0:0:0
     RDKit          3D

 95104  0  0  1  0  0  0  0  0999 V2000
  -27.6550  -20.1320   20.1710 C   0  0  0  0  0  1  0  0  0  0  0  0
  -29.0430  -20.5920   19.8940 N   0  0  1  0  0  4  0  0  0  0  0  0
  -29.2180  -20.2900   18.9470 H   0  0  0  0  0  0  0  0  0  0  0  0
  -28.2640  -22.8230   18.7500 C   0  0  0  0  0  2  0  0  0  0  0  0
  -28.9130  -22.8980   21.1710 C   0  0  0  0  0  2  0  0  0  0  0  0
  -28.4260  -24.3760   18.6560 C   0  0  0  0  0  2  0  0  0  0  0  0
  -29.0610  -24.4570   21.0550 C   0  0  0  0  0  2  0  0  0  0  0  0
  -29.1600  -22.1290   19.8340 C   0  0  0  0  0  3  0  0  0  0  0  0
  -28.1330  -25.1050   19.9930 C   0  0  0  0  0  3  0  0  0  0  0  0
  -28.2850  -26.5700   19.9060 O   0  0  0  0  0  0  0  0  0  0  0  0
  -24.5410  -31.8260   23.0690 C   0  0  0  0  0  0  0  0  0  0  0  0
  -27.1420  -27.3770   19.8840 C   0  0  0  0  0  0  0  0  0  0  0  0
  -23.3210  -30.4540   21.4170 C   0  0  0  0  0  3  0  0  0  0  0  0
  -24.7600  -28.9460   19.9370 C   0  0  0  0  0  0  0  0  0  0  0  0
  -25.8510  -30.8030   21.2000 C   0  0  0  0  0  2  0  0  0  0  0  0
  -25.9310  -29.4410   20.5260 C   0  0  0  0  0  0  0  0  0  0  0  0
  -27.1240  -28.6670   20.4890 C   0  0  0  0  0  3  0  0  0  0  0  0
  -25.9520  -26.9320   19.2640 C   0  0  0  0  0  3  0  0  0  0  0  0
  -24.7710  -27.6970   19.2980 C   0  0  0  0  0  3  0  0  0  0  0  0
  -23.5170  -29.8070   20.0200 C   0  0  0  0  0  2  0  0  0  0  0  0
  -24.5910  -31.0440   21.9520 N   0  0  0  0  0  0  0  0  0  0  0  0
  -23.4640  -32.0860   23.6250 O   0  0  0  0  0  0  0  0  0  0  0  0
  -22.6810  -29.4130   22.3650 C   0  0  0  0  0  0  0  0  0  0  0  0
  -21.3560  -29.2210   22.2440 N   0  0  0  0  0  0  0  0  0  0  0  0
  -23.3730  -28.7820   23.1670 O   0  0  0  0  0  0  0  0  0  0  0  0
  -20.8560  -29.7840   21.5690 H   0  0  0  0  0  0  0  0  0  0  0  0
  -18.0010  -27.9610   22.7240 C   0  0  0  0  0  0  0  0  0  0  0  0
  -20.5530  -28.2640   23.0050 C   0  0  0  0  0  3  0  0  0  0  0  0
  -20.6830  -26.8390   22.4180 C   0  0  0  0  0  2  0  0  0  0  0  0
  -19.5900  -26.5040   21.3990 C   0  0  0  0  0  2  0  0  0  0  0  0
  -18.2040  -26.6210   22.0390 C   0  0  0  0  0  2  0  0  0  0  0  0
  -19.1040  -28.7400   23.1640 C   0  0  0  0  0  0  0  0  0  0  0  0
  -18.8620  -29.9940   23.7630 C   0  0  0  0  0  3  0  0  0  0  0  0
  -17.5480  -30.4710   23.9280 C   0  0  0  0  0  3  0  0  0  0  0  0
  -16.4580  -29.6890   23.5060 C   0  0  0  0  0  3  0  0  0  0  0  0
  -16.6860  -28.4370   22.9090 C   0  0  0  0  0  3  0  0  0  0  0  0
  -25.8300  -32.4530   23.6840 C   0  0  0  0  0  3  0  0  0  0  0  0
  -26.3770  -31.6510   24.9300 C   0  0  1  0  0  0  0  0  0  0  0  0
  -25.3050  -31.3740   26.0110 C   0  0  0  0  0  1  0  0  0  0  0  0
  -26.9620  -30.2900   24.4890 C   0  0  0  0  0  1  0  0  0  0  0  0
  -27.5330  -32.4350   25.5920 C   0  0  0  0  0  1  0  0  0  0  0  0
  -25.5160  -33.8390   24.0590 N   0  0  0  0  0  0  0  0  0  0  0  0
  -25.8420  -34.9160   23.3330 C   0  0  0  0  0  0  0  0  0  0  0  0
  -26.5090  -34.8480   22.2970 O   0  0  0  0  0  0  0  0  0  0  0  0
  -24.9230  -33.9650   24.8660 H   0  0  0  0  0  0  0  0  0  0  0  0
  -24.1170  -36.7210   23.0260 C   0  0  0  0  0  1  0  0  0  0  0  0
  -25.3500  -36.2870   23.8350 C   0  0  0  0  0  3  0  0  0  0  0  0
  -27.4730  -37.1430   24.7210 C   0  0  0  0  0  1  0  0  0  0  0  0
  -26.3830  -37.3440   23.7710 N   0  0  0  0  0  0  0  0  0  0  0  0
  -25.9740  -38.2580   23.9460 H   0  0  0  0  0  0  0  0  0  0  0  0
  -32.3080  -18.1890   21.8580 C   0  0  0  0  0  2  0  0  0  0  0  0
  -32.5260  -19.6420   21.4090 C   0  0  0  0  0  2  0  0  0  0  0  0
  -30.8340  -17.9160   22.2100 C   0  0  0  0  0  2  0  0  0  0  0  0
  -31.5440  -20.0850   20.3070 C   0  0  0  0  0  2  0  0  0  0  0  0
  -29.8840  -18.2590   21.0360 C   0  0  0  0  0  3  0  0  0  0  0  0
  -30.0730  -19.8340   20.7320 C   0  0  0  0  0  3  0  0  0  0  0  0
  -30.0950  -17.1800   19.8900 C   0  0  0  0  0  2  0  0  0  0  0  0
  -30.6580  -14.6610   19.9510 C   0  0  0  0  0  0  0  0  0  0  0  0
  -30.3830  -12.4210   18.9340 C   0  0  0  0  0  2  0  0  0  0  0  0
  -29.3830  -12.5480   17.7640 C   0  0  0  0  0  2  0  0  0  0  0  0
  -27.9350  -12.3920   18.2670 C   0  0  0  0  0  2  0  0  0  0  0  0
  -27.6370  -13.2650   19.5150 C   0  0  0  0  0  3  0  0  0  0  0  0
  -28.7490  -13.1270   20.5790 C   0  0  0  0  0  2  0  0  0  0  0  0
  -30.0300  -13.4470   19.9330 N   0  0  0  0  0  0  0  0  0  0  0  0
  -31.7910  -14.8100   19.4880 O   0  0  0  0  0  0  0  0  0  0  0  0
  -29.8860  -15.7400   20.2760 N   0  0  0  0  0  0  0  0  0  0  0  0
  -28.9780  -15.5110   20.6520 H   0  0  0  0  0  0  0  0  0  0  0  0
  -25.2840  -13.8640   20.3580 C   0  0  0  0  0  0  0  0  0  0  0  0
  -24.2370  -13.0890   20.7800 C   0  0  0  0  0  0  0  0  0  0  0  0
  -24.6950  -11.7380   20.7180 C   0  0  0  0  0  0  0  0  0  0  0  0
  -26.3140  -12.9840   20.0660 N   0  0  0  0  0  0  0  0  0  0  0  0
  -25.9680  -11.7000   20.3420 N   0  0  0  0  0  0  0  0  0  0  0  0
  -23.9790  -10.4750   20.9390 C   0  0  0  0  0  0  0  0  0  0  0  0
  -24.4340   -9.5220   21.8760 C   0  0  0  0  0  3  0  0  0  0  0  0
  -23.7180   -8.3230   22.0840 C   0  0  0  0  0  3  0  0  0  0  0  0
  -22.5310   -8.0700   21.3540 C   0  0  0  0  0  0  0  0  0  0  0  0
  -22.0960   -9.0110   20.4060 C   0  0  0  0  0  3  0  0  0  0  0  0
  -22.8130  -10.2010   20.1970 C   0  0  0  0  0  3  0  0  0  0  0  0
  -21.7850   -6.9230   21.4720 O   0  0  0  0  0  0  0  0  0  0  0  0
  -21.7280   -6.2170   22.6470 C   0  0  0  0  0  0  0  0  0  0  0  0
  -21.2720   -6.8050   23.8470 C   0  0  0  0  0  3  0  0  0  0  0  0
  -21.1640   -6.0250   25.0160 C   0  0  0  0  0  3  0  0  0  0  0  0
  -21.5030   -4.6580   24.9860 C   0  0  0  0  0  0  0  0  0  0  0  0
  -21.9520   -4.0710   23.7910 C   0  0  0  0  0  3  0  0  0  0  0  0
  -22.0610   -4.8480   22.6230 C   0  0  0  0  0  0  0  0  0  0  0  0
  -22.4750   -4.2720   21.4690 F   0  0  0  0  0  0  0  0  0  0  0  0
  -21.3920   -3.9080   26.1060 F   0  0  0  0  0  0  0  0  0  0  0  0
  -22.8570  -13.5660   21.1280 C   0  0  0  0  0  0  0  0  0  0  0  0
  -22.1760  -12.8660   22.0290 N   0  0  0  0  0  0  0  0  0  0  0  0
  -22.3920  -14.5930   20.6360 O   0  0  0  0  0  0  0  0  0  0  0  0
  -22.5650  -12.0350   22.4470 H   0  0  0  0  0  0  0  0  0  0  0  0
  -21.2520  -13.1680   22.3040 H   0  0  0  0  0  0  0  0  0  0  0  0
  -25.4390  -15.2360   20.1770 N   0  0  0  0  0  0  0  0  0  0  0  0
  -24.6730  -15.8850   20.3210 H   0  0  0  0  0  0  0  0  0  0  0  0
  -26.2590  -15.6720   19.7780 H   0  0  0  0  0  0  0  0  0  0  0  0
  2  1  1  0
  2  3  1  6
  4  8  1  0
  6  4  1  0
  6  9  1  0
  7  5  1  0
  8  2  1  0
  8  5  1  0
  9 10  1  0
  9  7  1  0
 11 22  2  0
 12 10  1  0
 12 17  1  0
 13 21  1  0
 13 23  1  0
 14 20  1  0
 14 16  1  0
 15 21  1  0
 16 15  1  0
 17 16  2  0
 18 19  1  0
 18 12  2  0
 19 14  2  0
 20 13  1  0
 21 11  1  0
 23 25  2  0
 24 23  1  0
 26 24  1  0
 27 36  2  0
 27 32  1  0
 28 24  1  0
 28 32  1  0
 29 28  1  0
 30 31  1  0
 30 29  1  0
 31 27  1  0
 32 33  2  0
 33 34  1  0
 35 34  2  0
 36 35  1  0
 37 11  1  0
 37 42  1  0
 37 38  1  0
 38 41  1  1
 38 39  1  0
 40 38  1  0
 42 45  1  0
 43 47  1  0
 43 42  1  0
 44 43  2  0
 47 46  1  0
 49 47  1  0
 49 50  1  0
 49 48  1  0
 51 53  1  0
 52 51  1  0
 54 56  1  0
 54 52  1  0
 55 57  1  0
 55 53  1  0
 56  2  1  0
 56 55  1  0
 57 66  1  0
 58 66  1  0
 59 64  1  0
 60 61  1  0
 60 59  1  0
 62 61  1  0
 62 71  1  0
 62 63  1  0
 64 58  1  0
 64 63  1  0
 65 58  2  0
 66 67  1  0
 68 69  2  0
 69 88  1  0
 70 69  1  0
 70 73  1  0
 71 72  1  0
 71 68  1  0
 72 70  2  0
 73 74  1  0
 74 75  2  0
 76 79  1  0
 76 75  1  0
 77 76  2  0
 78 77  1  0
 78 73  2  0
 79 80  1  0
 80 81  1  0
 81 82  2  0
 83 82  1  0
 83 87  1  0
 84 83  2  0
 85 80  2  0
 85 84  1  0
 86 85  1  0
 88 89  1  0
 89 92  1  0
 89 91  1  0
 90 88  2  0
 93 94  1  0
 93 68  1  0
 95 93  1  0
M  ISO  4   9 101  10 101  58 100  66 100
M  END
>  <TORSDO>  (1) 
F 19

>  <SCORE>  (1) 
-13.470

>  <name>  (1) 
0

>  <ligand_id>  (1) 
0

>  <original_smiles>  (1) 
[H]c1c([H])c([H])c2c(c1[H])C([H])([H])C([H])([H])C([H])([H])C2([H])N([H])C(=O)C1([H])N(C(=O)C([H])(N([H])C(=O)C([H])(N([H])C([H])([H])[H])C([H])([H])[H])C(C([H])([H])[H])(C([H])([H])[H])C([H])([H])[H])C([H])([H])c2c([H])c(OC3([H])C([H])([H])C([H])([H])C([H])([N+]([H])(C([H])([H])[H])C4([H])C([H])([H])C([H])([H])C([H])([H])C([H])([H])C4([H])C([H])([H])N([H])C(=O)N4C([H])([H])C([H])([H])C([H])([H])C([H])(n5nc(-c6c([H])c([H])c(Oc7c([H])c([H])c(F)c([H])c7F)c([H])c6[H])c(C(=O)N([H])[H])c5N([H])[H])C4([H])[H])C([H])([H])C3([H])[H])c([H])c([H])c2C1([H])[H]

>  <smiles>  (1) 
[H]c1c([H])c([H])c2c(c1[H])C([H])([H])C([H])([H])C([H])([H])C2([H])N([H])C(=O)C1([H])N(C(=O)C([H])(N([H])C(=O)C([H])(N([H])C([H])([H])[H])C([H])([H])[H])C(C([H])([H])[H])(C([H])([H])[H])C([H])([H])[H])C([H])([H])c2c([H])c(OC3([H])C([H])([H])C([H])([H])C([H])([N+]([H])(C([H])([H])[H])C4([H])C([H])([H])C([H])([H])C([H])([H])C([H])([H])C4([H])C([H])([H])N([H])C(=O)N4C([H])([H])C([H])([H])C([H])([H])C([H])(n5nc(-c6c([H])c([H])c(Oc7c([H])c([H])c(F)c([H])c7F)c([H])c6[H])c(C(=O)N([H])[H])c5N([H])[H])C4([H])[H])C([H])([H])C3([H])[H])c([H])c([H])c2C1([H])[H]

$$$$
1:0:0
     RDKit          3D

 93101  0  0  1  0  0  0  0  0999 V2000
  -29.4080  -19.5460   19.2650 C   0  0  0  0  0  3  0  0  0  0  0  0
  -28.7930  -20.3760   20.3830 C   0  0  0  0  0  3  0  0  0  0  0  0
  -29.7190  -18.7150   20.5270 C   0  0  0  0  0  3  0  0  0  0  0  0
  -30.2880  -15.6400   20.5610 C   0  0  0  0  0  0  0  0  0  0  0  0
  -30.4150  -13.1010   19.7730 C   0  0  0  0  0  2  0  0  0  0  0  0
  -29.5710  -12.7090   18.5300 C   0  0  0  0  0  2  0  0  0  0  0  0
  -28.1270  -12.3680   18.9260 C   0  0  0  0  0  2  0  0  0  0  0  0
  -27.5780  -13.3690   19.9710 C   0  0  0  0  0  3  0  0  0  0  0  0
  -28.5660  -13.6800   21.1170 C   0  0  0  0  0  2  0  0  0  0  0  0
  -29.7660  -14.2820   20.4940 N   0  0  0  0  0  0  0  0  0  0  0  0
  -31.5280  -15.5930   20.4620 O   0  0  0  0  0  0  0  0  0  0  0  0
  -29.5090  -16.9790   20.5420 N   0  0  0  0  0  0  0  0  0  0  0  0
  -28.5220  -16.7590   20.5310 H   0  0  0  0  0  0  0  0  0  0  0  0
  -25.1910  -13.8950   20.6590 C   0  0  0  0  0  0  0  0  0  0  0  0
  -24.1220  -13.1090   20.9860 C   0  0  0  0  0  0  0  0  0  0  0  0
  -24.5970  -11.7600   20.9560 C   0  0  0  0  0  0  0  0  0  0  0  0
  -26.2450  -13.0270   20.4430 N   0  0  0  0  0  0  0  0  0  0  0  0
  -25.9000  -11.7350   20.6900 N   0  0  0  0  0  0  0  0  0  0  0  0
  -23.8660  -10.4950   21.1070 C   0  0  0  0  0  0  0  0  0  0  0  0
  -24.2460   -9.5290   22.0630 C   0  0  0  0  0  3  0  0  0  0  0  0
  -23.5130   -8.3310   22.2050 C   0  0  0  0  0  3  0  0  0  0  0  0
  -22.3840   -8.0890   21.3870 C   0  0  0  0  0  0  0  0  0  0  0  0
  -22.0220   -9.0430   20.4200 C   0  0  0  0  0  3  0  0  0  0  0  0
  -22.7560  -10.2330   20.2780 C   0  0  0  0  0  3  0  0  0  0  0  0
  -21.6270   -6.9440   21.4360 O   0  0  0  0  0  0  0  0  0  0  0  0
  -21.4920   -6.2180   22.5920 C   0  0  0  0  0  0  0  0  0  0  0  0
  -20.9140   -6.7710   23.7550 C   0  0  0  0  0  3  0  0  0  0  0  0
  -20.7310   -5.9710   24.9000 C   0  0  0  0  0  3  0  0  0  0  0  0
  -21.1140   -4.6160   24.8820 C   0  0  0  0  0  0  0  0  0  0  0  0
  -21.6830   -4.0620   23.7210 C   0  0  0  0  0  3  0  0  0  0  0  0
  -21.8680   -4.8600   22.5790 C   0  0  0  0  0  0  0  0  0  0  0  0
  -22.3970   -4.3140   21.4580 F   0  0  0  0  0  0  0  0  0  0  0  0
  -20.9320   -3.8440   25.9800 F   0  0  0  0  0  0  0  0  0  0  0  0
  -22.7140  -13.5790   21.2040 C   0  0  0  0  0  0  0  0  0  0  0  0
  -21.9580  -12.8800   22.0420 N   0  0  0  0  0  0  0  0  0  0  0  0
  -22.2940  -14.6030   20.6650 O   0  0  0  0  0  0  0  0  0  0  0  0
  -22.3130  -12.0520   22.4980 H   0  0  0  0  0  0  0  0  0  0  0  0
  -21.0110  -13.1770   22.2300 H   0  0  0  0  0  0  0  0  0  0  0  0
  -25.3540  -15.2670   20.4950 N   0  0  0  0  0  0  0  0  0  0  0  0
  -24.5750  -15.9140   20.5620 H   0  0  0  0  0  0  0  0  0  0  0  0
  -26.1920  -15.6990   20.1300 H   0  0  0  0  0  0  0  0  0  0  0  0
  -28.4410  -19.0700   18.2030 C   0  0  0  0  0  0  0  0  0  0  0  0
  -27.9220  -17.9500   18.2700 O   0  0  0  0  0  0  0  0  0  0  0  0
  -29.3860  -20.6850   16.4420 C   0  0  0  0  0  1  0  0  0  0  0  0
  -28.1180  -20.0580   17.0600 C   0  0  0  0  0  3  0  0  0  0  0  0
  -27.3360  -19.3180   16.0510 N   0  0  0  0  0  4  0  0  0  0  0  0
  -27.8790  -18.5550   15.6860 H   0  0  0  0  0  0  0  0  0  0  0  0
  -27.0380  -19.9120   15.2990 H   0  0  0  0  0  0  0  0  0  0  0  0
  -26.5270  -18.9210   16.4960 H   0  0  0  0  0  0  0  0  0  0  0  0
  -29.7190  -22.5240   21.7440 C   0  0  0  0  0  1  0  0  0  0  0  0
  -29.0120  -22.2650   20.4100 C   0  0  0  0  0  3  0  0  0  0  0  0
  -27.9770  -23.8720   20.1820 C   0  0  0  0  0  2  0  0  0  0  0  0
  -28.1490  -25.6090   20.2870 O   0  0  0  0  0  0  0  0  0  0  0  0
  -24.5590  -31.8230   23.1840 C   0  0  0  0  0  0  0  0  0  0  0  0
  -27.1590  -26.7930   20.2240 C   0  0  0  0  0  0  0  0  0  0  0  0
  -23.4020  -30.4240   21.5270 C   0  0  0  0  0  3  0  0  0  0  0  0
  -24.8770  -28.7900   20.1350 C   0  0  0  0  0  0  0  0  0  0  0  0
  -25.9800  -30.5890   21.4420 C   0  0  0  0  0  2  0  0  0  0  0  0
  -26.0610  -29.1610   20.7850 C   0  0  0  0  0  0  0  0  0  0  0  0
  -27.1880  -28.1900   20.7950 C   0  0  0  0  0  3  0  0  0  0  0  0
  -25.9400  -26.6200   19.5230 C   0  0  0  0  0  3  0  0  0  0  0  0
  -24.8550  -27.5460   19.4800 C   0  0  0  0  0  3  0  0  0  0  0  0
  -23.6630  -29.7300   20.1590 C   0  0  0  0  0  2  0  0  0  0  0  0
  -24.6690  -30.9780   22.1040 N   0  0  0  0  0  0  0  0  0  0  0  0
  -23.4570  -32.1160   23.6790 O   0  0  0  0  0  0  0  0  0  0  0  0
  -22.6770  -29.4390   22.4850 C   0  0  0  0  0  0  0  0  0  0  0  0
  -21.3470  -29.2860   22.3460 N   0  0  0  0  0  0  0  0  0  0  0  0
  -23.3250  -28.8120   23.3270 O   0  0  0  0  0  0  0  0  0  0  0  0
  -20.8750  -29.8450   21.6470 H   0  0  0  0  0  0  0  0  0  0  0  0
  -17.9460  -28.1060   22.8420 C   0  0  0  0  0  0  0  0  0  0  0  0
  -20.5090  -28.3470   23.1040 C   0  0  0  0  0  3  0  0  0  0  0  0
  -20.5950  -26.9210   22.5090 C   0  0  0  0  0  2  0  0  0  0  0  0
  -19.4900  -26.6250   21.4900 C   0  0  0  0  0  2  0  0  0  0  0  0
  -18.1100  -26.7690   22.1390 C   0  0  0  0  0  2  0  0  0  0  0  0
  -19.0710  -28.8540   23.2800 C   0  0  0  0  0  0  0  0  0  0  0  0
  -18.8600  -30.1030   23.9020 C   0  0  0  0  0  3  0  0  0  0  0  0
  -17.5570  -30.6060   24.0870 C   0  0  0  0  0  3  0  0  0  0  0  0
  -16.4470  -29.8550   23.6620 C   0  0  0  0  0  3  0  0  0  0  0  0
  -16.6430  -28.6060   23.0450 C   0  0  0  0  0  3  0  0  0  0  0  0
  -25.8100  -32.4760   23.8460 C   0  0  0  0  0  3  0  0  0  0  0  0
  -25.4890  -33.8850   24.1470 N   0  0  0  0  0  0  0  0  0  0  0  0
  -25.8470  -34.9350   23.3970 C   0  0  0  0  0  0  0  0  0  0  0  0
  -26.5380  -34.8220   22.3830 O   0  0  0  0  0  0  0  0  0  0  0  0
  -24.8760  -34.0480   24.9330 H   0  0  0  0  0  0  0  0  0  0  0  0
  -24.1440  -36.7520   23.0000 C   0  0  0  0  0  1  0  0  0  0  0  0
  -25.3640  -36.3350   23.8390 C   0  0  0  0  0  3  0  0  0  0  0  0
  -27.4800  -37.2180   24.7220 C   0  0  0  0  0  1  0  0  0  0  0  0
  -26.4080  -37.3790   23.7430 N   0  0  0  0  0  0  0  0  0  0  0  0
  -26.0050  -38.3040   23.8640 H   0  0  0  0  0  0  0  0  0  0  0  0
  -26.2670  -31.7380   25.1660 C   0  0  1  0  0  0  0  0  0  0  0  0
  -25.1290  -31.5380   26.1960 C   0  0  0  0  0  1  0  0  0  0  0  0
  -26.8530  -30.3450   24.8470 C   0  0  0  0  0  1  0  0  0  0  0  0
  -27.3970  -32.5420   25.8520 C   0  0  0  0  0  1  0  0  0  0  0  0
  1 42  1  0
  1  2  1  0
  1  3  1  0
  2 51  1  0
  2  3  1  0
  3 12  1  0
  5 10  1  0
  6  7  1  0
  6  5  1  0
  8  7  1  0
  8 17  1  0
  8  9  1  0
 10  4  1  0
 10  9  1  0
 11  4  2  0
 12  4  1  0
 13 12  1  0
 14 15  2  0
 15 34  1  0
 16 15  1  0
 16 19  1  0
 17 14  1  0
 17 18  1  0
 18 16  2  0
 19 20  1  0
 20 21  2  0
 22 25  1  0
 22 21  1  0
 23 22  2  0
 24 23  1  0
 24 19  2  0
 25 26  1  0
 26 27  1  0
 27 28  2  0
 29 28  1  0
 29 33  1  0
 30 29  2  0
 31 26  2  0
 31 30  1  0
 32 31  1  0
 34 35  1  0
 35 38  1  0
 35 37  1  0
 36 34  2  0
 39 40  1  0
 39 14  1  0
 41 39  1  0
 42 43  2  0
 45 44  1  0
 45 42  1  0
 46 49  1  0
 46 45  1  0
 47 46  1  0
 48 46  1  0
 51 50  1  0
 52 53  1  0
 52 51  1  0
 54 65  2  0
 55 53  1  0
 55 60  1  0
 56 64  1  0
 56 66  1  0
 57 63  1  0
 57 59  1  0
 58 64  1  0
 59 60  2  0
 59 58  1  0
 61 55  2  0
 62 61  1  0
 62 57  2  0
 63 56  1  0
 64 54  1  0
 66 68  2  0
 67 66  1  0
 69 67  1  0
 70 79  2  0
 70 75  1  0
 71 67  1  0
 71 75  1  0
 72 71  1  0
 73 74  1  0
 73 72  1  0
 74 70  1  0
 75 76  2  0
 76 77  1  0
 78 77  2  0
 79 78  1  0
 80 54  1  0
 80 81  1  0
 80 90  1  0
 81 84  1  0
 82 86  1  0
 82 81  1  0
 83 82  2  0
 86 85  1  0
 88 86  1  0
 88 89  1  0
 88 87  1  0
 90 93  1  1
 90 91  1  0
 92 90  1  0
M  ISO  4   4 100  12 100  52 101  53 101
M  END
>  <TORSDO>  (2) 
F 21

>  <SCORE>  (2) 
-15.189

>  <name>  (2) 
1

>  <ligand_id>  (2) 
1

>  <original_smiles>  (2) 
[H]c1c([H])c([H])c2c(c1[H])C([H])([H])C([H])([H])C([H])([H])C2([H])N([H])C(=O)C1([H])N(C(=O)C([H])(N([H])C(=O)C([H])(N([H])C([H])([H])[H])C([H])([H])[H])C(C([H])([H])[H])(C([H])([H])[H])C([H])([H])[H])C([H])([H])c2c([H])c(OC([H])([H])C([H])(C([H])([H])[H])C3([H])C([H])(C(=O)C([H])(C([H])([H])[H])[N+]([H])([H])[H])C3([H])N([H])C(=O)N3C([H])([H])C([H])([H])C([H])([H])C([H])(n4nc(-c5c([H])c([H])c(Oc6c([H])c([H])c(F)c([H])c6F)c([H])c5[H])c(C(=O)N([H])[H])c4N([H])[H])C3([H])[H])c([H])c([H])c2C1([H])[H]

>  <smiles>  (2) 
[H]c1c([H])c([H])c2c(c1[H])C([H])([H])C([H])([H])C([H])([H])C2([H])N([H])C(=O)C1([H])N(C(=O)C([H])(N([H])C(=O)C([H])(N([H])C([H])([H])[H])C([H])([H])[H])C(C([H])([H])[H])(C([H])([H])[H])C([H])([H])[H])C([H])([H])c2c([H])c(OC([H])([H])C([H])(C([H])([H])[H])C3([H])C([H])(C(=O)C([H])(C([H])([H])[H])[N+]([H])([H])[H])C3([H])N([H])C(=O)N3C([H])([H])C([H])([H])C([H])([H])C([H])(n4nc(-c5c([H])c([H])c(Oc6c([H])c([H])c(F)c([H])c6F)c([H])c5[H])c(C(=O)N([H])[H])c4N([H])[H])C3([H])[H])c([H])c([H])c2C1([H])[H]

$$$$
2:0:0
     RDKit          3D

100108  0  0  1  0  0  0  0  0999 V2000
  -28.7110  -22.5090   21.5760 N   0  0  0  0  0  4  0  0  0  0  0  0
  -28.1770  -23.0680   22.2230 H   0  0  0  0  0  0  0  0  0  0  0  0
  -29.6450  -22.4880   21.9510 H   0  0  0  0  0  0  0  0  0  0  0  0
  -28.0830  -21.1710   21.5230 C   0  0  0  0  0  2  0  0  0  0  0  0
  -30.2690  -19.9670   21.9370 C   0  0  0  0  0  3  0  0  0  0  0  0
  -31.1330  -18.8740   21.7580 C   0  0  0  0  0  3  0  0  0  0  0  0
  -29.0480  -20.0150   21.2290 C   0  0  0  0  0  0  0  0  0  0  0  0
  -28.7520  -18.9320   20.3580 C   0  0  0  0  0  0  0  0  0  0  0  0
  -30.7410  -17.8440   20.8960 C   0  0  0  0  0  0  0  0  0  0  0  0
  -29.5840  -17.8740   20.2070 N   0  0  0  0  0  0  0  0  0  0  0  0
  -31.5410  -16.7140   20.7460 N   0  0  0  0  0  0  0  0  0  0  0  0
  -32.4540  -16.7350   21.1860 H   0  0  0  0  0  0  0  0  0  0  0  0
  -31.3660  -14.5000   19.8170 C   0  0  0  0  0  0  0  0  0  0  0  0
  -30.9960  -12.2150   18.9630 C   0  0  0  0  0  2  0  0  0  0  0  0
  -30.0230  -12.2150   17.7700 C   0  0  0  0  0  2  0  0  0  0  0  0
  -28.5630  -12.1420   18.2540 C   0  0  0  0  0  2  0  0  0  0  0  0
  -28.2510  -13.1780   19.3650 C   0  0  0  0  0  3  0  0  0  0  0  0
  -29.3330  -13.1520   20.4690 C   0  0  0  0  0  2  0  0  0  0  0  0
  -30.6510  -13.3450   19.8360 N   0  0  0  0  0  0  0  0  0  0  0  0
  -32.3750  -14.6660   19.1210 O   0  0  0  0  0  0  0  0  0  0  0  0
  -30.9280  -15.4560   20.6420 N   0  0  0  0  0  0  0  0  0  0  0  0
  -30.0920  -15.3310   21.1940 H   0  0  0  0  0  0  0  0  0  0  0  0
  -25.9340  -13.9160   20.2100 C   0  0  0  0  0  0  0  0  0  0  0  0
  -24.8470  -13.2020   20.6410 C   0  0  0  0  0  0  0  0  0  0  0  0
  -25.2280  -11.8260   20.5810 C   0  0  0  0  0  0  0  0  0  0  0  0
  -26.9140  -12.9770   19.9190 N   0  0  0  0  0  0  0  0  0  0  0  0
  -26.4940  -11.7160   20.1960 N   0  0  0  0  0  0  0  0  0  0  0  0
  -24.4450  -10.6070   20.8160 C   0  0  0  0  0  0  0  0  0  0  0  0
  -24.8110   -9.6720   21.8090 C   0  0  0  0  0  3  0  0  0  0  0  0
  -24.0310   -8.5160   22.0280 C   0  0  0  0  0  3  0  0  0  0  0  0
  -22.8710   -8.2850   21.2510 C   0  0  0  0  0  0  0  0  0  0  0  0
  -22.5220   -9.2090   20.2500 C   0  0  0  0  0  3  0  0  0  0  0  0
  -23.3020  -10.3550   20.0290 C   0  0  0  0  0  3  0  0  0  0  0  0
  -22.0690   -7.1760   21.3740 O   0  0  0  0  0  0  0  0  0  0  0  0
  -21.8700   -6.5620   22.5850 C   0  0  0  0  0  0  0  0  0  0  0  0
  -21.3280   -7.2530   23.6900 C   0  0  0  0  0  3  0  0  0  0  0  0
  -21.0730   -6.5670   24.8940 C   0  0  0  0  0  3  0  0  0  0  0  0
  -21.3510   -5.1910   24.9930 C   0  0  0  0  0  0  0  0  0  0  0  0
  -21.8850   -4.4980   23.8910 C   0  0  0  0  0  3  0  0  0  0  0  0
  -22.1420   -5.1820   22.6900 C   0  0  0  0  0  0  0  0  0  0  0  0
  -22.6360   -4.5060   21.6240 F   0  0  0  0  0  0  0  0  0  0  0  0
  -21.0990   -4.5290   26.1470 F   0  0  0  0  0  0  0  0  0  0  0  0
  -23.4970  -13.7560   20.9980 C   0  0  0  0  0  0  0  0  0  0  0  0
  -22.7960  -13.1130   21.9250 N   0  0  0  0  0  0  0  0  0  0  0  0
  -23.0800  -14.7950   20.4890 O   0  0  0  0  0  0  0  0  0  0  0  0
  -23.1520  -12.2740   22.3600 H   0  0  0  0  0  0  0  0  0  0  0  0
  -21.8910  -13.4630   22.2030 H   0  0  0  0  0  0  0  0  0  0  0  0
  -26.1670  -15.2730   20.0280 N   0  0  0  0  0  0  0  0  0  0  0  0
  -27.0420  -15.6600   19.6940 H   0  0  0  0  0  0  0  0  0  0  0  0
  -25.4520  -15.9750   20.1850 H   0  0  0  0  0  0  0  0  0  0  0  0
  -27.7530  -19.4830   18.1030 C   0  0  0  0  0  1  0  0  0  0  0  0
  -27.5070  -18.8650   19.4850 C   0  0  0  0  0  2  0  0  0  0  0  0
  -28.7400  -23.3040   20.3310 C   0  0  0  0  0  2  0  0  0  0  0  0
  -28.8640  -24.7940   20.7140 C   0  0  0  0  0  3  0  0  0  0  0  0
  -30.0110  -24.9770   21.5920 N   0  0  0  0  0  0  0  0  0  0  0  0
  -29.9730  -25.9390   21.9140 H   0  0  0  0  0  0  0  0  0  0  0  0
  -30.8420  -24.9700   21.0070 H   0  0  0  0  0  0  0  0  0  0  0  0
  -30.3410  -25.7570   18.8090 C   0  0  0  0  0  1  0  0  0  0  0  0
  -28.9780  -25.7820   19.5260 C   0  0  0  0  0  3  0  0  0  0  0  0
  -28.7990  -27.1050   20.0510 O   0  0  0  0  0  0  0  0  0  0  0  0
  -24.7310  -31.9250   23.3480 C   0  0  0  0  0  0  0  0  0  0  0  0
  -27.5550  -27.7110   20.0930 C   0  0  0  0  0  0  0  0  0  0  0  0
  -23.5880  -30.5730   21.6210 C   0  0  0  0  0  3  0  0  0  0  0  0
  -25.1040  -29.1380   20.1590 C   0  0  0  0  0  0  0  0  0  0  0  0
  -26.1060  -31.0060   21.4840 C   0  0  0  0  0  2  0  0  0  0  0  0
  -26.2380  -29.6680   20.7850 C   0  0  0  0  0  0  0  0  0  0  0  0
  -27.4600  -28.9600   20.7500 C   0  0  0  0  0  3  0  0  0  0  0  0
  -26.3870  -27.1810   19.4890 C   0  0  0  0  0  3  0  0  0  0  0  0
  -25.1710  -27.8900   19.5180 C   0  0  0  0  0  3  0  0  0  0  0  0
  -23.8380  -29.9620   20.2170 C   0  0  0  0  0  2  0  0  0  0  0  0
  -24.8250  -31.1800   22.2110 N   0  0  0  0  0  0  0  0  0  0  0  0
  -23.6340  -32.1470   23.8790 O   0  0  0  0  0  0  0  0  0  0  0  0
  -22.9480  -29.4920   22.5200 C   0  0  0  0  0  0  0  0  0  0  0  0
  -21.6370  -29.2630   22.3360 N   0  0  0  0  0  0  0  0  0  0  0  0
  -23.6280  -28.8630   23.3350 O   0  0  0  0  0  0  0  0  0  0  0  0
  -21.1510  -29.8260   21.6520 H   0  0  0  0  0  0  0  0  0  0  0  0
  -18.3020  -27.9140   22.6550 C   0  0  0  0  0  0  0  0  0  0  0  0
  -20.8320  -28.2660   23.0410 C   0  0  0  0  0  3  0  0  0  0  0  0
  -21.0190  -26.8620   22.4220 C   0  0  0  0  0  2  0  0  0  0  0  0
  -19.9720  -26.5320   21.3530 C   0  0  0  0  0  2  0  0  0  0  0  0
  -18.5610  -26.5970   21.9440 C   0  0  0  0  0  2  0  0  0  0  0  0
  -19.3690  -28.7060   23.1560 C   0  0  0  0  0  0  0  0  0  0  0  0
  -19.0760  -29.9390   23.7790 C   0  0  0  0  0  3  0  0  0  0  0  0
  -17.7470  -30.3820   23.9050 C   0  0  0  0  0  3  0  0  0  0  0  0
  -16.6920  -29.5880   23.4200 C   0  0  0  0  0  3  0  0  0  0  0  0
  -16.9700  -28.3560   22.8020 C   0  0  0  0  0  3  0  0  0  0  0  0
  -25.9890  -32.5560   24.0200 C   0  0  0  0  0  3  0  0  0  0  0  0
  -25.6590  -33.9460   24.3580 N   0  0  0  0  0  0  0  0  0  0  0  0
  -26.0130  -35.0110   23.6260 C   0  0  0  0  0  0  0  0  0  0  0  0
  -26.7250  -34.9270   22.6210 O   0  0  0  0  0  0  0  0  0  0  0  0
  -25.0330  -34.0850   25.1370 H   0  0  0  0  0  0  0  0  0  0  0  0
  -24.2850  -36.7950   23.2260 C   0  0  0  0  0  1  0  0  0  0  0  0
  -25.4950  -36.3880   24.0810 C   0  0  0  0  0  3  0  0  0  0  0  0
  -27.5860  -37.2820   25.0120 C   0  0  0  0  0  1  0  0  0  0  0  0
  -26.5230  -37.4510   24.0250 N   0  0  0  0  0  0  0  0  0  0  0  0
  -26.1010  -38.3640   24.1670 H   0  0  0  0  0  0  0  0  0  0  0  0
  -26.4720  -31.7680   25.3000 C   0  0  1  0  0  0  0  0  0  0  0  0
  -25.3450  -31.4990   26.3240 C   0  0  0  0  0  1  0  0  0  0  0  0
  -27.0890  -30.4060   24.9040 C   0  0  0  0  0  1  0  0  0  0  0  0
  -27.5830  -32.5680   26.0210 C   0  0  0  0  0  1  0  0  0  0  0  0
  1  3  1  0
  1  2  1  0
  4  1  1  0
  6  5  1  0
  7  4  1  0
  7  5  2  0
  8  7  1  0
  9  6  2  0
 10  8  2  0
 10  9  1  0
 11  9  1  0
 11 12  1  0
 13 19  1  0
 13 21  1  0
 14 19  1  0
 15 16  1  0
 15 14  1  0
 17 16  1  0
 17 26  1  0
 17 18  1  0
 19 18  1  0
 20 13  2  0
 21 11  1  0
 21 22  1  0
 23 24  2  0
 24 43  1  0
 25 24  1  0
 25 28  1  0
 26 27  1  0
 26 23  1  0
 27 25  2  0
 28 29  1  0
 29 30  2  0
 31 34  1  0
 31 30  1  0
 32 31  2  0
 33 32  1  0
 33 28  2  0
 34 35  1  0
 35 40  2  0
 35 36  1  0
 36 37  2  0
 37 38  1  0
 38 42  1  0
 39 38  2  0
 40 39  1  0
 41 40  1  0
 43 44  1  0
 44 47  1  0
 44 46  1  0
 45 43  2  0
 48 50  1  0
 48 23  1  0
 49 48  1  0
 51 52  1  0
 52  8  1  0
 53  1  1  0
 54 53  1  0
 54 55  1  0
 55 56  1  0
 57 55  1  0
 59 58  1  0
 59 60  1  0
 59 54  1  0
 60 62  1  0
 61 72  2  0
 62 67  1  0
 63 71  1  0
 63 73  1  0
 64 70  1  0
 64 66  1  0
 65 71  1  0
 66 65  1  0
 67 66  2  0
 68 69  1  0
 68 62  2  0
 69 64  2  0
 70 63  1  0
 71 61  1  0
 73 75  2  0
 74 73  1  0
 76 74  1  0
 77 86  2  0
 77 82  1  0
 78 74  1  0
 78 82  1  0
 79 78  1  0
 80 81  1  0
 80 79  1  0
 81 77  1  0
 82 83  2  0
 83 84  1  0
 85 84  2  0
 86 85  1  0
 87 61  1  0
 87 88  1  0
 87 97  1  0
 88 91  1  0
 89 93  1  0
 89 88  1  0
 90 89  2  0
 93 92  1  0
 95 93  1  0
 95 96  1  0
 95 94  1  0
 97100  1  1
 97 98  1  0
 99 97  1  0
M  ISO  4  13 100  21 100  59 101  60 101
M  END
>  <TORSDO>  (3) 
F 23

>  <SCORE>  (3) 
-11.947

>  <name>  (3) 
2

>  <ligand_id>  (3) 
2

>  <original_smiles>  (3) 
[H]c1c(N([H])N([H])C(=O)N2C([H])([H])C([H])([H])C([H])([H])C([H])(n3nc(-c4c([H])c([H])c(Oc5c([H])c([H])c(F)c([H])c5F)c([H])c4[H])c(C(=O)N([H])[H])c3N([H])[H])C2([H])[H])nc(C([H])([H])C([H])([H])[H])c(C([H])([H])[N+]([H])([H])C([H])([H])C([H])(N([H])[H])C([H])(Oc2c([H])c([H])c3c(c2[H])C([H])([H])N(C(=O)C([H])(N([H])C(=O)C([H])(N([H])C([H])([H])[H])C([H])([H])[H])C(C([H])([H])[H])(C([H])([H])[H])C([H])([H])[H])C([H])(C(=O)N([H])C2([H])c4c([H])c([H])c([H])c([H])c4C([H])([H])C([H])([H])C2([H])[H])C3([H])[H])C([H])([H])[H])c1[H]

>  <smiles>  (3) 
[H]c1c(N([H])N([H])C(=O)N2C([H])([H])C([H])([H])C([H])([H])C([H])(n3nc(-c4c([H])c([H])c(Oc5c([H])c([H])c(F)c([H])c5F)c([H])c4[H])c(C(=O)N([H])[H])c3N([H])[H])C2([H])[H])nc(C([H])([H])C([H])([H])[H])c(C([H])([H])[N+]([H])([H])C([H])([H])C([H])(N([H])[H])C([H])(Oc2c([H])c([H])c3c(c2[H])C([H])([H])N(C(=O)C([H])(N([H])C(=O)C([H])(N([H])C([H])([H])[H])C([H])([H])[H])C(C([H])([H])[H])(C([H])([H])[H])C([H])([H])[H])C([H])(C(=O)N([H])C2([H])c4c([H])c([H])c([H])c([H])c4C([H])([H])C([H])([H])C2([H])[H])C3([H])[H])C([H])([H])[H])c1[H]

$$$$
3:0:0
     RDKit          3D

 99107  0  0  1  0  0  0  0  0999 V2000
  -31.4570  -19.7920   19.0340 C   0  0  0  0  0  2  0  0  0  0  0  0
  -30.7200  -19.7540   22.8150 C   0  0  0  0  0  3  0  0  0  0  0  0
  -30.9380  -20.2630   21.5220 C   0  0  0  0  0  3  0  0  0  0  0  0
  -30.6210  -18.3530   22.9920 C   0  0  0  0  0  0  0  0  0  0  0  0
  -31.0550  -19.3630   20.4470 C   0  0  0  0  0  0  0  0  0  0  0  0
  -30.6690  -17.5210   21.8480 C   0  0  0  0  0  0  0  0  0  0  0  0
  -30.8890  -18.0310   20.6100 N   0  0  0  0  0  0  0  0  0  0  0  0
  -31.1360  -15.0870   21.7760 C   0  0  0  0  0  0  0  0  0  0  0  0
  -31.0640  -12.7000   21.1770 C   0  0  0  0  0  2  0  0  0  0  0  0
  -30.4940  -12.5640   19.7490 C   0  0  0  0  0  2  0  0  0  0  0  0
  -28.9560  -12.4710   19.7910 C   0  0  0  0  0  2  0  0  0  0  0  0
  -28.3180  -13.6050   20.6380 C   0  0  0  0  0  3  0  0  0  0  0  0
  -29.0200  -13.7160   22.0100 C   0  0  0  0  0  2  0  0  0  0  0  0
  -30.4690  -13.9000   21.7780 N   0  0  0  0  0  0  0  0  0  0  0  0
  -32.3360  -15.1780   21.4880 O   0  0  0  0  0  0  0  0  0  0  0  0
  -30.4000  -16.1510   22.0960 N   0  0  0  0  0  0  0  0  0  0  0  0
  -29.4890  -15.9640   22.4830 H   0  0  0  0  0  0  0  0  0  0  0  0
  -25.8520  -14.3560   20.7640 C   0  0  0  0  0  0  0  0  0  0  0  0
  -24.6840  -13.6480   20.8830 C   0  0  0  0  0  0  0  0  0  0  0  0
  -25.0650  -12.2740   20.9740 C   0  0  0  0  0  0  0  0  0  0  0  0
  -26.8740  -13.4180   20.7900 N   0  0  0  0  0  0  0  0  0  0  0  0
  -26.3890  -12.1610   20.9710 N   0  0  0  0  0  0  0  0  0  0  0  0
  -24.2470  -11.0540   21.0060 C   0  0  0  0  0  0  0  0  0  0  0  0
  -24.4550  -10.0520   21.9800 C   0  0  0  0  0  3  0  0  0  0  0  0
  -23.6470   -8.8950   22.0030 C   0  0  0  0  0  3  0  0  0  0  0  0
  -22.6140   -8.7350   21.0490 C   0  0  0  0  0  0  0  0  0  0  0  0
  -22.4250   -9.7240   20.0690 C   0  0  0  0  0  3  0  0  0  0  0  0
  -23.2340  -10.8720   20.0440 C   0  0  0  0  0  3  0  0  0  0  0  0
  -21.7970   -7.6330   20.9760 O   0  0  0  0  0  0  0  0  0  0  0  0
  -21.5530   -6.8440   22.0720 C   0  0  0  0  0  0  0  0  0  0  0  0
  -21.0130   -7.3740   23.2650 C   0  0  0  0  0  3  0  0  0  0  0  0
  -20.7110   -6.5160   24.3430 C   0  0  0  0  0  3  0  0  0  0  0  0
  -20.9400   -5.1320   24.2260 C   0  0  0  0  0  0  0  0  0  0  0  0
  -21.4760   -4.6030   23.0380 C   0  0  0  0  0  3  0  0  0  0  0  0
  -21.7780   -5.4570   21.9630 C   0  0  0  0  0  0  0  0  0  0  0  0
  -22.2720   -4.9420   20.8120 F   0  0  0  0  0  0  0  0  0  0  0  0
  -20.6450   -4.3070   25.2570 F   0  0  0  0  0  0  0  0  0  0  0  0
  -23.2890  -14.2030   20.8180 C   0  0  0  0  0  0  0  0  0  0  0  0
  -22.3420  -13.5750   21.5090 N   0  0  0  0  0  0  0  0  0  0  0  0
  -23.0350  -15.2280   20.1860 O   0  0  0  0  0  0  0  0  0  0  0  0
  -22.5470  -12.7550   22.0580 H   0  0  0  0  0  0  0  0  0  0  0  0
  -21.3960  -13.9320   21.4960 H   0  0  0  0  0  0  0  0  0  0  0  0
  -26.1230  -15.7130   20.6130 N   0  0  0  0  0  0  0  0  0  0  0  0
  -25.3800  -16.3990   20.5190 H   0  0  0  0  0  0  0  0  0  0  0  0
  -27.0460  -16.1060   20.4860 H   0  0  0  0  0  0  0  0  0  0  0  0
  -30.5650  -17.7560   24.2640 N   0  0  0  0  0  0  0  0  0  0  0  0
  -30.6280  -16.7440   24.2780 H   0  0  0  0  0  0  0  0  0  0  0  0
  -30.7010  -18.9560   26.3700 C   0  0  0  0  0  1  0  0  0  0  0  0
  -28.8890  -17.2390   25.9300 C   0  0  0  0  0  1  0  0  0  0  0  0
  -29.7670  -18.3410   25.3230 C   0  0  0  0  0  3  0  0  0  0  0  0
  -31.8100  -21.2900   18.8170 C   0  0  0  0  0  2  0  0  0  0  0  0
  -30.6360  -22.2110   18.4510 C   0  0  0  0  0  0  0  0  0  0  0  0
  -30.8650  -23.5290   18.5590 N   0  0  0  0  0  0  0  0  0  0  0  0
  -29.5820  -21.7530   18.0060 O   0  0  0  0  0  0  0  0  0  0  0  0
  -31.7600  -23.7980   18.9460 H   0  0  0  0  0  0  0  0  0  0  0  0
  -30.1030  -24.5990   17.8990 C   0  0  0  0  0  2  0  0  0  0  0  0
  -28.6410  -24.7500   18.3710 C   0  0  0  0  0  2  0  0  0  0  0  0
  -28.4880  -25.4050   19.7520 C   0  0  0  0  0  2  0  0  0  0  0  0
  -28.5230  -26.8370   19.6630 O   0  0  0  0  0  0  0  0  0  0  0  0
  -24.6680  -31.6410   23.1900 C   0  0  0  0  0  0  0  0  0  0  0  0
  -27.3230  -27.5140   19.7280 C   0  0  0  0  0  0  0  0  0  0  0  0
  -23.4480  -30.3710   21.4490 C   0  0  0  0  0  3  0  0  0  0  0  0
  -24.8990  -28.9700   19.8870 C   0  0  0  0  0  0  0  0  0  0  0  0
  -25.9650  -30.7780   21.2500 C   0  0  0  0  0  2  0  0  0  0  0  0
  -26.0580  -29.4650   20.4990 C   0  0  0  0  0  0  0  0  0  0  0  0
  -27.2690  -28.7460   20.4170 C   0  0  0  0  0  3  0  0  0  0  0  0
  -26.1430  -27.0260   19.1170 C   0  0  0  0  0  3  0  0  0  0  0  0
  -24.9360  -27.7470   19.1960 C   0  0  0  0  0  3  0  0  0  0  0  0
  -23.6480  -29.8110   20.0140 C   0  0  0  0  0  2  0  0  0  0  0  0
  -24.7120  -30.9400   22.0220 N   0  0  0  0  0  0  0  0  0  0  0  0
  -23.5940  -31.8510   23.7720 O   0  0  0  0  0  0  0  0  0  0  0  0
  -22.8280  -29.2620   22.3290 C   0  0  0  0  0  0  0  0  0  0  0  0
  -21.5050  -29.0680   22.2050 N   0  0  0  0  0  0  0  0  0  0  0  0
  -23.5330  -28.5840   23.0810 O   0  0  0  0  0  0  0  0  0  0  0  0
  -20.9970  -29.6730   21.5750 H   0  0  0  0  0  0  0  0  0  0  0  0
  -18.1600  -27.7650   22.6170 C   0  0  0  0  0  0  0  0  0  0  0  0
  -20.7120  -28.0580   22.9060 C   0  0  0  0  0  3  0  0  0  0  0  0
  -20.8430  -26.6740   22.2270 C   0  0  0  0  0  2  0  0  0  0  0  0
  -19.7470  -26.4030   21.1920 C   0  0  0  0  0  2  0  0  0  0  0  0
  -18.3640  -26.4720   21.8450 C   0  0  0  0  0  2  0  0  0  0  0  0
  -19.2630  -28.5160   23.1020 C   0  0  0  0  0  0  0  0  0  0  0  0
  -19.0210  -29.7300   23.7810 C   0  0  0  0  0  3  0  0  0  0  0  0
  -17.7060  -30.1950   23.9780 C   0  0  0  0  0  3  0  0  0  0  0  0
  -16.6150  -29.4380   23.5110 C   0  0  0  0  0  3  0  0  0  0  0  0
  -16.8440  -28.2250   22.8360 C   0  0  0  0  0  3  0  0  0  0  0  0
  -25.9590  -32.2340   23.8370 C   0  0  0  0  0  3  0  0  0  0  0  0
  -25.6400  -33.5880   24.3090 N   0  0  0  0  0  0  0  0  0  0  0  0
  -25.9430  -34.7130   23.6470 C   0  0  0  0  0  0  0  0  0  0  0  0
  -26.5970  -34.7180   22.6020 O   0  0  0  0  0  0  0  0  0  0  0  0
  -25.0630  -33.6520   25.1350 H   0  0  0  0  0  0  0  0  0  0  0  0
  -24.1810  -36.5000   23.4890 C   0  0  0  0  0  1  0  0  0  0  0  0
  -25.4410  -36.0440   24.2410 C   0  0  0  0  0  3  0  0  0  0  0  0
  -27.5780  -36.8790   25.1160 C   0  0  0  0  0  1  0  0  0  0  0  0
  -26.4550  -37.1200   24.2140 N   0  0  0  0  0  0  0  0  0  0  0  0
  -26.0390  -38.0150   24.4550 H   0  0  0  0  0  0  0  0  0  0  0  0
  -26.5220  -31.3510   25.0180 C   0  0  1  0  0  0  0  0  0  0  0  0
  -25.4650  -30.9990   26.0890 C   0  0  0  0  0  1  0  0  0  0  0  0
  -27.1090  -30.0250   24.4810 C   0  0  0  0  0  1  0  0  0  0  0  0
  -27.6820  -32.0910   25.7210 C   0  0  0  0  0  1  0  0  0  0  0  0
  1  5  1  0
  2  4  1  0
  3  2  2  0
  4 46  1  0
  5  7  2  0
  5  3  1  0
  6 16  1  0
  6  4  2  0
  7  6  1  0
  8 14  1  0
  8 16  1  0
  9 14  1  0
 10 11  1  0
 10  9  1  0
 12 11  1  0
 12 21  1  0
 12 13  1  0
 14 13  1  0
 15  8  2  0
 16 17  1  0
 18 21  1  0
 18 19  2  0
 19 20  1  0
 20 23  1  0
 21 22  1  0
 22 20  2  0
 23 24  1  0
 24 25  2  0
 26 25  1  0
 27 26  2  0
 28 27  1  0
 28 23  2  0
 29 26  1  0
 29 30  1  0
 30 31  1  0
 31 32  2  0
 33 32  1  0
 33 37  1  0
 34 33  2  0
 35 30  2  0
 35 34  1  0
 36 35  1  0
 38 19  1  0
 38 39  1  0
 39 41  1  0
 40 38  2  0
 42 39  1  0
 43 18  1  0
 44 43  1  0
 45 43  1  0
 46 47  1  0
 46 50  1  0
 50 49  1  0
 50 48  1  0
 51  1  1  0
 52 53  1  0
 52 51  1  0
 53 55  1  0
 54 52  2  0
 56 57  1  0
 56 53  1  0
 57 58  1  0
 59 61  1  0
 59 58  1  0
 60 71  2  0
 61 66  1  0
 62 70  1  0
 62 72  1  0
 63 69  1  0
 63 65  1  0
 64 70  1  0
 65 64  1  0
 66 65  2  0
 67 68  1  0
 67 61  2  0
 68 63  2  0
 69 62  1  0
 70 60  1  0
 72 74  2  0
 73 72  1  0
 75 73  1  0
 76 85  2  0
 76 81  1  0
 77 73  1  0
 77 81  1  0
 78 77  1  0
 79 80  1  0
 79 78  1  0
 80 76  1  0
 81 82  2  0
 82 83  1  0
 84 83  2  0
 85 84  1  0
 86 60  1  0
 86 87  1  0
 86 96  1  0
 87 90  1  0
 88 92  1  0
 88 87  1  0
 89 88  2  0
 92 91  1  0
 94 92  1  0
 94 95  1  0
 94 93  1  0
 96 99  1  1
 96 97  1  0
 98 96  1  0
M  ISO  4   8 100  16 100  58 101  59 101
M  END
>  <TORSDO>  (4) 
F 24

>  <SCORE>  (4) 
1.984

>  <name>  (4) 
3

>  <ligand_id>  (4) 
3

>  <original_smiles>  (4) 
[H]c1c(C([H])([H])C([H])([H])C(=O)N([H])C([H])([H])C([H])([H])C([H])([H])Oc2c([H])c([H])c3c(c2[H])C([H])([H])N(C(=O)C([H])(N([H])C(=O)C([H])(N([H])C([H])([H])[H])C([H])([H])[H])C(C([H])([H])[H])(C([H])([H])[H])C([H])([H])[H])C([H])(C(=O)N([H])C2([H])c4c([H])c([H])c([H])c([H])c4C([H])([H])C([H])([H])C2([H])[H])C3([H])[H])nc(N([H])C(=O)N2C([H])([H])C([H])([H])C([H])([H])C([H])(n3nc(-c4c([H])c([H])c(Oc5c([H])c([H])c(F)c([H])c5F)c([H])c4[H])c(C(=O)N([H])[H])c3N([H])[H])C2([H])[H])c(N([H])C([H])(C([H])([H])[H])C([H])([H])[H])c1[H]

>  <smiles>  (4) 
[H]c1c(C([H])([H])C([H])([H])C(=O)N([H])C([H])([H])C([H])([H])C([H])([H])Oc2c([H])c([H])c3c(c2[H])C([H])([H])N(C(=O)C([H])(N([H])C(=O)C([H])(N([H])C([H])([H])[H])C([H])([H])[H])C(C([H])([H])[H])(C([H])([H])[H])C([H])([H])[H])C([H])(C(=O)N([H])C2([H])c4c([H])c([H])c([H])c([H])c4C([H])([H])C([H])([H])C2([H])[H])C3([H])[H])nc(N([H])C(=O)N2C([H])([H])C([H])([H])C([H])([H])C([H])(n3nc(-c4c([H])c([H])c(Oc5c([H])c([H])c(F)c([H])c5F)c([H])c4[H])c(C(=O)N([H])[H])c3N([H])[H])C2([H])[H])c(N([H])C([H])(C([H])([H])[H])C([H])([H])[H])c1[H]

$$$$
4:0:0
     RDKit          3D

 98106  0  0  1  0  0  0  0  0999 V2000
  -29.9060  -19.3430   19.8720 C   0  0  0  0  0  3  0  0  0  0  0  0
  -31.3450  -14.3990   19.1350 C   0  0  0  0  0  0  0  0  0  0  0  0
  -30.6650  -12.2710   18.0170 C   0  0  0  0  0  2  0  0  0  0  0  0
  -29.4970  -12.4970   17.0310 C   0  0  0  0  0  2  0  0  0  0  0  0
  -28.1430  -12.3980   17.7580 C   0  0  0  0  0  2  0  0  0  0  0  0
  -28.1170  -13.2400   19.0550 C   0  0  0  0  0  3  0  0  0  0  0  0
  -29.3650  -12.9910   19.9170 C   0  0  0  0  0  2  0  0  0  0  0  0
  -30.5650  -13.2690   19.1070 N   0  0  0  0  0  0  0  0  0  0  0  0
  -32.2570  -14.5660   18.3160 O   0  0  0  0  0  0  0  0  0  0  0  0
  -30.6940  -16.8110   19.4150 C   0  0  0  0  0  2  0  0  0  0  0  0
  -30.0450  -16.2340   22.0680 C   0  0  0  0  0  2  0  0  0  0  0  0
  -31.1100  -15.3460   21.4080 C   0  0  0  0  0  3  0  0  0  0  0  0
  -30.6900  -18.0490   20.4220 C   0  0  0  0  0  3  0  0  0  0  0  0
  -32.5580  -15.5870   21.8780 C   0  0  0  0  0  1  0  0  0  0  0  0
  -30.9550  -15.4320   19.9490 N   0  0  0  0  0  0  0  0  0  0  0  0
  -30.2430  -17.6880   21.8150 N   0  0  2  0  0  4  0  0  0  0  0  0
  -29.3090  -18.0750   21.8210 H   0  0  0  0  0  0  0  0  0  0  0  0
  -26.0640  -13.9560   20.4220 C   0  0  0  0  0  0  0  0  0  0  0  0
  -25.0300  -13.2560   20.9780 C   0  0  0  0  0  0  0  0  0  0  0  0
  -25.2790  -11.8870   20.6550 C   0  0  0  0  0  0  0  0  0  0  0  0
  -26.8950  -13.0240   19.8280 N   0  0  0  0  0  0  0  0  0  0  0  0
  -26.4360  -11.7610   20.0190 N   0  0  0  0  0  0  0  0  0  0  0  0
  -24.4500  -10.6970   20.8630 C   0  0  0  0  0  0  0  0  0  0  0  0
  -24.8730   -9.6460   21.7070 C   0  0  0  0  0  3  0  0  0  0  0  0
  -24.0500   -8.5180   21.9050 C   0  0  0  0  0  3  0  0  0  0  0  0
  -22.7940   -8.4360   21.2580 C   0  0  0  0  0  0  0  0  0  0  0  0
  -22.3890   -9.4740   20.4030 C   0  0  0  0  0  3  0  0  0  0  0  0
  -23.2100  -10.5960   20.2020 C   0  0  0  0  0  3  0  0  0  0  0  0
  -21.9390   -7.3650   21.3660 O   0  0  0  0  0  0  0  0  0  0  0  0
  -21.7910   -6.6860   22.5470 C   0  0  0  0  0  0  0  0  0  0  0  0
  -21.3830   -7.3330   23.7350 C   0  0  0  0  0  3  0  0  0  0  0  0
  -21.1830   -6.5840   24.9100 C   0  0  0  0  0  3  0  0  0  0  0  0
  -21.3780   -5.1890   24.9000 C   0  0  0  0  0  0  0  0  0  0  0  0
  -21.7790   -4.5430   23.7170 C   0  0  0  0  0  3  0  0  0  0  0  0
  -21.9860   -5.2900   22.5450 C   0  0  0  0  0  0  0  0  0  0  0  0
  -22.3550   -4.6620   21.4020 F   0  0  0  0  0  0  0  0  0  0  0  0
  -21.1760   -4.4660   26.0260 F   0  0  0  0  0  0  0  0  0  0  0  0
  -23.8260  -13.8340   21.6630 C   0  0  0  0  0  0  0  0  0  0  0  0
  -23.2590  -13.1040   22.6170 N   0  0  0  0  0  0  0  0  0  0  0  0
  -23.4100  -14.9620   21.3940 O   0  0  0  0  0  0  0  0  0  0  0  0
  -23.6100  -12.1860   22.8490 H   0  0  0  0  0  0  0  0  0  0  0  0
  -22.4690  -13.4680   23.1270 H   0  0  0  0  0  0  0  0  0  0  0  0
  -26.3480  -15.3040   20.3380 N   0  0  0  0  0  0  0  0  0  0  0  0
  -25.6710  -15.9940   20.6400 H   0  0  0  0  0  0  0  0  0  0  0  0
  -27.0450  -15.6770   19.7080 H   0  0  0  0  0  0  0  0  0  0  0  0
  -29.9470  -18.6420   24.1450 C   0  0  0  0  0  1  0  0  0  0  0  0
  -31.8150  -19.5750   22.7260 C   0  0  0  0  0  1  0  0  0  0  0  0
  -30.9350  -18.3320   22.9900 C   0  0  0  0  0  3  0  0  0  0  0  0
  -30.5490  -20.7410   20.1820 C   0  0  0  0  0  2  0  0  0  0  0  0
  -30.2100  -21.8350   19.1110 C   0  0  0  0  0  2  0  0  0  0  0  0
  -30.5080  -23.3370   19.4290 C   0  0  0  0  0  2  0  0  0  0  0  0
  -29.2990  -24.2800   19.7730 C   0  0  0  0  0  2  0  0  0  0  0  0
  -29.4410  -25.7170   19.1540 C   0  0  0  0  0  2  0  0  0  0  0  0
  -29.0440  -26.8340   19.9780 O   0  0  0  0  0  0  0  0  0  0  0  0
  -24.6630  -31.4740   23.1210 C   0  0  0  0  0  0  0  0  0  0  0  0
  -27.7810  -27.4110   19.9290 C   0  0  0  0  0  0  0  0  0  0  0  0
  -23.6150  -30.0270   21.4070 C   0  0  0  0  0  3  0  0  0  0  0  0
  -25.2320  -28.6750   19.9580 C   0  0  0  0  0  0  0  0  0  0  0  0
  -26.0960  -30.6270   21.2630 C   0  0  0  0  0  2  0  0  0  0  0  0
  -26.3250  -29.2910   20.5780 C   0  0  0  0  0  0  0  0  0  0  0  0
  -27.5940  -28.6640   20.5600 C   0  0  0  0  0  3  0  0  0  0  0  0
  -26.6660  -26.8100   19.2990 C   0  0  0  0  0  3  0  0  0  0  0  0
  -25.4010  -27.4330   19.3180 C   0  0  0  0  0  3  0  0  0  0  0  0
  -23.9150  -29.4150   20.0090 C   0  0  0  0  0  2  0  0  0  0  0  0
  -24.8060  -30.7270   21.9880 N   0  0  0  0  0  0  0  0  0  0  0  0
  -23.5570  -31.6150   23.6590 O   0  0  0  0  0  0  0  0  0  0  0  0
  -23.0470  -28.9190   22.3220 C   0  0  0  0  0  0  0  0  0  0  0  0
  -21.7690  -28.5640   22.1070 N   0  0  0  0  0  0  0  0  0  0  0  0
  -23.7520  -28.3830   23.1800 O   0  0  0  0  0  0  0  0  0  0  0  0
  -21.2470  -29.0720   21.4060 H   0  0  0  0  0  0  0  0  0  0  0  0
  -18.5920  -26.8410   22.3190 C   0  0  0  0  0  0  0  0  0  0  0  0
  -21.0460  -27.4970   22.8000 C   0  0  0  0  0  3  0  0  0  0  0  0
  -21.4300  -26.1120   22.2310 C   0  0  0  0  0  2  0  0  0  0  0  0
  -20.4680  -25.5840   21.1640 C   0  0  0  0  0  2  0  0  0  0  0  0
  -19.0270  -25.5340   21.6720 C   0  0  0  0  0  2  0  0  0  0  0  0
  -19.5350  -27.7660   22.8330 C   0  0  0  0  0  0  0  0  0  0  0  0
  -19.0730  -28.9790   23.3900 C   0  0  0  0  0  3  0  0  0  0  0  0
  -17.6960  -29.2710   23.4330 C   0  0  0  0  0  3  0  0  0  0  0  0
  -16.7640  -28.3440   22.9360 C   0  0  0  0  0  3  0  0  0  0  0  0
  -17.2090  -27.1310   22.3860 C   0  0  0  0  0  3  0  0  0  0  0  0
  -25.8780  -32.2020   23.7800 C   0  0  0  0  0  3  0  0  0  0  0  0
  -25.4380  -33.5600   24.1220 N   0  0  0  0  0  0  0  0  0  0  0  0
  -25.7170  -34.6560   23.3990 C   0  0  0  0  0  0  0  0  0  0  0  0
  -26.4380  -34.6330   22.4000 O   0  0  0  0  0  0  0  0  0  0  0  0
  -24.7980  -33.6440   24.8970 H   0  0  0  0  0  0  0  0  0  0  0  0
  -23.8670  -36.3160   23.0000 C   0  0  0  0  0  1  0  0  0  0  0  0
  -25.0970  -35.9850   23.8630 C   0  0  0  0  0  3  0  0  0  0  0  0
  -27.1110  -37.0230   24.8110 C   0  0  0  0  0  1  0  0  0  0  0  0
  -26.0400  -37.1240   23.8240 N   0  0  0  0  0  0  0  0  0  0  0  0
  -25.5490  -38.0000   23.9740 H   0  0  0  0  0  0  0  0  0  0  0  0
  -26.4330  -31.4550   25.0570 C   0  0  1  0  0  0  0  0  0  0  0  0
  -25.3370  -31.0860   26.0840 C   0  0  0  0  0  1  0  0  0  0  0  0
  -27.1690  -30.1530   24.6560 C   0  0  0  0  0  1  0  0  0  0  0  0
  -27.4670  -32.3460   25.7780 C   0  0  0  0  0  1  0  0  0  0  0  0
  -28.3930  -19.4600   20.2720 C   0  0  0  0  0  2  0  0  0  0  0  0
  -27.4630  -18.1620   18.2910 C   0  0  0  0  0  1  0  0  0  0  0  0
  -27.3010  -20.6560   18.2500 C   0  0  0  0  0  1  0  0  0  0  0  0
  -27.3400  -19.4060   19.1460 C   0  0  0  0  0  3  0  0  0  0  0  0
  1 49  1  0
  1 95  1  0
  2 15  1  0
  3  8  1  0
  4  5  1  0
  4  3  1  0
  6  5  1  0
  6 21  1  0
  6  7  1  0
  8  2  1  0
  8  7  1  0
  9  2  2  0
 10 15  1  0
 10 13  1  0
 12 14  1  0
 12 11  1  0
 13  1  1  0
 13 16  1  0
 15 12  1  0
 16 17  1  6
 16 11  1  0
 16 48  1  0
 18 19  2  0
 19 38  1  0
 20 23  1  0
 20 19  1  0
 21 22  1  0
 21 18  1  0
 22 20  2  0
 23 24  1  0
 24 25  2  0
 26 29  1  0
 26 25  1  0
 27 26  2  0
 28 27  1  0
 28 23  2  0
 29 30  1  0
 30 31  1  0
 31 32  2  0
 33 32  1  0
 33 37  1  0
 34 33  2  0
 35 30  2  0
 35 34  1  0
 36 35  1  0
 38 39  1  0
 39 41  1  0
 39 42  1  0
 40 38  2  0
 43 18  1  0
 43 44  1  0
 45 43  1  0
 47 48  1  0
 48 46  1  0
 50 51  1  0
 50 49  1  0
 51 52  1  0
 53 52  1  0
 53 54  1  0
 55 66  2  0
 56 54  1  0
 56 61  1  0
 57 65  1  0
 57 67  1  0
 58 64  1  0
 58 60  1  0
 59 65  1  0
 60 59  1  0
 61 60  2  0
 62 63  1  0
 62 56  2  0
 63 58  2  0
 64 57  1  0
 65 55  1  0
 67 69  2  0
 68 67  1  0
 70 68  1  0
 71 80  2  0
 71 76  1  0
 72 68  1  0
 72 76  1  0
 73 72  1  0
 74 75  1  0
 74 73  1  0
 75 71  1  0
 76 77  2  0
 77 78  1  0
 79 78  2  0
 80 79  1  0
 81 55  1  0
 81 82  1  0
 81 91  1  0
 82 85  1  0
 83 87  1  0
 83 82  1  0
 84 83  2  0
 87 86  1  0
 89 87  1  0
 89 90  1  0
 89 88  1  0
 91 94  1  1
 91 92  1  0
 93 91  1  0
 96 98  1  0
 97 98  1  0
 98 95  1  0
M  ISO  4   2 100  15 100  53 101  54 101
M  END
>  <TORSDO>  (5) 
F 24

>  <SCORE>  (5) 
-6.016

>  <name>  (5) 
4

>  <ligand_id>  (5) 
4

>  <original_smiles>  (5) 
[H]c1c([H])c([H])c2c(c1[H])C([H])([H])C([H])([H])C([H])([H])C2([H])N([H])C(=O)C1([H])N(C(=O)C([H])(N([H])C(=O)C([H])(N([H])C([H])([H])[H])C([H])([H])[H])C(C([H])([H])[H])(C([H])([H])[H])C([H])([H])[H])C([H])([H])c2c([H])c(OC([H])([H])C([H])([H])C([H])([H])C([H])([H])C([H])([H])C([H])(C([H])([H])C([H])(C([H])([H])[H])C([H])([H])[H])C3([H])C([H])([H])N(C(=O)N4C([H])([H])C([H])([H])C([H])([H])C([H])(n5nc(-c6c([H])c([H])c(Oc7c([H])c([H])c(F)c([H])c7F)c([H])c6[H])c(C(=O)N([H])[H])c5N([H])[H])C4([H])[H])C([H])(C([H])([H])[H])C([H])([H])[N+]3([H])C([H])(C([H])([H])[H])C([H])([H])[H])c([H])c([H])c2C1([H])[H]

>  <smiles>  (5) 
[H]c1c([H])c([H])c2c(c1[H])C([H])([H])C([H])([H])C([H])([H])C2([H])N([H])C(=O)C1([H])N(C(=O)C([H])(N([H])C(=O)C([H])(N([H])C([H])([H])[H])C([H])([H])[H])C(C([H])([H])[H])(C([H])([H])[H])C([H])([H])[H])C([H])([H])c2c([H])c(OC([H])([H])C([H])([H])C([H])([H])C([H])([H])C([H])([H])C([H])(C([H])([H])C([H])(C([H])([H])[H])C([H])([H])[H])C3([H])C([H])([H])N(C(=O)N4C([H])([H])C([H])([H])C([H])([H])C([H])(n5nc(-c6c([H])c([H])c(Oc7c([H])c([H])c(F)c([H])c7F)c([H])c6[H])c(C(=O)N([H])[H])c5N([H])[H])C4([H])[H])C([H])(C([H])([H])[H])C([H])([H])[N+]3([H])C([H])(C([H])([H])[H])C([H])([H])[H])c([H])c([H])c2C1([H])[H]

$$$$
5:0:0
     RDKit          3D

 99107  0  0  1  0  0  0  0  0999 V2000
  -26.3250  -19.7260   19.6490 C   0  0  0  0  0  2  0  0  0  0  0  0
  -25.4170  -20.9150   19.9830 C   0  0  0  0  0  2  0  0  0  0  0  0
  -26.0700  -22.2490   19.5650 C   0  0  0  0  0  2  0  0  0  0  0  0
  -27.4450  -22.3640   20.1100 N   0  0  0  0  0  4  0  0  0  0  0  0
  -27.4260  -22.5340   21.1040 H   0  0  0  0  0  0  0  0  0  0  0  0
  -27.8340  -21.4380   19.9850 H   0  0  0  0  0  0  0  0  0  0  0  0
  -28.3730  -23.2980   19.4270 C   0  0  0  0  0  2  0  0  0  0  0  0
  -28.3120  -24.7530   19.9420 C   0  0  0  0  0  2  0  0  0  0  0  0
  -29.1050  -25.7060   19.0080 C   0  0  0  0  0  2  0  0  0  0  0  0
  -28.9930  -27.0940   19.3450 O   0  0  0  0  0  0  0  0  0  0  0  0
  -24.7160  -31.3150   23.1270 C   0  0  0  0  0  0  0  0  0  0  0  0
  -27.7330  -27.6490   19.4390 C   0  0  0  0  0  0  0  0  0  0  0  0
  -23.6220  -29.9530   21.3830 C   0  0  0  0  0  3  0  0  0  0  0  0
  -25.1750  -28.8190   19.7250 C   0  0  0  0  0  0  0  0  0  0  0  0
  -26.0630  -30.6820   21.1230 C   0  0  0  0  0  2  0  0  0  0  0  0
  -26.2900  -29.4180   20.3220 C   0  0  0  0  0  0  0  0  0  0  0  0
  -27.5710  -28.8430   20.1750 C   0  0  0  0  0  3  0  0  0  0  0  0
  -26.5920  -27.0640   18.8370 C   0  0  0  0  0  3  0  0  0  0  0  0
  -25.3230  -27.6390   18.9800 C   0  0  0  0  0  3  0  0  0  0  0  0
  -23.8370  -29.4860   19.9220 C   0  0  0  0  0  2  0  0  0  0  0  0
  -24.8210  -30.6610   21.9360 N   0  0  0  0  0  0  0  0  0  0  0  0
  -23.6390  -31.3770   23.7350 O   0  0  0  0  0  0  0  0  0  0  0  0
  -23.1700  -28.7430   22.2360 C   0  0  0  0  0  0  0  0  0  0  0  0
  -21.9210  -28.2960   22.0250 N   0  0  0  0  0  0  0  0  0  0  0  0
  -23.9370  -28.2190   23.0510 O   0  0  0  0  0  0  0  0  0  0  0  0
  -21.3540  -28.7950   21.3580 H   0  0  0  0  0  0  0  0  0  0  0  0
  -18.9110  -26.2950   22.1380 C   0  0  0  0  0  0  0  0  0  0  0  0
  -21.2890  -27.1520   22.6830 C   0  0  0  0  0  3  0  0  0  0  0  0
  -21.7980  -25.8170   22.0930 C   0  0  0  0  0  2  0  0  0  0  0  0
  -20.9100  -25.2830   20.9650 C   0  0  0  0  0  2  0  0  0  0  0  0
  -19.4800  -25.0570   21.4620 C   0  0  0  0  0  2  0  0  0  0  0  0
  -19.7610  -27.2850   22.6980 C   0  0  0  0  0  0  0  0  0  0  0  0
  -19.1810  -28.4310   23.2870 C   0  0  0  0  0  3  0  0  0  0  0  0
  -17.7850  -28.5950   23.3230 C   0  0  0  0  0  3  0  0  0  0  0  0
  -16.9470  -27.6050   22.7830 C   0  0  0  0  0  3  0  0  0  0  0  0
  -17.5100  -26.4560   22.1990 C   0  0  0  0  0  3  0  0  0  0  0  0
  -25.9370  -32.0440   23.7670 C   0  0  0  0  0  3  0  0  0  0  0  0
  -26.5130  -31.2950   25.0320 C   0  0  1  0  0  0  0  0  0  0  0  0
  -25.4360  -30.9320   26.0840 C   0  0  0  0  0  1  0  0  0  0  0  0
  -27.2300  -29.9880   24.6120 C   0  0  0  0  0  1  0  0  0  0  0  0
  -27.5700  -32.1820   25.7260 C   0  0  0  0  0  1  0  0  0  0  0  0
  -25.5080  -33.4050   24.1180 N   0  0  0  0  0  0  0  0  0  0  0  0
  -25.7390  -34.4930   23.3710 C   0  0  0  0  0  0  0  0  0  0  0  0
  -26.4120  -34.4620   22.3380 O   0  0  0  0  0  0  0  0  0  0  0  0
  -24.8970  -33.4910   24.9160 H   0  0  0  0  0  0  0  0  0  0  0  0
  -23.8450  -36.1150   23.0500 C   0  0  0  0  0  1  0  0  0  0  0  0
  -25.1270  -35.8240   23.8450 C   0  0  0  0  0  3  0  0  0  0  0  0
  -27.1780  -36.9010   24.6610 C   0  0  0  0  0  1  0  0  0  0  0  0
  -26.0540  -36.9720   23.7290 N   0  0  0  0  0  0  0  0  0  0  0  0
  -25.5650  -37.8500   23.8840 H   0  0  0  0  0  0  0  0  0  0  0  0
  -27.4720  -19.7960   20.5030 O   0  0  0  0  0  0  0  0  0  0  0  0
  -29.0160  -19.5570   18.6570 C   0  0  0  0  0  3  0  0  0  0  0  0
  -29.4220  -18.4190   20.7410 C   0  0  0  0  0  3  0  0  0  0  0  0
  -28.6280  -19.2780   19.9700 C   0  0  0  0  0  0  0  0  0  0  0  0
  -30.1300  -18.9090   18.1150 C   0  0  0  0  0  0  0  0  0  0  0  0
  -30.5280  -17.7750   20.1480 C   0  0  0  0  0  0  0  0  0  0  0  0
  -30.8450  -18.0140   18.8480 N   0  0  0  0  0  0  0  0  0  0  0  0
  -31.8780  -15.7600   20.5800 C   0  0  0  0  0  0  0  0  0  0  0  0
  -31.5200  -13.6240   19.4000 C   0  0  0  0  0  2  0  0  0  0  0  0
  -30.7030  -13.8710   18.1190 C   0  0  0  0  0  2  0  0  0  0  0  0
  -29.1950  -13.8050   18.4270 C   0  0  0  0  0  2  0  0  0  0  0  0
  -28.7930  -14.6700   19.6530 C   0  0  0  0  0  3  0  0  0  0  0  0
  -29.7450  -14.4410   20.8450 C   0  0  0  0  0  2  0  0  0  0  0  0
  -31.1200  -14.6500   20.3660 N   0  0  0  0  0  0  0  0  0  0  0  0
  -33.0830  -15.8130   20.3210 O   0  0  0  0  0  0  0  0  0  0  0  0
  -31.2330  -16.8630   20.9870 N   0  0  0  0  0  0  0  0  0  0  0  0
  -31.7210  -17.3360   21.7300 H   0  0  0  0  0  0  0  0  0  0  0  0
  -26.3800  -15.4170   20.1350 C   0  0  0  0  0  0  0  0  0  0  0  0
  -25.2450  -14.7010   20.4160 C   0  0  0  0  0  0  0  0  0  0  0  0
  -25.6460  -13.3320   20.4620 C   0  0  0  0  0  0  0  0  0  0  0  0
  -27.3950  -14.4790   20.0240 N   0  0  0  0  0  0  0  0  0  0  0  0
  -26.9570  -13.2230   20.2850 N   0  0  0  0  0  0  0  0  0  0  0  0
  -24.8470  -12.1110   20.6100 C   0  0  0  0  0  0  0  0  0  0  0  0
  -25.2060  -11.1020   21.5300 C   0  0  0  0  0  3  0  0  0  0  0  0
  -24.4140   -9.9430   21.6680 C   0  0  0  0  0  3  0  0  0  0  0  0
  -23.2490   -9.7860   20.8830 C   0  0  0  0  0  0  0  0  0  0  0  0
  -22.9070  -10.7810   19.9500 C   0  0  0  0  0  3  0  0  0  0  0  0
  -23.7000  -11.9310   19.8120 C   0  0  0  0  0  3  0  0  0  0  0  0
  -22.4370   -8.6780   20.9260 O   0  0  0  0  0  0  0  0  0  0  0  0
  -22.2200   -7.9900   22.0940 C   0  0  0  0  0  0  0  0  0  0  0  0
  -21.7790   -8.6390   23.2680 C   0  0  0  0  0  3  0  0  0  0  0  0
  -21.5000   -7.8890   24.4270 C   0  0  0  0  0  3  0  0  0  0  0  0
  -21.6530   -6.4890   24.4120 C   0  0  0  0  0  0  0  0  0  0  0  0
  -22.0920   -5.8400   23.2460 C   0  0  0  0  0  3  0  0  0  0  0  0
  -22.3720   -6.5880   22.0890 C   0  0  0  0  0  0  0  0  0  0  0  0
  -22.7730   -5.9560   20.9590 F   0  0  0  0  0  0  0  0  0  0  0  0
  -21.3780   -5.7640   25.5210 F   0  0  0  0  0  0  0  0  0  0  0  0
  -23.8540  -15.2480   20.5320 C   0  0  0  0  0  0  0  0  0  0  0  0
  -23.0050  -14.6000   21.3200 N   0  0  0  0  0  0  0  0  0  0  0  0
  -23.5210  -16.2840   19.9630 O   0  0  0  0  0  0  0  0  0  0  0  0
  -23.2820  -13.7680   21.8180 H   0  0  0  0  0  0  0  0  0  0  0  0
  -22.0560  -14.9330   21.4010 H   0  0  0  0  0  0  0  0  0  0  0  0
  -26.6210  -16.7760   19.9470 N   0  0  0  0  0  0  0  0  0  0  0  0
  -25.8700  -17.4570   19.9680 H   0  0  0  0  0  0  0  0  0  0  0  0
  -27.5150  -17.1690   19.6740 H   0  0  0  0  0  0  0  0  0  0  0  0
  -29.9170  -20.3360   15.9870 C   0  0  0  0  0  1  0  0  0  0  0  0
  -29.6240  -17.8390   15.9370 C   0  0  0  0  0  1  0  0  0  0  0  0
  -31.8960  -18.9060   16.2670 C   0  0  0  0  0  1  0  0  0  0  0  0
  -30.3950  -18.9930   16.5980 C   0  0  2  0  0  0  0  0  0  0  0  0
  1  2  1  0
  1 51  1  0
  3  2  1  0
  3  4  1  0
  4  5  1  0
  6  4  1  0
  7  8  1  0
  7  4  1  0
  9 10  1  0
  9  8  1  0
 10 12  1  0
 11 22  2  0
 12 17  1  0
 13 21  1  0
 13 23  1  0
 14 20  1  0
 14 16  1  0
 15 21  1  0
 16 15  1  0
 17 16  2  0
 18 19  1  0
 18 12  2  0
 19 14  2  0
 20 13  1  0
 21 11  1  0
 23 25  2  0
 24 23  1  0
 26 24  1  0
 27 36  2  0
 27 32  1  0
 28 24  1  0
 28 32  1  0
 29 28  1  0
 30 31  1  0
 30 29  1  0
 31 27  1  0
 32 33  2  0
 33 34  1  0
 35 34  2  0
 36 35  1  0
 37 11  1  0
 37 42  1  0
 37 38  1  0
 38 41  1  1
 38 39  1  0
 40 38  1  0
 42 45  1  0
 43 47  1  0
 43 42  1  0
 44 43  2  0
 47 46  1  0
 49 47  1  0
 49 50  1  0
 49 48  1  0
 52 54  1  0
 54 51  1  0
 54 53  2  0
 55 52  2  0
 55 57  1  0
 56 53  1  0
 56 66  1  0
 57 56  2  0
 58 66  1  0
 59 64  1  0
 60 61  1  0
 60 59  1  0
 62 61  1  0
 62 71  1  0
 62 63  1  0
 64 58  1  0
 64 63  1  0
 65 58  2  0
 66 67  1  0
 68 69  2  0
 69 70  1  0
 69 88  1  0
 70 73  1  0
 71 68  1  0
 71 72  1  0
 72 70  2  0
 73 74  1  0
 74 75  2  0
 76 79  1  0
 76 75  1  0
 77 76  2  0
 78 77  1  0
 78 73  2  0
 79 80  1  0
 80 81  1  0
 81 82  2  0
 83 82  1  0
 83 87  1  0
 84 83  2  0
 85 80  2  0
 85 84  1  0
 86 85  1  0
 88 89  1  0
 89 92  1  0
 89 91  1  0
 90 88  2  0
 93 94  1  0
 93 68  1  0
 95 93  1  0
 99 96  1  6
 97 99  1  0
 98 99  1  0
 99 55  1  0
M  ISO  4   9 101  10 101  58 100  66 100
M  END
>  <TORSDO>  (6) 
F 25

>  <SCORE>  (6) 
-4.146

>  <name>  (6) 
5

>  <ligand_id>  (6) 
5

>  <original_smiles>  (6) 
[H]c1c([H])c([H])c2c(c1[H])C([H])([H])C([H])([H])C([H])([H])C2([H])N([H])C(=O)C1([H])N(C(=O)C([H])(N([H])C(=O)C([H])(N([H])C([H])([H])[H])C([H])([H])[H])C(C([H])([H])[H])(C([H])([H])[H])C([H])([H])[H])C([H])([H])c2c([H])c(OC([H])([H])C([H])([H])C([H])([H])[N+]([H])([H])C([H])([H])C([H])([H])C([H])([H])Oc3c([H])c(N([H])C(=O)N4C([H])([H])C([H])([H])C([H])([H])C([H])(n5nc(-c6c([H])c([H])c(Oc7c([H])c([H])c(F)c([H])c7F)c([H])c6[H])c(C(=O)N([H])[H])c5N([H])[H])C4([H])[H])nc(C(C([H])([H])[H])(C([H])([H])[H])C([H])([H])[H])c3[H])c([H])c([H])c2C1([H])[H]

>  <smiles>  (6) 
[H]c1c([H])c([H])c2c(c1[H])C([H])([H])C([H])([H])C([H])([H])C2([H])N([H])C(=O)C1([H])N(C(=O)C([H])(N([H])C(=O)C([H])(N([H])C([H])([H])[H])C([H])([H])[H])C(C([H])([H])[H])(C([H])([H])[H])C([H])([H])[H])C([H])([H])c2c([H])c(OC([H])([H])C([H])([H])C([H])([H])[N+]([H])([H])C([H])([H])C([H])([H])C([H])([H])Oc3c([H])c(N([H])C(=O)N4C([H])([H])C([H])([H])C([H])([H])C([H])(n5nc(-c6c([H])c([H])c(Oc7c([H])c([H])c(F)c([H])c7F)c([H])c6[H])c(C(=O)N([H])[H])c5N([H])[H])C4([H])[H])nc(C(C([H])([H])[H])(C([H])([H])[H])C([H])([H])[H])c3[H])c([H])c([H])c2C1([H])[H]

$$$$
6:0:0
     RDKit          3D

 96104  0  0  1  0  0  0  0  0999 V2000
  -29.9500  -19.8590   21.0600 C   0  0  0  0  0  3  0  0  0  0  0  0
  -29.1370  -20.6540   20.1890 C   0  0  0  0  0  0  0  0  0  0  0  0
  -30.2830  -18.6720   20.4540 C   0  0  0  0  0  0  0  0  0  0  0  0
  -28.9970  -19.9060   19.0360 C   0  0  0  0  0  0  0  0  0  0  0  0
  -29.6740  -18.6780   19.1990 N   0  0  0  0  0  0  0  0  0  0  0  0
  -30.5270  -17.9800   16.9400 C   0  0  0  0  0  1  0  0  0  0  0  0
  -28.4900  -16.7910   17.9950 C   0  0  0  0  0  1  0  0  0  0  0  0
  -29.7960  -17.5700   18.2290 C   0  0  0  0  0  3  0  0  0  0  0  0
  -28.8460  -21.4560   17.0210 C   0  0  0  0  0  1  0  0  0  0  0  0
  -26.7230  -20.3790   17.9850 C   0  0  0  0  0  1  0  0  0  0  0  0
  -28.2440  -20.2540   17.7670 C   0  0  0  0  0  3  0  0  0  0  0  0
  -28.0110  -22.0630   21.9710 C   0  0  0  0  0  1  0  0  0  0  0  0
  -28.4860  -22.0240   20.5120 C   0  0  0  0  0  3  0  0  0  0  0  0
  -29.3130  -23.3090   20.1630 C   0  0  0  0  0  2  0  0  0  0  0  0
  -28.4700  -24.6260   19.9460 C   0  0  0  0  0  2  0  0  0  0  0  0
  -28.9390  -25.9130   20.7030 C   0  0  0  0  0  2  0  0  0  0  0  0
  -28.8120  -27.1960   20.0330 O   0  0  0  0  0  0  0  0  0  0  0  0
  -24.6400  -32.0080   23.3240 C   0  0  0  0  0  0  0  0  0  0  0  0
  -27.5980  -27.8570   20.0940 C   0  0  0  0  0  0  0  0  0  0  0  0
  -23.5520  -30.6080   21.6030 C   0  0  0  0  0  3  0  0  0  0  0  0
  -25.1190  -29.2320   20.1320 C   0  0  0  0  0  0  0  0  0  0  0  0
  -26.0530  -31.1330   21.4590 C   0  0  0  0  0  2  0  0  0  0  0  0
  -26.2360  -29.7960   20.7610 C   0  0  0  0  0  0  0  0  0  0  0  0
  -27.4810  -29.1200   20.7330 C   0  0  0  0  0  3  0  0  0  0  0  0
  -26.4660  -27.3160   19.4560 C   0  0  0  0  0  3  0  0  0  0  0  0
  -25.2310  -27.9960   19.4710 C   0  0  0  0  0  3  0  0  0  0  0  0
  -23.8220  -30.0100   20.1960 C   0  0  0  0  0  2  0  0  0  0  0  0
  -24.7660  -31.2650   22.1860 N   0  0  0  0  0  0  0  0  0  0  0  0
  -23.5370  -32.1800   23.8590 O   0  0  0  0  0  0  0  0  0  0  0  0
  -22.9580  -29.5020   22.5060 C   0  0  0  0  0  0  0  0  0  0  0  0
  -21.6580  -29.2130   22.3240 N   0  0  0  0  0  0  0  0  0  0  0  0
  -23.6630  -28.9110   23.3280 O   0  0  0  0  0  0  0  0  0  0  0  0
  -21.1490  -29.7430   21.6310 H   0  0  0  0  0  0  0  0  0  0  0  0
  -18.3940  -27.6940   22.6310 C   0  0  0  0  0  0  0  0  0  0  0  0
  -20.8990  -28.1840   23.0330 C   0  0  0  0  0  3  0  0  0  0  0  0
  -21.1660  -26.7860   22.4280 C   0  0  0  0  0  2  0  0  0  0  0  0
  -20.1470  -26.3880   21.3560 C   0  0  0  0  0  2  0  0  0  0  0  0
  -18.7290  -26.3870   21.9330 C   0  0  0  0  0  2  0  0  0  0  0  0
  -19.4120  -28.5450   23.1330 C   0  0  0  0  0  0  0  0  0  0  0  0
  -19.0460  -29.7660   23.7410 C   0  0  0  0  0  3  0  0  0  0  0  0
  -17.6920  -30.1380   23.8520 C   0  0  0  0  0  3  0  0  0  0  0  0
  -16.6880  -29.2840   23.3670 C   0  0  0  0  0  3  0  0  0  0  0  0
  -17.0380  -28.0640   22.7620 C   0  0  0  0  0  3  0  0  0  0  0  0
  -25.8740  -32.6920   23.9940 C   0  0  0  0  0  3  0  0  0  0  0  0
  -25.5000  -34.0810   24.2930 N   0  0  0  0  0  0  0  0  0  0  0  0
  -25.8280  -35.1360   23.5370 C   0  0  0  0  0  0  0  0  0  0  0  0
  -26.5470  -35.0450   22.5380 O   0  0  0  0  0  0  0  0  0  0  0  0
  -24.8720  -34.2220   25.0710 H   0  0  0  0  0  0  0  0  0  0  0  0
  -24.0560  -36.8580   23.0770 C   0  0  0  0  0  1  0  0  0  0  0  0
  -25.2700  -36.5110   23.9530 C   0  0  0  0  0  3  0  0  0  0  0  0
  -27.3330  -37.4800   24.8690 C   0  0  0  0  0  1  0  0  0  0  0  0
  -26.2700  -37.5990   23.8740 N   0  0  0  0  0  0  0  0  0  0  0  0
  -25.8280  -38.5070   23.9900 H   0  0  0  0  0  0  0  0  0  0  0  0
  -26.3600  -31.9540   25.3020 C   0  0  1  0  0  0  0  0  0  0  0  0
  -25.2210  -31.6510   26.3030 C   0  0  0  0  0  1  0  0  0  0  0  0
  -27.0450  -30.6140   24.9490 C   0  0  0  0  0  1  0  0  0  0  0  0
  -27.4200  -32.8170   26.0270 C   0  0  0  0  0  1  0  0  0  0  0  0
  -31.2360  -17.5740   20.9330 C   0  0  0  0  0  2  0  0  0  0  0  0
  -31.3720  -15.0870   20.8480 C   0  0  0  0  0  0  0  0  0  0  0  0
  -31.1610  -12.9650   19.5800 C   0  0  0  0  0  2  0  0  0  0  0  0
  -30.2870  -13.1870   18.3260 C   0  0  0  0  0  2  0  0  0  0  0  0
  -28.7840  -13.0440   18.6570 C   0  0  0  0  0  2  0  0  0  0  0  0
  -28.3740  -13.8120   19.9440 C   0  0  0  0  0  3  0  0  0  0  0  0
  -29.3650  -13.4960   21.0810 C   0  0  0  0  0  2  0  0  0  0  0  0
  -30.6980  -13.9120   20.6200 N   0  0  0  0  0  0  0  0  0  0  0  0
  -32.5390  -15.2020   20.4540 O   0  0  0  0  0  0  0  0  0  0  0  0
  -29.7340  -16.2710   22.3530 C   0  0  0  0  0  1  0  0  0  0  0  0
  -30.6770  -16.2180   21.2260 N   0  0  0  0  0  0  0  0  0  0  0  0
  -25.9370  -14.4110   20.5130 C   0  0  0  0  0  0  0  0  0  0  0  0
  -24.8460  -13.6340   20.7970 C   0  0  0  0  0  0  0  0  0  0  0  0
  -25.3070  -12.2840   20.7730 C   0  0  0  0  0  0  0  0  0  0  0  0
  -26.9930  -13.5310   20.3280 N   0  0  0  0  0  0  0  0  0  0  0  0
  -26.6140  -12.2450   20.5410 N   0  0  0  0  0  0  0  0  0  0  0  0
  -24.5690  -11.0200   20.9040 C   0  0  0  0  0  0  0  0  0  0  0  0
  -24.9000  -10.0690   21.8940 C   0  0  0  0  0  3  0  0  0  0  0  0
  -24.1660   -8.8700   22.0090 C   0  0  0  0  0  3  0  0  0  0  0  0
  -23.0850   -8.6130   21.1320 C   0  0  0  0  0  0  0  0  0  0  0  0
  -22.7750   -9.5520   20.1320 C   0  0  0  0  0  3  0  0  0  0  0  0
  -23.5100  -10.7430   20.0170 C   0  0  0  0  0  3  0  0  0  0  0  0
  -22.3320   -7.4630   21.1530 O   0  0  0  0  0  0  0  0  0  0  0  0
  -22.0980   -6.7780   22.3190 C   0  0  0  0  0  0  0  0  0  0  0  0
  -21.4550   -7.3810   23.4210 C   0  0  0  0  0  3  0  0  0  0  0  0
  -21.1700   -6.6210   24.5720 C   0  0  0  0  0  3  0  0  0  0  0  0
  -21.5180   -5.2590   24.6210 C   0  0  0  0  0  0  0  0  0  0  0  0
  -22.1540   -4.6540   23.5210 C   0  0  0  0  0  3  0  0  0  0  0  0
  -22.4390   -5.4110   22.3720 C   0  0  0  0  0  0  0  0  0  0  0  0
  -23.0320   -4.8200   21.3080 F   0  0  0  0  0  0  0  0  0  0  0  0
  -21.2360   -4.5250   25.7230 F   0  0  0  0  0  0  0  0  0  0  0  0
  -23.4360  -14.1130   20.9880 C   0  0  0  0  0  0  0  0  0  0  0  0
  -22.6580  -13.4200   21.8110 N   0  0  0  0  0  0  0  0  0  0  0  0
  -23.0290  -15.1380   20.4400 O   0  0  0  0  0  0  0  0  0  0  0  0
  -22.9970  -12.5950   22.2820 H   0  0  0  0  0  0  0  0  0  0  0  0
  -21.7070  -13.7220   21.9750 H   0  0  0  0  0  0  0  0  0  0  0  0
  -26.1090  -15.7840   20.3830 N   0  0  0  0  0  0  0  0  0  0  0  0
  -25.3330  -16.4320   20.4720 H   0  0  0  0  0  0  0  0  0  0  0  0
  -26.9880  -16.2420   20.1890 H   0  0  0  0  0  0  0  0  0  0  0  0
  2 13  1  0
  2  1  1  0
  3 58  1  0
  3  1  2  0
  4  5  1  0
  4  2  2  0
  5  3  1  0
  6  8  1  0
  7  8  1  0
  8  5  1  0
  9 11  1  0
 11 10  1  0
 11  4  1  0
 13 12  1  0
 14 13  1  0
 15 14  1  0
 15 16  1  0
 17 19  1  0
 17 16  1  0
 18 29  2  0
 19 24  1  0
 20 28  1  0
 20 30  1  0
 21 27  1  0
 21 23  1  0
 22 28  1  0
 23 22  1  0
 24 23  2  0
 25 26  1  0
 25 19  2  0
 26 21  2  0
 27 20  1  0
 28 18  1  0
 30 32  2  0
 31 30  1  0
 33 31  1  0
 34 43  2  0
 34 39  1  0
 35 31  1  0
 35 39  1  0
 36 35  1  0
 37 38  1  0
 37 36  1  0
 38 34  1  0
 39 40  2  0
 40 41  1  0
 42 41  2  0
 43 42  1  0
 44 18  1  0
 44 45  1  0
 44 54  1  0
 45 48  1  0
 46 50  1  0
 46 45  1  0
 47 46  2  0
 50 49  1  0
 52 50  1  0
 52 53  1  0
 52 51  1  0
 54 57  1  1
 54 55  1  0
 56 54  1  0
 58 68  1  0
 59 68  1  0
 60 65  1  0
 61 62  1  0
 61 60  1  0
 63 62  1  0
 63 72  1  0
 63 64  1  0
 65 59  1  0
 65 64  1  0
 66 59  2  0
 68 67  1  0
 69 70  2  0
 70 89  1  0
 71 70  1  0
 71 74  1  0
 72 69  1  0
 72 73  1  0
 73 71  2  0
 74 75  1  0
 75 76  2  0
 77 80  1  0
 77 76  1  0
 78 77  2  0
 79 78  1  0
 79 74  2  0
 80 81  1  0
 81 86  2  0
 81 82  1  0
 82 83  2  0
 83 84  1  0
 84 88  1  0
 85 84  2  0
 86 85  1  0
 87 86  1  0
 89 90  1  0
 90 93  1  0
 90 92  1  0
 91 89  2  0
 94 95  1  0
 94 69  1  0
 96 94  1  0
M  ISO  4  16 101  17 101  59 100  68 100
M  END
>  <TORSDO>  (7) 
F 23

>  <SCORE>  (7) 
-10.224

>  <name>  (7) 
6

>  <ligand_id>  (7) 
6

>  <original_smiles>  (7) 
[H]c1c([H])c([H])c2c(c1[H])C([H])([H])C([H])([H])C([H])([H])C2([H])N([H])C(=O)C1([H])N(C(=O)C([H])(N([H])C(=O)C([H])(N([H])C([H])([H])[H])C([H])([H])[H])C(C([H])([H])[H])(C([H])([H])[H])C([H])([H])[H])C([H])([H])c2c([H])c(OC([H])([H])C([H])([H])C([H])([H])C([H])(c3c([H])c(C([H])([H])N(C(=O)N4C([H])([H])C([H])([H])C([H])([H])C([H])(n5nc(-c6c([H])c([H])c(Oc7c([H])c([H])c(F)c([H])c7F)c([H])c6[H])c(C(=O)N([H])[H])c5N([H])[H])C4([H])[H])C([H])([H])[H])n(C([H])(C([H])([H])[H])C([H])([H])[H])c3C([H])(C([H])([H])[H])C([H])([H])[H])C([H])([H])[H])c([H])c([H])c2C1([H])[H]

>  <smiles>  (7) 
[H]c1c([H])c([H])c2c(c1[H])C([H])([H])C([H])([H])C([H])([H])C2([H])N([H])C(=O)C1([H])N(C(=O)C([H])(N([H])C(=O)C([H])(N([H])C([H])([H])[H])C([H])([H])[H])C(C([H])([H])[H])(C([H])([H])[H])C([H])([H])[H])C([H])([H])c2c([H])c(OC([H])([H])C([H])([H])C([H])([H])C([H])(c3c([H])c(C([H])([H])N(C(=O)N4C([H])([H])C([H])([H])C([H])([H])C([H])(n5nc(-c6c([H])c([H])c(Oc7c([H])c([H])c(F)c([H])c7F)c([H])c6[H])c(C(=O)N([H])[H])c5N([H])[H])C4([H])[H])C([H])([H])[H])n(C([H])(C([H])([H])[H])C([H])([H])[H])c3C([H])(C([H])([H])[H])C([H])([H])[H])C([H])([H])[H])c([H])c([H])c2C1([H])[H]

$$$$
7:0:0
     RDKit          3D

 92100  0  0  1  0  0  0  0  0999 V2000
  -28.9850  -19.3750   19.9510 C   0  0  0  0  0  3  0  0  0  0  0  0
  -30.8320  -20.4470   20.5710 C   0  0  0  0  0  3  0  0  0  0  0  0
  -29.5110  -20.6670   20.2780 C   0  0  0  0  0  0  0  0  0  0  0  0
  -29.9860  -18.4240   19.9760 C   0  0  0  0  0  0  0  0  0  0  0  0
  -31.1390  -19.1000   20.3750 N   0  0  0  0  0  0  0  0  0  0  0  0
  -33.3680  -19.2210   21.4980 C   0  0  0  0  0  1  0  0  0  0  0  0
  -33.1550  -18.5290   19.0690 C   0  0  0  0  0  1  0  0  0  0  0  0
  -32.4830  -18.5250   20.4510 C   0  0  0  0  0  3  0  0  0  0  0  0
  -30.0030  -16.9820   19.4460 C   0  0  0  0  0  2  0  0  0  0  0  0
  -30.7080  -14.7260   20.2450 C   0  0  0  0  0  0  0  0  0  0  0  0
  -30.4500  -12.4950   19.2340 C   0  0  0  0  0  2  0  0  0  0  0  0
  -29.5090  -12.6560   18.0200 C   0  0  0  0  0  2  0  0  0  0  0  0
  -28.0290  -12.5440   18.4440 C   0  0  0  0  0  2  0  0  0  0  0  0
  -27.6910  -13.3850   19.7040 C   0  0  0  0  0  3  0  0  0  0  0  0
  -28.7560  -13.2200   20.8150 C   0  0  0  0  0  2  0  0  0  0  0  0
  -30.0690  -13.5190   20.2240 N   0  0  0  0  0  0  0  0  0  0  0  0
  -31.8760  -14.8500   19.8700 O   0  0  0  0  0  0  0  0  0  0  0  0
  -29.9100  -15.8170   20.3690 N   0  0  0  0  0  0  0  0  0  0  0  0
  -28.9850  -15.6300   20.7240 H   0  0  0  0  0  0  0  0  0  0  0  0
  -25.2980  -13.9740   20.4290 C   0  0  0  0  0  0  0  0  0  0  0  0
  -24.2390  -13.1950   20.8070 C   0  0  0  0  0  0  0  0  0  0  0  0
  -24.7050  -11.8460   20.7780 C   0  0  0  0  0  0  0  0  0  0  0  0
  -26.3460  -13.0970   20.1950 N   0  0  0  0  0  0  0  0  0  0  0  0
  -25.9940  -11.8130   20.4610 N   0  0  0  0  0  0  0  0  0  0  0  0
  -23.9870  -10.5810   20.9740 C   0  0  0  0  0  0  0  0  0  0  0  0
  -24.4230   -9.6220   21.9130 C   0  0  0  0  0  3  0  0  0  0  0  0
  -23.7060   -8.4220   22.1000 C   0  0  0  0  0  3  0  0  0  0  0  0
  -22.5360   -8.1690   21.3430 C   0  0  0  0  0  0  0  0  0  0  0  0
  -22.1180   -9.1160   20.3920 C   0  0  0  0  0  3  0  0  0  0  0  0
  -22.8370  -10.3080   20.2060 C   0  0  0  0  0  3  0  0  0  0  0  0
  -21.7920   -7.0180   21.4370 O   0  0  0  0  0  0  0  0  0  0  0  0
  -21.7320   -6.2920   22.6000 C   0  0  0  0  0  0  0  0  0  0  0  0
  -21.2770   -6.8580   23.8110 C   0  0  0  0  0  3  0  0  0  0  0  0
  -21.1680   -6.0580   24.9660 C   0  0  0  0  0  3  0  0  0  0  0  0
  -21.5010   -4.6910   24.9110 C   0  0  0  0  0  0  0  0  0  0  0  0
  -21.9480   -4.1250   23.7050 C   0  0  0  0  0  3  0  0  0  0  0  0
  -22.0630   -4.9240   22.5530 C   0  0  0  0  0  0  0  0  0  0  0  0
  -22.4750   -4.3680   21.3880 F   0  0  0  0  0  0  0  0  0  0  0  0
  -21.3870   -3.9180   26.0180 F   0  0  0  0  0  0  0  0  0  0  0  0
  -22.8380  -13.6640   21.0860 C   0  0  0  0  0  0  0  0  0  0  0  0
  -22.1240  -12.9650   21.9610 N   0  0  0  0  0  0  0  0  0  0  0  0
  -22.3880  -14.6820   20.5640 O   0  0  0  0  0  0  0  0  0  0  0  0
  -22.5060  -12.1420   22.4010 H   0  0  0  0  0  0  0  0  0  0  0  0
  -21.1840  -13.2560   22.1900 H   0  0  0  0  0  0  0  0  0  0  0  0
  -25.4540  -15.3440   20.2420 N   0  0  0  0  0  0  0  0  0  0  0  0
  -24.6810  -15.9950   20.3420 H   0  0  0  0  0  0  0  0  0  0  0  0
  -26.2760  -15.7780   19.8420 H   0  0  0  0  0  0  0  0  0  0  0  0
  -28.8240  -21.8810   20.2010 O   0  0  0  0  0  0  0  0  0  0  0  0
  -29.1840  -22.9700   21.0850 C   0  0  0  0  0  2  0  0  0  0  0  0
  -29.2880  -24.4020   20.4370 C   0  0  0  0  0  3  0  0  0  0  0  0
  -27.9830  -25.2560   20.3260 C   0  0  0  0  0  3  0  0  0  0  0  0
  -28.1850  -26.6850   20.0880 O   0  0  0  0  0  0  0  0  0  0  0  0
  -24.5200  -31.9780   23.2450 C   0  0  0  0  0  0  0  0  0  0  0  0
  -27.0450  -27.4850   20.0850 C   0  0  0  0  0  0  0  0  0  0  0  0
  -23.2650  -30.5960   21.6260 C   0  0  0  0  0  3  0  0  0  0  0  0
  -24.6740  -29.0580   20.1510 C   0  0  0  0  0  0  0  0  0  0  0  0
  -25.7930  -30.9230   21.3720 C   0  0  0  0  0  2  0  0  0  0  0  0
  -25.8540  -29.5520   20.7200 C   0  0  0  0  0  0  0  0  0  0  0  0
  -27.0430  -28.7760   20.6790 C   0  0  0  0  0  3  0  0  0  0  0  0
  -25.8460  -27.0320   19.4870 C   0  0  0  0  0  3  0  0  0  0  0  0
  -24.6690  -27.8010   19.5260 C   0  0  0  0  0  3  0  0  0  0  0  0
  -23.4370  -29.9240   20.2380 C   0  0  0  0  0  2  0  0  0  0  0  0
  -24.5460  -31.1800   22.1390 N   0  0  0  0  0  0  0  0  0  0  0  0
  -23.4530  -32.2570   23.8120 O   0  0  0  0  0  0  0  0  0  0  0  0
  -22.6280  -29.5750   22.5950 C   0  0  0  0  0  0  0  0  0  0  0  0
  -21.3040  -29.3790   22.4770 N   0  0  0  0  0  0  0  0  0  0  0  0
  -23.3210  -28.9600   23.4090 O   0  0  0  0  0  0  0  0  0  0  0  0
  -20.8040  -29.9300   21.7930 H   0  0  0  0  0  0  0  0  0  0  0  0
  -17.9510  -28.1210   22.9660 C   0  0  0  0  0  0  0  0  0  0  0  0
  -20.5000  -28.4360   23.2550 C   0  0  0  0  0  3  0  0  0  0  0  0
  -20.6370  -26.9970   22.7060 C   0  0  0  0  0  2  0  0  0  0  0  0
  -19.5530  -26.6370   21.6860 C   0  0  0  0  0  2  0  0  0  0  0  0
  -18.1610  -26.7650   22.3120 C   0  0  0  0  0  2  0  0  0  0  0  0
  -19.0490  -28.9120   23.3940 C   0  0  0  0  0  0  0  0  0  0  0  0
  -18.7990  -30.1810   23.9610 C   0  0  0  0  0  3  0  0  0  0  0  0
  -17.4830  -30.6570   24.1080 C   0  0  0  0  0  3  0  0  0  0  0  0
  -16.3980  -29.8610   23.6970 C   0  0  0  0  0  3  0  0  0  0  0  0
  -16.6330  -28.5950   23.1320 C   0  0  0  0  0  3  0  0  0  0  0  0
  -25.8230  -32.5960   23.8390 C   0  0  0  0  0  3  0  0  0  0  0  0
  -25.5380  -33.9990   24.1720 N   0  0  0  0  0  0  0  0  0  0  0  0
  -25.8830  -35.0480   23.4130 C   0  0  0  0  0  0  0  0  0  0  0  0
  -26.5490  -34.9350   22.3800 O   0  0  0  0  0  0  0  0  0  0  0  0
  -24.9490  -34.1630   24.9760 H   0  0  0  0  0  0  0  0  0  0  0  0
  -24.1930  -36.8760   23.0550 C   0  0  0  0  0  1  0  0  0  0  0  0
  -25.4190  -36.4430   23.8730 C   0  0  0  0  0  3  0  0  0  0  0  0
  -27.5640  -37.2830   24.7240 C   0  0  0  0  0  1  0  0  0  0  0  0
  -26.4710  -37.4780   23.7750 N   0  0  0  0  0  0  0  0  0  0  0  0
  -26.0810  -38.4030   23.9290 H   0  0  0  0  0  0  0  0  0  0  0  0
  -26.3610  -31.8180   25.1030 C   0  0  1  0  0  0  0  0  0  0  0  0
  -25.2890  -31.5920   26.1950 C   0  0  0  0  0  1  0  0  0  0  0  0
  -26.9160  -30.4330   24.6940 C   0  0  0  0  0  1  0  0  0  0  0  0
  -27.5310  -32.6020   25.7410 C   0  0  0  0  0  1  0  0  0  0  0  0
  1  4  2  0
  1  3  1  0
  3  2  2  0
  4  5  1  0
  5  8  1  0
  5  2  1  0
  7  8  1  0
  8  6  1  0
  9  4  1  0
  9 18  1  0
 10 18  1  0
 11 16  1  0
 12 13  1  0
 12 11  1  0
 14 13  1  0
 14 23  1  0
 14 15  1  0
 16 10  1  0
 16 15  1  0
 17 10  2  0
 18 19  1  0
 20 21  2  0
 21 40  1  0
 22 21  1  0
 22 25  1  0
 23 20  1  0
 23 24  1  0
 24 22  2  0
 25 26  1  0
 26 27  2  0
 28 31  1  0
 28 27  1  0
 29 28  2  0
 30 29  1  0
 30 25  2  0
 31 32  1  0
 32 33  1  0
 33 34  2  0
 35 34  1  0
 35 39  1  0
 36 35  2  0
 37 32  2  0
 37 36  1  0
 38 37  1  0
 40 41  1  0
 41 44  1  0
 41 43  1  0
 42 40  2  0
 45 46  1  0
 45 20  1  0
 47 45  1  0
 48  3  1  0
 48 49  1  0
 50 49  1  0
 51 50  2  0
 52 51  1  0
 53 64  2  0
 54 52  1  0
 54 59  1  0
 55 63  1  0
 55 65  1  0
 56 62  1  0
 56 58  1  0
 57 63  1  0
 58 57  1  0
 59 58  2  0
 60 61  1  0
 60 54  2  0
 61 56  2  0
 62 55  1  0
 63 53  1  0
 65 67  2  0
 66 65  1  0
 68 66  1  0
 69 78  2  0
 69 74  1  0
 70 66  1  0
 70 74  1  0
 71 70  1  0
 72 73  1  0
 72 71  1  0
 73 69  1  0
 74 75  2  0
 75 76  1  0
 77 76  2  0
 78 77  1  0
 79 53  1  0
 79 80  1  0
 79 89  1  0
 80 83  1  0
 81 85  1  0
 81 80  1  0
 82 81  2  0
 85 84  1  0
 87 85  1  0
 87 88  1  0
 87 86  1  0
 89 92  1  1
 89 90  1  0
 91 89  1  0
M  ISO  4  10 100  18 100  51 101  52 101
M  END
>  <TORSDO>  (8) 
F 22

>  <SCORE>  (8) 
-13.224

>  <name>  (8) 
7

>  <ligand_id>  (8) 
7

>  <original_smiles>  (8) 
[H]c1c([H])c([H])c2c(c1[H])C([H])([H])C([H])([H])C([H])([H])C2([H])N([H])C(=O)C1([H])N(C(=O)C([H])(N([H])C(=O)C([H])(N([H])C([H])([H])[H])C([H])([H])[H])C(C([H])([H])[H])(C([H])([H])[H])C([H])([H])[H])C([H])([H])c2c([H])c(OC([H])([H])C([H])([H])C([H])([H])Oc3c([H])c(C([H])([H])N([H])C(=O)N4C([H])([H])C([H])([H])C([H])([H])C([H])(n5nc(-c6c([H])c([H])c(Oc7c([H])c([H])c(F)c([H])c7F)c([H])c6[H])c(C(=O)N([H])[H])c5N([H])[H])C4([H])[H])n(C([H])(C([H])([H])[H])C([H])([H])[H])c3[H])c([H])c([H])c2C1([H])[H]

>  <smiles>  (8) 
[H]c1c([H])c([H])c2c(c1[H])C([H])([H])C([H])([H])C([H])([H])C2([H])N([H])C(=O)C1([H])N(C(=O)C([H])(N([H])C(=O)C([H])(N([H])C([H])([H])[H])C([H])([H])[H])C(C([H])([H])[H])(C([H])([H])[H])C([H])([H])[H])C([H])([H])c2c([H])c(OC([H])([H])C([H])([H])C([H])([H])Oc3c([H])c(C([H])([H])N([H])C(=O)N4C([H])([H])C([H])([H])C([H])([H])C([H])(n5nc(-c6c([H])c([H])c(Oc7c([H])c([H])c(F)c([H])c7F)c([H])c6[H])c(C(=O)N([H])[H])c5N([H])[H])C4([H])[H])n(C([H])(C([H])([H])[H])C([H])([H])[H])c3[H])c([H])c([H])c2C1([H])[H]

$$$$
8:0:0
     RDKit          3D

 95104  0  0  1  0  0  0  0  0999 V2000
  -27.3730  -22.5430   21.0280 C   0  0  0  0  0  3  0  0  0  0  0  0
  -29.0680  -24.0960   20.2760 C   0  0  0  0  0  3  0  0  0  0  0  0
  -28.7060  -22.7230   20.6120 C   0  0  0  0  0  0  0  0  0  0  0  0
  -26.5080  -23.6420   21.1330 C   0  0  0  0  0  0  0  0  0  0  0  0
  -28.1250  -25.1940   20.4090 C   0  0  0  0  0  0  0  0  0  0  0  0
  -25.0420  -23.4640   21.4780 C   0  0  0  0  0  1  0  0  0  0  0  0
  -26.8940  -24.9050   20.8910 N   0  0  0  0  0  0  0  0  0  0  0  0
  -29.0610  -19.9900   20.3870 C   0  0  0  0  0  2  0  0  0  0  0  0
  -30.3580  -21.3980   22.0420 C   0  0  0  0  0  2  0  0  0  0  0  0
  -31.1090  -18.9330   21.5830 C   0  0  0  0  0  2  0  0  0  0  0  0
  -29.6650  -21.4480   20.6550 C   0  0  0  0  0  3  0  0  0  0  0  0
  -30.0900  -18.7600   20.4250 C   0  0  0  0  0  3  0  0  0  0  0  0
  -30.8630  -20.0730   22.5160 N   0  0  0  0  0  4  0  0  0  0  0  0
  -30.1980  -19.7410   23.1950 H   0  0  0  0  0  0  0  0  0  0  0  0
  -31.7080  -20.2450   23.0380 H   0  0  0  0  0  0  0  0  0  0  0  0
  -29.4400  -17.2920   20.2170 C   0  0  0  0  0  2  0  0  0  0  0  0
  -30.6630  -14.9560   20.3360 C   0  0  0  0  0  0  0  0  0  0  0  0
  -30.5580  -12.6500   19.3620 C   0  0  0  0  0  2  0  0  0  0  0  0
  -29.6090  -12.6500   18.1410 C   0  0  0  0  0  2  0  0  0  0  0  0
  -28.1450  -12.4470   18.5860 C   0  0  0  0  0  2  0  0  0  0  0  0
  -27.7580  -13.3660   19.7750 C   0  0  0  0  0  3  0  0  0  0  0  0
  -28.8180  -13.3100   20.9010 C   0  0  0  0  0  2  0  0  0  0  0  0
  -30.1140  -13.6930   20.3190 N   0  0  0  0  0  0  0  0  0  0  0  0
  -31.7510  -15.1720   19.7950 O   0  0  0  0  0  0  0  0  0  0  0  0
  -29.8970  -15.9820   20.8490 N   0  0  0  0  0  0  0  0  0  0  0  0
  -29.1890  -15.6180   21.4730 H   0  0  0  0  0  0  0  0  0  0  0  0
  -25.3720  -13.9240   20.5450 C   0  0  0  0  0  0  0  0  0  0  0  0
  -24.3180  -13.1340   20.9280 C   0  0  0  0  0  0  0  0  0  0  0  0
  -24.7920  -11.7910   20.8550 C   0  0  0  0  0  0  0  0  0  0  0  0
  -26.4200  -13.0610   20.2750 N   0  0  0  0  0  0  0  0  0  0  0  0
  -26.0770  -11.7700   20.5210 N   0  0  0  0  0  0  0  0  0  0  0  0
  -24.0850  -10.5180   21.0280 C   0  0  0  0  0  0  0  0  0  0  0  0
  -24.5170   -9.5590   21.9690 C   0  0  0  0  0  3  0  0  0  0  0  0
  -23.8100   -8.3490   22.1360 C   0  0  0  0  0  3  0  0  0  0  0  0
  -22.6550   -8.0880   21.3620 C   0  0  0  0  0  0  0  0  0  0  0  0
  -22.2450   -9.0340   20.4070 C   0  0  0  0  0  3  0  0  0  0  0  0
  -22.9500  -10.2380   20.2400 C   0  0  0  0  0  3  0  0  0  0  0  0
  -21.9200   -6.9310   21.4380 O   0  0  0  0  0  0  0  0  0  0  0  0
  -21.8270   -6.2140   22.6030 C   0  0  0  0  0  0  0  0  0  0  0  0
  -21.2900   -6.7690   23.7850 C   0  0  0  0  0  3  0  0  0  0  0  0
  -21.1510   -5.9730   24.9380 C   0  0  0  0  0  3  0  0  0  0  0  0
  -21.5350   -4.6190   24.9110 C   0  0  0  0  0  0  0  0  0  0  0  0
  -22.0630   -4.0630   23.7330 C   0  0  0  0  0  3  0  0  0  0  0  0
  -22.2060   -4.8560   22.5840 C   0  0  0  0  0  0  0  0  0  0  0  0
  -22.6970   -4.3090   21.4450 F   0  0  0  0  0  0  0  0  0  0  0  0
  -21.3920   -3.8490   26.0160 F   0  0  0  0  0  0  0  0  0  0  0  0
  -22.9230  -13.5920   21.2340 C   0  0  0  0  0  0  0  0  0  0  0  0
  -22.2140  -12.8700   22.0980 N   0  0  0  0  0  0  0  0  0  0  0  0
  -22.4620  -14.6190   20.7400 O   0  0  0  0  0  0  0  0  0  0  0  0
  -22.6040  -12.0460   22.5330 H   0  0  0  0  0  0  0  0  0  0  0  0
  -21.2650  -13.1390   22.3210 H   0  0  0  0  0  0  0  0  0  0  0  0
  -25.5270  -15.2950   20.3810 N   0  0  0  0  0  0  0  0  0  0  0  0
  -24.7550  -15.9430   20.4900 H   0  0  0  0  0  0  0  0  0  0  0  0
  -26.3500  -15.7130   19.9670 H   0  0  0  0  0  0  0  0  0  0  0  0
  -28.3440  -26.5840   20.0710 O   0  0  0  0  0  0  0  0  0  0  0  0
  -24.6220  -31.9500   23.2170 C   0  0  0  0  0  0  0  0  0  0  0  0
  -27.2750  -27.5180   19.9970 C   0  0  0  0  0  0  0  0  0  0  0  0
  -23.4360  -30.5880   21.5350 C   0  0  0  0  0  3  0  0  0  0  0  0
  -24.9070  -29.1390   20.0250 C   0  0  0  0  0  0  0  0  0  0  0  0
  -25.9730  -30.9400   21.3700 C   0  0  0  0  0  2  0  0  0  0  0  0
  -26.0660  -29.5950   20.6620 C   0  0  0  0  0  0  0  0  0  0  0  0
  -27.2500  -28.7910   20.6560 C   0  0  0  0  0  3  0  0  0  0  0  0
  -26.1190  -27.1810   19.2540 C   0  0  0  0  0  3  0  0  0  0  0  0
  -24.9370  -27.9390   19.3040 C   0  0  0  0  0  3  0  0  0  0  0  0
  -23.6530  -29.9820   20.1250 C   0  0  0  0  0  2  0  0  0  0  0  0
  -24.6930  -31.1800   22.0930 N   0  0  0  0  0  0  0  0  0  0  0  0
  -23.5350  -32.1900   23.7640 O   0  0  0  0  0  0  0  0  0  0  0  0
  -22.8010  -29.5210   22.4590 C   0  0  0  0  0  0  0  0  0  0  0  0
  -21.4830  -29.3010   22.3140 N   0  0  0  0  0  0  0  0  0  0  0  0
  -23.4920  -28.8980   23.2700 O   0  0  0  0  0  0  0  0  0  0  0  0
  -20.9800  -29.8520   21.6300 H   0  0  0  0  0  0  0  0  0  0  0  0
  -18.1500  -27.9540   22.7210 C   0  0  0  0  0  0  0  0  0  0  0  0
  -20.6870  -28.3220   23.0570 C   0  0  0  0  0  3  0  0  0  0  0  0
  -20.8680  -26.9030   22.4680 C   0  0  0  0  0  2  0  0  0  0  0  0
  -19.8020  -26.5430   21.4280 C   0  0  0  0  0  2  0  0  0  0  0  0
  -18.3990  -26.6220   22.0360 C   0  0  0  0  0  2  0  0  0  0  0  0
  -19.2220  -28.7610   23.1860 C   0  0  0  0  0  0  0  0  0  0  0  0
  -18.9320  -30.0070   23.7810 C   0  0  0  0  0  3  0  0  0  0  0  0
  -17.6020  -30.4440   23.9260 C   0  0  0  0  0  3  0  0  0  0  0  0
  -16.5430  -29.6330   23.4820 C   0  0  0  0  0  3  0  0  0  0  0  0
  -16.8180  -28.3920   22.8810 C   0  0  0  0  0  3  0  0  0  0  0  0
  -25.8990  -32.5850   23.8500 C   0  0  0  0  0  3  0  0  0  0  0  0
  -25.5810  -33.9810   24.1870 N   0  0  0  0  0  0  0  0  0  0  0  0
  -25.9170  -35.0410   23.4380 C   0  0  0  0  0  0  0  0  0  0  0  0
  -26.5970  -34.9470   22.4120 O   0  0  0  0  0  0  0  0  0  0  0  0
  -24.9890  -34.1300   24.9900 H   0  0  0  0  0  0  0  0  0  0  0  0
  -24.1940  -36.8340   23.0660 C   0  0  0  0  0  1  0  0  0  0  0  0
  -25.4180  -36.4240   23.9010 C   0  0  0  0  0  3  0  0  0  0  0  0
  -27.5270  -37.3000   24.7960 C   0  0  0  0  0  1  0  0  0  0  0  0
  -26.4530  -37.4780   23.8240 N   0  0  0  0  0  0  0  0  0  0  0  0
  -26.0410  -38.3960   23.9710 H   0  0  0  0  0  0  0  0  0  0  0  0
  -26.4100  -31.8110   25.1300 C   0  0  1  0  0  0  0  0  0  0  0  0
  -25.3100  -31.5560   26.1880 C   0  0  0  0  0  1  0  0  0  0  0  0
  -27.0110  -30.4400   24.7450 C   0  0  0  0  0  1  0  0  0  0  0  0
  -27.5480  -32.6120   25.8050 C   0  0  0  0  0  1  0  0  0  0  0  0
  1  4  2  0
  2  5  1  0
  2  3  2  0
  3  1  1  0
  4  6  1  0
  5  7  2  0
  7  4  1  0
  8 12  1  0
  8 11  1  0
  9 13  1  0
 10 13  1  0
 11  3  1  0
 11  9  1  0
 12 16  1  0
 12 10  1  0
 13 15  1  0
 13 14  1  0
 16 25  1  0
 17 25  1  0
 18 23  1  0
 19 20  1  0
 19 18  1  0
 21 20  1  0
 21 30  1  0
 21 22  1  0
 23 17  1  0
 23 22  1  0
 24 17  2  0
 25 26  1  0
 27 28  2  0
 28 47  1  0
 29 28  1  0
 29 32  1  0
 30 31  1  0
 30 27  1  0
 31 29  2  0
 32 33  1  0
 33 34  2  0
 35 38  1  0
 35 34  1  0
 36 35  2  0
 37 36  1  0
 37 32  2  0
 38 39  1  0
 39 40  1  0
 40 41  2  0
 42 41  1  0
 42 46  1  0
 43 42  2  0
 44 39  2  0
 44 43  1  0
 45 44  1  0
 47 48  1  0
 48 51  1  0
 48 50  1  0
 49 47  2  0
 52 53  1  0
 52 27  1  0
 54 52  1  0
 55  5  1  0
 56 67  2  0
 57 55  1  0
 57 62  1  0
 58 66  1  0
 58 68  1  0
 59 65  1  0
 59 61  1  0
 60 66  1  0
 61 60  1  0
 62 61  2  0
 63 64  1  0
 63 57  2  0
 64 59  2  0
 65 58  1  0
 66 56  1  0
 68 70  2  0
 69 68  1  0
 71 69  1  0
 72 81  2  0
 72 77  1  0
 73 69  1  0
 73 77  1  0
 74 73  1  0
 75 76  1  0
 75 74  1  0
 76 72  1  0
 77 78  2  0
 78 79  1  0
 80 79  2  0
 81 80  1  0
 82 56  1  0
 82 83  1  0
 82 92  1  0
 83 86  1  0
 84 88  1  0
 84 83  1  0
 85 84  2  0
 88 87  1  0
 90 88  1  0
 90 91  1  0
 90 89  1  0
 92 95  1  1
 92 93  1  0
 94 92  1  0
M  ISO  4   5 101  17 100  25 100  55 101
M  END
>  <TORSDO>  (9) 
F 18

>  <SCORE>  (9) 
-15.140

>  <name>  (9) 
8

>  <ligand_id>  (9) 
8

>  <original_smiles>  (9) 
[H]c1c([H])c([H])c2c(c1[H])C([H])([H])C([H])([H])C([H])([H])C2([H])N([H])C(=O)C1([H])N(C(=O)C([H])(N([H])C(=O)C([H])(N([H])C([H])([H])[H])C([H])([H])[H])C(C([H])([H])[H])(C([H])([H])[H])C([H])([H])[H])C([H])([H])c2c([H])c(Oc3nc(C([H])([H])[H])c([H])c(C4([H])C([H])([H])C([H])(C([H])([H])N([H])C(=O)N5C([H])([H])C([H])([H])C([H])([H])C([H])(n6nc(-c7c([H])c([H])c(Oc8c([H])c([H])c(F)c([H])c8F)c([H])c7[H])c(C(=O)N([H])[H])c6N([H])[H])C5([H])[H])C([H])([H])[N+]([H])([H])C4([H])[H])c3[H])c([H])c([H])c2C1([H])[H]

>  <smiles>  (9) 
[H]c1c([H])c([H])c2c(c1[H])C([H])([H])C([H])([H])C([H])([H])C2([H])N([H])C(=O)C1([H])N(C(=O)C([H])(N([H])C(=O)C([H])(N([H])C([H])([H])[H])C([H])([H])[H])C(C([H])([H])[H])(C([H])([H])[H])C([H])([H])[H])C([H])([H])c2c([H])c(Oc3nc(C([H])([H])[H])c([H])c(C4([H])C([H])([H])C([H])(C([H])([H])N([H])C(=O)N5C([H])([H])C([H])([H])C([H])([H])C([H])(n6nc(-c7c([H])c([H])c(Oc8c([H])c([H])c(F)c([H])c8F)c([H])c7[H])c(C(=O)N([H])[H])c6N([H])[H])C5([H])[H])C([H])([H])[N+]([H])([H])C4([H])[H])c3[H])c([H])c([H])c2C1([H])[H]

$$$$
9:0:0
     RDKit          3D

 95103  0  0  1  0  0  0  0  0999 V2000
  -30.5370  -24.5790   20.4690 C   0  0  0  0  0  2  0  0  0  0  0  0
  -31.4980  -23.6900   20.8080 C   0  0  0  0  0  2  0  0  0  0  0  0
  -29.2980  -23.8970   20.3130 C   0  0  0  0  0  0  0  0  0  0  0  0
  -29.5960  -22.4990   20.4060 C   0  0  0  0  0  0  0  0  0  0  0  0
  -30.9250  -22.4390   20.8840 N   0  0  0  0  0  0  0  0  0  0  0  0
  -32.1740  -21.5220   22.8330 C   0  0  0  0  0  1  0  0  0  0  0  0
  -32.8420  -20.9330   20.4530 C   0  0  0  0  0  1  0  0  0  0  0  0
  -31.6800  -21.2870   21.3940 C   0  0  0  0  0  3  0  0  0  0  0  0
  -26.9810  -24.3310   21.1880 C   0  0  0  0  0  1  0  0  0  0  0  0
  -28.0080  -24.7940   20.1350 C   0  0  0  0  0  3  0  0  0  0  0  0
  -28.2340  -26.2870   20.2470 O   0  0  0  0  0  0  0  0  0  0  0  0
  -24.6910  -31.7670   23.3820 C   0  0  0  0  0  0  0  0  0  0  0  0
  -27.1660  -27.2120   20.1780 C   0  0  0  0  0  0  0  0  0  0  0  0
  -23.4590  -30.4780   21.6770 C   0  0  0  0  0  3  0  0  0  0  0  0
  -24.8700  -28.9380   20.1940 C   0  0  0  0  0  0  0  0  0  0  0  0
  -26.0100  -30.7050   21.5330 C   0  0  0  0  0  2  0  0  0  0  0  0
  -26.0480  -29.3500   20.8280 C   0  0  0  0  0  0  0  0  0  0  0  0
  -27.1980  -28.5000   20.8110 C   0  0  0  0  0  3  0  0  0  0  0  0
  -25.9770  -26.8790   19.4930 C   0  0  0  0  0  3  0  0  0  0  0  0
  -24.8390  -27.7100   19.5140 C   0  0  0  0  0  3  0  0  0  0  0  0
  -23.6640  -29.8530   20.2700 C   0  0  0  0  0  2  0  0  0  0  0  0
  -24.7380  -31.0000   22.2540 N   0  0  0  0  0  0  0  0  0  0  0  0
  -23.6110  -32.0610   23.9170 O   0  0  0  0  0  0  0  0  0  0  0  0
  -22.7500  -29.4480   22.5900 C   0  0  0  0  0  0  0  0  0  0  0  0
  -21.4210  -29.3110   22.4340 N   0  0  0  0  0  0  0  0  0  0  0  0
  -23.3950  -28.7770   23.3990 O   0  0  0  0  0  0  0  0  0  0  0  0
  -20.9590  -29.9030   21.7570 H   0  0  0  0  0  0  0  0  0  0  0  0
  -18.0050  -28.1900   22.8340 C   0  0  0  0  0  0  0  0  0  0  0  0
  -20.5640  -28.3700   23.1580 C   0  0  0  0  0  3  0  0  0  0  0  0
  -20.6390  -26.9570   22.5340 C   0  0  0  0  0  2  0  0  0  0  0  0
  -19.5470  -26.6990   21.4900 C   0  0  0  0  0  2  0  0  0  0  0  0
  -18.1580  -26.8610   22.1140 C   0  0  0  0  0  2  0  0  0  0  0  0
  -19.1350  -28.9070   23.3100 C   0  0  0  0  0  0  0  0  0  0  0  0
  -18.9380  -30.1540   23.9410 C   0  0  0  0  0  3  0  0  0  0  0  0
  -17.6440  -30.6840   24.1010 C   0  0  0  0  0  3  0  0  0  0  0  0
  -16.5280  -29.9640   23.6430 C   0  0  0  0  0  3  0  0  0  0  0  0
  -16.7090  -28.7180   23.0130 C   0  0  0  0  0  3  0  0  0  0  0  0
  -25.9870  -32.3310   24.0420 C   0  0  0  0  0  3  0  0  0  0  0  0
  -25.7480  -33.7470   24.3560 N   0  0  0  0  0  0  0  0  0  0  0  0
  -26.1260  -34.7730   23.5810 C   0  0  0  0  0  0  0  0  0  0  0  0
  -26.7830  -34.6250   22.5480 O   0  0  0  0  0  0  0  0  0  0  0  0
  -25.1680  -33.9410   25.1580 H   0  0  0  0  0  0  0  0  0  0  0  0
  -24.4690  -36.6340   23.2390 C   0  0  0  0  0  1  0  0  0  0  0  0
  -25.7130  -36.1900   24.0250 C   0  0  0  0  0  3  0  0  0  0  0  0
  -27.9000  -37.0020   24.7900 C   0  0  0  0  0  1  0  0  0  0  0  0
  -26.7860  -37.1950   23.8650 N   0  0  0  0  0  0  0  0  0  0  0  0
  -26.4230  -38.1350   23.9990 H   0  0  0  0  0  0  0  0  0  0  0  0
  -26.4170  -31.5420   25.3390 C   0  0  1  0  0  0  0  0  0  0  0  0
  -25.2770  -31.3740   26.3720 C   0  0  0  0  0  1  0  0  0  0  0  0
  -26.9350  -30.1310   24.9760 C   0  0  0  0  0  1  0  0  0  0  0  0
  -27.5870  -32.2760   26.0360 C   0  0  0  0  0  1  0  0  0  0  0  0
  -28.8230  -21.1230   20.2410 C   0  0  0  0  0  2  0  0  0  0  0  0
  -29.5880  -19.8740   19.7590 N   0  0  0  0  0  4  0  0  0  0  0  0
  -30.5250  -19.9750   20.1130 H   0  0  0  0  0  0  0  0  0  0  0  0
  -29.6510  -19.9380   18.7560 H   0  0  0  0  0  0  0  0  0  0  0  0
  -29.1260  -18.4480   20.1200 C   0  0  0  0  0  3  0  0  0  0  0  0
  -30.1360  -17.2140   19.8000 C   0  0  0  0  0  3  0  0  0  0  0  0
  -30.5290  -14.6320   19.9050 C   0  0  0  0  0  0  0  0  0  0  0  0
  -30.3060  -12.3370   18.9550 C   0  0  0  0  0  2  0  0  0  0  0  0
  -29.3010  -12.3680   17.7820 C   0  0  0  0  0  2  0  0  0  0  0  0
  -27.8610  -12.1800   18.2960 C   0  0  0  0  0  2  0  0  0  0  0  0
  -27.5370  -13.0850   19.5150 C   0  0  0  0  0  3  0  0  0  0  0  0
  -28.6580  -13.0430   20.5770 C   0  0  0  0  0  2  0  0  0  0  0  0
  -29.9130  -13.4010   19.9070 N   0  0  0  0  0  0  0  0  0  0  0  0
  -31.6860  -14.7420   19.4930 O   0  0  0  0  0  0  0  0  0  0  0  0
  -29.7670  -15.7660   20.1380 N   0  0  0  0  0  0  0  0  0  0  0  0
  -28.8230  -15.6000   20.4510 H   0  0  0  0  0  0  0  0  0  0  0  0
  -25.2000  -13.6450   20.4110 C   0  0  0  0  0  0  0  0  0  0  0  0
  -24.1630  -12.8570   20.8290 C   0  0  0  0  0  0  0  0  0  0  0  0
  -24.6250  -11.5090   20.7310 C   0  0  0  0  0  0  0  0  0  0  0  0
  -26.2280  -12.7770   20.0840 N   0  0  0  0  0  0  0  0  0  0  0  0
  -25.8950  -11.4850   20.3390 N   0  0  0  0  0  0  0  0  0  0  0  0
  -23.9160  -10.2400   20.9330 C   0  0  0  0  0  0  0  0  0  0  0  0
  -24.3640   -9.2830   21.8720 C   0  0  0  0  0  3  0  0  0  0  0  0
  -23.6540   -8.0790   22.0620 C   0  0  0  0  0  3  0  0  0  0  0  0
  -22.4810   -7.8210   21.3130 C   0  0  0  0  0  0  0  0  0  0  0  0
  -22.0530   -8.7660   20.3630 C   0  0  0  0  0  3  0  0  0  0  0  0
  -22.7630   -9.9620   20.1720 C   0  0  0  0  0  3  0  0  0  0  0  0
  -21.7400   -6.6670   21.4110 O   0  0  0  0  0  0  0  0  0  0  0  0
  -21.6590   -5.9630   22.5850 C   0  0  0  0  0  0  0  0  0  0  0  0
  -21.1600   -6.5440   23.7710 C   0  0  0  0  0  3  0  0  0  0  0  0
  -21.0300   -5.7630   24.9380 C   0  0  0  0  0  3  0  0  0  0  0  0
  -21.3880   -4.4030   24.9180 C   0  0  0  0  0  0  0  0  0  0  0  0
  -21.8800   -3.8200   23.7370 C   0  0  0  0  0  3  0  0  0  0  0  0
  -22.0120   -4.5970   22.5720 C   0  0  0  0  0  0  0  0  0  0  0  0
  -22.4660   -4.0260   21.4310 F   0  0  0  0  0  0  0  0  0  0  0  0
  -21.2550   -3.6500   26.0350 F   0  0  0  0  0  0  0  0  0  0  0  0
  -22.7840  -13.3210   21.2010 C   0  0  0  0  0  0  0  0  0  0  0  0
  -22.1100  -12.5950   22.0850 N   0  0  0  0  0  0  0  0  0  0  0  0
  -22.3150  -14.3620   20.7430 O   0  0  0  0  0  0  0  0  0  0  0  0
  -22.5030  -11.7520   22.4770 H   0  0  0  0  0  0  0  0  0  0  0  0
  -21.1870  -12.8850   22.3750 H   0  0  0  0  0  0  0  0  0  0  0  0
  -25.3470  -15.0200   20.2560 N   0  0  0  0  0  0  0  0  0  0  0  0
  -24.5790  -15.6630   20.4200 H   0  0  0  0  0  0  0  0  0  0  0  0
  -26.1490  -15.4650   19.8300 H   0  0  0  0  0  0  0  0  0  0  0  0
  1  2  1  0
  2  5  1  0
  3  4  2  0
  3  1  1  0
  4  5  1  0
  5  8  1  0
  7  8  1  0
  8  6  1  0
 10 11  1  0
 10  3  1  0
 10  9  1  0
 12 23  2  0
 13 11  1  0
 13 18  1  0
 14 22  1  0
 14 24  1  0
 15 21  1  0
 15 17  1  0
 16 22  1  0
 17 16  1  0
 18 17  2  0
 19 20  1  0
 19 13  2  0
 20 15  2  0
 21 14  1  0
 22 12  1  0
 24 26  2  0
 25 24  1  0
 27 25  1  0
 28 37  2  0
 28 33  1  0
 29 25  1  0
 29 33  1  0
 30 29  1  0
 31 32  1  0
 31 30  1  0
 32 28  1  0
 33 34  2  0
 34 35  1  0
 36 35  2  0
 37 36  1  0
 38 12  1  0
 38 39  1  0
 38 48  1  0
 39 42  1  0
 40 44  1  0
 40 39  1  0
 41 40  2  0
 44 43  1  0
 46 47  1  0
 46 44  1  0
 46 45  1  0
 48 51  1  1
 48 49  1  0
 50 48  1  0
 52  4  1  0
 53 54  1  0
 53 56  1  0
 53 52  1  0
 55 53  1  0
 57 56  2  0
 57 66  1  0
 58 64  1  0
 58 66  1  0
 59 64  1  0
 60 61  1  0
 60 59  1  0
 62 61  1  0
 62 71  1  0
 62 63  1  0
 64 63  1  0
 65 58  2  0
 66 67  1  0
 68 69  2  0
 69 88  1  0
 70 69  1  0
 70 73  1  0
 71 72  1  0
 71 68  1  0
 72 70  2  0
 73 74  1  0
 74 75  2  0
 76 79  1  0
 76 75  1  0
 77 76  2  0
 78 77  1  0
 78 73  2  0
 79 80  1  0
 80 81  1  0
 81 82  2  0
 83 82  1  0
 83 87  1  0
 84 83  2  0
 85 80  2  0
 85 84  1  0
 86 85  1  0
 88 89  1  0
 89 92  1  0
 89 91  1  0
 90 88  2  0
 93 68  1  0
 93 94  1  0
 95 93  1  0
M  ISO  4  10 101  11 101  58 100  66 100
M  END
>  <TORSDO>  (10) 
F 22

>  <SCORE>  (10) 
-12.463

>  <name>  (10) 
9

>  <ligand_id>  (10) 
9

>  <original_smiles>  (10) 
[H]c1c([H])c([H])c2c(c1[H])C([H])([H])C([H])([H])C([H])([H])C2([H])N([H])C(=O)C1([H])N(C(=O)C([H])(N([H])C(=O)C([H])(N([H])C([H])([H])[H])C([H])([H])[H])C(C([H])([H])[H])(C([H])([H])[H])C([H])([H])[H])C([H])([H])c2c([H])c(OC([H])(c3c([H])c([H])n(C([H])(C([H])([H])[H])C([H])([H])[H])c3C([H])([H])[N+]([H])([H])C([H])([H])C([H])([H])N([H])C(=O)N3C([H])([H])C([H])([H])C([H])([H])C([H])(n4nc(-c5c([H])c([H])c(Oc6c([H])c([H])c(F)c([H])c6F)c([H])c5[H])c(C(=O)N([H])[H])c4N([H])[H])C3([H])[H])C([H])([H])[H])c([H])c([H])c2C1([H])[H]

>  <smiles>  (10) 
[H]c1c([H])c([H])c2c(c1[H])C([H])([H])C([H])([H])C([H])([H])C2([H])N([H])C(=O)C1([H])N(C(=O)C([H])(N([H])C(=O)C([H])(N([H])C([H])([H])[H])C([H])([H])[H])C(C([H])([H])[H])(C([H])([H])[H])C([H])([H])[H])C([H])([H])c2c([H])c(OC([H])(c3c([H])c([H])n(C([H])(C([H])([H])[H])C([H])([H])[H])c3C([H])([H])[N+]([H])([H])C([H])([H])C([H])([H])N([H])C(=O)N3C([H])([H])C([H])([H])C([H])([H])C([H])(n4nc(-c5c([H])c([H])c(Oc6c([H])c([H])c(F)c([H])c6F)c([H])c5[H])c(C(=O)N([H])[H])c4N([H])[H])C3([H])[H])C([H])([H])[H])c([H])c([H])c2C1([H])[H]

$$$$
10:0:0
     RDKit          3D

101110  0  0  1  0  0  0  0  0999 V2000
  -29.8400  -19.7530   18.3800 C   0  0  0  0  0  2  0  0  0  0  0  0
  -29.0560  -20.5200   17.3360 C   0  0  0  0  0  2  0  0  0  0  0  0
  -29.1820  -22.6270   18.6450 C   0  0  0  0  0  2  0  0  0  0  0  0
  -29.7830  -20.2220   19.8590 C   0  0  0  0  0  3  0  0  0  0  0  0
  -29.8600  -22.0900   19.9510 C   0  0  0  0  0  3  0  0  0  0  0  0
  -29.4670  -21.9870   17.2760 C   0  0  2  0  0  0  0  0  0  0  0  0
  -28.5750  -22.6510   16.2070 C   0  0  0  0  0  1  0  0  0  0  0  0
  -30.9440  -22.1720   16.8620 C   0  0  0  0  0  1  0  0  0  0  0  0
  -30.7710  -18.8680   20.4710 C   0  0  0  0  0  0  0  0  0  0  0  0
  -31.6730  -19.1220   21.3460 N   0  0  0  0  0  0  0  0  0  0  0  0
  -30.8800  -17.0980   20.2500 C   0  0  0  0  0  3  0  0  0  0  0  0
  -30.3740  -15.9550   19.6320 N   0  0  0  0  0  0  0  0  0  0  0  0
  -30.9610  -14.5280   19.5330 C   0  0  0  0  0  0  0  0  0  0  0  0
  -30.4680  -12.2230   18.4780 C   0  0  0  0  0  2  0  0  0  0  0  0
  -29.4030  -12.3170   17.3570 C   0  0  0  0  0  2  0  0  0  0  0  0
  -27.9840  -12.2080   17.9490 C   0  0  0  0  0  2  0  0  0  0  0  0
  -27.8130  -13.0810   19.2180 C   0  0  0  0  0  3  0  0  0  0  0  0
  -28.9910  -12.9550   20.1990 C   0  0  0  0  0  2  0  0  0  0  0  0
  -30.2080  -13.3250   19.4700 N   0  0  0  0  0  0  0  0  0  0  0  0
  -32.1490  -14.3270   19.2590 O   0  0  0  0  0  0  0  0  0  0  0  0
  -25.6190  -13.8530   20.2600 C   0  0  0  0  0  0  0  0  0  0  0  0
  -24.5270  -13.1830   20.7310 C   0  0  0  0  0  0  0  0  0  0  0  0
  -24.8400  -11.7920   20.6210 C   0  0  0  0  0  0  0  0  0  0  0  0
  -26.5250  -12.8830   19.8740 N   0  0  0  0  0  0  0  0  0  0  0  0
  -26.0760  -11.6310   20.1580 N   0  0  0  0  0  0  0  0  0  0  0  0
  -24.0040  -10.6080   20.8660 C   0  0  0  0  0  0  0  0  0  0  0  0
  -24.3990   -9.5980   21.7700 C   0  0  0  0  0  3  0  0  0  0  0  0
  -23.5670   -8.4830   22.0120 C   0  0  0  0  0  3  0  0  0  0  0  0
  -22.3230   -8.3690   21.3450 C   0  0  0  0  0  0  0  0  0  0  0  0
  -21.9420   -9.3660   20.4320 C   0  0  0  0  0  3  0  0  0  0  0  0
  -22.7720  -10.4720   20.1900 C   0  0  0  0  0  3  0  0  0  0  0  0
  -21.4600   -7.3100   21.4990 O   0  0  0  0  0  0  0  0  0  0  0  0
  -21.3920   -6.5990   22.6680 C   0  0  0  0  0  0  0  0  0  0  0  0
  -21.1240   -7.2240   23.9050 C   0  0  0  0  0  3  0  0  0  0  0  0
  -20.9930   -6.4450   25.0720 C   0  0  0  0  0  3  0  0  0  0  0  0
  -21.1170   -5.0440   25.0020 C   0  0  0  0  0  0  0  0  0  0  0  0
  -21.3790   -4.4200   23.7700 C   0  0  0  0  0  3  0  0  0  0  0  0
  -21.5120   -5.1970   22.6060 C   0  0  0  0  0  0  0  0  0  0  0  0
  -21.7400   -4.5900   21.4180 F   0  0  0  0  0  0  0  0  0  0  0  0
  -20.9850   -4.2940   26.1230 F   0  0  0  0  0  0  0  0  0  0  0  0
  -23.2290  -13.7990   21.1600 C   0  0  0  0  0  0  0  0  0  0  0  0
  -22.5550  -13.1980   22.1350 N   0  0  0  0  0  0  0  0  0  0  0  0
  -22.8280  -14.8490   20.6620 O   0  0  0  0  0  0  0  0  0  0  0  0
  -22.8900  -12.3440   22.5540 H   0  0  0  0  0  0  0  0  0  0  0  0
  -21.6900  -13.6000   22.4670 H   0  0  0  0  0  0  0  0  0  0  0  0
  -25.9100  -15.2040   20.0980 N   0  0  0  0  0  0  0  0  0  0  0  0
  -25.2360  -15.9270   20.3140 H   0  0  0  0  0  0  0  0  0  0  0  0
  -26.7660  -15.5600   19.6930 H   0  0  0  0  0  0  0  0  0  0  0  0
  -31.8570  -20.3780   22.0400 C   0  0  0  0  0  2  0  0  0  0  0  0
  -32.1230  -22.1720   24.8660 C   0  0  0  0  0  2  0  0  0  0  0  0
  -33.0880  -21.2540   24.1290 C   0  0  0  0  0  2  0  0  0  0  0  0
  -31.1180  -21.1750   25.4240 C   0  0  0  0  0  2  0  0  0  0  0  0
  -32.1980  -20.1420   23.5450 C   0  0  0  0  0  3  0  0  0  0  0  0
  -30.9620  -20.1190   24.3910 N   0  0  1  0  0  4  0  0  0  0  0  0
  -30.2270  -20.4250   23.7740 H   0  0  0  0  0  0  0  0  0  0  0  0
  -30.5970  -17.6530   23.9310 C   0  0  0  0  0  1  0  0  0  0  0  0
  -29.0830  -18.8810   25.5090 C   0  0  0  0  0  1  0  0  0  0  0  0
  -30.5260  -18.8020   24.9570 C   0  0  0  0  0  3  0  0  0  0  0  0
  -29.5410  -23.2570   22.4360 C   0  0  0  0  0  1  0  0  0  0  0  0
  -29.1990  -23.4760   20.9510 C   0  0  0  0  0  3  0  0  0  0  0  0
  -29.3530  -25.1330   20.8390 O   0  0  0  0  0  0  0  0  0  0  0  0
  -24.9490  -30.8050   23.2920 C   0  0  0  0  0  0  0  0  0  0  0  0
  -28.2840  -26.1690   20.6700 C   0  0  0  0  0  0  0  0  0  0  0  0
  -24.1410  -29.3770   21.4620 C   0  0  0  0  0  3  0  0  0  0  0  0
  -25.9080  -27.9100   20.2680 C   0  0  0  0  0  0  0  0  0  0  0  0
  -26.6740  -29.7600   21.7420 C   0  0  0  0  0  2  0  0  0  0  0  0
  -26.9480  -28.3720   21.0870 C   0  0  0  0  0  0  0  0  0  0  0  0
  -28.1320  -27.5220   21.2640 C   0  0  0  0  0  3  0  0  0  0  0  0
  -27.2130  -25.8670   19.8020 C   0  0  0  0  0  3  0  0  0  0  0  0
  -26.0660  -26.6820   19.6120 C   0  0  0  0  0  3  0  0  0  0  0  0
  -24.6380  -28.7510   20.1310 C   0  0  0  0  0  2  0  0  0  0  0  0
  -25.2660  -30.0070   22.2230 N   0  0  0  0  0  0  0  0  0  0  0  0
  -23.7710  -31.0070   23.6310 O   0  0  0  0  0  0  0  0  0  0  0  0
  -23.3770  -28.3070   22.2870 C   0  0  0  0  0  0  0  0  0  0  0  0
  -22.1570  -27.9420   21.8520 N   0  0  0  0  0  0  0  0  0  0  0  0
  -23.8970  -27.8090   23.2870 O   0  0  0  0  0  0  0  0  0  0  0  0
  -21.7790  -28.4040   21.0360 H   0  0  0  0  0  0  0  0  0  0  0  0
  -19.0440  -26.1250   21.4730 C   0  0  0  0  0  0  0  0  0  0  0  0
  -21.3130  -26.9010   22.4480 C   0  0  0  0  0  3  0  0  0  0  0  0
  -21.8350  -25.4890   22.0890 C   0  0  0  0  0  2  0  0  0  0  0  0
  -21.1710  -24.9020   20.8420 C   0  0  0  0  0  2  0  0  0  0  0  0
  -19.6540  -24.8050   21.0290 C   0  0  0  0  0  2  0  0  0  0  0  0
  -19.8280  -27.1140   22.1260 C   0  0  0  0  0  0  0  0  0  0  0  0
  -19.2230  -28.3360   22.4930 C   0  0  0  0  0  3  0  0  0  0  0  0
  -17.8650  -28.5790   22.2150 C   0  0  0  0  0  3  0  0  0  0  0  0
  -17.0890  -27.5910   21.5820 C   0  0  0  0  0  3  0  0  0  0  0  0
  -17.6780  -26.3660   21.2180 C   0  0  0  0  0  3  0  0  0  0  0  0
  -26.0510  -31.5160   24.1320 C   0  0  0  0  0  3  0  0  0  0  0  0
  -25.7150  -32.9460   24.2060 N   0  0  0  0  0  0  0  0  0  0  0  0
  -26.2740  -33.9070   23.4560 C   0  0  0  0  0  0  0  0  0  0  0  0
  -27.1840  -33.6780   22.6550 O   0  0  0  0  0  0  0  0  0  0  0  0
  -24.9350  -33.1960   24.7970 H   0  0  0  0  0  0  0  0  0  0  0  0
  -24.7840  -35.6750   22.4610 C   0  0  0  0  0  1  0  0  0  0  0  0
  -25.7410  -35.3450   23.6170 C   0  0  0  0  0  3  0  0  0  0  0  0
  -27.6090  -36.2850   24.9060 C   0  0  0  0  0  1  0  0  0  0  0  0
  -26.8120  -36.3650   23.6860 N   0  0  0  0  0  0  0  0  0  0  0  0
  -26.4190  -37.3010   23.6280 H   0  0  0  0  0  0  0  0  0  0  0  0
  -26.1970  -30.9170   25.5850 C   0  0  1  0  0  0  0  0  0  0  0  0
  -24.8610  -30.8450   26.3630 C   0  0  0  0  0  1  0  0  0  0  0  0
  -26.7880  -29.4900   25.5390 C   0  0  0  0  0  1  0  0  0  0  0  0
  -27.1880  -31.7750   26.4090 C   0  0  0  0  0  1  0  0  0  0  0  0
  1  4  1  0
  2  1  1  0
  3  5  1  0
  4  5  1  0
  4  9  1  0
  5 60  1  0
  6  2  1  0
  6  3  1  0
  6  7  1  6
  8  6  1  0
  9 10  2  0
 10 49  1  0
 11  9  1  0
 12 11  2  0
 13 12  1  0
 14 19  1  0
 15 16  1  0
 15 14  1  0
 17 16  1  0
 17 24  1  0
 17 18  1  0
 19 13  1  0
 19 18  1  0
 20 13  2  0
 21 22  2  0
 22 41  1  0
 23 22  1  0
 23 26  1  0
 24 25  1  0
 24 21  1  0
 25 23  2  0
 26 27  1  0
 27 28  2  0
 29 32  1  0
 29 28  1  0
 30 29  2  0
 31 30  1  0
 31 26  2  0
 32 33  1  0
 33 34  1  0
 34 35  2  0
 36 35  1  0
 36 40  1  0
 37 36  2  0
 38 33  2  0
 38 37  1  0
 39 38  1  0
 41 42  1  0
 42 45  1  0
 42 44  1  0
 43 41  2  0
 46 21  1  0
 46 47  1  0
 48 46  1  0
 50 52  1  0
 51 50  1  0
 53 49  1  0
 53 51  1  0
 53 54  1  0
 54 58  1  0
 54 52  1  0
 54 55  1  6
 56 58  1  0
 58 57  1  0
 60 59  1  0
 61 60  1  0
 62 73  2  0
 63 61  1  0
 63 68  1  0
 64 72  1  0
 64 74  1  0
 65 67  1  0
 66 72  1  0
 67 68  2  0
 67 66  1  0
 69 63  2  0
 70 69  1  0
 70 65  2  0
 71 65  1  0
 71 64  1  0
 72 62  1  0
 74 76  2  0
 75 74  1  0
 77 75  1  0
 78 83  1  0
 79 75  1  0
 80 79  1  0
 81 82  1  0
 81 80  1  0
 82 78  1  0
 83 79  1  0
 83 84  2  0
 85 84  1  0
 86 85  2  0
 87 78  2  0
 87 86  1  0
 88 62  1  0
 88 89  1  0
 88 98  1  0
 89 92  1  0
 90 94  1  0
 90 89  1  0
 91 90  2  0
 94 93  1  0
 94 96  1  0
 96 95  1  0
 97 96  1  0
 98 99  1  1
 98101  1  0
100 98  1  0
M  ISO  4  12 100  13 100  60 101  61 101
M  END
>  <TORSDO>  (11) 
F 22

>  <SCORE>  (11) 
-3.670

>  <name>  (11) 
10

>  <ligand_id>  (11) 
10

>  <original_smiles>  (11) 
[H]C(=NC(=O)N1C([H])([H])C([H])([H])C([H])([H])C([H])(n2nc(-c3c([H])c([H])c(Oc4c([H])c([H])c(F)c([H])c4F)c([H])c3[H])c(C(=O)N([H])[H])c2N([H])[H])C1([H])[H])C(=NC([H])([H])C1([H])C([H])([H])C([H])([H])C([H])([H])[N+]1([H])C([H])(C([H])([H])[H])C([H])([H])[H])C1([H])C([H])([H])C([H])([H])C(C([H])([H])[H])(C([H])([H])[H])C([H])([H])C1([H])C([H])(Oc1c([H])c([H])c2c(c1[H])C([H])([H])N(C(=O)C([H])(N([H])C(=O)C([H])(N([H])C([H])([H])[H])C([H])([H])[H])C(C([H])([H])[H])(C([H])([H])[H])C([H])([H])[H])C([H])(C(=O)N([H])C1([H])c3c([H])c([H])c([H])c([H])c3C([H])([H])C([H])([H])C1([H])[H])C2([H])[H])C([H])([H])[H]

>  <smiles>  (11) 
[H]C(=NC(=O)N1C([H])([H])C([H])([H])C([H])([H])C([H])(n2nc(-c3c([H])c([H])c(Oc4c([H])c([H])c(F)c([H])c4F)c([H])c3[H])c(C(=O)N([H])[H])c2N([H])[H])C1([H])[H])C(=NC([H])([H])C1([H])C([H])([H])C([H])([H])C([H])([H])[N+]1([H])C([H])(C([H])([H])[H])C([H])([H])[H])C1([H])C([H])([H])C([H])([H])C(C([H])([H])[H])(C([H])([H])[H])C([H])([H])C1([H])C([H])(Oc1c([H])c([H])c2c(c1[H])C([H])([H])N(C(=O)C([H])(N([H])C(=O)C([H])(N([H])C([H])([H])[H])C([H])([H])[H])C(C([H])([H])[H])(C([H])([H])[H])C([H])([H])[H])C([H])(C(=O)N([H])C1([H])c3c([H])c([H])c([H])c([H])c3C([H])([H])C([H])([H])C1([H])[H])C2([H])[H])C([H])([H])[H]

$$$$
11:0:0
     RDKit          3D

 95103  0  0  1  0  0  0  0  0999 V2000
  -29.0900  -22.1390   21.1290 C   0  0  0  0  0  3  0  0  0  0  0  0
  -29.1050  -19.8320   19.5240 C   0  0  0  0  0  2  0  0  0  0  0  0
  -30.7450  -19.8360   21.4870 C   0  0  0  0  0  2  0  0  0  0  0  0
  -28.8840  -18.2810   19.8270 C   0  0  0  0  0  2  0  0  0  0  0  0
  -30.3800  -18.3040   21.7140 C   0  0  0  0  0  2  0  0  0  0  0  0
  -29.8490  -20.7770   20.5540 C   0  0  0  0  0  3  0  0  0  0  0  0
  -30.0880  -17.4660   20.4280 C   0  0  0  0  0  3  0  0  0  0  0  0
  -30.5840  -14.8240   20.3200 C   0  0  0  0  0  0  0  0  0  0  0  0
  -30.3770  -12.5480   19.2840 C   0  0  0  0  0  2  0  0  0  0  0  0
  -29.4230  -12.6150   18.0700 C   0  0  0  0  0  2  0  0  0  0  0  0
  -27.9590  -12.4270   18.5150 C   0  0  0  0  0  2  0  0  0  0  0  0
  -27.5970  -13.3070   19.7400 C   0  0  0  0  0  3  0  0  0  0  0  0
  -28.6680  -13.2210   20.8520 C   0  0  0  0  0  2  0  0  0  0  0  0
  -29.9560  -13.5940   20.2500 N   0  0  0  0  0  0  0  0  0  0  0  0
  -31.7510  -14.9290   19.9370 O   0  0  0  0  0  0  0  0  0  0  0  0
  -29.8270  -15.9540   20.6260 N   0  0  0  0  0  0  0  0  0  0  0  0
  -28.8910  -15.7310   20.9270 H   0  0  0  0  0  0  0  0  0  0  0  0
  -25.2120  -13.8860   20.4840 C   0  0  0  0  0  0  0  0  0  0  0  0
  -24.1530  -13.1080   20.8650 C   0  0  0  0  0  0  0  0  0  0  0  0
  -24.6230  -11.7590   20.8330 C   0  0  0  0  0  0  0  0  0  0  0  0
  -26.2580  -13.0120   20.2410 N   0  0  0  0  0  0  0  0  0  0  0  0
  -25.9120  -11.7270   20.5160 N   0  0  0  0  0  0  0  0  0  0  0  0
  -23.9060  -10.4930   21.0330 C   0  0  0  0  0  0  0  0  0  0  0  0
  -24.3440   -9.5300   21.9680 C   0  0  0  0  0  3  0  0  0  0  0  0
  -23.6220   -8.3320   22.1540 C   0  0  0  0  0  3  0  0  0  0  0  0
  -22.4470   -8.0870   21.4030 C   0  0  0  0  0  0  0  0  0  0  0  0
  -22.0290   -9.0370   20.4550 C   0  0  0  0  0  3  0  0  0  0  0  0
  -22.7530  -10.2270   20.2670 C   0  0  0  0  0  3  0  0  0  0  0  0
  -21.6960   -6.9400   21.4990 O   0  0  0  0  0  0  0  0  0  0  0  0
  -21.6490   -6.2050   22.6570 C   0  0  0  0  0  0  0  0  0  0  0  0
  -21.2030   -6.7630   23.8750 C   0  0  0  0  0  3  0  0  0  0  0  0
  -21.1020   -5.9540   25.0250 C   0  0  0  0  0  3  0  0  0  0  0  0
  -21.4390   -4.5880   24.9560 C   0  0  0  0  0  0  0  0  0  0  0  0
  -21.8770   -4.0310   23.7430 C   0  0  0  0  0  3  0  0  0  0  0  0
  -21.9790   -4.8370   22.5950 C   0  0  0  0  0  0  0  0  0  0  0  0
  -22.3820   -4.2900   21.4240 F   0  0  0  0  0  0  0  0  0  0  0  0
  -21.3360   -3.8090   26.0570 F   0  0  0  0  0  0  0  0  0  0  0  0
  -22.7560  -13.5780   21.1480 C   0  0  0  0  0  0  0  0  0  0  0  0
  -22.0390  -12.8780   22.0190 N   0  0  0  0  0  0  0  0  0  0  0  0
  -22.3110  -14.6030   20.6320 O   0  0  0  0  0  0  0  0  0  0  0  0
  -22.4150  -12.0490   22.4550 H   0  0  0  0  0  0  0  0  0  0  0  0
  -21.1010  -13.1730   22.2510 H   0  0  0  0  0  0  0  0  0  0  0  0
  -25.3680  -15.2560   20.2970 N   0  0  0  0  0  0  0  0  0  0  0  0
  -24.5950  -15.9050   20.3950 H   0  0  0  0  0  0  0  0  0  0  0  0
  -26.2030  -15.6920   19.9250 H   0  0  0  0  0  0  0  0  0  0  0  0
  -29.3590  -22.2730   22.5770 N   0  0  0  0  0  4  0  0  0  0  0  0
  -30.3300  -22.4670   22.7450 H   0  0  0  0  0  0  0  0  0  0  0  0
  -29.1220  -21.4230   23.0590 H   0  0  0  0  0  0  0  0  0  0  0  0
  -28.8170  -23.0080   22.9930 H   0  0  0  0  0  0  0  0  0  0  0  0
  -30.6700  -24.1650   20.5450 C   0  0  0  0  0  1  0  0  0  0  0  0
  -29.2250  -23.6430   20.4220 C   0  0  0  0  0  3  0  0  0  0  0  0
  -28.1730  -24.8740   20.7960 C   0  0  0  0  0  3  0  0  0  0  0  0
  -26.3550  -23.5750   19.4390 C   0  0  0  0  0  1  0  0  0  0  0  0
  -26.7390  -24.2750   20.7630 C   0  0  0  0  0  2  0  0  0  0  0  0
  -28.3070  -26.3050   20.2300 O   0  0  0  0  0  0  0  0  0  0  0  0
  -24.6050  -31.8800   23.2410 C   0  0  0  0  0  0  0  0  0  0  0  0
  -27.2320  -27.2520   20.2080 C   0  0  0  0  0  0  0  0  0  0  0  0
  -23.4180  -30.4860   21.5910 C   0  0  0  0  0  3  0  0  0  0  0  0
  -24.8850  -28.9450   20.1670 C   0  0  0  0  0  0  0  0  0  0  0  0
  -25.9720  -30.7780   21.4470 C   0  0  0  0  0  2  0  0  0  0  0  0
  -26.0560  -29.4000   20.7890 C   0  0  0  0  0  0  0  0  0  0  0  0
  -27.2290  -28.5660   20.8040 C   0  0  0  0  0  3  0  0  0  0  0  0
  -26.0620  -26.9250   19.4900 C   0  0  0  0  0  3  0  0  0  0  0  0
  -24.9000  -27.7130   19.5030 C   0  0  0  0  0  3  0  0  0  0  0  0
  -23.6460  -29.8190   20.2130 C   0  0  0  0  0  2  0  0  0  0  0  0
  -24.6830  -31.0710   22.1460 N   0  0  0  0  0  0  0  0  0  0  0  0
  -23.5160  -32.1580   23.7670 O   0  0  0  0  0  0  0  0  0  0  0  0
  -22.7460  -29.4660   22.5440 C   0  0  0  0  0  0  0  0  0  0  0  0
  -21.4190  -29.2920   22.4130 N   0  0  0  0  0  0  0  0  0  0  0  0
  -23.4190  -28.8370   23.3630 O   0  0  0  0  0  0  0  0  0  0  0  0
  -20.9340  -29.8560   21.7290 H   0  0  0  0  0  0  0  0  0  0  0  0
  -18.0360  -28.1020   22.8990 C   0  0  0  0  0  0  0  0  0  0  0  0
  -20.5950  -28.3520   23.1750 C   0  0  0  0  0  3  0  0  0  0  0  0
  -20.6940  -26.9240   22.5900 C   0  0  0  0  0  2  0  0  0  0  0  0
  -19.5920  -26.6130   21.5710 C   0  0  0  0  0  2  0  0  0  0  0  0
  -18.2090  -26.7580   22.2140 C   0  0  0  0  0  2  0  0  0  0  0  0
  -19.1570  -28.8580   23.3340 C   0  0  0  0  0  0  0  0  0  0  0  0
  -18.9420  -30.1170   23.9360 C   0  0  0  0  0  3  0  0  0  0  0  0
  -17.6380  -30.6220   24.1020 C   0  0  0  0  0  3  0  0  0  0  0  0
  -16.5310  -29.8610   23.6860 C   0  0  0  0  0  3  0  0  0  0  0  0
  -16.7310  -28.6030   23.0900 C   0  0  0  0  0  3  0  0  0  0  0  0
  -25.8800  -32.5160   23.8720 C   0  0  0  0  0  3  0  0  0  0  0  0
  -25.5660  -33.9180   24.1900 N   0  0  0  0  0  0  0  0  0  0  0  0
  -25.9070  -34.9670   23.4320 C   0  0  0  0  0  0  0  0  0  0  0  0
  -26.5830  -34.8570   22.4060 O   0  0  0  0  0  0  0  0  0  0  0  0
  -24.9590  -34.0770   24.9810 H   0  0  0  0  0  0  0  0  0  0  0  0
  -24.1830  -36.7660   23.0660 C   0  0  0  0  0  1  0  0  0  0  0  0
  -25.4210  -36.3600   23.8810 C   0  0  0  0  0  3  0  0  0  0  0  0
  -27.5530  -37.2500   24.7140 C   0  0  0  0  0  1  0  0  0  0  0  0
  -26.4560  -37.4090   23.7640 N   0  0  0  0  0  0  0  0  0  0  0  0
  -26.0510  -38.3320   23.8970 H   0  0  0  0  0  0  0  0  0  0  0  0
  -26.3790  -31.7520   25.1610 C   0  0  1  0  0  0  0  0  0  0  0  0
  -25.2720  -31.5230   26.2170 C   0  0  0  0  0  1  0  0  0  0  0  0
  -26.9670  -30.3700   24.7930 C   0  0  0  0  0  1  0  0  0  0  0  0
  -27.5200  -32.5530   25.8310 C   0  0  0  0  0  1  0  0  0  0  0  0
  1 46  1  0
  2  4  1  0
  2  6  1  0
  3  5  1  0
  4  7  1  0
  6  1  1  0
  6  3  1  0
  7 16  1  0
  7  5  1  0
  8 16  1  0
  9 14  1  0
 10 11  1  0
 10  9  1  0
 12 11  1  0
 12 21  1  0
 12 13  1  0
 14  8  1  0
 14 13  1  0
 15  8  2  0
 16 17  1  0
 18 19  2  0
 19 38  1  0
 20 19  1  0
 20 23  1  0
 21 18  1  0
 21 22  1  0
 22 20  2  0
 23 24  1  0
 24 25  2  0
 26 29  1  0
 26 25  1  0
 27 26  2  0
 28 27  1  0
 28 23  2  0
 29 30  1  0
 30 31  1  0
 31 32  2  0
 33 32  1  0
 33 37  1  0
 34 33  2  0
 35 30  2  0
 35 34  1  0
 36 35  1  0
 38 39  1  0
 39 42  1  0
 39 41  1  0
 40 38  2  0
 43 44  1  0
 43 18  1  0
 45 43  1  0
 46 47  1  0
 46 49  1  0
 46 48  1  0
 51 50  1  0
 51 52  1  0
 51  1  1  0
 52 54  1  0
 53 54  1  0
 55 52  1  0
 56 67  2  0
 57 55  1  0
 57 62  1  0
 58 66  1  0
 58 68  1  0
 59 65  1  0
 59 61  1  0
 60 66  1  0
 61 62  2  0
 61 60  1  0
 63 64  1  0
 63 57  2  0
 64 59  2  0
 65 58  1  0
 66 56  1  0
 68 70  2  0
 69 68  1  0
 71 69  1  0
 72 81  2  0
 72 77  1  0
 73 69  1  0
 73 77  1  0
 74 73  1  0
 75 76  1  0
 75 74  1  0
 76 72  1  0
 77 78  2  0
 78 79  1  0
 80 79  2  0
 81 80  1  0
 82 56  1  0
 82 83  1  0
 82 92  1  0
 83 86  1  0
 84 88  1  0
 84 83  1  0
 85 84  2  0
 88 87  1  0
 90 88  1  0
 90 91  1  0
 90 89  1  0
 92 95  1  1
 92 93  1  0
 94 92  1  0
M  ISO  4   8 100  16 100  52 101  55 101
M  END
>  <TORSDO>  (12) 
F 21

>  <SCORE>  (12) 
-13.957

>  <name>  (12) 
11

>  <ligand_id>  (12) 
11

>  <original_smiles>  (12) 
[H]c1c([H])c([H])c2c(c1[H])C([H])([H])C([H])([H])C([H])([H])C2([H])N([H])C(=O)C1([H])N(C(=O)C([H])(N([H])C(=O)C([H])(N([H])C([H])([H])[H])C([H])([H])[H])C(C([H])([H])[H])(C([H])([H])[H])C([H])([H])[H])C([H])([H])c2c([H])c(OC([H])(C([H])([H])C([H])([H])[H])C([H])(C([H])([H])[H])C([H])(C3([H])C([H])([H])C([H])([H])C([H])(N([H])C(=O)N4C([H])([H])C([H])([H])C([H])([H])C([H])(n5nc(-c6c([H])c([H])c(Oc7c([H])c([H])c(F)c([H])c7F)c([H])c6[H])c(C(=O)N([H])[H])c5N([H])[H])C4([H])[H])C([H])([H])C3([H])[H])[N+]([H])([H])[H])c([H])c([H])c2C1([H])[H]

>  <smiles>  (12) 
[H]c1c([H])c([H])c2c(c1[H])C([H])([H])C([H])([H])C([H])([H])C2([H])N([H])C(=O)C1([H])N(C(=O)C([H])(N([H])C(=O)C([H])(N([H])C([H])([H])[H])C([H])([H])[H])C(C([H])([H])[H])(C([H])([H])[H])C([H])([H])[H])C([H])([H])c2c([H])c(OC([H])(C([H])([H])C([H])([H])[H])C([H])(C([H])([H])[H])C([H])(C3([H])C([H])([H])C([H])([H])C([H])(N([H])C(=O)N4C([H])([H])C([H])([H])C([H])([H])C([H])(n5nc(-c6c([H])c([H])c(Oc7c([H])c([H])c(F)c([H])c7F)c([H])c6[H])c(C(=O)N([H])[H])c5N([H])[H])C4([H])[H])C([H])([H])C3([H])[H])[N+]([H])([H])[H])c([H])c([H])c2C1([H])[H]

$$$$
12:0:0
     RDKit          3D

 95103  0  0  1  0  0  0  0  0999 V2000
  -29.4210  -20.3020   21.3210 C   0  0  0  0  0  3  0  0  0  0  0  0
  -29.8510  -18.9600   21.1090 C   0  0  0  0  0  0  0  0  0  0  0  0
  -29.9880  -18.4650   19.7780 C   0  0  0  0  0  0  0  0  0  0  0  0
  -29.1500  -21.1620   20.2330 C   0  0  0  0  0  0  0  0  0  0  0  0
  -29.7740  -19.4430   18.7420 C   0  0  0  0  0  0  0  0  0  0  0  0
  -30.1590  -18.0990   22.3220 C   0  0  0  0  0  1  0  0  0  0  0  0
  -29.3370  -20.7110   18.9800 N   0  0  0  0  0  0  0  0  0  0  0  0
  -30.4020  -20.3540   16.4120 C   0  0  0  0  0  1  0  0  0  0  0  0
  -29.9030  -19.1510   17.2310 C   0  0  2  0  0  0  0  0  0  0  0  0
  -28.7120  -18.7730   16.7600 F   0  0  0  0  0  0  0  0  0  0  0  0
  -30.7920  -18.2000   16.9450 F   0  0  0  0  0  0  0  0  0  0  0  0
  -30.4150  -16.9940   19.3960 C   0  0  0  0  0  2  0  0  0  0  0  0
  -30.8180  -14.5940   19.9660 C   0  0  0  0  0  0  0  0  0  0  0  0
  -30.4780  -12.3760   18.9400 C   0  0  0  0  0  2  0  0  0  0  0  0
  -29.4740  -12.5130   17.7770 C   0  0  0  0  0  2  0  0  0  0  0  0
  -28.0290  -12.3660   18.2910 C   0  0  0  0  0  2  0  0  0  0  0  0
  -27.7430  -13.2360   19.5490 C   0  0  0  0  0  3  0  0  0  0  0  0
  -28.8650  -13.0970   20.6020 C   0  0  0  0  0  2  0  0  0  0  0  0
  -30.1410  -13.4050   19.9420 N   0  0  0  0  0  0  0  0  0  0  0  0
  -31.9740  -14.6680   19.5480 O   0  0  0  0  0  0  0  0  0  0  0  0
  -30.0990  -15.7410   20.1630 N   0  0  0  0  0  0  0  0  0  0  0  0
  -29.1570  -15.6350   20.5070 H   0  0  0  0  0  0  0  0  0  0  0  0
  -25.4060  -13.8220   20.4510 C   0  0  0  0  0  0  0  0  0  0  0  0
  -24.3610  -13.0410   20.8630 C   0  0  0  0  0  0  0  0  0  0  0  0
  -24.8070  -11.6880   20.7460 C   0  0  0  0  0  0  0  0  0  0  0  0
  -26.4270  -12.9450   20.1150 N   0  0  0  0  0  0  0  0  0  0  0  0
  -26.0730  -11.6550   20.3540 N   0  0  0  0  0  0  0  0  0  0  0  0
  -24.0840  -10.4230   20.9300 C   0  0  0  0  0  0  0  0  0  0  0  0
  -24.4780   -9.4820   21.9040 C   0  0  0  0  0  3  0  0  0  0  0  0
  -23.7530   -8.2830   22.0770 C   0  0  0  0  0  3  0  0  0  0  0  0
  -22.6180   -8.0160   21.2740 C   0  0  0  0  0  0  0  0  0  0  0  0
  -22.2440   -8.9460   20.2870 C   0  0  0  0  0  3  0  0  0  0  0  0
  -22.9710  -10.1350   20.1150 C   0  0  0  0  0  3  0  0  0  0  0  0
  -21.8700   -6.8650   21.3550 O   0  0  0  0  0  0  0  0  0  0  0  0
  -21.6550   -6.2280   22.5530 C   0  0  0  0  0  0  0  0  0  0  0  0
  -20.9920   -6.8630   23.6270 C   0  0  0  0  0  3  0  0  0  0  0  0
  -20.7300   -6.1490   24.8140 C   0  0  0  0  0  3  0  0  0  0  0  0
  -21.1220   -4.8000   24.9240 C   0  0  0  0  0  0  0  0  0  0  0  0
  -21.7760   -4.1660   23.8540 C   0  0  0  0  0  3  0  0  0  0  0  0
  -22.0380   -4.8790   22.6700 C   0  0  0  0  0  0  0  0  0  0  0  0
  -22.6500   -4.2580   21.6320 F   0  0  0  0  0  0  0  0  0  0  0  0
  -20.8650   -4.1100   26.0590 F   0  0  0  0  0  0  0  0  0  0  0  0
  -22.9870  -13.5110   21.2460 C   0  0  0  0  0  0  0  0  0  0  0  0
  -22.3160  -12.7860   22.1340 N   0  0  0  0  0  0  0  0  0  0  0  0
  -22.5200  -14.5550   20.7920 O   0  0  0  0  0  0  0  0  0  0  0  0
  -22.7090  -11.9430   22.5260 H   0  0  0  0  0  0  0  0  0  0  0  0
  -21.3930  -13.0770   22.4260 H   0  0  0  0  0  0  0  0  0  0  0  0
  -25.5690  -15.1980   20.3090 N   0  0  0  0  0  0  0  0  0  0  0  0
  -24.8260  -15.8590   20.5110 H   0  0  0  0  0  0  0  0  0  0  0  0
  -26.3860  -15.6400   19.9080 H   0  0  0  0  0  0  0  0  0  0  0  0
  -28.4040  -22.5250   20.3820 C   0  0  0  0  0  2  0  0  0  0  0  0
  -29.1380  -23.9180   20.2150 C   0  0  0  0  0  2  0  0  0  0  0  0
  -28.2440  -24.9870   18.0860 C   0  0  0  0  0  1  0  0  0  0  0  0
  -28.1880  -25.0460   19.6280 C   0  0  0  0  0  3  0  0  0  0  0  0
  -28.3400  -26.4600   20.0280 O   0  0  0  0  0  0  0  0  0  0  0  0
  -24.5610  -31.7420   23.1680 C   0  0  0  0  0  0  0  0  0  0  0  0
  -27.2000  -27.2880   19.9990 C   0  0  0  0  0  0  0  0  0  0  0  0
  -23.3630  -30.3700   21.5060 C   0  0  0  0  0  3  0  0  0  0  0  0
  -24.8180  -28.8800   20.0400 C   0  0  0  0  0  0  0  0  0  0  0  0
  -25.9030  -30.7160   21.3240 C   0  0  0  0  0  2  0  0  0  0  0  0
  -25.9880  -29.3600   20.6400 C   0  0  0  0  0  0  0  0  0  0  0  0
  -27.1830  -28.5800   20.6070 C   0  0  0  0  0  3  0  0  0  0  0  0
  -25.9920  -26.8630   19.3890 C   0  0  0  0  0  3  0  0  0  0  0  0
  -24.8230  -27.6350   19.4040 C   0  0  0  0  0  3  0  0  0  0  0  0
  -23.5770  -29.7430   20.1080 C   0  0  0  0  0  2  0  0  0  0  0  0
  -24.6270  -30.9580   22.0550 N   0  0  0  0  0  0  0  0  0  0  0  0
  -23.4760  -31.9950   23.7130 O   0  0  0  0  0  0  0  0  0  0  0  0
  -22.7210  -29.3160   22.4400 C   0  0  0  0  0  0  0  0  0  0  0  0
  -21.4000  -29.1070   22.2990 N   0  0  0  0  0  0  0  0  0  0  0  0
  -23.4090  -28.6920   23.2520 O   0  0  0  0  0  0  0  0  0  0  0  0
  -20.9030  -29.6720   21.6240 H   0  0  0  0  0  0  0  0  0  0  0  0
  -18.0460  -27.8400   22.7600 C   0  0  0  0  0  0  0  0  0  0  0  0
  -20.5960  -28.1450   23.0520 C   0  0  0  0  0  3  0  0  0  0  0  0
  -20.7280  -26.7210   22.4610 C   0  0  0  0  0  2  0  0  0  0  0  0
  -19.6400  -26.3890   21.4340 C   0  0  0  0  0  2  0  0  0  0  0  0
  -18.2520  -26.5010   22.0700 C   0  0  0  0  0  2  0  0  0  0  0  0
  -19.1450  -28.6190   23.2070 C   0  0  0  0  0  0  0  0  0  0  0  0
  -18.8980  -29.8720   23.8090 C   0  0  0  0  0  3  0  0  0  0  0  0
  -17.5820  -30.3430   23.9730 C   0  0  0  0  0  3  0  0  0  0  0  0
  -16.4960  -29.5610   23.5400 C   0  0  0  0  0  3  0  0  0  0  0  0
  -16.7300  -28.3120   22.9390 C   0  0  0  0  0  3  0  0  0  0  0  0
  -25.8410  -32.3740   23.7950 C   0  0  0  0  0  3  0  0  0  0  0  0
  -25.5120  -33.7600   24.1580 N   0  0  0  0  0  0  0  0  0  0  0  0
  -25.8270  -34.8340   23.4220 C   0  0  0  0  0  0  0  0  0  0  0  0
  -26.4950  -34.7660   22.3880 O   0  0  0  0  0  0  0  0  0  0  0  0
  -24.9160  -33.8860   24.9610 H   0  0  0  0  0  0  0  0  0  0  0  0
  -24.0820  -36.6220   23.1040 C   0  0  0  0  0  1  0  0  0  0  0  0
  -25.3190  -36.2040   23.9150 C   0  0  0  0  0  3  0  0  0  0  0  0
  -27.4290  -37.0930   24.8010 C   0  0  0  0  0  1  0  0  0  0  0  0
  -26.3390  -37.2710   23.8450 N   0  0  0  0  0  0  0  0  0  0  0  0
  -25.9180  -38.1810   24.0120 H   0  0  0  0  0  0  0  0  0  0  0  0
  -26.3710  -31.5840   25.0560 C   0  0  1  0  0  0  0  0  0  0  0  0
  -25.2820  -31.3010   26.1150 C   0  0  0  0  0  1  0  0  0  0  0  0
  -26.9870  -30.2290   24.6380 C   0  0  0  0  0  1  0  0  0  0  0  0
  -27.5050  -32.3880   25.7370 C   0  0  0  0  0  1  0  0  0  0  0  0
  2  1  1  0
  2  6  1  0
  3  2  2  0
  4 51  1  0
  4  1  2  0
  5  7  2  0
  5  3  1  0
  7  4  1  0
  9  8  1  6
  9  5  1  0
 10  9  1  0
 11  9  1  0
 12  3  1  0
 12 21  1  0
 13 21  1  0
 14 19  1  0
 15 16  1  0
 15 14  1  0
 17 16  1  0
 17 26  1  0
 17 18  1  0
 19 13  1  0
 19 18  1  0
 20 13  2  0
 21 22  1  0
 23 24  2  0
 24 43  1  0
 25 24  1  0
 25 28  1  0
 26 27  1  0
 26 23  1  0
 27 25  2  0
 28 29  1  0
 29 30  2  0
 31 34  1  0
 31 30  1  0
 32 31  2  0
 33 32  1  0
 33 28  2  0
 34 35  1  0
 35 40  2  0
 35 36  1  0
 36 37  2  0
 37 38  1  0
 38 42  1  0
 39 38  2  0
 40 39  1  0
 41 40  1  0
 43 44  1  0
 44 47  1  0
 44 46  1  0
 45 43  2  0
 48 23  1  0
 48 49  1  0
 50 48  1  0
 52 51  1  0
 54 53  1  0
 54 55  1  0
 54 52  1  0
 56 67  2  0
 57 55  1  0
 57 62  1  0
 58 66  1  0
 58 68  1  0
 59 65  1  0
 59 61  1  0
 60 66  1  0
 61 60  1  0
 62 61  2  0
 63 64  1  0
 63 57  2  0
 64 59  2  0
 65 58  1  0
 66 56  1  0
 68 70  2  0
 69 68  1  0
 71 69  1  0
 72 81  2  0
 72 77  1  0
 73 69  1  0
 73 77  1  0
 74 73  1  0
 75 76  1  0
 75 74  1  0
 76 72  1  0
 77 78  2  0
 78 79  1  0
 80 79  2  0
 81 80  1  0
 82 56  1  0
 82 83  1  0
 82 92  1  0
 83 86  1  0
 84 88  1  0
 84 83  1  0
 85 84  2  0
 88 87  1  0
 90 88  1  0
 90 91  1  0
 90 89  1  0
 92 95  1  1
 92 93  1  0
 94 92  1  0
M  ISO  4  13 100  21 100  54 101  55 101
M  END
>  <TORSDO>  (13) 
F 21

>  <SCORE>  (13) 
-12.694

>  <name>  (13) 
12

>  <ligand_id>  (13) 
12

>  <original_smiles>  (13) 
[H]c1c([H])c([H])c2c(c1[H])C([H])([H])C([H])([H])C([H])([H])C2([H])N([H])C(=O)C1([H])N(C(=O)C([H])(N([H])C(=O)C([H])(N([H])C([H])([H])[H])C([H])([H])[H])C(C([H])([H])[H])(C([H])([H])[H])C([H])([H])[H])C([H])([H])c2c([H])c(OC([H])(C([H])([H])[H])C([H])([H])C([H])([H])c3nc(C(F)(F)C([H])([H])[H])c(C([H])([H])N([H])C(=O)N4C([H])([H])C([H])([H])C([H])([H])C([H])(n5nc(-c6c([H])c([H])c(Oc7c([H])c([H])c(F)c([H])c7F)c([H])c6[H])c(C(=O)N([H])[H])c5N([H])[H])C4([H])[H])c(C([H])([H])[H])c3[H])c([H])c([H])c2C1([H])[H]

>  <smiles>  (13) 
[H]c1c([H])c([H])c2c(c1[H])C([H])([H])C([H])([H])C([H])([H])C2([H])N([H])C(=O)C1([H])N(C(=O)C([H])(N([H])C(=O)C([H])(N([H])C([H])([H])[H])C([H])([H])[H])C(C([H])([H])[H])(C([H])([H])[H])C([H])([H])[H])C([H])([H])c2c([H])c(OC([H])(C([H])([H])[H])C([H])([H])C([H])([H])c3nc(C(F)(F)C([H])([H])[H])c(C([H])([H])N([H])C(=O)N4C([H])([H])C([H])([H])C([H])([H])C([H])(n5nc(-c6c([H])c([H])c(Oc7c([H])c([H])c(F)c([H])c7F)c([H])c6[H])c(C(=O)N([H])[H])c5N([H])[H])C4([H])[H])c(C([H])([H])[H])c3[H])c([H])c([H])c2C1([H])[H]

$$$$
13:0:0
     RDKit          3D

 94103  0  0  1  0  0  0  0  0999 V2000
  -29.5270  -22.8570   19.2390 C   0  0  0  0  0  3  0  0  0  0  0  0
  -28.7230  -23.1960   20.3070 C   0  0  0  0  0  0  0  0  0  0  0  0
  -29.2360  -20.8120   20.2710 C   0  0  0  0  0  3  0  0  0  0  0  0
  -29.8410  -21.4820   19.2540 N   0  0  0  0  0  0  0  0  0  0  0  0
  -28.5900  -21.8840   20.9010 N   0  0  0  0  0  0  0  0  0  0  0  0
  -28.0510  -21.7460   21.7460 H   0  0  0  0  0  0  0  0  0  0  0  0
  -26.5710  -24.3340   21.1400 C   0  0  0  0  0  1  0  0  0  0  0  0
  -28.0510  -24.6310   20.8260 C   0  0  0  0  0  3  0  0  0  0  0  0
  -28.2760  -26.1030   20.2650 O   0  0  0  0  0  0  0  0  0  0  0  0
  -24.6140  -31.8610   23.2370 C   0  0  0  0  0  0  0  0  0  0  0  0
  -27.2500  -27.1360   20.2340 C   0  0  0  0  0  0  0  0  0  0  0  0
  -23.4520  -30.4740   21.5670 C   0  0  0  0  0  3  0  0  0  0  0  0
  -24.9340  -28.9150   20.1530 C   0  0  0  0  0  0  0  0  0  0  0  0
  -26.0100  -30.7340   21.4610 C   0  0  0  0  0  2  0  0  0  0  0  0
  -26.0980  -29.3430   20.8040 C   0  0  0  0  0  0  0  0  0  0  0  0
  -27.2580  -28.4670   20.8320 C   0  0  0  0  0  3  0  0  0  0  0  0
  -26.0790  -26.8520   19.4990 C   0  0  0  0  0  3  0  0  0  0  0  0
  -24.9400  -27.6850   19.4810 C   0  0  0  0  0  3  0  0  0  0  0  0
  -23.7040  -29.8110   20.1860 C   0  0  0  0  0  2  0  0  0  0  0  0
  -24.7110  -31.0470   22.1430 N   0  0  0  0  0  0  0  0  0  0  0  0
  -23.5160  -32.1380   23.7460 O   0  0  0  0  0  0  0  0  0  0  0  0
  -22.7590  -29.4560   22.5070 C   0  0  0  0  0  0  0  0  0  0  0  0
  -21.4300  -29.2980   22.3710 N   0  0  0  0  0  0  0  0  0  0  0  0
  -23.4210  -28.8130   23.3270 O   0  0  0  0  0  0  0  0  0  0  0  0
  -20.9520  -29.8670   21.6860 H   0  0  0  0  0  0  0  0  0  0  0  0
  -18.0330  -28.1350   22.8640 C   0  0  0  0  0  0  0  0  0  0  0  0
  -20.5970  -28.3540   23.1240 C   0  0  0  0  0  3  0  0  0  0  0  0
  -20.6760  -26.9350   22.5140 C   0  0  0  0  0  2  0  0  0  0  0  0
  -19.5650  -26.6530   21.4980 C   0  0  0  0  0  2  0  0  0  0  0  0
  -18.1880  -26.8020   22.1520 C   0  0  0  0  0  2  0  0  0  0  0  0
  -19.1640  -28.8720   23.3060 C   0  0  0  0  0  0  0  0  0  0  0  0
  -18.9650  -30.1210   23.9320 C   0  0  0  0  0  3  0  0  0  0  0  0
  -17.6670  -30.6320   24.1210 C   0  0  0  0  0  3  0  0  0  0  0  0
  -16.5500  -29.8930   23.6940 C   0  0  0  0  0  3  0  0  0  0  0  0
  -16.7340  -28.6470   23.0700 C   0  0  0  0  0  3  0  0  0  0  0  0
  -25.8760  -32.4990   23.8930 C   0  0  0  0  0  3  0  0  0  0  0  0
  -25.5620  -33.9050   24.1990 N   0  0  0  0  0  0  0  0  0  0  0  0
  -25.9200  -34.9520   23.4430 C   0  0  0  0  0  0  0  0  0  0  0  0
  -26.6160  -34.8350   22.4310 O   0  0  0  0  0  0  0  0  0  0  0  0
  -24.9510  -34.0680   24.9850 H   0  0  0  0  0  0  0  0  0  0  0  0
  -24.2230  -36.7630   23.0200 C   0  0  0  0  0  1  0  0  0  0  0  0
  -25.4310  -36.3480   23.8770 C   0  0  0  0  0  3  0  0  0  0  0  0
  -27.5390  -37.2220   24.7840 C   0  0  0  0  0  1  0  0  0  0  0  0
  -26.4760  -37.3910   23.7960 N   0  0  0  0  0  0  0  0  0  0  0  0
  -26.0730  -38.3160   23.9190 H   0  0  0  0  0  0  0  0  0  0  0  0
  -26.3430  -31.7470   25.1990 C   0  0  1  0  0  0  0  0  0  0  0  0
  -25.2130  -31.5310   26.2330 C   0  0  0  0  0  1  0  0  0  0  0  0
  -26.9330  -30.3590   24.8570 C   0  0  0  0  0  1  0  0  0  0  0  0
  -27.4730  -32.5480   25.8870 C   0  0  0  0  0  1  0  0  0  0  0  0
  -29.3080  -19.1880   20.7320 C   0  0  0  0  0  2  0  0  0  0  0  0
  -29.0980  -17.6970   18.5600 C   0  0  0  0  0  1  0  0  0  0  0  0
  -29.8220  -17.7610   19.9160 C   0  0  0  0  0  3  0  0  0  0  0  0
  -30.4980  -15.0580   20.2550 C   0  0  0  0  0  0  0  0  0  0  0  0
  -30.3740  -12.6880   19.3410 C   0  0  0  0  0  2  0  0  0  0  0  0
  -29.4240  -12.6360   18.1200 C   0  0  0  0  0  2  0  0  0  0  0  0
  -27.9700  -12.4160   18.5750 C   0  0  0  0  0  2  0  0  0  0  0  0
  -27.5800  -13.3390   19.7580 C   0  0  0  0  0  3  0  0  0  0  0  0
  -28.6540  -13.3620   20.8710 C   0  0  0  0  0  2  0  0  0  0  0  0
  -29.9140  -13.7860   20.2460 N   0  0  0  0  0  0  0  0  0  0  0  0
  -31.6770  -15.1200   19.8870 O   0  0  0  0  0  0  0  0  0  0  0  0
  -29.7290  -16.2520   20.4640 N   0  0  0  0  0  0  0  0  0  0  0  0
  -28.8230  -16.0400   20.8570 H   0  0  0  0  0  0  0  0  0  0  0  0
  -25.2190  -13.9110   20.5560 C   0  0  0  0  0  0  0  0  0  0  0  0
  -24.1590  -13.1350   20.9360 C   0  0  0  0  0  0  0  0  0  0  0  0
  -24.6170  -11.7820   20.8710 C   0  0  0  0  0  0  0  0  0  0  0  0
  -26.2530  -13.0330   20.2790 N   0  0  0  0  0  0  0  0  0  0  0  0
  -25.9010  -11.7450   20.5340 N   0  0  0  0  0  0  0  0  0  0  0  0
  -23.8860  -10.5200   21.0540 C   0  0  0  0  0  0  0  0  0  0  0  0
  -24.3120   -9.5460   21.9830 C   0  0  0  0  0  3  0  0  0  0  0  0
  -23.5810   -8.3510   22.1540 C   0  0  0  0  0  3  0  0  0  0  0  0
  -22.4080   -8.1210   21.3970 C   0  0  0  0  0  0  0  0  0  0  0  0
  -22.0010   -9.0840   20.4570 C   0  0  0  0  0  3  0  0  0  0  0  0
  -22.7330  -10.2700   20.2830 C   0  0  0  0  0  3  0  0  0  0  0  0
  -21.6480   -6.9790   21.4790 O   0  0  0  0  0  0  0  0  0  0  0  0
  -21.5770   -6.2430   22.6340 C   0  0  0  0  0  0  0  0  0  0  0  0
  -21.0980   -6.7960   23.8430 C   0  0  0  0  0  3  0  0  0  0  0  0
  -20.9760   -5.9850   24.9890 C   0  0  0  0  0  3  0  0  0  0  0  0
  -21.3240   -4.6210   24.9270 C   0  0  0  0  0  0  0  0  0  0  0  0
  -21.7950   -4.0680   23.7230 C   0  0  0  0  0  3  0  0  0  0  0  0
  -21.9180   -4.8770   22.5810 C   0  0  0  0  0  0  0  0  0  0  0  0
  -22.3530   -4.3340   21.4170 F   0  0  0  0  0  0  0  0  0  0  0  0
  -21.2000   -3.8400   26.0250 F   0  0  0  0  0  0  0  0  0  0  0  0
  -22.7710  -13.6150   21.2420 C   0  0  0  0  0  0  0  0  0  0  0  0
  -22.0510  -12.9010   22.1000 N   0  0  0  0  0  0  0  0  0  0  0  0
  -22.3340  -14.6570   20.7550 O   0  0  0  0  0  0  0  0  0  0  0  0
  -22.4190  -12.0580   22.5160 H   0  0  0  0  0  0  0  0  0  0  0  0
  -21.1200  -13.2040   22.3480 H   0  0  0  0  0  0  0  0  0  0  0  0
  -25.3880  -15.2830   20.3960 N   0  0  0  0  0  0  0  0  0  0  0  0
  -24.6250  -15.9400   20.5280 H   0  0  0  0  0  0  0  0  0  0  0  0
  -26.2220  -15.7160   20.0220 H   0  0  0  0  0  0  0  0  0  0  0  0
  -30.6880  -20.8200   18.2510 C   0  0  0  0  0  2  0  0  0  0  0  0
  -32.5500  -21.2880   16.4650 C   0  0  0  0  0  2  0  0  0  0  0  0
  -31.6510  -22.4990   16.4500 C   0  0  0  0  0  2  0  0  0  0  0  0
  -31.8120  -21.6930   17.7220 C   0  0  0  0  0  3  0  0  0  0  0  0
  1  4  1  0
  1  2  2  0
  2  8  1  0
  2  5  1  0
  3 50  1  0
  3  5  1  0
  4  3  1  0
  5  6  1  0
  8  7  1  0
  9  8  1  0
 10 21  2  0
 11  9  1  0
 11 16  1  0
 12 20  1  0
 12 22  1  0
 13 19  1  0
 13 15  1  0
 14 20  1  0
 15 16  2  0
 15 14  1  0
 17 11  2  0
 18 17  1  0
 18 13  2  0
 19 12  1  0
 20 10  1  0
 22 24  2  0
 23 22  1  0
 25 23  1  0
 26 35  2  0
 26 31  1  0
 27 23  1  0
 27 31  1  0
 28 27  1  0
 29 30  1  0
 29 28  1  0
 30 26  1  0
 31 32  2  0
 32 33  1  0
 34 33  2  0
 35 34  1  0
 36 10  1  0
 36 37  1  0
 36 46  1  0
 37 40  1  0
 38 42  1  0
 38 37  1  0
 39 38  2  0
 42 41  1  0
 44 42  1  0
 44 45  1  0
 44 43  1  0
 46 49  1  1
 46 47  1  0
 48 46  1  0
 52 51  1  0
 52 61  1  0
 52 50  1  0
 53 61  1  0
 54 59  1  0
 55 56  1  0
 55 54  1  0
 57 56  1  0
 57 66  1  0
 57 58  1  0
 59 53  1  0
 59 58  1  0
 60 53  2  0
 61 62  1  0
 63 64  2  0
 64 83  1  0
 65 64  1  0
 65 68  1  0
 66 67  1  0
 66 63  1  0
 67 65  2  0
 68 69  1  0
 69 70  2  0
 71 74  1  0
 71 70  1  0
 72 71  2  0
 73 72  1  0
 73 68  2  0
 74 75  1  0
 75 76  1  0
 76 77  2  0
 78 77  1  0
 78 82  1  0
 79 78  2  0
 80 75  2  0
 80 79  1  0
 81 80  1  0
 83 84  1  0
 84 87  1  0
 84 86  1  0
 85 83  2  0
 88 89  1  0
 88 63  1  0
 90 88  1  0
 91  4  1  0
 92 94  1  0
 93 92  1  0
 93 94  1  0
 94 91  1  0
M  ISO  4   8 101   9 101  53 100  61 100
M  END
>  <TORSDO>  (14) 
F 21

>  <SCORE>  (14) 
-14.046

>  <name>  (14) 
13

>  <ligand_id>  (14) 
13

>  <original_smiles>  (14) 
[H]c1c([H])c([H])c2c(c1[H])C([H])([H])C([H])([H])C([H])([H])C2([H])N([H])C(=O)C1([H])N(C(=O)C([H])(N([H])C(=O)C([H])(N([H])C([H])([H])[H])C([H])([H])[H])C(C([H])([H])[H])(C([H])([H])[H])C([H])([H])[H])C([H])([H])c2c([H])c(OC([H])(c3c([H])n(C([H])([H])C4([H])C([H])([H])C4([H])[H])c(C([H])([H])C([H])(N([H])C(=O)N4C([H])([H])C([H])([H])C([H])([H])C([H])(n5nc(-c6c([H])c([H])c(Oc7c([H])c([H])c(F)c([H])c7F)c([H])c6[H])c(C(=O)N([H])[H])c5N([H])[H])C4([H])[H])C([H])([H])[H])[n+]3[H])C([H])([H])[H])c([H])c([H])c2C1([H])[H]

>  <smiles>  (14) 
[H]c1c([H])c([H])c2c(c1[H])C([H])([H])C([H])([H])C([H])([H])C2([H])N([H])C(=O)C1([H])N(C(=O)C([H])(N([H])C(=O)C([H])(N([H])C([H])([H])[H])C([H])([H])[H])C(C([H])([H])[H])(C([H])([H])[H])C([H])([H])[H])C([H])([H])c2c([H])c(OC([H])(c3c([H])n(C([H])([H])C4([H])C([H])([H])C4([H])[H])c(C([H])([H])C([H])(N([H])C(=O)N4C([H])([H])C([H])([H])C([H])([H])C([H])(n5nc(-c6c([H])c([H])c(Oc7c([H])c([H])c(F)c([H])c7F)c([H])c6[H])c(C(=O)N([H])[H])c5N([H])[H])C4([H])[H])C([H])([H])[H])[n+]3[H])C([H])([H])[H])c([H])c([H])c2C1([H])[H]

$$$$
14:0:0
     RDKit          3D

 96105  0  0  1  0  0  0  0  0999 V2000
  -28.0300  -23.8380   22.2320 C   0  0  0  0  0  2  0  0  0  0  0  0
  -29.4850  -24.0180   21.8050 C   0  0  0  0  0  2  0  0  0  0  0  0
  -27.1750  -24.6210   21.2190 C   0  0  0  0  0  3  0  0  0  0  0  0
  -29.4380  -24.2320   20.2910 C   0  0  0  0  0  3  0  0  0  0  0  0
  -28.1440  -25.1240   20.0940 C   0  0  0  0  0  3  0  0  0  0  0  0
  -26.0700  -22.6630   19.8430 C   0  0  0  0  0  1  0  0  0  0  0  0
  -24.9020  -23.5380   21.8800 C   0  0  0  0  0  1  0  0  0  0  0  0
  -25.8740  -23.8970   20.7420 C   0  0  0  0  0  3  0  0  0  0  0  0
  -30.8140  -23.0050   18.5040 C   0  0  0  0  0  1  0  0  0  0  0  0
  -29.5840  -22.8750   19.4370 C   0  0  0  0  0  3  0  0  0  0  0  0
  -29.5940  -21.4440   20.1780 C   0  0  0  0  0  2  0  0  0  0  0  0
  -30.8580  -14.7370   20.2190 C   0  0  0  0  0  0  0  0  0  0  0  0
  -30.5160  -12.5390   19.1340 C   0  0  0  0  0  2  0  0  0  0  0  0
  -29.5470  -12.6870   17.9430 C   0  0  0  0  0  2  0  0  0  0  0  0
  -28.0850  -12.5490   18.4100 C   0  0  0  0  0  2  0  0  0  0  0  0
  -27.7680  -13.4080   19.6640 C   0  0  0  0  0  3  0  0  0  0  0  0
  -28.8600  -13.2760   20.7490 C   0  0  0  0  0  2  0  0  0  0  0  0
  -30.1540  -13.5710   20.1250 N   0  0  0  0  0  0  0  0  0  0  0  0
  -32.0500  -14.7790   19.9020 O   0  0  0  0  0  0  0  0  0  0  0  0
  -29.2570  -20.1820   19.3070 C   0  0  0  0  0  0  0  0  0  0  0  0
  -29.2250  -17.7580   18.7840 C   0  0  0  0  0  2  0  0  0  0  0  0
  -29.8250  -18.3760   21.0730 C   0  0  0  0  0  2  0  0  0  0  0  0
  -30.3490  -16.7190   18.9370 C   0  0  0  0  0  2  0  0  0  0  0  0
  -29.8010  -16.7850   21.3010 C   0  0  0  0  0  2  0  0  0  0  0  0
  -29.4410  -18.8740   19.7230 N   0  0  0  0  0  0  0  0  0  0  0  0
  -30.1340  -15.9050   20.1410 N   0  0  0  0  0  0  0  0  0  0  0  0
  -28.8040  -20.4080   18.1810 O   0  0  0  0  0  0  0  0  0  0  0  0
  -25.3980  -13.9940   20.4540 C   0  0  0  0  0  0  0  0  0  0  0  0
  -24.3390  -13.2160   20.8420 C   0  0  0  0  0  0  0  0  0  0  0  0
  -24.8040  -11.8650   20.7890 C   0  0  0  0  0  0  0  0  0  0  0  0
  -26.4360  -13.1160   20.1840 N   0  0  0  0  0  0  0  0  0  0  0  0
  -26.0870  -11.8300   20.4510 N   0  0  0  0  0  0  0  0  0  0  0  0
  -24.0820  -10.5970   20.9840 C   0  0  0  0  0  0  0  0  0  0  0  0
  -24.5190   -9.6340   21.9190 C   0  0  0  0  0  3  0  0  0  0  0  0
  -23.7980   -8.4330   22.1000 C   0  0  0  0  0  3  0  0  0  0  0  0
  -22.6250   -8.1910   21.3450 C   0  0  0  0  0  0  0  0  0  0  0  0
  -22.2080   -9.1450   20.3990 C   0  0  0  0  0  3  0  0  0  0  0  0
  -22.9300  -10.3360   20.2180 C   0  0  0  0  0  3  0  0  0  0  0  0
  -21.8720   -7.0480   21.4380 O   0  0  0  0  0  0  0  0  0  0  0  0
  -21.8040   -6.3240   22.6030 C   0  0  0  0  0  0  0  0  0  0  0  0
  -21.3490   -6.8960   23.8100 C   0  0  0  0  0  3  0  0  0  0  0  0
  -21.2270   -6.0970   24.9660 C   0  0  0  0  0  3  0  0  0  0  0  0
  -21.5520   -4.7280   24.9150 C   0  0  0  0  0  0  0  0  0  0  0  0
  -21.9960   -4.1560   23.7090 C   0  0  0  0  0  3  0  0  0  0  0  0
  -22.1180   -4.9500   22.5580 C   0  0  0  0  0  0  0  0  0  0  0  0
  -22.5270   -4.3880   21.3940 F   0  0  0  0  0  0  0  0  0  0  0  0
  -21.4290   -3.9590   26.0230 F   0  0  0  0  0  0  0  0  0  0  0  0
  -22.9480  -13.6870   21.1510 C   0  0  0  0  0  0  0  0  0  0  0  0
  -22.2440  -12.9790   22.0280 N   0  0  0  0  0  0  0  0  0  0  0  0
  -22.4950  -14.7180   20.6560 O   0  0  0  0  0  0  0  0  0  0  0  0
  -22.6200  -12.1400   22.4420 H   0  0  0  0  0  0  0  0  0  0  0  0
  -21.3150  -13.2760   22.2840 H   0  0  0  0  0  0  0  0  0  0  0  0
  -25.5630  -15.3640   20.2830 N   0  0  0  0  0  0  0  0  0  0  0  0
  -24.8210  -16.0390   20.4450 H   0  0  0  0  0  0  0  0  0  0  0  0
  -26.4180  -15.7910   19.9470 H   0  0  0  0  0  0  0  0  0  0  0  0
  -28.3720  -26.5920   20.2010 O   0  0  0  0  0  0  0  0  0  0  0  0
  -24.6450  -31.9450   23.2730 C   0  0  0  0  0  0  0  0  0  0  0  0
  -27.2660  -27.4560   20.1380 C   0  0  0  0  0  0  0  0  0  0  0  0
  -23.4420  -30.5590   21.6240 C   0  0  0  0  0  3  0  0  0  0  0  0
  -24.8920  -29.0450   20.1700 C   0  0  0  0  0  0  0  0  0  0  0  0
  -25.9790  -30.9040   21.4280 C   0  0  0  0  0  2  0  0  0  0  0  0
  -26.0620  -29.5310   20.7700 C   0  0  0  0  0  0  0  0  0  0  0  0
  -27.2470  -28.7420   20.7580 C   0  0  0  0  0  3  0  0  0  0  0  0
  -26.0840  -27.0490   19.4790 C   0  0  0  0  0  3  0  0  0  0  0  0
  -24.9000  -27.8050   19.5190 C   0  0  0  0  0  3  0  0  0  0  0  0
  -23.6540  -29.9160   20.2320 C   0  0  0  0  0  2  0  0  0  0  0  0
  -24.7090  -31.1510   22.1660 N   0  0  0  0  0  0  0  0  0  0  0  0
  -23.5630  -32.2120   23.8150 O   0  0  0  0  0  0  0  0  0  0  0  0
  -22.7940  -29.5180   22.5740 C   0  0  0  0  0  0  0  0  0  0  0  0
  -21.4720  -29.3200   22.4430 N   0  0  0  0  0  0  0  0  0  0  0  0
  -23.4810  -28.8950   23.3870 O   0  0  0  0  0  0  0  0  0  0  0  0
  -20.9730  -29.8800   21.7630 H   0  0  0  0  0  0  0  0  0  0  0  0
  -18.1090  -28.0820   22.9290 C   0  0  0  0  0  0  0  0  0  0  0  0
  -20.6620  -28.3670   23.2080 C   0  0  0  0  0  3  0  0  0  0  0  0
  -20.7860  -26.9390   22.6240 C   0  0  0  0  0  2  0  0  0  0  0  0
  -19.6890  -26.6120   21.6090 C   0  0  0  0  0  2  0  0  0  0  0  0
  -18.3020  -26.7400   22.2450 C   0  0  0  0  0  2  0  0  0  0  0  0
  -19.2190  -28.8550   23.3650 C   0  0  0  0  0  0  0  0  0  0  0  0
  -18.9840  -30.1130   23.9570 C   0  0  0  0  0  3  0  0  0  0  0  0
  -17.6710  -30.5980   24.1280 C   0  0  0  0  0  3  0  0  0  0  0  0
  -16.5780  -29.8170   23.7150 C   0  0  0  0  0  3  0  0  0  0  0  0
  -16.7970  -28.5660   23.1170 C   0  0  0  0  0  3  0  0  0  0  0  0
  -25.9260  -32.5790   23.8950 C   0  0  0  0  0  3  0  0  0  0  0  0
  -26.4410  -31.8130   25.1780 C   0  0  1  0  0  0  0  0  0  0  0  0
  -25.3440  -31.5730   26.2430 C   0  0  0  0  0  1  0  0  0  0  0  0
  -27.0270  -30.4350   24.7900 C   0  0  0  0  0  1  0  0  0  0  0  0
  -27.5870  -32.6110   25.8450 C   0  0  0  0  0  1  0  0  0  0  0  0
  -25.6180  -33.9810   24.2250 N   0  0  0  0  0  0  0  0  0  0  0  0
  -25.9310  -35.0290   23.4560 C   0  0  0  0  0  0  0  0  0  0  0  0
  -26.5830  -34.9200   22.4140 O   0  0  0  0  0  0  0  0  0  0  0  0
  -25.0460  -34.1390   25.0420 H   0  0  0  0  0  0  0  0  0  0  0  0
  -24.1750  -36.8050   23.1280 C   0  0  0  0  0  1  0  0  0  0  0  0
  -25.4410  -36.4210   23.9120 C   0  0  0  0  0  3  0  0  0  0  0  0
  -27.5850  -37.3290   24.6830 C   0  0  0  0  0  1  0  0  0  0  0  0
  -26.4610  -37.4800   23.7670 N   0  0  0  0  0  0  0  0  0  0  0  0
  -26.0510  -38.3970   23.9160 H   0  0  0  0  0  0  0  0  0  0  0  0
  2  1  1  0
  3  8  1  0
  3  1  1  0
  4 10  1  0
  4  2  1  0
  5 56  1  0
  5  4  1  0
  5  3  1  0
  6  8  1  0
  8  7  1  0
 10  9  1  0
 10 11  1  0
 13 18  1  0
 14 15  1  0
 14 13  1  0
 16 15  1  0
 16 31  1  0
 16 17  1  0
 18 12  1  0
 18 17  1  0
 19 12  2  0
 20 25  1  0
 20 11  1  0
 21 23  1  0
 21 25  1  0
 22 24  1  0
 23 26  1  0
 25 22  1  0
 26 12  1  0
 26 24  1  0
 27 20  2  0
 28 29  2  0
 29 48  1  0
 30 29  1  0
 30 33  1  0
 31 32  1  0
 31 28  1  0
 32 30  2  0
 33 34  1  0
 34 35  2  0
 36 39  1  0
 36 35  1  0
 37 36  2  0
 38 37  1  0
 38 33  2  0
 39 40  1  0
 40 41  1  0
 41 42  2  0
 43 42  1  0
 43 47  1  0
 44 43  2  0
 45 40  2  0
 45 44  1  0
 46 45  1  0
 48 49  1  0
 49 52  1  0
 49 51  1  0
 50 48  2  0
 53 54  1  0
 53 28  1  0
 55 53  1  0
 57 68  2  0
 58 56  1  0
 58 63  1  0
 59 67  1  0
 59 69  1  0
 60 66  1  0
 60 62  1  0
 61 67  1  0
 62 61  1  0
 63 62  2  0
 64 65  1  0
 64 58  2  0
 65 60  2  0
 66 59  1  0
 67 57  1  0
 69 71  2  0
 70 69  1  0
 72 70  1  0
 73 82  2  0
 73 78  1  0
 74 70  1  0
 74 78  1  0
 75 74  1  0
 76 77  1  0
 76 75  1  0
 77 73  1  0
 78 79  2  0
 79 80  1  0
 81 80  2  0
 82 81  1  0
 83 57  1  0
 83 88  1  0
 83 84  1  0
 84 87  1  1
 84 85  1  0
 86 84  1  0
 88 91  1  0
 89 93  1  0
 89 88  1  0
 90 89  2  0
 93 92  1  0
 95 93  1  0
 95 96  1  0
 95 94  1  0
M  ISO  4   5 101  12 100  26 100  56 101
M  END
>  <TORSDO>  (15) 
F 19

>  <SCORE>  (15) 
-14.369

>  <name>  (15) 
14

>  <ligand_id>  (15) 
14

>  <original_smiles>  (15) 
[H]c1c([H])c([H])c2c(c1[H])C([H])([H])C([H])([H])C([H])([H])C2([H])N([H])C(=O)C1([H])N(C(=O)C([H])(N([H])C(=O)C([H])(N([H])C([H])([H])[H])C([H])([H])[H])C(C([H])([H])[H])(C([H])([H])[H])C([H])([H])[H])C([H])([H])c2c([H])c(OC3([H])C([H])(C([H])(C([H])([H])[H])C([H])([H])[H])C([H])([H])C([H])([H])C3([H])C([H])(C([H])([H])[H])C([H])([H])C(=O)N3C([H])([H])C([H])([H])N(C(=O)N4C([H])([H])C([H])([H])C([H])([H])C([H])(n5nc(-c6c([H])c([H])c(Oc7c([H])c([H])c(F)c([H])c7F)c([H])c6[H])c(C(=O)N([H])[H])c5N([H])[H])C4([H])[H])C([H])([H])C3([H])[H])c([H])c([H])c2C1([H])[H]

>  <smiles>  (15) 
[H]c1c([H])c([H])c2c(c1[H])C([H])([H])C([H])([H])C([H])([H])C2([H])N([H])C(=O)C1([H])N(C(=O)C([H])(N([H])C(=O)C([H])(N([H])C([H])([H])[H])C([H])([H])[H])C(C([H])([H])[H])(C([H])([H])[H])C([H])([H])[H])C([H])([H])c2c([H])c(OC3([H])C([H])(C([H])(C([H])([H])[H])C([H])([H])[H])C([H])([H])C([H])([H])C3([H])C([H])(C([H])([H])[H])C([H])([H])C(=O)N3C([H])([H])C([H])([H])N(C(=O)N4C([H])([H])C([H])([H])C([H])([H])C([H])(n5nc(-c6c([H])c([H])c(Oc7c([H])c([H])c(F)c([H])c7F)c([H])c6[H])c(C(=O)N([H])[H])c5N([H])[H])C4([H])[H])C([H])([H])C3([H])[H])c([H])c([H])c2C1([H])[H]

$$$$
15:0:0
     RDKit          3D

 94103  0  0  1  0  0  0  0  0999 V2000
  -29.2040  -21.7400   21.2240 C   0  0  0  0  0  2  0  0  0  0  0  0
  -28.4100  -21.3980   18.9220 C   0  0  0  0  0  2  0  0  0  0  0  0
  -29.2680  -23.3050   20.9950 C   0  0  0  0  0  2  0  0  0  0  0  0
  -28.4470  -22.9360   18.6490 C   0  0  0  0  0  2  0  0  0  0  0  0
  -29.4940  -20.9400   19.9260 C   0  0  0  0  0  3  0  0  0  0  0  0
  -28.3200  -23.8810   19.8880 C   0  0  0  0  0  3  0  0  0  0  0  0
  -30.6090  -14.6600   20.3550 C   0  0  0  0  0  0  0  0  0  0  0  0
  -30.3590  -12.4190   19.3230 C   0  0  0  0  0  2  0  0  0  0  0  0
  -29.4200  -12.5590   18.1060 C   0  0  0  0  0  2  0  0  0  0  0  0
  -27.9480  -12.4070   18.5400 C   0  0  0  0  0  2  0  0  0  0  0  0
  -27.5960  -13.2720   19.7790 C   0  0  0  0  0  3  0  0  0  0  0  0
  -28.6580  -13.1300   20.8940 C   0  0  0  0  0  2  0  0  0  0  0  0
  -29.9660  -13.4490   20.3060 N   0  0  0  0  0  0  0  0  0  0  0  0
  -31.7850  -14.7490   19.9880 O   0  0  0  0  0  0  0  0  0  0  0  0
  -29.3270  -18.3170   20.7280 C   0  0  0  0  0  3  0  0  0  0  0  0
  -29.7670  -19.3990   19.9690 C   0  0  0  0  0  0  0  0  0  0  0  0
  -30.0260  -17.1480   20.2290 C   0  0  0  0  0  0  0  0  0  0  0  0
  -30.8230  -17.4910   19.2360 N   0  0  0  0  0  0  0  0  0  0  0  0
  -30.6490  -18.8250   19.0470 N   0  0  0  0  0  0  0  0  0  0  0  0
  -29.8600  -15.7670   20.6790 N   0  0  0  0  0  0  0  0  0  0  0  0
  -28.9850  -15.5670   21.1350 H   0  0  0  0  0  0  0  0  0  0  0  0
  -25.2090  -13.8700   20.5100 C   0  0  0  0  0  0  0  0  0  0  0  0
  -24.1440  -13.0960   20.8840 C   0  0  0  0  0  0  0  0  0  0  0  0
  -24.6050  -11.7450   20.8500 C   0  0  0  0  0  0  0  0  0  0  0  0
  -26.2510  -12.9890   20.2700 N   0  0  0  0  0  0  0  0  0  0  0  0
  -25.8950  -11.7060   20.5360 N   0  0  0  0  0  0  0  0  0  0  0  0
  -23.8790  -10.4820   21.0420 C   0  0  0  0  0  0  0  0  0  0  0  0
  -24.3160   -9.5130   21.9700 C   0  0  0  0  0  3  0  0  0  0  0  0
  -23.5890   -8.3160   22.1500 C   0  0  0  0  0  3  0  0  0  0  0  0
  -22.4120   -8.0800   21.4000 C   0  0  0  0  0  0  0  0  0  0  0  0
  -21.9950   -9.0390   20.4610 C   0  0  0  0  0  3  0  0  0  0  0  0
  -22.7220  -10.2280   20.2790 C   0  0  0  0  0  3  0  0  0  0  0  0
  -21.6560   -6.9360   21.4900 O   0  0  0  0  0  0  0  0  0  0  0  0
  -21.6140   -6.1900   22.6410 C   0  0  0  0  0  0  0  0  0  0  0  0
  -21.1900   -6.7400   23.8700 C   0  0  0  0  0  3  0  0  0  0  0  0
  -21.0940   -5.9200   25.0120 C   0  0  0  0  0  3  0  0  0  0  0  0
  -21.4120   -4.5510   24.9260 C   0  0  0  0  0  0  0  0  0  0  0  0
  -21.8300   -4.0010   23.7010 C   0  0  0  0  0  3  0  0  0  0  0  0
  -21.9270   -4.8180   22.5610 C   0  0  0  0  0  0  0  0  0  0  0  0
  -22.3090   -4.2780   21.3790 F   0  0  0  0  0  0  0  0  0  0  0  0
  -21.3120   -3.7620   26.0210 F   0  0  0  0  0  0  0  0  0  0  0  0
  -22.7480  -13.5740   21.1620 C   0  0  0  0  0  0  0  0  0  0  0  0
  -22.0210  -12.8760   22.0270 N   0  0  0  0  0  0  0  0  0  0  0  0
  -22.3100  -14.6020   20.6470 O   0  0  0  0  0  0  0  0  0  0  0  0
  -22.3880  -12.0440   22.4660 H   0  0  0  0  0  0  0  0  0  0  0  0
  -21.0850  -13.1790   22.2550 H   0  0  0  0  0  0  0  0  0  0  0  0
  -25.3720  -15.2410   20.3340 N   0  0  0  0  0  0  0  0  0  0  0  0
  -24.6020  -15.8910   20.4420 H   0  0  0  0  0  0  0  0  0  0  0  0
  -26.2100  -15.6810   19.9750 H   0  0  0  0  0  0  0  0  0  0  0  0
  -31.5960  -18.6070   16.7410 C   0  0  0  0  0  1  0  0  0  0  0  0
  -32.8180  -19.8890   18.5620 C   0  0  0  0  0  1  0  0  0  0  0  0
  -31.4470  -19.4770   18.0050 C   0  0  0  0  0  3  0  0  0  0  0  0
  -28.5880  -25.3890   19.4220 C   0  0  0  0  0  2  0  0  0  0  0  0
  -28.3770  -26.5720   20.2650 O   0  0  0  0  0  0  0  0  0  0  0  0
  -24.6020  -31.9050   23.2390 C   0  0  0  0  0  0  0  0  0  0  0  0
  -27.2280  -27.3660   20.1850 C   0  0  0  0  0  0  0  0  0  0  0  0
  -23.3990  -30.5020   21.6000 C   0  0  0  0  0  3  0  0  0  0  0  0
  -24.8520  -28.9490   20.1750 C   0  0  0  0  0  0  0  0  0  0  0  0
  -25.9340  -30.8290   21.4150 C   0  0  0  0  0  2  0  0  0  0  0  0
  -26.0140  -29.4500   20.7720 C   0  0  0  0  0  0  0  0  0  0  0  0
  -27.2010  -28.6650   20.7750 C   0  0  0  0  0  3  0  0  0  0  0  0
  -26.0400  -26.9010   19.5790 C   0  0  0  0  0  3  0  0  0  0  0  0
  -24.8640  -27.6800   19.5730 C   0  0  0  0  0  3  0  0  0  0  0  0
  -23.6130  -29.8210   20.2210 C   0  0  0  0  0  2  0  0  0  0  0  0
  -24.6640  -31.0960   22.1420 N   0  0  0  0  0  0  0  0  0  0  0  0
  -23.5190  -32.1830   23.7750 O   0  0  0  0  0  0  0  0  0  0  0  0
  -22.7390  -29.4880   22.5620 C   0  0  0  0  0  0  0  0  0  0  0  0
  -21.4120  -29.3110   22.4370 N   0  0  0  0  0  0  0  0  0  0  0  0
  -23.4170  -28.8600   23.3800 O   0  0  0  0  0  0  0  0  0  0  0  0
  -20.9240  -29.8690   21.7500 H   0  0  0  0  0  0  0  0  0  0  0  0
  -18.0310  -28.1380   22.9500 C   0  0  0  0  0  0  0  0  0  0  0  0
  -20.5920  -28.3790   23.2090 C   0  0  0  0  0  3  0  0  0  0  0  0
  -20.6810  -26.9480   22.6290 C   0  0  0  0  0  2  0  0  0  0  0  0
  -19.5720  -26.6370   21.6180 C   0  0  0  0  0  2  0  0  0  0  0  0
  -18.1950  -26.7900   22.2690 C   0  0  0  0  0  2  0  0  0  0  0  0
  -19.1570  -28.8910   23.3770 C   0  0  0  0  0  0  0  0  0  0  0  0
  -18.9500  -30.1540   23.9730 C   0  0  0  0  0  3  0  0  0  0  0  0
  -17.6490  -30.6640   24.1480 C   0  0  0  0  0  3  0  0  0  0  0  0
  -16.5370  -29.9070   23.7360 C   0  0  0  0  0  3  0  0  0  0  0  0
  -16.7290  -28.6470   23.1430 C   0  0  0  0  0  3  0  0  0  0  0  0
  -25.8860  -32.5370   23.8620 C   0  0  0  0  0  3  0  0  0  0  0  0
  -25.5800  -33.9390   24.1830 N   0  0  0  0  0  0  0  0  0  0  0  0
  -25.9210  -34.9870   23.4220 C   0  0  0  0  0  0  0  0  0  0  0  0
  -26.5970  -34.8770   22.3950 O   0  0  0  0  0  0  0  0  0  0  0  0
  -24.9800  -34.0990   24.9790 H   0  0  0  0  0  0  0  0  0  0  0  0
  -24.2050  -36.7880   23.0430 C   0  0  0  0  0  1  0  0  0  0  0  0
  -25.4350  -36.3790   23.8690 C   0  0  0  0  0  3  0  0  0  0  0  0
  -27.5650  -37.2550   24.7210 C   0  0  0  0  0  1  0  0  0  0  0  0
  -26.4740  -37.4270   23.7650 N   0  0  0  0  0  0  0  0  0  0  0  0
  -26.0710  -38.3500   23.9070 H   0  0  0  0  0  0  0  0  0  0  0  0
  -26.3960  -31.7740   25.1440 C   0  0  1  0  0  0  0  0  0  0  0  0
  -25.3000  -31.5470   26.2100 C   0  0  0  0  0  1  0  0  0  0  0  0
  -26.9760  -30.3910   24.7630 C   0  0  0  0  0  1  0  0  0  0  0  0
  -27.5470  -32.5690   25.8050 C   0  0  0  0  0  1  0  0  0  0  0  0
  2  5  1  0
  3  1  1  0
  4  2  1  0
  4  6  1  0
  5 16  1  0
  5  1  1  0
  6 53  1  0
  6  3  1  0
  7 20  1  0
  8 13  1  0
  9 10  1  0
  9  8  1  0
 11 10  1  0
 11 25  1  0
 11 12  1  0
 13  7  1  0
 13 12  1  0
 14  7  2  0
 16 15  2  0
 17 20  1  0
 17 15  1  0
 18 17  2  0
 19 18  1  0
 19 16  1  0
 20 21  1  0
 22 23  2  0
 23 42  1  0
 24 23  1  0
 24 27  1  0
 25 22  1  0
 25 26  1  0
 26 24  2  0
 27 28  1  0
 28 29  2  0
 30 33  1  0
 30 29  1  0
 31 30  2  0
 32 31  1  0
 32 27  2  0
 33 34  1  0
 34 35  1  0
 35 36  2  0
 37 36  1  0
 37 41  1  0
 38 37  2  0
 39 34  2  0
 39 38  1  0
 40 39  1  0
 42 43  1  0
 43 46  1  0
 43 45  1  0
 44 42  2  0
 47 48  1  0
 47 22  1  0
 49 47  1  0
 50 52  1  0
 52 51  1  0
 52 19  1  0
 53 54  1  0
 55 66  2  0
 56 54  1  0
 56 61  1  0
 57 65  1  0
 57 67  1  0
 58 64  1  0
 58 60  1  0
 59 65  1  0
 60 61  2  0
 60 59  1  0
 62 56  2  0
 63 62  1  0
 63 58  2  0
 64 57  1  0
 65 55  1  0
 67 69  2  0
 68 67  1  0
 70 68  1  0
 71 80  2  0
 71 76  1  0
 72 68  1  0
 72 76  1  0
 73 72  1  0
 74 75  1  0
 74 73  1  0
 75 71  1  0
 76 77  2  0
 77 78  1  0
 79 78  2  0
 80 79  1  0
 81 55  1  0
 81 82  1  0
 81 91  1  0
 82 85  1  0
 83 87  1  0
 83 82  1  0
 84 83  2  0
 87 86  1  0
 89 87  1  0
 89 90  1  0
 89 88  1  0
 91 94  1  1
 91 92  1  0
 93 91  1  0
M  ISO  4   7 100  20 100  53 101  54 101
M  END
>  <TORSDO>  (16) 
F 18

>  <SCORE>  (16) 
-14.878

>  <name>  (16) 
15

>  <ligand_id>  (16) 
15

>  <original_smiles>  (16) 
[H]c1c([H])c([H])c2c(c1[H])C([H])([H])C([H])([H])C([H])([H])C2([H])N([H])C(=O)C1([H])N(C(=O)C([H])(N([H])C(=O)C([H])(N([H])C([H])([H])[H])C([H])([H])[H])C(C([H])([H])[H])(C([H])([H])[H])C([H])([H])[H])C([H])([H])c2c([H])c(OC([H])([H])C3([H])C([H])([H])C([H])([H])C([H])(c4c([H])c(N([H])C(=O)N5C([H])([H])C([H])([H])C([H])([H])C([H])(n6nc(-c7c([H])c([H])c(Oc8c([H])c([H])c(F)c([H])c8F)c([H])c7[H])c(C(=O)N([H])[H])c6N([H])[H])C5([H])[H])nn4C([H])(C([H])([H])[H])C([H])([H])[H])C([H])([H])C3([H])[H])c([H])c([H])c2C1([H])[H]

>  <smiles>  (16) 
[H]c1c([H])c([H])c2c(c1[H])C([H])([H])C([H])([H])C([H])([H])C2([H])N([H])C(=O)C1([H])N(C(=O)C([H])(N([H])C(=O)C([H])(N([H])C([H])([H])[H])C([H])([H])[H])C(C([H])([H])[H])(C([H])([H])[H])C([H])([H])[H])C([H])([H])c2c([H])c(OC([H])([H])C3([H])C([H])([H])C([H])([H])C([H])(c4c([H])c(N([H])C(=O)N5C([H])([H])C([H])([H])C([H])([H])C([H])(n6nc(-c7c([H])c([H])c(Oc8c([H])c([H])c(F)c([H])c8F)c([H])c7[H])c(C(=O)N([H])[H])c6N([H])[H])C5([H])[H])nn4C([H])(C([H])([H])[H])C([H])([H])[H])C([H])([H])C3([H])[H])c([H])c([H])c2C1([H])[H]

$$$$
16:0:0
     RDKit          3D

 95103  0  0  1  0  0  0  0  0999 V2000
  -35.9650  -20.6460    7.7530 C   0  0  0  0  0  3  0  0  0  0  0  0
  -36.6630  -21.8660    7.7980 C   0  0  0  0  0  3  0  0  0  0  0  0
  -36.2960  -19.6390    6.8080 C   0  0  0  0  0  0  0  0  0  0  0  0
  -37.6950  -22.1170    6.8830 C   0  0  0  0  0  0  0  0  0  0  0  0
  -37.3120  -19.9330    5.8540 C   0  0  0  0  0  0  0  0  0  0  0  0
  -37.9710  -21.1580    5.9130 N   0  0  0  0  0  0  0  0  0  0  0  0
  -37.9600  -24.3130    8.1180 C   0  0  0  0  0  1  0  0  0  0  0  0
  -38.5370  -23.4740    6.9640 C   0  0  0  0  0  3  0  0  0  0  0  0
  -38.6860  -24.4530    5.6680 C   0  0  0  0  0  3  0  0  0  0  0  0
  -37.4720  -24.6000    4.6030 C   0  0  0  0  0  3  0  0  0  0  0  0
  -36.1840  -23.8440    4.7030 O   0  0  0  0  0  0  0  0  0  0  0  0
  -31.3310  -25.9770    9.6030 C   0  0  0  0  0  0  0  0  0  0  0  0
  -34.9150  -24.4170    4.9290 C   0  0  0  0  0  0  0  0  0  0  0  0
  -30.5000  -25.6680    7.2970 C   0  0  0  0  0  3  0  0  0  0  0  0
  -32.2890  -25.4350    5.4790 C   0  0  0  0  0  0  0  0  0  0  0  0
  -32.9370  -26.3440    7.7120 C   0  0  0  0  0  2  0  0  0  0  0  0
  -33.3100  -25.6220    6.4190 C   0  0  0  0  0  0  0  0  0  0  0  0
  -34.6190  -25.1230    6.1430 C   0  0  0  0  0  3  0  0  0  0  0  0
  -33.8590  -24.2840    4.0010 C   0  0  0  0  0  3  0  0  0  0  0  0
  -32.5650  -24.7780    4.2690 C   0  0  0  0  0  3  0  0  0  0  0  0
  -30.9090  -25.9540    5.8270 C   0  0  0  0  0  2  0  0  0  0  0  0
  -31.6020  -25.9800    8.2640 N   0  0  0  0  0  0  0  0  0  0  0  0
  -30.1900  -25.7490   10.0310 O   0  0  0  0  0  0  0  0  0  0  0  0
  -29.9930  -24.2100    7.4020 C   0  0  0  0  0  0  0  0  0  0  0  0
  -28.6890  -24.0020    7.1500 N   0  0  0  0  0  0  0  0  0  0  0  0
  -30.7700  -23.2920    7.6780 O   0  0  0  0  0  0  0  0  0  0  0  0
  -28.1120  -24.8070    6.9470 H   0  0  0  0  0  0  0  0  0  0  0  0
  -25.4730  -22.3900    7.5340 C   0  0  0  0  0  0  0  0  0  0  0  0
  -28.0100  -22.7050    7.1440 C   0  0  0  0  0  3  0  0  0  0  0  0
  -27.7420  -22.2220    5.7010 C   0  0  0  0  0  2  0  0  0  0  0  0
  -26.3600  -22.6240    5.1770 C   0  0  0  0  0  2  0  0  0  0  0  0
  -25.2580  -22.0470    6.0710 C   0  0  0  0  0  2  0  0  0  0  0  0
  -26.7620  -22.7150    8.0360 C   0  0  0  0  0  0  0  0  0  0  0  0
  -26.8990  -23.0620    9.3980 C   0  0  0  0  0  3  0  0  0  0  0  0
  -25.7810  -23.0810   10.2530 C   0  0  0  0  0  3  0  0  0  0  0  0
  -24.5100  -22.7470    9.7550 C   0  0  0  0  0  3  0  0  0  0  0  0
  -24.3590  -22.3990    8.4010 C   0  0  0  0  0  3  0  0  0  0  0  0
  -32.4390  -26.2770   10.6600 C   0  0  0  0  0  3  0  0  0  0  0  0
  -32.4050  -27.7200   10.9390 N   0  0  0  0  0  0  0  0  0  0  0  0
  -33.4680  -28.5320   10.8870 C   0  0  0  0  0  0  0  0  0  0  0  0
  -34.6110  -28.1250   10.6580 O   0  0  0  0  0  0  0  0  0  0  0  0
  -31.4940  -28.1310   11.0750 H   0  0  0  0  0  0  0  0  0  0  0  0
  -33.6650  -30.8330    9.8840 C   0  0  0  0  0  1  0  0  0  0  0  0
  -33.2270  -30.0360   11.1230 C   0  0  0  0  0  3  0  0  0  0  0  0
  -33.5460  -29.8780   13.5540 C   0  0  0  0  0  1  0  0  0  0  0  0
  -33.9200  -30.5620   12.3200 N   0  0  0  0  0  0  0  0  0  0  0  0
  -33.7280  -31.5550   12.4380 H   0  0  0  0  0  0  0  0  0  0  0  0
  -32.2660  -25.4500   11.9920 C   0  0  1  0  0  0  0  0  0  0  0  0
  -31.3810  -26.1530   13.0470 C   0  0  0  0  0  1  0  0  0  0  0  0
  -31.6490  -24.0630   11.6990 C   0  0  0  0  0  1  0  0  0  0  0  0
  -33.6510  -25.1950   12.6320 C   0  0  0  0  0  1  0  0  0  0  0  0
  -35.6750  -18.3720    6.8250 N   0  0  0  0  0  0  0  0  0  0  0  0
  -35.4900  -17.9590    5.9160 H   0  0  0  0  0  0  0  0  0  0  0  0
  -34.6590  -17.6780    8.9650 C   0  0  0  0  0  1  0  0  0  0  0  0
  -37.1580  -17.5920    8.6160 C   0  0  0  0  0  1  0  0  0  0  0  0
  -35.7860  -17.4440    7.9460 C   0  0  0  0  0  3  0  0  0  0  0  0
  -37.7840  -18.8680    4.7580 C   0  0  0  0  0  2  0  0  0  0  0  0
  -37.5480  -16.4670    3.7450 C   0  0  0  0  0  0  0  0  0  0  0  0
  -36.4450  -14.8180    2.2340 C   0  0  0  0  0  2  0  0  0  0  0  0
  -35.1640  -15.4580    1.6540 C   0  0  0  0  0  2  0  0  0  0  0  0
  -33.9710  -15.2430    2.6080 C   0  0  0  0  0  2  0  0  0  0  0  0
  -34.3130  -15.5890    4.0820 C   0  0  0  0  0  3  0  0  0  0  0  0
  -35.6560  -14.9650    4.5170 C   0  0  0  0  0  2  0  0  0  0  0  0
  -36.6780  -15.4180    3.5670 N   0  0  0  0  0  0  0  0  0  0  0  0
  -38.5040  -16.6140    2.9790 O   0  0  0  0  0  0  0  0  0  0  0  0
  -37.2000  -17.4630    4.6350 N   0  0  0  0  0  0  0  0  0  0  0  0
  -36.3760  -17.3040    5.1980 H   0  0  0  0  0  0  0  0  0  0  0  0
  -32.1870  -16.0170    5.4530 C   0  0  0  0  0  0  0  0  0  0  0  0
  -31.4010  -15.1920    6.2070 C   0  0  0  0  0  0  0  0  0  0  0  0
  -32.0170  -13.9060    6.1610 C   0  0  0  0  0  0  0  0  0  0  0  0
  -33.2290  -15.2290    4.9910 N   0  0  0  0  0  0  0  0  0  0  0  0
  -33.1520  -13.9620    5.4730 N   0  0  0  0  0  0  0  0  0  0  0  0
  -31.5590  -12.6110    6.6790 C   0  0  0  0  0  0  0  0  0  0  0  0
  -30.2250  -12.1790    6.5110 C   0  0  0  0  0  3  0  0  0  0  0  0
  -29.8110  -10.9220    7.0030 C   0  0  0  0  0  3  0  0  0  0  0  0
  -30.7360  -10.0800    7.6670 C   0  0  0  0  0  0  0  0  0  0  0  0
  -32.0570  -10.5240    7.8530 C   0  0  0  0  0  3  0  0  0  0  0  0
  -32.4650  -11.7780    7.3660 C   0  0  0  0  0  3  0  0  0  0  0  0
  -30.4200   -8.8540    8.1980 O   0  0  0  0  0  0  0  0  0  0  0  0
  -31.3430   -7.8410    8.2690 C   0  0  0  0  0  0  0  0  0  0  0  0
  -32.0190   -7.5310    9.4700 C   0  0  0  0  0  3  0  0  0  0  0  0
  -32.9090   -6.4400    9.5150 C   0  0  0  0  0  3  0  0  0  0  0  0
  -33.1160   -5.6520    8.3660 C   0  0  0  0  0  0  0  0  0  0  0  0
  -32.4390   -5.9540    7.1720 C   0  0  0  0  0  3  0  0  0  0  0  0
  -31.5520   -7.0440    7.1250 C   0  0  0  0  0  0  0  0  0  0  0  0
  -30.8870   -7.3190    5.9780 F   0  0  0  0  0  0  0  0  0  0  0  0
  -33.9640   -4.5970    8.4120 F   0  0  0  0  0  0  0  0  0  0  0  0
  -30.0950  -15.5530    6.8570 C   0  0  0  0  0  0  0  0  0  0  0  0
  -30.0920  -15.7360    8.1720 N   0  0  0  0  0  0  0  0  0  0  0  0
  -29.0750  -15.7230    6.1890 O   0  0  0  0  0  0  0  0  0  0  0  0
  -30.9350  -15.6210    8.7170 H   0  0  0  0  0  0  0  0  0  0  0  0
  -29.2370  -15.9920    8.6440 H   0  0  0  0  0  0  0  0  0  0  0  0
  -32.0900  -17.3590    5.1030 N   0  0  0  0  0  0  0  0  0  0  0  0
  -31.3320  -17.9440    5.4350 H   0  0  0  0  0  0  0  0  0  0  0  0
  -32.7810  -17.8730    4.5730 H   0  0  0  0  0  0  0  0  0  0  0  0
  1  2  1  0
  3 52  1  0
  3  1  2  0
  4  8  1  0
  4  2  2  0
  5  6  2  0
  5  3  1  0
  6  4  1  0
  8  7  1  0
  9  8  1  0
 10 11  1  0
 10  9  2  0
 11 13  1  0
 12 23  2  0
 13 18  1  0
 14 24  1  0
 14 22  1  0
 15 21  1  0
 15 17  1  0
 16 22  1  0
 17 16  1  0
 18 17  2  0
 19 20  1  0
 19 13  2  0
 20 15  2  0
 21 14  1  0
 22 12  1  0
 24 26  2  0
 25 24  1  0
 27 25  1  0
 28 33  2  0
 28 37  1  0
 29 25  1  0
 29 33  1  0
 30 29  1  0
 31 30  1  0
 31 32  1  0
 32 28  1  0
 33 34  1  0
 34 35  2  0
 36 35  1  0
 37 36  2  0
 38 12  1  0
 38 39  1  0
 38 48  1  0
 39 42  1  0
 40 39  1  0
 40 44  1  0
 41 40  2  0
 44 43  1  0
 44 46  1  0
 46 47  1  0
 46 45  1  0
 48 51  1  1
 48 49  1  0
 50 48  1  0
 52 56  1  0
 53 52  1  0
 56 55  1  0
 56 54  1  0
 57  5  1  0
 58 66  1  0
 59 64  1  0
 60 59  1  0
 60 61  1  0
 62 61  1  0
 62 63  1  0
 62 71  1  0
 64 58  1  0
 64 63  1  0
 65 58  2  0
 66 57  1  0
 66 67  1  0
 68 69  2  0
 69 88  1  0
 70 69  1  0
 70 73  1  0
 71 68  1  0
 71 72  1  0
 72 70  2  0
 73 78  1  0
 74 73  2  0
 74 75  1  0
 75 76  2  0
 76 77  1  0
 76 79  1  0
 78 77  2  0
 79 80  1  0
 80 81  1  0
 81 82  2  0
 83 87  1  0
 83 82  1  0
 84 83  2  0
 85 84  1  0
 85 80  2  0
 86 85  1  0
 88 89  1  0
 89 92  1  0
 89 91  1  0
 90 88  2  0
 93 94  1  0
 93 68  1  0
 95 93  1  0
M  ISO  4  10 101  11 101  58 100  66 100
M  END
>  <TORSDO>  (17) 
F 22

>  <SCORE>  (17) 
-1.687

>  <name>  (17) 
16

>  <ligand_id>  (17) 
16

>  <original_smiles>  (17) 
[H]c1c(C([H])(C([H])([H])[H])C([H])([H])C([H])([H])Oc2c([H])c([H])c3c(c2[H])C([H])([H])N(C(=O)C([H])(N([H])C(=O)C([H])(N([H])C([H])([H])[H])C([H])([H])[H])C(C([H])([H])[H])(C([H])([H])[H])C([H])([H])[H])C([H])(C(=O)N([H])C2([H])c4c([H])c([H])c([H])c([H])c4C([H])([H])C([H])([H])C2([H])[H])C3([H])[H])nc(C([H])([H])N([H])C(=O)N2C([H])([H])C([H])([H])C([H])([H])C([H])(n3nc(-c4c([H])c([H])c(Oc5c([H])c([H])c(F)c([H])c5F)c([H])c4[H])c(C(=O)N([H])[H])c3N([H])[H])C2([H])[H])c(N([H])C([H])(C([H])([H])[H])C([H])([H])[H])c1[H]

>  <smiles>  (17) 
[H]c1c(C([H])(C([H])([H])[H])C([H])([H])C([H])([H])Oc2c([H])c([H])c3c(c2[H])C([H])([H])N(C(=O)C([H])(N([H])C(=O)C([H])(N([H])C([H])([H])[H])C([H])([H])[H])C(C([H])([H])[H])(C([H])([H])[H])C([H])([H])[H])C([H])(C(=O)N([H])C2([H])c4c([H])c([H])c([H])c([H])c4C([H])([H])C([H])([H])C2([H])[H])C3([H])[H])nc(C([H])([H])N([H])C(=O)N2C([H])([H])C([H])([H])C([H])([H])C([H])(n3nc(-c4c([H])c([H])c(Oc5c([H])c([H])c(F)c([H])c5F)c([H])c4[H])c(C(=O)N([H])[H])c3N([H])[H])C2([H])[H])c(N([H])C([H])(C([H])([H])[H])C([H])([H])[H])c1[H]

$$$$
17:0:0
     RDKit          3D

 96104  0  0  1  0  0  0  0  0999 V2000
  -31.0440  -20.0490   19.4810 C   0  0  0  0  0  3  0  0  0  0  0  0
  -30.5400  -20.3560   20.7730 C   0  0  0  0  0  0  0  0  0  0  0  0
  -31.4010  -18.7280   19.4200 C   0  0  0  0  0  0  0  0  0  0  0  0
  -30.4670  -19.1380   21.4270 C   0  0  0  0  0  0  0  0  0  0  0  0
  -29.9960  -18.8560   22.8280 C   0  0  0  0  0  1  0  0  0  0  0  0
  -31.0630  -18.1320   20.6390 N   0  0  0  0  0  0  0  0  0  0  0  0
  -33.6710  -18.0430   18.5700 C   0  0  0  0  0  1  0  0  0  0  0  0
  -31.8670  -18.6130   16.9320 C   0  0  0  0  0  1  0  0  0  0  0  0
  -32.1500  -18.0190   18.3220 C   0  0  0  0  0  3  0  0  0  0  0  0
  -31.6530  -22.2290   21.9750 C   0  0  0  0  0  1  0  0  0  0  0  0
  -30.3130  -21.7750   21.3580 C   0  0  0  0  0  3  0  0  0  0  0  0
  -29.7520  -22.8010   20.4120 N   0  0  0  0  0  4  0  0  0  0  0  0
  -30.3250  -22.7980   19.5800 H   0  0  0  0  0  0  0  0  0  0  0  0
  -28.8410  -22.4730   20.1320 H   0  0  0  0  0  0  0  0  0  0  0  0
  -29.6490  -24.2230   20.9180 C   0  0  0  0  0  2  0  0  0  0  0  0
  -28.6750  -25.1520   20.1250 C   0  0  0  0  0  2  0  0  0  0  0  0
  -28.6820  -26.5520   20.5570 O   0  0  0  0  0  0  0  0  0  0  0  0
  -24.7000  -31.8000   23.3830 C   0  0  0  0  0  0  0  0  0  0  0  0
  -27.5200  -27.3140   20.4520 C   0  0  0  0  0  0  0  0  0  0  0  0
  -23.5880  -30.3760   21.7000 C   0  0  0  0  0  3  0  0  0  0  0  0
  -25.1170  -28.8460   20.3480 C   0  0  0  0  0  0  0  0  0  0  0  0
  -26.1210  -30.7430   21.6200 C   0  0  0  0  0  2  0  0  0  0  0  0
  -26.2470  -29.3650   20.9900 C   0  0  0  0  0  0  0  0  0  0  0  0
  -27.4470  -28.6080   21.0400 C   0  0  0  0  0  3  0  0  0  0  0  0
  -26.3700  -26.8400   19.7740 C   0  0  0  0  0  3  0  0  0  0  0  0
  -25.1790  -27.5850   19.7370 C   0  0  0  0  0  3  0  0  0  0  0  0
  -23.8650  -29.6930   20.3350 C   0  0  0  0  0  2  0  0  0  0  0  0
  -24.8190  -30.9920   22.2910 N   0  0  0  0  0  0  0  0  0  0  0  0
  -23.5920  -32.0560   23.8780 O   0  0  0  0  0  0  0  0  0  0  0  0
  -22.9080  -29.3490   22.6380 C   0  0  0  0  0  0  0  0  0  0  0  0
  -21.6010  -29.1170   22.4300 N   0  0  0  0  0  0  0  0  0  0  0  0
  -23.5570  -28.7610   23.5060 O   0  0  0  0  0  0  0  0  0  0  0  0
  -21.1360  -29.6400   21.7000 H   0  0  0  0  0  0  0  0  0  0  0  0
  -18.2470  -27.8000   22.7230 C   0  0  0  0  0  0  0  0  0  0  0  0
  -20.7680  -28.1680   23.1680 C   0  0  0  0  0  3  0  0  0  0  0  0
  -20.9670  -26.7260   22.6410 C   0  0  0  0  0  2  0  0  0  0  0  0
  -19.9550  -26.3340   21.5610 C   0  0  0  0  0  2  0  0  0  0  0  0
  -18.5250  -26.4430   22.0980 C   0  0  0  0  0  2  0  0  0  0  0  0
  -19.3010  -28.6170   23.2100 C   0  0  0  0  0  0  0  0  0  0  0  0
  -18.9920  -29.8850   23.7470 C   0  0  0  0  0  3  0  0  0  0  0  0
  -17.6610  -30.3390   23.8010 C   0  0  0  0  0  3  0  0  0  0  0  0
  -16.6200  -29.5180   23.3320 C   0  0  0  0  0  3  0  0  0  0  0  0
  -16.9130  -28.2520   22.7990 C   0  0  0  0  0  3  0  0  0  0  0  0
  -25.9460  -32.4560   24.0520 C   0  0  0  0  0  3  0  0  0  0  0  0
  -25.6220  -33.8640   24.3090 N   0  0  0  0  0  0  0  0  0  0  0  0
  -25.9820  -34.8830   23.5170 C   0  0  0  0  0  0  0  0  0  0  0  0
  -26.6870  -34.7370   22.5150 O   0  0  0  0  0  0  0  0  0  0  0  0
  -25.0020  -34.0550   25.0830 H   0  0  0  0  0  0  0  0  0  0  0  0
  -24.2510  -36.6390   23.0370 C   0  0  0  0  0  1  0  0  0  0  0  0
  -25.4760  -36.2880   23.8950 C   0  0  0  0  0  3  0  0  0  0  0  0
  -27.5770  -37.2340   24.7410 C   0  0  0  0  0  1  0  0  0  0  0  0
  -26.5040  -37.3420   23.7560 N   0  0  0  0  0  0  0  0  0  0  0  0
  -26.0870  -38.2650   23.8430 H   0  0  0  0  0  0  0  0  0  0  0  0
  -26.3870  -31.7340   25.3840 C   0  0  1  0  0  0  0  0  0  0  0  0
  -25.2290  -31.5200   26.3860 C   0  0  0  0  0  1  0  0  0  0  0  0
  -27.0050  -30.3530   25.0730 C   0  0  0  0  0  1  0  0  0  0  0  0
  -27.4900  -32.5610   26.0890 C   0  0  0  0  0  1  0  0  0  0  0  0
  -31.4540  -16.7600   21.1030 C   0  0  0  0  0  2  0  0  0  0  0  0
  -31.3450  -14.4770   20.0440 C   0  0  0  0  0  0  0  0  0  0  0  0
  -30.8980  -12.2680   19.0020 C   0  0  0  0  0  2  0  0  0  0  0  0
  -29.9090  -12.4320   17.8290 C   0  0  0  0  0  2  0  0  0  0  0  0
  -28.4530  -12.3780   18.3340 C   0  0  0  0  0  2  0  0  0  0  0  0
  -28.2070  -13.2980   19.5600 C   0  0  0  0  0  3  0  0  0  0  0  0
  -29.3040  -13.1040   20.6260 C   0  0  0  0  0  2  0  0  0  0  0  0
  -30.5990  -13.3360   19.9740 N   0  0  0  0  0  0  0  0  0  0  0  0
  -32.4890  -14.5250   19.5880 O   0  0  0  0  0  0  0  0  0  0  0  0
  -30.7440  -15.5870   20.5380 N   0  0  0  0  0  0  0  0  0  0  0  0
  -29.7730  -15.4960   20.7930 H   0  0  0  0  0  0  0  0  0  0  0  0
  -25.9090  -14.0480   20.4320 C   0  0  0  0  0  0  0  0  0  0  0  0
  -24.8100  -13.3420   20.8410 C   0  0  0  0  0  0  0  0  0  0  0  0
  -25.1690  -11.9610   20.7480 C   0  0  0  0  0  0  0  0  0  0  0  0
  -26.8700  -13.1020   20.1150 N   0  0  0  0  0  0  0  0  0  0  0  0
  -26.4330  -11.8410   20.3660 N   0  0  0  0  0  0  0  0  0  0  0  0
  -24.3630  -10.7480   20.9460 C   0  0  0  0  0  0  0  0  0  0  0  0
  -24.7490   -9.7450   21.8620 C   0  0  0  0  0  3  0  0  0  0  0  0
  -23.9470   -8.6000   22.0500 C   0  0  0  0  0  3  0  0  0  0  0  0
  -22.7460   -8.4470   21.3210 C   0  0  0  0  0  0  0  0  0  0  0  0
  -22.3760   -9.4380   20.3950 C   0  0  0  0  0  3  0  0  0  0  0  0
  -23.1760  -10.5760   20.2050 C   0  0  0  0  0  3  0  0  0  0  0  0
  -21.9180   -7.3540   21.4160 O   0  0  0  0  0  0  0  0  0  0  0  0
  -21.8060   -6.6370   22.5800 C   0  0  0  0  0  0  0  0  0  0  0  0
  -21.3610   -7.2310   23.7810 C   0  0  0  0  0  3  0  0  0  0  0  0
  -21.1950   -6.4420   24.9370 C   0  0  0  0  0  3  0  0  0  0  0  0
  -21.4630   -5.0610   24.8930 C   0  0  0  0  0  0  0  0  0  0  0  0
  -21.9030   -4.4670   23.6960 C   0  0  0  0  0  3  0  0  0  0  0  0
  -22.0720   -5.2530   22.5440 C   0  0  0  0  0  0  0  0  0  0  0  0
  -22.4750   -4.6710   21.3870 F   0  0  0  0  0  0  0  0  0  0  0  0
  -21.2980   -4.3020   26.0000 F   0  0  0  0  0  0  0  0  0  0  0  0
  -23.4680  -13.9090   21.2040 C   0  0  0  0  0  0  0  0  0  0  0  0
  -22.7440  -13.2440   22.1000 N   0  0  0  0  0  0  0  0  0  0  0  0
  -23.0750  -14.9750   20.7320 O   0  0  0  0  0  0  0  0  0  0  0  0
  -23.0760  -12.3790   22.5010 H   0  0  0  0  0  0  0  0  0  0  0  0
  -21.8450  -13.6040   22.3880 H   0  0  0  0  0  0  0  0  0  0  0  0
  -26.1660  -15.4070   20.2820 N   0  0  0  0  0  0  0  0  0  0  0  0
  -25.4580  -16.1120   20.4500 H   0  0  0  0  0  0  0  0  0  0  0  0
  -27.0220  -15.7870   19.8970 H   0  0  0  0  0  0  0  0  0  0  0  0
  1  2  1  0
  2 11  1  0
  2  4  2  0
  3  1  2  0
  3  6  1  0
  4  5  1  0
  6 58  1  0
  6  4  1  0
  8  9  1  0
  9  7  1  0
  9  3  1  0
 11 10  1  0
 12 15  1  0
 12 11  1  0
 13 12  1  0
 14 12  1  0
 16 17  1  0
 16 15  1  0
 18 29  2  0
 19 17  1  0
 19 24  1  0
 20 28  1  0
 20 30  1  0
 21 23  1  0
 22 28  1  0
 23 24  2  0
 23 22  1  0
 25 19  2  0
 26 25  1  0
 26 21  2  0
 27 21  1  0
 27 20  1  0
 28 18  1  0
 30 32  2  0
 31 30  1  0
 33 31  1  0
 34 43  2  0
 34 39  1  0
 35 31  1  0
 35 39  1  0
 36 35  1  0
 37 38  1  0
 37 36  1  0
 38 34  1  0
 39 40  2  0
 40 41  1  0
 42 41  2  0
 43 42  1  0
 44 18  1  0
 44 45  1  0
 44 54  1  0
 45 48  1  0
 46 50  1  0
 46 45  1  0
 47 46  2  0
 50 49  1  0
 52 53  1  0
 52 50  1  0
 52 51  1  0
 54 57  1  1
 54 55  1  0
 56 54  1  0
 59 67  1  0
 60 65  1  0
 61 62  1  0
 61 60  1  0
 63 62  1  0
 63 72  1  0
 63 64  1  0
 65 59  1  0
 65 64  1  0
 66 59  2  0
 67 68  1  0
 67 58  1  0
 69 70  2  0
 70 89  1  0
 71 70  1  0
 71 74  1  0
 72 73  1  0
 72 69  1  0
 73 71  2  0
 74 75  1  0
 75 76  2  0
 77 80  1  0
 77 76  1  0
 78 77  2  0
 79 78  1  0
 79 74  2  0
 80 81  1  0
 81 82  1  0
 82 83  2  0
 84 83  1  0
 84 88  1  0
 85 84  2  0
 86 81  2  0
 86 85  1  0
 87 86  1  0
 89 90  1  0
 90 93  1  0
 90 92  1  0
 91 89  2  0
 94 69  1  0
 94 95  1  0
 96 94  1  0
M  ISO  4  16 101  17 101  59 100  67 100
M  END
>  <TORSDO>  (18) 
F 22

>  <SCORE>  (18) 
-11.252

>  <name>  (18) 
17

>  <ligand_id>  (18) 
17

>  <original_smiles>  (18) 
[H]c1c([H])c([H])c2c(c1[H])C([H])([H])C([H])([H])C([H])([H])C2([H])N([H])C(=O)C1([H])N(C(=O)C([H])(N([H])C(=O)C([H])(N([H])C([H])([H])[H])C([H])([H])[H])C(C([H])([H])[H])(C([H])([H])[H])C([H])([H])[H])C([H])([H])c2c([H])c(OC([H])([H])C([H])([H])[N+]([H])([H])C([H])(c3c([H])c(C([H])(C([H])([H])[H])C([H])([H])[H])n(C([H])([H])N([H])C(=O)N4C([H])([H])C([H])([H])C([H])([H])C([H])(n5nc(-c6c([H])c([H])c(Oc7c([H])c([H])c(F)c([H])c7F)c([H])c6[H])c(C(=O)N([H])[H])c5N([H])[H])C4([H])[H])c3C([H])([H])[H])C([H])([H])[H])c([H])c([H])c2C1([H])[H]

>  <smiles>  (18) 
[H]c1c([H])c([H])c2c(c1[H])C([H])([H])C([H])([H])C([H])([H])C2([H])N([H])C(=O)C1([H])N(C(=O)C([H])(N([H])C(=O)C([H])(N([H])C([H])([H])[H])C([H])([H])[H])C(C([H])([H])[H])(C([H])([H])[H])C([H])([H])[H])C([H])([H])c2c([H])c(OC([H])([H])C([H])([H])[N+]([H])([H])C([H])(c3c([H])c(C([H])(C([H])([H])[H])C([H])([H])[H])n(C([H])([H])N([H])C(=O)N4C([H])([H])C([H])([H])C([H])([H])C([H])(n5nc(-c6c([H])c([H])c(Oc7c([H])c([H])c(F)c([H])c7F)c([H])c6[H])c(C(=O)N([H])[H])c5N([H])[H])C4([H])[H])c3C([H])([H])[H])C([H])([H])[H])c([H])c([H])c2C1([H])[H]

$$$$
18:0:0
     RDKit          3D

 95104  0  0  1  0  0  0  0  0999 V2000
  -28.1300  -23.9880   19.1760 C   0  0  0  0  0  3  0  0  0  0  0  0
  -29.1200  -22.9600   21.4650 C   0  0  0  0  0  3  0  0  0  0  0  0
  -29.0860  -21.9790   20.4060 C   0  0  0  0  0  0  0  0  0  0  0  0
  -28.4880  -22.5800   19.2380 C   0  0  0  0  0  0  0  0  0  0  0  0
  -28.3050  -24.8900   20.2690 C   0  0  0  0  0  0  0  0  0  0  0  0
  -28.2840  -21.7630   17.9750 C   0  0  0  0  0  1  0  0  0  0  0  0
  -28.7900  -24.3060   21.4010 N   0  0  0  0  0  0  0  0  0  0  0  0
  -32.0090  -21.4810   21.3010 C   0  0  0  0  0  2  0  0  0  0  0  0
  -30.8580  -20.5570   21.6990 C   0  0  0  0  0  2  0  0  0  0  0  0
  -32.0910  -21.3190   19.7800 C   0  0  0  0  0  2  0  0  0  0  0  0
  -29.9050  -20.5190   20.4740 C   0  0  2  0  0  0  0  0  0  0  0  0
  -30.8820  -20.5770   19.3610 N   0  0  0  0  0  4  0  0  0  0  0  0
  -31.1730  -19.6410   19.1330 H   0  0  0  0  0  0  0  0  0  0  0  0
  -30.4840  -20.9820   18.5300 H   0  0  0  0  0  0  0  0  0  0  0  0
  -29.2470  -18.9690   20.4540 C   0  0  0  0  0  3  0  0  0  0  0  0
  -30.2120  -17.5830   20.4780 C   0  0  0  0  0  3  0  0  0  0  0  0
  -30.5120  -14.9130   20.3440 C   0  0  0  0  0  0  0  0  0  0  0  0
  -30.3590  -12.5960   19.3680 C   0  0  0  0  0  2  0  0  0  0  0  0
  -29.4160  -12.6040   18.1440 C   0  0  0  0  0  2  0  0  0  0  0  0
  -27.9550  -12.4010   18.5870 C   0  0  0  0  0  2  0  0  0  0  0  0
  -27.5660  -13.3010   19.7910 C   0  0  0  0  0  3  0  0  0  0  0  0
  -28.6320  -13.2740   20.9060 C   0  0  0  0  0  2  0  0  0  0  0  0
  -29.9030  -13.6690   20.2900 N   0  0  0  0  0  0  0  0  0  0  0  0
  -31.7090  -14.9870   20.0470 O   0  0  0  0  0  0  0  0  0  0  0  0
  -29.7500  -16.0880   20.5180 N   0  0  0  0  0  0  0  0  0  0  0  0
  -28.7710  -15.9320   20.7110 H   0  0  0  0  0  0  0  0  0  0  0  0
  -25.1920  -13.8680   20.5600 C   0  0  0  0  0  0  0  0  0  0  0  0
  -24.1330  -13.0860   20.9310 C   0  0  0  0  0  0  0  0  0  0  0  0
  -24.6010  -11.7360   20.8780 C   0  0  0  0  0  0  0  0  0  0  0  0
  -26.2330  -12.9960   20.2970 N   0  0  0  0  0  0  0  0  0  0  0  0
  -25.8880  -11.7070   20.5540 N   0  0  0  0  0  0  0  0  0  0  0  0
  -23.8790  -10.4710   21.0580 C   0  0  0  0  0  0  0  0  0  0  0  0
  -24.3070   -9.5020   21.9930 C   0  0  0  0  0  3  0  0  0  0  0  0
  -23.5830   -8.3010   22.1610 C   0  0  0  0  0  3  0  0  0  0  0  0
  -22.4180   -8.0610   21.3940 C   0  0  0  0  0  0  0  0  0  0  0  0
  -22.0110   -9.0180   20.4480 C   0  0  0  0  0  3  0  0  0  0  0  0
  -22.7350  -10.2100   20.2780 C   0  0  0  0  0  3  0  0  0  0  0  0
  -21.6680   -6.9120   21.4710 O   0  0  0  0  0  0  0  0  0  0  0  0
  -21.5940   -6.1770   22.6270 C   0  0  0  0  0  0  0  0  0  0  0  0
  -21.1040   -6.7280   23.8310 C   0  0  0  0  0  3  0  0  0  0  0  0
  -20.9810   -5.9180   24.9770 C   0  0  0  0  0  3  0  0  0  0  0  0
  -21.3370   -4.5570   24.9200 C   0  0  0  0  0  0  0  0  0  0  0  0
  -21.8180   -4.0050   23.7210 C   0  0  0  0  0  3  0  0  0  0  0  0
  -21.9440   -4.8120   22.5760 C   0  0  0  0  0  0  0  0  0  0  0  0
  -22.3890   -4.2700   21.4170 F   0  0  0  0  0  0  0  0  0  0  0  0
  -21.2110   -3.7760   26.0190 F   0  0  0  0  0  0  0  0  0  0  0  0
  -22.7390  -13.5570   21.2210 C   0  0  0  0  0  0  0  0  0  0  0  0
  -22.0220  -12.8530   22.0890 N   0  0  0  0  0  0  0  0  0  0  0  0
  -22.2920  -14.5840   20.7120 O   0  0  0  0  0  0  0  0  0  0  0  0
  -22.3950  -12.0220   22.5230 H   0  0  0  0  0  0  0  0  0  0  0  0
  -21.0860  -13.1500   22.3250 H   0  0  0  0  0  0  0  0  0  0  0  0
  -25.3490  -15.2420   20.3970 N   0  0  0  0  0  0  0  0  0  0  0  0
  -24.5750  -15.8880   20.5160 H   0  0  0  0  0  0  0  0  0  0  0  0
  -26.1800  -15.6870   20.0290 H   0  0  0  0  0  0  0  0  0  0  0  0
  -28.3000  -26.3460   20.2100 O   0  0  0  0  0  0  0  0  0  0  0  0
  -24.6220  -31.9060   23.2420 C   0  0  0  0  0  0  0  0  0  0  0  0
  -27.1840  -27.2360   20.1940 C   0  0  0  0  0  0  0  0  0  0  0  0
  -23.4100  -30.5210   21.5970 C   0  0  0  0  0  3  0  0  0  0  0  0
  -24.8490  -28.9410   20.1700 C   0  0  0  0  0  0  0  0  0  0  0  0
  -25.9600  -30.7880   21.4260 C   0  0  0  0  0  2  0  0  0  0  0  0
  -26.0240  -29.3990   20.7770 C   0  0  0  0  0  0  0  0  0  0  0  0
  -27.1900  -28.5600   20.7750 C   0  0  0  0  0  3  0  0  0  0  0  0
  -25.9860  -26.8550   19.5560 C   0  0  0  0  0  3  0  0  0  0  0  0
  -24.8370  -27.6800   19.5480 C   0  0  0  0  0  3  0  0  0  0  0  0
  -23.6250  -29.8400   20.2170 C   0  0  0  0  0  2  0  0  0  0  0  0
  -24.6840  -31.0930   22.1440 N   0  0  0  0  0  0  0  0  0  0  0  0
  -23.5400  -32.1940   23.7740 O   0  0  0  0  0  0  0  0  0  0  0  0
  -22.7310  -29.5150   22.5580 C   0  0  0  0  0  0  0  0  0  0  0  0
  -21.4030  -29.3480   22.4270 N   0  0  0  0  0  0  0  0  0  0  0  0
  -23.4000  -28.8850   23.3810 O   0  0  0  0  0  0  0  0  0  0  0  0
  -20.9220  -29.9070   21.7380 H   0  0  0  0  0  0  0  0  0  0  0  0
  -18.0160  -28.1730   22.9270 C   0  0  0  0  0  0  0  0  0  0  0  0
  -20.5760  -28.4130   23.1950 C   0  0  0  0  0  3  0  0  0  0  0  0
  -20.6670  -26.9840   22.6140 C   0  0  0  0  0  2  0  0  0  0  0  0
  -19.5620  -26.6740   21.5990 C   0  0  0  0  0  2  0  0  0  0  0  0
  -18.1820  -26.8260   22.2440 C   0  0  0  0  0  2  0  0  0  0  0  0
  -19.1400  -28.9260   23.3590 C   0  0  0  0  0  0  0  0  0  0  0  0
  -18.9300  -30.1860   23.9580 C   0  0  0  0  0  3  0  0  0  0  0  0
  -17.6290  -30.6950   24.1300 C   0  0  0  0  0  3  0  0  0  0  0  0
  -16.5190  -29.9390   23.7140 C   0  0  0  0  0  3  0  0  0  0  0  0
  -16.7130  -28.6800   23.1170 C   0  0  0  0  0  3  0  0  0  0  0  0
  -25.9070  -32.5300   23.8690 C   0  0  0  0  0  3  0  0  0  0  0  0
  -26.4190  -31.7490   25.1430 C   0  0  1  0  0  0  0  0  0  0  0  0
  -25.3230  -31.5100   26.2090 C   0  0  0  0  0  1  0  0  0  0  0  0
  -26.9960  -30.3710   24.7460 C   0  0  0  0  0  1  0  0  0  0  0  0
  -27.5720  -32.5340   25.8100 C   0  0  0  0  0  1  0  0  0  0  0  0
  -25.6030  -33.9280   24.2140 N   0  0  0  0  0  0  0  0  0  0  0  0
  -25.9130  -34.9870   23.4530 C   0  0  0  0  0  0  0  0  0  0  0  0
  -26.5520  -34.8890   22.4020 O   0  0  0  0  0  0  0  0  0  0  0  0
  -25.0330  -34.0770   25.0340 H   0  0  0  0  0  0  0  0  0  0  0  0
  -24.1610  -36.7720   23.1790 C   0  0  0  0  0  1  0  0  0  0  0  0
  -25.4400  -36.3740   23.9330 C   0  0  0  0  0  3  0  0  0  0  0  0
  -27.6010  -37.2750   24.6730 C   0  0  0  0  0  1  0  0  0  0  0  0
  -26.4610  -37.4320   23.7740 N   0  0  0  0  0  0  0  0  0  0  0  0
  -26.0550  -38.3500   23.9330 H   0  0  0  0  0  0  0  0  0  0  0  0
  1  4  2  0
  1  5  1  0
  3 11  1  0
  3  2  2  0
  4  3  1  0
  5  7  2  0
  6  4  1  0
  7  2  1  0
  8  9  1  0
 10  8  1  0
 11 15  1  6
 11  9  1  0
 12 10  1  0
 12 11  1  0
 13 12  1  0
 14 12  1  0
 15 16  2  0
 16 25  1  0
 17 25  1  0
 18 23  1  0
 19 20  1  0
 19 18  1  0
 21 20  1  0
 21 30  1  0
 21 22  1  0
 23 17  1  0
 23 22  1  0
 24 17  2  0
 25 26  1  0
 27 28  2  0
 28 47  1  0
 29 28  1  0
 29 32  1  0
 30 31  1  0
 30 27  1  0
 31 29  2  0
 32 33  1  0
 33 34  2  0
 35 38  1  0
 35 34  1  0
 36 35  2  0
 37 36  1  0
 37 32  2  0
 38 39  1  0
 39 40  1  0
 40 41  2  0
 42 41  1  0
 42 46  1  0
 43 42  2  0
 44 39  2  0
 44 43  1  0
 45 44  1  0
 47 48  1  0
 48 51  1  0
 48 50  1  0
 49 47  2  0
 52 53  1  0
 52 27  1  0
 54 52  1  0
 55  5  1  0
 56 67  2  0
 57 55  1  0
 57 62  1  0
 58 66  1  0
 58 68  1  0
 59 65  1  0
 59 61  1  0
 60 66  1  0
 61 60  1  0
 62 61  2  0
 63 57  2  0
 64 63  1  0
 64 59  2  0
 65 58  1  0
 66 56  1  0
 68 70  2  0
 69 68  1  0
 71 69  1  0
 72 81  2  0
 72 77  1  0
 73 69  1  0
 73 77  1  0
 74 73  1  0
 75 76  1  0
 75 74  1  0
 76 72  1  0
 77 78  2  0
 78 79  1  0
 80 79  2  0
 81 80  1  0
 82 56  1  0
 82 87  1  0
 82 83  1  0
 83 86  1  1
 83 84  1  0
 85 83  1  0
 87 90  1  0
 88 92  1  0
 88 87  1  0
 89 88  2  0
 92 91  1  0
 94 92  1  0
 94 95  1  0
 94 93  1  0
M  ISO  4   5 101  17 100  25 100  55 101
M  END
>  <TORSDO>  (19) 
F 19

>  <SCORE>  (19) 
-14.461

>  <name>  (19) 
18

>  <ligand_id>  (19) 
18

>  <original_smiles>  (19) 
[H]c1nc(Oc2c([H])c([H])c3c(c2[H])C([H])([H])N(C(=O)C([H])(N([H])C(=O)C([H])(N([H])C([H])([H])[H])C([H])([H])[H])C(C([H])([H])[H])(C([H])([H])[H])C([H])([H])[H])C([H])(C(=O)N([H])C2([H])c4c([H])c([H])c([H])c([H])c4C([H])([H])C([H])([H])C2([H])[H])C3([H])[H])c([H])c(C([H])([H])[H])c1C1(C([H])([H])C([H])([H])N([H])C(=O)N2C([H])([H])C([H])([H])C([H])([H])C([H])(n3nc(-c4c([H])c([H])c(Oc5c([H])c([H])c(F)c([H])c5F)c([H])c4[H])c(C(=O)N([H])[H])c3N([H])[H])C2([H])[H])C([H])([H])C([H])([H])C([H])([H])[N+]1([H])[H]

>  <smiles>  (19) 
[H]c1nc(Oc2c([H])c([H])c3c(c2[H])C([H])([H])N(C(=O)C([H])(N([H])C(=O)C([H])(N([H])C([H])([H])[H])C([H])([H])[H])C(C([H])([H])[H])(C([H])([H])[H])C([H])([H])[H])C([H])(C(=O)N([H])C2([H])c4c([H])c([H])c([H])c([H])c4C([H])([H])C([H])([H])C2([H])[H])C3([H])[H])c([H])c(C([H])([H])[H])c1C1(C([H])([H])C([H])([H])N([H])C(=O)N2C([H])([H])C([H])([H])C([H])([H])C([H])(n3nc(-c4c([H])c([H])c(Oc5c([H])c([H])c(F)c([H])c5F)c([H])c4[H])c(C(=O)N([H])[H])c3N([H])[H])C2([H])[H])C([H])([H])C([H])([H])C([H])([H])[N+]1([H])[H]

$$$$
19:0:0
     RDKit          3D

 96105  0  0  1  0  0  0  0  0999 V2000
  -27.7000  -21.5600   18.3820 C   0  0  0  0  0  3  0  0  0  0  0  0
  -29.4010  -23.0740   19.1780 C   0  0  0  0  0  3  0  0  0  0  0  0
  -26.8460  -22.6630   18.2650 C   0  0  0  0  0  3  0  0  0  0  0  0
  -29.0170  -21.7400   18.8450 C   0  0  0  0  0  0  0  0  0  0  0  0
  -28.4810  -24.1500   18.9980 C   0  0  0  0  0  0  0  0  0  0  0  0
  -27.2300  -23.9210   18.5450 N   0  0  0  0  0  0  0  0  0  0  0  0
  -29.9840  -20.5330   18.8890 C   0  0  0  0  0  2  0  0  0  0  0  0
  -29.3360  -19.1930   19.3810 C   0  0  0  0  0  2  0  0  0  0  0  0
  -30.1860  -17.8840   19.3180 C   0  0  0  0  0  0  0  0  0  0  0  0
  -31.1970  -17.8340   18.6150 O   0  0  0  0  0  0  0  0  0  0  0  0
  -31.9600  -16.2170   21.3440 C   0  0  0  0  0  2  0  0  0  0  0  0
  -31.5230  -17.4620   22.1660 C   0  0  0  0  0  2  0  0  0  0  0  0
  -29.0800  -17.0930   21.5030 C   0  0  0  0  0  2  0  0  0  0  0  0
  -29.7170  -16.6360   20.1580 C   0  0  0  0  0  3  0  0  0  0  0  0
  -30.7670  -15.5480   20.6250 C   0  0  0  0  0  3  0  0  0  0  0  0
  -30.0780  -17.4800   22.5450 N   0  0  0  0  0  4  0  0  0  0  0  0
  -29.8480  -18.3970   22.8950 H   0  0  0  0  0  0  0  0  0  0  0  0
  -29.9550  -16.8520   23.3260 H   0  0  0  0  0  0  0  0  0  0  0  0
  -31.1390  -14.3760   19.6600 C   0  0  0  0  0  0  0  0  0  0  0  0
  -30.6160  -12.2420   18.4960 C   0  0  0  0  0  2  0  0  0  0  0  0
  -29.5630  -12.4670   17.3890 C   0  0  0  0  0  2  0  0  0  0  0  0
  -28.1370  -12.3750   17.9590 C   0  0  0  0  0  2  0  0  0  0  0  0
  -27.9590  -13.2240   19.2450 C   0  0  0  0  0  3  0  0  0  0  0  0
  -29.1030  -12.9470   20.2440 C   0  0  0  0  0  2  0  0  0  0  0  0
  -30.3850  -13.2350   19.5650 N   0  0  0  0  0  0  0  0  0  0  0  0
  -32.1630  -14.5110   18.9870 O   0  0  0  0  0  0  0  0  0  0  0  0
  -25.6830  -13.9440   20.2020 C   0  0  0  0  0  0  0  0  0  0  0  0
  -24.6140  -13.2270   20.6600 C   0  0  0  0  0  0  0  0  0  0  0  0
  -24.9870  -11.8520   20.5580 C   0  0  0  0  0  0  0  0  0  0  0  0
  -26.6450  -13.0120   19.8460 N   0  0  0  0  0  0  0  0  0  0  0  0
  -26.2370  -11.7460   20.1210 N   0  0  0  0  0  0  0  0  0  0  0  0
  -24.2090  -10.6330   20.7960 C   0  0  0  0  0  0  0  0  0  0  0  0
  -24.6210   -9.6660   21.7390 C   0  0  0  0  0  3  0  0  0  0  0  0
  -23.8450   -8.5080   21.9610 C   0  0  0  0  0  3  0  0  0  0  0  0
  -22.6440   -8.3090   21.2420 C   0  0  0  0  0  0  0  0  0  0  0  0
  -22.2510   -9.2630   20.2860 C   0  0  0  0  0  3  0  0  0  0  0  0
  -23.0270  -10.4120   20.0630 C   0  0  0  0  0  3  0  0  0  0  0  0
  -21.8400   -7.2030   21.3740 O   0  0  0  0  0  0  0  0  0  0  0  0
  -21.7280   -6.5330   22.5660 C   0  0  0  0  0  0  0  0  0  0  0  0
  -21.3050   -7.1800   23.7470 C   0  0  0  0  0  3  0  0  0  0  0  0
  -21.1380   -6.4390   24.9340 C   0  0  0  0  0  3  0  0  0  0  0  0
  -21.3830   -5.0520   24.9410 C   0  0  0  0  0  0  0  0  0  0  0  0
  -21.7980   -4.4060   23.7630 C   0  0  0  0  0  3  0  0  0  0  0  0
  -21.9670   -5.1440   22.5780 C   0  0  0  0  0  0  0  0  0  0  0  0
  -22.3460   -4.5110   21.4420 F   0  0  0  0  0  0  0  0  0  0  0  0
  -21.2150   -4.3400   26.0780 F   0  0  0  0  0  0  0  0  0  0  0  0
  -23.2800  -13.7780   21.0760 C   0  0  0  0  0  0  0  0  0  0  0  0
  -22.6180  -13.1270   22.0240 N   0  0  0  0  0  0  0  0  0  0  0  0
  -22.8410  -14.8200   20.5880 O   0  0  0  0  0  0  0  0  0  0  0  0
  -22.9910  -12.2820   22.4340 H   0  0  0  0  0  0  0  0  0  0  0  0
  -21.7230  -13.4710   22.3440 H   0  0  0  0  0  0  0  0  0  0  0  0
  -25.9120  -15.3070   20.0320 N   0  0  0  0  0  0  0  0  0  0  0  0
  -25.1730  -15.9780   20.2050 H   0  0  0  0  0  0  0  0  0  0  0  0
  -26.6390  -15.6680   19.4280 H   0  0  0  0  0  0  0  0  0  0  0  0
  -28.8900  -25.6510   19.0560 C   0  0  0  0  0  2  0  0  0  0  0  0
  -28.4540  -26.4800   20.1630 O   0  0  0  0  0  0  0  0  0  0  0  0
  -24.5180  -31.6200   23.1710 C   0  0  0  0  0  0  0  0  0  0  0  0
  -27.2920  -27.2380   20.0690 C   0  0  0  0  0  0  0  0  0  0  0  0
  -23.5220  -29.9800   21.6110 C   0  0  0  0  0  3  0  0  0  0  0  0
  -24.9080  -28.7690   19.9590 C   0  0  0  0  0  0  0  0  0  0  0  0
  -25.9160  -30.6630   21.3090 C   0  0  0  0  0  2  0  0  0  0  0  0
  -26.0520  -29.3050   20.5930 C   0  0  0  0  0  0  0  0  0  0  0  0
  -27.2360  -28.5280   20.6590 C   0  0  0  0  0  3  0  0  0  0  0  0
  -26.1260  -26.7330   19.4550 C   0  0  0  0  0  3  0  0  0  0  0  0
  -24.9400  -27.4830   19.4040 C   0  0  0  0  0  3  0  0  0  0  0  0
  -23.6010  -29.5230   20.1340 C   0  0  0  0  0  2  0  0  0  0  0  0
  -24.6210  -30.8810   22.0310 N   0  0  0  0  0  0  0  0  0  0  0  0
  -23.4210  -31.8370   23.7010 O   0  0  0  0  0  0  0  0  0  0  0  0
  -22.6340  -29.1770   22.5860 C   0  0  0  0  0  0  0  0  0  0  0  0
  -21.3460  -28.9870   22.2860 N   0  0  0  0  0  0  0  0  0  0  0  0
  -23.1410  -28.6130   23.5710 O   0  0  0  0  0  0  0  0  0  0  0  0
  -20.9490  -29.4430   21.4770 H   0  0  0  0  0  0  0  0  0  0  0  0
  -17.9830  -27.7330   22.6920 C   0  0  0  0  0  0  0  0  0  0  0  0
  -20.5120  -28.0340   23.0210 C   0  0  0  0  0  3  0  0  0  0  0  0
  -20.6650  -26.6050   22.4490 C   0  0  0  0  0  2  0  0  0  0  0  0
  -19.5990  -26.2670   21.4060 C   0  0  0  0  0  2  0  0  0  0  0  0
  -18.2010  -26.3870   22.0180 C   0  0  0  0  0  2  0  0  0  0  0  0
  -19.0710  -28.5160   23.1460 C   0  0  0  0  0  0  0  0  0  0  0  0
  -18.8260  -29.7700   23.7430 C   0  0  0  0  0  3  0  0  0  0  0  0
  -17.5120  -30.2470   23.8880 C   0  0  0  0  0  3  0  0  0  0  0  0
  -16.4310  -29.4640   23.4460 C   0  0  0  0  0  3  0  0  0  0  0  0
  -16.6660  -28.2090   22.8540 C   0  0  0  0  0  3  0  0  0  0  0  0
  -25.7730  -32.2690   23.8290 C   0  0  0  0  0  3  0  0  0  0  0  0
  -25.4420  -33.6640   24.1500 N   0  0  0  0  0  0  0  0  0  0  0  0
  -25.7670  -34.7160   23.3860 C   0  0  0  0  0  0  0  0  0  0  0  0
  -26.4430  -34.6120   22.3600 O   0  0  0  0  0  0  0  0  0  0  0  0
  -24.8450  -33.8160   24.9500 H   0  0  0  0  0  0  0  0  0  0  0  0
  -24.0120  -36.4760   23.0120 C   0  0  0  0  0  1  0  0  0  0  0  0
  -25.2590  -36.1000   23.8290 C   0  0  0  0  0  3  0  0  0  0  0  0
  -27.3780  -37.0240   24.6590 C   0  0  0  0  0  1  0  0  0  0  0  0
  -26.2780  -37.1680   23.7060 N   0  0  0  0  0  0  0  0  0  0  0  0
  -25.8570  -38.0840   23.8430 H   0  0  0  0  0  0  0  0  0  0  0  0
  -26.2620  -31.5010   25.1170 C   0  0  1  0  0  0  0  0  0  0  0  0
  -25.1470  -31.2530   26.1580 C   0  0  0  0  0  1  0  0  0  0  0  0
  -26.8620  -30.1280   24.7340 C   0  0  0  0  0  1  0  0  0  0  0  0
  -27.3910  -32.3020   25.8060 C   0  0  0  0  0  1  0  0  0  0  0  0
  1  4  1  0
  3  1  2  0
  3  6  1  0
  4  7  1  0
  4  2  2  0
  5 55  1  0
  5  2  1  0
  6  5  2  0
  7  8  1  0
  9  8  1  0
 10  9  2  0
 11 12  1  0
 12 16  1  0
 13 16  1  0
 14  9  1  0
 14 15  1  0
 14 13  1  0
 15 19  1  0
 15 11  1  0
 16 17  1  0
 16 18  1  0
 20 25  1  0
 21 22  1  0
 21 20  1  0
 23 22  1  0
 23 30  1  0
 23 24  1  0
 25 19  1  0
 25 24  1  0
 26 19  2  0
 27 28  2  0
 28 47  1  0
 29 28  1  0
 29 32  1  0
 30 31  1  0
 30 27  1  0
 31 29  2  0
 32 33  1  0
 33 34  2  0
 35 38  1  0
 35 34  1  0
 36 35  2  0
 37 36  1  0
 37 32  2  0
 38 39  1  0
 39 44  2  0
 39 40  1  0
 40 41  2  0
 41 42  1  0
 42 46  1  0
 43 42  2  0
 44 43  1  0
 45 44  1  0
 47 48  1  0
 48 51  1  0
 48 50  1  0
 49 47  2  0
 52 27  1  0
 52 53  1  0
 54 52  1  0
 55 56  1  0
 57 68  2  0
 58 56  1  0
 58 63  1  0
 59 67  1  0
 59 69  1  0
 60 66  1  0
 60 62  1  0
 61 67  1  0
 62 63  2  0
 62 61  1  0
 64 58  2  0
 65 64  1  0
 65 60  2  0
 66 59  1  0
 67 57  1  0
 69 71  2  0
 70 69  1  0
 72 70  1  0
 73 82  2  0
 73 78  1  0
 74 70  1  0
 74 78  1  0
 75 74  1  0
 76 77  1  0
 76 75  1  0
 77 73  1  0
 78 79  2  0
 79 80  1  0
 81 80  2  0
 82 81  1  0
 83 57  1  0
 83 84  1  0
 83 93  1  0
 84 87  1  0
 85 89  1  0
 85 84  1  0
 86 85  2  0
 89 88  1  0
 91 89  1  0
 91 92  1  0
 91 90  1  0
 93 96  1  1
 93 94  1  0
 95 93  1  0
M  ISO  4  15 100  19 100  55 101  56 101
M  END
>  <TORSDO>  (20) 
F 21

>  <SCORE>  (20) 
-11.673

>  <name>  (20) 
19

>  <ligand_id>  (20) 
19

>  <original_smiles>  (20) 
[H]c1nc(C([H])([H])Oc2c([H])c([H])c3c(c2[H])C([H])([H])N(C(=O)C([H])(N([H])C(=O)C([H])(N([H])C([H])([H])[H])C([H])([H])[H])C(C([H])([H])[H])(C([H])([H])[H])C([H])([H])[H])C([H])(C(=O)N([H])C2([H])c4c([H])c([H])c([H])c([H])c4C([H])([H])C([H])([H])C2([H])[H])C3([H])[H])c([H])c(C([H])([H])C([H])([H])C(=O)C2([H])C([H])(C(=O)N3C([H])([H])C([H])([H])C([H])([H])C([H])(n4nc(-c5c([H])c([H])c(Oc6c([H])c([H])c(F)c([H])c6F)c([H])c5[H])c(C(=O)N([H])[H])c4N([H])[H])C3([H])[H])C([H])([H])C([H])([H])[N+]([H])([H])C2([H])[H])c1[H]

>  <smiles>  (20) 
[H]c1nc(C([H])([H])Oc2c([H])c([H])c3c(c2[H])C([H])([H])N(C(=O)C([H])(N([H])C(=O)C([H])(N([H])C([H])([H])[H])C([H])([H])[H])C(C([H])([H])[H])(C([H])([H])[H])C([H])([H])[H])C([H])(C(=O)N([H])C2([H])c4c([H])c([H])c([H])c([H])c4C([H])([H])C([H])([H])C2([H])[H])C3([H])[H])c([H])c(C([H])([H])C([H])([H])C(=O)C2([H])C([H])(C(=O)N3C([H])([H])C([H])([H])C([H])([H])C([H])(n4nc(-c5c([H])c([H])c(Oc6c([H])c([H])c(F)c([H])c6F)c([H])c5[H])c(C(=O)N([H])[H])c4N([H])[H])C3([H])[H])C([H])([H])C([H])([H])[N+]([H])([H])C2([H])[H])c1[H]

$$$$
20:0:0
     RDKit          3D

 89 97  0  0  1  0  0  0  0  0999 V2000
  -31.1380  -22.1800   19.4600 C   0  0  0  0  0  2  0  0  0  0  0  0
  -30.0290  -23.1680   19.0780 C   0  0  0  0  0  2  0  0  0  0  0  0
  -30.6680  -21.5230   20.7580 C   0  0  0  0  0  2  0  0  0  0  0  0
  -28.7690  -22.7860   19.8860 C   0  0  0  0  0  3  0  0  0  0  0  0
  -29.2170  -21.3270   20.5900 N   0  0  1  0  0  4  0  0  0  0  0  0
  -28.8230  -21.3380   21.5200 H   0  0  0  0  0  0  0  0  0  0  0  0
  -28.9100  -24.4630   21.9850 C   0  0  0  0  0  1  0  0  0  0  0  0
  -28.2140  -24.3440   20.6250 C   0  0  0  0  0  3  0  0  0  0  0  0
  -28.2760  -25.9330   20.1850 O   0  0  0  0  0  0  0  0  0  0  0  0
  -24.6420  -31.8720   23.2010 C   0  0  0  0  0  0  0  0  0  0  0  0
  -27.2250  -26.9880   20.2290 C   0  0  0  0  0  0  0  0  0  0  0  0
  -23.4530  -30.4560   21.5770 C   0  0  0  0  0  3  0  0  0  0  0  0
  -24.9070  -28.8410   20.1770 C   0  0  0  0  0  0  0  0  0  0  0  0
  -26.0180  -30.6820   21.4210 C   0  0  0  0  0  2  0  0  0  0  0  0
  -26.0960  -29.2660   20.7820 C   0  0  0  0  0  0  0  0  0  0  0  0
  -27.2540  -28.3640   20.7750 C   0  0  0  0  0  3  0  0  0  0  0  0
  -25.9970  -26.7040   19.5920 C   0  0  0  0  0  3  0  0  0  0  0  0
  -24.8820  -27.5790   19.5610 C   0  0  0  0  0  3  0  0  0  0  0  0
  -23.6840  -29.7570   20.2100 C   0  0  0  0  0  2  0  0  0  0  0  0
  -24.7260  -31.0310   22.1210 N   0  0  0  0  0  0  0  0  0  0  0  0
  -23.5510  -32.1610   23.7200 O   0  0  0  0  0  0  0  0  0  0  0  0
  -22.7630  -29.4660   22.5510 C   0  0  0  0  0  0  0  0  0  0  0  0
  -21.4320  -29.2980   22.4310 N   0  0  0  0  0  0  0  0  0  0  0  0
  -23.4300  -28.8480   23.3840 O   0  0  0  0  0  0  0  0  0  0  0  0
  -20.9470  -29.8460   21.7350 H   0  0  0  0  0  0  0  0  0  0  0  0
  -18.0540  -28.0810   22.9470 C   0  0  0  0  0  0  0  0  0  0  0  0
  -20.6130  -28.3640   23.2100 C   0  0  0  0  0  3  0  0  0  0  0  0
  -20.7220  -26.9260   22.6500 C   0  0  0  0  0  2  0  0  0  0  0  0
  -19.6210  -26.5880   21.6370 C   0  0  0  0  0  2  0  0  0  0  0  0
  -18.2400  -26.7290   22.2800 C   0  0  0  0  0  2  0  0  0  0  0  0
  -19.1680  -28.8560   23.3690 C   0  0  0  0  0  0  0  0  0  0  0  0
  -18.9370  -30.1190   23.9560 C   0  0  0  0  0  3  0  0  0  0  0  0
  -17.6290  -30.6090   24.1220 C   0  0  0  0  0  3  0  0  0  0  0  0
  -16.5300  -29.8330   23.7150 C   0  0  0  0  0  3  0  0  0  0  0  0
  -16.7440  -28.5700   23.1320 C   0  0  0  0  0  3  0  0  0  0  0  0
  -25.9090  -32.5260   23.8300 C   0  0  0  0  0  3  0  0  0  0  0  0
  -26.4190  -31.7690   25.1180 C   0  0  1  0  0  0  0  0  0  0  0  0
  -25.3210  -31.5380   26.1840 C   0  0  0  0  0  1  0  0  0  0  0  0
  -27.0070  -30.3880   24.7500 C   0  0  0  0  0  1  0  0  0  0  0  0
  -27.5660  -32.5720   25.7770 C   0  0  0  0  0  1  0  0  0  0  0  0
  -25.5820  -33.9240   24.1600 N   0  0  0  0  0  0  0  0  0  0  0  0
  -25.9060  -34.9850   23.4080 C   0  0  0  0  0  0  0  0  0  0  0  0
  -26.5740  -34.8890   22.3750 O   0  0  0  0  0  0  0  0  0  0  0  0
  -24.9840  -34.0710   24.9590 H   0  0  0  0  0  0  0  0  0  0  0  0
  -24.1670  -36.7750   23.0740 C   0  0  0  0  0  1  0  0  0  0  0  0
  -25.4160  -36.3710   23.8740 C   0  0  0  0  0  3  0  0  0  0  0  0
  -27.5500  -37.2700   24.6930 C   0  0  0  0  0  1  0  0  0  0  0  0
  -26.4420  -37.4310   23.7540 N   0  0  0  0  0  0  0  0  0  0  0  0
  -26.0320  -38.3490   23.9030 H   0  0  0  0  0  0  0  0  0  0  0  0
  -28.9680  -19.7390   20.1020 C   0  0  0  0  0  3  0  0  0  0  0  0
  -29.8920  -18.2320   20.5150 C   0  0  0  0  0  3  0  0  0  0  0  0
  -30.3710  -15.3110   20.2370 C   0  0  0  0  0  0  0  0  0  0  0  0
  -30.3330  -12.8720   19.3390 C   0  0  0  0  0  2  0  0  0  0  0  0
  -29.3970  -12.6630   18.1210 C   0  0  0  0  0  2  0  0  0  0  0  0
  -27.9560  -12.3870   18.5830 C   0  0  0  0  0  2  0  0  0  0  0  0
  -27.5140  -13.3460   19.7160 C   0  0  0  0  0  3  0  0  0  0  0  0
  -28.5780  -13.5010   20.8220 C   0  0  0  0  0  2  0  0  0  0  0  0
  -29.7930  -14.0120   20.1660 N   0  0  0  0  0  0  0  0  0  0  0  0
  -31.5950  -15.3030   20.0470 O   0  0  0  0  0  0  0  0  0  0  0  0
  -29.6120  -16.5870   20.3190 N   0  0  0  0  0  0  0  0  0  0  0  0
  -28.6220  -16.3880   20.3430 H   0  0  0  0  0  0  0  0  0  0  0  0
  -25.1520  -13.8890   20.5000 C   0  0  0  0  0  0  0  0  0  0  0  0
  -24.0970  -13.1070   20.8790 C   0  0  0  0  0  0  0  0  0  0  0  0
  -24.5710  -11.7600   20.8420 C   0  0  0  0  0  0  0  0  0  0  0  0
  -26.1960  -13.0190   20.2420 N   0  0  0  0  0  0  0  0  0  0  0  0
  -25.8600  -11.7320   20.5170 N   0  0  0  0  0  0  0  0  0  0  0  0
  -23.8520  -10.4940   21.0350 C   0  0  0  0  0  0  0  0  0  0  0  0
  -24.2940   -9.5250   21.9620 C   0  0  0  0  0  3  0  0  0  0  0  0
  -23.5730   -8.3260   22.1440 C   0  0  0  0  0  3  0  0  0  0  0  0
  -22.3930   -8.0850   21.4010 C   0  0  0  0  0  0  0  0  0  0  0  0
  -21.9680   -9.0450   20.4640 C   0  0  0  0  0  3  0  0  0  0  0  0
  -22.6900  -10.2350   20.2800 C   0  0  0  0  0  3  0  0  0  0  0  0
  -21.6400   -6.9400   21.4950 O   0  0  0  0  0  0  0  0  0  0  0  0
  -21.6080   -6.1920   22.6440 C   0  0  0  0  0  0  0  0  0  0  0  0
  -21.1970   -6.7410   23.8790 C   0  0  0  0  0  3  0  0  0  0  0  0
  -21.1110   -5.9190   25.0210 C   0  0  0  0  0  3  0  0  0  0  0  0
  -21.4270   -4.5500   24.9300 C   0  0  0  0  0  0  0  0  0  0  0  0
  -21.8310   -4.0010   23.7010 C   0  0  0  0  0  3  0  0  0  0  0  0
  -21.9190   -4.8200   22.5610 C   0  0  0  0  0  0  0  0  0  0  0  0
  -22.2880   -4.2810   21.3730 F   0  0  0  0  0  0  0  0  0  0  0  0
  -21.3370   -3.7590   26.0240 F   0  0  0  0  0  0  0  0  0  0  0  0
  -22.7000  -13.5790   21.1550 C   0  0  0  0  0  0  0  0  0  0  0  0
  -21.9770  -12.8800   22.0220 N   0  0  0  0  0  0  0  0  0  0  0  0
  -22.2600  -14.6050   20.6390 O   0  0  0  0  0  0  0  0  0  0  0  0
  -22.3450  -12.0500   22.4630 H   0  0  0  0  0  0  0  0  0  0  0  0
  -21.0410  -13.1830   22.2530 H   0  0  0  0  0  0  0  0  0  0  0  0
  -25.3090  -15.2610   20.3190 N   0  0  0  0  0  0  0  0  0  0  0  0
  -24.5370  -15.9100   20.4220 H   0  0  0  0  0  0  0  0  0  0  0  0
  -26.1360  -15.6890   19.9250 H   0  0  0  0  0  0  0  0  0  0  0  0
  1  3  1  0
  2  1  1  0
  2  4  1  0
  4  5  1  0
  4  8  1  0
  5  3  1  0
  5  6  1  1
  8  7  1  0
  9 11  1  0
  9  8  1  0
 10 21  2  0
 11 16  1  0
 12 20  1  0
 12 22  1  0
 13 19  1  0
 13 15  1  0
 14 20  1  0
 15 14  1  0
 16 15  2  0
 17 11  2  0
 18 17  1  0
 18 13  2  0
 19 12  1  0
 20 10  1  0
 22 24  2  0
 23 22  1  0
 25 23  1  0
 26 35  2  0
 26 31  1  0
 27 23  1  0
 27 31  1  0
 28 27  1  0
 29 30  1  0
 29 28  1  0
 30 26  1  0
 31 32  2  0
 32 33  1  0
 34 33  2  0
 35 34  1  0
 36 10  1  0
 36 41  1  0
 36 37  1  0
 37 40  1  1
 37 38  1  0
 39 37  1  0
 41 44  1  0
 42 46  1  0
 42 41  1  0
 43 42  2  0
 46 45  1  0
 48 46  1  0
 48 49  1  0
 48 47  1  0
 50 51  2  0
 50  5  1  0
 52 60  1  0
 53 58  1  0
 54 55  1  0
 54 53  1  0
 56 55  1  0
 56 65  1  0
 56 57  1  0
 58 52  1  0
 58 57  1  0
 59 52  2  0
 60 61  1  0
 60 51  1  0
 62 63  2  0
 63 82  1  0
 64 63  1  0
 64 67  1  0
 65 62  1  0
 65 66  1  0
 66 64  2  0
 67 68  1  0
 68 69  2  0
 70 73  1  0
 70 69  1  0
 71 70  2  0
 72 71  1  0
 72 67  2  0
 73 74  1  0
 74 75  1  0
 75 76  2  0
 77 76  1  0
 77 81  1  0
 78 77  2  0
 79 74  2  0
 79 78  1  0
 80 79  1  0
 82 83  1  0
 83 86  1  0
 83 85  1  0
 84 82  2  0
 87 88  1  0
 87 62  1  0
 89 87  1  0
M  ISO  4   8 101   9 101  52 100  60 100
M  END
>  <TORSDO>  (21) 
F 19

>  <SCORE>  (21) 
-16.677

>  <name>  (21) 
20

>  <ligand_id>  (21) 
20

>  <original_smiles>  (21) 
[H]c1c([H])c([H])c2c(c1[H])C([H])([H])C([H])([H])C([H])([H])C2([H])N([H])C(=O)C1([H])N(C(=O)C([H])(N([H])C(=O)C([H])(N([H])C([H])([H])[H])C([H])([H])[H])C(C([H])([H])[H])(C([H])([H])[H])C([H])([H])[H])C([H])([H])c2c([H])c(OC([H])(C([H])([H])[H])C3([H])C([H])([H])C([H])([H])C([H])([H])[N+]3([H])C([H])([H])C([H])([H])N([H])C(=O)N3C([H])([H])C([H])([H])C([H])([H])C([H])(n4nc(-c5c([H])c([H])c(Oc6c([H])c([H])c(F)c([H])c6F)c([H])c5[H])c(C(=O)N([H])[H])c4N([H])[H])C3([H])[H])c([H])c([H])c2C1([H])[H]

>  <smiles>  (21) 
[H]c1c([H])c([H])c2c(c1[H])C([H])([H])C([H])([H])C([H])([H])C2([H])N([H])C(=O)C1([H])N(C(=O)C([H])(N([H])C(=O)C([H])(N([H])C([H])([H])[H])C([H])([H])[H])C(C([H])([H])[H])(C([H])([H])[H])C([H])([H])[H])C([H])([H])c2c([H])c(OC([H])(C([H])([H])[H])C3([H])C([H])([H])C([H])([H])C([H])([H])[N+]3([H])C([H])([H])C([H])([H])N([H])C(=O)N3C([H])([H])C([H])([H])C([H])([H])C([H])(n4nc(-c5c([H])c([H])c(Oc6c([H])c([H])c(F)c([H])c6F)c([H])c5[H])c(C(=O)N([H])[H])c4N([H])[H])C3([H])[H])c([H])c([H])c2C1([H])[H]

$$$$
21:0:0
     RDKit          3D

 90 98  0  0  1  0  0  0  0  0999 V2000
  -28.7600  -21.9520   20.2860 N   0  0  2  0  0  4  0  0  0  0  0  0
  -29.1030  -21.9910   21.2350 H   0  0  0  0  0  0  0  0  0  0  0  0
  -31.0790  -15.7130   19.8690 C   0  0  0  0  0  0  0  0  0  0  0  0
  -30.9420  -13.2920   19.0220 C   0  0  0  0  0  2  0  0  0  0  0  0
  -29.9720  -13.0880   17.8360 C   0  0  0  0  0  2  0  0  0  0  0  0
  -28.5510  -12.8130   18.3500 C   0  0  0  0  0  2  0  0  0  0  0  0
  -28.1470  -13.7790   19.4920 C   0  0  0  0  0  3  0  0  0  0  0  0
  -29.2460  -13.9780   20.5580 C   0  0  0  0  0  2  0  0  0  0  0  0
  -30.4410  -14.4510   19.8450 N   0  0  0  0  0  0  0  0  0  0  0  0
  -32.2910  -15.6390   19.6230 O   0  0  0  0  0  0  0  0  0  0  0  0
  -28.6450  -19.0870   20.3660 C   0  0  0  0  0  2  0  0  0  0  0  0
  -30.7700  -19.9070   20.0470 C   0  0  0  0  0  2  0  0  0  0  0  0
  -29.0470  -17.5620   19.8860 C   0  0  0  0  0  2  0  0  0  0  0  0
  -31.2490  -18.3610   19.6420 C   0  0  0  0  0  2  0  0  0  0  0  0
  -29.2870  -20.4600   19.7630 C   0  0  0  0  0  3  0  0  0  0  0  0
  -30.4720  -17.0590   19.9360 N   0  0  0  0  0  0  0  0  0  0  0  0
  -25.8360  -14.2880   20.4430 C   0  0  0  0  0  0  0  0  0  0  0  0
  -24.8000  -13.4870   20.8350 C   0  0  0  0  0  0  0  0  0  0  0  0
  -25.2610  -12.1430   20.6900 C   0  0  0  0  0  0  0  0  0  0  0  0
  -26.8590  -13.4320   20.0770 N   0  0  0  0  0  0  0  0  0  0  0  0
  -26.5300  -12.1300   20.2930 N   0  0  0  0  0  0  0  0  0  0  0  0
  -24.5450  -10.8700   20.8500 C   0  0  0  0  0  0  0  0  0  0  0  0
  -24.9410   -9.9130   21.8100 C   0  0  0  0  0  3  0  0  0  0  0  0
  -24.2190   -8.7080   21.9600 C   0  0  0  0  0  3  0  0  0  0  0  0
  -23.0890   -8.4520   21.1490 C   0  0  0  0  0  0  0  0  0  0  0  0
  -22.7130   -9.3970   20.1780 C   0  0  0  0  0  3  0  0  0  0  0  0
  -23.4350  -10.5930   20.0260 C   0  0  0  0  0  3  0  0  0  0  0  0
  -22.3420   -7.3000   21.2090 O   0  0  0  0  0  0  0  0  0  0  0  0
  -22.0770   -6.6730   22.4020 C   0  0  0  0  0  0  0  0  0  0  0  0
  -21.3960   -7.3270   23.4510 C   0  0  0  0  0  3  0  0  0  0  0  0
  -21.0840   -6.6250   24.6320 C   0  0  0  0  0  3  0  0  0  0  0  0
  -21.4380   -5.2690   24.7620 C   0  0  0  0  0  0  0  0  0  0  0  0
  -22.1100   -4.6150   23.7140 C   0  0  0  0  0  3  0  0  0  0  0  0
  -22.4250   -5.3140   22.5360 C   0  0  0  0  0  0  0  0  0  0  0  0
  -23.0540   -4.6730   21.5210 F   0  0  0  0  0  0  0  0  0  0  0  0
  -21.1300   -4.5910   25.8910 F   0  0  0  0  0  0  0  0  0  0  0  0
  -23.4260  -13.9470   21.2190 C   0  0  0  0  0  0  0  0  0  0  0  0
  -22.7570  -13.2110   22.1000 N   0  0  0  0  0  0  0  0  0  0  0  0
  -22.9560  -14.9930   20.7740 O   0  0  0  0  0  0  0  0  0  0  0  0
  -23.1520  -12.3640   22.4820 H   0  0  0  0  0  0  0  0  0  0  0  0
  -21.8360  -13.4970   22.3980 H   0  0  0  0  0  0  0  0  0  0  0  0
  -25.9790  -15.6660   20.3380 N   0  0  0  0  0  0  0  0  0  0  0  0
  -25.2150  -16.2950   20.5550 H   0  0  0  0  0  0  0  0  0  0  0  0
  -26.7920  -16.1410   19.9700 H   0  0  0  0  0  0  0  0  0  0  0  0
  -26.7590  -21.4390   21.8280 C   0  0  0  0  0  1  0  0  0  0  0  0
  -26.4690  -21.5590   19.2300 C   0  0  0  0  0  1  0  0  0  0  0  0
  -27.2680  -21.9880   20.4790 C   0  0  0  0  0  3  0  0  0  0  0  0
  -29.1780  -23.4380   19.7210 C   0  0  0  0  0  3  0  0  0  0  0  0
  -28.3360  -24.9540   20.0330 C   0  0  0  0  0  3  0  0  0  0  0  0
  -28.4770  -26.4670   19.5120 O   0  0  0  0  0  0  0  0  0  0  0  0
  -24.7960  -31.9040   23.0810 C   0  0  0  0  0  0  0  0  0  0  0  0
  -27.4160  -27.4750   19.5980 C   0  0  0  0  0  0  0  0  0  0  0  0
  -23.6030  -30.6260   21.3470 C   0  0  0  0  0  3  0  0  0  0  0  0
  -25.0620  -29.2170   19.7580 C   0  0  0  0  0  0  0  0  0  0  0  0
  -26.1510  -30.9580   21.1620 C   0  0  0  0  0  2  0  0  0  0  0  0
  -26.2470  -29.6200   20.3870 C   0  0  0  0  0  0  0  0  0  0  0  0
  -27.4230  -28.7700   20.2880 C   0  0  0  0  0  3  0  0  0  0  0  0
  -26.2030  -27.2080   18.9270 C   0  0  0  0  0  3  0  0  0  0  0  0
  -25.0570  -28.0310   19.0100 C   0  0  0  0  0  3  0  0  0  0  0  0
  -23.8170  -30.0810   19.9090 C   0  0  0  0  0  2  0  0  0  0  0  0
  -24.8710  -31.1820   21.9200 N   0  0  0  0  0  0  0  0  0  0  0  0
  -23.7120  -32.1080   23.6530 O   0  0  0  0  0  0  0  0  0  0  0  0
  -22.9680  -29.5200   22.2290 C   0  0  0  0  0  0  0  0  0  0  0  0
  -21.6430  -29.3200   22.1150 N   0  0  0  0  0  0  0  0  0  0  0  0
  -23.6730  -28.8470   22.9860 O   0  0  0  0  0  0  0  0  0  0  0  0
  -21.1260  -29.9170   21.4840 H   0  0  0  0  0  0  0  0  0  0  0  0
  -18.2960  -28.0300   22.6470 C   0  0  0  0  0  0  0  0  0  0  0  0
  -20.8640  -28.2920   22.8150 C   0  0  0  0  0  3  0  0  0  0  0  0
  -20.9470  -26.9340   22.0780 C   0  0  0  0  0  2  0  0  0  0  0  0
  -19.7970  -26.7150   21.0890 C   0  0  0  0  0  2  0  0  0  0  0  0
  -18.4480  -26.7690   21.8140 C   0  0  0  0  0  2  0  0  0  0  0  0
  -19.4310  -28.7530   23.1040 C   0  0  0  0  0  0  0  0  0  0  0  0
  -19.2320  -29.9340   23.8510 C   0  0  0  0  0  3  0  0  0  0  0  0
  -17.9340  -30.3920   24.1450 C   0  0  0  0  0  3  0  0  0  0  0  0
  -16.8150  -29.6660   23.7030 C   0  0  0  0  0  3  0  0  0  0  0  0
  -16.9970  -28.4870   22.9580 C   0  0  0  0  0  3  0  0  0  0  0  0
  -26.0660  -32.5250   23.7390 C   0  0  0  0  0  3  0  0  0  0  0  0
  -26.6100  -31.6750   24.9530 C   0  0  1  0  0  0  0  0  0  0  0  0
  -25.5350  -31.3410   26.0130 C   0  0  0  0  0  1  0  0  0  0  0  0
  -27.2130  -30.3370   24.4640 C   0  0  0  0  0  1  0  0  0  0  0  0
  -27.7530  -32.4410   25.6590 C   0  0  0  0  0  1  0  0  0  0  0  0
  -25.7260  -33.8870   24.1830 N   0  0  0  0  0  0  0  0  0  0  0  0
  -25.9890  -35.0050   23.4940 C   0  0  0  0  0  0  0  0  0  0  0  0
  -26.6050  -35.0000   22.4260 O   0  0  0  0  0  0  0  0  0  0  0  0
  -25.1740  -33.9610   25.0250 H   0  0  0  0  0  0  0  0  0  0  0  0
  -24.1770  -36.7510   23.3880 C   0  0  0  0  0  1  0  0  0  0  0  0
  -25.4870  -36.3420   24.0790 C   0  0  0  0  0  3  0  0  0  0  0  0
  -27.6350  -37.2670   24.8310 C   0  0  0  0  0  1  0  0  0  0  0  0
  -26.4700  -37.4420   23.9660 N   0  0  0  0  0  0  0  0  0  0  0  0
  -26.0380  -38.3340   24.1940 H   0  0  0  0  0  0  0  0  0  0  0  0
  1 47  1  0
  1  2  1  1
  3 16  1  0
  4  9  1  0
  5  6  1  0
  5  4  1  0
  7  6  1  0
  7 20  1  0
  7  8  1  0
  9  3  1  0
  9  8  1  0
 10  3  2  0
 13 16  1  0
 13 11  1  0
 14 16  1  0
 14 12  1  0
 15 12  1  0
 15  1  1  0
 15 11  1  0
 17 18  2  0
 18 37  1  0
 19 18  1  0
 19 22  1  0
 20 21  1  0
 20 17  1  0
 21 19  2  0
 22 23  1  0
 23 24  2  0
 25 28  1  0
 25 24  1  0
 26 25  2  0
 27 26  1  0
 27 22  2  0
 28 29  1  0
 29 34  2  0
 29 30  1  0
 30 31  2  0
 31 32  1  0
 32 36  1  0
 33 32  2  0
 34 33  1  0
 35 34  1  0
 37 38  1  0
 38 41  1  0
 38 40  1  0
 39 37  2  0
 42 17  1  0
 42 43  1  0
 44 42  1  0
 46 47  1  0
 47 45  1  0
 48 49  2  0
 48  1  1  0
 50 52  1  0
 50 49  1  0
 51 62  2  0
 52 57  1  0
 53 61  1  0
 53 63  1  0
 54 60  1  0
 54 56  1  0
 55 61  1  0
 56 55  1  0
 57 56  2  0
 58 59  1  0
 58 52  2  0
 59 54  2  0
 60 53  1  0
 61 51  1  0
 63 65  2  0
 64 63  1  0
 66 64  1  0
 67 76  2  0
 67 72  1  0
 68 64  1  0
 68 72  1  0
 69 68  1  0
 70 71  1  0
 70 69  1  0
 71 67  1  0
 72 73  2  0
 73 74  1  0
 75 74  2  0
 76 75  1  0
 77 51  1  0
 77 82  1  0
 77 78  1  0
 78 81  1  1
 78 79  1  0
 80 78  1  0
 82 85  1  0
 83 87  1  0
 83 82  1  0
 84 83  2  0
 87 86  1  0
 89 87  1  0
 89 90  1  0
 89 88  1  0
M  ISO  4   3 100  16 100  49 101  50 101
M  END
>  <TORSDO>  (22) 
F 19

>  <SCORE>  (22) 
-10.454

>  <name>  (22) 
21

>  <ligand_id>  (22) 
21

>  <original_smiles>  (22) 
[H]c1c([H])c([H])c2c(c1[H])C([H])([H])C([H])([H])C([H])([H])C2([H])N([H])C(=O)C1([H])N(C(=O)C([H])(N([H])C(=O)C([H])(N([H])C([H])([H])[H])C([H])([H])[H])C(C([H])([H])[H])(C([H])([H])[H])C([H])([H])[H])C([H])([H])c2c([H])c(OC([H])([H])C([H])([H])[N+]([H])(C([H])(C([H])([H])[H])C([H])([H])[H])C3([H])C([H])([H])C([H])([H])N(C(=O)N4C([H])([H])C([H])([H])C([H])([H])C([H])(n5nc(-c6c([H])c([H])c(Oc7c([H])c([H])c(F)c([H])c7F)c([H])c6[H])c(C(=O)N([H])[H])c5N([H])[H])C4([H])[H])C([H])([H])C3([H])[H])c([H])c([H])c2C1([H])[H]

>  <smiles>  (22) 
[H]c1c([H])c([H])c2c(c1[H])C([H])([H])C([H])([H])C([H])([H])C2([H])N([H])C(=O)C1([H])N(C(=O)C([H])(N([H])C(=O)C([H])(N([H])C([H])([H])[H])C([H])([H])[H])C(C([H])([H])[H])(C([H])([H])[H])C([H])([H])[H])C([H])([H])c2c([H])c(OC([H])([H])C([H])([H])[N+]([H])(C([H])(C([H])([H])[H])C([H])([H])[H])C3([H])C([H])([H])C([H])([H])N(C(=O)N4C([H])([H])C([H])([H])C([H])([H])C([H])(n5nc(-c6c([H])c([H])c(Oc7c([H])c([H])c(F)c([H])c7F)c([H])c6[H])c(C(=O)N([H])[H])c5N([H])[H])C4([H])[H])C([H])([H])C3([H])[H])c([H])c([H])c2C1([H])[H]

$$$$
22:0:0
     RDKit          3D

 97105  0  0  1  0  0  0  0  0999 V2000
  -31.3990  -19.4200   20.7770 C   0  0  0  0  0  3  0  0  0  0  0  0
  -31.2660  -17.9990   20.8130 C   0  0  0  0  0  3  0  0  0  0  0  0
  -30.3960  -20.2800   20.2460 C   0  0  0  0  0  0  0  0  0  0  0  0
  -29.2370  -19.6400   19.7430 C   0  0  0  0  0  0  0  0  0  0  0  0
  -29.0470  -18.2240   19.9030 C   0  0  0  0  0  0  0  0  0  0  0  0
  -30.0860  -17.3400   20.3810 C   0  0  0  0  0  0  0  0  0  0  0  0
  -28.2070  -20.4720   18.9700 C   0  0  0  0  0  1  0  0  0  0  0  0
  -30.6870  -14.7740   20.1860 C   0  0  0  0  0  0  0  0  0  0  0  0
  -30.4140  -12.5520   19.0840 C   0  0  0  0  0  2  0  0  0  0  0  0
  -29.4280  -12.6930   17.9020 C   0  0  0  0  0  2  0  0  0  0  0  0
  -27.9680  -12.5220   18.3720 C   0  0  0  0  0  2  0  0  0  0  0  0
  -27.6450  -13.3430   19.6480 C   0  0  0  0  0  3  0  0  0  0  0  0
  -28.7530  -13.2000   20.7190 C   0  0  0  0  0  2  0  0  0  0  0  0
  -30.0390  -13.5620   20.0960 N   0  0  0  0  0  0  0  0  0  0  0  0
  -31.8600  -14.8920   19.8220 O   0  0  0  0  0  0  0  0  0  0  0  0
  -29.8960  -15.8640   20.4820 N   0  0  0  0  0  0  0  0  0  0  0  0
  -28.9530  -15.5500   20.6170 H   0  0  0  0  0  0  0  0  0  0  0  0
  -25.2500  -13.9130   20.3970 C   0  0  0  0  0  0  0  0  0  0  0  0
  -24.2080  -13.1490   20.8220 C   0  0  0  0  0  0  0  0  0  0  0  0
  -24.6820  -11.8070   20.7810 C   0  0  0  0  0  0  0  0  0  0  0  0
  -26.3110  -13.0540   20.1640 N   0  0  0  0  0  0  0  0  0  0  0  0
  -25.9680  -11.7740   20.4480 N   0  0  0  0  0  0  0  0  0  0  0  0
  -23.9630  -10.5510   20.9770 C   0  0  0  0  0  0  0  0  0  0  0  0
  -24.4110   -9.5860   21.9030 C   0  0  0  0  0  3  0  0  0  0  0  0
  -23.6870   -8.3920   22.0920 C   0  0  0  0  0  3  0  0  0  0  0  0
  -22.5030   -8.1570   21.3530 C   0  0  0  0  0  0  0  0  0  0  0  0
  -22.0750   -9.1110   20.4150 C   0  0  0  0  0  3  0  0  0  0  0  0
  -22.8000  -10.2980   20.2240 C   0  0  0  0  0  3  0  0  0  0  0  0
  -21.7490   -7.0150   21.4570 O   0  0  0  0  0  0  0  0  0  0  0  0
  -21.7220   -6.2760   22.6120 C   0  0  0  0  0  0  0  0  0  0  0  0
  -21.3110   -6.8310   23.8430 C   0  0  0  0  0  3  0  0  0  0  0  0
  -21.2350   -6.0180   24.9920 C   0  0  0  0  0  3  0  0  0  0  0  0
  -21.5580   -4.6510   24.9090 C   0  0  0  0  0  0  0  0  0  0  0  0
  -21.9640   -4.0950   23.6830 C   0  0  0  0  0  3  0  0  0  0  0  0
  -22.0440   -4.9060   22.5380 C   0  0  0  0  0  0  0  0  0  0  0  0
  -22.4160   -4.3620   21.3540 F   0  0  0  0  0  0  0  0  0  0  0  0
  -21.4750   -3.8680   26.0090 F   0  0  0  0  0  0  0  0  0  0  0  0
  -22.8190  -13.6370   21.1130 C   0  0  0  0  0  0  0  0  0  0  0  0
  -22.1000  -12.9510   21.9940 N   0  0  0  0  0  0  0  0  0  0  0  0
  -22.3890  -14.6680   20.5970 O   0  0  0  0  0  0  0  0  0  0  0  0
  -22.4630  -12.1170   22.4300 H   0  0  0  0  0  0  0  0  0  0  0  0
  -21.1690  -13.2630   22.2310 H   0  0  0  0  0  0  0  0  0  0  0  0
  -25.3290  -15.2670   20.1330 N   0  0  0  0  0  0  0  0  0  0  0  0
  -24.3640  -15.5950   20.1910 H   0  0  0  0  0  0  0  0  0  0  0  0
  -25.5980  -15.3210   19.1560 H   0  0  0  0  0  0  0  0  0  0  0  0
  -27.7570  -16.8580   18.2300 C   0  0  0  0  0  1  0  0  0  0  0  0
  -27.6800  -17.6700   19.5400 C   0  0  0  0  0  3  0  0  0  0  0  0
  -27.0710  -17.0670   20.7380 N   0  0  0  0  0  4  0  0  0  0  0  0
  -27.7390  -16.6190   21.3340 H   0  0  0  0  0  0  0  0  0  0  0  0
  -26.3460  -16.3980   20.4580 H   0  0  0  0  0  0  0  0  0  0  0  0
  -26.6290  -17.7900   21.2780 H   0  0  0  0  0  0  0  0  0  0  0  0
  -30.6460  -21.8270   20.0960 C   0  0  0  0  0  2  0  0  0  0  0  0
  -28.6660  -22.3910   21.7690 C   0  0  0  0  0  1  0  0  0  0  0  0
  -29.8400  -22.9320   20.9290 C   0  0  0  0  0  3  0  0  0  0  0  0
  -29.4560  -24.2520   20.1230 C   0  0  0  0  0  3  0  0  0  0  0  0
  -28.5680  -25.3550   20.8330 C   0  0  0  0  0  3  0  0  0  0  0  0
  -28.5590  -26.6850   20.2220 O   0  0  0  0  0  0  0  0  0  0  0  0
  -24.6410  -31.9040   23.2550 C   0  0  0  0  0  0  0  0  0  0  0  0
  -27.3790  -27.4280   20.2440 C   0  0  0  0  0  0  0  0  0  0  0  0
  -23.4720  -30.4840   21.6000 C   0  0  0  0  0  3  0  0  0  0  0  0
  -24.9640  -28.9450   20.2040 C   0  0  0  0  0  0  0  0  0  0  0  0
  -26.0000  -30.8570   21.4350 C   0  0  0  0  0  2  0  0  0  0  0  0
  -26.1130  -29.4780   20.8020 C   0  0  0  0  0  0  0  0  0  0  0  0
  -27.3230  -28.7320   20.8090 C   0  0  0  0  0  3  0  0  0  0  0  0
  -26.2080  -26.9230   19.6370 C   0  0  0  0  0  3  0  0  0  0  0  0
  -25.0090  -27.6680   19.6160 C   0  0  0  0  0  3  0  0  0  0  0  0
  -23.7120  -29.7980   20.2270 C   0  0  0  0  0  2  0  0  0  0  0  0
  -24.7210  -31.1000   22.1540 N   0  0  0  0  0  0  0  0  0  0  0  0
  -23.5500  -32.1670   23.7780 O   0  0  0  0  0  0  0  0  0  0  0  0
  -22.8150  -29.4640   22.5580 C   0  0  0  0  0  0  0  0  0  0  0  0
  -21.4900  -29.2860   22.4320 N   0  0  0  0  0  0  0  0  0  0  0  0
  -23.4940  -28.8350   23.3740 O   0  0  0  0  0  0  0  0  0  0  0  0
  -20.9990  -29.8460   21.7490 H   0  0  0  0  0  0  0  0  0  0  0  0
  -18.1130  -28.0950   22.9290 C   0  0  0  0  0  0  0  0  0  0  0  0
  -20.6740  -28.3440   23.1980 C   0  0  0  0  0  3  0  0  0  0  0  0
  -20.7690  -26.9170   22.6090 C   0  0  0  0  0  2  0  0  0  0  0  0
  -19.6630  -26.6060   21.5950 C   0  0  0  0  0  2  0  0  0  0  0  0
  -18.2830  -26.7510   22.2440 C   0  0  0  0  0  2  0  0  0  0  0  0
  -19.2360  -28.8510   23.3630 C   0  0  0  0  0  0  0  0  0  0  0  0
  -19.0210  -30.1100   23.9630 C   0  0  0  0  0  3  0  0  0  0  0  0
  -17.7170  -30.6120   24.1370 C   0  0  0  0  0  3  0  0  0  0  0  0
  -16.6110  -29.8530   23.7200 C   0  0  0  0  0  3  0  0  0  0  0  0
  -16.8100  -28.5960   23.1220 C   0  0  0  0  0  3  0  0  0  0  0  0
  -25.9120  -32.5510   23.8910 C   0  0  0  0  0  3  0  0  0  0  0  0
  -25.5900  -33.9500   24.2020 N   0  0  0  0  0  0  0  0  0  0  0  0
  -25.9260  -34.9970   23.4340 C   0  0  0  0  0  0  0  0  0  0  0  0
  -26.6060  -34.8850   22.4120 O   0  0  0  0  0  0  0  0  0  0  0  0
  -24.9880  -34.1100   24.9950 H   0  0  0  0  0  0  0  0  0  0  0  0
  -24.1900  -36.7740   23.0460 C   0  0  0  0  0  1  0  0  0  0  0  0
  -25.4260  -36.3860   23.8730 C   0  0  0  0  0  3  0  0  0  0  0  0
  -27.5460  -37.2970   24.7130 C   0  0  0  0  0  1  0  0  0  0  0  0
  -26.4520  -37.4450   23.7560 N   0  0  0  0  0  0  0  0  0  0  0  0
  -26.0380  -38.3640   23.8910 H   0  0  0  0  0  0  0  0  0  0  0  0
  -26.4160  -31.7960   25.1820 C   0  0  1  0  0  0  0  0  0  0  0  0
  -25.3110  -31.5640   26.2400 C   0  0  0  0  0  1  0  0  0  0  0  0
  -27.0140  -30.4200   24.8070 C   0  0  0  0  0  1  0  0  0  0  0  0
  -27.5520  -32.6050   25.8520 C   0  0  0  0  0  1  0  0  0  0  0  0
  1  2  1  0
  3  1  2  0
  4  5  2  0
  4  3  1  0
  5  6  1  0
  6 16  1  0
  6  2  2  0
  7  4  1  0
  8 16  1  0
  9 14  1  0
 10 11  1  0
 10  9  1  0
 12 11  1  0
 12 21  1  0
 12 13  1  0
 14  8  1  0
 14 13  1  0
 15  8  2  0
 16 17  1  0
 18 19  2  0
 19 38  1  0
 20 19  1  0
 20 23  1  0
 21 18  1  0
 21 22  1  0
 22 20  2  0
 23 24  1  0
 24 25  2  0
 26 29  1  0
 26 25  1  0
 27 26  2  0
 28 27  1  0
 28 23  2  0
 29 30  1  0
 30 31  1  0
 31 32  2  0
 33 32  1  0
 33 37  1  0
 34 33  2  0
 35 30  2  0
 35 34  1  0
 36 35  1  0
 38 39  1  0
 39 42  1  0
 39 41  1  0
 40 38  2  0
 43 44  1  0
 43 18  1  0
 45 43  1  0
 47 46  1  0
 47  5  1  0
 47 48  1  0
 48 51  1  0
 48 49  1  0
 50 48  1  0
 52  3  1  0
 52 54  1  0
 54 53  1  0
 55 56  2  0
 55 54  1  0
 57 59  1  0
 57 56  1  0
 58 69  2  0
 59 64  1  0
 60 68  1  0
 60 70  1  0
 61 67  1  0
 61 63  1  0
 62 68  1  0
 63 64  2  0
 63 62  1  0
 65 59  2  0
 66 65  1  0
 66 61  2  0
 67 60  1  0
 68 58  1  0
 70 72  2  0
 71 70  1  0
 73 71  1  0
 74 83  2  0
 74 79  1  0
 75 71  1  0
 75 79  1  0
 76 75  1  0
 77 78  1  0
 77 76  1  0
 78 74  1  0
 79 80  2  0
 80 81  1  0
 82 81  2  0
 83 82  1  0
 84 58  1  0
 84 85  1  0
 84 94  1  0
 85 88  1  0
 86 90  1  0
 86 85  1  0
 87 86  2  0
 90 89  1  0
 92 90  1  0
 92 93  1  0
 92 91  1  0
 94 97  1  1
 94 95  1  0
 96 94  1  0
M  ISO  4   8 100  16 100  56 101  57 101
M  END
>  <TORSDO>  (23) 
F 22

>  <SCORE>  (23) 
-12.867

>  <name>  (23) 
22

>  <ligand_id>  (23) 
22

>  <original_smiles>  (23) 
[H]c1c([H])c([H])c2c(c1[H])C([H])([H])C([H])([H])C([H])([H])C2([H])N([H])C(=O)C1([H])N(C(=O)C([H])(N([H])C(=O)C([H])(N([H])C([H])([H])[H])C([H])([H])[H])C(C([H])([H])[H])(C([H])([H])[H])C([H])([H])[H])C([H])([H])c2c([H])c(OC([H])([H])C([H])([H])C([H])(C([H])([H])[H])C([H])([H])c3c([H])c([H])c(N([H])C(=O)N4C([H])([H])C([H])([H])C([H])([H])C([H])(n5nc(-c6c([H])c([H])c(Oc7c([H])c([H])c(F)c([H])c7F)c([H])c6[H])c(C(=O)N([H])[H])c5N([H])[H])C4([H])[H])c(C([H])(C([H])([H])[H])[N+]([H])([H])[H])c3C([H])([H])[H])c([H])c([H])c2C1([H])[H]

>  <smiles>  (23) 
[H]c1c([H])c([H])c2c(c1[H])C([H])([H])C([H])([H])C([H])([H])C2([H])N([H])C(=O)C1([H])N(C(=O)C([H])(N([H])C(=O)C([H])(N([H])C([H])([H])[H])C([H])([H])[H])C(C([H])([H])[H])(C([H])([H])[H])C([H])([H])[H])C([H])([H])c2c([H])c(OC([H])([H])C([H])([H])C([H])(C([H])([H])[H])C([H])([H])c3c([H])c([H])c(N([H])C(=O)N4C([H])([H])C([H])([H])C([H])([H])C([H])(n5nc(-c6c([H])c([H])c(Oc7c([H])c([H])c(F)c([H])c7F)c([H])c6[H])c(C(=O)N([H])[H])c5N([H])[H])C4([H])[H])c(C([H])(C([H])([H])[H])[N+]([H])([H])[H])c3C([H])([H])[H])c([H])c([H])c2C1([H])[H]

$$$$
23:0:0
     RDKit          3D

 92101  0  0  1  0  0  0  0  0999 V2000
  -30.1400  -22.3270   21.6540 C   0  0  0  0  0  3  0  0  0  0  0  0
  -29.9870  -23.7280   21.7030 C   0  0  0  0  0  3  0  0  0  0  0  0
  -28.1070  -22.2320   20.3900 C   0  0  0  0  0  3  0  0  0  0  0  0
  -29.1740  -21.5240   21.0020 C   0  0  0  0  0  0  0  0  0  0  0  0
  -28.8660  -24.3330   21.0970 C   0  0  0  0  0  0  0  0  0  0  0  0
  -27.9560  -23.5840   20.4270 N   0  0  0  0  0  0  0  0  0  0  0  0
  -30.5990  -19.3350   21.4180 C   0  0  0  0  0  2  0  0  0  0  0  0
  -28.6830  -19.2330   19.7880 C   0  0  0  0  0  2  0  0  0  0  0  0
  -30.5550  -17.7900   21.5910 C   0  0  0  0  0  2  0  0  0  0  0  0
  -28.6320  -17.6860   19.9610 C   0  0  0  0  0  2  0  0  0  0  0  0
  -29.2140  -19.9610   21.0580 C   0  0  0  0  0  3  0  0  0  0  0  0
  -29.9940  -17.0530   20.3560 C   0  0  0  0  0  3  0  0  0  0  0  0
  -30.6420  -14.5880   20.1930 C   0  0  0  0  0  0  0  0  0  0  0  0
  -30.3760  -12.4160   19.0510 C   0  0  0  0  0  2  0  0  0  0  0  0
  -29.3920  -12.6430   17.8810 C   0  0  0  0  0  2  0  0  0  0  0  0
  -27.9300  -12.4930   18.3540 C   0  0  0  0  0  2  0  0  0  0  0  0
  -27.6330  -13.2930   19.6520 C   0  0  0  0  0  3  0  0  0  0  0  0
  -28.7260  -13.0470   20.7200 C   0  0  0  0  0  2  0  0  0  0  0  0
  -30.0240  -13.3780   20.1090 N   0  0  0  0  0  0  0  0  0  0  0  0
  -31.7680  -14.7960   19.7290 O   0  0  0  0  0  0  0  0  0  0  0  0
  -29.8400  -15.5990   20.6050 N   0  0  0  0  0  0  0  0  0  0  0  0
  -28.9360  -15.2980   20.9390 H   0  0  0  0  0  0  0  0  0  0  0  0
  -25.2600  -13.8900   20.4400 C   0  0  0  0  0  0  0  0  0  0  0  0
  -24.2040  -13.1120   20.8320 C   0  0  0  0  0  0  0  0  0  0  0  0
  -24.6660  -11.7610   20.7730 C   0  0  0  0  0  0  0  0  0  0  0  0
  -26.2960  -13.0100   20.1680 N   0  0  0  0  0  0  0  0  0  0  0  0
  -25.9450  -11.7260   20.4270 N   0  0  0  0  0  0  0  0  0  0  0  0
  -23.9490  -10.4940   20.9730 C   0  0  0  0  0  0  0  0  0  0  0  0
  -24.3980   -9.5320   21.9060 C   0  0  0  0  0  3  0  0  0  0  0  0
  -23.6820   -8.3330   22.0950 C   0  0  0  0  0  3  0  0  0  0  0  0
  -22.5030   -8.0830   21.3520 C   0  0  0  0  0  0  0  0  0  0  0  0
  -22.0740   -9.0320   20.4100 C   0  0  0  0  0  3  0  0  0  0  0  0
  -22.7900  -10.2250   20.2190 C   0  0  0  0  0  3  0  0  0  0  0  0
  -21.7580   -6.9330   21.4500 O   0  0  0  0  0  0  0  0  0  0  0  0
  -21.7060   -6.2060   22.6130 C   0  0  0  0  0  0  0  0  0  0  0  0
  -21.2530   -6.7720   23.8240 C   0  0  0  0  0  3  0  0  0  0  0  0
  -21.1510   -5.9720   24.9800 C   0  0  0  0  0  3  0  0  0  0  0  0
  -21.4870   -4.6060   24.9230 C   0  0  0  0  0  0  0  0  0  0  0  0
  -21.9310   -4.0390   23.7160 C   0  0  0  0  0  3  0  0  0  0  0  0
  -22.0370   -4.8380   22.5640 C   0  0  0  0  0  0  0  0  0  0  0  0
  -22.4450   -4.2830   21.3980 F   0  0  0  0  0  0  0  0  0  0  0  0
  -21.3810   -3.8340   26.0300 F   0  0  0  0  0  0  0  0  0  0  0  0
  -22.8160  -13.5830   21.1530 C   0  0  0  0  0  0  0  0  0  0  0  0
  -22.1130  -12.8720   22.0280 N   0  0  0  0  0  0  0  0  0  0  0  0
  -22.3610  -14.6180   20.6640 O   0  0  0  0  0  0  0  0  0  0  0  0
  -22.4880  -12.0320   22.4430 H   0  0  0  0  0  0  0  0  0  0  0  0
  -21.1840  -13.1700   22.2870 H   0  0  0  0  0  0  0  0  0  0  0  0
  -25.4200  -15.2630   20.2720 N   0  0  0  0  0  0  0  0  0  0  0  0
  -24.6650  -15.9170   20.4450 H   0  0  0  0  0  0  0  0  0  0  0  0
  -26.2600  -15.7110   19.9310 H   0  0  0  0  0  0  0  0  0  0  0  0
  -28.5500  -25.8260   21.3450 C   0  0  0  0  0  2  0  0  0  0  0  0
  -28.4370  -26.6770   20.1830 O   0  0  0  0  0  0  0  0  0  0  0  0
  -24.6140  -31.9110   23.2320 C   0  0  0  0  0  0  0  0  0  0  0  0
  -27.3070  -27.4720   20.1780 C   0  0  0  0  0  0  0  0  0  0  0  0
  -23.4270  -30.4990   21.5820 C   0  0  0  0  0  3  0  0  0  0  0  0
  -24.9030  -28.9700   20.1660 C   0  0  0  0  0  0  0  0  0  0  0  0
  -25.9500  -30.8760   21.3990 C   0  0  0  0  0  2  0  0  0  0  0  0
  -26.0540  -29.5000   20.7650 C   0  0  0  0  0  0  0  0  0  0  0  0
  -27.2600  -28.7550   20.7740 C   0  0  0  0  0  3  0  0  0  0  0  0
  -26.1460  -26.9660   19.5610 C   0  0  0  0  0  3  0  0  0  0  0  0
  -24.9470  -27.7030   19.5540 C   0  0  0  0  0  3  0  0  0  0  0  0
  -23.6510  -29.8190   20.2050 C   0  0  0  0  0  2  0  0  0  0  0  0
  -24.6800  -31.1100   22.1300 N   0  0  0  0  0  0  0  0  0  0  0  0
  -23.5300  -32.1710   23.7720 O   0  0  0  0  0  0  0  0  0  0  0  0
  -22.7770  -29.4750   22.5410 C   0  0  0  0  0  0  0  0  0  0  0  0
  -21.4510  -29.2930   22.4180 N   0  0  0  0  0  0  0  0  0  0  0  0
  -23.4610  -28.8440   23.3520 O   0  0  0  0  0  0  0  0  0  0  0  0
  -20.9570  -29.8560   21.7410 H   0  0  0  0  0  0  0  0  0  0  0  0
  -18.0770  -28.1050   22.9360 C   0  0  0  0  0  0  0  0  0  0  0  0
  -20.6380  -28.3490   23.1870 C   0  0  0  0  0  3  0  0  0  0  0  0
  -20.7260  -26.9230   22.5960 C   0  0  0  0  0  2  0  0  0  0  0  0
  -19.6150  -26.6160   21.5880 C   0  0  0  0  0  2  0  0  0  0  0  0
  -18.2410  -26.7610   22.2460 C   0  0  0  0  0  2  0  0  0  0  0  0
  -19.2030  -28.8560   23.3660 C   0  0  0  0  0  0  0  0  0  0  0  0
  -18.9960  -30.1160   23.9720 C   0  0  0  0  0  3  0  0  0  0  0  0
  -17.6950  -30.6220   24.1510 C   0  0  0  0  0  3  0  0  0  0  0  0
  -16.5830  -29.8660   23.7380 C   0  0  0  0  0  3  0  0  0  0  0  0
  -16.7740  -28.6080   23.1380 C   0  0  0  0  0  3  0  0  0  0  0  0
  -25.8930  -32.5520   23.8570 C   0  0  0  0  0  3  0  0  0  0  0  0
  -25.5770  -33.9510   24.1770 N   0  0  0  0  0  0  0  0  0  0  0  0
  -25.9120  -35.0010   23.4150 C   0  0  0  0  0  0  0  0  0  0  0  0
  -26.5950  -34.8940   22.3930 O   0  0  0  0  0  0  0  0  0  0  0  0
  -24.9710  -34.1090   24.9680 H   0  0  0  0  0  0  0  0  0  0  0  0
  -24.1790  -36.7830   23.0180 C   0  0  0  0  0  1  0  0  0  0  0  0
  -25.4050  -36.3890   23.8560 C   0  0  0  0  0  3  0  0  0  0  0  0
  -27.5410  -37.2620   24.7030 C   0  0  0  0  0  1  0  0  0  0  0  0
  -26.4260  -37.4570   23.7780 N   0  0  0  0  0  0  0  0  0  0  0  0
  -26.0090  -38.3620   23.9860 H   0  0  0  0  0  0  0  0  0  0  0  0
  -26.4050  -31.7880   25.1400 C   0  0  1  0  0  0  0  0  0  0  0  0
  -25.3070  -31.5450   26.2020 C   0  0  0  0  0  1  0  0  0  0  0  0
  -26.9950  -30.4110   24.7540 C   0  0  0  0  0  1  0  0  0  0  0  0
  -27.5500  -32.5860   25.8050 C   0  0  0  0  0  1  0  0  0  0  0  0
  1  2  1  0
  3  6  2  0
  3  4  1  0
  4  1  2  0
  5 51  1  0
  5  2  2  0
  6  5  1  0
  7  9  1  0
  8 10  1  0
  8 11  1  0
 10 12  1  0
 11  4  1  0
 11  7  1  0
 12 21  1  0
 12  9  1  0
 13 21  1  0
 14 19  1  0
 15 16  1  0
 15 14  1  0
 17 16  1  0
 17 26  1  0
 17 18  1  0
 19 13  1  0
 19 18  1  0
 20 13  2  0
 21 22  1  0
 23 24  2  0
 24 43  1  0
 25 24  1  0
 25 28  1  0
 26 27  1  0
 26 23  1  0
 27 25  2  0
 28 29  1  0
 29 30  2  0
 31 34  1  0
 31 30  1  0
 32 31  2  0
 33 32  1  0
 33 28  2  0
 34 35  1  0
 35 36  1  0
 36 37  2  0
 38 37  1  0
 38 42  1  0
 39 38  2  0
 40 35  2  0
 40 39  1  0
 41 40  1  0
 43 44  1  0
 44 47  1  0
 44 46  1  0
 45 43  2  0
 48 23  1  0
 48 49  1  0
 50 48  1  0
 52 51  1  0
 53 64  2  0
 54 52  1  0
 54 59  1  0
 55 63  1  0
 55 65  1  0
 56 62  1  0
 56 58  1  0
 57 63  1  0
 58 59  2  0
 58 57  1  0
 60 54  2  0
 61 60  1  0
 61 56  2  0
 62 55  1  0
 63 53  1  0
 65 67  2  0
 66 65  1  0
 68 66  1  0
 69 78  2  0
 69 74  1  0
 70 66  1  0
 70 74  1  0
 71 70  1  0
 72 73  1  0
 72 71  1  0
 73 69  1  0
 74 75  2  0
 75 76  1  0
 77 76  2  0
 78 77  1  0
 79 53  1  0
 79 80  1  0
 79 89  1  0
 80 83  1  0
 81 85  1  0
 81 80  1  0
 82 81  2  0
 85 84  1  0
 87 85  1  0
 87 88  1  0
 87 86  1  0
 89 92  1  1
 89 90  1  0
 91 89  1  0
M  ISO  4  13 100  21 100  51 101  52 101
M  END
>  <TORSDO>  (24) 
F 18

>  <SCORE>  (24) 
-14.921

>  <name>  (24) 
23

>  <ligand_id>  (24) 
23

>  <original_smiles>  (24) 
[H]c1nc(C([H])([H])Oc2c([H])c([H])c3c(c2[H])C([H])([H])N(C(=O)C([H])(N([H])C(=O)C([H])(N([H])C([H])([H])[H])C([H])([H])[H])C(C([H])([H])[H])(C([H])([H])[H])C([H])([H])[H])C([H])(C(=O)N([H])C2([H])c4c([H])c([H])c([H])c([H])c4C([H])([H])C([H])([H])C2([H])[H])C3([H])[H])c([H])c([H])c1C1([H])C([H])([H])C([H])([H])C([H])(N([H])C(=O)N2C([H])([H])C([H])([H])C([H])([H])C([H])(n3nc(-c4c([H])c([H])c(Oc5c([H])c([H])c(F)c([H])c5F)c([H])c4[H])c(C(=O)N([H])[H])c3N([H])[H])C2([H])[H])C([H])([H])C1([H])[H]

>  <smiles>  (24) 
[H]c1nc(C([H])([H])Oc2c([H])c([H])c3c(c2[H])C([H])([H])N(C(=O)C([H])(N([H])C(=O)C([H])(N([H])C([H])([H])[H])C([H])([H])[H])C(C([H])([H])[H])(C([H])([H])[H])C([H])([H])[H])C([H])(C(=O)N([H])C2([H])c4c([H])c([H])c([H])c([H])c4C([H])([H])C([H])([H])C2([H])[H])C3([H])[H])c([H])c([H])c1C1([H])C([H])([H])C([H])([H])C([H])(N([H])C(=O)N2C([H])([H])C([H])([H])C([H])([H])C([H])(n3nc(-c4c([H])c([H])c(Oc5c([H])c([H])c(F)c([H])c5F)c([H])c4[H])c(C(=O)N([H])[H])c3N([H])[H])C2([H])[H])C([H])([H])C1([H])[H]

$$$$
24:0:0
     RDKit          3D

 95103  0  0  1  0  0  0  0  0999 V2000
  -27.6850  -21.1760   20.0910 N   0  0  0  0  0  0  0  0  0  0  0  0
  -26.9460  -20.9550   20.7500 H   0  0  0  0  0  0  0  0  0  0  0  0
  -28.9270  -17.6900   19.9550 C   0  0  0  0  0  3  0  0  0  0  0  0
  -28.0710  -18.7860   20.1830 C   0  0  0  0  0  0  0  0  0  0  0  0
  -28.5010  -20.0750   19.7880 C   0  0  0  0  0  0  0  0  0  0  0  0
  -30.1870  -17.9210   19.3700 C   0  0  0  0  0  0  0  0  0  0  0  0
  -29.7610  -20.1890   19.1370 C   0  0  0  0  0  0  0  0  0  0  0  0
  -26.7350  -18.5800   20.8820 C   0  0  0  0  0  1  0  0  0  0  0  0
  -30.3120  -21.4950   18.5890 C   0  0  0  0  0  1  0  0  0  0  0  0
  -30.5800  -19.1380   18.9490 N   0  0  0  0  0  0  0  0  0  0  0  0
  -31.2200  -16.8240   19.2120 C   0  0  0  0  0  2  0  0  0  0  0  0
  -31.4610  -14.3990   19.4360 C   0  0  0  0  0  0  0  0  0  0  0  0
  -31.2140  -11.9960   19.0170 C   0  0  0  0  0  2  0  0  0  0  0  0
  -30.2720  -11.7990   17.8150 C   0  0  0  0  0  2  0  0  0  0  0  0
  -28.8130  -11.7360   18.2930 C   0  0  0  0  0  2  0  0  0  0  0  0
  -28.4350  -12.9180   19.2240 C   0  0  0  0  0  3  0  0  0  0  0  0
  -29.4890  -13.1150   20.3370 C   0  0  0  0  0  2  0  0  0  0  0  0
  -30.8110  -13.2370   19.6940 N   0  0  0  0  0  0  0  0  0  0  0  0
  -32.5690  -14.4410   18.8990 O   0  0  0  0  0  0  0  0  0  0  0  0
  -30.7680  -15.5180   19.6720 N   0  0  0  0  0  0  0  0  0  0  0  0
  -29.8450  -15.4530   20.0710 H   0  0  0  0  0  0  0  0  0  0  0  0
  -26.1290  -13.7110   20.0470 C   0  0  0  0  0  0  0  0  0  0  0  0
  -25.0310  -13.0240   20.4840 C   0  0  0  0  0  0  0  0  0  0  0  0
  -25.3880  -11.6400   20.4490 C   0  0  0  0  0  0  0  0  0  0  0  0
  -27.0940  -12.7520   19.7750 N   0  0  0  0  0  0  0  0  0  0  0  0
  -26.6520  -11.5020   20.0710 N   0  0  0  0  0  0  0  0  0  0  0  0
  -24.5820  -10.4380   20.7000 C   0  0  0  0  0  0  0  0  0  0  0  0
  -24.8910   -9.5490   21.7540 C   0  0  0  0  0  3  0  0  0  0  0  0
  -24.0890   -8.4110   21.9900 C   0  0  0  0  0  3  0  0  0  0  0  0
  -22.9610   -8.1550   21.1720 C   0  0  0  0  0  0  0  0  0  0  0  0
  -22.6720   -9.0330   20.1110 C   0  0  0  0  0  3  0  0  0  0  0  0
  -23.4730  -10.1610   19.8760 C   0  0  0  0  0  3  0  0  0  0  0  0
  -22.1450   -7.0590   21.3080 O   0  0  0  0  0  0  0  0  0  0  0  0
  -21.8640   -6.5160   22.5380 C   0  0  0  0  0  0  0  0  0  0  0  0
  -21.2490   -7.2700   23.5620 C   0  0  0  0  0  3  0  0  0  0  0  0
  -20.9160   -6.6540   24.7840 C   0  0  0  0  0  3  0  0  0  0  0  0
  -21.1880   -5.2880   24.9840 C   0  0  0  0  0  0  0  0  0  0  0  0
  -21.7960   -4.5350   23.9640 C   0  0  0  0  0  3  0  0  0  0  0  0
  -22.1290   -5.1470   22.7430 C   0  0  0  0  0  0  0  0  0  0  0  0
  -22.6930   -4.4120   21.7540 F   0  0  0  0  0  0  0  0  0  0  0  0
  -20.8620   -4.6960   26.1550 F   0  0  0  0  0  0  0  0  0  0  0  0
  -23.6880  -13.6060   20.8300 C   0  0  0  0  0  0  0  0  0  0  0  0
  -22.9880  -13.0030   21.7860 N   0  0  0  0  0  0  0  0  0  0  0  0
  -23.2770  -14.6300   20.2840 O   0  0  0  0  0  0  0  0  0  0  0  0
  -23.3400  -12.1760   22.2470 H   0  0  0  0  0  0  0  0  0  0  0  0
  -22.0870  -13.3660   22.0650 H   0  0  0  0  0  0  0  0  0  0  0  0
  -26.3900  -15.0640   19.8470 N   0  0  0  0  0  0  0  0  0  0  0  0
  -25.6950  -15.7820   20.0130 H   0  0  0  0  0  0  0  0  0  0  0  0
  -27.2780  -15.4430   19.5400 H   0  0  0  0  0  0  0  0  0  0  0  0
  -28.4250  -22.5520   22.0000 C   0  0  0  0  0  1  0  0  0  0  0  0
  -28.4130  -22.3730   20.4730 C   0  0  0  0  0  3  0  0  0  0  0  0
  -27.8280  -23.5690   19.7160 C   0  0  0  0  0  2  0  0  0  0  0  0
  -28.5760  -24.8730   20.0070 C   0  0  0  0  0  2  0  0  0  0  0  0
  -28.7870  -25.7540   18.7610 C   0  0  0  0  0  2  0  0  0  0  0  0
  -28.6910  -27.1190   19.1410 O   0  0  0  0  0  0  0  0  0  0  0  0
  -24.6070  -31.3950   23.0510 C   0  0  0  0  0  0  0  0  0  0  0  0
  -27.4380  -27.6790   19.2770 C   0  0  0  0  0  0  0  0  0  0  0  0
  -23.4400  -30.1900   21.2310 C   0  0  0  0  0  3  0  0  0  0  0  0
  -24.9440  -28.9760   19.5710 C   0  0  0  0  0  0  0  0  0  0  0  0
  -25.9290  -30.7370   21.0490 C   0  0  0  0  0  2  0  0  0  0  0  0
  -26.0780  -29.4880   20.2100 C   0  0  0  0  0  0  0  0  0  0  0  0
  -27.3240  -28.8420   20.0670 C   0  0  0  0  0  3  0  0  0  0  0  0
  -26.2730  -27.1610   18.6560 C   0  0  0  0  0  3  0  0  0  0  0  0
  -25.0320  -27.8060   18.7990 C   0  0  0  0  0  3  0  0  0  0  0  0
  -23.6520  -29.7380   19.7600 C   0  0  0  0  0  2  0  0  0  0  0  0
  -24.6770  -30.7810   21.8360 N   0  0  0  0  0  0  0  0  0  0  0  0
  -23.5270  -31.5210   23.6450 O   0  0  0  0  0  0  0  0  0  0  0  0
  -22.8770  -28.9970   22.0340 C   0  0  0  0  0  0  0  0  0  0  0  0
  -21.5720  -28.7310   21.8700 N   0  0  0  0  0  0  0  0  0  0  0  0
  -23.6100  -28.3200   22.7600 O   0  0  0  0  0  0  0  0  0  0  0  0
  -21.0390  -29.3360   21.2590 H   0  0  0  0  0  0  0  0  0  0  0  0
  -18.3150  -27.2180   22.1000 C   0  0  0  0  0  0  0  0  0  0  0  0
  -20.8340  -27.6390   22.5000 C   0  0  0  0  0  3  0  0  0  0  0  0
  -21.0630  -26.3030   21.7540 C   0  0  0  0  0  2  0  0  0  0  0  0
  -20.0360  -26.0690   20.6430 C   0  0  0  0  0  2  0  0  0  0  0  0
  -18.6230  -26.0080   21.2360 C   0  0  0  0  0  2  0  0  0  0  0  0
  -19.3540  -27.9990   22.6730 C   0  0  0  0  0  0  0  0  0  0  0  0
  -19.0150  -29.1510   23.4170 C   0  0  0  0  0  3  0  0  0  0  0  0
  -17.6690  -29.5190   23.5980 C   0  0  0  0  0  3  0  0  0  0  0  0
  -16.6440  -28.7230   23.0530 C   0  0  0  0  0  3  0  0  0  0  0  0
  -16.9700  -27.5780   22.3090 C   0  0  0  0  0  3  0  0  0  0  0  0
  -25.8740  -31.9980   23.7400 C   0  0  0  0  0  3  0  0  0  0  0  0
  -25.5210  -33.3440   24.2070 N   0  0  0  0  0  0  0  0  0  0  0  0
  -25.8470  -34.4770   23.5660 C   0  0  0  0  0  0  0  0  0  0  0  0
  -26.5430  -34.4970   22.5480 O   0  0  0  0  0  0  0  0  0  0  0  0
  -24.8990  -33.4020   25.0010 H   0  0  0  0  0  0  0  0  0  0  0  0
  -24.0780  -36.2550   23.3500 C   0  0  0  0  0  1  0  0  0  0  0  0
  -25.3110  -35.7980   24.1480 C   0  0  0  0  0  3  0  0  0  0  0  0
  -27.3950  -36.6470   25.1290 C   0  0  0  0  0  1  0  0  0  0  0  0
  -26.3170  -36.8820   24.1710 N   0  0  0  0  0  0  0  0  0  0  0  0
  -25.8820  -37.7720   24.3960 H   0  0  0  0  0  0  0  0  0  0  0  0
  -26.4160  -31.1160   24.9310 C   0  0  1  0  0  0  0  0  0  0  0  0
  -25.3350  -30.7370   25.9680 C   0  0  0  0  0  1  0  0  0  0  0  0
  -27.0390  -29.8040   24.4000 C   0  0  0  0  0  1  0  0  0  0  0  0
  -27.5390  -31.8730   25.6780 C   0  0  0  0  0  1  0  0  0  0  0  0
  1 51  1  0
  1  2  1  0
  3  4  1  0
  4  8  1  0
  5  1  1  0
  5  4  2  0
  6  3  2  0
  7  5  1  0
  9  7  1  0
 10  7  2  0
 10  6  1  0
 11  6  1  0
 11 20  1  0
 12 20  1  0
 12 18  1  0
 13 18  1  0
 14 15  1  0
 14 13  1  0
 16 15  1  0
 16 25  1  0
 16 17  1  0
 18 17  1  0
 19 12  2  0
 20 21  1  0
 22 23  2  0
 23 42  1  0
 24 23  1  0
 24 27  1  0
 25 22  1  0
 25 26  1  0
 26 24  2  0
 27 28  1  0
 28 29  2  0
 30 33  1  0
 30 29  1  0
 31 30  2  0
 32 31  1  0
 32 27  2  0
 33 34  1  0
 34 39  2  0
 34 35  1  0
 35 36  2  0
 36 37  1  0
 37 41  1  0
 38 37  2  0
 39 38  1  0
 40 39  1  0
 42 43  1  0
 43 46  1  0
 43 45  1  0
 44 42  2  0
 47 48  1  0
 47 22  1  0
 49 47  1  0
 51 50  1  0
 52 53  1  0
 52 51  1  0
 54 55  1  0
 54 53  1  0
 55 57  1  0
 56 67  2  0
 57 62  1  0
 58 66  1  0
 58 68  1  0
 59 65  1  0
 59 61  1  0
 60 66  1  0
 61 60  1  0
 62 61  2  0
 63 64  1  0
 63 57  2  0
 64 59  2  0
 65 58  1  0
 66 56  1  0
 68 70  2  0
 69 68  1  0
 71 69  1  0
 72 81  2  0
 72 77  1  0
 73 69  1  0
 73 77  1  0
 74 73  1  0
 75 76  1  0
 75 74  1  0
 76 72  1  0
 77 78  2  0
 78 79  1  0
 80 79  2  0
 81 80  1  0
 82 56  1  0
 82 83  1  0
 82 92  1  0
 83 86  1  0
 84 88  1  0
 84 83  1  0
 85 84  2  0
 88 87  1  0
 88 90  1  0
 90 91  1  0
 90 89  1  0
 92 95  1  1
 92 93  1  0
 94 92  1  0
M  ISO  4  12 100  20 100  54 101  55 101
M  END
>  <TORSDO>  (25) 
F 22

>  <SCORE>  (25) 
-9.439

>  <name>  (25) 
24

>  <ligand_id>  (25) 
24

>  <original_smiles>  (25) 
[H]c1c([H])c([H])c2c(c1[H])C([H])([H])C([H])([H])C([H])([H])C2([H])N([H])C(=O)C1([H])N(C(=O)C([H])(N([H])C(=O)C([H])(N([H])C([H])([H])[H])C([H])([H])[H])C(C([H])([H])[H])(C([H])([H])[H])C([H])([H])[H])C([H])([H])c2c([H])c(OC([H])([H])C([H])([H])C([H])([H])C([H])(N([H])c3c(C([H])([H])[H])nc(C([H])([H])N([H])C(=O)N4C([H])([H])C([H])([H])C([H])([H])C([H])(n5nc(-c6c([H])c([H])c(Oc7c([H])c([H])c(F)c([H])c7F)c([H])c6[H])c(C(=O)N([H])[H])c5N([H])[H])C4([H])[H])c([H])c3C([H])([H])[H])C([H])([H])[H])c([H])c([H])c2C1([H])[H]

>  <smiles>  (25) 
[H]c1c([H])c([H])c2c(c1[H])C([H])([H])C([H])([H])C([H])([H])C2([H])N([H])C(=O)C1([H])N(C(=O)C([H])(N([H])C(=O)C([H])(N([H])C([H])([H])[H])C([H])([H])[H])C(C([H])([H])[H])(C([H])([H])[H])C([H])([H])[H])C([H])([H])c2c([H])c(OC([H])([H])C([H])([H])C([H])([H])C([H])(N([H])c3c(C([H])([H])[H])nc(C([H])([H])N([H])C(=O)N4C([H])([H])C([H])([H])C([H])([H])C([H])(n5nc(-c6c([H])c([H])c(Oc7c([H])c([H])c(F)c([H])c7F)c([H])c6[H])c(C(=O)N([H])[H])c5N([H])[H])C4([H])[H])c([H])c3C([H])([H])[H])C([H])([H])[H])c([H])c([H])c2C1([H])[H]

$$$$
25:0:0
     RDKit          3D

 92101  0  0  1  0  0  0  0  0999 V2000
  -30.4720  -21.3980   20.7050 C   0  0  0  0  0  3  0  0  0  0  0  0
  -28.2480  -20.8740   20.1440 C   0  0  0  0  0  3  0  0  0  0  0  0
  -29.2170  -21.9210   20.2720 C   0  0  0  0  0  0  0  0  0  0  0  0
  -30.7510  -20.0110   20.9970 C   0  0  0  0  0  0  0  0  0  0  0  0
  -28.5020  -19.4710   20.4500 C   0  0  0  0  0  0  0  0  0  0  0  0
  -29.7790  -18.9560   20.8960 C   0  0  0  0  0  0  0  0  0  0  0  0
  -32.1600  -19.6870   21.4630 C   0  0  0  0  0  1  0  0  0  0  0  0
  -27.3260  -18.5240   20.2880 C   0  0  0  0  0  1  0  0  0  0  0  0
  -29.0940  -23.4850   19.7960 C   0  0  0  0  0  3  0  0  0  0  0  0
  -28.0180  -24.6530   20.2450 C   0  0  0  0  0  3  0  0  0  0  0  0
  -28.2300  -26.1460   19.9270 O   0  0  0  0  0  0  0  0  0  0  0  0
  -24.5580  -31.6910   23.0220 C   0  0  0  0  0  0  0  0  0  0  0  0
  -27.1460  -27.0780   19.9140 C   0  0  0  0  0  0  0  0  0  0  0  0
  -23.3580  -30.3170   21.3660 C   0  0  0  0  0  3  0  0  0  0  0  0
  -24.8060  -28.7760   19.9120 C   0  0  0  0  0  0  0  0  0  0  0  0
  -25.9070  -30.6060   21.1970 C   0  0  0  0  0  2  0  0  0  0  0  0
  -25.9820  -29.2300   20.5220 C   0  0  0  0  0  0  0  0  0  0  0  0
  -27.1570  -28.3980   20.5030 C   0  0  0  0  0  3  0  0  0  0  0  0
  -25.9500  -26.7140   19.2650 C   0  0  0  0  0  3  0  0  0  0  0  0
  -24.7980  -27.5310   19.2680 C   0  0  0  0  0  3  0  0  0  0  0  0
  -23.5730  -29.6640   19.9770 C   0  0  0  0  0  2  0  0  0  0  0  0
  -24.6280  -30.8910   21.9170 N   0  0  0  0  0  0  0  0  0  0  0  0
  -23.4720  -31.9650   23.5570 O   0  0  0  0  0  0  0  0  0  0  0  0
  -22.6880  -29.2890   22.3120 C   0  0  0  0  0  0  0  0  0  0  0  0
  -21.3590  -29.1240   22.1940 N   0  0  0  0  0  0  0  0  0  0  0  0
  -23.3660  -28.6440   23.1160 O   0  0  0  0  0  0  0  0  0  0  0  0
  -20.8700  -29.6930   21.5170 H   0  0  0  0  0  0  0  0  0  0  0  0
  -17.9770  -27.9380   22.7090 C   0  0  0  0  0  0  0  0  0  0  0  0
  -20.5410  -28.1770   22.9540 C   0  0  0  0  0  3  0  0  0  0  0  0
  -20.6270  -26.7570   22.3480 C   0  0  0  0  0  2  0  0  0  0  0  0
  -19.5110  -26.4640   21.3400 C   0  0  0  0  0  2  0  0  0  0  0  0
  -18.1370  -26.6040   22.0010 C   0  0  0  0  0  2  0  0  0  0  0  0
  -19.1060  -28.6850   23.1420 C   0  0  0  0  0  0  0  0  0  0  0  0
  -18.9010  -29.9340   23.7660 C   0  0  0  0  0  3  0  0  0  0  0  0
  -17.6010  -30.4400   23.9560 C   0  0  0  0  0  3  0  0  0  0  0  0
  -16.4880  -29.6900   23.5400 C   0  0  0  0  0  3  0  0  0  0  0  0
  -16.6770  -28.4410   22.9220 C   0  0  0  0  0  3  0  0  0  0  0  0
  -25.8350  -32.3210   23.6550 C   0  0  0  0  0  3  0  0  0  0  0  0
  -26.3660  -31.5180   24.9060 C   0  0  1  0  0  0  0  0  0  0  0  0
  -25.2840  -31.2450   25.9770 C   0  0  0  0  0  1  0  0  0  0  0  0
  -26.9530  -30.1540   24.4750 C   0  0  0  0  0  1  0  0  0  0  0  0
  -27.5230  -32.2980   25.5740 C   0  0  0  0  0  1  0  0  0  0  0  0
  -25.5100  -33.7050   24.0340 N   0  0  0  0  0  0  0  0  0  0  0  0
  -25.8410  -34.7900   23.3230 C   0  0  0  0  0  0  0  0  0  0  0  0
  -26.5170  -34.7300   22.2910 O   0  0  0  0  0  0  0  0  0  0  0  0
  -24.9070  -33.8240   24.8350 H   0  0  0  0  0  0  0  0  0  0  0  0
  -24.1040  -36.5870   23.0290 C   0  0  0  0  0  1  0  0  0  0  0  0
  -25.3430  -36.1580   23.8310 C   0  0  0  0  0  3  0  0  0  0  0  0
  -27.4670  -37.0200   24.7080 C   0  0  0  0  0  1  0  0  0  0  0  0
  -26.3710  -37.2200   23.7650 N   0  0  0  0  0  0  0  0  0  0  0  0
  -25.9610  -38.1330   23.9430 H   0  0  0  0  0  0  0  0  0  0  0  0
  -30.0880  -17.4280   21.4500 C   0  0  0  0  0  2  0  0  0  0  0  0
  -30.9570  -14.9190   21.0310 C   0  0  0  0  0  0  0  0  0  0  0  0
  -30.9140  -12.5010   20.2900 C   0  0  0  0  0  2  0  0  0  0  0  0
  -30.1340  -12.3140   18.9680 C   0  0  0  0  0  2  0  0  0  0  0  0
  -28.6220  -12.1940   19.2260 C   0  0  0  0  0  2  0  0  0  0  0  0
  -28.0850  -13.2260   20.2550 C   0  0  0  0  0  3  0  0  0  0  0  0
  -29.0000  -13.3430   21.4890 C   0  0  0  0  0  2  0  0  0  0  0  0
  -30.3360  -13.6780   20.9870 N   0  0  0  0  0  0  0  0  0  0  0  0
  -32.1910  -14.9410   21.0810 O   0  0  0  0  0  0  0  0  0  0  0  0
  -30.2550  -16.0970   20.6580 N   0  0  0  0  0  0  0  0  0  0  0  0
  -25.6410  -13.8520   20.6930 C   0  0  0  0  0  0  0  0  0  0  0  0
  -24.5330  -13.1000   20.9630 C   0  0  0  0  0  0  0  0  0  0  0  0
  -24.9840  -11.7460   21.0410 C   0  0  0  0  0  0  0  0  0  0  0  0
  -26.6970  -12.9610   20.6150 N   0  0  0  0  0  0  0  0  0  0  0  0
  -26.3020  -11.6920   20.8930 N   0  0  0  0  0  0  0  0  0  0  0  0
  -24.2290  -10.4950   21.1920 C   0  0  0  0  0  0  0  0  0  0  0  0
  -24.5760   -9.5360   22.1700 C   0  0  0  0  0  3  0  0  0  0  0  0
  -23.8220   -8.3520   22.3110 C   0  0  0  0  0  3  0  0  0  0  0  0
  -22.7060   -8.1160   21.4740 C   0  0  0  0  0  0  0  0  0  0  0  0
  -22.3780   -9.0640   20.4880 C   0  0  0  0  0  3  0  0  0  0  0  0
  -23.1320  -10.2400   20.3460 C   0  0  0  0  0  3  0  0  0  0  0  0
  -21.9340   -6.9810   21.5180 O   0  0  0  0  0  0  0  0  0  0  0  0
  -21.8170   -6.2350   22.6630 C   0  0  0  0  0  0  0  0  0  0  0  0
  -21.3450   -6.7930   23.8710 C   0  0  0  0  0  3  0  0  0  0  0  0
  -21.1720   -5.9730   25.0040 C   0  0  0  0  0  3  0  0  0  0  0  0
  -21.4650   -4.5990   24.9300 C   0  0  0  0  0  0  0  0  0  0  0  0
  -21.9290   -4.0400   23.7270 C   0  0  0  0  0  3  0  0  0  0  0  0
  -22.1010   -4.8560   22.5950 C   0  0  0  0  0  0  0  0  0  0  0  0
  -22.5270   -4.3090   21.4310 F   0  0  0  0  0  0  0  0  0  0  0  0
  -21.2930   -3.8100   26.0170 F   0  0  0  0  0  0  0  0  0  0  0  0
  -23.1180  -13.5930   21.0460 C   0  0  0  0  0  0  0  0  0  0  0  0
  -22.2930  -12.9420   21.8590 N   0  0  0  0  0  0  0  0  0  0  0  0
  -22.7490  -14.5880   20.4240 O   0  0  0  0  0  0  0  0  0  0  0  0
  -22.6060  -12.1370   22.3800 H   0  0  0  0  0  0  0  0  0  0  0  0
  -21.3380  -13.2520   21.9650 H   0  0  0  0  0  0  0  0  0  0  0  0
  -25.8400  -15.2130   20.4800 N   0  0  0  0  0  0  0  0  0  0  0  0
  -25.0790  -15.8820   20.4830 H   0  0  0  0  0  0  0  0  0  0  0  0
  -26.7340  -15.6260   20.2530 H   0  0  0  0  0  0  0  0  0  0  0  0
  -30.8510  -17.2420   18.4680 C   0  0  0  0  0  2  0  0  0  0  0  0
  -30.7550  -15.7820   18.1230 C   0  0  0  0  0  2  0  0  0  0  0  0
  -29.9340  -16.3420   19.2750 C   0  0  0  0  0  3  0  0  0  0  0  0
  1  4  1  0
  2  3  1  0
  2  5  2  0
  3  1  2  0
  4  7  1  0
  5  6  1  0
  6  4  2  0
  6 52  1  0
  8  5  1  0
  9 10  2  0
  9  3  1  0
 11 10  1  0
 12 23  2  0
 13 11  1  0
 13 18  1  0
 14 22  1  0
 14 24  1  0
 15 21  1  0
 15 17  1  0
 16 22  1  0
 17 16  1  0
 18 17  2  0
 19 20  1  0
 19 13  2  0
 20 15  2  0
 21 14  1  0
 22 12  1  0
 24 26  2  0
 25 24  1  0
 27 25  1  0
 28 37  2  0
 28 33  1  0
 29 25  1  0
 29 33  1  0
 30 29  1  0
 31 32  1  0
 31 30  1  0
 32 28  1  0
 33 34  2  0
 34 35  1  0
 36 35  2  0
 37 36  1  0
 38 12  1  0
 38 43  1  0
 38 39  1  0
 39 42  1  1
 39 40  1  0
 41 39  1  0
 43 46  1  0
 44 48  1  0
 44 43  1  0
 45 44  2  0
 48 47  1  0
 50 48  1  0
 50 51  1  0
 50 49  1  0
 53 60  2  0
 54 59  1  0
 55 56  1  0
 55 54  1  0
 57 56  1  0
 57 65  1  0
 57 58  1  0
 59 53  1  0
 59 58  1  0
 61 53  1  0
 61 52  1  0
 62 63  2  0
 63 64  1  0
 63 82  1  0
 64 67  1  0
 65 62  1  0
 65 66  1  0
 66 64  2  0
 67 68  1  0
 68 69  2  0
 70 73  1  0
 70 69  1  0
 71 70  2  0
 72 71  1  0
 72 67  2  0
 73 74  1  0
 74 75  1  0
 75 76  2  0
 77 76  1  0
 77 81  1  0
 78 77  2  0
 79 74  2  0
 79 78  1  0
 80 79  1  0
 82 83  1  0
 83 86  1  0
 83 85  1  0
 84 82  2  0
 87 88  1  0
 87 62  1  0
 89 87  1  0
 90 92  1  0
 91 90  1  0
 91 92  1  0
 92 61  1  0
M  ISO  4  10 101  11 101  53 100  61 100
M  END
>  <TORSDO>  (26) 
F 20

>  <SCORE>  (26) 
-12.994

>  <name>  (26) 
25

>  <ligand_id>  (26) 
25

>  <original_smiles>  (26) 
[H]c1c([H])c([H])c2c(c1[H])C([H])([H])C([H])([H])C([H])([H])C2([H])N([H])C(=O)C1([H])N(C(=O)C([H])(N([H])C(=O)C([H])(N([H])C([H])([H])[H])C([H])([H])[H])C(C([H])([H])[H])(C([H])([H])[H])C([H])([H])[H])C([H])([H])c2c([H])c(OC([H])([H])C([H])([H])c3c([H])c(C([H])([H])[H])c(C([H])([H])N(C(=O)N4C([H])([H])C([H])([H])C([H])([H])C([H])(n5nc(-c6c([H])c([H])c(Oc7c([H])c([H])c(F)c([H])c7F)c([H])c6[H])c(C(=O)N([H])[H])c5N([H])[H])C4([H])[H])C4([H])C([H])([H])C4([H])[H])c(C([H])([H])[H])c3[H])c([H])c([H])c2C1([H])[H]

>  <smiles>  (26) 
[H]c1c([H])c([H])c2c(c1[H])C([H])([H])C([H])([H])C([H])([H])C2([H])N([H])C(=O)C1([H])N(C(=O)C([H])(N([H])C(=O)C([H])(N([H])C([H])([H])[H])C([H])([H])[H])C(C([H])([H])[H])(C([H])([H])[H])C([H])([H])[H])C([H])([H])c2c([H])c(OC([H])([H])C([H])([H])c3c([H])c(C([H])([H])[H])c(C([H])([H])N(C(=O)N4C([H])([H])C([H])([H])C([H])([H])C([H])(n5nc(-c6c([H])c([H])c(Oc7c([H])c([H])c(F)c([H])c7F)c([H])c6[H])c(C(=O)N([H])[H])c5N([H])[H])C4([H])[H])C4([H])C([H])([H])C4([H])[H])c(C([H])([H])[H])c3[H])c([H])c([H])c2C1([H])[H]

$$$$
26:0:0
     RDKit          3D

103111  0  0  1  0  0  0  0  0999 V2000
  -31.9720  -22.9380   21.6820 C   0  0  0  0  0  3  0  0  0  0  0  0
  -31.5660  -24.1150   21.0280 C   0  0  0  0  0  3  0  0  0  0  0  0
  -30.2300  -21.7070   20.5040 C   0  0  0  0  0  3  0  0  0  0  0  0
  -31.3160  -21.7220   21.4050 C   0  0  0  0  0  0  0  0  0  0  0  0
  -29.8390  -22.8750   19.8180 C   0  0  0  0  0  0  0  0  0  0  0  0
  -30.5110  -24.0900   20.0860 C   0  0  0  0  0  0  0  0  0  0  0  0
  -27.4120  -22.2510   19.3630 C   0  0  0  0  0  1  0  0  0  0  0  0
  -29.1680  -22.0070   17.5360 C   0  0  0  0  0  1  0  0  0  0  0  0
  -28.7210  -22.8020   18.7740 C   0  0  0  0  0  3  0  0  0  0  0  0
  -31.8480  -20.4130   21.9660 C   0  0  0  0  0  2  0  0  0  0  0  0
  -32.7700  -19.7790   20.9150 C   0  0  0  0  0  2  0  0  0  0  0  0
  -34.7790  -18.8370   22.0090 C   0  0  0  0  0  1  0  0  0  0  0  0
  -33.4950  -18.5470   21.3260 N   0  0  2  0  0  4  0  0  0  0  0  0
  -32.9220  -18.0640   22.0020 H   0  0  0  0  0  0  0  0  0  0  0  0
  -34.5620  -18.1150   19.0670 C   0  0  0  0  0  1  0  0  0  0  0  0
  -33.6460  -17.5750   20.2010 C   0  0  0  0  0  3  0  0  0  0  0  0
  -32.2240  -17.0820   19.7330 C   0  0  0  0  0  3  0  0  0  0  0  0
  -32.1370  -14.7560   20.7650 C   0  0  0  0  0  0  0  0  0  0  0  0
  -31.5730  -12.8180   19.4310 C   0  0  0  0  0  2  0  0  0  0  0  0
  -30.7220  -13.3050   18.2430 C   0  0  0  0  0  2  0  0  0  0  0  0
  -29.2260  -13.3620   18.6190 C   0  0  0  0  0  2  0  0  0  0  0  0
  -28.9370  -14.0190   20.0000 C   0  0  0  0  0  3  0  0  0  0  0  0
  -29.9340  -13.5480   21.0820 C   0  0  0  0  0  2  0  0  0  0  0  0
  -31.2940  -13.7180   20.5510 N   0  0  0  0  0  0  0  0  0  0  0  0
  -33.3540  -14.6310   20.7340 O   0  0  0  0  0  0  0  0  0  0  0  0
  -31.6060  -15.9690   20.5200 N   0  0  0  0  0  0  0  0  0  0  0  0
  -30.5990  -15.9940   20.5700 H   0  0  0  0  0  0  0  0  0  0  0  0
  -26.5660  -14.7770   20.6490 C   0  0  0  0  0  0  0  0  0  0  0  0
  -25.4170  -14.0730   20.8940 C   0  0  0  0  0  0  0  0  0  0  0  0
  -25.7630  -12.6950   20.7710 C   0  0  0  0  0  0  0  0  0  0  0  0
  -27.5450  -13.8270   20.3990 N   0  0  0  0  0  0  0  0  0  0  0  0
  -27.0630  -12.5650   20.5340 N   0  0  0  0  0  0  0  0  0  0  0  0
  -24.9250  -11.4900   20.8100 C   0  0  0  0  0  0  0  0  0  0  0  0
  -25.2380  -10.4000   21.6520 C   0  0  0  0  0  3  0  0  0  0  0  0
  -24.4070   -9.2610   21.6860 C   0  0  0  0  0  3  0  0  0  0  0  0
  -23.2460   -9.2030   20.8780 C   0  0  0  0  0  0  0  0  0  0  0  0
  -22.9540  -10.2800   20.0220 C   0  0  0  0  0  3  0  0  0  0  0  0
  -23.7860  -11.4120   19.9850 C   0  0  0  0  0  3  0  0  0  0  0  0
  -22.3930   -8.1290   20.8280 O   0  0  0  0  0  0  0  0  0  0  0  0
  -22.2200   -7.2970   21.9060 C   0  0  0  0  0  0  0  0  0  0  0  0
  -21.8000   -7.7840   23.1630 C   0  0  0  0  0  3  0  0  0  0  0  0
  -21.5690   -6.8840   24.2240 C   0  0  0  0  0  3  0  0  0  0  0  0
  -21.7470   -5.5020   24.0280 C   0  0  0  0  0  0  0  0  0  0  0  0
  -22.1580   -5.0150   22.7730 C   0  0  0  0  0  3  0  0  0  0  0  0
  -22.3920   -5.9120   21.7160 C   0  0  0  0  0  0  0  0  0  0  0  0
  -22.7680   -5.4360   20.5050 F   0  0  0  0  0  0  0  0  0  0  0  0
  -21.5160   -4.6360   25.0420 F   0  0  0  0  0  0  0  0  0  0  0  0
  -24.0510  -14.6500   21.1330 C   0  0  0  0  0  0  0  0  0  0  0  0
  -23.2220  -13.9600   21.9090 N   0  0  0  0  0  0  0  0  0  0  0  0
  -23.7270  -15.7410   20.6650 O   0  0  0  0  0  0  0  0  0  0  0  0
  -23.4920  -13.0740   22.3090 H   0  0  0  0  0  0  0  0  0  0  0  0
  -22.2980  -14.3210   22.1040 H   0  0  0  0  0  0  0  0  0  0  0  0
  -26.8570  -16.1360   20.5940 N   0  0  0  0  0  0  0  0  0  0  0  0
  -26.1400  -16.8440   20.7140 H   0  0  0  0  0  0  0  0  0  0  0  0
  -27.7540  -16.5260   20.3430 H   0  0  0  0  0  0  0  0  0  0  0  0
  -32.1750  -16.7910   18.2050 C   0  0  0  0  0  2  0  0  0  0  0  0
  -30.9410  -16.7130   16.0000 C   0  0  0  0  0  1  0  0  0  0  0  0
  -30.0940  -18.2490   17.8050 C   0  0  0  0  0  1  0  0  0  0  0  0
  -30.7960  -16.9090   17.5180 C   0  0  0  0  0  3  0  0  0  0  0  0
  -30.1500  -25.2150   19.3890 O   0  0  0  0  0  0  0  0  0  0  0  0
  -30.2630  -26.4440   20.0920 C   0  0  0  0  0  2  0  0  0  0  0  0
  -29.1170  -27.3530   19.6440 C   0  0  0  0  0  2  0  0  0  0  0  0
  -27.8670  -26.7100   19.9210 O   0  0  0  0  0  0  0  0  0  0  0  0
  -24.2980  -31.9680   23.1330 C   0  0  0  0  0  0  0  0  0  0  0  0
  -26.7350  -27.4910   19.9950 C   0  0  0  0  0  0  0  0  0  0  0  0
  -22.9840  -30.5890   21.5450 C   0  0  0  0  0  3  0  0  0  0  0  0
  -24.3430  -29.0010   20.0820 C   0  0  0  0  0  0  0  0  0  0  0  0
  -25.4960  -30.9010   21.2350 C   0  0  0  0  0  2  0  0  0  0  0  0
  -25.5250  -29.5220   20.6180 C   0  0  0  0  0  0  0  0  0  0  0  0
  -26.7140  -28.7760   20.5830 C   0  0  0  0  0  3  0  0  0  0  0  0
  -25.5330  -26.9650   19.4760 C   0  0  0  0  0  3  0  0  0  0  0  0
  -24.3380  -27.7150   19.5110 C   0  0  0  0  0  3  0  0  0  0  0  0
  -23.1200  -29.8850   20.1650 C   0  0  0  0  0  2  0  0  0  0  0  0
  -24.2800  -31.1650   22.0310 N   0  0  0  0  0  0  0  0  0  0  0  0
  -23.2490  -32.2730   23.7160 O   0  0  0  0  0  0  0  0  0  0  0  0
  -22.3470  -29.5950   22.5400 C   0  0  0  0  0  0  0  0  0  0  0  0
  -21.0170  -29.4350   22.4480 N   0  0  0  0  0  0  0  0  0  0  0  0
  -23.0420  -28.9710   23.3450 O   0  0  0  0  0  0  0  0  0  0  0  0
  -20.5190  -29.9880   21.7660 H   0  0  0  0  0  0  0  0  0  0  0  0
  -17.6430  -28.2840   23.0060 C   0  0  0  0  0  0  0  0  0  0  0  0
  -20.2040  -28.5260   23.2520 C   0  0  0  0  0  3  0  0  0  0  0  0
  -20.2910  -27.0800   22.7140 C   0  0  0  0  0  2  0  0  0  0  0  0
  -19.1780  -26.7400   21.7160 C   0  0  0  0  0  2  0  0  0  0  0  0
  -17.8030  -26.9150   22.3670 C   0  0  0  0  0  2  0  0  0  0  0  0
  -18.7710  -29.0470   23.4080 C   0  0  0  0  0  0  0  0  0  0  0  0
  -18.5690  -30.3290   23.9630 C   0  0  0  0  0  3  0  0  0  0  0  0
  -17.2710  -30.8480   24.1220 C   0  0  0  0  0  3  0  0  0  0  0  0
  -16.1570  -30.0820   23.7390 C   0  0  0  0  0  3  0  0  0  0  0  0
  -16.3430  -28.8020   23.1870 C   0  0  0  0  0  3  0  0  0  0  0  0
  -25.6290  -32.5600   23.6980 C   0  0  0  0  0  3  0  0  0  0  0  0
  -25.3630  -33.9490   24.0900 N   0  0  0  0  0  0  0  0  0  0  0  0
  -25.7140  -35.0220   23.3670 C   0  0  0  0  0  0  0  0  0  0  0  0
  -26.3680  -34.9420   22.3220 O   0  0  0  0  0  0  0  0  0  0  0  0
  -24.7850  -34.0870   24.9060 H   0  0  0  0  0  0  0  0  0  0  0  0
  -24.0360  -36.8720   23.0940 C   0  0  0  0  0  1  0  0  0  0  0  0
  -25.2680  -36.4010   23.8840 C   0  0  0  0  0  3  0  0  0  0  0  0
  -27.4290  -37.1890   24.7420 C   0  0  0  0  0  1  0  0  0  0  0  0
  -26.3290  -37.4300   23.8110 N   0  0  0  0  0  0  0  0  0  0  0  0
  -25.9490  -38.3530   24.0020 H   0  0  0  0  0  0  0  0  0  0  0  0
  -26.2130  -31.7360   24.9110 C   0  0  1  0  0  0  0  0  0  0  0  0
  -25.1860  -31.4780   26.0380 C   0  0  0  0  0  1  0  0  0  0  0  0
  -26.7410  -30.3650   24.4290 C   0  0  0  0  0  1  0  0  0  0  0  0
  -27.4190  -32.4850   25.5240 C   0  0  0  0  0  1  0  0  0  0  0  0
  2  1  2  0
  3  4  2  0
  4  1  1  0
  4 10  1  0
  5  6  2  0
  5  3  1  0
  6  2  1  0
  8  9  1  0
  9  7  1  0
  9  5  1  0
 11 13  1  0
 11 10  1  0
 13 14  1  1
 13 12  1  0
 16 15  1  0
 16 13  1  0
 17 56  1  0
 17 16  1  0
 17 26  1  0
 19 24  1  0
 20 21  1  0
 20 19  1  0
 22 21  1  0
 22 31  1  0
 22 23  1  0
 24 18  1  0
 24 23  1  0
 25 18  2  0
 26 27  1  0
 26 18  1  0
 28 29  2  0
 29 48  1  0
 30 33  1  0
 30 29  1  0
 31 32  1  0
 31 28  1  0
 32 30  2  0
 33 34  1  0
 34 35  2  0
 36 35  1  0
 37 36  2  0
 38 37  1  0
 38 33  2  0
 39 36  1  0
 39 40  1  0
 40 41  1  0
 41 42  2  0
 43 42  1  0
 43 47  1  0
 44 43  2  0
 45 40  2  0
 45 44  1  0
 46 45  1  0
 48 49  1  0
 49 52  1  0
 49 51  1  0
 50 48  2  0
 53 28  1  0
 53 54  1  0
 55 53  1  0
 57 59  1  0
 59 58  1  0
 59 56  1  0
 60  6  1  0
 60 61  1  0
 62 63  1  0
 62 61  1  0
 63 65  1  0
 64 75  2  0
 65 70  1  0
 66 74  1  0
 66 76  1  0
 67 73  1  0
 67 69  1  0
 68 74  1  0
 69 68  1  0
 70 69  2  0
 71 72  1  0
 71 65  2  0
 72 67  2  0
 73 66  1  0
 74 64  1  0
 76 78  2  0
 77 76  1  0
 79 77  1  0
 80 89  2  0
 80 85  1  0
 81 77  1  0
 81 85  1  0
 82 81  1  0
 83 84  1  0
 83 82  1  0
 84 80  1  0
 85 86  2  0
 86 87  1  0
 88 87  2  0
 89 88  1  0
 90 64  1  0
 90 91  1  0
 90100  1  0
 91 94  1  0
 92 96  1  0
 92 91  1  0
 93 92  2  0
 96 95  1  0
 98 96  1  0
 98 99  1  0
 98 97  1  0
100103  1  1
100101  1  0
102100  1  0
M  ISO  4  18 100  26 100  62 101  63 101
M  END
>  <TORSDO>  (27) 
F 27

>  <SCORE>  (27) 
-5.991

>  <name>  (27) 
26

>  <ligand_id>  (27) 
26

>  <original_smiles>  (27) 
[H]c1c([H])c([H])c2c(c1[H])C([H])([H])C([H])([H])C([H])([H])C2([H])N([H])C(=O)C1([H])N(C(=O)C([H])(N([H])C(=O)C([H])(N([H])C([H])([H])[H])C([H])([H])[H])C(C([H])([H])[H])(C([H])([H])[H])C([H])([H])[H])C([H])([H])c2c([H])c(OC([H])([H])C([H])([H])Oc3c([H])c([H])c(C([H])([H])C([H])([H])[N+]([H])(C([H])([H])[H])C([H])(C([H])([H])[H])C([H])(N([H])C(=O)N4C([H])([H])C([H])([H])C([H])([H])C([H])(n5nc(-c6c([H])c([H])c(Oc7c([H])c([H])c(F)c([H])c7F)c([H])c6[H])c(C(=O)N([H])[H])c5N([H])[H])C4([H])[H])C([H])([H])C([H])(C([H])([H])[H])C([H])([H])[H])c([H])c3C([H])(C([H])([H])[H])C([H])([H])[H])c([H])c([H])c2C1([H])[H]

>  <smiles>  (27) 
[H]c1c([H])c([H])c2c(c1[H])C([H])([H])C([H])([H])C([H])([H])C2([H])N([H])C(=O)C1([H])N(C(=O)C([H])(N([H])C(=O)C([H])(N([H])C([H])([H])[H])C([H])([H])[H])C(C([H])([H])[H])(C([H])([H])[H])C([H])([H])[H])C([H])([H])c2c([H])c(OC([H])([H])C([H])([H])Oc3c([H])c([H])c(C([H])([H])C([H])([H])[N+]([H])(C([H])([H])[H])C([H])(C([H])([H])[H])C([H])(N([H])C(=O)N4C([H])([H])C([H])([H])C([H])([H])C([H])(n5nc(-c6c([H])c([H])c(Oc7c([H])c([H])c(F)c([H])c7F)c([H])c6[H])c(C(=O)N([H])[H])c5N([H])[H])C4([H])[H])C([H])([H])C([H])(C([H])([H])[H])C([H])([H])[H])c([H])c3C([H])(C([H])([H])[H])C([H])([H])[H])c([H])c([H])c2C1([H])[H]

$$$$
27:0:0
     RDKit          3D

 90 98  0  0  1  0  0  0  0  0999 V2000
  -30.0150  -23.3910   18.9030 C   0  0  0  0  0  1  0  0  0  0  0  0
  -30.0720  -23.3850   21.3910 C   0  0  0  0  0  1  0  0  0  0  0  0
  -29.2080  -23.0270   20.1680 C   0  0  2  0  0  0  0  0  0  0  0  0
  -30.4490  -15.2790   20.2520 C   0  0  0  0  0  0  0  0  0  0  0  0
  -30.4620  -12.8430   19.3770 C   0  0  0  0  0  2  0  0  0  0  0  0
  -29.5350  -12.6630   18.1470 C   0  0  0  0  0  2  0  0  0  0  0  0
  -28.0840  -12.3930   18.5850 C   0  0  0  0  0  2  0  0  0  0  0  0
  -27.6360  -13.3400   19.7250 C   0  0  0  0  0  3  0  0  0  0  0  0
  -28.6880  -13.4580   20.8500 C   0  0  0  0  0  2  0  0  0  0  0  0
  -29.9220  -13.9620   20.2270 N   0  0  0  0  0  0  0  0  0  0  0  0
  -31.6590  -15.3310   19.9800 O   0  0  0  0  0  0  0  0  0  0  0  0
  -28.1860  -20.3130   20.6510 C   0  0  0  0  0  3  0  0  0  0  0  0
  -28.3670  -18.8390   20.7000 C   0  0  0  0  0  3  0  0  0  0  0  0
  -30.3180  -20.4190   19.8580 C   0  0  0  0  0  3  0  0  0  0  0  0
  -29.1760  -21.2740   20.2050 C   0  0  0  0  0  0  0  0  0  0  0  0
  -29.5520  -18.0740   20.3290 C   0  0  0  0  0  0  0  0  0  0  0  0
  -30.4940  -19.0050   19.9070 N   0  0  0  0  0  0  0  0  0  0  0  0
  -29.5990  -16.4680   20.4210 N   0  0  0  0  0  0  0  0  0  0  0  0
  -28.6840  -16.1260   20.6690 H   0  0  0  0  0  0  0  0  0  0  0  0
  -25.2590  -13.8800   20.4830 C   0  0  0  0  0  0  0  0  0  0  0  0
  -24.2050  -13.0930   20.8550 C   0  0  0  0  0  0  0  0  0  0  0  0
  -24.6830  -11.7480   20.8180 C   0  0  0  0  0  0  0  0  0  0  0  0
  -26.3080  -13.0150   20.2320 N   0  0  0  0  0  0  0  0  0  0  0  0
  -25.9740  -11.7260   20.5020 N   0  0  0  0  0  0  0  0  0  0  0  0
  -23.9660  -10.4780   21.0040 C   0  0  0  0  0  0  0  0  0  0  0  0
  -24.3890   -9.5240   21.9540 C   0  0  0  0  0  3  0  0  0  0  0  0
  -23.6710   -8.3210   22.1290 C   0  0  0  0  0  3  0  0  0  0  0  0
  -22.5150   -8.0650   21.3540 C   0  0  0  0  0  0  0  0  0  0  0  0
  -22.1120   -9.0090   20.3930 C   0  0  0  0  0  3  0  0  0  0  0  0
  -22.8320  -10.2020   20.2160 C   0  0  0  0  0  3  0  0  0  0  0  0
  -21.7700   -6.9130   21.4370 O   0  0  0  0  0  0  0  0  0  0  0  0
  -21.6810   -6.1970   22.6030 C   0  0  0  0  0  0  0  0  0  0  0  0
  -21.1760   -6.7660   23.7920 C   0  0  0  0  0  3  0  0  0  0  0  0
  -21.0370   -5.9740   24.9490 C   0  0  0  0  0  3  0  0  0  0  0  0
  -21.3940   -4.6120   24.9180 C   0  0  0  0  0  0  0  0  0  0  0  0
  -21.8930   -4.0420   23.7330 C   0  0  0  0  0  3  0  0  0  0  0  0
  -22.0330   -4.8310   22.5790 C   0  0  0  0  0  0  0  0  0  0  0  0
  -22.4930   -4.2720   21.4340 F   0  0  0  0  0  0  0  0  0  0  0  0
  -21.2540   -3.8490   26.0270 F   0  0  0  0  0  0  0  0  0  0  0  0
  -22.8040  -13.5590   21.1270 C   0  0  0  0  0  0  0  0  0  0  0  0
  -22.0850  -12.8600   21.9970 N   0  0  0  0  0  0  0  0  0  0  0  0
  -22.3570  -14.5770   20.6010 O   0  0  0  0  0  0  0  0  0  0  0  0
  -22.4600  -12.0370   22.4440 H   0  0  0  0  0  0  0  0  0  0  0  0
  -21.1450  -13.1540   22.2220 H   0  0  0  0  0  0  0  0  0  0  0  0
  -25.4060  -15.2540   20.3060 N   0  0  0  0  0  0  0  0  0  0  0  0
  -24.6190  -15.8860   20.3980 H   0  0  0  0  0  0  0  0  0  0  0  0
  -26.2150  -15.6910   19.8840 H   0  0  0  0  0  0  0  0  0  0  0  0
  -26.9580  -23.9960   21.2500 C   0  0  0  0  0  1  0  0  0  0  0  0
  -27.9930  -24.3330   20.1680 C   0  0  0  0  0  3  0  0  0  0  0  0
  -28.2150  -25.9580   20.2390 O   0  0  0  0  0  0  0  0  0  0  0  0
  -24.6360  -31.8560   23.2390 C   0  0  0  0  0  0  0  0  0  0  0  0
  -27.1920  -27.0320   20.1790 C   0  0  0  0  0  0  0  0  0  0  0  0
  -23.4430  -30.4800   21.5810 C   0  0  0  0  0  3  0  0  0  0  0  0
  -24.8920  -28.8930   20.1450 C   0  0  0  0  0  0  0  0  0  0  0  0
  -26.0070  -30.6970   21.4410 C   0  0  0  0  0  2  0  0  0  0  0  0
  -26.0760  -29.2960   20.7720 C   0  0  0  0  0  0  0  0  0  0  0  0
  -27.2220  -28.3870   20.7660 C   0  0  0  0  0  3  0  0  0  0  0  0
  -25.9800  -26.7750   19.4990 C   0  0  0  0  0  3  0  0  0  0  0  0
  -24.8670  -27.6520   19.4880 C   0  0  0  0  0  3  0  0  0  0  0  0
  -23.6720  -29.8110   20.1980 C   0  0  0  0  0  2  0  0  0  0  0  0
  -24.7170  -31.0370   22.1410 N   0  0  0  0  0  0  0  0  0  0  0  0
  -23.5470  -32.1430   23.7610 O   0  0  0  0  0  0  0  0  0  0  0  0
  -22.7460  -29.4750   22.5350 C   0  0  0  0  0  0  0  0  0  0  0  0
  -21.4160  -29.3160   22.4070 N   0  0  0  0  0  0  0  0  0  0  0  0
  -23.4090  -28.8380   23.3570 O   0  0  0  0  0  0  0  0  0  0  0  0
  -20.9350  -29.8810   21.7210 H   0  0  0  0  0  0  0  0  0  0  0  0
  -18.0260  -28.1270   22.9080 C   0  0  0  0  0  0  0  0  0  0  0  0
  -20.5890  -28.3730   23.1670 C   0  0  0  0  0  3  0  0  0  0  0  0
  -20.6790  -26.9490   22.5720 C   0  0  0  0  0  2  0  0  0  0  0  0
  -19.5720  -26.6480   21.5570 C   0  0  0  0  0  2  0  0  0  0  0  0
  -18.1930  -26.7890   22.2080 C   0  0  0  0  0  2  0  0  0  0  0  0
  -19.1500  -28.8780   23.3440 C   0  0  0  0  0  0  0  0  0  0  0  0
  -18.9370  -30.1290   23.9620 C   0  0  0  0  0  3  0  0  0  0  0  0
  -17.6350  -30.6300   24.1450 C   0  0  0  0  0  3  0  0  0  0  0  0
  -16.5260  -29.8770   23.7230 C   0  0  0  0  0  3  0  0  0  0  0  0
  -16.7220  -28.6260   23.1100 C   0  0  0  0  0  3  0  0  0  0  0  0
  -25.9080  -32.4870   23.8820 C   0  0  0  0  0  3  0  0  0  0  0  0
  -25.5940  -33.8850   24.2280 N   0  0  0  0  0  0  0  0  0  0  0  0
  -25.8960  -34.9490   23.4720 C   0  0  0  0  0  0  0  0  0  0  0  0
  -26.5280  -34.8570   22.4160 O   0  0  0  0  0  0  0  0  0  0  0  0
  -25.0270  -34.0280   25.0500 H   0  0  0  0  0  0  0  0  0  0  0  0
  -24.1290  -36.7260   23.2220 C   0  0  0  0  0  1  0  0  0  0  0  0
  -25.4200  -36.3330   23.9580 C   0  0  0  0  0  3  0  0  0  0  0  0
  -27.5850  -37.2480   24.6720 C   0  0  0  0  0  1  0  0  0  0  0  0
  -26.4320  -37.3990   23.7890 N   0  0  0  0  0  0  0  0  0  0  0  0
  -26.0220  -38.3140   23.9560 H   0  0  0  0  0  0  0  0  0  0  0  0
  -26.4060  -31.7100   25.1630 C   0  0  1  0  0  0  0  0  0  0  0  0
  -25.3000  -31.4750   26.2190 C   0  0  0  0  0  1  0  0  0  0  0  0
  -26.9870  -30.3290   24.7790 C   0  0  0  0  0  1  0  0  0  0  0  0
  -27.5540  -32.4960   25.8400 C   0  0  0  0  0  1  0  0  0  0  0  0
  3  1  1  6
  3 15  1  0
  3  2  1  0
  4 18  1  0
  5 10  1  0
  6  7  1  0
  6  5  1  0
  8  7  1  0
  8 23  1  0
  8  9  1  0
 10  4  1  0
 10  9  1  0
 11  4  2  0
 12 13  1  0
 14 17  2  0
 14 15  1  0
 15 12  2  0
 16 18  1  0
 16 13  2  0
 17 16  1  0
 18 19  1  0
 20 21  2  0
 21 40  1  0
 22 21  1  0
 22 25  1  0
 23 20  1  0
 23 24  1  0
 24 22  2  0
 25 26  1  0
 26 27  2  0
 28 31  1  0
 28 27  1  0
 29 28  2  0
 30 29  1  0
 30 25  2  0
 31 32  1  0
 32 33  1  0
 33 34  2  0
 35 34  1  0
 35 39  1  0
 36 35  2  0
 37 32  2  0
 37 36  1  0
 38 37  1  0
 40 41  1  0
 41 44  1  0
 41 43  1  0
 42 40  2  0
 45 46  1  0
 45 20  1  0
 47 45  1  0
 49  3  1  0
 49 50  1  0
 49 48  1  0
 51 62  2  0
 52 50  1  0
 52 57  1  0
 53 61  1  0
 53 63  1  0
 54 60  1  0
 54 56  1  0
 55 61  1  0
 56 55  1  0
 57 56  2  0
 58 52  2  0
 59 58  1  0
 59 54  2  0
 60 53  1  0
 61 51  1  0
 63 65  2  0
 64 63  1  0
 66 64  1  0
 67 76  2  0
 67 72  1  0
 68 64  1  0
 68 72  1  0
 69 68  1  0
 70 71  1  0
 70 69  1  0
 71 67  1  0
 72 73  2  0
 73 74  1  0
 75 74  2  0
 76 75  1  0
 77 51  1  0
 77 78  1  0
 77 87  1  0
 78 81  1  0
 79 83  1  0
 79 78  1  0
 80 79  2  0
 83 82  1  0
 85 86  1  0
 85 83  1  0
 85 84  1  0
 87 90  1  1
 87 88  1  0
 89 87  1  0
M  ISO  4   4 100  18 100  49 101  50 101
M  END
>  <TORSDO>  (28) 
F 17

>  <SCORE>  (28) 
-15.876

>  <name>  (28) 
27

>  <ligand_id>  (28) 
27

>  <original_smiles>  (28) 
[H]c1nc(N([H])C(=O)N2C([H])([H])C([H])([H])C([H])([H])C([H])(n3nc(-c4c([H])c([H])c(Oc5c([H])c([H])c(F)c([H])c5F)c([H])c4[H])c(C(=O)N([H])[H])c3N([H])[H])C2([H])[H])c([H])c([H])c1C(C([H])([H])[H])(C([H])([H])[H])C([H])(Oc1c([H])c([H])c2c(c1[H])C([H])([H])N(C(=O)C([H])(N([H])C(=O)C([H])(N([H])C([H])([H])[H])C([H])([H])[H])C(C([H])([H])[H])(C([H])([H])[H])C([H])([H])[H])C([H])(C(=O)N([H])C1([H])c3c([H])c([H])c([H])c([H])c3C([H])([H])C([H])([H])C1([H])[H])C2([H])[H])C([H])([H])[H]

>  <smiles>  (28) 
[H]c1nc(N([H])C(=O)N2C([H])([H])C([H])([H])C([H])([H])C([H])(n3nc(-c4c([H])c([H])c(Oc5c([H])c([H])c(F)c([H])c5F)c([H])c4[H])c(C(=O)N([H])[H])c3N([H])[H])C2([H])[H])c([H])c([H])c1C(C([H])([H])[H])(C([H])([H])[H])C([H])(Oc1c([H])c([H])c2c(c1[H])C([H])([H])N(C(=O)C([H])(N([H])C(=O)C([H])(N([H])C([H])([H])[H])C([H])([H])[H])C(C([H])([H])[H])(C([H])([H])[H])C([H])([H])[H])C([H])(C(=O)N([H])C1([H])c3c([H])c([H])c([H])c([H])c3C([H])([H])C([H])([H])C1([H])[H])C2([H])[H])C([H])([H])[H]

$$$$
28:0:0
     RDKit          3D

 94102  0  0  1  0  0  0  0  0999 V2000
  -30.5310  -18.4250   18.9290 C   0  0  0  0  0  2  0  0  0  0  0  0
  -29.6310  -18.6390   21.1590 C   0  0  0  0  0  2  0  0  0  0  0  0
  -29.9300  -19.8770   18.5460 C   0  0  0  0  0  3  0  0  0  0  0  0
  -29.7150  -17.6130   19.9830 C   0  0  0  0  0  3  0  0  0  0  0  0
  -28.9120  -20.0250   20.7940 C   0  0  0  0  0  3  0  0  0  0  0  0
  -27.4000  -19.7660   20.5940 C   0  0  0  0  0  1  0  0  0  0  0  0
  -29.5350  -20.8400   19.6630 N   0  0  2  0  0  4  0  0  0  0  0  0
  -30.3950  -21.2030   20.0490 H   0  0  0  0  0  0  0  0  0  0  0  0
  -30.7230  -14.9900   20.0780 C   0  0  0  0  0  0  0  0  0  0  0  0
  -30.6000  -12.5960   19.3190 C   0  0  0  0  0  2  0  0  0  0  0  0
  -29.6740  -12.5380   18.0810 C   0  0  0  0  0  2  0  0  0  0  0  0
  -28.2020  -12.3790   18.5140 C   0  0  0  0  0  2  0  0  0  0  0  0
  -27.8080  -13.3870   19.6280 C   0  0  0  0  0  3  0  0  0  0  0  0
  -28.8520  -13.4040   20.7660 C   0  0  0  0  0  2  0  0  0  0  0  0
  -30.1530  -13.7320   20.1610 N   0  0  0  0  0  0  0  0  0  0  0  0
  -31.8860  -15.1040   19.6790 O   0  0  0  0  0  0  0  0  0  0  0  0
  -29.8700  -16.0820   20.2710 N   0  0  0  0  0  0  0  0  0  0  0  0
  -28.9990  -15.7170   20.6300 H   0  0  0  0  0  0  0  0  0  0  0  0
  -25.4900  -14.0910   20.4690 C   0  0  0  0  0  0  0  0  0  0  0  0
  -24.3790  -13.3710   20.8170 C   0  0  0  0  0  0  0  0  0  0  0  0
  -24.7370  -11.9980   20.6670 C   0  0  0  0  0  0  0  0  0  0  0  0
  -26.4570  -13.1580   20.1310 N   0  0  0  0  0  0  0  0  0  0  0  0
  -26.0120  -11.8890   20.3120 N   0  0  0  0  0  0  0  0  0  0  0  0
  -23.9220  -10.7830   20.7840 C   0  0  0  0  0  0  0  0  0  0  0  0
  -24.3260   -9.6970   21.5890 C   0  0  0  0  0  3  0  0  0  0  0  0
  -23.5150   -8.5460   21.7020 C   0  0  0  0  0  3  0  0  0  0  0  0
  -22.2850   -8.4760   21.0070 C   0  0  0  0  0  0  0  0  0  0  0  0
  -21.8970   -9.5520   20.1900 C   0  0  0  0  0  3  0  0  0  0  0  0
  -22.7080  -10.6940   20.0750 C   0  0  0  0  0  3  0  0  0  0  0  0
  -21.4460   -7.3870   21.0340 O   0  0  0  0  0  0  0  0  0  0  0  0
  -21.4450   -6.5030   22.0830 C   0  0  0  0  0  0  0  0  0  0  0  0
  -21.1590   -6.9140   23.4030 C   0  0  0  0  0  3  0  0  0  0  0  0
  -21.1020   -5.9630   24.4400 C   0  0  0  0  0  3  0  0  0  0  0  0
  -21.3180   -4.6000   24.1590 C   0  0  0  0  0  0  0  0  0  0  0  0
  -21.5970   -4.1870   22.8450 C   0  0  0  0  0  3  0  0  0  0  0  0
  -21.6560   -5.1370   21.8090 C   0  0  0  0  0  0  0  0  0  0  0  0
  -21.9040   -4.7300   20.5400 F   0  0  0  0  0  0  0  0  0  0  0  0
  -21.2540   -3.6830   25.1530 F   0  0  0  0  0  0  0  0  0  0  0  0
  -23.0320  -13.9290   21.1690 C   0  0  0  0  0  0  0  0  0  0  0  0
  -22.2780  -13.2270   22.0090 N   0  0  0  0  0  0  0  0  0  0  0  0
  -22.6560  -15.0200   20.7400 O   0  0  0  0  0  0  0  0  0  0  0  0
  -22.5950  -12.3440   22.3780 H   0  0  0  0  0  0  0  0  0  0  0  0
  -21.3730  -13.5770   22.2820 H   0  0  0  0  0  0  0  0  0  0  0  0
  -25.7470  -15.4560   20.3940 N   0  0  0  0  0  0  0  0  0  0  0  0
  -25.0130  -16.1400   20.5530 H   0  0  0  0  0  0  0  0  0  0  0  0
  -26.5910  -15.8610   20.0100 H   0  0  0  0  0  0  0  0  0  0  0  0
  -30.6100  -20.9600   16.3660 C   0  0  0  0  0  2  0  0  0  0  0  0
  -30.9020  -20.5790   17.6170 C   0  0  0  0  0  3  0  0  0  0  0  0
  -28.7380  -22.1220   19.1990 C   0  0  0  0  0  2  0  0  0  0  0  0
  -29.2380  -23.6720   19.4270 C   0  0  0  0  0  3  0  0  0  0  0  0
  -29.7230  -23.7410   20.7600 O   0  0  0  0  0  0  0  0  0  0  0  0
  -28.9760  -23.8840   21.3340 H   0  0  0  0  0  0  0  0  0  0  0  0
  -28.1370  -24.8910   19.2570 C   0  0  0  0  0  2  0  0  0  0  0  0
  -28.3750  -26.3900   19.4170 O   0  0  0  0  0  0  0  0  0  0  0  0
  -24.5240  -31.4920   22.9750 C   0  0  0  0  0  0  0  0  0  0  0  0
  -27.2510  -27.2700   19.4680 C   0  0  0  0  0  0  0  0  0  0  0  0
  -23.3470  -30.1820   21.2490 C   0  0  0  0  0  3  0  0  0  0  0  0
  -24.8270  -28.8310   19.6560 C   0  0  0  0  0  0  0  0  0  0  0  0
  -25.8740  -30.6170   21.0420 C   0  0  0  0  0  2  0  0  0  0  0  0
  -25.9980  -29.3020   20.2660 C   0  0  0  0  0  0  0  0  0  0  0  0
  -27.2110  -28.5370   20.1570 C   0  0  0  0  0  3  0  0  0  0  0  0
  -26.0470  -26.8850   18.8340 C   0  0  0  0  0  3  0  0  0  0  0  0
  -24.8590  -27.6350   18.9290 C   0  0  0  0  0  3  0  0  0  0  0  0
  -23.5560  -29.6460   19.8100 C   0  0  0  0  0  2  0  0  0  0  0  0
  -24.6010  -30.7770   21.8130 N   0  0  0  0  0  0  0  0  0  0  0  0
  -23.4400  -31.6720   23.5530 O   0  0  0  0  0  0  0  0  0  0  0  0
  -22.7530  -29.0560   22.1320 C   0  0  0  0  0  0  0  0  0  0  0  0
  -21.4330  -28.8240   22.0180 N   0  0  0  0  0  0  0  0  0  0  0  0
  -23.4790  -28.3980   22.8800 O   0  0  0  0  0  0  0  0  0  0  0  0
  -20.8980  -29.4190   21.4000 H   0  0  0  0  0  0  0  0  0  0  0  0
  -18.1330  -27.4050   22.4730 C   0  0  0  0  0  0  0  0  0  0  0  0
  -20.6800  -27.7810   22.7200 C   0  0  0  0  0  3  0  0  0  0  0  0
  -20.8450  -26.4100   22.0270 C   0  0  0  0  0  2  0  0  0  0  0  0
  -19.7400  -26.1110   21.0080 C   0  0  0  0  0  2  0  0  0  0  0  0
  -18.3660  -26.1270   21.6840 C   0  0  0  0  0  2  0  0  0  0  0  0
  -19.2190  -28.1900   22.9450 C   0  0  0  0  0  0  0  0  0  0  0  0
  -18.9450  -29.3860   23.6430 C   0  0  0  0  0  3  0  0  0  0  0  0
  -17.6180  -29.7960   23.8760 C   0  0  0  0  0  3  0  0  0  0  0  0
  -16.5490  -29.0090   23.4200 C   0  0  0  0  0  3  0  0  0  0  0  0
  -16.8060  -27.8140   22.7240 C   0  0  0  0  0  3  0  0  0  0  0  0
  -25.7900  -32.1340   23.6220 C   0  0  0  0  0  3  0  0  0  0  0  0
  -25.4450  -33.5130   24.0010 N   0  0  0  0  0  0  0  0  0  0  0  0
  -25.7480  -34.6000   23.2790 C   0  0  0  0  0  0  0  0  0  0  0  0
  -26.4140  -34.5490   22.2420 O   0  0  0  0  0  0  0  0  0  0  0  0
  -24.8550  -33.6260   24.8110 H   0  0  0  0  0  0  0  0  0  0  0  0
  -23.9600  -36.3540   23.0190 C   0  0  0  0  0  1  0  0  0  0  0  0
  -25.2300  -35.9590   23.7910 C   0  0  0  0  0  3  0  0  0  0  0  0
  -27.3460  -36.8890   24.6180 C   0  0  0  0  0  1  0  0  0  0  0  0
  -26.2280  -37.0450   23.6910 N   0  0  0  0  0  0  0  0  0  0  0  0
  -25.7940  -37.9480   23.8670 H   0  0  0  0  0  0  0  0  0  0  0  0
  -26.3180  -31.3350   24.8770 C   0  0  1  0  0  0  0  0  0  0  0  0
  -25.2290  -31.0500   25.9380 C   0  0  0  0  0  1  0  0  0  0  0  0
  -26.9260  -29.9800   24.4510 C   0  0  0  0  0  1  0  0  0  0  0  0
  -27.4530  -32.1320   25.5630 C   0  0  0  0  0  1  0  0  0  0  0  0
  1  4  1  0
  3 48  1  0
  3  1  1  0
  3  7  1  0
  4 17  1  0
  4  2  1  0
  5  6  1  0
  5  2  1  0
  7  8  1  1
  7  5  1  0
  9 15  1  0
  9 17  1  0
 10 15  1  0
 11 12  1  0
 11 10  1  0
 13 12  1  0
 13 22  1  0
 13 14  1  0
 15 14  1  0
 16  9  2  0
 17 18  1  0
 19 20  2  0
 20 39  1  0
 21 24  1  0
 21 20  1  0
 22 23  1  0
 22 19  1  0
 23 21  2  0
 24 25  1  0
 25 26  2  0
 27 30  1  0
 27 26  1  0
 28 27  2  0
 29 28  1  0
 29 24  2  0
 30 31  1  0
 31 32  1  0
 32 33  2  0
 34 33  1  0
 34 38  1  0
 35 34  2  0
 36 31  2  0
 36 35  1  0
 37 36  1  0
 39 40  1  0
 40 43  1  0
 40 42  1  0
 41 39  2  0
 44 19  1  0
 44 45  1  0
 46 44  1  0
 47 48  2  0
 49  7  1  0
 50 49  1  0
 50 51  1  0
 51 52  1  0
 53 54  1  0
 53 50  1  0
 54 56  1  0
 55 66  2  0
 56 61  1  0
 57 65  1  0
 57 67  1  0
 58 64  1  0
 58 60  1  0
 59 65  1  0
 60 59  1  0
 61 60  2  0
 62 63  1  0
 62 56  2  0
 63 58  2  0
 64 57  1  0
 65 55  1  0
 67 69  2  0
 68 67  1  0
 70 68  1  0
 71 80  2  0
 71 76  1  0
 72 68  1  0
 72 76  1  0
 73 72  1  0
 74 75  1  0
 74 73  1  0
 75 71  1  0
 76 77  2  0
 77 78  1  0
 79 78  2  0
 80 79  1  0
 81 55  1  0
 81 82  1  0
 81 91  1  0
 82 85  1  0
 83 87  1  0
 83 82  1  0
 84 83  2  0
 87 86  1  0
 89 87  1  0
 89 90  1  0
 89 88  1  0
 91 94  1  1
 91 92  1  0
 93 91  1  0
M  ISO  4   9 100  17 100  53 101  54 101
M  END
>  <TORSDO>  (29) 
F 21

>  <SCORE>  (29) 
-11.436

>  <name>  (29) 
28

>  <ligand_id>  (29) 
28

>  <original_smiles>  (29) 
[H]OC([H])(C([H])([H])Oc1c([H])c([H])c2c(c1[H])C([H])([H])N(C(=O)C([H])(N([H])C(=O)C([H])(N([H])C([H])([H])[H])C([H])([H])[H])C(C([H])([H])[H])(C([H])([H])[H])C([H])([H])[H])C([H])(C(=O)N([H])C1([H])c3c([H])c([H])c([H])c([H])c3C([H])([H])C([H])([H])C1([H])[H])C2([H])[H])C([H])([H])[N+]1([H])C([H])(C([H])=C([H])[H])C([H])([H])C([H])(N([H])C(=O)N2C([H])([H])C([H])([H])C([H])([H])C([H])(n3nc(-c4c([H])c([H])c(Oc5c([H])c([H])c(F)c([H])c5F)c([H])c4[H])c(C(=O)N([H])[H])c3N([H])[H])C2([H])[H])C([H])([H])C1([H])C([H])([H])[H]

>  <smiles>  (29) 
[H]OC([H])(C([H])([H])Oc1c([H])c([H])c2c(c1[H])C([H])([H])N(C(=O)C([H])(N([H])C(=O)C([H])(N([H])C([H])([H])[H])C([H])([H])[H])C(C([H])([H])[H])(C([H])([H])[H])C([H])([H])[H])C([H])(C(=O)N([H])C1([H])c3c([H])c([H])c([H])c([H])c3C([H])([H])C([H])([H])C1([H])[H])C2([H])[H])C([H])([H])[N+]1([H])C([H])(C([H])=C([H])[H])C([H])([H])C([H])(N([H])C(=O)N2C([H])([H])C([H])([H])C([H])([H])C([H])(n3nc(-c4c([H])c([H])c(Oc5c([H])c([H])c(F)c([H])c5F)c([H])c4[H])c(C(=O)N([H])[H])c3N([H])[H])C2([H])[H])C([H])([H])C1([H])C([H])([H])[H]

$$$$
29:0:0
     RDKit          3D

 90 98  0  0  1  0  0  0  0  0999 V2000
  -29.5290  -22.0740   19.3900 C   0  0  0  0  0  2  0  0  0  0  0  0
  -27.5900  -21.7740   20.7040 C   0  0  0  0  0  2  0  0  0  0  0  0
  -29.4980  -23.6860   19.7240 C   0  0  0  0  0  2  0  0  0  0  0  0
  -27.5390  -23.3990   21.0250 C   0  0  0  0  0  2  0  0  0  0  0  0
  -28.9670  -20.9670   20.4220 C   0  0  0  0  0  3  0  0  0  0  0  0
  -28.1220  -24.4820   19.9850 C   0  0  0  0  0  3  0  0  0  0  0  0
  -28.9330  -19.1560   18.4910 C   0  0  0  0  0  1  0  0  0  0  0  0
  -28.9460  -19.2480   20.0240 C   0  0  2  0  0  0  0  0  0  0  0  0
  -27.6750  -18.7910   20.4320 O   0  0  0  0  0  0  0  0  0  0  0  0
  -27.0260  -19.3620   20.0360 H   0  0  0  0  0  0  0  0  0  0  0  0
  -29.9390  -17.9380   20.5670 C   0  0  0  0  0  2  0  0  0  0  0  0
  -30.4360  -15.1380   20.3900 C   0  0  0  0  0  0  0  0  0  0  0  0
  -30.4010  -12.7370   19.4920 C   0  0  0  0  0  2  0  0  0  0  0  0
  -29.4940  -12.5940   18.2460 C   0  0  0  0  0  2  0  0  0  0  0  0
  -28.0270  -12.3660   18.6530 C   0  0  0  0  0  2  0  0  0  0  0  0
  -27.5720  -13.3190   19.7900 C   0  0  0  0  0  3  0  0  0  0  0  0
  -28.6030  -13.4100   20.9350 C   0  0  0  0  0  2  0  0  0  0  0  0
  -29.8620  -13.8580   20.3240 N   0  0  0  0  0  0  0  0  0  0  0  0
  -31.6620  -15.1780   20.2320 O   0  0  0  0  0  0  0  0  0  0  0  0
  -29.6460  -16.3520   20.4270 N   0  0  0  0  0  0  0  0  0  0  0  0
  -28.6560  -16.1630   20.4050 H   0  0  0  0  0  0  0  0  0  0  0  0
  -25.1770  -13.8870   20.4830 C   0  0  0  0  0  0  0  0  0  0  0  0
  -24.1110  -13.1070   20.8350 C   0  0  0  0  0  0  0  0  0  0  0  0
  -24.5850  -11.7600   20.8360 C   0  0  0  0  0  0  0  0  0  0  0  0
  -26.2300  -13.0120   20.2730 N   0  0  0  0  0  0  0  0  0  0  0  0
  -25.8830  -11.7280   20.5570 N   0  0  0  0  0  0  0  0  0  0  0  0
  -23.8600  -10.4950   21.0250 C   0  0  0  0  0  0  0  0  0  0  0  0
  -24.2750   -9.5410   21.9800 C   0  0  0  0  0  3  0  0  0  0  0  0
  -23.5530   -8.3420   22.1550 C   0  0  0  0  0  3  0  0  0  0  0  0
  -22.3990   -8.0870   21.3730 C   0  0  0  0  0  0  0  0  0  0  0  0
  -22.0040   -9.0300   20.4070 C   0  0  0  0  0  3  0  0  0  0  0  0
  -22.7290  -10.2210   20.2320 C   0  0  0  0  0  3  0  0  0  0  0  0
  -21.6430   -6.9430   21.4590 O   0  0  0  0  0  0  0  0  0  0  0  0
  -21.5680   -6.2170   22.6190 C   0  0  0  0  0  0  0  0  0  0  0  0
  -21.1020   -6.7830   23.8270 C   0  0  0  0  0  3  0  0  0  0  0  0
  -20.9780   -5.9780   24.9770 C   0  0  0  0  0  3  0  0  0  0  0  0
  -21.3110   -4.6100   24.9210 C   0  0  0  0  0  0  0  0  0  0  0  0
  -21.7680   -4.0450   23.7170 C   0  0  0  0  0  3  0  0  0  0  0  0
  -21.8960   -4.8470   22.5700 C   0  0  0  0  0  0  0  0  0  0  0  0
  -22.3190   -4.2920   21.4090 F   0  0  0  0  0  0  0  0  0  0  0  0
  -21.1800   -3.8350   26.0230 F   0  0  0  0  0  0  0  0  0  0  0  0
  -22.7030  -13.5790   21.0600 C   0  0  0  0  0  0  0  0  0  0  0  0
  -21.9550  -12.8930   21.9160 N   0  0  0  0  0  0  0  0  0  0  0  0
  -22.2790  -14.5910   20.5070 O   0  0  0  0  0  0  0  0  0  0  0  0
  -22.3110  -12.0770   22.3880 H   0  0  0  0  0  0  0  0  0  0  0  0
  -21.0100  -13.1970   22.1080 H   0  0  0  0  0  0  0  0  0  0  0  0
  -25.3350  -15.2580   20.2990 N   0  0  0  0  0  0  0  0  0  0  0  0
  -24.5650  -15.9040   20.4210 H   0  0  0  0  0  0  0  0  0  0  0  0
  -26.1930  -15.7150   20.0170 H   0  0  0  0  0  0  0  0  0  0  0  0
  -28.2090  -26.0620   20.2730 O   0  0  0  0  0  0  0  0  0  0  0  0
  -24.6540  -31.8950   23.2350 C   0  0  0  0  0  0  0  0  0  0  0  0
  -27.1630  -27.0810   20.2010 C   0  0  0  0  0  0  0  0  0  0  0  0
  -23.4370  -30.5030   21.6060 C   0  0  0  0  0  3  0  0  0  0  0  0
  -24.8630  -28.9040   20.1720 C   0  0  0  0  0  0  0  0  0  0  0  0
  -25.9970  -30.7290   21.4290 C   0  0  0  0  0  2  0  0  0  0  0  0
  -26.0530  -29.3260   20.7780 C   0  0  0  0  0  0  0  0  0  0  0  0
  -27.2010  -28.4330   20.7690 C   0  0  0  0  0  3  0  0  0  0  0  0
  -25.9470  -26.7800   19.5530 C   0  0  0  0  0  3  0  0  0  0  0  0
  -24.8290  -27.6490   19.5400 C   0  0  0  0  0  3  0  0  0  0  0  0
  -23.6480  -29.8220   20.2260 C   0  0  0  0  0  2  0  0  0  0  0  0
  -24.7170  -31.0680   22.1420 N   0  0  0  0  0  0  0  0  0  0  0  0
  -23.5720  -32.1810   23.7710 O   0  0  0  0  0  0  0  0  0  0  0  0
  -22.7570  -29.5030   22.5750 C   0  0  0  0  0  0  0  0  0  0  0  0
  -21.4270  -29.3320   22.4550 N   0  0  0  0  0  0  0  0  0  0  0  0
  -23.4280  -28.8830   23.4040 O   0  0  0  0  0  0  0  0  0  0  0  0
  -20.9400  -29.8840   21.7640 H   0  0  0  0  0  0  0  0  0  0  0  0
  -18.0510  -28.1100   22.9600 C   0  0  0  0  0  0  0  0  0  0  0  0
  -20.6080  -28.3980   23.2350 C   0  0  0  0  0  3  0  0  0  0  0  0
  -20.7230  -26.9600   22.6780 C   0  0  0  0  0  2  0  0  0  0  0  0
  -19.6270  -26.6160   21.6640 C   0  0  0  0  0  2  0  0  0  0  0  0
  -18.2400  -26.7550   22.2980 C   0  0  0  0  0  2  0  0  0  0  0  0
  -19.1610  -28.8870   23.3860 C   0  0  0  0  0  0  0  0  0  0  0  0
  -18.9260  -30.1520   23.9660 C   0  0  0  0  0  3  0  0  0  0  0  0
  -17.6150  -30.6410   24.1250 C   0  0  0  0  0  3  0  0  0  0  0  0
  -16.5200  -29.8620   23.7130 C   0  0  0  0  0  3  0  0  0  0  0  0
  -16.7390  -28.5980   23.1370 C   0  0  0  0  0  3  0  0  0  0  0  0
  -25.9350  -32.5280   23.8550 C   0  0  0  0  0  3  0  0  0  0  0  0
  -26.4490  -31.7620   25.1360 C   0  0  1  0  0  0  0  0  0  0  0  0
  -25.3580  -31.5420   26.2110 C   0  0  0  0  0  1  0  0  0  0  0  0
  -27.0200  -30.3780   24.7570 C   0  0  0  0  0  1  0  0  0  0  0  0
  -27.6090  -32.5520   25.7880 C   0  0  0  0  0  1  0  0  0  0  0  0
  -25.6260  -33.9290   24.1900 N   0  0  0  0  0  0  0  0  0  0  0  0
  -25.9340  -34.9840   23.4280 C   0  0  0  0  0  0  0  0  0  0  0  0
  -26.5710  -34.8860   22.3760 O   0  0  0  0  0  0  0  0  0  0  0  0
  -25.0590  -34.0800   25.0110 H   0  0  0  0  0  0  0  0  0  0  0  0
  -24.1810  -36.7740   23.1470 C   0  0  0  0  0  1  0  0  0  0  0  0
  -25.4590  -36.3740   23.9040 C   0  0  0  0  0  3  0  0  0  0  0  0
  -27.6260  -37.2750   24.6340 C   0  0  0  0  0  1  0  0  0  0  0  0
  -26.4800  -37.4350   23.7440 N   0  0  0  0  0  0  0  0  0  0  0  0
  -26.0730  -38.3530   23.9130 H   0  0  0  0  0  0  0  0  0  0  0  0
  1  3  1  0
  1  5  1  0
  2  4  1  0
  3  6  1  0
  5  8  1  0
  5  2  1  0
  6 50  1  0
  6  4  1  0
  8  7  1  6
  8  9  1  0
  8 11  1  0
 10  9  1  0
 12 20  1  0
 13 18  1  0
 14 15  1  0
 14 13  1  0
 16 15  1  0
 16 25  1  0
 16 17  1  0
 18 12  1  0
 18 17  1  0
 19 12  2  0
 20 11  1  0
 21 20  1  0
 22 23  2  0
 23 24  1  0
 23 42  1  0
 24 27  1  0
 25 22  1  0
 25 26  1  0
 26 24  2  0
 27 28  1  0
 28 29  2  0
 30 33  1  0
 30 29  1  0
 31 30  2  0
 32 31  1  0
 32 27  2  0
 33 34  1  0
 34 35  1  0
 35 36  2  0
 37 36  1  0
 37 41  1  0
 38 37  2  0
 39 34  2  0
 39 38  1  0
 40 39  1  0
 42 43  1  0
 43 46  1  0
 43 45  1  0
 44 42  2  0
 47 48  1  0
 47 22  1  0
 49 47  1  0
 51 62  2  0
 52 50  1  0
 52 57  1  0
 53 61  1  0
 53 63  1  0
 54 60  1  0
 54 56  1  0
 55 61  1  0
 56 55  1  0
 57 56  2  0
 58 52  2  0
 59 58  1  0
 59 54  2  0
 60 53  1  0
 61 51  1  0
 63 65  2  0
 64 63  1  0
 66 64  1  0
 67 76  2  0
 67 72  1  0
 68 64  1  0
 68 72  1  0
 69 68  1  0
 70 71  1  0
 70 69  1  0
 71 67  1  0
 72 73  2  0
 73 74  1  0
 75 74  2  0
 76 75  1  0
 77 51  1  0
 77 82  1  0
 77 78  1  0
 78 81  1  1
 78 79  1  0
 80 78  1  0
 82 85  1  0
 83 87  1  0
 83 82  1  0
 84 83  2  0
 87 86  1  0
 89 87  1  0
 89 90  1  0
 89 88  1  0
M  ISO  4   6 101  12 100  20 100  50 101
M  END
>  <TORSDO>  (30) 
F 19

>  <SCORE>  (30) 
-15.522

>  <name>  (30) 
29

>  <ligand_id>  (30) 
29

>  <original_smiles>  (30) 
[H]OC(C([H])([H])[H])(C([H])([H])N([H])C(=O)N1C([H])([H])C([H])([H])C([H])([H])C([H])(n2nc(-c3c([H])c([H])c(Oc4c([H])c([H])c(F)c([H])c4F)c([H])c3[H])c(C(=O)N([H])[H])c2N([H])[H])C1([H])[H])C1([H])C([H])([H])C([H])([H])C([H])(Oc2c([H])c([H])c3c(c2[H])C([H])([H])N(C(=O)C([H])(N([H])C(=O)C([H])(N([H])C([H])([H])[H])C([H])([H])[H])C(C([H])([H])[H])(C([H])([H])[H])C([H])([H])[H])C([H])(C(=O)N([H])C2([H])c4c([H])c([H])c([H])c([H])c4C([H])([H])C([H])([H])C2([H])[H])C3([H])[H])C([H])([H])C1([H])[H]

>  <smiles>  (30) 
[H]OC(C([H])([H])[H])(C([H])([H])N([H])C(=O)N1C([H])([H])C([H])([H])C([H])([H])C([H])(n2nc(-c3c([H])c([H])c(Oc4c([H])c([H])c(F)c([H])c4F)c([H])c3[H])c(C(=O)N([H])[H])c2N([H])[H])C1([H])[H])C1([H])C([H])([H])C([H])([H])C([H])(Oc2c([H])c([H])c3c(c2[H])C([H])([H])N(C(=O)C([H])(N([H])C(=O)C([H])(N([H])C([H])([H])[H])C([H])([H])[H])C(C([H])([H])[H])(C([H])([H])[H])C([H])([H])[H])C([H])(C(=O)N([H])C2([H])c4c([H])c([H])c([H])c([H])c4C([H])([H])C([H])([H])C2([H])[H])C3([H])[H])C([H])([H])C1([H])[H]

$$$$
30:0:0
     RDKit          3D

103105  0  0  1  0  0  0  0  0999 V2000
  -32.1080   -7.7280   23.9870 C   0  0  0  0  0  2  0  0  0  0  0  0
  -30.2840   -7.5310   23.5660 C   0  0  0  0  0  2  0  0  0  0  0  0
  -30.1900   -8.7110   20.4180 C   0  0  0  0  0  2  0  0  0  0  0  0
  -33.4320   -8.9890   21.0880 C   0  0  0  0  0  1  0  0  0  0  0  0
  -29.4610   -7.9850   21.9520 C   0  0  0  0  0  3  0  0  0  0  0  0
  -31.7070   -9.5840   19.9530 C   0  0  0  0  0  1  0  0  0  0  0  0
  -34.2020   -8.2100   19.9400 C   0  0  0  0  0  0  0  0  0  0  0  0
  -34.7120   -6.9960   20.2090 N   0  0  0  0  0  0  0  0  0  0  0  0
  -34.3810   -8.7520   18.8470 O   0  0  0  0  0  0  0  0  0  0  0  0
  -34.5180   -6.6090   21.1220 H   0  0  0  0  0  0  0  0  0  0  0  0
  -34.9470   -5.4000   18.3120 C   0  0  0  0  0  1  0  0  0  0  0  0
  -36.6030   -5.4250   20.2200 C   0  0  0  0  0  2  0  0  0  0  0  0
  -35.6580   -6.2700   19.3580 C   0  0  0  0  0  3  0  0  0  0  0  0
  -27.9110   -7.5330   21.7620 C   0  0  0  0  0  2  0  0  0  0  0  0
  -25.9030   -9.7560   22.6070 C   0  0  0  0  0  0  0  0  0  0  0  0
  -24.8670   -8.7700   23.4840 C   0  0  0  0  0  2  0  0  0  0  0  0
  -25.7050   -9.2110   24.9600 C   0  0  0  0  0  2  0  0  0  0  0  0
  -27.3070   -9.6310   24.9020 C   0  0  0  0  0  2  0  0  0  0  0  0
  -27.9430  -10.5330   23.6350 C   0  0  0  0  0  3  0  0  0  0  0  0
  -27.2150  -10.3510   21.9980 C   0  0  0  0  0  2  0  0  0  0  0  0
  -25.7830   -9.1460   21.9370 N   0  0  0  0  0  2  0  0  0  0  0  0
  -24.9350  -10.5730   22.1090 O   0  0  0  0  0  1  0  0  0  0  0  0
  -26.7980   -8.2930   22.5660 N   0  0  0  0  0  0  0  0  0  0  0  0
  -27.0010   -8.1160   23.5390 H   0  0  0  0  0  0  0  0  0  0  0  0
  -30.3400  -11.4870   23.6210 C   0  0  0  0  0  0  0  0  0  0  0  0
  -31.5530  -10.8950   23.7600 C   0  0  0  0  0  0  0  0  0  0  0  0
  -31.1610   -9.5410   23.7080 C   0  0  0  0  0  3  0  0  0  0  0  0
  -29.3950  -10.4980   23.7080 N   0  0  0  0  0  0  0  0  0  0  0  0
  -29.9910   -9.4050   24.1770 N   0  0  0  0  0  2  0  0  0  0  0  0
  -31.8270   -8.3880   23.3530 C   0  0  2  0  0  0  0  0  0  0  0  0
  -31.5610   -6.6530   22.4740 C   0  0  0  0  0  2  0  0  0  0  0  0
  -32.9780   -5.8550   22.2390 C   0  0  0  0  0  2  0  0  0  0  0  0
  -34.3540   -6.4500   22.7130 C   0  0  0  0  0  3  0  0  0  0  0  0
  -34.4940   -7.8280   23.3010 C   0  0  0  0  0  3  0  0  0  0  0  0
  -33.3530   -8.7660   23.6320 C   0  0  0  0  0  3  0  0  0  0  0  0
  -35.5110   -5.6940   22.9680 O   0  0  0  0  0  0  0  0  0  0  0  0
  -35.8630   -4.6030   22.2100 C   0  0  0  0  0  0  0  0  0  0  0  0
  -35.2040   -4.4070   20.9870 C   0  0  0  0  0  0  0  0  0  0  0  0
  -35.4830   -3.2830   20.1970 C   0  0  0  0  0  3  0  0  0  0  0  0
  -36.4550   -2.3590   20.6080 C   0  0  0  0  0  0  0  0  0  0  0  0
  -37.1690   -2.5700   21.8030 C   0  0  0  0  0  3  0  0  0  0  0  0
  -36.8840   -3.6930   22.6040 C   0  0  0  0  0  0  0  0  0  0  0  0
  -37.5950   -3.8750   23.7460 F   0  0  0  0  0  0  0  0  0  0  0  0
  -36.7000   -1.2680   19.8450 F   0  0  0  0  0  0  0  0  0  0  0  0
  -32.9210  -11.5660   23.7660 C   0  0  0  0  0  0  0  0  0  0  0  0
  -33.6530  -11.7210   22.6730 N   0  0  0  0  0  0  0  0  0  0  0  0
  -33.3540  -12.0540   24.7880 O   0  0  0  0  0  0  0  0  0  0  0  0
  -33.3340  -11.3380   21.8020 H   0  0  0  0  0  0  0  0  0  0  0  0
  -34.5350  -12.2070   22.7380 H   0  0  0  0  0  0  0  0  0  0  0  0
  -29.9490  -12.7910   23.5380 N   0  0  0  0  0  0  0  0  0  0  0  0
  -30.6400  -13.5270   23.4790 H   0  0  0  0  0  0  0  0  0  0  0  0
  -28.9970  -13.1290   23.4790 H   0  0  0  0  0  0  0  0  0  0  0  0
  -31.0000  -11.0350   18.7400 C   0  0  0  0  0  1  0  0  0  0  0  0
  -29.9760  -10.3500   17.8130 C   0  0  0  0  0  2  0  0  0  0  0  0
  -29.2870  -11.1640   15.5120 C   0  0  0  0  0  1  0  0  0  0  0  0
  -30.3190  -10.3750   16.3230 C   0  0  0  0  0  2  0  0  0  0  0  0
  -31.0610  -12.9690   18.1620 C   0  0  0  0  0 15  0  0  0  0  0  0
  -32.9350  -13.9630   16.3360 C   0  0  0  0  0  1  0  0  0  0  0  0
  -31.4940  -14.2990   16.7280 C   0  0  0  0  0  1  0  0  0  0  0  0
  -30.7810  -15.2000   15.0880 C   0  0  0  0  0 15  0  0  0  0  0  0
  -31.2090  -16.4360   13.5650 C   0  0  0  0  0 15  0  0  0  0  0  0
  -30.7600  -16.9710   11.6850 C   0  0  0  0  0  1  0  0  0  0  0  0
  -30.7050  -18.2520   10.3930 O   0  0  0  0  0  0  0  0  0  0  0  0
  -25.2470  -16.1920    5.6300 C   0  0  0  0  0  0  0  0  0  0  0  0
  -30.0270  -18.4610    9.0180 C   0  0  0  0  0  0  0  0  0  0  0  0
  -27.5950  -16.3320    4.9240 C   0  0  0  0  0  3  0  0  0  0  0  0
  -29.1390  -17.9510    6.2280 C   0  0  0  0  0  0  0  0  0  0  0  0
  -26.6950  -18.0780    6.5860 C   0  0  0  0  0  2  0  0  0  0  0  0
  -28.1460  -18.2330    7.1700 C   0  0  0  0  0  0  0  0  0  0  0  0
  -28.5890  -18.5260    8.5540 C   0  0  0  0  0  3  0  0  0  0  0  0
  -30.8820  -18.4730    7.9060 C   0  0  0  0  0  3  0  0  0  0  0  0
  -30.4760  -18.1710    6.5840 C   0  0  0  0  0  3  0  0  0  0  0  0
  -28.7540  -17.3680    4.8680 C   0  0  0  0  0  2  0  0  0  0  0  0
  -26.4470  -16.8570    5.7270 N   0  0  0  0  0  0  0  0  0  0  0  0
  -25.1190  -15.1750    4.9250 O   0  0  0  0  0  0  0  0  0  0  0  0
  -28.1130  -14.9680    5.4560 C   0  0  0  0  0  0  0  0  0  0  0  0
  -28.4260  -14.0200    4.5520 N   0  0  0  0  0  0  0  0  0  0  0  0
  -28.2340  -14.7830    6.6680 O   0  0  0  0  0  0  0  0  0  0  0  0
  -28.2840  -14.2280    3.5730 H   0  0  0  0  0  0  0  0  0  0  0  0
  -29.2970  -10.7940    3.1360 C   0  0  0  0  0  0  0  0  0  0  0  0
  -28.9800  -12.6970    4.8610 C   0  0  0  0  0  3  0  0  0  0  0  0
  -30.5240  -12.7450    4.9330 C   0  0  0  0  0  2  0  0  0  0  0  0
  -31.2000  -12.3970    3.6030 C   0  0  0  0  0  2  0  0  0  0  0  0
  -30.8040  -10.9890    3.1510 C   0  0  0  0  0  2  0  0  0  0  0  0
  -28.4390  -11.6050    3.9270 C   0  0  0  0  0  0  0  0  0  0  0  0
  -27.0450  -11.4010    3.8530 C   0  0  0  0  0  3  0  0  0  0  0  0
  -26.5050  -10.4120    3.0090 C   0  0  0  0  0  3  0  0  0  0  0  0
  -27.3580   -9.6060    2.2360 C   0  0  0  0  0  3  0  0  0  0  0  0
  -28.7500   -9.7930    2.3050 C   0  0  0  0  0  3  0  0  0  0  0  0
  -23.9750  -16.6800    6.3820 C   0  0  0  0  0  3  0  0  0  0  0  0
  -22.8130  -16.4720    5.4930 N   0  0  0  0  0  0  0  0  0  0  0  0
  -22.0950  -17.4460    4.9160 C   0  0  0  0  0  0  0  0  0  0  0  0
  -22.3120  -18.6420    5.1240 O   0  0  0  0  0  0  0  0  0  0  0  0
  -22.6170  -15.5170    5.2300 H   0  0  0  0  0  0  0  0  0  0  0  0
  -21.2630  -17.5200    2.5370 C   0  0  0  0  0  1  0  0  0  0  0  0
  -20.9540  -17.0300    3.9610 C   0  0  0  0  0  3  0  0  0  0  0  0
  -19.0350  -16.7760    5.4740 C   0  0  0  0  0  1  0  0  0  0  0  0
  -19.6250  -17.5340    4.3740 N   0  0  0  0  0  0  0  0  0  0  0  0
  -18.9750  -17.5200    3.5930 H   0  0  0  0  0  0  0  0  0  0  0  0
  -23.7400  -15.9300    7.7520 C   0  0  1  0  0  0  0  0  0  0  0  0
  -23.7750  -14.3880    7.6330 C   0  0  0  0  0  1  0  0  0  0  0  0
  -24.8000  -16.3340    8.8010 C   0  0  0  0  0  1  0  0  0  0  0  0
  -22.3680  -16.3350    8.3420 C   0  0  0  0  0  1  0  0  0  0  0  0
  5  3  1  0
  5  2  1  0
  6  3  1  0
  7  8  1  0
  7  4  1  0
  8 10  1  0
  9  7  2  0
 12 38  1  0
 13 11  1  0
 13  8  1  0
 13 12  1  0
 14  5  1  0
 14 23  1  0
 15 22  1  0
 15 16  1  0
 16 17  1  0
 18 17  1  0
 19 20  1  0
 19 28  1  0
 19 18  1  0
 20 15  1  0
 21 23  1  0
 21 15  1  0
 23 24  1  0
 25 28  1  0
 25 26  2  0
 26 45  1  0
 27 26  1  0
 27 29  1  0
 28 29  1  0
 30  2  1  1
 30 35  1  0
 30 27  1  0
 30  1  1  0
 31  1  1  0
 32 31  1  0
 32 33  1  0
 33 36  1  0
 33 34  1  0
 34 35  2  0
 37 42  1  0
 37 36  1  0
 38 37  2  3
 39 40  2  0
 39 38  1  0
 40 41  1  0
 41 42  2  0
 42 43  1  0
 44 40  1  0
 45 47  2  0
 46 49  1  0
 46 45  1  0
 48 46  1  0
 50 25  1  0
 51 50  1  0
 52 50  1  0
 54 53  1  0
 55 56  1  0
 56 54  1  0
 58 59  1  0
 63 62  1  0
 64 74  1  0
 65 63  1  0
 66 76  1  0
 66 74  1  0
 67 72  2  0
 67 69  1  0
 68 69  1  0
 69 70  2  0
 70 65  1  0
 71 65  2  0
 72 71  1  0
 73 66  1  0
 73 67  1  0
 74 68  1  0
 75 64  2  0
 76 78  2  0
 77 76  1  0
 79 77  1  0
 80 84  1  0
 80 85  1  0
 81 77  1  0
 81 82  1  0
 83 82  1  0
 84 83  1  0
 85 81  1  0
 86 85  2  0
 87 86  1  0
 88 89  1  0
 88 87  2  0
 89 80  2  0
 90 64  1  0
 90100  1  0
 91 90  1  0
 92 93  2  0
 92 91  1  0
 94 91  1  0
 96 95  1  0
 96 98  1  0
 96 92  1  0
 98 97  1  0
 99 98  1  0
100103  1  1
100102  1  0
101100  1  0
M  ISO  4  15 100  23 100  62 101  63 101
M  END
>  <TORSDO>  (31) 
F 27

>  <SCORE>  (31) 
31.827

>  <name>  (31) 
30

>  <ligand_id>  (31) 
30

>  <original_smiles>  (31) 
[H]c1c([H])c([H])c2c(c1[H])C([H])([H])C([H])([H])C([H])([H])C2([H])N([H])C(=O)C1([H])N(C(=O)C([H])(N([H])C(=O)C([H])(N([H])C([H])([H])[H])C([H])([H])[H])C(C([H])([H])[H])(C([H])([H])[H])C([H])([H])[H])C([H])([H])c2c([H])c(OC([H])([H])C([H])([H])C([H])([H])C([H])(C([H])([H])[H])C([H])([H])C([H])(C([H])([H])C([H])([H])C([H])([H])[H])C3([H])C([H])([H])C([H])(C([H])([H])N([H])C(=O)N4C([H])([H])C([H])([H])C([H])([H])C([H])(n5nc(-c6c([H])c([H])c(Oc7c([H])c([H])c(F)c([H])c7F)c([H])c6[H])c(C(=O)N([H])[H])c5N([H])[H])C4([H])[H])C([H])([H])C([H])([H])C3([H])C(=O)N([H])C([H])(C([H])([H])[H])C([H])([H])[H])c([H])c([H])c2C1([H])[H]

>  <smiles>  (31) 
[H]c1c([H])c([H])c2c(c1[H])C([H])([H])C([H])([H])C([H])([H])C2([H])N([H])C(=O)C1([H])N(C(=O)C([H])(N([H])C(=O)C([H])(N([H])C([H])([H])[H])C([H])([H])[H])C(C([H])([H])[H])(C([H])([H])[H])C([H])([H])[H])C([H])([H])c2c([H])c(OC([H])([H])C([H])([H])C([H])([H])C([H])(C([H])([H])[H])C([H])([H])C([H])(C([H])([H])C([H])([H])C([H])([H])[H])C3([H])C([H])([H])C([H])(C([H])([H])N([H])C(=O)N4C([H])([H])C([H])([H])C([H])([H])C([H])(n5nc(-c6c([H])c([H])c(Oc7c([H])c([H])c(F)c([H])c7F)c([H])c6[H])c(C(=O)N([H])[H])c5N([H])[H])C4([H])[H])C([H])([H])C([H])([H])C3([H])C(=O)N([H])C([H])(C([H])([H])[H])C([H])([H])[H])c([H])c([H])c2C1([H])[H]

$$$$
31:0:0
     RDKit          3D

100108  0  0  1  0  0  0  0  0999 V2000
  -28.8750  -22.4350   20.8530 C   0  0  0  0  0  3  0  0  0  0  0  0
  -30.2220  -21.4600   19.1400 C   0  0  0  0  0  3  0  0  0  0  0  0
  -28.9970  -23.7580   20.2510 C   0  0  0  0  0  0  0  0  0  0  0  0
  -29.4760  -21.2290   20.3110 C   0  0  0  0  0  0  0  0  0  0  0  0
  -29.7930  -23.7850   19.0680 C   0  0  0  0  0  0  0  0  0  0  0  0
  -30.3900  -22.6730   18.5700 N   0  0  0  0  0  0  0  0  0  0  0  0
  -31.3060  -25.8190   19.0730 C   0  0  0  0  0  1  0  0  0  0  0  0
  -30.1790  -25.0790   18.3310 C   0  0  0  0  0  3  0  0  0  0  0  0
  -30.4910  -24.9380   16.8160 C   0  0  0  0  0  3  0  0  0  0  0  0
  -31.7120  -24.4290   16.6200 F   0  0  0  0  0  0  0  0  0  0  0  0
  -29.4660  -24.1240   16.0050 C   0  0  0  0  0  2  0  0  0  0  0  0
  -30.2310  -22.4060   14.3840 C   0  0  0  0  0  1  0  0  0  0  0  0
  -29.9980  -23.8370   14.6580 N   0  0  0  0  0  4  0  0  0  0  0  0
  -29.3890  -24.2250   13.9550 H   0  0  0  0  0  0  0  0  0  0  0  0
  -30.8880  -24.3090   14.6010 H   0  0  0  0  0  0  0  0  0  0  0  0
  -29.3870  -19.9040   20.9090 N   0  0  0  0  0  0  0  0  0  0  0  0
  -28.8920  -19.8600   21.7990 H   0  0  0  0  0  0  0  0  0  0  0  0
  -29.5210  -18.5610   20.2070 C   0  0  0  0  0  2  0  0  0  0  0  0
  -30.2890  -17.3530   20.9670 C   0  0  0  0  0  2  0  0  0  0  0  0
  -30.6690  -14.7810   20.4380 C   0  0  0  0  0  0  0  0  0  0  0  0
  -30.4690  -12.5260   19.3740 C   0  0  0  0  0  2  0  0  0  0  0  0
  -29.5300  -12.6030   18.1510 C   0  0  0  0  0  2  0  0  0  0  0  0
  -28.0580  -12.4410   18.5780 C   0  0  0  0  0  2  0  0  0  0  0  0
  -27.6870  -13.3310   19.7930 C   0  0  0  0  0  3  0  0  0  0  0  0
  -28.7370  -13.2070   20.9180 C   0  0  0  0  0  2  0  0  0  0  0  0
  -30.0370  -13.5630   20.3370 N   0  0  0  0  0  0  0  0  0  0  0  0
  -31.8580  -14.8890   20.1210 O   0  0  0  0  0  0  0  0  0  0  0  0
  -29.8970  -15.8960   20.7210 N   0  0  0  0  0  0  0  0  0  0  0  0
  -28.9240  -15.6870   20.8890 H   0  0  0  0  0  0  0  0  0  0  0  0
  -25.2990  -13.9510   20.4980 C   0  0  0  0  0  0  0  0  0  0  0  0
  -24.2220  -13.1890   20.8590 C   0  0  0  0  0  0  0  0  0  0  0  0
  -24.6730  -11.8340   20.8390 C   0  0  0  0  0  0  0  0  0  0  0  0
  -26.3350  -13.0600   20.2730 N   0  0  0  0  0  0  0  0  0  0  0  0
  -25.9650  -11.7820   20.5430 N   0  0  0  0  0  0  0  0  0  0  0  0
  -23.9340  -10.5790   21.0250 C   0  0  0  0  0  0  0  0  0  0  0  0
  -24.3470   -9.6090   21.9660 C   0  0  0  0  0  3  0  0  0  0  0  0
  -23.6070   -8.4200   22.1390 C   0  0  0  0  0  3  0  0  0  0  0  0
  -22.4400   -8.1910   21.3710 C   0  0  0  0  0  0  0  0  0  0  0  0
  -22.0480   -9.1470   20.4190 C   0  0  0  0  0  3  0  0  0  0  0  0
  -22.7880  -10.3290   20.2430 C   0  0  0  0  0  3  0  0  0  0  0  0
  -21.6740   -7.0540   21.4530 O   0  0  0  0  0  0  0  0  0  0  0  0
  -21.5960   -6.3210   22.6100 C   0  0  0  0  0  0  0  0  0  0  0  0
  -21.1600   -6.8940   23.8260 C   0  0  0  0  0  3  0  0  0  0  0  0
  -21.0280   -6.0900   24.9750 C   0  0  0  0  0  3  0  0  0  0  0  0
  -21.3200   -4.7140   24.9110 C   0  0  0  0  0  0  0  0  0  0  0  0
  -21.7500   -4.1420   23.7000 C   0  0  0  0  0  3  0  0  0  0  0  0
  -21.8840   -4.9430   22.5530 C   0  0  0  0  0  0  0  0  0  0  0  0
  -22.2770   -4.3830   21.3840 F   0  0  0  0  0  0  0  0  0  0  0  0
  -21.1860   -3.9380   26.0120 F   0  0  0  0  0  0  0  0  0  0  0  0
  -22.8270  -13.6800   21.1120 C   0  0  0  0  0  0  0  0  0  0  0  0
  -22.0870  -13.0020   21.9840 N   0  0  0  0  0  0  0  0  0  0  0  0
  -22.4000  -14.7010   20.5740 O   0  0  0  0  0  0  0  0  0  0  0  0
  -22.4450  -12.1760   22.4400 H   0  0  0  0  0  0  0  0  0  0  0  0
  -21.1510  -13.3160   22.2000 H   0  0  0  0  0  0  0  0  0  0  0  0
  -25.4780  -15.3200   20.3160 N   0  0  0  0  0  0  0  0  0  0  0  0
  -24.7170  -15.9820   20.4250 H   0  0  0  0  0  0  0  0  0  0  0  0
  -26.3280  -15.7490   19.9770 H   0  0  0  0  0  0  0  0  0  0  0  0
  -26.9030  -24.7030   21.4640 C   0  0  0  0  0  1  0  0  0  0  0  0
  -28.3080  -25.0480   20.9180 C   0  0  0  0  0  3  0  0  0  0  0  0
  -28.4070  -26.4350   20.3290 O   0  0  0  0  0  0  0  0  0  0  0  0
  -24.6020  -31.8880   23.2000 C   0  0  0  0  0  0  0  0  0  0  0  0
  -27.2940  -27.2990   20.2570 C   0  0  0  0  0  0  0  0  0  0  0  0
  -23.4330  -30.4550   21.5650 C   0  0  0  0  0  3  0  0  0  0  0  0
  -24.9180  -28.9000   20.1710 C   0  0  0  0  0  0  0  0  0  0  0  0
  -25.9700  -30.7950   21.4080 C   0  0  0  0  0  2  0  0  0  0  0  0
  -26.0740  -29.4060   20.7810 C   0  0  0  0  0  0  0  0  0  0  0  0
  -27.2660  -28.6200   20.8110 C   0  0  0  0  0  3  0  0  0  0  0  0
  -26.1280  -26.8610   19.5950 C   0  0  0  0  0  3  0  0  0  0  0  0
  -24.9510  -27.6350   19.5630 C   0  0  0  0  0  3  0  0  0  0  0  0
  -23.6700  -29.7630   20.1970 C   0  0  0  0  0  2  0  0  0  0  0  0
  -24.6860  -31.0650   22.1140 N   0  0  0  0  0  0  0  0  0  0  0  0
  -23.5110  -32.1620   23.7190 O   0  0  0  0  0  0  0  0  0  0  0  0
  -22.7690  -29.4470   22.5330 C   0  0  0  0  0  0  0  0  0  0  0  0
  -21.4420  -29.2710   22.4080 N   0  0  0  0  0  0  0  0  0  0  0  0
  -23.4460  -28.8270   23.3570 O   0  0  0  0  0  0  0  0  0  0  0  0
  -20.9540  -29.8220   21.7160 H   0  0  0  0  0  0  0  0  0  0  0  0
  -18.0590  -28.1030   22.9460 C   0  0  0  0  0  0  0  0  0  0  0  0
  -20.6230  -28.3380   23.1850 C   0  0  0  0  0  3  0  0  0  0  0  0
  -20.7050  -26.9070   22.6050 C   0  0  0  0  0  2  0  0  0  0  0  0
  -19.5870  -26.5990   21.6030 C   0  0  0  0  0  2  0  0  0  0  0  0
  -18.2150  -26.7550   22.2640 C   0  0  0  0  0  2  0  0  0  0  0  0
  -19.1900  -28.8530   23.3660 C   0  0  0  0  0  0  0  0  0  0  0  0
  -18.9910  -30.1160   23.9650 C   0  0  0  0  0  3  0  0  0  0  0  0
  -17.6940  -30.6290   24.1480 C   0  0  0  0  0  3  0  0  0  0  0  0
  -16.5780  -29.8760   23.7450 C   0  0  0  0  0  3  0  0  0  0  0  0
  -16.7600  -28.6150   23.1510 C   0  0  0  0  0  3  0  0  0  0  0  0
  -25.8720  -32.5420   23.8270 C   0  0  0  0  0  3  0  0  0  0  0  0
  -25.5370  -33.9360   24.1520 N   0  0  0  0  0  0  0  0  0  0  0  0
  -25.8690  -34.9950   23.4030 C   0  0  0  0  0  0  0  0  0  0  0  0
  -26.5570  -34.9030   22.3810 O   0  0  0  0  0  0  0  0  0  0  0  0
  -24.9230  -34.0790   24.9400 H   0  0  0  0  0  0  0  0  0  0  0  0
  -24.1290  -36.7720   23.0240 C   0  0  0  0  0  1  0  0  0  0  0  0
  -25.3570  -36.3760   23.8570 C   0  0  0  0  0  3  0  0  0  0  0  0
  -27.4670  -37.2760   24.7340 C   0  0  0  0  0  1  0  0  0  0  0  0
  -26.3800  -37.4400   23.7720 N   0  0  0  0  0  0  0  0  0  0  0  0
  -25.9620  -38.3540   23.9190 H   0  0  0  0  0  0  0  0  0  0  0  0
  -26.3960  -31.7840   25.1090 C   0  0  1  0  0  0  0  0  0  0  0  0
  -25.2980  -31.5250   26.1690 C   0  0  0  0  0  1  0  0  0  0  0  0
  -27.0110  -30.4170   24.7260 C   0  0  0  0  0  1  0  0  0  0  0  0
  -27.5240  -32.6040   25.7760 C   0  0  0  0  0  1  0  0  0  0  0  0
  2  4  2  0
  3  1  2  0
  3 59  1  0
  4  1  1  0
  4 16  1  0
  5  3  1  0
  6  5  2  0
  6  2  1  0
  8  5  1  0
  8  7  1  0
  9 10  1  0
  9  8  1  0
 11  9  1  0
 12 13  1  0
 13 11  1  0
 14 13  1  0
 15 13  1  0
 16 17  1  0
 18 16  1  0
 18 19  1  0
 20 28  1  0
 21 26  1  0
 22 23  1  0
 22 21  1  0
 24 23  1  0
 24 33  1  0
 24 25  1  0
 26 20  1  0
 26 25  1  0
 27 20  2  0
 28 29  1  0
 28 19  1  0
 30 31  2  0
 31 50  1  0
 32 31  1  0
 32 35  1  0
 33 30  1  0
 33 34  1  0
 34 32  2  0
 35 36  1  0
 36 37  2  0
 38 41  1  0
 38 37  1  0
 39 38  2  0
 40 39  1  0
 40 35  2  0
 41 42  1  0
 42 43  1  0
 43 44  2  0
 45 44  1  0
 45 49  1  0
 46 45  2  0
 47 42  2  0
 47 46  1  0
 48 47  1  0
 50 51  1  0
 51 54  1  0
 51 53  1  0
 52 50  2  0
 55 56  1  0
 55 30  1  0
 57 55  1  0
 59 58  1  0
 60 59  1  0
 61 72  2  0
 62 60  1  0
 62 67  1  0
 63 71  1  0
 63 73  1  0
 64 70  1  0
 64 66  1  0
 65 71  1  0
 66 67  2  0
 66 65  1  0
 68 62  2  0
 69 68  1  0
 69 64  2  0
 70 63  1  0
 71 61  1  0
 73 75  2  0
 74 73  1  0
 76 74  1  0
 77 86  2  0
 77 82  1  0
 78 74  1  0
 78 82  1  0
 79 78  1  0
 80 81  1  0
 80 79  1  0
 81 77  1  0
 82 83  2  0
 83 84  1  0
 85 84  2  0
 86 85  1  0
 87 61  1  0
 87 88  1  0
 87 97  1  0
 88 91  1  0
 89 93  1  0
 89 88  1  0
 90 89  2  0
 93 92  1  0
 95 93  1  0
 95 96  1  0
 95 94  1  0
 97100  1  1
 97 98  1  0
 99 97  1  0
M  ISO  4  20 100  28 100  59 101  60 101
M  END
>  <TORSDO>  (32) 
F 24

>  <SCORE>  (32) 
-12.696

>  <name>  (32) 
31

>  <ligand_id>  (32) 
31

>  <original_smiles>  (32) 
[H]c1nc(C([H])(C([H])([H])[H])C([H])(F)C([H])([H])[N+]([H])([H])C([H])([H])[H])c(C([H])(Oc2c([H])c([H])c3c(c2[H])C([H])([H])N(C(=O)C([H])(N([H])C(=O)C([H])(N([H])C([H])([H])[H])C([H])([H])[H])C(C([H])([H])[H])(C([H])([H])[H])C([H])([H])[H])C([H])(C(=O)N([H])C2([H])c4c([H])c([H])c([H])c([H])c4C([H])([H])C([H])([H])C2([H])[H])C3([H])[H])C([H])([H])[H])c([H])c1N([H])C([H])([H])C([H])([H])N([H])C(=O)N1C([H])([H])C([H])([H])C([H])([H])C([H])(n2nc(-c3c([H])c([H])c(Oc4c([H])c([H])c(F)c([H])c4F)c([H])c3[H])c(C(=O)N([H])[H])c2N([H])[H])C1([H])[H]

>  <smiles>  (32) 
[H]c1nc(C([H])(C([H])([H])[H])C([H])(F)C([H])([H])[N+]([H])([H])C([H])([H])[H])c(C([H])(Oc2c([H])c([H])c3c(c2[H])C([H])([H])N(C(=O)C([H])(N([H])C(=O)C([H])(N([H])C([H])([H])[H])C([H])([H])[H])C(C([H])([H])[H])(C([H])([H])[H])C([H])([H])[H])C([H])(C(=O)N([H])C2([H])c4c([H])c([H])c([H])c([H])c4C([H])([H])C([H])([H])C2([H])[H])C3([H])[H])C([H])([H])[H])c([H])c1N([H])C([H])([H])C([H])([H])N([H])C(=O)N1C([H])([H])C([H])([H])C([H])([H])C([H])(n2nc(-c3c([H])c([H])c(Oc4c([H])c([H])c(F)c([H])c4F)c([H])c3[H])c(C(=O)N([H])[H])c2N([H])[H])C1([H])[H]

$$$$
32:0:0
     RDKit          3D

102111  0  0  1  0  0  0  0  0999 V2000
  -29.6720  -20.4410   21.2260 N   0  0  0  0  0  4  0  0  0  0  0  0
  -30.2750  -20.7520   21.9710 H   0  0  0  0  0  0  0  0  0  0  0  0
  -30.1260  -20.6750   20.3630 H   0  0  0  0  0  0  0  0  0  0  0  0
  -28.3840  -21.1860   21.3110 C   0  0  0  0  0  2  0  0  0  0  0  0
  -28.1000  -22.9110   19.4370 C   0  0  0  0  0  3  0  0  0  0  0  0
  -28.0420  -24.2430   18.9800 C   0  0  0  0  0  3  0  0  0  0  0  0
  -28.4280  -22.6430   20.7860 C   0  0  0  0  0  0  0  0  0  0  0  0
  -28.6860  -23.7670   21.6160 C   0  0  0  0  0  0  0  0  0  0  0  0
  -28.2910  -25.2870   19.8830 C   0  0  0  0  0  0  0  0  0  0  0  0
  -29.0420  -23.6230   23.0850 C   0  0  0  0  0  1  0  0  0  0  0  0
  -28.6210  -25.0490   21.1730 N   0  0  0  0  0  0  0  0  0  0  0  0
  -28.2590  -26.6120   19.4820 O   0  0  0  0  0  0  0  0  0  0  0  0
  -24.6550  -31.6240   23.0590 C   0  0  0  0  0  0  0  0  0  0  0  0
  -27.0900  -27.3380   19.6040 C   0  0  0  0  0  0  0  0  0  0  0  0
  -23.3470  -30.3190   21.4130 C   0  0  0  0  0  3  0  0  0  0  0  0
  -24.7080  -28.8540   19.8300 C   0  0  0  0  0  0  0  0  0  0  0  0
  -25.8610  -30.6800   21.0930 C   0  0  0  0  0  2  0  0  0  0  0  0
  -25.9030  -29.3430   20.3750 C   0  0  0  0  0  0  0  0  0  0  0  0
  -27.0960  -28.5960   20.2550 C   0  0  0  0  0  3  0  0  0  0  0  0
  -25.8790  -26.8660   19.0500 C   0  0  0  0  0  3  0  0  0  0  0  0
  -24.6910  -27.6140   19.1660 C   0  0  0  0  0  3  0  0  0  0  0  0
  -23.4740  -29.7150   19.9900 C   0  0  0  0  0  2  0  0  0  0  0  0
  -24.6430  -30.8860   21.9120 N   0  0  0  0  0  0  0  0  0  0  0  0
  -23.6090  -31.8700   23.6740 O   0  0  0  0  0  0  0  0  0  0  0  0
  -22.7430  -29.2500   22.3510 C   0  0  0  0  0  0  0  0  0  0  0  0
  -21.4200  -29.0390   22.2450 N   0  0  0  0  0  0  0  0  0  0  0  0
  -23.4610  -28.6120   23.1250 O   0  0  0  0  0  0  0  0  0  0  0  0
  -20.9040  -29.6040   21.5860 H   0  0  0  0  0  0  0  0  0  0  0  0
  -18.0970  -27.7000   22.7280 C   0  0  0  0  0  0  0  0  0  0  0  0
  -20.6420  -28.0550   22.9990 C   0  0  0  0  0  3  0  0  0  0  0  0
  -20.8000  -26.6400   22.3950 C   0  0  0  0  0  2  0  0  0  0  0  0
  -19.7110  -26.2920   21.3760 C   0  0  0  0  0  2  0  0  0  0  0  0
  -18.3250  -26.3700   22.0270 C   0  0  0  0  0  2  0  0  0  0  0  0
  -19.1860  -28.4980   23.1710 C   0  0  0  0  0  0  0  0  0  0  0  0
  -18.9200  -29.7400   23.7860 C   0  0  0  0  0  3  0  0  0  0  0  0
  -17.5980  -30.1870   23.9630 C   0  0  0  0  0  3  0  0  0  0  0  0
  -16.5230  -29.3840   23.5380 C   0  0  0  0  0  3  0  0  0  0  0  0
  -16.7740  -28.1430   22.9260 C   0  0  0  0  0  3  0  0  0  0  0  0
  -25.9800  -32.2120   23.6390 C   0  0  0  0  0  3  0  0  0  0  0  0
  -25.6950  -33.5800   24.0910 N   0  0  0  0  0  0  0  0  0  0  0  0
  -25.9550  -34.6850   23.3800 C   0  0  0  0  0  0  0  0  0  0  0  0
  -26.5370  -34.6600   22.2910 O   0  0  0  0  0  0  0  0  0  0  0  0
  -25.1740  -33.6700   24.9510 H   0  0  0  0  0  0  0  0  0  0  0  0
  -24.1890  -36.4740   23.2920 C   0  0  0  0  0  1  0  0  0  0  0  0
  -25.4960  -36.0330   23.9700 C   0  0  0  0  0  3  0  0  0  0  0  0
  -27.6840  -36.8860   24.6850 C   0  0  0  0  0  1  0  0  0  0  0  0
  -26.5090  -37.1030   23.8440 N   0  0  0  0  0  0  0  0  0  0  0  0
  -26.1100  -38.0040   24.0890 H   0  0  0  0  0  0  0  0  0  0  0  0
  -26.5830  -31.3510   24.8150 C   0  0  1  0  0  0  0  0  0  0  0  0
  -25.5660  -31.0350   25.9350 C   0  0  0  0  0  1  0  0  0  0  0  0
  -27.1360  -30.0050   24.2880 C   0  0  0  0  0  1  0  0  0  0  0  0
  -27.7780  -32.0980   25.4530 C   0  0  0  0  0  1  0  0  0  0  0  0
  -29.5840  -18.9510   21.3090 C   0  0  0  0  0  2  0  0  0  0  0  0
  -32.1370  -20.0780   19.4110 C   0  0  0  0  0  2  0  0  0  0  0  0
  -30.2200  -19.0140   18.1490 C   0  0  0  0  0  2  0  0  0  0  0  0
  -32.0670  -18.9180   20.4410 C   0  0  0  0  0  2  0  0  0  0  0  0
  -30.2840  -17.8020   19.0950 C   0  0  0  0  0  2  0  0  0  0  0  0
  -31.5890  -19.7260   18.0010 C   0  0  0  0  0  3  0  0  0  0  0  0
  -30.7170  -18.1380   20.5470 C   0  0  2  0  0  0  0  0  0  0  0  0
  -32.8450  -21.5610   16.8560 C   0  0  0  0  0  1  0  0  0  0  0  0
  -30.8020  -20.7110   15.8290 C   0  0  0  0  0  1  0  0  0  0  0  0
  -31.5240  -20.9320   17.1090 N   0  0  1  0  0  4  0  0  0  0  0  0
  -30.9850  -21.6380   17.5860 H   0  0  0  0  0  0  0  0  0  0  0  0
  -31.0220  -16.7970   21.3410 C   0  0  0  0  0  2  0  0  0  0  0  0
  -30.8850  -14.5670   20.1880 C   0  0  0  0  0  0  0  0  0  0  0  0
  -30.4820  -12.4490   18.9820 C   0  0  0  0  0  2  0  0  0  0  0  0
  -29.4970  -12.6740   17.8180 C   0  0  0  0  0  2  0  0  0  0  0  0
  -28.0410  -12.5370   18.3040 C   0  0  0  0  0  2  0  0  0  0  0  0
  -27.7610  -13.3640   19.5880 C   0  0  0  0  0  3  0  0  0  0  0  0
  -28.8560  -13.1270   20.6520 C   0  0  0  0  0  2  0  0  0  0  0  0
  -30.1600  -13.4250   20.0370 N   0  0  0  0  0  0  0  0  0  0  0  0
  -31.9720  -14.7360   19.6320 O   0  0  0  0  0  0  0  0  0  0  0  0
  -30.3280  -15.5540   20.9220 N   0  0  0  0  0  0  0  0  0  0  0  0
  -29.4140  -15.3740   21.3110 H   0  0  0  0  0  0  0  0  0  0  0  0
  -25.3900  -13.9760   20.3790 C   0  0  0  0  0  0  0  0  0  0  0  0
  -24.3320  -13.2070   20.7830 C   0  0  0  0  0  0  0  0  0  0  0  0
  -24.7870  -11.8530   20.7370 C   0  0  0  0  0  0  0  0  0  0  0  0
  -26.4240  -13.0920   20.1130 N   0  0  0  0  0  0  0  0  0  0  0  0
  -26.0660  -11.8100   20.3850 N   0  0  0  0  0  0  0  0  0  0  0  0
  -24.0640  -10.5930   20.9530 C   0  0  0  0  0  0  0  0  0  0  0  0
  -24.5020   -9.6430   21.9010 C   0  0  0  0  0  3  0  0  0  0  0  0
  -23.7780   -8.4480   22.1040 C   0  0  0  0  0  3  0  0  0  0  0  0
  -22.6050   -8.1950   21.3570 C   0  0  0  0  0  0  0  0  0  0  0  0
  -22.1850   -9.1330   20.3960 C   0  0  0  0  0  3  0  0  0  0  0  0
  -22.9090  -10.3180   20.1930 C   0  0  0  0  0  3  0  0  0  0  0  0
  -21.8520   -7.0490   21.4670 O   0  0  0  0  0  0  0  0  0  0  0  0
  -21.7790   -6.3460   22.6430 C   0  0  0  0  0  0  0  0  0  0  0  0
  -21.2950   -6.9330   23.8330 C   0  0  0  0  0  3  0  0  0  0  0  0
  -21.1710   -6.1550   25.0010 C   0  0  0  0  0  3  0  0  0  0  0  0
  -21.5220   -4.7920   24.9810 C   0  0  0  0  0  0  0  0  0  0  0  0
  -22.0000   -4.2050   23.7960 C   0  0  0  0  0  3  0  0  0  0  0  0
  -22.1260   -4.9800   22.6310 C   0  0  0  0  0  0  0  0  0  0  0  0
  -22.5660   -4.4050   21.4850 F   0  0  0  0  0  0  0  0  0  0  0  0
  -21.3960   -4.0430   26.1010 F   0  0  0  0  0  0  0  0  0  0  0  0
  -22.9470  -13.6890   21.1050 C   0  0  0  0  0  0  0  0  0  0  0  0
  -22.2470  -12.9940   21.9960 N   0  0  0  0  0  0  0  0  0  0  0  0
  -22.4950  -14.7160   20.5990 O   0  0  0  0  0  0  0  0  0  0  0  0
  -22.6250  -12.1640   22.4240 H   0  0  0  0  0  0  0  0  0  0  0  0
  -21.3200  -13.3010   22.2540 H   0  0  0  0  0  0  0  0  0  0  0  0
  -25.5560  -15.3450   20.1940 N   0  0  0  0  0  0  0  0  0  0  0  0
  -24.8000  -16.0080   20.3300 H   0  0  0  0  0  0  0  0  0  0  0  0
  -26.3960  -15.7730   19.8270 H   0  0  0  0  0  0  0  0  0  0  0  0
  1 53  1  0
  1  4  1  0
  1  2  1  0
  3  1  1  0
  5  7  1  0
  6  5  2  0
  6  9  1  0
  7  4  1  0
  7  8  2  0
  8 10  1  0
  9 11  2  0
 11  8  1  0
 12 14  1  0
 12  9  1  0
 13 24  2  0
 14 19  1  0
 15 23  1  0
 15 25  1  0
 16 22  1  0
 16 18  1  0
 17 23  1  0
 18 17  1  0
 19 18  2  0
 20 21  1  0
 20 14  2  0
 21 16  2  0
 22 15  1  0
 23 13  1  0
 25 27  2  0
 26 25  1  0
 28 26  1  0
 29 38  2  0
 29 34  1  0
 30 26  1  0
 30 34  1  0
 31 30  1  0
 32 33  1  0
 32 31  1  0
 33 29  1  0
 34 35  2  0
 35 36  1  0
 37 36  2  0
 38 37  1  0
 39 13  1  0
 39 40  1  0
 39 49  1  0
 40 43  1  0
 41 45  1  0
 41 40  1  0
 42 41  2  0
 45 44  1  0
 47 45  1  0
 47 48  1  0
 47 46  1  0
 49 52  1  1
 49 50  1  0
 51 49  1  0
 54 56  1  0
 55 57  1  0
 56 59  1  0
 57 59  1  0
 58 62  1  0
 58 55  1  0
 58 54  1  0
 59 53  1  1
 59 64  1  0
 60 62  1  0
 61 62  1  0
 62 63  1  1
 65 73  1  0
 66 71  1  0
 67 68  1  0
 67 66  1  0
 69 68  1  0
 69 78  1  0
 69 70  1  0
 71 65  1  0
 71 70  1  0
 72 65  2  0
 73 74  1  0
 73 64  1  0
 75 76  2  0
 76 95  1  0
 77 76  1  0
 77 80  1  0
 78 75  1  0
 78 79  1  0
 79 77  2  0
 80 81  1  0
 81 82  2  0
 83 86  1  0
 83 82  1  0
 84 83  2  0
 85 84  1  0
 85 80  2  0
 86 87  1  0
 87 88  1  0
 88 89  2  0
 90 89  1  0
 90 94  1  0
 91 90  2  0
 92 87  2  0
 92 91  1  0
 93 92  1  0
 95 96  1  0
 96 99  1  0
 96 98  1  0
 97 95  2  0
100101  1  0
100 75  1  0
102100  1  0
M  ISO  4   9 101  12 101  65 100  73 100
M  END
>  <TORSDO>  (33) 
F 22

>  <SCORE>  (33) 
-12.559

>  <name>  (33) 
32

>  <ligand_id>  (33) 
32

>  <original_smiles>  (33) 
[H]c1c(Oc2c([H])c([H])c3c(c2[H])C([H])([H])N(C(=O)C([H])(N([H])C(=O)C([H])(N([H])C([H])([H])[H])C([H])([H])[H])C(C([H])([H])[H])(C([H])([H])[H])C([H])([H])[H])C([H])(C(=O)N([H])C2([H])c4c([H])c([H])c([H])c([H])c4C([H])([H])C([H])([H])C2([H])[H])C3([H])[H])nc(C([H])([H])[H])c(C([H])([H])[N+]([H])([H])C([H])([H])C2(C([H])([H])N([H])C(=O)N3C([H])([H])C([H])([H])C([H])([H])C([H])(n4nc(-c5c([H])c([H])c(Oc6c([H])c([H])c(F)c([H])c6F)c([H])c5[H])c(C(=O)N([H])[H])c4N([H])[H])C3([H])[H])C([H])([H])C([H])([H])C([H])([N+]([H])(C([H])([H])[H])C([H])([H])[H])C([H])([H])C2([H])[H])c1[H]

>  <smiles>  (33) 
[H]c1c(Oc2c([H])c([H])c3c(c2[H])C([H])([H])N(C(=O)C([H])(N([H])C(=O)C([H])(N([H])C([H])([H])[H])C([H])([H])[H])C(C([H])([H])[H])(C([H])([H])[H])C([H])([H])[H])C([H])(C(=O)N([H])C2([H])c4c([H])c([H])c([H])c([H])c4C([H])([H])C([H])([H])C2([H])[H])C3([H])[H])nc(C([H])([H])[H])c(C([H])([H])[N+]([H])([H])C([H])([H])C2(C([H])([H])N([H])C(=O)N3C([H])([H])C([H])([H])C([H])([H])C([H])(n4nc(-c5c([H])c([H])c(Oc6c([H])c([H])c(F)c([H])c6F)c([H])c5[H])c(C(=O)N([H])[H])c4N([H])[H])C3([H])[H])C([H])([H])C([H])([H])C([H])([N+]([H])(C([H])([H])[H])C([H])([H])[H])C([H])([H])C2([H])[H])c1[H]

$$$$
33:0:0
     RDKit          3D

 97106  0  0  1  0  0  0  0  0999 V2000
  -30.7580  -14.6650   18.9300 C   0  0  0  0  0  0  0  0  0  0  0  0
  -30.3030  -12.3510   17.9160 C   0  0  0  0  0  2  0  0  0  0  0  0
  -29.1010  -12.3600   16.9430 C   0  0  0  0  0  2  0  0  0  0  0  0
  -27.7850  -12.1340   17.7110 C   0  0  0  0  0  2  0  0  0  0  0  0
  -27.7030  -12.9950   18.9990 C   0  0  0  0  0  3  0  0  0  0  0  0
  -29.0050  -12.9750   19.8270 C   0  0  0  0  0  2  0  0  0  0  0  0
  -30.0900  -13.4240   18.9450 N   0  0  0  0  0  0  0  0  0  0  0  0
  -31.7980  -14.6870   18.2590 O   0  0  0  0  0  0  0  0  0  0  0  0
  -31.6220  -17.2580   20.3620 C   0  0  0  0  0  2  0  0  0  0  0  0
  -30.5930  -17.4800   19.2690 C   0  0  0  0  0  3  0  0  0  0  0  0
  -30.6750  -16.2080   20.9360 C   0  0  0  0  0  3  0  0  0  0  0  0
  -30.2560  -15.8990   19.5340 N   0  0  0  0  0  0  0  0  0  0  0  0
  -30.0910  -20.0990   20.4970 C   0  0  0  0  0  2  0  0  0  0  0  0
  -29.5900  -19.9500   18.2060 C   0  0  0  0  0  2  0  0  0  0  0  0
  -29.3510  -21.5730   20.5720 C   0  0  0  0  0  2  0  0  0  0  0  0
  -28.8790  -21.4370   18.2730 C   0  0  0  0  0  2  0  0  0  0  0  0
  -29.6410  -18.9350   19.4610 C   0  0  0  0  0  3  0  0  0  0  0  0
  -29.3270  -22.5860   19.3170 C   0  0  0  0  0  3  0  0  0  0  0  0
  -28.4480  -24.1030   19.3610 C   0  0  0  0  0  2  0  0  0  0  0  0
  -28.7900  -25.6190   19.7390 O   0  0  0  0  0  0  0  0  0  0  0  0
  -25.4750  -30.9520   23.7630 C   0  0  0  0  0  0  0  0  0  0  0  0
  -27.8030  -26.6960   19.8680 C   0  0  0  0  0  0  0  0  0  0  0  0
  -24.1990  -29.9190   21.9270 C   0  0  0  0  0  3  0  0  0  0  0  0
  -25.5620  -28.5680   20.2040 C   0  0  0  0  0  0  0  0  0  0  0  0
  -26.7630  -30.0900   21.7620 C   0  0  0  0  0  2  0  0  0  0  0  0
  -26.7690  -28.8290   20.8640 C   0  0  0  0  0  0  0  0  0  0  0  0
  -27.8880  -27.9180   20.6780 C   0  0  0  0  0  3  0  0  0  0  0  0
  -26.5740  -26.5720   19.1820 C   0  0  0  0  0  3  0  0  0  0  0  0
  -25.4860  -27.4630   19.3430 C   0  0  0  0  0  3  0  0  0  0  0  0
  -24.3750  -29.4950   20.4440 C   0  0  0  0  0  2  0  0  0  0  0  0
  -25.5020  -30.3320   22.5410 N   0  0  0  0  0  0  0  0  0  0  0  0
  -24.4060  -31.1820   24.3530 O   0  0  0  0  0  0  0  0  0  0  0  0
  -23.4880  -28.7870   22.7100 C   0  0  0  0  0  0  0  0  0  0  0  0
  -22.2090  -28.5220   22.3850 N   0  0  0  0  0  0  0  0  0  0  0  0
  -24.0940  -28.1510   23.5750 O   0  0  0  0  0  0  0  0  0  0  0  0
  -21.7750  -29.0880   21.6700 H   0  0  0  0  0  0  0  0  0  0  0  0
  -18.9630  -26.9120   22.2140 C   0  0  0  0  0  0  0  0  0  0  0  0
  -21.3790  -27.4610   22.9630 C   0  0  0  0  0  3  0  0  0  0  0  0
  -21.7610  -26.0790   22.3830 C   0  0  0  0  0  2  0  0  0  0  0  0
  -20.9100  -25.6780   21.1720 C   0  0  0  0  0  2  0  0  0  0  0  0
  -19.4270  -25.6290   21.5480 C   0  0  0  0  0  2  0  0  0  0  0  0
  -19.8820  -27.7800   22.8660 C   0  0  0  0  0  0  0  0  0  0  0  0
  -19.4000  -28.9760   23.4420 C   0  0  0  0  0  3  0  0  0  0  0  0
  -18.0330  -29.3070   23.3790 C   0  0  0  0  0  3  0  0  0  0  0  0
  -17.1280  -28.4380   22.7460 C   0  0  0  0  0  3  0  0  0  0  0  0
  -17.5930  -27.2430   22.1680 C   0  0  0  0  0  3  0  0  0  0  0  0
  -26.7830  -31.4220   24.4680 C   0  0  0  0  0  3  0  0  0  0  0  0
  -27.1610  -30.5370   25.7200 C   0  0  1  0  0  0  0  0  0  0  0  0
  -26.0050  -30.3640   26.7340 C   0  0  0  0  0  1  0  0  0  0  0  0
  -27.6140  -29.1260   25.2820 C   0  0  0  0  0  1  0  0  0  0  0  0
  -28.3590  -31.1710   26.4670 C   0  0  0  0  0  1  0  0  0  0  0  0
  -26.5960  -32.8250   24.8780 N   0  0  0  0  0  0  0  0  0  0  0  0
  -27.0400  -33.8880   24.1930 C   0  0  0  0  0  0  0  0  0  0  0  0
  -27.7140  -33.7840   23.1650 O   0  0  0  0  0  0  0  0  0  0  0  0
  -26.0040  -32.9850   25.6780 H   0  0  0  0  0  0  0  0  0  0  0  0
  -25.5070  -35.8690   23.9290 C   0  0  0  0  0  1  0  0  0  0  0  0
  -26.6810  -35.2880   24.7330 C   0  0  0  0  0  3  0  0  0  0  0  0
  -28.8670  -35.9100   25.6670 C   0  0  0  0  0  1  0  0  0  0  0  0
  -27.8150  -36.2380   24.7080 N   0  0  0  0  0  0  0  0  0  0  0  0
  -27.4950  -37.1840   24.9020 H   0  0  0  0  0  0  0  0  0  0  0  0
  -25.6500  -13.5550   20.4130 C   0  0  0  0  0  0  0  0  0  0  0  0
  -24.6680  -12.7790   20.9670 C   0  0  0  0  0  0  0  0  0  0  0  0
  -25.0140  -11.4250   20.6660 C   0  0  0  0  0  0  0  0  0  0  0  0
  -26.5290  -12.6740   19.8070 N   0  0  0  0  0  0  0  0  0  0  0  0
  -26.1760  -11.3800   20.0200 N   0  0  0  0  0  0  0  0  0  0  0  0
  -24.2770  -10.1760   20.9050 C   0  0  0  0  0  0  0  0  0  0  0  0
  -24.7270   -9.2180   21.8400 C   0  0  0  0  0  3  0  0  0  0  0  0
  -23.9880   -8.0360   22.0660 C   0  0  0  0  0  3  0  0  0  0  0  0
  -22.7850   -7.8050   21.3580 C   0  0  0  0  0  0  0  0  0  0  0  0
  -22.3530   -8.7510   20.4120 C   0  0  0  0  0  3  0  0  0  0  0  0
  -23.0920   -9.9240   20.1820 C   0  0  0  0  0  3  0  0  0  0  0  0
  -22.0160   -6.6750   21.4930 O   0  0  0  0  0  0  0  0  0  0  0  0
  -21.7500   -6.1280   22.7240 C   0  0  0  0  0  0  0  0  0  0  0  0
  -21.0600   -6.8440   23.7270 C   0  0  0  0  0  3  0  0  0  0  0  0
  -20.7490   -6.2180   24.9500 C   0  0  0  0  0  3  0  0  0  0  0  0
  -21.1180   -4.8770   25.1690 C   0  0  0  0  0  0  0  0  0  0  0  0
  -21.8000   -4.1610   24.1710 C   0  0  0  0  0  3  0  0  0  0  0  0
  -22.1120   -4.7850   22.9500 C   0  0  0  0  0  0  0  0  0  0  0  0
  -22.7500   -4.0850   21.9800 F   0  0  0  0  0  0  0  0  0  0  0  0
  -20.8130   -4.2720   26.3390 F   0  0  0  0  0  0  0  0  0  0  0  0
  -23.4240  -13.2740   21.6460 C   0  0  0  0  0  0  0  0  0  0  0  0
  -22.9230  -12.5300   22.6260 N   0  0  0  0  0  0  0  0  0  0  0  0
  -22.9140  -14.3520   21.3420 O   0  0  0  0  0  0  0  0  0  0  0  0
  -23.3510  -11.6530   22.8840 H   0  0  0  0  0  0  0  0  0  0  0  0
  -22.0980  -12.8380   23.1190 H   0  0  0  0  0  0  0  0  0  0  0  0
  -25.8620  -14.9280   20.3470 N   0  0  0  0  0  0  0  0  0  0  0  0
  -25.2120  -15.6060   20.7270 H   0  0  0  0  0  0  0  0  0  0  0  0
  -26.6560  -15.3560   19.8850 H   0  0  0  0  0  0  0  0  0  0  0  0
  -31.2860  -15.0710   21.7850 C   0  0  0  0  0  2  0  0  0  0  0  0
  -32.5900  -14.5270   21.1760 C   0  0  0  0  0  2  0  0  0  0  0  0
  -32.5080  -12.2010   22.1790 C   0  0  0  0  0  0  0  0  0  0  0  0
  -33.2020  -11.1990   23.0490 C   0  0  0  0  0  1  0  0  0  0  0  0
  -31.3000  -11.8990   21.6660 N   0  0  0  0  0  4  0  0  0  0  0  0
  -33.1170  -13.3840   21.9430 N   0  0  0  0  0  0  0  0  0  0  0  0
  -30.8580  -11.0080   21.8610 H   0  0  0  0  0  0  0  0  0  0  0  0
  -30.7960  -12.5040   21.0380 H   0  0  0  0  0  0  0  0  0  0  0  0
  -34.0430  -13.5230   22.3310 H   0  0  0  0  0  0  0  0  0  0  0  0
  1  7  1  0
  1 12  1  0
  2  7  1  0
  3  4  1  0
  3  2  1  0
  5  4  1  0
  5 64  1  0
  5  6  1  0
  7  6  1  0
  8  1  2  0
  9 11  1  0
 10 17  1  0
 10 12  1  0
 10  9  1  0
 11 89  1  0
 12 11  1  0
 13 15  1  0
 14 16  1  0
 16 18  1  0
 17 14  1  0
 17 13  1  0
 18 19  1  0
 18 15  1  0
 19 20  1  0
 20 22  1  0
 21 32  2  0
 22 27  1  0
 23 31  1  0
 23 33  1  0
 24 30  1  0
 24 26  1  0
 25 31  1  0
 26 25  1  0
 27 26  2  0
 28 29  1  0
 28 22  2  0
 29 24  2  0
 30 23  1  0
 31 21  1  0
 33 35  2  0
 34 33  1  0
 36 34  1  0
 37 42  1  0
 38 34  1  0
 39 38  1  0
 40 41  1  0
 40 39  1  0
 41 37  1  0
 42 38  1  0
 42 43  2  0
 44 43  1  0
 45 44  2  0
 46 37  2  0
 46 45  1  0
 47 21  1  0
 47 52  1  0
 47 48  1  0
 48 51  1  1
 48 49  1  0
 50 48  1  0
 52 55  1  0
 53 57  1  0
 53 52  1  0
 54 53  2  0
 57 56  1  0
 59 57  1  0
 59 60  1  0
 59 58  1  0
 61 62  2  0
 62 81  1  0
 63 66  1  0
 63 62  1  0
 64 65  1  0
 64 61  1  0
 65 63  2  0
 66 67  1  0
 67 68  2  0
 69 72  1  0
 69 68  1  0
 70 69  2  0
 71 70  1  0
 71 66  2  0
 72 73  1  0
 73 78  2  0
 73 74  1  0
 74 75  2  0
 75 76  1  0
 76 80  1  0
 77 76  2  0
 78 77  1  0
 79 78  1  0
 81 82  1  0
 82 84  1  0
 82 85  1  0
 83 81  2  0
 86 61  1  0
 86 87  1  0
 88 86  1  0
 90 89  1  0
 90 94  1  0
 91 92  1  0
 93 95  1  0
 93 91  2  0
 94 91  1  0
 94 97  1  0
 96 93  1  0
M  ISO  4   1 100  12 100  19 101  20 101
M  END
>  <TORSDO>  (34) 
F 20

>  <SCORE>  (34) 
-8.720

>  <name>  (34) 
33

>  <ligand_id>  (34) 
33

>  <original_smiles>  (34) 
[H]c1c([H])c([H])c2c(c1[H])C([H])([H])C([H])([H])C([H])([H])C2([H])N([H])C(=O)C1([H])N(C(=O)C([H])(N([H])C(=O)C([H])(N([H])C([H])([H])[H])C([H])([H])[H])C(C([H])([H])[H])(C([H])([H])[H])C([H])([H])[H])C([H])([H])c2c([H])c(OC([H])([H])C3([H])C([H])([H])C([H])([H])C([H])(C4([H])N(C(=O)N5C([H])([H])C([H])([H])C([H])([H])C([H])(n6nc(-c7c([H])c([H])c(Oc8c([H])c([H])c(F)c([H])c8F)c([H])c7[H])c(C(=O)N([H])[H])c6N([H])[H])C5([H])[H])C([H])(C([H])([H])C([H])([H])[N+]([H])=C(N([H])[H])C([H])([H])[H])C4([H])[H])C([H])([H])C3([H])[H])c([H])c([H])c2C1([H])[H]

>  <smiles>  (34) 
[H]c1c([H])c([H])c2c(c1[H])C([H])([H])C([H])([H])C([H])([H])C2([H])N([H])C(=O)C1([H])N(C(=O)C([H])(N([H])C(=O)C([H])(N([H])C([H])([H])[H])C([H])([H])[H])C(C([H])([H])[H])(C([H])([H])[H])C([H])([H])[H])C([H])([H])c2c([H])c(OC([H])([H])C3([H])C([H])([H])C([H])([H])C([H])(C4([H])N(C(=O)N5C([H])([H])C([H])([H])C([H])([H])C([H])(n6nc(-c7c([H])c([H])c(Oc8c([H])c([H])c(F)c([H])c8F)c([H])c7[H])c(C(=O)N([H])[H])c6N([H])[H])C5([H])[H])C([H])(C([H])([H])C([H])([H])[N+]([H])=C(N([H])[H])C([H])([H])[H])C4([H])[H])C([H])([H])C3([H])[H])c([H])c([H])c2C1([H])[H]

$$$$
34:0:0
     RDKit          3D

 92101  0  0  1  0  0  0  0  0999 V2000
  -29.8590  -21.4630   21.1810 C   0  0  0  0  0  3  0  0  0  0  0  0
  -28.5300  -19.7620   19.5490 C   0  0  0  0  0  3  0  0  0  0  0  0
  -30.2600  -20.0730   21.1190 C   0  0  0  0  0  0  0  0  0  0  0  0
  -29.5920  -19.1210   20.2770 C   0  0  0  0  0  0  0  0  0  0  0  0
  -28.7930  -22.0200   20.4150 C   0  0  0  0  0  0  0  0  0  0  0  0
  -28.1490  -21.1030   19.6190 N   0  0  0  0  0  0  0  0  0  0  0  0
  -31.3230  -18.5760   22.9890 C   0  0  0  0  0  2  0  0  0  0  0  0
  -31.5740  -20.0090   23.3920 C   0  0  0  0  0  2  0  0  0  0  0  0
  -31.4460  -19.6480   21.9310 C   0  0  0  0  0  3  0  0  0  0  0  0
  -30.2040  -17.6230   19.9380 C   0  0  0  0  0  2  0  0  0  0  0  0
  -30.5950  -15.0030   20.3190 C   0  0  0  0  0  0  0  0  0  0  0  0
  -30.4560  -12.6670   19.3890 C   0  0  0  0  0  2  0  0  0  0  0  0
  -29.5190  -12.6530   18.1610 C   0  0  0  0  0  2  0  0  0  0  0  0
  -28.0590  -12.4370   18.6000 C   0  0  0  0  0  2  0  0  0  0  0  0
  -27.6590  -13.3510   19.7890 C   0  0  0  0  0  3  0  0  0  0  0  0
  -28.7210  -13.3560   20.9100 C   0  0  0  0  0  2  0  0  0  0  0  0
  -29.9920  -13.7530   20.2960 N   0  0  0  0  0  0  0  0  0  0  0  0
  -31.7860  -15.0670   20.0020 O   0  0  0  0  0  0  0  0  0  0  0  0
  -29.8350  -16.1900   20.4490 N   0  0  0  0  0  0  0  0  0  0  0  0
  -28.8700  -16.0510   20.7090 H   0  0  0  0  0  0  0  0  0  0  0  0
  -25.2730  -13.9050   20.5360 C   0  0  0  0  0  0  0  0  0  0  0  0
  -24.2190  -13.1170   20.9070 C   0  0  0  0  0  0  0  0  0  0  0  0
  -24.6970  -11.7710   20.8690 C   0  0  0  0  0  0  0  0  0  0  0  0
  -26.3250  -13.0390   20.2900 N   0  0  0  0  0  0  0  0  0  0  0  0
  -25.9880  -11.7500   20.5560 N   0  0  0  0  0  0  0  0  0  0  0  0
  -23.9850  -10.5000   21.0560 C   0  0  0  0  0  0  0  0  0  0  0  0
  -24.4130   -9.5440   22.0030 C   0  0  0  0  0  3  0  0  0  0  0  0
  -23.6970   -8.3390   22.1780 C   0  0  0  0  0  3  0  0  0  0  0  0
  -22.5400   -8.0820   21.4060 C   0  0  0  0  0  0  0  0  0  0  0  0
  -22.1320   -9.0270   20.4470 C   0  0  0  0  0  3  0  0  0  0  0  0
  -22.8470  -10.2220   20.2710 C   0  0  0  0  0  3  0  0  0  0  0  0
  -21.7960   -6.9290   21.4900 O   0  0  0  0  0  0  0  0  0  0  0  0
  -21.7210   -6.2050   22.6530 C   0  0  0  0  0  0  0  0  0  0  0  0
  -21.2250   -6.7660   23.8500 C   0  0  0  0  0  3  0  0  0  0  0  0
  -21.1010   -5.9660   25.0030 C   0  0  0  0  0  3  0  0  0  0  0  0
  -21.4610   -4.6060   24.9590 C   0  0  0  0  0  0  0  0  0  0  0  0
  -21.9490   -4.0450   23.7660 C   0  0  0  0  0  3  0  0  0  0  0  0
  -22.0760   -4.8410   22.6160 C   0  0  0  0  0  0  0  0  0  0  0  0
  -22.5270   -4.2900   21.4630 F   0  0  0  0  0  0  0  0  0  0  0  0
  -21.3340   -3.8350   26.0640 F   0  0  0  0  0  0  0  0  0  0  0  0
  -22.8170  -13.5770   21.1810 C   0  0  0  0  0  0  0  0  0  0  0  0
  -22.0940  -12.8650   22.0380 N   0  0  0  0  0  0  0  0  0  0  0  0
  -22.3720  -14.6060   20.6730 O   0  0  0  0  0  0  0  0  0  0  0  0
  -22.4680  -12.0320   22.4700 H   0  0  0  0  0  0  0  0  0  0  0  0
  -21.1550  -13.1560   22.2670 H   0  0  0  0  0  0  0  0  0  0  0  0
  -25.4190  -15.2780   20.3620 N   0  0  0  0  0  0  0  0  0  0  0  0
  -24.6410  -15.9180   20.4790 H   0  0  0  0  0  0  0  0  0  0  0  0
  -26.2510  -15.7310   20.0080 H   0  0  0  0  0  0  0  0  0  0  0  0
  -28.2030  -23.5400   20.6610 C   0  0  0  0  0  2  0  0  0  0  0  0
  -28.2160  -24.7550   18.3050 C   0  0  0  0  0  1  0  0  0  0  0  0
  -28.5130  -24.9280   19.8030 C   0  0  0  0  0  3  0  0  0  0  0  0
  -28.3140  -26.3950   20.2710 O   0  0  0  0  0  0  0  0  0  0  0  0
  -24.5850  -31.9450   23.2300 C   0  0  0  0  0  0  0  0  0  0  0  0
  -27.1870  -27.2750   20.1880 C   0  0  0  0  0  0  0  0  0  0  0  0
  -23.3820  -30.5380   21.5990 C   0  0  0  0  0  3  0  0  0  0  0  0
  -24.8310  -28.9670   20.1720 C   0  0  0  0  0  0  0  0  0  0  0  0
  -25.9290  -30.8310   21.4130 C   0  0  0  0  0  2  0  0  0  0  0  0
  -26.0060  -29.4400   20.7660 C   0  0  0  0  0  0  0  0  0  0  0  0
  -27.1810  -28.6090   20.7560 C   0  0  0  0  0  3  0  0  0  0  0  0
  -25.9780  -26.8800   19.5800 C   0  0  0  0  0  3  0  0  0  0  0  0
  -24.8270  -27.7000   19.5660 C   0  0  0  0  0  3  0  0  0  0  0  0
  -23.5970  -29.8520   20.2220 C   0  0  0  0  0  2  0  0  0  0  0  0
  -24.6520  -31.1260   22.1360 N   0  0  0  0  0  0  0  0  0  0  0  0
  -23.5020  -32.2230   23.7650 O   0  0  0  0  0  0  0  0  0  0  0  0
  -22.7180  -29.5290   22.5690 C   0  0  0  0  0  0  0  0  0  0  0  0
  -21.3930  -29.3410   22.4400 N   0  0  0  0  0  0  0  0  0  0  0  0
  -23.3970  -28.9170   23.3980 O   0  0  0  0  0  0  0  0  0  0  0  0
  -20.9020  -29.8860   21.7450 H   0  0  0  0  0  0  0  0  0  0  0  0
  -18.0250  -28.1130   22.9430 C   0  0  0  0  0  0  0  0  0  0  0  0
  -20.5800  -28.4000   23.2150 C   0  0  0  0  0  3  0  0  0  0  0  0
  -20.6970  -26.9660   22.6500 C   0  0  0  0  0  2  0  0  0  0  0  0
  -19.6010  -26.6260   21.6340 C   0  0  0  0  0  2  0  0  0  0  0  0
  -18.2160  -26.7620   22.2750 C   0  0  0  0  0  2  0  0  0  0  0  0
  -19.1340  -28.8890   23.3690 C   0  0  0  0  0  0  0  0  0  0  0  0
  -18.9010  -30.1530   23.9540 C   0  0  0  0  0  3  0  0  0  0  0  0
  -17.5910  -30.6400   24.1160 C   0  0  0  0  0  3  0  0  0  0  0  0
  -16.4960  -29.8620   23.7050 C   0  0  0  0  0  3  0  0  0  0  0  0
  -16.7130  -28.5990   23.1240 C   0  0  0  0  0  3  0  0  0  0  0  0
  -25.8650  -32.5870   23.8500 C   0  0  0  0  0  3  0  0  0  0  0  0
  -26.3790  -31.8290   25.1360 C   0  0  1  0  0  0  0  0  0  0  0  0
  -25.2820  -31.5980   26.2020 C   0  0  0  0  0  1  0  0  0  0  0  0
  -26.9680  -30.4500   24.7610 C   0  0  0  0  0  1  0  0  0  0  0  0
  -27.5230  -32.6340   25.7970 C   0  0  0  0  0  1  0  0  0  0  0  0
  -25.5510  -33.9880   24.1710 N   0  0  0  0  0  0  0  0  0  0  0  0
  -25.8910  -35.0400   23.4150 C   0  0  0  0  0  0  0  0  0  0  0  0
  -26.5700  -34.9340   22.3890 O   0  0  0  0  0  0  0  0  0  0  0  0
  -24.9520  -34.1450   24.9670 H   0  0  0  0  0  0  0  0  0  0  0  0
  -24.1790  -36.8440   23.0340 C   0  0  0  0  0  1  0  0  0  0  0  0
  -25.4040  -36.4310   23.8670 C   0  0  0  0  0  3  0  0  0  0  0  0
  -27.5240  -37.3070   24.7420 C   0  0  0  0  0  1  0  0  0  0  0  0
  -26.4440  -37.4800   23.7750 N   0  0  0  0  0  0  0  0  0  0  0  0
  -26.0380  -38.4010   23.9120 H   0  0  0  0  0  0  0  0  0  0  0  0
  2  6  2  0
  2  4  1  0
  3  1  1  0
  3  9  1  0
  4  3  2  0
  5 49  1  0
  5  1  2  0
  6  5  1  0
  7  8  1  0
  9  7  1  0
  9  8  1  0
 10  4  1  0
 10 19  1  0
 11 19  1  0
 12 17  1  0
 13 14  1  0
 13 12  1  0
 15 14  1  0
 15 24  1  0
 15 16  1  0
 17 11  1  0
 17 16  1  0
 18 11  2  0
 19 20  1  0
 21 22  2  0
 22 41  1  0
 23 22  1  0
 23 26  1  0
 24 21  1  0
 24 25  1  0
 25 23  2  0
 26 27  1  0
 27 28  2  0
 29 32  1  0
 29 28  1  0
 30 29  2  0
 31 30  1  0
 31 26  2  0
 32 33  1  0
 33 34  1  0
 34 35  2  0
 36 35  1  0
 36 40  1  0
 37 36  2  0
 38 33  2  0
 38 37  1  0
 39 38  1  0
 41 42  1  0
 42 45  1  0
 42 44  1  0
 43 41  2  0
 46 47  1  0
 46 21  1  0
 48 46  1  0
 51 50  1  0
 51 52  1  0
 51 49  1  0
 53 64  2  0
 54 52  1  0
 54 59  1  0
 55 63  1  0
 55 65  1  0
 56 62  1  0
 56 58  1  0
 57 63  1  0
 58 57  1  0
 59 58  2  0
 60 54  2  0
 61 60  1  0
 61 56  2  0
 62 55  1  0
 63 53  1  0
 65 67  2  0
 66 65  1  0
 68 66  1  0
 69 78  2  0
 69 74  1  0
 70 66  1  0
 70 74  1  0
 71 70  1  0
 72 73  1  0
 72 71  1  0
 73 69  1  0
 74 75  2  0
 75 76  1  0
 77 76  2  0
 78 77  1  0
 79 53  1  0
 79 84  1  0
 79 80  1  0
 80 83  1  1
 80 81  1  0
 82 80  1  0
 84 87  1  0
 85 89  1  0
 85 84  1  0
 86 85  2  0
 89 88  1  0
 91 89  1  0
 91 92  1  0
 91 90  1  0
M  ISO  4  11 100  19 100  51 101  52 101
M  END
>  <TORSDO>  (35) 
F 20

>  <SCORE>  (35) 
-13.993

>  <name>  (35) 
34

>  <ligand_id>  (35) 
34

>  <original_smiles>  (35) 
[H]c1nc(C([H])([H])C([H])(Oc2c([H])c([H])c3c(c2[H])C([H])([H])N(C(=O)C([H])(N([H])C(=O)C([H])(N([H])C([H])([H])[H])C([H])([H])[H])C(C([H])([H])[H])(C([H])([H])[H])C([H])([H])[H])C([H])(C(=O)N([H])C2([H])c4c([H])c([H])c([H])c([H])c4C([H])([H])C([H])([H])C2([H])[H])C3([H])[H])C([H])([H])[H])c([H])c(C2([H])C([H])([H])C2([H])[H])c1C([H])([H])N([H])C(=O)N1C([H])([H])C([H])([H])C([H])([H])C([H])(n2nc(-c3c([H])c([H])c(Oc4c([H])c([H])c(F)c([H])c4F)c([H])c3[H])c(C(=O)N([H])[H])c2N([H])[H])C1([H])[H]

>  <smiles>  (35) 
[H]c1nc(C([H])([H])C([H])(Oc2c([H])c([H])c3c(c2[H])C([H])([H])N(C(=O)C([H])(N([H])C(=O)C([H])(N([H])C([H])([H])[H])C([H])([H])[H])C(C([H])([H])[H])(C([H])([H])[H])C([H])([H])[H])C([H])(C(=O)N([H])C2([H])c4c([H])c([H])c([H])c([H])c4C([H])([H])C([H])([H])C2([H])[H])C3([H])[H])C([H])([H])[H])c([H])c(C2([H])C([H])([H])C2([H])[H])c1C([H])([H])N([H])C(=O)N1C([H])([H])C([H])([H])C([H])([H])C([H])(n2nc(-c3c([H])c([H])c(Oc4c([H])c([H])c(F)c([H])c4F)c([H])c3[H])c(C(=O)N([H])[H])c2N([H])[H])C1([H])[H]

$$$$
35:0:0
     RDKit          3D

 90 98  0  0  1  0  0  0  0  0999 V2000
  -28.8460  -20.9350   20.0440 C   0  0  0  0  0  2  0  0  0  0  0  0
  -29.0040  -22.7800   18.1480 C   0  0  0  0  0  1  0  0  0  0  0  0
  -28.9830  -22.6830   19.6770 C   0  0  0  0  0  3  0  0  0  0  0  0
  -28.0920  -24.1240   20.2780 C   0  0  0  0  0  2  0  0  0  0  0  0
  -28.3540  -25.7460   20.3040 O   0  0  0  0  0  0  0  0  0  0  0  0
  -24.5240  -31.6370   23.1150 C   0  0  0  0  0  0  0  0  0  0  0  0
  -27.3230  -26.8120   20.2510 C   0  0  0  0  0  0  0  0  0  0  0  0
  -23.4340  -30.1790   21.4600 C   0  0  0  0  0  3  0  0  0  0  0  0
  -24.9800  -28.6020   20.1070 C   0  0  0  0  0  0  0  0  0  0  0  0
  -25.9940  -30.4660   21.3970 C   0  0  0  0  0  2  0  0  0  0  0  0
  -26.1270  -29.0520   20.7690 C   0  0  0  0  0  0  0  0  0  0  0  0
  -27.3010  -28.1770   20.8200 C   0  0  0  0  0  3  0  0  0  0  0  0
  -26.1440  -26.5060   19.5450 C   0  0  0  0  0  3  0  0  0  0  0  0
  -25.0100  -27.3470   19.4800 C   0  0  0  0  0  3  0  0  0  0  0  0
  -23.7380  -29.4920   20.0940 C   0  0  0  0  0  2  0  0  0  0  0  0
  -24.6680  -30.7900   22.0450 N   0  0  0  0  0  0  0  0  0  0  0  0
  -23.4100  -31.9050   23.5940 O   0  0  0  0  0  0  0  0  0  0  0  0
  -22.7420  -29.1710   22.4160 C   0  0  0  0  0  0  0  0  0  0  0  0
  -21.4180  -28.9830   22.2740 N   0  0  0  0  0  0  0  0  0  0  0  0
  -23.4050  -28.5610   23.2610 O   0  0  0  0  0  0  0  0  0  0  0  0
  -20.9300  -29.5370   21.5800 H   0  0  0  0  0  0  0  0  0  0  0  0
  -18.0590  -27.6770   22.7050 C   0  0  0  0  0  0  0  0  0  0  0  0
  -20.6030  -28.0210   23.0290 C   0  0  0  0  0  3  0  0  0  0  0  0
  -20.7560  -26.5830   22.4700 C   0  0  0  0  0  2  0  0  0  0  0  0
  -19.6880  -26.2210   21.4320 C   0  0  0  0  0  2  0  0  0  0  0  0
  -18.2860  -26.3310   22.0400 C   0  0  0  0  0  2  0  0  0  0  0  0
  -19.1440  -28.4800   23.1560 C   0  0  0  0  0  0  0  0  0  0  0  0
  -18.8750  -29.7370   23.7360 C   0  0  0  0  0  3  0  0  0  0  0  0
  -17.5520  -30.2030   23.8640 C   0  0  0  0  0  3  0  0  0  0  0  0
  -16.4810  -29.4000   23.4370 C   0  0  0  0  0  3  0  0  0  0  0  0
  -16.7360  -28.1430   22.8620 C   0  0  0  0  0  3  0  0  0  0  0  0
  -25.7520  -32.3310   23.7770 C   0  0  0  0  0  3  0  0  0  0  0  0
  -25.3810  -33.7230   24.0850 N   0  0  0  0  0  0  0  0  0  0  0  0
  -25.7130  -34.7880   23.3450 C   0  0  0  0  0  0  0  0  0  0  0  0
  -26.4250  -34.7020   22.3390 O   0  0  0  0  0  0  0  0  0  0  0  0
  -24.7450  -33.8560   24.8590 H   0  0  0  0  0  0  0  0  0  0  0  0
  -23.9380  -36.5300   22.9240 C   0  0  0  0  0  1  0  0  0  0  0  0
  -25.1650  -36.1620   23.7780 C   0  0  0  0  0  3  0  0  0  0  0  0
  -27.2410  -37.1180   24.6810 C   0  0  0  0  0  1  0  0  0  0  0  0
  -26.1690  -37.2460   23.6970 N   0  0  0  0  0  0  0  0  0  0  0  0
  -25.7310  -38.1560   23.8170 H   0  0  0  0  0  0  0  0  0  0  0  0
  -26.2460  -31.5980   25.0880 C   0  0  1  0  0  0  0  0  0  0  0  0
  -25.1240  -31.3320   26.1180 C   0  0  0  0  0  1  0  0  0  0  0  0
  -26.8990  -30.2400   24.7510 C   0  0  0  0  0  1  0  0  0  0  0  0
  -27.3400  -32.4440   25.7840 C   0  0  0  0  0  1  0  0  0  0  0  0
  -29.5420  -19.4330   19.3370 C   0  0  0  0  0  3  0  0  0  0  0  0
  -30.4610  -18.4330   22.1570 C   0  0  0  0  0  2  0  0  0  0  0  0
  -29.3180  -17.6350   21.4920 C   0  0  0  0  0  2  0  0  0  0  0  0
  -31.3470  -18.1740   20.9660 C   0  0  0  0  0  2  0  0  0  0  0  0
  -30.0850  -17.9310   20.1440 C   0  0  2  0  0  0  0  0  0  0  0  0
  -31.0390  -15.1850   19.5250 C   0  0  0  0  0  0  0  0  0  0  0  0
  -30.9350  -12.7630   18.6430 C   0  0  0  0  0  2  0  0  0  0  0  0
  -29.8840  -12.6010   17.5160 C   0  0  0  0  0  2  0  0  0  0  0  0
  -28.4670  -12.4130   18.0980 C   0  0  0  0  0  2  0  0  0  0  0  0
  -28.1730  -13.3810   19.2730 C   0  0  0  0  0  3  0  0  0  0  0  0
  -29.3260  -13.4100   20.2900 C   0  0  0  0  0  2  0  0  0  0  0  0
  -30.4900  -13.8860   19.5340 N   0  0  0  0  0  0  0  0  0  0  0  0
  -32.2510  -15.2250   19.2720 O   0  0  0  0  0  0  0  0  0  0  0  0
  -30.1860  -16.3840   19.5600 N   0  0  0  0  0  0  0  0  0  0  0  0
  -29.2500  -16.0220   19.4930 H   0  0  0  0  0  0  0  0  0  0  0  0
  -25.9150  -14.0520   20.2590 C   0  0  0  0  0  0  0  0  0  0  0  0
  -24.8530  -13.3160   20.7020 C   0  0  0  0  0  0  0  0  0  0  0  0
  -25.2440  -11.9460   20.5930 C   0  0  0  0  0  0  0  0  0  0  0  0
  -26.8840  -13.1300   19.8960 N   0  0  0  0  0  0  0  0  0  0  0  0
  -26.4970  -11.8580   20.1650 N   0  0  0  0  0  0  0  0  0  0  0  0
  -24.4770  -10.7170   20.8180 C   0  0  0  0  0  0  0  0  0  0  0  0
  -24.8590   -9.7760   21.8020 C   0  0  0  0  0  3  0  0  0  0  0  0
  -24.0960   -8.6080   22.0100 C   0  0  0  0  0  3  0  0  0  0  0  0
  -22.9340   -8.3740   21.2360 C   0  0  0  0  0  0  0  0  0  0  0  0
  -22.5670   -9.3010   20.2440 C   0  0  0  0  0  3  0  0  0  0  0  0
  -23.3310  -10.4610   20.0330 C   0  0  0  0  0  3  0  0  0  0  0  0
  -22.1430   -7.2550   21.3530 O   0  0  0  0  0  0  0  0  0  0  0  0
  -21.9300   -6.6470   22.5650 C   0  0  0  0  0  0  0  0  0  0  0  0
  -21.3650   -7.3420   23.6560 C   0  0  0  0  0  3  0  0  0  0  0  0
  -21.1010   -6.6630   24.8620 C   0  0  0  0  0  3  0  0  0  0  0  0
  -21.3960   -5.2910   24.9750 C   0  0  0  0  0  0  0  0  0  0  0  0
  -21.9530   -4.5960   23.8880 C   0  0  0  0  0  3  0  0  0  0  0  0
  -22.2200   -5.2740   22.6840 C   0  0  0  0  0  0  0  0  0  0  0  0
  -22.7390   -4.5970   21.6330 F   0  0  0  0  0  0  0  0  0  0  0  0
  -21.1330   -4.6360   26.1300 F   0  0  0  0  0  0  0  0  0  0  0  0
  -23.5100  -13.8520   21.1050 C   0  0  0  0  0  0  0  0  0  0  0  0
  -22.8440  -13.1880   22.0410 N   0  0  0  0  0  0  0  0  0  0  0  0
  -23.0730  -14.8960   20.6280 O   0  0  0  0  0  0  0  0  0  0  0  0
  -23.2200  -12.3410   22.4440 H   0  0  0  0  0  0  0  0  0  0  0  0
  -21.9450  -13.5250   22.3570 H   0  0  0  0  0  0  0  0  0  0  0  0
  -26.1260  -15.4210   20.1080 N   0  0  0  0  0  0  0  0  0  0  0  0
  -25.4000  -16.0880   20.3410 H   0  0  0  0  0  0  0  0  0  0  0  0
  -26.9540  -15.8500   19.7220 H   0  0  0  0  0  0  0  0  0  0  0  0
  -28.6830  -19.0070   18.2890 O   0  0  0  0  0  0  0  0  0  0  0  0
  -27.8630  -18.7020   18.6740 H   0  0  0  0  0  0  0  0  0  0  0  0
  3  2  1  0
  3  1  1  0
  3  4  1  0
  4  5  1  0
  6 17  2  0
  7  5  1  0
  7 12  1  0
  8 16  1  0
  8 18  1  0
  9 11  1  0
 10 16  1  0
 11 12  2  0
 11 10  1  0
 13  7  2  0
 14 13  1  0
 14  9  2  0
 15  9  1  0
 15  8  1  0
 16  6  1  0
 18 20  2  0
 19 18  1  0
 21 19  1  0
 22 31  2  0
 22 27  1  0
 23 19  1  0
 23 27  1  0
 24 23  1  0
 25 26  1  0
 25 24  1  0
 26 22  1  0
 27 28  2  0
 28 29  1  0
 30 29  2  0
 31 30  1  0
 32  6  1  0
 32 33  1  0
 32 42  1  0
 33 36  1  0
 34 38  1  0
 34 33  1  0
 35 34  2  0
 38 37  1  0
 40 38  1  0
 40 41  1  0
 40 39  1  0
 42 45  1  1
 42 43  1  0
 44 42  1  0
 46  1  1  0
 50 46  1  6
 48 47  1  0
 49 47  1  0
 50 49  1  0
 50 48  1  0
 51 57  1  0
 51 59  1  0
 52 57  1  0
 53 54  1  0
 53 52  1  0
 55 54  1  0
 55 64  1  0
 55 56  1  0
 57 56  1  0
 58 51  2  0
 59 50  1  0
 60 59  1  0
 61 62  2  0
 62 81  1  0
 63 62  1  0
 63 66  1  0
 64 65  1  0
 64 61  1  0
 65 63  2  0
 66 67  1  0
 67 68  2  0
 69 72  1  0
 69 68  1  0
 70 69  2  0
 71 70  1  0
 71 66  2  0
 72 73  1  0
 73 78  2  0
 73 74  1  0
 74 75  2  0
 75 76  1  0
 76 80  1  0
 77 76  2  0
 78 77  1  0
 79 78  1  0
 81 82  1  0
 82 85  1  0
 82 84  1  0
 83 81  2  0
 86 61  1  0
 86 87  1  0
 88 86  1  0
 89 90  1  0
 89 46  1  0
M  ISO  4   4 101   5 101  51 100  59 100
M  END
>  <TORSDO>  (36) 
F 21

>  <SCORE>  (36) 
-13.794

>  <name>  (36) 
35

>  <ligand_id>  (36) 
35

>  <original_smiles>  (36) 
[H]OC([H])(C([H])([H])C([H])(C([H])([H])[H])C([H])([H])Oc1c([H])c([H])c2c(c1[H])C([H])([H])N(C(=O)C([H])(N([H])C(=O)C([H])(N([H])C([H])([H])[H])C([H])([H])[H])C(C([H])([H])[H])(C([H])([H])[H])C([H])([H])[H])C([H])(C(=O)N([H])C1([H])c3c([H])c([H])c([H])c([H])c3C([H])([H])C([H])([H])C1([H])[H])C2([H])[H])C1(N([H])C(=O)N2C([H])([H])C([H])([H])C([H])([H])C([H])(n3nc(-c4c([H])c([H])c(Oc5c([H])c([H])c(F)c([H])c5F)c([H])c4[H])c(C(=O)N([H])[H])c3N([H])[H])C2([H])[H])C([H])([H])C([H])([H])C1([H])[H]

>  <smiles>  (36) 
[H]OC([H])(C([H])([H])C([H])(C([H])([H])[H])C([H])([H])Oc1c([H])c([H])c2c(c1[H])C([H])([H])N(C(=O)C([H])(N([H])C(=O)C([H])(N([H])C([H])([H])[H])C([H])([H])[H])C(C([H])([H])[H])(C([H])([H])[H])C([H])([H])[H])C([H])(C(=O)N([H])C1([H])c3c([H])c([H])c([H])c([H])c3C([H])([H])C([H])([H])C1([H])[H])C2([H])[H])C1(N([H])C(=O)N2C([H])([H])C([H])([H])C([H])([H])C([H])(n3nc(-c4c([H])c([H])c(Oc5c([H])c([H])c(F)c([H])c5F)c([H])c4[H])c(C(=O)N([H])[H])c3N([H])[H])C2([H])[H])C([H])([H])C([H])([H])C1([H])[H]

$$$$
36:0:0
     RDKit          3D

102110  0  0  1  0  0  0  0  0999 V2000
  -29.3020  -21.3630   19.6250 C   0  0  0  0  0  3  0  0  0  0  0  0
  -30.7720  -20.1640   21.5970 C   0  0  0  0  0  3  0  0  0  0  0  0
  -29.8570  -20.0890   19.3580 C   0  0  0  0  0  0  0  0  0  0  0  0
  -30.5620  -19.4330   20.4080 C   0  0  0  0  0  0  0  0  0  0  0  0
  -29.5270  -21.9810   20.8680 C   0  0  0  0  0  0  0  0  0  0  0  0
  -30.2820  -21.4030   21.8230 N   0  0  0  0  0  0  0  0  0  0  0  0
  -32.6190  -18.0960   19.9100 C   0  0  0  0  0  1  0  0  0  0  0  0
  -31.1280  -18.0050   20.2790 C   0  0  0  0  0  3  0  0  0  0  0  0
  -30.8790  -17.1020   21.5320 C   0  0  0  0  0  2  0  0  0  0  0  0
  -31.0850  -14.7370   20.6300 C   0  0  0  0  0  0  0  0  0  0  0  0
  -30.7620  -12.6140   19.4180 C   0  0  0  0  0  2  0  0  0  0  0  0
  -29.8520  -12.8480   18.1950 C   0  0  0  0  0  2  0  0  0  0  0  0
  -28.3680  -12.7260   18.5890 C   0  0  0  0  0  2  0  0  0  0  0  0
  -28.0090  -13.5470   19.8550 C   0  0  0  0  0  3  0  0  0  0  0  0
  -29.0350  -13.2990   20.9850 C   0  0  0  0  0  2  0  0  0  0  0  0
  -30.3790  -13.5880   20.4510 N   0  0  0  0  0  0  0  0  0  0  0  0
  -32.2110  -14.9100   20.1670 O   0  0  0  0  0  0  0  0  0  0  0  0
  -30.4240  -15.7310   21.2440 N   0  0  0  0  0  0  0  0  0  0  0  0
  -29.4960  -15.4960   21.5650 H   0  0  0  0  0  0  0  0  0  0  0  0
  -25.6060  -14.1720   20.5340 C   0  0  0  0  0  0  0  0  0  0  0  0
  -24.5150  -13.4070   20.8460 C   0  0  0  0  0  0  0  0  0  0  0  0
  -24.9530  -12.0500   20.7790 C   0  0  0  0  0  0  0  0  0  0  0  0
  -26.6410  -13.2820   20.2950 N   0  0  0  0  0  0  0  0  0  0  0  0
  -26.2490  -11.9970   20.5000 N   0  0  0  0  0  0  0  0  0  0  0  0
  -24.2010  -10.7960   20.9130 C   0  0  0  0  0  0  0  0  0  0  0  0
  -24.5780   -9.8020   21.8430 C   0  0  0  0  0  3  0  0  0  0  0  0
  -23.8270   -8.6130   21.9640 C   0  0  0  0  0  3  0  0  0  0  0  0
  -22.6850   -8.4080   21.1540 C   0  0  0  0  0  0  0  0  0  0  0  0
  -22.3270   -9.3910   20.2140 C   0  0  0  0  0  3  0  0  0  0  0  0
  -23.0790  -10.5720   20.0910 C   0  0  0  0  0  3  0  0  0  0  0  0
  -21.9100   -7.2730   21.1830 O   0  0  0  0  0  0  0  0  0  0  0  0
  -21.7490   -6.5420   22.3330 C   0  0  0  0  0  0  0  0  0  0  0  0
  -21.2180   -7.1120   23.5110 C   0  0  0  0  0  3  0  0  0  0  0  0
  -21.0040   -6.3070   24.6480 C   0  0  0  0  0  3  0  0  0  0  0  0
  -21.3110   -4.9350   24.6070 C   0  0  0  0  0  0  0  0  0  0  0  0
  -21.8350   -4.3640   23.4340 C   0  0  0  0  0  3  0  0  0  0  0  0
  -22.0510   -5.1660   22.3000 C   0  0  0  0  0  0  0  0  0  0  0  0
  -22.5350   -4.6070   21.1650 F   0  0  0  0  0  0  0  0  0  0  0  0
  -21.0990   -4.1590   25.6960 F   0  0  0  0  0  0  0  0  0  0  0  0
  -23.1210  -13.9020   21.1060 C   0  0  0  0  0  0  0  0  0  0  0  0
  -22.3720  -13.2050   21.9540 N   0  0  0  0  0  0  0  0  0  0  0  0
  -22.7040  -14.9390   20.5930 O   0  0  0  0  0  0  0  0  0  0  0  0
  -22.7220  -12.3660   22.3920 H   0  0  0  0  0  0  0  0  0  0  0  0
  -21.4350  -13.5170   22.1700 H   0  0  0  0  0  0  0  0  0  0  0  0
  -25.7980  -15.5450   20.4190 N   0  0  0  0  0  0  0  0  0  0  0  0
  -25.0430  -16.2040   20.5690 H   0  0  0  0  0  0  0  0  0  0  0  0
  -26.6840  -15.9910   20.2260 H   0  0  0  0  0  0  0  0  0  0  0  0
  -30.7670  -19.9710   16.9720 C   0  0  0  0  0  1  0  0  0  0  0  0
  -29.6930  -19.4810   17.9540 C   0  0  0  0  0  3  0  0  0  0  0  0
  -28.4350  -19.7840   17.3530 O   0  0  0  0  0  0  0  0  0  0  0  0
  -27.3220  -19.1230   17.9500 C   0  0  0  0  0  2  0  0  0  0  0  0
  -26.2130  -20.6550   19.6660 C   0  0  0  0  0  1  0  0  0  0  0  0
  -26.1930  -20.1350   18.2170 C   0  0  0  0  0  3  0  0  0  0  0  0
  -26.1240  -21.2580   17.1560 C   0  0  0  0  0  2  0  0  0  0  0  0
  -27.2950  -22.1520   17.1960 N   0  0  0  0  0  4  0  0  0  0  0  0
  -27.2830  -22.7160   18.0250 H   0  0  0  0  0  0  0  0  0  0  0  0
  -27.2930  -22.7650   16.3980 H   0  0  0  0  0  0  0  0  0  0  0  0
  -28.1390  -21.6040   17.1890 H   0  0  0  0  0  0  0  0  0  0  0  0
  -28.8720  -23.3120   21.2360 C   0  0  0  0  0  2  0  0  0  0  0  0
  -29.5410  -24.5930   20.6780 C   0  0  0  0  0  2  0  0  0  0  0  0
  -28.9510  -25.8650   21.3370 C   0  0  0  0  0  2  0  0  0  0  0  0
  -29.0630  -27.0730   20.5560 O   0  0  0  0  0  0  0  0  0  0  0  0
  -24.8030  -32.0030   23.4540 C   0  0  0  0  0  0  0  0  0  0  0  0
  -27.8800  -27.7770   20.4710 C   0  0  0  0  0  0  0  0  0  0  0  0
  -23.7780  -30.5500   21.7350 C   0  0  0  0  0  3  0  0  0  0  0  0
  -25.4010  -29.1330   20.3680 C   0  0  0  0  0  0  0  0  0  0  0  0
  -26.2850  -31.0690   21.6780 C   0  0  0  0  0  2  0  0  0  0  0  0
  -26.4920  -29.7180   21.0240 C   0  0  0  0  0  0  0  0  0  0  0  0
  -27.7380  -29.0500   21.0720 C   0  0  0  0  0  3  0  0  0  0  0  0
  -26.7770  -27.2130   19.7950 C   0  0  0  0  0  3  0  0  0  0  0  0
  -25.5380  -27.8780   19.7500 C   0  0  0  0  0  3  0  0  0  0  0  0
  -24.1030  -29.9080   20.3600 C   0  0  0  0  0  2  0  0  0  0  0  0
  -24.9690  -31.2230   22.3470 N   0  0  0  0  0  0  0  0  0  0  0  0
  -23.6790  -32.1990   23.9370 O   0  0  0  0  0  0  0  0  0  0  0  0
  -23.1440  -29.4750   22.6480 C   0  0  0  0  0  0  0  0  0  0  0  0
  -21.8480  -29.1980   22.4350 N   0  0  0  0  0  0  0  0  0  0  0  0
  -23.8180  -28.8960   23.5040 O   0  0  0  0  0  0  0  0  0  0  0  0
  -21.3640  -29.7240   21.7190 H   0  0  0  0  0  0  0  0  0  0  0  0
  -18.5430  -27.7610   22.7100 C   0  0  0  0  0  0  0  0  0  0  0  0
  -21.0540  -28.1980   23.1470 C   0  0  0  0  0  3  0  0  0  0  0  0
  -21.2950  -26.7840   22.5720 C   0  0  0  0  0  2  0  0  0  0  0  0
  -20.2860  -26.3930   21.4870 C   0  0  0  0  0  2  0  0  0  0  0  0
  -18.8590  -26.4330   22.0420 C   0  0  0  0  0  2  0  0  0  0  0  0
  -19.5750  -28.5970   23.2150 C   0  0  0  0  0  0  0  0  0  0  0  0
  -19.2290  -29.8360   23.7970 C   0  0  0  0  0  3  0  0  0  0  0  0
  -17.8850  -30.2420   23.8810 C   0  0  0  0  0  3  0  0  0  0  0  0
  -16.8670  -29.4050   23.3920 C   0  0  0  0  0  3  0  0  0  0  0  0
  -17.1950  -28.1660   22.8150 C   0  0  0  0  0  3  0  0  0  0  0  0
  -26.0110  -32.7040   24.1490 C   0  0  0  0  0  3  0  0  0  0  0  0
  -25.6210  -34.0950   24.4100 N   0  0  0  0  0  0  0  0  0  0  0  0
  -25.9620  -35.1370   23.6410 C   0  0  0  0  0  0  0  0  0  0  0  0
  -26.7100  -35.0330   22.6630 O   0  0  0  0  0  0  0  0  0  0  0  0
  -24.9590  -34.2460   25.1580 H   0  0  0  0  0  0  0  0  0  0  0  0
  -24.1860  -36.8380   23.1130 C   0  0  0  0  0  1  0  0  0  0  0  0
  -25.3870  -36.5160   24.0170 C   0  0  0  0  0  3  0  0  0  0  0  0
  -27.4290  -37.5140   24.9450 C   0  0  0  0  0  1  0  0  0  0  0  0
  -26.3780  -37.6100   23.9350 N   0  0  0  0  0  0  0  0  0  0  0  0
  -25.9260  -38.5140   24.0330 H   0  0  0  0  0  0  0  0  0  0  0  0
  -26.4630  -31.9890   25.4810 C   0  0  1  0  0  0  0  0  0  0  0  0
  -25.2960  -31.6900   26.4520 C   0  0  0  0  0  1  0  0  0  0  0  0
  -27.1700  -30.6500   25.1690 C   0  0  0  0  0  1  0  0  0  0  0  0
  -27.4930  -32.8720   26.2240 C   0  0  0  0  0  1  0  0  0  0  0  0
  1  5  1  0
  2  6  1  0
  3  1  2  0
  3  4  1  0
  4  2  2  0
  5 59  1  0
  5  6  2  0
  8  7  1  0
  8  4  1  0
  8  9  1  0
 10 18  1  0
 11 16  1  0
 12 13  1  0
 12 11  1  0
 14 13  1  0
 14 23  1  0
 14 15  1  0
 16 10  1  0
 16 15  1  0
 17 10  2  0
 18  9  1  0
 18 19  1  0
 20 21  2  0
 21 40  1  0
 22 21  1  0
 22 25  1  0
 23 24  1  0
 23 20  1  0
 24 22  2  0
 25 26  1  0
 26 27  2  0
 28 31  1  0
 28 27  1  0
 29 28  2  0
 30 29  1  0
 30 25  2  0
 31 32  1  0
 32 33  1  0
 33 34  2  0
 35 34  1  0
 35 39  1  0
 36 35  2  0
 37 32  2  0
 37 36  1  0
 38 37  1  0
 40 41  1  0
 41 44  1  0
 41 43  1  0
 42 40  2  0
 45 20  1  0
 45 46  1  0
 47 45  1  0
 49 48  1  0
 49  3  1  0
 50 51  1  0
 50 49  1  0
 51 53  1  0
 53 52  1  0
 54 55  1  0
 54 53  1  0
 55 56  1  0
 57 55  1  0
 58 55  1  0
 60 59  1  0
 60 61  1  0
 62 61  1  0
 63 74  2  0
 64 62  1  0
 64 69  1  0
 65 73  1  0
 65 75  1  0
 66 68  1  0
 67 73  1  0
 68 69  2  0
 68 67  1  0
 70 64  2  0
 71 70  1  0
 71 66  2  0
 72 66  1  0
 72 65  1  0
 73 63  1  0
 75 77  2  0
 76 75  1  0
 78 76  1  0
 79 88  2  0
 79 84  1  0
 80 76  1  0
 80 84  1  0
 81 80  1  0
 82 83  1  0
 82 81  1  0
 83 79  1  0
 84 85  2  0
 85 86  1  0
 87 86  2  0
 88 87  1  0
 89 63  1  0
 89 90  1  0
 89 99  1  0
 90 93  1  0
 91 95  1  0
 91 90  1  0
 92 91  2  0
 95 94  1  0
 97 95  1  0
 97 98  1  0
 97 96  1  0
 99102  1  1
 99100  1  0
101 99  1  0
M  ISO  4  10 100  18 100  61 101  62 101
M  END
>  <TORSDO>  (37) 
F 27

>  <SCORE>  (37) 
-10.105

>  <name>  (37) 
36

>  <ligand_id>  (37) 
36

>  <original_smiles>  (37) 
[H]c1nc(C([H])([H])C([H])([H])C([H])([H])Oc2c([H])c([H])c3c(c2[H])C([H])([H])N(C(=O)C([H])(N([H])C(=O)C([H])(N([H])C([H])([H])[H])C([H])([H])[H])C(C([H])([H])[H])(C([H])([H])[H])C([H])([H])[H])C([H])(C(=O)N([H])C2([H])c4c([H])c([H])c([H])c([H])c4C([H])([H])C([H])([H])C2([H])[H])C3([H])[H])c([H])c(C([H])(OC([H])([H])C([H])(C([H])([H])[H])C([H])([H])[N+]([H])([H])[H])C([H])([H])[H])c1C([H])(C([H])([H])[H])C([H])([H])N([H])C(=O)N1C([H])([H])C([H])([H])C([H])([H])C([H])(n2nc(-c3c([H])c([H])c(Oc4c([H])c([H])c(F)c([H])c4F)c([H])c3[H])c(C(=O)N([H])[H])c2N([H])[H])C1([H])[H]

>  <smiles>  (37) 
[H]c1nc(C([H])([H])C([H])([H])C([H])([H])Oc2c([H])c([H])c3c(c2[H])C([H])([H])N(C(=O)C([H])(N([H])C(=O)C([H])(N([H])C([H])([H])[H])C([H])([H])[H])C(C([H])([H])[H])(C([H])([H])[H])C([H])([H])[H])C([H])(C(=O)N([H])C2([H])c4c([H])c([H])c([H])c([H])c4C([H])([H])C([H])([H])C2([H])[H])C3([H])[H])c([H])c(C([H])(OC([H])([H])C([H])(C([H])([H])[H])C([H])([H])[N+]([H])([H])[H])C([H])([H])[H])c1C([H])(C([H])([H])[H])C([H])([H])N([H])C(=O)N1C([H])([H])C([H])([H])C([H])([H])C([H])(n2nc(-c3c([H])c([H])c(Oc4c([H])c([H])c(F)c([H])c4F)c([H])c3[H])c(C(=O)N([H])[H])c2N([H])[H])C1([H])[H]

$$$$
37:0:0
     RDKit          3D

 90 98  0  0  1  0  0  0  0  0999 V2000
  -29.5250  -20.0220   19.2860 C   0  0  0  0  0  3  0  0  0  0  0  0
  -29.0730  -19.6770   21.5840 C   0  0  0  0  0  3  0  0  0  0  0  0
  -28.9860  -20.5500   20.4820 C   0  0  0  0  0  0  0  0  0  0  0  0
  -30.2530  -18.1320   20.3720 C   0  0  0  0  0  0  0  0  0  0  0  0
  -30.1540  -18.8250   19.2410 N   0  0  0  0  0  0  0  0  0  0  0  0
  -29.7100  -18.4860   21.5300 N   0  0  0  0  0  0  0  0  0  0  0  0
  -31.2080  -16.9330   20.3950 C   0  0  0  0  0  2  0  0  0  0  0  0
  -31.2350  -14.5080   19.8440 C   0  0  0  0  0  0  0  0  0  0  0  0
  -30.8430  -12.2740   18.8690 C   0  0  0  0  0  2  0  0  0  0  0  0
  -29.8590  -12.4080   17.6940 C   0  0  0  0  0  2  0  0  0  0  0  0
  -28.3990  -12.3370   18.1870 C   0  0  0  0  0  2  0  0  0  0  0  0
  -28.1310  -13.2570   19.4090 C   0  0  0  0  0  3  0  0  0  0  0  0
  -29.2320  -13.1080   20.4820 C   0  0  0  0  0  2  0  0  0  0  0  0
  -30.5250  -13.3470   19.8260 N   0  0  0  0  0  0  0  0  0  0  0  0
  -32.3680  -14.5950   19.3670 O   0  0  0  0  0  0  0  0  0  0  0  0
  -30.5880  -15.6040   20.2810 N   0  0  0  0  0  0  0  0  0  0  0  0
  -29.6180  -15.5330   20.5410 H   0  0  0  0  0  0  0  0  0  0  0  0
  -25.8160  -13.9670   20.2670 C   0  0  0  0  0  0  0  0  0  0  0  0
  -24.7310  -13.2420   20.6810 C   0  0  0  0  0  0  0  0  0  0  0  0
  -25.1170  -11.8690   20.5940 C   0  0  0  0  0  0  0  0  0  0  0  0
  -26.7980  -13.0390   19.9610 N   0  0  0  0  0  0  0  0  0  0  0  0
  -26.3840  -11.7700   20.2140 N   0  0  0  0  0  0  0  0  0  0  0  0
  -24.3330  -10.6450   20.7990 C   0  0  0  0  0  0  0  0  0  0  0  0
  -24.6970   -9.6930   21.7760 C   0  0  0  0  0  3  0  0  0  0  0  0
  -23.9190   -8.5310   21.9690 C   0  0  0  0  0  3  0  0  0  0  0  0
  -22.7610   -8.3150   21.1860 C   0  0  0  0  0  0  0  0  0  0  0  0
  -22.4140   -9.2540   20.1980 C   0  0  0  0  0  3  0  0  0  0  0  0
  -23.1930  -10.4080   20.0050 C   0  0  0  0  0  3  0  0  0  0  0  0
  -21.9600   -7.2040   21.2850 O   0  0  0  0  0  0  0  0  0  0  0  0
  -21.7590   -6.5670   22.4830 C   0  0  0  0  0  0  0  0  0  0  0  0
  -21.1780   -7.2200   23.5910 C   0  0  0  0  0  3  0  0  0  0  0  0
  -20.9260   -6.5030   24.7790 C   0  0  0  0  0  3  0  0  0  0  0  0
  -21.2500   -5.1350   24.8590 C   0  0  0  0  0  0  0  0  0  0  0  0
  -21.8230   -4.4820   23.7540 C   0  0  0  0  0  3  0  0  0  0  0  0
  -22.0750   -5.1960   22.5690 C   0  0  0  0  0  0  0  0  0  0  0  0
  -22.6070   -4.5550   21.5000 F   0  0  0  0  0  0  0  0  0  0  0  0
  -21.0020   -4.4440   25.9960 F   0  0  0  0  0  0  0  0  0  0  0  0
  -23.3800  -13.7880   21.0410 C   0  0  0  0  0  0  0  0  0  0  0  0
  -22.6710  -13.1170   21.9430 N   0  0  0  0  0  0  0  0  0  0  0  0
  -22.9660  -14.8410   20.5630 O   0  0  0  0  0  0  0  0  0  0  0  0
  -23.0170  -12.2660   22.3610 H   0  0  0  0  0  0  0  0  0  0  0  0
  -21.7650  -13.4680   22.2180 H   0  0  0  0  0  0  0  0  0  0  0  0
  -26.0370  -15.3320   20.1060 N   0  0  0  0  0  0  0  0  0  0  0  0
  -25.3010  -16.0130   20.2690 H   0  0  0  0  0  0  0  0  0  0  0  0
  -26.8780  -15.7480   19.7290 H   0  0  0  0  0  0  0  0  0  0  0  0
  -28.4060  -21.8040   20.6410 O   0  0  0  0  0  0  0  0  0  0  0  0
  -28.7590  -22.8580   19.7330 C   0  0  0  0  0  2  0  0  0  0  0  0
  -28.3460  -24.2490   20.3000 C   0  0  0  0  0  2  0  0  0  0  0  0
  -28.8440  -25.4570   19.4500 C   0  0  0  0  0  2  0  0  0  0  0  0
  -28.6960  -26.7650   20.0420 O   0  0  0  0  0  0  0  0  0  0  0  0
  -24.6650  -31.7400   23.1610 C   0  0  0  0  0  0  0  0  0  0  0  0
  -27.4910  -27.4420   20.0040 C   0  0  0  0  0  0  0  0  0  0  0  0
  -23.5290  -30.3410   21.4670 C   0  0  0  0  0  3  0  0  0  0  0  0
  -25.0500  -28.8850   20.0250 C   0  0  0  0  0  0  0  0  0  0  0  0
  -26.0480  -30.7760   21.3230 C   0  0  0  0  0  2  0  0  0  0  0  0
  -26.1820  -29.4270   20.6420 C   0  0  0  0  0  0  0  0  0  0  0  0
  -27.4040  -28.7130   20.6260 C   0  0  0  0  0  3  0  0  0  0  0  0
  -26.3350  -26.9190   19.3820 C   0  0  0  0  0  3  0  0  0  0  0  0
  -25.1210  -27.6320   19.3930 C   0  0  0  0  0  3  0  0  0  0  0  0
  -23.7780  -29.7000   20.0750 C   0  0  0  0  0  2  0  0  0  0  0  0
  -24.7630  -30.9700   22.0380 N   0  0  0  0  0  0  0  0  0  0  0  0
  -23.5670  -31.9640   23.6900 O   0  0  0  0  0  0  0  0  0  0  0  0
  -22.8990  -29.2760   22.3950 C   0  0  0  0  0  0  0  0  0  0  0  0
  -21.5830  -29.0540   22.2450 N   0  0  0  0  0  0  0  0  0  0  0  0
  -23.5930  -28.6530   23.2040 O   0  0  0  0  0  0  0  0  0  0  0  0
  -21.0870  -29.6100   21.5630 H   0  0  0  0  0  0  0  0  0  0  0  0
  -18.2370  -27.7530   22.6860 C   0  0  0  0  0  0  0  0  0  0  0  0
  -20.7870  -28.0690   22.9780 C   0  0  0  0  0  3  0  0  0  0  0  0
  -20.9300  -26.6610   22.3540 C   0  0  0  0  0  2  0  0  0  0  0  0
  -19.8390  -26.3420   21.3270 C   0  0  0  0  0  2  0  0  0  0  0  0
  -18.4530  -26.4310   21.9690 C   0  0  0  0  0  2  0  0  0  0  0  0
  -19.3350  -28.5290   23.1460 C   0  0  0  0  0  0  0  0  0  0  0  0
  -19.0820  -29.7650   23.7790 C   0  0  0  0  0  3  0  0  0  0  0  0
  -17.7650  -30.2260   23.9580 C   0  0  0  0  0  3  0  0  0  0  0  0
  -16.6810  -29.4480   23.5150 C   0  0  0  0  0  3  0  0  0  0  0  0
  -16.9200  -28.2130   22.8850 C   0  0  0  0  0  3  0  0  0  0  0  0
  -25.9210  -32.3990   23.8140 C   0  0  0  0  0  3  0  0  0  0  0  0
  -25.5680  -33.7850   24.1470 N   0  0  0  0  0  0  0  0  0  0  0  0
  -25.8800  -34.8520   23.4010 C   0  0  0  0  0  0  0  0  0  0  0  0
  -26.5680  -34.7770   22.3790 O   0  0  0  0  0  0  0  0  0  0  0  0
  -24.9660  -33.9190   24.9450 H   0  0  0  0  0  0  0  0  0  0  0  0
  -24.1100  -36.6010   23.0300 C   0  0  0  0  0  1  0  0  0  0  0  0
  -25.3450  -36.2220   23.8620 C   0  0  0  0  0  3  0  0  0  0  0  0
  -27.4320  -37.1660   24.7470 C   0  0  0  0  0  1  0  0  0  0  0  0
  -26.3500  -37.3050   23.7780 N   0  0  0  0  0  0  0  0  0  0  0  0
  -25.9130  -38.2120   23.9160 H   0  0  0  0  0  0  0  0  0  0  0  0
  -26.4290  -31.6340   25.0990 C   0  0  1  0  0  0  0  0  0  0  0  0
  -25.3190  -31.3590   26.1390 C   0  0  0  0  0  1  0  0  0  0  0  0
  -27.0670  -30.2790   24.7150 C   0  0  0  0  0  1  0  0  0  0  0  0
  -27.5320  -32.4640   25.7990 C   0  0  0  0  0  1  0  0  0  0  0  0
  1  3  2  0
  3 46  1  0
  3  2  1  0
  4  7  1  0
  4  6  1  0
  5  1  1  0
  5  4  2  0
  6  2  2  0
  8 16  1  0
  9 14  1  0
 10 11  1  0
 10  9  1  0
 12 11  1  0
 12 21  1  0
 12 13  1  0
 14  8  1  0
 14 13  1  0
 15  8  2  0
 16  7  1  0
 16 17  1  0
 18 19  2  0
 19 38  1  0
 20 19  1  0
 20 23  1  0
 21 22  1  0
 21 18  1  0
 22 20  2  0
 23 24  1  0
 24 25  2  0
 26 29  1  0
 26 25  1  0
 27 26  2  0
 28 27  1  0
 28 23  2  0
 29 30  1  0
 30 35  2  0
 30 31  1  0
 31 32  2  0
 32 33  1  0
 33 37  1  0
 34 33  2  0
 35 34  1  0
 36 35  1  0
 38 39  1  0
 39 42  1  0
 39 41  1  0
 40 38  2  0
 43 18  1  0
 43 44  1  0
 45 43  1  0
 47 48  1  0
 47 46  1  0
 49 50  1  0
 49 48  1  0
 51 62  2  0
 52 50  1  0
 52 57  1  0
 53 61  1  0
 53 63  1  0
 54 60  1  0
 54 56  1  0
 55 61  1  0
 56 55  1  0
 57 56  2  0
 58 59  1  0
 58 52  2  0
 59 54  2  0
 60 53  1  0
 61 51  1  0
 63 65  2  0
 64 63  1  0
 66 64  1  0
 67 76  2  0
 67 72  1  0
 68 64  1  0
 68 72  1  0
 69 68  1  0
 70 71  1  0
 70 69  1  0
 71 67  1  0
 72 73  2  0
 73 74  1  0
 75 74  2  0
 76 75  1  0
 77 51  1  0
 77 78  1  0
 77 87  1  0
 78 81  1  0
 79 83  1  0
 79 78  1  0
 80 79  2  0
 83 82  1  0
 85 83  1  0
 85 86  1  0
 85 84  1  0
 87 90  1  1
 87 88  1  0
 89 87  1  0
M  ISO  4   8 100  16 100  49 101  50 101
M  END
>  <TORSDO>  (38) 
F 21

>  <SCORE>  (38) 
-11.844

>  <name>  (38) 
37

>  <ligand_id>  (38) 
37

>  <original_smiles>  (38) 
[H]c1nc(C([H])([H])N([H])C(=O)N2C([H])([H])C([H])([H])C([H])([H])C([H])(n3nc(-c4c([H])c([H])c(Oc5c([H])c([H])c(F)c([H])c5F)c([H])c4[H])c(C(=O)N([H])[H])c3N([H])[H])C2([H])[H])nc([H])c1OC([H])([H])C([H])([H])C([H])([H])Oc1c([H])c([H])c2c(c1[H])C([H])([H])N(C(=O)C([H])(N([H])C(=O)C([H])(N([H])C([H])([H])[H])C([H])([H])[H])C(C([H])([H])[H])(C([H])([H])[H])C([H])([H])[H])C([H])(C(=O)N([H])C1([H])c3c([H])c([H])c([H])c([H])c3C([H])([H])C([H])([H])C1([H])[H])C2([H])[H]

>  <smiles>  (38) 
[H]c1nc(C([H])([H])N([H])C(=O)N2C([H])([H])C([H])([H])C([H])([H])C([H])(n3nc(-c4c([H])c([H])c(Oc5c([H])c([H])c(F)c([H])c5F)c([H])c4[H])c(C(=O)N([H])[H])c3N([H])[H])C2([H])[H])nc([H])c1OC([H])([H])C([H])([H])C([H])([H])Oc1c([H])c([H])c2c(c1[H])C([H])([H])N(C(=O)C([H])(N([H])C(=O)C([H])(N([H])C([H])([H])[H])C([H])([H])[H])C(C([H])([H])[H])(C([H])([H])[H])C([H])([H])[H])C([H])(C(=O)N([H])C1([H])c3c([H])c([H])c([H])c([H])c3C([H])([H])C([H])([H])C1([H])[H])C2([H])[H]

$$$$
38:0:0
     RDKit          3D

 95103  0  0  1  0  0  0  0  0999 V2000
  -29.0480  -22.9280   19.3410 C   0  0  0  0  0  2  0  0  0  0  0  0
  -28.5650  -24.3080   19.2270 N   0  0  0  0  0  4  0  0  0  0  0  0
  -28.2410  -24.6160   20.1320 H   0  0  0  0  0  0  0  0  0  0  0  0
  -27.7820  -24.3210   18.5920 H   0  0  0  0  0  0  0  0  0  0  0  0
  -29.5850  -25.2730   18.7700 C   0  0  0  0  0  2  0  0  0  0  0  0
  -30.0090  -27.7810   18.5120 C   0  0  0  0  0  1  0  0  0  0  0  0
  -28.9810  -26.6770   18.7760 C   0  0  0  0  0  3  0  0  0  0  0  0
  -28.4430  -26.8580   20.0840 O   0  0  0  0  0  0  0  0  0  0  0  0
  -24.5780  -31.8860   23.2450 C   0  0  0  0  0  0  0  0  0  0  0  0
  -27.2520  -27.5280   20.1250 C   0  0  0  0  0  0  0  0  0  0  0  0
  -23.3780  -30.4860   21.5950 C   0  0  0  0  0  3  0  0  0  0  0  0
  -24.8380  -28.9660   20.1640 C   0  0  0  0  0  0  0  0  0  0  0  0
  -25.8930  -30.8740   21.3910 C   0  0  0  0  0  2  0  0  0  0  0  0
  -25.9870  -29.5050   20.7570 C   0  0  0  0  0  0  0  0  0  0  0  0
  -27.1960  -28.7850   20.7540 C   0  0  0  0  0  3  0  0  0  0  0  0
  -26.0860  -26.9760   19.5500 C   0  0  0  0  0  3  0  0  0  0  0  0
  -24.8770  -27.6950   19.5660 C   0  0  0  0  0  3  0  0  0  0  0  0
  -23.5890  -29.8150   20.2110 C   0  0  0  0  0  2  0  0  0  0  0  0
  -24.6350  -31.0950   22.1360 N   0  0  0  0  0  0  0  0  0  0  0  0
  -23.4970  -32.1490   23.7880 O   0  0  0  0  0  0  0  0  0  0  0  0
  -22.7370  -29.4530   22.5480 C   0  0  0  0  0  0  0  0  0  0  0  0
  -21.4130  -29.2720   22.4280 N   0  0  0  0  0  0  0  0  0  0  0  0
  -23.4260  -28.8200   23.3520 O   0  0  0  0  0  0  0  0  0  0  0  0
  -20.9160  -29.8380   21.7530 H   0  0  0  0  0  0  0  0  0  0  0  0
  -18.0380  -28.0850   22.9350 C   0  0  0  0  0  0  0  0  0  0  0  0
  -20.6000  -28.3270   23.1910 C   0  0  0  0  0  3  0  0  0  0  0  0
  -20.6910  -26.9030   22.5950 C   0  0  0  0  0  2  0  0  0  0  0  0
  -19.5780  -26.6000   21.5850 C   0  0  0  0  0  2  0  0  0  0  0  0
  -18.2020  -26.7440   22.2420 C   0  0  0  0  0  2  0  0  0  0  0  0
  -19.1650  -28.8360   23.3660 C   0  0  0  0  0  0  0  0  0  0  0  0
  -18.9570  -30.0940   23.9710 C   0  0  0  0  0  3  0  0  0  0  0  0
  -17.6570  -30.6020   24.1480 C   0  0  0  0  0  3  0  0  0  0  0  0
  -16.5450  -29.8490   23.7340 C   0  0  0  0  0  3  0  0  0  0  0  0
  -16.7370  -28.5910   23.1340 C   0  0  0  0  0  3  0  0  0  0  0  0
  -25.8630  -32.5200   23.8660 C   0  0  0  0  0  3  0  0  0  0  0  0
  -25.5550  -33.9180   24.1880 N   0  0  0  0  0  0  0  0  0  0  0  0
  -25.9000  -34.9660   23.4270 C   0  0  0  0  0  0  0  0  0  0  0  0
  -26.5810  -34.8550   22.4040 O   0  0  0  0  0  0  0  0  0  0  0  0
  -24.9490  -34.0790   24.9800 H   0  0  0  0  0  0  0  0  0  0  0  0
  -24.1840  -36.7600   23.0360 C   0  0  0  0  0  1  0  0  0  0  0  0
  -25.4100  -36.3570   23.8710 C   0  0  0  0  0  3  0  0  0  0  0  0
  -27.5350  -37.2320   24.7340 C   0  0  0  0  0  1  0  0  0  0  0  0
  -26.4490  -37.4050   23.7720 N   0  0  0  0  0  0  0  0  0  0  0  0
  -26.0470  -38.3280   23.9110 H   0  0  0  0  0  0  0  0  0  0  0  0
  -26.3800  -31.7490   25.1420 C   0  0  1  0  0  0  0  0  0  0  0  0
  -25.2870  -31.5110   26.2110 C   0  0  0  0  0  1  0  0  0  0  0  0
  -26.9630  -30.3730   24.7450 C   0  0  0  0  0  1  0  0  0  0  0  0
  -27.5310  -32.5450   25.8030 C   0  0  0  0  0  1  0  0  0  0  0  0
  -27.9350  -21.9840   19.8150 C   0  0  0  0  0  2  0  0  0  0  0  0
  -28.7260  -19.8820   21.0060 C   0  0  0  0  0  3  0  0  0  0  0  0
  -29.2980  -18.5990   20.9610 C   0  0  0  0  0  3  0  0  0  0  0  0
  -28.6660  -19.9370   18.5640 C   0  0  0  0  0  3  0  0  0  0  0  0
  -28.4290  -20.5580   19.8040 C   0  0  0  0  0  0  0  0  0  0  0  0
  -29.6020  -18.0020   19.7140 C   0  0  0  0  0  0  0  0  0  0  0  0
  -29.2650  -18.6690   18.5110 C   0  0  0  0  0  0  0  0  0  0  0  0
  -29.5560  -18.0460   17.1550 C   0  0  0  0  0  1  0  0  0  0  0  0
  -30.3280  -16.6730   19.6170 C   0  0  0  0  0  2  0  0  0  0  0  0
  -30.7990  -14.3950   20.0840 C   0  0  0  0  0  0  0  0  0  0  0  0
  -30.3690  -12.2910   18.9300 C   0  0  0  0  0  2  0  0  0  0  0  0
  -29.3850  -12.5890   17.7800 C   0  0  0  0  0  2  0  0  0  0  0  0
  -27.9280  -12.4770   18.2730 C   0  0  0  0  0  2  0  0  0  0  0  0
  -27.6680  -13.2710   19.5820 C   0  0  0  0  0  3  0  0  0  0  0  0
  -28.7750  -12.9990   20.6330 C   0  0  0  0  0  2  0  0  0  0  0  0
  -30.0820  -13.2490   20.0040 N   0  0  0  0  0  0  0  0  0  0  0  0
  -31.9300  -14.5330   19.6090 O   0  0  0  0  0  0  0  0  0  0  0  0
  -30.0840  -15.4740   20.4030 N   0  0  0  0  0  0  0  0  0  0  0  0
  -29.1580  -15.3270   20.7690 H   0  0  0  0  0  0  0  0  0  0  0  0
  -25.3090  -13.8860   20.4100 C   0  0  0  0  0  0  0  0  0  0  0  0
  -24.2540  -13.1160   20.8180 C   0  0  0  0  0  0  0  0  0  0  0  0
  -24.7020  -11.7610   20.7450 C   0  0  0  0  0  0  0  0  0  0  0  0
  -26.3360  -13.0000   20.1190 N   0  0  0  0  0  0  0  0  0  0  0  0
  -25.9760  -11.7160   20.3750 N   0  0  0  0  0  0  0  0  0  0  0  0
  -23.9750  -10.5020   20.9500 C   0  0  0  0  0  0  0  0  0  0  0  0
  -24.4190   -9.5400   21.8820 C   0  0  0  0  0  3  0  0  0  0  0  0
  -23.6950   -8.3430   22.0760 C   0  0  0  0  0  3  0  0  0  0  0  0
  -22.5140   -8.1010   21.3360 C   0  0  0  0  0  0  0  0  0  0  0  0
  -22.0880   -9.0510   20.3920 C   0  0  0  0  0  3  0  0  0  0  0  0
  -22.8120  -10.2400   20.1970 C   0  0  0  0  0  3  0  0  0  0  0  0
  -21.7610   -6.9560   21.4400 O   0  0  0  0  0  0  0  0  0  0  0  0
  -21.7000   -6.2360   22.6060 C   0  0  0  0  0  0  0  0  0  0  0  0
  -21.2490   -6.8110   23.8140 C   0  0  0  0  0  3  0  0  0  0  0  0
  -21.1360   -6.0170   24.9730 C   0  0  0  0  0  3  0  0  0  0  0  0
  -21.4630   -4.6490   24.9240 C   0  0  0  0  0  0  0  0  0  0  0  0
  -21.9050   -4.0720   23.7210 C   0  0  0  0  0  3  0  0  0  0  0  0
  -22.0210   -4.8640   22.5640 C   0  0  0  0  0  0  0  0  0  0  0  0
  -22.4270   -4.2990   21.4020 F   0  0  0  0  0  0  0  0  0  0  0  0
  -21.3480   -3.8840   26.0340 F   0  0  0  0  0  0  0  0  0  0  0  0
  -22.8750  -13.5970   21.1640 C   0  0  0  0  0  0  0  0  0  0  0  0
  -22.1830  -12.8950   22.0530 N   0  0  0  0  0  0  0  0  0  0  0  0
  -22.4230  -14.6350   20.6810 O   0  0  0  0  0  0  0  0  0  0  0  0
  -22.5620  -12.0580   22.4720 H   0  0  0  0  0  0  0  0  0  0  0  0
  -21.2570  -13.1990   22.3160 H   0  0  0  0  0  0  0  0  0  0  0  0
  -25.4770  -15.2580   20.2450 N   0  0  0  0  0  0  0  0  0  0  0  0
  -24.7240  -15.9170   20.4010 H   0  0  0  0  0  0  0  0  0  0  0  0
  -26.3140  -15.6970   19.8810 H   0  0  0  0  0  0  0  0  0  0  0  0
  1 49  1  0
  2  1  1  0
  2  3  1  0
  4  2  1  0
  5  7  1  0
  5  2  1  0
  7  6  1  0
  7  8  1  0
  8 10  1  0
  9 20  2  0
 10 15  1  0
 11 19  1  0
 11 21  1  0
 12 18  1  0
 12 14  1  0
 13 19  1  0
 14 13  1  0
 15 14  2  0
 16 17  1  0
 16 10  2  0
 17 12  2  0
 18 11  1  0
 19  9  1  0
 21 23  2  0
 22 21  1  0
 24 22  1  0
 25 34  2  0
 25 30  1  0
 26 22  1  0
 26 30  1  0
 27 26  1  0
 28 29  1  0
 28 27  1  0
 29 25  1  0
 30 31  2  0
 31 32  1  0
 33 32  2  0
 34 33  1  0
 35  9  1  0
 35 36  1  0
 35 45  1  0
 36 39  1  0
 37 41  1  0
 37 36  1  0
 38 37  2  0
 41 40  1  0
 43 41  1  0
 43 44  1  0
 43 42  1  0
 45 48  1  1
 45 46  1  0
 47 45  1  0
 51 50  1  0
 52 53  1  0
 53 49  1  0
 53 50  2  0
 54 51  2  0
 55 52  2  0
 55 54  1  0
 56 55  1  0
 57 54  1  0
 57 66  1  0
 58 66  1  0
 59 64  1  0
 60 61  1  0
 60 59  1  0
 62 61  1  0
 62 71  1  0
 62 63  1  0
 64 58  1  0
 64 63  1  0
 65 58  2  0
 66 67  1  0
 68 69  2  0
 69 88  1  0
 70 69  1  0
 70 73  1  0
 71 72  1  0
 71 68  1  0
 72 70  2  0
 73 74  1  0
 74 75  2  0
 76 79  1  0
 76 75  1  0
 77 76  2  0
 78 77  1  0
 78 73  2  0
 79 80  1  0
 80 81  1  0
 81 82  2  0
 83 82  1  0
 83 87  1  0
 84 83  2  0
 85 80  2  0
 85 84  1  0
 86 85  1  0
 88 89  1  0
 89 92  1  0
 89 91  1  0
 90 88  2  0
 93 94  1  0
 93 68  1  0
 95 93  1  0
M  ISO  4   7 101   8 101  58 100  66 100
M  END
>  <TORSDO>  (39) 
F 22

>  <SCORE>  (39) 
-12.635

>  <name>  (39) 
38

>  <ligand_id>  (39) 
38

>  <original_smiles>  (39) 
[H]c1c([H])c([H])c2c(c1[H])C([H])([H])C([H])([H])C([H])([H])C2([H])N([H])C(=O)C1([H])N(C(=O)C([H])(N([H])C(=O)C([H])(N([H])C([H])([H])[H])C([H])([H])[H])C(C([H])([H])[H])(C([H])([H])[H])C([H])([H])[H])C([H])([H])c2c([H])c(OC([H])(C([H])([H])[H])C([H])([H])[N+]([H])([H])C([H])([H])C([H])([H])c3c([H])c([H])c(C([H])([H])N([H])C(=O)N4C([H])([H])C([H])([H])C([H])([H])C([H])(n5nc(-c6c([H])c([H])c(Oc7c([H])c([H])c(F)c([H])c7F)c([H])c6[H])c(C(=O)N([H])[H])c5N([H])[H])C4([H])[H])c(C([H])([H])[H])c3[H])c([H])c([H])c2C1([H])[H]

>  <smiles>  (39) 
[H]c1c([H])c([H])c2c(c1[H])C([H])([H])C([H])([H])C([H])([H])C2([H])N([H])C(=O)C1([H])N(C(=O)C([H])(N([H])C(=O)C([H])(N([H])C([H])([H])[H])C([H])([H])[H])C(C([H])([H])[H])(C([H])([H])[H])C([H])([H])[H])C([H])([H])c2c([H])c(OC([H])(C([H])([H])[H])C([H])([H])[N+]([H])([H])C([H])([H])C([H])([H])c3c([H])c([H])c(C([H])([H])N([H])C(=O)N4C([H])([H])C([H])([H])C([H])([H])C([H])(n5nc(-c6c([H])c([H])c(Oc7c([H])c([H])c(F)c([H])c7F)c([H])c6[H])c(C(=O)N([H])[H])c5N([H])[H])C4([H])[H])c(C([H])([H])[H])c3[H])c([H])c([H])c2C1([H])[H]

$$$$
39:0:0
     RDKit          3D

 92100  0  0  1  0  0  0  0  0999 V2000
  -28.4460  -22.5860   19.8430 C   0  0  0  0  0  3  0  0  0  0  0  0
  -30.8250  -19.2310   20.4360 C   0  0  0  0  0  2  0  0  0  0  0  0
  -30.4300  -20.7890   20.7020 C   0  0  0  0  0  2  0  0  0  0  0  0
  -28.5660  -19.5870   19.9900 C   0  0  0  0  0  2  0  0  0  0  0  0
  -29.5760  -18.3000   20.5470 C   0  0  0  0  0  3  0  0  0  0  0  0
  -28.9740  -21.0850   20.4440 N   0  0  2  0  0  4  0  0  0  0  0  0
  -28.6000  -21.1130   21.3820 H   0  0  0  0  0  0  0  0  0  0  0  0
  -30.3900  -15.3670   20.2190 C   0  0  0  0  0  0  0  0  0  0  0  0
  -30.4170  -12.9110   19.3310 C   0  0  0  0  0  2  0  0  0  0  0  0
  -29.4870  -12.6560   18.1180 C   0  0  0  0  0  2  0  0  0  0  0  0
  -28.0450  -12.3660   18.5760 C   0  0  0  0  0  2  0  0  0  0  0  0
  -27.5880  -13.3290   19.6990 C   0  0  0  0  0  3  0  0  0  0  0  0
  -28.6470  -13.5080   20.8060 C   0  0  0  0  0  2  0  0  0  0  0  0
  -29.8480  -14.0480   20.1460 N   0  0  0  0  0  0  0  0  0  0  0  0
  -31.6200  -15.3780   20.0650 O   0  0  0  0  0  0  0  0  0  0  0  0
  -29.5740  -16.6210   20.2620 N   0  0  0  0  0  0  0  0  0  0  0  0
  -28.6100  -16.3280   20.2010 H   0  0  0  0  0  0  0  0  0  0  0  0
  -25.2230  -13.8640   20.4850 C   0  0  0  0  0  0  0  0  0  0  0  0
  -24.1730  -13.0770   20.8650 C   0  0  0  0  0  0  0  0  0  0  0  0
  -24.6530  -11.7310   20.8290 C   0  0  0  0  0  0  0  0  0  0  0  0
  -26.2720  -12.9990   20.2270 N   0  0  0  0  0  0  0  0  0  0  0  0
  -25.9420  -11.7100   20.5050 N   0  0  0  0  0  0  0  0  0  0  0  0
  -23.9400  -10.4610   21.0230 C   0  0  0  0  0  0  0  0  0  0  0  0
  -24.3810   -9.5000   21.9580 C   0  0  0  0  0  3  0  0  0  0  0  0
  -23.6630   -8.2980   22.1420 C   0  0  0  0  0  3  0  0  0  0  0  0
  -22.4890   -8.0490   21.3900 C   0  0  0  0  0  0  0  0  0  0  0  0
  -22.0670   -9.0010   20.4440 C   0  0  0  0  0  3  0  0  0  0  0  0
  -22.7860  -10.1940   20.2580 C   0  0  0  0  0  3  0  0  0  0  0  0
  -21.7440   -6.8990   21.4820 O   0  0  0  0  0  0  0  0  0  0  0  0
  -21.6980   -6.1630   22.6380 C   0  0  0  0  0  0  0  0  0  0  0  0
  -21.2600   -6.7180   23.8600 C   0  0  0  0  0  3  0  0  0  0  0  0
  -21.1620   -5.9070   25.0080 C   0  0  0  0  0  3  0  0  0  0  0  0
  -21.4940   -4.5410   24.9350 C   0  0  0  0  0  0  0  0  0  0  0  0
  -21.9270   -3.9850   23.7190 C   0  0  0  0  0  3  0  0  0  0  0  0
  -22.0260   -4.7930   22.5730 C   0  0  0  0  0  0  0  0  0  0  0  0
  -22.4230   -4.2470   21.3990 F   0  0  0  0  0  0  0  0  0  0  0  0
  -21.3930   -3.7600   26.0360 F   0  0  0  0  0  0  0  0  0  0  0  0
  -22.7740  -13.5410   21.1390 C   0  0  0  0  0  0  0  0  0  0  0  0
  -22.0510  -12.8370   22.0010 N   0  0  0  0  0  0  0  0  0  0  0  0
  -22.3300  -14.5680   20.6250 O   0  0  0  0  0  0  0  0  0  0  0  0
  -22.4220  -12.0090   22.4420 H   0  0  0  0  0  0  0  0  0  0  0  0
  -21.1120  -13.1320   22.2280 H   0  0  0  0  0  0  0  0  0  0  0  0
  -25.3670  -15.2370   20.3070 N   0  0  0  0  0  0  0  0  0  0  0  0
  -24.5840  -15.8710   20.4220 H   0  0  0  0  0  0  0  0  0  0  0  0
  -26.1840  -15.6830   19.9140 H   0  0  0  0  0  0  0  0  0  0  0  0
  -28.5600  -22.7080   18.2960 C   0  0  0  0  0  2  0  0  0  0  0  0
  -30.8070  -23.9460   18.5430 C   0  0  0  0  0  1  0  0  0  0  0  0
  -30.6700  -21.8060   17.1910 C   0  0  0  0  0  1  0  0  0  0  0  0
  -29.6260  -23.8910   16.3530 C   0  0  0  0  0  1  0  0  0  0  0  0
  -29.9180  -23.0790   17.6320 C   0  0  1  0  0  0  0  0  0  0  0  0
  -28.1590  -24.2270   20.6010 C   0  0  0  0  0  2  0  0  0  0  0  0
  -28.2380  -25.8520   20.2190 O   0  0  0  0  0  0  0  0  0  0  0  0
  -24.6360  -31.8600   23.1990 C   0  0  0  0  0  0  0  0  0  0  0  0
  -27.2020  -26.9340   20.2430 C   0  0  0  0  0  0  0  0  0  0  0  0
  -23.4490  -30.4460   21.5740 C   0  0  0  0  0  3  0  0  0  0  0  0
  -24.9010  -28.8230   20.1750 C   0  0  0  0  0  0  0  0  0  0  0  0
  -26.0160  -30.6560   21.4280 C   0  0  0  0  0  2  0  0  0  0  0  0
  -26.0900  -29.2350   20.7890 C   0  0  0  0  0  0  0  0  0  0  0  0
  -27.2370  -28.3150   20.7880 C   0  0  0  0  0  3  0  0  0  0  0  0
  -25.9770  -26.6750   19.5880 C   0  0  0  0  0  3  0  0  0  0  0  0
  -24.8710  -27.5640   19.5530 C   0  0  0  0  0  3  0  0  0  0  0  0
  -23.6830  -29.7460   20.2060 C   0  0  0  0  0  2  0  0  0  0  0  0
  -24.7220  -31.0160   22.1200 N   0  0  0  0  0  0  0  0  0  0  0  0
  -23.5440  -32.1520   23.7140 O   0  0  0  0  0  0  0  0  0  0  0  0
  -22.7550  -29.4590   22.5490 C   0  0  0  0  0  0  0  0  0  0  0  0
  -21.4240  -29.2970   22.4310 N   0  0  0  0  0  0  0  0  0  0  0  0
  -23.4220  -28.8380   23.3810 O   0  0  0  0  0  0  0  0  0  0  0  0
  -20.9400  -29.8490   21.7380 H   0  0  0  0  0  0  0  0  0  0  0  0
  -18.0390  -28.0970   22.9600 C   0  0  0  0  0  0  0  0  0  0  0  0
  -20.6010  -28.3660   23.2110 C   0  0  0  0  0  3  0  0  0  0  0  0
  -20.7000  -26.9290   22.6450 C   0  0  0  0  0  2  0  0  0  0  0  0
  -19.5930  -26.6000   21.6370 C   0  0  0  0  0  2  0  0  0  0  0  0
  -18.2140  -26.7460   22.2880 C   0  0  0  0  0  2  0  0  0  0  0  0
  -19.1600  -28.8640   23.3780 C   0  0  0  0  0  0  0  0  0  0  0  0
  -18.9390  -30.1260   23.9720 C   0  0  0  0  0  3  0  0  0  0  0  0
  -17.6340  -30.6220   24.1490 C   0  0  0  0  0  3  0  0  0  0  0  0
  -16.5300  -29.8530   23.7440 C   0  0  0  0  0  3  0  0  0  0  0  0
  -16.7330  -28.5920   23.1560 C   0  0  0  0  0  3  0  0  0  0  0  0
  -25.9040  -32.5150   23.8280 C   0  0  0  0  0  3  0  0  0  0  0  0
  -26.4080  -31.7650   25.1240 C   0  0  1  0  0  0  0  0  0  0  0  0
  -25.3050  -31.5480   26.1870 C   0  0  0  0  0  1  0  0  0  0  0  0
  -26.9950  -30.3810   24.7690 C   0  0  0  0  0  1  0  0  0  0  0  0
  -27.5530  -32.5710   25.7820 C   0  0  0  0  0  1  0  0  0  0  0  0
  -25.5820  -33.9170   24.1470 N   0  0  0  0  0  0  0  0  0  0  0  0
  -25.9150  -34.9740   23.3940 C   0  0  0  0  0  0  0  0  0  0  0  0
  -26.5870  -34.8700   22.3650 O   0  0  0  0  0  0  0  0  0  0  0  0
  -24.9860  -34.0700   24.9480 H   0  0  0  0  0  0  0  0  0  0  0  0
  -24.1900  -36.7730   23.0370 C   0  0  0  0  0  1  0  0  0  0  0  0
  -25.4280  -36.3640   23.8510 C   0  0  0  0  0  3  0  0  0  0  0  0
  -27.5580  -37.2550   24.6910 C   0  0  0  0  0  1  0  0  0  0  0  0
  -26.4620  -37.4180   23.7390 N   0  0  0  0  0  0  0  0  0  0  0  0
  -26.0540  -38.3380   23.8790 H   0  0  0  0  0  0  0  0  0  0  0  0
  1 46  1  0
  1  6  1  0
  1 51  1  0
  2  5  1  0
  2  3  1  0
  4  6  1  0
  4  5  1  0
  5 16  1  0
  6  3  1  0
  6  7  1  1
  8 16  1  0
  9 14  1  0
 10 11  1  0
 10  9  1  0
 12 11  1  0
 12 21  1  0
 12 13  1  0
 14  8  1  0
 14 13  1  0
 15  8  2  0
 17 16  1  0
 18 19  2  0
 19 38  1  0
 20 19  1  0
 20 23  1  0
 21 18  1  0
 21 22  1  0
 22 20  2  0
 23 24  1  0
 24 25  2  0
 26 29  1  0
 26 25  1  0
 27 26  2  0
 28 27  1  0
 28 23  2  0
 29 30  1  0
 30 31  1  0
 31 32  2  0
 33 32  1  0
 33 37  1  0
 34 33  2  0
 35 30  2  0
 35 34  1  0
 36 35  1  0
 38 39  1  0
 39 42  1  0
 39 41  1  0
 40 38  2  0
 43 44  1  0
 43 18  1  0
 45 43  1  0
 50 48  1  6
 49 50  1  0
 50 46  1  0
 50 47  1  0
 52 54  1  0
 52 51  1  0
 53 64  2  0
 54 59  1  0
 55 63  1  0
 55 65  1  0
 56 62  1  0
 56 58  1  0
 57 63  1  0
 58 57  1  0
 59 58  2  0
 60 54  2  0
 61 60  1  0
 61 56  2  0
 62 55  1  0
 63 53  1  0
 65 67  2  0
 66 65  1  0
 68 66  1  0
 69 78  2  0
 69 74  1  0
 70 66  1  0
 70 74  1  0
 71 70  1  0
 72 73  1  0
 72 71  1  0
 73 69  1  0
 74 75  2  0
 75 76  1  0
 77 76  2  0
 78 77  1  0
 79 53  1  0
 79 84  1  0
 79 80  1  0
 80 83  1  1
 80 81  1  0
 82 80  1  0
 84 87  1  0
 85 89  1  0
 85 84  1  0
 86 85  2  0
 89 88  1  0
 91 89  1  0
 91 92  1  0
 91 90  1  0
M  ISO  4   8 100  16 100  51 101  52 101
M  END
>  <TORSDO>  (40) 
F 20

>  <SCORE>  (40) 
-16.015

>  <name>  (40) 
39

>  <ligand_id>  (40) 
39

>  <original_smiles>  (40) 
[H]c1c([H])c([H])c2c(c1[H])C([H])([H])C([H])([H])C([H])([H])C2([H])N([H])C(=O)C1([H])N(C(=O)C([H])(N([H])C(=O)C([H])(N([H])C([H])([H])[H])C([H])([H])[H])C(C([H])([H])[H])(C([H])([H])[H])C([H])([H])[H])C([H])([H])c2c([H])c(OC([H])([H])C([H])(C([H])([H])C(C([H])([H])[H])(C([H])([H])[H])C([H])([H])[H])[N+]3([H])C([H])([H])C([H])([H])C([H])(N([H])C(=O)N4C([H])([H])C([H])([H])C([H])([H])C([H])(n5nc(-c6c([H])c([H])c(Oc7c([H])c([H])c(F)c([H])c7F)c([H])c6[H])c(C(=O)N([H])[H])c5N([H])[H])C4([H])[H])C3([H])[H])c([H])c([H])c2C1([H])[H]

>  <smiles>  (40) 
[H]c1c([H])c([H])c2c(c1[H])C([H])([H])C([H])([H])C([H])([H])C2([H])N([H])C(=O)C1([H])N(C(=O)C([H])(N([H])C(=O)C([H])(N([H])C([H])([H])[H])C([H])([H])[H])C(C([H])([H])[H])(C([H])([H])[H])C([H])([H])[H])C([H])([H])c2c([H])c(OC([H])([H])C([H])(C([H])([H])C(C([H])([H])[H])(C([H])([H])[H])C([H])([H])[H])[N+]3([H])C([H])([H])C([H])([H])C([H])(N([H])C(=O)N4C([H])([H])C([H])([H])C([H])([H])C([H])(n5nc(-c6c([H])c([H])c(Oc7c([H])c([H])c(F)c([H])c7F)c([H])c6[H])c(C(=O)N([H])[H])c5N([H])[H])C4([H])[H])C3([H])[H])c([H])c([H])c2C1([H])[H]

$$$$
40:0:0
     RDKit          3D

 93102  0  0  1  0  0  0  0  0999 V2000
  -29.5020  -24.2830   22.5430 C   0  0  0  0  0  2  0  0  0  0  0  0
  -28.5130  -23.2040   22.1180 C   0  0  0  0  0  2  0  0  0  0  0  0
  -30.2760  -23.9270   21.2770 C   0  0  0  0  0  2  0  0  0  0  0  0
  -28.9910  -23.3460   20.6440 C   0  0  1  0  0  0  0  0  0  0  0  0
  -29.1750  -20.4720   20.5880 C   0  0  0  0  0  3  0  0  0  0  0  0
  -30.5170  -20.4260   18.2750 C   0  0  0  0  0  3  0  0  0  0  0  0
  -29.3520  -21.8280   19.9750 C   0  0  0  0  0  0  0  0  0  0  0  0
  -30.1630  -21.6960   18.8030 C   0  0  0  0  0  0  0  0  0  0  0  0
  -29.6900  -19.1780   20.0490 C   0  0  0  0  0  0  0  0  0  0  0  0
  -30.8150  -22.8710   18.0860 C   0  0  0  0  0  1  0  0  0  0  0  0
  -30.2950  -19.2240   18.8520 N   0  0  0  0  0  0  0  0  0  0  0  0
  -29.9360  -17.7310   20.8200 C   0  0  0  0  0  2  0  0  0  0  0  0
  -30.5100  -15.0570   20.2270 C   0  0  0  0  0  0  0  0  0  0  0  0
  -30.4130  -12.7050   19.2500 C   0  0  0  0  0  2  0  0  0  0  0  0
  -29.4610  -12.6370   18.0340 C   0  0  0  0  0  2  0  0  0  0  0  0
  -28.0050  -12.4160   18.4900 C   0  0  0  0  0  2  0  0  0  0  0  0
  -27.6040  -13.3400   19.6680 C   0  0  0  0  0  3  0  0  0  0  0  0
  -28.6740  -13.3530   20.7770 C   0  0  0  0  0  2  0  0  0  0  0  0
  -29.9230  -13.7940   20.1430 N   0  0  0  0  0  0  0  0  0  0  0  0
  -31.7250  -15.1230   20.0170 O   0  0  0  0  0  0  0  0  0  0  0  0
  -29.7060  -16.2310   20.3460 N   0  0  0  0  0  0  0  0  0  0  0  0
  -28.7250  -16.0140   20.3090 H   0  0  0  0  0  0  0  0  0  0  0  0
  -25.2270  -13.9120   20.4200 C   0  0  0  0  0  0  0  0  0  0  0  0
  -24.1710  -13.1340   20.8000 C   0  0  0  0  0  0  0  0  0  0  0  0
  -24.6430  -11.7840   20.7780 C   0  0  0  0  0  0  0  0  0  0  0  0
  -26.2740  -13.0380   20.1810 N   0  0  0  0  0  0  0  0  0  0  0  0
  -25.9330  -11.7530   20.4640 N   0  0  0  0  0  0  0  0  0  0  0  0
  -23.9240  -10.5190   20.9800 C   0  0  0  0  0  0  0  0  0  0  0  0
  -24.3620   -9.5610   21.9210 C   0  0  0  0  0  3  0  0  0  0  0  0
  -23.6420   -8.3620   22.1120 C   0  0  0  0  0  3  0  0  0  0  0  0
  -22.4710   -8.1110   21.3600 C   0  0  0  0  0  0  0  0  0  0  0  0
  -22.0490   -9.0570   20.4090 C   0  0  0  0  0  3  0  0  0  0  0  0
  -22.7690  -10.2470   20.2170 C   0  0  0  0  0  3  0  0  0  0  0  0
  -21.7220   -6.9630   21.4600 O   0  0  0  0  0  0  0  0  0  0  0  0
  -21.6800   -6.2300   22.6170 C   0  0  0  0  0  0  0  0  0  0  0  0
  -21.2540   -6.7930   23.8400 C   0  0  0  0  0  3  0  0  0  0  0  0
  -21.1610   -5.9870   24.9930 C   0  0  0  0  0  3  0  0  0  0  0  0
  -21.4800   -4.6180   24.9230 C   0  0  0  0  0  0  0  0  0  0  0  0
  -21.9000   -4.0530   23.7040 C   0  0  0  0  0  3  0  0  0  0  0  0
  -21.9960   -4.8580   22.5550 C   0  0  0  0  0  0  0  0  0  0  0  0
  -22.3790   -4.3040   21.3790 F   0  0  0  0  0  0  0  0  0  0  0  0
  -21.3840   -3.8410   26.0270 F   0  0  0  0  0  0  0  0  0  0  0  0
  -22.7710  -13.6040   21.0710 C   0  0  0  0  0  0  0  0  0  0  0  0
  -22.0480  -12.9100   21.9420 N   0  0  0  0  0  0  0  0  0  0  0  0
  -22.3270  -14.6220   20.5420 O   0  0  0  0  0  0  0  0  0  0  0  0
  -22.4200  -12.0840   22.3880 H   0  0  0  0  0  0  0  0  0  0  0  0
  -21.1110  -13.2080   22.1690 H   0  0  0  0  0  0  0  0  0  0  0  0
  -25.3810  -15.2820   20.2280 N   0  0  0  0  0  0  0  0  0  0  0  0
  -24.6060  -15.9290   20.3320 H   0  0  0  0  0  0  0  0  0  0  0  0
  -26.2070  -15.7170   19.8410 H   0  0  0  0  0  0  0  0  0  0  0  0
  -28.2040  -24.5590   18.3600 C   0  0  0  0  0  1  0  0  0  0  0  0
  -28.1270  -24.6230   19.8880 C   0  0  0  0  0  3  0  0  0  0  0  0
  -28.2650  -26.1580   20.2320 O   0  0  0  0  0  0  0  0  0  0  0  0
  -24.6560  -31.8760   23.2280 C   0  0  0  0  0  0  0  0  0  0  0  0
  -27.2010  -27.1430   20.1640 C   0  0  0  0  0  0  0  0  0  0  0  0
  -23.4430  -30.4840   21.5970 C   0  0  0  0  0  3  0  0  0  0  0  0
  -24.8780  -28.9090   20.1580 C   0  0  0  0  0  0  0  0  0  0  0  0
  -26.0000  -30.7380   21.4130 C   0  0  0  0  0  2  0  0  0  0  0  0
  -26.0670  -29.3460   20.7550 C   0  0  0  0  0  0  0  0  0  0  0  0
  -27.2270  -28.4810   20.7370 C   0  0  0  0  0  3  0  0  0  0  0  0
  -25.9750  -26.8070   19.5470 C   0  0  0  0  0  3  0  0  0  0  0  0
  -24.8480  -27.6520   19.5370 C   0  0  0  0  0  3  0  0  0  0  0  0
  -23.6560  -29.8120   20.2140 C   0  0  0  0  0  2  0  0  0  0  0  0
  -24.7210  -31.0570   22.1330 N   0  0  0  0  0  0  0  0  0  0  0  0
  -23.5740  -32.1590   23.7660 O   0  0  0  0  0  0  0  0  0  0  0  0
  -22.7730  -29.4740   22.5620 C   0  0  0  0  0  0  0  0  0  0  0  0
  -21.4440  -29.2970   22.4440 N   0  0  0  0  0  0  0  0  0  0  0  0
  -23.4510  -28.8530   23.3830 O   0  0  0  0  0  0  0  0  0  0  0  0
  -20.9530  -29.8620   21.7640 H   0  0  0  0  0  0  0  0  0  0  0  0
  -18.0710  -28.0620   22.9460 C   0  0  0  0  0  0  0  0  0  0  0  0
  -20.6280  -28.3540   23.2180 C   0  0  0  0  0  3  0  0  0  0  0  0
  -20.7440  -26.9190   22.6550 C   0  0  0  0  0  2  0  0  0  0  0  0
  -19.6480  -26.5780   21.6380 C   0  0  0  0  0  2  0  0  0  0  0  0
  -18.2630  -26.7110   22.2770 C   0  0  0  0  0  2  0  0  0  0  0  0
  -19.1820  -28.8400   23.3720 C   0  0  0  0  0  0  0  0  0  0  0  0
  -18.9460  -30.1010   23.9590 C   0  0  0  0  0  3  0  0  0  0  0  0
  -17.6350  -30.5890   24.1210 C   0  0  0  0  0  3  0  0  0  0  0  0
  -16.5390  -29.8100   23.7100 C   0  0  0  0  0  3  0  0  0  0  0  0
  -16.7590  -28.5480   23.1290 C   0  0  0  0  0  3  0  0  0  0  0  0
  -25.9350  -32.5150   23.8480 C   0  0  0  0  0  3  0  0  0  0  0  0
  -26.4530  -31.7460   25.1270 C   0  0  1  0  0  0  0  0  0  0  0  0
  -25.3660  -31.5080   26.2030 C   0  0  0  0  0  1  0  0  0  0  0  0
  -27.0340  -30.3650   24.7390 C   0  0  0  0  0  1  0  0  0  0  0  0
  -27.6060  -32.5430   25.7840 C   0  0  0  0  0  1  0  0  0  0  0  0
  -25.6190  -33.9120   24.1870 N   0  0  0  0  0  0  0  0  0  0  0  0
  -25.9350  -34.9730   23.4330 C   0  0  0  0  0  0  0  0  0  0  0  0
  -26.5920  -34.8780   22.3930 O   0  0  0  0  0  0  0  0  0  0  0  0
  -25.0320  -34.0570   24.9960 H   0  0  0  0  0  0  0  0  0  0  0  0
  -24.1960  -36.7700   23.1220 C   0  0  0  0  0  1  0  0  0  0  0  0
  -25.4520  -36.3580   23.9060 C   0  0  0  0  0  3  0  0  0  0  0  0
  -27.5970  -37.2510   24.7020 C   0  0  0  0  0  1  0  0  0  0  0  0
  -26.4770  -37.4160   23.7800 N   0  0  0  0  0  0  0  0  0  0  0  0
  -26.0700  -38.3320   23.9450 H   0  0  0  0  0  0  0  0  0  0  0  0
  2  1  1  0
  3  1  1  0
  4  3  1  0
  4  2  1  0
  6  8  2  0
  6 11  1  0
  7  5  2  0
  7  4  1  0
  8  7  1  0
  9  5  1  0
  9 12  1  0
 10  8  1  0
 11  9  2  0
 13 21  1  0
 14 19  1  0
 15 16  1  0
 15 14  1  0
 17 16  1  0
 17 26  1  0
 17 18  1  0
 19 13  1  0
 19 18  1  0
 20 13  2  0
 21 12  1  0
 22 21  1  0
 23 24  2  0
 24 43  1  0
 25 24  1  0
 25 28  1  0
 26 23  1  0
 26 27  1  0
 27 25  2  0
 28 29  1  0
 29 30  2  0
 31 34  1  0
 31 30  1  0
 32 31  2  0
 33 32  1  0
 33 28  2  0
 34 35  1  0
 35 36  1  0
 36 37  2  0
 38 37  1  0
 38 42  1  0
 39 38  2  0
 40 35  2  0
 40 39  1  0
 41 40  1  0
 43 44  1  0
 44 47  1  0
 44 46  1  0
 45 43  2  0
 48 49  1  0
 48 23  1  0
 50 48  1  0
 52 51  1  0
 52 53  1  0
  4 52  1  6
 54 65  2  0
 55 53  1  0
 55 60  1  0
 56 64  1  0
 56 66  1  0
 57 63  1  0
 57 59  1  0
 58 64  1  0
 59 58  1  0
 60 59  2  0
 61 55  2  0
 62 61  1  0
 62 57  2  0
 63 56  1  0
 64 54  1  0
 66 68  2  0
 67 66  1  0
 69 67  1  0
 70 79  2  0
 70 75  1  0
 71 67  1  0
 71 75  1  0
 72 71  1  0
 73 74  1  0
 73 72  1  0
 74 70  1  0
 75 76  2  0
 76 77  1  0
 78 77  2  0
 79 78  1  0
 80 54  1  0
 80 85  1  0
 80 81  1  0
 81 84  1  1
 81 82  1  0
 83 81  1  0
 85 88  1  0
 86 90  1  0
 86 85  1  0
 87 86  2  0
 90 89  1  0
 92 90  1  0
 92 93  1  0
 92 91  1  0
M  ISO  4  13 100  21 100  52 101  53 101
M  END
>  <TORSDO>  (41) 
F 19

>  <SCORE>  (41) 
-15.211

>  <name>  (41) 
40

>  <ligand_id>  (41) 
40

>  <original_smiles>  (41) 
[H]c1nc(C([H])([H])N([H])C(=O)N2C([H])([H])C([H])([H])C([H])([H])C([H])(n3nc(-c4c([H])c([H])c(Oc5c([H])c([H])c(F)c([H])c5F)c([H])c4[H])c(C(=O)N([H])[H])c3N([H])[H])C2([H])[H])c([H])c(C2(C([H])(Oc3c([H])c([H])c4c(c3[H])C([H])([H])N(C(=O)C([H])(N([H])C(=O)C([H])(N([H])C([H])([H])[H])C([H])([H])[H])C(C([H])([H])[H])(C([H])([H])[H])C([H])([H])[H])C([H])(C(=O)N([H])C3([H])c5c([H])c([H])c([H])c([H])c5C([H])([H])C([H])([H])C3([H])[H])C4([H])[H])C([H])([H])[H])C([H])([H])C([H])([H])C2([H])[H])c1C([H])([H])[H]

>  <smiles>  (41) 
[H]c1nc(C([H])([H])N([H])C(=O)N2C([H])([H])C([H])([H])C([H])([H])C([H])(n3nc(-c4c([H])c([H])c(Oc5c([H])c([H])c(F)c([H])c5F)c([H])c4[H])c(C(=O)N([H])[H])c3N([H])[H])C2([H])[H])c([H])c(C2(C([H])(Oc3c([H])c([H])c4c(c3[H])C([H])([H])N(C(=O)C([H])(N([H])C(=O)C([H])(N([H])C([H])([H])[H])C([H])([H])[H])C(C([H])([H])[H])(C([H])([H])[H])C([H])([H])[H])C([H])(C(=O)N([H])C3([H])c5c([H])c([H])c([H])c([H])c5C([H])([H])C([H])([H])C3([H])[H])C4([H])[H])C([H])([H])[H])C([H])([H])C([H])([H])C2([H])[H])c1C([H])([H])[H]

$$$$
41:0:0
     RDKit          3D

 98106  0  0  1  0  0  0  0  0999 V2000
  -30.3900  -18.9730   21.7480 C   0  0  0  0  0  3  0  0  0  0  0  0
  -29.9080  -21.3680   21.7050 C   0  0  0  0  0  3  0  0  0  0  0  0
  -30.5490  -20.2610   22.3090 C   0  0  0  0  0  0  0  0  0  0  0  0
  -29.6280  -18.8090   20.5790 C   0  0  0  0  0  0  0  0  0  0  0  0
  -29.1300  -21.2020   20.5470 C   0  0  0  0  0  0  0  0  0  0  0  0
  -29.0060  -19.9250   20.0090 N   0  0  0  0  0  0  0  0  0  0  0  0
  -28.4450  -22.3380   19.9640 N   0  0  0  0  0  0  0  0  0  0  0  0
  -27.8910  -22.1270   19.1410 H   0  0  0  0  0  0  0  0  0  0  0  0
  -28.7780  -23.8200   20.1380 C   0  0  0  0  0  3  0  0  0  0  0  0
  -27.6760  -24.9490   19.7410 C   0  0  0  0  0  3  0  0  0  0  0  0
  -27.9510  -26.4360   19.7950 O   0  0  0  0  0  0  0  0  0  0  0  0
  -24.5920  -31.9370   23.1570 C   0  0  0  0  0  0  0  0  0  0  0  0
  -26.8770  -27.3640   19.8100 C   0  0  0  0  0  0  0  0  0  0  0  0
  -23.2510  -30.6130   21.5630 C   0  0  0  0  0  3  0  0  0  0  0  0
  -24.5670  -29.0740   19.9940 C   0  0  0  0  0  0  0  0  0  0  0  0
  -25.7830  -30.8680   21.2230 C   0  0  0  0  0  2  0  0  0  0  0  0
  -25.7860  -29.5040   20.5320 C   0  0  0  0  0  0  0  0  0  0  0  0
  -26.9420  -28.6610   20.4290 C   0  0  0  0  0  3  0  0  0  0  0  0
  -25.6350  -27.0170   19.2330 C   0  0  0  0  0  3  0  0  0  0  0  0
  -24.4960  -27.8400   19.3330 C   0  0  0  0  0  3  0  0  0  0  0  0
  -23.3580  -29.9770   20.1530 C   0  0  0  0  0  2  0  0  0  0  0  0
  -24.5650  -31.1570   22.0360 N   0  0  0  0  0  0  0  0  0  0  0  0
  -23.5510  -32.2220   23.7700 O   0  0  0  0  0  0  0  0  0  0  0  0
  -22.6270  -29.5840   22.5380 C   0  0  0  0  0  0  0  0  0  0  0  0
  -21.3110  -29.3440   22.4090 N   0  0  0  0  0  0  0  0  0  0  0  0
  -23.3280  -29.0050   23.3710 O   0  0  0  0  0  0  0  0  0  0  0  0
  -20.8010  -29.8650   21.7100 H   0  0  0  0  0  0  0  0  0  0  0  0
  -18.0180  -27.8990   22.8230 C   0  0  0  0  0  0  0  0  0  0  0  0
  -20.5320  -28.3820   23.1920 C   0  0  0  0  0  3  0  0  0  0  0  0
  -20.7760  -26.9370   22.7020 C   0  0  0  0  0  2  0  0  0  0  0  0
  -19.7550  -26.4730   21.6580 C   0  0  0  0  0  2  0  0  0  0  0  0
  -18.3360  -26.5360   22.2300 C   0  0  0  0  0  2  0  0  0  0  0  0
  -19.0510  -28.7720   23.2610 C   0  0  0  0  0  0  0  0  0  0  0  0
  -18.7020  -30.0400   23.7730 C   0  0  0  0  0  3  0  0  0  0  0  0
  -17.3550  -30.4390   23.8540 C   0  0  0  0  0  3  0  0  0  0  0  0
  -16.3370  -29.5650   23.4330 C   0  0  0  0  0  3  0  0  0  0  0  0
  -16.6690  -28.2970   22.9240 C   0  0  0  0  0  3  0  0  0  0  0  0
  -25.9260  -32.5260   23.7090 C   0  0  0  0  0  3  0  0  0  0  0  0
  -25.6620  -33.9120   24.1230 N   0  0  0  0  0  0  0  0  0  0  0  0
  -25.9540  -34.9960   23.3900 C   0  0  0  0  0  0  0  0  0  0  0  0
  -26.5430  -34.9320   22.3080 O   0  0  0  0  0  0  0  0  0  0  0  0
  -25.1320  -34.0370   24.9730 H   0  0  0  0  0  0  0  0  0  0  0  0
  -24.2190  -36.8130   23.2710 C   0  0  0  0  0  1  0  0  0  0  0  0
  -25.5260  -36.3670   23.9460 C   0  0  0  0  0  3  0  0  0  0  0  0
  -27.7320  -37.2110   24.6160 C   0  0  0  0  0  1  0  0  0  0  0  0
  -26.5540  -37.4180   23.7790 N   0  0  0  0  0  0  0  0  0  0  0  0
  -26.1700  -38.3350   23.9930 H   0  0  0  0  0  0  0  0  0  0  0  0
  -26.5210  -31.6940   24.9100 C   0  0  1  0  0  0  0  0  0  0  0  0
  -25.4960  -31.3990   26.0310 C   0  0  0  0  0  1  0  0  0  0  0  0
  -27.0780  -30.3390   24.4160 C   0  0  0  0  0  1  0  0  0  0  0  0
  -27.7100  -32.4570   25.5370 C   0  0  0  0  0  1  0  0  0  0  0  0
  -29.5800  -17.3730   19.8880 C   0  0  0  0  0  2  0  0  0  0  0  0
  -30.2760  -14.9930   20.7490 C   0  0  0  0  0  0  0  0  0  0  0  0
  -30.3750  -12.5570   20.2030 C   0  0  0  0  0  2  0  0  0  0  0  0
  -29.5650  -12.3040   18.9110 C   0  0  0  0  0  2  0  0  0  0  0  0
  -28.0810  -12.0590   19.2420 C   0  0  0  0  0  2  0  0  0  0  0  0
  -27.5090  -13.1110   20.2300 C   0  0  0  0  0  3  0  0  0  0  0  0
  -28.4520  -13.3490   21.4310 C   0  0  0  0  0  2  0  0  0  0  0  0
  -29.7670  -13.7200   20.8940 N   0  0  0  0  0  0  0  0  0  0  0  0
  -31.4690  -15.1430   20.4710 O   0  0  0  0  0  0  0  0  0  0  0  0
  -29.3980  -16.0640   20.6680 N   0  0  0  0  0  0  0  0  0  0  0  0
  -28.4480  -15.8690   20.9400 H   0  0  0  0  0  0  0  0  0  0  0  0
  -25.0820  -13.6250   20.8790 C   0  0  0  0  0  0  0  0  0  0  0  0
  -24.0190  -12.8160   21.1760 C   0  0  0  0  0  0  0  0  0  0  0  0
  -24.5120  -11.4770   21.1130 C   0  0  0  0  0  0  0  0  0  0  0  0
  -26.1530  -12.7770   20.6530 N   0  0  0  0  0  0  0  0  0  0  0  0
  -25.8150  -11.4770   20.8570 N   0  0  0  0  0  0  0  0  0  0  0  0
  -23.8040  -10.1940   21.2240 C   0  0  0  0  0  0  0  0  0  0  0  0
  -24.2360   -9.1870   22.1130 C   0  0  0  0  0  3  0  0  0  0  0  0
  -23.5280   -7.9700   22.2160 C   0  0  0  0  0  3  0  0  0  0  0  0
  -22.3730   -7.7520   21.4280 C   0  0  0  0  0  0  0  0  0  0  0  0
  -21.9610   -8.7500   20.5280 C   0  0  0  0  0  3  0  0  0  0  0  0
  -22.6700   -9.9580   20.4220 C   0  0  0  0  0  3  0  0  0  0  0  0
  -21.6360   -6.5920   21.4430 O   0  0  0  0  0  0  0  0  0  0  0  0
  -21.6300   -5.7590   22.5320 C   0  0  0  0  0  0  0  0  0  0  0  0
  -21.1780   -6.1900   23.7980 C   0  0  0  0  0  3  0  0  0  0  0  0
  -21.1220   -5.2800   24.8730 C   0  0  0  0  0  3  0  0  0  0  0  0
  -21.5070   -3.9400   24.6830 C   0  0  0  0  0  0  0  0  0  0  0  0
  -21.9500   -3.5070   23.4210 C   0  0  0  0  0  3  0  0  0  0  0  0
  -22.0080   -4.4130   22.3480 C   0  0  0  0  0  0  0  0  0  0  0  0
  -22.4170   -3.9850   21.1290 F   0  0  0  0  0  0  0  0  0  0  0  0
  -21.4450   -3.0640   25.7140 F   0  0  0  0  0  0  0  0  0  0  0  0
  -22.6020  -13.2560   21.4060 C   0  0  0  0  0  0  0  0  0  0  0  0
  -21.8560  -12.5150   22.2180 N   0  0  0  0  0  0  0  0  0  0  0  0
  -22.1640  -14.2900   20.9040 O   0  0  0  0  0  0  0  0  0  0  0  0
  -22.2220  -11.6780   22.6460 H   0  0  0  0  0  0  0  0  0  0  0  0
  -20.9030  -12.7900   22.4140 H   0  0  0  0  0  0  0  0  0  0  0  0
  -25.2240  -15.0040   20.7590 N   0  0  0  0  0  0  0  0  0  0  0  0
  -24.4330  -15.6350   20.8540 H   0  0  0  0  0  0  0  0  0  0  0  0
  -26.0630  -15.4710   20.4410 H   0  0  0  0  0  0  0  0  0  0  0  0
  -31.3740  -20.4660   23.5760 C   0  0  0  0  0  3  0  0  0  0  0  0
  -30.9320  -19.4910   24.5780 N   0  0  0  0  0  4  0  0  0  0  0  0
  -31.1230  -18.5580   24.2650 H   0  0  0  0  0  0  0  0  0  0  0  0
  -29.9420  -19.5880   24.7080 H   0  0  0  0  0  0  0  0  0  0  0  0
  -31.3920  -19.6540   25.4530 H   0  0  0  0  0  0  0  0  0  0  0  0
  -32.9090  -20.4050   23.3470 C   0  0  0  0  0  2  0  0  0  0  0  0
  -33.3940  -21.4900   22.5640 O   0  0  0  0  0  0  0  0  0  0  0  0
  -33.0000  -21.4250   21.6980 H   0  0  0  0  0  0  0  0  0  0  0  0
  1  3  1  0
  2  3  2  0
  3 91  1  0
  4  1  2  0
  5  2  1  0
  6  5  2  0
  6  4  1  0
  7  9  1  0
  7  5  1  0
  8  7  1  0
 10 11  1  0
 10  9  2  0
 11 13  1  0
 12 23  2  0
 13 18  1  0
 14 22  1  0
 14 24  1  0
 15 21  1  0
 15 17  1  0
 16 22  1  0
 17 16  1  0
 18 17  2  0
 19 20  1  0
 19 13  2  0
 20 15  2  0
 21 14  1  0
 22 12  1  0
 24 26  2  0
 25 24  1  0
 27 25  1  0
 28 37  2  0
 28 33  1  0
 29 25  1  0
 29 33  1  0
 30 29  1  0
 31 32  1  0
 31 30  1  0
 32 28  1  0
 33 34  2  0
 34 35  1  0
 36 35  2  0
 37 36  1  0
 38 12  1  0
 38 39  1  0
 38 48  1  0
 39 42  1  0
 40 44  1  0
 40 39  1  0
 41 40  2  0
 44 43  1  0
 46 44  1  0
 46 47  1  0
 46 45  1  0
 48 51  1  1
 48 49  1  0
 50 48  1  0
 52  4  1  0
 52 61  1  0
 53 59  1  0
 54 59  1  0
 55 56  1  0
 55 54  1  0
 57 56  1  0
 57 66  1  0
 57 58  1  0
 59 58  1  0
 60 53  2  0
 61 53  1  0
 61 62  1  0
 63 64  2  0
 64 83  1  0
 65 64  1  0
 65 68  1  0
 66 67  1  0
 66 63  1  0
 67 65  2  0
 68 69  1  0
 69 70  2  0
 71 74  1  0
 71 70  1  0
 72 71  2  0
 73 72  1  0
 73 68  2  0
 74 75  1  0
 75 76  1  0
 76 77  2  0
 78 77  1  0
 78 82  1  0
 79 78  2  0
 80 75  2  0
 80 79  1  0
 81 80  1  0
 83 84  1  0
 84 87  1  0
 84 86  1  0
 85 83  2  0
 88 89  1  0
 88 63  1  0
 90 88  1  0
 91 96  1  0
 91 92  1  0
 92 94  1  0
 92 95  1  0
 93 92  1  0
 97 96  1  0
 98 97  1  0
M  ISO  4  10 101  11 101  53 100  61 100
M  END
>  <TORSDO>  (42) 
F 24

>  <SCORE>  (42) 
-11.796

>  <name>  (42) 
41

>  <ligand_id>  (42) 
41

>  <original_smiles>  (42) 
[H]OC([H])([H])C([H])(c1c([H])c(N([H])C([H])([H])C([H])([H])Oc2c([H])c([H])c3c(c2[H])C([H])([H])N(C(=O)C([H])(N([H])C(=O)C([H])(N([H])C([H])([H])[H])C([H])([H])[H])C(C([H])([H])[H])(C([H])([H])[H])C([H])([H])[H])C([H])(C(=O)N([H])C2([H])c4c([H])c([H])c([H])c([H])c4C([H])([H])C([H])([H])C2([H])[H])C3([H])[H])nc(C([H])([H])N([H])C(=O)N2C([H])([H])C([H])([H])C([H])([H])C([H])(n3nc(-c4c([H])c([H])c(Oc5c([H])c([H])c(F)c([H])c5F)c([H])c4[H])c(C(=O)N([H])[H])c3N([H])[H])C2([H])[H])c1[H])[N+]([H])([H])[H]

>  <smiles>  (42) 
[H]OC([H])([H])C([H])(c1c([H])c(N([H])C([H])([H])C([H])([H])Oc2c([H])c([H])c3c(c2[H])C([H])([H])N(C(=O)C([H])(N([H])C(=O)C([H])(N([H])C([H])([H])[H])C([H])([H])[H])C(C([H])([H])[H])(C([H])([H])[H])C([H])([H])[H])C([H])(C(=O)N([H])C2([H])c4c([H])c([H])c([H])c([H])c4C([H])([H])C([H])([H])C2([H])[H])C3([H])[H])nc(C([H])([H])N([H])C(=O)N2C([H])([H])C([H])([H])C([H])([H])C([H])(n3nc(-c4c([H])c([H])c(Oc5c([H])c([H])c(F)c([H])c5F)c([H])c4[H])c(C(=O)N([H])[H])c3N([H])[H])C2([H])[H])c1[H])[N+]([H])([H])[H]

$$$$
42:0:0
     RDKit          3D

 94102  0  0  1  0  0  0  0  0999 V2000
  -29.8630  -18.4190   21.4060 C   0  0  0  0  0  3  0  0  0  0  0  0
  -29.6640  -20.8310   21.3670 C   0  0  0  0  0  3  0  0  0  0  0  0
  -29.8760  -19.6450   22.1020 C   0  0  0  0  0  0  0  0  0  0  0  0
  -29.6720  -18.4160   20.0130 C   0  0  0  0  0  0  0  0  0  0  0  0
  -29.4900  -20.7620   19.9710 C   0  0  0  0  0  0  0  0  0  0  0  0
  -29.4840  -19.5730   19.3140 N   0  0  0  0  0  0  0  0  0  0  0  0
  -30.1100  -19.6430   23.6110 C   0  0  0  0  0  2  0  0  0  0  0  0
  -30.7510  -21.8840   24.6770 C   0  0  0  0  0  1  0  0  0  0  0  0
  -32.0530  -19.8060   25.2370 C   0  0  0  0  0  1  0  0  0  0  0  0
  -31.2680  -20.5350   24.1360 C   0  0  0  0  0  3  0  0  0  0  0  0
  -29.7250  -17.1070   19.2030 C   0  0  0  0  0  2  0  0  0  0  0  0
  -30.3480  -14.7850   19.8950 C   0  0  0  0  0  0  0  0  0  0  0  0
  -30.3270  -12.3830   19.3530 C   0  0  0  0  0  2  0  0  0  0  0  0
  -29.3770  -12.1400   18.1610 C   0  0  0  0  0  2  0  0  0  0  0  0
  -27.9200  -11.9710   18.6380 C   0  0  0  0  0  2  0  0  0  0  0  0
  -27.4770  -13.0430   19.6730 C   0  0  0  0  0  3  0  0  0  0  0  0
  -28.5520  -13.2340   20.7650 C   0  0  0  0  0  2  0  0  0  0  0  0
  -29.8230  -13.5450   20.1010 N   0  0  0  0  0  0  0  0  0  0  0  0
  -31.4880  -14.9470   19.4580 O   0  0  0  0  0  0  0  0  0  0  0  0
  -29.4850  -15.8290   19.9260 N   0  0  0  0  0  0  0  0  0  0  0  0
  -28.5510  -15.6760   20.2710 H   0  0  0  0  0  0  0  0  0  0  0  0
  -25.1640  -13.5880   20.6580 C   0  0  0  0  0  0  0  0  0  0  0  0
  -24.1130  -12.7880   21.0270 C   0  0  0  0  0  0  0  0  0  0  0  0
  -24.5420  -11.4460   20.8070 C   0  0  0  0  0  0  0  0  0  0  0  0
  -26.1670  -12.7280   20.2370 N   0  0  0  0  0  0  0  0  0  0  0  0
  -25.8010  -11.4300   20.3860 N   0  0  0  0  0  0  0  0  0  0  0  0
  -23.8060  -10.1770   20.9100 C   0  0  0  0  0  0  0  0  0  0  0  0
  -24.2700   -9.1150   21.7150 C   0  0  0  0  0  3  0  0  0  0  0  0
  -23.5330   -7.9140   21.8100 C   0  0  0  0  0  3  0  0  0  0  0  0
  -22.3150   -7.7700   21.1040 C   0  0  0  0  0  0  0  0  0  0  0  0
  -21.8680   -8.8230   20.2850 C   0  0  0  0  0  3  0  0  0  0  0  0
  -22.6060  -10.0150   20.1860 C   0  0  0  0  0  3  0  0  0  0  0  0
  -21.5430   -6.6330   21.1240 O   0  0  0  0  0  0  0  0  0  0  0  0
  -21.5720   -5.7620   22.1830 C   0  0  0  0  0  0  0  0  0  0  0  0
  -21.2220   -6.1670   23.4890 C   0  0  0  0  0  3  0  0  0  0  0  0
  -21.1960   -5.2240   24.5370 C   0  0  0  0  0  3  0  0  0  0  0  0
  -21.5100   -3.8770   24.2780 C   0  0  0  0  0  0  0  0  0  0  0  0
  -21.8500   -3.4690   22.9770 C   0  0  0  0  0  3  0  0  0  0  0  0
  -21.8780   -4.4090   21.9320 C   0  0  0  0  0  0  0  0  0  0  0  0
  -22.1890   -4.0070   20.6760 F   0  0  0  0  0  0  0  0  0  0  0  0
  -21.4770   -2.9690   25.2820 F   0  0  0  0  0  0  0  0  0  0  0  0
  -22.7520  -13.2500   21.4660 C   0  0  0  0  0  0  0  0  0  0  0  0
  -22.0850  -12.4770   22.3210 N   0  0  0  0  0  0  0  0  0  0  0  0
  -22.2910  -14.3260   21.0920 O   0  0  0  0  0  0  0  0  0  0  0  0
  -22.4650  -11.6020   22.6480 H   0  0  0  0  0  0  0  0  0  0  0  0
  -21.1760  -12.7690   22.6520 H   0  0  0  0  0  0  0  0  0  0  0  0
  -25.3380  -14.9680   20.6250 N   0  0  0  0  0  0  0  0  0  0  0  0
  -24.6120  -15.6110   20.9220 H   0  0  0  0  0  0  0  0  0  0  0  0
  -26.1390  -15.4400   20.2250 H   0  0  0  0  0  0  0  0  0  0  0  0
  -29.2590  -21.8830   19.1800 O   0  0  0  0  0  0  0  0  0  0  0  0
  -29.6980  -23.1720   19.6700 C   0  0  0  0  0  2  0  0  0  0  0  0
  -29.1790  -24.3960   18.8510 C   0  0  0  0  0  2  0  0  0  0  0  0
  -28.2850  -25.3590   19.6910 C   0  0  0  0  0  2  0  0  0  0  0  0
  -28.2720  -26.7420   19.2520 O   0  0  0  0  0  0  0  0  0  0  0  0
  -24.4040  -31.4800   23.0160 C   0  0  0  0  0  0  0  0  0  0  0  0
  -27.0740  -27.4170   19.4210 C   0  0  0  0  0  0  0  0  0  0  0  0
  -23.1690  -30.1070   21.3760 C   0  0  0  0  0  3  0  0  0  0  0  0
  -24.6000  -28.7710   19.7370 C   0  0  0  0  0  0  0  0  0  0  0  0
  -25.6520  -30.6370   21.0260 C   0  0  0  0  0  2  0  0  0  0  0  0
  -25.7690  -29.3170   20.2820 C   0  0  0  0  0  0  0  0  0  0  0  0
  -27.0090  -28.6470   20.1260 C   0  0  0  0  0  3  0  0  0  0  0  0
  -25.8850  -26.9050   18.8590 C   0  0  0  0  0  3  0  0  0  0  0  0
  -24.6560  -27.5650   19.0190 C   0  0  0  0  0  3  0  0  0  0  0  0
  -23.3110  -29.5360   19.9410 C   0  0  0  0  0  2  0  0  0  0  0  0
  -24.4250  -30.7630   21.8560 N   0  0  0  0  0  0  0  0  0  0  0  0
  -23.3570  -31.6400   23.6560 O   0  0  0  0  0  0  0  0  0  0  0  0
  -22.6680  -28.9820   22.3110 C   0  0  0  0  0  0  0  0  0  0  0  0
  -21.3720  -28.6490   22.2030 N   0  0  0  0  0  0  0  0  0  0  0  0
  -23.4410  -28.4150   23.0880 O   0  0  0  0  0  0  0  0  0  0  0  0
  -20.8050  -29.1790   21.5550 H   0  0  0  0  0  0  0  0  0  0  0  0
  -18.2080  -26.9480   22.6060 C   0  0  0  0  0  0  0  0  0  0  0  0
  -20.6880  -27.5880   22.9430 C   0  0  0  0  0  3  0  0  0  0  0  0
  -21.0210  -26.1940   22.3600 C   0  0  0  0  0  2  0  0  0  0  0  0
  -20.0050  -25.7170   21.3190 C   0  0  0  0  0  2  0  0  0  0  0  0
  -18.6030  -25.6460   21.9300 C   0  0  0  0  0  2  0  0  0  0  0  0
  -19.1860  -27.8670   23.0660 C   0  0  0  0  0  0  0  0  0  0  0  0
  -18.7650  -29.0790   23.6570 C   0  0  0  0  0  3  0  0  0  0  0  0
  -17.3960  -29.3710   23.8010 C   0  0  0  0  0  3  0  0  0  0  0  0
  -16.4300  -28.4520   23.3540 C   0  0  0  0  0  3  0  0  0  0  0  0
  -16.8380  -27.2430   22.7620 C   0  0  0  0  0  3  0  0  0  0  0  0
  -25.6940  -32.1510   23.5820 C   0  0  0  0  0  3  0  0  0  0  0  0
  -25.3340  -33.5090   24.0160 N   0  0  0  0  0  0  0  0  0  0  0  0
  -25.5680  -34.6210   23.3090 C   0  0  0  0  0  0  0  0  0  0  0  0
  -26.1740  -34.6190   22.2330 O   0  0  0  0  0  0  0  0  0  0  0  0
  -24.7690  -33.5860   24.8480 H   0  0  0  0  0  0  0  0  0  0  0  0
  -23.7250  -36.3250   23.1680 C   0  0  0  0  0  1  0  0  0  0  0  0
  -25.0360  -35.9500   23.8760 C   0  0  0  0  0  3  0  0  0  0  0  0
  -27.1730  -36.9160   24.6200 C   0  0  0  0  0  1  0  0  0  0  0  0
  -26.0020  -37.0670   23.7560 N   0  0  0  0  0  0  0  0  0  0  0  0
  -25.5610  -37.9580   23.9690 H   0  0  0  0  0  0  0  0  0  0  0  0
  -26.3510  -31.3350   24.7640 C   0  0  1  0  0  0  0  0  0  0  0  0
  -25.3600  -30.9750   25.8960 C   0  0  0  0  0  1  0  0  0  0  0  0
  -26.9610  -30.0140   24.2380 C   0  0  0  0  0  1  0  0  0  0  0  0
  -27.5060  -32.1570   25.3810 C   0  0  0  0  0  1  0  0  0  0  0  0
  1  3  1  0
  2  3  2  0
  3  7  1  0
  4  1  2  0
  5  2  1  0
  6  5  2  0
  6  4  1  0
  7 10  1  0
 10  8  1  0
 10  9  1  0
 11 20  1  0
 11  4  1  0
 12 20  1  0
 12 18  1  0
 13 18  1  0
 14 15  1  0
 14 13  1  0
 16 15  1  0
 16 25  1  0
 16 17  1  0
 18 17  1  0
 19 12  2  0
 20 21  1  0
 22 23  2  0
 23 42  1  0
 24 27  1  0
 24 23  1  0
 25 26  1  0
 25 22  1  0
 26 24  2  0
 27 28  1  0
 28 29  2  0
 30 33  1  0
 30 29  1  0
 31 30  2  0
 32 31  1  0
 32 27  2  0
 33 34  1  0
 34 35  1  0
 35 36  2  0
 37 36  1  0
 37 41  1  0
 38 37  2  0
 39 34  2  0
 39 38  1  0
 40 39  1  0
 42 43  1  0
 43 45  1  0
 43 46  1  0
 44 42  2  0
 47 22  1  0
 47 48  1  0
 49 47  1  0
 50 51  1  0
 50  5  1  0
 52 51  1  0
 52 53  1  0
 54 56  1  0
 54 53  1  0
 55 66  2  0
 56 61  1  0
 57 65  1  0
 57 67  1  0
 58 64  1  0
 58 60  1  0
 59 65  1  0
 60 59  1  0
 61 60  2  0
 62 63  1  0
 62 56  2  0
 63 58  2  0
 64 57  1  0
 65 55  1  0
 67 69  2  0
 68 67  1  0
 70 68  1  0
 71 80  2  0
 71 76  1  0
 72 68  1  0
 72 76  1  0
 73 72  1  0
 74 75  1  0
 74 73  1  0
 75 71  1  0
 76 77  2  0
 77 78  1  0
 79 78  2  0
 80 79  1  0
 81 55  1  0
 81 82  1  0
 81 91  1  0
 82 85  1  0
 83 87  1  0
 83 82  1  0
 84 83  2  0
 87 86  1  0
 89 87  1  0
 89 90  1  0
 89 88  1  0
 91 94  1  1
 91 92  1  0
 93 91  1  0
M  ISO  4  12 100  20 100  53 101  54 101
M  END
>  <TORSDO>  (43) 
F 23

>  <SCORE>  (43) 
-6.504

>  <name>  (43) 
42

>  <ligand_id>  (43) 
42

>  <original_smiles>  (43) 
[H]c1c([H])c([H])c2c(c1[H])C([H])([H])C([H])([H])C([H])([H])C2([H])N([H])C(=O)C1([H])N(C(=O)C([H])(N([H])C(=O)C([H])(N([H])C([H])([H])[H])C([H])([H])[H])C(C([H])([H])[H])(C([H])([H])[H])C([H])([H])[H])C([H])([H])c2c([H])c(OC([H])([H])C([H])([H])C([H])([H])Oc3nc(C([H])([H])N([H])C(=O)N4C([H])([H])C([H])([H])C([H])([H])C([H])(n5nc(-c6c([H])c([H])c(Oc7c([H])c([H])c(F)c([H])c7F)c([H])c6[H])c(C(=O)N([H])[H])c5N([H])[H])C4([H])[H])c([H])c(C([H])([H])C([H])(C([H])([H])[H])C([H])([H])[H])c3[H])c([H])c([H])c2C1([H])[H]

>  <smiles>  (43) 
[H]c1c([H])c([H])c2c(c1[H])C([H])([H])C([H])([H])C([H])([H])C2([H])N([H])C(=O)C1([H])N(C(=O)C([H])(N([H])C(=O)C([H])(N([H])C([H])([H])[H])C([H])([H])[H])C(C([H])([H])[H])(C([H])([H])[H])C([H])([H])[H])C([H])([H])c2c([H])c(OC([H])([H])C([H])([H])C([H])([H])Oc3nc(C([H])([H])N([H])C(=O)N4C([H])([H])C([H])([H])C([H])([H])C([H])(n5nc(-c6c([H])c([H])c(Oc7c([H])c([H])c(F)c([H])c7F)c([H])c6[H])c(C(=O)N([H])[H])c5N([H])[H])C4([H])[H])c([H])c(C([H])([H])C([H])(C([H])([H])[H])C([H])([H])[H])c3[H])c([H])c([H])c2C1([H])[H]

$$$$
43:0:0
     RDKit          3D

 98106  0  0  1  0  0  0  0  0999 V2000
  -28.7610  -21.7010   19.5970 C   0  0  0  0  0  3  0  0  0  0  0  0
  -29.8220  -21.4410   21.6000 C   0  0  0  0  0  0  0  0  0  0  0  0
  -29.4670  -20.8010   20.3600 C   0  0  0  0  0  0  0  0  0  0  0  0
  -29.2180  -22.6910   21.5620 C   0  0  0  0  0  0  0  0  0  0  0  0
  -29.1590  -23.7910   22.5860 C   0  0  0  0  0  1  0  0  0  0  0  0
  -28.5930  -22.8790   20.3300 N   0  0  0  0  0  0  0  0  0  0  0  0
  -29.8950  -19.5210   19.8990 N   0  0  0  0  0  0  0  0  0  0  0  0
  -29.9170  -19.4790   18.8810 H   0  0  0  0  0  0  0  0  0  0  0  0
  -29.3980  -18.2310   20.4460 C   0  0  0  0  0  2  0  0  0  0  0  0
  -30.4310  -17.0540   20.2490 C   0  0  0  0  0  2  0  0  0  0  0  0
  -30.6820  -14.5500   20.1480 C   0  0  0  0  0  0  0  0  0  0  0  0
  -30.3670  -12.3390   19.0890 C   0  0  0  0  0  2  0  0  0  0  0  0
  -29.3940  -12.5060   17.9020 C   0  0  0  0  0  2  0  0  0  0  0  0
  -27.9330  -12.3720   18.3760 C   0  0  0  0  0  2  0  0  0  0  0  0
  -27.6280  -13.2330   19.6300 C   0  0  0  0  0  3  0  0  0  0  0  0
  -28.7160  -13.0670   20.7140 C   0  0  0  0  0  2  0  0  0  0  0  0
  -30.0120  -13.3640   20.0910 N   0  0  0  0  0  0  0  0  0  0  0  0
  -31.8360  -14.6680   19.7320 O   0  0  0  0  0  0  0  0  0  0  0  0
  -29.9550  -15.6590   20.4620 N   0  0  0  0  0  0  0  0  0  0  0  0
  -29.0010  -15.5200   20.7530 H   0  0  0  0  0  0  0  0  0  0  0  0
  -25.2650  -13.8480   20.4320 C   0  0  0  0  0  0  0  0  0  0  0  0
  -24.2040  -13.0810   20.8280 C   0  0  0  0  0  0  0  0  0  0  0  0
  -24.6520  -11.7250   20.7720 C   0  0  0  0  0  0  0  0  0  0  0  0
  -26.2930  -12.9610   20.1560 N   0  0  0  0  0  0  0  0  0  0  0  0
  -25.9320  -11.6790   20.4220 N   0  0  0  0  0  0  0  0  0  0  0  0
  -23.9230  -10.4670   20.9740 C   0  0  0  0  0  0  0  0  0  0  0  0
  -24.3590   -9.5020   21.9080 C   0  0  0  0  0  3  0  0  0  0  0  0
  -23.6290   -8.3090   22.0970 C   0  0  0  0  0  3  0  0  0  0  0  0
  -22.4490   -8.0740   21.3520 C   0  0  0  0  0  0  0  0  0  0  0  0
  -22.0320   -9.0280   20.4070 C   0  0  0  0  0  3  0  0  0  0  0  0
  -22.7620  -10.2130   20.2170 C   0  0  0  0  0  3  0  0  0  0  0  0
  -21.6890   -6.9320   21.4500 O   0  0  0  0  0  0  0  0  0  0  0  0
  -21.6320   -6.2030   22.6100 C   0  0  0  0  0  0  0  0  0  0  0  0
  -21.1750   -6.7670   23.8210 C   0  0  0  0  0  3  0  0  0  0  0  0
  -21.0650   -5.9650   24.9740 C   0  0  0  0  0  3  0  0  0  0  0  0
  -21.4020   -4.5990   24.9170 C   0  0  0  0  0  0  0  0  0  0  0  0
  -21.8520   -4.0350   23.7110 C   0  0  0  0  0  3  0  0  0  0  0  0
  -21.9640   -4.8340   22.5600 C   0  0  0  0  0  0  0  0  0  0  0  0
  -22.3770   -4.2810   21.3940 F   0  0  0  0  0  0  0  0  0  0  0  0
  -21.2900   -3.8260   26.0220 F   0  0  0  0  0  0  0  0  0  0  0  0
  -22.8200  -13.5670   21.1470 C   0  0  0  0  0  0  0  0  0  0  0  0
  -22.1120  -12.8670   22.0230 N   0  0  0  0  0  0  0  0  0  0  0  0
  -22.3800  -14.6050   20.6530 O   0  0  0  0  0  0  0  0  0  0  0  0
  -22.4820  -12.0270   22.4440 H   0  0  0  0  0  0  0  0  0  0  0  0
  -21.1850  -13.1750   22.2790 H   0  0  0  0  0  0  0  0  0  0  0  0
  -25.4370  -15.2200   20.2630 N   0  0  0  0  0  0  0  0  0  0  0  0
  -24.6780  -15.8770   20.4030 H   0  0  0  0  0  0  0  0  0  0  0  0
  -26.2680  -15.6520   19.8790 H   0  0  0  0  0  0  0  0  0  0  0  0
  -27.8010  -24.0690   19.9070 C   0  0  0  0  0  2  0  0  0  0  0  0
  -28.5740  -25.3710   19.4690 C   0  0  0  0  0  2  0  0  0  0  0  0
  -28.4000  -26.6280   20.1920 O   0  0  0  0  0  0  0  0  0  0  0  0
  -24.6040  -31.8740   23.2220 C   0  0  0  0  0  0  0  0  0  0  0  0
  -27.2360  -27.3870   20.1220 C   0  0  0  0  0  0  0  0  0  0  0  0
  -23.4020  -30.4820   21.5710 C   0  0  0  0  0  3  0  0  0  0  0  0
  -24.8550  -28.9490   20.1330 C   0  0  0  0  0  0  0  0  0  0  0  0
  -25.9320  -30.8220   21.3860 C   0  0  0  0  0  2  0  0  0  0  0  0
  -26.0130  -29.4500   20.7360 C   0  0  0  0  0  0  0  0  0  0  0  0
  -27.2000  -28.6720   20.7300 C   0  0  0  0  0  3  0  0  0  0  0  0
  -26.0550  -26.9210   19.5000 C   0  0  0  0  0  3  0  0  0  0  0  0
  -24.8730  -27.6890   19.5100 C   0  0  0  0  0  3  0  0  0  0  0  0
  -23.6140  -29.8120   20.1870 C   0  0  0  0  0  2  0  0  0  0  0  0
  -24.6630  -31.0760   22.1180 N   0  0  0  0  0  0  0  0  0  0  0  0
  -23.5210  -32.1460   23.7610 O   0  0  0  0  0  0  0  0  0  0  0  0
  -22.7440  -29.4580   22.5260 C   0  0  0  0  0  0  0  0  0  0  0  0
  -21.4180  -29.2860   22.4010 N   0  0  0  0  0  0  0  0  0  0  0  0
  -23.4250  -28.8230   23.3360 O   0  0  0  0  0  0  0  0  0  0  0  0
  -20.9310  -29.8470   21.7170 H   0  0  0  0  0  0  0  0  0  0  0  0
  -18.0360  -28.1130   22.9100 C   0  0  0  0  0  0  0  0  0  0  0  0
  -20.5980  -28.3490   23.1690 C   0  0  0  0  0  3  0  0  0  0  0  0
  -20.6860  -26.9240   22.5760 C   0  0  0  0  0  2  0  0  0  0  0  0
  -19.5750  -26.6210   21.5660 C   0  0  0  0  0  2  0  0  0  0  0  0
  -18.1980  -26.7700   22.2180 C   0  0  0  0  0  2  0  0  0  0  0  0
  -19.1630  -28.8610   23.3420 C   0  0  0  0  0  0  0  0  0  0  0  0
  -18.9580  -30.1180   23.9510 C   0  0  0  0  0  3  0  0  0  0  0  0
  -17.6590  -30.6290   24.1300 C   0  0  0  0  0  3  0  0  0  0  0  0
  -16.5460  -29.8790   23.7150 C   0  0  0  0  0  3  0  0  0  0  0  0
  -16.7360  -28.6220   23.1110 C   0  0  0  0  0  3  0  0  0  0  0  0
  -25.8880  -32.5030   23.8470 C   0  0  0  0  0  3  0  0  0  0  0  0
  -26.4100  -31.7190   25.1150 C   0  0  1  0  0  0  0  0  0  0  0  0
  -25.3190  -31.4670   26.1800 C   0  0  0  0  0  1  0  0  0  0  0  0
  -26.9980  -30.3480   24.7070 C   0  0  0  0  0  1  0  0  0  0  0  0
  -27.5620  -32.5080   25.7820 C   0  0  0  0  0  1  0  0  0  0  0  0
  -25.5790  -33.8970   24.1940 N   0  0  0  0  0  0  0  0  0  0  0  0
  -25.9040  -34.9570   23.4420 C   0  0  0  0  0  0  0  0  0  0  0  0
  -26.5660  -34.8630   22.4040 O   0  0  0  0  0  0  0  0  0  0  0  0
  -24.9950  -34.0450   25.0030 H   0  0  0  0  0  0  0  0  0  0  0  0
  -24.1720  -36.7470   23.1120 C   0  0  0  0  0  1  0  0  0  0  0  0
  -25.4190  -36.3400   23.9130 C   0  0  0  0  0  3  0  0  0  0  0  0
  -27.5520  -37.2210   24.7480 C   0  0  0  0  0  1  0  0  0  0  0  0
  -26.4500  -37.3950   23.8050 N   0  0  0  0  0  0  0  0  0  0  0  0
  -26.0440  -38.3140   23.9590 H   0  0  0  0  0  0  0  0  0  0  0  0
  -30.6730  -20.8410   22.7310 C   0  0  0  0  0  3  0  0  0  0  0  0
  -31.5590  -19.8160   22.1720 N   0  0  0  0  0  4  0  0  0  0  0  0
  -32.4000  -20.2330   21.8190 H   0  0  0  0  0  0  0  0  0  0  0  0
  -31.0530  -19.4190   21.3830 H   0  0  0  0  0  0  0  0  0  0  0  0
  -31.7800  -19.1130   22.8550 H   0  0  0  0  0  0  0  0  0  0  0  0
  -31.2200  -21.8760   25.0530 C   0  0  0  0  0  1  0  0  0  0  0  0
  -31.5330  -21.8480   23.5450 C   0  0  0  0  0  2  0  0  0  0  0  0
  1  6  1  0
  1  3  2  0
  2 92  1  0
  3  2  1  0
  4  2  2  0
  4  5  1  0
  6  4  1  0
  7  3  1  0
  7  9  1  0
  8  7  1  0
 10  9  1  0
 10 19  1  0
 11 19  1  0
 12 17  1  0
 13 14  1  0
 13 12  1  0
 15 14  1  0
 15 24  1  0
 15 16  1  0
 17 11  1  0
 17 16  1  0
 18 11  2  0
 19 20  1  0
 21 22  2  0
 22 41  1  0
 23 22  1  0
 23 26  1  0
 24 25  1  0
 24 21  1  0
 25 23  2  0
 26 27  1  0
 27 28  2  0
 29 32  1  0
 29 28  1  0
 30 29  2  0
 31 30  1  0
 31 26  2  0
 32 33  1  0
 33 34  1  0
 34 35  2  0
 36 35  1  0
 36 40  1  0
 37 36  2  0
 38 33  2  0
 38 37  1  0
 39 38  1  0
 41 42  1  0
 42 45  1  0
 42 44  1  0
 43 41  2  0
 46 47  1  0
 46 21  1  0
 48 46  1  0
 49  6  1  0
 50 49  1  0
 50 51  1  0
 52 63  2  0
 53 51  1  0
 53 58  1  0
 54 62  1  0
 54 64  1  0
 55 61  1  0
 55 57  1  0
 56 62  1  0
 57 56  1  0
 58 57  2  0
 59 60  1  0
 59 53  2  0
 60 55  2  0
 61 54  1  0
 62 52  1  0
 64 66  2  0
 65 64  1  0
 67 65  1  0
 68 77  2  0
 68 73  1  0
 69 65  1  0
 69 73  1  0
 70 69  1  0
 71 72  1  0
 71 70  1  0
 72 68  1  0
 73 74  2  0
 74 75  1  0
 76 75  2  0
 77 76  1  0
 78 52  1  0
 78 83  1  0
 78 79  1  0
 79 82  1  1
 79 80  1  0
 81 79  1  0
 83 86  1  0
 84 88  1  0
 84 83  1  0
 85 84  2  0
 88 87  1  0
 90 88  1  0
 90 91  1  0
 90 89  1  0
 92 98  1  0
 93 92  1  0
 93 96  1  0
 94 93  1  0
 95 93  1  0
 98 97  1  0
M  ISO  4  11 100  19 100  50 101  51 101
M  END
>  <TORSDO>  (44) 
F 24

>  <SCORE>  (44) 
-12.773

>  <name>  (44) 
43

>  <ligand_id>  (44) 
43

>  <original_smiles>  (44) 
[H]c1c([H])c([H])c2c(c1[H])C([H])([H])C([H])([H])C([H])([H])C2([H])N([H])C(=O)C1([H])N(C(=O)C([H])(N([H])C(=O)C([H])(N([H])C([H])([H])[H])C([H])([H])[H])C(C([H])([H])[H])(C([H])([H])[H])C([H])([H])[H])C([H])([H])c2c([H])c(OC([H])([H])C([H])([H])n3c([H])c(N([H])C([H])([H])C([H])([H])N([H])C(=O)N4C([H])([H])C([H])([H])C([H])([H])C([H])(n5nc(-c6c([H])c([H])c(Oc7c([H])c([H])c(F)c([H])c7F)c([H])c6[H])c(C(=O)N([H])[H])c5N([H])[H])C4([H])[H])c(C([H])(C([H])([H])C([H])([H])[H])[N+]([H])([H])[H])c3C([H])([H])[H])c([H])c([H])c2C1([H])[H]

>  <smiles>  (44) 
[H]c1c([H])c([H])c2c(c1[H])C([H])([H])C([H])([H])C([H])([H])C2([H])N([H])C(=O)C1([H])N(C(=O)C([H])(N([H])C(=O)C([H])(N([H])C([H])([H])[H])C([H])([H])[H])C(C([H])([H])[H])(C([H])([H])[H])C([H])([H])[H])C([H])([H])c2c([H])c(OC([H])([H])C([H])([H])n3c([H])c(N([H])C([H])([H])C([H])([H])N([H])C(=O)N4C([H])([H])C([H])([H])C([H])([H])C([H])(n5nc(-c6c([H])c([H])c(Oc7c([H])c([H])c(F)c([H])c7F)c([H])c6[H])c(C(=O)N([H])[H])c5N([H])[H])C4([H])[H])c(C([H])(C([H])([H])C([H])([H])[H])[N+]([H])([H])[H])c3C([H])([H])[H])c([H])c([H])c2C1([H])[H]

$$$$
44:0:0
     RDKit          3D

 94102  0  0  1  0  0  0  0  0999 V2000
  -30.8040  -15.3210   20.4000 C   0  0  0  0  0  0  0  0  0  0  0  0
  -30.6110  -12.9930   19.3290 C   0  0  0  0  0  2  0  0  0  0  0  0
  -29.6980  -12.9490   18.0810 C   0  0  0  0  0  2  0  0  0  0  0  0
  -28.2350  -12.7230   18.4990 C   0  0  0  0  0  2  0  0  0  0  0  0
  -27.8200  -13.6220   19.6930 C   0  0  0  0  0  3  0  0  0  0  0  0
  -28.8640  -13.6400   20.8320 C   0  0  0  0  0  2  0  0  0  0  0  0
  -30.1240  -14.0940   20.2310 N   0  0  0  0  0  0  0  0  0  0  0  0
  -32.0150  -15.2400   20.1580 O   0  0  0  0  0  0  0  0  0  0  0  0
  -29.5230  -17.4110   21.5470 C   0  0  0  0  0  2  0  0  0  0  0  0
  -28.8230  -18.9170   21.3980 C   0  0  0  0  0  2  0  0  0  0  0  0
  -30.7050  -19.4120   20.0480 C   0  0  0  0  0  2  0  0  0  0  0  0
  -30.6580  -17.8270   19.5300 C   0  0  0  0  0  3  0  0  0  0  0  0
  -30.1780  -16.6550   20.4010 N   0  0  0  0  0  0  0  0  0  0  0  0
  -29.4560  -20.0840   20.6120 N   0  0  2  0  0  4  0  0  0  0  0  0
  -28.8410  -20.1960   19.8220 H   0  0  0  0  0  0  0  0  0  0  0  0
  -25.4370  -14.2110   20.3890 C   0  0  0  0  0  0  0  0  0  0  0  0
  -24.3570  -13.4420   20.7200 C   0  0  0  0  0  0  0  0  0  0  0  0
  -24.8110  -12.0880   20.6980 C   0  0  0  0  0  0  0  0  0  0  0  0
  -26.4770  -13.3240   20.1680 N   0  0  0  0  0  0  0  0  0  0  0  0
  -26.1100  -12.0420   20.4250 N   0  0  0  0  0  0  0  0  0  0  0  0
  -24.0700  -10.8310   20.8680 C   0  0  0  0  0  0  0  0  0  0  0  0
  -24.4830   -9.8460   21.7920 C   0  0  0  0  0  3  0  0  0  0  0  0
  -23.7380   -8.6580   21.9500 C   0  0  0  0  0  3  0  0  0  0  0  0
  -22.5670   -8.4460   21.1840 C   0  0  0  0  0  0  0  0  0  0  0  0
  -22.1740   -9.4200   20.2500 C   0  0  0  0  0  3  0  0  0  0  0  0
  -22.9180  -10.6000   20.0890 C   0  0  0  0  0  3  0  0  0  0  0  0
  -21.7970   -7.3090   21.2530 O   0  0  0  0  0  0  0  0  0  0  0  0
  -21.7640   -6.5290   22.3800 C   0  0  0  0  0  0  0  0  0  0  0  0
  -21.3920   -7.0530   23.6380 C   0  0  0  0  0  3  0  0  0  0  0  0
  -21.3020   -6.2010   24.7570 C   0  0  0  0  0  3  0  0  0  0  0  0
  -21.5740   -4.8260   24.6190 C   0  0  0  0  0  0  0  0  0  0  0  0
  -21.9390   -4.3010   23.3670 C   0  0  0  0  0  3  0  0  0  0  0  0
  -22.0300   -5.1510   22.2500 C   0  0  0  0  0  0  0  0  0  0  0  0
  -22.3610   -4.6360   21.0410 F   0  0  0  0  0  0  0  0  0  0  0  0
  -21.4800   -4.0070   25.6920 F   0  0  0  0  0  0  0  0  0  0  0  0
  -22.9580  -13.9330   20.9490 C   0  0  0  0  0  0  0  0  0  0  0  0
  -22.2040  -13.2530   21.8040 N   0  0  0  0  0  0  0  0  0  0  0  0
  -22.5450  -14.9570   20.4080 O   0  0  0  0  0  0  0  0  0  0  0  0
  -22.5520  -12.4230   22.2630 H   0  0  0  0  0  0  0  0  0  0  0  0
  -21.2660  -13.5680   22.0070 H   0  0  0  0  0  0  0  0  0  0  0  0
  -25.6210  -15.5810   20.2320 N   0  0  0  0  0  0  0  0  0  0  0  0
  -24.8620  -16.2390   20.3830 H   0  0  0  0  0  0  0  0  0  0  0  0
  -26.5080  -16.0270   20.0520 H   0  0  0  0  0  0  0  0  0  0  0  0
  -30.6120  -21.6830   22.2790 C   0  0  0  0  0  1  0  0  0  0  0  0
  -29.4410  -21.5940   21.2840 C   0  0  0  0  0  3  0  0  0  0  0  0
  -29.2830  -23.1790   20.5470 C   0  0  0  0  0  2  0  0  0  0  0  0
  -28.6190  -24.6670   21.2130 C   0  0  0  0  0  2  0  0  0  0  0  0
  -28.7570  -26.2340   20.8730 O   0  0  0  0  0  0  0  0  0  0  0  0
  -24.6580  -32.0300   23.2700 C   0  0  0  0  0  0  0  0  0  0  0  0
  -27.6580  -27.1980   20.7520 C   0  0  0  0  0  0  0  0  0  0  0  0
  -23.6410  -30.4610   21.6690 C   0  0  0  0  0  3  0  0  0  0  0  0
  -25.2570  -28.8650   20.4490 C   0  0  0  0  0  0  0  0  0  0  0  0
  -26.1890  -30.8410   21.6380 C   0  0  0  0  0  2  0  0  0  0  0  0
  -26.3780  -29.4040   21.0930 C   0  0  0  0  0  0  0  0  0  0  0  0
  -27.5790  -28.5890   21.2160 C   0  0  0  0  0  3  0  0  0  0  0  0
  -26.5020  -26.7780   20.0610 C   0  0  0  0  0  3  0  0  0  0  0  0
  -25.3370  -27.5700   19.9120 C   0  0  0  0  0  3  0  0  0  0  0  0
  -23.9860  -29.7040   20.3580 C   0  0  0  0  0  2  0  0  0  0  0  0
  -24.8460  -31.1390   22.2460 N   0  0  0  0  0  0  0  0  0  0  0  0
  -23.5250  -32.2860   23.7130 O   0  0  0  0  0  0  0  0  0  0  0  0
  -22.9530  -29.4860   22.6590 C   0  0  0  0  0  0  0  0  0  0  0  0
  -21.6370  -29.2630   22.4950 N   0  0  0  0  0  0  0  0  0  0  0  0
  -23.6120  -28.9290   23.5420 O   0  0  0  0  0  0  0  0  0  0  0  0
  -21.1610  -29.7600   21.7570 H   0  0  0  0  0  0  0  0  0  0  0  0
  -18.2700  -28.0170   22.9950 C   0  0  0  0  0  0  0  0  0  0  0  0
  -20.8200  -28.3380   23.2870 C   0  0  0  0  0  3  0  0  0  0  0  0
  -20.9560  -26.8900   22.7610 C   0  0  0  0  0  2  0  0  0  0  0  0
  -19.8750  -26.5130   21.7440 C   0  0  0  0  0  2  0  0  0  0  0  0
  -18.4810  -26.6510   22.3630 C   0  0  0  0  0  2  0  0  0  0  0  0
  -19.3680  -28.8160   23.4140 C   0  0  0  0  0  0  0  0  0  0  0  0
  -19.1150  -30.0890   23.9670 C   0  0  0  0  0  3  0  0  0  0  0  0
  -17.7980  -30.5680   24.1010 C   0  0  0  0  0  3  0  0  0  0  0  0
  -16.7150  -29.7690   23.6960 C   0  0  0  0  0  3  0  0  0  0  0  0
  -16.9510  -28.4950   23.1500 C   0  0  0  0  0  3  0  0  0  0  0  0
  -25.8530  -32.7830   23.9260 C   0  0  0  0  0  3  0  0  0  0  0  0
  -25.4510  -34.1860   24.1240 N   0  0  0  0  0  0  0  0  0  0  0  0
  -25.7740  -35.1970   23.3060 C   0  0  0  0  0  0  0  0  0  0  0  0
  -26.5050  -35.0520   22.3240 O   0  0  0  0  0  0  0  0  0  0  0  0
  -24.8030  -34.3680   24.8770 H   0  0  0  0  0  0  0  0  0  0  0  0
  -23.9850  -36.8700   22.7230 C   0  0  0  0  0  1  0  0  0  0  0  0
  -25.1950  -36.5900   23.6290 C   0  0  0  0  0  3  0  0  0  0  0  0
  -27.2350  -37.6450   24.4980 C   0  0  0  0  0  1  0  0  0  0  0  0
  -26.1810  -37.6850   23.4880 N   0  0  0  0  0  0  0  0  0  0  0  0
  -25.7240  -38.5910   23.5440 H   0  0  0  0  0  0  0  0  0  0  0  0
  -26.3080  -32.1490   25.2980 C   0  0  1  0  0  0  0  0  0  0  0  0
  -25.1430  -31.9020   26.2850 C   0  0  0  0  0  1  0  0  0  0  0  0
  -27.0240  -30.7990   25.0700 C   0  0  0  0  0  1  0  0  0  0  0  0
  -27.3340  -33.0780   25.9900 C   0  0  0  0  0  1  0  0  0  0  0  0
  -30.0500  -17.6740   18.1110 C   0  0  0  0  0  2  0  0  0  0  0  0
  -28.5670  -18.0860   17.9630 C   0  0  0  0  0  2  0  0  0  0  0  0
  -28.0980  -18.0190   16.5690 N   0  0  0  0  0  4  0  0  0  0  0  0
  -28.6740  -18.5750   15.9620 H   0  0  0  0  0  0  0  0  0  0  0  0
  -27.1570  -18.3680   16.5050 H   0  0  0  0  0  0  0  0  0  0  0  0
  -28.0950  -17.0720   16.2300 H   0  0  0  0  0  0  0  0  0  0  0  0
  1 13  1  0
  2  7  1  0
  3  4  1  0
  3  2  1  0
  5  4  1  0
  5 19  1  0
  5  6  1  0
  7  1  1  0
  7  6  1  0
  8  1  2  0
 10  9  1  0
 11 14  1  0
 12 89  1  0
 12 11  1  0
 12 13  1  0
 13  9  1  0
 14 45  1  0
 14 10  1  0
 14 15  1  6
 16 17  2  0
 17 36  1  0
 18 17  1  0
 18 21  1  0
 19 16  1  0
 19 20  1  0
 20 18  2  0
 21 22  1  0
 22 23  2  0
 24 27  1  0
 24 23  1  0
 25 24  2  0
 26 25  1  0
 26 21  2  0
 27 28  1  0
 28 29  1  0
 29 30  2  0
 31 30  1  0
 31 35  1  0
 32 31  2  0
 33 28  2  0
 33 32  1  0
 34 33  1  0
 36 37  1  0
 37 40  1  0
 37 39  1  0
 38 36  2  0
 41 42  1  0
 41 16  1  0
 43 41  1  0
 45 44  1  0
 46 47  1  0
 46 45  1  0
 48 47  1  0
 49 60  2  0
 50 48  1  0
 50 55  1  0
 51 59  1  0
 51 61  1  0
 52 54  1  0
 53 59  1  0
 54 55  2  0
 54 53  1  0
 56 50  2  0
 57 56  1  0
 57 52  2  0
 58 52  1  0
 58 51  1  0
 59 49  1  0
 61 63  2  0
 62 61  1  0
 64 62  1  0
 65 74  2  0
 65 70  1  0
 66 62  1  0
 66 70  1  0
 67 66  1  0
 68 69  1  0
 68 67  1  0
 69 65  1  0
 70 71  2  0
 71 72  1  0
 73 72  2  0
 74 73  1  0
 75 49  1  0
 75 76  1  0
 75 85  1  0
 76 79  1  0
 77 81  1  0
 77 76  1  0
 78 77  2  0
 81 80  1  0
 83 84  1  0
 83 81  1  0
 83 82  1  0
 85 88  1  1
 85 86  1  0
 87 85  1  0
 90 89  1  0
 91 90  1  0
 92 91  1  0
 93 91  1  0
 94 91  1  0
M  ISO  4   1 100  13 100  47 101  48 101
M  END
>  <TORSDO>  (45) 
F 21

>  <SCORE>  (45) 
-12.807

>  <name>  (45) 
44

>  <ligand_id>  (45) 
44

>  <original_smiles>  (45) 
[H]c1c([H])c([H])c2c(c1[H])C([H])([H])C([H])([H])C([H])([H])C2([H])N([H])C(=O)C1([H])N(C(=O)C([H])(N([H])C(=O)C([H])(N([H])C([H])([H])[H])C([H])([H])[H])C(C([H])([H])[H])(C([H])([H])[H])C([H])([H])[H])C([H])([H])c2c([H])c(OC([H])([H])C([H])([H])C([H])(C([H])([H])[H])[N+]3([H])C([H])([H])C([H])([H])N(C(=O)N4C([H])([H])C([H])([H])C([H])([H])C([H])(n5nc(-c6c([H])c([H])c(Oc7c([H])c([H])c(F)c([H])c7F)c([H])c6[H])c(C(=O)N([H])[H])c5N([H])[H])C4([H])[H])C([H])(C([H])([H])C([H])([H])[N+]([H])([H])[H])C3([H])[H])c([H])c([H])c2C1([H])[H]

>  <smiles>  (45) 
[H]c1c([H])c([H])c2c(c1[H])C([H])([H])C([H])([H])C([H])([H])C2([H])N([H])C(=O)C1([H])N(C(=O)C([H])(N([H])C(=O)C([H])(N([H])C([H])([H])[H])C([H])([H])[H])C(C([H])([H])[H])(C([H])([H])[H])C([H])([H])[H])C([H])([H])c2c([H])c(OC([H])([H])C([H])([H])C([H])(C([H])([H])[H])[N+]3([H])C([H])([H])C([H])([H])N(C(=O)N4C([H])([H])C([H])([H])C([H])([H])C([H])(n5nc(-c6c([H])c([H])c(Oc7c([H])c([H])c(F)c([H])c7F)c([H])c6[H])c(C(=O)N([H])[H])c5N([H])[H])C4([H])[H])C([H])(C([H])([H])C([H])([H])[N+]([H])([H])[H])C3([H])[H])c([H])c([H])c2C1([H])[H]

$$$$
45:0:0
     RDKit          3D

 99108  0  0  1  0  0  0  0  0999 V2000
  -27.9770  -22.7050   19.2730 C   0  0  0  0  0  3  0  0  0  0  0  0
  -28.5210  -23.9720   19.0010 C   0  0  0  0  0  3  0  0  0  0  0  0
  -28.7730  -21.5620   19.5720 C   0  0  0  0  0  0  0  0  0  0  0  0
  -30.2250  -21.6460   19.5030 C   0  0  0  0  0  0  0  0  0  0  0  0
  -29.8870  -24.2070   19.1230 C   0  0  0  0  0  0  0  0  0  0  0  0
  -30.7110  -23.0160   19.3360 N   0  0  0  0  0  0  0  0  0  0  0  0
  -32.8330  -16.2580   18.6230 C   0  0  0  0  0  0  0  0  0  0  0  0
  -32.6300  -13.7640   18.0880 C   0  0  0  0  0  2  0  0  0  0  0  0
  -31.5200  -13.4240   17.0750 C   0  0  0  0  0  2  0  0  0  0  0  0
  -30.2420  -13.0830   17.8430 C   0  0  0  0  0  2  0  0  0  0  0  0
  -29.9410  -14.1760   18.9060 C   0  0  0  0  0  3  0  0  0  0  0  0
  -31.1680  -14.5500   19.7780 C   0  0  0  0  0  2  0  0  0  0  0  0
  -32.2450  -14.9910   18.8850 N   0  0  0  0  0  0  0  0  0  0  0  0
  -33.8240  -16.0920   17.8990 O   0  0  0  0  0  0  0  0  0  0  0  0
  -33.6080  -19.9460   19.9410 C   0  0  0  0  0  2  0  0  0  0  0  0
  -31.4030  -18.7580   18.8090 C   0  0  0  0  0  3  0  0  0  0  0  0
  -31.1240  -20.1730   19.7710 C   0  0  0  0  0  0  0  0  0  0  0  0
  -32.3390  -20.2550   20.7790 C   0  0  0  0  0  3  0  0  0  0  0  0
  -33.7850  -18.5380   19.2120 C   0  0  1  0  0  0  0  0  0  0  0  0
  -34.3220  -18.8500   17.7650 C   0  0  0  0  0  1  0  0  0  0  0  0
  -34.9600  -17.8350   19.9690 C   0  0  0  0  0  1  0  0  0  0  0  0
  -32.5370  -17.6350   19.1140 N   0  0  0  0  0  0  0  0  0  0  0  0
  -27.9310  -14.7460   20.3620 C   0  0  0  0  0  0  0  0  0  0  0  0
  -26.9430  -13.9900   20.9080 C   0  0  0  0  0  0  0  0  0  0  0  0
  -27.2470  -12.6320   20.5660 C   0  0  0  0  0  0  0  0  0  0  0  0
  -28.7770  -13.8640   19.7160 N   0  0  0  0  0  0  0  0  0  0  0  0
  -28.3910  -12.5730   19.8900 N   0  0  0  0  0  0  0  0  0  0  0  0
  -26.4850  -11.4000   20.7850 C   0  0  0  0  0  0  0  0  0  0  0  0
  -26.6570  -10.6260   21.9540 C   0  0  0  0  0  3  0  0  0  0  0  0
  -25.8970   -9.4540   22.1520 C   0  0  0  0  0  3  0  0  0  0  0  0
  -24.9480   -9.0490   21.1810 C   0  0  0  0  0  0  0  0  0  0  0  0
  -24.8070   -9.8090   20.0050 C   0  0  0  0  0  3  0  0  0  0  0  0
  -25.5690  -10.9700   19.8060 C   0  0  0  0  0  3  0  0  0  0  0  0
  -24.1780   -7.9120   21.2800 O   0  0  0  0  0  0  0  0  0  0  0  0
  -23.2320   -7.7630   22.2640 C   0  0  0  0  0  0  0  0  0  0  0  0
  -22.2930   -8.7790   22.5580 C   0  0  0  0  0  3  0  0  0  0  0  0
  -21.2970   -8.5560   23.5320 C   0  0  0  0  0  3  0  0  0  0  0  0
  -21.2270   -7.3170   24.1970 C   0  0  0  0  0  0  0  0  0  0  0  0
  -22.1540   -6.3040   23.8990 C   0  0  0  0  0  3  0  0  0  0  0  0
  -23.1520   -6.5270   22.9340 C   0  0  0  0  0  0  0  0  0  0  0  0
  -24.0290   -5.5390   22.6360 F   0  0  0  0  0  0  0  0  0  0  0  0
  -20.2680   -7.0980   25.1270 F   0  0  0  0  0  0  0  0  0  0  0  0
  -25.7260  -14.4930   21.6280 C   0  0  0  0  0  0  0  0  0  0  0  0
  -25.1450  -13.6820   22.4980 N   0  0  0  0  0  0  0  0  0  0  0  0
  -25.3160  -15.6430   21.4470 O   0  0  0  0  0  0  0  0  0  0  0  0
  -25.5110  -12.7600   22.6800 H   0  0  0  0  0  0  0  0  0  0  0  0
  -24.3140  -13.9850   22.9920 H   0  0  0  0  0  0  0  0  0  0  0  0
  -28.1830  -16.1190   20.3240 N   0  0  0  0  0  0  0  0  0  0  0  0
  -27.5450  -16.7980   20.7180 H   0  0  0  0  0  0  0  0  0  0  0  0
  -28.9700  -16.5410   19.8490 H   0  0  0  0  0  0  0  0  0  0  0  0
  -31.5760  -20.3820   23.2580 C   0  0  0  0  0  1  0  0  0  0  0  0
  -33.6590  -19.1140   22.7120 C   0  0  0  0  0  1  0  0  0  0  0  0
  -31.3950  -18.1890   22.1490 C   0  0  0  0  0  1  0  0  0  0  0  0
  -32.2430  -19.4850   22.1840 C   0  0  2  0  0  0  0  0  0  0  0  0
  -30.8370  -26.0070   17.3530 C   0  0  0  0  0  1  0  0  0  0  0  0
  -30.3490  -25.8050   18.8050 C   0  0  0  0  0  3  0  0  0  0  0  0
  -29.7460  -27.2030   19.2890 O   0  0  0  0  0  0  0  0  0  0  0  0
  -24.7470  -30.8420   23.2280 C   0  0  0  0  0  0  0  0  0  0  0  0
  -28.4380  -27.8380   19.2860 C   0  0  0  0  0  0  0  0  0  0  0  0
  -23.9200  -29.5330   21.2930 C   0  0  0  0  0  3  0  0  0  0  0  0
  -25.6950  -28.8100   19.5690 C   0  0  0  0  0  0  0  0  0  0  0  0
  -26.2750  -30.5830   21.2310 C   0  0  0  0  0  2  0  0  0  0  0  0
  -26.7150  -29.4470   20.2830 C   0  0  0  0  0  0  0  0  0  0  0  0
  -28.0700  -28.9740   20.1260 C   0  0  0  0  0  3  0  0  0  0  0  0
  -27.3650  -27.3190   18.5330 C   0  0  0  0  0  3  0  0  0  0  0  0
  -26.0310  -27.7750   18.6730 C   0  0  0  0  0  3  0  0  0  0  0  0
  -24.2600  -29.2440   19.8030 C   0  0  0  0  0  2  0  0  0  0  0  0
  -24.9890  -30.3440   21.9710 N   0  0  0  0  0  0  0  0  0  0  0  0
  -23.6580  -30.6630   23.7950 O   0  0  0  0  0  0  0  0  0  0  0  0
  -23.6190  -28.1930   22.0120 C   0  0  0  0  0  0  0  0  0  0  0  0
  -22.4430  -27.6000   21.7390 N   0  0  0  0  0  0  0  0  0  0  0  0
  -24.4540  -27.6900   22.7700 O   0  0  0  0  0  0  0  0  0  0  0  0
  -21.8000  -28.0720   21.1180 H   0  0  0  0  0  0  0  0  0  0  0  0
  -19.7580  -25.1750   21.6270 C   0  0  0  0  0  0  0  0  0  0  0  0
  -21.9990  -26.3010   22.2500 C   0  0  0  0  0  3  0  0  0  0  0  0
  -22.6740  -25.1390   21.4860 C   0  0  0  0  0  2  0  0  0  0  0  0
  -21.8480  -24.6290   20.3040 C   0  0  0  0  0  2  0  0  0  0  0  0
  -20.4790  -24.1360   20.7830 C   0  0  0  0  0  2  0  0  0  0  0  0
  -20.4700  -26.2050   22.3000 C   0  0  0  0  0  0  0  0  0  0  0  0
  -19.7500  -27.1680   23.0410 C   0  0  0  0  0  3  0  0  0  0  0  0
  -18.3440  -27.1100   23.1170 C   0  0  0  0  0  3  0  0  0  0  0  0
  -17.6460  -26.0740   22.4690 C   0  0  0  0  0  3  0  0  0  0  0  0
  -18.3550  -25.1090   21.7300 C   0  0  0  0  0  3  0  0  0  0  0  0
  -25.8150  -31.6810   24.0010 C   0  0  0  0  0  3  0  0  0  0  0  0
  -26.2280  -31.0500   25.3860 C   0  0  1  0  0  0  0  0  0  0  0  0
  -25.0230  -30.7120   26.2940 C   0  0  0  0  0  1  0  0  0  0  0  0
  -27.0440  -29.7520   25.1870 C   0  0  0  0  0  1  0  0  0  0  0  0
  -27.1470  -32.0270   26.1570 C   0  0  0  0  0  1  0  0  0  0  0  0
  -25.2760  -33.0360   24.2040 N   0  0  0  0  0  0  0  0  0  0  0  0
  -25.6530  -34.1210   23.5170 C   0  0  0  0  0  0  0  0  0  0  0  0
  -26.5580  -34.1050   22.6790 O   0  0  0  0  0  0  0  0  0  0  0  0
  -24.5100  -33.1300   24.8560 H   0  0  0  0  0  0  0  0  0  0  0  0
  -23.9460  -35.7550   22.6530 C   0  0  0  0  0  1  0  0  0  0  0  0
  -24.9040  -35.4340   23.8110 C   0  0  0  0  0  3  0  0  0  0  0  0
  -26.5580  -36.4900   25.2900 C   0  0  0  0  0  1  0  0  0  0  0  0
  -25.7990  -36.5870   24.0460 N   0  0  0  0  0  0  0  0  0  0  0  0
  -25.2650  -37.4510   24.0750 H   0  0  0  0  0  0  0  0  0  0  0  0
  -26.6940  -20.3830   20.2500 C   0  0  0  0  0  1  0  0  0  0  0  0
  -28.1080  -20.3770   19.9000 O   0  0  0  0  0  0  0  0  0  0  0  0
  1  3  1  0
  2  5  1  0
  2  1  2  0
  3 99  1  0
  4  3  2  0
  4 17  1  0
  5  6  2  0
  6  4  1  0
  7 13  1  0
  7 22  1  0
  8 13  1  0
  9 10  1  0
  9  8  1  0
 11 10  1  0
 11 26  1  0
 11 12  1  0
 13 12  1  0
 14  7  2  0
 15 18  1  0
 16 22  1  0
 16 17  2  0
 17 18  1  0
 18 54  1  0
 19 15  1  0
 19 21  1  1
 20 19  1  0
 22 19  1  0
 23 24  2  0
 24 43  1  0
 25 28  1  0
 25 24  1  0
 26 27  1  0
 26 23  1  0
 27 25  2  0
 28 29  1  0
 29 30  2  0
 31 34  1  0
 31 30  1  0
 32 31  2  0
 33 32  1  0
 33 28  2  0
 34 35  1  0
 35 36  2  0
 35 40  1  0
 36 37  1  0
 37 38  2  0
 38 42  1  0
 39 38  1  0
 40 39  2  0
 41 40  1  0
 43 44  1  0
 44 46  1  0
 44 47  1  0
 45 43  2  0
 48 23  1  0
 48 49  1  0
 50 48  1  0
 54 53  1  6
 54 52  1  0
 54 51  1  0
 56 55  1  0
 56  5  1  0
 56 57  1  0
 58 69  2  0
 59 57  1  0
 59 64  1  0
 60 68  1  0
 60 70  1  0
 61 67  1  0
 61 63  1  0
 62 68  1  0
 63 62  1  0
 64 63  2  0
 65 66  1  0
 65 59  2  0
 66 61  2  0
 67 60  1  0
 68 58  1  0
 70 72  2  0
 71 70  1  0
 73 71  1  0
 74 83  2  0
 74 79  1  0
 75 71  1  0
 75 79  1  0
 76 75  1  0
 77 78  1  0
 77 76  1  0
 78 74  1  0
 79 80  2  0
 80 81  1  0
 82 81  2  0
 83 82  1  0
 84 58  1  0
 84 89  1  0
 84 85  1  0
 85 88  1  1
 85 86  1  0
 87 85  1  0
 89 92  1  0
 90 94  1  0
 90 89  1  0
 91 90  2  0
 94 93  1  0
 94 96  1  0
 96 97  1  0
 96 95  1  0
 99 98  1  0
M  ISO  4   7 100  22 100  56 101  57 101
M  END
>  <TORSDO>  (46) 
F 19

>  <SCORE>  (46) 
-2.490

>  <name>  (46) 
45

>  <ligand_id>  (46) 
45

>  <original_smiles>  (46) 
[H]c1c(C([H])(Oc2c([H])c([H])c3c(c2[H])C([H])([H])N(C(=O)C([H])(N([H])C(=O)C([H])(N([H])C([H])([H])[H])C([H])([H])[H])C(C([H])([H])[H])(C([H])([H])[H])C([H])([H])[H])C([H])(C(=O)N([H])C2([H])c4c([H])c([H])c([H])c([H])c4C([H])([H])C([H])([H])C2([H])[H])C3([H])[H])C([H])([H])[H])nc(C2([H])C([H])([H])N(C(=O)N3C([H])([H])C([H])([H])C([H])([H])C([H])(n4nc(-c5c([H])c([H])c(Oc6c([H])c([H])c(F)c([H])c6F)c([H])c5[H])c(C(=O)N([H])[H])c4N([H])[H])C3([H])[H])C(C([H])([H])[H])(C([H])([H])[H])C([H])([H])C2([H])C(C([H])([H])[H])(C([H])([H])[H])C([H])([H])[H])c(OC([H])([H])[H])c1[H]

>  <smiles>  (46) 
[H]c1c(C([H])(Oc2c([H])c([H])c3c(c2[H])C([H])([H])N(C(=O)C([H])(N([H])C(=O)C([H])(N([H])C([H])([H])[H])C([H])([H])[H])C(C([H])([H])[H])(C([H])([H])[H])C([H])([H])[H])C([H])(C(=O)N([H])C2([H])c4c([H])c([H])c([H])c([H])c4C([H])([H])C([H])([H])C2([H])[H])C3([H])[H])C([H])([H])[H])nc(C2([H])C([H])([H])N(C(=O)N3C([H])([H])C([H])([H])C([H])([H])C([H])(n4nc(-c5c([H])c([H])c(Oc6c([H])c([H])c(F)c([H])c6F)c([H])c5[H])c(C(=O)N([H])[H])c4N([H])[H])C3([H])[H])C(C([H])([H])[H])(C([H])([H])[H])C([H])([H])C2([H])C(C([H])([H])[H])(C([H])([H])[H])C([H])([H])[H])c(OC([H])([H])[H])c1[H]

$$$$
47:0:0
     RDKit          3D

 96105  0  0  1  0  0  0  0  0999 V2000
  -29.8680  -18.7280   21.1760 C   0  0  0  0  0  2  0  0  0  0  0  0
  -32.2120  -18.6250   21.6490 C   0  0  0  0  0  2  0  0  0  0  0  0
  -31.0650  -17.7680   21.0890 C   0  0  0  0  0  3  0  0  0  0  0  0
  -30.4550  -20.1480   20.9600 C   0  0  0  0  0  3  0  0  0  0  0  0
  -31.8290  -20.0560   21.5410 N   0  0  2  0  0  4  0  0  0  0  0  0
  -31.7120  -20.3450   22.5010 H   0  0  0  0  0  0  0  0  0  0  0  0
  -33.1890  -20.7450   19.4950 C   0  0  0  0  0  1  0  0  0  0  0  0
  -34.1810  -20.9070   21.8310 C   0  0  0  0  0  1  0  0  0  0  0  0
  -32.8860  -20.9610   20.9940 C   0  0  0  0  0  3  0  0  0  0  0  0
  -29.5810  -21.2640   21.6270 C   0  0  0  0  0  2  0  0  0  0  0  0
  -27.9470  -23.2220   21.5030 C   0  0  0  0  0  2  0  0  0  0  0  0
  -30.2850  -23.5390   20.5350 C   0  0  0  0  0  2  0  0  0  0  0  0
  -27.9730  -24.7660   21.5010 C   0  0  0  0  0  2  0  0  0  0  0  0
  -29.8460  -24.8450   19.8170 C   0  0  0  0  0  2  0  0  0  0  0  0
  -29.1510  -22.5230   20.8020 C   0  0  0  0  0  3  0  0  0  0  0  0
  -28.4220  -25.3430   20.1510 C   0  0  0  0  0  3  0  0  0  0  0  0
  -28.4260  -26.7860   20.1780 O   0  0  0  0  0  0  0  0  0  0  0  0
  -24.5430  -31.9250   23.2290 C   0  0  0  0  0  0  0  0  0  0  0  0
  -27.2280  -27.4820   20.1680 C   0  0  0  0  0  0  0  0  0  0  0  0
  -23.3560  -30.5220   21.5750 C   0  0  0  0  0  3  0  0  0  0  0  0
  -24.8240  -28.9870   20.1650 C   0  0  0  0  0  0  0  0  0  0  0  0
  -25.8840  -30.8840   21.4020 C   0  0  0  0  0  2  0  0  0  0  0  0
  -25.9780  -29.5130   20.7590 C   0  0  0  0  0  0  0  0  0  0  0  0
  -27.1800  -28.7690   20.7540 C   0  0  0  0  0  3  0  0  0  0  0  0
  -26.0510  -26.9700   19.5720 C   0  0  0  0  0  3  0  0  0  0  0  0
  -24.8560  -27.7140   19.5710 C   0  0  0  0  0  3  0  0  0  0  0  0
  -23.5790  -29.8440   20.1980 C   0  0  0  0  0  2  0  0  0  0  0  0
  -24.6120  -31.1260   22.1270 N   0  0  0  0  0  0  0  0  0  0  0  0
  -23.4560  -32.1940   23.7600 O   0  0  0  0  0  0  0  0  0  0  0  0
  -22.6970  -29.4990   22.5290 C   0  0  0  0  0  0  0  0  0  0  0  0
  -21.3760  -29.3080   22.3820 N   0  0  0  0  0  0  0  0  0  0  0  0
  -23.3730  -28.8810   23.3560 O   0  0  0  0  0  0  0  0  0  0  0  0
  -20.8950  -29.8580   21.6840 H   0  0  0  0  0  0  0  0  0  0  0  0
  -17.9990  -28.1080   22.8390 C   0  0  0  0  0  0  0  0  0  0  0  0
  -20.5520  -28.3670   23.1390 C   0  0  0  0  0  3  0  0  0  0  0  0
  -20.6650  -26.9390   22.5590 C   0  0  0  0  0  2  0  0  0  0  0  0
  -19.5730  -26.6200   21.5320 C   0  0  0  0  0  2  0  0  0  0  0  0
  -18.1840  -26.7610   22.1610 C   0  0  0  0  0  2  0  0  0  0  0  0
  -19.1120  -28.8690   23.2830 C   0  0  0  0  0  0  0  0  0  0  0  0
  -18.8870  -30.1320   23.8740 C   0  0  0  0  0  3  0  0  0  0  0  0
  -17.5800  -30.6320   24.0280 C   0  0  0  0  0  3  0  0  0  0  0  0
  -16.4810  -29.8680   23.6010 C   0  0  0  0  0  3  0  0  0  0  0  0
  -16.6900  -28.6070   23.0110 C   0  0  0  0  0  3  0  0  0  0  0  0
  -25.8240  -32.5570   23.8620 C   0  0  0  0  0  3  0  0  0  0  0  0
  -26.3250  -31.7900   25.1470 C   0  0  1  0  0  0  0  0  0  0  0  0
  -25.2190  -31.5490   26.2010 C   0  0  0  0  0  1  0  0  0  0  0  0
  -26.9170  -30.4130   24.7610 C   0  0  0  0  0  1  0  0  0  0  0  0
  -27.4650  -32.5880   25.8210 C   0  0  0  0  0  1  0  0  0  0  0  0
  -25.5130  -33.9570   24.1800 N   0  0  0  0  0  0  0  0  0  0  0  0
  -25.8610  -35.0040   23.4220 C   0  0  0  0  0  0  0  0  0  0  0  0
  -26.5490  -34.8930   22.4030 O   0  0  0  0  0  0  0  0  0  0  0  0
  -24.8990  -34.1150   24.9680 H   0  0  0  0  0  0  0  0  0  0  0  0
  -24.1560  -36.8070   23.0170 C   0  0  0  0  0  1  0  0  0  0  0  0
  -25.3700  -36.3960   23.8640 C   0  0  0  0  0  3  0  0  0  0  0  0
  -27.4810  -37.2730   24.7620 C   0  0  0  0  0  1  0  0  0  0  0  0
  -26.4120  -37.4410   23.7800 N   0  0  0  0  0  0  0  0  0  0  0  0
  -26.0070  -38.3640   23.9090 H   0  0  0  0  0  0  0  0  0  0  0  0
  -30.9420  -16.4220   21.8620 C   0  0  0  0  0  2  0  0  0  0  0  0
  -30.6160  -14.4990   20.3060 C   0  0  0  0  0  0  0  0  0  0  0  0
  -30.2040  -12.4390   19.0060 C   0  0  0  0  0  2  0  0  0  0  0  0
  -29.2000  -12.6940   17.8650 C   0  0  0  0  0  2  0  0  0  0  0  0
  -27.7550  -12.5210   18.3660 C   0  0  0  0  0  2  0  0  0  0  0  0
  -27.4810  -13.3000   19.6800 C   0  0  0  0  0  3  0  0  0  0  0  0
  -28.5900  -13.0400   20.7240 C   0  0  0  0  0  2  0  0  0  0  0  0
  -29.8870  -13.3670   20.1040 N   0  0  0  0  0  0  0  0  0  0  0  0
  -31.6600  -14.7430   19.6960 O   0  0  0  0  0  0  0  0  0  0  0  0
  -30.1450  -15.3610   21.2260 N   0  0  0  0  0  0  0  0  0  0  0  0
  -29.2630  -15.1210   21.6570 H   0  0  0  0  0  0  0  0  0  0  0  0
  -25.1070  -13.8570   20.5030 C   0  0  0  0  0  0  0  0  0  0  0  0
  -24.0660  -13.0620   20.9010 C   0  0  0  0  0  0  0  0  0  0  0  0
  -24.5430  -11.7180   20.8210 C   0  0  0  0  0  0  0  0  0  0  0  0
  -26.1540  -12.9960   20.2110 N   0  0  0  0  0  0  0  0  0  0  0  0
  -25.8200  -11.7030   20.4590 N   0  0  0  0  0  0  0  0  0  0  0  0
  -23.8410  -10.4410   21.0160 C   0  0  0  0  0  0  0  0  0  0  0  0
  -24.3050   -9.4770   21.9370 C   0  0  0  0  0  3  0  0  0  0  0  0
  -23.6040   -8.2660   22.1210 C   0  0  0  0  0  3  0  0  0  0  0  0
  -22.4240   -8.0100   21.3820 C   0  0  0  0  0  0  0  0  0  0  0  0
  -21.9800   -8.9640   20.4490 C   0  0  0  0  0  3  0  0  0  0  0  0
  -22.6810  -10.1680   20.2650 C   0  0  0  0  0  3  0  0  0  0  0  0
  -21.6920   -6.8510   21.4740 O   0  0  0  0  0  0  0  0  0  0  0  0
  -21.6600   -6.1110   22.6280 C   0  0  0  0  0  0  0  0  0  0  0  0
  -21.1950   -6.6520   23.8480 C   0  0  0  0  0  3  0  0  0  0  0  0
  -21.1120   -5.8360   24.9940 C   0  0  0  0  0  3  0  0  0  0  0  0
  -21.4830   -4.4800   24.9210 C   0  0  0  0  0  0  0  0  0  0  0  0
  -21.9400   -3.9380   23.7070 C   0  0  0  0  0  3  0  0  0  0  0  0
  -22.0250   -4.7510   22.5640 C   0  0  0  0  0  0  0  0  0  0  0  0
  -22.4450   -4.2200   21.3900 F   0  0  0  0  0  0  0  0  0  0  0  0
  -21.3970   -3.6940   26.0200 F   0  0  0  0  0  0  0  0  0  0  0  0
  -22.6750  -13.5140   21.2430 C   0  0  0  0  0  0  0  0  0  0  0  0
  -21.9930  -12.7820   22.1160 N   0  0  0  0  0  0  0  0  0  0  0  0
  -22.2060  -14.5490   20.7730 O   0  0  0  0  0  0  0  0  0  0  0  0
  -22.3860  -11.9450   22.5170 H   0  0  0  0  0  0  0  0  0  0  0  0
  -21.0610  -13.0660   22.3880 H   0  0  0  0  0  0  0  0  0  0  0  0
  -25.2470  -15.2330   20.3470 N   0  0  0  0  0  0  0  0  0  0  0  0
  -24.4790  -15.8770   20.5010 H   0  0  0  0  0  0  0  0  0  0  0  0
  -26.0820  -15.6890   20.0010 H   0  0  0  0  0  0  0  0  0  0  0  0
  3  1  1  0
  3  2  1  0
  3 58  1  0
  4  1  1  0
  4  5  1  0
  4 10  1  0
  5  2  1  0
  5  6  1  1
  7  9  1  0
  9  5  1  0
  9  8  1  0
 12 15  1  0
 13 11  1  0
 14 16  1  0
 14 12  1  0
 15 11  1  0
 15 10  1  0
 16 17  1  0
 16 13  1  0
 18 29  2  0
 19 17  1  0
 19 24  1  0
 20 28  1  0
 20 30  1  0
 21 27  1  0
 21 23  1  0
 22 28  1  0
 23 22  1  0
 24 23  2  0
 25 19  2  0
 26 25  1  0
 26 21  2  0
 27 20  1  0
 28 18  1  0
 30 32  2  0
 31 30  1  0
 33 31  1  0
 34 43  2  0
 34 39  1  0
 35 31  1  0
 35 39  1  0
 36 35  1  0
 37 38  1  0
 37 36  1  0
 38 34  1  0
 39 40  2  0
 40 41  1  0
 42 41  2  0
 43 42  1  0
 44 18  1  0
 44 49  1  0
 44 45  1  0
 45 48  1  1
 45 46  1  0
 47 45  1  0
 49 52  1  0
 50 54  1  0
 50 49  1  0
 51 50  2  0
 54 53  1  0
 56 54  1  0
 56 57  1  0
 56 55  1  0
 59 67  1  0
 60 65  1  0
 61 62  1  0
 61 60  1  0
 63 62  1  0
 63 72  1  0
 63 64  1  0
 65 59  1  0
 65 64  1  0
 66 59  2  0
 67 68  1  0
 67 58  1  0
 69 70  2  0
 70 89  1  0
 71 70  1  0
 71 74  1  0
 72 73  1  0
 72 69  1  0
 73 71  2  0
 74 75  1  0
 75 76  2  0
 77 80  1  0
 77 76  1  0
 78 77  2  0
 79 78  1  0
 79 74  2  0
 80 81  1  0
 81 82  1  0
 82 83  2  0
 84 83  1  0
 84 88  1  0
 85 84  2  0
 86 81  2  0
 86 85  1  0
 87 86  1  0
 89 90  1  0
 90 93  1  0
 90 92  1  0
 91 89  2  0
 94 95  1  0
 94 69  1  0
 96 94  1  0
M  ISO  4  16 101  17 101  59 100  67 100
M  END
>  <TORSDO>  (47) 
F 20

>  <SCORE>  (47) 
-14.134

>  <name>  (47) 
47

>  <ligand_id>  (47) 
47

>  <original_smiles>  (47) 
[H]c1c([H])c([H])c2c(c1[H])C([H])([H])C([H])([H])C([H])([H])C2([H])N([H])C(=O)C1([H])N(C(=O)C([H])(N([H])C(=O)C([H])(N([H])C([H])([H])[H])C([H])([H])[H])C(C([H])([H])[H])(C([H])([H])[H])C([H])([H])[H])C([H])([H])c2c([H])c(OC3([H])C([H])([H])C([H])([H])C([H])(C([H])([H])C4([H])C([H])([H])C([H])(C([H])([H])N([H])C(=O)N5C([H])([H])C([H])([H])C([H])([H])C([H])(n6nc(-c7c([H])c([H])c(Oc8c([H])c([H])c(F)c([H])c8F)c([H])c7[H])c(C(=O)N([H])[H])c6N([H])[H])C5([H])[H])C([H])([H])[N+]4([H])C([H])(C([H])([H])[H])C([H])([H])[H])C([H])([H])C3([H])[H])c([H])c([H])c2C1([H])[H]

>  <smiles>  (47) 
[H]c1c([H])c([H])c2c(c1[H])C([H])([H])C([H])([H])C([H])([H])C2([H])N([H])C(=O)C1([H])N(C(=O)C([H])(N([H])C(=O)C([H])(N([H])C([H])([H])[H])C([H])([H])[H])C(C([H])([H])[H])(C([H])([H])[H])C([H])([H])[H])C([H])([H])c2c([H])c(OC3([H])C([H])([H])C([H])([H])C([H])(C([H])([H])C4([H])C([H])([H])C([H])(C([H])([H])N([H])C(=O)N5C([H])([H])C([H])([H])C([H])([H])C([H])(n6nc(-c7c([H])c([H])c(Oc8c([H])c([H])c(F)c([H])c8F)c([H])c7[H])c(C(=O)N([H])[H])c6N([H])[H])C5([H])[H])C([H])([H])[N+]4([H])C([H])(C([H])([H])[H])C([H])([H])[H])C([H])([H])C3([H])[H])c([H])c([H])c2C1([H])[H]

$$$$
48:0:0
     RDKit          3D

 95103  0  0  1  0  0  0  0  0999 V2000
  -28.6890  -19.1950   20.8860 C   0  0  0  0  0  2  0  0  0  0  0  0
  -28.0020  -20.5420   20.4860 C   0  0  0  0  0  2  0  0  0  0  0  0
  -30.5320  -21.1400   18.9670 C   0  0  0  0  0  2  0  0  0  0  0  0
  -29.3840  -22.2220   19.3140 C   0  0  0  0  0  3  0  0  0  0  0  0
  -29.8670  -18.7370   19.9850 C   0  0  0  0  0  3  0  0  0  0  0  0
  -28.8490  -21.7570   20.6180 N   0  0  0  0  0  0  0  0  0  0  0  0
  -30.7910  -19.9440   19.8940 N   0  0  0  0  0  4  0  0  0  0  0  0
  -30.8640  -20.3310   20.8210 H   0  0  0  0  0  0  0  0  0  0  0  0
  -31.7010  -19.5940   19.6440 H   0  0  0  0  0  0  0  0  0  0  0  0
  -28.9300  -22.2690   22.9850 C   0  0  0  0  0  1  0  0  0  0  0  0
  -26.9120  -23.0600   21.5910 C   0  0  0  0  0  1  0  0  0  0  0  0
  -28.4200  -22.7470   21.6200 C   0  0  0  0  0  3  0  0  0  0  0  0
  -29.7080  -23.8250   19.1100 C   0  0  0  0  0  2  0  0  0  0  0  0
  -28.4800  -24.8500   17.0790 C   0  0  0  0  0  1  0  0  0  0  0  0
  -28.5610  -24.8780   18.6190 C   0  0  0  0  0  3  0  0  0  0  0  0
  -28.6280  -26.3360   18.9570 O   0  0  0  0  0  0  0  0  0  0  0  0
  -24.8010  -31.1100   22.7890 C   0  0  0  0  0  0  0  0  0  0  0  0
  -27.4580  -27.1360   19.0200 C   0  0  0  0  0  0  0  0  0  0  0  0
  -23.5790  -29.9190   21.0020 C   0  0  0  0  0  3  0  0  0  0  0  0
  -25.0240  -28.6520   19.3040 C   0  0  0  0  0  0  0  0  0  0  0  0
  -26.0910  -30.3650   20.7680 C   0  0  0  0  0  2  0  0  0  0  0  0
  -26.1970  -29.0940   19.9300 C   0  0  0  0  0  0  0  0  0  0  0  0
  -27.4110  -28.3550   19.7710 C   0  0  0  0  0  3  0  0  0  0  0  0
  -26.2500  -26.7600   18.3760 C   0  0  0  0  0  3  0  0  0  0  0  0
  -25.0590  -27.5020   18.5030 C   0  0  0  0  0  3  0  0  0  0  0  0
  -23.7520  -29.4500   19.5290 C   0  0  0  0  0  2  0  0  0  0  0  0
  -24.8460  -30.4710   21.5810 N   0  0  0  0  0  0  0  0  0  0  0  0
  -23.7320  -31.2700   23.3950 O   0  0  0  0  0  0  0  0  0  0  0  0
  -22.9840  -28.7540   21.8300 C   0  0  0  0  0  0  0  0  0  0  0  0
  -21.6570  -28.5560   21.7310 N   0  0  0  0  0  0  0  0  0  0  0  0
  -23.7100  -28.0310   22.5170 O   0  0  0  0  0  0  0  0  0  0  0  0
  -21.1260  -29.2080   21.1700 H   0  0  0  0  0  0  0  0  0  0  0  0
  -18.3370  -27.1620   22.1260 C   0  0  0  0  0  0  0  0  0  0  0  0
  -20.8930  -27.4830   22.3680 C   0  0  0  0  0  3  0  0  0  0  0  0
  -21.0310  -26.1550   21.5890 C   0  0  0  0  0  2  0  0  0  0  0  0
  -19.9080  -25.9340   20.5680 C   0  0  0  0  0  2  0  0  0  0  0  0
  -18.5430  -25.9280   21.2640 C   0  0  0  0  0  2  0  0  0  0  0  0
  -19.4410  -27.9020   22.6330 C   0  0  0  0  0  0  0  0  0  0  0  0
  -19.1930  -29.0580   23.4020 C   0  0  0  0  0  3  0  0  0  0  0  0
  -17.8760  -29.4810   23.6670 C   0  0  0  0  0  3  0  0  0  0  0  0
  -16.7890  -28.7360   23.1770 C   0  0  0  0  0  3  0  0  0  0  0  0
  -17.0210  -27.5810   22.4130 C   0  0  0  0  0  3  0  0  0  0  0  0
  -26.0890  -31.6900   23.4540 C   0  0  0  0  0  3  0  0  0  0  0  0
  -26.6870  -30.7410   24.5620 C   0  0  1  0  0  0  0  0  0  0  0  0
  -25.6530  -30.3000   25.6260 C   0  0  0  0  0  1  0  0  0  0  0  0
  -27.2880  -29.4680   23.9220 C   0  0  0  0  0  1  0  0  0  0  0  0
  -27.8420  -31.4610   25.2940 C   0  0  0  0  0  1  0  0  0  0  0  0
  -25.7430  -33.0000   24.0260 N   0  0  0  0  0  0  0  0  0  0  0  0
  -26.0110  -34.1770   23.4460 C   0  0  0  0  0  0  0  0  0  0  0  0
  -26.6460  -34.2730   22.3920 O   0  0  0  0  0  0  0  0  0  0  0  0
  -25.1680  -32.9900   24.8560 H   0  0  0  0  0  0  0  0  0  0  0  0
  -24.2150  -35.9400   23.4420 C   0  0  0  0  0  1  0  0  0  0  0  0
  -25.4950  -35.4530   24.1420 C   0  0  0  0  0  3  0  0  0  0  0  0
  -27.6300  -36.2640   25.0470 C   0  0  0  0  0  1  0  0  0  0  0  0
  -26.4910  -36.5470   24.1790 N   0  0  0  0  0  0  0  0  0  0  0  0
  -26.0610  -37.4140   24.4890 H   0  0  0  0  0  0  0  0  0  0  0  0
  -30.6180  -17.3640   20.4920 C   0  0  0  0  0  2  0  0  0  0  0  0
  -30.7670  -14.7530   20.1900 C   0  0  0  0  0  0  0  0  0  0  0  0
  -30.5550  -12.4120   19.3320 C   0  0  0  0  0  2  0  0  0  0  0  0
  -29.6150  -12.3580   18.1050 C   0  0  0  0  0  2  0  0  0  0  0  0
  -28.1500  -12.1890   18.5500 C   0  0  0  0  0  2  0  0  0  0  0  0
  -27.7580  -13.1680   19.6910 C   0  0  0  0  0  3  0  0  0  0  0  0
  -28.8210  -13.2170   20.8120 C   0  0  0  0  0  2  0  0  0  0  0  0
  -30.1100  -13.5410   20.1820 N   0  0  0  0  0  0  0  0  0  0  0  0
  -31.9570  -14.7980   19.8670 O   0  0  0  0  0  0  0  0  0  0  0  0
  -30.0570  -15.9360   20.3740 N   0  0  0  0  0  0  0  0  0  0  0  0
  -29.0700  -15.8300   20.5560 H   0  0  0  0  0  0  0  0  0  0  0  0
  -25.4040  -13.7940   20.5060 C   0  0  0  0  0  0  0  0  0  0  0  0
  -24.3290  -13.0330   20.8800 C   0  0  0  0  0  0  0  0  0  0  0  0
  -24.7590  -11.6730   20.7950 C   0  0  0  0  0  0  0  0  0  0  0  0
  -26.4170  -12.8970   20.2080 N   0  0  0  0  0  0  0  0  0  0  0  0
  -26.0390  -11.6150   20.4490 N   0  0  0  0  0  0  0  0  0  0  0  0
  -24.0040  -10.4220   20.9580 C   0  0  0  0  0  0  0  0  0  0  0  0
  -24.4470   -9.4020   21.8300 C   0  0  0  0  0  3  0  0  0  0  0  0
  -23.6920   -8.2190   21.9920 C   0  0  0  0  0  3  0  0  0  0  0  0
  -22.4790   -8.0500   21.2790 C   0  0  0  0  0  0  0  0  0  0  0  0
  -22.0530   -9.0610   20.3990 C   0  0  0  0  0  3  0  0  0  0  0  0
  -22.8090  -10.2330   20.2360 C   0  0  0  0  0  3  0  0  0  0  0  0
  -21.6950   -6.9220   21.3510 O   0  0  0  0  0  0  0  0  0  0  0  0
  -21.6970   -6.1120   22.4580 C   0  0  0  0  0  0  0  0  0  0  0  0
  -21.3780   -6.6030   23.7450 C   0  0  0  0  0  3  0  0  0  0  0  0
  -21.3300   -5.7220   24.8410 C   0  0  0  0  0  3  0  0  0  0  0  0
  -21.5860   -4.3510   24.6570 C   0  0  0  0  0  0  0  0  0  0  0  0
  -21.8970   -3.8580   23.3770 C   0  0  0  0  0  3  0  0  0  0  0  0
  -21.9520   -4.7370   22.2810 C   0  0  0  0  0  0  0  0  0  0  0  0
  -22.2310   -4.2540   21.0460 F   0  0  0  0  0  0  0  0  0  0  0  0
  -21.5330   -3.5030   25.7100 F   0  0  0  0  0  0  0  0  0  0  0  0
  -22.9500  -13.5380   21.1930 C   0  0  0  0  0  0  0  0  0  0  0  0
  -22.2200  -12.8370   22.0540 N   0  0  0  0  0  0  0  0  0  0  0  0
  -22.5270  -14.5850   20.7090 O   0  0  0  0  0  0  0  0  0  0  0  0
  -22.5740  -11.9920   22.4710 H   0  0  0  0  0  0  0  0  0  0  0  0
  -21.2960  -13.1620   22.3030 H   0  0  0  0  0  0  0  0  0  0  0  0
  -25.5950  -15.1670   20.3730 N   0  0  0  0  0  0  0  0  0  0  0  0
  -24.8380  -15.8280   20.5220 H   0  0  0  0  0  0  0  0  0  0  0  0
  -26.4310  -15.6060   20.0090 H   0  0  0  0  0  0  0  0  0  0  0  0
  2  6  1  0
  2  1  1  0
  3  4  1  0
  3  7  1  0
  4 13  1  0
  4  6  1  0
  5 57  1  0
  5  1  1  0
  6 12  1  0
  7  5  1  0
  7  8  1  0
  9  7  1  0
 11 12  1  0
 12 10  1  0
 15 14  1  0
 15 16  1  0
 15 13  1  0
 16 18  1  0
 17 28  2  0
 18 23  1  0
 19 27  1  0
 19 29  1  0
 20 26  1  0
 20 22  1  0
 21 27  1  0
 22 21  1  0
 23 22  2  0
 24 25  1  0
 24 18  2  0
 25 20  2  0
 26 19  1  0
 27 17  1  0
 29 31  2  0
 30 29  1  0
 32 30  1  0
 33 42  2  0
 33 38  1  0
 34 30  1  0
 34 38  1  0
 35 34  1  0
 36 37  1  0
 36 35  1  0
 37 33  1  0
 38 39  2  0
 39 40  1  0
 41 40  2  0
 42 41  1  0
 43 17  1  0
 43 48  1  0
 43 44  1  0
 44 47  1  1
 44 45  1  0
 46 44  1  0
 48 51  1  0
 49 48  1  0
 49 53  1  0
 50 49  2  0
 53 52  1  0
 53 55  1  0
 55 56  1  0
 55 54  1  0
 58 66  1  0
 59 64  1  0
 60 61  1  0
 60 59  1  0
 62 61  1  0
 62 71  1  0
 62 63  1  0
 64 58  1  0
 64 63  1  0
 65 58  2  0
 66 57  1  0
 66 67  1  0
 68 69  2  0
 69 88  1  0
 70 69  1  0
 70 73  1  0
 71 72  1  0
 71 68  1  0
 72 70  2  0
 73 74  1  0
 74 75  2  0
 76 79  1  0
 76 75  1  0
 77 76  2  0
 78 77  1  0
 78 73  2  0
 79 80  1  0
 80 81  1  0
 81 82  2  0
 83 82  1  0
 83 87  1  0
 84 83  2  0
 85 80  2  0
 85 84  1  0
 86 85  1  0
 88 89  1  0
 89 92  1  0
 89 91  1  0
 90 88  2  0
 93 68  1  0
 93 94  1  0
 95 93  1  0
M  ISO  4  15 101  16 101  58 100  66 100
M  END
>  <TORSDO>  (48) 
F 20

>  <SCORE>  (48) 
-11.170

>  <name>  (48) 
48

>  <ligand_id>  (48) 
48

>  <original_smiles>  (48) 
[H]c1c([H])c([H])c2c(c1[H])C([H])([H])C([H])([H])C([H])([H])C2([H])N([H])C(=O)C1([H])N(C(=O)C([H])(N([H])C(=O)C([H])(N([H])C([H])([H])[H])C([H])([H])[H])C(C([H])([H])[H])(C([H])([H])[H])C([H])([H])[H])C([H])([H])c2c([H])c(OC([H])(C([H])([H])[H])C([H])([H])C3([H])N(C([H])(C([H])([H])[H])C([H])([H])[H])C([H])([H])C([H])([H])C([H])(C([H])([H])N([H])C(=O)N4C([H])([H])C([H])([H])C([H])([H])C([H])(n5nc(-c6c([H])c([H])c(Oc7c([H])c([H])c(F)c([H])c7F)c([H])c6[H])c(C(=O)N([H])[H])c5N([H])[H])C4([H])[H])[N+]([H])([H])C3([H])[H])c([H])c([H])c2C1([H])[H]

>  <smiles>  (48) 
[H]c1c([H])c([H])c2c(c1[H])C([H])([H])C([H])([H])C([H])([H])C2([H])N([H])C(=O)C1([H])N(C(=O)C([H])(N([H])C(=O)C([H])(N([H])C([H])([H])[H])C([H])([H])[H])C(C([H])([H])[H])(C([H])([H])[H])C([H])([H])[H])C([H])([H])c2c([H])c(OC([H])(C([H])([H])[H])C([H])([H])C3([H])N(C([H])(C([H])([H])[H])C([H])([H])[H])C([H])([H])C([H])([H])C([H])(C([H])([H])N([H])C(=O)N4C([H])([H])C([H])([H])C([H])([H])C([H])(n5nc(-c6c([H])c([H])c(Oc7c([H])c([H])c(F)c([H])c7F)c([H])c6[H])c(C(=O)N([H])[H])c5N([H])[H])C4([H])[H])[N+]([H])([H])C3([H])[H])c([H])c([H])c2C1([H])[H]

$$$$
49:0:0
     RDKit          3D

 95103  0  0  1  0  0  0  0  0999 V2000
  -27.9350  -22.9850   21.4790 C   0  0  0  0  0  3  0  0  0  0  0  0
  -28.8430  -23.1190   19.2860 C   0  0  0  0  0  3  0  0  0  0  0  0
  -28.4510  -22.2820   20.3590 C   0  0  0  0  0  0  0  0  0  0  0  0
  -27.8230  -24.4150   21.5000 C   0  0  0  0  0  0  0  0  0  0  0  0
  -28.2310  -25.1540   20.3360 C   0  0  0  0  0  0  0  0  0  0  0  0
  -28.7510  -24.4800   19.2800 N   0  0  0  0  0  0  0  0  0  0  0  0
  -28.1310  -26.1480   23.4110 C   0  0  0  0  0  1  0  0  0  0  0  0
  -27.2520  -25.0460   22.7870 C   0  0  0  0  0  3  0  0  0  0  0  0
  -24.7890  -24.3460   22.3660 C   0  0  0  0  0  1  0  0  0  0  0  0
  -25.7820  -25.4920   22.6490 C   0  0  0  0  0  2  0  0  0  0  0  0
  -28.2970  -26.5620   20.1910 O   0  0  0  0  0  0  0  0  0  0  0  0
  -24.6610  -31.9410   23.2360 C   0  0  0  0  0  0  0  0  0  0  0  0
  -27.1730  -27.3900   20.1280 C   0  0  0  0  0  0  0  0  0  0  0  0
  -23.4330  -30.5450   21.6300 C   0  0  0  0  0  3  0  0  0  0  0  0
  -24.8200  -28.9960   20.1460 C   0  0  0  0  0  0  0  0  0  0  0  0
  -25.9490  -30.8660   21.3700 C   0  0  0  0  0  2  0  0  0  0  0  0
  -25.9980  -29.4870   20.7220 C   0  0  0  0  0  0  0  0  0  0  0  0
  -27.1770  -28.6980   20.6920 C   0  0  0  0  0  3  0  0  0  0  0  0
  -25.9880  -26.9510   19.4990 C   0  0  0  0  0  3  0  0  0  0  0  0
  -24.8200  -27.7400   19.5110 C   0  0  0  0  0  3  0  0  0  0  0  0
  -23.5900  -29.8710   20.2390 C   0  0  0  0  0  2  0  0  0  0  0  0
  -24.7040  -31.1370   22.1350 N   0  0  0  0  0  0  0  0  0  0  0  0
  -23.5860  -32.2120   23.7910 O   0  0  0  0  0  0  0  0  0  0  0  0
  -22.7970  -29.5390   22.6120 C   0  0  0  0  0  0  0  0  0  0  0  0
  -21.4790  -29.4590   22.4840 N   0  0  0  0  0  0  0  0  0  0  0  0
  -23.4640  -28.8600   23.3970 O   0  0  0  0  0  0  0  0  0  0  0  0
  -21.0790  -30.1560   21.8720 H   0  0  0  0  0  0  0  0  0  0  0  0
  -18.0620  -28.0190   22.9890 C   0  0  0  0  0  0  0  0  0  0  0  0
  -20.5330  -28.4460   22.8770 C   0  0  0  0  0  3  0  0  0  0  0  0
  -20.7990  -26.9530   22.6550 C   0  0  0  0  0  2  0  0  0  0  0  0
  -19.6760  -26.3930   21.7560 C   0  0  0  0  0  2  0  0  0  0  0  0
  -18.2710  -26.6440   22.3490 C   0  0  0  0  0  2  0  0  0  0  0  0
  -19.1580  -28.8400   23.3490 C   0  0  0  0  0  0  0  0  0  0  0  0
  -18.9340  -30.0910   23.9570 C   0  0  0  0  0  3  0  0  0  0  0  0
  -17.6190  -30.5520   24.1580 C   0  0  0  0  0  3  0  0  0  0  0  0
  -16.5280  -29.7530   23.7670 C   0  0  0  0  0  3  0  0  0  0  0  0
  -16.7490  -28.4860   23.2010 C   0  0  0  0  0  3  0  0  0  0  0  0
  -25.9550  -32.5640   23.8320 C   0  0  0  0  0  3  0  0  0  0  0  0
  -25.6460  -33.9560   24.1900 N   0  0  0  0  0  0  0  0  0  0  0  0
  -25.9380  -35.0170   23.4270 C   0  0  0  0  0  0  0  0  0  0  0  0
  -26.5610  -34.9240   22.3650 O   0  0  0  0  0  0  0  0  0  0  0  0
  -25.0900  -34.1000   25.0200 H   0  0  0  0  0  0  0  0  0  0  0  0
  -24.1880  -36.8070   23.1520 C   0  0  0  0  0  1  0  0  0  0  0  0
  -25.4620  -36.3990   23.9140 C   0  0  0  0  0  3  0  0  0  0  0  0
  -27.6190  -37.2910   24.6750 C   0  0  0  0  0  1  0  0  0  0  0  0
  -26.4860  -37.4590   23.7690 N   0  0  0  0  0  0  0  0  0  0  0  0
  -26.0840  -38.3790   23.9260 H   0  0  0  0  0  0  0  0  0  0  0  0
  -26.4990  -31.7730   25.0850 C   0  0  1  0  0  0  0  0  0  0  0  0
  -25.4320  -31.5130   26.1730 C   0  0  0  0  0  1  0  0  0  0  0  0
  -27.0740  -30.4020   24.6570 C   0  0  0  0  0  1  0  0  0  0  0  0
  -27.6610  -32.5620   25.7300 C   0  0  0  0  0  1  0  0  0  0  0  0
  -28.3670  -20.7040   20.2010 C   0  0  0  0  0  2  0  0  0  0  0  0
  -29.4610  -19.7710   20.6990 N   0  0  0  0  0  4  0  0  0  0  0  0
  -30.2580  -19.8750   20.0930 H   0  0  0  0  0  0  0  0  0  0  0  0
  -29.7490  -20.0710   21.6140 H   0  0  0  0  0  0  0  0  0  0  0  0
  -29.1170  -18.2830   20.7740 C   0  0  0  0  0  3  0  0  0  0  0  0
  -30.3210  -17.2300   20.8490 C   0  0  0  0  0  3  0  0  0  0  0  0
  -30.6820  -14.7000   20.4150 C   0  0  0  0  0  0  0  0  0  0  0  0
  -30.4470  -12.4830   19.3120 C   0  0  0  0  0  2  0  0  0  0  0  0
  -29.4740  -12.5930   18.1200 C   0  0  0  0  0  2  0  0  0  0  0  0
  -28.0130  -12.4250   18.5830 C   0  0  0  0  0  2  0  0  0  0  0  0
  -27.6730  -13.2930   19.8190 C   0  0  0  0  0  3  0  0  0  0  0  0
  -28.7540  -13.1330   20.9160 C   0  0  0  0  0  2  0  0  0  0  0  0
  -30.0490  -13.4890   20.3180 N   0  0  0  0  0  0  0  0  0  0  0  0
  -31.8120  -14.8680   19.9560 O   0  0  0  0  0  0  0  0  0  0  0  0
  -29.9520  -15.7650   20.8770 N   0  0  0  0  0  0  0  0  0  0  0  0
  -29.0600  -15.5260   21.2880 H   0  0  0  0  0  0  0  0  0  0  0  0
  -25.2900  -13.8930   20.5670 C   0  0  0  0  0  0  0  0  0  0  0  0
  -24.2260  -13.1170   20.9480 C   0  0  0  0  0  0  0  0  0  0  0  0
  -24.6830  -11.7650   20.8920 C   0  0  0  0  0  0  0  0  0  0  0  0
  -26.3270  -13.0110   20.3160 N   0  0  0  0  0  0  0  0  0  0  0  0
  -25.9690  -11.7260   20.5700 N   0  0  0  0  0  0  0  0  0  0  0  0
  -23.9570  -10.5000   21.0720 C   0  0  0  0  0  0  0  0  0  0  0  0
  -24.3910   -9.5210   21.9940 C   0  0  0  0  0  3  0  0  0  0  0  0
  -23.6650   -8.3230   22.1610 C   0  0  0  0  0  3  0  0  0  0  0  0
  -22.4920   -8.0940   21.4040 C   0  0  0  0  0  0  0  0  0  0  0  0
  -22.0800   -9.0580   20.4680 C   0  0  0  0  0  3  0  0  0  0  0  0
  -22.8070  -10.2480   20.2990 C   0  0  0  0  0  3  0  0  0  0  0  0
  -21.7360   -6.9510   21.4800 O   0  0  0  0  0  0  0  0  0  0  0  0
  -21.6620   -6.2120   22.6340 C   0  0  0  0  0  0  0  0  0  0  0  0
  -21.1750   -6.7620   23.8390 C   0  0  0  0  0  3  0  0  0  0  0  0
  -21.0520   -5.9520   24.9850 C   0  0  0  0  0  3  0  0  0  0  0  0
  -21.4070   -4.5910   24.9250 C   0  0  0  0  0  0  0  0  0  0  0  0
  -21.8870   -4.0380   23.7240 C   0  0  0  0  0  3  0  0  0  0  0  0
  -22.0110   -4.8490   22.5800 C   0  0  0  0  0  0  0  0  0  0  0  0
  -22.4520   -4.3060   21.4190 F   0  0  0  0  0  0  0  0  0  0  0  0
  -21.2830   -3.8070   26.0220 F   0  0  0  0  0  0  0  0  0  0  0  0
  -22.8370  -13.5960   21.2480 C   0  0  0  0  0  0  0  0  0  0  0  0
  -22.1170  -12.8820   22.1070 N   0  0  0  0  0  0  0  0  0  0  0  0
  -22.3950  -14.6340   20.7570 O   0  0  0  0  0  0  0  0  0  0  0  0
  -22.4910  -12.0440   22.5220 H   0  0  0  0  0  0  0  0  0  0  0  0
  -21.1880  -13.1860   22.3600 H   0  0  0  0  0  0  0  0  0  0  0  0
  -25.4620  -15.2640   20.3990 N   0  0  0  0  0  0  0  0  0  0  0  0
  -24.6880  -15.9180   20.4650 H   0  0  0  0  0  0  0  0  0  0  0  0
  -26.2940  -15.6700   19.9880 H   0  0  0  0  0  0  0  0  0  0  0  0
  1  4  2  0
  2  3  2  0
  3  1  1  0
  4  8  1  0
  5  4  1  0
  6  2  1  0
  6  5  2  0
  8  7  1  0
  9 10  1  0
 10  8  1  0
 11  5  1  0
 12 23  2  0
 13 11  1  0
 13 18  1  0
 14 22  1  0
 14 24  1  0
 15 21  1  0
 15 17  1  0
 16 22  1  0
 17 16  1  0
 18 17  2  0
 19 20  1  0
 19 13  2  0
 20 15  2  0
 21 14  1  0
 22 12  1  0
 24 26  2  0
 25 24  1  0
 27 25  1  0
 28 37  2  0
 28 33  1  0
 29 25  1  0
 29 33  1  0
 30 29  1  0
 31 32  1  0
 31 30  1  0
 32 28  1  0
 33 34  2  0
 34 35  1  0
 36 35  2  0
 37 36  1  0
 38 12  1  0
 38 39  1  0
 38 48  1  0
 39 42  1  0
 40 44  1  0
 40 39  1  0
 41 40  2  0
 44 43  1  0
 46 44  1  0
 46 47  1  0
 46 45  1  0
 48 51  1  1
 48 49  1  0
 50 48  1  0
 52  3  1  0
 52 53  1  0
 53 56  1  0
 53 55  1  0
 54 53  1  0
 56 57  2  0
 57 66  1  0
 58 66  1  0
 59 64  1  0
 60 61  1  0
 60 59  1  0
 62 61  1  0
 62 71  1  0
 62 63  1  0
 64 58  1  0
 64 63  1  0
 65 58  2  0
 66 67  1  0
 68 69  2  0
 69 88  1  0
 70 69  1  0
 70 73  1  0
 71 68  1  0
 71 72  1  0
 72 70  2  0
 73 74  1  0
 74 75  2  0
 76 79  1  0
 76 75  1  0
 77 76  2  0
 78 77  1  0
 78 73  2  0
 79 80  1  0
 80 81  1  0
 81 82  2  0
 83 82  1  0
 83 87  1  0
 84 83  2  0
 85 80  2  0
 85 84  1  0
 86 85  1  0
 88 89  1  0
 89 92  1  0
 89 91  1  0
 90 88  2  0
 93 94  1  0
 93 68  1  0
 95 93  1  0
M  ISO  4   5 101  11 101  58 100  66 100
M  END
>  <TORSDO>  (49) 
F 22

>  <SCORE>  (49) 
-13.319

>  <name>  (49) 
49

>  <ligand_id>  (49) 
49

>  <original_smiles>  (49) 
[H]c1nc(Oc2c([H])c([H])c3c(c2[H])C([H])([H])N(C(=O)C([H])(N([H])C(=O)C([H])(N([H])C([H])([H])[H])C([H])([H])[H])C(C([H])([H])[H])(C([H])([H])[H])C([H])([H])[H])C([H])(C(=O)N([H])C2([H])c4c([H])c([H])c([H])c([H])c4C([H])([H])C([H])([H])C2([H])[H])C3([H])[H])c(C([H])(C([H])([H])[H])C([H])([H])C([H])([H])[H])c([H])c1C([H])([H])[N+]([H])([H])C([H])([H])C([H])([H])N([H])C(=O)N1C([H])([H])C([H])([H])C([H])([H])C([H])(n2nc(-c3c([H])c([H])c(Oc4c([H])c([H])c(F)c([H])c4F)c([H])c3[H])c(C(=O)N([H])[H])c2N([H])[H])C1([H])[H]

>  <smiles>  (49) 
[H]c1nc(Oc2c([H])c([H])c3c(c2[H])C([H])([H])N(C(=O)C([H])(N([H])C(=O)C([H])(N([H])C([H])([H])[H])C([H])([H])[H])C(C([H])([H])[H])(C([H])([H])[H])C([H])([H])[H])C([H])(C(=O)N([H])C2([H])c4c([H])c([H])c([H])c([H])c4C([H])([H])C([H])([H])C2([H])[H])C3([H])[H])c(C([H])(C([H])([H])[H])C([H])([H])C([H])([H])[H])c([H])c1C([H])([H])[N+]([H])([H])C([H])([H])C([H])([H])N([H])C(=O)N1C([H])([H])C([H])([H])C([H])([H])C([H])(n2nc(-c3c([H])c([H])c(Oc4c([H])c([H])c(F)c([H])c4F)c([H])c3[H])c(C(=O)N([H])[H])c2N([H])[H])C1([H])[H]

$$$$
50:0:0
     RDKit          3D

101109  0  0  1  0  0  0  0  0999 V2000
  -28.7900  -19.9120   21.4520 C   0  0  0  0  0  3  0  0  0  0  0  0
  -28.5160  -21.2690   21.6760 C   0  0  0  0  0  3  0  0  0  0  0  0
  -29.5960  -19.5130   20.3540 C   0  0  0  0  0  0  0  0  0  0  0  0
  -30.0300  -20.5770   19.4880 C   0  0  0  0  0  0  0  0  0  0  0  0
  -29.0260  -22.2200   20.7970 C   0  0  0  0  0  0  0  0  0  0  0  0
  -30.7910  -20.3980   18.1780 C   0  0  0  0  0  1  0  0  0  0  0  0
  -29.7450  -21.8820   19.7140 N   0  0  0  0  0  0  0  0  0  0  0  0
  -29.9560  -17.9970   20.1590 C   0  0  0  0  0  3  0  0  0  0  0  0
  -28.8040  -17.1960   19.6560 N   0  0  0  0  0  4  0  0  0  0  0  0
  -29.1450  -16.2580   19.5140 H   0  0  0  0  0  0  0  0  0  0  0  0
  -28.0970  -17.1730   20.3710 H   0  0  0  0  0  0  0  0  0  0  0  0
  -28.1660  -17.6490   18.3880 C   0  0  0  0  0  2  0  0  0  0  0  0
  -26.1140  -16.1770   18.7520 C   0  0  0  0  0  1  0  0  0  0  0  0
  -26.6150  -17.5830   18.3730 C   0  0  0  0  0  3  0  0  0  0  0  0
  -24.5150  -18.5280   19.6340 C   0  0  0  0  0  1  0  0  0  0  0  0
  -26.1420  -20.1170   18.5350 C   0  0  0  0  0  1  0  0  0  0  0  0
  -25.9780  -18.7350   19.1880 C   0  0  0  0  0  3  0  0  0  0  0  0
  -32.0560  -17.8290   21.6950 C   0  0  0  0  0  1  0  0  0  0  0  0
  -30.6290  -17.3110   21.4300 C   0  0  0  0  0  3  0  0  0  0  0  0
  -31.4070  -14.8270   21.3970 C   0  0  0  0  0  0  0  0  0  0  0  0
  -31.3730  -12.5040   20.5770 C   0  0  0  0  0  2  0  0  0  0  0  0
  -30.5840  -12.4970   19.2510 C   0  0  0  0  0  2  0  0  0  0  0  0
  -29.0650  -12.3710   19.4980 C   0  0  0  0  0  2  0  0  0  0  0  0
  -28.5460  -13.3320   20.6000 C   0  0  0  0  0  3  0  0  0  0  0  0
  -29.4600  -13.2910   21.8460 C   0  0  0  0  0  2  0  0  0  0  0  0
  -30.8330  -13.5900   21.4070 N   0  0  0  0  0  0  0  0  0  0  0  0
  -32.5790  -15.0220   21.0790 O   0  0  0  0  0  0  0  0  0  0  0  0
  -30.5170  -15.8320   21.5450 N   0  0  0  0  0  0  0  0  0  0  0  0
  -29.6340  -15.5060   21.9130 H   0  0  0  0  0  0  0  0  0  0  0  0
  -26.1100  -13.9540   21.1450 C   0  0  0  0  0  0  0  0  0  0  0  0
  -24.9880  -13.2000   21.3080 C   0  0  0  0  0  0  0  0  0  0  0  0
  -25.4320  -11.8430   21.2630 C   0  0  0  0  0  0  0  0  0  0  0  0
  -27.1540  -13.0660   20.9400 N   0  0  0  0  0  0  0  0  0  0  0  0
  -26.7440  -11.7830   21.0800 N   0  0  0  0  0  0  0  0  0  0  0  0
  -24.6710  -10.5980   21.3380 C   0  0  0  0  0  0  0  0  0  0  0  0
  -24.9680   -9.6100   22.3020 C   0  0  0  0  0  3  0  0  0  0  0  0
  -24.2050   -8.4260   22.3670 C   0  0  0  0  0  3  0  0  0  0  0  0
  -23.1300   -8.2250   21.4690 C   0  0  0  0  0  0  0  0  0  0  0  0
  -22.8560   -9.2040   20.4970 C   0  0  0  0  0  3  0  0  0  0  0  0
  -23.6180  -10.3800   20.4310 C   0  0  0  0  0  3  0  0  0  0  0  0
  -22.3530   -7.0940   21.4420 O   0  0  0  0  0  0  0  0  0  0  0  0
  -22.0970   -6.3670   22.5760 C   0  0  0  0  0  0  0  0  0  0  0  0
  -21.4910   -6.9450   23.7130 C   0  0  0  0  0  3  0  0  0  0  0  0
  -21.1880   -6.1470   24.8330 C   0  0  0  0  0  3  0  0  0  0  0  0
  -21.4760   -4.7680   24.8140 C   0  0  0  0  0  0  0  0  0  0  0  0
  -22.0710   -4.1920   23.6780 C   0  0  0  0  0  3  0  0  0  0  0  0
  -22.3810   -4.9890   22.5620 C   0  0  0  0  0  0  0  0  0  0  0  0
  -22.9380   -4.4250   21.4650 F   0  0  0  0  0  0  0  0  0  0  0  0
  -21.1740   -3.9970   25.8850 F   0  0  0  0  0  0  0  0  0  0  0  0
  -23.5820  -13.7060   21.4490 C   0  0  0  0  0  0  0  0  0  0  0  0
  -22.7640  -13.0180   22.2350 N   0  0  0  0  0  0  0  0  0  0  0  0
  -23.2210  -14.7510   20.9050 O   0  0  0  0  0  0  0  0  0  0  0  0
  -23.0720  -12.1730   22.6900 H   0  0  0  0  0  0  0  0  0  0  0  0
  -21.8120  -13.3290   22.3740 H   0  0  0  0  0  0  0  0  0  0  0  0
  -26.3230  -15.3200   21.1860 N   0  0  0  0  0  0  0  0  0  0  0  0
  -25.5140  -15.8770   21.4290 H   0  0  0  0  0  0  0  0  0  0  0  0
  -27.1390  -15.6380   21.6840 H   0  0  0  0  0  0  0  0  0  0  0  0
  -28.7770  -23.5420   21.0670 O   0  0  0  0  0  0  0  0  0  0  0  0
  -29.1780  -24.5580   20.1550 C   0  0  0  0  0  2  0  0  0  0  0  0
  -28.9440  -25.8570   20.9370 C   0  0  0  0  0  2  0  0  0  0  0  0
  -28.8440  -26.9860   20.0850 O   0  0  0  0  0  0  0  0  0  0  0  0
  -24.7900  -31.8010   23.4110 C   0  0  0  0  0  0  0  0  0  0  0  0
  -27.6420  -27.6380   20.1450 C   0  0  0  0  0  0  0  0  0  0  0  0
  -23.6710  -30.4770   21.6430 C   0  0  0  0  0  3  0  0  0  0  0  0
  -25.2010  -29.0400   20.1980 C   0  0  0  0  0  0  0  0  0  0  0  0
  -26.1890  -30.8930   21.5600 C   0  0  0  0  0  2  0  0  0  0  0  0
  -26.3260  -29.5670   20.8440 C   0  0  0  0  0  0  0  0  0  0  0  0
  -27.5510  -28.8710   20.8140 C   0  0  0  0  0  3  0  0  0  0  0  0
  -26.5000  -27.1020   19.5100 C   0  0  0  0  0  3  0  0  0  0  0  0
  -25.2780  -27.7990   19.5380 C   0  0  0  0  0  3  0  0  0  0  0  0
  -23.9400  -29.8690   20.2410 C   0  0  0  0  0  2  0  0  0  0  0  0
  -24.8990  -31.0690   22.2660 N   0  0  0  0  0  0  0  0  0  0  0  0
  -23.6870  -32.0290   23.9230 O   0  0  0  0  0  0  0  0  0  0  0  0
  -22.9970  -29.3960   22.5190 C   0  0  0  0  0  0  0  0  0  0  0  0
  -21.6750  -29.2370   22.3540 N   0  0  0  0  0  0  0  0  0  0  0  0
  -23.6590  -28.7080   23.2980 O   0  0  0  0  0  0  0  0  0  0  0  0
  -21.2020  -29.8460   21.6990 H   0  0  0  0  0  0  0  0  0  0  0  0
  -18.2780  -28.0670   22.7280 C   0  0  0  0  0  0  0  0  0  0  0  0
  -20.8380  -28.2510   23.0370 C   0  0  0  0  0  3  0  0  0  0  0  0
  -20.9190  -26.8730   22.3400 C   0  0  0  0  0  2  0  0  0  0  0  0
  -19.8180  -26.6570   21.2960 C   0  0  0  0  0  2  0  0  0  0  0  0
  -18.4330  -26.7770   21.9410 C   0  0  0  0  0  2  0  0  0  0  0  0
  -19.4080  -28.7670   23.2270 C   0  0  0  0  0  0  0  0  0  0  0  0
  -19.2090  -29.9830   23.9170 C   0  0  0  0  0  3  0  0  0  0  0  0
  -17.9110  -30.4920   24.1190 C   0  0  0  0  0  3  0  0  0  0  0  0
  -16.7960  -29.7860   23.6370 C   0  0  0  0  0  3  0  0  0  0  0  0
  -16.9800  -28.5760   22.9460 C   0  0  0  0  0  3  0  0  0  0  0  0
  -26.0430  -32.4090   24.1170 C   0  0  0  0  0  3  0  0  0  0  0  0
  -26.5410  -31.5540   25.3480 C   0  0  1  0  0  0  0  0  0  0  0  0
  -25.4230  -31.2150   26.3630 C   0  0  0  0  0  1  0  0  0  0  0  0
  -27.1650  -30.2220   24.8710 C   0  0  0  0  0  1  0  0  0  0  0  0
  -27.6570  -32.3190   26.1010 C   0  0  0  0  0  1  0  0  0  0  0  0
  -25.7000  -33.7720   24.5400 N   0  0  0  0  0  0  0  0  0  0  0  0
  -26.0520  -34.8830   23.8790 C   0  0  0  0  0  0  0  0  0  0  0  0
  -26.7770  -34.8660   22.8800 O   0  0  0  0  0  0  0  0  0  0  0  0
  -25.0620  -33.8580   25.3180 H   0  0  0  0  0  0  0  0  0  0  0  0
  -24.3170  -36.6770   23.5610 C   0  0  0  0  0  1  0  0  0  0  0  0
  -25.5170  -36.2270   24.4100 C   0  0  0  0  0  3  0  0  0  0  0  0
  -27.5890  -37.0630   25.4260 C   0  0  0  0  0  1  0  0  0  0  0  0
  -26.5370  -37.2970   24.4410 N   0  0  0  0  0  0  0  0  0  0  0  0
  -26.1080  -38.1950   24.6500 H   0  0  0  0  0  0  0  0  0  0  0  0
  1  2  2  0
  3  1  1  0
  4  7  1  0
  4  3  2  0
  5 58  1  0
  5  2  1  0
  6  4  1  0
  7  5  2  0
  8  9  1  0
  8  3  1  0
  8 19  1  0
  9 11  1  0
 10  9  1  0
 12  9  1  0
 14 12  1  0
 14 13  1  0
 14 17  1  0
 16 17  1  0
 17 15  1  0
 19 28  1  0
 19 18  1  0
 20 26  1  0
 20 28  1  0
 21 26  1  0
 22 23  1  0
 22 21  1  0
 24 23  1  0
 24 33  1  0
 24 25  1  0
 26 25  1  0
 27 20  2  0
 28 29  1  0
 30 55  1  0
 30 31  2  0
 31 50  1  0
 32 31  1  0
 32 35  1  0
 33 34  1  0
 33 30  1  0
 34 32  2  0
 35 36  1  0
 36 37  2  0
 38 37  1  0
 39 38  2  0
 40 39  1  0
 40 35  2  0
 41 38  1  0
 41 42  1  0
 42 43  1  0
 43 44  2  0
 45 44  1  0
 45 49  1  0
 46 45  2  0
 47 42  2  0
 47 46  1  0
 48 47  1  0
 50 51  1  0
 51 54  1  0
 51 53  1  0
 52 50  2  0
 55 56  1  0
 55 57  1  0
 59 60  1  0
 59 58  1  0
 61 63  1  0
 61 60  1  0
 62 73  2  0
 63 68  1  0
 64 72  1  0
 64 74  1  0
 65 71  1  0
 65 67  1  0
 66 72  1  0
 67 66  1  0
 68 67  2  0
 69 70  1  0
 69 63  2  0
 70 65  2  0
 71 64  1  0
 72 62  1  0
 74 76  2  0
 75 74  1  0
 77 75  1  0
 78 87  2  0
 78 83  1  0
 79 75  1  0
 79 83  1  0
 80 79  1  0
 81 82  1  0
 81 80  1  0
 82 78  1  0
 83 84  2  0
 84 85  1  0
 86 85  2  0
 87 86  1  0
 88 62  1  0
 88 93  1  0
 88 89  1  0
 89 92  1  1
 89 90  1  0
 91 89  1  0
 93 96  1  0
 94 98  1  0
 94 93  1  0
 95 94  2  0
 98 97  1  0
 98100  1  0
100101  1  0
100 99  1  0
M  ISO  4  20 100  28 100  60 101  61 101
M  END
>  <TORSDO>  (50) 
F 25

>  <SCORE>  (50) 
-5.687

>  <name>  (50) 
50

>  <ligand_id>  (50) 
50

>  <original_smiles>  (50) 
[H]c1c(OC([H])([H])C([H])([H])Oc2c([H])c([H])c3c(c2[H])C([H])([H])N(C(=O)C([H])(N([H])C(=O)C([H])(N([H])C([H])([H])[H])C([H])([H])[H])C(C([H])([H])[H])(C([H])([H])[H])C([H])([H])[H])C([H])(C(=O)N([H])C2([H])c4c([H])c([H])c([H])c([H])c4C([H])([H])C([H])([H])C2([H])[H])C3([H])[H])nc(C([H])([H])[H])c(C([H])(C([H])(N([H])C(=O)N2C([H])([H])C([H])([H])C([H])([H])C([H])(n3nc(-c4c([H])c([H])c(Oc5c([H])c([H])c(F)c([H])c5F)c([H])c4[H])c(C(=O)N([H])[H])c3N([H])[H])C2([H])[H])C([H])([H])[H])[N+]([H])([H])C([H])([H])C([H])(C([H])([H])[H])C([H])(C([H])([H])[H])C([H])([H])[H])c1[H]

>  <smiles>  (50) 
[H]c1c(OC([H])([H])C([H])([H])Oc2c([H])c([H])c3c(c2[H])C([H])([H])N(C(=O)C([H])(N([H])C(=O)C([H])(N([H])C([H])([H])[H])C([H])([H])[H])C(C([H])([H])[H])(C([H])([H])[H])C([H])([H])[H])C([H])(C(=O)N([H])C2([H])c4c([H])c([H])c([H])c([H])c4C([H])([H])C([H])([H])C2([H])[H])C3([H])[H])nc(C([H])([H])[H])c(C([H])(C([H])(N([H])C(=O)N2C([H])([H])C([H])([H])C([H])([H])C([H])(n3nc(-c4c([H])c([H])c(Oc5c([H])c([H])c(F)c([H])c5F)c([H])c4[H])c(C(=O)N([H])[H])c3N([H])[H])C2([H])[H])C([H])([H])[H])[N+]([H])([H])C([H])([H])C([H])(C([H])([H])[H])C([H])(C([H])([H])[H])C([H])([H])[H])c1[H]

$$$$
51:0:0
     RDKit          3D

 97106  0  0  1  0  0  0  0  0999 V2000
  -29.7980  -21.2870   19.8350 C   0  0  0  0  0  3  0  0  0  0  0  0
  -30.6550  -15.0170   20.1830 C   0  0  0  0  0  0  0  0  0  0  0  0
  -30.3610  -12.7260   19.1850 C   0  0  0  0  0  2  0  0  0  0  0  0
  -29.4140  -12.7080   17.9680 C   0  0  0  0  0  2  0  0  0  0  0  0
  -27.9620  -12.5140   18.4390 C   0  0  0  0  0  2  0  0  0  0  0  0
  -27.5890  -13.4450   19.6260 C   0  0  0  0  0  3  0  0  0  0  0  0
  -28.6690  -13.4650   20.7280 C   0  0  0  0  0  2  0  0  0  0  0  0
  -29.9230  -13.8440   20.0700 N   0  0  0  0  0  0  0  0  0  0  0  0
  -31.8660  -14.9050   19.9580 O   0  0  0  0  0  0  0  0  0  0  0  0
  -30.4430  -18.7760   19.0900 C   0  0  0  0  0  2  0  0  0  0  0  0
  -28.6690  -18.6230   20.6380 C   0  0  0  0  0  2  0  0  0  0  0  0
  -31.0200  -17.3770   19.5120 C   0  0  0  0  0  2  0  0  0  0  0  0
  -29.1040  -17.0680   20.9550 C   0  0  0  0  0  2  0  0  0  0  0  0
  -29.8120  -19.6400   20.2290 C   0  0  0  0  0  3  0  0  0  0  0  0
  -30.1020  -16.3340   20.0780 N   0  0  0  0  0  0  0  0  0  0  0  0
  -25.2260  -14.0190   20.4180 C   0  0  0  0  0  0  0  0  0  0  0  0
  -24.1690  -13.2420   20.8020 C   0  0  0  0  0  0  0  0  0  0  0  0
  -24.6320  -11.8920   20.7590 C   0  0  0  0  0  0  0  0  0  0  0  0
  -26.2640  -13.1430   20.1560 N   0  0  0  0  0  0  0  0  0  0  0  0
  -25.9180  -11.8570   20.4260 N   0  0  0  0  0  0  0  0  0  0  0  0
  -23.9090  -10.6280   20.9570 C   0  0  0  0  0  0  0  0  0  0  0  0
  -24.3340   -9.6730   21.9060 C   0  0  0  0  0  3  0  0  0  0  0  0
  -23.6080   -8.4750   22.0910 C   0  0  0  0  0  3  0  0  0  0  0  0
  -22.4440   -8.2250   21.3270 C   0  0  0  0  0  0  0  0  0  0  0  0
  -22.0390   -9.1690   20.3660 C   0  0  0  0  0  3  0  0  0  0  0  0
  -22.7670  -10.3570   20.1780 C   0  0  0  0  0  3  0  0  0  0  0  0
  -21.6910   -7.0800   21.4210 O   0  0  0  0  0  0  0  0  0  0  0  0
  -21.6110   -6.3650   22.5890 C   0  0  0  0  0  0  0  0  0  0  0  0
  -21.1200   -6.9390   23.7820 C   0  0  0  0  0  3  0  0  0  0  0  0
  -20.9880   -6.1490   24.9410 C   0  0  0  0  0  3  0  0  0  0  0  0
  -21.3360   -4.7860   24.9090 C   0  0  0  0  0  0  0  0  0  0  0  0
  -21.8210   -4.2110   23.7220 C   0  0  0  0  0  3  0  0  0  0  0  0
  -21.9540   -4.9980   22.5650 C   0  0  0  0  0  0  0  0  0  0  0  0
  -22.4020   -4.4340   21.4170 F   0  0  0  0  0  0  0  0  0  0  0  0
  -21.2030   -4.0260   26.0210 F   0  0  0  0  0  0  0  0  0  0  0  0
  -22.7760  -13.7190   21.0930 C   0  0  0  0  0  0  0  0  0  0  0  0
  -22.0620  -13.0260   21.9730 N   0  0  0  0  0  0  0  0  0  0  0  0
  -22.3300  -14.7430   20.5770 O   0  0  0  0  0  0  0  0  0  0  0  0
  -22.4380  -12.2030   22.4190 H   0  0  0  0  0  0  0  0  0  0  0  0
  -21.1250  -13.3250   22.2030 H   0  0  0  0  0  0  0  0  0  0  0  0
  -25.3840  -15.3900   20.2440 N   0  0  0  0  0  0  0  0  0  0  0  0
  -24.6140  -16.0390   20.3650 H   0  0  0  0  0  0  0  0  0  0  0  0
  -26.2260  -15.8340   19.9010 H   0  0  0  0  0  0  0  0  0  0  0  0
  -27.5350  -22.2480   20.8520 C   0  0  0  0  0  3  0  0  0  0  0  0
  -28.9060  -23.8960   19.7660 C   0  0  0  0  0  3  0  0  0  0  0  0
  -28.7310  -22.4810   20.1450 C   0  0  0  0  0  0  0  0  0  0  0  0
  -26.6640  -23.3220   21.1570 C   0  0  0  0  0  0  0  0  0  0  0  0
  -27.9850  -24.9700   20.1300 C   0  0  0  0  0  0  0  0  0  0  0  0
  -25.3700  -23.0580   21.8980 C   0  0  0  0  0  1  0  0  0  0  0  0
  -26.8860  -24.6210   20.8330 N   0  0  0  0  0  0  0  0  0  0  0  0
  -28.1450  -26.3890   19.8580 O   0  0  0  0  0  0  0  0  0  0  0  0
  -24.5870  -31.8810   23.1720 C   0  0  0  0  0  0  0  0  0  0  0  0
  -27.0810  -27.3390   19.9050 C   0  0  0  0  0  0  0  0  0  0  0  0
  -23.3490  -30.5640   21.4940 C   0  0  0  0  0  3  0  0  0  0  0  0
  -24.7610  -29.0510   19.9810 C   0  0  0  0  0  0  0  0  0  0  0  0
  -25.8960  -30.8350   21.2970 C   0  0  0  0  0  2  0  0  0  0  0  0
  -25.9470  -29.4760   20.5930 C   0  0  0  0  0  0  0  0  0  0  0  0
  -27.1110  -28.6320   20.5460 C   0  0  0  0  0  3  0  0  0  0  0  0
  -25.8780  -27.0060   19.2480 C   0  0  0  0  0  3  0  0  0  0  0  0
  -24.7330  -27.8260   19.2980 C   0  0  0  0  0  3  0  0  0  0  0  0
  -23.5390  -29.9470   20.0830 C   0  0  0  0  0  2  0  0  0  0  0  0
  -24.6300  -31.1120   22.0440 N   0  0  0  0  0  0  0  0  0  0  0  0
  -23.5110  -32.1490   23.7300 O   0  0  0  0  0  0  0  0  0  0  0  0
  -22.6830  -29.5170   22.4210 C   0  0  0  0  0  0  0  0  0  0  0  0
  -21.3540  -29.3500   22.2990 N   0  0  0  0  0  0  0  0  0  0  0  0
  -23.3630  -28.8620   23.2150 O   0  0  0  0  0  0  0  0  0  0  0  0
  -20.8620  -29.9330   21.6360 H   0  0  0  0  0  0  0  0  0  0  0  0
  -17.9710  -28.1740   22.8220 C   0  0  0  0  0  0  0  0  0  0  0  0
  -20.5390  -28.3870   23.0410 C   0  0  0  0  0  3  0  0  0  0  0  0
  -20.6050  -26.9830   22.3930 C   0  0  0  0  0  2  0  0  0  0  0  0
  -19.4740  -26.7280   21.3890 C   0  0  0  0  0  2  0  0  0  0  0  0
  -18.1110  -26.8590   22.0730 C   0  0  0  0  0  2  0  0  0  0  0  0
  -19.1100  -28.8980   23.2620 C   0  0  0  0  0  0  0  0  0  0  0  0
  -18.9230  -30.1300   23.9250 C   0  0  0  0  0  3  0  0  0  0  0  0
  -17.6290  -30.6400   24.1480 C   0  0  0  0  0  3  0  0  0  0  0  0
  -16.5040  -29.9100   23.7220 C   0  0  0  0  0  3  0  0  0  0  0  0
  -16.6770  -28.6790   23.0650 C   0  0  0  0  0  3  0  0  0  0  0  0
  -25.8810  -32.4780   23.8040 C   0  0  0  0  0  3  0  0  0  0  0  0
  -26.3900  -31.6680   25.0600 C   0  0  1  0  0  0  0  0  0  0  0  0
  -25.2980  -31.4260   26.1300 C   0  0  0  0  0  1  0  0  0  0  0  0
  -26.9480  -30.2900   24.6380 C   0  0  0  0  0  1  0  0  0  0  0  0
  -27.5570  -32.4280   25.7340 C   0  0  0  0  0  1  0  0  0  0  0  0
  -25.5970  -33.8730   24.1720 N   0  0  0  0  0  0  0  0  0  0  0  0
  -25.9080  -34.9380   23.4220 C   0  0  0  0  0  0  0  0  0  0  0  0
  -26.5340  -34.8500   22.3640 O   0  0  0  0  0  0  0  0  0  0  0  0
  -25.0370  -34.0160   24.9990 H   0  0  0  0  0  0  0  0  0  0  0  0
  -24.1720  -36.7450   23.1950 C   0  0  0  0  0  1  0  0  0  0  0  0
  -25.4550  -36.3230   23.9290 C   0  0  0  0  0  3  0  0  0  0  0  0
  -27.6340  -37.1930   24.6540 C   0  0  0  0  0  1  0  0  0  0  0  0
  -26.4840  -37.3730   23.7730 N   0  0  0  0  0  0  0  0  0  0  0  0
  -26.0890  -38.2930   23.9500 H   0  0  0  0  0  0  0  0  0  0  0  0
  -31.2780  -22.2450   21.7390 C   0  0  0  0  0  1  0  0  0  0  0  0
  -31.2300  -21.7790   20.2660 C   0  0  0  0  0  3  0  0  0  0  0  0
  -31.8190  -22.7910   19.3660 N   0  0  0  0  0  4  0  0  0  0  0  0
  -31.3170  -23.6580   19.4180 H   0  0  0  0  0  0  0  0  0  0  0  0
  -31.8140  -22.4720   18.4120 H   0  0  0  0  0  0  0  0  0  0  0  0
  -32.7760  -22.9700   19.6180 H   0  0  0  0  0  0  0  0  0  0  0  0
  1 46  1  0
  1 93  1  0
  3  8  1  0
  4  5  1  0
  4  3  1  0
  6  5  1  0
  6 19  1  0
  6  7  1  0
  8  2  1  0
  8  7  1  0
  9  2  2  0
 10 12  1  0
 10 14  1  0
 11 13  1  0
 12 15  1  0
 14  1  1  0
 14 11  1  0
 15  2  1  0
 15 13  1  0
 16 17  2  0
 17 36  1  0
 18 17  1  0
 18 21  1  0
 19 16  1  0
 19 20  1  0
 20 18  2  0
 21 22  1  0
 22 23  2  0
 24 27  1  0
 24 23  1  0
 25 24  2  0
 26 25  1  0
 26 21  2  0
 27 28  1  0
 28 29  1  0
 29 30  2  0
 31 30  1  0
 31 35  1  0
 32 31  2  0
 33 28  2  0
 33 32  1  0
 34 33  1  0
 36 37  1  0
 37 40  1  0
 37 39  1  0
 38 36  2  0
 41 42  1  0
 41 16  1  0
 43 41  1  0
 44 47  2  0
 45 48  1  0
 45 46  2  0
 46 44  1  0
 47 49  1  0
 48 50  2  0
 50 47  1  0
 51 53  1  0
 51 48  1  0
 52 63  2  0
 53 58  1  0
 54 62  1  0
 54 64  1  0
 55 61  1  0
 55 57  1  0
 56 62  1  0
 57 56  1  0
 58 57  2  0
 59 60  1  0
 59 53  2  0
 60 55  2  0
 61 54  1  0
 62 52  1  0
 64 66  2  0
 65 64  1  0
 67 65  1  0
 68 77  2  0
 68 73  1  0
 69 65  1  0
 69 73  1  0
 70 69  1  0
 71 72  1  0
 71 70  1  0
 72 68  1  0
 73 74  2  0
 74 75  1  0
 76 75  2  0
 77 76  1  0
 78 52  1  0
 78 83  1  0
 78 79  1  0
 79 82  1  1
 79 80  1  0
 81 79  1  0
 83 86  1  0
 84 88  1  0
 84 83  1  0
 85 84  2  0
 88 87  1  0
 90 88  1  0
 90 91  1  0
 90 89  1  0
 93 92  1  0
 94 95  1  0
 94 97  1  0
 94 93  1  0
 96 94  1  0
M  ISO  4   2 100  15 100  48 101  51 101
M  END
>  <TORSDO>  (51) 
F 19

>  <SCORE>  (51) 
-14.244

>  <name>  (51) 
51

>  <ligand_id>  (51) 
51

>  <original_smiles>  (51) 
[H]c1c([H])c([H])c2c(c1[H])C([H])([H])C([H])([H])C([H])([H])C2([H])N([H])C(=O)C1([H])N(C(=O)C([H])(N([H])C(=O)C([H])(N([H])C([H])([H])[H])C([H])([H])[H])C(C([H])([H])[H])(C([H])([H])[H])C([H])([H])[H])C([H])([H])c2c([H])c(Oc3nc(C([H])([H])[H])c([H])c(C([H])(C4([H])C([H])([H])C([H])([H])N(C(=O)N5C([H])([H])C([H])([H])C([H])([H])C([H])(n6nc(-c7c([H])c([H])c(Oc8c([H])c([H])c(F)c([H])c8F)c([H])c7[H])c(C(=O)N([H])[H])c6N([H])[H])C5([H])[H])C([H])([H])C4([H])[H])C([H])(C([H])([H])[H])[N+]([H])([H])[H])c3[H])c([H])c([H])c2C1([H])[H]

>  <smiles>  (51) 
[H]c1c([H])c([H])c2c(c1[H])C([H])([H])C([H])([H])C([H])([H])C2([H])N([H])C(=O)C1([H])N(C(=O)C([H])(N([H])C(=O)C([H])(N([H])C([H])([H])[H])C([H])([H])[H])C(C([H])([H])[H])(C([H])([H])[H])C([H])([H])[H])C([H])([H])c2c([H])c(Oc3nc(C([H])([H])[H])c([H])c(C([H])(C4([H])C([H])([H])C([H])([H])N(C(=O)N5C([H])([H])C([H])([H])C([H])([H])C([H])(n6nc(-c7c([H])c([H])c(Oc8c([H])c([H])c(F)c([H])c8F)c([H])c7[H])c(C(=O)N([H])[H])c6N([H])[H])C5([H])[H])C([H])([H])C4([H])[H])C([H])(C([H])([H])[H])[N+]([H])([H])[H])c3[H])c([H])c([H])c2C1([H])[H]

$$$$
52:0:0
     RDKit          3D

 92101  0  0  1  0  0  0  0  0999 V2000
  -29.8250  -23.1480   19.7370 C   0  0  0  0  0  3  0  0  0  0  0  0
  -30.2530  -21.7790   19.7680 C   0  0  0  0  0  3  0  0  0  0  0  0
  -27.9610  -22.4670   21.0420 C   0  0  0  0  0  3  0  0  0  0  0  0
  -28.6160  -23.5420   20.3660 C   0  0  0  0  0  0  0  0  0  0  0  0
  -29.4890  -20.7610   20.4080 C   0  0  0  0  0  0  0  0  0  0  0  0
  -28.3690  -21.1530   21.0720 N   0  0  0  0  0  0  0  0  0  0  0  0
  -30.6530  -14.7780   20.3450 C   0  0  0  0  0  0  0  0  0  0  0  0
  -30.3490  -12.5060   19.3450 C   0  0  0  0  0  2  0  0  0  0  0  0
  -29.4000  -12.5390   18.1300 C   0  0  0  0  0  2  0  0  0  0  0  0
  -27.9510  -12.3330   18.6000 C   0  0  0  0  0  2  0  0  0  0  0  0
  -27.5730  -13.2680   19.7760 C   0  0  0  0  0  3  0  0  0  0  0  0
  -28.6490  -13.2830   20.8890 C   0  0  0  0  0  2  0  0  0  0  0  0
  -29.9390  -13.5990   20.2630 N   0  0  0  0  0  0  0  0  0  0  0  0
  -31.8440  -14.7690   20.0250 O   0  0  0  0  0  0  0  0  0  0  0  0
  -30.2940  -18.4820   21.6160 C   0  0  0  0  0  2  0  0  0  0  0  0
  -30.8360  -17.0010   21.4340 C   0  0  0  0  0  2  0  0  0  0  0  0
  -29.3270  -16.7110   19.5160 C   0  0  0  0  0  2  0  0  0  0  0  0
  -29.8730  -19.2040   20.3100 C   0  0  0  0  0  3  0  0  0  0  0  0
  -28.8220  -18.2030   19.7230 C   0  0  0  0  0  3  0  0  0  0  0  0
  -30.0410  -16.0080   20.6300 N   0  0  0  0  0  0  0  0  0  0  0  0
  -25.2080  -13.8670   20.5550 C   0  0  0  0  0  0  0  0  0  0  0  0
  -24.1430  -13.0940   20.9280 C   0  0  0  0  0  0  0  0  0  0  0  0
  -24.6020  -11.7420   20.8800 C   0  0  0  0  0  0  0  0  0  0  0  0
  -26.2430  -12.9840   20.2960 N   0  0  0  0  0  0  0  0  0  0  0  0
  -25.8880  -11.7010   20.5570 N   0  0  0  0  0  0  0  0  0  0  0  0
  -23.8750  -10.4800   21.0630 C   0  0  0  0  0  0  0  0  0  0  0  0
  -24.3100   -9.5040   21.9850 C   0  0  0  0  0  3  0  0  0  0  0  0
  -23.5830   -8.3070   22.1570 C   0  0  0  0  0  3  0  0  0  0  0  0
  -22.4070   -8.0760   21.4030 C   0  0  0  0  0  0  0  0  0  0  0  0
  -21.9920   -9.0410   20.4690 C   0  0  0  0  0  3  0  0  0  0  0  0
  -22.7200  -10.2300   20.2950 C   0  0  0  0  0  3  0  0  0  0  0  0
  -21.6500   -6.9330   21.4890 O   0  0  0  0  0  0  0  0  0  0  0  0
  -21.5950   -6.1920   22.6420 C   0  0  0  0  0  0  0  0  0  0  0  0
  -21.1330   -6.7400   23.8580 C   0  0  0  0  0  3  0  0  0  0  0  0
  -21.0260   -5.9240   25.0020 C   0  0  0  0  0  3  0  0  0  0  0  0
  -21.3690   -4.5610   24.9300 C   0  0  0  0  0  0  0  0  0  0  0  0
  -21.8240   -4.0130   23.7180 C   0  0  0  0  0  3  0  0  0  0  0  0
  -21.9340   -4.8260   22.5770 C   0  0  0  0  0  0  0  0  0  0  0  0
  -22.3530   -4.2880   21.4050 F   0  0  0  0  0  0  0  0  0  0  0  0
  -21.2580   -3.7730   26.0250 F   0  0  0  0  0  0  0  0  0  0  0  0
  -22.7520  -13.5740   21.2170 C   0  0  0  0  0  0  0  0  0  0  0  0
  -22.0300  -12.8780   22.0890 N   0  0  0  0  0  0  0  0  0  0  0  0
  -22.3120  -14.6010   20.7040 O   0  0  0  0  0  0  0  0  0  0  0  0
  -22.3990  -12.0460   22.5240 H   0  0  0  0  0  0  0  0  0  0  0  0
  -21.0980  -13.1860   22.3250 H   0  0  0  0  0  0  0  0  0  0  0  0
  -25.3730  -15.2400   20.3920 N   0  0  0  0  0  0  0  0  0  0  0  0
  -24.6100  -15.8920   20.5360 H   0  0  0  0  0  0  0  0  0  0  0  0
  -26.2270  -15.6880   20.0890 H   0  0  0  0  0  0  0  0  0  0  0  0
  -28.3630  -18.6330   18.4510 O   0  0  0  0  0  0  0  0  0  0  0  0
  -27.8170  -19.4040   18.5920 H   0  0  0  0  0  0  0  0  0  0  0  0
  -27.8230  -24.8970   20.0750 C   0  0  0  0  0  2  0  0  0  0  0  0
  -28.2390  -26.3250   20.3360 O   0  0  0  0  0  0  0  0  0  0  0  0
  -24.6320  -31.9130   23.3030 C   0  0  0  0  0  0  0  0  0  0  0  0
  -27.1920  -27.2880   20.2370 C   0  0  0  0  0  0  0  0  0  0  0  0
  -23.4250  -30.5380   21.6520 C   0  0  0  0  0  3  0  0  0  0  0  0
  -24.8670  -28.9910   20.2140 C   0  0  0  0  0  0  0  0  0  0  0  0
  -25.9750  -30.8160   21.4870 C   0  0  0  0  0  2  0  0  0  0  0  0
  -26.0420  -29.4360   20.8300 C   0  0  0  0  0  0  0  0  0  0  0  0
  -27.2080  -28.5970   20.8380 C   0  0  0  0  0  3  0  0  0  0  0  0
  -25.9930  -26.9420   19.5630 C   0  0  0  0  0  3  0  0  0  0  0  0
  -24.8480  -27.7530   19.5670 C   0  0  0  0  0  3  0  0  0  0  0  0
  -23.6410  -29.8800   20.2650 C   0  0  0  0  0  2  0  0  0  0  0  0
  -24.6980  -31.1060   22.2030 N   0  0  0  0  0  0  0  0  0  0  0  0
  -23.5480  -32.1970   23.8330 O   0  0  0  0  0  0  0  0  0  0  0  0
  -22.7470  -29.5180   22.6000 C   0  0  0  0  0  0  0  0  0  0  0  0
  -21.4200  -29.3510   22.4680 N   0  0  0  0  0  0  0  0  0  0  0  0
  -23.4160  -28.8810   23.4170 O   0  0  0  0  0  0  0  0  0  0  0  0
  -20.9360  -29.9170   21.7850 H   0  0  0  0  0  0  0  0  0  0  0  0
  -18.0320  -28.1710   22.9480 C   0  0  0  0  0  0  0  0  0  0  0  0
  -20.5900  -28.4150   23.2300 C   0  0  0  0  0  3  0  0  0  0  0  0
  -20.6850  -26.9830   22.6530 C   0  0  0  0  0  2  0  0  0  0  0  0
  -19.5870  -26.6710   21.6320 C   0  0  0  0  0  2  0  0  0  0  0  0
  -18.2030  -26.8230   22.2690 C   0  0  0  0  0  2  0  0  0  0  0  0
  -19.1520  -28.9260   23.3860 C   0  0  0  0  0  0  0  0  0  0  0  0
  -18.9380  -30.1880   23.9810 C   0  0  0  0  0  3  0  0  0  0  0  0
  -17.6350  -30.6970   24.1400 C   0  0  0  0  0  3  0  0  0  0  0  0
  -16.5280  -29.9400   23.7160 C   0  0  0  0  0  3  0  0  0  0  0  0
  -16.7280  -28.6790   23.1270 C   0  0  0  0  0  3  0  0  0  0  0  0
  -25.9160  -32.5330   23.9320 C   0  0  0  0  0  3  0  0  0  0  0  0
  -25.6200  -33.9350   24.2570 N   0  0  0  0  0  0  0  0  0  0  0  0
  -25.9310  -34.9810   23.4790 C   0  0  0  0  0  0  0  0  0  0  0  0
  -26.5660  -34.8660   22.4280 O   0  0  0  0  0  0  0  0  0  0  0  0
  -25.0520  -34.1000   25.0760 H   0  0  0  0  0  0  0  0  0  0  0  0
  -24.1810  -36.7670   23.1830 C   0  0  0  0  0  1  0  0  0  0  0  0
  -25.4620  -36.3750   23.9400 C   0  0  0  0  0  3  0  0  0  0  0  0
  -27.6300  -37.2800   24.6560 C   0  0  0  0  0  1  0  0  0  0  0  0
  -26.4840  -37.4300   23.7630 N   0  0  0  0  0  0  0  0  0  0  0  0
  -26.0820  -38.3500   23.9170 H   0  0  0  0  0  0  0  0  0  0  0  0
  -26.4130  -31.7590   25.2140 C   0  0  1  0  0  0  0  0  0  0  0  0
  -25.3110  -31.5370   26.2760 C   0  0  0  0  0  1  0  0  0  0  0  0
  -26.9820  -30.3740   24.8300 C   0  0  0  0  0  1  0  0  0  0  0  0
  -27.5660  -32.5430   25.8830 C   0  0  0  0  0  1  0  0  0  0  0  0
  1  2  2  0
  1  4  1  0
  2  5  1  0
  3  6  1  0
  4  3  2  0
  5  6  2  0
  7 20  1  0
  8 13  1  0
  9 10  1  0
  9  8  1  0
 11 10  1  0
 11 24  1  0
 11 12  1  0
 13  7  1  0
 13 12  1  0
 14  7  2  0
 16 15  1  0
 17 19  1  0
 17 20  1  0
 18  5  1  0
 18 15  1  0
 19 49  1  0
 19 18  1  0
 20 16  1  0
 21 22  2  0
 22 41  1  0
 23 22  1  0
 23 26  1  0
 24 21  1  0
 24 25  1  0
 25 23  2  0
 26 27  1  0
 27 28  2  0
 29 32  1  0
 29 28  1  0
 30 29  2  0
 31 30  1  0
 31 26  2  0
 32 33  1  0
 33 34  1  0
 34 35  2  0
 36 35  1  0
 36 40  1  0
 37 36  2  0
 38 33  2  0
 38 37  1  0
 39 38  1  0
 41 42  1  0
 42 45  1  0
 42 44  1  0
 43 41  2  0
 46 47  1  0
 46 21  1  0
 48 46  1  0
 49 50  1  0
 51 52  1  0
 51  4  1  0
 53 64  2  0
 54 52  1  0
 54 59  1  0
 55 63  1  0
 55 65  1  0
 56 62  1  0
 56 58  1  0
 57 63  1  0
 58 59  2  0
 58 57  1  0
 60 61  1  0
 60 54  2  0
 61 56  2  0
 62 55  1  0
 63 53  1  0
 65 67  2  0
 66 65  1  0
 68 66  1  0
 69 78  2  0
 69 74  1  0
 70 66  1  0
 70 74  1  0
 71 70  1  0
 72 73  1  0
 72 71  1  0
 73 69  1  0
 74 75  2  0
 75 76  1  0
 77 76  2  0
 78 77  1  0
 79 53  1  0
 79 80  1  0
 79 89  1  0
 80 83  1  0
 81 85  1  0
 81 80  1  0
 82 81  2  0
 85 84  1  0
 87 88  1  0
 87 85  1  0
 87 86  1  0
 89 92  1  1
 89 90  1  0
 91 89  1  0
M  ISO  4   7 100  20 100  51 101  52 101
M  END
>  <TORSDO>  (52) 
F 18

>  <SCORE>  (52) 
-15.101

>  <name>  (52) 
52

>  <ligand_id>  (52) 
52

>  <original_smiles>  (52) 
[H]OC1([H])C([H])([H])N(C(=O)N2C([H])([H])C([H])([H])C([H])([H])C([H])(n3nc(-c4c([H])c([H])c(Oc5c([H])c([H])c(F)c([H])c5F)c([H])c4[H])c(C(=O)N([H])[H])c3N([H])[H])C2([H])[H])C([H])([H])C([H])([H])C1([H])c1nc([H])c(C([H])([H])Oc2c([H])c([H])c3c(c2[H])C([H])([H])N(C(=O)C([H])(N([H])C(=O)C([H])(N([H])C([H])([H])[H])C([H])([H])[H])C(C([H])([H])[H])(C([H])([H])[H])C([H])([H])[H])C([H])(C(=O)N([H])C2([H])c4c([H])c([H])c([H])c([H])c4C([H])([H])C([H])([H])C2([H])[H])C3([H])[H])c([H])c1[H]

>  <smiles>  (52) 
[H]OC1([H])C([H])([H])N(C(=O)N2C([H])([H])C([H])([H])C([H])([H])C([H])(n3nc(-c4c([H])c([H])c(Oc5c([H])c([H])c(F)c([H])c5F)c([H])c4[H])c(C(=O)N([H])[H])c3N([H])[H])C2([H])[H])C([H])([H])C([H])([H])C1([H])c1nc([H])c(C([H])([H])Oc2c([H])c([H])c3c(c2[H])C([H])([H])N(C(=O)C([H])(N([H])C(=O)C([H])(N([H])C([H])([H])[H])C([H])([H])[H])C(C([H])([H])[H])(C([H])([H])[H])C([H])([H])[H])C([H])(C(=O)N([H])C2([H])c4c([H])c([H])c([H])c([H])c4C([H])([H])C([H])([H])C2([H])[H])C3([H])[H])c([H])c1[H]

$$$$
53:0:0
     RDKit          3D

 90 98  0  0  1  0  0  0  0  0999 V2000
  -29.6990  -23.6740   20.3600 C   0  0  0  0  0  2  0  0  0  0  0  0
  -27.3660  -23.3000   20.2400 C   0  0  0  0  0  2  0  0  0  0  0  0
  -29.7420  -22.0760   20.8400 C   0  0  0  0  0  2  0  0  0  0  0  0
  -27.6490  -21.7230   19.7880 C   0  0  0  0  0  2  0  0  0  0  0  0
  -28.3780  -24.4850   19.8590 C   0  0  2  0  0  0  0  0  0  0  0  0
  -28.4630  -24.5760   18.3210 C   0  0  0  0  0  1  0  0  0  0  0  0
  -28.9900  -20.9990   20.0540 N   0  0  2  0  0  4  0  0  0  0  0  0
  -29.4390  -20.9780   19.1510 H   0  0  0  0  0  0  0  0  0  0  0  0
  -28.2740  -26.0450   20.2840 O   0  0  0  0  0  0  0  0  0  0  0  0
  -24.6600  -31.8610   23.2220 C   0  0  0  0  0  0  0  0  0  0  0  0
  -27.2150  -27.0590   20.1730 C   0  0  0  0  0  0  0  0  0  0  0  0
  -23.4540  -30.4640   21.5890 C   0  0  0  0  0  3  0  0  0  0  0  0
  -24.8940  -28.8730   20.1520 C   0  0  0  0  0  0  0  0  0  0  0  0
  -26.0130  -30.7010   21.4190 C   0  0  0  0  0  2  0  0  0  0  0  0
  -26.0800  -29.3000   20.7610 C   0  0  0  0  0  0  0  0  0  0  0  0
  -27.2320  -28.4110   20.7500 C   0  0  0  0  0  3  0  0  0  0  0  0
  -25.9960  -26.7560   19.5270 C   0  0  0  0  0  3  0  0  0  0  0  0
  -24.8710  -27.6180   19.5200 C   0  0  0  0  0  3  0  0  0  0  0  0
  -23.6700  -29.7820   20.2100 C   0  0  0  0  0  2  0  0  0  0  0  0
  -24.7310  -31.0340   22.1310 N   0  0  0  0  0  0  0  0  0  0  0  0
  -23.5770  -32.1480   23.7540 O   0  0  0  0  0  0  0  0  0  0  0  0
  -22.7750  -29.4640   22.5590 C   0  0  0  0  0  0  0  0  0  0  0  0
  -21.4450  -29.2930   22.4410 N   0  0  0  0  0  0  0  0  0  0  0  0
  -23.4490  -28.8420   23.3850 O   0  0  0  0  0  0  0  0  0  0  0  0
  -20.9550  -29.8470   21.7520 H   0  0  0  0  0  0  0  0  0  0  0  0
  -18.0720  -28.0700   22.9540 C   0  0  0  0  0  0  0  0  0  0  0  0
  -20.6290  -28.3550   23.2170 C   0  0  0  0  0  3  0  0  0  0  0  0
  -20.7420  -26.9200   22.6510 C   0  0  0  0  0  2  0  0  0  0  0  0
  -19.6430  -26.5840   21.6380 C   0  0  0  0  0  2  0  0  0  0  0  0
  -18.2600  -26.7190   22.2820 C   0  0  0  0  0  2  0  0  0  0  0  0
  -19.1840  -28.8440   23.3790 C   0  0  0  0  0  0  0  0  0  0  0  0
  -18.9530  -30.1060   23.9680 C   0  0  0  0  0  3  0  0  0  0  0  0
  -17.6440  -30.5940   24.1390 C   0  0  0  0  0  3  0  0  0  0  0  0
  -16.5460  -29.8170   23.7290 C   0  0  0  0  0  3  0  0  0  0  0  0
  -16.7610  -28.5580   23.1420 C   0  0  0  0  0  3  0  0  0  0  0  0
  -25.9390  -32.5000   23.8450 C   0  0  0  0  0  3  0  0  0  0  0  0
  -25.6240  -33.8980   24.1860 N   0  0  0  0  0  0  0  0  0  0  0  0
  -25.9350  -34.9610   23.4330 C   0  0  0  0  0  0  0  0  0  0  0  0
  -26.5830  -34.8690   22.3870 O   0  0  0  0  0  0  0  0  0  0  0  0
  -25.0470  -34.0430   25.0010 H   0  0  0  0  0  0  0  0  0  0  0  0
  -24.1840  -36.7490   23.1480 C   0  0  0  0  0  1  0  0  0  0  0  0
  -25.4540  -36.3460   23.9130 C   0  0  0  0  0  3  0  0  0  0  0  0
  -27.6080  -37.2460   24.6800 C   0  0  0  0  0  1  0  0  0  0  0  0
  -26.4740  -37.4080   23.7730 N   0  0  0  0  0  0  0  0  0  0  0  0
  -26.0640  -38.3220   23.9400 H   0  0  0  0  0  0  0  0  0  0  0  0
  -26.4580  -31.7310   25.1220 C   0  0  1  0  0  0  0  0  0  0  0  0
  -25.3680  -31.4970   26.1950 C   0  0  0  0  0  1  0  0  0  0  0  0
  -27.0400  -30.3520   24.7380 C   0  0  0  0  0  1  0  0  0  0  0  0
  -27.6120  -32.5260   25.7770 C   0  0  0  0  0  1  0  0  0  0  0  0
  -28.9510  -19.4090   20.5060 C   0  0  0  0  0  2  0  0  0  0  0  0
  -31.4020  -18.4010   20.3490 C   0  0  0  0  0  1  0  0  0  0  0  0
  -29.9450  -18.0450   20.0090 C   0  0  0  0  0  3  0  0  0  0  0  0
  -30.4450  -15.1830   20.1270 C   0  0  0  0  0  0  0  0  0  0  0  0
  -30.3240  -12.7830   19.2130 C   0  0  0  0  0  2  0  0  0  0  0  0
  -29.3770  -12.6850   17.9920 C   0  0  0  0  0  2  0  0  0  0  0  0
  -27.9300  -12.4430   18.4530 C   0  0  0  0  0  2  0  0  0  0  0  0
  -27.5300  -13.3730   19.6290 C   0  0  0  0  0  3  0  0  0  0  0  0
  -28.6060  -13.4460   20.7350 C   0  0  0  0  0  2  0  0  0  0  0  0
  -29.8460  -13.9030   20.0930 N   0  0  0  0  0  0  0  0  0  0  0  0
  -31.6410  -15.1820   19.8140 O   0  0  0  0  0  0  0  0  0  0  0  0
  -29.7090  -16.4380   20.3060 N   0  0  0  0  0  0  0  0  0  0  0  0
  -28.7540  -16.2490   20.5750 H   0  0  0  0  0  0  0  0  0  0  0  0
  -25.1710  -13.9350   20.4190 C   0  0  0  0  0  0  0  0  0  0  0  0
  -24.1170  -13.1580   20.8120 C   0  0  0  0  0  0  0  0  0  0  0  0
  -24.5840  -11.8080   20.7750 C   0  0  0  0  0  0  0  0  0  0  0  0
  -26.2100  -13.0600   20.1590 N   0  0  0  0  0  0  0  0  0  0  0  0
  -25.8700  -11.7750   20.4420 N   0  0  0  0  0  0  0  0  0  0  0  0
  -23.8610  -10.5450   20.9810 C   0  0  0  0  0  0  0  0  0  0  0  0
  -24.3070   -9.5790   21.9090 C   0  0  0  0  0  3  0  0  0  0  0  0
  -23.5810   -8.3840   22.1030 C   0  0  0  0  0  3  0  0  0  0  0  0
  -22.3950   -8.1470   21.3690 C   0  0  0  0  0  0  0  0  0  0  0  0
  -21.9690   -9.1010   20.4290 C   0  0  0  0  0  3  0  0  0  0  0  0
  -22.6950  -10.2870   20.2330 C   0  0  0  0  0  3  0  0  0  0  0  0
  -21.6390   -7.0040   21.4730 O   0  0  0  0  0  0  0  0  0  0  0  0
  -21.6080   -6.2630   22.6260 C   0  0  0  0  0  0  0  0  0  0  0  0
  -21.2050   -6.8210   23.8600 C   0  0  0  0  0  3  0  0  0  0  0  0
  -21.1230   -6.0060   25.0070 C   0  0  0  0  0  3  0  0  0  0  0  0
  -21.4320   -4.6350   24.9220 C   0  0  0  0  0  0  0  0  0  0  0  0
  -21.8290   -4.0780   23.6930 C   0  0  0  0  0  3  0  0  0  0  0  0
  -21.9130   -4.8900   22.5480 C   0  0  0  0  0  0  0  0  0  0  0  0
  -22.2750   -4.3420   21.3630 F   0  0  0  0  0  0  0  0  0  0  0  0
  -21.3460   -3.8510   26.0220 F   0  0  0  0  0  0  0  0  0  0  0  0
  -22.7250  -13.6360   21.1020 C   0  0  0  0  0  0  0  0  0  0  0  0
  -22.0110  -12.9440   21.9840 N   0  0  0  0  0  0  0  0  0  0  0  0
  -22.2790  -14.6570   20.5820 O   0  0  0  0  0  0  0  0  0  0  0  0
  -22.3850  -12.1160   22.4240 H   0  0  0  0  0  0  0  0  0  0  0  0
  -21.0780  -13.2460   22.2230 H   0  0  0  0  0  0  0  0  0  0  0  0
  -25.3260  -15.3050   20.2340 N   0  0  0  0  0  0  0  0  0  0  0  0
  -24.5480  -15.9480   20.3330 H   0  0  0  0  0  0  0  0  0  0  0  0
  -26.1530  -15.7410   19.8460 H   0  0  0  0  0  0  0  0  0  0  0  0
  1  3  1  0
  4  7  1  0
  4  2  1  0
  5  6  1  6
  5  2  1  0
  5  9  1  0
  5  1  1  0
  7 50  1  0
  7  3  1  0
  7  8  1  6
 10 21  2  0
 11  9  1  0
 11 16  1  0
 12 20  1  0
 12 22  1  0
 13 19  1  0
 13 15  1  0
 14 20  1  0
 15 14  1  0
 16 15  2  0
 17 11  2  0
 18 17  1  0
 18 13  2  0
 19 12  1  0
 20 10  1  0
 22 24  2  0
 23 22  1  0
 25 23  1  0
 26 35  2  0
 26 31  1  0
 27 23  1  0
 27 31  1  0
 28 27  1  0
 29 30  1  0
 29 28  1  0
 30 26  1  0
 31 32  2  0
 32 33  1  0
 34 33  2  0
 35 34  1  0
 36 10  1  0
 36 37  1  0
 36 46  1  0
 37 40  1  0
 38 42  1  0
 38 37  1  0
 39 38  2  0
 42 41  1  0
 44 42  1  0
 44 45  1  0
 44 43  1  0
 46 49  1  1
 46 47  1  0
 48 46  1  0
 52 61  1  0
 52 51  1  0
 52 50  1  0
 53 61  1  0
 54 59  1  0
 55 56  1  0
 55 54  1  0
 57 56  1  0
 57 66  1  0
 57 58  1  0
 59 53  1  0
 59 58  1  0
 60 53  2  0
 61 62  1  0
 63 64  2  0
 64 83  1  0
 65 64  1  0
 65 68  1  0
 66 63  1  0
 66 67  1  0
 67 65  2  0
 68 69  1  0
 69 70  2  0
 71 74  1  0
 71 70  1  0
 72 71  2  0
 73 72  1  0
 73 68  2  0
 74 75  1  0
 75 76  1  0
 76 77  2  0
 78 77  1  0
 78 82  1  0
 79 78  2  0
 80 75  2  0
 80 79  1  0
 81 80  1  0
 83 84  1  0
 84 87  1  0
 84 86  1  0
 85 83  2  0
 88 89  1  0
 88 63  1  0
 90 88  1  0
M  ISO  4   5 101   9 101  53 100  61 100
M  END
>  <TORSDO>  (53) 
F 18

>  <SCORE>  (53) 
-15.157

>  <name>  (53) 
53

>  <ligand_id>  (53) 
53

>  <original_smiles>  (53) 
[H]c1c([H])c([H])c2c(c1[H])C([H])([H])C([H])([H])C([H])([H])C2([H])N([H])C(=O)C1([H])N(C(=O)C([H])(N([H])C(=O)C([H])(N([H])C([H])([H])[H])C([H])([H])[H])C(C([H])([H])[H])(C([H])([H])[H])C([H])([H])[H])C([H])([H])c2c([H])c(OC3(C([H])([H])[H])C([H])([H])C([H])([H])[N+]([H])(C([H])([H])C([H])(N([H])C(=O)N4C([H])([H])C([H])([H])C([H])([H])C([H])(n5nc(-c6c([H])c([H])c(Oc7c([H])c([H])c(F)c([H])c7F)c([H])c6[H])c(C(=O)N([H])[H])c5N([H])[H])C4([H])[H])C([H])([H])[H])C([H])([H])C3([H])[H])c([H])c([H])c2C1([H])[H]

>  <smiles>  (53) 
[H]c1c([H])c([H])c2c(c1[H])C([H])([H])C([H])([H])C([H])([H])C2([H])N([H])C(=O)C1([H])N(C(=O)C([H])(N([H])C(=O)C([H])(N([H])C([H])([H])[H])C([H])([H])[H])C(C([H])([H])[H])(C([H])([H])[H])C([H])([H])[H])C([H])([H])c2c([H])c(OC3(C([H])([H])[H])C([H])([H])C([H])([H])[N+]([H])(C([H])([H])C([H])(N([H])C(=O)N4C([H])([H])C([H])([H])C([H])([H])C([H])(n5nc(-c6c([H])c([H])c(Oc7c([H])c([H])c(F)c([H])c7F)c([H])c6[H])c(C(=O)N([H])[H])c5N([H])[H])C4([H])[H])C([H])([H])[H])C([H])([H])C3([H])[H])c([H])c([H])c2C1([H])[H]

$$$$
54:0:0
     RDKit          3D

 93101  0  0  1  0  0  0  0  0999 V2000
  -29.0290  -22.0280   19.8090 C   0  0  0  0  0  2  0  0  0  0  0  0
  -27.9460  -22.6830   21.9750 C   0  0  0  0  0  1  0  0  0  0  0  0
  -29.0480  -22.9290   21.0120 N   0  0  2  0  0  4  0  0  0  0  0  0
  -29.8750  -22.6400   21.5170 H   0  0  0  0  0  0  0  0  0  0  0  0
  -29.2910  -24.4000   20.7350 C   0  0  0  0  0  2  0  0  0  0  0  0
  -28.0910  -25.2430   20.1830 C   0  0  0  0  0  2  0  0  0  0  0  0
  -28.3010  -26.6880   20.1840 O   0  0  0  0  0  0  0  0  0  0  0  0
  -24.5720  -31.9480   23.2650 C   0  0  0  0  0  0  0  0  0  0  0  0
  -27.1590  -27.4820   20.1360 C   0  0  0  0  0  0  0  0  0  0  0  0
  -23.3440  -30.5580   21.6340 C   0  0  0  0  0  3  0  0  0  0  0  0
  -24.7750  -29.0340   20.1700 C   0  0  0  0  0  0  0  0  0  0  0  0
  -25.8710  -30.9060   21.4060 C   0  0  0  0  0  2  0  0  0  0  0  0
  -25.9450  -29.5400   20.7470 C   0  0  0  0  0  0  0  0  0  0  0  0
  -27.1420  -28.7790   20.7170 C   0  0  0  0  0  3  0  0  0  0  0  0
  -25.9690  -27.0150   19.5320 C   0  0  0  0  0  3  0  0  0  0  0  0
  -24.7860  -27.7730   19.5530 C   0  0  0  0  0  3  0  0  0  0  0  0
  -23.5300  -29.8910   20.2450 C   0  0  0  0  0  2  0  0  0  0  0  0
  -24.6150  -31.1520   22.1590 N   0  0  0  0  0  0  0  0  0  0  0  0
  -23.4970  -32.2220   23.8180 O   0  0  0  0  0  0  0  0  0  0  0  0
  -22.7020  -29.5320   22.5970 C   0  0  0  0  0  0  0  0  0  0  0  0
  -21.3810  -29.3310   22.4650 N   0  0  0  0  0  0  0  0  0  0  0  0
  -23.3900  -28.9210   23.4190 O   0  0  0  0  0  0  0  0  0  0  0  0
  -20.8870  -29.8820   21.7760 H   0  0  0  0  0  0  0  0  0  0  0  0
  -18.0250  -28.0720   22.9360 C   0  0  0  0  0  0  0  0  0  0  0  0
  -20.5730  -28.3830   23.2330 C   0  0  0  0  0  3  0  0  0  0  0  0
  -20.7100  -26.9490   22.6720 C   0  0  0  0  0  2  0  0  0  0  0  0
  -19.6280  -26.5980   21.6460 C   0  0  0  0  0  2  0  0  0  0  0  0
  -18.2370  -26.7210   22.2740 C   0  0  0  0  0  2  0  0  0  0  0  0
  -19.1220  -28.8600   23.3710 C   0  0  0  0  0  0  0  0  0  0  0  0
  -18.8730  -30.1240   23.9500 C   0  0  0  0  0  3  0  0  0  0  0  0
  -17.5580  -30.6020   24.0960 C   0  0  0  0  0  3  0  0  0  0  0  0
  -16.4720  -29.8120   23.6760 C   0  0  0  0  0  3  0  0  0  0  0  0
  -16.7080  -28.5480   23.1040 C   0  0  0  0  0  3  0  0  0  0  0  0
  -25.8660  -32.5720   23.8750 C   0  0  0  0  0  3  0  0  0  0  0  0
  -25.5710  -33.9730   24.2010 N   0  0  0  0  0  0  0  0  0  0  0  0
  -25.9070  -35.0200   23.4360 C   0  0  0  0  0  0  0  0  0  0  0  0
  -26.5700  -34.9070   22.4000 O   0  0  0  0  0  0  0  0  0  0  0  0
  -24.9790  -34.1370   25.0030 H   0  0  0  0  0  0  0  0  0  0  0  0
  -24.1920  -36.8240   23.0760 C   0  0  0  0  0  1  0  0  0  0  0  0
  -25.4310  -36.4140   23.8890 C   0  0  0  0  0  3  0  0  0  0  0  0
  -27.5730  -37.2830   24.7170 C   0  0  0  0  0  1  0  0  0  0  0  0
  -26.4740  -37.4560   23.7710 N   0  0  0  0  0  0  0  0  0  0  0  0
  -26.0770  -38.3820   23.9110 H   0  0  0  0  0  0  0  0  0  0  0  0
  -26.3870  -31.8030   25.1520 C   0  0  1  0  0  0  0  0  0  0  0  0
  -25.2980  -31.5790   26.2260 C   0  0  0  0  0  1  0  0  0  0  0  0
  -26.9590  -30.4200   24.7640 C   0  0  0  0  0  1  0  0  0  0  0  0
  -27.5480  -32.5930   25.8020 C   0  0  0  0  0  1  0  0  0  0  0  0
  -28.6330  -20.5100   20.0020 C   0  0  0  0  0  2  0  0  0  0  0  0
  -29.3630  -18.0600   20.3080 C   0  0  0  0  0  3  0  0  0  0  0  0
  -30.9490  -19.8030   20.9280 C   0  0  0  0  0  3  0  0  0  0  0  0
  -31.5600  -17.4360   21.1450 C   0  0  0  0  0  3  0  0  0  0  0  0
  -29.6760  -19.4490   20.4290 C   0  0  0  0  0  0  0  0  0  0  0  0
  -30.2990  -17.0390   20.6450 C   0  0  0  0  0  0  0  0  0  0  0  0
  -31.8780  -18.8020   21.2870 C   0  0  0  0  0  0  0  0  0  0  0  0
  -33.4160  -19.2610   21.9180 Cl  0  0  0  0  0  0  0  0  0  0  0  0
  -30.6740  -14.6080   20.0910 C   0  0  0  0  0  0  0  0  0  0  0  0
  -30.3450  -12.4330   18.9570 C   0  0  0  0  0  2  0  0  0  0  0  0
  -29.3400  -12.6360   17.8030 C   0  0  0  0  0  2  0  0  0  0  0  0
  -27.8900  -12.4950   18.3090 C   0  0  0  0  0  2  0  0  0  0  0  0
  -27.6180  -13.3220   19.5940 C   0  0  0  0  0  3  0  0  0  0  0  0
  -28.7310  -13.0970   20.6420 C   0  0  0  0  0  2  0  0  0  0  0  0
  -30.0170  -13.4170   20.0010 N   0  0  0  0  0  0  0  0  0  0  0  0
  -31.8010  -14.7770   19.6110 O   0  0  0  0  0  0  0  0  0  0  0  0
  -29.9350  -15.6490   20.5510 N   0  0  0  0  0  0  0  0  0  0  0  0
  -28.9770  -15.4160   20.7650 H   0  0  0  0  0  0  0  0  0  0  0  0
  -25.2650  -13.9320   20.4380 C   0  0  0  0  0  0  0  0  0  0  0  0
  -24.2130  -13.1600   20.8530 C   0  0  0  0  0  0  0  0  0  0  0  0
  -24.6620  -11.8070   20.7750 C   0  0  0  0  0  0  0  0  0  0  0  0
  -26.2910  -13.0480   20.1400 N   0  0  0  0  0  0  0  0  0  0  0  0
  -25.9320  -11.7640   20.3960 N   0  0  0  0  0  0  0  0  0  0  0  0
  -23.9380  -10.5450   20.9820 C   0  0  0  0  0  0  0  0  0  0  0  0
  -24.3990   -9.5710   21.8960 C   0  0  0  0  0  3  0  0  0  0  0  0
  -23.6770   -8.3750   22.0910 C   0  0  0  0  0  3  0  0  0  0  0  0
  -22.4780   -8.1430   21.3740 C   0  0  0  0  0  0  0  0  0  0  0  0
  -22.0360   -9.1060   20.4500 C   0  0  0  0  0  3  0  0  0  0  0  0
  -22.7590  -10.2950   20.2520 C   0  0  0  0  0  3  0  0  0  0  0  0
  -21.7260   -6.9980   21.4800 O   0  0  0  0  0  0  0  0  0  0  0  0
  -21.6940   -6.2620   22.6360 C   0  0  0  0  0  0  0  0  0  0  0  0
  -21.2680   -6.8190   23.8630 C   0  0  0  0  0  3  0  0  0  0  0  0
  -21.1830   -6.0090   25.0110 C   0  0  0  0  0  3  0  0  0  0  0  0
  -21.5150   -4.6430   24.9360 C   0  0  0  0  0  0  0  0  0  0  0  0
  -21.9330   -4.0850   23.7160 C   0  0  0  0  0  3  0  0  0  0  0  0
  -22.0200   -4.8920   22.5680 C   0  0  0  0  0  0  0  0  0  0  0  0
  -22.4040   -4.3470   21.3900 F   0  0  0  0  0  0  0  0  0  0  0  0
  -21.4260   -3.8610   26.0390 F   0  0  0  0  0  0  0  0  0  0  0  0
  -22.8360  -13.6440   21.2040 C   0  0  0  0  0  0  0  0  0  0  0  0
  -22.1450  -12.9390   22.0950 N   0  0  0  0  0  0  0  0  0  0  0  0
  -22.3810  -14.6810   20.7260 O   0  0  0  0  0  0  0  0  0  0  0  0
  -22.5240  -12.1000   22.5080 H   0  0  0  0  0  0  0  0  0  0  0  0
  -21.2210  -13.2450   22.3690 H   0  0  0  0  0  0  0  0  0  0  0  0
  -25.4300  -15.3030   20.2690 N   0  0  0  0  0  0  0  0  0  0  0  0
  -24.6640  -15.9530   20.4100 H   0  0  0  0  0  0  0  0  0  0  0  0
  -26.2440  -15.7360   19.8540 H   0  0  0  0  0  0  0  0  0  0  0  0
  1 48  1  0
  1  3  1  0
  3  4  1  1
  3  2  1  0
  5  3  1  0
  6  7  1  0
  6  5  1  0
  8 19  2  0
  9  7  1  0
  9 14  1  0
 10 18  1  0
 10 20  1  0
 11 17  1  0
 11 13  1  0
 12 18  1  0
 13 12  1  0
 14 13  2  0
 15 16  1  0
 15  9  2  0
 16 11  2  0
 17 10  1  0
 18  8  1  0
 20 22  2  0
 21 20  1  0
 23 21  1  0
 24 33  2  0
 24 29  1  0
 25 21  1  0
 25 29  1  0
 26 25  1  0
 27 28  1  0
 27 26  1  0
 28 24  1  0
 29 30  2  0
 30 31  1  0
 32 31  2  0
 33 32  1  0
 34  8  1  0
 34 35  1  0
 34 44  1  0
 35 38  1  0
 36 40  1  0
 36 35  1  0
 37 36  2  0
 40 39  1  0
 42 40  1  0
 42 43  1  0
 42 41  1  0
 44 47  1  1
 44 45  1  0
 46 44  1  0
 48 52  1  0
 49 52  2  0
 49 53  1  0
 50 54  2  0
 51 54  1  0
 52 50  1  0
 53 51  2  0
 54 55  1  0
 56 64  1  0
 57 62  1  0
 58 59  1  0
 58 57  1  0
 60 59  1  0
 60 69  1  0
 60 61  1  0
 62 56  1  0
 62 61  1  0
 63 56  2  0
 64 53  1  0
 64 65  1  0
 66 67  2  0
 67 86  1  0
 68 67  1  0
 68 71  1  0
 69 70  1  0
 69 66  1  0
 70 68  2  0
 71 72  1  0
 72 73  2  0
 74 77  1  0
 74 73  1  0
 75 74  2  0
 76 75  1  0
 76 71  2  0
 77 78  1  0
 78 79  1  0
 79 80  2  0
 81 80  1  0
 81 85  1  0
 82 81  2  0
 83 78  2  0
 83 82  1  0
 84 83  1  0
 86 87  1  0
 87 90  1  0
 87 89  1  0
 88 86  2  0
 91 92  1  0
 91 66  1  0
 93 91  1  0
M  ISO  4   6 101   7 101  56 100  64 100
M  END
>  <TORSDO>  (54) 
F 21

>  <SCORE>  (54) 
-13.456

>  <name>  (54) 
54

>  <ligand_id>  (54) 
54

>  <original_smiles>  (54) 
[H]c1c([H])c([H])c2c(c1[H])C([H])([H])C([H])([H])C([H])([H])C2([H])N([H])C(=O)C1([H])N(C(=O)C([H])(N([H])C(=O)C([H])(N([H])C([H])([H])[H])C([H])([H])[H])C(C([H])([H])[H])(C([H])([H])[H])C([H])([H])[H])C([H])([H])c2c([H])c(OC([H])([H])C([H])([H])[N+]([H])(C([H])([H])[H])C([H])([H])C([H])([H])c3c([H])c(Cl)c([H])c(N([H])C(=O)N4C([H])([H])C([H])([H])C([H])([H])C([H])(n5nc(-c6c([H])c([H])c(Oc7c([H])c([H])c(F)c([H])c7F)c([H])c6[H])c(C(=O)N([H])[H])c5N([H])[H])C4([H])[H])c3[H])c([H])c([H])c2C1([H])[H]

>  <smiles>  (54) 
[H]c1c([H])c([H])c2c(c1[H])C([H])([H])C([H])([H])C([H])([H])C2([H])N([H])C(=O)C1([H])N(C(=O)C([H])(N([H])C(=O)C([H])(N([H])C([H])([H])[H])C([H])([H])[H])C(C([H])([H])[H])(C([H])([H])[H])C([H])([H])[H])C([H])([H])c2c([H])c(OC([H])([H])C([H])([H])[N+]([H])(C([H])([H])[H])C([H])([H])C([H])([H])c3c([H])c(Cl)c([H])c(N([H])C(=O)N4C([H])([H])C([H])([H])C([H])([H])C([H])(n5nc(-c6c([H])c([H])c(Oc7c([H])c([H])c(F)c([H])c7F)c([H])c6[H])c(C(=O)N([H])[H])c5N([H])[H])C4([H])[H])c3[H])c([H])c([H])c2C1([H])[H]

$$$$
55:0:0
     RDKit          3D

 96105  0  0  1  0  0  0  0  0999 V2000
  -30.4670  -15.0270   20.4060 C   0  0  0  0  0  0  0  0  0  0  0  0
  -30.3700  -12.6530   19.4820 C   0  0  0  0  0  2  0  0  0  0  0  0
  -29.4530  -12.5990   18.2360 C   0  0  0  0  0  2  0  0  0  0  0  0
  -27.9890  -12.3760   18.6630 C   0  0  0  0  0  2  0  0  0  0  0  0
  -27.5670  -13.3100   19.8260 C   0  0  0  0  0  3  0  0  0  0  0  0
  -28.6100  -13.3380   20.9630 C   0  0  0  0  0  2  0  0  0  0  0  0
  -29.8770  -13.7600   20.3580 N   0  0  0  0  0  0  0  0  0  0  0  0
  -31.6810  -15.0530   20.1570 O   0  0  0  0  0  0  0  0  0  0  0  0
  -29.1270  -18.9270   20.3050 C   0  0  0  0  0  3  0  0  0  0  0  0
  -31.6290  -19.3320   21.1760 C   0  0  0  0  0  3  0  0  0  0  0  0
  -29.5370  -20.3700   20.4170 C   0  0  0  0  0  0  0  0  0  0  0  0
  -30.8870  -20.4940   20.8260 C   0  0  0  0  0  0  0  0  0  0  0  0
  -29.9950  -17.7360   20.6020 C   0  0  0  0  0  0  0  0  0  0  0  0
  -31.2190  -18.0500   21.0660 N   0  0  0  0  0  0  0  0  0  0  0  0
  -29.6760  -16.2270   20.4890 N   0  0  0  0  0  0  0  0  0  0  0  0
  -28.6900  -16.0260   20.5280 H   0  0  0  0  0  0  0  0  0  0  0  0
  -25.1890  -13.8990   20.5470 C   0  0  0  0  0  0  0  0  0  0  0  0
  -24.1180  -13.1300   20.9080 C   0  0  0  0  0  0  0  0  0  0  0  0
  -24.5770  -11.7770   20.8820 C   0  0  0  0  0  0  0  0  0  0  0  0
  -26.2270  -13.0160   20.3150 N   0  0  0  0  0  0  0  0  0  0  0  0
  -25.8690  -11.7330   20.5780 N   0  0  0  0  0  0  0  0  0  0  0  0
  -23.8400  -10.5210   21.0640 C   0  0  0  0  0  0  0  0  0  0  0  0
  -24.2620   -9.5460   21.9930 C   0  0  0  0  0  3  0  0  0  0  0  0
  -23.5270   -8.3540   22.1650 C   0  0  0  0  0  3  0  0  0  0  0  0
  -22.3550   -8.1280   21.4060 C   0  0  0  0  0  0  0  0  0  0  0  0
  -21.9520   -9.0900   20.4640 C   0  0  0  0  0  3  0  0  0  0  0  0
  -22.6880  -10.2730   20.2910 C   0  0  0  0  0  3  0  0  0  0  0  0
  -21.5900   -6.9890   21.4880 O   0  0  0  0  0  0  0  0  0  0  0  0
  -21.5300   -6.2430   22.6370 C   0  0  0  0  0  0  0  0  0  0  0  0
  -21.1050   -6.7970   23.8640 C   0  0  0  0  0  3  0  0  0  0  0  0
  -20.9940   -5.9790   25.0060 C   0  0  0  0  0  3  0  0  0  0  0  0
  -21.2960   -4.6070   24.9200 C   0  0  0  0  0  0  0  0  0  0  0  0
  -21.7130   -4.0510   23.6990 C   0  0  0  0  0  3  0  0  0  0  0  0
  -21.8270   -4.8680   22.5600 C   0  0  0  0  0  0  0  0  0  0  0  0
  -22.2090   -4.3240   21.3800 F   0  0  0  0  0  0  0  0  0  0  0  0
  -21.1810   -3.8180   26.0150 F   0  0  0  0  0  0  0  0  0  0  0  0
  -22.7230  -13.6160   21.1660 C   0  0  0  0  0  0  0  0  0  0  0  0
  -21.9840  -12.9260   22.0300 N   0  0  0  0  0  0  0  0  0  0  0  0
  -22.2970  -14.6430   20.6380 O   0  0  0  0  0  0  0  0  0  0  0  0
  -22.3430  -12.0960   22.4760 H   0  0  0  0  0  0  0  0  0  0  0  0
  -21.0470  -13.2330   22.2450 H   0  0  0  0  0  0  0  0  0  0  0  0
  -25.3570  -15.2680   20.3660 N   0  0  0  0  0  0  0  0  0  0  0  0
  -24.5780  -15.9110   20.4650 H   0  0  0  0  0  0  0  0  0  0  0  0
  -26.1750  -15.7040   19.9630 H   0  0  0  0  0  0  0  0  0  0  0  0
  -27.7400  -21.4160   18.8310 C   0  0  0  0  0  1  0  0  0  0  0  0
  -28.8120  -21.7860   19.8690 C   0  0  0  0  0  3  0  0  0  0  0  0
  -28.2620  -23.1660   20.7280 C   0  0  0  0  0  2  0  0  0  0  0  0
  -28.9310  -25.2280   22.2440 C   0  0  0  0  0  1  0  0  0  0  0  0
  -28.7430  -24.8210   20.7740 C   0  0  0  0  0  3  0  0  0  0  0  0
  -28.3650  -26.2020   20.1120 O   0  0  0  0  0  0  0  0  0  0  0  0
  -24.6360  -31.8720   23.2320 C   0  0  0  0  0  0  0  0  0  0  0  0
  -27.2560  -27.1150   20.2710 C   0  0  0  0  0  0  0  0  0  0  0  0
  -23.4520  -30.4610   21.5920 C   0  0  0  0  0  3  0  0  0  0  0  0
  -24.9140  -28.8580   20.2100 C   0  0  0  0  0  0  0  0  0  0  0  0
  -26.0060  -30.7270   21.4410 C   0  0  0  0  0  2  0  0  0  0  0  0
  -26.0900  -29.3180   20.8200 C   0  0  0  0  0  0  0  0  0  0  0  0
  -27.2600  -28.4640   20.8280 C   0  0  0  0  0  3  0  0  0  0  0  0
  -26.0540  -26.7620   19.6260 C   0  0  0  0  0  3  0  0  0  0  0  0
  -24.9100  -27.5940   19.5990 C   0  0  0  0  0  3  0  0  0  0  0  0
  -23.6900  -29.7620   20.2250 C   0  0  0  0  0  2  0  0  0  0  0  0
  -24.7190  -31.0440   22.1440 N   0  0  0  0  0  0  0  0  0  0  0  0
  -23.5450  -32.1510   23.7510 O   0  0  0  0  0  0  0  0  0  0  0  0
  -22.7630  -29.4660   22.5590 C   0  0  0  0  0  0  0  0  0  0  0  0
  -21.4340  -29.3000   22.4350 N   0  0  0  0  0  0  0  0  0  0  0  0
  -23.4310  -28.8400   23.3860 O   0  0  0  0  0  0  0  0  0  0  0  0
  -20.9470  -29.8530   21.7430 H   0  0  0  0  0  0  0  0  0  0  0  0
  -18.0510  -28.1060   22.9510 C   0  0  0  0  0  0  0  0  0  0  0  0
  -20.6120  -28.3660   23.2100 C   0  0  0  0  0  3  0  0  0  0  0  0
  -20.7080  -26.9320   22.6390 C   0  0  0  0  0  2  0  0  0  0  0  0
  -19.6030  -26.6080   21.6280 C   0  0  0  0  0  2  0  0  0  0  0  0
  -18.2240  -26.7570   22.2750 C   0  0  0  0  0  2  0  0  0  0  0  0
  -19.1720  -28.8670   23.3770 C   0  0  0  0  0  0  0  0  0  0  0  0
  -18.9560  -30.1280   23.9740 C   0  0  0  0  0  3  0  0  0  0  0  0
  -17.6510  -30.6290   24.1460 C   0  0  0  0  0  3  0  0  0  0  0  0
  -16.5450  -29.8650   23.7350 C   0  0  0  0  0  3  0  0  0  0  0  0
  -16.7450  -28.6040   23.1440 C   0  0  0  0  0  3  0  0  0  0  0  0
  -25.9050  -32.5200   23.8630 C   0  0  0  0  0  3  0  0  0  0  0  0
  -25.5850  -33.9220   24.1870 N   0  0  0  0  0  0  0  0  0  0  0  0
  -25.9150  -34.9760   23.4280 C   0  0  0  0  0  0  0  0  0  0  0  0
  -26.5850  -34.8740   22.3980 O   0  0  0  0  0  0  0  0  0  0  0  0
  -24.9960  -34.0790   24.9910 H   0  0  0  0  0  0  0  0  0  0  0  0
  -24.1850  -36.7680   23.0660 C   0  0  0  0  0  1  0  0  0  0  0  0
  -25.4230  -36.3640   23.8840 C   0  0  0  0  0  3  0  0  0  0  0  0
  -27.5530  -37.2560   24.7180 C   0  0  0  0  0  1  0  0  0  0  0  0
  -26.4510  -37.4220   23.7740 N   0  0  0  0  0  0  0  0  0  0  0  0
  -26.0410  -38.3400   23.9190 H   0  0  0  0  0  0  0  0  0  0  0  0
  -26.4120  -31.7620   25.1520 C   0  0  1  0  0  0  0  0  0  0  0  0
  -25.3120  -31.5340   26.2170 C   0  0  0  0  0  1  0  0  0  0  0  0
  -26.9930  -30.3790   24.7840 C   0  0  0  0  0  1  0  0  0  0  0  0
  -27.5610  -32.5580   25.8110 C   0  0  0  0  0  1  0  0  0  0  0  0
  -31.4610  -21.7500   20.8080 O   0  0  0  0  0  0  0  0  0  0  0  0
  -32.8700  -21.8380   20.5750 C   0  0  0  0  0  2  0  0  0  0  0  0
  -33.1880  -23.1270   19.8010 C   0  0  0  0  0  2  0  0  0  0  0  0
  -31.4440  -23.4260   17.8600 C   0  0  0  0  0  2  0  0  0  0  0  0
  -32.6270  -24.2750   17.4740 C   0  0  0  0  0  2  0  0  0  0  0  0
  -32.8270  -23.0390   18.3280 C   0  0  0  0  0  3  0  0  0  0  0  0
  1 15  1  0
  2  7  1  0
  3  4  1  0
  3  2  1  0
  5  4  1  0
  5 20  1  0
  5  6  1  0
  7  1  1  0
  7  6  1  0
  8  1  2  0
  9 11  2  0
  9 13  1  0
 11 12  1  0
 12 10  2  0
 13 14  2  0
 14 10  1  0
 15 16  1  0
 15 13  1  0
 17 18  2  0
 18 37  1  0
 19 18  1  0
 19 22  1  0
 20 17  1  0
 20 21  1  0
 21 19  2  0
 22 23  1  0
 23 24  2  0
 25 28  1  0
 25 24  1  0
 26 25  2  0
 27 26  1  0
 27 22  2  0
 28 29  1  0
 29 30  1  0
 30 31  2  0
 32 31  1  0
 32 36  1  0
 33 32  2  0
 34 29  2  0
 34 33  1  0
 35 34  1  0
 37 38  1  0
 38 41  1  0
 38 40  1  0
 39 37  2  0
 42 43  1  0
 42 17  1  0
 44 42  1  0
 46 45  1  0
 46 11  1  0
 46 47  1  0
 47 49  1  0
 49 48  1  0
 50 52  1  0
 50 49  1  0
 51 62  2  0
 52 57  1  0
 53 61  1  0
 53 63  1  0
 54 60  1  0
 54 56  1  0
 55 61  1  0
 56 57  2  0
 56 55  1  0
 58 52  2  0
 59 58  1  0
 59 54  2  0
 60 53  1  0
 61 51  1  0
 63 65  2  0
 64 63  1  0
 66 64  1  0
 67 76  2  0
 67 72  1  0
 68 64  1  0
 68 72  1  0
 69 68  1  0
 70 71  1  0
 70 69  1  0
 71 67  1  0
 72 73  2  0
 73 74  1  0
 75 74  2  0
 76 75  1  0
 77 51  1  0
 77 78  1  0
 77 87  1  0
 78 81  1  0
 79 83  1  0
 79 78  1  0
 80 79  2  0
 83 82  1  0
 85 83  1  0
 85 86  1  0
 85 84  1  0
 87 90  1  1
 87 88  1  0
 89 87  1  0
 91 12  1  0
 92 91  1  0
 93 92  1  0
 94 96  1  0
 95 94  1  0
 95 96  1  0
 96 93  1  0
M  ISO  4   1 100  15 100  49 101  50 101
M  END
>  <TORSDO>  (55) 
F 22

>  <SCORE>  (55) 
-14.053

>  <name>  (55) 
55

>  <ligand_id>  (55) 
55

>  <original_smiles>  (55) 
[H]c1nc(N([H])C(=O)N2C([H])([H])C([H])([H])C([H])([H])C([H])(n3nc(-c4c([H])c([H])c(Oc5c([H])c([H])c(F)c([H])c5F)c([H])c4[H])c(C(=O)N([H])[H])c3N([H])[H])C2([H])[H])c([H])c(C([H])(C([H])([H])[H])C([H])([H])C([H])(Oc2c([H])c([H])c3c(c2[H])C([H])([H])N(C(=O)C([H])(N([H])C(=O)C([H])(N([H])C([H])([H])[H])C([H])([H])[H])C(C([H])([H])[H])(C([H])([H])[H])C([H])([H])[H])C([H])(C(=O)N([H])C2([H])c4c([H])c([H])c([H])c([H])c4C([H])([H])C([H])([H])C2([H])[H])C3([H])[H])C([H])([H])[H])c1OC([H])([H])C([H])([H])C1([H])C([H])([H])C1([H])[H]

>  <smiles>  (55) 
[H]c1nc(N([H])C(=O)N2C([H])([H])C([H])([H])C([H])([H])C([H])(n3nc(-c4c([H])c([H])c(Oc5c([H])c([H])c(F)c([H])c5F)c([H])c4[H])c(C(=O)N([H])[H])c3N([H])[H])C2([H])[H])c([H])c(C([H])(C([H])([H])[H])C([H])([H])C([H])(Oc2c([H])c([H])c3c(c2[H])C([H])([H])N(C(=O)C([H])(N([H])C(=O)C([H])(N([H])C([H])([H])[H])C([H])([H])[H])C(C([H])([H])[H])(C([H])([H])[H])C([H])([H])[H])C([H])(C(=O)N([H])C2([H])c4c([H])c([H])c([H])c([H])c4C([H])([H])C([H])([H])C2([H])[H])C3([H])[H])C([H])([H])[H])c1OC([H])([H])C([H])([H])C1([H])C([H])([H])C1([H])[H]

$$$$
56:0:0
     RDKit          3D

 97106  0  0  1  0  0  0  0  0999 V2000
  -27.9140  -22.9150   21.6140 C   0  0  0  0  0  3  0  0  0  0  0  0
  -28.2270  -21.5290   21.5120 C   0  0  0  0  0  3  0  0  0  0  0  0
  -29.7220  -23.4500   20.1460 C   0  0  0  0  0  3  0  0  0  0  0  0
  -28.6320  -23.9310   20.9280 C   0  0  0  0  0  0  0  0  0  0  0  0
  -30.0400  -22.0450   20.0290 C   0  0  0  0  0  0  0  0  0  0  0  0
  -29.2840  -21.0300   20.7070 C   0  0  0  0  0  0  0  0  0  0  0  0
  -31.2030  -21.6490   19.1380 C   0  0  0  0  0  1  0  0  0  0  0  0
  -28.2530  -25.4450   21.2380 C   0  0  0  0  0  2  0  0  0  0  0  0
  -28.3280  -26.5590   20.2670 O   0  0  0  0  0  0  0  0  0  0  0  0
  -24.5570  -31.9670   23.3010 C   0  0  0  0  0  0  0  0  0  0  0  0
  -27.2280  -27.4310   20.2630 C   0  0  0  0  0  0  0  0  0  0  0  0
  -23.3730  -30.5480   21.6630 C   0  0  0  0  0  3  0  0  0  0  0  0
  -24.8460  -29.0090   20.2440 C   0  0  0  0  0  0  0  0  0  0  0  0
  -25.9080  -30.8980   21.4800 C   0  0  0  0  0  2  0  0  0  0  0  0
  -26.0080  -29.5170   20.8400 C   0  0  0  0  0  0  0  0  0  0  0  0
  -27.2080  -28.7400   20.8390 C   0  0  0  0  0  3  0  0  0  0  0  0
  -26.0450  -26.9710   19.6520 C   0  0  0  0  0  3  0  0  0  0  0  0
  -24.8660  -27.7400   19.6430 C   0  0  0  0  0  3  0  0  0  0  0  0
  -23.5960  -29.8670   20.2870 C   0  0  0  0  0  2  0  0  0  0  0  0
  -24.6320  -31.1550   22.2040 N   0  0  0  0  0  0  0  0  0  0  0  0
  -23.4710  -32.2320   23.8350 O   0  0  0  0  0  0  0  0  0  0  0  0
  -22.7200  -29.5290   22.6280 C   0  0  0  0  0  0  0  0  0  0  0  0
  -21.4000  -29.3200   22.4850 N   0  0  0  0  0  0  0  0  0  0  0  0
  -23.4020  -28.9290   23.4620 O   0  0  0  0  0  0  0  0  0  0  0  0
  -20.9100  -29.8560   21.7840 H   0  0  0  0  0  0  0  0  0  0  0  0
  -18.0470  -28.0410   22.9430 C   0  0  0  0  0  0  0  0  0  0  0  0
  -20.5920  -28.3730   23.2560 C   0  0  0  0  0  3  0  0  0  0  0  0
  -20.7440  -26.9360   22.7060 C   0  0  0  0  0  2  0  0  0  0  0  0
  -19.6700  -26.5690   21.6760 C   0  0  0  0  0  2  0  0  0  0  0  0
  -18.2730  -26.6870   22.2920 C   0  0  0  0  0  2  0  0  0  0  0  0
  -19.1370  -28.8410   23.3820 C   0  0  0  0  0  0  0  0  0  0  0  0
  -18.8740  -30.1060   23.9490 C   0  0  0  0  0  3  0  0  0  0  0  0
  -17.5530  -30.5740   24.0830 C   0  0  0  0  0  3  0  0  0  0  0  0
  -16.4770  -29.7730   23.6620 C   0  0  0  0  0  3  0  0  0  0  0  0
  -16.7260  -28.5090   23.0970 C   0  0  0  0  0  3  0  0  0  0  0  0
  -25.8330  -32.6170   23.9220 C   0  0  0  0  0  3  0  0  0  0  0  0
  -25.5170  -34.0220   24.2180 N   0  0  0  0  0  0  0  0  0  0  0  0
  -25.8770  -35.0600   23.4510 C   0  0  0  0  0  0  0  0  0  0  0  0
  -26.5770  -34.9370   22.4440 O   0  0  0  0  0  0  0  0  0  0  0  0
  -24.9010  -34.1930   24.9990 H   0  0  0  0  0  0  0  0  0  0  0  0
  -24.1730  -36.8560   23.0050 C   0  0  0  0  0  1  0  0  0  0  0  0
  -25.3800  -36.4580   23.8700 C   0  0  0  0  0  3  0  0  0  0  0  0
  -27.4870  -37.3430   24.7670 C   0  0  0  0  0  1  0  0  0  0  0  0
  -26.4220  -37.5050   23.7810 N   0  0  0  0  0  0  0  0  0  0  0  0
  -26.0150  -38.4270   23.9050 H   0  0  0  0  0  0  0  0  0  0  0  0
  -26.3340  -31.8760   25.2230 C   0  0  1  0  0  0  0  0  0  0  0  0
  -25.2280  -31.6580   26.2810 C   0  0  0  0  0  1  0  0  0  0  0  0
  -26.9290  -30.4930   24.8710 C   0  0  0  0  0  1  0  0  0  0  0  0
  -27.4720  -32.6920   25.8840 C   0  0  0  0  0  1  0  0  0  0  0  0
  -29.4150  -19.5920   20.5260 N   0  0  0  0  0  0  0  0  0  0  0  0
  -27.4740  -18.7940   17.8760 C   0  0  0  0  0  2  0  0  0  0  0  0
  -28.8570  -18.3770   18.3710 C   0  0  0  0  0  3  0  0  0  0  0  0
  -28.3690  -18.9100   19.7320 C   0  0  0  0  0  3  0  0  0  0  0  0
  -29.2940  -16.9260   18.1930 C   0  0  0  0  0  1  0  0  0  0  0  0
  -27.4510  -19.7640   18.9620 N   0  0  0  0  0  4  0  0  0  0  0  0
  -26.5370  -19.8890   19.3670 H   0  0  0  0  0  0  0  0  0  0  0  0
  -27.8670  -20.6340   18.6770 H   0  0  0  0  0  0  0  0  0  0  0  0
  -30.6380  -18.7580   20.7910 C   0  0  0  0  0  2  0  0  0  0  0  0
  -30.5020  -17.4340   21.6960 C   0  0  0  0  0  2  0  0  0  0  0  0
  -30.9600  -14.9630   20.8880 C   0  0  0  0  0  0  0  0  0  0  0  0
  -30.7860  -12.7740   19.7020 C   0  0  0  0  0  2  0  0  0  0  0  0
  -29.9180  -12.9450   18.4360 C   0  0  0  0  0  2  0  0  0  0  0  0
  -28.4200  -12.7860   18.7690 C   0  0  0  0  0  2  0  0  0  0  0  0
  -27.9940  -13.6060   20.0160 C   0  0  0  0  0  3  0  0  0  0  0  0
  -28.9810  -13.4130   21.1850 C   0  0  0  0  0  2  0  0  0  0  0  0
  -30.3180  -13.7680   20.6890 N   0  0  0  0  0  0  0  0  0  0  0  0
  -32.1700  -15.0770   20.6800 O   0  0  0  0  0  0  0  0  0  0  0  0
  -30.1700  -16.0620   21.1390 N   0  0  0  0  0  0  0  0  0  0  0  0
  -29.1870  -15.8430   21.1590 H   0  0  0  0  0  0  0  0  0  0  0  0
  -25.5610  -14.2150   20.5720 C   0  0  0  0  0  0  0  0  0  0  0  0
  -24.4670  -13.4480   20.8570 C   0  0  0  0  0  0  0  0  0  0  0  0
  -24.9210  -12.0940   20.8500 C   0  0  0  0  0  0  0  0  0  0  0  0
  -26.6140  -13.3290   20.4050 N   0  0  0  0  0  0  0  0  0  0  0  0
  -26.2310  -12.0480   20.6370 N   0  0  0  0  0  0  0  0  0  0  0  0
  -24.1750  -10.8350   20.9740 C   0  0  0  0  0  0  0  0  0  0  0  0
  -24.5490   -9.8430   21.9060 C   0  0  0  0  0  3  0  0  0  0  0  0
  -23.8040   -8.6500   22.0200 C   0  0  0  0  0  3  0  0  0  0  0  0
  -22.6700   -8.4400   21.2000 C   0  0  0  0  0  0  0  0  0  0  0  0
  -22.3150   -9.4220   20.2570 C   0  0  0  0  0  3  0  0  0  0  0  0
  -23.0610  -10.6070   20.1410 C   0  0  0  0  0  3  0  0  0  0  0  0
  -21.9010   -7.3030   21.2230 O   0  0  0  0  0  0  0  0  0  0  0  0
  -21.7790   -6.5400   22.3570 C   0  0  0  0  0  0  0  0  0  0  0  0
  -21.2820   -7.0740   23.5650 C   0  0  0  0  0  3  0  0  0  0  0  0
  -21.1080   -6.2370   24.6860 C   0  0  0  0  0  3  0  0  0  0  0  0
  -21.4210   -4.8680   24.5990 C   0  0  0  0  0  0  0  0  0  0  0  0
  -21.9120   -4.3330   23.3950 C   0  0  0  0  0  3  0  0  0  0  0  0
  -22.0870   -5.1660   22.2760 C   0  0  0  0  0  0  0  0  0  0  0  0
  -22.5400   -4.6410   21.1110 F   0  0  0  0  0  0  0  0  0  0  0  0
  -21.2470   -4.0620   25.6720 F   0  0  0  0  0  0  0  0  0  0  0  0
  -23.0560  -13.9330   21.0280 C   0  0  0  0  0  0  0  0  0  0  0  0
  -22.2700  -13.2550   21.8570 N   0  0  0  0  0  0  0  0  0  0  0  0
  -22.6580  -14.9490   20.4610 O   0  0  0  0  0  0  0  0  0  0  0  0
  -22.6040  -12.4320   22.3370 H   0  0  0  0  0  0  0  0  0  0  0  0
  -21.3210  -13.5620   22.0130 H   0  0  0  0  0  0  0  0  0  0  0  0
  -25.7470  -15.5850   20.4120 N   0  0  0  0  0  0  0  0  0  0  0  0
  -24.9690  -16.2340   20.4610 H   0  0  0  0  0  0  0  0  0  0  0  0
  -26.6050  -16.0090   20.0920 H   0  0  0  0  0  0  0  0  0  0  0  0
  2  1  1  0
  3  4  1  0
  4  8  1  0
  4  1  2  0
  5  3  2  0
  5  6  1  0
  6  2  2  0
  7  5  1  0
  9  8  1  0
 10 21  2  0
 11  9  1  0
 11 16  1  0
 12 20  1  0
 12 22  1  0
 13 19  1  0
 13 15  1  0
 14 20  1  0
 15 14  1  0
 16 15  2  0
 17 11  2  0
 18 17  1  0
 18 13  2  0
 19 12  1  0
 20 10  1  0
 22 24  2  0
 23 22  1  0
 25 23  1  0
 26 35  2  0
 26 31  1  0
 27 23  1  0
 27 31  1  0
 28 27  1  0
 29 30  1  0
 29 28  1  0
 30 26  1  0
 31 32  2  0
 32 33  1  0
 34 33  2  0
 35 34  1  0
 36 10  1  0
 36 37  1  0
 36 46  1  0
 37 40  1  0
 38 42  1  0
 38 37  1  0
 39 38  2  0
 42 41  1  0
 44 42  1  0
 44 45  1  0
 44 43  1  0
 46 49  1  1
 46 47  1  0
 48 46  1  0
 50  6  1  0
 50 58  1  0
 51 52  1  0
 51 55  1  0
 52 54  1  0
 52 53  1  0
 53 50  1  0
 55 56  1  0
 55 53  1  0
 57 55  1  0
 58 59  1  0
 60 68  1  0
 61 66  1  0
 62 63  1  0
 62 61  1  0
 64 63  1  0
 64 73  1  0
 64 65  1  0
 66 60  1  0
 66 65  1  0
 67 60  2  0
 68 69  1  0
 68 59  1  0
 70 71  2  0
 71 90  1  0
 72 71  1  0
 72 75  1  0
 73 70  1  0
 73 74  1  0
 74 72  2  0
 75 76  1  0
 76 77  2  0
 78 81  1  0
 78 77  1  0
 79 78  2  0
 80 79  1  0
 80 75  2  0
 81 82  1  0
 82 83  1  0
 83 84  2  0
 85 84  1  0
 85 89  1  0
 86 85  2  0
 87 82  2  0
 87 86  1  0
 88 87  1  0
 90 91  1  0
 91 94  1  0
 91 93  1  0
 92 90  2  0
 95 96  1  0
 95 70  1  0
 97 95  1  0
M  ISO  4   8 101   9 101  60 100  68 100
M  END
>  <TORSDO>  (56) 
F 21

>  <SCORE>  (56) 
-13.255

>  <name>  (56) 
56

>  <ligand_id>  (56) 
56

>  <original_smiles>  (56) 
[H]c1c([H])c([H])c2c(c1[H])C([H])([H])C([H])([H])C([H])([H])C2([H])N([H])C(=O)C1([H])N(C(=O)C([H])(N([H])C(=O)C([H])(N([H])C([H])([H])[H])C([H])([H])[H])C(C([H])([H])[H])(C([H])([H])[H])C([H])([H])[H])C([H])([H])c2c([H])c(OC([H])([H])c3c([H])c([H])c(N(C([H])([H])C([H])([H])N([H])C(=O)N4C([H])([H])C([H])([H])C([H])([H])C([H])(n5nc(-c6c([H])c([H])c(Oc7c([H])c([H])c(F)c([H])c7F)c([H])c6[H])c(C(=O)N([H])[H])c5N([H])[H])C4([H])[H])C4([H])C([H])(C([H])([H])[H])C([H])([H])[N+]4([H])[H])c(C([H])([H])[H])c3[H])c([H])c([H])c2C1([H])[H]

>  <smiles>  (56) 
[H]c1c([H])c([H])c2c(c1[H])C([H])([H])C([H])([H])C([H])([H])C2([H])N([H])C(=O)C1([H])N(C(=O)C([H])(N([H])C(=O)C([H])(N([H])C([H])([H])[H])C([H])([H])[H])C(C([H])([H])[H])(C([H])([H])[H])C([H])([H])[H])C([H])([H])c2c([H])c(OC([H])([H])c3c([H])c([H])c(N(C([H])([H])C([H])([H])N([H])C(=O)N4C([H])([H])C([H])([H])C([H])([H])C([H])(n5nc(-c6c([H])c([H])c(Oc7c([H])c([H])c(F)c([H])c7F)c([H])c6[H])c(C(=O)N([H])[H])c5N([H])[H])C4([H])[H])C4([H])C([H])(C([H])([H])[H])C([H])([H])[N+]4([H])[H])c(C([H])([H])[H])c3[H])c([H])c([H])c2C1([H])[H]

$$$$
57:0:0
     RDKit          3D

100108  0  0  1  0  0  0  0  0999 V2000
  -28.1450  -18.7080   19.0600 C   0  0  0  0  0  2  0  0  0  0  0  0
  -28.4000  -17.2580   18.6210 C   0  0  0  0  0  2  0  0  0  0  0  0
  -30.4990  -18.3010   19.3760 C   0  0  0  0  0  2  0  0  0  0  0  0
  -29.4920  -19.4310   19.0130 C   0  0  0  0  0  3  0  0  0  0  0  0
  -29.8970  -16.9470   18.8720 C   0  0  0  0  0  3  0  0  0  0  0  0
  -30.3720  -20.7100   21.1150 C   0  0  0  0  0  1  0  0  0  0  0  0
  -29.4950  -20.7730   19.8470 C   0  0  0  0  0  3  0  0  0  0  0  0
  -29.7450  -22.0510   18.9800 C   0  0  0  0  0  2  0  0  0  0  0  0
  -29.9310  -23.3290   19.7310 N   0  0  0  0  0  4  0  0  0  0  0  0
  -30.5690  -23.8970   19.1920 H   0  0  0  0  0  0  0  0  0  0  0  0
  -30.4310  -23.0980   20.5750 H   0  0  0  0  0  0  0  0  0  0  0  0
  -27.4720  -23.4450   20.4040 C   0  0  0  0  0  1  0  0  0  0  0  0
  -28.7660  -24.2130   20.0770 C   0  0  0  0  0  3  0  0  0  0  0  0
  -28.5470  -25.3840   19.0680 C   0  0  0  0  0  2  0  0  0  0  0  0
  -28.4440  -26.6790   19.7040 O   0  0  0  0  0  0  0  0  0  0  0  0
  -24.7550  -31.6400   23.2470 C   0  0  0  0  0  0  0  0  0  0  0  0
  -27.2500  -27.3840   19.7740 C   0  0  0  0  0  0  0  0  0  0  0  0
  -23.4880  -30.4020   21.5240 C   0  0  0  0  0  3  0  0  0  0  0  0
  -24.8820  -28.9460   19.9540 C   0  0  0  0  0  0  0  0  0  0  0  0
  -26.0160  -30.7130   21.3070 C   0  0  0  0  0  2  0  0  0  0  0  0
  -26.0600  -29.3930   20.5600 C   0  0  0  0  0  0  0  0  0  0  0  0
  -27.2400  -28.6170   20.4750 C   0  0  0  0  0  3  0  0  0  0  0  0
  -26.0470  -26.9510   19.1710 C   0  0  0  0  0  3  0  0  0  0  0  0
  -24.8700  -27.7230   19.2620 C   0  0  0  0  0  3  0  0  0  0  0  0
  -23.6590  -29.8280   20.0930 C   0  0  0  0  0  2  0  0  0  0  0  0
  -24.7740  -30.9260   22.0870 N   0  0  0  0  0  0  0  0  0  0  0  0
  -23.6880  -31.8940   23.8250 O   0  0  0  0  0  0  0  0  0  0  0  0
  -22.8260  -29.3260   22.4110 C   0  0  0  0  0  0  0  0  0  0  0  0
  -21.5000  -29.1640   22.2730 N   0  0  0  0  0  0  0  0  0  0  0  0
  -23.5040  -28.6360   23.1790 O   0  0  0  0  0  0  0  0  0  0  0  0
  -21.0100  -29.7670   21.6250 H   0  0  0  0  0  0  0  0  0  0  0  0
  -18.1230  -27.9450   22.6590 C   0  0  0  0  0  0  0  0  0  0  0  0
  -20.6780  -28.1800   22.9770 C   0  0  0  0  0  3  0  0  0  0  0  0
  -20.7850  -26.7870   22.3140 C   0  0  0  0  0  2  0  0  0  0  0  0
  -19.6930  -26.5250   21.2700 C   0  0  0  0  0  2  0  0  0  0  0  0
  -18.3040  -26.6390   21.9050 C   0  0  0  0  0  2  0  0  0  0  0  0
  -19.2380  -28.6770   23.1500 C   0  0  0  0  0  0  0  0  0  0  0  0
  -19.0130  -29.9050   23.8110 C   0  0  0  0  0  3  0  0  0  0  0  0
  -17.7070  -30.4000   23.9880 C   0  0  0  0  0  3  0  0  0  0  0  0
  -16.6080  -29.6620   23.5140 C   0  0  0  0  0  3  0  0  0  0  0  0
  -16.8150  -28.4380   22.8550 C   0  0  0  0  0  3  0  0  0  0  0  0
  -26.0650  -32.1880   23.8940 C   0  0  0  0  0  3  0  0  0  0  0  0
  -26.5450  -31.3420   25.1350 C   0  0  1  0  0  0  0  0  0  0  0  0
  -25.4470  -31.1250   26.2030 C   0  0  0  0  0  1  0  0  0  0  0  0
  -27.0480  -29.9510   24.6820 C   0  0  0  0  0  1  0  0  0  0  0  0
  -27.7460  -32.0440   25.8150 C   0  0  0  0  0  1  0  0  0  0  0  0
  -25.8180  -33.5820   24.2800 N   0  0  0  0  0  0  0  0  0  0  0  0
  -26.2250  -34.6500   23.5790 C   0  0  0  0  0  0  0  0  0  0  0  0
  -26.9180  -34.5570   22.5620 O   0  0  0  0  0  0  0  0  0  0  0  0
  -25.2130  -33.7340   25.0730 H   0  0  0  0  0  0  0  0  0  0  0  0
  -24.6000  -36.5400   23.2540 C   0  0  0  0  0  1  0  0  0  0  0  0
  -25.7930  -36.0390   24.0850 C   0  0  0  0  0  3  0  0  0  0  0  0
  -27.9300  -36.7860   25.0370 C   0  0  0  0  0  1  0  0  0  0  0  0
  -26.8810  -37.0420   24.0530 N   0  0  0  0  0  0  0  0  0  0  0  0
  -26.5140  -37.9770   24.2160 H   0  0  0  0  0  0  0  0  0  0  0  0
  -30.2510  -15.5690   19.6200 C   0  0  2  0  0  0  0  0  0  0  0  0
  -30.2350  -14.3710   18.5420 C   0  0  0  0  0  0  0  0  0  0  0  0
  -29.5080  -12.3110   17.3570 C   0  0  0  0  0  2  0  0  0  0  0  0
  -28.1650  -12.5600   16.6370 C   0  0  0  0  0  2  0  0  0  0  0  0
  -26.9660  -12.3100   17.5750 C   0  0  0  0  0  2  0  0  0  0  0  0
  -27.1550  -12.9700   18.9640 C   0  0  0  0  0  3  0  0  0  0  0  0
  -28.5560  -12.6340   19.5170 C   0  0  0  0  0  2  0  0  0  0  0  0
  -29.5530  -13.1690   18.5690 N   0  0  0  0  0  0  0  0  0  0  0  0
  -30.9580  -14.5870   17.5600 O   0  0  0  0  0  0  0  0  0  0  0  0
  -25.3840  -13.3830   20.7840 C   0  0  0  0  0  0  0  0  0  0  0  0
  -24.4620  -12.5520   21.3690 C   0  0  0  0  0  0  0  0  0  0  0  0
  -24.6600  -11.2670   20.7770 C   0  0  0  0  0  0  0  0  0  0  0  0
  -26.0930  -12.5910   19.8930 N   0  0  0  0  0  0  0  0  0  0  0  0
  -25.6810  -11.2990   19.9310 N   0  0  0  0  0  0  0  0  0  0  0  0
  -23.8940  -10.0210   20.9200 C   0  0  0  0  0  0  0  0  0  0  0  0
  -24.2000   -9.0740   21.9230 C   0  0  0  0  0  3  0  0  0  0  0  0
  -23.4360   -7.8940   22.0490 C   0  0  0  0  0  3  0  0  0  0  0  0
  -22.3530   -7.6520   21.1720 C   0  0  0  0  0  0  0  0  0  0  0  0
  -22.0690   -8.5850   20.1600 C   0  0  0  0  0  3  0  0  0  0  0  0
  -22.8320   -9.7560   20.0310 C   0  0  0  0  0  3  0  0  0  0  0  0
  -21.5710   -6.5230   21.2040 O   0  0  0  0  0  0  0  0  0  0  0  0
  -20.9480   -6.1120   22.3540 C   0  0  0  0  0  0  0  0  0  0  0  0
  -19.9200   -6.8700   22.9560 C   0  0  0  0  0  3  0  0  0  0  0  0
  -19.2630   -6.3780   24.1010 C   0  0  0  0  0  3  0  0  0  0  0  0
  -19.6220   -5.1270   24.6370 C   0  0  0  0  0  0  0  0  0  0  0  0
  -20.6390   -4.3680   24.0340 C   0  0  0  0  0  3  0  0  0  0  0  0
  -21.2980   -4.8570   22.8930 C   0  0  0  0  0  0  0  0  0  0  0  0
  -22.2660   -4.1140   22.3030 F   0  0  0  0  0  0  0  0  0  0  0  0
  -18.9850   -4.6490   25.7330 F   0  0  0  0  0  0  0  0  0  0  0  0
  -23.4010  -12.9520   22.3530 C   0  0  0  0  0  0  0  0  0  0  0  0
  -23.0070  -12.0380   23.2370 N   0  0  0  0  0  0  0  0  0  0  0  0
  -22.9440  -14.0930   22.3770 O   0  0  0  0  0  0  0  0  0  0  0  0
  -23.4010  -11.1090   23.2390 H   0  0  0  0  0  0  0  0  0  0  0  0
  -22.3120  -12.2730   23.9310 H   0  0  0  0  0  0  0  0  0  0  0  0
  -25.6620  -14.7370   20.9190 N   0  0  0  0  0  0  0  0  0  0  0  0
  -25.1240  -15.3430   21.5270 H   0  0  0  0  0  0  0  0  0  0  0  0
  -26.3600  -15.2360   20.3830 H   0  0  0  0  0  0  0  0  0  0  0  0
  -28.8500  -16.3680   21.8450 C   0  0  0  0  0  1  0  0  0  0  0  0
  -29.3090  -15.2850   20.8490 C   0  0  0  0  0  2  0  0  0  0  0  0
  -31.7710  -15.5800   20.0530 C   0  0  0  0  0  2  0  0  0  0  0  0
  -32.2500  -14.9880   21.4040 C   0  0  0  0  0  2  0  0  0  0  0  0
  -33.1040  -12.8120   22.1470 C   0  0  0  0  0  1  0  0  0  0  0  0
  -33.4800  -13.5080   19.8350 C   0  0  0  0  0  1  0  0  0  0  0  0
  -33.3120  -13.9610   21.2400 N   0  0  1  0  0  4  0  0  0  0  0  0
  -34.1790  -14.3910   21.5310 H   0  0  0  0  0  0  0  0  0  0  0  0
  2  5  1  0
  2  1  1  0
  4  1  1  0
  4  3  1  0
  4  7  1  0
  5  3  1  0
  5 56  1  0
  7  6  1  0
  8  9  1  0
  8  7  1  0
  9 13  1  0
  9 11  1  0
 10  9  1  0
 13 12  1  0
 14 15  1  0
 14 13  1  0
 15 17  1  0
 16 27  2  0
 17 22  1  0
 18 26  1  0
 18 28  1  0
 19 25  1  0
 19 21  1  0
 20 26  1  0
 21 20  1  0
 22 21  2  0
 23 24  1  0
 23 17  2  0
 24 19  2  0
 25 18  1  0
 26 16  1  0
 28 30  2  0
 29 28  1  0
 31 29  1  0
 32 41  2  0
 32 37  1  0
 33 29  1  0
 33 37  1  0
 34 33  1  0
 35 36  1  0
 35 34  1  0
 36 32  1  0
 37 38  2  0
 38 39  1  0
 40 39  2  0
 41 40  1  0
 42 16  1  0
 42 47  1  0
 42 43  1  0
 43 46  1  1
 43 44  1  0
 45 43  1  0
 47 50  1  0
 48 52  1  0
 48 47  1  0
 49 48  2  0
 52 51  1  0
 54 52  1  0
 54 55  1  0
 54 53  1  0
 56 95  1  1
 56 94  1  0
 57 63  1  0
 57 56  1  0
 58 63  1  0
 59 58  1  0
 59 60  1  0
 61 60  1  0
 61 62  1  0
 61 68  1  0
 63 62  1  0
 64 57  2  0
 65 90  1  0
 65 66  2  0
 66 85  1  0
 67 70  1  0
 67 66  1  0
 68 69  1  0
 68 65  1  0
 69 67  2  0
 70 71  1  0
 71 72  2  0
 73 76  1  0
 73 72  1  0
 74 73  2  0
 75 74  1  0
 75 70  2  0
 76 77  1  0
 77 82  2  0
 77 78  1  0
 78 79  2  0
 79 80  1  0
 80 84  1  0
 81 80  2  0
 82 81  1  0
 83 82  1  0
 85 87  2  0
 85 86  1  0
 86 88  1  0
 86 89  1  0
 90 91  1  0
 92 90  1  0
 94 93  1  0
 95 96  1  0
 98 99  1  0
 99 96  1  0
 99100  1  1
 99 97  1  0
M  ISO  4  14 101  15 101  56 100  57 100
M  END
>  <TORSDO>  (57) 
F 26

>  <SCORE>  (57) 
-2.662

>  <name>  (57) 
57

>  <ligand_id>  (57) 
57

>  <original_smiles>  (57) 
[H]c1c([H])c([H])c2c(c1[H])C([H])([H])C([H])([H])C([H])([H])C2([H])N([H])C(=O)C1([H])N(C(=O)C([H])(N([H])C(=O)C([H])(N([H])C([H])([H])[H])C([H])([H])[H])C(C([H])([H])[H])(C([H])([H])[H])C([H])([H])[H])C([H])([H])c2c([H])c(OC([H])([H])C([H])(C([H])([H])[H])[N+]([H])([H])C([H])([H])C([H])(C([H])([H])[H])C3([H])C([H])([H])C([H])([H])C([H])(C(C(=O)N4C([H])([H])C([H])([H])C([H])([H])C([H])(n5nc(-c6c([H])c([H])c(Oc7c([H])c([H])c(F)c([H])c7F)c([H])c6[H])c(C(=O)N([H])[H])c5N([H])[H])C4([H])[H])(C([H])([H])C([H])([H])[H])C([H])([H])C([H])([H])[N+]([H])(C([H])([H])[H])C([H])([H])[H])C3([H])[H])c([H])c([H])c2C1([H])[H]

>  <smiles>  (57) 
[H]c1c([H])c([H])c2c(c1[H])C([H])([H])C([H])([H])C([H])([H])C2([H])N([H])C(=O)C1([H])N(C(=O)C([H])(N([H])C(=O)C([H])(N([H])C([H])([H])[H])C([H])([H])[H])C(C([H])([H])[H])(C([H])([H])[H])C([H])([H])[H])C([H])([H])c2c([H])c(OC([H])([H])C([H])(C([H])([H])[H])[N+]([H])([H])C([H])([H])C([H])(C([H])([H])[H])C3([H])C([H])([H])C([H])([H])C([H])(C(C(=O)N4C([H])([H])C([H])([H])C([H])([H])C([H])(n5nc(-c6c([H])c([H])c(Oc7c([H])c([H])c(F)c([H])c7F)c([H])c6[H])c(C(=O)N([H])[H])c5N([H])[H])C4([H])[H])(C([H])([H])C([H])([H])[H])C([H])([H])C([H])([H])[N+]([H])(C([H])([H])[H])C([H])([H])[H])C3([H])[H])c([H])c([H])c2C1([H])[H]

$$$$
58:0:0
     RDKit          3D

 92101  0  0  1  0  0  0  0  0999 V2000
  -29.9720  -22.6690   18.9470 C   0  0  0  0  0  3  0  0  0  0  0  0
  -29.4640  -22.2070   21.2780 C   0  0  0  0  0  3  0  0  0  0  0  0
  -30.0150  -21.2780   18.7900 C   0  0  0  0  0  0  0  0  0  0  0  0
  -29.6790  -23.1470   20.2390 C   0  0  0  0  0  0  0  0  0  0  0  0
  -29.7890  -20.4260   19.8580 C   0  0  0  0  0  0  0  0  0  0  0  0
  -30.2900  -20.5060   17.5390 C   0  0  0  0  0  2  0  0  0  0  0  0
  -30.3610  -19.0690   18.0910 C   0  0  0  0  0  2  0  0  0  0  0  0
  -29.5200  -20.8600   21.1020 N   0  0  0  0  0  0  0  0  0  0  0  0
  -29.8560  -19.0800   19.4750 N   0  0  0  0  0  0  0  0  0  0  0  0
  -29.6150  -24.6500   20.4980 C   0  0  0  0  0  2  0  0  0  0  0  0
  -28.3490  -25.3160   19.9250 C   0  0  0  0  0  2  0  0  0  0  0  0
  -28.3930  -26.7280   20.1580 O   0  0  0  0  0  0  0  0  0  0  0  0
  -24.5920  -31.8710   23.2400 C   0  0  0  0  0  0  0  0  0  0  0  0
  -27.2060  -27.4310   20.1360 C   0  0  0  0  0  0  0  0  0  0  0  0
  -23.3690  -30.4780   21.6020 C   0  0  0  0  0  3  0  0  0  0  0  0
  -24.8080  -28.9380   20.1650 C   0  0  0  0  0  0  0  0  0  0  0  0
  -25.8940  -30.8310   21.3860 C   0  0  0  0  0  2  0  0  0  0  0  0
  -25.9710  -29.4610   20.7430 C   0  0  0  0  0  0  0  0  0  0  0  0
  -27.1700  -28.7160   20.7230 C   0  0  0  0  0  3  0  0  0  0  0  0
  -26.0220  -26.9200   19.5500 C   0  0  0  0  0  3  0  0  0  0  0  0
  -24.8280  -27.6660   19.5670 C   0  0  0  0  0  3  0  0  0  0  0  0
  -23.5680  -29.8020   20.2180 C   0  0  0  0  0  2  0  0  0  0  0  0
  -24.6380  -31.0730   22.1350 N   0  0  0  0  0  0  0  0  0  0  0  0
  -23.5160  -32.1460   23.7880 O   0  0  0  0  0  0  0  0  0  0  0  0
  -22.7210  -29.4570   22.5640 C   0  0  0  0  0  0  0  0  0  0  0  0
  -21.3940  -29.2820   22.4450 N   0  0  0  0  0  0  0  0  0  0  0  0
  -23.4090  -28.8250   23.3710 O   0  0  0  0  0  0  0  0  0  0  0  0
  -20.9020  -29.8490   21.7690 H   0  0  0  0  0  0  0  0  0  0  0  0
  -18.0200  -28.0930   22.9490 C   0  0  0  0  0  0  0  0  0  0  0  0
  -20.5780  -28.3450   23.2170 C   0  0  0  0  0  3  0  0  0  0  0  0
  -20.6770  -26.9140   22.6430 C   0  0  0  0  0  2  0  0  0  0  0  0
  -19.5730  -26.5910   21.6310 C   0  0  0  0  0  2  0  0  0  0  0  0
  -18.1920  -26.7410   22.2760 C   0  0  0  0  0  2  0  0  0  0  0  0
  -19.1410  -28.8530   23.3770 C   0  0  0  0  0  0  0  0  0  0  0  0
  -18.9270  -30.1180   23.9640 C   0  0  0  0  0  3  0  0  0  0  0  0
  -17.6240  -30.6240   24.1300 C   0  0  0  0  0  3  0  0  0  0  0  0
  -16.5170  -29.8620   23.7180 C   0  0  0  0  0  3  0  0  0  0  0  0
  -16.7160  -28.5980   23.1330 C   0  0  0  0  0  3  0  0  0  0  0  0
  -25.8860  -32.4940   23.8530 C   0  0  0  0  0  3  0  0  0  0  0  0
  -26.4150  -31.7110   25.1170 C   0  0  1  0  0  0  0  0  0  0  0  0
  -25.3340  -31.4680   26.1960 C   0  0  0  0  0  1  0  0  0  0  0  0
  -26.9880  -30.3340   24.7050 C   0  0  0  0  0  1  0  0  0  0  0  0
  -27.5750  -32.4970   25.7710 C   0  0  0  0  0  1  0  0  0  0  0  0
  -25.5830  -33.8890   24.1940 N   0  0  0  0  0  0  0  0  0  0  0  0
  -25.9070  -34.9450   23.4360 C   0  0  0  0  0  0  0  0  0  0  0  0
  -26.5650  -34.8460   22.3950 O   0  0  0  0  0  0  0  0  0  0  0  0
  -24.9970  -34.0410   25.0030 H   0  0  0  0  0  0  0  0  0  0  0  0
  -24.1710  -36.7380   23.1140 C   0  0  0  0  0  1  0  0  0  0  0  0
  -25.4260  -36.3320   23.9050 C   0  0  0  0  0  3  0  0  0  0  0  0
  -27.5760  -37.2140   24.6980 C   0  0  0  0  0  1  0  0  0  0  0  0
  -26.4550  -37.3870   23.7770 N   0  0  0  0  0  0  0  0  0  0  0  0
  -26.0510  -38.3050   23.9390 H   0  0  0  0  0  0  0  0  0  0  0  0
  -30.1560  -18.0080   20.4290 C   0  0  0  0  0  2  0  0  0  0  0  0
  -29.7450  -16.6420   19.8430 C   0  0  0  0  0  2  0  0  0  0  0  0
  -30.6490  -14.4470   20.4610 C   0  0  0  0  0  0  0  0  0  0  0  0
  -30.3590  -12.2770   19.3570 C   0  0  0  0  0  2  0  0  0  0  0  0
  -29.4320  -12.5160   18.1460 C   0  0  0  0  0  2  0  0  0  0  0  0
  -27.9510  -12.3970   18.5570 C   0  0  0  0  0  2  0  0  0  0  0  0
  -27.6140  -13.2220   19.8280 C   0  0  0  0  0  3  0  0  0  0  0  0
  -28.6600  -12.9820   20.9440 C   0  0  0  0  0  2  0  0  0  0  0  0
  -29.9980  -13.2560   20.3920 N   0  0  0  0  0  0  0  0  0  0  0  0
  -31.7870  -14.6290   20.0170 O   0  0  0  0  0  0  0  0  0  0  0  0
  -29.8510  -15.4870   20.7440 N   0  0  0  0  0  0  0  0  0  0  0  0
  -28.9950  -15.2390   21.2180 H   0  0  0  0  0  0  0  0  0  0  0  0
  -25.2110  -13.8550   20.5030 C   0  0  0  0  0  0  0  0  0  0  0  0
  -24.1360  -13.0930   20.8720 C   0  0  0  0  0  0  0  0  0  0  0  0
  -24.5870  -11.7380   20.8570 C   0  0  0  0  0  0  0  0  0  0  0  0
  -26.2540  -12.9630   20.2920 N   0  0  0  0  0  0  0  0  0  0  0  0
  -25.8800  -11.6860   20.5610 N   0  0  0  0  0  0  0  0  0  0  0  0
  -23.8510  -10.4830   21.0530 C   0  0  0  0  0  0  0  0  0  0  0  0
  -24.2890   -9.5080   21.9770 C   0  0  0  0  0  3  0  0  0  0  0  0
  -23.5560   -8.3160   22.1610 C   0  0  0  0  0  3  0  0  0  0  0  0
  -22.3720   -8.0900   21.4200 C   0  0  0  0  0  0  0  0  0  0  0  0
  -21.9550   -9.0520   20.4830 C   0  0  0  0  0  3  0  0  0  0  0  0
  -22.6870  -10.2360   20.2970 C   0  0  0  0  0  3  0  0  0  0  0  0
  -21.6100   -6.9500   21.5140 O   0  0  0  0  0  0  0  0  0  0  0  0
  -21.5860   -6.1930   22.6570 C   0  0  0  0  0  0  0  0  0  0  0  0
  -21.2140   -6.7380   23.9060 C   0  0  0  0  0  3  0  0  0  0  0  0
  -21.1360   -5.9080   25.0420 C   0  0  0  0  0  3  0  0  0  0  0  0
  -21.4160   -4.5330   24.9310 C   0  0  0  0  0  0  0  0  0  0  0  0
  -21.7800   -3.9870   23.6880 C   0  0  0  0  0  3  0  0  0  0  0  0
  -21.8610   -4.8140   22.5540 C   0  0  0  0  0  0  0  0  0  0  0  0
  -22.1920   -4.2790   21.3550 F   0  0  0  0  0  0  0  0  0  0  0  0
  -21.3340   -3.7340   26.0200 F   0  0  0  0  0  0  0  0  0  0  0  0
  -22.7390  -13.5800   21.1310 C   0  0  0  0  0  0  0  0  0  0  0  0
  -21.9990  -12.8970   21.9990 N   0  0  0  0  0  0  0  0  0  0  0  0
  -22.3090  -14.6020   20.5960 O   0  0  0  0  0  0  0  0  0  0  0  0
  -22.3600  -12.0740   22.4590 H   0  0  0  0  0  0  0  0  0  0  0  0
  -21.0610  -13.2050   22.2110 H   0  0  0  0  0  0  0  0  0  0  0  0
  -25.3870  -15.2220   20.3110 N   0  0  0  0  0  0  0  0  0  0  0  0
  -24.6220  -15.8820   20.3940 H   0  0  0  0  0  0  0  0  0  0  0  0
  -26.2390  -15.6500   19.9720 H   0  0  0  0  0  0  0  0  0  0  0  0
  1  4  1  0
  3  1  2  0
  3  5  1  0
  4 10  1  0
  4  2  2  0
  5  8  2  0
  6  7  1  0
  6  3  1  0
  7  9  1  0
  8  2  1  0
  9  5  1  0
  9 53  1  0
 11 12  1  0
 11 10  1  0
 13 24  2  0
 14 12  1  0
 14 19  1  0
 15 23  1  0
 15 25  1  0
 16 22  1  0
 16 18  1  0
 17 23  1  0
 18 17  1  0
 19 18  2  0
 20 21  1  0
 20 14  2  0
 21 16  2  0
 22 15  1  0
 23 13  1  0
 25 27  2  0
 26 25  1  0
 28 26  1  0
 29 38  2  0
 29 34  1  0
 30 26  1  0
 30 34  1  0
 31 30  1  0
 32 33  1  0
 32 31  1  0
 33 29  1  0
 34 35  2  0
 35 36  1  0
 37 36  2  0
 38 37  1  0
 39 13  1  0
 39 44  1  0
 39 40  1  0
 40 43  1  1
 40 41  1  0
 42 40  1  0
 44 47  1  0
 45 49  1  0
 45 44  1  0
 46 45  2  0
 49 48  1  0
 51 49  1  0
 51 52  1  0
 51 50  1  0
 54 53  1  0
 54 63  1  0
 55 63  1  0
 56 61  1  0
 57 58  1  0
 57 56  1  0
 59 58  1  0
 59 68  1  0
 59 60  1  0
 61 55  1  0
 61 60  1  0
 62 55  2  0
 63 64  1  0
 65 66  2  0
 66 85  1  0
 67 66  1  0
 67 70  1  0
 68 65  1  0
 68 69  1  0
 69 67  2  0
 70 71  1  0
 71 72  2  0
 73 76  1  0
 73 72  1  0
 74 73  2  0
 75 74  1  0
 75 70  2  0
 76 77  1  0
 77 78  1  0
 78 79  2  0
 80 79  1  0
 80 84  1  0
 81 80  2  0
 82 77  2  0
 82 81  1  0
 83 82  1  0
 85 86  1  0
 86 89  1  0
 86 88  1  0
 87 85  2  0
 90 91  1  0
 90 65  1  0
 92 90  1  0
M  ISO  4  11 101  12 101  55 100  63 100
M  END
>  <TORSDO>  (58) 
F 20

>  <SCORE>  (58) 
-13.887

>  <name>  (58) 
58

>  <ligand_id>  (58) 
58

>  <original_smiles>  (58) 
[H]c1nc2c(c([H])c1C([H])([H])C([H])([H])Oc1c([H])c([H])c3c(c1[H])C([H])([H])N(C(=O)C([H])(N([H])C(=O)C([H])(N([H])C([H])([H])[H])C([H])([H])[H])C(C([H])([H])[H])(C([H])([H])[H])C([H])([H])[H])C([H])(C(=O)N([H])C1([H])c4c([H])c([H])c([H])c([H])c4C([H])([H])C([H])([H])C1([H])[H])C3([H])[H])C([H])([H])C([H])([H])N2C([H])([H])C([H])([H])N([H])C(=O)N1C([H])([H])C([H])([H])C([H])([H])C([H])(n2nc(-c3c([H])c([H])c(Oc4c([H])c([H])c(F)c([H])c4F)c([H])c3[H])c(C(=O)N([H])[H])c2N([H])[H])C1([H])[H]

>  <smiles>  (58) 
[H]c1nc2c(c([H])c1C([H])([H])C([H])([H])Oc1c([H])c([H])c3c(c1[H])C([H])([H])N(C(=O)C([H])(N([H])C(=O)C([H])(N([H])C([H])([H])[H])C([H])([H])[H])C(C([H])([H])[H])(C([H])([H])[H])C([H])([H])[H])C([H])(C(=O)N([H])C1([H])c4c([H])c([H])c([H])c([H])c4C([H])([H])C([H])([H])C1([H])[H])C3([H])[H])C([H])([H])C([H])([H])N2C([H])([H])C([H])([H])N([H])C(=O)N1C([H])([H])C([H])([H])C([H])([H])C([H])(n2nc(-c3c([H])c([H])c(Oc4c([H])c([H])c(F)c([H])c4F)c([H])c3[H])c(C(=O)N([H])[H])c2N([H])[H])C1([H])[H]

$$$$
59:0:0
     RDKit          3D

 98108  0  0  1  0  0  0  0  0999 V2000
  -29.8690  -20.4860   18.7180 C   0  0  0  0  0  3  0  0  0  0  0  0
  -31.4130  -15.0870   19.8830 C   0  0  0  0  0  0  0  0  0  0  0  0
  -31.2580  -12.6840   19.1310 C   0  0  0  0  0  2  0  0  0  0  0  0
  -30.3250  -12.5790   17.9010 C   0  0  0  0  0  2  0  0  0  0  0  0
  -28.8560  -12.4250   18.3400 C   0  0  0  0  0  2  0  0  0  0  0  0
  -28.4650  -13.4210   19.4630 C   0  0  0  0  0  3  0  0  0  0  0  0
  -29.5190  -13.4690   20.5840 C   0  0  0  0  0  2  0  0  0  0  0  0
  -30.7970  -13.8350   19.9530 N   0  0  0  0  0  0  0  0  0  0  0  0
  -32.5770  -15.1160   19.4720 O   0  0  0  0  0  0  0  0  0  0  0  0
  -30.1730  -16.6080   21.3710 C   0  0  0  0  0  2  0  0  0  0  0  0
  -30.5940  -17.5640   19.0860 C   0  0  0  0  0  2  0  0  0  0  0  0
  -30.4700  -18.0650   21.8230 C   0  0  0  0  0  2  0  0  0  0  0  0
  -30.4320  -19.1550   19.6220 C   0  0  0  0  0  3  0  0  0  0  0  0
  -30.6650  -16.2980   20.0230 N   0  0  0  0  0  0  0  0  0  0  0  0
  -29.8060  -19.0940   20.9740 N   0  0  1  0  0  4  0  0  0  0  0  0
  -29.9710  -19.9890   21.4230 H   0  0  0  0  0  0  0  0  0  0  0  0
  -26.1190  -14.0930   20.2290 C   0  0  0  0  0  0  0  0  0  0  0  0
  -25.0290  -13.3590   20.6160 C   0  0  0  0  0  0  0  0  0  0  0  0
  -25.4390  -11.9900   20.5750 C   0  0  0  0  0  0  0  0  0  0  0  0
  -27.1220  -13.1720   19.9730 N   0  0  0  0  0  0  0  0  0  0  0  0
  -26.7220  -11.9040   20.2450 N   0  0  0  0  0  0  0  0  0  0  0  0
  -24.6620  -10.7590   20.7720 C   0  0  0  0  0  0  0  0  0  0  0  0
  -24.9690   -9.8520   21.8100 C   0  0  0  0  0  3  0  0  0  0  0  0
  -24.1950   -8.6850   21.9940 C   0  0  0  0  0  3  0  0  0  0  0  0
  -23.0980   -8.4190   21.1420 C   0  0  0  0  0  0  0  0  0  0  0  0
  -22.8110   -9.3130   20.0950 C   0  0  0  0  0  3  0  0  0  0  0  0
  -23.5850  -10.4700   19.9100 C   0  0  0  0  0  3  0  0  0  0  0  0
  -22.3080   -7.2990   21.2310 O   0  0  0  0  0  0  0  0  0  0  0  0
  -21.9870   -6.7370   22.4430 C   0  0  0  0  0  0  0  0  0  0  0  0
  -21.3160   -7.4660   23.4490 C   0  0  0  0  0  3  0  0  0  0  0  0
  -20.9450   -6.8300   24.6510 C   0  0  0  0  0  3  0  0  0  0  0  0
  -21.2330   -5.4650   24.8450 C   0  0  0  0  0  0  0  0  0  0  0  0
  -21.8940   -4.7370   23.8400 C   0  0  0  0  0  3  0  0  0  0  0  0
  -22.2670   -5.3710   22.6420 C   0  0  0  0  0  0  0  0  0  0  0  0
  -22.8870   -4.6570   21.6710 F   0  0  0  0  0  0  0  0  0  0  0  0
  -20.8700   -4.8530   25.9970 F   0  0  0  0  0  0  0  0  0  0  0  0
  -23.6550  -13.8940   20.9040 C   0  0  0  0  0  0  0  0  0  0  0  0
  -22.9220  -13.2460   21.8040 N   0  0  0  0  0  0  0  0  0  0  0  0
  -23.2440  -14.9190   20.3650 O   0  0  0  0  0  0  0  0  0  0  0  0
  -23.2700  -12.4180   22.2610 H   0  0  0  0  0  0  0  0  0  0  0  0
  -22.0020  -13.5870   22.0380 H   0  0  0  0  0  0  0  0  0  0  0  0
  -26.3360  -15.4570   20.0480 N   0  0  0  0  0  0  0  0  0  0  0  0
  -25.5810  -16.1290   20.1220 H   0  0  0  0  0  0  0  0  0  0  0  0
  -27.1660  -15.8350   19.6100 H   0  0  0  0  0  0  0  0  0  0  0  0
  -28.3230  -18.9550   20.9860 C   0  0  0  0  0  2  0  0  0  0  0  0
  -27.6590  -20.2080   20.4180 C   0  0  0  0  0  3  0  0  0  0  0  0
  -26.1850  -20.0740   20.0590 C   0  0  0  0  0  1  0  0  0  0  0  0
  -28.2700  -21.2750   20.2940 O   0  0  0  0  0  0  0  0  0  0  0  0
  -31.8530  -20.2590   15.3500 C   0  0  0  0  0  2  0  0  0  0  0  0
  -30.4680  -20.7390   14.8920 C   0  0  0  0  0  2  0  0  0  0  0  0
  -31.6780  -19.8470   16.8170 C   0  0  0  0  0  2  0  0  0  0  0  0
  -29.5870  -20.7120   16.1450 C   0  0  0  0  0  2  0  0  0  0  0  0
  -30.5590  -20.7550   17.3360 C   0  0  0  0  0  3  0  0  0  0  0  0
  -29.4550  -21.9770   19.4020 C   0  0  0  0  0  3  0  0  0  0  0  0
  -30.7640  -24.0730   18.4920 C   0  0  0  0  0  1  0  0  0  0  0  0
  -29.3490  -23.4990   18.6870 C   0  0  0  0  0  3  0  0  0  0  0  0
  -28.4610  -24.7450   19.3520 C   0  0  0  0  0  2  0  0  0  0  0  0
  -28.5630  -26.2470   19.0140 O   0  0  0  0  0  0  0  0  0  0  0  0
  -24.7110  -31.3130   22.7300 C   0  0  0  0  0  0  0  0  0  0  0  0
  -27.4380  -27.1220   19.1480 C   0  0  0  0  0  0  0  0  0  0  0  0
  -23.5300  -30.0160   20.9960 C   0  0  0  0  0  3  0  0  0  0  0  0
  -25.0130  -28.6840   19.3790 C   0  0  0  0  0  0  0  0  0  0  0  0
  -26.0560  -30.4550   20.7810 C   0  0  0  0  0  2  0  0  0  0  0  0
  -26.1860  -29.1440   19.9930 C   0  0  0  0  0  0  0  0  0  0  0  0
  -27.4010  -28.3790   19.8630 C   0  0  0  0  0  3  0  0  0  0  0  0
  -26.2360  -26.7530   18.5100 C   0  0  0  0  0  3  0  0  0  0  0  0
  -25.0480  -27.5010   18.6250 C   0  0  0  0  0  3  0  0  0  0  0  0
  -23.7370  -29.4910   19.5530 C   0  0  0  0  0  2  0  0  0  0  0  0
  -24.7860  -30.6120   21.5580 N   0  0  0  0  0  0  0  0  0  0  0  0
  -23.6310  -31.4770   23.3180 O   0  0  0  0  0  0  0  0  0  0  0  0
  -22.9490  -28.8780   21.8720 C   0  0  0  0  0  0  0  0  0  0  0  0
  -21.6270  -28.6510   21.7780 N   0  0  0  0  0  0  0  0  0  0  0  0
  -23.6880  -28.2090   22.5970 O   0  0  0  0  0  0  0  0  0  0  0  0
  -21.0850  -29.2510   21.1710 H   0  0  0  0  0  0  0  0  0  0  0  0
  -18.3300  -27.2470   22.2920 C   0  0  0  0  0  0  0  0  0  0  0  0
  -20.8850  -27.5990   22.4770 C   0  0  0  0  0  3  0  0  0  0  0  0
  -21.0210  -26.2440   21.7450 C   0  0  0  0  0  2  0  0  0  0  0  0
  -19.8870  -25.9790   20.7500 C   0  0  0  0  0  2  0  0  0  0  0  0
  -18.5300  -25.9880   21.4630 C   0  0  0  0  0  2  0  0  0  0  0  0
  -19.4350  -28.0120   22.7510 C   0  0  0  0  0  0  0  0  0  0  0  0
  -19.1910  -29.1900   23.4900 C   0  0  0  0  0  3  0  0  0  0  0  0
  -17.8770  -29.6080   23.7670 C   0  0  0  0  0  3  0  0  0  0  0  0
  -16.7860  -28.8410   23.3210 C   0  0  0  0  0  3  0  0  0  0  0  0
  -17.0150  -27.6610   22.5890 C   0  0  0  0  0  3  0  0  0  0  0  0
  -25.9740  -31.9570   23.3770 C   0  0  0  0  0  3  0  0  0  0  0  0
  -25.5800  -33.2640   23.9220 N   0  0  0  0  0  0  0  0  0  0  0  0
  -25.8300  -34.4430   23.3360 C   0  0  0  0  0  0  0  0  0  0  0  0
  -26.4870  -34.5460   22.2950 O   0  0  0  0  0  0  0  0  0  0  0  0
  -24.9940  -33.2540   24.7440 H   0  0  0  0  0  0  0  0  0  0  0  0
  -23.9930  -36.1640   23.2790 C   0  0  0  0  0  1  0  0  0  0  0  0
  -25.2660  -35.7090   24.0110 C   0  0  0  0  0  3  0  0  0  0  0  0
  -27.3500  -36.5840   24.9730 C   0  0  0  0  0  1  0  0  0  0  0  0
  -26.2300  -36.8300   24.0680 N   0  0  0  0  0  0  0  0  0  0  0  0
  -25.7670  -37.6850   24.3640 H   0  0  0  0  0  0  0  0  0  0  0  0
  -26.6180  -31.0600   24.5060 C   0  0  1  0  0  0  0  0  0  0  0  0
  -25.6090  -30.5930   25.5840 C   0  0  0  0  0  1  0  0  0  0  0  0
  -27.2690  -29.7960   23.8990 C   0  0  0  0  0  1  0  0  0  0  0  0
  -27.7470  -31.8440   25.2170 C   0  0  0  0  0  1  0  0  0  0  0  0
  1 53  1  0
  1 54  1  0
  1 13  1  0
  2  8  1  0
  2 14  1  0
  3  8  1  0
  4  5  1  0
  4  3  1  0
  6  5  1  0
  6 20  1  0
  6  7  1  0
  8  7  1  0
  9  2  2  0
 10 12  1  0
 11 14  1  0
 13 11  1  0
 13 15  1  0
 14 10  1  0
 15 45  1  0
 15 16  1  1
 15 12  1  0
 17 18  2  0
 18 37  1  0
 19 18  1  0
 19 22  1  0
 20 17  1  0
 20 21  1  0
 21 19  2  0
 22 23  1  0
 23 24  2  0
 25 28  1  0
 25 24  1  0
 26 25  2  0
 27 26  1  0
 27 22  2  0
 28 29  1  0
 29 34  2  0
 29 30  1  0
 30 31  2  0
 31 32  1  0
 32 36  1  0
 33 32  2  0
 34 33  1  0
 35 34  1  0
 37 38  1  0
 38 41  1  0
 38 40  1  0
 39 37  2  0
 42 43  1  0
 42 17  1  0
 44 42  1  0
 46 47  1  0
 46 45  1  0
 48 46  1  0
 49 51  1  0
 50 49  1  0
 50 52  1  0
 51 53  1  0
 52 53  1  0
 54 56  1  0
 54 48  1  0
 56 55  1  0
 56 57  1  0
 58 60  1  0
 58 57  1  0
 59 70  2  0
 60 65  1  0
 61 69  1  0
 61 71  1  0
 62 68  1  0
 62 64  1  0
 63 69  1  0
 64 63  1  0
 65 64  2  0
 66 67  1  0
 66 60  2  0
 67 62  2  0
 68 61  1  0
 69 59  1  0
 71 73  2  0
 72 71  1  0
 74 72  1  0
 75 84  2  0
 75 80  1  0
 76 72  1  0
 76 80  1  0
 77 76  1  0
 78 79  1  0
 78 77  1  0
 79 75  1  0
 80 81  2  0
 81 82  1  0
 83 82  2  0
 84 83  1  0
 85 59  1  0
 85 86  1  0
 85 95  1  0
 86 89  1  0
 87 86  1  0
 87 91  1  0
 88 87  2  0
 91 90  1  0
 91 93  1  0
 93 94  1  0
 93 92  1  0
 95 98  1  1
 95 96  1  0
 97 95  1  0
M  ISO  4   2 100  14 100  57 101  58 101
M  END
>  <TORSDO>  (59) 
F 22

>  <SCORE>  (59) 
-8.965

>  <name>  (59) 
59

>  <ligand_id>  (59) 
59

>  <original_smiles>  (59) 
[H]c1c([H])c([H])c2c(c1[H])C([H])([H])C([H])([H])C([H])([H])C2([H])N([H])C(=O)C1([H])N(C(=O)C([H])(N([H])C(=O)C([H])(N([H])C([H])([H])[H])C([H])([H])[H])C(C([H])([H])[H])(C([H])([H])[H])C([H])([H])[H])C([H])([H])c2c([H])c(OC([H])([H])C([H])(C([H])([H])[H])C([H])([H])C([H])(C3([H])C([H])([H])C([H])([H])C([H])([H])C3([H])[H])C3([H])C([H])([H])N(C(=O)N4C([H])([H])C([H])([H])C([H])([H])C([H])(n5nc(-c6c([H])c([H])c(Oc7c([H])c([H])c(F)c([H])c7F)c([H])c6[H])c(C(=O)N([H])[H])c5N([H])[H])C4([H])[H])C([H])([H])C([H])([H])[N+]3([H])C([H])([H])C(=O)C([H])([H])[H])c([H])c([H])c2C1([H])[H]

>  <smiles>  (59) 
[H]c1c([H])c([H])c2c(c1[H])C([H])([H])C([H])([H])C([H])([H])C2([H])N([H])C(=O)C1([H])N(C(=O)C([H])(N([H])C(=O)C([H])(N([H])C([H])([H])[H])C([H])([H])[H])C(C([H])([H])[H])(C([H])([H])[H])C([H])([H])[H])C([H])([H])c2c([H])c(OC([H])([H])C([H])(C([H])([H])[H])C([H])([H])C([H])(C3([H])C([H])([H])C([H])([H])C([H])([H])C3([H])[H])C3([H])C([H])([H])N(C(=O)N4C([H])([H])C([H])([H])C([H])([H])C([H])(n5nc(-c6c([H])c([H])c(Oc7c([H])c([H])c(F)c([H])c7F)c([H])c6[H])c(C(=O)N([H])[H])c5N([H])[H])C4([H])[H])C([H])([H])C([H])([H])[N+]3([H])C([H])([H])C(=O)C([H])([H])[H])c([H])c([H])c2C1([H])[H]

$$$$
60:0:0
     RDKit          3D

 99107  0  0  1  0  0  0  0  0999 V2000
  -29.4950  -21.5450   18.7680 C   0  0  0  0  0  3  0  0  0  0  0  0
  -28.8730  -22.7260   19.6230 C   0  0  0  0  0  3  0  0  0  0  0  0
  -29.3260  -24.2250   19.3720 C   0  0  0  0  0  3  0  0  0  0  0  0
  -29.3310  -24.6610   17.8820 C   0  0  0  0  0  2  0  0  0  0  0  0
  -28.0860  -24.3790   17.1390 N   0  0  0  0  0  4  0  0  0  0  0  0
  -27.8920  -23.3960   17.1070 H   0  0  0  0  0  0  0  0  0  0  0  0
  -28.1980  -24.6910   16.1880 H   0  0  0  0  0  0  0  0  0  0  0  0
  -27.2940  -24.8600   17.5240 H   0  0  0  0  0  0  0  0  0  0  0  0
  -28.5530  -25.2440   20.2950 C   0  0  0  0  0  2  0  0  0  0  0  0
  -28.7690  -26.6750   20.0970 O   0  0  0  0  0  0  0  0  0  0  0  0
  -24.7500  -31.6350   23.3670 C   0  0  0  0  0  0  0  0  0  0  0  0
  -27.6180  -27.4520   20.0910 C   0  0  0  0  0  0  0  0  0  0  0  0
  -23.6460  -30.3160   21.5930 C   0  0  0  0  0  3  0  0  0  0  0  0
  -25.1920  -28.9270   20.1170 C   0  0  0  0  0  0  0  0  0  0  0  0
  -26.1720  -30.7510   21.5130 C   0  0  0  0  0  2  0  0  0  0  0  0
  -26.3220  -29.4300   20.7790 C   0  0  0  0  0  0  0  0  0  0  0  0
  -27.5410  -28.7050   20.7570 C   0  0  0  0  0  3  0  0  0  0  0  0
  -26.4700  -26.9880   19.4130 C   0  0  0  0  0  3  0  0  0  0  0  0
  -25.2640  -27.7050   19.4300 C   0  0  0  0  0  3  0  0  0  0  0  0
  -23.9240  -29.7460   20.1790 C   0  0  0  0  0  2  0  0  0  0  0  0
  -24.8720  -30.9120   22.2160 N   0  0  0  0  0  0  0  0  0  0  0  0
  -23.6410  -31.8370   23.8820 O   0  0  0  0  0  0  0  0  0  0  0  0
  -22.9940  -29.2110   22.4560 C   0  0  0  0  0  0  0  0  0  0  0  0
  -21.6870  -28.9780   22.2480 N   0  0  0  0  0  0  0  0  0  0  0  0
  -23.6630  -28.5680   23.2690 O   0  0  0  0  0  0  0  0  0  0  0  0
  -21.2060  -29.5520   21.5700 H   0  0  0  0  0  0  0  0  0  0  0  0
  -18.3510  -27.6150   22.5090 C   0  0  0  0  0  0  0  0  0  0  0  0
  -20.8790  -27.9610   22.9210 C   0  0  0  0  0  3  0  0  0  0  0  0
  -21.0710  -26.5740   22.2660 C   0  0  0  0  0  2  0  0  0  0  0  0
  -20.0350  -26.2690   21.1800 C   0  0  0  0  0  2  0  0  0  0  0  0
  -18.6190  -26.3180   21.7620 C   0  0  0  0  0  2  0  0  0  0  0  0
  -19.4120  -28.3940   23.0380 C   0  0  0  0  0  0  0  0  0  0  0  0
  -19.1110  -29.6080   23.6920 C   0  0  0  0  0  3  0  0  0  0  0  0
  -17.7790  -30.0460   23.8200 C   0  0  0  0  0  3  0  0  0  0  0  0
  -16.7300  -29.2620   23.3080 C   0  0  0  0  0  3  0  0  0  0  0  0
  -17.0160  -28.0480   22.6580 C   0  0  0  0  0  3  0  0  0  0  0  0
  -25.9920  -32.2620   24.0740 C   0  0  0  0  0  3  0  0  0  0  0  0
  -26.4030  -31.5030   25.3940 C   0  0  1  0  0  0  0  0  0  0  0  0
  -25.2280  -31.2850   26.3760 C   0  0  0  0  0  1  0  0  0  0  0  0
  -27.0050  -30.1180   25.0650 C   0  0  0  0  0  1  0  0  0  0  0  0
  -27.5040  -32.2990   26.1330 C   0  0  0  0  0  1  0  0  0  0  0  0
  -25.6780  -33.6670   24.3600 N   0  0  0  0  0  0  0  0  0  0  0  0
  -26.0790  -34.7050   23.6120 C   0  0  0  0  0  0  0  0  0  0  0  0
  -26.8250  -34.5760   22.6360 O   0  0  0  0  0  0  0  0  0  0  0  0
  -25.0300  -33.8430   25.1140 H   0  0  0  0  0  0  0  0  0  0  0  0
  -24.3980  -36.5030   23.1050 C   0  0  0  0  0  1  0  0  0  0  0  0
  -25.5760  -36.1050   24.0110 C   0  0  0  0  0  3  0  0  0  0  0  0
  -27.6500  -36.9900   24.9780 C   0  0  0  0  0  1  0  0  0  0  0  0
  -26.6240  -37.1470   23.9520 N   0  0  0  0  0  0  0  0  0  0  0  0
  -26.2160  -38.0720   24.0490 H   0  0  0  0  0  0  0  0  0  0  0  0
  -28.8980  -20.0640   18.8220 C   0  0  0  0  0  3  0  0  0  0  0  0
  -31.4870  -14.8180   19.9040 C   0  0  0  0  0  0  0  0  0  0  0  0
  -31.1470  -12.4800   19.1980 C   0  0  0  0  0  2  0  0  0  0  0  0
  -30.2210  -12.4460   17.9660 C   0  0  0  0  0  2  0  0  0  0  0  0
  -28.7420  -12.4050   18.4010 C   0  0  0  0  0  2  0  0  0  0  0  0
  -28.3950  -13.4660   19.4800 C   0  0  0  0  0  3  0  0  0  0  0  0
  -29.4460  -13.4710   20.6120 C   0  0  0  0  0  2  0  0  0  0  0  0
  -30.7600  -13.6630   19.9880 N   0  0  0  0  0  0  0  0  0  0  0  0
  -32.6850  -14.7760   19.6070 O   0  0  0  0  0  0  0  0  0  0  0  0
  -30.4120  -18.0470   18.1940 C   0  0  0  0  0  2  0  0  0  0  0  0
  -29.3370  -17.9220   20.4030 C   0  0  0  0  0  2  0  0  0  0  0  0
  -31.3520  -16.8920   18.6360 C   0  0  0  0  0  2  0  0  0  0  0  0
  -30.3630  -16.8300   20.8250 C   0  0  0  0  0  2  0  0  0  0  0  0
  -29.8890  -18.9310   19.3530 C   0  0  0  0  0  3  0  0  0  0  0  0
  -30.8080  -15.9950   19.6920 N   0  0  0  0  0  0  0  0  0  0  0  0
  -26.0710  -14.2490   20.2480 C   0  0  0  0  0  0  0  0  0  0  0  0
  -24.9530  -13.5630   20.6330 C   0  0  0  0  0  0  0  0  0  0  0  0
  -25.3030  -12.1780   20.5830 C   0  0  0  0  0  0  0  0  0  0  0  0
  -27.0390  -13.2880   19.9930 N   0  0  0  0  0  0  0  0  0  0  0  0
  -26.5800  -12.0370   20.2520 N   0  0  0  0  0  0  0  0  0  0  0  0
  -24.4770  -10.9780   20.7780 C   0  0  0  0  0  0  0  0  0  0  0  0
  -24.8230   -9.9890   21.7260 C   0  0  0  0  0  3  0  0  0  0  0  0
  -24.0050   -8.8540   21.9060 C   0  0  0  0  0  3  0  0  0  0  0  0
  -22.8260   -8.6990   21.1390 C   0  0  0  0  0  0  0  0  0  0  0  0
  -22.4980   -9.6730   20.1810 C   0  0  0  0  0  3  0  0  0  0  0  0
  -23.3160  -10.8010   19.9970 C   0  0  0  0  0  3  0  0  0  0  0  0
  -21.9840   -7.6160   21.2290 O   0  0  0  0  0  0  0  0  0  0  0  0
  -21.8280   -6.9220   22.4020 C   0  0  0  0  0  0  0  0  0  0  0  0
  -21.3570   -7.5450   23.5790 C   0  0  0  0  0  3  0  0  0  0  0  0
  -21.1460   -6.7810   24.7440 C   0  0  0  0  0  3  0  0  0  0  0  0
  -21.3940   -5.3950   24.7300 C   0  0  0  0  0  0  0  0  0  0  0  0
  -21.8560   -4.7710   23.5590 C   0  0  0  0  0  3  0  0  0  0  0  0
  -22.0690   -5.5330   22.3960 C   0  0  0  0  0  0  0  0  0  0  0  0
  -22.4950   -4.9240   21.2630 F   0  0  0  0  0  0  0  0  0  0  0  0
  -21.1850   -4.6600   25.8470 F   0  0  0  0  0  0  0  0  0  0  0  0
  -23.6040  -14.1510   20.9310 C   0  0  0  0  0  0  0  0  0  0  0  0
  -22.8470  -13.5310   21.8290 N   0  0  0  0  0  0  0  0  0  0  0  0
  -23.2340  -15.1970   20.4000 O   0  0  0  0  0  0  0  0  0  0  0  0
  -23.1630  -12.6940   22.2930 H   0  0  0  0  0  0  0  0  0  0  0  0
  -21.9400  -13.9050   22.0630 H   0  0  0  0  0  0  0  0  0  0  0  0
  -26.3370  -15.6020   20.0680 N   0  0  0  0  0  0  0  0  0  0  0  0
  -25.6110  -16.3030   20.1640 H   0  0  0  0  0  0  0  0  0  0  0  0
  -27.2030  -15.9710   19.7020 H   0  0  0  0  0  0  0  0  0  0  0  0
  -26.4070  -20.0460   18.0800 C   0  0  0  0  0  1  0  0  0  0  0  0
  -27.4010  -19.9190   19.2580 C   0  0  0  0  0  3  0  0  0  0  0  0
  -27.0500  -20.7800   20.4040 N   0  0  0  0  0  4  0  0  0  0  0  0
  -27.1350  -21.7530   20.1760 H   0  0  0  0  0  0  0  0  0  0  0  0
  -27.6480  -20.5830   21.1880 H   0  0  0  0  0  0  0  0  0  0  0  0
  -26.1030  -20.6060   20.6970 H   0  0  0  0  0  0  0  0  0  0  0  0
  1  2  2  0
  3  4  1  0
  3  2  1  0
  3  9  1  0
  5  8  1  0
  5  4  1  0
  6  5  1  0
  7  5  1  0
 10  9  1  0
 11 22  2  0
 12 10  1  0
 12 17  1  0
 13 21  1  0
 13 23  1  0
 14 20  1  0
 14 16  1  0
 15 21  1  0
 16 15  1  0
 17 16  2  0
 18 19  1  0
 18 12  2  0
 19 14  2  0
 20 13  1  0
 21 11  1  0
 23 25  2  0
 24 23  1  0
 26 24  1  0
 27 36  2  0
 27 32  1  0
 28 24  1  0
 28 32  1  0
 29 28  1  0
 30 31  1  0
 30 29  1  0
 31 27  1  0
 32 33  2  0
 33 34  1  0
 35 34  2  0
 36 35  1  0
 37 11  1  0
 37 42  1  0
 37 38  1  0
 38 41  1  1
 38 39  1  0
 40 38  1  0
 42 45  1  0
 43 47  1  0
 43 42  1  0
 44 43  2  0
 47 46  1  0
 49 47  1  0
 49 50  1  0
 49 48  1  0
 51  1  1  0
 51 95  1  0
 52 58  1  0
 53 58  1  0
 54 55  1  0
 54 53  1  0
 56 55  1  0
 56 69  1  0
 56 57  1  0
 58 57  1  0
 59 52  2  0
 60 62  1  0
 60 64  1  0
 61 63  1  0
 62 65  1  0
 64 51  1  0
 64 61  1  0
 65 52  1  0
 65 63  1  0
 66 67  2  0
 67 86  1  0
 68 67  1  0
 68 71  1  0
 69 66  1  0
 69 70  1  0
 70 68  2  0
 71 72  1  0
 72 73  2  0
 74 77  1  0
 74 73  1  0
 75 74  2  0
 76 75  1  0
 76 71  2  0
 77 78  1  0
 78 79  1  0
 79 80  2  0
 81 80  1  0
 81 85  1  0
 82 81  2  0
 83 78  2  0
 83 82  1  0
 84 83  1  0
 86 87  1  0
 87 90  1  0
 87 89  1  0
 88 86  2  0
 91 92  1  0
 91 66  1  0
 93 91  1  0
 95 94  1  0
 95 96  1  0
 96 99  1  0
 96 98  1  0
 97 96  1  0
M  ISO  4   9 101  10 101  52 100  65 100
M  END
>  <TORSDO>  (60) 
F 24

>  <SCORE>  (60) 
-11.375

>  <name>  (60) 
60

>  <ligand_id>  (60) 
60

>  <original_smiles>  (60) 
[H]c1c([H])c([H])c2c(c1[H])C([H])([H])C([H])([H])C([H])([H])C2([H])N([H])C(=O)C1([H])N(C(=O)C([H])(N([H])C(=O)C([H])(N([H])C([H])([H])[H])C([H])([H])[H])C(C([H])([H])[H])(C([H])([H])[H])C([H])([H])[H])C([H])([H])c2c([H])c(OC([H])([H])C([H])(C([H])([H])C([H])([H])C([H])(C3([H])C([H])([H])C([H])([H])N(C(=O)N4C([H])([H])C([H])([H])C([H])([H])C([H])(n5nc(-c6c([H])c([H])c(Oc7c([H])c([H])c(F)c([H])c7F)c([H])c6[H])c(C(=O)N([H])[H])c5N([H])[H])C4([H])[H])C([H])([H])C3([H])[H])C([H])(C([H])([H])[H])[N+]([H])([H])[H])C([H])([H])[N+]([H])([H])[H])c([H])c([H])c2C1([H])[H]

>  <smiles>  (60) 
[H]c1c([H])c([H])c2c(c1[H])C([H])([H])C([H])([H])C([H])([H])C2([H])N([H])C(=O)C1([H])N(C(=O)C([H])(N([H])C(=O)C([H])(N([H])C([H])([H])[H])C([H])([H])[H])C(C([H])([H])[H])(C([H])([H])[H])C([H])([H])[H])C([H])([H])c2c([H])c(OC([H])([H])C([H])(C([H])([H])C([H])([H])C([H])(C3([H])C([H])([H])C([H])([H])N(C(=O)N4C([H])([H])C([H])([H])C([H])([H])C([H])(n5nc(-c6c([H])c([H])c(Oc7c([H])c([H])c(F)c([H])c7F)c([H])c6[H])c(C(=O)N([H])[H])c5N([H])[H])C4([H])[H])C([H])([H])C3([H])[H])C([H])(C([H])([H])[H])[N+]([H])([H])[H])C([H])([H])[N+]([H])([H])[H])c([H])c([H])c2C1([H])[H]

$$$$
61:0:0
     RDKit          3D

 95103  0  0  1  0  0  0  0  0999 V2000
  -30.4950  -23.7700   22.9410 C   0  0  0  0  0  2  0  0  0  0  0  0
  -30.1750  -23.6860   21.4980 N   0  0  0  0  0  4  0  0  0  0  0  0
  -30.9140  -23.1690   21.0430 H   0  0  0  0  0  0  0  0  0  0  0  0
  -29.3320  -23.1450   21.3790 H   0  0  0  0  0  0  0  0  0  0  0  0
  -29.9780  -24.9810   20.7920 C   0  0  0  0  0  2  0  0  0  0  0  0
  -27.4740  -24.4930   20.7890 C   0  0  0  0  0  1  0  0  0  0  0  0
  -28.5580  -25.5860   20.9640 C   0  0  0  0  0  3  0  0  0  0  0  0
  -28.4340  -26.6550   19.9990 O   0  0  0  0  0  0  0  0  0  0  0  0
  -24.5510  -31.7280   23.1670 C   0  0  0  0  0  0  0  0  0  0  0  0
  -27.2700  -27.3940   20.0250 C   0  0  0  0  0  0  0  0  0  0  0  0
  -23.3740  -30.3550   21.4790 C   0  0  0  0  0  3  0  0  0  0  0  0
  -24.8630  -28.8770   20.0220 C   0  0  0  0  0  0  0  0  0  0  0  0
  -25.8970  -30.7460   21.3180 C   0  0  0  0  0  2  0  0  0  0  0  0
  -26.0040  -29.3910   20.6530 C   0  0  0  0  0  0  0  0  0  0  0  0
  -27.2120  -28.6550   20.6600 C   0  0  0  0  0  3  0  0  0  0  0  0
  -26.1250  -26.9150   19.3540 C   0  0  0  0  0  3  0  0  0  0  0  0
  -24.9180  -27.6370   19.3650 C   0  0  0  0  0  3  0  0  0  0  0  0
  -23.6050  -29.7150   20.0840 C   0  0  0  0  0  2  0  0  0  0  0  0
  -24.6230  -30.9570   22.0460 N   0  0  0  0  0  0  0  0  0  0  0  0
  -23.4620  -31.9760   23.7020 O   0  0  0  0  0  0  0  0  0  0  0  0
  -22.7290  -29.3000   22.4060 C   0  0  0  0  0  0  0  0  0  0  0  0
  -21.4090  -29.1050   22.2540 N   0  0  0  0  0  0  0  0  0  0  0  0
  -23.4100  -28.6630   23.2130 O   0  0  0  0  0  0  0  0  0  0  0  0
  -20.9230  -29.6640   21.5670 H   0  0  0  0  0  0  0  0  0  0  0  0
  -18.0380  -27.8750   22.6900 C   0  0  0  0  0  0  0  0  0  0  0  0
  -20.5920  -28.1420   22.9930 C   0  0  0  0  0  3  0  0  0  0  0  0
  -20.7110  -26.7300   22.3750 C   0  0  0  0  0  2  0  0  0  0  0  0
  -19.6210  -26.4290   21.3430 C   0  0  0  0  0  2  0  0  0  0  0  0
  -18.2310  -26.5460   21.9780 C   0  0  0  0  0  2  0  0  0  0  0  0
  -19.1480  -28.6320   23.1510 C   0  0  0  0  0  0  0  0  0  0  0  0
  -18.9170  -29.8780   23.7750 C   0  0  0  0  0  3  0  0  0  0  0  0
  -17.6080  -30.3680   23.9410 C   0  0  0  0  0  3  0  0  0  0  0  0
  -16.5120  -29.6070   23.4980 C   0  0  0  0  0  3  0  0  0  0  0  0
  -16.7280  -28.3630   22.8800 C   0  0  0  0  0  3  0  0  0  0  0  0
  -25.8270  -32.3560   23.8100 C   0  0  0  0  0  3  0  0  0  0  0  0
  -25.5070  -33.7480   24.1480 N   0  0  0  0  0  0  0  0  0  0  0  0
  -25.8570  -34.8090   23.4080 C   0  0  0  0  0  0  0  0  0  0  0  0
  -26.5550  -34.7190   22.3940 O   0  0  0  0  0  0  0  0  0  0  0  0
  -24.8880  -33.8930   24.9320 H   0  0  0  0  0  0  0  0  0  0  0  0
  -24.1400  -36.6040   23.0180 C   0  0  0  0  0  1  0  0  0  0  0  0
  -25.3520  -36.1900   23.8660 C   0  0  0  0  0  3  0  0  0  0  0  0
  -27.4560  -37.0630   24.7850 C   0  0  0  0  0  1  0  0  0  0  0  0
  -26.3880  -37.2440   23.8040 N   0  0  0  0  0  0  0  0  0  0  0  0
  -25.9740  -38.1610   23.9530 H   0  0  0  0  0  0  0  0  0  0  0  0
  -26.3260  -31.5730   25.0860 C   0  0  1  0  0  0  0  0  0  0  0  0
  -25.2170  -31.3210   26.1310 C   0  0  0  0  0  1  0  0  0  0  0  0
  -26.9220  -30.2030   24.6840 C   0  0  0  0  0  1  0  0  0  0  0  0
  -27.4600  -32.3690   25.7760 C   0  0  0  0  0  1  0  0  0  0  0  0
  -30.0430  -22.5240   23.7310 C   0  0  0  0  0  2  0  0  0  0  0  0
  -30.8460  -21.2310   23.5160 C   0  0  0  0  0  2  0  0  0  0  0  0
  -30.6510  -20.7300   22.1920 O   0  0  0  0  0  0  0  0  0  0  0  0
  -31.0600  -14.4610   20.2180 C   0  0  0  0  0  0  0  0  0  0  0  0
  -30.6190  -12.3880   18.9440 C   0  0  0  0  0  2  0  0  0  0  0  0
  -29.6180  -12.6590   17.8040 C   0  0  0  0  0  2  0  0  0  0  0  0
  -28.1690  -12.5320   18.3120 C   0  0  0  0  0  2  0  0  0  0  0  0
  -27.9180  -13.3450   19.6080 C   0  0  0  0  0  3  0  0  0  0  0  0
  -29.0150  -13.0560   20.6550 C   0  0  0  0  0  2  0  0  0  0  0  0
  -30.3360  -13.3230   20.0440 N   0  0  0  0  0  0  0  0  0  0  0  0
  -32.0380  -14.7540   19.5210 O   0  0  0  0  0  0  0  0  0  0  0  0
  -30.6560  -18.8920   20.6490 C   0  0  0  0  0  3  0  0  0  0  0  0
  -30.6910  -17.5060   20.3950 C   0  0  0  0  0  3  0  0  0  0  0  0
  -30.8350  -18.3750   22.9860 C   0  0  0  0  0  3  0  0  0  0  0  0
  -30.7230  -19.3630   21.9750 C   0  0  0  0  0  0  0  0  0  0  0  0
  -30.7840  -16.5970   21.4730 C   0  0  0  0  0  0  0  0  0  0  0  0
  -30.8460  -17.0460   22.7440 N   0  0  0  0  0  0  0  0  0  0  0  0
  -30.6770  -15.2030   21.2670 N   0  0  0  0  0  0  0  0  0  0  0  0
  -30.0900  -14.7240   21.9300 H   0  0  0  0  0  0  0  0  0  0  0  0
  -25.5680  -13.9830   20.4570 C   0  0  0  0  0  0  0  0  0  0  0  0
  -24.5050  -13.2220   20.8580 C   0  0  0  0  0  0  0  0  0  0  0  0
  -24.9360  -11.8620   20.7650 C   0  0  0  0  0  0  0  0  0  0  0  0
  -26.5810  -13.0890   20.1450 N   0  0  0  0  0  0  0  0  0  0  0  0
  -26.2060  -11.8060   20.3860 N   0  0  0  0  0  0  0  0  0  0  0  0
  -24.1970  -10.6080   20.9550 C   0  0  0  0  0  0  0  0  0  0  0  0
  -24.6140   -9.6380   21.8910 C   0  0  0  0  0  3  0  0  0  0  0  0
  -23.8740   -8.4490   22.0690 C   0  0  0  0  0  3  0  0  0  0  0  0
  -22.7020   -8.2210   21.3100 C   0  0  0  0  0  0  0  0  0  0  0  0
  -22.3050   -9.1810   20.3610 C   0  0  0  0  0  3  0  0  0  0  0  0
  -23.0460  -10.3610   20.1800 C   0  0  0  0  0  3  0  0  0  0  0  0
  -21.9320   -7.0880   21.4010 O   0  0  0  0  0  0  0  0  0  0  0  0
  -21.8170   -6.3870   22.5760 C   0  0  0  0  0  0  0  0  0  0  0  0
  -21.3310   -6.9860   23.7580 C   0  0  0  0  0  3  0  0  0  0  0  0
  -21.1630   -6.2110   24.9230 C   0  0  0  0  0  3  0  0  0  0  0  0
  -21.4690   -4.8380   24.9060 C   0  0  0  0  0  0  0  0  0  0  0  0
  -21.9470   -4.2370   23.7270 C   0  0  0  0  0  3  0  0  0  0  0  0
  -22.1180   -5.0100   22.5650 C   0  0  0  0  0  0  0  0  0  0  0  0
  -22.5600   -4.4220   21.4270 F   0  0  0  0  0  0  0  0  0  0  0  0
  -21.3030   -4.0900   26.0220 F   0  0  0  0  0  0  0  0  0  0  0  0
  -23.1290  -13.7140   21.2130 C   0  0  0  0  0  0  0  0  0  0  0  0
  -22.4350  -13.0100   22.1010 N   0  0  0  0  0  0  0  0  0  0  0  0
  -22.6820  -14.7580   20.7400 O   0  0  0  0  0  0  0  0  0  0  0  0
  -22.8070  -12.1630   22.5050 H   0  0  0  0  0  0  0  0  0  0  0  0
  -21.5160  -13.3220   22.3860 H   0  0  0  0  0  0  0  0  0  0  0  0
  -25.7560  -15.3550   20.3090 N   0  0  0  0  0  0  0  0  0  0  0  0
  -25.0180  -16.0320   20.4750 H   0  0  0  0  0  0  0  0  0  0  0  0
  -26.5990  -15.7740   19.9370 H   0  0  0  0  0  0  0  0  0  0  0  0
  1 49  1  0
  2  1  1  0
  3  2  1  0
  4  2  1  0
  5  7  1  0
  5  2  1  0
  7  6  1  0
  8 10  1  0
  8  7  1  0
  9 20  2  0
 10 15  1  0
 11 19  1  0
 11 21  1  0
 12 18  1  0
 12 14  1  0
 13 19  1  0
 14 15  2  0
 14 13  1  0
 16 17  1  0
 16 10  2  0
 17 12  2  0
 18 11  1  0
 19  9  1  0
 21 23  2  0
 22 21  1  0
 24 22  1  0
 25 34  2  0
 25 30  1  0
 26 22  1  0
 26 30  1  0
 27 26  1  0
 28 29  1  0
 28 27  1  0
 29 25  1  0
 30 31  2  0
 31 32  1  0
 33 32  2  0
 34 33  1  0
 35  9  1  0
 35 36  1  0
 35 45  1  0
 36 39  1  0
 37 41  1  0
 37 36  1  0
 38 37  2  0
 41 40  1  0
 43 41  1  0
 43 44  1  0
 43 42  1  0
 45 48  1  1
 45 46  1  0
 47 45  1  0
 50 49  1  0
 51 50  1  0
 52 66  1  0
 53 58  1  0
 54 55  1  0
 54 53  1  0
 56 55  1  0
 56 71  1  0
 56 57  1  0
 58 52  1  0
 58 57  1  0
 59 52  2  0
 60 63  1  0
 61 60  2  0
 61 64  1  0
 63 51  1  0
 63 62  2  0
 64 65  2  0
 65 62  1  0
 66 64  1  0
 66 67  1  0
 68 69  2  0
 69 88  1  0
 70 69  1  0
 70 73  1  0
 71 72  1  0
 71 68  1  0
 72 70  2  0
 73 74  1  0
 74 75  2  0
 76 79  1  0
 76 75  1  0
 77 76  2  0
 78 77  1  0
 78 73  2  0
 79 80  1  0
 80 81  1  0
 81 82  2  0
 83 82  1  0
 83 87  1  0
 84 83  2  0
 85 80  2  0
 85 84  1  0
 86 85  1  0
 88 89  1  0
 89 92  1  0
 89 91  1  0
 90 88  2  0
 93 68  1  0
 93 94  1  0
 95 93  1  0
M  ISO  4   7 101   8 101  52 100  66 100
M  END
>  <TORSDO>  (61) 
F 22

>  <SCORE>  (61) 
-12.448

>  <name>  (61) 
61

>  <ligand_id>  (61) 
61

>  <original_smiles>  (61) 
[H]c1nc(N([H])C(=O)N2C([H])([H])C([H])([H])C([H])([H])C([H])(n3nc(-c4c([H])c([H])c(Oc5c([H])c([H])c(F)c([H])c5F)c([H])c4[H])c(C(=O)N([H])[H])c3N([H])[H])C2([H])[H])c([H])c([H])c1OC([H])([H])C([H])([H])C([H])([H])[N+]([H])([H])C([H])([H])C([H])(Oc1c([H])c([H])c2c(c1[H])C([H])([H])N(C(=O)C([H])(N([H])C(=O)C([H])(N([H])C([H])([H])[H])C([H])([H])[H])C(C([H])([H])[H])(C([H])([H])[H])C([H])([H])[H])C([H])(C(=O)N([H])C1([H])c3c([H])c([H])c([H])c([H])c3C([H])([H])C([H])([H])C1([H])[H])C2([H])[H])C([H])([H])[H]

>  <smiles>  (61) 
[H]c1nc(N([H])C(=O)N2C([H])([H])C([H])([H])C([H])([H])C([H])(n3nc(-c4c([H])c([H])c(Oc5c([H])c([H])c(F)c([H])c5F)c([H])c4[H])c(C(=O)N([H])[H])c3N([H])[H])C2([H])[H])c([H])c([H])c1OC([H])([H])C([H])([H])C([H])([H])[N+]([H])([H])C([H])([H])C([H])(Oc1c([H])c([H])c2c(c1[H])C([H])([H])N(C(=O)C([H])(N([H])C(=O)C([H])(N([H])C([H])([H])[H])C([H])([H])[H])C(C([H])([H])[H])(C([H])([H])[H])C([H])([H])[H])C([H])(C(=O)N([H])C1([H])c3c([H])c([H])c([H])c([H])c3C([H])([H])C([H])([H])C1([H])[H])C2([H])[H])C([H])([H])[H]

$$$$
62:0:0
     RDKit          3D

 95104  0  0  1  0  0  0  0  0999 V2000
  -27.9910  -20.9380   20.3350 C   0  0  0  0  0  3  0  0  0  0  0  0
  -29.7600  -22.4350   19.7570 C   0  0  0  0  0  3  0  0  0  0  0  0
  -29.3640  -21.0150   20.0210 C   0  0  0  0  0  0  0  0  0  0  0  0
  -27.1690  -22.0900   20.4210 C   0  0  0  0  0  0  0  0  0  0  0  0
  -28.8500  -23.6270   19.8330 C   0  0  0  0  0  0  0  0  0  0  0  0
  -25.7140  -21.9520   20.8130 C   0  0  0  0  0  1  0  0  0  0  0  0
  -27.5750  -23.3640   20.1880 N   0  0  0  0  0  0  0  0  0  0  0  0
  -31.0400  -15.4560   19.8860 C   0  0  0  0  0  0  0  0  0  0  0  0
  -30.8880  -13.0760   18.9830 C   0  0  0  0  0  2  0  0  0  0  0  0
  -29.9110  -13.0050   17.7860 C   0  0  0  0  0  2  0  0  0  0  0  0
  -28.4640  -12.7970   18.2730 C   0  0  0  0  0  2  0  0  0  0  0  0
  -28.1050  -13.7320   19.4570 C   0  0  0  0  0  3  0  0  0  0  0  0
  -29.2000  -13.7630   20.5430 C   0  0  0  0  0  2  0  0  0  0  0  0
  -30.4470  -14.1840   19.8880 N   0  0  0  0  0  0  0  0  0  0  0  0
  -32.1770  -15.5200   19.4010 O   0  0  0  0  0  0  0  0  0  0  0  0
  -31.1300  -18.0750   22.1600 C   0  0  0  0  0  2  0  0  0  0  0  0
  -30.2730  -16.8640   21.7380 C   0  0  0  0  0  2  0  0  0  0  0  0
  -29.9640  -18.0520   19.5990 C   0  0  0  0  0  2  0  0  0  0  0  0
  -30.2730  -19.6140   20.2330 C   0  0  0  0  0  3  0  0  0  0  0  0
  -30.4840  -19.4320   21.7650 C   0  0  0  0  0  3  0  0  0  0  0  0
  -30.3430  -16.6540   20.2910 N   0  0  0  0  0  0  0  0  0  0  0  0
  -25.7840  -14.3280   20.3470 C   0  0  0  0  0  0  0  0  0  0  0  0
  -24.7210  -13.5620   20.7380 C   0  0  0  0  0  0  0  0  0  0  0  0
  -25.1480  -12.2030   20.6220 C   0  0  0  0  0  0  0  0  0  0  0  0
  -26.7890  -13.4370   20.0110 N   0  0  0  0  0  0  0  0  0  0  0  0
  -26.4200  -12.1500   20.2410 N   0  0  0  0  0  0  0  0  0  0  0  0
  -24.4000  -10.9500   20.7940 C   0  0  0  0  0  0  0  0  0  0  0  0
  -24.7840   -9.9850   21.7510 C   0  0  0  0  0  3  0  0  0  0  0  0
  -24.0370   -8.7980   21.9100 C   0  0  0  0  0  3  0  0  0  0  0  0
  -22.8900   -8.5680   21.1140 C   0  0  0  0  0  0  0  0  0  0  0  0
  -22.5250   -9.5210   20.1460 C   0  0  0  0  0  3  0  0  0  0  0  0
  -23.2730  -10.6990   19.9850 C   0  0  0  0  0  3  0  0  0  0  0  0
  -22.1180   -7.4330   21.1820 O   0  0  0  0  0  0  0  0  0  0  0  0
  -21.9090   -6.7740   22.3680 C   0  0  0  0  0  0  0  0  0  0  0  0
  -21.3070   -7.4070   23.4770 C   0  0  0  0  0  3  0  0  0  0  0  0
  -21.0510   -6.6740   24.6520 C   0  0  0  0  0  3  0  0  0  0  0  0
  -21.3850   -5.3070   24.7180 C   0  0  0  0  0  0  0  0  0  0  0  0
  -21.9770   -4.6740   23.6110 C   0  0  0  0  0  3  0  0  0  0  0  0
  -22.2370   -5.4050   22.4390 C   0  0  0  0  0  0  0  0  0  0  0  0
  -22.7900   -4.7850   21.3690 F   0  0  0  0  0  0  0  0  0  0  0  0
  -21.1300   -4.6000   25.8430 F   0  0  0  0  0  0  0  0  0  0  0  0
  -23.3520  -14.0580   21.1010 C   0  0  0  0  0  0  0  0  0  0  0  0
  -22.6600  -13.3560   21.9930 N   0  0  0  0  0  0  0  0  0  0  0  0
  -22.9060  -15.1030   20.6290 O   0  0  0  0  0  0  0  0  0  0  0  0
  -23.0340  -12.5110   22.3980 H   0  0  0  0  0  0  0  0  0  0  0  0
  -21.7420  -13.6680   22.2740 H   0  0  0  0  0  0  0  0  0  0  0  0
  -25.9770  -15.7000   20.2260 N   0  0  0  0  0  0  0  0  0  0  0  0
  -25.2420  -16.3730   20.4130 H   0  0  0  0  0  0  0  0  0  0  0  0
  -26.8300  -16.1280   19.8890 H   0  0  0  0  0  0  0  0  0  0  0  0
  -30.8450  -20.7910   23.8170 C   0  0  0  0  0  1  0  0  0  0  0  0
  -32.6330  -20.6850   22.1360 C   0  0  0  0  0  1  0  0  0  0  0  0
  -31.1710  -20.6070   22.3830 N   0  0  1  0  0  4  0  0  0  0  0  0
  -30.7710  -21.4140   21.9250 H   0  0  0  0  0  0  0  0  0  0  0  0
  -29.0590  -25.1940   19.2800 C   0  0  0  0  0  2  0  0  0  0  0  0
  -28.7670  -26.5860   19.9530 O   0  0  0  0  0  0  0  0  0  0  0  0
  -24.6010  -31.8080   23.0620 C   0  0  0  0  0  0  0  0  0  0  0  0
  -27.6220  -27.4680   19.8400 C   0  0  0  0  0  0  0  0  0  0  0  0
  -23.5460  -30.3900   21.3400 C   0  0  0  0  0  3  0  0  0  0  0  0
  -25.1420  -29.0130   19.8560 C   0  0  0  0  0  0  0  0  0  0  0  0
  -26.0670  -30.8800   21.2250 C   0  0  0  0  0  2  0  0  0  0  0  0
  -26.2690  -29.5290   20.5070 C   0  0  0  0  0  0  0  0  0  0  0  0
  -27.5000  -28.7690   20.4860 C   0  0  0  0  0  3  0  0  0  0  0  0
  -26.4630  -27.0560   19.1500 C   0  0  0  0  0  3  0  0  0  0  0  0
  -25.2520  -27.7930   19.1650 C   0  0  0  0  0  3  0  0  0  0  0  0
  -23.8380  -29.7980   19.9340 C   0  0  0  0  0  2  0  0  0  0  0  0
  -24.7550  -31.0490   21.9310 N   0  0  0  0  0  0  0  0  0  0  0  0
  -23.4900  -31.9710   23.5890 O   0  0  0  0  0  0  0  0  0  0  0  0
  -22.9480  -29.2860   22.2480 C   0  0  0  0  0  0  0  0  0  0  0  0
  -21.6320  -29.0320   22.1250 N   0  0  0  0  0  0  0  0  0  0  0  0
  -23.6700  -28.6600   23.0290 O   0  0  0  0  0  0  0  0  0  0  0  0
  -21.1000  -29.5950   21.4760 H   0  0  0  0  0  0  0  0  0  0  0  0
  -18.3430  -27.5890   22.6090 C   0  0  0  0  0  0  0  0  0  0  0  0
  -20.8870  -27.9950   22.8450 C   0  0  0  0  0  3  0  0  0  0  0  0
  -21.0630  -26.6130   22.1720 C   0  0  0  0  0  2  0  0  0  0  0  0
  -19.9600  -26.2920   21.1580 C   0  0  0  0  0  2  0  0  0  0  0  0
  -18.5870  -26.3040   21.8370 C   0  0  0  0  0  2  0  0  0  0  0  0
  -19.4220  -28.3910   23.0680 C   0  0  0  0  0  0  0  0  0  0  0  0
  -19.1380  -29.5920   23.7540 C   0  0  0  0  0  3  0  0  0  0  0  0
  -17.8090  -29.9950   23.9830 C   0  0  0  0  0  3  0  0  0  0  0  0
  -16.7450  -29.1910   23.5370 C   0  0  0  0  0  3  0  0  0  0  0  0
  -17.0130  -27.9890   22.8570 C   0  0  0  0  0  3  0  0  0  0  0  0
  -25.8110  -32.5250   23.7350 C   0  0  0  0  0  3  0  0  0  0  0  0
  -25.3880  -33.8920   24.0840 N   0  0  0  0  0  0  0  0  0  0  0  0
  -25.6650  -34.9860   23.3620 C   0  0  0  0  0  0  0  0  0  0  0  0
  -26.3660  -34.9550   22.3470 O   0  0  0  0  0  0  0  0  0  0  0  0
  -24.7620  -33.9820   24.8700 H   0  0  0  0  0  0  0  0  0  0  0  0
  -23.8200  -36.6630   23.0050 C   0  0  0  0  0  1  0  0  0  0  0  0
  -25.0680  -36.3270   23.8370 C   0  0  0  0  0  3  0  0  0  0  0  0
  -27.1110  -37.3470   24.7430 C   0  0  0  0  0  1  0  0  0  0  0  0
  -26.0250  -37.4530   23.7710 N   0  0  0  0  0  0  0  0  0  0  0  0
  -25.5510  -38.3390   23.9240 H   0  0  0  0  0  0  0  0  0  0  0  0
  -26.3410  -31.7730   25.0190 C   0  0  1  0  0  0  0  0  0  0  0  0
  -25.2360  -31.4420   26.0490 C   0  0  0  0  0  1  0  0  0  0  0  0
  -27.0320  -30.4460   24.6330 C   0  0  0  0  0  1  0  0  0  0  0  0
  -27.4120  -32.6360   25.7260 C   0  0  0  0  0  1  0  0  0  0  0  0
  1  4  1  0
  2  5  2  0
  2  3  1  0
  3  1  2  0
  4  6  1  0
  5  7  1  0
  7  4  2  0
  8 14  1  0
  8 21  1  0
  9 14  1  0
 10 11  1  0
 10  9  1  0
 12 11  1  0
 12 25  1  0
 12 13  1  0
 14 13  1  0
 15  8  2  0
 17 16  1  0
 18 19  1  0
 18 21  1  0
 19  3  1  0
 19 20  1  0
 20 16  1  0
 20 52  1  0
 21 17  1  0
 22 23  2  0
 23 42  1  0
 24 23  1  0
 24 27  1  0
 25 26  1  0
 25 22  1  0
 26 24  2  0
 27 28  1  0
 28 29  2  0
 30 33  1  0
 30 29  1  0
 31 30  2  0
 32 31  1  0
 32 27  2  0
 33 34  1  0
 34 39  2  0
 34 35  1  0
 35 36  2  0
 36 37  1  0
 37 41  1  0
 38 37  2  0
 39 38  1  0
 40 39  1  0
 42 43  1  0
 43 46  1  0
 43 45  1  0
 44 42  2  0
 47 22  1  0
 47 48  1  0
 49 47  1  0
 51 52  1  0
 52 50  1  0
 52 53  1  6
 54  5  1  0
 54 55  1  0
 56 67  2  0
 57 55  1  0
 57 62  1  0
 58 66  1  0
 58 68  1  0
 59 65  1  0
 59 61  1  0
 60 66  1  0
 61 60  1  0
 62 61  2  0
 63 64  1  0
 63 57  2  0
 64 59  2  0
 65 58  1  0
 66 56  1  0
 68 70  2  0
 69 68  1  0
 71 69  1  0
 72 81  2  0
 72 77  1  0
 73 69  1  0
 73 77  1  0
 74 73  1  0
 75 76  1  0
 75 74  1  0
 76 72  1  0
 77 78  2  0
 78 79  1  0
 80 79  2  0
 81 80  1  0
 82 56  1  0
 82 83  1  0
 82 92  1  0
 83 86  1  0
 84 88  1  0
 84 83  1  0
 85 84  2  0
 88 87  1  0
 90 88  1  0
 90 91  1  0
 90 89  1  0
 92 95  1  1
 92 93  1  0
 94 92  1  0
M  ISO  4   8 100  21 100  54 101  55 101
M  END
>  <TORSDO>  (62) 
F 18

>  <SCORE>  (62) 
-11.832

>  <name>  (62) 
62

>  <ligand_id>  (62) 
62

>  <original_smiles>  (62) 
[H]c1c([H])c([H])c2c(c1[H])C([H])([H])C([H])([H])C([H])([H])C2([H])N([H])C(=O)C1([H])N(C(=O)C([H])(N([H])C(=O)C([H])(N([H])C([H])([H])[H])C([H])([H])[H])C(C([H])([H])[H])(C([H])([H])[H])C([H])([H])[H])C([H])([H])c2c([H])c(OC([H])([H])c3nc(C([H])([H])[H])c([H])c(C4([H])C([H])([H])N(C(=O)N5C([H])([H])C([H])([H])C([H])([H])C([H])(n6nc(-c7c([H])c([H])c(Oc8c([H])c([H])c(F)c([H])c8F)c([H])c7[H])c(C(=O)N([H])[H])c6N([H])[H])C5([H])[H])C([H])([H])C([H])([H])C4([H])[N+]([H])(C([H])([H])[H])C([H])([H])[H])c3[H])c([H])c([H])c2C1([H])[H]

>  <smiles>  (62) 
[H]c1c([H])c([H])c2c(c1[H])C([H])([H])C([H])([H])C([H])([H])C2([H])N([H])C(=O)C1([H])N(C(=O)C([H])(N([H])C(=O)C([H])(N([H])C([H])([H])[H])C([H])([H])[H])C(C([H])([H])[H])(C([H])([H])[H])C([H])([H])[H])C([H])([H])c2c([H])c(OC([H])([H])c3nc(C([H])([H])[H])c([H])c(C4([H])C([H])([H])N(C(=O)N5C([H])([H])C([H])([H])C([H])([H])C([H])(n6nc(-c7c([H])c([H])c(Oc8c([H])c([H])c(F)c([H])c8F)c([H])c7[H])c(C(=O)N([H])[H])c6N([H])[H])C5([H])[H])C([H])([H])C([H])([H])C4([H])[N+]([H])(C([H])([H])[H])C([H])([H])[H])c3[H])c([H])c([H])c2C1([H])[H]

$$$$
63:0:0
     RDKit          3D

 96104  0  0  1  0  0  0  0  0999 V2000
  -29.4620  -18.3860   20.4550 C   0  0  0  0  0  2  0  0  0  0  0  0
  -32.1530  -15.8830   18.5140 C   0  0  0  0  0  2  0  0  0  0  0  0
  -31.3010  -15.9010   17.2520 C   0  0  0  0  0  2  0  0  0  0  0  0
  -31.2880  -16.2580   19.7360 C   0  0  0  0  0  3  0  0  0  0  0  0
  -30.5080  -17.6980   19.4680 C   0  0  0  0  0  3  0  0  0  0  0  0
  -30.0970  -17.9620   17.9470 C   0  0  0  0  0  3  0  0  0  0  0  0
  -30.9440  -17.2800   16.9350 N   0  0  0  0  0  4  0  0  0  0  0  0
  -30.4370  -17.2590   16.0650 H   0  0  0  0  0  0  0  0  0  0  0  0
  -31.7800  -17.8160   16.7610 H   0  0  0  0  0  0  0  0  0  0  0  0
  -31.1960  -14.9580   20.7170 C   0  0  0  0  0  0  0  0  0  0  0  0
  -30.8600  -12.6810   19.7640 C   0  0  0  0  0  2  0  0  0  0  0  0
  -30.0110  -12.6410   18.4840 C   0  0  0  0  0  2  0  0  0  0  0  0
  -28.5100  -12.6000   18.8180 C   0  0  0  0  0  2  0  0  0  0  0  0
  -28.0840  -13.5490   19.9680 C   0  0  0  0  0  3  0  0  0  0  0  0
  -29.0850  -13.5420   21.1360 C   0  0  0  0  0  2  0  0  0  0  0  0
  -30.3980  -13.8440   20.5420 N   0  0  0  0  0  0  0  0  0  0  0  0
  -32.3200  -14.7210   21.1470 O   0  0  0  0  0  0  0  0  0  0  0  0
  -25.6670  -14.1850   20.5410 C   0  0  0  0  0  0  0  0  0  0  0  0
  -24.5590  -13.4350   20.8160 C   0  0  0  0  0  0  0  0  0  0  0  0
  -24.9930  -12.0740   20.8280 C   0  0  0  0  0  0  0  0  0  0  0  0
  -26.7100  -13.2880   20.3890 N   0  0  0  0  0  0  0  0  0  0  0  0
  -26.3070  -12.0150   20.6360 N   0  0  0  0  0  0  0  0  0  0  0  0
  -24.2250  -10.8280   20.9580 C   0  0  0  0  0  0  0  0  0  0  0  0
  -24.5860   -9.8330   21.8940 C   0  0  0  0  0  3  0  0  0  0  0  0
  -23.8260   -8.6500   22.0100 C   0  0  0  0  0  3  0  0  0  0  0  0
  -22.6880   -8.4530   21.1910 C   0  0  0  0  0  0  0  0  0  0  0  0
  -22.3450   -9.4360   20.2440 C   0  0  0  0  0  3  0  0  0  0  0  0
  -23.1040  -10.6120   20.1280 C   0  0  0  0  0  3  0  0  0  0  0  0
  -21.9010   -7.3260   21.2190 O   0  0  0  0  0  0  0  0  0  0  0  0
  -21.7920   -6.5520   22.3470 C   0  0  0  0  0  0  0  0  0  0  0  0
  -21.3520   -7.0890   23.5760 C   0  0  0  0  0  3  0  0  0  0  0  0
  -21.1880   -6.2450   24.6950 C   0  0  0  0  0  3  0  0  0  0  0  0
  -21.4500   -4.8670   24.5790 C   0  0  0  0  0  0  0  0  0  0  0  0
  -21.8840   -4.3290   23.3560 C   0  0  0  0  0  3  0  0  0  0  0  0
  -22.0510   -5.1700   22.2410 C   0  0  0  0  0  0  0  0  0  0  0  0
  -22.4510   -4.6450   21.0570 F   0  0  0  0  0  0  0  0  0  0  0  0
  -21.2840   -4.0560   25.6500 F   0  0  0  0  0  0  0  0  0  0  0  0
  -23.1520  -13.9380   20.9670 C   0  0  0  0  0  0  0  0  0  0  0  0
  -22.3430  -13.2710   21.7800 N   0  0  0  0  0  0  0  0  0  0  0  0
  -22.7770  -14.9610   20.3950 O   0  0  0  0  0  0  0  0  0  0  0  0
  -22.6640  -12.4500   22.2730 H   0  0  0  0  0  0  0  0  0  0  0  0
  -21.3930  -13.5900   21.9180 H   0  0  0  0  0  0  0  0  0  0  0  0
  -25.8750  -15.5520   20.3790 N   0  0  0  0  0  0  0  0  0  0  0  0
  -25.1180  -16.2230   20.4350 H   0  0  0  0  0  0  0  0  0  0  0  0
  -26.7690  -15.9690   20.1480 H   0  0  0  0  0  0  0  0  0  0  0  0
  -31.4730  -20.1290   17.5120 C   0  0  0  0  0  1  0  0  0  0  0  0
  -29.4060  -19.7340   16.1600 C   0  0  0  0  0  1  0  0  0  0  0  0
  -30.0700  -19.4700   17.5310 C   0  0  0  0  0  3  0  0  0  0  0  0
  -30.9400  -19.4530   22.2290 C   0  0  0  0  0  1  0  0  0  0  0  0
  -29.7670  -19.7500   21.2730 C   0  0  0  0  0  3  0  0  0  0  0  0
  -29.9660  -21.2550   20.6800 C   0  0  0  0  0  2  0  0  0  0  0  0
  -27.5040  -21.9170   21.1050 C   0  0  0  0  0  1  0  0  0  0  0  0
  -28.8000  -22.3320   20.3920 C   0  0  0  0  0  3  0  0  0  0  0  0
  -29.1450  -23.9020   20.6340 C   0  0  0  0  0  3  0  0  0  0  0  0
  -28.0850  -25.0250   20.1840 C   0  0  0  0  0  3  0  0  0  0  0  0
  -28.3520  -26.4930   20.3040 O   0  0  0  0  0  0  0  0  0  0  0  0
  -24.6280  -31.9580   23.2880 C   0  0  0  0  0  0  0  0  0  0  0  0
  -27.2500  -27.3750   20.2340 C   0  0  0  0  0  0  0  0  0  0  0  0
  -23.4340  -30.5540   21.6510 C   0  0  0  0  0  3  0  0  0  0  0  0
  -24.8900  -29.0100   20.2200 C   0  0  0  0  0  0  0  0  0  0  0  0
  -25.9740  -30.8720   21.4730 C   0  0  0  0  0  2  0  0  0  0  0  0
  -26.0620  -29.4950   20.8160 C   0  0  0  0  0  0  0  0  0  0  0  0
  -27.2470  -28.6910   20.8120 C   0  0  0  0  0  3  0  0  0  0  0  0
  -26.0520  -26.9610   19.6080 C   0  0  0  0  0  3  0  0  0  0  0  0
  -24.8870  -27.7490   19.6050 C   0  0  0  0  0  3  0  0  0  0  0  0
  -23.6510  -29.8800   20.2720 C   0  0  0  0  0  2  0  0  0  0  0  0
  -24.6980  -31.1460   22.1920 N   0  0  0  0  0  0  0  0  0  0  0  0
  -23.5430  -32.2290   23.8210 O   0  0  0  0  0  0  0  0  0  0  0  0
  -22.7690  -29.5370   22.6120 C   0  0  0  0  0  0  0  0  0  0  0  0
  -21.4470  -29.3520   22.4760 N   0  0  0  0  0  0  0  0  0  0  0  0
  -23.4460  -28.9220   23.4410 O   0  0  0  0  0  0  0  0  0  0  0  0
  -20.9630  -29.9000   21.7780 H   0  0  0  0  0  0  0  0  0  0  0  0
  -18.0750  -28.1320   22.9640 C   0  0  0  0  0  0  0  0  0  0  0  0
  -20.6280  -28.4120   23.2460 C   0  0  0  0  0  3  0  0  0  0  0  0
  -20.7440  -26.9820   22.6740 C   0  0  0  0  0  2  0  0  0  0  0  0
  -19.6510  -26.6430   21.6550 C   0  0  0  0  0  2  0  0  0  0  0  0
  -18.2660  -26.7820   22.2940 C   0  0  0  0  0  2  0  0  0  0  0  0
  -19.1860  -28.9040   23.3960 C   0  0  0  0  0  0  0  0  0  0  0  0
  -18.9580  -30.1650   23.9890 C   0  0  0  0  0  3  0  0  0  0  0  0
  -17.6500  -30.6630   24.1410 C   0  0  0  0  0  3  0  0  0  0  0  0
  -16.5530  -29.8880   23.7270 C   0  0  0  0  0  3  0  0  0  0  0  0
  -16.7660  -28.6230   23.1490 C   0  0  0  0  0  3  0  0  0  0  0  0
  -25.9070  -32.5980   23.9080 C   0  0  0  0  0  3  0  0  0  0  0  0
  -25.5930  -33.9950   24.2340 N   0  0  0  0  0  0  0  0  0  0  0  0
  -25.9300  -35.0470   23.4730 C   0  0  0  0  0  0  0  0  0  0  0  0
  -26.6080  -34.9380   22.4460 O   0  0  0  0  0  0  0  0  0  0  0  0
  -24.9930  -34.1490   25.0310 H   0  0  0  0  0  0  0  0  0  0  0  0
  -24.2030  -36.8340   23.1040 C   0  0  0  0  0  1  0  0  0  0  0  0
  -25.4420  -36.4370   23.9200 C   0  0  0  0  0  3  0  0  0  0  0  0
  -27.5780  -37.3200   24.7550 C   0  0  0  0  0  1  0  0  0  0  0  0
  -26.4800  -37.4870   23.8070 N   0  0  0  0  0  0  0  0  0  0  0  0
  -26.0770  -38.4100   23.9470 H   0  0  0  0  0  0  0  0  0  0  0  0
  -26.4210  -31.8340   25.1910 C   0  0  1  0  0  0  0  0  0  0  0  0
  -25.3200  -31.5970   26.2520 C   0  0  0  0  0  1  0  0  0  0  0  0
  -27.0100  -30.4570   24.8140 C   0  0  0  0  0  1  0  0  0  0  0  0
  -27.5750  -32.6300   25.8500 C   0  0  0  0  0  1  0  0  0  0  0  0
  1 50  1  0
  2  4  1  0
  3  2  1  0
  4 10  1  0
  5  4  1  0
  5  1  1  0
  6 48  1  0
  6  5  1  0
  7  3  1  0
  7  6  1  0
  8  7  1  0
  9  7  1  0
 10 17  2  0
 11 16  1  0
 12 13  1  0
 12 11  1  0
 14 13  1  0
 14 21  1  0
 14 15  1  0
 16 10  1  0
 16 15  1  0
 18 19  2  0
 19 20  1  0
 19 38  1  0
 20 23  1  0
 21 18  1  0
 21 22  1  0
 22 20  2  0
 23 24  1  0
 24 25  2  0
 26 29  1  0
 26 25  1  0
 27 26  2  0
 28 27  1  0
 28 23  2  0
 29 30  1  0
 30 31  1  0
 31 32  2  0
 33 32  1  0
 33 37  1  0
 34 33  2  0
 35 30  2  0
 35 34  1  0
 36 35  1  0
 38 39  1  0
 39 42  1  0
 39 41  1  0
 40 38  2  0
 43 44  1  0
 43 18  1  0
 45 43  1  0
 46 48  1  0
 47 48  1  0
 50 49  1  0
 51 50  1  0
 53 54  1  0
 53 51  1  0
 53 52  1  0
 55 56  1  0
 55 54  2  0
 57 68  2  0
 58 56  1  0
 58 63  1  0
 59 67  1  0
 59 69  1  0
 60 66  1  0
 60 62  1  0
 61 67  1  0
 62 61  1  0
 63 62  2  0
 64 58  2  0
 65 64  1  0
 65 60  2  0
 66 59  1  0
 67 57  1  0
 69 71  2  0
 70 69  1  0
 72 70  1  0
 73 82  2  0
 73 78  1  0
 74 70  1  0
 74 78  1  0
 75 74  1  0
 76 77  1  0
 76 75  1  0
 77 73  1  0
 78 79  2  0
 79 80  1  0
 81 80  2  0
 82 81  1  0
 83 57  1  0
 83 84  1  0
 83 93  1  0
 84 87  1  0
 85 89  1  0
 85 84  1  0
 86 85  2  0
 89 88  1  0
 91 89  1  0
 91 92  1  0
 91 90  1  0
 93 96  1  1
 93 94  1  0
 95 93  1  0
M  ISO  4   4 100  10 100  55 101  56 101
M  END
>  <TORSDO>  (63) 
F 23

>  <SCORE>  (63) 
-11.956

>  <name>  (63) 
63

>  <ligand_id>  (63) 
63

>  <original_smiles>  (63) 
[H]c1c([H])c([H])c2c(c1[H])C([H])([H])C([H])([H])C([H])([H])C2([H])N([H])C(=O)C1([H])N(C(=O)C([H])(N([H])C(=O)C([H])(N([H])C([H])([H])[H])C([H])([H])[H])C(C([H])([H])[H])(C([H])([H])[H])C([H])([H])[H])C([H])([H])c2c([H])c(OC([H])([H])C([H])([H])C([H])(C([H])([H])[H])C([H])([H])C([H])(C([H])([H])[H])C([H])([H])C3([H])C([H])(C(=O)N4C([H])([H])C([H])([H])C([H])([H])C([H])(n5nc(-c6c([H])c([H])c(Oc7c([H])c([H])c(F)c([H])c7F)c([H])c6[H])c(C(=O)N([H])[H])c5N([H])[H])C4([H])[H])C([H])([H])C([H])([H])[N+]([H])([H])C3([H])C([H])(C([H])([H])[H])C([H])([H])[H])c([H])c([H])c2C1([H])[H]

>  <smiles>  (63) 
[H]c1c([H])c([H])c2c(c1[H])C([H])([H])C([H])([H])C([H])([H])C2([H])N([H])C(=O)C1([H])N(C(=O)C([H])(N([H])C(=O)C([H])(N([H])C([H])([H])[H])C([H])([H])[H])C(C([H])([H])[H])(C([H])([H])[H])C([H])([H])[H])C([H])([H])c2c([H])c(OC([H])([H])C([H])([H])C([H])(C([H])([H])[H])C([H])([H])C([H])(C([H])([H])[H])C([H])([H])C3([H])C([H])(C(=O)N4C([H])([H])C([H])([H])C([H])([H])C([H])(n5nc(-c6c([H])c([H])c(Oc7c([H])c([H])c(F)c([H])c7F)c([H])c6[H])c(C(=O)N([H])[H])c5N([H])[H])C4([H])[H])C([H])([H])C([H])([H])[N+]([H])([H])C3([H])C([H])(C([H])([H])[H])C([H])([H])[H])c([H])c([H])c2C1([H])[H]

$$$$
64:0:0
     RDKit          3D

 90 98  0  0  1  0  0  0  0  0999 V2000
  -28.7840  -21.5050   20.0840 N   0  0  0  0  0  4  0  0  0  0  0  0
  -28.8180  -21.5200   19.0740 H   0  0  0  0  0  0  0  0  0  0  0  0
  -27.8030  -21.4170   20.2970 H   0  0  0  0  0  0  0  0  0  0  0  0
  -30.6870  -15.2310   19.8930 C   0  0  0  0  0  0  0  0  0  0  0  0
  -30.3950  -12.8760   18.9280 C   0  0  0  0  0  2  0  0  0  0  0  0
  -29.3770  -12.7340   17.7730 C   0  0  0  0  0  2  0  0  0  0  0  0
  -27.9790  -12.4580   18.3340 C   0  0  0  0  0  2  0  0  0  0  0  0
  -27.6220  -13.4050   19.5040 C   0  0  0  0  0  3  0  0  0  0  0  0
  -28.7630  -13.5790   20.5360 C   0  0  0  0  0  2  0  0  0  0  0  0
  -29.9630  -14.0190   19.8070 N   0  0  0  0  0  0  0  0  0  0  0  0
  -31.8790  -15.1000   19.5920 O   0  0  0  0  0  0  0  0  0  0  0  0
  -30.6690  -19.4000   19.9060 C   0  0  0  0  0  2  0  0  0  0  0  0
  -28.4500  -18.7710   20.1240 C   0  0  0  0  0  2  0  0  0  0  0  0
  -31.1120  -17.8310   20.1870 C   0  0  0  0  0  2  0  0  0  0  0  0
  -28.8310  -17.1850   20.4150 C   0  0  0  0  0  2  0  0  0  0  0  0
  -29.3550  -20.0450   20.5630 C   0  0  2  0  0  0  0  0  0  0  0  0
  -29.5370  -20.0780   22.0960 C   0  0  0  0  0  1  0  0  0  0  0  0
  -30.1860  -16.6040   20.0780 N   0  0  0  0  0  0  0  0  0  0  0  0
  -25.3200  -13.9290   20.4710 C   0  0  0  0  0  0  0  0  0  0  0  0
  -24.2900  -13.1390   20.8890 C   0  0  0  0  0  0  0  0  0  0  0  0
  -24.7460  -11.7890   20.7610 C   0  0  0  0  0  0  0  0  0  0  0  0
  -26.3400  -13.0660   20.1150 N   0  0  0  0  0  0  0  0  0  0  0  0
  -26.0140  -11.7700   20.3610 N   0  0  0  0  0  0  0  0  0  0  0  0
  -24.0330  -10.5180   20.9560 C   0  0  0  0  0  0  0  0  0  0  0  0
  -24.4890   -9.5420   21.8720 C   0  0  0  0  0  3  0  0  0  0  0  0
  -23.7660   -8.3440   22.0590 C   0  0  0  0  0  3  0  0  0  0  0  0
  -22.5770   -8.1050   21.3290 C   0  0  0  0  0  0  0  0  0  0  0  0
  -22.1410   -9.0710   20.4050 C   0  0  0  0  0  3  0  0  0  0  0  0
  -22.8620  -10.2610   20.2130 C   0  0  0  0  0  3  0  0  0  0  0  0
  -21.8320   -6.9530   21.4230 O   0  0  0  0  0  0  0  0  0  0  0  0
  -21.7550   -6.2420   22.5930 C   0  0  0  0  0  0  0  0  0  0  0  0
  -21.2640   -6.8210   23.7840 C   0  0  0  0  0  3  0  0  0  0  0  0
  -21.1300   -6.0370   24.9470 C   0  0  0  0  0  3  0  0  0  0  0  0
  -21.4810   -4.6730   24.9230 C   0  0  0  0  0  0  0  0  0  0  0  0
  -21.9710   -4.0940   23.7390 C   0  0  0  0  0  3  0  0  0  0  0  0
  -22.1060   -4.8760   22.5770 C   0  0  0  0  0  0  0  0  0  0  0  0
  -22.5550   -4.3070   21.4330 F   0  0  0  0  0  0  0  0  0  0  0  0
  -21.3520   -3.9180   26.0390 F   0  0  0  0  0  0  0  0  0  0  0  0
  -22.9170  -13.6020   21.2760 C   0  0  0  0  0  0  0  0  0  0  0  0
  -22.2520  -12.8680   22.1580 N   0  0  0  0  0  0  0  0  0  0  0  0
  -22.4450  -14.6490   20.8300 O   0  0  0  0  0  0  0  0  0  0  0  0
  -22.6540  -12.0260   22.5410 H   0  0  0  0  0  0  0  0  0  0  0  0
  -21.3310  -13.1520   22.4590 H   0  0  0  0  0  0  0  0  0  0  0  0
  -25.4640  -15.3090   20.3390 N   0  0  0  0  0  0  0  0  0  0  0  0
  -24.7060  -15.9470   20.5620 H   0  0  0  0  0  0  0  0  0  0  0  0
  -26.2900  -15.7750   19.9870 H   0  0  0  0  0  0  0  0  0  0  0  0
  -29.0660  -23.0380   20.5770 C   0  0  0  0  0  2  0  0  0  0  0  0
  -26.8170  -23.9120   19.4900 C   0  0  0  0  0  1  0  0  0  0  0  0
  -27.9630  -24.3910   20.4050 C   0  0  0  0  0  3  0  0  0  0  0  0
  -28.2130  -26.0030   20.3110 O   0  0  0  0  0  0  0  0  0  0  0  0
  -24.6410  -31.9220   23.1970 C   0  0  0  0  0  0  0  0  0  0  0  0
  -27.1960  -27.0710   20.2350 C   0  0  0  0  0  0  0  0  0  0  0  0
  -23.4460  -30.5080   21.5720 C   0  0  0  0  0  3  0  0  0  0  0  0
  -24.9030  -28.9220   20.1560 C   0  0  0  0  0  0  0  0  0  0  0  0
  -26.0040  -30.7390   21.4260 C   0  0  0  0  0  2  0  0  0  0  0  0
  -26.0790  -29.3270   20.8000 C   0  0  0  0  0  0  0  0  0  0  0  0
  -27.2120  -28.4120   20.8430 C   0  0  0  0  0  3  0  0  0  0  0  0
  -26.0290  -26.8630   19.4610 C   0  0  0  0  0  3  0  0  0  0  0  0
  -24.9000  -27.7100   19.4640 C   0  0  0  0  0  3  0  0  0  0  0  0
  -23.6820  -29.8340   20.1950 C   0  0  0  0  0  2  0  0  0  0  0  0
  -24.7170  -31.0800   22.1200 N   0  0  0  0  0  0  0  0  0  0  0  0
  -23.5550  -32.2120   23.7210 O   0  0  0  0  0  0  0  0  0  0  0  0
  -22.7700  -29.5020   22.5410 C   0  0  0  0  0  0  0  0  0  0  0  0
  -21.4440  -29.3210   22.4070 N   0  0  0  0  0  0  0  0  0  0  0  0
  -23.4380  -28.8950   23.3810 O   0  0  0  0  0  0  0  0  0  0  0  0
  -20.9500  -29.8770   21.7240 H   0  0  0  0  0  0  0  0  0  0  0  0
  -18.0800  -28.0480   22.8880 C   0  0  0  0  0  0  0  0  0  0  0  0
  -20.6250  -28.3860   23.1860 C   0  0  0  0  0  3  0  0  0  0  0  0
  -20.7660  -26.9420   22.6560 C   0  0  0  0  0  2  0  0  0  0  0  0
  -19.6890  -26.5590   21.6330 C   0  0  0  0  0  2  0  0  0  0  0  0
  -18.2970  -26.6860   22.2520 C   0  0  0  0  0  2  0  0  0  0  0  0
  -19.1700  -28.8510   23.3160 C   0  0  0  0  0  0  0  0  0  0  0  0
  -18.9040  -30.1190   23.8830 C   0  0  0  0  0  3  0  0  0  0  0  0
  -17.5800  -30.5810   24.0240 C   0  0  0  0  0  3  0  0  0  0  0  0
  -16.5070  -29.7760   23.6060 C   0  0  0  0  0  3  0  0  0  0  0  0
  -16.7580  -28.5130   23.0410 C   0  0  0  0  0  3  0  0  0  0  0  0
  -25.9180  -32.5750   23.8080 C   0  0  0  0  0  3  0  0  0  0  0  0
  -25.5960  -33.9710   24.1590 N   0  0  0  0  0  0  0  0  0  0  0  0
  -25.9100  -35.0370   23.4090 C   0  0  0  0  0  0  0  0  0  0  0  0
  -26.5680  -34.9500   22.3690 O   0  0  0  0  0  0  0  0  0  0  0  0
  -25.0240  -34.1170   24.9800 H   0  0  0  0  0  0  0  0  0  0  0  0
  -24.1560  -36.8140   23.1050 C   0  0  0  0  0  1  0  0  0  0  0  0
  -25.4160  -36.4140   23.8890 C   0  0  0  0  0  3  0  0  0  0  0  0
  -27.5530  -37.3240   24.6900 C   0  0  0  0  0  1  0  0  0  0  0  0
  -26.4330  -37.4790   23.7660 N   0  0  0  0  0  0  0  0  0  0  0  0
  -26.0130  -38.3930   23.9230 H   0  0  0  0  0  0  0  0  0  0  0  0
  -26.4630  -31.8000   25.0720 C   0  0  1  0  0  0  0  0  0  0  0  0
  -25.3820  -31.5420   26.1440 C   0  0  0  0  0  1  0  0  0  0  0  0
  -27.0600  -30.4290   24.6820 C   0  0  0  0  0  1  0  0  0  0  0  0
  -27.6120  -32.6030   25.7250 C   0  0  0  0  0  1  0  0  0  0  0  0
  1  3  1  0
  1 16  1  0
  1 47  1  0
  2  1  1  0
  4 18  1  0
  5 10  1  0
  6  7  1  0
  6  5  1  0
  8  7  1  0
  8 22  1  0
  8  9  1  0
 10  4  1  0
 10  9  1  0
 11  4  2  0
 12 14  1  0
 12 16  1  0
 13 15  1  0
 13 16  1  0
 16 17  1  1
 18 14  1  0
 18 15  1  0
 19 20  2  0
 20 39  1  0
 21 20  1  0
 21 24  1  0
 22 23  1  0
 22 19  1  0
 23 21  2  0
 24 25  1  0
 25 26  2  0
 27 30  1  0
 27 26  1  0
 28 27  2  0
 29 28  1  0
 29 24  2  0
 30 31  1  0
 31 32  1  0
 32 33  2  0
 34 33  1  0
 34 38  1  0
 35 34  2  0
 36 31  2  0
 36 35  1  0
 37 36  1  0
 39 40  1  0
 40 43  1  0
 40 42  1  0
 41 39  2  0
 44 19  1  0
 44 45  1  0
 46 44  1  0
 49 48  1  0
 49 47  1  0
 50 49  1  0
 51 62  2  0
 52 50  1  0
 52 57  1  0
 53 61  1  0
 53 63  1  0
 54 60  1  0
 54 56  1  0
 55 61  1  0
 56 57  2  0
 56 55  1  0
 58 59  1  0
 58 52  2  0
 59 54  2  0
 60 53  1  0
 61 51  1  0
 63 65  2  0
 64 63  1  0
 66 64  1  0
 67 76  2  0
 67 72  1  0
 68 64  1  0
 68 72  1  0
 69 68  1  0
 70 71  1  0
 70 69  1  0
 71 67  1  0
 72 73  2  0
 73 74  1  0
 75 74  2  0
 76 75  1  0
 77 51  1  0
 77 78  1  0
 77 87  1  0
 78 81  1  0
 79 83  1  0
 79 78  1  0
 80 79  2  0
 83 82  1  0
 85 83  1  0
 85 86  1  0
 85 84  1  0
 87 90  1  1
 87 88  1  0
 89 87  1  0
M  ISO  4   4 100  18 100  49 101  50 101
M  END
>  <TORSDO>  (64) 
F 18

>  <SCORE>  (64) 
-14.562

>  <name>  (64) 
64

>  <ligand_id>  (64) 
64

>  <original_smiles>  (64) 
[H]c1c([H])c([H])c2c(c1[H])C([H])([H])C([H])([H])C([H])([H])C2([H])N([H])C(=O)C1([H])N(C(=O)C([H])(N([H])C(=O)C([H])(N([H])C([H])([H])[H])C([H])([H])[H])C(C([H])([H])[H])(C([H])([H])[H])C([H])([H])[H])C([H])([H])c2c([H])c(OC([H])(C([H])([H])[H])C([H])([H])[N+]([H])([H])C3(C([H])([H])[H])C([H])([H])C([H])([H])N(C(=O)N4C([H])([H])C([H])([H])C([H])([H])C([H])(n5nc(-c6c([H])c([H])c(Oc7c([H])c([H])c(F)c([H])c7F)c([H])c6[H])c(C(=O)N([H])[H])c5N([H])[H])C4([H])[H])C([H])([H])C3([H])[H])c([H])c([H])c2C1([H])[H]

>  <smiles>  (64) 
[H]c1c([H])c([H])c2c(c1[H])C([H])([H])C([H])([H])C([H])([H])C2([H])N([H])C(=O)C1([H])N(C(=O)C([H])(N([H])C(=O)C([H])(N([H])C([H])([H])[H])C([H])([H])[H])C(C([H])([H])[H])(C([H])([H])[H])C([H])([H])[H])C([H])([H])c2c([H])c(OC([H])(C([H])([H])[H])C([H])([H])[N+]([H])([H])C3(C([H])([H])[H])C([H])([H])C([H])([H])N(C(=O)N4C([H])([H])C([H])([H])C([H])([H])C([H])(n5nc(-c6c([H])c([H])c(Oc7c([H])c([H])c(F)c([H])c7F)c([H])c6[H])c(C(=O)N([H])[H])c5N([H])[H])C4([H])[H])C([H])([H])C3([H])[H])c([H])c([H])c2C1([H])[H]

$$$$
65:0:0
     RDKit          3D

 94102  0  0  1  0  0  0  0  0999 V2000
  -28.3220  -18.8110   19.8970 C   0  0  0  0  0  2  0  0  0  0  0  0
  -29.8510  -20.3260   20.8590 C   0  0  0  0  0  2  0  0  0  0  0  0
  -29.7600  -18.7790   20.4400 C   0  0  0  0  0  3  0  0  0  0  0  0
  -28.1350  -20.1920   19.1730 C   0  0  0  0  0  3  0  0  0  0  0  0
  -29.1450  -21.1210   19.7810 N   0  0  1  0  0  4  0  0  0  0  0  0
  -29.8520  -20.8750   19.1060 H   0  0  0  0  0  0  0  0  0  0  0  0
  -28.6760  -23.8000   20.1600 C   0  0  0  0  0  0  0  0  0  0  0  0
  -29.2080  -22.6830   19.5150 C   0  0  0  0  0  0  0  0  0  0  0  0
  -27.9190  -23.7000   21.4710 C   0  0  0  0  0  1  0  0  0  0  0  0
  -30.0130  -22.8300   18.2290 C   0  0  0  0  0  1  0  0  0  0  0  0
  -28.8040  -25.2820   19.5700 C   0  0  0  0  0  2  0  0  0  0  0  0
  -28.5790  -26.5200   20.3910 O   0  0  0  0  0  0  0  0  0  0  0  0
  -24.5400  -31.8330   23.2390 C   0  0  0  0  0  0  0  0  0  0  0  0
  -27.4460  -27.3590   20.2630 C   0  0  0  0  0  0  0  0  0  0  0  0
  -23.4790  -30.4450   21.4960 C   0  0  0  0  0  3  0  0  0  0  0  0
  -25.0530  -28.9530   20.1360 C   0  0  0  0  0  0  0  0  0  0  0  0
  -26.0210  -30.8110   21.4870 C   0  0  0  0  0  2  0  0  0  0  0  0
  -26.1730  -29.4450   20.8170 C   0  0  0  0  0  0  0  0  0  0  0  0
  -27.3670  -28.6590   20.8700 C   0  0  0  0  0  3  0  0  0  0  0  0
  -26.2880  -26.9210   19.5780 C   0  0  0  0  0  3  0  0  0  0  0  0
  -25.1150  -27.6990   19.5120 C   0  0  0  0  0  3  0  0  0  0  0  0
  -23.7990  -29.8080   20.1180 C   0  0  0  0  0  2  0  0  0  0  0  0
  -24.6950  -31.0480   22.1310 N   0  0  0  0  0  0  0  0  0  0  0  0
  -23.4180  -32.0750   23.7060 O   0  0  0  0  0  0  0  0  0  0  0  0
  -22.7790  -29.3930   22.3900 C   0  0  0  0  0  0  0  0  0  0  0  0
  -21.4510  -29.2480   22.2340 N   0  0  0  0  0  0  0  0  0  0  0  0
  -23.4300  -28.7130   23.1870 O   0  0  0  0  0  0  0  0  0  0  0  0
  -20.9850  -29.8530   21.5700 H   0  0  0  0  0  0  0  0  0  0  0  0
  -18.0340  -28.1500   22.6760 C   0  0  0  0  0  0  0  0  0  0  0  0
  -20.6020  -28.2900   22.9420 C   0  0  0  0  0  3  0  0  0  0  0  0
  -20.6450  -26.9000   22.2650 C   0  0  0  0  0  2  0  0  0  0  0  0
  -19.5270  -26.6970   21.2370 C   0  0  0  0  0  2  0  0  0  0  0  0
  -18.1550  -26.8490   21.9010 C   0  0  0  0  0  2  0  0  0  0  0  0
  -19.1840  -28.8340   23.1510 C   0  0  0  0  0  0  0  0  0  0  0  0
  -19.0170  -30.0570   23.8370 C   0  0  0  0  0  3  0  0  0  0  0  0
  -17.7330  -30.5930   24.0530 C   0  0  0  0  0  3  0  0  0  0  0  0
  -16.5970  -29.9030   23.5940 C   0  0  0  0  0  3  0  0  0  0  0  0
  -16.7490  -28.6820   22.9120 C   0  0  0  0  0  3  0  0  0  0  0  0
  -25.7620  -32.4850   23.9550 C   0  0  0  0  0  3  0  0  0  0  0  0
  -26.1770  -31.7320   25.2790 C   0  0  1  0  0  0  0  0  0  0  0  0
  -25.0030  -31.5110   26.2620 C   0  0  0  0  0  1  0  0  0  0  0  0
  -26.7900  -30.3530   24.9520 C   0  0  0  0  0  1  0  0  0  0  0  0
  -27.2740  -32.5350   26.0170 C   0  0  0  0  0  1  0  0  0  0  0  0
  -25.4140  -33.8830   24.2520 N   0  0  0  0  0  0  0  0  0  0  0  0
  -25.8110  -34.9350   23.5260 C   0  0  0  0  0  0  0  0  0  0  0  0
  -26.5770  -34.8320   22.5630 O   0  0  0  0  0  0  0  0  0  0  0  0
  -24.7540  -34.0350   24.9980 H   0  0  0  0  0  0  0  0  0  0  0  0
  -24.1140  -36.7130   23.0000 C   0  0  0  0  0  1  0  0  0  0  0  0
  -25.2750  -36.3220   23.9290 C   0  0  0  0  0  3  0  0  0  0  0  0
  -27.3160  -37.2240   24.9520 C   0  0  0  0  0  1  0  0  0  0  0  0
  -26.3050  -37.3830   23.9090 N   0  0  0  0  0  0  0  0  0  0  0  0
  -25.8820  -38.3010   24.0190 H   0  0  0  0  0  0  0  0  0  0  0  0
  -26.5090  -21.9730   18.2470 C   0  0  0  0  0  1  0  0  0  0  0  0
  -25.6910  -19.6420   18.5080 C   0  0  0  0  0  1  0  0  0  0  0  0
  -26.6560  -20.6950   19.1020 C   0  0  0  0  0  3  0  0  0  0  0  0
  -30.1370  -17.5810   21.4730 C   0  0  0  0  0  2  0  0  0  0  0  0
  -30.5560  -15.0160   20.9790 C   0  0  0  0  0  0  0  0  0  0  0  0
  -30.4690  -12.8060   19.8150 C   0  0  0  0  0  2  0  0  0  0  0  0
  -29.5930  -12.9220   18.5490 C   0  0  0  0  0  2  0  0  0  0  0  0
  -28.1080  -12.6890   18.8910 C   0  0  0  0  0  2  0  0  0  0  0  0
  -27.6450  -13.4970   20.1330 C   0  0  0  0  0  3  0  0  0  0  0  0
  -28.6450  -13.3710   21.3020 C   0  0  0  0  0  2  0  0  0  0  0  0
  -29.9590  -13.7880   20.7970 N   0  0  0  0  0  0  0  0  0  0  0  0
  -31.7610  -15.1530   20.7570 O   0  0  0  0  0  0  0  0  0  0  0  0
  -29.7480  -16.1210   21.2070 N   0  0  0  0  0  0  0  0  0  0  0  0
  -28.7650  -15.9120   21.2990 H   0  0  0  0  0  0  0  0  0  0  0  0
  -25.1970  -13.9830   20.7260 C   0  0  0  0  0  0  0  0  0  0  0  0
  -24.1410  -13.1610   21.0100 C   0  0  0  0  0  0  0  0  0  0  0  0
  -24.6540  -11.8290   20.9760 C   0  0  0  0  0  0  0  0  0  0  0  0
  -26.2860  -13.1480   20.5350 N   0  0  0  0  0  0  0  0  0  0  0  0
  -25.9630  -11.8470   20.7500 N   0  0  0  0  0  0  0  0  0  0  0  0
  -23.9660  -10.5360   21.0870 C   0  0  0  0  0  0  0  0  0  0  0  0
  -24.3910   -9.5470   22.0020 C   0  0  0  0  0  3  0  0  0  0  0  0
  -23.7000   -8.3200   22.1030 C   0  0  0  0  0  3  0  0  0  0  0  0
  -22.5690   -8.0740   21.2880 C   0  0  0  0  0  0  0  0  0  0  0  0
  -22.1630   -9.0520   20.3640 C   0  0  0  0  0  3  0  0  0  0  0  0
  -22.8560  -10.2710   20.2600 C   0  0  0  0  0  3  0  0  0  0  0  0
  -21.8510   -6.9030   21.3000 O   0  0  0  0  0  0  0  0  0  0  0  0
  -21.7960   -6.1030   22.4140 C   0  0  0  0  0  0  0  0  0  0  0  0
  -21.3170   -6.5840   23.6530 C   0  0  0  0  0  3  0  0  0  0  0  0
  -21.2120   -5.7110   24.7540 C   0  0  0  0  0  3  0  0  0  0  0  0
  -21.5750   -4.3580   24.6180 C   0  0  0  0  0  0  0  0  0  0  0  0
  -22.0460   -3.8750   23.3840 C   0  0  0  0  0  3  0  0  0  0  0  0
  -22.1530   -4.7450   22.2850 C   0  0  0  0  0  0  0  0  0  0  0  0
  -22.5880   -4.2720   21.0920 F   0  0  0  0  0  0  0  0  0  0  0  0
  -21.4670   -3.5170   25.6740 F   0  0  0  0  0  0  0  0  0  0  0  0
  -22.7120  -13.5810   21.2000 C   0  0  0  0  0  0  0  0  0  0  0  0
  -21.9590  -12.8450   22.0120 N   0  0  0  0  0  0  0  0  0  0  0  0
  -22.2670  -14.5960   20.6650 O   0  0  0  0  0  0  0  0  0  0  0  0
  -22.3300  -12.0210   22.4650 H   0  0  0  0  0  0  0  0  0  0  0  0
  -20.9990  -13.1060   22.1810 H   0  0  0  0  0  0  0  0  0  0  0  0
  -25.3220  -15.3630   20.5880 N   0  0  0  0  0  0  0  0  0  0  0  0
  -24.5240  -15.9850   20.6540 H   0  0  0  0  0  0  0  0  0  0  0  0
  -26.1620  -15.8280   20.2730 H   0  0  0  0  0  0  0  0  0  0  0  0
  1  3  1  0
  3  2  1  0
  3 56  1  0
  4 55  1  0
  4  5  1  0
  4  1  1  0
  5  2  1  0
  5  6  1  6
  7  9  1  0
  8  5  1  0
  8  7  2  0
 10  8  1  0
 11  7  1  0
 11 12  1  0
 13 24  2  0
 14 12  1  0
 14 19  1  0
 15 23  1  0
 15 25  1  0
 16 18  1  0
 17 23  1  0
 18 19  2  0
 18 17  1  0
 20 14  2  0
 21 20  1  0
 21 16  2  0
 22 16  1  0
 22 15  1  0
 23 13  1  0
 25 27  2  0
 26 25  1  0
 28 26  1  0
 29 38  2  0
 29 34  1  0
 30 26  1  0
 30 34  1  0
 31 30  1  0
 32 33  1  0
 32 31  1  0
 33 29  1  0
 34 35  2  0
 35 36  1  0
 37 36  2  0
 38 37  1  0
 39 13  1  0
 39 44  1  0
 39 40  1  0
 40 43  1  1
 40 41  1  0
 42 40  1  0
 44 47  1  0
 45 49  1  0
 45 44  1  0
 46 45  2  0
 49 48  1  0
 51 49  1  0
 51 52  1  0
 51 50  1  0
 53 55  1  0
 54 55  1  0
 57 65  1  0
 58 63  1  0
 59 60  1  0
 59 58  1  0
 61 60  1  0
 61 70  1  0
 61 62  1  0
 63 57  1  0
 63 62  1  0
 64 57  2  0
 65 66  1  0
 65 56  1  0
 67 68  2  0
 68 87  1  0
 69 68  1  0
 69 72  1  0
 70 67  1  0
 70 71  1  0
 71 69  2  0
 72 73  1  0
 73 74  2  0
 75 78  1  0
 75 74  1  0
 76 75  2  0
 77 76  1  0
 77 72  2  0
 78 79  1  0
 79 80  1  0
 80 81  2  0
 82 81  1  0
 82 86  1  0
 83 82  2  0
 84 79  2  0
 84 83  1  0
 85 84  1  0
 87 88  1  0
 88 91  1  0
 88 90  1  0
 89 87  2  0
 92 93  1  0
 92 67  1  0
 94 92  1  0
M  ISO  4  11 101  12 101  57 100  65 100
M  END
>  <TORSDO>  (65) 
F 20

>  <SCORE>  (65) 
-13.389

>  <name>  (65) 
65

>  <ligand_id>  (65) 
65

>  <original_smiles>  (65) 
[H]c1c([H])c([H])c2c(c1[H])C([H])([H])C([H])([H])C([H])([H])C2([H])N([H])C(=O)C1([H])N(C(=O)C([H])(N([H])C(=O)C([H])(N([H])C([H])([H])[H])C([H])([H])[H])C(C([H])([H])[H])(C([H])([H])[H])C([H])([H])[H])C([H])([H])c2c([H])c(OC([H])([H])C(=C(C([H])([H])[H])[N+]3([H])C([H])([H])C([H])(C([H])([H])N([H])C(=O)N4C([H])([H])C([H])([H])C([H])([H])C([H])(n5nc(-c6c([H])c([H])c(Oc7c([H])c([H])c(F)c([H])c7F)c([H])c6[H])c(C(=O)N([H])[H])c5N([H])[H])C4([H])[H])C([H])([H])C3([H])C([H])(C([H])([H])[H])C([H])([H])[H])C([H])([H])[H])c([H])c([H])c2C1([H])[H]

>  <smiles>  (65) 
[H]c1c([H])c([H])c2c(c1[H])C([H])([H])C([H])([H])C([H])([H])C2([H])N([H])C(=O)C1([H])N(C(=O)C([H])(N([H])C(=O)C([H])(N([H])C([H])([H])[H])C([H])([H])[H])C(C([H])([H])[H])(C([H])([H])[H])C([H])([H])[H])C([H])([H])c2c([H])c(OC([H])([H])C(=C(C([H])([H])[H])[N+]3([H])C([H])([H])C([H])(C([H])([H])N([H])C(=O)N4C([H])([H])C([H])([H])C([H])([H])C([H])(n5nc(-c6c([H])c([H])c(Oc7c([H])c([H])c(F)c([H])c7F)c([H])c6[H])c(C(=O)N([H])[H])c5N([H])[H])C4([H])[H])C([H])([H])C3([H])C([H])(C([H])([H])[H])C([H])([H])[H])C([H])([H])[H])c([H])c([H])c2C1([H])[H]

$$$$
66:0:0
     RDKit          3D

 94102  0  0  1  0  0  0  0  0999 V2000
  -30.1620  -20.8500   17.9520 C   0  0  0  0  0  2  0  0  0  0  0  0
  -30.7980  -21.3570   19.0060 C   0  0  0  0  0  3  0  0  0  0  0  0
  -28.9710  -20.0370   18.3940 C   0  0  0  0  0  2  0  0  0  0  0  0
  -30.0160  -21.0310   20.2660 C   0  0  0  0  0  3  0  0  0  0  0  0
  -29.3140  -19.7260   19.8220 N   0  0  2  0  0  4  0  0  0  0  0  0
  -28.4540  -19.6240   20.3390 H   0  0  0  0  0  0  0  0  0  0  0  0
  -33.2670  -21.2540   19.5750 C   0  0  0  0  0  1  0  0  0  0  0  0
  -32.5150  -22.6930   17.6500 C   0  0  0  0  0  1  0  0  0  0  0  0
  -32.1230  -22.1260   19.0280 C   0  0  0  0  0  3  0  0  0  0  0  0
  -28.5390  -22.0910   22.0890 C   0  0  0  0  0  1  0  0  0  0  0  0
  -28.9910  -22.2680   20.6260 C   0  0  0  0  0  3  0  0  0  0  0  0
  -29.3280  -23.8410   20.3370 C   0  0  0  0  0  3  0  0  0  0  0  0
  -28.1230  -24.9290   20.3200 C   0  0  0  0  0  3  0  0  0  0  0  0
  -28.3410  -26.4120   20.1770 O   0  0  0  0  0  0  0  0  0  0  0  0
  -24.6370  -31.8650   23.2230 C   0  0  0  0  0  0  0  0  0  0  0  0
  -27.2210  -27.2820   20.1460 C   0  0  0  0  0  0  0  0  0  0  0  0
  -23.4130  -30.4750   21.5970 C   0  0  0  0  0  3  0  0  0  0  0  0
  -24.8480  -28.9170   20.1540 C   0  0  0  0  0  0  0  0  0  0  0  0
  -25.9530  -30.7820   21.3830 C   0  0  0  0  0  2  0  0  0  0  0  0
  -26.0260  -29.4000   20.7380 C   0  0  0  0  0  0  0  0  0  0  0  0
  -27.2130  -28.5970   20.7200 C   0  0  0  0  0  3  0  0  0  0  0  0
  -26.0140  -26.8660   19.5320 C   0  0  0  0  0  3  0  0  0  0  0  0
  -24.8470  -27.6560   19.5390 C   0  0  0  0  0  3  0  0  0  0  0  0
  -23.6120  -29.7970   20.2150 C   0  0  0  0  0  2  0  0  0  0  0  0
  -24.6880  -31.0580   22.1250 N   0  0  0  0  0  0  0  0  0  0  0  0
  -23.5600  -32.1420   23.7740 O   0  0  0  0  0  0  0  0  0  0  0  0
  -22.7560  -29.4590   22.5630 C   0  0  0  0  0  0  0  0  0  0  0  0
  -21.4290  -29.2790   22.4480 N   0  0  0  0  0  0  0  0  0  0  0  0
  -23.4430  -28.8330   23.3750 O   0  0  0  0  0  0  0  0  0  0  0  0
  -20.9320  -29.8330   21.7650 H   0  0  0  0  0  0  0  0  0  0  0  0
  -18.0620  -28.0640   22.9650 C   0  0  0  0  0  0  0  0  0  0  0  0
  -20.6190  -28.3420   23.2280 C   0  0  0  0  0  3  0  0  0  0  0  0
  -20.7300  -26.9070   22.6620 C   0  0  0  0  0  2  0  0  0  0  0  0
  -19.6280  -26.5690   21.6540 C   0  0  0  0  0  2  0  0  0  0  0  0
  -18.2460  -26.7110   22.2990 C   0  0  0  0  0  2  0  0  0  0  0  0
  -19.1760  -28.8370   23.3880 C   0  0  0  0  0  0  0  0  0  0  0  0
  -18.9490  -30.1040   23.9690 C   0  0  0  0  0  3  0  0  0  0  0  0
  -17.6410  -30.5960   24.1360 C   0  0  0  0  0  3  0  0  0  0  0  0
  -16.5410  -29.8200   23.7290 C   0  0  0  0  0  3  0  0  0  0  0  0
  -16.7520  -28.5570   23.1480 C   0  0  0  0  0  3  0  0  0  0  0  0
  -25.9270  -32.4980   23.8290 C   0  0  0  0  0  3  0  0  0  0  0  0
  -25.6180  -33.8930   24.1750 N   0  0  0  0  0  0  0  0  0  0  0  0
  -25.9330  -34.9550   23.4220 C   0  0  0  0  0  0  0  0  0  0  0  0
  -26.5820  -34.8640   22.3770 O   0  0  0  0  0  0  0  0  0  0  0  0
  -25.0380  -34.0350   24.9890 H   0  0  0  0  0  0  0  0  0  0  0  0
  -24.1870  -36.7430   23.1280 C   0  0  0  0  0  1  0  0  0  0  0  0
  -25.4500  -36.3380   23.9040 C   0  0  0  0  0  3  0  0  0  0  0  0
  -27.6030  -37.2240   24.6840 C   0  0  0  0  0  1  0  0  0  0  0  0
  -26.4750  -37.3970   23.7730 N   0  0  0  0  0  0  0  0  0  0  0  0
  -26.0690  -38.3140   23.9400 H   0  0  0  0  0  0  0  0  0  0  0  0
  -26.4620  -31.7180   25.0910 C   0  0  1  0  0  0  0  0  0  0  0  0
  -25.3860  -31.4740   26.1750 C   0  0  0  0  0  1  0  0  0  0  0  0
  -27.0380  -30.3430   24.6810 C   0  0  0  0  0  1  0  0  0  0  0  0
  -27.6240  -32.5060   25.7410 C   0  0  0  0  0  1  0  0  0  0  0  0
  -30.0180  -18.3340   19.8230 C   0  0  0  0  0  2  0  0  0  0  0  0
  -29.9610  -17.3020   21.0450 C   0  0  0  0  0  2  0  0  0  0  0  0
  -30.5880  -14.7260   20.4720 C   0  0  0  0  0  0  0  0  0  0  0  0
  -30.3990  -12.4760   19.3860 C   0  0  0  0  0  2  0  0  0  0  0  0
  -29.4540  -12.5610   18.1670 C   0  0  0  0  0  2  0  0  0  0  0  0
  -27.9800  -12.3950   18.5900 C   0  0  0  0  0  2  0  0  0  0  0  0
  -27.6110  -13.2720   19.8150 C   0  0  0  0  0  3  0  0  0  0  0  0
  -28.6660  -13.1370   20.9360 C   0  0  0  0  0  2  0  0  0  0  0  0
  -29.9690  -13.5020   20.3600 N   0  0  0  0  0  0  0  0  0  0  0  0
  -31.7700  -14.8690   20.1510 O   0  0  0  0  0  0  0  0  0  0  0  0
  -29.7760  -15.8020   20.7700 N   0  0  0  0  0  0  0  0  0  0  0  0
  -28.8240  -15.5010   20.9220 H   0  0  0  0  0  0  0  0  0  0  0  0
  -25.2150  -13.8920   20.5150 C   0  0  0  0  0  0  0  0  0  0  0  0
  -24.1410  -13.1300   20.8800 C   0  0  0  0  0  0  0  0  0  0  0  0
  -24.5950  -11.7750   20.8660 C   0  0  0  0  0  0  0  0  0  0  0  0
  -26.2570  -13.0030   20.2950 N   0  0  0  0  0  0  0  0  0  0  0  0
  -25.8880  -11.7260   20.5710 N   0  0  0  0  0  0  0  0  0  0  0  0
  -23.8550  -10.5200   21.0580 C   0  0  0  0  0  0  0  0  0  0  0  0
  -24.2810   -9.5470   21.9880 C   0  0  0  0  0  3  0  0  0  0  0  0
  -23.5420   -8.3580   22.1700 C   0  0  0  0  0  3  0  0  0  0  0  0
  -22.3630   -8.1330   21.4210 C   0  0  0  0  0  0  0  0  0  0  0  0
  -21.9560   -9.0930   20.4780 C   0  0  0  0  0  3  0  0  0  0  0  0
  -22.6950  -10.2730   20.2930 C   0  0  0  0  0  3  0  0  0  0  0  0
  -21.5990   -6.9950   21.5120 O   0  0  0  0  0  0  0  0  0  0  0  0
  -21.5610   -6.2420   22.6570 C   0  0  0  0  0  0  0  0  0  0  0  0
  -21.1780   -6.7950   23.8970 C   0  0  0  0  0  3  0  0  0  0  0  0
  -21.0810   -5.9710   25.0360 C   0  0  0  0  0  3  0  0  0  0  0  0
  -21.3640   -4.5940   24.9370 C   0  0  0  0  0  0  0  0  0  0  0  0
  -21.7450   -4.0420   23.7010 C   0  0  0  0  0  3  0  0  0  0  0  0
  -21.8400   -4.8620   22.5640 C   0  0  0  0  0  0  0  0  0  0  0  0
  -22.1850   -4.3210   21.3710 F   0  0  0  0  0  0  0  0  0  0  0  0
  -21.2650   -3.8010   26.0290 F   0  0  0  0  0  0  0  0  0  0  0  0
  -22.7430  -13.6180   21.1230 C   0  0  0  0  0  0  0  0  0  0  0  0
  -21.9950  -12.9430   21.9890 N   0  0  0  0  0  0  0  0  0  0  0  0
  -22.3200  -14.6400   20.5810 O   0  0  0  0  0  0  0  0  0  0  0  0
  -22.3500  -12.1220   22.4580 H   0  0  0  0  0  0  0  0  0  0  0  0
  -21.0580  -13.2580   22.1880 H   0  0  0  0  0  0  0  0  0  0  0  0
  -25.3820  -15.2610   20.3300 N   0  0  0  0  0  0  0  0  0  0  0  0
  -24.6090  -15.9060   20.4380 H   0  0  0  0  0  0  0  0  0  0  0  0
  -26.2150  -15.6990   19.9640 H   0  0  0  0  0  0  0  0  0  0  0  0
  1  3  1  0
  1  2  1  0
  2  9  1  0
  2  4  1  0
  3  5  1  0
  4 11  1  0
  5 55  1  0
  5  4  1  0
  5  6  1  1
  8  9  1  0
  9  7  1  0
 11 10  1  0
 12 11  1  0
 13 12  2  0
 14 13  1  0
 15 26  2  0
 16 14  1  0
 16 21  1  0
 17 25  1  0
 17 27  1  0
 18 24  1  0
 18 20  1  0
 19 25  1  0
 20 19  1  0
 21 20  2  0
 22 23  1  0
 22 16  2  0
 23 18  2  0
 24 17  1  0
 25 15  1  0
 27 29  2  0
 28 27  1  0
 30 28  1  0
 31 40  2  0
 31 36  1  0
 32 28  1  0
 32 36  1  0
 33 32  1  0
 34 35  1  0
 34 33  1  0
 35 31  1  0
 36 37  2  0
 37 38  1  0
 39 38  2  0
 40 39  1  0
 41 15  1  0
 41 42  1  0
 41 51  1  0
 42 45  1  0
 43 47  1  0
 43 42  1  0
 44 43  2  0
 47 46  1  0
 49 47  1  0
 49 50  1  0
 49 48  1  0
 51 54  1  1
 51 52  1  0
 53 51  1  0
 55 56  1  0
 57 65  1  0
 58 63  1  0
 59 60  1  0
 59 58  1  0
 61 60  1  0
 61 70  1  0
 61 62  1  0
 63 57  1  0
 63 62  1  0
 64 57  2  0
 65 66  1  0
 65 56  1  0
 67 68  2  0
 68 87  1  0
 69 68  1  0
 69 72  1  0
 70 67  1  0
 70 71  1  0
 71 69  2  0
 72 73  1  0
 73 74  2  0
 75 78  1  0
 75 74  1  0
 76 75  2  0
 77 76  1  0
 77 72  2  0
 78 79  1  0
 79 80  1  0
 80 81  2  0
 82 81  1  0
 82 86  1  0
 83 82  2  0
 84 79  2  0
 84 83  1  0
 85 84  1  0
 87 88  1  0
 88 91  1  0
 88 90  1  0
 89 87  2  0
 92 93  1  0
 92 67  1  0
 94 92  1  0
M  ISO  4  13 101  14 101  57 100  65 100
M  END
>  <TORSDO>  (66) 
F 22

>  <SCORE>  (66) 
-13.128

>  <name>  (66) 
66

>  <ligand_id>  (66) 
66

>  <original_smiles>  (66) 
[H]C1=C(C([H])(C([H])([H])[H])C([H])([H])[H])C([H])(C([H])(C([H])([H])[H])C([H])([H])C([H])([H])Oc2c([H])c([H])c3c(c2[H])C([H])([H])N(C(=O)C([H])(N([H])C(=O)C([H])(N([H])C([H])([H])[H])C([H])([H])[H])C(C([H])([H])[H])(C([H])([H])[H])C([H])([H])[H])C([H])(C(=O)N([H])C2([H])c4c([H])c([H])c([H])c([H])c4C([H])([H])C([H])([H])C2([H])[H])C3([H])[H])[N+]([H])(C([H])([H])C([H])([H])N([H])C(=O)N2C([H])([H])C([H])([H])C([H])([H])C([H])(n3nc(-c4c([H])c([H])c(Oc5c([H])c([H])c(F)c([H])c5F)c([H])c4[H])c(C(=O)N([H])[H])c3N([H])[H])C2([H])[H])C1([H])[H]

>  <smiles>  (66) 
[H]C1=C(C([H])(C([H])([H])[H])C([H])([H])[H])C([H])(C([H])(C([H])([H])[H])C([H])([H])C([H])([H])Oc2c([H])c([H])c3c(c2[H])C([H])([H])N(C(=O)C([H])(N([H])C(=O)C([H])(N([H])C([H])([H])[H])C([H])([H])[H])C(C([H])([H])[H])(C([H])([H])[H])C([H])([H])[H])C([H])(C(=O)N([H])C2([H])c4c([H])c([H])c([H])c([H])c4C([H])([H])C([H])([H])C2([H])[H])C3([H])[H])[N+]([H])(C([H])([H])C([H])([H])N([H])C(=O)N2C([H])([H])C([H])([H])C([H])([H])C([H])(n3nc(-c4c([H])c([H])c(Oc5c([H])c([H])c(F)c([H])c5F)c([H])c4[H])c(C(=O)N([H])[H])c3N([H])[H])C2([H])[H])C1([H])[H]

$$$$
67:0:0
     RDKit          3D

 90 98  0  0  1  0  0  0  0  0999 V2000
  -29.2980  -22.1530   19.7100 C   0  0  0  0  0  2  0  0  0  0  0  0
  -27.4560  -21.0480   20.9850 C   0  0  0  0  0  1  0  0  0  0  0  0
  -28.6190  -20.8020   20.0990 N   0  0  2  0  0  4  0  0  0  0  0  0
  -28.1700  -20.5520   19.2320 H   0  0  0  0  0  0  0  0  0  0  0  0
  -30.9110  -14.9800   19.9280 C   0  0  0  0  0  0  0  0  0  0  0  0
  -30.5940  -12.6770   18.9480 C   0  0  0  0  0  2  0  0  0  0  0  0
  -29.5910  -12.6700   17.7720 C   0  0  0  0  0  2  0  0  0  0  0  0
  -28.1670  -12.4590   18.3160 C   0  0  0  0  0  2  0  0  0  0  0  0
  -27.8460  -13.3930   19.5150 C   0  0  0  0  0  3  0  0  0  0  0  0
  -28.9780  -13.3680   20.5690 C   0  0  0  0  0  2  0  0  0  0  0  0
  -30.2010  -13.7850   19.8700 N   0  0  0  0  0  0  0  0  0  0  0  0
  -32.0870  -14.9230   19.5520 O   0  0  0  0  0  0  0  0  0  0  0  0
  -30.5080  -18.9430   19.4710 C   0  0  0  0  0  2  0  0  0  0  0  0
  -28.5020  -18.1460   20.4810 C   0  0  0  0  0  2  0  0  0  0  0  0
  -31.1810  -17.5190   19.8040 C   0  0  0  0  0  2  0  0  0  0  0  0
  -29.1930  -16.7650   20.8870 C   0  0  0  0  0  2  0  0  0  0  0  0
  -29.3880  -19.4620   20.4370 C   0  0  0  0  0  3  0  0  0  0  0  0
  -30.3340  -16.2840   20.0530 N   0  0  0  0  0  0  0  0  0  0  0  0
  -25.5290  -13.9810   20.4340 C   0  0  0  0  0  0  0  0  0  0  0  0
  -24.4790  -13.2020   20.8430 C   0  0  0  0  0  0  0  0  0  0  0  0
  -24.9190  -11.8500   20.7250 C   0  0  0  0  0  0  0  0  0  0  0  0
  -26.5400  -13.0990   20.0910 N   0  0  0  0  0  0  0  0  0  0  0  0
  -26.1850  -11.8110   20.3290 N   0  0  0  0  0  0  0  0  0  0  0  0
  -24.1890  -10.5890   20.9120 C   0  0  0  0  0  0  0  0  0  0  0  0
  -24.5960   -9.6310   21.8630 C   0  0  0  0  0  3  0  0  0  0  0  0
  -23.8600   -8.4390   22.0380 C   0  0  0  0  0  3  0  0  0  0  0  0
  -22.7030   -8.1970   21.2610 C   0  0  0  0  0  0  0  0  0  0  0  0
  -22.3150   -9.1450   20.2990 C   0  0  0  0  0  3  0  0  0  0  0  0
  -23.0520  -10.3280   20.1210 C   0  0  0  0  0  3  0  0  0  0  0  0
  -21.9430   -7.0580   21.3460 O   0  0  0  0  0  0  0  0  0  0  0  0
  -21.7910   -6.3810   22.5300 C   0  0  0  0  0  0  0  0  0  0  0  0
  -21.2190   -6.9920   23.6660 C   0  0  0  0  0  3  0  0  0  0  0  0
  -21.0080   -6.2400   24.8390 C   0  0  0  0  0  3  0  0  0  0  0  0
  -21.3630   -4.8780   24.8760 C   0  0  0  0  0  0  0  0  0  0  0  0
  -21.9310   -4.2690   23.7440 C   0  0  0  0  0  3  0  0  0  0  0  0
  -22.1390   -5.0170   22.5730 C   0  0  0  0  0  0  0  0  0  0  0  0
  -22.6640   -4.4180   21.4760 F   0  0  0  0  0  0  0  0  0  0  0  0
  -21.1600   -4.1530   26.0020 F   0  0  0  0  0  0  0  0  0  0  0  0
  -23.1130  -13.6870   21.2250 C   0  0  0  0  0  0  0  0  0  0  0  0
  -22.4360  -12.9620   22.1080 N   0  0  0  0  0  0  0  0  0  0  0  0
  -22.6590  -14.7390   20.7800 O   0  0  0  0  0  0  0  0  0  0  0  0
  -22.8270  -12.1130   22.4870 H   0  0  0  0  0  0  0  0  0  0  0  0
  -21.5200  -13.2650   22.4070 H   0  0  0  0  0  0  0  0  0  0  0  0
  -25.6900  -15.3540   20.3020 N   0  0  0  0  0  0  0  0  0  0  0  0
  -24.9430  -15.9920   20.5530 H   0  0  0  0  0  0  0  0  0  0  0  0
  -26.4780  -15.8200   19.8730 H   0  0  0  0  0  0  0  0  0  0  0  0
  -29.1380  -23.6130   20.5000 C   0  0  0  0  0  2  0  0  0  0  0  0
  -26.9750  -24.6280   21.3640 C   0  0  0  0  0  1  0  0  0  0  0  0
  -28.0470  -24.8400   20.2570 C   0  0  0  0  0  3  0  0  0  0  0  0
  -28.4020  -26.3440   20.2740 O   0  0  0  0  0  0  0  0  0  0  0  0
  -24.6870  -31.8260   23.3050 C   0  0  0  0  0  0  0  0  0  0  0  0
  -27.3720  -27.3320   20.1390 C   0  0  0  0  0  0  0  0  0  0  0  0
  -23.5270  -30.4870   21.5880 C   0  0  0  0  0  3  0  0  0  0  0  0
  -25.0250  -29.0170   20.1160 C   0  0  0  0  0  0  0  0  0  0  0  0
  -26.0760  -30.8150   21.4730 C   0  0  0  0  0  2  0  0  0  0  0  0
  -26.1840  -29.4630   20.7640 C   0  0  0  0  0  0  0  0  0  0  0  0
  -27.3630  -28.6360   20.7660 C   0  0  0  0  0  3  0  0  0  0  0  0
  -26.2050  -27.0020   19.4150 C   0  0  0  0  0  3  0  0  0  0  0  0
  -25.0450  -27.7970   19.4300 C   0  0  0  0  0  3  0  0  0  0  0  0
  -23.7810  -29.8830   20.1830 C   0  0  0  0  0  2  0  0  0  0  0  0
  -24.7820  -31.0580   22.1780 N   0  0  0  0  0  0  0  0  0  0  0  0
  -23.5910  -32.0750   23.8280 O   0  0  0  0  0  0  0  0  0  0  0  0
  -22.8560  -29.4250   22.4920 C   0  0  0  0  0  0  0  0  0  0  0  0
  -21.5310  -29.2480   22.3450 N   0  0  0  0  0  0  0  0  0  0  0  0
  -23.5250  -28.7690   23.2950 O   0  0  0  0  0  0  0  0  0  0  0  0
  -21.0490  -29.8300   21.6750 H   0  0  0  0  0  0  0  0  0  0  0  0
  -18.1530  -28.0370   22.7980 C   0  0  0  0  0  0  0  0  0  0  0  0
  -20.7110  -28.2760   23.0720 C   0  0  0  0  0  3  0  0  0  0  0  0
  -20.8100  -26.8760   22.4200 C   0  0  0  0  0  2  0  0  0  0  0  0
  -19.7010  -26.6120   21.3960 C   0  0  0  0  0  2  0  0  0  0  0  0
  -18.3240  -26.7240   22.0520 C   0  0  0  0  0  2  0  0  0  0  0  0
  -19.2730  -28.7730   23.2660 C   0  0  0  0  0  0  0  0  0  0  0  0
  -19.0550  -30.0030   23.9230 C   0  0  0  0  0  3  0  0  0  0  0  0
  -17.7510  -30.4990   24.1150 C   0  0  0  0  0  3  0  0  0  0  0  0
  -16.6460  -29.7590   23.6590 C   0  0  0  0  0  3  0  0  0  0  0  0
  -16.8470  -28.5300   23.0090 C   0  0  0  0  0  3  0  0  0  0  0  0
  -25.9510  -32.4470   23.9730 C   0  0  0  0  0  3  0  0  0  0  0  0
  -26.4320  -31.6470   25.2450 C   0  0  1  0  0  0  0  0  0  0  0  0
  -25.3050  -31.3880   26.2720 C   0  0  0  0  0  1  0  0  0  0  0  0
  -27.0320  -30.2770   24.8470 C   0  0  0  0  0  1  0  0  0  0  0  0
  -27.5610  -32.4240   25.9590 C   0  0  0  0  0  1  0  0  0  0  0  0
  -25.6270  -33.8360   24.3320 N   0  0  0  0  0  0  0  0  0  0  0  0
  -25.9720  -34.9100   23.6110 C   0  0  0  0  0  0  0  0  0  0  0  0
  -26.6670  -34.8350   22.5930 O   0  0  0  0  0  0  0  0  0  0  0  0
  -25.0120  -33.9660   25.1220 H   0  0  0  0  0  0  0  0  0  0  0  0
  -24.2550  -36.7120   23.2510 C   0  0  0  0  0  1  0  0  0  0  0  0
  -25.4680  -36.2830   24.0920 C   0  0  0  0  0  3  0  0  0  0  0  0
  -27.5670  -37.1510   25.0260 C   0  0  0  0  0  1  0  0  0  0  0  0
  -26.5030  -37.3390   24.0430 N   0  0  0  0  0  0  0  0  0  0  0  0
  -26.0910  -38.2570   24.1910 H   0  0  0  0  0  0  0  0  0  0  0  0
  1  3  1  0
  1 47  1  0
  3  2  1  0
  3  4  1  6
  5 18  1  0
  6 11  1  0
  7  8  1  0
  7  6  1  0
  9  8  1  0
  9 22  1  0
  9 10  1  0
 11  5  1  0
 11 10  1  0
 12  5  2  0
 13 15  1  0
 13 17  1  0
 14 16  1  0
 15 18  1  0
 17  3  1  0
 17 14  1  0
 18 16  1  0
 19 20  2  0
 20 39  1  0
 21 20  1  0
 21 24  1  0
 22 23  1  0
 22 19  1  0
 23 21  2  0
 24 25  1  0
 25 26  2  0
 27 30  1  0
 27 26  1  0
 28 27  2  0
 29 28  1  0
 29 24  2  0
 30 31  1  0
 31 36  2  0
 31 32  1  0
 32 33  2  0
 33 34  1  0
 34 38  1  0
 35 34  2  0
 36 35  1  0
 37 36  1  0
 39 40  1  0
 40 43  1  0
 40 42  1  0
 41 39  2  0
 44 19  1  0
 44 45  1  0
 46 44  1  0
 49 50  1  0
 49 47  1  0
 49 48  1  0
 51 62  2  0
 52 50  1  0
 52 57  1  0
 53 61  1  0
 53 63  1  0
 54 60  1  0
 54 56  1  0
 55 61  1  0
 56 57  2  0
 56 55  1  0
 58 59  1  0
 58 52  2  0
 59 54  2  0
 60 53  1  0
 61 51  1  0
 63 65  2  0
 64 63  1  0
 66 64  1  0
 67 76  2  0
 67 72  1  0
 68 64  1  0
 68 72  1  0
 69 68  1  0
 70 71  1  0
 70 69  1  0
 71 67  1  0
 72 73  2  0
 73 74  1  0
 75 74  2  0
 76 75  1  0
 77 51  1  0
 77 82  1  0
 77 78  1  0
 78 81  1  1
 78 79  1  0
 80 78  1  0
 82 85  1  0
 83 87  1  0
 83 82  1  0
 84 83  2  0
 87 86  1  0
 89 87  1  0
 89 90  1  0
 89 88  1  0
M  ISO  4   5 100  18 100  49 101  50 101
M  END
>  <TORSDO>  (67) 
F 19

>  <SCORE>  (67) 
-13.385

>  <name>  (67) 
67

>  <ligand_id>  (67) 
67

>  <original_smiles>  (67) 
[H]c1c([H])c([H])c2c(c1[H])C([H])([H])C([H])([H])C([H])([H])C2([H])N([H])C(=O)C1([H])N(C(=O)C([H])(N([H])C(=O)C([H])(N([H])C([H])([H])[H])C([H])([H])[H])C(C([H])([H])[H])(C([H])([H])[H])C([H])([H])[H])C([H])([H])c2c([H])c(OC([H])(C([H])([H])[H])C([H])([H])C([H])([H])[N+]([H])(C([H])([H])[H])C3([H])C([H])([H])C([H])([H])N(C(=O)N4C([H])([H])C([H])([H])C([H])([H])C([H])(n5nc(-c6c([H])c([H])c(Oc7c([H])c([H])c(F)c([H])c7F)c([H])c6[H])c(C(=O)N([H])[H])c5N([H])[H])C4([H])[H])C([H])([H])C3([H])[H])c([H])c([H])c2C1([H])[H]

>  <smiles>  (67) 
[H]c1c([H])c([H])c2c(c1[H])C([H])([H])C([H])([H])C([H])([H])C2([H])N([H])C(=O)C1([H])N(C(=O)C([H])(N([H])C(=O)C([H])(N([H])C([H])([H])[H])C([H])([H])[H])C(C([H])([H])[H])(C([H])([H])[H])C([H])([H])[H])C([H])([H])c2c([H])c(OC([H])(C([H])([H])[H])C([H])([H])C([H])([H])[N+]([H])(C([H])([H])[H])C3([H])C([H])([H])C([H])([H])N(C(=O)N4C([H])([H])C([H])([H])C([H])([H])C([H])(n5nc(-c6c([H])c([H])c(Oc7c([H])c([H])c(F)c([H])c7F)c([H])c6[H])c(C(=O)N([H])[H])c5N([H])[H])C4([H])[H])C([H])([H])C3([H])[H])c([H])c([H])c2C1([H])[H]

$$$$
68:0:0
     RDKit          3D

 94102  0  0  1  0  0  0  0  0999 V2000
  -29.5200  -21.9000   19.0710 C   0  0  0  0  0  2  0  0  0  0  0  0
  -29.8640  -20.3750   19.1140 C   0  0  0  0  0  2  0  0  0  0  0  0
  -29.2060  -22.3880   20.5050 C   0  0  0  0  0  3  0  0  0  0  0  0
  -29.9300  -21.2120   21.3200 C   0  0  0  0  0  3  0  0  0  0  0  0
  -29.7580  -19.9290   20.5220 N   0  0  2  0  0  4  0  0  0  0  0  0
  -28.7850  -19.6830   20.6340 H   0  0  0  0  0  0  0  0  0  0  0  0
  -29.0090  -24.4080   22.1580 C   0  0  0  0  0  1  0  0  0  0  0  0
  -29.4950  -23.9800   20.7680 C   0  0  0  0  0  3  0  0  0  0  0  0
  -28.8990  -25.0740   19.7400 C   0  0  0  0  0  2  0  0  0  0  0  0
  -28.8380  -26.5430   20.0830 O   0  0  0  0  0  0  0  0  0  0  0  0
  -24.7160  -31.6880   23.0990 C   0  0  0  0  0  0  0  0  0  0  0  0
  -27.6650  -27.3310   20.0010 C   0  0  0  0  0  0  0  0  0  0  0  0
  -23.6350  -30.2510   21.4100 C   0  0  0  0  0  3  0  0  0  0  0  0
  -25.2080  -28.8320   19.9690 C   0  0  0  0  0  0  0  0  0  0  0  0
  -26.1560  -30.7250   21.2810 C   0  0  0  0  0  2  0  0  0  0  0  0
  -26.3340  -29.3640   20.6080 C   0  0  0  0  0  0  0  0  0  0  0  0
  -27.5620  -28.6270   20.6120 C   0  0  0  0  0  3  0  0  0  0  0  0
  -26.5110  -26.8730   19.3240 C   0  0  0  0  0  3  0  0  0  0  0  0
  -25.3060  -27.5990   19.3070 C   0  0  0  0  0  3  0  0  0  0  0  0
  -23.9130  -29.6220   20.0200 C   0  0  0  0  0  2  0  0  0  0  0  0
  -24.8560  -30.9040   21.9900 N   0  0  0  0  0  0  0  0  0  0  0  0
  -23.6060  -31.8860   23.6130 O   0  0  0  0  0  0  0  0  0  0  0  0
  -23.0150  -29.1750   22.3330 C   0  0  0  0  0  0  0  0  0  0  0  0
  -21.7030  -28.9250   22.1790 N   0  0  0  0  0  0  0  0  0  0  0  0
  -23.7150  -28.5690   23.1490 O   0  0  0  0  0  0  0  0  0  0  0  0
  -21.1920  -29.4680   21.4970 H   0  0  0  0  0  0  0  0  0  0  0  0
  -18.3960  -27.5220   22.5820 C   0  0  0  0  0  0  0  0  0  0  0  0
  -20.9280  -27.9250   22.9140 C   0  0  0  0  0  3  0  0  0  0  0  0
  -21.1260  -26.5150   22.3090 C   0  0  0  0  0  2  0  0  0  0  0  0
  -20.0680  -26.1510   21.2640 C   0  0  0  0  0  2  0  0  0  0  0  0
  -18.6680  -26.2010   21.8830 C   0  0  0  0  0  2  0  0  0  0  0  0
  -19.4580  -28.3390   23.0530 C   0  0  0  0  0  0  0  0  0  0  0  0
  -19.1510  -29.5730   23.6670 C   0  0  0  0  0  3  0  0  0  0  0  0
  -17.8150  -29.9900   23.8160 C   0  0  0  0  0  3  0  0  0  0  0  0
  -16.7670  -29.1680   23.3650 C   0  0  0  0  0  3  0  0  0  0  0  0
  -17.0590  -27.9360   22.7510 C   0  0  0  0  0  3  0  0  0  0  0  0
  -25.9400  -32.3880   23.7660 C   0  0  0  0  0  3  0  0  0  0  0  0
  -25.5350  -33.7610   24.1040 N   0  0  0  0  0  0  0  0  0  0  0  0
  -25.8290  -34.8420   23.3710 C   0  0  0  0  0  0  0  0  0  0  0  0
  -26.5330  -34.7910   22.3590 O   0  0  0  0  0  0  0  0  0  0  0  0
  -24.9020  -33.8680   24.8840 H   0  0  0  0  0  0  0  0  0  0  0  0
  -24.0050  -36.5350   22.9950 C   0  0  0  0  0  1  0  0  0  0  0  0
  -25.2510  -36.1950   23.8310 C   0  0  0  0  0  3  0  0  0  0  0  0
  -27.3110  -37.1920   24.7190 C   0  0  0  0  0  1  0  0  0  0  0  0
  -26.2220  -37.3080   23.7530 N   0  0  0  0  0  0  0  0  0  0  0  0
  -25.7610  -38.2010   23.9040 H   0  0  0  0  0  0  0  0  0  0  0  0
  -26.4590  -31.6340   25.0500 C   0  0  1  0  0  0  0  0  0  0  0  0
  -25.3490  -31.3200   26.0830 C   0  0  0  0  0  1  0  0  0  0  0  0
  -27.1190  -30.2940   24.6560 C   0  0  0  0  0  1  0  0  0  0  0  0
  -27.5570  -32.4740   25.7480 C   0  0  0  0  0  1  0  0  0  0  0  0
  -29.4590  -21.0180   22.7920 C   0  0  0  0  0  2  0  0  0  0  0  0
  -31.4140  -22.1540   24.0420 C   0  0  0  0  0  1  0  0  0  0  0  0
  -30.1130  -20.3260   25.1730 C   0  0  0  0  0  1  0  0  0  0  0  0
  -30.6140  -20.8580   23.8190 C   0  0  0  0  0  3  0  0  0  0  0  0
  -30.5220  -18.6600   20.9450 C   0  0  0  0  0  2  0  0  0  0  0  0
  -30.5600  -17.3780   19.9740 C   0  0  0  0  0  2  0  0  0  0  0  0
  -31.2940  -14.8840   20.3840 C   0  0  0  0  0  0  0  0  0  0  0  0
  -31.0790  -12.6120   19.3890 C   0  0  0  0  0  2  0  0  0  0  0  0
  -30.1960  -12.7550   18.1270 C   0  0  0  0  0  2  0  0  0  0  0  0
  -28.7000  -12.6620   18.4930 C   0  0  0  0  0  2  0  0  0  0  0  0
  -28.3220  -13.5550   19.7040 C   0  0  0  0  0  3  0  0  0  0  0  0
  -29.3240  -13.3750   20.8670 C   0  0  0  0  0  2  0  0  0  0  0  0
  -30.6640  -13.6670   20.3410 N   0  0  0  0  0  0  0  0  0  0  0  0
  -32.4720  -15.0010   20.0320 O   0  0  0  0  0  0  0  0  0  0  0  0
  -30.4880  -15.9830   20.5820 N   0  0  0  0  0  0  0  0  0  0  0  0
  -29.5720  -15.7300   20.9260 H   0  0  0  0  0  0  0  0  0  0  0  0
  -25.9280  -14.2560   20.3120 C   0  0  0  0  0  0  0  0  0  0  0  0
  -24.8180  -13.5310   20.6380 C   0  0  0  0  0  0  0  0  0  0  0  0
  -25.2250  -12.1600   20.6370 C   0  0  0  0  0  0  0  0  0  0  0  0
  -26.9460  -13.3320   20.1300 N   0  0  0  0  0  0  0  0  0  0  0  0
  -26.5250  -12.0670   20.3870 N   0  0  0  0  0  0  0  0  0  0  0  0
  -24.4400  -10.9320   20.8020 C   0  0  0  0  0  0  0  0  0  0  0  0
  -24.7980   -9.9480   21.7500 C   0  0  0  0  0  3  0  0  0  0  0  0
  -24.0180   -8.7820   21.9010 C   0  0  0  0  0  3  0  0  0  0  0  0
  -22.8640   -8.5930   21.1040 C   0  0  0  0  0  0  0  0  0  0  0  0
  -22.5250   -9.5630   20.1430 C   0  0  0  0  0  3  0  0  0  0  0  0
  -23.3060  -10.7210   19.9910 C   0  0  0  0  0  3  0  0  0  0  0  0
  -22.0570   -7.4810   21.1660 O   0  0  0  0  0  0  0  0  0  0  0  0
  -21.9120   -6.7620   22.3240 C   0  0  0  0  0  0  0  0  0  0  0  0
  -21.4730   -7.3620   23.5240 C   0  0  0  0  0  3  0  0  0  0  0  0
  -21.2710   -6.5730   24.6740 C   0  0  0  0  0  3  0  0  0  0  0  0
  -21.4950   -5.1830   24.6230 C   0  0  0  0  0  0  0  0  0  0  0  0
  -21.9270   -4.5830   23.4270 C   0  0  0  0  0  3  0  0  0  0  0  0
  -22.1310   -5.3700   22.2800 C   0  0  0  0  0  0  0  0  0  0  0  0
  -22.5270   -4.7840   21.1250 F   0  0  0  0  0  0  0  0  0  0  0  0
  -21.2950   -4.4230   25.7240 F   0  0  0  0  0  0  0  0  0  0  0  0
  -23.4300  -14.0630   20.8440 C   0  0  0  0  0  0  0  0  0  0  0  0
  -22.6460  -13.4180   21.6990 N   0  0  0  0  0  0  0  0  0  0  0  0
  -23.0470  -15.0890   20.2790 O   0  0  0  0  0  0  0  0  0  0  0  0
  -22.9670  -12.5860   22.1730 H   0  0  0  0  0  0  0  0  0  0  0  0
  -21.7100  -13.7540   21.8810 H   0  0  0  0  0  0  0  0  0  0  0  0
  -26.1550  -15.6190   20.1300 N   0  0  0  0  0  0  0  0  0  0  0  0
  -25.4020  -16.2960   20.2000 H   0  0  0  0  0  0  0  0  0  0  0  0
  -27.0150  -16.0180   19.7790 H   0  0  0  0  0  0  0  0  0  0  0  0
  1  2  1  0
  1  3  1  0
  2  5  1  0
  3  8  1  0
  3  4  1  0
  4 51  1  0
  5  6  1  6
  5 55  1  0
  5  4  1  0
  8  7  1  0
  9 10  1  0
  9  8  1  0
 11 22  2  0
 12 10  1  0
 12 17  1  0
 13 21  1  0
 13 23  1  0
 14 20  1  0
 14 16  1  0
 15 21  1  0
 16 17  2  0
 16 15  1  0
 18 12  2  0
 19 18  1  0
 19 14  2  0
 20 13  1  0
 21 11  1  0
 23 25  2  0
 24 23  1  0
 26 24  1  0
 27 36  2  0
 27 32  1  0
 28 24  1  0
 28 32  1  0
 29 28  1  0
 30 31  1  0
 30 29  1  0
 31 27  1  0
 32 33  2  0
 33 34  1  0
 35 34  2  0
 36 35  1  0
 37 11  1  0
 37 38  1  0
 37 47  1  0
 38 41  1  0
 39 43  1  0
 39 38  1  0
 40 39  2  0
 43 42  1  0
 45 43  1  0
 45 46  1  0
 45 44  1  0
 47 50  1  1
 47 48  1  0
 49 47  1  0
 51 54  1  0
 54 52  1  0
 54 53  1  0
 56 65  1  0
 56 55  1  0
 57 65  1  0
 58 63  1  0
 59 60  1  0
 59 58  1  0
 61 60  1  0
 61 70  1  0
 61 62  1  0
 63 57  1  0
 63 62  1  0
 64 57  2  0
 65 66  1  0
 67 68  2  0
 68 87  1  0
 69 68  1  0
 69 72  1  0
 70 67  1  0
 70 71  1  0
 71 69  2  0
 72 73  1  0
 73 74  2  0
 75 78  1  0
 75 74  1  0
 76 75  2  0
 77 76  1  0
 77 72  2  0
 78 79  1  0
 79 80  1  0
 80 81  2  0
 82 81  1  0
 82 86  1  0
 83 82  2  0
 84 79  2  0
 84 83  1  0
 85 84  1  0
 87 88  1  0
 88 91  1  0
 88 90  1  0
 89 87  2  0
 92 93  1  0
 92 67  1  0
 94 92  1  0
M  ISO  4   9 101  10 101  57 100  65 100
M  END
>  <TORSDO>  (68) 
F 22

>  <SCORE>  (68) 
-10.799

>  <name>  (68) 
68

>  <ligand_id>  (68) 
68

>  <original_smiles>  (68) 
[H]c1c([H])c([H])c2c(c1[H])C([H])([H])C([H])([H])C([H])([H])C2([H])N([H])C(=O)C1([H])N(C(=O)C([H])(N([H])C(=O)C([H])(N([H])C([H])([H])[H])C([H])([H])[H])C(C([H])([H])[H])(C([H])([H])[H])C([H])([H])[H])C([H])([H])c2c([H])c(OC([H])([H])C([H])(C([H])([H])[H])C3([H])C([H])([H])C([H])([H])[N+]([H])(C([H])([H])C([H])([H])N([H])C(=O)N4C([H])([H])C([H])([H])C([H])([H])C([H])(n5nc(-c6c([H])c([H])c(Oc7c([H])c([H])c(F)c([H])c7F)c([H])c6[H])c(C(=O)N([H])[H])c5N([H])[H])C4([H])[H])C3([H])C([H])([H])C([H])(C([H])([H])[H])C([H])([H])[H])c([H])c([H])c2C1([H])[H]

>  <smiles>  (68) 
[H]c1c([H])c([H])c2c(c1[H])C([H])([H])C([H])([H])C([H])([H])C2([H])N([H])C(=O)C1([H])N(C(=O)C([H])(N([H])C(=O)C([H])(N([H])C([H])([H])[H])C([H])([H])[H])C(C([H])([H])[H])(C([H])([H])[H])C([H])([H])[H])C([H])([H])c2c([H])c(OC([H])([H])C([H])(C([H])([H])[H])C3([H])C([H])([H])C([H])([H])[N+]([H])(C([H])([H])C([H])([H])N([H])C(=O)N4C([H])([H])C([H])([H])C([H])([H])C([H])(n5nc(-c6c([H])c([H])c(Oc7c([H])c([H])c(F)c([H])c7F)c([H])c6[H])c(C(=O)N([H])[H])c5N([H])[H])C4([H])[H])C3([H])C([H])([H])C([H])(C([H])([H])[H])C([H])([H])[H])c([H])c([H])c2C1([H])[H]

$$$$
69:0:0
     RDKit          3D

 96104  0  0  1  0  0  0  0  0999 V2000
  -28.8260  -22.3630   20.8080 C   0  0  0  0  0  3  0  0  0  0  0  0
  -28.6900  -23.6530   20.1660 C   0  0  0  0  0  3  0  0  0  0  0  0
  -29.2130  -21.2030   20.0560 C   0  0  0  0  0  0  0  0  0  0  0  0
  -29.2900  -22.5880   18.2200 C   0  0  0  0  0  0  0  0  0  0  0  0
  -28.9460  -23.7140   18.8440 N   0  0  0  0  0  0  0  0  0  0  0  0
  -29.4300  -21.3630   18.7430 N   0  0  0  0  0  0  0  0  0  0  0  0
  -29.3970  -19.8800   20.6100 N   0  0  0  0  0  0  0  0  0  0  0  0
  -29.2980  -19.8110   21.6150 H   0  0  0  0  0  0  0  0  0  0  0  0
  -28.6870  -25.0780   22.3200 C   0  0  0  0  0  1  0  0  0  0  0  0
  -28.1640  -24.9900   20.8800 C   0  0  0  0  0  3  0  0  0  0  0  0
  -28.4060  -26.3620   20.3050 O   0  0  0  0  0  0  0  0  0  0  0  0
  -24.6500  -31.9000   23.1940 C   0  0  0  0  0  0  0  0  0  0  0  0
  -27.3170  -27.2610   20.2710 C   0  0  0  0  0  0  0  0  0  0  0  0
  -23.4790  -30.4680   21.5620 C   0  0  0  0  0  3  0  0  0  0  0  0
  -24.9590  -28.8920   20.1870 C   0  0  0  0  0  0  0  0  0  0  0  0
  -26.0240  -30.7840   21.4150 C   0  0  0  0  0  2  0  0  0  0  0  0
  -26.1200  -29.3900   20.7940 C   0  0  0  0  0  0  0  0  0  0  0  0
  -27.3080  -28.5880   20.8210 C   0  0  0  0  0  3  0  0  0  0  0  0
  -26.1370  -26.8290   19.6350 C   0  0  0  0  0  3  0  0  0  0  0  0
  -24.9720  -27.6190   19.5950 C   0  0  0  0  0  3  0  0  0  0  0  0
  -23.7200  -29.7680   20.1980 C   0  0  0  0  0  2  0  0  0  0  0  0
  -24.7360  -31.0700   22.1130 N   0  0  0  0  0  0  0  0  0  0  0  0
  -23.5570  -32.1830   23.7070 O   0  0  0  0  0  0  0  0  0  0  0  0
  -22.8030  -29.4680   22.5300 C   0  0  0  0  0  0  0  0  0  0  0  0
  -21.4830  -29.2710   22.3770 N   0  0  0  0  0  0  0  0  0  0  0  0
  -23.4680  -28.8700   23.3810 O   0  0  0  0  0  0  0  0  0  0  0  0
  -21.0030  -29.8030   21.6640 H   0  0  0  0  0  0  0  0  0  0  0  0
  -18.1140  -28.0190   22.8080 C   0  0  0  0  0  0  0  0  0  0  0  0
  -20.6570  -28.3410   23.1500 C   0  0  0  0  0  3  0  0  0  0  0  0
  -20.8060  -26.8940   22.6250 C   0  0  0  0  0  2  0  0  0  0  0  0
  -19.7430  -26.5180   21.5860 C   0  0  0  0  0  2  0  0  0  0  0  0
  -18.3400  -26.6540   22.1800 C   0  0  0  0  0  2  0  0  0  0  0  0
  -19.2030  -28.8170   23.2490 C   0  0  0  0  0  0  0  0  0  0  0  0
  -18.9400  -30.0930   23.7950 C   0  0  0  0  0  3  0  0  0  0  0  0
  -17.6200  -30.5720   23.9030 C   0  0  0  0  0  3  0  0  0  0  0  0
  -16.5460  -29.7710   23.4780 C   0  0  0  0  0  3  0  0  0  0  0  0
  -16.7930  -28.4980   22.9370 C   0  0  0  0  0  3  0  0  0  0  0  0
  -25.9180  -32.5510   23.8250 C   0  0  0  0  0  3  0  0  0  0  0  0
  -26.4360  -31.7880   25.1060 C   0  0  1  0  0  0  0  0  0  0  0  0
  -25.3370  -31.5270   26.1620 C   0  0  0  0  0  1  0  0  0  0  0  0
  -27.0500  -30.4220   24.7200 C   0  0  0  0  0  1  0  0  0  0  0  0
  -27.5630  -32.6030   25.7810 C   0  0  0  0  0  1  0  0  0  0  0  0
  -25.5860  -33.9450   24.1560 N   0  0  0  0  0  0  0  0  0  0  0  0
  -25.9120  -35.0050   23.4060 C   0  0  0  0  0  0  0  0  0  0  0  0
  -26.5920  -34.9140   22.3800 O   0  0  0  0  0  0  0  0  0  0  0  0
  -24.9800  -34.0880   24.9510 H   0  0  0  0  0  0  0  0  0  0  0  0
  -24.1700  -36.7830   23.0360 C   0  0  0  0  0  1  0  0  0  0  0  0
  -25.4030  -36.3860   23.8640 C   0  0  0  0  0  3  0  0  0  0  0  0
  -27.5130  -37.2910   24.7360 C   0  0  0  0  0  1  0  0  0  0  0  0
  -26.4270  -37.4500   23.7740 N   0  0  0  0  0  0  0  0  0  0  0  0
  -26.0080  -38.3660   23.9150 H   0  0  0  0  0  0  0  0  0  0  0  0
  -28.1170  -18.0040   19.5650 C   0  0  0  0  0  1  0  0  0  0  0  0
  -29.5180  -18.5430   19.8950 C   0  0  0  0  0  3  0  0  0  0  0  0
  -30.2100  -17.5160   22.1470 C   0  0  0  0  0  1  0  0  0  0  0  0
  -31.8980  -17.7410   20.3340 C   0  0  0  0  0  1  0  0  0  0  0  0
  -30.4240  -17.3930   20.6230 C   0  0  2  0  0  0  0  0  0  0  0  0
  -30.8880  -14.7730   20.0780 C   0  0  0  0  0  0  0  0  0  0  0  0
  -30.6520  -12.4640   19.1400 C   0  0  0  0  0  2  0  0  0  0  0  0
  -29.6750  -12.4900   17.9440 C   0  0  0  0  0  2  0  0  0  0  0  0
  -28.2200  -12.3330   18.4290 C   0  0  0  0  0  2  0  0  0  0  0  0
  -27.8830  -13.2680   19.6210 C   0  0  0  0  0  3  0  0  0  0  0  0
  -28.9760  -13.2220   20.7110 C   0  0  0  0  0  2  0  0  0  0  0  0
  -30.2500  -13.5530   20.0580 N   0  0  0  0  0  0  0  0  0  0  0  0
  -32.0680  -14.8420   19.7240 O   0  0  0  0  0  0  0  0  0  0  0  0
  -30.1220  -15.9100   20.3240 N   0  0  0  0  0  0  0  0  0  0  0  0
  -29.1510  -15.6810   20.4620 H   0  0  0  0  0  0  0  0  0  0  0  0
  -25.5480  -13.8990   20.4780 C   0  0  0  0  0  0  0  0  0  0  0  0
  -24.4790  -13.1420   20.8730 C   0  0  0  0  0  0  0  0  0  0  0  0
  -24.9030  -11.7800   20.7810 C   0  0  0  0  0  0  0  0  0  0  0  0
  -26.5550  -12.9990   20.1660 N   0  0  0  0  0  0  0  0  0  0  0  0
  -26.1770  -11.7190   20.4110 N   0  0  0  0  0  0  0  0  0  0  0  0
  -24.1510  -10.5330   20.9660 C   0  0  0  0  0  0  0  0  0  0  0  0
  -24.5650   -9.5510   21.8920 C   0  0  0  0  0  3  0  0  0  0  0  0
  -23.8130   -8.3680   22.0670 C   0  0  0  0  0  3  0  0  0  0  0  0
  -22.6320   -8.1610   21.3160 C   0  0  0  0  0  0  0  0  0  0  0  0
  -22.2360   -9.1310   20.3790 C   0  0  0  0  0  3  0  0  0  0  0  0
  -22.9890  -10.3050   20.2020 C   0  0  0  0  0  3  0  0  0  0  0  0
  -21.8550   -7.0300   21.3990 O   0  0  0  0  0  0  0  0  0  0  0  0
  -21.7540   -6.3100   22.5610 C   0  0  0  0  0  0  0  0  0  0  0  0
  -21.2630   -6.8860   23.7540 C   0  0  0  0  0  3  0  0  0  0  0  0
  -21.1100   -6.0910   24.9080 C   0  0  0  0  0  3  0  0  0  0  0  0
  -21.4370   -4.7220   24.8690 C   0  0  0  0  0  0  0  0  0  0  0  0
  -21.9210   -4.1470   23.6820 C   0  0  0  0  0  3  0  0  0  0  0  0
  -22.0760   -4.9380   22.5300 C   0  0  0  0  0  0  0  0  0  0  0  0
  -22.5210   -4.3740   21.3820 F   0  0  0  0  0  0  0  0  0  0  0  0
  -21.2830   -3.9570   25.9750 F   0  0  0  0  0  0  0  0  0  0  0  0
  -23.1100  -13.6490   21.2200 C   0  0  0  0  0  0  0  0  0  0  0  0
  -22.4010  -12.9470   22.0960 N   0  0  0  0  0  0  0  0  0  0  0  0
  -22.6790  -14.7010   20.7490 O   0  0  0  0  0  0  0  0  0  0  0  0
  -22.7630  -12.0960   22.4980 H   0  0  0  0  0  0  0  0  0  0  0  0
  -21.4820  -13.2670   22.3700 H   0  0  0  0  0  0  0  0  0  0  0  0
  -25.7400  -15.2690   20.3320 N   0  0  0  0  0  0  0  0  0  0  0  0
  -24.9880  -15.9310   20.4870 H   0  0  0  0  0  0  0  0  0  0  0  0
  -26.5640  -15.6970   19.9360 H   0  0  0  0  0  0  0  0  0  0  0  0
  -29.8660  -21.6250   16.1110 C   0  0  0  0  0  1  0  0  0  0  0  0
  -29.4970  -22.7580   16.8950 O   0  0  0  0  0  0  0  0  0  0  0  0
  2  1  1  0
  2 10  1  0
  3  7  1  0
  3  1  2  0
  4  6  2  0
  4  5  2  0
  5  2  1  0
  6  3  1  0
  7  8  1  0
 10  9  1  0
 11 10  1  0
 12 23  2  0
 13 11  1  0
 13 18  1  0
 14 22  1  0
 14 24  1  0
 15 21  1  0
 15 17  1  0
 16 22  1  0
 17 18  2  0
 17 16  1  0
 19 13  2  0
 20 19  1  0
 20 15  2  0
 21 14  1  0
 22 12  1  0
 24 26  2  0
 25 24  1  0
 27 25  1  0
 28 37  2  0
 28 33  1  0
 29 25  1  0
 29 33  1  0
 30 29  1  0
 31 32  1  0
 31 30  1  0
 32 28  1  0
 33 34  2  0
 34 35  1  0
 36 35  2  0
 37 36  1  0
 38 12  1  0
 38 43  1  0
 38 39  1  0
 39 42  1  1
 39 40  1  0
 41 39  1  0
 43 46  1  0
 44 48  1  0
 44 43  1  0
 45 44  2  0
 48 47  1  0
 50 48  1  0
 50 51  1  0
 50 49  1  0
 53 52  1  0
 53  7  1  0
 53 56  1  0
 56 55  1  1
 56 54  1  0
 57 65  1  0
 58 63  1  0
 59 60  1  0
 59 58  1  0
 61 60  1  0
 61 70  1  0
 61 62  1  0
 63 57  1  0
 63 62  1  0
 64 57  2  0
 65 66  1  0
 65 56  1  0
 67 68  2  0
 68 87  1  0
 69 68  1  0
 69 72  1  0
 70 71  1  0
 70 67  1  0
 71 69  2  0
 72 73  1  0
 73 74  2  0
 75 78  1  0
 75 74  1  0
 76 75  2  0
 77 76  1  0
 77 72  2  0
 78 79  1  0
 79 80  1  0
 80 81  2  0
 82 81  1  0
 82 86  1  0
 83 82  2  0
 84 79  2  0
 84 83  1  0
 85 84  1  0
 87 88  1  0
 88 91  1  0
 88 90  1  0
 89 87  2  0
 92 67  1  0
 92 93  1  0
 94 92  1  0
 95 96  1  0
 96  4  1  0
M  ISO  4  10 101  11 101  57 100  65 100
M  END
>  <TORSDO>  (69) 
F 20

>  <SCORE>  (69) 
-13.990

>  <name>  (69) 
69

>  <ligand_id>  (69) 
69

>  <original_smiles>  (69) 
[H]c1c(N([H])C([H])(C([H])([H])[H])C(N([H])C(=O)N2C([H])([H])C([H])([H])C([H])([H])C([H])(n3nc(-c4c([H])c([H])c(Oc5c([H])c([H])c(F)c([H])c5F)c([H])c4[H])c(C(=O)N([H])[H])c3N([H])[H])C2([H])[H])(C([H])([H])[H])C([H])([H])[H])nc(OC([H])([H])[H])nc1C([H])(Oc1c([H])c([H])c2c(c1[H])C([H])([H])N(C(=O)C([H])(N([H])C(=O)C([H])(N([H])C([H])([H])[H])C([H])([H])[H])C(C([H])([H])[H])(C([H])([H])[H])C([H])([H])[H])C([H])(C(=O)N([H])C1([H])c3c([H])c([H])c([H])c([H])c3C([H])([H])C([H])([H])C1([H])[H])C2([H])[H])C([H])([H])[H]

>  <smiles>  (69) 
[H]c1c(N([H])C([H])(C([H])([H])[H])C(N([H])C(=O)N2C([H])([H])C([H])([H])C([H])([H])C([H])(n3nc(-c4c([H])c([H])c(Oc5c([H])c([H])c(F)c([H])c5F)c([H])c4[H])c(C(=O)N([H])[H])c3N([H])[H])C2([H])[H])(C([H])([H])[H])C([H])([H])[H])nc(OC([H])([H])[H])nc1C([H])(Oc1c([H])c([H])c2c(c1[H])C([H])([H])N(C(=O)C([H])(N([H])C(=O)C([H])(N([H])C([H])([H])[H])C([H])([H])[H])C(C([H])([H])[H])(C([H])([H])[H])C([H])([H])[H])C([H])(C(=O)N([H])C1([H])c3c([H])c([H])c([H])c([H])c3C([H])([H])C([H])([H])C1([H])[H])C2([H])[H])C([H])([H])[H]

$$$$
70:0:0
     RDKit          3D

 87 95  0  0  1  0  0  0  0  0999 V2000
  -26.6840  -19.9650   19.7010 C   0  0  0  0  0  3  0  0  0  0  0  0
  -27.7190  -19.0130   19.7720 C   0  0  0  0  0  3  0  0  0  0  0  0
  -27.2350  -21.2020   19.7730 C   0  0  0  0  0  3  0  0  0  0  0  0
  -28.9510  -19.6020   19.8900 C   0  0  0  0  0  0  0  0  0  0  0  0
  -28.6210  -21.1660   19.8940 N   0  0  0  0  0  0  0  0  0  0  0  0
  -30.1600  -18.3570   19.9600 C   0  0  0  0  0  2  0  0  0  0  0  0
  -30.7160  -15.4220   19.9040 C   0  0  0  0  0  0  0  0  0  0  0  0
  -30.6780  -12.9590   19.0630 C   0  0  0  0  0  2  0  0  0  0  0  0
  -29.6990  -12.7170   17.8870 C   0  0  0  0  0  2  0  0  0  0  0  0
  -28.2790  -12.4350   18.4060 C   0  0  0  0  0  2  0  0  0  0  0  0
  -27.8740  -13.4090   19.5400 C   0  0  0  0  0  3  0  0  0  0  0  0
  -28.9770  -13.5920   20.6040 C   0  0  0  0  0  2  0  0  0  0  0  0
  -30.1620  -14.1080   19.8990 N   0  0  0  0  0  0  0  0  0  0  0  0
  -31.9230  -15.4270   19.6180 O   0  0  0  0  0  0  0  0  0  0  0  0
  -29.9420  -16.6890   20.0330 N   0  0  0  0  0  0  0  0  0  0  0  0
  -28.9780  -16.4680   20.2280 H   0  0  0  0  0  0  0  0  0  0  0  0
  -25.5670  -13.9570   20.4720 C   0  0  0  0  0  0  0  0  0  0  0  0
  -24.5220  -13.1760   20.8780 C   0  0  0  0  0  0  0  0  0  0  0  0
  -24.9690  -11.8240   20.7590 C   0  0  0  0  0  0  0  0  0  0  0  0
  -26.5800  -13.0830   20.1230 N   0  0  0  0  0  0  0  0  0  0  0  0
  -26.2370  -11.7910   20.3630 N   0  0  0  0  0  0  0  0  0  0  0  0
  -24.2380  -10.5620   20.9410 C   0  0  0  0  0  0  0  0  0  0  0  0
  -24.6520   -9.5960   21.8840 C   0  0  0  0  0  3  0  0  0  0  0  0
  -23.9180   -8.4020   22.0550 C   0  0  0  0  0  3  0  0  0  0  0  0
  -22.7560   -8.1650   21.2810 C   0  0  0  0  0  0  0  0  0  0  0  0
  -22.3630   -9.1200   20.3280 C   0  0  0  0  0  3  0  0  0  0  0  0
  -23.0960  -10.3040   20.1550 C   0  0  0  0  0  3  0  0  0  0  0  0
  -21.9960   -7.0230   21.3620 O   0  0  0  0  0  0  0  0  0  0  0  0
  -21.8270   -6.3530   22.5470 C   0  0  0  0  0  0  0  0  0  0  0  0
  -21.1860   -6.9490   23.6550 C   0  0  0  0  0  3  0  0  0  0  0  0
  -20.9710   -6.2010   24.8310 C   0  0  0  0  0  3  0  0  0  0  0  0
  -21.3860   -4.8580   24.8960 C   0  0  0  0  0  0  0  0  0  0  0  0
  -22.0180   -4.2610   23.7910 C   0  0  0  0  0  3  0  0  0  0  0  0
  -22.2350   -5.0060   22.6190 C   0  0  0  0  0  0  0  0  0  0  0  0
  -22.8260   -4.4190   21.5500 F   0  0  0  0  0  0  0  0  0  0  0  0
  -21.1720   -4.1370   26.0220 F   0  0  0  0  0  0  0  0  0  0  0  0
  -23.1500  -13.6560   21.2530 C   0  0  0  0  0  0  0  0  0  0  0  0
  -22.4740  -12.9430   22.1460 N   0  0  0  0  0  0  0  0  0  0  0  0
  -22.6910  -14.6990   20.7900 O   0  0  0  0  0  0  0  0  0  0  0  0
  -22.8620  -12.0980   22.5410 H   0  0  0  0  0  0  0  0  0  0  0  0
  -21.5570  -13.2450   22.4410 H   0  0  0  0  0  0  0  0  0  0  0  0
  -25.7320  -15.3320   20.3380 N   0  0  0  0  0  0  0  0  0  0  0  0
  -24.9720  -15.9820   20.5110 H   0  0  0  0  0  0  0  0  0  0  0  0
  -26.5330  -15.7680   19.9040 H   0  0  0  0  0  0  0  0  0  0  0  0
  -29.1750  -22.7490   19.9890 C   0  0  0  0  0  3  0  0  0  0  0  0
  -28.2080  -24.2990   19.9140 C   0  0  0  0  0  3  0  0  0  0  0  0
  -28.4560  -25.9290   20.1220 O   0  0  0  0  0  0  0  0  0  0  0  0
  -24.7720  -31.7210   23.3190 C   0  0  0  0  0  0  0  0  0  0  0  0
  -27.4420  -27.0300   20.0990 C   0  0  0  0  0  0  0  0  0  0  0  0
  -23.6380  -30.4260   21.5600 C   0  0  0  0  0  3  0  0  0  0  0  0
  -25.1380  -28.9120   20.0920 C   0  0  0  0  0  0  0  0  0  0  0  0
  -26.2080  -30.6480   21.5100 C   0  0  0  0  0  2  0  0  0  0  0  0
  -26.3050  -29.2800   20.7740 C   0  0  0  0  0  0  0  0  0  0  0  0
  -27.4520  -28.3630   20.7500 C   0  0  0  0  0  3  0  0  0  0  0  0
  -26.2450  -26.8190   19.3790 C   0  0  0  0  0  3  0  0  0  0  0  0
  -25.1340  -27.7030   19.3750 C   0  0  0  0  0  3  0  0  0  0  0  0
  -23.9150  -29.8270   20.1540 C   0  0  0  0  0  2  0  0  0  0  0  0
  -24.8930  -30.9550   22.1860 N   0  0  0  0  0  0  0  0  0  0  0  0
  -23.6650  -31.9770   23.8200 O   0  0  0  0  0  0  0  0  0  0  0  0
  -22.9150  -29.3720   22.4420 C   0  0  0  0  0  0  0  0  0  0  0  0
  -21.5910  -29.2110   22.2610 N   0  0  0  0  0  0  0  0  0  0  0  0
  -23.5550  -28.7020   23.2560 O   0  0  0  0  0  0  0  0  0  0  0  0
  -21.1280  -29.8030   21.5860 H   0  0  0  0  0  0  0  0  0  0  0  0
  -18.1930  -27.9870   22.6110 C   0  0  0  0  0  0  0  0  0  0  0  0
  -20.7480  -28.2260   22.9470 C   0  0  0  0  0  3  0  0  0  0  0  0
  -20.8580  -26.8370   22.2760 C   0  0  0  0  0  2  0  0  0  0  0  0
  -19.7780  -26.5900   21.2180 C   0  0  0  0  0  2  0  0  0  0  0  0
  -18.3830  -26.6900   21.8420 C   0  0  0  0  0  2  0  0  0  0  0  0
  -19.3040  -28.7160   23.1160 C   0  0  0  0  0  0  0  0  0  0  0  0
  -19.0700  -29.9290   23.7990 C   0  0  0  0  0  3  0  0  0  0  0  0
  -17.7620  -30.4160   23.9790 C   0  0  0  0  0  3  0  0  0  0  0  0
  -16.6670  -29.6850   23.4870 C   0  0  0  0  0  3  0  0  0  0  0  0
  -16.8830  -28.4720   22.8100 C   0  0  0  0  0  3  0  0  0  0  0  0
  -26.0190  -32.3280   24.0310 C   0  0  0  0  0  3  0  0  0  0  0  0
  -26.4360  -31.5330   25.3300 C   0  0  1  0  0  0  0  0  0  0  0  0
  -25.2710  -31.3030   26.3220 C   0  0  0  0  0  1  0  0  0  0  0  0
  -27.0190  -30.1480   24.9680 C   0  0  0  0  0  1  0  0  0  0  0  0
  -27.5540  -32.2980   26.0760 C   0  0  0  0  0  1  0  0  0  0  0  0
  -25.7100  -33.7280   24.3720 N   0  0  0  0  0  0  0  0  0  0  0  0
  -26.0550  -34.7930   23.6350 C   0  0  0  0  0  0  0  0  0  0  0  0
  -26.7280  -34.6990   22.6060 O   0  0  0  0  0  0  0  0  0  0  0  0
  -25.1120  -33.8740   25.1730 H   0  0  0  0  0  0  0  0  0  0  0  0
  -24.3260  -36.5990   23.3330 C   0  0  0  0  0  1  0  0  0  0  0  0
  -25.5820  -36.1810   24.1150 C   0  0  0  0  0  3  0  0  0  0  0  0
  -27.7220  -37.0730   24.9280 C   0  0  0  0  0  1  0  0  0  0  0  0
  -26.6150  -37.2330   23.9870 N   0  0  0  0  0  0  0  0  0  0  0  0
  -26.2110  -38.1550   24.1280 H   0  0  0  0  0  0  0  0  0  0  0  0
  1  2  1  0
  1  3  2  0
  2  4  2  0
  3  5  1  0
  4  5  1  0
  4  6  1  0
  5 45  1  0
  6 15  1  0
  7 15  1  0
  8 13  1  0
  9 10  1  0
  9  8  1  0
 11 10  1  0
 11 20  1  0
 11 12  1  0
 13  7  1  0
 13 12  1  0
 14  7  2  0
 15 16  1  0
 17 18  2  0
 18 37  1  0
 19 18  1  0
 19 22  1  0
 20 21  1  0
 20 17  1  0
 21 19  2  0
 22 23  1  0
 23 24  2  0
 25 28  1  0
 25 24  1  0
 26 25  2  0
 27 26  1  0
 27 22  2  0
 28 29  1  0
 29 34  2  0
 29 30  1  0
 30 31  2  0
 31 32  1  0
 32 36  1  0
 33 32  2  0
 34 33  1  0
 35 34  1  0
 37 38  1  0
 38 41  1  0
 38 40  1  0
 39 37  2  0
 42 17  1  0
 42 43  1  0
 44 42  1  0
 46 45  2  0
 46 47  1  0
 48 59  2  0
 49 47  1  0
 49 54  1  0
 50 58  1  0
 50 60  1  0
 51 57  1  0
 51 53  1  0
 52 58  1  0
 53 52  1  0
 54 53  2  0
 55 49  2  0
 56 55  1  0
 56 51  2  0
 57 50  1  0
 58 48  1  0
 60 62  2  0
 61 60  1  0
 63 61  1  0
 64 73  2  0
 64 69  1  0
 65 61  1  0
 65 69  1  0
 66 65  1  0
 67 68  1  0
 67 66  1  0
 68 64  1  0
 69 70  2  0
 70 71  1  0
 72 71  2  0
 73 72  1  0
 74 48  1  0
 74 79  1  0
 74 75  1  0
 75 78  1  1
 75 76  1  0
 77 75  1  0
 79 82  1  0
 80 84  1  0
 80 79  1  0
 81 80  2  0
 84 83  1  0
 86 84  1  0
 86 87  1  0
 86 85  1  0
M  ISO  4   7 100  15 100  46 101  47 101
M  END
>  <TORSDO>  (70) 
F 19

>  <SCORE>  (70) 
-15.000

>  <name>  (70) 
70

>  <ligand_id>  (70) 
70

>  <original_smiles>  (70) 
[H]c1c([H])c([H])c2c(c1[H])C([H])([H])C([H])([H])C([H])([H])C2([H])N([H])C(=O)C1([H])N(C(=O)C([H])(N([H])C(=O)C([H])(N([H])C([H])([H])[H])C([H])([H])[H])C(C([H])([H])[H])(C([H])([H])[H])C([H])([H])[H])C([H])([H])c2c([H])c(OC([H])([H])C([H])([H])n3c([H])c([H])c([H])c3C([H])([H])N([H])C(=O)N3C([H])([H])C([H])([H])C([H])([H])C([H])(n4nc(-c5c([H])c([H])c(Oc6c([H])c([H])c(F)c([H])c6F)c([H])c5[H])c(C(=O)N([H])[H])c4N([H])[H])C3([H])[H])c([H])c([H])c2C1([H])[H]

>  <smiles>  (70) 
[H]c1c([H])c([H])c2c(c1[H])C([H])([H])C([H])([H])C([H])([H])C2([H])N([H])C(=O)C1([H])N(C(=O)C([H])(N([H])C(=O)C([H])(N([H])C([H])([H])[H])C([H])([H])[H])C(C([H])([H])[H])(C([H])([H])[H])C([H])([H])[H])C([H])([H])c2c([H])c(OC([H])([H])C([H])([H])n3c([H])c([H])c([H])c3C([H])([H])N([H])C(=O)N3C([H])([H])C([H])([H])C([H])([H])C([H])(n4nc(-c5c([H])c([H])c(Oc6c([H])c([H])c(F)c([H])c6F)c([H])c5[H])c(C(=O)N([H])[H])c4N([H])[H])C3([H])[H])c([H])c([H])c2C1([H])[H]

$$$$
71:0:0
     RDKit          3D

 90 98  0  0  1  0  0  0  0  0999 V2000
  -30.4530  -18.1320   19.0340 C   0  0  0  0  0  3  0  0  0  0  0  0
  -29.8900  -20.3610   18.7650 C   0  0  0  0  0  3  0  0  0  0  0  0
  -30.0750  -18.1790   20.3960 C   0  0  0  0  0  0  0  0  0  0  0  0
  -29.4960  -20.4490   20.1260 C   0  0  0  0  0  0  0  0  0  0  0  0
  -30.3590  -19.2120   18.2180 N   0  0  0  0  0  0  0  0  0  0  0  0
  -29.5780  -19.3440   20.9350 N   0  0  0  0  0  0  0  0  0  0  0  0
  -30.3510  -16.9740   21.3360 C   0  0  0  0  0  2  0  0  0  0  0  0
  -30.6310  -14.5710   20.4780 C   0  0  0  0  0  0  0  0  0  0  0  0
  -30.3730  -12.3860   19.3340 C   0  0  0  0  0  2  0  0  0  0  0  0
  -29.4240  -12.5560   18.1280 C   0  0  0  0  0  2  0  0  0  0  0  0
  -27.9510  -12.4060   18.5600 C   0  0  0  0  0  2  0  0  0  0  0  0
  -27.6070  -13.2430   19.8230 C   0  0  0  0  0  3  0  0  0  0  0  0
  -28.6680  -13.0460   20.9280 C   0  0  0  0  0  2  0  0  0  0  0  0
  -29.9780  -13.3790   20.3480 N   0  0  0  0  0  0  0  0  0  0  0  0
  -31.7820  -14.7400   20.0650 O   0  0  0  0  0  0  0  0  0  0  0  0
  -29.8930  -15.6090   20.9490 N   0  0  0  0  0  0  0  0  0  0  0  0
  -28.9420  -15.3870   21.1930 H   0  0  0  0  0  0  0  0  0  0  0  0
  -25.2120  -13.8420   20.5410 C   0  0  0  0  0  0  0  0  0  0  0  0
  -24.1460  -13.0680   20.9120 C   0  0  0  0  0  0  0  0  0  0  0  0
  -24.6090  -11.7170   20.8810 C   0  0  0  0  0  0  0  0  0  0  0  0
  -26.2570  -12.9620   20.3070 N   0  0  0  0  0  0  0  0  0  0  0  0
  -25.8990  -11.6800   20.5700 N   0  0  0  0  0  0  0  0  0  0  0  0
  -23.8850  -10.4550   21.0720 C   0  0  0  0  0  0  0  0  0  0  0  0
  -24.3270   -9.4800   21.9940 C   0  0  0  0  0  3  0  0  0  0  0  0
  -23.6030   -8.2830   22.1720 C   0  0  0  0  0  3  0  0  0  0  0  0
  -22.4210   -8.0490   21.4300 C   0  0  0  0  0  0  0  0  0  0  0  0
  -21.9970   -9.0130   20.4970 C   0  0  0  0  0  3  0  0  0  0  0  0
  -22.7230  -10.2020   20.3160 C   0  0  0  0  0  3  0  0  0  0  0  0
  -21.6670   -6.9040   21.5190 O   0  0  0  0  0  0  0  0  0  0  0  0
  -21.6400   -6.1470   22.6630 C   0  0  0  0  0  0  0  0  0  0  0  0
  -21.2490   -6.6890   23.9060 C   0  0  0  0  0  3  0  0  0  0  0  0
  -21.1690   -5.8580   25.0420 C   0  0  0  0  0  3  0  0  0  0  0  0
  -21.4700   -4.4880   24.9340 C   0  0  0  0  0  0  0  0  0  0  0  0
  -21.8550   -3.9450   23.6950 C   0  0  0  0  0  3  0  0  0  0  0  0
  -21.9360   -4.7730   22.5620 C   0  0  0  0  0  0  0  0  0  0  0  0
  -22.2870   -4.2410   21.3660 F   0  0  0  0  0  0  0  0  0  0  0  0
  -21.3850   -3.6880   26.0230 F   0  0  0  0  0  0  0  0  0  0  0  0
  -22.7480  -13.5450   21.1850 C   0  0  0  0  0  0  0  0  0  0  0  0
  -22.0200  -12.8490   22.0510 N   0  0  0  0  0  0  0  0  0  0  0  0
  -22.3100  -14.5700   20.6640 O   0  0  0  0  0  0  0  0  0  0  0  0
  -22.3860  -12.0210   22.4980 H   0  0  0  0  0  0  0  0  0  0  0  0
  -21.0820  -13.1510   22.2730 H   0  0  0  0  0  0  0  0  0  0  0  0
  -25.3730  -15.2140   20.3610 N   0  0  0  0  0  0  0  0  0  0  0  0
  -24.6020  -15.8640   20.4740 H   0  0  0  0  0  0  0  0  0  0  0  0
  -26.2120  -15.6540   20.0100 H   0  0  0  0  0  0  0  0  0  0  0  0
  -28.9790  -21.6170   20.6960 O   0  0  0  0  0  0  0  0  0  0  0  0
  -29.6170  -22.8930   20.3970 C   0  0  0  0  0  2  0  0  0  0  0  0
  -28.7460  -24.0810   19.8260 C   0  0  0  0  0  2  0  0  0  0  0  0
  -28.3840  -25.2740   20.7860 C   0  0  0  0  0  2  0  0  0  0  0  0
  -28.4360  -26.6140   20.2070 O   0  0  0  0  0  0  0  0  0  0  0  0
  -24.6150  -31.8750   23.2390 C   0  0  0  0  0  0  0  0  0  0  0  0
  -27.2760  -27.3770   20.2150 C   0  0  0  0  0  0  0  0  0  0  0  0
  -23.4210  -30.4630   21.5970 C   0  0  0  0  0  3  0  0  0  0  0  0
  -24.8860  -28.9140   20.1890 C   0  0  0  0  0  0  0  0  0  0  0  0
  -25.9500  -30.8180   21.4110 C   0  0  0  0  0  2  0  0  0  0  0  0
  -26.0440  -29.4370   20.7800 C   0  0  0  0  0  0  0  0  0  0  0  0
  -27.2440  -28.6810   20.7790 C   0  0  0  0  0  3  0  0  0  0  0  0
  -26.1010  -26.8770   19.6160 C   0  0  0  0  0  3  0  0  0  0  0  0
  -24.9130  -27.6370   19.6000 C   0  0  0  0  0  3  0  0  0  0  0  0
  -23.6410  -29.7760   20.2220 C   0  0  0  0  0  2  0  0  0  0  0  0
  -24.6800  -31.0680   22.1400 N   0  0  0  0  0  0  0  0  0  0  0  0
  -23.5290  -32.1470   23.7720 O   0  0  0  0  0  0  0  0  0  0  0  0
  -22.7630  -29.4480   22.5610 C   0  0  0  0  0  0  0  0  0  0  0  0
  -21.4370  -29.2710   22.4360 N   0  0  0  0  0  0  0  0  0  0  0  0
  -23.4450  -28.8210   23.3760 O   0  0  0  0  0  0  0  0  0  0  0  0
  -20.9480  -29.8320   21.7520 H   0  0  0  0  0  0  0  0  0  0  0  0
  -18.0570  -28.0940   22.9460 C   0  0  0  0  0  0  0  0  0  0  0  0
  -20.6180  -28.3360   23.2070 C   0  0  0  0  0  3  0  0  0  0  0  0
  -20.7090  -26.9060   22.6260 C   0  0  0  0  0  2  0  0  0  0  0  0
  -19.6000  -26.5930   21.6160 C   0  0  0  0  0  2  0  0  0  0  0  0
  -18.2220  -26.7450   22.2660 C   0  0  0  0  0  2  0  0  0  0  0  0
  -19.1820  -28.8490   23.3740 C   0  0  0  0  0  0  0  0  0  0  0  0
  -18.9740  -30.1110   23.9690 C   0  0  0  0  0  3  0  0  0  0  0  0
  -17.6730  -30.6210   24.1410 C   0  0  0  0  0  3  0  0  0  0  0  0
  -16.5630  -29.8640   23.7300 C   0  0  0  0  0  3  0  0  0  0  0  0
  -16.7560  -28.6030   23.1370 C   0  0  0  0  0  3  0  0  0  0  0  0
  -25.8940  -32.5130   23.8640 C   0  0  0  0  0  3  0  0  0  0  0  0
  -25.5790  -33.9110   24.1910 N   0  0  0  0  0  0  0  0  0  0  0  0
  -25.9100  -34.9640   23.4310 C   0  0  0  0  0  0  0  0  0  0  0  0
  -26.5840  -34.8610   22.4020 O   0  0  0  0  0  0  0  0  0  0  0  0
  -24.9830  -34.0650   24.9910 H   0  0  0  0  0  0  0  0  0  0  0  0
  -24.1770  -36.7490   23.0690 C   0  0  0  0  0  1  0  0  0  0  0  0
  -25.4170  -36.3510   23.8850 C   0  0  0  0  0  3  0  0  0  0  0  0
  -27.5480  -37.2440   24.7180 C   0  0  0  0  0  1  0  0  0  0  0  0
  -26.4470  -37.4070   23.7720 N   0  0  0  0  0  0  0  0  0  0  0  0
  -26.0370  -38.3260   23.9180 H   0  0  0  0  0  0  0  0  0  0  0  0
  -26.4110  -31.7460   25.1420 C   0  0  1  0  0  0  0  0  0  0  0  0
  -25.3170  -31.5080   26.2100 C   0  0  0  0  0  1  0  0  0  0  0  0
  -26.9970  -30.3690   24.7510 C   0  0  0  0  0  1  0  0  0  0  0  0
  -27.5580  -32.5430   25.8050 C   0  0  0  0  0  1  0  0  0  0  0  0
  1  3  2  0
  2  4  1  0
  3  6  1  0
  3  7  1  0
  4 46  1  0
  4  6  2  0
  5  2  2  0
  5  1  1  0
  8 16  1  0
  9 14  1  0
 10 11  1  0
 10  9  1  0
 12 11  1  0
 12 21  1  0
 12 13  1  0
 14  8  1  0
 14 13  1  0
 15  8  2  0
 16 17  1  0
 16  7  1  0
 18 19  2  0
 19 38  1  0
 20 19  1  0
 20 23  1  0
 21 18  1  0
 21 22  1  0
 22 20  2  0
 23 24  1  0
 24 25  2  0
 26 29  1  0
 26 25  1  0
 27 26  2  0
 28 27  1  0
 28 23  2  0
 29 30  1  0
 30 31  1  0
 31 32  2  0
 33 32  1  0
 33 37  1  0
 34 33  2  0
 35 30  2  0
 35 34  1  0
 36 35  1  0
 38 39  1  0
 39 42  1  0
 39 41  1  0
 40 38  2  0
 43 44  1  0
 43 18  1  0
 45 43  1  0
 47 46  1  0
 48 47  1  0
 48 49  1  0
 50 52  1  0
 50 49  1  0
 51 62  2  0
 52 57  1  0
 53 61  1  0
 53 63  1  0
 54 60  1  0
 54 56  1  0
 55 61  1  0
 56 55  1  0
 57 56  2  0
 58 52  2  0
 59 58  1  0
 59 54  2  0
 60 53  1  0
 61 51  1  0
 63 65  2  0
 64 63  1  0
 66 64  1  0
 67 76  2  0
 67 72  1  0
 68 64  1  0
 68 72  1  0
 69 68  1  0
 70 71  1  0
 70 69  1  0
 71 67  1  0
 72 73  2  0
 73 74  1  0
 75 74  2  0
 76 75  1  0
 77 51  1  0
 77 78  1  0
 77 87  1  0
 78 81  1  0
 79 83  1  0
 79 78  1  0
 80 79  2  0
 83 82  1  0
 85 83  1  0
 85 86  1  0
 85 84  1  0
 87 90  1  1
 87 88  1  0
 89 87  1  0
M  ISO  4   8 100  16 100  49 101  50 101
M  END
>  <TORSDO>  (71) 
F 21

>  <SCORE>  (71) 
-13.524

>  <name>  (71) 
71

>  <ligand_id>  (71) 
71

>  <original_smiles>  (71) 
[H]c1nc([H])c(C([H])([H])N([H])C(=O)N2C([H])([H])C([H])([H])C([H])([H])C([H])(n3nc(-c4c([H])c([H])c(Oc5c([H])c([H])c(F)c([H])c5F)c([H])c4[H])c(C(=O)N([H])[H])c3N([H])[H])C2([H])[H])nc1OC([H])([H])C([H])([H])C([H])([H])Oc1c([H])c([H])c2c(c1[H])C([H])([H])N(C(=O)C([H])(N([H])C(=O)C([H])(N([H])C([H])([H])[H])C([H])([H])[H])C(C([H])([H])[H])(C([H])([H])[H])C([H])([H])[H])C([H])(C(=O)N([H])C1([H])c3c([H])c([H])c([H])c([H])c3C([H])([H])C([H])([H])C1([H])[H])C2([H])[H]

>  <smiles>  (71) 
[H]c1nc([H])c(C([H])([H])N([H])C(=O)N2C([H])([H])C([H])([H])C([H])([H])C([H])(n3nc(-c4c([H])c([H])c(Oc5c([H])c([H])c(F)c([H])c5F)c([H])c4[H])c(C(=O)N([H])[H])c3N([H])[H])C2([H])[H])nc1OC([H])([H])C([H])([H])C([H])([H])Oc1c([H])c([H])c2c(c1[H])C([H])([H])N(C(=O)C([H])(N([H])C(=O)C([H])(N([H])C([H])([H])[H])C([H])([H])[H])C(C([H])([H])[H])(C([H])([H])[H])C([H])([H])[H])C([H])(C(=O)N([H])C1([H])c3c([H])c([H])c([H])c([H])c3C([H])([H])C([H])([H])C1([H])[H])C2([H])[H]

$$$$
72:0:0
     RDKit          3D

 95103  0  0  1  0  0  0  0  0999 V2000
  -30.6110  -19.1750   22.1110 C   0  0  0  0  0  3  0  0  0  0  0  0
  -30.3650  -18.2510   21.0690 C   0  0  0  0  0  0  0  0  0  0  0  0
  -28.9280  -19.7830   20.0730 C   0  0  0  0  0  0  0  0  0  0  0  0
  -29.2030  -20.7170   21.1250 C   0  0  0  0  0  0  0  0  0  0  0  0
  -30.0300  -20.3950   22.1410 N   0  0  0  0  0  0  0  0  0  0  0  0
  -29.5210  -18.5520   20.0470 N   0  0  0  0  0  0  0  0  0  0  0  0
  -28.6260  -21.9870   21.2660 N   0  0  0  0  0  0  0  0  0  0  0  0
  -28.6940  -22.2990   22.2280 H   0  0  0  0  0  0  0  0  0  0  0  0
  -26.9420  -19.0370   18.5990 C   0  0  0  0  0  1  0  0  0  0  0  0
  -28.8270  -20.4410   17.6330 C   0  0  0  0  0  1  0  0  0  0  0  0
  -28.0070  -20.1170   18.8920 C   0  0  0  0  0  3  0  0  0  0  0  0
  -31.1800  -16.9590   20.9890 C   0  0  0  0  0  2  0  0  0  0  0  0
  -30.9840  -14.6370   20.2150 C   0  0  0  0  0  0  0  0  0  0  0  0
  -30.5370  -12.5420   19.0100 C   0  0  0  0  0  2  0  0  0  0  0  0
  -29.5510  -12.8280   17.8620 C   0  0  0  0  0  2  0  0  0  0  0  0
  -28.0960  -12.6940   18.3540 C   0  0  0  0  0  2  0  0  0  0  0  0
  -27.8350  -13.4710   19.6760 C   0  0  0  0  0  3  0  0  0  0  0  0
  -28.9440  -13.2050   20.7190 C   0  0  0  0  0  2  0  0  0  0  0  0
  -30.2390  -13.5030   20.0860 N   0  0  0  0  0  0  0  0  0  0  0  0
  -32.0940  -14.7500   19.6850 O   0  0  0  0  0  0  0  0  0  0  0  0
  -30.4370  -15.6930   20.8340 N   0  0  0  0  0  0  0  0  0  0  0  0
  -29.5020  -15.6320   21.2120 H   0  0  0  0  0  0  0  0  0  0  0  0
  -25.4590  -14.0470   20.4760 C   0  0  0  0  0  0  0  0  0  0  0  0
  -24.4090  -13.2590   20.8670 C   0  0  0  0  0  0  0  0  0  0  0  0
  -24.8750  -11.9110   20.7900 C   0  0  0  0  0  0  0  0  0  0  0  0
  -26.5020  -13.1760   20.1980 N   0  0  0  0  0  0  0  0  0  0  0  0
  -26.1540  -11.8860   20.4370 N   0  0  0  0  0  0  0  0  0  0  0  0
  -24.1610  -10.6440   20.9800 C   0  0  0  0  0  0  0  0  0  0  0  0
  -24.5970   -9.6870   21.9230 C   0  0  0  0  0  3  0  0  0  0  0  0
  -23.8830   -8.4810   22.1040 C   0  0  0  0  0  3  0  0  0  0  0  0
  -22.7190   -8.2260   21.3400 C   0  0  0  0  0  0  0  0  0  0  0  0
  -22.3020   -9.1720   20.3860 C   0  0  0  0  0  3  0  0  0  0  0  0
  -23.0170  -10.3700   20.2040 C   0  0  0  0  0  3  0  0  0  0  0  0
  -21.9780   -7.0740   21.4240 O   0  0  0  0  0  0  0  0  0  0  0  0
  -21.8760   -6.3670   22.5940 C   0  0  0  0  0  0  0  0  0  0  0  0
  -21.3330   -6.9370   23.7670 C   0  0  0  0  0  3  0  0  0  0  0  0
  -21.1830   -6.1520   24.9280 C   0  0  0  0  0  3  0  0  0  0  0  0
  -21.5670   -4.7980   24.9160 C   0  0  0  0  0  0  0  0  0  0  0  0
  -22.1030   -4.2260   23.7500 C   0  0  0  0  0  3  0  0  0  0  0  0
  -22.2530   -5.0080   22.5910 C   0  0  0  0  0  0  0  0  0  0  0  0
  -22.7480   -4.4470   21.4600 F   0  0  0  0  0  0  0  0  0  0  0  0
  -21.4170   -4.0400   26.0290 F   0  0  0  0  0  0  0  0  0  0  0  0
  -23.0250  -13.7250   21.2060 C   0  0  0  0  0  0  0  0  0  0  0  0
  -22.3350  -13.0070   22.0870 N   0  0  0  0  0  0  0  0  0  0  0  0
  -22.5620  -14.7600   20.7260 O   0  0  0  0  0  0  0  0  0  0  0  0
  -22.7270  -12.1730   22.4970 H   0  0  0  0  0  0  0  0  0  0  0  0
  -21.4070  -13.2970   22.3600 H   0  0  0  0  0  0  0  0  0  0  0  0
  -25.6060  -15.4220   20.3160 N   0  0  0  0  0  0  0  0  0  0  0  0
  -24.8190  -16.0500   20.4400 H   0  0  0  0  0  0  0  0  0  0  0  0
  -26.4380  -15.8880   19.9740 H   0  0  0  0  0  0  0  0  0  0  0  0
  -29.0340  -23.0630   20.3580 C   0  0  0  0  0  2  0  0  0  0  0  0
  -27.0180  -24.3740   21.2480 C   0  0  0  0  0  1  0  0  0  0  0  0
  -28.5010  -24.4540   20.8240 C   0  0  0  0  0  3  0  0  0  0  0  0
  -28.7710  -25.5720   19.7710 C   0  0  0  0  0  2  0  0  0  0  0  0
  -28.6440  -26.9300   20.2430 O   0  0  0  0  0  0  0  0  0  0  0  0
  -24.6040  -31.9340   23.2600 C   0  0  0  0  0  0  0  0  0  0  0  0
  -27.4430  -27.6130   20.1700 C   0  0  0  0  0  0  0  0  0  0  0  0
  -23.4830  -30.5420   21.5520 C   0  0  0  0  0  3  0  0  0  0  0  0
  -25.0160  -29.0750   20.1300 C   0  0  0  0  0  0  0  0  0  0  0  0
  -26.0030  -30.9670   21.4320 C   0  0  0  0  0  2  0  0  0  0  0  0
  -26.1410  -29.6090   20.7710 C   0  0  0  0  0  0  0  0  0  0  0  0
  -27.3540  -28.8830   20.7890 C   0  0  0  0  0  3  0  0  0  0  0  0
  -26.2970  -27.1000   19.5190 C   0  0  0  0  0  3  0  0  0  0  0  0
  -25.0900  -27.8220   19.5030 C   0  0  0  0  0  3  0  0  0  0  0  0
  -23.7460  -29.8970   20.1640 C   0  0  0  0  0  2  0  0  0  0  0  0
  -24.7130  -31.1600   22.1420 N   0  0  0  0  0  0  0  0  0  0  0  0
  -23.5010  -32.1700   23.7700 O   0  0  0  0  0  0  0  0  0  0  0  0
  -22.8270  -29.4830   22.4700 C   0  0  0  0  0  0  0  0  0  0  0  0
  -21.5060  -29.3040   22.3250 N   0  0  0  0  0  0  0  0  0  0  0  0
  -23.5070  -28.8320   23.2670 O   0  0  0  0  0  0  0  0  0  0  0  0
  -21.0200  -29.8770   21.6530 H   0  0  0  0  0  0  0  0  0  0  0  0
  -18.1210  -28.1420   22.8030 C   0  0  0  0  0  0  0  0  0  0  0  0
  -20.6850  -28.3340   23.0530 C   0  0  0  0  0  3  0  0  0  0  0  0
  -20.7540  -26.9390   22.3880 C   0  0  0  0  0  2  0  0  0  0  0  0
  -19.6320  -26.7010   21.3740 C   0  0  0  0  0  2  0  0  0  0  0  0
  -18.2610  -26.8340   22.0440 C   0  0  0  0  0  2  0  0  0  0  0  0
  -19.2610  -28.8550   23.2620 C   0  0  0  0  0  0  0  0  0  0  0  0
  -19.0760  -30.0850   23.9280 C   0  0  0  0  0  3  0  0  0  0  0  0
  -17.7850  -30.6010   24.1420 C   0  0  0  0  0  3  0  0  0  0  0  0
  -16.6580  -29.8820   23.7060 C   0  0  0  0  0  3  0  0  0  0  0  0
  -16.8280  -28.6530   23.0430 C   0  0  0  0  0  3  0  0  0  0  0  0
  -25.8540  -32.5810   23.9320 C   0  0  0  0  0  3  0  0  0  0  0  0
  -25.5270  -33.9820   24.2290 N   0  0  0  0  0  0  0  0  0  0  0  0
  -25.8810  -35.0230   23.4660 C   0  0  0  0  0  0  0  0  0  0  0  0
  -26.5890  -34.9050   22.4620 O   0  0  0  0  0  0  0  0  0  0  0  0
  -24.9070  -34.1450   25.0090 H   0  0  0  0  0  0  0  0  0  0  0  0
  -24.1550  -36.7930   23.0130 C   0  0  0  0  0  1  0  0  0  0  0  0
  -25.3670  -36.4160   23.8780 C   0  0  0  0  0  3  0  0  0  0  0  0
  -27.4540  -37.3410   24.7810 C   0  0  0  0  0  1  0  0  0  0  0  0
  -26.3950  -37.4760   23.7820 N   0  0  0  0  0  0  0  0  0  0  0  0
  -25.9760  -38.3960   23.8880 H   0  0  0  0  0  0  0  0  0  0  0  0
  -26.3120  -31.8260   25.2410 C   0  0  1  0  0  0  0  0  0  0  0  0
  -25.1690  -31.5840   26.2550 C   0  0  0  0  0  1  0  0  0  0  0  0
  -26.9290  -30.4530   24.8860 C   0  0  0  0  0  1  0  0  0  0  0  0
  -27.4230  -32.6350   25.9540 C   0  0  0  0  0  1  0  0  0  0  0  0
  1  5  1  0
  2  1  2  0
  3  4  1  0
  4  7  1  0
  4  5  2  0
  6  3  2  0
  6  2  1  0
  7  8  1  0
  9 11  1  0
 10 11  1  0
 11  3  1  0
 12  2  1  0
 13 21  1  0
 14 19  1  0
 15 16  1  0
 15 14  1  0
 17 16  1  0
 17 26  1  0
 17 18  1  0
 19 13  1  0
 19 18  1  0
 20 13  2  0
 21 12  1  0
 21 22  1  0
 23 24  2  0
 24 43  1  0
 25 24  1  0
 25 28  1  0
 26 27  1  0
 26 23  1  0
 27 25  2  0
 28 29  1  0
 29 30  2  0
 31 34  1  0
 31 30  1  0
 32 31  2  0
 33 32  1  0
 33 28  2  0
 34 35  1  0
 35 36  1  0
 36 37  2  0
 38 37  1  0
 38 42  1  0
 39 38  2  0
 40 35  2  0
 40 39  1  0
 41 40  1  0
 43 44  1  0
 44 47  1  0
 44 46  1  0
 45 43  2  0
 48 49  1  0
 48 23  1  0
 50 48  1  0
 51 53  1  0
 51  7  1  0
 53 52  1  0
 54 55  1  0
 54 53  1  0
 56 67  2  0
 57 55  1  0
 57 62  1  0
 58 66  1  0
 58 68  1  0
 59 65  1  0
 59 61  1  0
 60 66  1  0
 61 62  2  0
 61 60  1  0
 63 57  2  0
 64 63  1  0
 64 59  2  0
 65 58  1  0
 66 56  1  0
 68 70  2  0
 69 68  1  0
 71 69  1  0
 72 81  2  0
 72 77  1  0
 73 69  1  0
 73 77  1  0
 74 73  1  0
 75 76  1  0
 75 74  1  0
 76 72  1  0
 77 78  2  0
 78 79  1  0
 80 79  2  0
 81 80  1  0
 82 56  1  0
 82 83  1  0
 82 92  1  0
 83 86  1  0
 84 88  1  0
 84 83  1  0
 85 84  2  0
 88 87  1  0
 90 88  1  0
 90 91  1  0
 90 89  1  0
 92 95  1  1
 92 93  1  0
 94 92  1  0
M  ISO  4  13 100  21 100  54 101  55 101
M  END
>  <TORSDO>  (72) 
F 21

>  <SCORE>  (72) 
-13.351

>  <name>  (72) 
72

>  <ligand_id>  (72) 
72

>  <original_smiles>  (72) 
[H]c1nc(N([H])C([H])([H])C([H])(C([H])([H])[H])C([H])([H])Oc2c([H])c([H])c3c(c2[H])C([H])([H])N(C(=O)C([H])(N([H])C(=O)C([H])(N([H])C([H])([H])[H])C([H])([H])[H])C(C([H])([H])[H])(C([H])([H])[H])C([H])([H])[H])C([H])(C(=O)N([H])C2([H])c4c([H])c([H])c([H])c([H])c4C([H])([H])C([H])([H])C2([H])[H])C3([H])[H])c(C([H])(C([H])([H])[H])C([H])([H])[H])nc1C([H])([H])N([H])C(=O)N1C([H])([H])C([H])([H])C([H])([H])C([H])(n2nc(-c3c([H])c([H])c(Oc4c([H])c([H])c(F)c([H])c4F)c([H])c3[H])c(C(=O)N([H])[H])c2N([H])[H])C1([H])[H]

>  <smiles>  (72) 
[H]c1nc(N([H])C([H])([H])C([H])(C([H])([H])[H])C([H])([H])Oc2c([H])c([H])c3c(c2[H])C([H])([H])N(C(=O)C([H])(N([H])C(=O)C([H])(N([H])C([H])([H])[H])C([H])([H])[H])C(C([H])([H])[H])(C([H])([H])[H])C([H])([H])[H])C([H])(C(=O)N([H])C2([H])c4c([H])c([H])c([H])c([H])c4C([H])([H])C([H])([H])C2([H])[H])C3([H])[H])c(C([H])(C([H])([H])[H])C([H])([H])[H])nc1C([H])([H])N([H])C(=O)N1C([H])([H])C([H])([H])C([H])([H])C([H])(n2nc(-c3c([H])c([H])c(Oc4c([H])c([H])c(F)c([H])c4F)c([H])c3[H])c(C(=O)N([H])[H])c2N([H])[H])C1([H])[H]

$$$$
73:0:0
     RDKit          3D

 97106  0  0  1  0  0  0  0  0999 V2000
  -27.4990  -20.7210   20.2070 C   0  0  0  0  0  3  0  0  0  0  0  0
  -29.3140  -22.0670   20.0470 C   0  0  0  0  0  3  0  0  0  0  0  0
  -28.9040  -20.7900   20.3880 C   0  0  0  0  0  0  0  0  0  0  0  0
  -27.0840  -21.9460   19.7380 C   0  0  0  0  0  0  0  0  0  0  0  0
  -25.7080  -22.3800   19.3360 C   0  0  0  0  0  1  0  0  0  0  0  0
  -28.1870  -22.8080   19.6680 N   0  0  0  0  0  0  0  0  0  0  0  0
  -31.6030  -19.3310   20.1290 C   0  0  0  0  0  2  0  0  0  0  0  0
  -29.7640  -19.6410   21.0060 C   0  0  0  0  0  3  0  0  0  0  0  0
  -30.3960  -18.3880   20.2830 C   0  0  0  0  0  3  0  0  0  0  0  0
  -31.1130  -20.1570   21.2390 N   0  0  1  0  0  4  0  0  0  0  0  0
  -31.1140  -21.1340   20.9930 H   0  0  0  0  0  0  0  0  0  0  0  0
  -30.9790  -20.6900   23.7080 C   0  0  0  0  0  1  0  0  0  0  0  0
  -33.2090  -20.4370   22.5800 C   0  0  0  0  0  1  0  0  0  0  0  0
  -31.7420  -19.9590   22.5810 C   0  0  0  0  0  3  0  0  0  0  0  0
  -30.7240  -17.0280   21.0290 C   0  0  0  0  0  2  0  0  0  0  0  0
  -30.9770  -14.6550   20.0950 C   0  0  0  0  0  0  0  0  0  0  0  0
  -30.7120  -12.3690   19.1620 C   0  0  0  0  0  2  0  0  0  0  0  0
  -29.7450  -12.4130   17.9590 C   0  0  0  0  0  2  0  0  0  0  0  0
  -28.2800  -12.3030   18.4300 C   0  0  0  0  0  2  0  0  0  0  0  0
  -27.9510  -13.2780   19.5910 C   0  0  0  0  0  3  0  0  0  0  0  0
  -29.0210  -13.1870   20.7000 C   0  0  0  0  0  2  0  0  0  0  0  0
  -30.3260  -13.4560   20.0760 N   0  0  0  0  0  0  0  0  0  0  0  0
  -32.1270  -14.7850   19.6650 O   0  0  0  0  0  0  0  0  0  0  0  0
  -30.2420  -15.7250   20.4970 N   0  0  0  0  0  0  0  0  0  0  0  0
  -29.2810  -15.5070   20.7140 H   0  0  0  0  0  0  0  0  0  0  0  0
  -25.6200  -13.9900   20.4060 C   0  0  0  0  0  0  0  0  0  0  0  0
  -24.5270  -13.2670   20.7990 C   0  0  0  0  0  0  0  0  0  0  0  0
  -24.9150  -11.8930   20.7200 C   0  0  0  0  0  0  0  0  0  0  0  0
  -26.6070  -13.0610   20.1140 N   0  0  0  0  0  0  0  0  0  0  0  0
  -26.1900  -11.7930   20.3630 N   0  0  0  0  0  0  0  0  0  0  0  0
  -24.1300  -10.6670   20.9080 C   0  0  0  0  0  0  0  0  0  0  0  0
  -24.5260   -9.6710   21.8270 C   0  0  0  0  0  3  0  0  0  0  0  0
  -23.7460   -8.5070   22.0020 C   0  0  0  0  0  3  0  0  0  0  0  0
  -22.5550   -8.3340   21.2570 C   0  0  0  0  0  0  0  0  0  0  0  0
  -22.1780   -9.3170   20.3240 C   0  0  0  0  0  3  0  0  0  0  0  0
  -22.9590  -10.4720   20.1490 C   0  0  0  0  0  3  0  0  0  0  0  0
  -21.7470   -7.2250   21.3410 O   0  0  0  0  0  0  0  0  0  0  0  0
  -21.6440   -6.4970   22.4990 C   0  0  0  0  0  0  0  0  0  0  0  0
  -21.2180   -7.0830   23.7110 C   0  0  0  0  0  3  0  0  0  0  0  0
  -21.0580   -6.2860   24.8610 C   0  0  0  0  0  3  0  0  0  0  0  0
  -21.3130   -4.9020   24.8020 C   0  0  0  0  0  0  0  0  0  0  0  0
  -21.7290   -4.3160   23.5940 C   0  0  0  0  0  3  0  0  0  0  0  0
  -21.8920   -5.1110   22.4460 C   0  0  0  0  0  0  0  0  0  0  0  0
  -22.2740   -4.5380   21.2800 F   0  0  0  0  0  0  0  0  0  0  0  0
  -21.1510   -4.1340   25.9030 F   0  0  0  0  0  0  0  0  0  0  0  0
  -23.1680  -13.8090   21.1330 C   0  0  0  0  0  0  0  0  0  0  0  0
  -22.4470  -13.1460   22.0280 N   0  0  0  0  0  0  0  0  0  0  0  0
  -22.7570  -14.8560   20.6310 O   0  0  0  0  0  0  0  0  0  0  0  0
  -22.7900  -12.2980   22.4530 H   0  0  0  0  0  0  0  0  0  0  0  0
  -21.5370  -13.4910   22.2960 H   0  0  0  0  0  0  0  0  0  0  0  0
  -25.8500  -15.3540   20.2480 N   0  0  0  0  0  0  0  0  0  0  0  0
  -25.1120  -16.0380   20.3680 H   0  0  0  0  0  0  0  0  0  0  0  0
  -26.6880  -15.7500   19.8430 H   0  0  0  0  0  0  0  0  0  0  0  0
  -28.1630  -24.2350   19.2140 C   0  0  0  0  0  2  0  0  0  0  0  0
  -27.2880  -25.1080   21.5110 C   0  0  0  0  0  1  0  0  0  0  0  0
  -28.2520  -25.3410   20.3260 C   0  0  0  0  0  3  0  0  0  0  0  0
  -28.2980  -26.7340   19.8520 O   0  0  0  0  0  0  0  0  0  0  0  0
  -24.5540  -31.8580   23.1500 C   0  0  0  0  0  0  0  0  0  0  0  0
  -27.1470  -27.5110   19.8580 C   0  0  0  0  0  0  0  0  0  0  0  0
  -23.3270  -30.5140   21.4780 C   0  0  0  0  0  3  0  0  0  0  0  0
  -24.7590  -29.0430   19.9610 C   0  0  0  0  0  0  0  0  0  0  0  0
  -25.8540  -30.8850   21.2530 C   0  0  0  0  0  2  0  0  0  0  0  0
  -25.9300  -29.5410   20.5460 C   0  0  0  0  0  0  0  0  0  0  0  0
  -27.1320  -28.7890   20.4780 C   0  0  0  0  0  3  0  0  0  0  0  0
  -25.9600  -27.0500   19.2500 C   0  0  0  0  0  3  0  0  0  0  0  0
  -24.7700  -27.7980   19.3070 C   0  0  0  0  0  3  0  0  0  0  0  0
  -23.5130  -29.8940   20.0680 C   0  0  0  0  0  2  0  0  0  0  0  0
  -24.5980  -31.1000   22.0180 N   0  0  0  0  0  0  0  0  0  0  0  0
  -23.4820  -32.1000   23.7220 O   0  0  0  0  0  0  0  0  0  0  0  0
  -22.6990  -29.4520   22.4090 C   0  0  0  0  0  0  0  0  0  0  0  0
  -21.3750  -29.2540   22.2930 N   0  0  0  0  0  0  0  0  0  0  0  0
  -23.4000  -28.8080   23.1950 O   0  0  0  0  0  0  0  0  0  0  0  0
  -20.8700  -29.8270   21.6320 H   0  0  0  0  0  0  0  0  0  0  0  0
  -18.0300  -27.9670   22.7620 C   0  0  0  0  0  0  0  0  0  0  0  0
  -20.5820  -28.2770   23.0390 C   0  0  0  0  0  3  0  0  0  0  0  0
  -20.7180  -26.8630   22.4280 C   0  0  0  0  0  2  0  0  0  0  0  0
  -19.6220  -26.5400   21.4070 C   0  0  0  0  0  2  0  0  0  0  0  0
  -18.2380  -26.6390   22.0530 C   0  0  0  0  0  2  0  0  0  0  0  0
  -19.1320  -28.7420   23.2130 C   0  0  0  0  0  0  0  0  0  0  0  0
  -18.8860  -29.9860   23.8350 C   0  0  0  0  0  3  0  0  0  0  0  0
  -17.5710  -30.4530   24.0130 C   0  0  0  0  0  3  0  0  0  0  0  0
  -16.4830  -29.6720   23.5840 C   0  0  0  0  0  3  0  0  0  0  0  0
  -16.7140  -28.4320   22.9640 C   0  0  0  0  0  3  0  0  0  0  0  0
  -25.8470  -32.4760   23.7690 C   0  0  0  0  0  3  0  0  0  0  0  0
  -25.5420  -33.8700   24.1230 N   0  0  0  0  0  0  0  0  0  0  0  0
  -25.8800  -34.9350   23.3830 C   0  0  0  0  0  0  0  0  0  0  0  0
  -26.5490  -34.8460   22.3500 O   0  0  0  0  0  0  0  0  0  0  0  0
  -24.9470  -34.0100   24.9260 H   0  0  0  0  0  0  0  0  0  0  0  0
  -24.1610  -36.7450   23.0620 C   0  0  0  0  0  1  0  0  0  0  0  0
  -25.3980  -36.3160   23.8660 C   0  0  0  0  0  3  0  0  0  0  0  0
  -27.5330  -37.1770   24.7180 C   0  0  0  0  0  1  0  0  0  0  0  0
  -26.4330  -37.3670   23.7780 N   0  0  0  0  0  0  0  0  0  0  0  0
  -26.0300  -38.2850   23.9420 H   0  0  0  0  0  0  0  0  0  0  0  0
  -26.3740  -31.6840   25.0280 C   0  0  1  0  0  0  0  0  0  0  0  0
  -25.2940  -31.4360   26.1080 C   0  0  0  0  0  1  0  0  0  0  0  0
  -26.9450  -30.3080   24.6110 C   0  0  0  0  0  1  0  0  0  0  0  0
  -27.5320  -32.4660   25.6900 C   0  0  0  0  0  1  0  0  0  0  0  0
  1  3  1  0
  2  3  2  0
  4  1  2  0
  5  4  1  0
  6  4  1  0
  6  2  1  0
  7  9  1  0
  7 10  1  0
  8  3  1  0
  8 10  1  0
  9  8  1  0
  9 15  1  0
 10 14  1  0
 10 11  1  6
 13 14  1  0
 14 12  1  0
 16 24  1  0
 17 22  1  0
 18 19  1  0
 18 17  1  0
 20 19  1  0
 20 29  1  0
 20 21  1  0
 22 16  1  0
 22 21  1  0
 23 16  2  0
 24 25  1  0
 24 15  1  0
 26 27  2  0
 27 46  1  0
 28 27  1  0
 28 31  1  0
 29 30  1  0
 29 26  1  0
 30 28  2  0
 31 32  1  0
 32 33  2  0
 34 37  1  0
 34 33  1  0
 35 34  2  0
 36 35  1  0
 36 31  2  0
 37 38  1  0
 38 39  1  0
 39 40  2  0
 41 40  1  0
 41 45  1  0
 42 41  2  0
 43 38  2  0
 43 42  1  0
 44 43  1  0
 46 47  1  0
 47 50  1  0
 47 49  1  0
 48 46  2  0
 51 52  1  0
 51 26  1  0
 53 51  1  0
 54  6  1  0
 54 56  1  0
 56 55  1  0
 57 59  1  0
 57 56  1  0
 58 69  2  0
 59 64  1  0
 60 68  1  0
 60 70  1  0
 61 67  1  0
 61 63  1  0
 62 68  1  0
 63 62  1  0
 64 63  2  0
 65 66  1  0
 65 59  2  0
 66 61  2  0
 67 60  1  0
 68 58  1  0
 70 72  2  0
 71 70  1  0
 73 71  1  0
 74 83  2  0
 74 79  1  0
 75 71  1  0
 75 79  1  0
 76 75  1  0
 77 78  1  0
 77 76  1  0
 78 74  1  0
 79 80  2  0
 80 81  1  0
 82 81  2  0
 83 82  1  0
 84 58  1  0
 84 85  1  0
 84 94  1  0
 85 88  1  0
 86 90  1  0
 86 85  1  0
 87 86  2  0
 90 89  1  0
 92 90  1  0
 92 93  1  0
 92 91  1  0
 94 97  1  1
 94 95  1  0
 96 94  1  0
M  ISO  4  16 100  24 100  56 101  57 101
M  END
>  <TORSDO>  (73) 
F 21

>  <SCORE>  (73) 
-13.440

>  <name>  (73) 
73

>  <ligand_id>  (73) 
73

>  <original_smiles>  (73) 
[H]c1c([H])c([H])c2c(c1[H])C([H])([H])C([H])([H])C([H])([H])C2([H])N([H])C(=O)C1([H])N(C(=O)C([H])(N([H])C(=O)C([H])(N([H])C([H])([H])[H])C([H])([H])[H])C(C([H])([H])[H])(C([H])([H])[H])C([H])([H])[H])C([H])([H])c2c([H])c(OC([H])(C([H])([H])[H])C([H])([H])n3c([H])c(C4([H])C([H])(C([H])([H])N([H])C(=O)N5C([H])([H])C([H])([H])C([H])([H])C([H])(n6nc(-c7c([H])c([H])c(Oc8c([H])c([H])c(F)c([H])c8F)c([H])c7[H])c(C(=O)N([H])[H])c6N([H])[H])C5([H])[H])C([H])([H])[N+]4([H])C([H])(C([H])([H])[H])C([H])([H])[H])c([H])c3C([H])([H])[H])c([H])c([H])c2C1([H])[H]

>  <smiles>  (73) 
[H]c1c([H])c([H])c2c(c1[H])C([H])([H])C([H])([H])C([H])([H])C2([H])N([H])C(=O)C1([H])N(C(=O)C([H])(N([H])C(=O)C([H])(N([H])C([H])([H])[H])C([H])([H])[H])C(C([H])([H])[H])(C([H])([H])[H])C([H])([H])[H])C([H])([H])c2c([H])c(OC([H])(C([H])([H])[H])C([H])([H])n3c([H])c(C4([H])C([H])(C([H])([H])N([H])C(=O)N5C([H])([H])C([H])([H])C([H])([H])C([H])(n6nc(-c7c([H])c([H])c(Oc8c([H])c([H])c(F)c([H])c8F)c([H])c7[H])c(C(=O)N([H])[H])c6N([H])[H])C5([H])[H])C([H])([H])[N+]4([H])C([H])(C([H])([H])[H])C([H])([H])[H])c([H])c3C([H])([H])[H])c([H])c([H])c2C1([H])[H]

$$$$
74:0:0
     RDKit          3D

 98107  0  0  1  0  0  0  0  0999 V2000
  -27.3300  -19.6460   19.0620 C   0  0  0  0  0  1  0  0  0  0  0  0
  -28.3720  -19.5980   21.3750 C   0  0  0  0  0  1  0  0  0  0  0  0
  -28.5680  -20.0580   19.9080 C   0  0  1  0  0  0  0  0  0  0  0  0
  -30.3440  -19.9220   18.1530 C   0  0  0  0  0  2  0  0  0  0  0  0
  -31.5100  -19.0750   17.6080 C   0  0  0  0  0  2  0  0  0  0  0  0
  -29.7890  -17.3150   17.8660 C   0  0  0  0  0  2  0  0  0  0  0  0
  -29.7040  -17.8360   19.3310 C   0  0  0  0  0  3  0  0  0  0  0  0
  -29.7750  -19.3360   19.3890 N   0  0  0  0  0  0  0  0  0  0  0  0
  -31.0510  -17.7250   17.2120 N   0  0  0  0  0  4  0  0  0  0  0  0
  -31.7820  -17.0670   17.4330 H   0  0  0  0  0  0  0  0  0  0  0  0
  -30.9150  -17.7000   16.2150 H   0  0  0  0  0  0  0  0  0  0  0  0
  -30.7120  -17.1370   20.2950 C   0  0  0  0  0  2  0  0  0  0  0  0
  -31.1130  -14.6610   19.9660 C   0  0  0  0  0  0  0  0  0  0  0  0
  -30.7640  -12.4410   18.9480 C   0  0  0  0  0  2  0  0  0  0  0  0
  -29.7680  -12.5830   17.7760 C   0  0  0  0  0  2  0  0  0  0  0  0
  -28.3120  -12.4920   18.2730 C   0  0  0  0  0  2  0  0  0  0  0  0
  -28.0380  -13.3990   19.5030 C   0  0  0  0  0  3  0  0  0  0  0  0
  -29.1370  -13.2170   20.5760 C   0  0  0  0  0  2  0  0  0  0  0  0
  -30.4410  -13.4780   19.9410 N   0  0  0  0  0  0  0  0  0  0  0  0
  -32.1910  -14.8400   19.3950 O   0  0  0  0  0  0  0  0  0  0  0  0
  -30.4220  -15.7000   20.4700 N   0  0  0  0  0  0  0  0  0  0  0  0
  -29.5560  -15.4670   20.9350 H   0  0  0  0  0  0  0  0  0  0  0  0
  -25.7080  -14.0890   20.3540 C   0  0  0  0  0  0  0  0  0  0  0  0
  -24.6300  -13.3540   20.7650 C   0  0  0  0  0  0  0  0  0  0  0  0
  -25.0300  -11.9850   20.6790 C   0  0  0  0  0  0  0  0  0  0  0  0
  -26.7010  -13.1710   20.0470 N   0  0  0  0  0  0  0  0  0  0  0  0
  -26.2980  -11.8990   20.2990 N   0  0  0  0  0  0  0  0  0  0  0  0
  -24.2600  -10.7500   20.8820 C   0  0  0  0  0  0  0  0  0  0  0  0
  -24.6570   -9.7830   21.8310 C   0  0  0  0  0  3  0  0  0  0  0  0
  -23.8930   -8.6110   22.0220 C   0  0  0  0  0  3  0  0  0  0  0  0
  -22.7170   -8.4000   21.2630 C   0  0  0  0  0  0  0  0  0  0  0  0
  -22.3390   -9.3550   20.3030 C   0  0  0  0  0  3  0  0  0  0  0  0
  -23.1040  -10.5190   20.1110 C   0  0  0  0  0  3  0  0  0  0  0  0
  -21.9260   -7.2810   21.3620 O   0  0  0  0  0  0  0  0  0  0  0  0
  -21.7830   -6.6030   22.5460 C   0  0  0  0  0  0  0  0  0  0  0  0
  -21.2440   -7.2190   23.6970 C   0  0  0  0  0  3  0  0  0  0  0  0
  -21.0500   -6.4660   24.8720 C   0  0  0  0  0  3  0  0  0  0  0  0
  -21.3860   -5.0990   24.8970 C   0  0  0  0  0  0  0  0  0  0  0  0
  -21.9180   -4.4830   23.7500 C   0  0  0  0  0  3  0  0  0  0  0  0
  -22.1130   -5.2330   22.5770 C   0  0  0  0  0  0  0  0  0  0  0  0
  -22.6060   -4.6300   21.4700 F   0  0  0  0  0  0  0  0  0  0  0  0
  -21.1930   -4.3730   26.0230 F   0  0  0  0  0  0  0  0  0  0  0  0
  -23.2710  -13.8820   21.1260 C   0  0  0  0  0  0  0  0  0  0  0  0
  -22.5670  -13.2030   22.0260 N   0  0  0  0  0  0  0  0  0  0  0  0
  -22.8440  -14.9310   20.6460 O   0  0  0  0  0  0  0  0  0  0  0  0
  -22.9250  -12.3520   22.4350 H   0  0  0  0  0  0  0  0  0  0  0  0
  -21.6580  -13.5380   22.3080 H   0  0  0  0  0  0  0  0  0  0  0  0
  -25.9210  -15.4560   20.1950 N   0  0  0  0  0  0  0  0  0  0  0  0
  -25.1860  -16.1350   20.3550 H   0  0  0  0  0  0  0  0  0  0  0  0
  -26.7670  -15.8670   19.8260 H   0  0  0  0  0  0  0  0  0  0  0  0
  -27.4840  -23.9510   20.0650 C   0  0  0  0  0  2  0  0  0  0  0  0
  -29.9400  -23.8090   20.5420 C   0  0  0  0  0  2  0  0  0  0  0  0
  -27.3730  -22.4160   20.1920 C   0  0  0  0  0  2  0  0  0  0  0  0
  -29.8210  -22.2690   20.7230 C   0  0  0  0  0  2  0  0  0  0  0  0
  -28.6260  -24.5260   20.9190 C   0  0  0  0  0  3  0  0  0  0  0  0
  -28.6910  -21.6520   19.8540 C   0  0  0  0  0  3  0  0  0  0  0  0
  -28.6960  -26.0870   20.9670 C   0  0  0  0  0  2  0  0  0  0  0  0
  -28.4200  -26.7860   19.7390 O   0  0  0  0  0  0  0  0  0  0  0  0
  -24.6090  -31.8040   23.1070 C   0  0  0  0  0  0  0  0  0  0  0  0
  -27.2770  -27.5570   19.7800 C   0  0  0  0  0  0  0  0  0  0  0  0
  -23.4060  -30.4760   21.4010 C   0  0  0  0  0  3  0  0  0  0  0  0
  -24.8690  -29.0340   19.8830 C   0  0  0  0  0  0  0  0  0  0  0  0
  -25.9270  -30.8730   21.2060 C   0  0  0  0  0  2  0  0  0  0  0  0
  -26.0240  -29.5370   20.4980 C   0  0  0  0  0  0  0  0  0  0  0  0
  -27.2330  -28.8020   20.4520 C   0  0  0  0  0  3  0  0  0  0  0  0
  -26.1150  -27.0800   19.1440 C   0  0  0  0  0  3  0  0  0  0  0  0
  -24.9090  -27.8050   19.2040 C   0  0  0  0  0  3  0  0  0  0  0  0
  -23.6140  -29.8730   19.9850 C   0  0  0  0  0  2  0  0  0  0  0  0
  -24.6660  -31.0640   21.9630 N   0  0  0  0  0  0  0  0  0  0  0  0
  -23.5300  -32.0340   23.6700 O   0  0  0  0  0  0  0  0  0  0  0  0
  -22.7760  -29.3970   22.3110 C   0  0  0  0  0  0  0  0  0  0  0  0
  -21.4470  -29.2330   22.2130 N   0  0  0  0  0  0  0  0  0  0  0  0
  -23.4780  -28.7160   23.0630 O   0  0  0  0  0  0  0  0  0  0  0  0
  -20.9400  -29.8350   21.5790 H   0  0  0  0  0  0  0  0  0  0  0  0
  -18.0740  -28.0500   22.7530 C   0  0  0  0  0  0  0  0  0  0  0  0
  -20.6450  -28.2530   22.9440 C   0  0  0  0  0  3  0  0  0  0  0  0
  -20.7020  -26.8660   22.2630 C   0  0  0  0  0  2  0  0  0  0  0  0
  -19.5590  -26.6340   21.2690 C   0  0  0  0  0  2  0  0  0  0  0  0
  -18.2040  -26.7520   21.9740 C   0  0  0  0  0  2  0  0  0  0  0  0
  -19.2210  -28.7630   23.1940 C   0  0  0  0  0  0  0  0  0  0  0  0
  -19.0450  -29.9820   23.8830 C   0  0  0  0  0  3  0  0  0  0  0  0
  -17.7570  -30.4900   24.1340 C   0  0  0  0  0  3  0  0  0  0  0  0
  -16.6240  -29.7720   23.7090 C   0  0  0  0  0  3  0  0  0  0  0  0
  -16.7850  -28.5540   23.0240 C   0  0  0  0  0  3  0  0  0  0  0  0
  -25.8930  -32.4160   23.7480 C   0  0  0  0  0  3  0  0  0  0  0  0
  -26.4130  -31.6050   24.9970 C   0  0  1  0  0  0  0  0  0  0  0  0
  -25.3250  -31.3390   26.0630 C   0  0  0  0  0  1  0  0  0  0  0  0
  -26.9870  -30.2370   24.5590 C   0  0  0  0  0  1  0  0  0  0  0  0
  -27.5710  -32.3730   25.6780 C   0  0  0  0  0  1  0  0  0  0  0  0
  -25.5830  -33.8030   24.1220 N   0  0  0  0  0  0  0  0  0  0  0  0
  -25.9190  -34.8790   23.3970 C   0  0  0  0  0  0  0  0  0  0  0  0
  -26.5950  -34.8090   22.3660 O   0  0  0  0  0  0  0  0  0  0  0  0
  -24.9860  -33.9330   24.9240 H   0  0  0  0  0  0  0  0  0  0  0  0
  -24.2000  -36.6860   23.0780 C   0  0  0  0  0  1  0  0  0  0  0  0
  -25.4270  -36.2510   23.8950 C   0  0  0  0  0  3  0  0  0  0  0  0
  -27.5440  -37.1050   24.8000 C   0  0  0  0  0  1  0  0  0  0  0  0
  -26.4620  -37.3060   23.8390 N   0  0  0  0  0  0  0  0  0  0  0  0
  -26.0520  -38.2210   24.0100 H   0  0  0  0  0  0  0  0  0  0  0  0
  3  1  1  6
  3  2  1  0
  4  8  1  0
  5  4  1  0
  6  7  1  0
  7  8  1  0
  7 12  1  0
  8  3  1  0
  9 10  1  0
  9  5  1  0
  9  6  1  0
 11  9  1  0
 12 21  1  0
 13 21  1  0
 14 19  1  0
 15 16  1  0
 15 14  1  0
 17 16  1  0
 17 26  1  0
 17 18  1  0
 19 13  1  0
 19 18  1  0
 20 13  2  0
 21 22  1  0
 23 24  2  0
 24 43  1  0
 25 24  1  0
 25 28  1  0
 26 27  1  0
 26 23  1  0
 27 25  2  0
 28 29  1  0
 29 30  2  0
 31 34  1  0
 31 30  1  0
 32 31  2  0
 33 32  1  0
 33 28  2  0
 34 35  1  0
 35 40  2  0
 35 36  1  0
 36 37  2  0
 37 38  1  0
 38 42  1  0
 39 38  2  0
 40 39  1  0
 41 40  1  0
 43 44  1  0
 44 47  1  0
 44 46  1  0
 45 43  2  0
 48 23  1  0
 48 49  1  0
 50 48  1  0
 51 53  1  0
 51 55  1  0
 52 54  1  0
 52 55  1  0
 55 57  1  0
 56  3  1  0
 56 53  1  0
 56 54  1  0
 58 60  1  0
 58 57  1  0
 59 70  2  0
 60 65  1  0
 61 69  1  0
 61 71  1  0
 62 68  1  0
 62 64  1  0
 63 69  1  0
 64 63  1  0
 65 64  2  0
 66 67  1  0
 66 60  2  0
 67 62  2  0
 68 61  1  0
 69 59  1  0
 71 73  2  0
 72 71  1  0
 74 72  1  0
 75 84  2  0
 75 80  1  0
 76 72  1  0
 76 80  1  0
 77 76  1  0
 78 79  1  0
 78 77  1  0
 79 75  1  0
 80 81  2  0
 81 82  1  0
 83 82  2  0
 84 83  1  0
 85 59  1  0
 85 90  1  0
 85 86  1  0
 86 89  1  1
 86 87  1  0
 88 86  1  0
 90 93  1  0
 91 95  1  0
 91 90  1  0
 92 91  2  0
 95 94  1  0
 97 95  1  0
 97 98  1  0
 97 96  1  0
M  ISO  4  13 100  21 100  57 101  58 101
M  END
>  <TORSDO>  (74) 
F 20

>  <SCORE>  (74) 
-12.442

>  <name>  (74) 
74

>  <ligand_id>  (74) 
74

>  <original_smiles>  (74) 
[H]c1c([H])c([H])c2c(c1[H])C([H])([H])C([H])([H])C([H])([H])C2([H])N([H])C(=O)C1([H])N(C(=O)C([H])(N([H])C(=O)C([H])(N([H])C([H])([H])[H])C([H])([H])[H])C(C([H])([H])[H])(C([H])([H])[H])C([H])([H])[H])C([H])([H])c2c([H])c(OC([H])([H])C3([H])C([H])([H])C([H])([H])C([H])(C(N4C([H])([H])C([H])([H])[N+]([H])([H])C([H])([H])C4([H])C([H])([H])N([H])C(=O)N4C([H])([H])C([H])([H])C([H])([H])C([H])(n5nc(-c6c([H])c([H])c(Oc7c([H])c([H])c(F)c([H])c7F)c([H])c6[H])c(C(=O)N([H])[H])c5N([H])[H])C4([H])[H])(C([H])([H])[H])C([H])([H])[H])C([H])([H])C3([H])[H])c([H])c([H])c2C1([H])[H]

>  <smiles>  (74) 
[H]c1c([H])c([H])c2c(c1[H])C([H])([H])C([H])([H])C([H])([H])C2([H])N([H])C(=O)C1([H])N(C(=O)C([H])(N([H])C(=O)C([H])(N([H])C([H])([H])[H])C([H])([H])[H])C(C([H])([H])[H])(C([H])([H])[H])C([H])([H])[H])C([H])([H])c2c([H])c(OC([H])([H])C3([H])C([H])([H])C([H])([H])C([H])(C(N4C([H])([H])C([H])([H])[N+]([H])([H])C([H])([H])C4([H])C([H])([H])N([H])C(=O)N4C([H])([H])C([H])([H])C([H])([H])C([H])(n5nc(-c6c([H])c([H])c(Oc7c([H])c([H])c(F)c([H])c7F)c([H])c6[H])c(C(=O)N([H])[H])c5N([H])[H])C4([H])[H])(C([H])([H])[H])C([H])([H])[H])C([H])([H])C3([H])[H])c([H])c([H])c2C1([H])[H]

$$$$
75:0:0
     RDKit          3D

 90 98  0  0  1  0  0  0  0  0999 V2000
  -30.7940  -20.0250   22.3090 C   0  0  0  0  0  3  0  0  0  0  0  0
  -30.6810  -18.7470   21.7340 C   0  0  0  0  0  3  0  0  0  0  0  0
  -30.2290  -21.1430   21.6620 C   0  0  0  0  0  3  0  0  0  0  0  0
  -30.0020  -18.5940   20.5180 C   0  0  0  0  0  0  0  0  0  0  0  0
  -29.5220  -20.9770   20.4570 C   0  0  0  0  0  0  0  0  0  0  0  0
  -29.4150  -19.7000   19.9140 N   0  0  0  0  0  0  0  0  0  0  0  0
  -29.2880  -22.2660   18.2650 C   0  0  0  0  0  1  0  0  0  0  0  0
  -28.8400  -22.2300   19.7400 C   0  0  0  0  0  3  0  0  0  0  0  0
  -29.0010  -23.7220   20.3810 C   0  0  0  0  0  3  0  0  0  0  0  0
  -28.1080  -24.9480   19.8200 C   0  0  0  0  0  3  0  0  0  0  0  0
  -28.2870  -26.3860   20.2400 O   0  0  0  0  0  0  0  0  0  0  0  0
  -24.6170  -31.8990   23.2370 C   0  0  0  0  0  0  0  0  0  0  0  0
  -27.1940  -27.2880   20.1690 C   0  0  0  0  0  0  0  0  0  0  0  0
  -23.4060  -30.5020   21.6020 C   0  0  0  0  0  3  0  0  0  0  0  0
  -24.8440  -28.9480   20.1670 C   0  0  0  0  0  0  0  0  0  0  0  0
  -25.9490  -30.7970   21.4150 C   0  0  0  0  0  2  0  0  0  0  0  0
  -26.0170  -29.4140   20.7720 C   0  0  0  0  0  0  0  0  0  0  0  0
  -27.1920  -28.5920   20.7730 C   0  0  0  0  0  3  0  0  0  0  0  0
  -25.9990  -26.9080   19.5100 C   0  0  0  0  0  3  0  0  0  0  0  0
  -24.8390  -27.7020   19.5270 C   0  0  0  0  0  3  0  0  0  0  0  0
  -23.6120  -29.8290   20.2210 C   0  0  0  0  0  2  0  0  0  0  0  0
  -24.6780  -31.0870   22.1400 N   0  0  0  0  0  0  0  0  0  0  0  0
  -23.5360  -32.1790   23.7730 O   0  0  0  0  0  0  0  0  0  0  0  0
  -22.7420  -29.4910   22.5670 C   0  0  0  0  0  0  0  0  0  0  0  0
  -21.4130  -29.3180   22.4450 N   0  0  0  0  0  0  0  0  0  0  0  0
  -23.4190  -28.8660   23.3860 O   0  0  0  0  0  0  0  0  0  0  0  0
  -20.9250  -29.8740   21.7580 H   0  0  0  0  0  0  0  0  0  0  0  0
  -18.0360  -28.1260   22.9590 C   0  0  0  0  0  0  0  0  0  0  0  0
  -20.5950  -28.3850   23.2210 C   0  0  0  0  0  3  0  0  0  0  0  0
  -20.6930  -26.9490   22.6530 C   0  0  0  0  0  2  0  0  0  0  0  0
  -19.5890  -26.6230   21.6430 C   0  0  0  0  0  2  0  0  0  0  0  0
  -18.2100  -26.7740   22.2880 C   0  0  0  0  0  2  0  0  0  0  0  0
  -19.1550  -28.8890   23.3830 C   0  0  0  0  0  0  0  0  0  0  0  0
  -18.9350  -30.1560   23.9690 C   0  0  0  0  0  3  0  0  0  0  0  0
  -17.6290  -30.6530   24.1380 C   0  0  0  0  0  3  0  0  0  0  0  0
  -16.5260  -29.8870   23.7250 C   0  0  0  0  0  3  0  0  0  0  0  0
  -16.7300  -28.6260   23.1390 C   0  0  0  0  0  3  0  0  0  0  0  0
  -25.9030  -32.5290   23.8560 C   0  0  0  0  0  3  0  0  0  0  0  0
  -26.4220  -31.7560   25.1310 C   0  0  1  0  0  0  0  0  0  0  0  0
  -25.3350  -31.5180   26.2040 C   0  0  0  0  0  1  0  0  0  0  0  0
  -27.0000  -30.3770   24.7360 C   0  0  0  0  0  1  0  0  0  0  0  0
  -27.5820  -32.5440   25.7830 C   0  0  0  0  0  1  0  0  0  0  0  0
  -25.5940  -33.9270   24.1910 N   0  0  0  0  0  0  0  0  0  0  0  0
  -25.9180  -34.9820   23.4310 C   0  0  0  0  0  0  0  0  0  0  0  0
  -26.5760  -34.8820   22.3930 O   0  0  0  0  0  0  0  0  0  0  0  0
  -25.0100  -34.0790   25.0000 H   0  0  0  0  0  0  0  0  0  0  0  0
  -24.1820  -36.7740   23.1040 C   0  0  0  0  0  1  0  0  0  0  0  0
  -25.4360  -36.3700   23.8970 C   0  0  0  0  0  3  0  0  0  0  0  0
  -27.5820  -37.2550   24.6950 C   0  0  0  0  0  1  0  0  0  0  0  0
  -26.4650  -37.4240   23.7710 N   0  0  0  0  0  0  0  0  0  0  0  0
  -26.0590  -38.3430   23.9260 H   0  0  0  0  0  0  0  0  0  0  0  0
  -30.0720  -17.1990   19.7810 C   0  0  0  0  0  2  0  0  0  0  0  0
  -30.6280  -14.7330   20.3530 C   0  0  0  0  0  0  0  0  0  0  0  0
  -30.3800  -12.4730   19.3620 C   0  0  0  0  0  2  0  0  0  0  0  0
  -29.4410  -12.5780   18.1390 C   0  0  0  0  0  2  0  0  0  0  0  0
  -27.9700  -12.4190   18.5650 C   0  0  0  0  0  2  0  0  0  0  0  0
  -27.6080  -13.3060   19.7850 C   0  0  0  0  0  3  0  0  0  0  0  0
  -28.6660  -13.2030   20.9070 C   0  0  0  0  0  2  0  0  0  0  0  0
  -29.9750  -13.5230   20.3210 N   0  0  0  0  0  0  0  0  0  0  0  0
  -31.8090  -14.8130   20.0080 O   0  0  0  0  0  0  0  0  0  0  0  0
  -29.8700  -15.8720   20.4980 N   0  0  0  0  0  0  0  0  0  0  0  0
  -28.9370  -15.7310   20.8510 H   0  0  0  0  0  0  0  0  0  0  0  0
  -25.2160  -13.9190   20.4930 C   0  0  0  0  0  0  0  0  0  0  0  0
  -24.1430  -13.1550   20.8630 C   0  0  0  0  0  0  0  0  0  0  0  0
  -24.5990  -11.8010   20.8490 C   0  0  0  0  0  0  0  0  0  0  0  0
  -26.2570  -13.0310   20.2720 N   0  0  0  0  0  0  0  0  0  0  0  0
  -25.8920  -11.7540   20.5500 N   0  0  0  0  0  0  0  0  0  0  0  0
  -23.8630  -10.5440   21.0440 C   0  0  0  0  0  0  0  0  0  0  0  0
  -24.2970   -9.5710   21.9690 C   0  0  0  0  0  3  0  0  0  0  0  0
  -23.5630   -8.3800   22.1530 C   0  0  0  0  0  3  0  0  0  0  0  0
  -22.3810   -8.1530   21.4120 C   0  0  0  0  0  0  0  0  0  0  0  0
  -21.9650   -9.1140   20.4720 C   0  0  0  0  0  3  0  0  0  0  0  0
  -22.7000  -10.2970   20.2870 C   0  0  0  0  0  3  0  0  0  0  0  0
  -21.6150   -7.0150   21.5070 O   0  0  0  0  0  0  0  0  0  0  0  0
  -21.5870   -6.2600   22.6530 C   0  0  0  0  0  0  0  0  0  0  0  0
  -21.2080   -6.8080   23.8980 C   0  0  0  0  0  3  0  0  0  0  0  0
  -21.1250   -5.9820   25.0360 C   0  0  0  0  0  3  0  0  0  0  0  0
  -21.4100   -4.6070   24.9300 C   0  0  0  0  0  0  0  0  0  0  0  0
  -21.7810   -4.0580   23.6890 C   0  0  0  0  0  3  0  0  0  0  0  0
  -21.8660   -4.8820   22.5540 C   0  0  0  0  0  0  0  0  0  0  0  0
  -22.2040   -4.3450   21.3570 F   0  0  0  0  0  0  0  0  0  0  0  0
  -21.3230   -3.8090   26.0200 F   0  0  0  0  0  0  0  0  0  0  0  0
  -22.7460  -13.6430   21.1170 C   0  0  0  0  0  0  0  0  0  0  0  0
  -22.0060  -12.9670   21.9890 N   0  0  0  0  0  0  0  0  0  0  0  0
  -22.3160  -14.6620   20.5770 O   0  0  0  0  0  0  0  0  0  0  0  0
  -22.3660  -12.1480   22.4570 H   0  0  0  0  0  0  0  0  0  0  0  0
  -21.0670  -13.2750   22.1950 H   0  0  0  0  0  0  0  0  0  0  0  0
  -25.3820  -15.2860   20.2980 N   0  0  0  0  0  0  0  0  0  0  0  0
  -24.6070  -15.9360   20.3740 H   0  0  0  0  0  0  0  0  0  0  0  0
  -26.2190  -15.7170   19.9270 H   0  0  0  0  0  0  0  0  0  0  0  0
  2  1  1  0
  3  1  2  0
  4  2  2  0
  5  3  1  0
  6  5  2  0
  6  4  1  0
  8  7  1  0
  8  9  1  0
  8  5  1  0
 10 11  1  0
 10  9  2  0
 12 23  2  0
 13 11  1  0
 13 18  1  0
 14 22  1  0
 14 24  1  0
 15 21  1  0
 15 17  1  0
 16 22  1  0
 17 18  2  0
 17 16  1  0
 19 20  1  0
 19 13  2  0
 20 15  2  0
 21 14  1  0
 22 12  1  0
 24 26  2  0
 25 24  1  0
 27 25  1  0
 28 37  2  0
 28 33  1  0
 29 25  1  0
 29 33  1  0
 30 29  1  0
 31 32  1  0
 31 30  1  0
 32 28  1  0
 33 34  2  0
 34 35  1  0
 36 35  2  0
 37 36  1  0
 38 12  1  0
 38 43  1  0
 38 39  1  0
 39 42  1  1
 39 40  1  0
 41 39  1  0
 43 46  1  0
 44 48  1  0
 44 43  1  0
 45 44  2  0
 48 47  1  0
 50 48  1  0
 50 51  1  0
 50 49  1  0
 52 61  1  0
 52  4  1  0
 53 61  1  0
 54 59  1  0
 55 56  1  0
 55 54  1  0
 57 56  1  0
 57 66  1  0
 57 58  1  0
 59 53  1  0
 59 58  1  0
 60 53  2  0
 61 62  1  0
 63 64  2  0
 64 83  1  0
 65 64  1  0
 65 68  1  0
 66 63  1  0
 66 67  1  0
 67 65  2  0
 68 69  1  0
 69 70  2  0
 71 74  1  0
 71 70  1  0
 72 71  2  0
 73 72  1  0
 73 68  2  0
 74 75  1  0
 75 76  1  0
 76 77  2  0
 78 77  1  0
 78 82  1  0
 79 78  2  0
 80 75  2  0
 80 79  1  0
 81 80  1  0
 83 84  1  0
 84 87  1  0
 84 86  1  0
 85 83  2  0
 88 89  1  0
 88 63  1  0
 90 88  1  0
M  ISO  4  10 101  11 101  53 100  61 100
M  END
>  <TORSDO>  (75) 
F 20

>  <SCORE>  (75) 
-13.793

>  <name>  (75) 
75

>  <ligand_id>  (75) 
75

>  <original_smiles>  (75) 
[H]c1c(C([H])([H])N([H])C(=O)N2C([H])([H])C([H])([H])C([H])([H])C([H])(n3nc(-c4c([H])c([H])c(Oc5c([H])c([H])c(F)c([H])c5F)c([H])c4[H])c(C(=O)N([H])[H])c3N([H])[H])C2([H])[H])nc(C([H])(C([H])([H])[H])C([H])([H])C([H])([H])Oc2c([H])c([H])c3c(c2[H])C([H])([H])N(C(=O)C([H])(N([H])C(=O)C([H])(N([H])C([H])([H])[H])C([H])([H])[H])C(C([H])([H])[H])(C([H])([H])[H])C([H])([H])[H])C([H])(C(=O)N([H])C2([H])c4c([H])c([H])c([H])c([H])c4C([H])([H])C([H])([H])C2([H])[H])C3([H])[H])c([H])c1[H]

>  <smiles>  (75) 
[H]c1c(C([H])([H])N([H])C(=O)N2C([H])([H])C([H])([H])C([H])([H])C([H])(n3nc(-c4c([H])c([H])c(Oc5c([H])c([H])c(F)c([H])c5F)c([H])c4[H])c(C(=O)N([H])[H])c3N([H])[H])C2([H])[H])nc(C([H])(C([H])([H])[H])C([H])([H])C([H])([H])Oc2c([H])c([H])c3c(c2[H])C([H])([H])N(C(=O)C([H])(N([H])C(=O)C([H])(N([H])C([H])([H])[H])C([H])([H])[H])C(C([H])([H])[H])(C([H])([H])[H])C([H])([H])[H])C([H])(C(=O)N([H])C2([H])c4c([H])c([H])c([H])c([H])c4C([H])([H])C([H])([H])C2([H])[H])C3([H])[H])c([H])c1[H]

$$$$
76:0:0
     RDKit          3D

 96104  0  0  1  0  0  0  0  0999 V2000
  -28.1350  -23.7280   19.9860 C   0  0  0  0  0  3  0  0  0  0  0  0
  -27.1260  -24.0170   21.0370 N   0  0  0  0  0  4  0  0  0  0  0  0
  -27.5500  -23.8060   21.9260 H   0  0  0  0  0  0  0  0  0  0  0  0
  -26.9630  -25.0130   21.0370 H   0  0  0  0  0  0  0  0  0  0  0  0
  -25.1440  -23.4970   19.5690 C   0  0  0  0  0  1  0  0  0  0  0  0
  -24.8710  -23.9270   22.0460 C   0  0  0  0  0  1  0  0  0  0  0  0
  -25.7990  -23.3520   20.9590 C   0  0  0  0  0  3  0  0  0  0  0  0
  -29.1310  -25.3260   18.1280 C   0  0  0  0  0  1  0  0  0  0  0  0
  -28.8180  -25.1910   19.6230 C   0  0  0  0  0  3  0  0  0  0  0  0
  -28.5180  -26.5750   20.1920 O   0  0  0  0  0  0  0  0  0  0  0  0
  -24.6930  -31.9450   23.2200 C   0  0  0  0  0  0  0  0  0  0  0  0
  -27.3750  -27.4160   20.0800 C   0  0  0  0  0  0  0  0  0  0  0  0
  -23.5110  -30.5580   21.5550 C   0  0  0  0  0  3  0  0  0  0  0  0
  -24.9820  -29.0340   20.0980 C   0  0  0  0  0  0  0  0  0  0  0  0
  -26.0440  -30.8950   21.3780 C   0  0  0  0  0  2  0  0  0  0  0  0
  -26.1430  -29.5220   20.7060 C   0  0  0  0  0  0  0  0  0  0  0  0
  -27.3340  -28.7200   20.6910 C   0  0  0  0  0  3  0  0  0  0  0  0
  -26.1890  -26.9990   19.4340 C   0  0  0  0  0  3  0  0  0  0  0  0
  -25.0110  -27.7840   19.4510 C   0  0  0  0  0  3  0  0  0  0  0  0
  -23.7300  -29.8930   20.1660 C   0  0  0  0  0  2  0  0  0  0  0  0
  -24.7680  -31.1500   22.1080 N   0  0  0  0  0  0  0  0  0  0  0  0
  -23.6070  -32.1950   23.7640 O   0  0  0  0  0  0  0  0  0  0  0  0
  -22.8590  -29.5220   22.4980 C   0  0  0  0  0  0  0  0  0  0  0  0
  -21.5330  -29.3350   22.3780 N   0  0  0  0  0  0  0  0  0  0  0  0
  -23.5480  -28.8850   23.3000 O   0  0  0  0  0  0  0  0  0  0  0  0
  -21.0350  -29.8980   21.7020 H   0  0  0  0  0  0  0  0  0  0  0  0
  -18.1770  -28.0950   22.8870 C   0  0  0  0  0  0  0  0  0  0  0  0
  -20.7340  -28.3740   23.1380 C   0  0  0  0  0  3  0  0  0  0  0  0
  -20.8410  -26.9530   22.5370 C   0  0  0  0  0  2  0  0  0  0  0  0
  -19.7380  -26.6490   21.5170 C   0  0  0  0  0  2  0  0  0  0  0  0
  -18.3560  -26.7700   22.1660 C   0  0  0  0  0  2  0  0  0  0  0  0
  -19.2910  -28.8570   23.3270 C   0  0  0  0  0  0  0  0  0  0  0  0
  -19.0700  -30.0990   23.9570 C   0  0  0  0  0  3  0  0  0  0  0  0
  -17.7630  -30.5850   24.1470 C   0  0  0  0  0  3  0  0  0  0  0  0
  -16.6620  -29.8210   23.7260 C   0  0  0  0  0  3  0  0  0  0  0  0
  -16.8680  -28.5780   23.1010 C   0  0  0  0  0  3  0  0  0  0  0  0
  -25.9630  -32.5890   23.8510 C   0  0  0  0  0  3  0  0  0  0  0  0
  -25.6360  -33.9820   24.1950 N   0  0  0  0  0  0  0  0  0  0  0  0
  -25.9480  -35.0480   23.4480 C   0  0  0  0  0  0  0  0  0  0  0  0
  -26.6110  -34.9650   22.4110 O   0  0  0  0  0  0  0  0  0  0  0  0
  -25.0500  -34.1190   25.0050 H   0  0  0  0  0  0  0  0  0  0  0  0
  -24.1800  -36.8110   23.1410 C   0  0  0  0  0  1  0  0  0  0  0  0
  -25.4450  -36.4260   23.9250 C   0  0  0  0  0  3  0  0  0  0  0  0
  -27.5780  -37.3460   24.7190 C   0  0  0  0  0  1  0  0  0  0  0  0
  -26.4560  -37.4990   23.7980 N   0  0  0  0  0  0  0  0  0  0  0  0
  -26.0380  -38.4110   23.9610 H   0  0  0  0  0  0  0  0  0  0  0  0
  -26.4780  -31.8160   25.1290 C   0  0  1  0  0  0  0  0  0  0  0  0
  -25.3810  -31.5680   26.1890 C   0  0  0  0  0  1  0  0  0  0  0  0
  -27.0780  -30.4480   24.7350 C   0  0  0  0  0  1  0  0  0  0  0  0
  -27.6170  -32.6140   25.8040 C   0  0  0  0  0  1  0  0  0  0  0  0
  -29.1070  -22.4460   20.4300 C   0  0  0  0  0  2  0  0  0  0  0  0
  -28.2600  -18.4540   20.2630 C   0  0  0  0  0  2  0  0  0  0  0  0
  -28.0740  -20.0060   20.6210 C   0  0  0  0  0  2  0  0  0  0  0  0
  -30.3770  -20.2870   20.4330 C   0  0  0  0  0  2  0  0  0  0  0  0
  -30.6610  -18.7120   20.2190 C   0  0  0  0  0  3  0  0  0  0  0  0
  -29.5600  -17.7280   20.7850 C   0  0  0  0  0  3  0  0  0  0  0  0
  -32.0300  -18.4340   20.8590 C   0  0  0  0  0  1  0  0  0  0  0  0
  -29.0810  -20.9380   20.0430 N   0  0  0  0  0  0  0  0  0  0  0  0
  -30.4310  -15.0790   20.3790 C   0  0  0  0  0  0  0  0  0  0  0  0
  -30.3620  -12.7640   19.3730 C   0  0  0  0  0  2  0  0  0  0  0  0
  -29.4140  -12.7430   18.1520 C   0  0  0  0  0  2  0  0  0  0  0  0
  -27.9600  -12.4930   18.6030 C   0  0  0  0  0  2  0  0  0  0  0  0
  -27.5440  -13.4050   19.7880 C   0  0  0  0  0  3  0  0  0  0  0  0
  -28.6070  -13.3940   20.9090 C   0  0  0  0  0  2  0  0  0  0  0  0
  -29.8730  -13.8160   20.3030 N   0  0  0  0  0  0  0  0  0  0  0  0
  -31.6290  -15.2040   20.1180 O   0  0  0  0  0  0  0  0  0  0  0  0
  -29.5600  -16.1720   20.5600 N   0  0  0  0  0  0  0  0  0  0  0  0
  -28.6240  -15.8120   20.6630 H   0  0  0  0  0  0  0  0  0  0  0  0
  -25.1600  -13.9390   20.5540 C   0  0  0  0  0  0  0  0  0  0  0  0
  -24.1150  -13.1380   20.9290 C   0  0  0  0  0  0  0  0  0  0  0  0
  -24.6090  -11.7980   20.8850 C   0  0  0  0  0  0  0  0  0  0  0  0
  -26.2160  -13.0810   20.2940 N   0  0  0  0  0  0  0  0  0  0  0  0
  -25.8960  -11.7900   20.5630 N   0  0  0  0  0  0  0  0  0  0  0  0
  -23.9090  -10.5200   21.0680 C   0  0  0  0  0  0  0  0  0  0  0  0
  -24.3630   -9.5580   21.9970 C   0  0  0  0  0  3  0  0  0  0  0  0
  -23.6630   -8.3430   22.1670 C   0  0  0  0  0  3  0  0  0  0  0  0
  -22.4990   -8.0810   21.4070 C   0  0  0  0  0  0  0  0  0  0  0  0
  -22.0650   -9.0330   20.4680 C   0  0  0  0  0  3  0  0  0  0  0  0
  -22.7640  -10.2400   20.2950 C   0  0  0  0  0  3  0  0  0  0  0  0
  -21.7700   -6.9190   21.4870 O   0  0  0  0  0  0  0  0  0  0  0  0
  -21.7300   -6.1730   22.6390 C   0  0  0  0  0  0  0  0  0  0  0  0
  -21.2870   -6.7160   23.8630 C   0  0  0  0  0  3  0  0  0  0  0  0
  -21.1960   -5.8950   25.0050 C   0  0  0  0  0  3  0  0  0  0  0  0
  -21.5420   -4.5320   24.9240 C   0  0  0  0  0  0  0  0  0  0  0  0
  -21.9790   -3.9900   23.7010 C   0  0  0  0  0  3  0  0  0  0  0  0
  -22.0720   -4.8080   22.5630 C   0  0  0  0  0  0  0  0  0  0  0  0
  -22.4750   -4.2720   21.3850 F   0  0  0  0  0  0  0  0  0  0  0  0
  -21.4490   -3.7430   26.0180 F   0  0  0  0  0  0  0  0  0  0  0  0
  -22.7090  -13.5860   21.2070 C   0  0  0  0  0  0  0  0  0  0  0  0
  -21.9960  -12.8720   22.0720 N   0  0  0  0  0  0  0  0  0  0  0  0
  -22.2490  -14.6040   20.6950 O   0  0  0  0  0  0  0  0  0  0  0  0
  -22.3740  -12.0480   22.5140 H   0  0  0  0  0  0  0  0  0  0  0  0
  -21.0550  -13.1650   22.2940 H   0  0  0  0  0  0  0  0  0  0  0  0
  -25.2910  -15.3130   20.3890 N   0  0  0  0  0  0  0  0  0  0  0  0
  -24.5210  -15.9520   20.5500 H   0  0  0  0  0  0  0  0  0  0  0  0
  -26.1060  -15.7720   20.0040 H   0  0  0  0  0  0  0  0  0  0  0  0
  1 51  1  0
  1  2  1  0
  2  4  1  0
  2  3  1  0
  5  7  1  0
  7  2  1  0
  7  6  1  0
  9  8  1  0
  9  1  1  0
  9 10  1  0
 11 22  2  0
 12 10  1  0
 12 17  1  0
 13 21  1  0
 13 23  1  0
 14 20  1  0
 14 16  1  0
 15 21  1  0
 16 15  1  0
 17 16  2  0
 18 19  1  0
 18 12  2  0
 19 14  2  0
 20 13  1  0
 21 11  1  0
 23 25  2  0
 24 23  1  0
 26 24  1  0
 27 36  2  0
 27 32  1  0
 28 24  1  0
 28 32  1  0
 29 28  1  0
 30 31  1  0
 30 29  1  0
 31 27  1  0
 32 33  2  0
 33 34  1  0
 35 34  2  0
 36 35  1  0
 37 11  1  0
 37 38  1  0
 37 47  1  0
 38 41  1  0
 39 43  1  0
 39 38  1  0
 40 39  2  0
 43 42  1  0
 45 43  1  0
 45 46  1  0
 45 44  1  0
 47 50  1  1
 47 48  1  0
 49 47  1  0
 52 53  1  0
 52 56  1  0
 55 54  1  0
 55 56  1  0
 55 57  1  0
 56 67  1  0
 58 51  1  0
 58 54  1  0
 58 53  1  0
 59 67  1  0
 60 65  1  0
 61 62  1  0
 61 60  1  0
 63 62  1  0
 63 72  1  0
 63 64  1  0
 65 59  1  0
 65 64  1  0
 66 59  2  0
 67 68  1  0
 69 70  2  0
 70 89  1  0
 71 70  1  0
 71 74  1  0
 72 69  1  0
 72 73  1  0
 73 71  2  0
 74 75  1  0
 75 76  2  0
 77 80  1  0
 77 76  1  0
 78 77  2  0
 79 78  1  0
 79 74  2  0
 80 81  1  0
 81 82  1  0
 82 83  2  0
 84 83  1  0
 84 88  1  0
 85 84  2  0
 86 81  2  0
 86 85  1  0
 87 86  1  0
 89 90  1  0
 90 93  1  0
 90 92  1  0
 91 89  2  0
 94 95  1  0
 94 69  1  0
 96 94  1  0
M  ISO  4   9 101  10 101  59 100  67 100
M  END
>  <TORSDO>  (76) 
F 21

>  <SCORE>  (76) 
-13.891

>  <name>  (76) 
76

>  <ligand_id>  (76) 
76

>  <original_smiles>  (76) 
[H]c1c([H])c([H])c2c(c1[H])C([H])([H])C([H])([H])C([H])([H])C2([H])N([H])C(=O)C1([H])N(C(=O)C([H])(N([H])C(=O)C([H])(N([H])C([H])([H])[H])C([H])([H])[H])C(C([H])([H])[H])(C([H])([H])[H])C([H])([H])[H])C([H])([H])c2c([H])c(OC([H])(C([H])([H])[H])C([H])(C([H])([H])N3C([H])([H])C([H])([H])C([H])(N([H])C(=O)N4C([H])([H])C([H])([H])C([H])([H])C([H])(n5nc(-c6c([H])c([H])c(Oc7c([H])c([H])c(F)c([H])c7F)c([H])c6[H])c(C(=O)N([H])[H])c5N([H])[H])C4([H])[H])C([H])(C([H])([H])[H])C3([H])[H])[N+]([H])([H])C([H])(C([H])([H])[H])C([H])([H])[H])c([H])c([H])c2C1([H])[H]

>  <smiles>  (76) 
[H]c1c([H])c([H])c2c(c1[H])C([H])([H])C([H])([H])C([H])([H])C2([H])N([H])C(=O)C1([H])N(C(=O)C([H])(N([H])C(=O)C([H])(N([H])C([H])([H])[H])C([H])([H])[H])C(C([H])([H])[H])(C([H])([H])[H])C([H])([H])[H])C([H])([H])c2c([H])c(OC([H])(C([H])([H])[H])C([H])(C([H])([H])N3C([H])([H])C([H])([H])C([H])(N([H])C(=O)N4C([H])([H])C([H])([H])C([H])([H])C([H])(n5nc(-c6c([H])c([H])c(Oc7c([H])c([H])c(F)c([H])c7F)c([H])c6[H])c(C(=O)N([H])[H])c5N([H])[H])C4([H])[H])C([H])(C([H])([H])[H])C3([H])[H])[N+]([H])([H])C([H])(C([H])([H])[H])C([H])([H])[H])c([H])c([H])c2C1([H])[H]

$$$$
77:0:0
     RDKit          3D

 93102  0  0  1  0  0  0  0  0999 V2000
  -29.1430  -21.8430   17.9180 C   0  0  0  0  0  3  0  0  0  0  0  0
  -28.6320  -22.9140   18.6610 C   0  0  0  0  0  3  0  0  0  0  0  0
  -29.4230  -20.6070   18.5360 C   0  0  0  0  0  0  0  0  0  0  0  0
  -29.1350  -20.4410   19.9230 C   0  0  0  0  0  0  0  0  0  0  0  0
  -28.4090  -22.7600   20.0330 C   0  0  0  0  0  0  0  0  0  0  0  0
  -30.0210  -19.5350   17.6310 C   0  0  0  0  0  1  0  0  0  0  0  0
  -28.6590  -21.5320   20.6360 N   0  0  0  0  0  0  0  0  0  0  0  0
  -30.6340  -14.7690   20.4320 C   0  0  0  0  0  0  0  0  0  0  0  0
  -30.3870  -12.5160   19.3690 C   0  0  0  0  0  2  0  0  0  0  0  0
  -29.4630  -12.5300   18.1350 C   0  0  0  0  0  2  0  0  0  0  0  0
  -28.0000  -12.3040   18.5550 C   0  0  0  0  0  2  0  0  0  0  0  0
  -27.5920  -13.2230   19.7290 C   0  0  0  0  0  3  0  0  0  0  0  0
  -28.6370  -13.2160   20.8700 C   0  0  0  0  0  2  0  0  0  0  0  0
  -29.9340  -13.5860   20.2940 N   0  0  0  0  0  0  0  0  0  0  0  0
  -31.8230  -14.7780   20.0960 O   0  0  0  0  0  0  0  0  0  0  0  0
  -28.4300  -17.8640   20.1310 C   0  0  0  0  0  2  0  0  0  0  0  0
  -30.7430  -18.4720   20.8470 C   0  0  0  0  0  2  0  0  0  0  0  0
  -28.6480  -16.4700   20.8410 C   0  0  0  0  0  2  0  0  0  0  0  0
  -30.8500  -17.0540   21.5230 C   0  0  0  0  0  2  0  0  0  0  0  0
  -29.2980  -19.0400   20.6710 C   0  0  0  0  0  3  0  0  0  0  0  0
  -30.0490  -15.9650   20.8880 N   0  0  0  0  0  0  0  0  0  0  0  0
  -25.2220  -13.8380   20.4790 C   0  0  0  0  0  0  0  0  0  0  0  0
  -24.1580  -13.0690   20.8640 C   0  0  0  0  0  0  0  0  0  0  0  0
  -24.6210  -11.7180   20.8420 C   0  0  0  0  0  0  0  0  0  0  0  0
  -26.2580  -12.9500   20.2370 N   0  0  0  0  0  0  0  0  0  0  0  0
  -25.9080  -11.6730   20.5290 N   0  0  0  0  0  0  0  0  0  0  0  0
  -23.8960  -10.4580   21.0380 C   0  0  0  0  0  0  0  0  0  0  0  0
  -24.3370   -9.4930   21.9680 C   0  0  0  0  0  3  0  0  0  0  0  0
  -23.6160   -8.2940   22.1480 C   0  0  0  0  0  3  0  0  0  0  0  0
  -22.4390   -8.0570   21.4000 C   0  0  0  0  0  0  0  0  0  0  0  0
  -22.0180   -9.0100   20.4560 C   0  0  0  0  0  3  0  0  0  0  0  0
  -22.7400  -10.2000   20.2730 C   0  0  0  0  0  3  0  0  0  0  0  0
  -21.6840   -6.9140   21.4930 O   0  0  0  0  0  0  0  0  0  0  0  0
  -21.6510   -6.1680   22.6430 C   0  0  0  0  0  0  0  0  0  0  0  0
  -21.2500   -6.7210   23.8790 C   0  0  0  0  0  3  0  0  0  0  0  0
  -21.1650   -5.9000   25.0220 C   0  0  0  0  0  3  0  0  0  0  0  0
  -21.4700   -4.5290   24.9300 C   0  0  0  0  0  0  0  0  0  0  0  0
  -21.8610   -3.9760   23.6980 C   0  0  0  0  0  3  0  0  0  0  0  0
  -21.9500   -4.7950   22.5580 C   0  0  0  0  0  0  0  0  0  0  0  0
  -22.3110   -4.2540   21.3680 F   0  0  0  0  0  0  0  0  0  0  0  0
  -21.3790   -3.7370   26.0240 F   0  0  0  0  0  0  0  0  0  0  0  0
  -22.7600  -13.5490   21.1310 C   0  0  0  0  0  0  0  0  0  0  0  0
  -22.0300  -12.8590   22.0010 N   0  0  0  0  0  0  0  0  0  0  0  0
  -22.3210  -14.5690   20.6000 O   0  0  0  0  0  0  0  0  0  0  0  0
  -22.3980  -12.0340   22.4540 H   0  0  0  0  0  0  0  0  0  0  0  0
  -21.0900  -13.1560   22.2180 H   0  0  0  0  0  0  0  0  0  0  0  0
  -25.3760  -15.2050   20.2820 N   0  0  0  0  0  0  0  0  0  0  0  0
  -24.5950  -15.8470   20.3550 H   0  0  0  0  0  0  0  0  0  0  0  0
  -26.2070  -15.6320   19.8950 H   0  0  0  0  0  0  0  0  0  0  0  0
  -27.3050  -23.5240   22.2160 C   0  0  0  0  0  1  0  0  0  0  0  0
  -27.7520  -23.9690   20.8100 C   0  0  0  0  0  3  0  0  0  0  0  0
  -28.5230  -25.3720   20.9310 C   0  0  0  0  0  2  0  0  0  0  0  0
  -28.3640  -26.5250   20.0270 O   0  0  0  0  0  0  0  0  0  0  0  0
  -24.6390  -31.8640   23.2150 C   0  0  0  0  0  0  0  0  0  0  0  0
  -27.2340  -27.3370   20.1220 C   0  0  0  0  0  0  0  0  0  0  0  0
  -23.4250  -30.4690   21.5740 C   0  0  0  0  0  3  0  0  0  0  0  0
  -24.8700  -28.9270   20.1370 C   0  0  0  0  0  0  0  0  0  0  0  0
  -25.9600  -30.8020   21.3720 C   0  0  0  0  0  2  0  0  0  0  0  0
  -26.0400  -29.4220   20.7290 C   0  0  0  0  0  0  0  0  0  0  0  0
  -27.2290  -28.6350   20.7160 C   0  0  0  0  0  3  0  0  0  0  0  0
  -26.0500  -26.8890   19.5080 C   0  0  0  0  0  3  0  0  0  0  0  0
  -24.8740  -27.6640   19.5230 C   0  0  0  0  0  3  0  0  0  0  0  0
  -23.6330  -29.8000   20.1910 C   0  0  0  0  0  2  0  0  0  0  0  0
  -24.6950  -31.0620   22.1120 N   0  0  0  0  0  0  0  0  0  0  0  0
  -23.5580  -32.1390   23.7570 O   0  0  0  0  0  0  0  0  0  0  0  0
  -22.7750  -29.4470   22.5340 C   0  0  0  0  0  0  0  0  0  0  0  0
  -21.4480  -29.2740   22.4220 N   0  0  0  0  0  0  0  0  0  0  0  0
  -23.4630  -28.8110   23.3390 O   0  0  0  0  0  0  0  0  0  0  0  0
  -20.9520  -29.8470   21.7550 H   0  0  0  0  0  0  0  0  0  0  0  0
  -18.0700  -28.0810   22.9320 C   0  0  0  0  0  0  0  0  0  0  0  0
  -20.6320  -28.3290   23.1890 C   0  0  0  0  0  3  0  0  0  0  0  0
  -20.7240  -26.9030   22.5980 C   0  0  0  0  0  2  0  0  0  0  0  0
  -19.6140  -26.5920   21.5890 C   0  0  0  0  0  2  0  0  0  0  0  0
  -18.2380  -26.7360   22.2460 C   0  0  0  0  0  2  0  0  0  0  0  0
  -19.1950  -28.8370   23.3600 C   0  0  0  0  0  0  0  0  0  0  0  0
  -18.9840  -30.0970   23.9600 C   0  0  0  0  0  3  0  0  0  0  0  0
  -17.6820  -30.6010   24.1400 C   0  0  0  0  0  3  0  0  0  0  0  0
  -16.5730  -29.8410   23.7300 C   0  0  0  0  0  3  0  0  0  0  0  0
  -16.7670  -28.5840   23.1320 C   0  0  0  0  0  3  0  0  0  0  0  0
  -25.9260  -32.4960   23.8330 C   0  0  0  0  0  3  0  0  0  0  0  0
  -25.6130  -33.8880   24.1880 N   0  0  0  0  0  0  0  0  0  0  0  0
  -25.9290  -34.9530   23.4420 C   0  0  0  0  0  0  0  0  0  0  0  0
  -26.5860  -34.8690   22.4010 O   0  0  0  0  0  0  0  0  0  0  0  0
  -25.0300  -34.0300   25.0010 H   0  0  0  0  0  0  0  0  0  0  0  0
  -24.1840  -36.7400   23.1430 C   0  0  0  0  0  1  0  0  0  0  0  0
  -25.4400  -36.3320   23.9290 C   0  0  0  0  0  3  0  0  0  0  0  0
  -27.5820  -37.2150   24.7390 C   0  0  0  0  0  1  0  0  0  0  0  0
  -26.4640  -37.3940   23.8190 N   0  0  0  0  0  0  0  0  0  0  0  0
  -26.0540  -38.3080   23.9920 H   0  0  0  0  0  0  0  0  0  0  0  0
  -26.4580  -31.7060   25.0910 C   0  0  1  0  0  0  0  0  0  0  0  0
  -25.3790  -31.4450   26.1710 C   0  0  0  0  0  1  0  0  0  0  0  0
  -27.0390  -30.3370   24.6680 C   0  0  0  0  0  1  0  0  0  0  0  0
  -27.6150  -32.4930   25.7520 C   0  0  0  0  0  1  0  0  0  0  0  0
  1  3  2  0
  1  2  1  0
  2  5  2  0
  3  4  1  0
  4  7  2  0
  5  7  1  0
  5 51  1  0
  6  3  1  0
  8 21  1  0
  9 14  1  0
 10 11  1  0
 10  9  1  0
 12 11  1  0
 12 25  1  0
 12 13  1  0
 14  8  1  0
 14 13  1  0
 15  8  2  0
 16 20  1  0
 16 18  1  0
 17 19  1  0
 18 21  1  0
 20  4  1  0
 20 17  1  0
 21 19  1  0
 22 23  2  0
 23 42  1  0
 24 23  1  0
 24 27  1  0
 25 22  1  0
 25 26  1  0
 26 24  2  0
 27 28  1  0
 28 29  2  0
 30 33  1  0
 30 29  1  0
 31 30  2  0
 32 31  1  0
 32 27  2  0
 33 34  1  0
 34 35  1  0
 35 36  2  0
 37 36  1  0
 37 41  1  0
 38 37  2  0
 39 34  2  0
 39 38  1  0
 40 39  1  0
 42 43  1  0
 43 46  1  0
 43 45  1  0
 44 42  2  0
 47 48  1  0
 47 22  1  0
 49 47  1  0
 51 52  1  0
 51 50  1  0
 53 55  1  0
 53 52  1  0
 54 65  2  0
 55 60  1  0
 56 64  1  0
 56 66  1  0
 57 63  1  0
 57 59  1  0
 58 64  1  0
 59 58  1  0
 60 59  2  0
 61 62  1  0
 61 55  2  0
 62 57  2  0
 63 56  1  0
 64 54  1  0
 66 68  2  0
 67 66  1  0
 69 67  1  0
 70 79  2  0
 70 75  1  0
 71 67  1  0
 71 75  1  0
 72 71  1  0
 73 74  1  0
 73 72  1  0
 74 70  1  0
 75 76  2  0
 76 77  1  0
 78 77  2  0
 79 78  1  0
 80 54  1  0
 80 81  1  0
 80 90  1  0
 81 84  1  0
 82 86  1  0
 82 81  1  0
 83 82  2  0
 86 85  1  0
 88 86  1  0
 88 89  1  0
 88 87  1  0
 90 93  1  1
 90 91  1  0
 92 90  1  0
M  ISO  4   8 100  21 100  52 101  53 101
M  END
>  <TORSDO>  (77) 
F 18

>  <SCORE>  (77) 
-14.639

>  <name>  (77) 
77

>  <ligand_id>  (77) 
77

>  <original_smiles>  (77) 
[H]c1c(C([H])(C([H])([H])[H])C([H])([H])Oc2c([H])c([H])c3c(c2[H])C([H])([H])N(C(=O)C([H])(N([H])C(=O)C([H])(N([H])C([H])([H])[H])C([H])([H])[H])C(C([H])([H])[H])(C([H])([H])[H])C([H])([H])[H])C([H])(C(=O)N([H])C2([H])c4c([H])c([H])c([H])c([H])c4C([H])([H])C([H])([H])C2([H])[H])C3([H])[H])nc(C2([H])C([H])([H])C([H])([H])N(C(=O)N3C([H])([H])C([H])([H])C([H])([H])C([H])(n4nc(-c5c([H])c([H])c(Oc6c([H])c([H])c(F)c([H])c6F)c([H])c5[H])c(C(=O)N([H])[H])c4N([H])[H])C3([H])[H])C([H])([H])C2([H])[H])c(C([H])([H])[H])c1[H]

>  <smiles>  (77) 
[H]c1c(C([H])(C([H])([H])[H])C([H])([H])Oc2c([H])c([H])c3c(c2[H])C([H])([H])N(C(=O)C([H])(N([H])C(=O)C([H])(N([H])C([H])([H])[H])C([H])([H])[H])C(C([H])([H])[H])(C([H])([H])[H])C([H])([H])[H])C([H])(C(=O)N([H])C2([H])c4c([H])c([H])c([H])c([H])c4C([H])([H])C([H])([H])C2([H])[H])C3([H])[H])nc(C2([H])C([H])([H])C([H])([H])N(C(=O)N3C([H])([H])C([H])([H])C([H])([H])C([H])(n4nc(-c5c([H])c([H])c(Oc6c([H])c([H])c(F)c([H])c6F)c([H])c5[H])c(C(=O)N([H])[H])c4N([H])[H])C3([H])[H])C([H])([H])C2([H])[H])c(C([H])([H])[H])c1[H]

$$$$
78:0:0
     RDKit          3D

 93101  0  0  1  0  0  0  0  0999 V2000
  -31.4460  -21.9120   21.4050 C   0  0  0  0  0  3  0  0  0  0  0  0
  -30.7550  -21.0970   22.3160 C   0  0  0  0  0  3  0  0  0  0  0  0
  -30.7800  -22.3470   20.2370 C   0  0  0  0  0  0  0  0  0  0  0  0
  -29.4080  -21.9960   20.1010 C   0  0  0  0  0  3  0  0  0  0  0  0
  -29.1920  -20.6360   20.7070 C   0  0  0  0  0  3  0  0  0  0  0  0
  -29.6220  -20.4590   21.9730 N   0  0  0  0  0  0  0  0  0  0  0  0
  -32.4920  -22.3860   18.3920 C   0  0  0  0  0  1  0  0  0  0  0  0
  -32.2990  -24.3830   19.9170 C   0  0  0  0  0  1  0  0  0  0  0  0
  -31.5320  -23.2290   19.2410 C   0  0  0  0  0  3  0  0  0  0  0  0
  -28.4530  -23.3400   20.3880 C   0  0  0  0  0  2  0  0  0  0  0  0
  -28.3420  -24.8600   18.1940 C   0  0  0  0  0  1  0  0  0  0  0  0
  -28.5990  -24.8960   19.7100 C   0  0  0  0  0  3  0  0  0  0  0  0
  -28.3550  -26.3310   20.2880 O   0  0  0  0  0  0  0  0  0  0  0  0
  -24.6430  -31.9340   23.2580 C   0  0  0  0  0  0  0  0  0  0  0  0
  -27.2480  -27.2510   20.1910 C   0  0  0  0  0  0  0  0  0  0  0  0
  -23.4470  -30.5320   21.6190 C   0  0  0  0  0  3  0  0  0  0  0  0
  -24.8990  -28.9700   20.1800 C   0  0  0  0  0  0  0  0  0  0  0  0
  -25.9960  -30.8220   21.4410 C   0  0  0  0  0  2  0  0  0  0  0  0
  -26.0760  -29.4320   20.7820 C   0  0  0  0  0  0  0  0  0  0  0  0
  -27.2450  -28.5860   20.7690 C   0  0  0  0  0  3  0  0  0  0  0  0
  -26.0350  -26.8780   19.5770 C   0  0  0  0  0  3  0  0  0  0  0  0
  -24.8910  -27.7100   19.5620 C   0  0  0  0  0  3  0  0  0  0  0  0
  -23.6650  -29.8550   20.2380 C   0  0  0  0  0  2  0  0  0  0  0  0
  -24.7170  -31.1180   22.1610 N   0  0  0  0  0  0  0  0  0  0  0  0
  -23.5570  -32.2070   23.7920 O   0  0  0  0  0  0  0  0  0  0  0  0
  -22.7810  -29.5190   22.5850 C   0  0  0  0  0  0  0  0  0  0  0  0
  -21.4560  -29.3270   22.4550 N   0  0  0  0  0  0  0  0  0  0  0  0
  -23.4590  -28.9080   23.4130 O   0  0  0  0  0  0  0  0  0  0  0  0
  -20.9620  -29.8780   21.7660 H   0  0  0  0  0  0  0  0  0  0  0  0
  -18.0960  -28.0590   22.9340 C   0  0  0  0  0  0  0  0  0  0  0  0
  -20.6470  -28.3790   23.2260 C   0  0  0  0  0  3  0  0  0  0  0  0
  -20.7840  -26.9440   22.6670 C   0  0  0  0  0  2  0  0  0  0  0  0
  -19.7010  -26.5890   21.6440 C   0  0  0  0  0  2  0  0  0  0  0  0
  -18.3090  -26.7090   22.2710 C   0  0  0  0  0  2  0  0  0  0  0  0
  -19.1930  -28.8500   23.3680 C   0  0  0  0  0  0  0  0  0  0  0  0
  -18.9390  -30.1120   23.9480 C   0  0  0  0  0  3  0  0  0  0  0  0
  -17.6210  -30.5840   24.0970 C   0  0  0  0  0  3  0  0  0  0  0  0
  -16.5390  -29.7910   23.6790 C   0  0  0  0  0  3  0  0  0  0  0  0
  -16.7770  -28.5300   23.1030 C   0  0  0  0  0  3  0  0  0  0  0  0
  -25.9190  -32.5800   23.8820 C   0  0  0  0  0  3  0  0  0  0  0  0
  -25.6020  -33.9810   24.2040 N   0  0  0  0  0  0  0  0  0  0  0  0
  -25.9330  -35.0340   23.4440 C   0  0  0  0  0  0  0  0  0  0  0  0
  -26.6020  -34.9270   22.4120 O   0  0  0  0  0  0  0  0  0  0  0  0
  -25.0090  -34.1370   25.0060 H   0  0  0  0  0  0  0  0  0  0  0  0
  -24.2030  -36.8270   23.0870 C   0  0  0  0  0  1  0  0  0  0  0  0
  -25.4460  -36.4250   23.8970 C   0  0  0  0  0  3  0  0  0  0  0  0
  -27.5810  -37.3170   24.7200 C   0  0  0  0  0  1  0  0  0  0  0  0
  -26.4770  -37.4790   23.7790 N   0  0  0  0  0  0  0  0  0  0  0  0
  -26.0680  -38.3980   23.9260 H   0  0  0  0  0  0  0  0  0  0  0  0
  -26.4270  -31.8270   25.1720 C   0  0  1  0  0  0  0  0  0  0  0  0
  -25.3300  -31.6050   26.2400 C   0  0  0  0  0  1  0  0  0  0  0  0
  -27.0140  -30.4450   24.8060 C   0  0  0  0  0  1  0  0  0  0  0  0
  -27.5740  -32.6310   25.8310 C   0  0  0  0  0  1  0  0  0  0  0  0
  -29.0250  -19.1200   20.0650 C   0  0  0  0  0  2  0  0  0  0  0  0
  -30.0710  -17.8050   20.3400 C   0  0  0  0  0  2  0  0  0  0  0  0
  -30.4860  -15.0750   20.0900 C   0  0  0  0  0  0  0  0  0  0  0  0
  -30.3370  -12.7380   19.1220 C   0  0  0  0  0  2  0  0  0  0  0  0
  -29.3680  -12.7170   17.9180 C   0  0  0  0  0  2  0  0  0  0  0  0
  -27.9140  -12.5110   18.3870 C   0  0  0  0  0  2  0  0  0  0  0  0
  -27.5470  -13.4100   19.5960 C   0  0  0  0  0  3  0  0  0  0  0  0
  -28.6390  -13.3960   20.6860 C   0  0  0  0  0  2  0  0  0  0  0  0
  -29.8860  -13.8200   20.0400 N   0  0  0  0  0  0  0  0  0  0  0  0
  -31.6880  -15.1400   19.8140 O   0  0  0  0  0  0  0  0  0  0  0  0
  -29.7080  -16.2610   20.2400 N   0  0  0  0  0  0  0  0  0  0  0  0
  -28.7250  -16.0710   20.3670 H   0  0  0  0  0  0  0  0  0  0  0  0
  -25.1830  -13.9720   20.3990 C   0  0  0  0  0  0  0  0  0  0  0  0
  -24.1330  -13.1900   20.7940 C   0  0  0  0  0  0  0  0  0  0  0  0
  -24.6060  -11.8420   20.7520 C   0  0  0  0  0  0  0  0  0  0  0  0
  -26.2250  -13.1010   20.1320 N   0  0  0  0  0  0  0  0  0  0  0  0
  -25.8890  -11.8140   20.4110 N   0  0  0  0  0  0  0  0  0  0  0  0
  -23.8900  -10.5740   20.9590 C   0  0  0  0  0  0  0  0  0  0  0  0
  -24.3420   -9.6140   21.8890 C   0  0  0  0  0  3  0  0  0  0  0  0
  -23.6270   -8.4130   22.0850 C   0  0  0  0  0  3  0  0  0  0  0  0
  -22.4440   -8.1650   21.3490 C   0  0  0  0  0  0  0  0  0  0  0  0
  -22.0100   -9.1130   20.4070 C   0  0  0  0  0  3  0  0  0  0  0  0
  -22.7260  -10.3050   20.2100 C   0  0  0  0  0  3  0  0  0  0  0  0
  -21.6980   -7.0160   21.4550 O   0  0  0  0  0  0  0  0  0  0  0  0
  -21.6670   -6.2810   22.6110 C   0  0  0  0  0  0  0  0  0  0  0  0
  -21.2490   -6.8400   23.8380 C   0  0  0  0  0  3  0  0  0  0  0  0
  -21.1660   -6.0320   24.9900 C   0  0  0  0  0  3  0  0  0  0  0  0
  -21.4910   -4.6630   24.9140 C   0  0  0  0  0  0  0  0  0  0  0  0
  -21.9020   -4.1030   23.6910 C   0  0  0  0  0  3  0  0  0  0  0  0
  -21.9860   -4.9090   22.5430 C   0  0  0  0  0  0  0  0  0  0  0  0
  -22.3630   -4.3600   21.3630 F   0  0  0  0  0  0  0  0  0  0  0  0
  -21.4040   -3.8840   26.0170 F   0  0  0  0  0  0  0  0  0  0  0  0
  -22.7390  -13.6600   21.0920 C   0  0  0  0  0  0  0  0  0  0  0  0
  -22.0320  -12.9590   21.9720 N   0  0  0  0  0  0  0  0  0  0  0  0
  -22.2850  -14.6820   20.5780 O   0  0  0  0  0  0  0  0  0  0  0  0
  -22.4090  -12.1330   22.4120 H   0  0  0  0  0  0  0  0  0  0  0  0
  -21.0980  -13.2590   22.2140 H   0  0  0  0  0  0  0  0  0  0  0  0
  -25.3300  -15.3460   20.2160 N   0  0  0  0  0  0  0  0  0  0  0  0
  -24.5540  -15.9880   20.3370 H   0  0  0  0  0  0  0  0  0  0  0  0
  -26.1450  -15.7850   19.8120 H   0  0  0  0  0  0  0  0  0  0  0  0
  1  2  1  0
  3  1  2  0
  4  3  1  0
  4 10  1  0
  4  5  1  0
  5 54  1  0
  5  6  1  0
  6  2  2  0
  7  9  1  0
  9  8  1  0
  9  3  1  0
 12 11  1  0
 12 13  1  0
 12 10  1  0
 14 25  2  0
 15 13  1  0
 15 20  1  0
 16 24  1  0
 16 26  1  0
 17 23  1  0
 17 19  1  0
 18 24  1  0
 19 18  1  0
 20 19  2  0
 21 15  2  0
 22 21  1  0
 22 17  2  0
 23 16  1  0
 24 14  1  0
 26 28  2  0
 27 26  1  0
 29 27  1  0
 30 39  2  0
 30 35  1  0
 31 27  1  0
 31 35  1  0
 32 31  1  0
 33 34  1  0
 33 32  1  0
 34 30  1  0
 35 36  2  0
 36 37  1  0
 38 37  2  0
 39 38  1  0
 40 14  1  0
 40 41  1  0
 40 50  1  0
 41 44  1  0
 42 46  1  0
 42 41  1  0
 43 42  2  0
 46 45  1  0
 48 46  1  0
 48 49  1  0
 48 47  1  0
 50 53  1  1
 50 51  1  0
 52 50  1  0
 54 55  1  0
 56 64  1  0
 57 62  1  0
 58 59  1  0
 58 57  1  0
 60 59  1  0
 60 69  1  0
 60 61  1  0
 62 56  1  0
 62 61  1  0
 63 56  2  0
 64 55  1  0
 64 65  1  0
 66 67  2  0
 67 86  1  0
 68 67  1  0
 68 71  1  0
 69 66  1  0
 69 70  1  0
 70 68  2  0
 71 72  1  0
 72 73  2  0
 74 77  1  0
 74 73  1  0
 75 74  2  0
 76 75  1  0
 76 71  2  0
 77 78  1  0
 78 79  1  0
 79 80  2  0
 81 80  1  0
 81 85  1  0
 82 81  2  0
 83 78  2  0
 83 82  1  0
 84 83  1  0
 86 87  1  0
 87 90  1  0
 87 89  1  0
 88 86  2  0
 91 92  1  0
 91 66  1  0
 93 91  1  0
M  ISO  4  12 101  13 101  56 100  64 100
M  END
>  <TORSDO>  (78) 
F 21

>  <SCORE>  (78) 
-14.787

>  <name>  (78) 
78

>  <ligand_id>  (78) 
78

>  <original_smiles>  (78) 
[H]c1nc(C([H])([H])C([H])([H])N([H])C(=O)N2C([H])([H])C([H])([H])C([H])([H])C([H])(n3nc(-c4c([H])c([H])c(Oc5c([H])c([H])c(F)c([H])c5F)c([H])c4[H])c(C(=O)N([H])[H])c3N([H])[H])C2([H])[H])c(C([H])([H])C([H])(Oc2c([H])c([H])c3c(c2[H])C([H])([H])N(C(=O)C([H])(N([H])C(=O)C([H])(N([H])C([H])([H])[H])C([H])([H])[H])C(C([H])([H])[H])(C([H])([H])[H])C([H])([H])[H])C([H])(C(=O)N([H])C2([H])c4c([H])c([H])c([H])c([H])c4C([H])([H])C([H])([H])C2([H])[H])C3([H])[H])C([H])([H])[H])c(C([H])(C([H])([H])[H])C([H])([H])[H])c1[H]

>  <smiles>  (78) 
[H]c1nc(C([H])([H])C([H])([H])N([H])C(=O)N2C([H])([H])C([H])([H])C([H])([H])C([H])(n3nc(-c4c([H])c([H])c(Oc5c([H])c([H])c(F)c([H])c5F)c([H])c4[H])c(C(=O)N([H])[H])c3N([H])[H])C2([H])[H])c(C([H])([H])C([H])(Oc2c([H])c([H])c3c(c2[H])C([H])([H])N(C(=O)C([H])(N([H])C(=O)C([H])(N([H])C([H])([H])[H])C([H])([H])[H])C(C([H])([H])[H])(C([H])([H])[H])C([H])([H])[H])C([H])(C(=O)N([H])C2([H])c4c([H])c([H])c([H])c([H])c4C([H])([H])C([H])([H])C2([H])[H])C3([H])[H])C([H])([H])[H])c(C([H])(C([H])([H])[H])C([H])([H])[H])c1[H]

$$$$
79:0:0
     RDKit          3D

 88 96  0  0  1  0  0  0  0  0999 V2000
  -29.6210  -22.8080   21.8140 C   0  0  0  0  0  1  0  0  0  0  0  0
  -29.1100  -22.4350   20.4040 C   0  0  0  0  0  3  0  0  0  0  0  0
  -30.4250  -15.5940   19.9910 C   0  0  0  0  0  0  0  0  0  0  0  0
  -30.4420  -13.1040   19.1000 C   0  0  0  0  0  2  0  0  0  0  0  0
  -29.4850  -12.7730   17.9230 C   0  0  0  0  0  2  0  0  0  0  0  0
  -28.0840  -12.4200   18.4450 C   0  0  0  0  0  2  0  0  0  0  0  0
  -27.6380  -13.3850   19.5690 C   0  0  0  0  0  3  0  0  0  0  0  0
  -28.7270  -13.6490   20.6330 C   0  0  0  0  0  2  0  0  0  0  0  0
  -29.8710  -14.2560   19.9220 N   0  0  0  0  0  0  0  0  0  0  0  0
  -31.6410  -15.5350   19.7270 O   0  0  0  0  0  0  0  0  0  0  0  0
  -29.4680  -18.0780   19.0130 C   0  0  0  0  0  2  0  0  0  0  0  0
  -29.7200  -18.0170   21.2550 C   0  0  0  0  0  2  0  0  0  0  0  0
  -28.8180  -19.7010   19.1560 C   0  0  0  0  0  2  0  0  0  0  0  0
  -29.9520  -19.7180   21.1440 C   0  0  0  0  0  3  0  0  0  0  0  0
  -31.4160  -19.9670   20.6980 C   0  0  0  0  0  1  0  0  0  0  0  0
  -29.7180  -16.9610   20.1000 N   0  0  0  0  0  0  0  0  0  0  0  0
  -28.9630  -20.6800   20.3800 N   0  0  1  0  0  4  0  0  0  0  0  0
  -28.0930  -20.5410   20.8770 H   0  0  0  0  0  0  0  0  0  0  0  0
  -25.3150  -13.8680   20.4820 C   0  0  0  0  0  0  0  0  0  0  0  0
  -24.2870  -13.0630   20.8790 C   0  0  0  0  0  0  0  0  0  0  0  0
  -24.7710  -11.7210   20.7790 C   0  0  0  0  0  0  0  0  0  0  0  0
  -26.3550  -13.0190   20.1500 N   0  0  0  0  0  0  0  0  0  0  0  0
  -26.0460  -11.7190   20.3970 N   0  0  0  0  0  0  0  0  0  0  0  0
  -24.0710  -10.4430   20.9660 C   0  0  0  0  0  0  0  0  0  0  0  0
  -24.5190   -9.4830   21.8990 C   0  0  0  0  0  3  0  0  0  0  0  0
  -23.8130   -8.2730   22.0770 C   0  0  0  0  0  3  0  0  0  0  0  0
  -22.6450   -8.0150   21.3210 C   0  0  0  0  0  0  0  0  0  0  0  0
  -22.2160   -8.9630   20.3760 C   0  0  0  0  0  3  0  0  0  0  0  0
  -22.9230  -10.1640   20.1970 C   0  0  0  0  0  3  0  0  0  0  0  0
  -21.9110   -6.8560   21.4070 O   0  0  0  0  0  0  0  0  0  0  0  0
  -21.8130   -6.1510   22.5800 C   0  0  0  0  0  0  0  0  0  0  0  0
  -21.2850   -6.7290   23.7550 C   0  0  0  0  0  3  0  0  0  0  0  0
  -21.1380   -5.9500   24.9180 C   0  0  0  0  0  3  0  0  0  0  0  0
  -21.5090   -4.5910   24.9080 C   0  0  0  0  0  0  0  0  0  0  0  0
  -22.0300   -4.0120   23.7370 C   0  0  0  0  0  3  0  0  0  0  0  0
  -22.1780   -4.7900   22.5760 C   0  0  0  0  0  0  0  0  0  0  0  0
  -22.6600   -4.2220   21.4450 F   0  0  0  0  0  0  0  0  0  0  0  0
  -21.3610   -3.8390   26.0230 F   0  0  0  0  0  0  0  0  0  0  0  0
  -22.9000  -13.5110   21.2340 C   0  0  0  0  0  0  0  0  0  0  0  0
  -22.2300  -12.7870   22.1220 N   0  0  0  0  0  0  0  0  0  0  0  0
  -22.4220  -14.5410   20.7590 O   0  0  0  0  0  0  0  0  0  0  0  0
  -22.6330  -11.9550   22.5280 H   0  0  0  0  0  0  0  0  0  0  0  0
  -21.3020  -13.0690   22.4030 H   0  0  0  0  0  0  0  0  0  0  0  0
  -25.4500  -15.2470   20.3430 N   0  0  0  0  0  0  0  0  0  0  0  0
  -24.6840  -15.8860   20.5260 H   0  0  0  0  0  0  0  0  0  0  0  0
  -26.2810  -15.7110   19.9970 H   0  0  0  0  0  0  0  0  0  0  0  0
  -28.0270  -23.9630   20.1200 C   0  0  0  0  0  2  0  0  0  0  0  0
  -28.1840  -25.6770   20.2990 O   0  0  0  0  0  0  0  0  0  0  0  0
  -24.6260  -31.8210   23.2630 C   0  0  0  0  0  0  0  0  0  0  0  0
  -27.1880  -26.8400   20.2420 C   0  0  0  0  0  0  0  0  0  0  0  0
  -23.4440  -30.4290   21.6160 C   0  0  0  0  0  3  0  0  0  0  0  0
  -24.9000  -28.8090   20.1940 C   0  0  0  0  0  0  0  0  0  0  0  0
  -26.0180  -30.6080   21.4890 C   0  0  0  0  0  2  0  0  0  0  0  0
  -26.0900  -29.1870   20.8260 C   0  0  0  0  0  0  0  0  0  0  0  0
  -27.2230  -28.2290   20.8180 C   0  0  0  0  0  3  0  0  0  0  0  0
  -25.9630  -26.6530   19.5570 C   0  0  0  0  0  3  0  0  0  0  0  0
  -24.8700  -27.5680   19.5360 C   0  0  0  0  0  3  0  0  0  0  0  0
  -23.6850  -29.7450   20.2400 C   0  0  0  0  0  2  0  0  0  0  0  0
  -24.7190  -30.9840   22.1770 N   0  0  0  0  0  0  0  0  0  0  0  0
  -23.5330  -32.1110   23.7780 O   0  0  0  0  0  0  0  0  0  0  0  0
  -22.7380  -29.4370   22.5790 C   0  0  0  0  0  0  0  0  0  0  0  0
  -21.4110  -29.2600   22.4390 N   0  0  0  0  0  0  0  0  0  0  0  0
  -23.3960  -28.8260   23.4250 O   0  0  0  0  0  0  0  0  0  0  0  0
  -20.9310  -29.8050   21.7370 H   0  0  0  0  0  0  0  0  0  0  0  0
  -18.0400  -27.9900   22.9030 C   0  0  0  0  0  0  0  0  0  0  0  0
  -20.5900  -28.3130   23.2040 C   0  0  0  0  0  3  0  0  0  0  0  0
  -20.7280  -26.8780   22.6420 C   0  0  0  0  0  2  0  0  0  0  0  0
  -19.6500  -26.5270   21.6120 C   0  0  0  0  0  2  0  0  0  0  0  0
  -18.2550  -26.6440   22.2330 C   0  0  0  0  0  2  0  0  0  0  0  0
  -19.1350  -28.7820   23.3440 C   0  0  0  0  0  0  0  0  0  0  0  0
  -18.8760  -30.0370   23.9340 C   0  0  0  0  0  3  0  0  0  0  0  0
  -17.5560  -30.5050   24.0840 C   0  0  0  0  0  3  0  0  0  0  0  0
  -16.4760  -29.7140   23.6560 C   0  0  0  0  0  3  0  0  0  0  0  0
  -16.7190  -28.4580   23.0720 C   0  0  0  0  0  3  0  0  0  0  0  0
  -25.8890  -32.4710   23.9060 C   0  0  0  0  0  3  0  0  0  0  0  0
  -25.5610  -33.8680   24.2500 N   0  0  0  0  0  0  0  0  0  0  0  0
  -25.8550  -34.9360   23.4960 C   0  0  0  0  0  0  0  0  0  0  0  0
  -26.4890  -34.8500   22.4410 O   0  0  0  0  0  0  0  0  0  0  0  0
  -24.9910  -34.0060   25.0710 H   0  0  0  0  0  0  0  0  0  0  0  0
  -24.0760  -36.7050   23.2590 C   0  0  0  0  0  1  0  0  0  0  0  0
  -25.3730  -36.3190   23.9860 C   0  0  0  0  0  3  0  0  0  0  0  0
  -27.5350  -37.2570   24.6850 C   0  0  0  0  0  1  0  0  0  0  0  0
  -26.3770  -37.3930   23.8060 N   0  0  0  0  0  0  0  0  0  0  0  0
  -25.9600  -38.3050   23.9680 H   0  0  0  0  0  0  0  0  0  0  0  0
  -26.3890  -31.7060   25.1960 C   0  0  1  0  0  0  0  0  0  0  0  0
  -25.2830  -31.4770   26.2540 C   0  0  0  0  0  1  0  0  0  0  0  0
  -26.9730  -30.3240   24.8290 C   0  0  0  0  0  1  0  0  0  0  0  0
  -27.5340  -32.5020   25.8650 C   0  0  0  0  0  1  0  0  0  0  0  0
  2  1  1  0
  3 16  1  0
  4  9  1  0
  5  6  1  0
  5  4  1  0
  7  6  1  0
  7 22  1  0
  7  8  1  0
  9  3  1  0
  9  8  1  0
 10  3  2  0
 11 13  1  0
 11 16  1  0
 13 17  1  0
 14 15  1  0
 14 12  1  0
 16 12  1  0
 17  2  1  0
 17 18  1  1
 17 14  1  0
 19 20  2  0
 20 39  1  0
 21 20  1  0
 21 24  1  0
 22 23  1  0
 22 19  1  0
 23 21  2  0
 24 25  1  0
 25 26  2  0
 27 30  1  0
 27 26  1  0
 28 27  2  0
 29 28  1  0
 29 24  2  0
 30 31  1  0
 31 32  1  0
 32 33  2  0
 34 33  1  0
 34 38  1  0
 35 34  2  0
 36 31  2  0
 36 35  1  0
 37 36  1  0
 39 40  1  0
 40 43  1  0
 40 42  1  0
 41 39  2  0
 44 19  1  0
 44 45  1  0
 46 44  1  0
 47 48  1  0
 47  2  1  0
 49 60  2  0
 50 48  1  0
 50 55  1  0
 51 59  1  0
 51 61  1  0
 52 58  1  0
 52 54  1  0
 53 59  1  0
 54 53  1  0
 55 54  2  0
 56 50  2  0
 57 56  1  0
 57 52  2  0
 58 51  1  0
 59 49  1  0
 61 63  2  0
 62 61  1  0
 64 62  1  0
 65 74  2  0
 65 70  1  0
 66 62  1  0
 66 70  1  0
 67 66  1  0
 68 69  1  0
 68 67  1  0
 69 65  1  0
 70 71  2  0
 71 72  1  0
 73 72  2  0
 74 73  1  0
 75 49  1  0
 75 76  1  0
 75 85  1  0
 76 79  1  0
 77 81  1  0
 77 76  1  0
 78 77  2  0
 81 80  1  0
 83 84  1  0
 83 81  1  0
 83 82  1  0
 85 88  1  1
 85 86  1  0
 87 85  1  0
M  ISO  4   3 100  16 100  47 101  48 101
M  END
>  <TORSDO>  (79) 
F 17

>  <SCORE>  (79) 
-16.390

>  <name>  (79) 
79

>  <ligand_id>  (79) 
79

>  <original_smiles>  (79) 
[H]c1c([H])c([H])c2c(c1[H])C([H])([H])C([H])([H])C([H])([H])C2([H])N([H])C(=O)C1([H])N(C(=O)C([H])(N([H])C(=O)C([H])(N([H])C([H])([H])[H])C([H])([H])[H])C(C([H])([H])[H])(C([H])([H])[H])C([H])([H])[H])C([H])([H])c2c([H])c(OC([H])([H])C([H])(C([H])([H])[H])[N+]3([H])C([H])([H])C([H])([H])N(C(=O)N4C([H])([H])C([H])([H])C([H])([H])C([H])(n5nc(-c6c([H])c([H])c(Oc7c([H])c([H])c(F)c([H])c7F)c([H])c6[H])c(C(=O)N([H])[H])c5N([H])[H])C4([H])[H])C([H])([H])C3([H])C([H])([H])[H])c([H])c([H])c2C1([H])[H]

>  <smiles>  (79) 
[H]c1c([H])c([H])c2c(c1[H])C([H])([H])C([H])([H])C([H])([H])C2([H])N([H])C(=O)C1([H])N(C(=O)C([H])(N([H])C(=O)C([H])(N([H])C([H])([H])[H])C([H])([H])[H])C(C([H])([H])[H])(C([H])([H])[H])C([H])([H])[H])C([H])([H])c2c([H])c(OC([H])([H])C([H])(C([H])([H])[H])[N+]3([H])C([H])([H])C([H])([H])N(C(=O)N4C([H])([H])C([H])([H])C([H])([H])C([H])(n5nc(-c6c([H])c([H])c(Oc7c([H])c([H])c(F)c([H])c7F)c([H])c6[H])c(C(=O)N([H])[H])c5N([H])[H])C4([H])[H])C([H])([H])C3([H])C([H])([H])[H])c([H])c([H])c2C1([H])[H]

$$$$
80:0:0
     RDKit          3D

 94103  0  0  1  0  0  0  0  0999 V2000
  -27.8280  -22.7370   21.3780 C   0  0  0  0  0  3  0  0  0  0  0  0
  -27.5870  -21.4190   21.7710 C   0  0  0  0  0  3  0  0  0  0  0  0
  -29.0600  -23.0050   20.7600 C   0  0  0  0  0  0  0  0  0  0  0  0
  -29.6260  -20.7960   20.9890 C   0  0  0  0  0  0  0  0  0  0  0  0
  -28.4980  -20.4490   21.5800 N   0  0  0  0  0  0  0  0  0  0  0  0
  -29.9620  -22.0130   20.5740 N   0  0  0  0  0  0  0  0  0  0  0  0
  -30.5500  -19.7940   20.7820 N   0  0  0  0  0  0  0  0  0  0  0  0
  -31.3770  -20.1040   20.2910 H   0  0  0  0  0  0  0  0  0  0  0  0
  -30.1990  -18.3820   20.5770 C   0  0  0  0  0  2  0  0  0  0  0  0
  -31.6810  -15.1260   20.0440 C   0  0  0  0  0  0  0  0  0  0  0  0
  -31.4260  -12.7710   19.4040 C   0  0  0  0  0  2  0  0  0  0  0  0
  -30.5050  -12.5940   18.1770 C   0  0  0  0  0  2  0  0  0  0  0  0
  -29.0320  -12.5360   18.6050 C   0  0  0  0  0  2  0  0  0  0  0  0
  -28.6280  -13.6380   19.6210 C   0  0  0  0  0  3  0  0  0  0  0  0
  -29.6620  -13.7850   20.7560 C   0  0  0  0  0  2  0  0  0  0  0  0
  -30.9820  -13.9620   20.1420 N   0  0  0  0  0  0  0  0  0  0  0  0
  -32.9100  -15.1550   19.9740 O   0  0  0  0  0  0  0  0  0  0  0  0
  -31.9980  -17.2500   17.6200 C   0  0  0  0  0  2  0  0  0  0  0  0
  -31.8730  -18.3120   18.6800 C   0  0  0  0  0  2  0  0  0  0  0  0
  -30.9560  -16.2400   18.0720 C   0  0  0  0  0  2  0  0  0  0  0  0
  -31.3750  -17.5840   19.9540 C   0  0  0  0  0  3  0  0  0  0  0  0
  -30.9950  -16.1970   19.5510 N   0  0  0  0  0  0  0  0  0  0  0  0
  -26.2570  -14.3130   20.3490 C   0  0  0  0  0  0  0  0  0  0  0  0
  -25.1640  -13.5690   20.6970 C   0  0  0  0  0  0  0  0  0  0  0  0
  -25.5840  -12.2060   20.6700 C   0  0  0  0  0  0  0  0  0  0  0  0
  -27.2770  -13.4050   20.1240 N   0  0  0  0  0  0  0  0  0  0  0  0
  -26.8760  -12.1330   20.3800 N   0  0  0  0  0  0  0  0  0  0  0  0
  -24.8250  -10.9600   20.8420 C   0  0  0  0  0  0  0  0  0  0  0  0
  -25.1520  -10.0250   21.8490 C   0  0  0  0  0  3  0  0  0  0  0  0
  -24.3920   -8.8450   22.0060 C   0  0  0  0  0  3  0  0  0  0  0  0
  -23.2910   -8.5910   21.1530 C   0  0  0  0  0  0  0  0  0  0  0  0
  -22.9870   -9.5110   20.1350 C   0  0  0  0  0  3  0  0  0  0  0  0
  -23.7480  -10.6820   19.9770 C   0  0  0  0  0  3  0  0  0  0  0  0
  -22.5120   -7.4620   21.2180 O   0  0  0  0  0  0  0  0  0  0  0  0
  -22.2200   -6.8570   22.4140 C   0  0  0  0  0  0  0  0  0  0  0  0
  -21.5610   -7.5440   23.4570 C   0  0  0  0  0  3  0  0  0  0  0  0
  -21.2180   -6.8630   24.6410 C   0  0  0  0  0  3  0  0  0  0  0  0
  -21.5240   -5.4950   24.7830 C   0  0  0  0  0  0  0  0  0  0  0  0
  -22.1790   -4.8090   23.7460 C   0  0  0  0  0  3  0  0  0  0  0  0
  -22.5230   -5.4870   22.5630 C   0  0  0  0  0  0  0  0  0  0  0  0
  -23.1330   -4.8150   21.5570 F   0  0  0  0  0  0  0  0  0  0  0  0
  -21.1880   -4.8410   25.9170 F   0  0  0  0  0  0  0  0  0  0  0  0
  -23.7740  -14.0810   20.9540 C   0  0  0  0  0  0  0  0  0  0  0  0
  -23.0300  -13.4160   21.8290 N   0  0  0  0  0  0  0  0  0  0  0  0
  -23.3640  -15.1120   20.4180 O   0  0  0  0  0  0  0  0  0  0  0  0
  -23.3680  -12.5770   22.2770 H   0  0  0  0  0  0  0  0  0  0  0  0
  -22.1040  -13.7520   22.0540 H   0  0  0  0  0  0  0  0  0  0  0  0
  -26.4760  -15.6800   20.1820 N   0  0  0  0  0  0  0  0  0  0  0  0
  -25.7550  -16.3810   20.3160 H   0  0  0  0  0  0  0  0  0  0  0  0
  -27.3740  -16.0750   19.9350 H   0  0  0  0  0  0  0  0  0  0  0  0
  -29.4710  -24.2530   20.3160 O   0  0  0  0  0  0  0  0  0  0  0  0
  -28.5930  -25.3630   20.5640 C   0  0  0  0  0  2  0  0  0  0  0  0
  -29.1870  -26.7180   20.1060 C   0  0  0  0  0  2  0  0  0  0  0  0
  -28.4920  -27.2850   18.9940 O   0  0  0  0  0  0  0  0  0  0  0  0
  -24.5080  -31.7080   23.0080 C   0  0  0  0  0  0  0  0  0  0  0  0
  -27.2880  -27.9020   19.2570 C   0  0  0  0  0  0  0  0  0  0  0  0
  -23.3070  -30.4050   21.2780 C   0  0  0  0  0  3  0  0  0  0  0  0
  -24.7850  -29.1680   19.6000 C   0  0  0  0  0  0  0  0  0  0  0  0
  -25.7780  -31.0000   20.9840 C   0  0  0  0  0  2  0  0  0  0  0  0
  -25.9320  -29.7220   20.1840 C   0  0  0  0  0  0  0  0  0  0  0  0
  -27.1890  -29.0900   20.0200 C   0  0  0  0  0  3  0  0  0  0  0  0
  -26.1250  -27.3670   18.6660 C   0  0  0  0  0  3  0  0  0  0  0  0
  -24.8720  -27.9840   18.8490 C   0  0  0  0  0  3  0  0  0  0  0  0
  -23.4800  -29.9020   19.8200 C   0  0  0  0  0  2  0  0  0  0  0  0
  -24.5520  -31.0470   21.8140 N   0  0  0  0  0  0  0  0  0  0  0  0
  -23.4500  -31.8220   23.6400 O   0  0  0  0  0  0  0  0  0  0  0  0
  -22.8040  -29.2310   22.1470 C   0  0  0  0  0  0  0  0  0  0  0  0
  -21.5030  -28.9190   22.0380 N   0  0  0  0  0  0  0  0  0  0  0  0
  -23.5810  -28.6070   22.8740 O   0  0  0  0  0  0  0  0  0  0  0  0
  -20.9350  -29.4880   21.4270 H   0  0  0  0  0  0  0  0  0  0  0  0
  -18.3050  -27.2750   22.4270 C   0  0  0  0  0  0  0  0  0  0  0  0
  -20.8160  -27.8190   22.7150 C   0  0  0  0  0  3  0  0  0  0  0  0
  -21.0860  -26.4750   21.9960 C   0  0  0  0  0  2  0  0  0  0  0  0
  -20.0110  -26.1140   20.9640 C   0  0  0  0  0  2  0  0  0  0  0  0
  -18.6340  -26.0270   21.6250 C   0  0  0  0  0  2  0  0  0  0  0  0
  -19.3300  -28.1250   22.9250 C   0  0  0  0  0  0  0  0  0  0  0  0
  -18.9670  -29.2940   23.6270 C   0  0  0  0  0  3  0  0  0  0  0  0
  -17.6150  -29.6140   23.8400 C   0  0  0  0  0  3  0  0  0  0  0  0
  -16.6070  -28.7610   23.3630 C   0  0  0  0  0  3  0  0  0  0  0  0
  -16.9520  -27.5930   22.6640 C   0  0  0  0  0  3  0  0  0  0  0  0
  -25.7820  -32.3680   23.6250 C   0  0  0  0  0  3  0  0  0  0  0  0
  -26.3870  -31.5480   24.8300 C   0  0  1  0  0  0  0  0  0  0  0  0
  -25.3510  -31.1840   25.9160 C   0  0  0  0  0  1  0  0  0  0  0  0
  -27.0270  -30.2350   24.3290 C   0  0  0  0  0  1  0  0  0  0  0  0
  -27.5150  -32.3630   25.5040 C   0  0  0  0  0  1  0  0  0  0  0  0
  -25.4180  -33.7250   24.0510 N   0  0  0  0  0  0  0  0  0  0  0  0
  -25.6890  -34.8380   23.3580 C   0  0  0  0  0  0  0  0  0  0  0  0
  -26.3470  -34.8320   22.3110 O   0  0  0  0  0  0  0  0  0  0  0  0
  -24.8240  -33.7980   24.8650 H   0  0  0  0  0  0  0  0  0  0  0  0
  -23.8740  -36.5640   23.1370 C   0  0  0  0  0  1  0  0  0  0  0  0
  -25.1420  -36.1670   23.9100 C   0  0  0  0  0  3  0  0  0  0  0  0
  -27.2390  -37.0970   24.7840 C   0  0  0  0  0  1  0  0  0  0  0  0
  -26.1230  -37.2730   23.8590 N   0  0  0  0  0  0  0  0  0  0  0  0
  -25.6750  -38.1600   24.0700 H   0  0  0  0  0  0  0  0  0  0  0  0
  1  2  2  0
  3  1  1  0
  4  5  2  0
  5  2  1  0
  6  3  2  0
  6  4  1  0
  7  4  1  0
  8  7  1  0
  9  7  1  0
 10 16  1  0
 11 16  1  0
 12 13  1  0
 12 11  1  0
 14 13  1  0
 14 26  1  0
 14 15  1  0
 16 15  1  0
 17 10  2  0
 18 20  1  0
 18 19  1  0
 19 21  1  0
 20 22  1  0
 21  9  1  0
 22 21  1  0
 22 10  1  0
 23 24  2  0
 24 43  1  0
 25 24  1  0
 25 28  1  0
 26 23  1  0
 26 27  1  0
 27 25  2  0
 28 29  1  0
 29 30  2  0
 31 34  1  0
 31 30  1  0
 32 31  2  0
 33 32  1  0
 33 28  2  0
 34 35  1  0
 35 40  2  0
 35 36  1  0
 36 37  2  0
 37 38  1  0
 38 42  1  0
 39 38  2  0
 40 39  1  0
 41 40  1  0
 43 44  1  0
 44 47  1  0
 44 46  1  0
 45 43  2  0
 48 49  1  0
 48 23  1  0
 50 48  1  0
 51 52  1  0
 51  3  1  0
 53 52  1  0
 54 56  1  0
 54 53  1  0
 55 66  2  0
 56 61  1  0
 57 65  1  0
 57 67  1  0
 58 64  1  0
 58 60  1  0
 59 65  1  0
 60 59  1  0
 61 60  2  0
 62 63  1  0
 62 56  2  0
 63 58  2  0
 64 57  1  0
 65 55  1  0
 67 69  2  0
 68 67  1  0
 70 68  1  0
 71 80  2  0
 71 76  1  0
 72 68  1  0
 72 76  1  0
 73 72  1  0
 74 75  1  0
 74 73  1  0
 75 71  1  0
 76 77  2  0
 77 78  1  0
 79 78  2  0
 80 79  1  0
 81 55  1  0
 81 86  1  0
 81 82  1  0
 82 85  1  1
 82 83  1  0
 84 82  1  0
 86 89  1  0
 87 91  1  0
 87 86  1  0
 88 87  2  0
 91 90  1  0
 93 91  1  0
 93 94  1  0
 93 92  1  0
M  ISO  4  10 100  22 100  53 101  54 101
M  END
>  <TORSDO>  (80) 
F 20

>  <SCORE>  (80) 
-10.070

>  <name>  (80) 
80

>  <ligand_id>  (80) 
80

>  <original_smiles>  (80) 
[H]c1nc(N([H])C([H])([H])C2([H])N(C(=O)N3C([H])([H])C([H])([H])C([H])([H])C([H])(n4nc(-c5c([H])c([H])c(Oc6c([H])c([H])c(F)c([H])c6F)c([H])c5[H])c(C(=O)N([H])[H])c4N([H])[H])C3([H])[H])C([H])([H])C([H])([H])C2([H])[H])nc(OC([H])([H])C([H])([H])Oc2c([H])c([H])c3c(c2[H])C([H])([H])N(C(=O)C([H])(N([H])C(=O)C([H])(N([H])C([H])([H])[H])C([H])([H])[H])C(C([H])([H])[H])(C([H])([H])[H])C([H])([H])[H])C([H])(C(=O)N([H])C2([H])c4c([H])c([H])c([H])c([H])c4C([H])([H])C([H])([H])C2([H])[H])C3([H])[H])c1[H]

>  <smiles>  (80) 
[H]c1nc(N([H])C([H])([H])C2([H])N(C(=O)N3C([H])([H])C([H])([H])C([H])([H])C([H])(n4nc(-c5c([H])c([H])c(Oc6c([H])c([H])c(F)c([H])c6F)c([H])c5[H])c(C(=O)N([H])[H])c4N([H])[H])C3([H])[H])C([H])([H])C([H])([H])C2([H])[H])nc(OC([H])([H])C([H])([H])Oc2c([H])c([H])c3c(c2[H])C([H])([H])N(C(=O)C([H])(N([H])C(=O)C([H])(N([H])C([H])([H])[H])C([H])([H])[H])C(C([H])([H])[H])(C([H])([H])[H])C([H])([H])[H])C([H])(C(=O)N([H])C2([H])c4c([H])c([H])c([H])c([H])c4C([H])([H])C([H])([H])C2([H])[H])C3([H])[H])c1[H]

$$$$
81:0:0
     RDKit          3D

 96105  0  0  1  0  0  0  0  0999 V2000
  -28.7760  -23.0210   20.3710 C   0  0  0  0  0  0  0  0  0  0  0  0
  -28.0690  -21.9930   20.8730 N   0  0  0  0  0  0  0  0  0  0  0  0
  -29.6620  -22.8350   19.5340 O   0  0  0  0  0  0  0  0  0  0  0  0
  -27.3750  -22.1960   21.5810 H   0  0  0  0  0  0  0  0  0  0  0  0
  -28.1530  -20.6030   20.3940 C   0  0  0  0  0  2  0  0  0  0  0  0
  -29.4170  -19.8360   20.8700 C   0  0  0  0  0  2  0  0  0  0  0  0
  -30.8210  -18.4090   17.8460 C   0  0  0  0  0  3  0  0  0  0  0  0
  -30.5200  -17.2200   18.5540 C   0  0  0  0  0  3  0  0  0  0  0  0
  -30.4740  -19.4490   18.6490 C   0  0  0  0  0  3  0  0  0  0  0  0
  -30.0650  -17.5430   19.8100 C   0  0  0  0  0  0  0  0  0  0  0  0
  -29.9510  -18.9450   19.8310 N   0  0  0  0  0  0  0  0  0  0  0  0
  -30.7990  -14.4640   20.1780 C   0  0  0  0  0  0  0  0  0  0  0  0
  -30.3770  -12.4000   18.8930 C   0  0  0  0  0  2  0  0  0  0  0  0
  -29.3590  -12.6480   17.7620 C   0  0  0  0  0  2  0  0  0  0  0  0
  -27.9100  -12.5260   18.2780 C   0  0  0  0  0  2  0  0  0  0  0  0
  -27.6680  -13.3170   19.5930 C   0  0  0  0  0  3  0  0  0  0  0  0
  -28.7770  -13.0210   20.6220 C   0  0  0  0  0  2  0  0  0  0  0  0
  -30.0720  -13.3310   19.9910 N   0  0  0  0  0  0  0  0  0  0  0  0
  -31.8620  -14.6760   19.5830 O   0  0  0  0  0  0  0  0  0  0  0  0
  -30.2210  -16.9230   22.3800 C   0  0  0  0  0  2  0  0  0  0  0  0
  -31.2410  -15.8330   22.1370 C   0  0  0  0  0  2  0  0  0  0  0  0
  -29.6780  -16.6430   20.9780 C   0  0  0  0  0  3  0  0  0  0  0  0
  -30.3300  -15.3050   21.1220 N   0  0  0  0  0  0  0  0  0  0  0  0
  -25.3210  -13.9300   20.4540 C   0  0  0  0  0  0  0  0  0  0  0  0
  -24.2690  -13.1610   20.8740 C   0  0  0  0  0  0  0  0  0  0  0  0
  -24.7160  -11.8050   20.7940 C   0  0  0  0  0  0  0  0  0  0  0  0
  -26.3430  -13.0460   20.1450 N   0  0  0  0  0  0  0  0  0  0  0  0
  -25.9840  -11.7620   20.4070 N   0  0  0  0  0  0  0  0  0  0  0  0
  -23.9910  -10.5450   21.0040 C   0  0  0  0  0  0  0  0  0  0  0  0
  -24.4530   -9.5740   21.9210 C   0  0  0  0  0  3  0  0  0  0  0  0
  -23.7310   -8.3770   22.1180 C   0  0  0  0  0  3  0  0  0  0  0  0
  -22.5330   -8.1450   21.4010 C   0  0  0  0  0  0  0  0  0  0  0  0
  -22.0930   -9.1030   20.4730 C   0  0  0  0  0  3  0  0  0  0  0  0
  -22.8140  -10.2910   20.2730 C   0  0  0  0  0  3  0  0  0  0  0  0
  -21.7780   -7.0020   21.5120 O   0  0  0  0  0  0  0  0  0  0  0  0
  -21.7350   -6.2770   22.6750 C   0  0  0  0  0  0  0  0  0  0  0  0
  -21.3350   -6.8540   23.9010 C   0  0  0  0  0  3  0  0  0  0  0  0
  -21.2410   -6.0540   25.0580 C   0  0  0  0  0  3  0  0  0  0  0  0
  -21.5350   -4.6790   24.9870 C   0  0  0  0  0  0  0  0  0  0  0  0
  -21.9270   -4.1020   23.7670 C   0  0  0  0  0  3  0  0  0  0  0  0
  -22.0240   -4.8990   22.6130 C   0  0  0  0  0  0  0  0  0  0  0  0
  -22.3810   -4.3340   21.4340 F   0  0  0  0  0  0  0  0  0  0  0  0
  -21.4380   -3.9080   26.0950 F   0  0  0  0  0  0  0  0  0  0  0  0
  -22.8940  -13.6410   21.2340 C   0  0  0  0  0  0  0  0  0  0  0  0
  -22.2140  -12.9480   22.1420 N   0  0  0  0  0  0  0  0  0  0  0  0
  -22.4280  -14.6710   20.7450 O   0  0  0  0  0  0  0  0  0  0  0  0
  -22.6030  -12.1190   22.5680 H   0  0  0  0  0  0  0  0  0  0  0  0
  -21.2920  -13.2520   22.4190 H   0  0  0  0  0  0  0  0  0  0  0  0
  -25.4900  -15.3040   20.2920 N   0  0  0  0  0  0  0  0  0  0  0  0
  -24.7400  -15.9650   20.4620 H   0  0  0  0  0  0  0  0  0  0  0  0
  -26.3240  -15.7350   19.9150 H   0  0  0  0  0  0  0  0  0  0  0  0
  -28.4520  -24.4640   20.8500 C   0  0  0  0  0  3  0  0  0  0  0  0
  -29.0050  -24.2790   23.3660 C   0  0  0  0  0  1  0  0  0  0  0  0
  -29.3940  -24.8810   22.0070 C   0  0  0  0  0  2  0  0  0  0  0  0
  -28.5570  -25.4710   19.6640 C   0  0  0  0  0  2  0  0  0  0  0  0
  -28.4140  -26.8400   20.0650 O   0  0  0  0  0  0  0  0  0  0  0  0
  -24.5500  -31.8960   23.1780 C   0  0  0  0  0  0  0  0  0  0  0  0
  -27.1880  -27.4740   20.0830 C   0  0  0  0  0  0  0  0  0  0  0  0
  -23.3260  -30.4820   21.5600 C   0  0  0  0  0  3  0  0  0  0  0  0
  -24.7660  -28.9430   20.1240 C   0  0  0  0  0  0  0  0  0  0  0  0
  -25.8420  -30.8610   21.3200 C   0  0  0  0  0  2  0  0  0  0  0  0
  -25.9270  -29.4880   20.6850 C   0  0  0  0  0  0  0  0  0  0  0  0
  -27.1360  -28.7620   20.6610 C   0  0  0  0  0  3  0  0  0  0  0  0
  -26.0040  -26.9270   19.5370 C   0  0  0  0  0  3  0  0  0  0  0  0
  -24.7980  -27.6580   19.5550 C   0  0  0  0  0  3  0  0  0  0  0  0
  -23.5150  -29.7920   20.1820 C   0  0  0  0  0  2  0  0  0  0  0  0
  -24.5920  -31.0940   22.0770 N   0  0  0  0  0  0  0  0  0  0  0  0
  -23.4770  -32.1620   23.7360 O   0  0  0  0  0  0  0  0  0  0  0  0
  -22.7040  -29.4550   22.5320 C   0  0  0  0  0  0  0  0  0  0  0  0
  -21.3780  -29.2690   22.4300 N   0  0  0  0  0  0  0  0  0  0  0  0
  -23.4060  -28.8290   23.3290 O   0  0  0  0  0  0  0  0  0  0  0  0
  -20.8680  -29.8400   21.7730 H   0  0  0  0  0  0  0  0  0  0  0  0
  -18.0210  -28.0490   22.9790 C   0  0  0  0  0  0  0  0  0  0  0  0
  -20.5830  -28.3150   23.1990 C   0  0  0  0  0  3  0  0  0  0  0  0
  -20.6870  -26.8940   22.5920 C   0  0  0  0  0  2  0  0  0  0  0  0
  -19.5510  -26.5640   21.6210 C   0  0  0  0  0  2  0  0  0  0  0  0
  -18.1950  -26.6930   22.3160 C   0  0  0  0  0  2  0  0  0  0  0  0
  -19.1440  -28.8170   23.3840 C   0  0  0  0  0  0  0  0  0  0  0  0
  -18.9320  -30.0870   23.9640 C   0  0  0  0  0  3  0  0  0  0  0  0
  -17.6290  -30.5880   24.1440 C   0  0  0  0  0  3  0  0  0  0  0  0
  -16.5210  -29.8150   23.7530 C   0  0  0  0  0  3  0  0  0  0  0  0
  -16.7150  -28.5490   23.1770 C   0  0  0  0  0  3  0  0  0  0  0  0
  -25.8460  -32.5340   23.7700 C   0  0  0  0  0  3  0  0  0  0  0  0
  -25.5350  -33.9270   24.1120 N   0  0  0  0  0  0  0  0  0  0  0  0
  -25.8480  -34.9840   23.3520 C   0  0  0  0  0  0  0  0  0  0  0  0
  -26.5040  -34.8930   22.3110 O   0  0  0  0  0  0  0  0  0  0  0  0
  -24.9570  -34.0770   24.9260 H   0  0  0  0  0  0  0  0  0  0  0  0
  -24.1000  -36.7610   23.0270 C   0  0  0  0  0  1  0  0  0  0  0  0
  -25.3540  -36.3660   23.8240 C   0  0  0  0  0  3  0  0  0  0  0  0
  -27.4890  -37.2620   24.6390 C   0  0  0  0  0  1  0  0  0  0  0  0
  -26.3760  -37.4300   23.7080 N   0  0  0  0  0  0  0  0  0  0  0  0
  -25.9610  -38.3430   23.8750 H   0  0  0  0  0  0  0  0  0  0  0  0
  -26.3980  -31.7590   25.0280 C   0  0  1  0  0  0  0  0  0  0  0  0
  -25.3290  -31.5040   26.1150 C   0  0  0  0  0  1  0  0  0  0  0  0
  -26.9920  -30.3920   24.6160 C   0  0  0  0  0  1  0  0  0  0  0  0
  -27.5440  -32.5660   25.6800 C   0  0  0  0  0  1  0  0  0  0  0  0
  1 52  1  0
  1  2  1  0
  2  4  1  0
  3  1  2  0
  5  6  1  0
  5  2  1  0
  7  8  1  0
  7  9  2  0
  8 10  2  0
  9 11  1  0
 10 11  1  0
 11  6  1  0
 12 23  1  0
 13 18  1  0
 14 15  1  0
 14 13  1  0
 16 15  1  0
 16 27  1  0
 16 17  1  0
 18 12  1  0
 18 17  1  0
 19 12  2  0
 21 20  1  0
 22 10  1  0
 22 23  1  0
 22 20  1  0
 23 21  1  0
 24 25  2  0
 25 44  1  0
 26 25  1  0
 26 29  1  0
 27 28  1  0
 27 24  1  0
 28 26  2  0
 29 30  1  0
 30 31  2  0
 32 35  1  0
 32 31  1  0
 33 32  2  0
 34 33  1  0
 34 29  2  0
 35 36  1  0
 36 37  1  0
 37 38  2  0
 39 38  1  0
 39 43  1  0
 40 39  2  0
 41 36  2  0
 41 40  1  0
 42 41  1  0
 44 45  1  0
 45 48  1  0
 45 47  1  0
 46 44  2  0
 49 24  1  0
 49 50  1  0
 51 49  1  0
 52 55  1  0
 52 54  1  0
 54 53  1  0
 55 56  1  0
 56 58  1  0
 57 68  2  0
 58 63  1  0
 59 67  1  0
 59 69  1  0
 60 66  1  0
 60 62  1  0
 61 67  1  0
 62 61  1  0
 63 62  2  0
 64 65  1  0
 64 58  2  0
 65 60  2  0
 66 59  1  0
 67 57  1  0
 69 71  2  0
 70 69  1  0
 72 70  1  0
 73 82  2  0
 73 78  1  0
 74 70  1  0
 74 78  1  0
 75 74  1  0
 76 77  1  0
 76 75  1  0
 77 73  1  0
 78 79  2  0
 79 80  1  0
 81 80  2  0
 82 81  1  0
 83 57  1  0
 83 84  1  0
 83 93  1  0
 84 87  1  0
 85 89  1  0
 85 84  1  0
 86 85  2  0
 89 88  1  0
 91 89  1  0
 91 92  1  0
 91 90  1  0
 93 96  1  1
 93 94  1  0
 95 93  1  0
M  ISO  4  12 100  23 100  55 101  56 101
M  END
>  <TORSDO>  (81) 
F 22

>  <SCORE>  (81) 
-12.788

>  <name>  (81) 
81

>  <ligand_id>  (81) 
81

>  <original_smiles>  (81) 
[H]c1c([H])c([H])c2c(c1[H])C([H])([H])C([H])([H])C([H])([H])C2([H])N([H])C(=O)C1([H])N(C(=O)C([H])(N([H])C(=O)C([H])(N([H])C([H])([H])[H])C([H])([H])[H])C(C([H])([H])[H])(C([H])([H])[H])C([H])([H])[H])C([H])([H])c2c([H])c(OC([H])([H])C([H])(C(=O)N([H])C([H])([H])C([H])([H])n3c([H])c([H])c([H])c3C3([H])N(C(=O)N4C([H])([H])C([H])([H])C([H])([H])C([H])(n5nc(-c6c([H])c([H])c(Oc7c([H])c([H])c(F)c([H])c7F)c([H])c6[H])c(C(=O)N([H])[H])c5N([H])[H])C4([H])[H])C([H])([H])C3([H])[H])C([H])([H])C([H])([H])[H])c([H])c([H])c2C1([H])[H]

>  <smiles>  (81) 
[H]c1c([H])c([H])c2c(c1[H])C([H])([H])C([H])([H])C([H])([H])C2([H])N([H])C(=O)C1([H])N(C(=O)C([H])(N([H])C(=O)C([H])(N([H])C([H])([H])[H])C([H])([H])[H])C(C([H])([H])[H])(C([H])([H])[H])C([H])([H])[H])C([H])([H])c2c([H])c(OC([H])([H])C([H])(C(=O)N([H])C([H])([H])C([H])([H])n3c([H])c([H])c([H])c3C3([H])N(C(=O)N4C([H])([H])C([H])([H])C([H])([H])C([H])(n5nc(-c6c([H])c([H])c(Oc7c([H])c([H])c(F)c([H])c7F)c([H])c6[H])c(C(=O)N([H])[H])c5N([H])[H])C4([H])[H])C([H])([H])C3([H])[H])C([H])([H])C([H])([H])[H])c([H])c([H])c2C1([H])[H]

$$$$
82:0:0
     RDKit          3D

 96104  0  0  1  0  0  0  0  0999 V2000
  -29.2990  -20.7160   22.2400 C   0  0  0  0  0  3  0  0  0  0  0  0
  -29.2850  -22.0730   21.8370 C   0  0  0  0  0  3  0  0  0  0  0  0
  -29.3860  -19.9420   21.1200 C   0  0  0  0  0  0  0  0  0  0  0  0
  -29.3790  -22.1220   20.4730 C   0  0  0  0  0  0  0  0  0  0  0  0
  -29.3880  -20.7940   20.0050 N   0  0  0  0  0  0  0  0  0  0  0  0
  -30.5680  -20.7660   17.7580 C   0  0  0  0  0  1  0  0  0  0  0  0
  -27.9980  -20.6620   17.9560 C   0  0  0  0  0  1  0  0  0  0  0  0
  -29.3540  -20.3360   18.6050 C   0  0  0  0  0  3  0  0  0  0  0  0
  -29.4910  -18.4380   21.0710 C   0  0  0  0  0  2  0  0  0  0  0  0
  -30.9310  -17.9400   20.8170 C   0  0  0  0  0  2  0  0  0  0  0  0
  -31.3280  -16.6630   21.5900 C   0  0  0  0  0  2  0  0  0  0  0  0
  -31.1000  -14.5960   20.2170 C   0  0  0  0  0  0  0  0  0  0  0  0
  -30.6830  -12.4830   19.0140 C   0  0  0  0  0  2  0  0  0  0  0  0
  -29.7020  -12.7010   17.8470 C   0  0  0  0  0  2  0  0  0  0  0  0
  -28.2450  -12.5790   18.3340 C   0  0  0  0  0  2  0  0  0  0  0  0
  -27.9680  -13.4350   19.5990 C   0  0  0  0  0  3  0  0  0  0  0  0
  -29.0530  -13.1920   20.6710 C   0  0  0  0  0  2  0  0  0  0  0  0
  -30.3690  -13.4620   20.0650 N   0  0  0  0  0  0  0  0  0  0  0  0
  -32.1240  -14.8350   19.5700 O   0  0  0  0  0  0  0  0  0  0  0  0
  -30.6400  -15.4530   21.1390 N   0  0  0  0  0  0  0  0  0  0  0  0
  -29.8080  -15.1730   21.6370 H   0  0  0  0  0  0  0  0  0  0  0  0
  -25.6180  -14.0950   20.4180 C   0  0  0  0  0  0  0  0  0  0  0  0
  -24.5440  -13.3440   20.8150 C   0  0  0  0  0  0  0  0  0  0  0  0
  -24.9650  -11.9810   20.7350 C   0  0  0  0  0  0  0  0  0  0  0  0
  -26.6280  -13.1910   20.1260 N   0  0  0  0  0  0  0  0  0  0  0  0
  -26.2390  -11.9130   20.3710 N   0  0  0  0  0  0  0  0  0  0  0  0
  -24.2130  -10.7350   20.9280 C   0  0  0  0  0  0  0  0  0  0  0  0
  -24.6180   -9.7660   21.8720 C   0  0  0  0  0  3  0  0  0  0  0  0
  -23.8680   -8.5850   22.0510 C   0  0  0  0  0  3  0  0  0  0  0  0
  -22.6980   -8.3630   21.2870 C   0  0  0  0  0  0  0  0  0  0  0  0
  -22.3120   -9.3200   20.3320 C   0  0  0  0  0  3  0  0  0  0  0  0
  -23.0630  -10.4930   20.1500 C   0  0  0  0  0  3  0  0  0  0  0  0
  -21.9220   -7.2320   21.3740 O   0  0  0  0  0  0  0  0  0  0  0  0
  -21.7960   -6.5340   22.5490 C   0  0  0  0  0  0  0  0  0  0  0  0
  -21.2890   -7.1340   23.7220 C   0  0  0  0  0  3  0  0  0  0  0  0
  -21.1120   -6.3620   24.8870 C   0  0  0  0  0  3  0  0  0  0  0  0
  -21.4330   -4.9910   24.8800 C   0  0  0  0  0  0  0  0  0  0  0  0
  -21.9330   -4.3910   23.7110 C   0  0  0  0  0  3  0  0  0  0  0  0
  -22.1110   -5.1600   22.5480 C   0  0  0  0  0  0  0  0  0  0  0  0
  -22.5740   -4.5730   21.4180 F   0  0  0  0  0  0  0  0  0  0  0  0
  -21.2560   -4.2470   25.9960 F   0  0  0  0  0  0  0  0  0  0  0  0
  -23.1740  -13.8520   21.1580 C   0  0  0  0  0  0  0  0  0  0  0  0
  -22.4680  -13.1590   22.0450 N   0  0  0  0  0  0  0  0  0  0  0  0
  -22.7400  -14.8970   20.6760 O   0  0  0  0  0  0  0  0  0  0  0  0
  -22.8320  -12.3130   22.4560 H   0  0  0  0  0  0  0  0  0  0  0  0
  -21.5500  -13.4800   22.3170 H   0  0  0  0  0  0  0  0  0  0  0  0
  -25.8140  -15.4640   20.2650 N   0  0  0  0  0  0  0  0  0  0  0  0
  -25.0720  -16.1380   20.4220 H   0  0  0  0  0  0  0  0  0  0  0  0
  -26.6660  -15.8870   19.9170 H   0  0  0  0  0  0  0  0  0  0  0  0
  -29.5530  -23.3480   19.6100 C   0  0  0  0  0  3  0  0  0  0  0  0
  -30.9400  -23.5970   19.4950 O   0  0  0  0  0  0  0  0  0  0  0  0
  -31.3010  -23.5170   20.3710 H   0  0  0  0  0  0  0  0  0  0  0  0
  -28.8560  -24.6280   20.1500 C   0  0  0  0  0  2  0  0  0  0  0  0
  -28.8550  -25.9530   17.8800 C   0  0  0  0  0  1  0  0  0  0  0  0
  -29.1840  -25.9370   19.3890 C   0  0  0  0  0  3  0  0  0  0  0  0
  -28.8240  -27.1000   20.1510 O   0  0  0  0  0  0  0  0  0  0  0  0
  -24.6950  -31.9500   23.2960 C   0  0  0  0  0  0  0  0  0  0  0  0
  -27.5690  -27.6770   20.1710 C   0  0  0  0  0  0  0  0  0  0  0  0
  -23.5720  -30.5360   21.6050 C   0  0  0  0  0  3  0  0  0  0  0  0
  -25.1080  -29.0740   20.1910 C   0  0  0  0  0  0  0  0  0  0  0  0
  -26.0870  -30.9890   21.4700 C   0  0  0  0  0  2  0  0  0  0  0  0
  -26.2330  -29.6340   20.8050 C   0  0  0  0  0  0  0  0  0  0  0  0
  -27.4620  -28.9430   20.7910 C   0  0  0  0  0  3  0  0  0  0  0  0
  -26.4120  -27.1050   19.6000 C   0  0  0  0  0  3  0  0  0  0  0  0
  -25.1920  -27.8050   19.5900 C   0  0  0  0  0  3  0  0  0  0  0  0
  -23.8340  -29.8860   20.2200 C   0  0  0  0  0  2  0  0  0  0  0  0
  -24.8000  -31.1730   22.1820 N   0  0  0  0  0  0  0  0  0  0  0  0
  -23.5940  -32.1700   23.8220 O   0  0  0  0  0  0  0  0  0  0  0  0
  -22.9410  -29.4740   22.5340 C   0  0  0  0  0  0  0  0  0  0  0  0
  -21.6280  -29.2440   22.3740 N   0  0  0  0  0  0  0  0  0  0  0  0
  -23.6290  -28.8610   23.3550 O   0  0  0  0  0  0  0  0  0  0  0  0
  -21.1350  -29.7950   21.6840 H   0  0  0  0  0  0  0  0  0  0  0  0
  -18.2850  -27.9270   22.7880 C   0  0  0  0  0  0  0  0  0  0  0  0
  -20.8300  -28.2640   23.1090 C   0  0  0  0  0  3  0  0  0  0  0  0
  -20.9910  -26.8490   22.5070 C   0  0  0  0  0  2  0  0  0  0  0  0
  -19.9180  -26.5100   21.4670 C   0  0  0  0  0  2  0  0  0  0  0  0
  -18.5210  -26.5980   22.0880 C   0  0  0  0  0  2  0  0  0  0  0  0
  -19.3720  -28.7170   23.2540 C   0  0  0  0  0  0  0  0  0  0  0  0
  -19.1030  -29.9610   23.8650 C   0  0  0  0  0  3  0  0  0  0  0  0
  -17.7810  -30.4180   24.0160 C   0  0  0  0  0  3  0  0  0  0  0  0
  -16.7090  -29.6250   23.5700 C   0  0  0  0  0  3  0  0  0  0  0  0
  -16.9620  -28.3830   22.9600 C   0  0  0  0  0  3  0  0  0  0  0  0
  -25.9440  -32.6190   23.9520 C   0  0  0  0  0  3  0  0  0  0  0  0
  -25.5970  -34.0150   24.2430 N   0  0  0  0  0  0  0  0  0  0  0  0
  -25.9310  -35.0600   23.4740 C   0  0  0  0  0  0  0  0  0  0  0  0
  -26.6340  -34.9500   22.4650 O   0  0  0  0  0  0  0  0  0  0  0  0
  -24.9850  -34.1740   25.0300 H   0  0  0  0  0  0  0  0  0  0  0  0
  -24.1730  -36.8010   23.0310 C   0  0  0  0  0  1  0  0  0  0  0  0
  -25.3990  -36.4450   23.8880 C   0  0  0  0  0  3  0  0  0  0  0  0
  -27.4820  -37.3970   24.7670 C   0  0  0  0  0  1  0  0  0  0  0  0
  -26.4090  -37.5190   23.7830 N   0  0  0  0  0  0  0  0  0  0  0  0
  -25.9780  -38.4330   23.9000 H   0  0  0  0  0  0  0  0  0  0  0  0
  -26.4300  -31.8820   25.2590 C   0  0  1  0  0  0  0  0  0  0  0  0
  -25.2980  -31.6130   26.2790 C   0  0  0  0  0  1  0  0  0  0  0  0
  -27.0860  -30.5250   24.9130 C   0  0  0  0  0  1  0  0  0  0  0  0
  -27.5170  -32.7290   25.9620 C   0  0  0  0  0  1  0  0  0  0  0  0
  2  1  1  0
  3  1  2  0
  4  2  2  0
  5  4  1  0
  5  3  1  0
  6  8  1  0
  7  8  1  0
  8  5  1  0
  9  3  1  0
 10  9  1  0
 10 11  1  0
 12 20  1  0
 13 18  1  0
 14 15  1  0
 14 13  1  0
 16 15  1  0
 16 25  1  0
 16 17  1  0
 18 12  1  0
 18 17  1  0
 19 12  2  0
 20 11  1  0
 20 21  1  0
 22 23  2  0
 23 42  1  0
 24 23  1  0
 24 27  1  0
 25 26  1  0
 25 22  1  0
 26 24  2  0
 27 28  1  0
 28 29  2  0
 30 33  1  0
 30 29  1  0
 31 30  2  0
 32 31  1  0
 32 27  2  0
 33 34  1  0
 34 35  1  0
 35 36  2  0
 37 36  1  0
 37 41  1  0
 38 37  2  0
 39 34  2  0
 39 38  1  0
 40 39  1  0
 42 43  1  0
 43 46  1  0
 43 45  1  0
 44 42  2  0
 47 22  1  0
 47 48  1  0
 49 47  1  0
 50 53  1  0
 50  4  1  0
 51 50  1  0
 51 52  1  0
 55 54  1  0
 55 53  1  0
 55 56  1  0
 56 58  1  0
 57 68  2  0
 58 63  1  0
 59 67  1  0
 59 69  1  0
 60 66  1  0
 60 62  1  0
 61 67  1  0
 62 61  1  0
 63 62  2  0
 64 58  2  0
 65 64  1  0
 65 60  2  0
 66 59  1  0
 67 57  1  0
 69 71  2  0
 70 69  1  0
 72 70  1  0
 73 82  2  0
 73 78  1  0
 74 70  1  0
 74 78  1  0
 75 74  1  0
 76 77  1  0
 76 75  1  0
 77 73  1  0
 78 79  2  0
 79 80  1  0
 81 80  2  0
 82 81  1  0
 83 57  1  0
 83 84  1  0
 83 93  1  0
 84 87  1  0
 85 89  1  0
 85 84  1  0
 86 85  2  0
 89 88  1  0
 91 89  1  0
 91 92  1  0
 91 90  1  0
 93 96  1  1
 93 94  1  0
 95 93  1  0
M  ISO  4  12 100  20 100  55 101  56 101
M  END
>  <TORSDO>  (82) 
F 24

>  <SCORE>  (82) 
-11.948

>  <name>  (82) 
82

>  <ligand_id>  (82) 
82

>  <original_smiles>  (82) 
[H]OC([H])(c1c([H])c([H])c(C([H])([H])C([H])([H])C([H])([H])N([H])C(=O)N2C([H])([H])C([H])([H])C([H])([H])C([H])(n3nc(-c4c([H])c([H])c(Oc5c([H])c([H])c(F)c([H])c5F)c([H])c4[H])c(C(=O)N([H])[H])c3N([H])[H])C2([H])[H])n1C([H])(C([H])([H])[H])C([H])([H])[H])C([H])([H])C([H])(Oc1c([H])c([H])c2c(c1[H])C([H])([H])N(C(=O)C([H])(N([H])C(=O)C([H])(N([H])C([H])([H])[H])C([H])([H])[H])C(C([H])([H])[H])(C([H])([H])[H])C([H])([H])[H])C([H])(C(=O)N([H])C1([H])c3c([H])c([H])c([H])c([H])c3C([H])([H])C([H])([H])C1([H])[H])C2([H])[H])C([H])([H])[H]

>  <smiles>  (82) 
[H]OC([H])(c1c([H])c([H])c(C([H])([H])C([H])([H])C([H])([H])N([H])C(=O)N2C([H])([H])C([H])([H])C([H])([H])C([H])(n3nc(-c4c([H])c([H])c(Oc5c([H])c([H])c(F)c([H])c5F)c([H])c4[H])c(C(=O)N([H])[H])c3N([H])[H])C2([H])[H])n1C([H])(C([H])([H])[H])C([H])([H])[H])C([H])([H])C([H])(Oc1c([H])c([H])c2c(c1[H])C([H])([H])N(C(=O)C([H])(N([H])C(=O)C([H])(N([H])C([H])([H])[H])C([H])([H])[H])C(C([H])([H])[H])(C([H])([H])[H])C([H])([H])[H])C([H])(C(=O)N([H])C1([H])c3c([H])c([H])c([H])c([H])c3C([H])([H])C([H])([H])C1([H])[H])C2([H])[H])C([H])([H])[H]

$$$$
83:0:0
     RDKit          3D

 95103  0  0  1  0  0  0  0  0999 V2000
  -30.3830  -22.1210   19.0470 C   0  0  0  0  0  3  0  0  0  0  0  0
  -30.8160  -21.2010   20.0220 C   0  0  0  0  0  3  0  0  0  0  0  0
  -28.2760  -20.9440   19.0280 C   0  0  0  0  0  3  0  0  0  0  0  0
  -29.0730  -21.9970   18.5420 C   0  0  0  0  0  0  0  0  0  0  0  0
  -29.9450  -20.1760   20.4590 C   0  0  0  0  0  0  0  0  0  0  0  0
  -31.4710  -19.5650   22.2980 C   0  0  0  0  0  1  0  0  0  0  0  0
  -28.6980  -20.0630   19.9610 N   0  0  0  0  0  0  0  0  0  0  0  0
  -30.3310  -19.2370   21.4400 N   0  0  0  0  0  0  0  0  0  0  0  0
  -28.5500  -22.8910   17.4210 C   0  0  0  0  0  2  0  0  0  0  0  0
  -27.7290  -24.0320   17.8860 N   0  0  0  0  0  4  0  0  0  0  0  0
  -27.2020  -24.3270   17.0780 H   0  0  0  0  0  0  0  0  0  0  0  0
  -27.0540  -23.7360   18.5750 H   0  0  0  0  0  0  0  0  0  0  0  0
  -28.4650  -25.2320   18.3450 C   0  0  0  0  0  2  0  0  0  0  0  0
  -28.4590  -25.3930   19.8770 C   0  0  0  0  0  2  0  0  0  0  0  0
  -28.4320  -26.7730   20.2410 O   0  0  0  0  0  0  0  0  0  0  0  0
  -24.5910  -31.9070   23.2680 C   0  0  0  0  0  0  0  0  0  0  0  0
  -27.2280  -27.4500   20.2270 C   0  0  0  0  0  0  0  0  0  0  0  0
  -23.3800  -30.5010   21.6330 C   0  0  0  0  0  3  0  0  0  0  0  0
  -24.8270  -28.9480   20.2320 C   0  0  0  0  0  0  0  0  0  0  0  0
  -25.9050  -30.8620   21.4250 C   0  0  0  0  0  2  0  0  0  0  0  0
  -25.9890  -29.4850   20.7990 C   0  0  0  0  0  0  0  0  0  0  0  0
  -27.1910  -28.7460   20.7870 C   0  0  0  0  0  3  0  0  0  0  0  0
  -26.0330  -26.9130   19.6840 C   0  0  0  0  0  3  0  0  0  0  0  0
  -24.8410  -27.6600   19.6720 C   0  0  0  0  0  3  0  0  0  0  0  0
  -23.5860  -29.8100   20.2590 C   0  0  0  0  0  2  0  0  0  0  0  0
  -24.6440  -31.1040   22.1680 N   0  0  0  0  0  0  0  0  0  0  0  0
  -23.5100  -32.1800   23.8080 O   0  0  0  0  0  0  0  0  0  0  0  0
  -22.7280  -29.4850   22.5980 C   0  0  0  0  0  0  0  0  0  0  0  0
  -21.4060  -29.2990   22.4640 N   0  0  0  0  0  0  0  0  0  0  0  0
  -23.4130  -28.8660   23.4180 O   0  0  0  0  0  0  0  0  0  0  0  0
  -20.9200  -29.8460   21.7670 H   0  0  0  0  0  0  0  0  0  0  0  0
  -18.0290  -28.1110   22.9500 C   0  0  0  0  0  0  0  0  0  0  0  0
  -20.5840  -28.3690   23.2380 C   0  0  0  0  0  3  0  0  0  0  0  0
  -20.6890  -26.9310   22.6780 C   0  0  0  0  0  2  0  0  0  0  0  0
  -19.5920  -26.6000   21.6590 C   0  0  0  0  0  2  0  0  0  0  0  0
  -18.2060  -26.7550   22.2900 C   0  0  0  0  0  2  0  0  0  0  0  0
  -19.1460  -28.8760   23.3810 C   0  0  0  0  0  0  0  0  0  0  0  0
  -18.9240  -30.1460   23.9550 C   0  0  0  0  0  3  0  0  0  0  0  0
  -17.6190  -30.6530   24.1030 C   0  0  0  0  0  3  0  0  0  0  0  0
  -16.5170  -29.8850   23.6890 C   0  0  0  0  0  3  0  0  0  0  0  0
  -16.7210  -28.6170   23.1180 C   0  0  0  0  0  3  0  0  0  0  0  0
  -25.8820  -32.5360   23.8800 C   0  0  0  0  0  3  0  0  0  0  0  0
  -25.5740  -33.9370   24.2010 N   0  0  0  0  0  0  0  0  0  0  0  0
  -25.9170  -34.9840   23.4410 C   0  0  0  0  0  0  0  0  0  0  0  0
  -26.5970  -34.8730   22.4150 O   0  0  0  0  0  0  0  0  0  0  0  0
  -24.9740  -34.0990   24.9960 H   0  0  0  0  0  0  0  0  0  0  0  0
  -24.2020  -36.7790   23.0540 C   0  0  0  0  0  1  0  0  0  0  0  0
  -25.4310  -36.3760   23.8840 C   0  0  0  0  0  3  0  0  0  0  0  0
  -27.5600  -37.2490   24.7420 C   0  0  0  0  0  1  0  0  0  0  0  0
  -26.4710  -37.4230   23.7840 N   0  0  0  0  0  0  0  0  0  0  0  0
  -26.0680  -38.3470   23.9240 H   0  0  0  0  0  0  0  0  0  0  0  0
  -26.3980  -31.7730   25.1610 C   0  0  1  0  0  0  0  0  0  0  0  0
  -25.3050  -31.5450   26.2310 C   0  0  0  0  0  1  0  0  0  0  0  0
  -26.9770  -30.3910   24.7740 C   0  0  0  0  0  1  0  0  0  0  0  0
  -27.5480  -32.5720   25.8180 C   0  0  0  0  0  1  0  0  0  0  0  0
  -29.7390  -17.8910   21.4920 C   0  0  0  0  0  2  0  0  0  0  0  0
  -30.6900  -16.8220   20.9090 C   0  0  0  0  0  2  0  0  0  0  0  0
  -30.7860  -14.4150   20.3690 C   0  0  0  0  0  0  0  0  0  0  0  0
  -30.4220  -12.2940   19.1750 C   0  0  0  0  0  2  0  0  0  0  0  0
  -29.4620  -12.5170   17.9910 C   0  0  0  0  0  2  0  0  0  0  0  0
  -28.0020  -12.3640   18.4540 C   0  0  0  0  0  2  0  0  0  0  0  0
  -27.6850  -13.2100   19.7140 C   0  0  0  0  0  3  0  0  0  0  0  0
  -28.7540  -12.9800   20.8100 C   0  0  0  0  0  2  0  0  0  0  0  0
  -30.0740  -13.2670   20.2230 N   0  0  0  0  0  0  0  0  0  0  0  0
  -31.9100  -14.5720   19.8860 O   0  0  0  0  0  0  0  0  0  0  0  0
  -30.1360  -15.4580   20.9160 N   0  0  0  0  0  0  0  0  0  0  0  0
  -29.1900  -15.3140   21.2360 H   0  0  0  0  0  0  0  0  0  0  0  0
  -25.2910  -13.8360   20.4240 C   0  0  0  0  0  0  0  0  0  0  0  0
  -24.2200  -13.0700   20.8030 C   0  0  0  0  0  0  0  0  0  0  0  0
  -24.6770  -11.7170   20.7820 C   0  0  0  0  0  0  0  0  0  0  0  0
  -26.3350  -12.9480   20.2050 N   0  0  0  0  0  0  0  0  0  0  0  0
  -25.9680  -11.6710   20.4770 N   0  0  0  0  0  0  0  0  0  0  0  0
  -23.9490  -10.4570   20.9800 C   0  0  0  0  0  0  0  0  0  0  0  0
  -24.3810   -9.4990   21.9230 C   0  0  0  0  0  3  0  0  0  0  0  0
  -23.6560   -8.3020   22.1100 C   0  0  0  0  0  3  0  0  0  0  0  0
  -22.4860   -8.0550   21.3550 C   0  0  0  0  0  0  0  0  0  0  0  0
  -22.0710   -9.0030   20.4020 C   0  0  0  0  0  3  0  0  0  0  0  0
  -22.7960  -10.1910   20.2120 C   0  0  0  0  0  3  0  0  0  0  0  0
  -21.7320   -6.9110   21.4510 O   0  0  0  0  0  0  0  0  0  0  0  0
  -21.6770   -6.1800   22.6110 C   0  0  0  0  0  0  0  0  0  0  0  0
  -21.2440   -6.7480   23.8290 C   0  0  0  0  0  3  0  0  0  0  0  0
  -21.1360   -5.9440   24.9810 C   0  0  0  0  0  3  0  0  0  0  0  0
  -21.4540   -4.5740   24.9170 C   0  0  0  0  0  0  0  0  0  0  0  0
  -21.8810   -4.0060   23.7030 C   0  0  0  0  0  3  0  0  0  0  0  0
  -21.9890   -4.8080   22.5520 C   0  0  0  0  0  0  0  0  0  0  0  0
  -22.3800   -4.2530   21.3820 F   0  0  0  0  0  0  0  0  0  0  0  0
  -21.3430   -3.7990   26.0210 F   0  0  0  0  0  0  0  0  0  0  0  0
  -22.8250  -13.5530   21.0730 C   0  0  0  0  0  0  0  0  0  0  0  0
  -22.0990  -12.8610   21.9460 N   0  0  0  0  0  0  0  0  0  0  0  0
  -22.3860  -14.5720   20.5430 O   0  0  0  0  0  0  0  0  0  0  0  0
  -22.4710  -12.0370   22.3910 H   0  0  0  0  0  0  0  0  0  0  0  0
  -21.1630  -13.1660   22.1690 H   0  0  0  0  0  0  0  0  0  0  0  0
  -25.4610  -15.2040   20.2340 N   0  0  0  0  0  0  0  0  0  0  0  0
  -24.7020  -15.8660   20.3450 H   0  0  0  0  0  0  0  0  0  0  0  0
  -26.3080  -15.6330   19.8840 H   0  0  0  0  0  0  0  0  0  0  0  0
  1  2  1  0
  2  5  2  0
  3  7  2  0
  4  3  1  0
  4  1  2  0
  5  8  1  0
  7  5  1  0
  8 56  1  0
  8  6  1  0
  9 10  1  0
  9  4  1  0
 10 13  1  0
 10 12  1  0
 11 10  1  0
 13 14  1  0
 14 15  1  0
 16 27  2  0
 17 15  1  0
 17 22  1  0
 18 26  1  0
 18 28  1  0
 19 25  1  0
 19 21  1  0
 20 26  1  0
 21 20  1  0
 22 21  2  0
 23 17  2  0
 24 23  1  0
 24 19  2  0
 25 18  1  0
 26 16  1  0
 28 30  2  0
 29 28  1  0
 31 29  1  0
 32 41  2  0
 32 37  1  0
 33 29  1  0
 33 37  1  0
 34 33  1  0
 35 36  1  0
 35 34  1  0
 36 32  1  0
 37 38  2  0
 38 39  1  0
 40 39  2  0
 41 40  1  0
 42 16  1  0
 42 43  1  0
 42 52  1  0
 43 46  1  0
 44 48  1  0
 44 43  1  0
 45 44  2  0
 48 47  1  0
 50 48  1  0
 50 51  1  0
 50 49  1  0
 52 55  1  1
 52 53  1  0
 54 52  1  0
 57 66  1  0
 57 56  1  0
 58 66  1  0
 59 64  1  0
 60 61  1  0
 60 59  1  0
 62 61  1  0
 62 71  1  0
 62 63  1  0
 64 58  1  0
 64 63  1  0
 65 58  2  0
 66 67  1  0
 68 69  2  0
 69 88  1  0
 70 69  1  0
 70 73  1  0
 71 68  1  0
 71 72  1  0
 72 70  2  0
 73 74  1  0
 74 75  2  0
 76 79  1  0
 76 75  1  0
 77 76  2  0
 78 77  1  0
 78 73  2  0
 79 80  1  0
 80 81  1  0
 81 82  2  0
 83 82  1  0
 83 87  1  0
 84 83  2  0
 85 80  2  0
 85 84  1  0
 86 85  1  0
 88 89  1  0
 89 92  1  0
 89 91  1  0
 90 88  2  0
 93 94  1  0
 93 68  1  0
 95 93  1  0
M  ISO  4  14 101  15 101  58 100  66 100
M  END
>  <TORSDO>  (83) 
F 22

>  <SCORE>  (83) 
-13.038

>  <name>  (83) 
83

>  <ligand_id>  (83) 
83

>  <original_smiles>  (83) 
[H]c1nc(N(C([H])([H])[H])C([H])([H])C([H])([H])N([H])C(=O)N2C([H])([H])C([H])([H])C([H])([H])C([H])(n3nc(-c4c([H])c([H])c(Oc5c([H])c([H])c(F)c([H])c5F)c([H])c4[H])c(C(=O)N([H])[H])c3N([H])[H])C2([H])[H])c([H])c([H])c1C([H])([H])[N+]([H])([H])C([H])([H])C([H])([H])Oc1c([H])c([H])c2c(c1[H])C([H])([H])N(C(=O)C([H])(N([H])C(=O)C([H])(N([H])C([H])([H])[H])C([H])([H])[H])C(C([H])([H])[H])(C([H])([H])[H])C([H])([H])[H])C([H])(C(=O)N([H])C1([H])c3c([H])c([H])c([H])c([H])c3C([H])([H])C([H])([H])C1([H])[H])C2([H])[H]

>  <smiles>  (83) 
[H]c1nc(N(C([H])([H])[H])C([H])([H])C([H])([H])N([H])C(=O)N2C([H])([H])C([H])([H])C([H])([H])C([H])(n3nc(-c4c([H])c([H])c(Oc5c([H])c([H])c(F)c([H])c5F)c([H])c4[H])c(C(=O)N([H])[H])c3N([H])[H])C2([H])[H])c([H])c([H])c1C([H])([H])[N+]([H])([H])C([H])([H])C([H])([H])Oc1c([H])c([H])c2c(c1[H])C([H])([H])N(C(=O)C([H])(N([H])C(=O)C([H])(N([H])C([H])([H])[H])C([H])([H])[H])C(C([H])([H])[H])(C([H])([H])[H])C([H])([H])[H])C([H])(C(=O)N([H])C1([H])c3c([H])c([H])c([H])c([H])c3C([H])([H])C([H])([H])C1([H])[H])C2([H])[H]

$$$$
84:0:0
     RDKit          3D

 97106  0  0  1  0  0  0  0  0999 V2000
  -29.2580  -21.2060   20.2650 C   0  0  0  0  0  3  0  0  0  0  0  0
  -27.5930  -21.7190   18.9430 C   0  0  0  0  0  3  0  0  0  0  0  0
  -28.4170  -22.3450   19.8220 C   0  0  0  0  0  0  0  0  0  0  0  0
  -28.8490  -19.9670   19.7030 C   0  0  0  0  0  0  0  0  0  0  0  0
  -27.7720  -20.3500   18.8950 N   0  0  0  0  0  0  0  0  0  0  0  0
  -24.3280  -19.2360   17.6640 C   0  0  0  0  0  2  0  0  0  0  0  0
  -25.3880  -19.8290   18.5990 C   0  0  0  0  0  2  0  0  0  0  0  0
  -24.5810  -19.7060   16.2260 C   0  0  0  0  0  2  0  0  0  0  0  0
  -27.0320  -19.7750   16.5980 C   0  0  0  0  0  2  0  0  0  0  0  0
  -26.8270  -19.5270   18.1170 C   0  0  0  0  0  3  0  0  0  0  0  0
  -25.9190  -19.2680   15.7670 N   0  0  0  0  0  4  0  0  0  0  0  0
  -26.0600  -19.5790   14.8210 H   0  0  0  0  0  0  0  0  0  0  0  0
  -25.9480  -18.2640   15.7550 H   0  0  0  0  0  0  0  0  0  0  0  0
  -27.4070  -23.9900   21.5460 C   0  0  0  0  0  1  0  0  0  0  0  0
  -28.0780  -23.8890   20.1710 C   0  0  0  0  0  3  0  0  0  0  0  0
  -28.8850  -25.2250   19.7650 C   0  0  0  0  0  2  0  0  0  0  0  0
  -28.6420  -26.5050   20.5230 O   0  0  0  0  0  0  0  0  0  0  0  0
  -24.5990  -31.8750   23.2570 C   0  0  0  0  0  0  0  0  0  0  0  0
  -27.4880  -27.3080   20.4040 C   0  0  0  0  0  0  0  0  0  0  0  0
  -23.5190  -30.4230   21.5770 C   0  0  0  0  0  3  0  0  0  0  0  0
  -25.0780  -28.8640   20.2670 C   0  0  0  0  0  0  0  0  0  0  0  0
  -26.0590  -30.7750   21.5400 C   0  0  0  0  0  2  0  0  0  0  0  0
  -26.2050  -29.3940   20.9080 C   0  0  0  0  0  0  0  0  0  0  0  0
  -27.4090  -28.6240   20.9670 C   0  0  0  0  0  3  0  0  0  0  0  0
  -26.3300  -26.8340   19.7450 C   0  0  0  0  0  3  0  0  0  0  0  0
  -25.1440  -27.5900   19.6800 C   0  0  0  0  0  3  0  0  0  0  0  0
  -23.8170  -29.7070   20.2400 C   0  0  0  0  0  2  0  0  0  0  0  0
  -24.7400  -31.0440   22.1800 N   0  0  0  0  0  0  0  0  0  0  0  0
  -23.4830  -32.1430   23.7270 O   0  0  0  0  0  0  0  0  0  0  0  0
  -22.8200  -29.4190   22.5210 C   0  0  0  0  0  0  0  0  0  0  0  0
  -21.4920  -29.2800   22.3720 N   0  0  0  0  0  0  0  0  0  0  0  0
  -23.4760  -28.7650   23.3420 O   0  0  0  0  0  0  0  0  0  0  0  0
  -21.0150  -29.8720   21.7040 H   0  0  0  0  0  0  0  0  0  0  0  0
  -18.0930  -28.1900   22.8330 C   0  0  0  0  0  0  0  0  0  0  0  0
  -20.6500  -28.3480   23.1160 C   0  0  0  0  0  3  0  0  0  0  0  0
  -20.7040  -26.9410   22.4920 C   0  0  0  0  0  2  0  0  0  0  0  0
  -19.6040  -26.6970   21.4620 C   0  0  0  0  0  2  0  0  0  0  0  0
  -18.2230  -26.8680   22.0940 C   0  0  0  0  0  2  0  0  0  0  0  0
  -19.2320  -28.8970   23.2970 C   0  0  0  0  0  0  0  0  0  0  0  0
  -19.0540  -30.1350   23.9620 C   0  0  0  0  0  3  0  0  0  0  0  0
  -17.7650  -30.6740   24.1350 C   0  0  0  0  0  3  0  0  0  0  0  0
  -16.6390  -29.9710   23.6830 C   0  0  0  0  0  3  0  0  0  0  0  0
  -16.8040  -28.7270   23.0450 C   0  0  0  0  0  3  0  0  0  0  0  0
  -25.8290  -32.5450   23.9330 C   0  0  0  0  0  3  0  0  0  0  0  0
  -25.4760  -33.9460   24.2080 N   0  0  0  0  0  0  0  0  0  0  0  0
  -25.8240  -34.9880   23.4420 C   0  0  0  0  0  0  0  0  0  0  0  0
  -26.5460  -34.8720   22.4480 O   0  0  0  0  0  0  0  0  0  0  0  0
  -24.8350  -34.1010   24.9720 H   0  0  0  0  0  0  0  0  0  0  0  0
  -24.0630  -36.7190   22.9820 C   0  0  0  0  0  1  0  0  0  0  0  0
  -25.2870  -36.3750   23.8430 C   0  0  0  0  0  3  0  0  0  0  0  0
  -27.3700  -37.3400   24.7050 C   0  0  0  0  0  1  0  0  0  0  0  0
  -26.2910  -37.4490   23.7310 N   0  0  0  0  0  0  0  0  0  0  0  0
  -25.8620  -38.3630   23.8350 H   0  0  0  0  0  0  0  0  0  0  0  0
  -26.2800  -31.8190   25.2600 C   0  0  1  0  0  0  0  0  0  0  0  0
  -25.1230  -31.5830   26.2620 C   0  0  0  0  0  1  0  0  0  0  0  0
  -26.9140  -30.4430   24.9450 C   0  0  0  0  0  1  0  0  0  0  0  0
  -27.3680  -32.6560   25.9730 C   0  0  0  0  0  1  0  0  0  0  0  0
  -29.0920  -18.3720   19.7560 C   0  0  0  0  0  2  0  0  0  0  0  0
  -30.4040  -17.4540   19.9540 C   0  0  0  0  0  2  0  0  0  0  0  0
  -30.8630  -14.8000   19.9260 C   0  0  0  0  0  0  0  0  0  0  0  0
  -30.5660  -12.4990   18.9780 C   0  0  0  0  0  2  0  0  0  0  0  0
  -29.5980  -12.5540   17.7750 C   0  0  0  0  0  2  0  0  0  0  0  0
  -28.1320  -12.4550   18.2380 C   0  0  0  0  0  2  0  0  0  0  0  0
  -27.8250  -13.4010   19.4350 C   0  0  0  0  0  3  0  0  0  0  0  0
  -28.9030  -13.2930   20.5350 C   0  0  0  0  0  2  0  0  0  0  0  0
  -30.1990  -13.5910   19.9100 N   0  0  0  0  0  0  0  0  0  0  0  0
  -32.0360  -14.8570   19.5480 O   0  0  0  0  0  0  0  0  0  0  0  0
  -30.1200  -15.9500   20.1730 N   0  0  0  0  0  0  0  0  0  0  0  0
  -29.1860  -15.7480   20.4930 H   0  0  0  0  0  0  0  0  0  0  0  0
  -25.4920  -14.1240   20.2170 C   0  0  0  0  0  0  0  0  0  0  0  0
  -24.3980  -13.4150   20.6190 C   0  0  0  0  0  0  0  0  0  0  0  0
  -24.7870  -12.0390   20.5930 C   0  0  0  0  0  0  0  0  0  0  0  0
  -26.4800  -13.1910   19.9640 N   0  0  0  0  0  0  0  0  0  0  0  0
  -26.0640  -11.9290   20.2500 N   0  0  0  0  0  0  0  0  0  0  0  0
  -23.9980  -10.8200   20.8140 C   0  0  0  0  0  0  0  0  0  0  0  0
  -24.4200   -9.8210   21.7210 C   0  0  0  0  0  3  0  0  0  0  0  0
  -23.6380   -8.6660   21.9290 C   0  0  0  0  0  3  0  0  0  0  0  0
  -22.4150   -8.5000   21.2380 C   0  0  0  0  0  0  0  0  0  0  0  0
  -22.0090   -9.4860   20.3200 C   0  0  0  0  0  3  0  0  0  0  0  0
  -22.7900  -10.6330   20.1090 C   0  0  0  0  0  3  0  0  0  0  0  0
  -21.6040   -7.3970   21.3580 O   0  0  0  0  0  0  0  0  0  0  0  0
  -21.5840   -6.6400   22.5010 C   0  0  0  0  0  0  0  0  0  0  0  0
  -21.2910   -7.2030   23.7620 C   0  0  0  0  0  3  0  0  0  0  0  0
  -21.2160   -6.3750   24.9000 C   0  0  0  0  0  3  0  0  0  0  0  0
  -21.4230   -4.9900   24.7790 C   0  0  0  0  0  0  0  0  0  0  0  0
  -21.7120   -4.4270   23.5250 C   0  0  0  0  0  3  0  0  0  0  0  0
  -21.7890   -5.2500   22.3860 C   0  0  0  0  0  0  0  0  0  0  0  0
  -22.0460   -4.7020   21.1740 F   0  0  0  0  0  0  0  0  0  0  0  0
  -21.3430   -4.1930   25.8710 F   0  0  0  0  0  0  0  0  0  0  0  0
  -23.0350  -13.9690   20.9150 C   0  0  0  0  0  0  0  0  0  0  0  0
  -22.2950  -13.3410   21.8190 N   0  0  0  0  0  0  0  0  0  0  0  0
  -22.6400  -15.0050   20.3780 O   0  0  0  0  0  0  0  0  0  0  0  0
  -22.6230  -12.5020   22.2780 H   0  0  0  0  0  0  0  0  0  0  0  0
  -21.3850  -13.7080   22.0630 H   0  0  0  0  0  0  0  0  0  0  0  0
  -25.7270  -15.4810   20.0130 N   0  0  0  0  0  0  0  0  0  0  0  0
  -24.9750  -16.1450   20.1050 H   0  0  0  0  0  0  0  0  0  0  0  0
  -26.5510  -15.8480   19.5640 H   0  0  0  0  0  0  0  0  0  0  0  0
  2  3  2  0
  3 15  1  0
  3  1  1  0
  4 58  1  0
  4  1  2  0
  5  2  1  0
  5  4  1  0
  6  7  1  0
  8  6  1  0
 10  9  1  0
 10  7  1  0
 10  5  1  0
 11  8  1  0
 11  9  1  0
 12 11  1  0
 13 11  1  0
 15 14  1  0
 16 15  1  0
 16 17  1  0
 18 29  2  0
 19 17  1  0
 19 24  1  0
 20 28  1  0
 20 30  1  0
 21 23  1  0
 22 28  1  0
 23 24  2  0
 23 22  1  0
 25 19  2  0
 26 25  1  0
 26 21  2  0
 27 21  1  0
 27 20  1  0
 28 18  1  0
 30 32  2  0
 31 30  1  0
 33 31  1  0
 34 43  2  0
 34 39  1  0
 35 31  1  0
 35 39  1  0
 36 35  1  0
 37 38  1  0
 37 36  1  0
 38 34  1  0
 39 40  2  0
 40 41  1  0
 42 41  2  0
 43 42  1  0
 44 18  1  0
 44 45  1  0
 44 54  1  0
 45 48  1  0
 46 50  1  0
 46 45  1  0
 47 46  2  0
 50 49  1  0
 52 53  1  0
 52 50  1  0
 52 51  1  0
 54 57  1  1
 54 55  1  0
 56 54  1  0
 58 59  1  0
 59 68  1  0
 60 68  1  0
 61 66  1  0
 62 63  1  0
 62 61  1  0
 64 63  1  0
 64 73  1  0
 64 65  1  0
 66 60  1  0
 66 65  1  0
 67 60  2  0
 68 69  1  0
 70 71  2  0
 71 90  1  0
 72 71  1  0
 72 75  1  0
 73 70  1  0
 73 74  1  0
 74 72  2  0
 75 76  1  0
 76 77  2  0
 78 81  1  0
 78 77  1  0
 79 78  2  0
 80 79  1  0
 80 75  2  0
 81 82  1  0
 82 83  1  0
 83 84  2  0
 85 84  1  0
 85 89  1  0
 86 85  2  0
 87 82  2  0
 87 86  1  0
 88 87  1  0
 90 91  1  0
 91 94  1  0
 91 93  1  0
 92 90  2  0
 95 96  1  0
 95 70  1  0
 97 95  1  0
M  ISO  4  16 101  17 101  60 100  68 100
M  END
>  <TORSDO>  (84) 
F 21

>  <SCORE>  (84) 
-9.538

>  <name>  (84) 
84

>  <ligand_id>  (84) 
84

>  <original_smiles>  (84) 
[H]c1c([H])c([H])c2c(c1[H])C([H])([H])C([H])([H])C([H])([H])C2([H])N([H])C(=O)C1([H])N(C(=O)C([H])(N([H])C(=O)C([H])(N([H])C([H])([H])[H])C([H])([H])[H])C(C([H])([H])[H])(C([H])([H])[H])C([H])([H])[H])C([H])([H])c2c([H])c(OC([H])([H])C([H])(c3c([H])c(C([H])([H])C([H])([H])N([H])C(=O)N4C([H])([H])C([H])([H])C([H])([H])C([H])(n5nc(-c6c([H])c([H])c(Oc7c([H])c([H])c(F)c([H])c7F)c([H])c6[H])c(C(=O)N([H])[H])c5N([H])[H])C4([H])[H])n(C4([H])C([H])([H])C([H])([H])C([H])([H])[N+]([H])([H])C4([H])[H])c3[H])C([H])([H])[H])c([H])c([H])c2C1([H])[H]

>  <smiles>  (84) 
[H]c1c([H])c([H])c2c(c1[H])C([H])([H])C([H])([H])C([H])([H])C2([H])N([H])C(=O)C1([H])N(C(=O)C([H])(N([H])C(=O)C([H])(N([H])C([H])([H])[H])C([H])([H])[H])C(C([H])([H])[H])(C([H])([H])[H])C([H])([H])[H])C([H])([H])c2c([H])c(OC([H])([H])C([H])(c3c([H])c(C([H])([H])C([H])([H])N([H])C(=O)N4C([H])([H])C([H])([H])C([H])([H])C([H])(n5nc(-c6c([H])c([H])c(Oc7c([H])c([H])c(F)c([H])c7F)c([H])c6[H])c(C(=O)N([H])[H])c5N([H])[H])C4([H])[H])n(C4([H])C([H])([H])C([H])([H])C([H])([H])[N+]([H])([H])C4([H])[H])c3[H])C([H])([H])[H])c([H])c([H])c2C1([H])[H]

$$$$
85:0:0
     RDKit          3D

 98105  0  0  1  0  0  0  0  0999 V2000
  -29.5550  -22.8970   22.5870 C   0  0  0  0  0  1  0  0  0  0  0  0
  -29.8070  -23.2100   21.0890 C   0  0  0  0  0  3  0  0  0  0  0  0
  -31.0970  -22.4410   20.6730 C   0  0  0  0  0  2  0  0  0  0  0  0
  -30.8590  -21.0120   20.4300 N   0  0  0  0  0  0  0  0  0  0  0  0
  -31.5010  -20.7440   19.6870 H   0  0  0  0  0  0  0  0  0  0  0  0
  -31.1040  -20.1220   21.5760 C   0  0  0  0  0  2  0  0  0  0  0  0
  -30.7870  -18.7210   21.1970 N   0  0  0  0  0  4  0  0  0  0  0  0
  -29.9160  -18.7140   20.6920 H   0  0  0  0  0  0  0  0  0  0  0  0
  -31.5050  -18.3890   20.5760 H   0  0  0  0  0  0  0  0  0  0  0  0
  -30.6750  -17.7360   22.3050 C   0  0  0  0  0  2  0  0  0  0  0  0
  -32.2520  -15.8310   23.0860 C   0  0  0  0  0  1  0  0  0  0  0  0
  -31.3710  -16.3860   21.9490 C   0  0  0  0  0  3  0  0  0  0  0  0
  -30.8140  -14.3950   20.5990 C   0  0  0  0  0  0  0  0  0  0  0  0
  -30.3940  -12.2780   19.4200 C   0  0  0  0  0  2  0  0  0  0  0  0
  -29.4860  -12.5150   18.2000 C   0  0  0  0  0  2  0  0  0  0  0  0
  -28.0100  -12.3890   18.6130 C   0  0  0  0  0  2  0  0  0  0  0  0
  -27.6670  -13.2230   19.8780 C   0  0  0  0  0  3  0  0  0  0  0  0
  -28.7120  -13.0310   21.0060 C   0  0  0  0  0  2  0  0  0  0  0  0
  -30.0520  -13.2770   20.4500 N   0  0  0  0  0  0  0  0  0  0  0  0
  -31.8420  -14.5760   19.9450 O   0  0  0  0  0  0  0  0  0  0  0  0
  -30.4540  -15.3040   21.5240 N   0  0  0  0  0  0  0  0  0  0  0  0
  -29.6020  -15.1470   22.0440 H   0  0  0  0  0  0  0  0  0  0  0  0
  -25.2620  -13.8190   20.5670 C   0  0  0  0  0  0  0  0  0  0  0  0
  -24.1870  -13.0430   20.9150 C   0  0  0  0  0  0  0  0  0  0  0  0
  -24.6420  -11.6900   20.8690 C   0  0  0  0  0  0  0  0  0  0  0  0
  -26.3080  -12.9380   20.3390 N   0  0  0  0  0  0  0  0  0  0  0  0
  -25.9380  -11.6510   20.5780 N   0  0  0  0  0  0  0  0  0  0  0  0
  -23.9070  -10.4270   21.0360 C   0  0  0  0  0  0  0  0  0  0  0  0
  -24.3630   -9.4210   21.9160 C   0  0  0  0  0  3  0  0  0  0  0  0
  -23.6290   -8.2260   22.0750 C   0  0  0  0  0  3  0  0  0  0  0  0
  -22.4280   -8.0280   21.3550 C   0  0  0  0  0  0  0  0  0  0  0  0
  -21.9920   -9.0240   20.4650 C   0  0  0  0  0  3  0  0  0  0  0  0
  -22.7240  -10.2110   20.3030 C   0  0  0  0  0  3  0  0  0  0  0  0
  -21.6650   -6.8870   21.4230 O   0  0  0  0  0  0  0  0  0  0  0  0
  -21.6870   -6.0730   22.5270 C   0  0  0  0  0  0  0  0  0  0  0  0
  -21.4020   -6.5640   23.8200 C   0  0  0  0  0  3  0  0  0  0  0  0
  -21.3650   -5.6800   24.9160 C   0  0  0  0  0  3  0  0  0  0  0  0
  -21.6040   -4.3060   24.7230 C   0  0  0  0  0  0  0  0  0  0  0  0
  -21.8820   -3.8140   23.4360 C   0  0  0  0  0  3  0  0  0  0  0  0
  -21.9190   -4.6950   22.3400 C   0  0  0  0  0  0  0  0  0  0  0  0
  -22.1660   -4.2130   21.0990 F   0  0  0  0  0  0  0  0  0  0  0  0
  -21.5620   -3.4550   25.7750 F   0  0  0  0  0  0  0  0  0  0  0  0
  -22.7890  -13.5230   21.1770 C   0  0  0  0  0  0  0  0  0  0  0  0
  -22.0540  -12.8220   22.0330 N   0  0  0  0  0  0  0  0  0  0  0  0
  -22.3560  -14.5520   20.6580 O   0  0  0  0  0  0  0  0  0  0  0  0
  -22.4170  -11.9920   22.4760 H   0  0  0  0  0  0  0  0  0  0  0  0
  -21.1130  -13.1210   22.2450 H   0  0  0  0  0  0  0  0  0  0  0  0
  -25.4340  -15.1910   20.4110 N   0  0  0  0  0  0  0  0  0  0  0  0
  -24.6720  -15.8500   20.5210 H   0  0  0  0  0  0  0  0  0  0  0  0
  -26.2900  -15.6250   20.0870 H   0  0  0  0  0  0  0  0  0  0  0  0
  -29.7610  -24.7690   20.7900 C   0  0  0  0  0  3  0  0  0  0  0  0
  -30.5770  -25.1820   19.6200 N   0  0  0  0  0  4  0  0  0  0  0  0
  -31.5680  -25.0770   19.7680 H   0  0  0  0  0  0  0  0  0  0  0  0
  -30.4040  -26.1650   19.4710 H   0  0  0  0  0  0  0  0  0  0  0  0
  -30.3130  -24.7120   18.7730 H   0  0  0  0  0  0  0  0  0  0  0  0
  -27.4120  -25.1380   21.8140 C   0  0  0  0  0  1  0  0  0  0  0  0
  -28.3100  -25.3310   20.5650 C   0  0  0  0  0  3  0  0  0  0  0  0
  -28.4170  -26.7250   20.2000 O   0  0  0  0  0  0  0  0  0  0  0  0
  -24.6160  -31.8660   23.2120 C   0  0  0  0  0  0  0  0  0  0  0  0
  -27.2460  -27.4580   20.1070 C   0  0  0  0  0  0  0  0  0  0  0  0
  -23.4030  -30.4870   21.5560 C   0  0  0  0  0  3  0  0  0  0  0  0
  -24.8550  -28.9680   20.1060 C   0  0  0  0  0  0  0  0  0  0  0  0
  -25.9280  -30.8490   21.3540 C   0  0  0  0  0  2  0  0  0  0  0  0
  -26.0120  -29.4890   20.6950 C   0  0  0  0  0  0  0  0  0  0  0  0
  -27.2110  -28.7440   20.6870 C   0  0  0  0  0  3  0  0  0  0  0  0
  -26.0740  -26.9480   19.5050 C   0  0  0  0  0  3  0  0  0  0  0  0
  -24.8770  -27.6950   19.5110 C   0  0  0  0  0  3  0  0  0  0  0  0
  -23.6070  -29.8210   20.1690 C   0  0  0  0  0  2  0  0  0  0  0  0
  -24.6670  -31.0760   22.1000 N   0  0  0  0  0  0  0  0  0  0  0  0
  -23.5350  -32.1410   23.7510 O   0  0  0  0  0  0  0  0  0  0  0  0
  -22.7400  -29.4630   22.5020 C   0  0  0  0  0  0  0  0  0  0  0  0
  -21.4130  -29.3000   22.3780 N   0  0  0  0  0  0  0  0  0  0  0  0
  -23.4170  -28.8160   23.3050 O   0  0  0  0  0  0  0  0  0  0  0  0
  -20.9280  -29.8700   21.7000 H   0  0  0  0  0  0  0  0  0  0  0  0
  -18.0250  -28.1340   22.8470 C   0  0  0  0  0  0  0  0  0  0  0  0
  -20.5840  -28.3600   23.1360 C   0  0  0  0  0  3  0  0  0  0  0  0
  -20.6750  -26.9330   22.5470 C   0  0  0  0  0  2  0  0  0  0  0  0
  -19.5750  -26.6360   21.5250 C   0  0  0  0  0  2  0  0  0  0  0  0
  -18.1920  -26.7880   22.1610 C   0  0  0  0  0  2  0  0  0  0  0  0
  -19.1500  -28.8780   23.2880 C   0  0  0  0  0  0  0  0  0  0  0  0
  -18.9450  -30.1390   23.8870 C   0  0  0  0  0  3  0  0  0  0  0  0
  -17.6460  -30.6540   24.0550 C   0  0  0  0  0  3  0  0  0  0  0  0
  -16.5340  -29.9030   23.6360 C   0  0  0  0  0  3  0  0  0  0  0  0
  -16.7260  -28.6480   23.0330 C   0  0  0  0  0  3  0  0  0  0  0  0
  -25.9030  -32.4820   23.8410 C   0  0  0  0  0  3  0  0  0  0  0  0
  -26.4450  -31.6580   25.0730 C   0  0  1  0  0  0  0  0  0  0  0  0
  -25.3700  -31.3630   26.1460 C   0  0  0  0  0  1  0  0  0  0  0  0
  -27.0310  -30.3030   24.6080 C   0  0  0  0  0  1  0  0  0  0  0  0
  -27.6050  -32.4290   25.7450 C   0  0  0  0  0  1  0  0  0  0  0  0
  -25.5860  -33.8640   24.2340 N   0  0  0  0  0  0  0  0  0  0  0  0
  -25.9010  -34.9490   23.5170 C   0  0  0  0  0  0  0  0  0  0  0  0
  -26.5630  -34.8940   22.4770 O   0  0  0  0  0  0  0  0  0  0  0  0
  -24.9880  -33.9780   25.0390 H   0  0  0  0  0  0  0  0  0  0  0  0
  -24.1500  -36.7340   23.2640 C   0  0  0  0  0  1  0  0  0  0  0  0
  -25.4120  -36.3160   24.0360 C   0  0  0  0  0  3  0  0  0  0  0  0
  -27.5610  -37.1800   24.8460 C   0  0  0  0  0  1  0  0  0  0  0  0
  -26.4320  -37.3820   23.9420 N   0  0  0  0  0  0  0  0  0  0  0  0
  -26.0250  -38.2930   24.1370 H   0  0  0  0  0  0  0  0  0  0  0  0
  2  1  1  0
  3  2  1  0
  4  3  1  0
  4  6  1  0
  5  4  1  0
  7  6  1  0
  7 10  1  0
  8  7  1  0
  9  7  1  0
 12 10  1  0
 12 11  1  0
 13 21  1  0
 14 19  1  0
 15 16  1  0
 15 14  1  0
 17 16  1  0
 17 26  1  0
 17 18  1  0
 19 13  1  0
 19 18  1  0
 20 13  2  0
 21 12  1  0
 21 22  1  0
 23 24  2  0
 24 43  1  0
 25 24  1  0
 25 28  1  0
 26 23  1  0
 26 27  1  0
 27 25  2  0
 28 29  1  0
 29 30  2  0
 31 34  1  0
 31 30  1  0
 32 31  2  0
 33 32  1  0
 33 28  2  0
 34 35  1  0
 35 36  1  0
 36 37  2  0
 38 37  1  0
 38 42  1  0
 39 38  2  0
 40 35  2  0
 40 39  1  0
 41 40  1  0
 43 44  1  0
 44 47  1  0
 44 46  1  0
 45 43  2  0
 48 49  1  0
 48 23  1  0
 50 48  1  0
 51 52  1  0
 51  2  1  0
 52 53  1  0
 54 52  1  0
 55 52  1  0
 57 51  1  0
 57 56  1  0
 58 57  1  0
 59 70  2  0
 60 58  1  0
 60 65  1  0
 61 69  1  0
 61 71  1  0
 62 68  1  0
 62 64  1  0
 63 69  1  0
 64 63  1  0
 65 64  2  0
 66 67  1  0
 66 60  2  0
 67 62  2  0
 68 61  1  0
 69 59  1  0
 71 73  2  0
 72 71  1  0
 74 72  1  0
 75 84  2  0
 75 80  1  0
 76 72  1  0
 76 80  1  0
 77 76  1  0
 78 79  1  0
 78 77  1  0
 79 75  1  0
 80 81  2  0
 81 82  1  0
 83 82  2  0
 84 83  1  0
 85 59  1  0
 85 90  1  0
 85 86  1  0
 86 89  1  1
 86 87  1  0
 88 86  1  0
 90 93  1  0
 91 95  1  0
 91 90  1  0
 92 91  2  0
 95 94  1  0
 97 95  1  0
 97 98  1  0
 97 96  1  0
M  ISO  4  13 100  21 100  57 101  58 101
M  END
>  <TORSDO>  (85) 
F 25

>  <SCORE>  (85) 
-8.778

>  <name>  (85) 
85

>  <ligand_id>  (85) 
85

>  <original_smiles>  (85) 
[H]c1c([H])c([H])c2c(c1[H])C([H])([H])C([H])([H])C([H])([H])C2([H])N([H])C(=O)C1([H])N(C(=O)C([H])(N([H])C(=O)C([H])(N([H])C([H])([H])[H])C([H])([H])[H])C(C([H])([H])[H])(C([H])([H])[H])C([H])([H])[H])C([H])([H])c2c([H])c(OC([H])(C([H])([H])[H])C([H])(C([H])(C([H])([H])[H])C([H])([H])N([H])C([H])([H])[N+]([H])([H])C([H])([H])C([H])(N([H])C(=O)N3C([H])([H])C([H])([H])C([H])([H])C([H])(n4nc(-c5c([H])c([H])c(Oc6c([H])c([H])c(F)c([H])c6F)c([H])c5[H])c(C(=O)N([H])[H])c4N([H])[H])C3([H])[H])C([H])([H])[H])[N+]([H])([H])[H])c([H])c([H])c2C1([H])[H]

>  <smiles>  (85) 
[H]c1c([H])c([H])c2c(c1[H])C([H])([H])C([H])([H])C([H])([H])C2([H])N([H])C(=O)C1([H])N(C(=O)C([H])(N([H])C(=O)C([H])(N([H])C([H])([H])[H])C([H])([H])[H])C(C([H])([H])[H])(C([H])([H])[H])C([H])([H])[H])C([H])([H])c2c([H])c(OC([H])(C([H])([H])[H])C([H])(C([H])(C([H])([H])[H])C([H])([H])N([H])C([H])([H])[N+]([H])([H])C([H])([H])C([H])(N([H])C(=O)N3C([H])([H])C([H])([H])C([H])([H])C([H])(n4nc(-c5c([H])c([H])c(Oc6c([H])c([H])c(F)c([H])c6F)c([H])c5[H])c(C(=O)N([H])[H])c4N([H])[H])C3([H])[H])C([H])([H])[H])[N+]([H])([H])[H])c([H])c([H])c2C1([H])[H]

$$$$
86:0:0
     RDKit          3D

 97106  0  0  1  0  0  0  0  0999 V2000
  -29.6440  -22.3010   19.5440 N   0  0  0  0  0  4  0  0  0  0  0  0
  -28.7030  -22.0410   19.3020 H   0  0  0  0  0  0  0  0  0  0  0  0
  -30.2080  -22.1620   18.7210 H   0  0  0  0  0  0  0  0  0  0  0  0
  -30.1880  -21.3660   20.5610 C   0  0  0  0  0  2  0  0  0  0  0  0
  -31.3840  -20.0280   18.6960 C   0  0  0  0  0  1  0  0  0  0  0  0
  -30.5330  -19.9660   19.9780 C   0  0  0  0  0  3  0  0  0  0  0  0
  -27.2740  -18.3170   19.2230 C   0  0  0  0  0  2  0  0  0  0  0  0
  -27.7910  -17.4500   20.3630 C   0  0  0  0  0  2  0  0  0  0  0  0
  -28.0890  -19.5900   19.3590 C   0  0  0  0  0  2  0  0  0  0  0  0
  -29.2540  -17.8760   20.5770 C   0  0  0  0  0  3  0  0  0  0  0  0
  -29.4010  -19.0620   19.7190 N   0  0  0  0  0  0  0  0  0  0  0  0
  -30.3210  -16.8260   20.1670 C   0  0  0  0  0  2  0  0  0  0  0  0
  -30.7410  -14.4130   20.1400 C   0  0  0  0  0  0  0  0  0  0  0  0
  -30.3530  -12.2550   19.0350 C   0  0  0  0  0  2  0  0  0  0  0  0
  -29.3810  -12.4880   17.8610 C   0  0  0  0  0  2  0  0  0  0  0  0
  -27.9180  -12.3850   18.3360 C   0  0  0  0  0  2  0  0  0  0  0  0
  -27.6390  -13.2300   19.6100 C   0  0  0  0  0  3  0  0  0  0  0  0
  -28.7280  -12.9910   20.6840 C   0  0  0  0  0  2  0  0  0  0  0  0
  -30.0430  -13.2500   20.0730 N   0  0  0  0  0  0  0  0  0  0  0  0
  -31.8400  -14.5740   19.6040 O   0  0  0  0  0  0  0  0  0  0  0  0
  -30.0670  -15.4590   20.6350 N   0  0  0  0  0  0  0  0  0  0  0  0
  -29.1760  -15.2690   21.0670 H   0  0  0  0  0  0  0  0  0  0  0  0
  -25.2740  -13.8790   20.3970 C   0  0  0  0  0  0  0  0  0  0  0  0
  -24.2090  -13.1270   20.8120 C   0  0  0  0  0  0  0  0  0  0  0  0
  -24.6440  -11.7670   20.7630 C   0  0  0  0  0  0  0  0  0  0  0  0
  -26.2970  -12.9800   20.1330 N   0  0  0  0  0  0  0  0  0  0  0  0
  -25.9200  -11.7050   20.4070 N   0  0  0  0  0  0  0  0  0  0  0  0
  -23.9010  -10.5190   20.9760 C   0  0  0  0  0  0  0  0  0  0  0  0
  -24.3580   -9.5340   21.8780 C   0  0  0  0  0  3  0  0  0  0  0  0
  -23.6180   -8.3510   22.0810 C   0  0  0  0  0  3  0  0  0  0  0  0
  -22.4040   -8.1430   21.3810 C   0  0  0  0  0  0  0  0  0  0  0  0
  -21.9650   -9.1180   20.4680 C   0  0  0  0  0  3  0  0  0  0  0  0
  -22.7050  -10.2940   20.2630 C   0  0  0  0  0  3  0  0  0  0  0  0
  -21.6300   -7.0140   21.4970 O   0  0  0  0  0  0  0  0  0  0  0  0
  -21.6280   -6.2570   22.6390 C   0  0  0  0  0  0  0  0  0  0  0  0
  -21.2960   -6.8050   23.8970 C   0  0  0  0  0  3  0  0  0  0  0  0
  -21.2390   -5.9740   25.0340 C   0  0  0  0  0  3  0  0  0  0  0  0
  -21.5030   -4.5980   24.9150 C   0  0  0  0  0  0  0  0  0  0  0  0
  -21.8300   -4.0490   23.6640 C   0  0  0  0  0  3  0  0  0  0  0  0
  -21.8900   -4.8750   22.5280 C   0  0  0  0  0  0  0  0  0  0  0  0
  -22.1830   -4.3380   21.3200 F   0  0  0  0  0  0  0  0  0  0  0  0
  -21.4410   -3.7980   26.0070 F   0  0  0  0  0  0  0  0  0  0  0  0
  -22.8330  -13.6310   21.1380 C   0  0  0  0  0  0  0  0  0  0  0  0
  -22.1280  -12.9530   22.0380 N   0  0  0  0  0  0  0  0  0  0  0  0
  -22.3930  -14.6610   20.6300 O   0  0  0  0  0  0  0  0  0  0  0  0
  -22.4960  -12.1190   22.4700 H   0  0  0  0  0  0  0  0  0  0  0  0
  -21.2060  -13.2740   22.2950 H   0  0  0  0  0  0  0  0  0  0  0  0
  -25.4460  -15.2450   20.2040 N   0  0  0  0  0  0  0  0  0  0  0  0
  -24.6860  -15.9020   20.3330 H   0  0  0  0  0  0  0  0  0  0  0  0
  -26.2750  -15.6730   19.8130 H   0  0  0  0  0  0  0  0  0  0  0  0
  -29.7150  -23.7450   19.8810 C   0  0  0  0  0  3  0  0  0  0  0  0
  -30.8650  -25.7970   18.6690 C   0  0  0  0  0  2  0  0  0  0  0  0
  -31.4450  -24.5500   18.0510 C   0  0  0  0  0  2  0  0  0  0  0  0
  -30.0410  -24.5290   18.6160 C   0  0  0  0  0  3  0  0  0  0  0  0
  -28.4050  -24.2400   20.5460 C   0  0  0  0  0  2  0  0  0  0  0  0
  -28.4740  -25.6560   21.1630 C   0  0  0  0  0  2  0  0  0  0  0  0
  -28.4410  -26.6980   20.1840 O   0  0  0  0  0  0  0  0  0  0  0  0
  -24.5910  -31.8370   23.2290 C   0  0  0  0  0  0  0  0  0  0  0  0
  -27.2780  -27.4250   20.1780 C   0  0  0  0  0  0  0  0  0  0  0  0
  -23.4040  -30.4340   21.5700 C   0  0  0  0  0  3  0  0  0  0  0  0
  -24.8790  -28.9010   20.1620 C   0  0  0  0  0  0  0  0  0  0  0  0
  -25.9280  -30.8080   21.3980 C   0  0  0  0  0  2  0  0  0  0  0  0
  -26.0260  -29.4380   20.7620 C   0  0  0  0  0  0  0  0  0  0  0  0
  -27.2310  -28.7050   20.7680 C   0  0  0  0  0  3  0  0  0  0  0  0
  -26.1210  -26.8930   19.5750 C   0  0  0  0  0  3  0  0  0  0  0  0
  -24.9190  -27.6270   19.5660 C   0  0  0  0  0  3  0  0  0  0  0  0
  -23.6290  -29.7530   20.1930 C   0  0  0  0  0  2  0  0  0  0  0  0
  -24.6580  -31.0400   22.1260 N   0  0  0  0  0  0  0  0  0  0  0  0
  -23.5040  -32.1060   23.7600 O   0  0  0  0  0  0  0  0  0  0  0  0
  -22.7460  -29.4110   22.5240 C   0  0  0  0  0  0  0  0  0  0  0  0
  -21.4280  -29.2070   22.3630 N   0  0  0  0  0  0  0  0  0  0  0  0
  -23.4180  -28.8020   23.3600 O   0  0  0  0  0  0  0  0  0  0  0  0
  -20.9480  -29.7490   21.6590 H   0  0  0  0  0  0  0  0  0  0  0  0
  -18.0670  -27.9460   22.7580 C   0  0  0  0  0  0  0  0  0  0  0  0
  -20.6070  -28.2630   23.1200 C   0  0  0  0  0  3  0  0  0  0  0  0
  -20.7620  -26.8260   22.5710 C   0  0  0  0  0  2  0  0  0  0  0  0
  -19.7060  -26.4640   21.5220 C   0  0  0  0  0  2  0  0  0  0  0  0
  -18.2980  -26.5890   22.1130 C   0  0  0  0  0  2  0  0  0  0  0  0
  -19.1530  -28.7390   23.2170 C   0  0  0  0  0  0  0  0  0  0  0  0
  -18.8860  -30.0070   23.7770 C   0  0  0  0  0  3  0  0  0  0  0  0
  -17.5650  -30.4830   23.8840 C   0  0  0  0  0  3  0  0  0  0  0  0
  -16.4940  -29.6870   23.4440 C   0  0  0  0  0  3  0  0  0  0  0  0
  -16.7450  -28.4210   22.8860 C   0  0  0  0  0  3  0  0  0  0  0  0
  -25.8700  -32.4680   23.8630 C   0  0  0  0  0  3  0  0  0  0  0  0
  -25.5590  -33.8670   24.1880 N   0  0  0  0  0  0  0  0  0  0  0  0
  -25.9010  -34.9160   23.4280 C   0  0  0  0  0  0  0  0  0  0  0  0
  -26.5830  -34.8100   22.4040 O   0  0  0  0  0  0  0  0  0  0  0  0
  -24.9570  -34.0240   24.9820 H   0  0  0  0  0  0  0  0  0  0  0  0
  -24.1720  -36.7040   23.0500 C   0  0  0  0  0  1  0  0  0  0  0  0
  -25.4070  -36.3060   23.8750 C   0  0  0  0  0  3  0  0  0  0  0  0
  -27.5340  -37.1950   24.7190 C   0  0  0  0  0  1  0  0  0  0  0  0
  -26.4390  -37.3600   23.7660 N   0  0  0  0  0  0  0  0  0  0  0  0
  -26.0300  -38.2800   23.9090 H   0  0  0  0  0  0  0  0  0  0  0  0
  -26.3760  -31.6970   25.1440 C   0  0  1  0  0  0  0  0  0  0  0  0
  -25.2730  -31.4580   26.2020 C   0  0  0  0  0  1  0  0  0  0  0  0
  -26.9620  -30.3200   24.7540 C   0  0  0  0  0  1  0  0  0  0  0  0
  -27.5200  -32.4920   25.8180 C   0  0  0  0  0  1  0  0  0  0  0  0
  1 51  1  0
  1  4  1  0
  2  1  1  0
  3  1  1  0
  6  5  1  0
  6  4  1  0
  7  9  1  0
  7  8  1  0
  8 10  1  0
  9 11  1  0
 10 12  1  0
 11  6  1  0
 11 10  1  0
 12 21  1  0
 13 21  1  0
 14 19  1  0
 15 16  1  0
 15 14  1  0
 17 16  1  0
 17 26  1  0
 17 18  1  0
 19 13  1  0
 19 18  1  0
 20 13  2  0
 21 22  1  0
 23 24  2  0
 24 43  1  0
 25 24  1  0
 25 28  1  0
 26 23  1  0
 26 27  1  0
 27 25  2  0
 28 29  1  0
 29 30  2  0
 31 34  1  0
 31 30  1  0
 32 31  2  0
 33 32  1  0
 33 28  2  0
 34 35  1  0
 35 36  1  0
 36 37  2  0
 38 37  1  0
 38 42  1  0
 39 38  2  0
 40 35  2  0
 40 39  1  0
 41 40  1  0
 43 44  1  0
 44 47  1  0
 44 46  1  0
 45 43  2  0
 48 49  1  0
 48 23  1  0
 50 48  1  0
 51 55  1  0
 53 54  1  0
 53 52  1  0
 54 52  1  0
 54 51  1  0
 55 56  1  0
 57 56  1  0
 58 69  2  0
 59 57  1  0
 59 64  1  0
 60 68  1  0
 60 70  1  0
 61 67  1  0
 61 63  1  0
 62 68  1  0
 63 64  2  0
 63 62  1  0
 65 59  2  0
 66 65  1  0
 66 61  2  0
 67 60  1  0
 68 58  1  0
 70 72  2  0
 71 70  1  0
 73 71  1  0
 74 83  2  0
 74 79  1  0
 75 71  1  0
 75 79  1  0
 76 75  1  0
 77 78  1  0
 77 76  1  0
 78 74  1  0
 79 80  2  0
 80 81  1  0
 82 81  2  0
 83 82  1  0
 84 58  1  0
 84 85  1  0
 84 94  1  0
 85 88  1  0
 86 90  1  0
 86 85  1  0
 87 86  2  0
 90 89  1  0
 92 90  1  0
 92 93  1  0
 92 91  1  0
 94 97  1  1
 94 95  1  0
 96 94  1  0
M  ISO  4  13 100  21 100  56 101  57 101
M  END
>  <TORSDO>  (86) 
F 24

>  <SCORE>  (86) 
-12.652

>  <name>  (86) 
86

>  <ligand_id>  (86) 
86

>  <original_smiles>  (86) 
[H]c1c([H])c([H])c2c(c1[H])C([H])([H])C([H])([H])C([H])([H])C2([H])N([H])C(=O)C1([H])N(C(=O)C([H])(N([H])C(=O)C([H])(N([H])C([H])([H])[H])C([H])([H])[H])C(C([H])([H])[H])(C([H])([H])[H])C([H])([H])[H])C([H])([H])c2c([H])c(OC([H])([H])C([H])([H])C([H])(C3([H])C([H])([H])C3([H])[H])[N+]([H])([H])C([H])([H])C([H])(N3C([H])([H])C([H])([H])C([H])([H])C3([H])C([H])([H])N([H])C(=O)N3C([H])([H])C([H])([H])C([H])([H])C([H])(n4nc(-c5c([H])c([H])c(Oc6c([H])c([H])c(F)c([H])c6F)c([H])c5[H])c(C(=O)N([H])[H])c4N([H])[H])C3([H])[H])C([H])([H])[H])c([H])c([H])c2C1([H])[H]

>  <smiles>  (86) 
[H]c1c([H])c([H])c2c(c1[H])C([H])([H])C([H])([H])C([H])([H])C2([H])N([H])C(=O)C1([H])N(C(=O)C([H])(N([H])C(=O)C([H])(N([H])C([H])([H])[H])C([H])([H])[H])C(C([H])([H])[H])(C([H])([H])[H])C([H])([H])[H])C([H])([H])c2c([H])c(OC([H])([H])C([H])([H])C([H])(C3([H])C([H])([H])C3([H])[H])[N+]([H])([H])C([H])([H])C([H])(N3C([H])([H])C([H])([H])C([H])([H])C3([H])C([H])([H])N([H])C(=O)N3C([H])([H])C([H])([H])C([H])([H])C([H])(n4nc(-c5c([H])c([H])c(Oc6c([H])c([H])c(F)c([H])c6F)c([H])c5[H])c(C(=O)N([H])[H])c4N([H])[H])C3([H])[H])C([H])([H])[H])c([H])c([H])c2C1([H])[H]

$$$$
87:0:0
     RDKit          3D

 98107  0  0  1  0  0  0  0  0999 V2000
  -29.3390  -18.1680   20.1800 C   0  0  0  0  0  0  0  0  0  0  0  0
  -31.0710  -20.0910   21.3360 C   0  0  0  0  0  2  0  0  0  0  0  0
  -30.7350  -17.6890   20.6780 C   0  0  0  0  0  3  0  0  0  0  0  0
  -30.1560  -20.5350   20.1710 C   0  0  0  0  0  3  0  0  0  0  0  0
  -29.1140  -19.4940   19.9260 N   0  0  0  0  0  0  0  0  0  0  0  0
  -31.6690  -18.7830   21.0270 N   0  0  0  0  0  4  0  0  0  0  0  0
  -28.4660  -17.3120   19.9950 O   0  0  0  0  0  0  0  0  0  0  0  0
  -32.2600  -18.4890   21.7850 H   0  0  0  0  0  0  0  0  0  0  0  0
  -32.2680  -18.9140   20.2280 H   0  0  0  0  0  0  0  0  0  0  0  0
  -28.7490  -22.3620   21.4700 C   0  0  0  0  0  2  0  0  0  0  0  0
  -30.8740  -23.0360   20.3080 C   0  0  0  0  0  2  0  0  0  0  0  0
  -28.2640  -23.8310   21.4280 C   0  0  0  0  0  2  0  0  0  0  0  0
  -30.4100  -24.5060   20.2710 C   0  0  0  0  0  2  0  0  0  0  0  0
  -29.6900  -22.0360   20.2840 C   0  0  0  0  0  3  0  0  0  0  0  0
  -29.4380  -24.8360   21.4220 C   0  0  0  0  0  3  0  0  0  0  0  0
  -28.9840  -26.3220   21.4210 C   0  0  0  0  0  2  0  0  0  0  0  0
  -28.4220  -26.6910   20.1600 O   0  0  0  0  0  0  0  0  0  0  0  0
  -24.5960  -31.9000   23.2260 C   0  0  0  0  0  0  0  0  0  0  0  0
  -27.2820  -27.4580   20.2010 C   0  0  0  0  0  0  0  0  0  0  0  0
  -23.4050  -30.4800   21.5860 C   0  0  0  0  0  3  0  0  0  0  0  0
  -24.8780  -28.9390   20.1820 C   0  0  0  0  0  0  0  0  0  0  0  0
  -25.9280  -30.8530   21.4020 C   0  0  0  0  0  2  0  0  0  0  0  0
  -26.0260  -29.4740   20.7830 C   0  0  0  0  0  0  0  0  0  0  0  0
  -27.2320  -28.7370   20.8040 C   0  0  0  0  0  3  0  0  0  0  0  0
  -26.1290  -26.9400   19.5830 C   0  0  0  0  0  3  0  0  0  0  0  0
  -24.9230  -27.6690   19.5810 C   0  0  0  0  0  3  0  0  0  0  0  0
  -23.6260  -29.7870   20.2130 C   0  0  0  0  0  2  0  0  0  0  0  0
  -24.6600  -31.0940   22.1290 N   0  0  0  0  0  0  0  0  0  0  0  0
  -23.5120  -32.1700   23.7610 O   0  0  0  0  0  0  0  0  0  0  0  0
  -22.7550  -29.4640   22.5510 C   0  0  0  0  0  0  0  0  0  0  0  0
  -21.4310  -29.2800   22.4250 N   0  0  0  0  0  0  0  0  0  0  0  0
  -23.4400  -28.8420   23.3670 O   0  0  0  0  0  0  0  0  0  0  0  0
  -20.9380  -29.8340   21.7380 H   0  0  0  0  0  0  0  0  0  0  0  0
  -18.0540  -28.1050   22.9440 C   0  0  0  0  0  0  0  0  0  0  0  0
  -20.6160  -28.3440   23.1980 C   0  0  0  0  0  3  0  0  0  0  0  0
  -20.7040  -26.9150   22.6170 C   0  0  0  0  0  2  0  0  0  0  0  0
  -19.5940  -26.6020   21.6090 C   0  0  0  0  0  2  0  0  0  0  0  0
  -18.2160  -26.7570   22.2610 C   0  0  0  0  0  2  0  0  0  0  0  0
  -19.1810  -28.8570   23.3690 C   0  0  0  0  0  0  0  0  0  0  0  0
  -18.9760  -30.1200   23.9640 C   0  0  0  0  0  3  0  0  0  0  0  0
  -17.6770  -30.6330   24.1390 C   0  0  0  0  0  3  0  0  0  0  0  0
  -16.5640  -29.8770   23.7320 C   0  0  0  0  0  3  0  0  0  0  0  0
  -16.7530  -28.6160   23.1390 C   0  0  0  0  0  3  0  0  0  0  0  0
  -25.8790  -32.5410   23.8450 C   0  0  0  0  0  3  0  0  0  0  0  0
  -26.4010  -31.7760   25.1230 C   0  0  1  0  0  0  0  0  0  0  0  0
  -25.3100  -31.5340   26.1900 C   0  0  0  0  0  1  0  0  0  0  0  0
  -26.9930  -30.4010   24.7320 C   0  0  0  0  0  1  0  0  0  0  0  0
  -27.5460  -32.5780   25.7830 C   0  0  0  0  0  1  0  0  0  0  0  0
  -25.5630  -33.9390   24.1700 N   0  0  0  0  0  0  0  0  0  0  0  0
  -25.8980  -34.9900   23.4090 C   0  0  0  0  0  0  0  0  0  0  0  0
  -26.5780  -34.8860   22.3850 O   0  0  0  0  0  0  0  0  0  0  0  0
  -24.9640  -34.0950   24.9680 H   0  0  0  0  0  0  0  0  0  0  0  0
  -24.1720  -36.7770   23.0190 C   0  0  0  0  0  1  0  0  0  0  0  0
  -25.3990  -36.3760   23.8550 C   0  0  0  0  0  3  0  0  0  0  0  0
  -27.5150  -37.2660   24.7290 C   0  0  0  0  0  1  0  0  0  0  0  0
  -26.4310  -37.4320   23.7630 N   0  0  0  0  0  0  0  0  0  0  0  0
  -26.0210  -38.3520   23.9010 H   0  0  0  0  0  0  0  0  0  0  0  0
  -27.8790  -19.6280   17.7530 C   0  0  0  0  0  1  0  0  0  0  0  0
  -27.8410  -19.8740   19.2720 C   0  0  0  0  0  2  0  0  0  0  0  0
  -30.7040  -16.6200   21.8180 C   0  0  0  0  0  2  0  0  0  0  0  0
  -30.7080  -14.4210   20.6330 C   0  0  0  0  0  0  0  0  0  0  0  0
  -30.3680  -12.3390   19.3550 C   0  0  0  0  0  2  0  0  0  0  0  0
  -29.4340  -12.5970   18.1560 C   0  0  0  0  0  2  0  0  0  0  0  0
  -27.9560  -12.4640   18.5710 C   0  0  0  0  0  2  0  0  0  0  0  0
  -27.6250  -13.2690   19.8560 C   0  0  0  0  0  3  0  0  0  0  0  0
  -28.6640  -12.9850   20.9620 C   0  0  0  0  0  2  0  0  0  0  0  0
  -30.0020  -13.2820   20.4210 N   0  0  0  0  0  0  0  0  0  0  0  0
  -31.7840  -14.6680   20.0790 O   0  0  0  0  0  0  0  0  0  0  0  0
  -30.1340  -15.3150   21.4520 N   0  0  0  0  0  0  0  0  0  0  0  0
  -29.2350  -15.0670   21.8390 H   0  0  0  0  0  0  0  0  0  0  0  0
  -25.2180  -13.8880   20.5270 C   0  0  0  0  0  0  0  0  0  0  0  0
  -24.1420  -13.1190   20.8850 C   0  0  0  0  0  0  0  0  0  0  0  0
  -24.6000  -11.7660   20.8640 C   0  0  0  0  0  0  0  0  0  0  0  0
  -26.2630  -13.0030   20.3140 N   0  0  0  0  0  0  0  0  0  0  0  0
  -25.8930  -11.7220   20.5720 N   0  0  0  0  0  0  0  0  0  0  0  0
  -23.8680  -10.5050   21.0480 C   0  0  0  0  0  0  0  0  0  0  0  0
  -24.2890   -9.5380   21.9870 C   0  0  0  0  0  3  0  0  0  0  0  0
  -23.5580   -8.3420   22.1580 C   0  0  0  0  0  3  0  0  0  0  0  0
  -22.3930   -8.1060   21.3890 C   0  0  0  0  0  0  0  0  0  0  0  0
  -21.9930   -9.0620   20.4390 C   0  0  0  0  0  3  0  0  0  0  0  0
  -22.7230  -10.2480   20.2660 C   0  0  0  0  0  3  0  0  0  0  0  0
  -21.6330   -6.9640   21.4700 O   0  0  0  0  0  0  0  0  0  0  0  0
  -21.5650   -6.2250   22.6230 C   0  0  0  0  0  0  0  0  0  0  0  0
  -21.1230   -6.7840   23.8420 C   0  0  0  0  0  3  0  0  0  0  0  0
  -21.0040   -5.9710   24.9870 C   0  0  0  0  0  3  0  0  0  0  0  0
  -21.3150   -4.6000   24.9130 C   0  0  0  0  0  0  0  0  0  0  0  0
  -21.7480   -4.0390   23.6990 C   0  0  0  0  0  3  0  0  0  0  0  0
  -21.8700   -4.8500   22.5560 C   0  0  0  0  0  0  0  0  0  0  0  0
  -22.2670   -4.3020   21.3830 F   0  0  0  0  0  0  0  0  0  0  0  0
  -21.1920   -3.8160   26.0100 F   0  0  0  0  0  0  0  0  0  0  0  0
  -22.7430  -13.6010   21.1420 C   0  0  0  0  0  0  0  0  0  0  0  0
  -22.0020  -12.9010   21.9940 N   0  0  0  0  0  0  0  0  0  0  0  0
  -22.3160  -14.6320   20.6240 O   0  0  0  0  0  0  0  0  0  0  0  0
  -22.3600  -12.0660   22.4350 H   0  0  0  0  0  0  0  0  0  0  0  0
  -21.0620  -13.2030   22.2080 H   0  0  0  0  0  0  0  0  0  0  0  0
  -25.3930  -15.2570   20.3480 N   0  0  0  0  0  0  0  0  0  0  0  0
  -24.6300  -15.9180   20.4460 H   0  0  0  0  0  0  0  0  0  0  0  0
  -26.2580  -15.6960   20.0540 H   0  0  0  0  0  0  0  0  0  0  0  0
  1  3  1  0
  3  6  1  0
  3 60  1  0
  4 14  1  0
  4  2  1  0
  5  4  1  0
  5  1  1  0
  6  2  1  0
  6  8  1  0
  7  1  2  0
  9  6  1  0
 12 10  1  0
 13 11  1  0
 13 15  1  0
 14 11  1  0
 14 10  1  0
 15 16  1  0
 15 12  1  0
 17 19  1  0
 17 16  1  0
 18 29  2  0
 19 24  1  0
 20 28  1  0
 20 30  1  0
 21 27  1  0
 21 23  1  0
 22 28  1  0
 23 24  2  0
 23 22  1  0
 25 19  2  0
 26 25  1  0
 26 21  2  0
 27 20  1  0
 28 18  1  0
 30 32  2  0
 31 30  1  0
 33 31  1  0
 34 43  2  0
 34 39  1  0
 35 31  1  0
 35 39  1  0
 36 35  1  0
 37 38  1  0
 37 36  1  0
 38 34  1  0
 39 40  2  0
 40 41  1  0
 42 41  2  0
 43 42  1  0
 44 18  1  0
 44 49  1  0
 44 45  1  0
 45 48  1  1
 45 46  1  0
 47 45  1  0
 49 52  1  0
 50 54  1  0
 50 49  1  0
 51 50  2  0
 54 53  1  0
 56 54  1  0
 56 57  1  0
 56 55  1  0
 58 59  1  0
 59  5  1  0
 61 69  1  0
 62 67  1  0
 63 64  1  0
 63 62  1  0
 65 64  1  0
 65 74  1  0
 65 66  1  0
 67 61  1  0
 67 66  1  0
 68 61  2  0
 69 60  1  0
 69 70  1  0
 71 72  2  0
 72 91  1  0
 73 72  1  0
 73 76  1  0
 74 71  1  0
 74 75  1  0
 75 73  2  0
 76 77  1  0
 77 78  2  0
 79 82  1  0
 79 78  1  0
 80 79  2  0
 81 80  1  0
 81 76  2  0
 82 83  1  0
 83 84  1  0
 84 85  2  0
 86 85  1  0
 86 90  1  0
 87 86  2  0
 88 83  2  0
 88 87  1  0
 89 88  1  0
 91 92  1  0
 92 95  1  0
 92 94  1  0
 93 91  2  0
 96 97  1  0
 96 71  1  0
 98 96  1  0
M  ISO  4  16 101  17 101  61 100  69 100
M  END
>  <TORSDO>  (87) 
F 20

>  <SCORE>  (87) 
-14.598

>  <name>  (87) 
87

>  <ligand_id>  (87) 
87

>  <original_smiles>  (87) 
[H]c1c([H])c([H])c2c(c1[H])C([H])([H])C([H])([H])C([H])([H])C2([H])N([H])C(=O)C1([H])N(C(=O)C([H])(N([H])C(=O)C([H])(N([H])C([H])([H])[H])C([H])([H])[H])C(C([H])([H])[H])(C([H])([H])[H])C([H])([H])[H])C([H])([H])c2c([H])c(OC([H])([H])C3([H])C([H])([H])C([H])([H])C([H])(C4([H])N(C([H])([H])C([H])([H])[H])C(=O)C([H])(C([H])([H])N([H])C(=O)N5C([H])([H])C([H])([H])C([H])([H])C([H])(n6nc(-c7c([H])c([H])c(Oc8c([H])c([H])c(F)c([H])c8F)c([H])c7[H])c(C(=O)N([H])[H])c6N([H])[H])C5([H])[H])[N+]([H])([H])C4([H])[H])C([H])([H])C3([H])[H])c([H])c([H])c2C1([H])[H]

>  <smiles>  (87) 
[H]c1c([H])c([H])c2c(c1[H])C([H])([H])C([H])([H])C([H])([H])C2([H])N([H])C(=O)C1([H])N(C(=O)C([H])(N([H])C(=O)C([H])(N([H])C([H])([H])[H])C([H])([H])[H])C(C([H])([H])[H])(C([H])([H])[H])C([H])([H])[H])C([H])([H])c2c([H])c(OC([H])([H])C3([H])C([H])([H])C([H])([H])C([H])(C4([H])N(C([H])([H])C([H])([H])[H])C(=O)C([H])(C([H])([H])N([H])C(=O)N5C([H])([H])C([H])([H])C([H])([H])C([H])(n6nc(-c7c([H])c([H])c(Oc8c([H])c([H])c(F)c([H])c8F)c([H])c7[H])c(C(=O)N([H])[H])c6N([H])[H])C5([H])[H])[N+]([H])([H])C4([H])[H])C([H])([H])C3([H])[H])c([H])c([H])c2C1([H])[H]

$$$$
88:0:0
     RDKit          3D

102110  0  0  1  0  0  0  0  0999 V2000
  -29.0990  -20.5560   19.1730 C   0  0  0  0  0  3  0  0  0  0  0  0
  -30.3600  -20.2760   18.5630 O   0  0  0  0  0  0  0  0  0  0  0  0
  -30.2300  -19.6250   17.8740 H   0  0  0  0  0  0  0  0  0  0  0  0
  -29.1450  -21.9450   19.9110 C   0  0  0  0  0  2  0  0  0  0  0  0
  -29.2740  -23.2380   19.0220 C   0  0  0  0  0  3  0  0  0  0  0  0
  -30.5620  -23.2170   18.2990 N   0  0  0  0  0  4  0  0  0  0  0  0
  -31.3370  -23.4560   18.8930 H   0  0  0  0  0  0  0  0  0  0  0  0
  -30.5570  -23.8270   17.5020 H   0  0  0  0  0  0  0  0  0  0  0  0
  -30.7200  -22.2750   17.9710 H   0  0  0  0  0  0  0  0  0  0  0  0
  -29.0700  -24.5930   19.8030 C   0  0  0  0  0  2  0  0  0  0  0  0
  -28.7940  -25.8740   18.9490 C   0  0  0  0  0  2  0  0  0  0  0  0
  -28.5320  -27.0490   19.7570 O   0  0  0  0  0  0  0  0  0  0  0  0
  -24.6220  -31.9550   23.1400 C   0  0  0  0  0  0  0  0  0  0  0  0
  -27.3000  -27.6930   19.7980 C   0  0  0  0  0  0  0  0  0  0  0  0
  -23.3940  -30.5640   21.5020 C   0  0  0  0  0  3  0  0  0  0  0  0
  -24.8440  -29.1200   19.9690 C   0  0  0  0  0  0  0  0  0  0  0  0
  -25.8980  -31.0120   21.2170 C   0  0  0  0  0  2  0  0  0  0  0  0
  -26.0040  -29.6640   20.5280 C   0  0  0  0  0  0  0  0  0  0  0  0
  -27.2260  -28.9530   20.4450 C   0  0  0  0  0  3  0  0  0  0  0  0
  -26.1050  -27.1610   19.2510 C   0  0  0  0  0  3  0  0  0  0  0  0
  -24.8880  -27.8680   19.3360 C   0  0  0  0  0  3  0  0  0  0  0  0
  -23.5720  -29.9310   20.0940 C   0  0  0  0  0  2  0  0  0  0  0  0
  -24.6580  -31.1900   22.0120 N   0  0  0  0  0  0  0  0  0  0  0  0
  -23.5560  -32.1710   23.7320 O   0  0  0  0  0  0  0  0  0  0  0  0
  -22.8200  -29.4910   22.4570 C   0  0  0  0  0  0  0  0  0  0  0  0
  -21.5200  -29.1920   22.3130 N   0  0  0  0  0  0  0  0  0  0  0  0
  -23.5440  -28.9310   23.2840 O   0  0  0  0  0  0  0  0  0  0  0  0
  -20.9890  -29.6990   21.6170 H   0  0  0  0  0  0  0  0  0  0  0  0
  -18.2780  -27.6530   22.7140 C   0  0  0  0  0  0  0  0  0  0  0  0
  -20.7790  -28.1870   23.0770 C   0  0  0  0  0  3  0  0  0  0  0  0
  -21.0570  -26.7650   22.5370 C   0  0  0  0  0  2  0  0  0  0  0  0
  -20.0390  -26.3070   21.4900 C   0  0  0  0  0  2  0  0  0  0  0  0
  -18.6240  -26.3180   22.0750 C   0  0  0  0  0  2  0  0  0  0  0  0
  -19.2900  -28.5370   23.1690 C   0  0  0  0  0  0  0  0  0  0  0  0
  -18.9160  -29.7810   23.7210 C   0  0  0  0  0  3  0  0  0  0  0  0
  -17.5610  -30.1440   23.8280 C   0  0  0  0  0  3  0  0  0  0  0  0
  -16.5610  -29.2580   23.3910 C   0  0  0  0  0  3  0  0  0  0  0  0
  -16.9200  -28.0160   22.8380 C   0  0  0  0  0  3  0  0  0  0  0  0
  -25.9110  -32.6130   23.7220 C   0  0  0  0  0  3  0  0  0  0  0  0
  -26.5330  -31.8060   24.9260 C   0  0  1  0  0  0  0  0  0  0  0  0
  -25.5010  -31.4140   26.0080 C   0  0  0  0  0  1  0  0  0  0  0  0
  -27.2090  -30.5070   24.4280 C   0  0  0  0  0  1  0  0  0  0  0  0
  -27.6410  -32.6460   25.6050 C   0  0  0  0  0  1  0  0  0  0  0  0
  -25.5610  -33.9770   24.1380 N   0  0  0  0  0  0  0  0  0  0  0  0
  -25.8090  -35.0810   23.4190 C   0  0  0  0  0  0  0  0  0  0  0  0
  -26.4280  -35.0610   22.3520 O   0  0  0  0  0  0  0  0  0  0  0  0
  -25.0000  -34.0650   24.9730 H   0  0  0  0  0  0  0  0  0  0  0  0
  -23.9830  -36.8020   23.2500 C   0  0  0  0  0  1  0  0  0  0  0  0
  -25.2850  -36.4200   23.9720 C   0  0  0  0  0  3  0  0  0  0  0  0
  -27.4210  -37.3630   24.7290 C   0  0  0  0  0  1  0  0  0  0  0  0
  -26.2580  -37.5270   23.8600 N   0  0  0  0  0  0  0  0  0  0  0  0
  -25.8190  -38.4150   24.0860 H   0  0  0  0  0  0  0  0  0  0  0  0
  -28.6640  -19.3400   20.0680 C   0  0  0  0  0  2  0  0  0  0  0  0
  -29.4590  -18.0850   19.8750 N   0  0  0  0  0  4  0  0  0  0  0  0
  -28.8070  -17.3430   19.6780 H   0  0  0  0  0  0  0  0  0  0  0  0
  -30.0240  -18.2190   19.0500 H   0  0  0  0  0  0  0  0  0  0  0  0
  -31.2040  -18.8340   21.5530 C   0  0  0  0  0  2  0  0  0  0  0  0
  -32.5130  -19.0310   20.7520 C   0  0  0  0  0  2  0  0  0  0  0  0
  -32.5050  -16.6810   20.0330 C   0  0  0  0  0  2  0  0  0  0  0  0
  -31.1900  -16.3940   20.8230 C   0  0  0  0  0  3  0  0  0  0  0  0
  -30.3140  -17.6740   21.0310 C   0  0  0  0  0  3  0  0  0  0  0  0
  -33.2800  -17.7780   20.6410 N   0  0  0  0  0  4  0  0  0  0  0  0
  -33.6190  -17.4920   21.5470 H   0  0  0  0  0  0  0  0  0  0  0  0
  -34.0990  -17.9510   20.0760 H   0  0  0  0  0  0  0  0  0  0  0  0
  -30.7360  -14.2840   19.4610 C   0  0  0  0  0  0  0  0  0  0  0  0
  -30.4660  -11.9500   18.7140 C   0  0  0  0  0  2  0  0  0  0  0  0
  -29.4130  -11.8240   17.6000 C   0  0  0  0  0  2  0  0  0  0  0  0
  -27.9980  -11.6660   18.1880 C   0  0  0  0  0  2  0  0  0  0  0  0
  -27.6850  -12.7220   19.2800 C   0  0  0  0  0  3  0  0  0  0  0  0
  -28.8410  -12.8320   20.3020 C   0  0  0  0  0  2  0  0  0  0  0  0
  -30.1020  -13.0850   19.5760 N   0  0  0  0  0  0  0  0  0  0  0  0
  -31.5990  -14.5140   18.6130 O   0  0  0  0  0  0  0  0  0  0  0  0
  -30.4410  -15.1870   20.4090 N   0  0  0  0  0  0  0  0  0  0  0  0
  -29.7430  -14.8700   21.0680 H   0  0  0  0  0  0  0  0  0  0  0  0
  -25.4120  -13.3330   20.3310 C   0  0  0  0  0  0  0  0  0  0  0  0
  -24.3940  -12.5660   20.8310 C   0  0  0  0  0  0  0  0  0  0  0  0
  -24.8250  -11.2090   20.6990 C   0  0  0  0  0  0  0  0  0  0  0  0
  -26.4050  -12.4480   19.9360 N   0  0  0  0  0  0  0  0  0  0  0  0
  -26.0600  -11.1620   20.2070 N   0  0  0  0  0  0  0  0  0  0  0  0
  -24.1120   -9.9550   20.9600 C   0  0  0  0  0  0  0  0  0  0  0  0
  -24.4260   -9.1450   22.0750 C   0  0  0  0  0  3  0  0  0  0  0  0
  -23.7150   -7.9500   22.3200 C   0  0  0  0  0  3  0  0  0  0  0  0
  -22.6770   -7.5510   21.4460 C   0  0  0  0  0  0  0  0  0  0  0  0
  -22.3790   -8.3480   20.3270 C   0  0  0  0  0  3  0  0  0  0  0  0
  -23.0910   -9.5340   20.0830 C   0  0  0  0  0  3  0  0  0  0  0  0
  -21.9520   -6.3920   21.5870 O   0  0  0  0  0  0  0  0  0  0  0  0
  -21.5180   -5.9560   22.8120 C   0  0  0  0  0  0  0  0  0  0  0  0
  -20.6370   -6.7280   23.6050 C   0  0  0  0  0  3  0  0  0  0  0  0
  -20.1600   -6.2120   24.8260 C   0  0  0  0  0  3  0  0  0  0  0  0
  -20.5540   -4.9310   25.2510 C   0  0  0  0  0  0  0  0  0  0  0  0
  -21.4270   -4.1610   24.4640 C   0  0  0  0  0  3  0  0  0  0  0  0
  -21.9040   -4.6720   23.2430 C   0  0  0  0  0  0  0  0  0  0  0  0
  -22.7280   -3.9170   22.4740 F   0  0  0  0  0  0  0  0  0  0  0  0
  -20.0890   -4.4340   26.4240 F   0  0  0  0  0  0  0  0  0  0  0  0
  -23.0550  -13.0530   21.3010 C   0  0  0  0  0  0  0  0  0  0  0  0
  -22.4530  -12.3660   22.2680 N   0  0  0  0  0  0  0  0  0  0  0  0
  -22.5540  -14.0830   20.8550 O   0  0  0  0  0  0  0  0  0  0  0  0
  -22.8720  -11.5430   22.6710 H   0  0  0  0  0  0  0  0  0  0  0  0
  -21.5580  -12.6770   22.6150 H   0  0  0  0  0  0  0  0  0  0  0  0
  -25.5610  -14.7050   20.1630 N   0  0  0  0  0  0  0  0  0  0  0  0
  -24.8140  -15.3550   20.3870 H   0  0  0  0  0  0  0  0  0  0  0  0
  -26.3340  -15.1480   19.6870 H   0  0  0  0  0  0  0  0  0  0  0  0
  1  4  1  0
  1 53  1  0
  2  1  1  0
  3  2  1  0
  5 10  1  0
  5  4  1  0
  6  7  1  0
  6  5  1  0
  8  6  1  0
  9  6  1  0
 11 12  1  0
 11 10  1  0
 12 14  1  0
 13 24  2  0
 14 19  1  0
 15 23  1  0
 15 25  1  0
 16 22  1  0
 16 18  1  0
 17 23  1  0
 18 17  1  0
 19 18  2  0
 20 21  1  0
 20 14  2  0
 21 16  2  0
 22 15  1  0
 23 13  1  0
 25 27  2  0
 26 25  1  0
 28 26  1  0
 29 38  2  0
 29 34  1  0
 30 26  1  0
 30 34  1  0
 31 30  1  0
 32 33  1  0
 32 31  1  0
 33 29  1  0
 34 35  2  0
 35 36  1  0
 37 36  2  0
 38 37  1  0
 39 13  1  0
 39 44  1  0
 39 40  1  0
 40 43  1  1
 40 41  1  0
 42 40  1  0
 44 47  1  0
 45 49  1  0
 45 44  1  0
 46 45  2  0
 49 48  1  0
 51 49  1  0
 51 52  1  0
 51 50  1  0
 54 53  1  0
 55 54  1  0
 56 54  1  0
 58 57  1  0
 59 62  1  0
 59 60  1  0
 60 73  1  0
 60 61  1  0
 61 54  1  0
 61 57  1  0
 62 58  1  0
 62 63  1  0
 64 62  1  0
 65 71  1  0
 65 73  1  0
 66 71  1  0
 67 68  1  0
 67 66  1  0
 69 68  1  0
 69 78  1  0
 69 70  1  0
 71 70  1  0
 72 65  2  0
 73 74  1  0
 75 76  2  0
 76 95  1  0
 77 76  1  0
 77 80  1  0
 78 79  1  0
 78 75  1  0
 79 77  2  0
 80 81  1  0
 81 82  2  0
 83 86  1  0
 83 82  1  0
 84 83  2  0
 85 84  1  0
 85 80  2  0
 86 87  1  0
 87 92  2  0
 87 88  1  0
 88 89  2  0
 89 90  1  0
 90 94  1  0
 91 90  2  0
 92 91  1  0
 93 92  1  0
 95 96  1  0
 96 99  1  0
 96 98  1  0
 97 95  2  0
100 75  1  0
100101  1  0
102100  1  0
M  ISO  4  11 101  12 101  65 100  73 100
M  END
>  <TORSDO>  (88) 
F 25

>  <SCORE>  (88) 
-9.919

>  <name>  (88) 
88

>  <ligand_id>  (88) 
88

>  <original_smiles>  (88) 
[H]OC([H])(C([H])([H])C([H])(C([H])([H])C([H])([H])Oc1c([H])c([H])c2c(c1[H])C([H])([H])N(C(=O)C([H])(N([H])C(=O)C([H])(N([H])C([H])([H])[H])C([H])([H])[H])C(C([H])([H])[H])(C([H])([H])[H])C([H])([H])[H])C([H])(C(=O)N([H])C1([H])c3c([H])c([H])c([H])c([H])c3C([H])([H])C([H])([H])C1([H])[H])C2([H])[H])[N+]([H])([H])[H])C([H])([H])[N+]([H])([H])C1([H])C([H])([H])C([H])([H])[N+]([H])([H])C([H])([H])C1([H])N([H])C(=O)N1C([H])([H])C([H])([H])C([H])([H])C([H])(n2nc(-c3c([H])c([H])c(Oc4c([H])c([H])c(F)c([H])c4F)c([H])c3[H])c(C(=O)N([H])[H])c2N([H])[H])C1([H])[H]

>  <smiles>  (88) 
[H]OC([H])(C([H])([H])C([H])(C([H])([H])C([H])([H])Oc1c([H])c([H])c2c(c1[H])C([H])([H])N(C(=O)C([H])(N([H])C(=O)C([H])(N([H])C([H])([H])[H])C([H])([H])[H])C(C([H])([H])[H])(C([H])([H])[H])C([H])([H])[H])C([H])(C(=O)N([H])C1([H])c3c([H])c([H])c([H])c([H])c3C([H])([H])C([H])([H])C1([H])[H])C2([H])[H])[N+]([H])([H])[H])C([H])([H])[N+]([H])([H])C1([H])C([H])([H])C([H])([H])[N+]([H])([H])C([H])([H])C1([H])N([H])C(=O)N1C([H])([H])C([H])([H])C([H])([H])C([H])(n2nc(-c3c([H])c([H])c(Oc4c([H])c([H])c(F)c([H])c4F)c([H])c3[H])c(C(=O)N([H])[H])c2N([H])[H])C1([H])[H]

$$$$
89:0:0
     RDKit          3D

 89 97  0  0  1  0  0  0  0  0999 V2000
  -27.4690  -23.3110   20.7370 C   0  0  0  0  0  2  0  0  0  0  0  0
  -29.6670  -23.6610   19.9040 C   0  0  0  0  0  2  0  0  0  0  0  0
  -27.5880  -21.7260   20.2430 C   0  0  0  0  0  2  0  0  0  0  0  0
  -29.9140  -22.1140   20.4830 C   0  0  0  0  0  2  0  0  0  0  0  0
  -28.2630  -24.4790   19.9810 C   0  0  0  0  0  3  0  0  0  0  0  0
  -28.9430  -20.9930   20.1040 N   0  0  1  0  0  4  0  0  0  0  0  0
  -29.0560  -20.8920   19.1070 H   0  0  0  0  0  0  0  0  0  0  0  0
  -28.2660  -26.0620   20.3250 O   0  0  0  0  0  0  0  0  0  0  0  0
  -24.6110  -31.8830   23.2120 C   0  0  0  0  0  0  0  0  0  0  0  0
  -27.2110  -27.0780   20.2180 C   0  0  0  0  0  0  0  0  0  0  0  0
  -23.4280  -30.4780   21.5690 C   0  0  0  0  0  3  0  0  0  0  0  0
  -24.8890  -28.8850   20.1540 C   0  0  0  0  0  0  0  0  0  0  0  0
  -25.9870  -30.7240   21.4250 C   0  0  0  0  0  2  0  0  0  0  0  0
  -26.0660  -29.3200   20.7750 C   0  0  0  0  0  0  0  0  0  0  0  0
  -27.2210  -28.4330   20.7850 C   0  0  0  0  0  3  0  0  0  0  0  0
  -26.0060  -26.7680   19.5520 C   0  0  0  0  0  3  0  0  0  0  0  0
  -24.8780  -27.6290   19.5240 C   0  0  0  0  0  3  0  0  0  0  0  0
  -23.6620  -29.7920   20.1940 C   0  0  0  0  0  2  0  0  0  0  0  0
  -24.6960  -31.0540   22.1230 N   0  0  0  0  0  0  0  0  0  0  0  0
  -23.5210  -32.1670   23.7310 O   0  0  0  0  0  0  0  0  0  0  0  0
  -22.7400  -29.4790   22.5340 C   0  0  0  0  0  0  0  0  0  0  0  0
  -21.4110  -29.3140   22.4100 N   0  0  0  0  0  0  0  0  0  0  0  0
  -23.4080  -28.8510   23.3600 O   0  0  0  0  0  0  0  0  0  0  0  0
  -20.9260  -29.8720   21.7200 H   0  0  0  0  0  0  0  0  0  0  0  0
  -18.0250  -28.1230   22.9250 C   0  0  0  0  0  0  0  0  0  0  0  0
  -20.5870  -28.3780   23.1810 C   0  0  0  0  0  3  0  0  0  0  0  0
  -20.6810  -26.9470   22.6010 C   0  0  0  0  0  2  0  0  0  0  0  0
  -19.5750  -26.6320   21.5890 C   0  0  0  0  0  2  0  0  0  0  0  0
  -18.1960  -26.7770   22.2400 C   0  0  0  0  0  2  0  0  0  0  0  0
  -19.1480  -28.8800   23.3530 C   0  0  0  0  0  0  0  0  0  0  0  0
  -18.9330  -30.1380   23.9570 C   0  0  0  0  0  3  0  0  0  0  0  0
  -17.6290  -30.6390   24.1360 C   0  0  0  0  0  3  0  0  0  0  0  0
  -16.5220  -29.8780   23.7220 C   0  0  0  0  0  3  0  0  0  0  0  0
  -16.7210  -28.6220   23.1230 C   0  0  0  0  0  3  0  0  0  0  0  0
  -25.8800  -32.5280   23.8470 C   0  0  0  0  0  3  0  0  0  0  0  0
  -25.5590  -33.9280   24.1770 N   0  0  0  0  0  0  0  0  0  0  0  0
  -25.8940  -34.9880   23.4280 C   0  0  0  0  0  0  0  0  0  0  0  0
  -26.5690  -34.8910   22.4000 O   0  0  0  0  0  0  0  0  0  0  0  0
  -24.9600  -34.0770   24.9750 H   0  0  0  0  0  0  0  0  0  0  0  0
  -24.1690  -36.7880   23.0750 C   0  0  0  0  0  1  0  0  0  0  0  0
  -25.4040  -36.3750   23.8920 C   0  0  0  0  0  3  0  0  0  0  0  0
  -27.5300  -37.2590   24.7470 C   0  0  0  0  0  1  0  0  0  0  0  0
  -26.4370  -37.4290   23.7930 N   0  0  0  0  0  0  0  0  0  0  0  0
  -26.0280  -38.3480   23.9390 H   0  0  0  0  0  0  0  0  0  0  0  0
  -26.3830  -31.7680   25.1370 C   0  0  1  0  0  0  0  0  0  0  0  0
  -25.2790  -31.5370   26.1950 C   0  0  0  0  0  1  0  0  0  0  0  0
  -26.9740  -30.3880   24.7680 C   0  0  0  0  0  1  0  0  0  0  0  0
  -27.5250  -32.5710   25.8060 C   0  0  0  0  0  1  0  0  0  0  0  0
  -29.0510  -19.4340   20.6400 C   0  0  0  0  0  2  0  0  0  0  0  0
  -31.4680  -18.4420   20.2500 C   0  0  0  0  0  1  0  0  0  0  0  0
  -29.9900  -18.0710   20.0500 C   0  0  0  0  0  3  0  0  0  0  0  0
  -30.5630  -15.2260   20.2250 C   0  0  0  0  0  0  0  0  0  0  0  0
  -30.4930  -12.8210   19.3200 C   0  0  0  0  0  2  0  0  0  0  0  0
  -29.5620  -12.6980   18.0880 C   0  0  0  0  0  2  0  0  0  0  0  0
  -28.1110  -12.4420   18.5310 C   0  0  0  0  0  2  0  0  0  0  0  0
  -27.6840  -13.3750   19.6930 C   0  0  0  0  0  3  0  0  0  0  0  0
  -28.7420  -13.4640   20.8140 C   0  0  0  0  0  2  0  0  0  0  0  0
  -29.9850  -13.9380   20.1900 N   0  0  0  0  0  0  0  0  0  0  0  0
  -31.7630  -15.2440   19.9230 O   0  0  0  0  0  0  0  0  0  0  0  0
  -29.8040  -16.4680   20.3930 N   0  0  0  0  0  0  0  0  0  0  0  0
  -28.8570  -16.2600   20.6740 H   0  0  0  0  0  0  0  0  0  0  0  0
  -25.3070  -13.9140   20.4480 C   0  0  0  0  0  0  0  0  0  0  0  0
  -24.2560  -13.1270   20.8260 C   0  0  0  0  0  0  0  0  0  0  0  0
  -24.7370  -11.7810   20.7980 C   0  0  0  0  0  0  0  0  0  0  0  0
  -26.3590  -13.0490   20.2050 N   0  0  0  0  0  0  0  0  0  0  0  0
  -26.0280  -11.7620   20.4830 N   0  0  0  0  0  0  0  0  0  0  0  0
  -24.0260  -10.5110   20.9940 C   0  0  0  0  0  0  0  0  0  0  0  0
  -24.4610   -9.5580   21.9410 C   0  0  0  0  0  3  0  0  0  0  0  0
  -23.7460   -8.3540   22.1250 C   0  0  0  0  0  3  0  0  0  0  0  0
  -22.5820   -8.0960   21.3630 C   0  0  0  0  0  0  0  0  0  0  0  0
  -22.1670   -9.0390   20.4060 C   0  0  0  0  0  3  0  0  0  0  0  0
  -22.8820  -10.2320   20.2190 C   0  0  0  0  0  3  0  0  0  0  0  0
  -21.8380   -6.9440   21.4560 O   0  0  0  0  0  0  0  0  0  0  0  0
  -21.7750   -6.2210   22.6200 C   0  0  0  0  0  0  0  0  0  0  0  0
  -21.3110   -6.7900   23.8260 C   0  0  0  0  0  3  0  0  0  0  0  0
  -21.1960   -5.9920   24.9830 C   0  0  0  0  0  3  0  0  0  0  0  0
  -21.5330   -4.6270   24.9340 C   0  0  0  0  0  0  0  0  0  0  0  0
  -21.9910   -4.0580   23.7310 C   0  0  0  0  0  3  0  0  0  0  0  0
  -22.1070   -4.8530   22.5780 C   0  0  0  0  0  0  0  0  0  0  0  0
  -22.5270   -4.2930   21.4170 F   0  0  0  0  0  0  0  0  0  0  0  0
  -21.4170   -3.8590   26.0420 F   0  0  0  0  0  0  0  0  0  0  0  0
  -22.8540  -13.5890   21.0970 C   0  0  0  0  0  0  0  0  0  0  0  0
  -22.1360  -12.8880   21.9670 N   0  0  0  0  0  0  0  0  0  0  0  0
  -22.4060  -14.6070   20.5720 O   0  0  0  0  0  0  0  0  0  0  0  0
  -22.5130  -12.0650   22.4120 H   0  0  0  0  0  0  0  0  0  0  0  0
  -21.1950  -13.1790   22.1930 H   0  0  0  0  0  0  0  0  0  0  0  0
  -25.4500  -15.2860   20.2630 N   0  0  0  0  0  0  0  0  0  0  0  0
  -24.6670  -15.9230   20.3580 H   0  0  0  0  0  0  0  0  0  0  0  0
  -26.2760  -15.7290   19.8800 H   0  0  0  0  0  0  0  0  0  0  0  0
  2  5  1  0
  2  4  1  0
  3  1  1  0
  5  8  1  0
  5  1  1  0
  6  3  1  0
  6  4  1  0
  6 49  1  0
  6  7  1  6
  9 20  2  0
 10  8  1  0
 10 15  1  0
 11 19  1  0
 11 21  1  0
 12 18  1  0
 12 14  1  0
 13 19  1  0
 14 15  2  0
 14 13  1  0
 16 10  2  0
 17 16  1  0
 17 12  2  0
 18 11  1  0
 19  9  1  0
 21 23  2  0
 22 21  1  0
 24 22  1  0
 25 34  2  0
 25 30  1  0
 26 22  1  0
 26 30  1  0
 27 26  1  0
 28 29  1  0
 28 27  1  0
 29 25  1  0
 30 31  2  0
 31 32  1  0
 33 32  2  0
 34 33  1  0
 35  9  1  0
 35 36  1  0
 35 45  1  0
 36 39  1  0
 37 41  1  0
 37 36  1  0
 38 37  2  0
 41 40  1  0
 43 41  1  0
 43 44  1  0
 43 42  1  0
 45 48  1  1
 45 46  1  0
 47 45  1  0
 51 50  1  0
 51 60  1  0
 51 49  1  0
 52 60  1  0
 53 58  1  0
 54 55  1  0
 54 53  1  0
 56 55  1  0
 56 65  1  0
 56 57  1  0
 58 52  1  0
 58 57  1  0
 59 52  2  0
 60 61  1  0
 62 63  2  0
 63 82  1  0
 64 63  1  0
 64 67  1  0
 65 62  1  0
 65 66  1  0
 66 64  2  0
 67 68  1  0
 68 69  2  0
 70 73  1  0
 70 69  1  0
 71 70  2  0
 72 71  1  0
 72 67  2  0
 73 74  1  0
 74 75  1  0
 75 76  2  0
 77 76  1  0
 77 81  1  0
 78 77  2  0
 79 74  2  0
 79 78  1  0
 80 79  1  0
 82 83  1  0
 83 86  1  0
 83 85  1  0
 84 82  2  0
 87 88  1  0
 87 62  1  0
 89 87  1  0
M  ISO  4   5 101   8 101  52 100  60 100
M  END
>  <TORSDO>  (89) 
F 18

>  <SCORE>  (89) 
-15.065

>  <name>  (89) 
89

>  <ligand_id>  (89) 
89

>  <original_smiles>  (89) 
[H]c1c([H])c([H])c2c(c1[H])C([H])([H])C([H])([H])C([H])([H])C2([H])N([H])C(=O)C1([H])N(C(=O)C([H])(N([H])C(=O)C([H])(N([H])C([H])([H])[H])C([H])([H])[H])C(C([H])([H])[H])(C([H])([H])[H])C([H])([H])[H])C([H])([H])c2c([H])c(OC3([H])C([H])([H])C([H])([H])[N+]([H])(C([H])([H])C([H])(N([H])C(=O)N4C([H])([H])C([H])([H])C([H])([H])C([H])(n5nc(-c6c([H])c([H])c(Oc7c([H])c([H])c(F)c([H])c7F)c([H])c6[H])c(C(=O)N([H])[H])c5N([H])[H])C4([H])[H])C([H])([H])[H])C([H])([H])C3([H])[H])c([H])c([H])c2C1([H])[H]

>  <smiles>  (89) 
[H]c1c([H])c([H])c2c(c1[H])C([H])([H])C([H])([H])C([H])([H])C2([H])N([H])C(=O)C1([H])N(C(=O)C([H])(N([H])C(=O)C([H])(N([H])C([H])([H])[H])C([H])([H])[H])C(C([H])([H])[H])(C([H])([H])[H])C([H])([H])[H])C([H])([H])c2c([H])c(OC3([H])C([H])([H])C([H])([H])[N+]([H])(C([H])([H])C([H])(N([H])C(=O)N4C([H])([H])C([H])([H])C([H])([H])C([H])(n5nc(-c6c([H])c([H])c(Oc7c([H])c([H])c(F)c([H])c7F)c([H])c6[H])c(C(=O)N([H])[H])c5N([H])[H])C4([H])[H])C([H])([H])[H])C([H])([H])C3([H])[H])c([H])c([H])c2C1([H])[H]

$$$$
90:0:0
     RDKit          3D

100109  0  0  1  0  0  0  0  0999 V2000
  -32.2570  -20.0210   19.2500 C   0  0  0  0  0  0  0  0  0  0  0  0
  -32.7450  -21.3590   19.1330 C   0  0  0  0  0  0  0  0  0  0  0  0
  -31.1070  -20.0520   20.0240 C   0  0  0  0  0  0  0  0  0  0  0  0
  -31.9360  -22.1650   19.8770 C   0  0  0  0  0  0  0  0  0  0  0  0
  -33.9720  -21.8460   18.3880 C   0  0  0  0  0  1  0  0  0  0  0  0
  -32.1860  -23.6130   20.2170 C   0  0  0  0  0  1  0  0  0  0  0  0
  -30.8430  -21.4250   20.3350 N   0  0  0  0  0  0  0  0  0  0  0  0
  -30.7950  -14.6740   20.3960 C   0  0  0  0  0  0  0  0  0  0  0  0
  -30.5260  -12.4600   19.3210 C   0  0  0  0  0  2  0  0  0  0  0  0
  -29.5890  -12.5900   18.1050 C   0  0  0  0  0  2  0  0  0  0  0  0
  -28.1180  -12.4220   18.5350 C   0  0  0  0  0  2  0  0  0  0  0  0
  -27.7490  -13.2910   19.7650 C   0  0  0  0  0  3  0  0  0  0  0  0
  -28.8090  -13.1780   20.8830 C   0  0  0  0  0  2  0  0  0  0  0  0
  -30.1220  -13.4890   20.2940 N   0  0  0  0  0  0  0  0  0  0  0  0
  -31.9700  -14.7880   20.0360 O   0  0  0  0  0  0  0  0  0  0  0  0
  -29.7430  -17.8980   19.4020 C   0  0  0  0  0  2  0  0  0  0  0  0
  -31.1560  -17.9490   21.5110 C   0  0  0  0  0  2  0  0  0  0  0  0
  -29.1930  -16.5230   19.8830 C   0  0  0  0  0  2  0  0  0  0  0  0
  -30.4890  -16.6110   21.9330 C   0  0  0  0  0  2  0  0  0  0  0  0
  -30.3240  -18.8110   20.5190 C   0  0  0  0  0  3  0  0  0  0  0  0
  -30.0850  -15.7730   20.7930 N   0  0  0  0  0  0  0  0  0  0  0  0
  -25.3550  -13.8940   20.4720 C   0  0  0  0  0  0  0  0  0  0  0  0
  -24.2900  -13.1180   20.8380 C   0  0  0  0  0  0  0  0  0  0  0  0
  -24.7580  -11.7690   20.8150 C   0  0  0  0  0  0  0  0  0  0  0  0
  -26.4040  -13.0130   20.2500 N   0  0  0  0  0  0  0  0  0  0  0  0
  -26.0500  -11.7320   20.5170 N   0  0  0  0  0  0  0  0  0  0  0  0
  -24.0380  -10.5050   21.0060 C   0  0  0  0  0  0  0  0  0  0  0  0
  -24.4500   -9.5620   21.9720 C   0  0  0  0  0  3  0  0  0  0  0  0
  -23.7300   -8.3600   22.1490 C   0  0  0  0  0  3  0  0  0  0  0  0
  -22.5880   -8.0950   21.3580 C   0  0  0  0  0  0  0  0  0  0  0  0
  -22.1970   -9.0280   20.3810 C   0  0  0  0  0  3  0  0  0  0  0  0
  -22.9170  -10.2220   20.2030 C   0  0  0  0  0  3  0  0  0  0  0  0
  -21.8420   -6.9450   21.4420 O   0  0  0  0  0  0  0  0  0  0  0  0
  -21.7440   -6.2350   22.6120 C   0  0  0  0  0  0  0  0  0  0  0  0
  -21.2240   -6.8110   23.7920 C   0  0  0  0  0  3  0  0  0  0  0  0
  -21.0770   -6.0260   24.9530 C   0  0  0  0  0  3  0  0  0  0  0  0
  -21.4400   -4.6650   24.9340 C   0  0  0  0  0  0  0  0  0  0  0  0
  -21.9520   -4.0900   23.7590 C   0  0  0  0  0  3  0  0  0  0  0  0
  -22.1020   -4.8720   22.6000 C   0  0  0  0  0  0  0  0  0  0  0  0
  -22.5780   -4.3070   21.4640 F   0  0  0  0  0  0  0  0  0  0  0  0
  -21.2890   -3.9080   26.0460 F   0  0  0  0  0  0  0  0  0  0  0  0
  -22.8890  -13.5910   21.0970 C   0  0  0  0  0  0  0  0  0  0  0  0
  -22.1530  -12.8870   21.9490 N   0  0  0  0  0  0  0  0  0  0  0  0
  -22.4540  -14.6210   20.5810 O   0  0  0  0  0  0  0  0  0  0  0  0
  -22.5180  -12.0540   22.3870 H   0  0  0  0  0  0  0  0  0  0  0  0
  -21.2140  -13.1860   22.1680 H   0  0  0  0  0  0  0  0  0  0  0  0
  -25.5150  -15.2640   20.2890 N   0  0  0  0  0  0  0  0  0  0  0  0
  -24.7460  -15.9180   20.3900 H   0  0  0  0  0  0  0  0  0  0  0  0
  -26.3680  -15.7040   19.9690 H   0  0  0  0  0  0  0  0  0  0  0  0
  -34.3940  -18.6090   19.0970 C   0  0  0  0  0  1  0  0  0  0  0  0
  -32.7680  -18.7380   17.1140 C   0  0  0  0  0  1  0  0  0  0  0  0
  -32.9360  -18.7900   18.6420 C   0  0  0  0  0  3  0  0  0  0  0  0
  -29.1120  -21.3390   22.2180 C   0  0  0  0  0  1  0  0  0  0  0  0
  -29.6950  -22.1090   21.0180 C   0  0  0  0  0  3  0  0  0  0  0  0
  -28.5700  -22.6130   20.0410 C   0  0  0  0  0  2  0  0  0  0  0  0
  -28.5610  -24.0850   19.4620 C   0  0  0  0  0  3  0  0  0  0  0  0
  -27.6040  -24.0520   18.4150 O   0  0  0  0  0  0  0  0  0  0  0  0
  -26.7640  -23.8100   18.7920 H   0  0  0  0  0  0  0  0  0  0  0  0
  -28.1210  -25.2250   20.4520 C   0  0  0  0  0  2  0  0  0  0  0  0
  -28.2850  -26.6050   19.9960 O   0  0  0  0  0  0  0  0  0  0  0  0
  -24.5740  -31.8380   23.2100 C   0  0  0  0  0  0  0  0  0  0  0  0
  -27.1490  -27.4070   20.0100 C   0  0  0  0  0  0  0  0  0  0  0  0
  -23.3460  -30.4820   21.5510 C   0  0  0  0  0  3  0  0  0  0  0  0
  -24.7760  -28.9710   20.0720 C   0  0  0  0  0  0  0  0  0  0  0  0
  -25.8780  -30.8210   21.3370 C   0  0  0  0  0  2  0  0  0  0  0  0
  -25.9500  -29.4630   20.6590 C   0  0  0  0  0  0  0  0  0  0  0  0
  -27.1430  -28.6920   20.6150 C   0  0  0  0  0  3  0  0  0  0  0  0
  -25.9550  -26.9500   19.4110 C   0  0  0  0  0  3  0  0  0  0  0  0
  -24.7760  -27.7170   19.4430 C   0  0  0  0  0  3  0  0  0  0  0  0
  -23.5390  -29.8400   20.1520 C   0  0  0  0  0  2  0  0  0  0  0  0
  -24.6190  -31.0620   22.0900 N   0  0  0  0  0  0  0  0  0  0  0  0
  -23.4990  -32.1050   23.7640 O   0  0  0  0  0  0  0  0  0  0  0  0
  -22.6960  -29.4410   22.4920 C   0  0  0  0  0  0  0  0  0  0  0  0
  -21.3700  -29.2680   22.3730 N   0  0  0  0  0  0  0  0  0  0  0  0
  -23.3830  -28.7920   23.2850 O   0  0  0  0  0  0  0  0  0  0  0  0
  -20.8770  -29.8440   21.7060 H   0  0  0  0  0  0  0  0  0  0  0  0
  -17.9920  -28.0800   22.8800 C   0  0  0  0  0  0  0  0  0  0  0  0
  -20.5540  -28.3170   23.1280 C   0  0  0  0  0  3  0  0  0  0  0  0
  -20.6410  -26.9000   22.5150 C   0  0  0  0  0  2  0  0  0  0  0  0
  -19.5260  -26.6090   21.5060 C   0  0  0  0  0  2  0  0  0  0  0  0
  -18.1510  -26.7470   22.1680 C   0  0  0  0  0  2  0  0  0  0  0  0
  -19.1210  -28.8250   23.3160 C   0  0  0  0  0  0  0  0  0  0  0  0
  -18.9170  -30.0740   23.9400 C   0  0  0  0  0  3  0  0  0  0  0  0
  -17.6170  -30.5810   24.1330 C   0  0  0  0  0  3  0  0  0  0  0  0
  -16.5050  -29.8330   23.7150 C   0  0  0  0  0  3  0  0  0  0  0  0
  -16.6910  -28.5840   23.0950 C   0  0  0  0  0  3  0  0  0  0  0  0
  -25.8680  -32.4510   23.8320 C   0  0  0  0  0  3  0  0  0  0  0  0
  -25.5810  -33.8550   24.1570 N   0  0  0  0  0  0  0  0  0  0  0  0
  -25.9410  -34.9000   23.4000 C   0  0  0  0  0  0  0  0  0  0  0  0
  -26.6190  -34.7820   22.3760 O   0  0  0  0  0  0  0  0  0  0  0  0
  -24.9840  -34.0210   24.9530 H   0  0  0  0  0  0  0  0  0  0  0  0
  -24.2640  -36.7320   23.0110 C   0  0  0  0  0  1  0  0  0  0  0  0
  -25.4740  -36.2970   23.8510 C   0  0  0  0  0  3  0  0  0  0  0  0
  -27.6030  -37.1320   24.7440 C   0  0  0  0  0  1  0  0  0  0  0  0
  -26.5330  -37.3270   23.7700 N   0  0  0  0  0  0  0  0  0  0  0  0
  -26.1440  -38.2560   23.9070 H   0  0  0  0  0  0  0  0  0  0  0  0
  -26.3700  -31.6740   25.1100 C   0  0  1  0  0  0  0  0  0  0  0  0
  -25.2720  -31.4510   26.1750 C   0  0  0  0  0  1  0  0  0  0  0  0
  -26.9370  -30.2890   24.7190 C   0  0  0  0  0  1  0  0  0  0  0  0
  -27.5330  -32.4520   25.7720 C   0  0  0  0  0  1  0  0  0  0  0  0
  1  3  2  0
  2  1  1  0
  2  4  2  0
  3  7  1  0
  4  6  1  0
  4  7  1  0
  5  2  1  0
  7 54  1  0
  8 21  1  0
  9 14  1  0
 10 11  1  0
 10  9  1  0
 12 11  1  0
 12 25  1  0
 12 13  1  0
 14  8  1  0
 14 13  1  0
 15  8  2  0
 16 18  1  0
 16 20  1  0
 17 19  1  0
 18 21  1  0
 20  3  1  0
 20 17  1  0
 21 19  1  0
 22 23  2  0
 23 42  1  0
 24 23  1  0
 24 27  1  0
 25 22  1  0
 25 26  1  0
 26 24  2  0
 27 28  1  0
 28 29  2  0
 30 33  1  0
 30 29  1  0
 31 30  2  0
 32 31  1  0
 32 27  2  0
 33 34  1  0
 34 35  1  0
 35 36  2  0
 37 36  1  0
 37 41  1  0
 38 37  2  0
 39 34  2  0
 39 38  1  0
 40 39  1  0
 42 43  1  0
 43 46  1  0
 43 45  1  0
 44 42  2  0
 47 48  1  0
 47 22  1  0
 49 47  1  0
 51 52  1  0
 52 50  1  0
 52  1  1  0
 54 53  1  0
 55 54  1  0
 56 55  1  0
 56 59  1  0
 57 58  1  0
 57 56  1  0
 60 62  1  0
 60 59  1  0
 61 72  2  0
 62 67  1  0
 63 71  1  0
 63 73  1  0
 64 70  1  0
 64 66  1  0
 65 71  1  0
 66 65  1  0
 67 66  2  0
 68 69  1  0
 68 62  2  0
 69 64  2  0
 70 63  1  0
 71 61  1  0
 73 75  2  0
 74 73  1  0
 76 74  1  0
 77 86  2  0
 77 82  1  0
 78 74  1  0
 78 82  1  0
 79 78  1  0
 80 81  1  0
 80 79  1  0
 81 77  1  0
 82 83  2  0
 83 84  1  0
 85 84  2  0
 86 85  1  0
 87 61  1  0
 87 88  1  0
 87 97  1  0
 88 91  1  0
 89 93  1  0
 89 88  1  0
 90 89  2  0
 93 92  1  0
 95 93  1  0
 95 96  1  0
 95 94  1  0
 97100  1  1
 97 98  1  0
 99 97  1  0
M  ISO  4   8 100  21 100  59 101  60 101
M  END
>  <TORSDO>  (90) 
F 22

>  <SCORE>  (90) 
-13.604

>  <name>  (90) 
90

>  <ligand_id>  (90) 
90

>  <original_smiles>  (90) 
[H]OC([H])(C([H])([H])Oc1c([H])c([H])c2c(c1[H])C([H])([H])N(C(=O)C([H])(N([H])C(=O)C([H])(N([H])C([H])([H])[H])C([H])([H])[H])C(C([H])([H])[H])(C([H])([H])[H])C([H])([H])[H])C([H])(C(=O)N([H])C1([H])c3c([H])c([H])c([H])c([H])c3C([H])([H])C([H])([H])C1([H])[H])C2([H])[H])C([H])([H])C([H])(n1c(C([H])([H])[H])c(C([H])([H])[H])c(C([H])(C([H])([H])[H])C([H])([H])[H])c1C1([H])C([H])([H])C([H])([H])N(C(=O)N2C([H])([H])C([H])([H])C([H])([H])C([H])(n3nc(-c4c([H])c([H])c(Oc5c([H])c([H])c(F)c([H])c5F)c([H])c4[H])c(C(=O)N([H])[H])c3N([H])[H])C2([H])[H])C([H])([H])C1([H])[H])C([H])([H])[H]

>  <smiles>  (90) 
[H]OC([H])(C([H])([H])Oc1c([H])c([H])c2c(c1[H])C([H])([H])N(C(=O)C([H])(N([H])C(=O)C([H])(N([H])C([H])([H])[H])C([H])([H])[H])C(C([H])([H])[H])(C([H])([H])[H])C([H])([H])[H])C([H])(C(=O)N([H])C1([H])c3c([H])c([H])c([H])c([H])c3C([H])([H])C([H])([H])C1([H])[H])C2([H])[H])C([H])([H])C([H])(n1c(C([H])([H])[H])c(C([H])([H])[H])c(C([H])(C([H])([H])[H])C([H])([H])[H])c1C1([H])C([H])([H])C([H])([H])N(C(=O)N2C([H])([H])C([H])([H])C([H])([H])C([H])(n3nc(-c4c([H])c([H])c(Oc5c([H])c([H])c(F)c([H])c5F)c([H])c4[H])c(C(=O)N([H])[H])c3N([H])[H])C2([H])[H])C([H])([H])C1([H])[H])C([H])([H])[H]

$$$$
91:0:0
     RDKit          3D

100107  0  0  1  0  0  0  0  0999 V2000
  -30.5070  -21.0520   20.0870 C   0  0  0  0  0  0  0  0  0  0  0  0
  -31.2340  -19.9220   20.0220 N   0  0  0  0  0  0  0  0  0  0  0  0
  -29.3240  -21.0750   20.4450 O   0  0  0  0  0  0  0  0  0  0  0  0
  -32.1840  -20.0120   19.6920 H   0  0  0  0  0  0  0  0  0  0  0  0
  -31.8610  -22.9510   21.0580 C   0  0  0  0  0  1  0  0  0  0  0  0
  -31.2250  -22.3750   19.7660 C   0  0  0  0  0  3  0  0  0  0  0  0
  -30.2640  -23.2890   19.0910 N   0  0  0  0  0  4  0  0  0  0  0  0
  -30.2860  -23.0750   18.1070 H   0  0  0  0  0  0  0  0  0  0  0  0
  -29.3630  -22.9820   19.4360 H   0  0  0  0  0  0  0  0  0  0  0  0
  -30.4010  -24.7550   19.2970 C   0  0  0  0  0  2  0  0  0  0  0  0
  -29.7820  -25.5850   18.1480 C   0  0  0  0  0  2  0  0  0  0  0  0
  -28.8420  -27.7930   17.3630 C   0  0  0  0  0  1  0  0  0  0  0  0
  -29.1060  -26.9010   18.5940 C   0  0  0  0  0  3  0  0  0  0  0  0
  -27.9200  -26.4520   19.2510 O   0  0  0  0  0  0  0  0  0  0  0  0
  -24.7310  -31.5470   23.1540 C   0  0  0  0  0  0  0  0  0  0  0  0
  -26.8650  -27.3040   19.4730 C   0  0  0  0  0  0  0  0  0  0  0  0
  -23.3260  -30.3940   21.4760 C   0  0  0  0  0  3  0  0  0  0  0  0
  -24.5760  -28.9120   19.8200 C   0  0  0  0  0  0  0  0  0  0  0  0
  -25.8510  -30.6160   21.1330 C   0  0  0  0  0  2  0  0  0  0  0  0
  -25.8040  -29.3110   20.3670 C   0  0  0  0  0  0  0  0  0  0  0  0
  -26.9570  -28.5120   20.1970 C   0  0  0  0  0  3  0  0  0  0  0  0
  -25.6200  -26.8990   18.9540 C   0  0  0  0  0  3  0  0  0  0  0  0
  -24.4750  -27.7010   19.1150 C   0  0  0  0  0  3  0  0  0  0  0  0
  -23.3980  -29.8370   20.0290 C   0  0  0  0  0  2  0  0  0  0  0  0
  -24.6590  -30.8580   21.9780 N   0  0  0  0  0  0  0  0  0  0  0  0
  -23.7100  -31.8320   23.7920 O   0  0  0  0  0  0  0  0  0  0  0  0
  -22.6670  -29.3280   22.3810 C   0  0  0  0  0  0  0  0  0  0  0  0
  -21.3320  -29.2060   22.2870 N   0  0  0  0  0  0  0  0  0  0  0  0
  -23.3500  -28.6170   23.1230 O   0  0  0  0  0  0  0  0  0  0  0  0
  -20.8440  -29.8320   21.6620 H   0  0  0  0  0  0  0  0  0  0  0  0
  -17.9360  -28.0700   22.7630 C   0  0  0  0  0  0  0  0  0  0  0  0
  -20.5020  -28.2450   23.0130 C   0  0  0  0  0  3  0  0  0  0  0  0
  -20.5590  -26.8490   22.3510 C   0  0  0  0  0  2  0  0  0  0  0  0
  -19.4340  -26.6150   21.3370 C   0  0  0  0  0  2  0  0  0  0  0  0
  -18.0670  -26.7570   22.0090 C   0  0  0  0  0  2  0  0  0  0  0  0
  -19.0790  -28.7760   23.2210 C   0  0  0  0  0  0  0  0  0  0  0  0
  -18.9020  -30.0080   23.8860 C   0  0  0  0  0  3  0  0  0  0  0  0
  -17.6130  -30.5330   24.1000 C   0  0  0  0  0  3  0  0  0  0  0  0
  -16.4840  -29.8210   23.6580 C   0  0  0  0  0  3  0  0  0  0  0  0
  -16.6470  -28.5920   22.9950 C   0  0  0  0  0  3  0  0  0  0  0  0
  -26.0980  -32.0270   23.7370 C   0  0  0  0  0  3  0  0  0  0  0  0
  -26.6430  -31.0960   24.8870 C   0  0  1  0  0  0  0  0  0  0  0  0
  -25.6090  -30.8090   26.0010 C   0  0  0  0  0  1  0  0  0  0  0  0
  -27.1080  -29.7360   24.3140 C   0  0  0  0  0  1  0  0  0  0  0  0
  -27.8830  -31.7480   25.5430 C   0  0  0  0  0  1  0  0  0  0  0  0
  -25.9120  -33.4020   24.2200 N   0  0  0  0  0  0  0  0  0  0  0  0
  -26.3060  -34.4990   23.5590 C   0  0  0  0  0  0  0  0  0  0  0  0
  -26.9370  -34.4520   22.4990 O   0  0  0  0  0  0  0  0  0  0  0  0
  -25.3540  -33.5160   25.0540 H   0  0  0  0  0  0  0  0  0  0  0  0
  -24.7290  -36.4530   23.4360 C   0  0  0  0  0  1  0  0  0  0  0  0
  -25.9430  -35.8650   24.1710 C   0  0  0  0  0  3  0  0  0  0  0  0
  -28.1570  -36.4780   25.0400 C   0  0  0  0  0  1  0  0  0  0  0  0
  -27.0590  -36.8360   24.1470 N   0  0  0  0  0  0  0  0  0  0  0  0
  -26.7330  -37.7650   24.3990 H   0  0  0  0  0  0  0  0  0  0  0  0
  -30.8620  -18.6040   20.5520 C   0  0  0  0  0  3  0  0  0  0  0  0
  -33.1540  -17.9180   21.5670 C   0  0  0  0  0  1  0  0  0  0  0  0
  -31.6390  -19.4750   22.8500 C   0  0  0  0  0  1  0  0  0  0  0  0
  -31.6870  -18.3140   21.8440 C   0  0  0  0  0  3  0  0  0  0  0  0
  -31.0690  -17.5000   19.4800 C   0  0  0  0  0  2  0  0  0  0  0  0
  -30.1890  -16.2430   19.7070 C   0  0  0  0  0  2  0  0  0  0  0  0
  -31.2240  -14.1500   19.1060 C   0  0  0  0  0  0  0  0  0  0  0  0
  -30.5910  -12.0120   18.0560 C   0  0  0  0  0  2  0  0  0  0  0  0
  -29.4550  -12.2250   17.0400 C   0  0  0  0  0  2  0  0  0  0  0  0
  -28.0800  -12.1730   17.7350 C   0  0  0  0  0  2  0  0  0  0  0  0
  -28.0120  -13.0750   18.9940 C   0  0  0  0  0  3  0  0  0  0  0  0
  -29.2340  -12.8250   19.9010 C   0  0  0  0  0  2  0  0  0  0  0  0
  -30.4580  -13.0290   19.1030 N   0  0  0  0  0  0  0  0  0  0  0  0
  -32.1100  -14.3810   18.2740 O   0  0  0  0  0  0  0  0  0  0  0  0
  -30.9330  -15.0290   20.0860 N   0  0  0  0  0  0  0  0  0  0  0  0
  -25.8980  -13.8400   20.2540 C   0  0  0  0  0  0  0  0  0  0  0  0
  -24.8360  -13.1440   20.7660 C   0  0  0  0  0  0  0  0  0  0  0  0
  -25.1100  -11.7660   20.5100 C   0  0  0  0  0  0  0  0  0  0  0  0
  -26.7550  -12.8910   19.7200 N   0  0  0  0  0  0  0  0  0  0  0  0
  -26.2960  -11.6310   19.9300 N   0  0  0  0  0  0  0  0  0  0  0  0
  -24.2890  -10.5690   20.7340 C   0  0  0  0  0  0  0  0  0  0  0  0
  -24.6630   -9.5840   21.6740 C   0  0  0  0  0  3  0  0  0  0  0  0
  -23.8500   -8.4490   21.8840 C   0  0  0  0  0  3  0  0  0  0  0  0
  -22.6460   -8.2940   21.1570 C   0  0  0  0  0  0  0  0  0  0  0  0
  -22.2900   -9.2680   20.2080 C   0  0  0  0  0  3  0  0  0  0  0  0
  -23.1030  -10.3930   19.9940 C   0  0  0  0  0  3  0  0  0  0  0  0
  -21.8040   -7.2130   21.2760 O   0  0  0  0  0  0  0  0  0  0  0  0
  -21.5920   -6.5980   22.4830 C   0  0  0  0  0  0  0  0  0  0  0  0
  -21.1010   -7.3060   23.6030 C   0  0  0  0  0  3  0  0  0  0  0  0
  -20.8310   -6.6200   24.8050 C   0  0  0  0  0  3  0  0  0  0  0  0
  -21.0350   -5.2300   24.8850 C   0  0  0  0  0  0  0  0  0  0  0  0
  -21.5180   -4.5230   23.7690 C   0  0  0  0  0  3  0  0  0  0  0  0
  -21.7910   -5.2060   22.5710 C   0  0  0  0  0  0  0  0  0  0  0  0
  -22.2360   -4.5160   21.4920 F   0  0  0  0  0  0  0  0  0  0  0  0
  -20.7680   -4.5710   26.0380 F   0  0  0  0  0  0  0  0  0  0  0  0
  -23.5920  -13.7250   21.3730 C   0  0  0  0  0  0  0  0  0  0  0  0
  -23.0190  -13.0480   22.3620 N   0  0  0  0  0  0  0  0  0  0  0  0
  -23.1450  -14.8090   21.0010 O   0  0  0  0  0  0  0  0  0  0  0  0
  -23.3960  -12.1700   22.6840 H   0  0  0  0  0  0  0  0  0  0  0  0
  -22.1930  -13.4190   22.8090 H   0  0  0  0  0  0  0  0  0  0  0  0
  -26.1980  -15.1970   20.1860 N   0  0  0  0  0  0  0  0  0  0  0  0
  -25.5860  -15.9090   20.5660 H   0  0  0  0  0  0  0  0  0  0  0  0
  -27.0370  -15.5780   19.7690 H   0  0  0  0  0  0  0  0  0  0  0  0
  -30.6300  -15.0350   22.5870 C   0  0  0  0  0  1  0  0  0  0  0  0
  -32.6170  -13.8570   21.6100 C   0  0  0  0  0  1  0  0  0  0  0  0
  -31.6240  -15.0320   21.4040 C   0  0  0  0  0  3  0  0  0  0  0  0
  1  3  2  0
  2  1  1  0
  2 55  1  0
  4  2  1  0
  6  1  1  0
  6  5  1  0
  7 10  1  0
  7  9  1  0
  7  6  1  0
  8  7  1  0
 11 13  1  0
 11 10  1  0
 13 12  1  0
 13 14  1  0
 14 16  1  0
 15 26  2  0
 16 21  1  0
 17 25  1  0
 17 27  1  0
 18 24  1  0
 18 20  1  0
 19 25  1  0
 20 19  1  0
 21 20  2  0
 22 23  1  0
 22 16  2  0
 23 18  2  0
 24 17  1  0
 25 15  1  0
 27 29  2  0
 28 27  1  0
 30 28  1  0
 31 40  2  0
 31 36  1  0
 32 28  1  0
 32 36  1  0
 33 32  1  0
 34 35  1  0
 34 33  1  0
 35 31  1  0
 36 37  2  0
 37 38  1  0
 39 38  2  0
 40 39  1  0
 41 15  1  0
 41 46  1  0
 41 42  1  0
 42 45  1  1
 42 43  1  0
 44 42  1  0
 46 49  1  0
 47 51  1  0
 47 46  1  0
 48 47  2  0
 51 50  1  0
 53 51  1  0
 53 54  1  0
 53 52  1  0
 55 59  1  0
 55 58  1  0
 56 58  1  0
 58 57  1  0
 59 60  1  0
 60 69  1  0
 61 69  1  0
 62 67  1  0
 63 64  1  0
 63 62  1  0
 65 64  1  0
 65 73  1  0
 65 66  1  0
 67 61  1  0
 67 66  1  0
 68 61  2  0
 69100  1  0
 70 71  2  0
 71 90  1  0
 72 75  1  0
 72 71  1  0
 73 74  1  0
 73 70  1  0
 74 72  2  0
 75 76  1  0
 76 77  2  0
 78 81  1  0
 78 77  1  0
 79 78  2  0
 80 79  1  0
 80 75  2  0
 81 82  1  0
 82 87  2  0
 82 83  1  0
 83 84  2  0
 84 85  1  0
 85 89  1  0
 86 85  2  0
 87 86  1  0
 88 87  1  0
 90 91  1  0
 91 93  1  0
 91 94  1  0
 92 90  2  0
 95 70  1  0
 95 96  1  0
 97 95  1  0
100 99  1  0
100 98  1  0
M  ISO  4  13 101  14 101  61 100  69 100
M  END
>  <TORSDO>  (91) 
F 26

>  <SCORE>  (91) 
-6.856

>  <name>  (91) 
91

>  <ligand_id>  (91) 
91

>  <original_smiles>  (91) 
[H]c1c([H])c([H])c2c(c1[H])C([H])([H])C([H])([H])C([H])([H])C2([H])N([H])C(=O)C1([H])N(C(=O)C([H])(N([H])C(=O)C([H])(N([H])C([H])([H])[H])C([H])([H])[H])C(C([H])([H])[H])(C([H])([H])[H])C([H])([H])[H])C([H])([H])c2c([H])c(OC([H])(C([H])([H])[H])C([H])([H])C([H])([H])[N+]([H])([H])C([H])(C(=O)N([H])C([H])(C([H])([H])C([H])([H])N(C(=O)N3C([H])([H])C([H])([H])C([H])([H])C([H])(n4nc(-c5c([H])c([H])c(Oc6c([H])c([H])c(F)c([H])c6F)c([H])c5[H])c(C(=O)N([H])[H])c4N([H])[H])C3([H])[H])C([H])(C([H])([H])[H])C([H])([H])[H])C([H])(C([H])([H])[H])C([H])([H])[H])C([H])([H])[H])c([H])c([H])c2C1([H])[H]

>  <smiles>  (91) 
[H]c1c([H])c([H])c2c(c1[H])C([H])([H])C([H])([H])C([H])([H])C2([H])N([H])C(=O)C1([H])N(C(=O)C([H])(N([H])C(=O)C([H])(N([H])C([H])([H])[H])C([H])([H])[H])C(C([H])([H])[H])(C([H])([H])[H])C([H])([H])[H])C([H])([H])c2c([H])c(OC([H])(C([H])([H])[H])C([H])([H])C([H])([H])[N+]([H])([H])C([H])(C(=O)N([H])C([H])(C([H])([H])C([H])([H])N(C(=O)N3C([H])([H])C([H])([H])C([H])([H])C([H])(n4nc(-c5c([H])c([H])c(Oc6c([H])c([H])c(F)c([H])c6F)c([H])c5[H])c(C(=O)N([H])[H])c4N([H])[H])C3([H])[H])C([H])(C([H])([H])[H])C([H])([H])[H])C([H])(C([H])([H])[H])C([H])([H])[H])C([H])([H])[H])c([H])c([H])c2C1([H])[H]

$$$$
92:0:0
     RDKit          3D

102111  0  0  1  0  0  0  0  0999 V2000
  -30.1720  -21.7220   20.3770 N   0  0  0  0  0  4  0  0  0  0  0  0
  -31.1780  -21.7250   20.3690 H   0  0  0  0  0  0  0  0  0  0  0  0
  -29.8850  -20.9860   21.0000 H   0  0  0  0  0  0  0  0  0  0  0  0
  -29.6900  -21.2870   19.0380 C   0  0  0  0  0  2  0  0  0  0  0  0
  -26.3140  -18.4830   19.3750 C   0  0  0  0  0  3  0  0  0  0  0  0
  -27.6210  -17.9940   19.4100 C   0  0  0  0  0  3  0  0  0  0  0  0
  -26.1030  -19.8450   19.1620 C   0  0  0  0  0  3  0  0  0  0  0  0
  -28.7480  -18.8380   19.2530 C   0  0  0  0  0  0  0  0  0  0  0  0
  -27.1810  -20.7340   19.0000 C   0  0  0  0  0  0  0  0  0  0  0  0
  -28.5330  -20.2600   19.0960 C   0  0  0  0  0  0  0  0  0  0  0  0
  -26.7670  -22.1780   18.7170 C   0  0  0  0  0  1  0  0  0  0  0  0
  -31.6250  -14.6690   19.8360 C   0  0  0  0  0  0  0  0  0  0  0  0
  -31.4040  -12.2080   19.6230 C   0  0  0  0  0  2  0  0  0  0  0  0
  -30.4900  -11.8420   18.4350 C   0  0  0  0  0  2  0  0  0  0  0  0
  -29.0020  -11.8720   18.8410 C   0  0  0  0  0  2  0  0  0  0  0  0
  -28.6240  -13.1460   19.6420 C   0  0  0  0  0  3  0  0  0  0  0  0
  -29.6430  -13.4120   20.7670 C   0  0  0  0  0  2  0  0  0  0  0  0
  -30.9740  -13.5130   20.1470 N   0  0  0  0  0  0  0  0  0  0  0  0
  -32.7160  -14.6810   19.2490 O   0  0  0  0  0  0  0  0  0  0  0  0
  -30.9810  -17.8490   21.7370 C   0  0  0  0  0  2  0  0  0  0  0  0
  -30.9480  -18.7310   20.4890 C   0  0  0  0  0  2  0  0  0  0  0  0
  -31.6330  -16.5000   21.4130 C   0  0  0  0  0  2  0  0  0  0  0  0
  -30.0200  -16.5380   19.4330 C   0  0  0  0  0  2  0  0  0  0  0  0
  -30.1180  -18.1150   19.3450 C   0  0  0  0  0  3  0  0  0  0  0  0
  -31.0380  -15.8200   20.2560 N   0  0  0  0  0  0  0  0  0  0  0  0
  -26.4030  -14.0940   20.5300 C   0  0  0  0  0  0  0  0  0  0  0  0
  -25.2290  -13.4860   20.8870 C   0  0  0  0  0  0  0  0  0  0  0  0
  -25.4440  -12.0860   20.7180 C   0  0  0  0  0  0  0  0  0  0  0  0
  -27.2630  -13.0700   20.1660 N   0  0  0  0  0  0  0  0  0  0  0  0
  -26.6920  -11.8510   20.3380 N   0  0  0  0  0  0  0  0  0  0  0  0
  -24.5160  -10.9550   20.8400 C   0  0  0  0  0  0  0  0  0  0  0  0
  -24.8600   -9.7970   21.5730 C   0  0  0  0  0  3  0  0  0  0  0  0
  -23.9480   -8.7290   21.6940 C   0  0  0  0  0  3  0  0  0  0  0  0
  -22.6740   -8.8100   21.0790 C   0  0  0  0  0  0  0  0  0  0  0  0
  -22.3470   -9.9540   20.3300 C   0  0  0  0  0  3  0  0  0  0  0  0
  -23.2600  -11.0150   20.2060 C   0  0  0  0  0  3  0  0  0  0  0  0
  -21.7340   -7.8110   21.1180 O   0  0  0  0  0  0  0  0  0  0  0  0
  -21.6520   -6.9380   22.1740 C   0  0  0  0  0  0  0  0  0  0  0  0
  -21.5140   -7.3900   23.5050 C   0  0  0  0  0  3  0  0  0  0  0  0
  -21.3630   -6.4580   24.5510 C   0  0  0  0  0  3  0  0  0  0  0  0
  -21.3430   -5.0790   24.2710 C   0  0  0  0  0  0  0  0  0  0  0  0
  -21.4760   -4.6290   22.9450 C   0  0  0  0  0  3  0  0  0  0  0  0
  -21.6300   -5.5560   21.9010 C   0  0  0  0  0  0  0  0  0  0  0  0
  -21.7350   -5.1170   20.6220 F   0  0  0  0  0  0  0  0  0  0  0  0
  -21.1910   -4.1840   25.2740 F   0  0  0  0  0  0  0  0  0  0  0  0
  -23.9490  -14.1710   21.2720 C   0  0  0  0  0  0  0  0  0  0  0  0
  -23.2040  -13.5930   22.2070 N   0  0  0  0  0  0  0  0  0  0  0  0
  -23.6250  -15.2490   20.7760 O   0  0  0  0  0  0  0  0  0  0  0  0
  -23.4840  -12.7220   22.6320 H   0  0  0  0  0  0  0  0  0  0  0  0
  -22.3410  -14.0270   22.4990 H   0  0  0  0  0  0  0  0  0  0  0  0
  -26.8050  -15.4240   20.4640 N   0  0  0  0  0  0  0  0  0  0  0  0
  -26.1970  -16.1910   20.7340 H   0  0  0  0  0  0  0  0  0  0  0  0
  -27.7250  -15.7340   20.1760 H   0  0  0  0  0  0  0  0  0  0  0  0
  -29.6850  -23.0050   20.9820 C   0  0  0  0  0  3  0  0  0  0  0  0
  -32.0440  -24.0240   21.4060 C   0  0  0  0  0  1  0  0  0  0  0  0
  -30.7400  -23.4840   22.0300 C   0  0  0  0  0  3  0  0  0  0  0  0
  -29.9420  -22.0950   24.0720 C   0  0  0  0  0  1  0  0  0  0  0  0
  -31.0740  -22.3870   23.0740 C   0  0  0  0  0  2  0  0  0  0  0  0
  -29.2500  -24.1100   19.9310 C   0  0  0  0  0  2  0  0  0  0  0  0
  -27.1730  -25.1140   21.1290 C   0  0  0  0  0  1  0  0  0  0  0  0
  -28.5360  -25.4240   20.4410 C   0  0  0  0  0  3  0  0  0  0  0  0
  -28.4840  -26.4700   19.4070 O   0  0  0  0  0  0  0  0  0  0  0  0
  -24.7690  -31.3570   22.9840 C   0  0  0  0  0  0  0  0  0  0  0  0
  -27.3660  -27.2880   19.4080 C   0  0  0  0  0  0  0  0  0  0  0  0
  -23.5200  -30.0650   21.2830 C   0  0  0  0  0  3  0  0  0  0  0  0
  -24.9440  -28.7400   19.6250 C   0  0  0  0  0  0  0  0  0  0  0  0
  -26.0220  -30.5360   20.9940 C   0  0  0  0  0  2  0  0  0  0  0  0
  -26.1150  -29.2380   20.2160 C   0  0  0  0  0  0  0  0  0  0  0  0
  -27.3330  -28.5190   20.1030 C   0  0  0  0  0  3  0  0  0  0  0  0
  -26.1910  -26.8340   18.7740 C   0  0  0  0  0  3  0  0  0  0  0  0
  -24.9780  -27.5410   18.8920 C   0  0  0  0  0  3  0  0  0  0  0  0
  -23.6720  -29.5390   19.8340 C   0  0  0  0  0  2  0  0  0  0  0  0
  -24.7900  -30.6640   21.8120 N   0  0  0  0  0  0  0  0  0  0  0  0
  -23.7120  -31.5390   23.6050 O   0  0  0  0  0  0  0  0  0  0  0  0
  -22.9560  -28.9360   22.1760 C   0  0  0  0  0  0  0  0  0  0  0  0
  -21.6370  -28.6940   22.0760 N   0  0  0  0  0  0  0  0  0  0  0  0
  -23.7010  -28.2880   22.9170 O   0  0  0  0  0  0  0  0  0  0  0  0
  -21.0950  -29.2790   21.4570 H   0  0  0  0  0  0  0  0  0  0  0  0
  -18.3910  -27.1450   22.4130 C   0  0  0  0  0  0  0  0  0  0  0  0
  -20.8980  -27.6520   22.7860 C   0  0  0  0  0  3  0  0  0  0  0  0
  -21.1720  -26.2580   22.1780 C   0  0  0  0  0  2  0  0  0  0  0  0
  -20.1440  -25.8520   21.1170 C   0  0  0  0  0  2  0  0  0  0  0  0
  -18.7300  -25.8400   21.7120 C   0  0  0  0  0  2  0  0  0  0  0  0
  -19.4090  -28.0020   22.9050 C   0  0  0  0  0  0  0  0  0  0  0  0
  -19.0430  -29.2210   23.5140 C   0  0  0  0  0  3  0  0  0  0  0  0
  -17.6900  -29.5790   23.6550 C   0  0  0  0  0  3  0  0  0  0  0  0
  -16.6840  -28.7180   23.1880 C   0  0  0  0  0  3  0  0  0  0  0  0
  -17.0360  -27.5070   22.5660 C   0  0  0  0  0  3  0  0  0  0  0  0
  -26.0700  -31.9760   23.5860 C   0  0  0  0  0  3  0  0  0  0  0  0
  -25.7430  -33.3380   24.0250 N   0  0  0  0  0  0  0  0  0  0  0  0
  -26.0500  -34.4500   23.3450 C   0  0  0  0  0  0  0  0  0  0  0  0
  -26.7100  -34.4380   22.2990 O   0  0  0  0  0  0  0  0  0  0  0  0
  -25.1600  -33.4230   24.8450 H   0  0  0  0  0  0  0  0  0  0  0  0
  -24.3050  -36.2480   23.1460 C   0  0  0  0  0  1  0  0  0  0  0  0
  -25.5530  -35.7890   23.9150 C   0  0  0  0  0  3  0  0  0  0  0  0
  -27.6800  -36.6350   24.8060 C   0  0  0  0  0  1  0  0  0  0  0  0
  -26.5710  -36.8600   23.8820 N   0  0  0  0  0  0  0  0  0  0  0  0
  -26.1520  -37.7590   24.1060 H   0  0  0  0  0  0  0  0  0  0  0  0
  -26.6680  -31.1290   24.7760 C   0  0  1  0  0  0  0  0  0  0  0  0
  -25.6390  -30.8100   25.8880 C   0  0  0  0  0  1  0  0  0  0  0  0
  -27.2390  -29.7810   24.2610 C   0  0  0  0  0  1  0  0  0  0  0  0
  -27.8450  -31.8930   25.4230 C   0  0  0  0  0  1  0  0  0  0  0  0
  1 54  1  0
  1  3  1  0
  2  1  1  0
  4 10  1  0
  4  1  1  0
  5  6  1  0
  7  5  2  0
  8  6  2  0
  9 10  2  0
  9  7  1  0
 10  8  1  0
 11  9  1  0
 12 18  1  0
 12 25  1  0
 13 18  1  0
 14 15  1  0
 14 13  1  0
 16 15  1  0
 16 29  1  0
 16 17  1  0
 18 17  1  0
 19 12  2  0
 21 20  1  0
 22 20  1  0
 23 25  1  0
 24  8  1  0
 24 23  1  0
 24 21  1  0
 25 22  1  0
 26 27  2  0
 27 46  1  0
 28 31  1  0
 28 27  1  0
 29 30  1  0
 29 26  1  0
 30 28  2  0
 31 32  1  0
 32 33  2  0
 34 37  1  0
 34 33  1  0
 35 34  2  0
 36 35  1  0
 36 31  2  0
 37 38  1  0
 38 39  1  0
 39 40  2  0
 41 40  1  0
 41 45  1  0
 42 41  2  0
 43 38  2  0
 43 42  1  0
 44 43  1  0
 46 47  1  0
 47 50  1  0
 47 49  1  0
 48 46  2  0
 51 26  1  0
 51 52  1  0
 53 51  1  0
 54 59  1  0
 54 56  1  0
 56 55  1  0
 56 58  1  0
 58 57  1  0
 59 61  1  0
 61 60  1  0
 62 64  1  0
 62 61  1  0
 63 74  2  0
 64 69  1  0
 65 73  1  0
 65 75  1  0
 66 72  1  0
 66 68  1  0
 67 73  1  0
 68 67  1  0
 69 68  2  0
 70 71  1  0
 70 64  2  0
 71 66  2  0
 72 65  1  0
 73 63  1  0
 75 77  2  0
 76 75  1  0
 78 76  1  0
 79 88  2  0
 79 84  1  0
 80 76  1  0
 80 84  1  0
 81 80  1  0
 82 83  1  0
 82 81  1  0
 83 79  1  0
 84 85  2  0
 85 86  1  0
 87 86  2  0
 88 87  1  0
 89 63  1  0
 89 90  1  0
 89 99  1  0
 90 93  1  0
 91 95  1  0
 91 90  1  0
 92 91  2  0
 95 94  1  0
 97 95  1  0
 97 98  1  0
 97 96  1  0
 99102  1  1
 99100  1  0
101 99  1  0
M  ISO  4  12 100  25 100  61 101  62 101
M  END
>  <TORSDO>  (92) 
F 23

>  <SCORE>  (92) 
-9.158

>  <name>  (92) 
92

>  <ligand_id>  (92) 
92

>  <original_smiles>  (92) 
[H]c1c([H])c([H])c2c(c1[H])C([H])([H])C([H])([H])C([H])([H])C2([H])N([H])C(=O)C1([H])N(C(=O)C([H])(N([H])C(=O)C([H])(N([H])C([H])([H])[H])C([H])([H])[H])C(C([H])([H])[H])(C([H])([H])[H])C([H])([H])[H])C([H])([H])c2c([H])c(OC([H])(C([H])([H])[H])C([H])([H])C([H])(C([H])(C([H])([H])[H])C([H])([H])C([H])([H])[H])[N+]([H])([H])C([H])([H])c3c(C([H])([H])[H])c([H])c([H])c([H])c3C3([H])C([H])([H])N(C(=O)N4C([H])([H])C([H])([H])C([H])([H])C([H])(n5nc(-c6c([H])c([H])c(Oc7c([H])c([H])c(F)c([H])c7F)c([H])c6[H])c(C(=O)N([H])[H])c5N([H])[H])C4([H])[H])C([H])([H])C([H])([H])C3([H])[H])c([H])c([H])c2C1([H])[H]

>  <smiles>  (92) 
[H]c1c([H])c([H])c2c(c1[H])C([H])([H])C([H])([H])C([H])([H])C2([H])N([H])C(=O)C1([H])N(C(=O)C([H])(N([H])C(=O)C([H])(N([H])C([H])([H])[H])C([H])([H])[H])C(C([H])([H])[H])(C([H])([H])[H])C([H])([H])[H])C([H])([H])c2c([H])c(OC([H])(C([H])([H])[H])C([H])([H])C([H])(C([H])(C([H])([H])[H])C([H])([H])C([H])([H])[H])[N+]([H])([H])C([H])([H])c3c(C([H])([H])[H])c([H])c([H])c([H])c3C3([H])C([H])([H])N(C(=O)N4C([H])([H])C([H])([H])C([H])([H])C([H])(n5nc(-c6c([H])c([H])c(Oc7c([H])c([H])c(F)c([H])c7F)c([H])c6[H])c(C(=O)N([H])[H])c5N([H])[H])C4([H])[H])C([H])([H])C([H])([H])C3([H])[H])c([H])c([H])c2C1([H])[H]

$$$$
93:0:0
     RDKit          3D

 95104  0  0  1  0  0  0  0  0999 V2000
  -28.7660  -21.6960   20.3580 C   0  0  0  0  0  3  0  0  0  0  0  0
  -30.9110  -21.7140   19.8710 C   0  0  0  0  0  3  0  0  0  0  0  0
  -29.8280  -22.5960   20.0290 C   0  0  0  0  0  0  0  0  0  0  0  0
  -29.2200  -20.3910   20.4300 C   0  0  0  0  0  0  0  0  0  0  0  0
  -30.5730  -20.3500   20.1110 N   0  0  0  0  0  0  0  0  0  0  0  0
  -28.3780  -17.9310   19.9830 C   0  0  0  0  0  2  0  0  0  0  0  0
  -27.1550  -18.7740   20.2740 C   0  0  0  0  0  2  0  0  0  0  0  0
  -28.4920  -19.1520   20.8630 C   0  0  0  0  0  3  0  0  0  0  0  0
  -31.4700  -19.1000   20.2110 C   0  0  0  0  0  2  0  0  0  0  0  0
  -31.0520  -17.6780   19.5620 C   0  0  0  0  0  2  0  0  0  0  0  0
  -31.8450  -15.1940   20.1540 C   0  0  0  0  0  0  0  0  0  0  0  0
  -31.6530  -12.8010   19.4490 C   0  0  0  0  0  2  0  0  0  0  0  0
  -30.7730  -12.7350   18.1800 C   0  0  0  0  0  2  0  0  0  0  0  0
  -29.2880  -12.6130   18.5680 C   0  0  0  0  0  2  0  0  0  0  0  0
  -28.8690  -13.6740   19.6220 C   0  0  0  0  0  3  0  0  0  0  0  0
  -29.8710  -13.7200   20.8010 C   0  0  0  0  0  2  0  0  0  0  0  0
  -31.2100  -13.9720   20.2500 N   0  0  0  0  0  0  0  0  0  0  0  0
  -33.0080  -15.2550   19.7450 O   0  0  0  0  0  0  0  0  0  0  0  0
  -31.0860  -16.3410   20.3260 N   0  0  0  0  0  0  0  0  0  0  0  0
  -30.2170  -16.1440   20.8030 H   0  0  0  0  0  0  0  0  0  0  0  0
  -26.5150  -14.4230   20.3140 C   0  0  0  0  0  0  0  0  0  0  0  0
  -25.3930  -13.7210   20.6540 C   0  0  0  0  0  0  0  0  0  0  0  0
  -25.7650  -12.3420   20.6300 C   0  0  0  0  0  0  0  0  0  0  0  0
  -27.5000  -13.4750   20.0870 N   0  0  0  0  0  0  0  0  0  0  0  0
  -27.0550  -12.2160   20.3400 N   0  0  0  0  0  0  0  0  0  0  0  0
  -24.9550  -11.1310   20.8060 C   0  0  0  0  0  0  0  0  0  0  0  0
  -25.2390  -10.1990   21.8260 C   0  0  0  0  0  3  0  0  0  0  0  0
  -24.4350   -9.0520   21.9920 C   0  0  0  0  0  3  0  0  0  0  0  0
  -23.3290   -8.8310   21.1370 C   0  0  0  0  0  0  0  0  0  0  0  0
  -23.0670   -9.7480   20.1030 C   0  0  0  0  0  3  0  0  0  0  0  0
  -23.8700  -10.8880   19.9390 C   0  0  0  0  0  3  0  0  0  0  0  0
  -22.5090   -7.7280   21.2070 O   0  0  0  0  0  0  0  0  0  0  0  0
  -22.2110   -7.1270   22.4030 C   0  0  0  0  0  0  0  0  0  0  0  0
  -21.5890   -7.8300   23.4590 C   0  0  0  0  0  3  0  0  0  0  0  0
  -21.2380   -7.1540   24.6450 C   0  0  0  0  0  3  0  0  0  0  0  0
  -21.4970   -5.7760   24.7750 C   0  0  0  0  0  0  0  0  0  0  0  0
  -22.1070   -5.0730   23.7210 C   0  0  0  0  0  3  0  0  0  0  0  0
  -22.4610   -5.7470   22.5380 C   0  0  0  0  0  0  0  0  0  0  0  0
  -23.0310   -5.0610   21.5170 F   0  0  0  0  0  0  0  0  0  0  0  0
  -21.1510   -5.1210   25.9080 F   0  0  0  0  0  0  0  0  0  0  0  0
  -24.0230  -14.2870   20.8960 C   0  0  0  0  0  0  0  0  0  0  0  0
  -23.2410  -13.6460   21.7570 N   0  0  0  0  0  0  0  0  0  0  0  0
  -23.6520  -15.3250   20.3460 O   0  0  0  0  0  0  0  0  0  0  0  0
  -23.5600  -12.8030   22.2150 H   0  0  0  0  0  0  0  0  0  0  0  0
  -22.3000  -13.9720   21.9270 H   0  0  0  0  0  0  0  0  0  0  0  0
  -26.7810  -15.7800   20.1570 N   0  0  0  0  0  0  0  0  0  0  0  0
  -26.0760  -16.4980   20.2930 H   0  0  0  0  0  0  0  0  0  0  0  0
  -27.6860  -16.1580   19.9060 H   0  0  0  0  0  0  0  0  0  0  0  0
  -29.7750  -24.1960   19.8600 C   0  0  0  0  0  3  0  0  0  0  0  0
  -29.5960  -24.4560   18.4230 N   0  0  0  0  0  4  0  0  0  0  0  0
  -28.6690  -24.2070   18.1170 H   0  0  0  0  0  0  0  0  0  0  0  0
  -30.2480  -23.9070   17.8930 H   0  0  0  0  0  0  0  0  0  0  0  0
  -29.7630  -25.4260   18.2190 H   0  0  0  0  0  0  0  0  0  0  0  0
  -28.7460  -25.1490   20.6910 C   0  0  0  0  0  2  0  0  0  0  0  0
  -28.9050  -26.6540   20.7410 O   0  0  0  0  0  0  0  0  0  0  0  0
  -24.8080  -32.0190   23.4550 C   0  0  0  0  0  0  0  0  0  0  0  0
  -27.7690  -27.4920   20.6410 C   0  0  0  0  0  0  0  0  0  0  0  0
  -23.7710  -30.5720   21.7440 C   0  0  0  0  0  3  0  0  0  0  0  0
  -25.3690  -29.0590   20.4330 C   0  0  0  0  0  0  0  0  0  0  0  0
  -26.3070  -30.9670   21.7370 C   0  0  0  0  0  2  0  0  0  0  0  0
  -26.4780  -29.5830   21.1090 C   0  0  0  0  0  0  0  0  0  0  0  0
  -27.6850  -28.8160   21.1930 C   0  0  0  0  0  3  0  0  0  0  0  0
  -26.6380  -27.0320   19.9330 C   0  0  0  0  0  3  0  0  0  0  0  0
  -25.4570  -27.7960   19.8290 C   0  0  0  0  0  3  0  0  0  0  0  0
  -24.1060  -29.8970   20.3860 C   0  0  0  0  0  2  0  0  0  0  0  0
  -24.9760  -31.2070   22.3690 N   0  0  0  0  0  0  0  0  0  0  0  0
  -23.6810  -32.2630   23.9100 O   0  0  0  0  0  0  0  0  0  0  0  0
  -23.0750  -29.5420   22.6650 C   0  0  0  0  0  0  0  0  0  0  0  0
  -21.7680  -29.3160   22.4460 N   0  0  0  0  0  0  0  0  0  0  0  0
  -23.7140  -28.9490   23.5380 O   0  0  0  0  0  0  0  0  0  0  0  0
  -21.3130  -29.8500   21.7190 H   0  0  0  0  0  0  0  0  0  0  0  0
  -18.4030  -28.0100   22.7270 C   0  0  0  0  0  0  0  0  0  0  0  0
  -20.9290  -28.3540   23.1640 C   0  0  0  0  0  3  0  0  0  0  0  0
  -21.1150  -26.9250   22.6020 C   0  0  0  0  0  2  0  0  0  0  0  0
  -20.0930  -26.5650   21.5190 C   0  0  0  0  0  2  0  0  0  0  0  0
  -18.6680  -26.6660   22.0690 C   0  0  0  0  0  2  0  0  0  0  0  0
  -19.4650  -28.8100   23.2280 C   0  0  0  0  0  0  0  0  0  0  0  0
  -19.1650  -30.0650   23.8000 C   0  0  0  0  0  3  0  0  0  0  0  0
  -17.8370  -30.5220   23.8780 C   0  0  0  0  0  3  0  0  0  0  0  0
  -16.7890  -29.7190   23.3960 C   0  0  0  0  0  3  0  0  0  0  0  0
  -17.0720  -28.4660   22.8250 C   0  0  0  0  0  3  0  0  0  0  0  0
  -26.0200  -32.7010   24.1610 C   0  0  0  0  0  3  0  0  0  0  0  0
  -25.6670  -34.1100   24.3930 N   0  0  0  0  0  0  0  0  0  0  0  0
  -26.0620  -35.1320   23.6220 C   0  0  0  0  0  0  0  0  0  0  0  0
  -26.8260  -34.9870   22.6640 O   0  0  0  0  0  0  0  0  0  0  0  0
  -24.9970  -34.2920   25.1250 H   0  0  0  0  0  0  0  0  0  0  0  0
  -24.3620  -36.8880   23.0310 C   0  0  0  0  0  1  0  0  0  0  0  0
  -25.5270  -36.5350   23.9690 C   0  0  0  0  0  3  0  0  0  0  0  0
  -27.5820  -37.4750   24.9340 C   0  0  0  0  0  1  0  0  0  0  0  0
  -26.5610  -37.5930   23.8950 N   0  0  0  0  0  0  0  0  0  0  0  0
  -26.1400  -38.5150   23.9660 H   0  0  0  0  0  0  0  0  0  0  0  0
  -26.4240  -31.9990   25.5160 C   0  0  1  0  0  0  0  0  0  0  0  0
  -25.2300  -31.7550   26.4690 C   0  0  0  0  0  1  0  0  0  0  0  0
  -27.0990  -30.6340   25.2490 C   0  0  0  0  0  1  0  0  0  0  0  0
  -27.4690  -32.8640   26.2590 C   0  0  0  0  0  1  0  0  0  0  0  0
  1  4  2  0
  2  3  2  0
  2  5  1  0
  3  1  1  0
  4  8  1  0
  5  9  1  0
  5  4  1  0
  6  7  1  0
  6  8  1  0
  7  8  1  0
 10  9  1  0
 10 19  1  0
 11 17  1  0
 11 19  1  0
 12 17  1  0
 13 14  1  0
 13 12  1  0
 15 14  1  0
 15 24  1  0
 15 16  1  0
 17 16  1  0
 18 11  2  0
 19 20  1  0
 21 22  2  0
 22 41  1  0
 23 22  1  0
 23 26  1  0
 24 21  1  0
 24 25  1  0
 25 23  2  0
 26 27  1  0
 27 28  2  0
 29 32  1  0
 29 28  1  0
 30 29  2  0
 31 30  1  0
 31 26  2  0
 32 33  1  0
 33 38  2  0
 33 34  1  0
 34 35  2  0
 35 36  1  0
 36 40  1  0
 37 36  2  0
 38 37  1  0
 39 38  1  0
 41 42  1  0
 42 45  1  0
 42 44  1  0
 43 41  2  0
 46 47  1  0
 46 21  1  0
 48 46  1  0
 49  3  1  0
 49 54  1  0
 50 49  1  0
 51 50  1  0
 52 50  1  0
 53 50  1  0
 54 55  1  0
 56 67  2  0
 57 55  1  0
 57 62  1  0
 58 66  1  0
 58 68  1  0
 59 61  1  0
 60 66  1  0
 61 62  2  0
 61 60  1  0
 63 57  2  0
 64 63  1  0
 64 59  2  0
 65 59  1  0
 65 58  1  0
 66 56  1  0
 68 70  2  0
 69 68  1  0
 71 69  1  0
 72 81  2  0
 72 77  1  0
 73 69  1  0
 73 77  1  0
 74 73  1  0
 75 76  1  0
 75 74  1  0
 76 72  1  0
 77 78  2  0
 78 79  1  0
 80 79  2  0
 81 80  1  0
 82 56  1  0
 82 83  1  0
 82 92  1  0
 83 86  1  0
 84 88  1  0
 84 83  1  0
 85 84  2  0
 88 87  1  0
 90 91  1  0
 90 88  1  0
 90 89  1  0
 92 95  1  1
 92 93  1  0
 94 92  1  0
M  ISO  4  11 100  19 100  54 101  55 101
M  END
>  <TORSDO>  (93) 
F 22

>  <SCORE>  (93) 
-11.150

>  <name>  (93) 
93

>  <ligand_id>  (93) 
93

>  <original_smiles>  (93) 
[H]c1c([H])c([H])c2c(c1[H])C([H])([H])C([H])([H])C([H])([H])C2([H])N([H])C(=O)C1([H])N(C(=O)C([H])(N([H])C(=O)C([H])(N([H])C([H])([H])[H])C([H])([H])[H])C(C([H])([H])[H])(C([H])([H])[H])C([H])([H])[H])C([H])([H])c2c([H])c(OC([H])([H])C([H])(c3c([H])c(C4([H])C([H])([H])C4([H])[H])n(C([H])([H])C([H])([H])N([H])C(=O)N4C([H])([H])C([H])([H])C([H])([H])C([H])(n5nc(-c6c([H])c([H])c(Oc7c([H])c([H])c(F)c([H])c7F)c([H])c6[H])c(C(=O)N([H])[H])c5N([H])[H])C4([H])[H])c3[H])[N+]([H])([H])[H])c([H])c([H])c2C1([H])[H]

>  <smiles>  (93) 
[H]c1c([H])c([H])c2c(c1[H])C([H])([H])C([H])([H])C([H])([H])C2([H])N([H])C(=O)C1([H])N(C(=O)C([H])(N([H])C(=O)C([H])(N([H])C([H])([H])[H])C([H])([H])[H])C(C([H])([H])[H])(C([H])([H])[H])C([H])([H])[H])C([H])([H])c2c([H])c(OC([H])([H])C([H])(c3c([H])c(C4([H])C([H])([H])C4([H])[H])n(C([H])([H])C([H])([H])N([H])C(=O)N4C([H])([H])C([H])([H])C([H])([H])C([H])(n5nc(-c6c([H])c([H])c(Oc7c([H])c([H])c(F)c([H])c7F)c([H])c6[H])c(C(=O)N([H])[H])c5N([H])[H])C4([H])[H])c3[H])[N+]([H])([H])[H])c([H])c([H])c2C1([H])[H]

$$$$
94:0:0
     RDKit          3D

 98101  0  0  1  0  0  0  0  0999 V2000
  -22.3010  -24.9490   21.9510 C   0  0  0  0  0  0  0  0  0  0  0  0
  -23.6470  -24.6990   21.4250 N   0  0  0  0  0  0  0  0  0  0  0  0
  -21.4270  -24.3160   21.3570 O   0  0  0  0  0  0  0  0  0  0  0  0
  -24.3760  -25.2000   21.9180 H   0  0  0  0  0  0  0  0  0  0  0  0
  -24.2660  -23.8230   20.1870 C   0  0  0  0  0  2  0  0  0  0  0  0
  -25.8120  -23.0040   20.0440 C   0  0  0  0  0  2  0  0  0  0  0  0
  -27.2270  -22.2330   17.4650 C   0  0  0  0  0  2  0  0  0  0  0  0
  -28.6570  -22.7890   19.2950 C   0  0  0  0  0  2  0  0  0  0  0  0
  -28.6030  -21.4870   16.8540 C   0  0  0  0  0  2  0  0  0  0  0  0
  -29.8850  -23.0330   18.2190 C   0  0  0  0  0  2  0  0  0  0  0  0
  -27.1340  -23.0670   18.8640 C   0  0  0  0  0  3  0  0  0  0  0  0
  -30.1050  -22.1280   16.8770 C   0  0  0  0  0  3  0  0  0  0  0  0
  -32.7240  -21.1990   15.7200 C   0  0  0  0  0  0  0  0  0  0  0  0
  -34.7890  -22.4070   14.7640 C   0  0  0  0  0  2  0  0  0  0  0  0
  -35.1940  -23.6600   15.5720 C   0  0  0  0  0  2  0  0  0  0  0  0
  -34.3350  -24.8630   15.1420 C   0  0  0  0  0  2  0  0  0  0  0  0
  -32.8340  -24.4890   15.0170 C   0  0  0  0  0  3  0  0  0  0  0  0
  -32.6090  -23.2210   14.1920 C   0  0  0  0  0  2  0  0  0  0  0  0
  -33.3030  -22.1940   14.9310 N   0  0  0  0  0  0  0  0  0  0  0  0
  -33.5160  -20.2340   15.8210 O   0  0  0  0  0  0  0  0  0  0  0  0
  -31.5070  -21.2920   16.5930 N   0  0  0  0  0  0  0  0  0  0  0  0
  -31.0760  -26.3150   15.1600 C   0  0  0  0  0  0  0  0  0  0  0  0
  -30.6340  -27.2320   14.2570 C   0  0  0  0  0  0  0  0  0  0  0  0
  -31.3550  -26.9770   13.0510 C   0  0  0  0  0  0  0  0  0  0  0  0
  -32.0230  -25.5620   14.4950 N   0  0  0  0  0  0  0  0  0  0  0  0
  -32.1410  -25.9190   13.1930 N   0  0  0  0  0  0  0  0  0  0  0  0
  -31.3980  -27.7260   11.7950 C   0  0  0  0  0  0  0  0  0  0  0  0
  -31.1210  -27.1100   10.5560 C   0  0  0  0  0  3  0  0  0  0  0  0
  -31.1490  -27.8650    9.3650 C   0  0  0  0  0  3  0  0  0  0  0  0
  -31.4520  -29.2460    9.4070 C   0  0  0  0  0  0  0  0  0  0  0  0
  -31.7510  -29.8480   10.6420 C   0  0  0  0  0  3  0  0  0  0  0  0
  -31.7280  -29.0960   11.8270 C   0  0  0  0  0  3  0  0  0  0  0  0
  -31.5230  -30.0540    8.3000 O   0  0  0  0  0  0  0  0  0  0  0  0
  -30.7990  -29.7830    7.1670 C   0  0  0  0  0  0  0  0  0  0  0  0
  -29.3940  -29.6490    7.1940 C   0  0  0  0  0  3  0  0  0  0  0  0
  -28.6840  -29.4390    5.9960 C   0  0  0  0  0  3  0  0  0  0  0  0
  -29.3750  -29.3730    4.7700 C   0  0  0  0  0  0  0  0  0  0  0  0
  -30.7730  -29.5100    4.7410 C   0  0  0  0  0  3  0  0  0  0  0  0
  -31.4830  -29.7170    5.9370 C   0  0  0  0  0  0  0  0  0  0  0  0
  -32.8290  -29.8690    5.9020 F   0  0  0  0  0  0  0  0  0  0  0  0
  -28.6930  -29.1790    3.6180 F   0  0  0  0  0  0  0  0  0  0  0  0
  -29.6800  -28.3530   14.5390 C   0  0  0  0  0  0  0  0  0  0  0  0
  -28.9010  -28.7580   13.5440 N   0  0  0  0  0  0  0  0  0  0  0  0
  -29.5870  -28.8430   15.6640 O   0  0  0  0  0  0  0  0  0  0  0  0
  -28.9590  -28.3400   12.6270 H   0  0  0  0  0  0  0  0  0  0  0  0
  -28.2330  -29.4980   13.7020 H   0  0  0  0  0  0  0  0  0  0  0  0
  -30.7730  -26.0950   16.4950 N   0  0  0  0  0  0  0  0  0  0  0  0
  -30.1100  -26.6750   16.9980 H   0  0  0  0  0  0  0  0  0  0  0  0
  -31.2210  -25.4060   17.0830 H   0  0  0  0  0  0  0  0  0  0  0  0
  -30.5640  -19.1500   17.6280 C   0  0  0  0  0  1  0  0  0  0  0  0
  -31.5740  -20.3050   17.7190 C   0  0  0  0  0  2  0  0  0  0  0  0
  -21.7320  -25.9330   23.3150 C   0  0  0  0  0  1  0  0  0  0  0  0
  -20.6040  -28.1860   23.5670 N   0  0  0  0  0  0  0  0  0  0  0  0
  -21.1600  -28.8970   23.1260 H   0  0  0  0  0  0  0  0  0  0  0  0
  -19.7060  -28.1150   23.1090 H   0  0  0  0  0  0  0  0  0  0  0  0
  -20.4100  -28.4020   24.5310 H   0  0  0  0  0  0  0  0  0  0  0  0
  -23.6480  -25.5360   24.1550 C   0  0  0  0  0  1  0  0  0  0  0  0
  -25.4680  -25.3150   24.0500 O   0  0  0  0  0  0  0  0  0  0  0  0
  -23.7760  -29.0420   28.3970 C   0  0  0  0  0  0  0  0  0  0  0  0
  -26.6560  -25.7710   24.7790 C   0  0  0  0  0  3  0  0  0  0  0  0
  -24.3510  -29.5140   26.0840 C   0  0  0  0  0  3  0  0  0  0  0  0
  -26.3610  -28.3430   25.0200 C   0  0  0  0  0  0  0  0  0  0  0  0
  -26.0350  -28.3480   27.5130 C   0  0  0  0  0  2  0  0  0  0  0  0
  -26.4560  -27.6480   26.2290 C   0  0  0  0  0  3  0  0  0  0  0  0
  -26.6880  -26.2660   26.1240 C   0  0  0  0  0  2  0  0  0  0  0  0
  -27.4150  -26.4920   23.8720 C   0  0  0  0  0  2  0  0  0  0  0  0
  -26.9610  -27.8160   23.8540 C   0  0  0  0  0  3  0  0  0  0  0  0
  -25.5210  -29.5870   25.0470 C   0  0  0  0  0  2  0  0  0  0  0  0
  -24.7170  -28.9910   27.4050 N   0  0  0  0  0  0  0  0  0  0  0  0
  -22.6490  -29.5390   28.2200 O   0  0  0  0  0  0  0  0  0  0  0  0
  -23.2310  -28.6400   25.6210 C   0  0  0  0  0  0  0  0  0  0  0  0
  -22.3070  -29.3280   25.0220 N   0  0  0  0  0  0  0  0  0  0  0  0
  -23.2120  -27.4040   25.8180 O   0  0  0  0  0  0  0  0  0  0  0  0
  -22.3900  -30.3330   24.9410 H   0  0  0  0  0  0  0  0  0  0  0  0
  -19.1880  -28.8450   22.4190 C   0  0  0  0  0  3  0  0  0  0  0  0
  -21.8410  -28.5640   24.0280 C   0  0  0  0  0  1  0  0  0  0  0  0
  -23.3640  -28.8420   22.2320 C   0  0  0  0  0 15  0  0  0  0  0  0
  -22.1360  -28.6130   20.3470 C   0  0  0  0  0 15  0  0  0  0  0  0
  -20.0290  -28.4020   20.7440 C   0  0  0  0  0  1  0  0  0  0  0  0
  -19.9720  -28.8180   23.8350 C   0  0  2  0  0  0  0  0  0  0  0  0
  -19.3860  -29.5940   24.9050 C   0  0  0  0  0  2  0  0  0  0  0  0
  -18.2960  -30.4940   24.7760 C   0  0  0  0  0  3  0  0  0  0  0  0
  -17.7190  -30.6850   23.5150 C   0  0  0  0  0  3  0  0  0  0  0  0
  -18.1630  -29.9000   22.4010 C   0  0  0  0  0  2  0  0  0  0  0  0
  -24.0960  -28.5030   29.8010 C   0  0  0  0  0  3  0  0  0  0  0  0
  -23.6450  -27.0120   30.0260 C   0  0  1  0  0  0  0  0  0  0  0  0
  -22.1870  -26.7160   29.6080 C   0  0  0  0  0  1  0  0  0  0  0  0
  -24.5600  -26.0320   29.2550 C   0  0  0  0  0  1  0  0  0  0  0  0
  -23.7920  -26.6750   31.5260 C   0  0  0  0  0  1  0  0  0  0  0  0
  -23.3970  -29.4070   30.7150 N   0  0  0  0  0  0  0  0  0  0  0  0
  -23.9880  -30.4310   31.3370 C   0  0  0  0  0  0  0  0  0  0  0  0
  -25.2050  -30.6290   31.2840 O   0  0  0  0  0  0  0  0  0  0  0  0
  -22.3910  -29.3310   30.7580 H   0  0  0  0  0  0  0  0  0  0  0  0
  -22.9010  -32.6980   31.4150 C   0  0  0  0  0  1  0  0  0  0  0  0
  -23.0890  -31.3680   32.1610 C   0  0  0  0  0  3  0  0  0  0  0  0
  -23.5850  -30.4370   34.3740 C   0  0  0  0  0  1  0  0  0  0  0  0
  -23.6120  -31.6210   33.5180 N   0  0  0  0  0  0  0  0  0  0  0  0
  -23.0800  -32.3550   33.9770 H   0  0  0  0  0  0  0  0  0  0  0  0
  1 52  1  0
  2  4  1  0
  2  1  1  0
  3  1  2  0
  5  2  1  0
  6  5  1  0
  7 11  1  0
  9 12  1  0
  9  7  1  0
 10  8  1  0
 11  8  1  0
 11  6  1  0
 12 21  1  0
 12 10  1  0
 13 20  2  0
 13 21  1  0
 14 19  1  0
 14 15  1  0
 16 15  1  0
 17 18  1  0
 17 16  1  0
 18 19  1  0
 19 13  1  0
 21 51  1  0
 22 47  1  0
 23 42  1  0
 23 22  2  0
 24 26  2  0
 24 23  1  0
 25 17  1  0
 25 22  1  0
 26 25  1  0
 27 32  1  0
 27 24  1  0
 28 27  2  0
 29 30  2  0
 29 28  1  0
 30 31  1  0
 31 32  2  0
 33 30  1  0
 34 35  1  0
 34 33  1  0
 36 35  2  0
 37 36  1  0
 38 37  2  0
 38 39  1  0
 39 34  2  0
 40 39  1  0
 41 37  1  0
 42 44  2  0
 43 46  1  0
 43 42  1  0
 45 43  1  0
 47 48  1  0
 47 49  1  0
 50 51  1  0
 53 80  1  0
 54 53  1  0
 55 53  1  0
 58 57  1  0
 60 58  1  0
 60 65  1  0
 61 71  1  0
 61 69  1  0
 62 68  1  0
 62 64  1  0
 64 65  1  0
 64 63  1  0
 66 60  1  0
 67 66  1  0
 67 62  2  0
 68 61  1  0
 69 63  1  0
 69 59  1  0
 70 59  2  0
 71 73  2  0
 72 71  1  0
 74 72  1  0
 75 79  1  0
 75 80  1  0
 76 72  1  0
 80 56  1  1
 80 81  1  0
 82 81  1  0
 83 82  2  0
 84 75  1  0
 84 83  1  0
 85 59  1  0
 85 86  1  0
 85 90  1  0
 86 89  1  1
 87 86  1  0
 88 86  1  0
 90 93  1  0
 90 91  1  0
 91 95  1  0
 92 91  2  0
 95 94  1  0
 95 97  1  0
 97 98  1  0
 97 96  1  0
M  ISO  4  13 100  21 100  57 101  58 101
M  END
>  <TORSDO>  (94) 
F 23

>  <SCORE>  (94) 
7.100

>  <name>  (94) 
94

>  <ligand_id>  (94) 
94

>  <original_smiles>  (94) 
[H]c1c([H])c([H])c2c(c1[H])C([H])([H])C([H])([H])C([H])([H])C2([H])N([H])C(=O)C1([H])N(C(=O)C([H])(N([H])C(=O)C([H])(N([H])C([H])([H])[H])C([H])([H])[H])C(C([H])([H])[H])(C([H])([H])[H])C([H])([H])[H])C([H])([H])c2c([H])c(OC([H])([H])C([H])(C(=O)N([H])C([H])([H])C([H])([H])C3([H])C([H])([H])C([H])([H])C([H])(N(C(=O)N4C([H])([H])C([H])([H])C([H])([H])C([H])(n5nc(-c6c([H])c([H])c(Oc7c([H])c([H])c(F)c([H])c7F)c([H])c6[H])c(C(=O)N([H])[H])c5N([H])[H])C4([H])[H])C([H])([H])C([H])([H])[H])C([H])([H])C3([H])[H])[N+]([H])([H])[H])c([H])c([H])c2C1([H])[H]

>  <smiles>  (94) 
[H]c1c([H])c([H])c2c(c1[H])C([H])([H])C([H])([H])C([H])([H])C2([H])N([H])C(=O)C1([H])N(C(=O)C([H])(N([H])C(=O)C([H])(N([H])C([H])([H])[H])C([H])([H])[H])C(C([H])([H])[H])(C([H])([H])[H])C([H])([H])[H])C([H])([H])c2c([H])c(OC([H])([H])C([H])(C(=O)N([H])C([H])([H])C([H])([H])C3([H])C([H])([H])C([H])([H])C([H])(N(C(=O)N4C([H])([H])C([H])([H])C([H])([H])C([H])(n5nc(-c6c([H])c([H])c(Oc7c([H])c([H])c(F)c([H])c7F)c([H])c6[H])c(C(=O)N([H])[H])c5N([H])[H])C4([H])[H])C([H])([H])C([H])([H])[H])C([H])([H])C3([H])[H])[N+]([H])([H])[H])c([H])c([H])c2C1([H])[H]

$$$$
95:0:0
     RDKit          3D

 96101  0  0  1  0  0  0  0  0999 V2000
  -23.7160  -15.6140   18.8350 C   0  0  0  0  0  1  0  0  0  0  0  0
  -24.9800  -15.3000   19.6400 C   0  0  0  0  0  1  0  0  0  0  0  0
  -23.7140  -12.2020   19.6900 C   0  0  0  0  0  3  0  0  0  0  0  0
  -25.2640   -9.6940   20.6580 C   0  0  0  0  0  3  0  0  0  0  0  0
  -24.0040  -10.5300   19.8520 C   0  0  0  0  0  0  0  0  0  0  0  0
  -24.7250  -13.4020   20.3220 C   0  0  0  0  0  3  0  0  0  0  0  0
  -26.9190  -11.8130   21.8020 C   0  0  0  0  0  2  0  0  0  0  0  0
  -26.5140  -10.2180   21.5850 N   0  0  0  0  0  2  0  0  0  0  0  0
  -29.8610  -12.3330   20.8550 C   0  0  0  0  0  0  0  0  0  0  0  0
  -30.3040  -10.9670   18.6330 C   0  0  0  0  0  3  0  0  0  0  0  0
  -29.1510  -11.0310   17.4880 C   0  0  0  0  0  3  0  0  0  0  0  0
  -27.7320  -11.5490   17.9060 C   0  0  0  0  0  2  0  0  0  0  0  0
  -27.9840  -12.2760   19.2070 C   0  0  0  0  0  3  0  0  0  0  0  0
  -28.5950  -10.9180   19.9130 C   0  0  0  0  0  2  0  0  0  0  0  0
  -29.8650  -11.2660   20.0230 N   0  0  0  0  0  0  0  0  0  0  0  0
  -30.7720  -13.1240   20.4150 O   0  0  0  0  0  0  0  0  0  0  0  0
  -28.6180  -12.3740   21.8420 N   0  0  0  0  0  0  0  0  0  0  0  0
  -28.7130  -13.1950   22.4200 H   0  0  0  0  0  0  0  0  0  0  0  0
  -26.3740  -13.8500   21.5140 C   0  0  0  0  0  3  0  0  0  0  0  0
  -24.9870  -13.1650   22.2400 C   0  0  2  0  0  0  0  0  0  0  0  0
  -24.4610  -11.8090   21.4180 C   0  0  2  0  0  0  0  0  0  0  0  0
  -26.9670  -13.0100   19.9160 N   0  0  0  0  0  0  0  0  0  0  0  0
  -25.9800  -11.7230   19.5900 N   0  0  0  0  0  1  0  0  0  0  0  0
  -23.4820  -10.6770   22.0910 C   0  0  0  0  0  0  0  0  0  0  0  0
  -23.9010   -9.4410   22.7370 C   0  0  0  0  0  3  0  0  0  0  0  0
  -23.0180   -8.3630   23.0610 C   0  0  0  0  0  3  0  0  0  0  0  0
  -21.6280   -8.4900   22.8330 C   0  0  0  0  0  0  0  0  0  0  0  0
  -21.1910   -9.6880   22.2360 C   0  0  0  0  0  3  0  0  0  0  0  0
  -22.0860  -10.7310   21.8830 C   0  0  0  0  0  3  0  0  0  0  0  0
  -20.6680   -7.5340   23.1220 O   0  0  0  0  0  0  0  0  0  0  0  0
  -20.9130   -6.4200   23.8990 C   0  0  0  0  0  0  0  0  0  0  0  0
  -21.3390   -6.5150   25.2430 C   0  0  0  0  0  3  0  0  0  0  0  0
  -21.5290   -5.3460   26.0140 C   0  0  0  0  0  3  0  0  0  0  0  0
  -21.2670   -4.0790   25.4580 C   0  0  0  0  0  0  0  0  0  0  0  0
  -20.8110   -3.9800   24.1310 C   0  0  0  0  0  3  0  0  0  0  0  0
  -20.6330   -5.1450   23.3590 C   0  0  0  0  0  0  0  0  0  0  0  0
  -20.1750   -5.0330   22.0900 F   0  0  0  0  0  0  0  0  0  0  0  0
  -21.4460   -2.9560   26.1970 F   0  0  0  0  0  0  0  0  0  0  0  0
  -23.6690  -13.8500   22.6330 C   0  0  0  0  0  0  0  0  0  0  0  0
  -22.9180  -13.2290   23.5460 N   0  0  0  0  0  0  0  0  0  0  0  0
  -23.1870  -14.7830   21.9940 O   0  0  0  0  0  0  0  0  0  0  0  0
  -23.2780  -12.4270   24.0430 H   0  0  0  0  0  0  0  0  0  0  0  0
  -22.0100  -13.5930   23.8020 H   0  0  0  0  0  0  0  0  0  0  0  0
  -26.9100  -15.0330   21.7640 N   0  0  0  0  0  0  0  0  0  0  0  0
  -26.6750  -15.5750   22.5880 H   0  0  0  0  0  0  0  0  0  0  0  0
  -27.7680  -15.3500   21.3280 H   0  0  0  0  0  0  0  0  0  0  0  0
  -23.7870   -9.4680   17.6000 C   0  0  0  0  0  1  0  0  0  0  0  0
  -21.6770  -10.1010   18.8470 C   0  0  0  0  0  1  0  0  0  0  0  0
  -23.1350   -9.6270   18.9860 C   0  0  0  0  0  3  0  0  0  0  0  0
  -25.8190  -17.1870   20.0130 C   0  0  0  0  0  1  0  0  0  0  0  0
  -25.9910  -18.9360   19.3980 N   0  0  0  0  0  4  0  0  0  0  0  0
  -26.4040  -18.8050   18.4910 H   0  0  0  0  0  0  0  0  0  0  0  0
  -25.0290  -19.1660   19.1960 H   0  0  0  0  0  0  0  0  0  0  0  0
  -26.7000  -20.5880   19.9030 C   0  0  0  0  0  1  0  0  0  0  0  0
  -26.7770  -22.5920   19.3740 C   0  0  0  0  0 15  0  0  0  0  0  0
  -27.4820  -24.3120   19.6780 O   0  0  0  0  0  1  0  0  0  0  0  0
  -24.6760  -31.0580   22.7620 C   0  0  0  0  0  0  0  0  0  0  0  0
  -26.9140  -25.7910   19.6620 C   0  0  0  0  0  0  0  0  0  0  0  0
  -23.5310  -29.6640   21.1270 C   0  0  0  0  0  3  0  0  0  0  0  0
  -24.9420  -28.0730   19.6410 C   0  0  0  0  0  0  0  0  0  0  0  0
  -26.1160  -29.7250   21.0570 C   0  0  0  0  0  2  0  0  0  0  0  0
  -26.1270  -28.2960   20.3450 C   0  0  0  0  0  0  0  0  0  0  0  0
  -27.1260  -27.1640   20.3390 C   0  0  0  0  0  3  0  0  0  0  0  0
  -25.7970  -25.8950   18.8440 C   0  0  0  0  0  3  0  0  0  0  0  0
  -24.8390  -26.9260   18.8530 C   0  0  0  0  0  3  0  0  0  0  0  0
  -23.7750  -29.0540   19.7250 C   0  0  0  0  0  2  0  0  0  0  0  0
  -24.8070  -30.1900   21.6980 N   0  0  0  0  0  0  0  0  0  0  0  0
  -23.5660  -31.3430   23.2460 O   0  0  0  0  0  0  0  0  0  0  0  0
  -22.8420  -28.6310   22.0600 C   0  0  0  0  0  0  0  0  0  0  0  0
  -21.5110  -28.4660   21.9490 N   0  0  0  0  0  0  0  0  0  0  0  0
  -23.5140  -27.9900   22.8720 O   0  0  0  0  0  0  0  0  0  0  0  0
  -21.0140  -29.0360   21.2770 H   0  0  0  0  0  0  0  0  0  0  0  0
  -18.1450  -27.2050   22.4860 C   0  0  0  0  0  0  0  0  0  0  0  0
  -20.7060  -27.5040   22.7110 C   0  0  0  0  0  3  0  0  0  0  0  0
  -20.8180  -26.0860   22.1070 C   0  0  0  0  0  2  0  0  0  0  0  0
  -19.7070  -25.7690   21.1020 C   0  0  0  0  0  2  0  0  0  0  0  0
  -18.3330  -25.8750   21.7690 C   0  0  0  0  0  2  0  0  0  0  0  0
  -19.2610  -27.9760   22.9130 C   0  0  0  0  0  0  0  0  0  0  0  0
  -19.0300  -29.2140   23.5520 C   0  0  0  0  0  3  0  0  0  0  0  0
  -17.7210  -29.6880   23.7580 C   0  0  0  0  0  3  0  0  0  0  0  0
  -16.6210  -28.9170   23.3420 C   0  0  0  0  0  3  0  0  0  0  0  0
  -16.8340  -27.6760   22.7140 C   0  0  0  0  0  3  0  0  0  0  0  0
  -25.9020  -31.7550   23.4220 C   0  0  0  0  0  3  0  0  0  0  0  0
  -25.4940  -33.1200   23.8270 N   0  0  0  0  0  0  0  0  0  0  0  0
  -25.8310  -34.2550   23.2000 C   0  0  0  0  0  0  0  0  0  0  0  0
  -26.5790  -34.2700   22.2210 O   0  0  0  0  0  0  0  0  0  0  0  0
  -24.8290  -33.1800   24.5830 H   0  0  0  0  0  0  0  0  0  0  0  0
  -24.0630  -36.0270   22.8770 C   0  0  0  0  0  1  0  0  0  0  0  0
  -25.2550  -35.5830   23.7420 C   0  0  0  0  0  3  0  0  0  0  0  0
  -27.2800  -36.4610   24.8220 C   0  0  0  0  0  1  0  0  0  0  0  0
  -26.2510  -36.6770   23.8090 N   0  0  0  0  0  0  0  0  0  0  0  0
  -25.7980  -37.5680   23.9980 H   0  0  0  0  0  0  0  0  0  0  0  0
  -26.4460  -30.9800   24.6860 C   0  0  1  0  0  0  0  0  0  0  0  0
  -25.3580  -30.6570   25.7380 C   0  0  0  0  0  1  0  0  0  0  0  0
  -27.1090  -29.6460   24.2820 C   0  0  0  0  0  1  0  0  0  0  0  0
  -27.5470  -31.8160   25.3800 C   0  0  0  0  0  1  0  0  0  0  0  0
  1  2  1  0
  3  5  1  0
  3  6  1  0
  3 21  1  0
  4  8  1  0
  5  4  2  0
  6 21  1  0
  6 20  1  0
  7 17  1  0
  8  7  1  0
  9 17  1  0
 10 15  1  0
 11 12  1  0
 11 10  2  0
 12 13  1  0
 13 14  1  0
 13 22  1  0
 14 15  1  0
 15  9  1  0
 16  9  2  0
 17 18  1  0
 19 44  1  0
 19 20  1  0
 20 39  1  1
 21 24  1  1
 21 20  1  0
 22 19  1  0
 23 22  1  0
 24 25  1  0
 25 26  2  0
 27 26  1  0
 27 30  1  0
 28 27  2  0
 29 24  2  0
 29 28  1  0
 30 31  1  0
 31 32  1  0
 32 33  2  0
 34 33  1  0
 34 38  1  0
 35 34  2  0
 36 31  2  0
 36 35  1  0
 37 36  1  0
 39 40  1  0
 40 43  1  0
 40 42  1  0
 41 39  2  0
 44 45  1  0
 46 44  1  0
 47 49  1  0
 48 49  1  0
 49  5  1  0
 51 54  1  0
 51 50  1  0
 52 51  1  0
 53 51  1  0
 57 68  2  0
 57 83  1  0
 58 56  1  0
 58 63  1  0
 59 67  1  0
 59 69  1  0
 60 66  1  0
 60 62  1  0
 61 67  1  0
 62 61  1  0
 63 62  2  0
 64 65  1  0
 64 58  2  0
 65 60  2  0
 66 59  1  0
 67 57  1  0
 69 71  2  0
 70 69  1  0
 70 74  1  0
 72 70  1  0
 73 82  2  0
 73 78  1  0
 74 78  1  0
 75 74  1  0
 76 77  1  0
 76 75  1  0
 77 73  1  0
 78 79  2  0
 79 80  1  0
 81 80  2  0
 82 81  1  0
 83 84  1  0
 83 93  1  0
 84 87  1  0
 85 89  1  0
 85 84  1  0
 86 85  2  0
 88 89  1  0
 89 91  1  0
 91 92  1  0
 91 90  1  0
 93 96  1  1
 93 94  1  0
 95 93  1  0
M  ISO  4   9 100  17 100  55 101  56 101
M  END
>  <TORSDO>  (95) 
F 22

>  <SCORE>  (95) 
9.868

>  <name>  (95) 
95

>  <ligand_id>  (95) 
95

>  <original_smiles>  (95) 
[H]c1nc(N([H])C(=O)N2C([H])([H])C([H])([H])C([H])([H])C([H])(n3nc(-c4c([H])c([H])c(Oc5c([H])c([H])c(F)c([H])c5F)c([H])c4[H])c(C(=O)N([H])[H])c3N([H])[H])C2([H])[H])c(C([H])(C([H])([H])[H])C([H])([H])[N+]([H])([H])C([H])([H])C([H])([H])Oc2c([H])c([H])c3c(c2[H])C([H])([H])N(C(=O)C([H])(N([H])C(=O)C([H])(N([H])C([H])([H])[H])C([H])([H])[H])C(C([H])([H])[H])(C([H])([H])[H])C([H])([H])[H])C([H])(C(=O)N([H])C2([H])c4c([H])c([H])c([H])c([H])c4C([H])([H])C([H])([H])C2([H])[H])C3([H])[H])c([H])c1C([H])(C([H])([H])[H])C([H])([H])[H]

>  <smiles>  (95) 
[H]c1nc(N([H])C(=O)N2C([H])([H])C([H])([H])C([H])([H])C([H])(n3nc(-c4c([H])c([H])c(Oc5c([H])c([H])c(F)c([H])c5F)c([H])c4[H])c(C(=O)N([H])[H])c3N([H])[H])C2([H])[H])c(C([H])(C([H])([H])[H])C([H])([H])[N+]([H])([H])C([H])([H])C([H])([H])Oc2c([H])c([H])c3c(c2[H])C([H])([H])N(C(=O)C([H])(N([H])C(=O)C([H])(N([H])C([H])([H])[H])C([H])([H])[H])C(C([H])([H])[H])(C([H])([H])[H])C([H])([H])[H])C([H])(C(=O)N([H])C2([H])c4c([H])c([H])c([H])c([H])c4C([H])([H])C([H])([H])C2([H])[H])C3([H])[H])c([H])c1C([H])(C([H])([H])[H])C([H])([H])[H]

$$$$
