0:0:0
     RDKit          3D

 99107  0  0  1  0  0  0  0  0999 V2000
  -24.8960  -21.7330   19.9880 C   0  0  0  0  0  2  0  0  0  0  0  0
  -25.1350  -23.1420   20.5780 C   0  0  0  0  0  2  0  0  0  0  0  0
  -26.1940  -23.1740   21.7150 C   0  0  0  0  0  2  0  0  0  0  0  0
  -26.4690  -24.5270   22.2600 N   0  0  0  0  0  4  0  0  0  0  0  0
  -26.6620  -24.4070   23.2450 H   0  0  0  0  0  0  0  0  0  0  0  0
  -25.6440  -25.0980   22.2010 H   0  0  0  0  0  0  0  0  0  0  0  0
  -27.6430  -25.2460   21.7010 C   0  0  0  0  0  2  0  0  0  0  0  0
  -27.3870  -25.7560   20.2740 C   0  0  0  0  0  2  0  0  0  0  0  0
  -28.3820  -26.8190   19.7610 C   0  0  0  0  0  2  0  0  0  0  0  0
  -27.8690  -27.5000   18.6090 O   0  0  0  0  0  0  0  0  0  0  0  0
  -24.4610  -31.8300   23.0870 C   0  0  0  0  0  0  0  0  0  0  0  0
  -26.7230  -28.2050   18.8730 C   0  0  0  0  0  0  0  0  0  0  0  0
  -23.0560  -30.6880   21.4010 C   0  0  0  0  0  3  0  0  0  0  0  0
  -24.3160  -29.5280   19.5080 C   0  0  0  0  0  0  0  0  0  0  0  0
  -25.5090  -31.2130   20.9170 C   0  0  0  0  0  2  0  0  0  0  0  0
  -25.5330  -29.9920   20.0270 C   0  0  0  0  0  0  0  0  0  0  0  0
  -26.7380  -29.3300   19.7230 C   0  0  0  0  0  3  0  0  0  0  0  0
  -25.5000  -27.7620   18.3290 C   0  0  0  0  0  3  0  0  0  0  0  0
  -24.2940  -28.4040   18.6610 C   0  0  0  0  0  3  0  0  0  0  0  0
  -23.0700  -30.2880   19.9000 C   0  0  0  0  0  2  0  0  0  0  0  0
  -24.3690  -31.2450   21.8590 N   0  0  0  0  0  0  0  0  0  0  0  0
  -23.4680  -31.9450   23.8150 O   0  0  0  0  0  0  0  0  0  0  0  0
  -22.5890  -29.4730   22.2300 C   0  0  0  0  0  0  0  0  0  0  0  0
  -21.2800  -29.1800   22.1680 N   0  0  0  0  0  0  0  0  0  0  0  0
  -23.3940  -28.8030   22.8840 O   0  0  0  0  0  0  0  0  0  0  0  0
  -20.6830  -29.7800   21.6160 H   0  0  0  0  0  0  0  0  0  0  0  0
  -18.1110  -27.5010   22.5630 C   0  0  0  0  0  0  0  0  0  0  0  0
  -20.6180  -28.0660   22.8400 C   0  0  0  0  0  3  0  0  0  0  0  0
  -20.9000  -26.7360   22.1040 C   0  0  0  0  0  2  0  0  0  0  0  0
  -19.8260  -26.3820   21.0730 C   0  0  0  0  0  2  0  0  0  0  0  0
  -18.4480  -26.2700   21.7390 C   0  0  0  0  0  2  0  0  0  0  0  0
  -19.1300  -28.3540   23.0640 C   0  0  0  0  0  0  0  0  0  0  0  0
  -18.7640  -29.5070   23.7900 C   0  0  0  0  0  3  0  0  0  0  0  0
  -17.4110  -29.8090   24.0310 C   0  0  0  0  0  3  0  0  0  0  0  0
  -16.4050  -28.9540   23.5490 C   0  0  0  0  0  3  0  0  0  0  0  0
  -16.7550  -27.8040   22.8200 C   0  0  0  0  0  3  0  0  0  0  0  0
  -25.8120  -32.4020   23.6190 C   0  0  0  0  0  3  0  0  0  0  0  0
  -26.4750  -31.5000   24.7320 C   0  0  1  0  0  0  0  0  0  0  0  0
  -25.5190  -31.1440   25.8920 C   0  0  0  0  0  1  0  0  0  0  0  0
  -26.9940  -30.1740   24.1240 C   0  0  0  0  0  1  0  0  0  0  0  0
  -27.6980  -32.2270   25.3390 C   0  0  0  0  0  1  0  0  0  0  0  0
  -25.5490  -33.7530   24.1300 N   0  0  0  0  0  0  0  0  0  0  0  0
  -25.8340  -34.8830   23.4690 C   0  0  0  0  0  0  0  0  0  0  0  0
  -26.4240  -34.8960   22.3840 O   0  0  0  0  0  0  0  0  0  0  0  0
  -25.0250  -33.8190   24.9910 H   0  0  0  0  0  0  0  0  0  0  0  0
  -24.1150  -36.7190   23.4290 C   0  0  0  0  0  1  0  0  0  0  0  0
  -25.3940  -36.2110   24.1150 C   0  0  0  0  0  3  0  0  0  0  0  0
  -27.5860  -36.9680   24.9190 C   0  0  0  0  0  1  0  0  0  0  0  0
  -26.4350  -37.2620   24.0700 N   0  0  0  0  0  0  0  0  0  0  0  0
  -26.0520  -38.1580   24.3580 H   0  0  0  0  0  0  0  0  0  0  0  0
  -26.1000  -21.1580   19.2070 C   0  0  0  0  0  2  0  0  0  0  0  0
  -25.9940  -19.6350   18.9360 C   0  0  0  0  0  2  0  0  0  0  0  0
  -29.2440  -18.1710   20.3690 C   0  0  0  0  0  2  0  0  0  0  0  0
  -28.6820  -16.9530   18.2120 C   0  0  0  0  0  2  0  0  0  0  0  0
  -27.8150  -18.7410   20.3510 C   0  0  0  0  0  2  0  0  0  0  0  0
  -27.3160  -17.6790   18.1780 C   0  0  0  0  0  2  0  0  0  0  0  0
  -29.2890  -16.8160   19.6450 C   0  0  0  0  0  3  0  0  0  0  0  0
  -27.3150  -18.9490   18.9610 N   0  0  1  0  0  4  0  0  0  0  0  0
  -27.9560  -19.5710   18.4910 H   0  0  0  0  0  0  0  0  0  0  0  0
  -31.0200  -15.0730   20.3690 C   0  0  0  0  0  0  0  0  0  0  0  0
  -30.6990  -12.8390   19.4480 C   0  0  0  0  0  2  0  0  0  0  0  0
  -29.7930  -12.8590   18.2070 C   0  0  0  0  0  2  0  0  0  0  0  0
  -28.3220  -12.6710   18.6280 C   0  0  0  0  0  2  0  0  0  0  0  0
  -27.8910  -13.6260   19.7690 C   0  0  0  0  0  3  0  0  0  0  0  0
  -28.9440  -13.6800   20.9070 C   0  0  0  0  0  2  0  0  0  0  0  0
  -30.2470  -13.9560   20.2830 N   0  0  0  0  0  0  0  0  0  0  0  0
  -32.2260  -14.9470   20.5400 O   0  0  0  0  0  0  0  0  0  0  0  0
  -30.6370  -16.1900   19.6590 N   0  0  0  0  0  0  0  0  0  0  0  0
  -25.4860  -14.2200   20.4520 C   0  0  0  0  0  0  0  0  0  0  0  0
  -24.4090  -13.4430   20.7750 C   0  0  0  0  0  0  0  0  0  0  0  0
  -24.8910  -12.1010   20.7840 C   0  0  0  0  0  0  0  0  0  0  0  0
  -26.5440  -13.3460   20.2490 N   0  0  0  0  0  0  0  0  0  0  0  0
  -26.1910  -12.0680   20.5240 N   0  0  0  0  0  0  0  0  0  0  0  0
  -24.1770  -10.8350   20.9670 C   0  0  0  0  0  0  0  0  0  0  0  0
  -24.5760   -9.9010   21.9480 C   0  0  0  0  0  3  0  0  0  0  0  0
  -23.8620   -8.6970   22.1150 C   0  0  0  0  0  3  0  0  0  0  0  0
  -22.7350   -8.4210   21.3040 C   0  0  0  0  0  0  0  0  0  0  0  0
  -22.3580   -9.3470   20.3130 C   0  0  0  0  0  3  0  0  0  0  0  0
  -23.0730  -10.5430   20.1420 C   0  0  0  0  0  3  0  0  0  0  0  0
  -21.9940   -7.2690   21.3840 O   0  0  0  0  0  0  0  0  0  0  0  0
  -21.8560   -6.5850   22.5650 C   0  0  0  0  0  0  0  0  0  0  0  0
  -21.3140   -7.1910   23.7200 C   0  0  0  0  0  3  0  0  0  0  0  0
  -21.1260   -6.4320   24.8920 C   0  0  0  0  0  3  0  0  0  0  0  0
  -21.4680   -5.0650   24.9070 C   0  0  0  0  0  0  0  0  0  0  0  0
  -22.0040   -4.4600   23.7580 C   0  0  0  0  0  3  0  0  0  0  0  0
  -22.1950   -5.2180   22.5890 C   0  0  0  0  0  0  0  0  0  0  0  0
  -22.6920   -4.6240   21.4770 F   0  0  0  0  0  0  0  0  0  0  0  0
  -21.2800   -4.3310   26.0290 F   0  0  0  0  0  0  0  0  0  0  0  0
  -22.9970  -13.9130   20.9810 C   0  0  0  0  0  0  0  0  0  0  0  0
  -22.2510  -13.2380   21.8480 N   0  0  0  0  0  0  0  0  0  0  0  0
  -22.5630  -14.9130   20.4110 O   0  0  0  0  0  0  0  0  0  0  0  0
  -22.6130  -12.4270   22.3280 H   0  0  0  0  0  0  0  0  0  0  0  0
  -21.3060  -13.5400   22.0320 H   0  0  0  0  0  0  0  0  0  0  0  0
  -25.6410  -15.5890   20.3090 N   0  0  0  0  0  0  0  0  0  0  0  0
  -24.9010  -16.2040   20.6270 H   0  0  0  0  0  0  0  0  0  0  0  0
  -26.5570  -16.0090   20.3250 H   0  0  0  0  0  0  0  0  0  0  0  0
  -32.6640  -17.7680   19.8550 C   0  0  0  0  0  1  0  0  0  0  0  0
  -32.3700  -16.2260   17.8160 C   0  0  0  0  0  1  0  0  0  0  0  0
  -31.6660  -17.0180   18.9390 C   0  0  0  0  0  3  0  0  0  0  0  0
  1  2  1  0
  2  3  1  0
  3  4  1  0
  4  5  1  0
  6  4  1  0
  7  4  1  0
  8  7  1  0
  9  8  1  0
 10 12  1  0
 10  9  1  0
 11 22  2  0
 12 17  1  0
 13 21  1  0
 13 23  1  0
 14 20  1  0
 14 16  1  0
 15 21  1  0
 16 15  1  0
 17 16  2  0
 18 19  1  0
 18 12  2  0
 19 14  2  0
 20 13  1  0
 21 11  1  0
 23 25  2  0
 24 23  1  0
 26 24  1  0
 27 36  2  0
 27 32  1  0
 28 24  1  0
 28 32  1  0
 29 28  1  0
 30 31  1  0
 30 29  1  0
 31 27  1  0
 32 33  2  0
 33 34  1  0
 35 34  2  0
 36 35  1  0
 37 11  1  0
 37 42  1  0
 37 38  1  0
 38 41  1  1
 38 39  1  0
 40 38  1  0
 42 45  1  0
 43 47  1  0
 43 42  1  0
 44 43  2  0
 47 46  1  0
 49 47  1  0
 49 50  1  0
 49 48  1  0
 51  1  1  0
 52 58  1  0
 52 51  1  0
 54 57  1  0
 55 53  1  0
 56 54  1  0
 56 58  1  0
 57 68  1  0
 57 53  1  0
 58 55  1  0
 58 59  1  6
 60 67  2  0
 61 66  1  0
 62 63  1  0
 62 61  1  0
 64 63  1  0
 64 72  1  0
 64 65  1  0
 66 60  1  0
 66 65  1  0
 68 60  1  0
 69 70  2  0
 70 71  1  0
 70 89  1  0
 71 74  1  0
 72 69  1  0
 72 73  1  0
 73 71  2  0
 74 75  1  0
 75 76  2  0
 77 80  1  0
 77 76  1  0
 78 77  2  0
 79 78  1  0
 79 74  2  0
 80 81  1  0
 81 86  2  0
 81 82  1  0
 82 83  2  0
 83 84  1  0
 84 88  1  0
 85 84  2  0
 86 85  1  0
 87 86  1  0
 89 90  1  0
 90 93  1  0
 90 92  1  0
 91 89  2  0
 94 96  1  0
 94 69  1  0
 94 95  1  0
 98 99  1  0
 99 68  1  0
 99 97  1  0
M  ISO  4   9 101  10 101  60 100  68 100
M  END
>  <TORSDO>  (1) 
F 26

>  <SCORE>  (1) 
-8.185

>  <name>  (1) 
0

>  <ligand_id>  (1) 
0

>  <original_smiles>  (1) 
[H]c1c([H])c([H])c2c(c1[H])C([H])([H])C([H])([H])C([H])([H])C2([H])N([H])C(=O)C1([H])N(C(=O)C([H])(N([H])C(=O)C([H])(N([H])C([H])([H])[H])C([H])([H])[H])C(C([H])([H])[H])(C([H])([H])[H])C([H])([H])[H])C([H])([H])c2c([H])c(OC([H])([H])C([H])([H])C([H])([H])[N+]([H])([H])C([H])([H])C([H])([H])C([H])([H])C([H])([H])C([H])([H])[N+]3([H])C([H])([H])C([H])([H])C([H])(N(C(=O)N4C([H])([H])C([H])([H])C([H])([H])C([H])(n5nc(-c6c([H])c([H])c(Oc7c([H])c([H])c(F)c([H])c7F)c([H])c6[H])c(C(=O)N([H])[H])c5N([H])[H])C4([H])[H])C([H])(C([H])([H])[H])C([H])([H])[H])C([H])([H])C3([H])[H])c([H])c([H])c2C1([H])[H]

>  <smiles>  (1) 
[H]c1c([H])c([H])c2c(c1[H])C([H])([H])C([H])([H])C([H])([H])C2([H])N([H])C(=O)C1([H])N(C(=O)C([H])(N([H])C(=O)C([H])(N([H])C([H])([H])[H])C([H])([H])[H])C(C([H])([H])[H])(C([H])([H])[H])C([H])([H])[H])C([H])([H])c2c([H])c(OC([H])([H])C([H])([H])C([H])([H])[N+]([H])([H])C([H])([H])C([H])([H])C([H])([H])C([H])([H])C([H])([H])[N+]3([H])C([H])([H])C([H])([H])C([H])(N(C(=O)N4C([H])([H])C([H])([H])C([H])([H])C([H])(n5nc(-c6c([H])c([H])c(Oc7c([H])c([H])c(F)c([H])c7F)c([H])c6[H])c(C(=O)N([H])[H])c5N([H])[H])C4([H])[H])C([H])(C([H])([H])[H])C([H])([H])[H])C([H])([H])C3([H])[H])c([H])c([H])c2C1([H])[H]

$$$$
1:0:0
     RDKit          3D

 95103  0  0  1  0  0  0  0  0999 V2000
  -26.8750  -21.2150   21.1860 C   0  0  0  0  0  1  0  0  0  0  0  0
  -28.3230  -21.2420   20.6530 C   0  0  0  0  0  3  0  0  0  0  0  0
  -29.0500  -22.5760   21.0160 C   0  0  0  0  0  2  0  0  0  0  0  0
  -29.0870  -24.8490   22.0620 C   0  0  0  0  0  1  0  0  0  0  0  0
  -28.3150  -23.9660   21.0560 C   0  0  0  0  0  3  0  0  0  0  0  0
  -28.1160  -24.7090   19.6830 C   0  0  0  0  0  2  0  0  0  0  0  0
  -28.0710  -26.2720   19.7790 C   0  0  0  0  0  2  0  0  0  0  0  0
  -27.7010  -27.0060   18.5890 O   0  0  0  0  0  0  0  0  0  0  0  0
  -24.7130  -31.6560   23.0620 C   0  0  0  0  0  0  0  0  0  0  0  0
  -26.6450  -27.8560   18.8230 C   0  0  0  0  0  0  0  0  0  0  0  0
  -23.2120  -30.6210   21.3910 C   0  0  0  0  0  3  0  0  0  0  0  0
  -24.3630  -29.3820   19.4780 C   0  0  0  0  0  0  0  0  0  0  0  0
  -25.6920  -30.9770   20.8710 C   0  0  0  0  0  2  0  0  0  0  0  0
  -25.6190  -29.7590   19.9720 C   0  0  0  0  0  0  0  0  0  0  0  0
  -26.7690  -29.0020   19.6440 C   0  0  0  0  0  3  0  0  0  0  0  0
  -25.3820  -27.5040   18.3140 C   0  0  0  0  0  3  0  0  0  0  0  0
  -24.2380  -28.2550   18.6460 C   0  0  0  0  0  3  0  0  0  0  0  0
  -23.1790  -30.2270   19.8890 C   0  0  0  0  0  2  0  0  0  0  0  0
  -24.5660  -31.0890   21.8310 N   0  0  0  0  0  0  0  0  0  0  0  0
  -23.7390  -31.8300   23.8080 O   0  0  0  0  0  0  0  0  0  0  0  0
  -22.6700  -29.4400   22.2280 C   0  0  0  0  0  0  0  0  0  0  0  0
  -21.3450  -29.2300   22.1790 N   0  0  0  0  0  0  0  0  0  0  0  0
  -23.4350  -28.7200   22.8750 O   0  0  0  0  0  0  0  0  0  0  0  0
  -20.7850  -29.8680   21.6330 H   0  0  0  0  0  0  0  0  0  0  0  0
  -18.0840  -27.7260   22.5900 C   0  0  0  0  0  0  0  0  0  0  0  0
  -20.6180  -28.1550   22.8570 C   0  0  0  0  0  3  0  0  0  0  0  0
  -20.8200  -26.8060   22.1290 C   0  0  0  0  0  2  0  0  0  0  0  0
  -19.7260  -26.5050   21.1010 C   0  0  0  0  0  2  0  0  0  0  0  0
  -18.3500  -26.4740   21.7720 C   0  0  0  0  0  2  0  0  0  0  0  0
  -19.1480  -28.5240   23.0860 C   0  0  0  0  0  0  0  0  0  0  0  0
  -18.8450  -29.6970   23.8100 C   0  0  0  0  0  3  0  0  0  0  0  0
  -17.5100  -30.0740   24.0440 C   0  0  0  0  0  3  0  0  0  0  0  0
  -16.4590  -29.2720   23.5650 C   0  0  0  0  0  3  0  0  0  0  0  0
  -16.7470  -28.0990   22.8440 C   0  0  0  0  0  3  0  0  0  0  0  0
  -26.1040  -32.1370   23.5810 C   0  0  0  0  0  3  0  0  0  0  0  0
  -25.9060  -33.4350   24.2410 N   0  0  0  0  0  0  0  0  0  0  0  0
  -26.2000  -34.6210   23.6910 C   0  0  0  0  0  0  0  0  0  0  0  0
  -26.7390  -34.7310   22.5850 O   0  0  0  0  0  0  0  0  0  0  0  0
  -25.4190  -33.4230   25.1240 H   0  0  0  0  0  0  0  0  0  0  0  0
  -24.5390  -36.4910   23.9400 C   0  0  0  0  0  1  0  0  0  0  0  0
  -25.8390  -35.8840   24.4930 C   0  0  0  0  0  3  0  0  0  0  0  0
  -28.0940  -36.5010   25.2390 C   0  0  0  0  0  1  0  0  0  0  0  0
  -26.9060  -36.9080   24.4930 N   0  0  0  0  0  0  0  0  0  0  0  0
  -26.5670  -37.7810   24.8900 H   0  0  0  0  0  0  0  0  0  0  0  0
  -26.7890  -31.1110   24.5640 C   0  0  1  0  0  0  0  0  0  0  0  0
  -25.8760  -30.6610   25.7290 C   0  0  0  0  0  1  0  0  0  0  0  0
  -27.2400  -29.8440   23.7990 C   0  0  0  0  0  1  0  0  0  0  0  0
  -28.0670  -31.7380   25.1700 C   0  0  0  0  0  1  0  0  0  0  0  0
  -29.1420  -20.0220   21.2200 C   0  0  0  0  0  2  0  0  0  0  0  0
  -29.0250  -17.4080   18.6480 C   0  0  0  0  0  3  0  0  0  0  0  0
  -28.5450  -18.5540   19.2180 C   0  0  0  0  0  3  0  0  0  0  0  0
  -30.0730  -16.9350   19.4870 C   0  0  0  0  0  0  0  0  0  0  0  0
  -30.1580  -17.7510   20.5880 C   0  0  0  0  0  0  0  0  0  0  0  0
  -31.0670  -17.7120   21.7780 C   0  0  0  0  0  1  0  0  0  0  0  0
  -29.2760  -18.8250   20.3670 N   0  0  0  0  0  0  0  0  0  0  0  0
  -31.6600  -15.0250   19.7580 C   0  0  0  0  0  0  0  0  0  0  0  0
  -31.2990  -12.6920   19.1370 C   0  0  0  0  0  2  0  0  0  0  0  0
  -30.3440  -12.6530   17.9280 C   0  0  0  0  0  2  0  0  0  0  0  0
  -28.8760  -12.6390   18.3880 C   0  0  0  0  0  2  0  0  0  0  0  0
  -28.5590  -13.6900   19.4880 C   0  0  0  0  0  3  0  0  0  0  0  0
  -29.6450  -13.7330   20.5840 C   0  0  0  0  0  2  0  0  0  0  0  0
  -30.9370  -13.8840   19.9110 N   0  0  0  0  0  0  0  0  0  0  0  0
  -32.8890  -14.9990   19.8020 O   0  0  0  0  0  0  0  0  0  0  0  0
  -31.0730  -16.0150   19.0110 N   0  0  0  0  0  0  0  0  0  0  0  0
  -26.2630  -14.4470   20.3540 C   0  0  0  0  0  0  0  0  0  0  0  0
  -25.1530  -13.7430   20.7360 C   0  0  0  0  0  0  0  0  0  0  0  0
  -25.5050  -12.3620   20.6350 C   0  0  0  0  0  0  0  0  0  0  0  0
  -27.2220  -13.4970   20.0410 N   0  0  0  0  0  0  0  0  0  0  0  0
  -26.7750  -12.2380   20.2760 N   0  0  0  0  0  0  0  0  0  0  0  0
  -24.6920  -11.1520   20.8080 C   0  0  0  0  0  0  0  0  0  0  0  0
  -25.0500  -10.1460   21.7340 C   0  0  0  0  0  3  0  0  0  0  0  0
  -24.2410   -9.0010   21.8960 C   0  0  0  0  0  3  0  0  0  0  0  0
  -23.0570   -8.8560   21.1320 C   0  0  0  0  0  0  0  0  0  0  0  0
  -22.7180   -9.8490   20.1960 C   0  0  0  0  0  3  0  0  0  0  0  0
  -23.5270  -10.9850   20.0320 C   0  0  0  0  0  3  0  0  0  0  0  0
  -22.2230   -7.7670   21.2040 O   0  0  0  0  0  0  0  0  0  0  0  0
  -22.0490   -7.0700   22.3730 C   0  0  0  0  0  0  0  0  0  0  0  0
  -21.5800   -7.6930   23.5500 C   0  0  0  0  0  3  0  0  0  0  0  0
  -21.3480   -6.9250   24.7080 C   0  0  0  0  0  3  0  0  0  0  0  0
  -21.5720   -5.5350   24.6900 C   0  0  0  0  0  0  0  0  0  0  0  0
  -22.0320   -4.9130   23.5160 C   0  0  0  0  0  3  0  0  0  0  0  0
  -22.2680   -5.6770   22.3610 C   0  0  0  0  0  0  0  0  0  0  0  0
  -22.6890   -5.0680   21.2270 F   0  0  0  0  0  0  0  0  0  0  0  0
  -21.3430   -4.7960   25.8000 F   0  0  0  0  0  0  0  0  0  0  0  0
  -23.8110  -14.3180   21.0850 C   0  0  0  0  0  0  0  0  0  0  0  0
  -23.0730  -13.6540   21.9660 N   0  0  0  0  0  0  0  0  0  0  0  0
  -23.4300  -15.3860   20.6090 O   0  0  0  0  0  0  0  0  0  0  0  0
  -23.3930  -12.7840   22.3640 H   0  0  0  0  0  0  0  0  0  0  0  0
  -22.1720  -14.0190   22.2430 H   0  0  0  0  0  0  0  0  0  0  0  0
  -26.5270  -15.8070   20.2270 N   0  0  0  0  0  0  0  0  0  0  0  0
  -25.8320  -16.5100   20.4440 H   0  0  0  0  0  0  0  0  0  0  0  0
  -27.4280  -16.2060   19.9880 H   0  0  0  0  0  0  0  0  0  0  0  0
  -32.6950  -17.7980   18.2640 C   0  0  0  0  0  1  0  0  0  0  0  0
  -32.5660  -15.6270   16.9210 C   0  0  0  0  0  1  0  0  0  0  0  0
  -31.8050  -16.6070   17.8450 C   0  0  0  0  0  3  0  0  0  0  0  0
  2  3  1  0
  2  1  1  0
  2 49  1  0
  3  5  1  0
  5  4  1  0
  6  7  1  0
  6  5  1  0
  8 10  1  0
  8  7  1  0
  9 20  2  0
 10 15  1  0
 11 19  1  0
 11 21  1  0
 12 18  1  0
 12 14  1  0
 13 19  1  0
 14 13  1  0
 15 14  2  0
 16 17  1  0
 16 10  2  0
 17 12  2  0
 18 11  1  0
 19  9  1  0
 21 23  2  0
 22 21  1  0
 24 22  1  0
 25 34  2  0
 25 30  1  0
 26 22  1  0
 26 30  1  0
 27 26  1  0
 28 29  1  0
 28 27  1  0
 29 25  1  0
 30 31  2  0
 31 32  1  0
 33 32  2  0
 34 33  1  0
 35  9  1  0
 35 36  1  0
 35 45  1  0
 36 39  1  0
 37 36  1  0
 37 41  1  0
 38 37  2  0
 41 40  1  0
 43 41  1  0
 43 44  1  0
 43 42  1  0
 45 48  1  1
 45 46  1  0
 47 45  1  0
 50 51  2  0
 50 52  1  0
 51 55  1  0
 52 53  2  0
 53 54  1  0
 55 53  1  0
 55 49  1  0
 56 63  2  0
 56 62  1  0
 57 62  1  0
 58 59  1  0
 58 57  1  0
 60 59  1  0
 60 68  1  0
 60 61  1  0
 62 61  1  0
 64 52  1  0
 64 56  1  0
 65 66  2  0
 66 85  1  0
 67 66  1  0
 67 70  1  0
 68 69  1  0
 68 65  1  0
 69 67  2  0
 70 71  1  0
 71 72  2  0
 73 76  1  0
 73 72  1  0
 74 73  2  0
 75 74  1  0
 75 70  2  0
 76 77  1  0
 77 78  1  0
 78 79  2  0
 80 79  1  0
 80 84  1  0
 81 80  2  0
 82 77  2  0
 82 81  1  0
 83 82  1  0
 85 86  1  0
 86 89  1  0
 86 88  1  0
 87 85  2  0
 90 65  1  0
 90 91  1  0
 92 90  1  0
 94 95  1  0
 95 93  1  0
 95 64  1  0
M  ISO  4   7 101   8 101  56 100  64 100
M  END
>  <TORSDO>  (2) 
F 23

>  <SCORE>  (2) 
-9.033

>  <name>  (2) 
1

>  <ligand_id>  (2) 
1

>  <original_smiles>  (2) 
[H]c1c([H])c([H])c2c(c1[H])C([H])([H])C([H])([H])C([H])([H])C2([H])N([H])C(=O)C1([H])N(C(=O)C([H])(N([H])C(=O)C([H])(N([H])C([H])([H])[H])C([H])([H])[H])C(C([H])([H])[H])(C([H])([H])[H])C([H])([H])[H])C([H])([H])c2c([H])c(OC([H])([H])C([H])([H])C([H])(C([H])([H])[H])C([H])([H])C([H])(C([H])([H])[H])C([H])([H])n3c([H])c([H])c(N(C(=O)N4C([H])([H])C([H])([H])C([H])([H])C([H])(n5nc(-c6c([H])c([H])c(Oc7c([H])c([H])c(F)c([H])c7F)c([H])c6[H])c(C(=O)N([H])[H])c5N([H])[H])C4([H])[H])C([H])(C([H])([H])[H])C([H])([H])[H])c3C([H])([H])[H])c([H])c([H])c2C1([H])[H]

>  <smiles>  (2) 
[H]c1c([H])c([H])c2c(c1[H])C([H])([H])C([H])([H])C([H])([H])C2([H])N([H])C(=O)C1([H])N(C(=O)C([H])(N([H])C(=O)C([H])(N([H])C([H])([H])[H])C([H])([H])[H])C(C([H])([H])[H])(C([H])([H])[H])C([H])([H])[H])C([H])([H])c2c([H])c(OC([H])([H])C([H])([H])C([H])(C([H])([H])[H])C([H])([H])C([H])(C([H])([H])[H])C([H])([H])n3c([H])c([H])c(N(C(=O)N4C([H])([H])C([H])([H])C([H])([H])C([H])(n5nc(-c6c([H])c([H])c(Oc7c([H])c([H])c(F)c([H])c7F)c([H])c6[H])c(C(=O)N([H])[H])c5N([H])[H])C4([H])[H])C([H])(C([H])([H])[H])C([H])([H])[H])c3C([H])([H])[H])c([H])c([H])c2C1([H])[H]

$$$$
2:0:0
     RDKit          3D

 89 97  0  0  1  0  0  0  0  0999 V2000
  -27.8620  -18.2160   19.3200 C   0  0  0  0  0  3  0  0  0  0  0  0
  -26.7250  -18.7800   18.7360 C   0  0  0  0  0  3  0  0  0  0  0  0
  -27.4260  -20.8990   19.2450 C   0  0  0  0  0  3  0  0  0  0  0  0
  -28.8720  -18.9880   19.9450 C   0  0  0  0  0  0  0  0  0  0  0  0
  -28.6340  -20.5020   19.8690 C   0  0  0  0  0  0  0  0  0  0  0  0
  -26.4980  -20.0950   18.7090 N   0  0  0  0  0  0  0  0  0  0  0  0
  -29.4490  -21.8810   20.2360 C   0  0  0  0  0  2  0  0  0  0  0  0
  -28.7660  -23.3910   20.6960 C   0  0  0  0  0  2  0  0  0  0  0  0
  -28.5770  -24.8550   19.8500 C   0  0  0  0  0  2  0  0  0  0  0  0
  -28.4820  -26.3360   20.3900 O   0  0  0  0  0  0  0  0  0  0  0  0
  -24.5950  -31.9410   23.2170 C   0  0  0  0  0  0  0  0  0  0  0  0
  -27.3920  -27.2820   20.2590 C   0  0  0  0  0  0  0  0  0  0  0  0
  -23.4840  -30.5080   21.5490 C   0  0  0  0  0  3  0  0  0  0  0  0
  -25.0150  -28.9710   20.1660 C   0  0  0  0  0  0  0  0  0  0  0  0
  -26.0340  -30.8420   21.4580 C   0  0  0  0  0  2  0  0  0  0  0  0
  -26.1640  -29.4490   20.8080 C   0  0  0  0  0  0  0  0  0  0  0  0
  -27.3480  -28.6180   20.8410 C   0  0  0  0  0  3  0  0  0  0  0  0
  -26.2140  -26.9120   19.5760 C   0  0  0  0  0  3  0  0  0  0  0  0
  -25.0550  -27.7180   19.5360 C   0  0  0  0  0  3  0  0  0  0  0  0
  -23.7640  -29.8340   20.1790 C   0  0  0  0  0  2  0  0  0  0  0  0
  -24.7230  -31.1200   22.1300 N   0  0  0  0  0  0  0  0  0  0  0  0
  -23.4860  -32.1940   23.7140 O   0  0  0  0  0  0  0  0  0  0  0  0
  -22.8110  -29.4810   22.4970 C   0  0  0  0  0  0  0  0  0  0  0  0
  -21.4870  -29.2890   22.3530 N   0  0  0  0  0  0  0  0  0  0  0  0
  -23.4820  -28.8620   23.3270 O   0  0  0  0  0  0  0  0  0  0  0  0
  -20.9990  -29.8440   21.6640 H   0  0  0  0  0  0  0  0  0  0  0  0
  -18.1070  -28.0880   22.8720 C   0  0  0  0  0  0  0  0  0  0  0  0
  -20.6720  -28.3300   23.1060 C   0  0  0  0  0  3  0  0  0  0  0  0
  -20.7570  -26.9160   22.4860 C   0  0  0  0  0  2  0  0  0  0  0  0
  -19.6380  -26.6300   21.4790 C   0  0  0  0  0  2  0  0  0  0  0  0
  -18.2680  -26.7600   22.1490 C   0  0  0  0  0  2  0  0  0  0  0  0
  -19.2360  -28.8310   23.3080 C   0  0  0  0  0  0  0  0  0  0  0  0
  -19.0320  -30.0740   23.9450 C   0  0  0  0  0  3  0  0  0  0  0  0
  -17.7320  -30.5750   24.1480 C   0  0  0  0  0  3  0  0  0  0  0  0
  -16.6180  -29.8270   23.7280 C   0  0  0  0  0  3  0  0  0  0  0  0
  -16.8070  -28.5850   23.0970 C   0  0  0  0  0  3  0  0  0  0  0  0
  -25.8350  -32.6190   23.8780 C   0  0  0  0  0  3  0  0  0  0  0  0
  -26.3190  -31.8840   25.1880 C   0  0  1  0  0  0  0  0  0  0  0  0
  -25.1870  -31.6140   26.2080 C   0  0  0  0  0  1  0  0  0  0  0  0
  -26.9740  -30.5250   24.8500 C   0  0  0  0  0  1  0  0  0  0  0  0
  -27.4000  -32.7330   25.8980 C   0  0  0  0  0  1  0  0  0  0  0  0
  -25.4770  -34.0160   24.1780 N   0  0  0  0  0  0  0  0  0  0  0  0
  -25.7820  -35.0680   23.4090 C   0  0  0  0  0  0  0  0  0  0  0  0
  -26.4640  -34.9690   22.3850 O   0  0  0  0  0  0  0  0  0  0  0  0
  -24.8750  -34.1630   24.9730 H   0  0  0  0  0  0  0  0  0  0  0  0
  -24.0170  -36.8160   23.0070 C   0  0  0  0  0  1  0  0  0  0  0  0
  -25.2520  -36.4490   23.8430 C   0  0  0  0  0  3  0  0  0  0  0  0
  -27.3270  -37.4240   24.7250 C   0  0  0  0  0  1  0  0  0  0  0  0
  -26.2580  -37.5280   23.7370 N   0  0  0  0  0  0  0  0  0  0  0  0
  -25.8190  -38.4410   23.8360 H   0  0  0  0  0  0  0  0  0  0  0  0
  -30.0200  -17.9460   20.5190 C   0  0  0  0  0  2  0  0  0  0  0  0
  -30.6240  -15.1940   20.3980 C   0  0  0  0  0  0  0  0  0  0  0  0
  -30.5360  -12.8750   19.3680 C   0  0  0  0  0  2  0  0  0  0  0  0
  -29.6110  -12.8940   18.1310 C   0  0  0  0  0  2  0  0  0  0  0  0
  -28.1430  -12.6740   18.5400 C   0  0  0  0  0  2  0  0  0  0  0  0
  -27.7330  -13.5220   19.7740 C   0  0  0  0  0  3  0  0  0  0  0  0
  -28.7850  -13.4700   20.8980 C   0  0  0  0  0  2  0  0  0  0  0  0
  -30.0510  -13.9240   20.3100 N   0  0  0  0  0  0  0  0  0  0  0  0
  -31.8340  -15.2740   20.1560 O   0  0  0  0  0  0  0  0  0  0  0  0
  -29.8130  -16.3570   20.5530 N   0  0  0  0  0  0  0  0  0  0  0  0
  -28.8480  -16.1190   20.7160 H   0  0  0  0  0  0  0  0  0  0  0  0
  -25.3360  -14.0570   20.4820 C   0  0  0  0  0  0  0  0  0  0  0  0
  -24.2780  -13.2630   20.8280 C   0  0  0  0  0  0  0  0  0  0  0  0
  -24.7650  -11.9210   20.7970 C   0  0  0  0  0  0  0  0  0  0  0  0
  -26.3950  -13.1980   20.2500 N   0  0  0  0  0  0  0  0  0  0  0  0
  -26.0610  -11.9060   20.5050 N   0  0  0  0  0  0  0  0  0  0  0  0
  -24.0540  -10.6460   20.9650 C   0  0  0  0  0  0  0  0  0  0  0  0
  -24.4530   -9.6990   21.9330 C   0  0  0  0  0  3  0  0  0  0  0  0
  -23.7380   -8.4920   22.0880 C   0  0  0  0  0  3  0  0  0  0  0  0
  -22.6110   -8.2220   21.2750 C   0  0  0  0  0  0  0  0  0  0  0  0
  -22.2310   -9.1600   20.2990 C   0  0  0  0  0  3  0  0  0  0  0  0
  -22.9450  -10.3590   20.1440 C   0  0  0  0  0  3  0  0  0  0  0  0
  -21.8710   -7.0670   21.3360 O   0  0  0  0  0  0  0  0  0  0  0  0
  -21.7380   -6.3600   22.5040 C   0  0  0  0  0  0  0  0  0  0  0  0
  -21.0930   -6.9050   23.6340 C   0  0  0  0  0  3  0  0  0  0  0  0
  -20.9160   -6.1190   24.7920 C   0  0  0  0  0  3  0  0  0  0  0  0
  -21.3740   -4.7870   24.8170 C   0  0  0  0  0  0  0  0  0  0  0  0
  -22.0120   -4.2410   23.6890 C   0  0  0  0  0  3  0  0  0  0  0  0
  -22.1900   -5.0250   22.5350 C   0  0  0  0  0  0  0  0  0  0  0  0
  -22.7860   -4.4870   21.4440 F   0  0  0  0  0  0  0  0  0  0  0  0
  -21.1980   -4.0300   25.9250 F   0  0  0  0  0  0  0  0  0  0  0  0
  -22.8700  -13.7190   21.0790 C   0  0  0  0  0  0  0  0  0  0  0  0
  -22.1280  -12.9910   21.9050 N   0  0  0  0  0  0  0  0  0  0  0  0
  -22.4390  -14.7550   20.5780 O   0  0  0  0  0  0  0  0  0  0  0  0
  -22.4940  -12.1540   22.3320 H   0  0  0  0  0  0  0  0  0  0  0  0
  -21.1840  -13.2770   22.1150 H   0  0  0  0  0  0  0  0  0  0  0  0
  -25.4790  -15.4330   20.3230 N   0  0  0  0  0  0  0  0  0  0  0  0
  -24.7030  -16.0700   20.4600 H   0  0  0  0  0  0  0  0  0  0  0  0
  -26.3250  -15.8940   20.0210 H   0  0  0  0  0  0  0  0  0  0  0  0
  1  4  1  0
  2  1  2  0
  3  5  1  0
  4 51  1  0
  5  4  2  0
  5  7  1  0
  6  2  1  0
  6  3  2  0
  7  8  1  0
  9 10  1  0
  9  8  1  0
 11 22  2  0
 12 10  1  0
 12 17  1  0
 13 21  1  0
 13 23  1  0
 14 20  1  0
 14 16  1  0
 15 21  1  0
 16 17  2  0
 16 15  1  0
 18 12  2  0
 19 18  1  0
 19 14  2  0
 20 13  1  0
 21 11  1  0
 23 25  2  0
 24 23  1  0
 26 24  1  0
 27 36  2  0
 27 32  1  0
 28 24  1  0
 28 32  1  0
 29 28  1  0
 30 31  1  0
 30 29  1  0
 31 27  1  0
 32 33  2  0
 33 34  1  0
 35 34  2  0
 36 35  1  0
 37 11  1  0
 37 42  1  0
 37 38  1  0
 38 41  1  1
 38 39  1  0
 40 38  1  0
 42 45  1  0
 43 47  1  0
 43 42  1  0
 44 43  2  0
 47 46  1  0
 49 50  1  0
 49 47  1  0
 49 48  1  0
 51 60  1  0
 52 60  1  0
 53 58  1  0
 54 55  1  0
 54 53  1  0
 56 55  1  0
 56 65  1  0
 56 57  1  0
 58 52  1  0
 58 57  1  0
 59 52  2  0
 60 61  1  0
 62 63  2  0
 63 82  1  0
 64 63  1  0
 64 67  1  0
 65 62  1  0
 65 66  1  0
 66 64  2  0
 67 68  1  0
 68 69  2  0
 70 73  1  0
 70 69  1  0
 71 70  2  0
 72 71  1  0
 72 67  2  0
 73 74  1  0
 74 79  2  0
 74 75  1  0
 75 76  2  0
 76 77  1  0
 77 81  1  0
 78 77  2  0
 79 78  1  0
 80 79  1  0
 82 83  1  0
 83 86  1  0
 83 85  1  0
 84 82  2  0
 87 88  1  0
 87 62  1  0
 89 87  1  0
M  ISO  4   9 101  10 101  52 100  60 100
M  END
>  <TORSDO>  (3) 
F 20

>  <SCORE>  (3) 
-14.760

>  <name>  (3) 
2

>  <ligand_id>  (3) 
2

>  <original_smiles>  (3) 
[H]c1nc([H])c(C([H])([H])C([H])([H])C([H])([H])Oc2c([H])c([H])c3c(c2[H])C([H])([H])N(C(=O)C([H])(N([H])C(=O)C([H])(N([H])C([H])([H])[H])C([H])([H])[H])C(C([H])([H])[H])(C([H])([H])[H])C([H])([H])[H])C([H])(C(=O)N([H])C2([H])c4c([H])c([H])c([H])c([H])c4C([H])([H])C([H])([H])C2([H])[H])C3([H])[H])c(C([H])([H])N([H])C(=O)N2C([H])([H])C([H])([H])C([H])([H])C([H])(n3nc(-c4c([H])c([H])c(Oc5c([H])c([H])c(F)c([H])c5F)c([H])c4[H])c(C(=O)N([H])[H])c3N([H])[H])C2([H])[H])c1[H]

>  <smiles>  (3) 
[H]c1nc([H])c(C([H])([H])C([H])([H])C([H])([H])Oc2c([H])c([H])c3c(c2[H])C([H])([H])N(C(=O)C([H])(N([H])C(=O)C([H])(N([H])C([H])([H])[H])C([H])([H])[H])C(C([H])([H])[H])(C([H])([H])[H])C([H])([H])[H])C([H])(C(=O)N([H])C2([H])c4c([H])c([H])c([H])c([H])c4C([H])([H])C([H])([H])C2([H])[H])C3([H])[H])c(C([H])([H])N([H])C(=O)N2C([H])([H])C([H])([H])C([H])([H])C([H])(n3nc(-c4c([H])c([H])c(Oc5c([H])c([H])c(F)c([H])c5F)c([H])c4[H])c(C(=O)N([H])[H])c3N([H])[H])C2([H])[H])c1[H]

$$$$
3:0:0
     RDKit          3D

 94103  0  0  1  0  0  0  0  0999 V2000
  -31.2520  -20.6930   19.7090 C   0  0  0  0  0  3  0  0  0  0  0  0
  -31.0650  -21.9590   19.1410 C   0  0  0  0  0  3  0  0  0  0  0  0
  -31.6720  -19.5900   18.9320 C   0  0  0  0  0  0  0  0  0  0  0  0
  -31.3100  -22.1490   17.7770 C   0  0  0  0  0  0  0  0  0  0  0  0
  -31.9430  -19.7880   17.5450 C   0  0  0  0  0  0  0  0  0  0  0  0
  -31.7440  -21.0660   17.0130 N   0  0  0  0  0  0  0  0  0  0  0  0
  -31.9040  -18.2870   19.7010 C   0  0  0  0  0  2  0  0  0  0  0  0
  -31.2520  -16.3190   18.2220 C   0  0  0  0  0  1  0  0  0  0  0  0
  -33.4530  -17.4280   17.7730 C   0  0  0  0  0  2  0  0  0  0  0  0
  -33.1290  -16.0700   19.8290 C   0  0  0  0  0  1  0  0  0  0  0  0
  -32.4350  -17.0590   18.8780 C   0  0  1  0  0  0  0  0  0  0  0  0
  -31.1220  -23.6090   17.1700 C   0  0  0  0  0  2  0  0  0  0  0  0
  -31.7470  -24.9140   17.9110 C   0  0  0  0  0  2  0  0  0  0  0  0
  -30.8450  -26.2370   18.1120 C   0  0  0  0  0  2  0  0  0  0  0  0
  -31.3250  -27.6040   17.7250 O   0  0  0  0  0  0  0  0  0  0  0  0
  -35.5450  -33.4760   17.6590 C   0  0  0  0  0  0  0  0  0  0  0  0
  -32.5340  -28.1950   18.1510 C   0  0  0  0  0  0  0  0  0  0  0  0
  -36.6180  -31.3590   18.3450 C   0  0  0  0  0  3  0  0  0  0  0  0
  -35.0330  -29.4170   18.8700 C   0  0  0  0  0  0  0  0  0  0  0  0
  -34.1120  -31.7340   18.7540 C   0  0  0  0  0  2  0  0  0  0  0  0
  -33.9140  -30.2230   18.6390 C   0  0  0  0  0  0  0  0  0  0  0  0
  -32.6670  -29.6160   18.2960 C   0  0  0  0  0  3  0  0  0  0  0  0
  -33.6880  -27.4250   18.4190 C   0  0  0  0  0  3  0  0  0  0  0  0
  -34.9170  -28.0210   18.7700 C   0  0  0  0  0  3  0  0  0  0  0  0
  -36.3400  -30.1030   19.2140 C   0  0  0  0  0  2  0  0  0  0  0  0
  -35.4080  -32.2350   18.2150 N   0  0  0  0  0  0  0  0  0  0  0  0
  -36.6500  -33.8980   17.2890 O   0  0  0  0  0  0  0  0  0  0  0  0
  -37.1950  -30.9100   16.9800 C   0  0  0  0  0  0  0  0  0  0  0  0
  -38.5010  -30.5970   16.9480 N   0  0  0  0  0  0  0  0  0  0  0  0
  -36.4680  -30.8270   15.9870 O   0  0  0  0  0  0  0  0  0  0  0  0
  -39.0320  -30.7040   17.8010 H   0  0  0  0  0  0  0  0  0  0  0  0
  -41.8100  -29.8090   15.7110 C   0  0  0  0  0  0  0  0  0  0  0  0
  -39.2430  -30.1070   15.7830 C   0  0  0  0  0  3  0  0  0  0  0  0
  -39.1650  -28.5650   15.6830 C   0  0  0  0  0  2  0  0  0  0  0  0
  -40.3400  -27.8560   16.3640 C   0  0  0  0  0  2  0  0  0  0  0  0
  -41.6680  -28.2970   15.7410 C   0  0  0  0  0  2  0  0  0  0  0  0
  -40.6720  -30.6590   15.7470 C   0  0  0  0  0  0  0  0  0  0  0  0
  -40.8630  -32.0570   15.7500 C   0  0  0  0  0  3  0  0  0  0  0  0
  -42.1570  -32.6080   15.7160 C   0  0  0  0  0  3  0  0  0  0  0  0
  -43.2800  -31.7630   15.6640 C   0  0  0  0  0  3  0  0  0  0  0  0
  -43.1050  -30.3680   15.6580 C   0  0  0  0  0  3  0  0  0  0  0  0
  -34.3220  -34.4290   17.4820 C   0  0  0  0  0  3  0  0  0  0  0  0
  -34.3360  -35.3820   18.6010 N   0  0  0  0  0  0  0  0  0  0  0  0
  -33.7500  -35.1740   19.7880 C   0  0  0  0  0  0  0  0  0  0  0  0
  -33.0740  -34.1710   20.0320 O   0  0  0  0  0  0  0  0  0  0  0  0
  -34.9180  -36.1990   18.4920 H   0  0  0  0  0  0  0  0  0  0  0  0
  -35.1170  -35.8580   21.7870 C   0  0  0  0  0  1  0  0  0  0  0  0
  -33.9450  -36.2490   20.8750 C   0  0  0  0  0  3  0  0  0  0  0  0
  -31.6660  -37.1580   20.9660 C   0  0  0  0  0  1  0  0  0  0  0  0
  -32.7380  -36.4840   21.6950 N   0  0  0  0  0  0  0  0  0  0  0  0
  -32.9630  -37.0430   22.5140 H   0  0  0  0  0  0  0  0  0  0  0  0
  -34.3250  -35.1970   16.1030 C   0  0  1  0  0  0  0  0  0  0  0  0
  -35.6260  -35.9900   15.8350 C   0  0  0  0  0  1  0  0  0  0  0  0
  -34.1240  -34.2130   14.9260 C   0  0  0  0  0  1  0  0  0  0  0  0
  -33.1430  -36.1920   16.0540 C   0  0  0  0  0  1  0  0  0  0  0  0
  -32.6610  -18.6900   16.6200 C   0  0  0  0  0  3  0  0  0  0  0  0
  -32.7850  -17.6450   14.2320 C   0  0  0  0  0  0  0  0  0  0  0  0
  -34.0030  -16.7000   12.2560 C   0  0  0  0  0  2  0  0  0  0  0  0
  -35.5230  -16.9300   12.4330 C   0  0  0  0  0  2  0  0  0  0  0  0
  -35.9350  -18.3230   11.9200 C   0  0  0  0  0  2  0  0  0  0  0  0
  -34.9850  -19.4450   12.4200 C   0  0  0  0  0  3  0  0  0  0  0  0
  -33.5000  -19.0580   12.2510 C   0  0  0  0  0  2  0  0  0  0  0  0
  -33.2950  -17.7950   12.9620 N   0  0  0  0  0  0  0  0  0  0  0  0
  -32.5010  -16.5140   14.6400 O   0  0  0  0  0  0  0  0  0  0  0  0
  -32.7960  -18.7320   15.0980 N   0  0  0  0  0  0  0  0  0  0  0  0
  -33.0550  -19.6230   14.7070 H   0  0  0  0  0  0  0  0  0  0  0  0
  -35.7380  -21.8940   12.3950 C   0  0  0  0  0  0  0  0  0  0  0  0
  -35.9400  -22.7810   11.3730 C   0  0  0  0  0  0  0  0  0  0  0  0
  -35.5960  -22.0860   10.1730 C   0  0  0  0  0  0  0  0  0  0  0  0
  -35.2890  -20.7280   11.7990 N   0  0  0  0  0  0  0  0  0  0  0  0
  -35.1460  -20.8700   10.4570 N   0  0  0  0  0  0  0  0  0  0  0  0
  -35.7270  -22.4900    8.7670 C   0  0  0  0  0  0  0  0  0  0  0  0
  -34.6860  -23.1640    8.0930 C   0  0  0  0  0  3  0  0  0  0  0  0
  -34.8460  -23.5600    6.7480 C   0  0  0  0  0  3  0  0  0  0  0  0
  -36.0560  -23.2890    6.0670 C   0  0  0  0  0  0  0  0  0  0  0  0
  -37.0800  -22.5960    6.7380 C   0  0  0  0  0  3  0  0  0  0  0  0
  -36.9180  -22.1970    8.0740 C   0  0  0  0  0  3  0  0  0  0  0  0
  -36.2940  -23.6180    4.7550 O   0  0  0  0  0  0  0  0  0  0  0  0
  -36.3620  -24.9230    4.3400 C   0  0  0  0  0  0  0  0  0  0  0  0
  -37.4040  -25.7840    4.7510 C   0  0  0  0  0  3  0  0  0  0  0  0
  -37.4730  -27.0970    4.2450 C   0  0  0  0  0  3  0  0  0  0  0  0
  -36.5110  -27.5490    3.3230 C   0  0  0  0  0  0  0  0  0  0  0  0
  -35.4760  -26.6920    2.9080 C   0  0  0  0  0  3  0  0  0  0  0  0
  -35.4040  -25.3820    3.4130 C   0  0  0  0  0  0  0  0  0  0  0  0
  -34.4180  -24.5530    2.9920 F   0  0  0  0  0  0  0  0  0  0  0  0
  -36.5810  -28.8080    2.8320 F   0  0  0  0  0  0  0  0  0  0  0  0
  -36.5160  -24.1600   11.4950 C   0  0  0  0  0  0  0  0  0  0  0  0
  -36.1190  -25.0700   10.6120 N   0  0  0  0  0  0  0  0  0  0  0  0
  -37.2900  -24.4540   12.4060 O   0  0  0  0  0  0  0  0  0  0  0  0
  -35.4710  -24.8320    9.8760 H   0  0  0  0  0  0  0  0  0  0  0  0
  -36.4670  -26.0170   10.6720 H   0  0  0  0  0  0  0  0  0  0  0  0
  -35.9260  -21.9730   13.7720 N   0  0  0  0  0  0  0  0  0  0  0  0
  -36.3230  -22.8020   14.1990 H   0  0  0  0  0  0  0  0  0  0  0  0
  -35.8360  -21.1990   14.4180 H   0  0  0  0  0  0  0  0  0  0  0  0
  2  1  1  0
  3  7  1  0
  3  1  2  0
  4  2  2  0
  5  3  1  0
  6  5  2  0
  6  4  1  0
 11  8  1  6
  9 11  1  0
 11  7  1  0
 11 10  1  0
 12  4  1  0
 12 13  1  0
 13 14  1  0
 15 14  1  0
 15 17  1  0
 16 26  1  0
 17 22  2  0
 17 23  1  0
 18 28  1  0
 18 25  1  0
 19 25  1  0
 21 20  1  0
 21 19  2  0
 22 21  1  0
 23 24  2  0
 24 19  1  0
 26 18  1  0
 26 20  1  0
 27 16  2  0
 29 28  1  0
 29 31  1  0
 30 28  2  0
 32 36  1  0
 32 37  1  0
 33 29  1  0
 34 33  1  0
 34 35  1  0
 36 35  1  0
 37 38  2  0
 37 33  1  0
 39 38  1  0
 40 39  2  0
 41 40  1  0
 41 32  2  0
 42 16  1  0
 42 43  1  0
 43 44  1  0
 44 45  2  0
 44 48  1  0
 46 43  1  0
 48 50  1  0
 48 47  1  0
 49 50  1  0
 50 51  1  0
 52 42  1  0
 52 53  1  6
 54 52  1  0
 55 52  1  0
 56 65  1  0
 56  5  1  0
 56  9  1  0
 57 64  2  0
 57 65  1  0
 58 59  1  0
 58 63  1  0
 60 61  1  0
 60 59  1  0
 61 70  1  0
 62 61  1  0
 62 63  1  0
 63 57  1  0
 66 65  1  0
 67 92  1  0
 68 87  1  0
 68 67  2  0
 69 71  2  0
 69 68  1  0
 70 67  1  0
 71 70  1  0
 72 69  1  0
 73 72  1  0
 74 73  2  0
 75 76  2  0
 75 74  1  0
 76 77  1  0
 77 72  2  0
 78 75  1  0
 79 80  1  0
 79 78  1  0
 81 80  2  0
 82 81  1  0
 83 82  2  0
 83 84  1  0
 84 79  2  0
 85 84  1  0
 86 82  1  0
 87 89  2  0
 88 91  1  0
 88 87  1  0
 90 88  1  0
 92 93  1  0
 92 94  1  0
M  ISO  4  14 101  15 101  57 100  65 100
M  END
>  <TORSDO>  (4) 
F 22

>  <SCORE>  (4) 
-0.562

>  <name>  (4) 
3

>  <ligand_id>  (4) 
3

>  <original_smiles>  (4) 
[H]c1c(C([H])([H])C([H])([H])C([H])([H])Oc2c([H])c([H])c3c(c2[H])C([H])([H])N(C(=O)C([H])(N([H])C(=O)C([H])(N([H])C([H])([H])[H])C([H])([H])[H])C(C([H])([H])[H])(C([H])([H])[H])C([H])([H])[H])C([H])(C(=O)N([H])C2([H])c4c([H])c([H])c([H])c([H])c4C([H])([H])C([H])([H])C2([H])[H])C3([H])[H])nc(C([H])([H])N([H])C(=O)N2C([H])([H])C([H])([H])C([H])([H])C([H])(n3nc(-c4c([H])c([H])c(Oc5c([H])c([H])c(F)c([H])c5F)c([H])c4[H])c(C(=O)N([H])[H])c3N([H])[H])C2([H])[H])c(C([H])([H])C(C([H])([H])[H])(C([H])([H])[H])C([H])([H])[H])c1[H]

>  <smiles>  (4) 
[H]c1c(C([H])([H])C([H])([H])C([H])([H])Oc2c([H])c([H])c3c(c2[H])C([H])([H])N(C(=O)C([H])(N([H])C(=O)C([H])(N([H])C([H])([H])[H])C([H])([H])[H])C(C([H])([H])[H])(C([H])([H])[H])C([H])([H])[H])C([H])(C(=O)N([H])C2([H])c4c([H])c([H])c([H])c([H])c4C([H])([H])C([H])([H])C2([H])[H])C3([H])[H])nc(C([H])([H])N([H])C(=O)N2C([H])([H])C([H])([H])C([H])([H])C([H])(n3nc(-c4c([H])c([H])c(Oc5c([H])c([H])c(F)c([H])c5F)c([H])c4[H])c(C(=O)N([H])[H])c3N([H])[H])C2([H])[H])c(C([H])([H])C(C([H])([H])[H])(C([H])([H])[H])C([H])([H])[H])c1[H]

$$$$
4:0:0
     RDKit          3D

 94102  0  0  1  0  0  0  0  0999 V2000
  -29.0890  -23.4570   21.3530 C   0  0  0  0  0  2  0  0  0  0  0  0
  -30.1950  -22.4020   21.1500 C   0  0  0  0  0  2  0  0  0  0  0  0
  -29.8730  -21.0990   21.9120 C   0  0  0  0  0  2  0  0  0  0  0  0
  -30.9620  -20.0020   21.8260 C   0  0  0  0  0  2  0  0  0  0  0  0
  -31.5080  -17.7520   20.8800 C   0  0  0  0  0  2  0  0  0  0  0  0
  -29.5060  -18.0680   21.1320 C   0  0  0  0  0  2  0  0  0  0  0  0
  -30.2810  -17.0110   20.3550 C   0  0  0  0  0  3  0  0  0  0  0  0
  -30.6520  -18.9460   20.8360 N   0  0  1  0  0  4  0  0  0  0  0  0
  -30.6060  -19.3030   19.8940 H   0  0  0  0  0  0  0  0  0  0  0  0
  -30.8350  -14.6070   20.3580 C   0  0  0  0  0  0  0  0  0  0  0  0
  -30.5350  -12.4520   19.2240 C   0  0  0  0  0  2  0  0  0  0  0  0
  -29.5960  -12.6890   18.0220 C   0  0  0  0  0  2  0  0  0  0  0  0
  -28.1180  -12.5650   18.4460 C   0  0  0  0  0  2  0  0  0  0  0  0
  -27.7880  -13.3880   19.7220 C   0  0  0  0  0  3  0  0  0  0  0  0
  -28.8420  -13.1380   20.8260 C   0  0  0  0  0  2  0  0  0  0  0  0
  -30.1740  -13.4260   20.2640 N   0  0  0  0  0  0  0  0  0  0  0  0
  -31.9550  -14.8060   19.8780 O   0  0  0  0  0  0  0  0  0  0  0  0
  -30.0870  -15.6270   20.7940 N   0  0  0  0  0  0  0  0  0  0  0  0
  -29.1830  -15.3790   21.1710 H   0  0  0  0  0  0  0  0  0  0  0  0
  -25.3760  -13.9970   20.3940 C   0  0  0  0  0  0  0  0  0  0  0  0
  -24.3120  -13.2240   20.7790 C   0  0  0  0  0  0  0  0  0  0  0  0
  -24.7860  -11.8770   20.7890 C   0  0  0  0  0  0  0  0  0  0  0  0
  -26.4310  -13.1180   20.1950 N   0  0  0  0  0  0  0  0  0  0  0  0
  -26.0770  -11.8400   20.4880 N   0  0  0  0  0  0  0  0  0  0  0  0
  -24.0720  -10.6120   21.0080 C   0  0  0  0  0  0  0  0  0  0  0  0
  -24.4710   -9.7050   22.0130 C   0  0  0  0  0  3  0  0  0  0  0  0
  -23.7590   -8.5040   22.2190 C   0  0  0  0  0  3  0  0  0  0  0  0
  -22.6320   -8.2030   21.4180 C   0  0  0  0  0  0  0  0  0  0  0  0
  -22.2500   -9.1000   20.4040 C   0  0  0  0  0  3  0  0  0  0  0  0
  -22.9640  -10.2920   20.1980 C   0  0  0  0  0  3  0  0  0  0  0  0
  -21.8940   -7.0500   21.5280 O   0  0  0  0  0  0  0  0  0  0  0  0
  -21.7510   -6.3980   22.7260 C   0  0  0  0  0  0  0  0  0  0  0  0
  -21.1620   -7.0200   23.8480 C   0  0  0  0  0  3  0  0  0  0  0  0
  -20.9730   -6.2910   25.0390 C   0  0  0  0  0  3  0  0  0  0  0  0
  -21.3630   -4.9400   25.1080 C   0  0  0  0  0  0  0  0  0  0  0  0
  -21.9440   -4.3170   23.9900 C   0  0  0  0  0  3  0  0  0  0  0  0
  -22.1350   -5.0440   22.8010 C   0  0  0  0  0  0  0  0  0  0  0  0
  -22.6760   -4.4320   21.7200 F   0  0  0  0  0  0  0  0  0  0  0  0
  -21.1730   -4.2370   26.2490 F   0  0  0  0  0  0  0  0  0  0  0  0
  -22.9080  -13.6950   21.0290 C   0  0  0  0  0  0  0  0  0  0  0  0
  -22.1800  -13.0120   21.9060 N   0  0  0  0  0  0  0  0  0  0  0  0
  -22.4650  -14.7040   20.4830 O   0  0  0  0  0  0  0  0  0  0  0  0
  -22.5510  -12.1960   22.3710 H   0  0  0  0  0  0  0  0  0  0  0  0
  -21.2380  -13.3110   22.1150 H   0  0  0  0  0  0  0  0  0  0  0  0
  -25.5300  -15.3630   20.1780 N   0  0  0  0  0  0  0  0  0  0  0  0
  -24.7540  -16.0110   20.2570 H   0  0  0  0  0  0  0  0  0  0  0  0
  -26.3690  -15.7950   19.8140 H   0  0  0  0  0  0  0  0  0  0  0  0
  -29.3290  -24.8370   20.6840 C   0  0  0  0  0  3  0  0  0  0  0  0
  -31.3980  -25.6800   21.8350 C   0  0  0  0  0  1  0  0  0  0  0  0
  -29.9400  -25.8080   21.6280 N   0  0  0  0  0  4  0  0  0  0  0  0
  -29.7670  -26.7320   21.2560 H   0  0  0  0  0  0  0  0  0  0  0  0
  -29.4790  -25.7680   22.5250 H   0  0  0  0  0  0  0  0  0  0  0  0
  -27.9910  -25.3980   20.1560 C   0  0  0  0  0  2  0  0  0  0  0  0
  -28.1230  -26.7410   19.6810 O   0  0  0  0  0  0  0  0  0  0  0  0
  -24.4650  -31.8540   22.9610 C   0  0  0  0  0  0  0  0  0  0  0  0
  -26.9550  -27.4720   19.7000 C   0  0  0  0  0  0  0  0  0  0  0  0
  -23.1830  -30.4960   21.3360 C   0  0  0  0  0  3  0  0  0  0  0  0
  -24.5680  -28.9790   19.8270 C   0  0  0  0  0  0  0  0  0  0  0  0
  -25.6980  -30.8460   21.0460 C   0  0  0  0  0  2  0  0  0  0  0  0
  -25.7500  -29.4890   20.3780 C   0  0  0  0  0  0  0  0  0  0  0  0
  -26.9470  -28.7450   20.3080 C   0  0  0  0  0  3  0  0  0  0  0  0
  -25.7540  -26.9700   19.1430 C   0  0  0  0  0  3  0  0  0  0  0  0
  -24.5650  -27.7200   19.2050 C   0  0  0  0  0  3  0  0  0  0  0  0
  -23.3330  -29.8430   19.9360 C   0  0  0  0  0  2  0  0  0  0  0  0
  -24.4690  -31.0770   21.8410 N   0  0  0  0  0  0  0  0  0  0  0  0
  -23.4080  -32.1190   23.5510 O   0  0  0  0  0  0  0  0  0  0  0  0
  -22.5610  -29.4620   22.3010 C   0  0  0  0  0  0  0  0  0  0  0  0
  -21.2330  -29.2880   22.2140 N   0  0  0  0  0  0  0  0  0  0  0  0
  -23.2680  -28.8180   23.0800 O   0  0  0  0  0  0  0  0  0  0  0  0
  -20.7250  -29.8580   21.5540 H   0  0  0  0  0  0  0  0  0  0  0  0
  -17.8750  -28.0700   22.7550 C   0  0  0  0  0  0  0  0  0  0  0  0
  -20.4350  -28.3410   22.9920 C   0  0  0  0  0  3  0  0  0  0  0  0
  -20.5390  -26.9130   22.4080 C   0  0  0  0  0  2  0  0  0  0  0  0
  -19.4250  -26.5880   21.4090 C   0  0  0  0  0  2  0  0  0  0  0  0
  -18.0510  -26.7220   22.0730 C   0  0  0  0  0  2  0  0  0  0  0  0
  -18.9950  -28.8360   23.1710 C   0  0  0  0  0  0  0  0  0  0  0  0
  -18.7790  -30.0990   23.7660 C   0  0  0  0  0  3  0  0  0  0  0  0
  -17.4720  -30.5910   23.9530 C   0  0  0  0  0  3  0  0  0  0  0  0
  -16.3680  -29.8210   23.5530 C   0  0  0  0  0  3  0  0  0  0  0  0
  -16.5690  -28.5620   22.9590 C   0  0  0  0  0  3  0  0  0  0  0  0
  -25.7810  -32.4580   23.5440 C   0  0  0  0  0  3  0  0  0  0  0  0
  -25.4890  -33.8340   23.9580 N   0  0  0  0  0  0  0  0  0  0  0  0
  -25.8590  -34.9270   23.2770 C   0  0  0  0  0  0  0  0  0  0  0  0
  -26.5540  -34.8780   22.2570 O   0  0  0  0  0  0  0  0  0  0  0  0
  -24.8760  -33.9480   24.7530 H   0  0  0  0  0  0  0  0  0  0  0  0
  -24.2110  -36.8000   22.9520 C   0  0  0  0  0  1  0  0  0  0  0  0
  -25.3810  -36.2920   23.8100 C   0  0  0  0  0  3  0  0  0  0  0  0
  -27.4780  -37.0400   24.8480 C   0  0  0  0  0  1  0  0  0  0  0  0
  -26.4500  -37.3160   23.8460 N   0  0  0  0  0  0  0  0  0  0  0  0
  -26.0620  -38.2370   24.0340 H   0  0  0  0  0  0  0  0  0  0  0  0
  -26.3650  -31.6250   24.7500 C   0  0  1  0  0  0  0  0  0  0  0  0
  -25.3320  -31.3270   25.8620 C   0  0  0  0  0  1  0  0  0  0  0  0
  -26.9310  -30.2750   24.2510 C   0  0  0  0  0  1  0  0  0  0  0  0
  -27.5440  -32.3910   25.3910 C   0  0  0  0  0  1  0  0  0  0  0  0
  2  1  1  0
  2  3  1  0
  4  3  1  0
  7 18  1  0
  7  5  1  0
  7  6  1  0
  8  5  1  0
  8  6  1  0
  8  4  1  0
  8  9  1  6
 10 18  1  0
 11 16  1  0
 12 13  1  0
 12 11  1  0
 14 13  1  0
 14 23  1  0
 14 15  1  0
 16 10  1  0
 16 15  1  0
 17 10  2  0
 18 19  1  0
 20 21  2  0
 21 22  1  0
 21 40  1  0
 22 25  1  0
 23 20  1  0
 23 24  1  0
 24 22  2  0
 25 26  1  0
 26 27  2  0
 28 31  1  0
 28 27  1  0
 29 28  2  0
 30 29  1  0
 30 25  2  0
 31 32  1  0
 32 37  2  0
 32 33  1  0
 33 34  2  0
 34 35  1  0
 35 39  1  0
 36 35  2  0
 37 36  1  0
 38 37  1  0
 40 41  1  0
 41 44  1  0
 41 43  1  0
 42 40  2  0
 45 46  1  0
 45 20  1  0
 47 45  1  0
 48 53  1  0
 48  1  1  0
 48 50  1  0
 50 49  1  0
 50 52  1  0
 51 50  1  0
 54 56  1  0
 54 53  1  0
 55 66  2  0
 56 61  1  0
 57 65  1  0
 57 67  1  0
 58 64  1  0
 58 60  1  0
 59 65  1  0
 60 59  1  0
 61 60  2  0
 62 63  1  0
 62 56  2  0
 63 58  2  0
 64 57  1  0
 65 55  1  0
 67 69  2  0
 68 67  1  0
 70 68  1  0
 71 80  2  0
 71 76  1  0
 72 68  1  0
 72 76  1  0
 73 72  1  0
 74 75  1  0
 74 73  1  0
 75 71  1  0
 76 77  2  0
 77 78  1  0
 79 78  2  0
 80 79  1  0
 81 55  1  0
 81 82  1  0
 81 91  1  0
 82 85  1  0
 83 87  1  0
 83 82  1  0
 84 83  2  0
 87 86  1  0
 87 89  1  0
 89 90  1  0
 89 88  1  0
 91 94  1  1
 91 92  1  0
 93 91  1  0
M  ISO  4  10 100  18 100  53 101  54 101
M  END
>  <TORSDO>  (5) 
F 23

>  <SCORE>  (5) 
-11.852

>  <name>  (5) 
4

>  <ligand_id>  (5) 
4

>  <original_smiles>  (5) 
[H]c1c([H])c([H])c2c(c1[H])C([H])([H])C([H])([H])C([H])([H])C2([H])N([H])C(=O)C1([H])N(C(=O)C([H])(N([H])C(=O)C([H])(N([H])C([H])([H])[H])C([H])([H])[H])C(C([H])([H])[H])(C([H])([H])[H])C([H])([H])[H])C([H])([H])c2c([H])c(OC([H])([H])C([H])(C([H])([H])C([H])([H])C([H])([H])C([H])([H])[N+]3([H])C([H])([H])C([H])(N([H])C(=O)N4C([H])([H])C([H])([H])C([H])([H])C([H])(n5nc(-c6c([H])c([H])c(Oc7c([H])c([H])c(F)c([H])c7F)c([H])c6[H])c(C(=O)N([H])[H])c5N([H])[H])C4([H])[H])C3([H])[H])[N+]([H])([H])C([H])([H])[H])c([H])c([H])c2C1([H])[H]

>  <smiles>  (5) 
[H]c1c([H])c([H])c2c(c1[H])C([H])([H])C([H])([H])C([H])([H])C2([H])N([H])C(=O)C1([H])N(C(=O)C([H])(N([H])C(=O)C([H])(N([H])C([H])([H])[H])C([H])([H])[H])C(C([H])([H])[H])(C([H])([H])[H])C([H])([H])[H])C([H])([H])c2c([H])c(OC([H])([H])C([H])(C([H])([H])C([H])([H])C([H])([H])C([H])([H])[N+]3([H])C([H])([H])C([H])(N([H])C(=O)N4C([H])([H])C([H])([H])C([H])([H])C([H])(n5nc(-c6c([H])c([H])c(Oc7c([H])c([H])c(F)c([H])c7F)c([H])c6[H])c(C(=O)N([H])[H])c5N([H])[H])C4([H])[H])C3([H])[H])[N+]([H])([H])C([H])([H])[H])c([H])c([H])c2C1([H])[H]

$$$$
5:0:0
     RDKit          3D

 93100  0  0  1  0  0  0  0  0999 V2000
  -27.7620  -22.2240   21.3450 C   0  0  0  0  0  0  0  0  0  0  0  0
  -27.8680  -21.2260   20.4410 N   0  0  0  0  0  0  0  0  0  0  0  0
  -28.1090  -22.0750   22.5200 O   0  0  0  0  0  0  0  0  0  0  0  0
  -27.5830  -21.4500   19.4920 H   0  0  0  0  0  0  0  0  0  0  0  0
  -25.6940  -23.6350   21.6180 C   0  0  0  0  0  1  0  0  0  0  0  0
  -27.0630  -23.5440   20.9010 C   0  0  0  0  0  3  0  0  0  0  0  0
  -27.8670  -24.8660   21.1550 C   0  0  0  0  0  2  0  0  0  0  0  0
  -28.4970  -25.5730   19.9140 C   0  0  0  0  0  2  0  0  0  0  0  0
  -28.5520  -27.0160   19.9940 O   0  0  0  0  0  0  0  0  0  0  0  0
  -24.6200  -31.9180   23.3170 C   0  0  0  0  0  0  0  0  0  0  0  0
  -27.3690  -27.7400   19.9720 C   0  0  0  0  0  0  0  0  0  0  0  0
  -23.4580  -30.5970   21.5840 C   0  0  0  0  0  3  0  0  0  0  0  0
  -24.9440  -29.2120   20.0500 C   0  0  0  0  0  0  0  0  0  0  0  0
  -25.9740  -31.0460   21.4100 C   0  0  0  0  0  2  0  0  0  0  0  0
  -26.0900  -29.7260   20.6690 C   0  0  0  0  0  0  0  0  0  0  0  0
  -27.3130  -29.0090   20.6020 C   0  0  0  0  0  3  0  0  0  0  0  0
  -26.2010  -27.2510   19.3470 C   0  0  0  0  0  3  0  0  0  0  0  0
  -25.0000  -27.9780   19.3780 C   0  0  0  0  0  3  0  0  0  0  0  0
  -23.6770  -30.0260   20.1570 C   0  0  0  0  0  2  0  0  0  0  0  0
  -24.7020  -31.2000   22.1610 N   0  0  0  0  0  0  0  0  0  0  0  0
  -23.5290  -32.1230   23.8690 O   0  0  0  0  0  0  0  0  0  0  0  0
  -22.8350  -29.4950   22.4720 C   0  0  0  0  0  0  0  0  0  0  0  0
  -21.5240  -29.2630   22.3120 N   0  0  0  0  0  0  0  0  0  0  0  0
  -23.5350  -28.8430   23.2520 O   0  0  0  0  0  0  0  0  0  0  0  0
  -21.0190  -29.8600   21.6750 H   0  0  0  0  0  0  0  0  0  0  0  0
  -18.2030  -27.8870   22.6200 C   0  0  0  0  0  0  0  0  0  0  0  0
  -20.7310  -28.2450   23.0040 C   0  0  0  0  0  3  0  0  0  0  0  0
  -20.9200  -26.8450   22.3600 C   0  0  0  0  0  2  0  0  0  0  0  0
  -19.8720  -26.5380   21.2790 C   0  0  0  0  0  2  0  0  0  0  0  0
  -18.4600  -26.5810   21.8770 C   0  0  0  0  0  2  0  0  0  0  0  0
  -19.2670  -28.6740   23.1340 C   0  0  0  0  0  0  0  0  0  0  0  0
  -18.9740  -29.9030   23.7700 C   0  0  0  0  0  3  0  0  0  0  0  0
  -17.6420  -30.3400   23.9030 C   0  0  0  0  0  3  0  0  0  0  0  0
  -16.5910  -29.5410   23.4240 C   0  0  0  0  0  3  0  0  0  0  0  0
  -16.8740  -28.3170   22.7910 C   0  0  0  0  0  3  0  0  0  0  0  0
  -25.8860  -32.5390   23.9850 C   0  0  0  0  0  3  0  0  0  0  0  0
  -25.5660  -33.9260   24.3400 N   0  0  0  0  0  0  0  0  0  0  0  0
  -25.9160  -34.9970   23.6130 C   0  0  0  0  0  0  0  0  0  0  0  0
  -26.6170  -34.9140   22.6020 O   0  0  0  0  0  0  0  0  0  0  0  0
  -24.9500  -34.0660   25.1300 H   0  0  0  0  0  0  0  0  0  0  0  0
  -24.1920  -36.7870   23.2550 C   0  0  0  0  0  1  0  0  0  0  0  0
  -25.4170  -36.3740   24.0860 C   0  0  0  0  0  3  0  0  0  0  0  0
  -27.5310  -37.2480   24.9780 C   0  0  0  0  0  1  0  0  0  0  0  0
  -26.4480  -37.4320   24.0130 N   0  0  0  0  0  0  0  0  0  0  0  0
  -26.0380  -38.3480   24.1660 H   0  0  0  0  0  0  0  0  0  0  0  0
  -26.3710  -31.7390   25.2550 C   0  0  1  0  0  0  0  0  0  0  0  0
  -25.2530  -31.4510   26.2830 C   0  0  0  0  0  1  0  0  0  0  0  0
  -26.9870  -30.3820   24.8450 C   0  0  0  0  0  1  0  0  0  0  0  0
  -27.4900  -32.5280   25.9770 C   0  0  0  0  0  1  0  0  0  0  0  0
  -28.0520  -19.7820   20.7300 C   0  0  0  0  0  3  0  0  0  0  0  0
  -29.5250  -19.2720   20.6970 C   0  0  0  0  0  3  0  0  0  0  0  0
  -29.7100  -17.7320   20.8540 C   0  0  0  0  0  2  0  0  0  0  0  0
  -31.1950  -17.2450   20.8090 C   0  0  0  0  0  2  0  0  0  0  0  0
  -32.2420  -15.0810   20.3130 C   0  0  0  0  0  0  0  0  0  0  0  0
  -32.0100  -12.6730   19.8910 C   0  0  0  0  0  2  0  0  0  0  0  0
  -31.2030  -12.5160   18.5880 C   0  0  0  0  0  2  0  0  0  0  0  0
  -29.6820  -12.5780   18.8610 C   0  0  0  0  0  2  0  0  0  0  0  0
  -29.2530  -13.7090   19.8400 C   0  0  0  0  0  3  0  0  0  0  0  0
  -30.2010  -13.8070   21.0490 C   0  0  0  0  0  2  0  0  0  0  0  0
  -31.5630  -13.9190   20.5240 N   0  0  0  0  0  0  0  0  0  0  0  0
  -33.4730  -15.1010   20.2030 O   0  0  0  0  0  0  0  0  0  0  0  0
  -31.4800  -16.1350   19.8620 N   0  0  0  0  0  0  0  0  0  0  0  0
  -26.9080  -14.5760   20.4310 C   0  0  0  0  0  0  0  0  0  0  0  0
  -25.7460  -13.9250   20.7300 C   0  0  0  0  0  0  0  0  0  0  0  0
  -26.0580  -12.5290   20.7110 C   0  0  0  0  0  0  0  0  0  0  0  0
  -27.8600  -13.5840   20.2450 N   0  0  0  0  0  0  0  0  0  0  0  0
  -27.3520  -12.3470   20.4750 N   0  0  0  0  0  0  0  0  0  0  0  0
  -25.1880  -11.3570   20.8520 C   0  0  0  0  0  0  0  0  0  0  0  0
  -25.4540  -10.3550   21.8100 C   0  0  0  0  0  3  0  0  0  0  0  0
  -24.5950   -9.2430   21.9350 C   0  0  0  0  0  3  0  0  0  0  0  0
  -23.4600   -9.1270   21.1000 C   0  0  0  0  0  0  0  0  0  0  0  0
  -23.2090  -10.1190   20.1380 C   0  0  0  0  0  3  0  0  0  0  0  0
  -24.0660  -11.2240   20.0100 C   0  0  0  0  0  3  0  0  0  0  0  0
  -22.5810   -8.0730   21.1350 O   0  0  0  0  0  0  0  0  0  0  0  0
  -22.3200   -7.3890   22.2950 C   0  0  0  0  0  0  0  0  0  0  0  0
  -21.8240   -8.0380   23.4460 C   0  0  0  0  0  3  0  0  0  0  0  0
  -21.5010   -7.2880   24.5940 C   0  0  0  0  0  3  0  0  0  0  0  0
  -21.6690   -5.8910   24.5940 C   0  0  0  0  0  0  0  0  0  0  0  0
  -22.1630   -5.2410   23.4480 C   0  0  0  0  0  3  0  0  0  0  0  0
  -22.4840   -5.9880   22.3020 C   0  0  0  0  0  0  0  0  0  0  0  0
  -22.9360   -5.3560   21.1910 F   0  0  0  0  0  0  0  0  0  0  0  0
  -21.3560   -5.1650   25.6930 F   0  0  0  0  0  0  0  0  0  0  0  0
  -24.3970  -14.5550   20.9300 C   0  0  0  0  0  0  0  0  0  0  0  0
  -23.5580  -13.9520   21.7620 N   0  0  0  0  0  0  0  0  0  0  0  0
  -24.0960  -15.6130   20.3790 O   0  0  0  0  0  0  0  0  0  0  0  0
  -23.8140  -13.0940   22.2240 H   0  0  0  0  0  0  0  0  0  0  0  0
  -22.6490  -14.3520   21.9420 H   0  0  0  0  0  0  0  0  0  0  0  0
  -27.2320  -15.9240   20.2790 N   0  0  0  0  0  0  0  0  0  0  0  0
  -26.5350  -16.6560   20.3570 H   0  0  0  0  0  0  0  0  0  0  0  0
  -28.1490  -16.2640   20.0210 H   0  0  0  0  0  0  0  0  0  0  0  0
  -32.9170  -16.4050   17.7110 C   0  0  0  0  0  1  0  0  0  0  0  0
  -30.3970  -16.2880   17.5650 C   0  0  0  0  0  1  0  0  0  0  0  0
  -31.5910  -16.6760   18.4600 C   0  0  0  0  0  3  0  0  0  0  0  0
  1  3  2  0
  2 50  1  0
  2  1  1  0
  4  2  1  0
  6  7  1  0
  6  1  1  0
  6  5  1  0
  8  9  1  0
  8  7  1  0
 10 21  2  0
 11  9  1  0
 11 16  1  0
 12 20  1  0
 12 22  1  0
 13 19  1  0
 13 15  1  0
 14 20  1  0
 15 14  1  0
 16 15  2  0
 17 18  1  0
 17 11  2  0
 18 13  2  0
 19 12  1  0
 20 10  1  0
 22 24  2  0
 23 22  1  0
 25 23  1  0
 26 35  2  0
 26 31  1  0
 27 23  1  0
 27 31  1  0
 28 27  1  0
 29 30  1  0
 29 28  1  0
 30 26  1  0
 31 32  2  0
 32 33  1  0
 34 33  2  0
 35 34  1  0
 36 10  1  0
 36 37  1  0
 36 46  1  0
 37 40  1  0
 38 42  1  0
 38 37  1  0
 39 38  2  0
 42 41  1  0
 44 42  1  0
 44 45  1  0
 44 43  1  0
 46 49  1  1
 46 47  1  0
 48 46  1  0
 51 50  2  0
 51 52  1  0
 53 52  1  0
 54 60  1  0
 55 60  1  0
 56 57  1  0
 56 55  1  0
 58 57  1  0
 58 66  1  0
 58 59  1  0
 60 59  1  0
 61 54  2  0
 62 54  1  0
 62 53  1  0
 63 64  2  0
 64 83  1  0
 65 64  1  0
 65 68  1  0
 66 63  1  0
 66 67  1  0
 67 65  2  0
 68 69  1  0
 69 70  2  0
 71 74  1  0
 71 70  1  0
 72 71  2  0
 73 72  1  0
 73 68  2  0
 74 75  1  0
 75 80  2  0
 75 76  1  0
 76 77  2  0
 78 77  1  0
 78 82  1  0
 79 78  2  0
 80 79  1  0
 81 80  1  0
 83 84  1  0
 84 87  1  0
 84 86  1  0
 85 83  2  0
 88 89  1  0
 88 63  1  0
 90 88  1  0
 91 93  1  0
 92 93  1  0
 93 62  1  0
M  ISO  4   8 101   9 101  54 100  62 100
M  END
>  <TORSDO>  (6) 
F 24

>  <SCORE>  (6) 
-9.473

>  <name>  (6) 
5

>  <ligand_id>  (6) 
5

>  <original_smiles>  (6) 
[H]c1c([H])c([H])c2c(c1[H])C([H])([H])C([H])([H])C([H])([H])C2([H])N([H])C(=O)C1([H])N(C(=O)C([H])(N([H])C(=O)C([H])(N([H])C([H])([H])[H])C([H])([H])[H])C(C([H])([H])[H])(C([H])([H])[H])C([H])([H])[H])C([H])([H])c2c([H])c(OC([H])([H])C([H])([H])C([H])(C(=O)N([H])C([H])([H])C([H])([H])C([H])([H])C([H])([H])N(C(=O)N3C([H])([H])C([H])([H])C([H])([H])C([H])(n4nc(-c5c([H])c([H])c(Oc6c([H])c([H])c(F)c([H])c6F)c([H])c5[H])c(C(=O)N([H])[H])c4N([H])[H])C3([H])[H])C([H])(C([H])([H])[H])C([H])([H])[H])C([H])([H])[H])c([H])c([H])c2C1([H])[H]

>  <smiles>  (6) 
[H]c1c([H])c([H])c2c(c1[H])C([H])([H])C([H])([H])C([H])([H])C2([H])N([H])C(=O)C1([H])N(C(=O)C([H])(N([H])C(=O)C([H])(N([H])C([H])([H])[H])C([H])([H])[H])C(C([H])([H])[H])(C([H])([H])[H])C([H])([H])[H])C([H])([H])c2c([H])c(OC([H])([H])C([H])([H])C([H])(C(=O)N([H])C([H])([H])C([H])([H])C([H])([H])C([H])([H])N(C(=O)N3C([H])([H])C([H])([H])C([H])([H])C([H])(n4nc(-c5c([H])c([H])c(Oc6c([H])c([H])c(F)c([H])c6F)c([H])c5[H])c(C(=O)N([H])[H])c4N([H])[H])C3([H])[H])C([H])(C([H])([H])[H])C([H])([H])[H])C([H])([H])[H])c([H])c([H])c2C1([H])[H]

$$$$
6:0:0
     RDKit          3D

 91 99  0  0  1  0  0  0  0  0999 V2000
  -28.9340  -22.9700   19.1760 C   0  0  0  0  0  3  0  0  0  0  0  0
  -28.9000  -24.3920   19.1230 C   0  0  0  0  0  3  0  0  0  0  0  0
  -27.9240  -23.1250   21.3330 C   0  0  0  0  0  3  0  0  0  0  0  0
  -28.4340  -22.2800   20.3090 C   0  0  0  0  0  0  0  0  0  0  0  0
  -28.3510  -25.1420   20.1870 C   0  0  0  0  0  0  0  0  0  0  0  0
  -27.8840  -24.4930   21.2860 N   0  0  0  0  0  0  0  0  0  0  0  0
  -28.3710  -26.5540   20.1870 O   0  0  0  0  0  0  0  0  0  0  0  0
  -24.6510  -31.9130   23.2570 C   0  0  0  0  0  0  0  0  0  0  0  0
  -27.2220  -27.3510   20.2000 C   0  0  0  0  0  0  0  0  0  0  0  0
  -23.4310  -30.5280   21.6150 C   0  0  0  0  0  3  0  0  0  0  0  0
  -24.8640  -28.9600   20.1910 C   0  0  0  0  0  0  0  0  0  0  0  0
  -25.9690  -30.8280   21.4260 C   0  0  0  0  0  2  0  0  0  0  0  0
  -26.0330  -29.4470   20.7880 C   0  0  0  0  0  0  0  0  0  0  0  0
  -27.2130  -28.6520   20.7860 C   0  0  0  0  0  3  0  0  0  0  0  0
  -26.0350  -26.9060   19.5820 C   0  0  0  0  0  3  0  0  0  0  0  0
  -24.8650  -27.6920   19.5820 C   0  0  0  0  0  3  0  0  0  0  0  0
  -23.6360  -29.8460   20.2350 C   0  0  0  0  0  2  0  0  0  0  0  0
  -24.7020  -31.1070   22.1570 N   0  0  0  0  0  0  0  0  0  0  0  0
  -23.5720  -32.2000   23.7950 O   0  0  0  0  0  0  0  0  0  0  0  0
  -22.7600  -29.5180   22.5750 C   0  0  0  0  0  0  0  0  0  0  0  0
  -21.4330  -29.3540   22.4480 N   0  0  0  0  0  0  0  0  0  0  0  0
  -23.4330  -28.8840   23.3930 O   0  0  0  0  0  0  0  0  0  0  0  0
  -20.9500  -29.9160   21.7610 H   0  0  0  0  0  0  0  0  0  0  0  0
  -18.0440  -28.2010   22.9520 C   0  0  0  0  0  0  0  0  0  0  0  0
  -20.6050  -28.4250   23.2180 C   0  0  0  0  0  3  0  0  0  0  0  0
  -20.6870  -26.9940   22.6390 C   0  0  0  0  0  2  0  0  0  0  0  0
  -19.5790  -26.6900   21.6260 C   0  0  0  0  0  2  0  0  0  0  0  0
  -18.2010  -26.8510   22.2730 C   0  0  0  0  0  2  0  0  0  0  0  0
  -19.1740  -28.9460   23.3830 C   0  0  0  0  0  0  0  0  0  0  0  0
  -18.9720  -30.2100   23.9780 C   0  0  0  0  0  3  0  0  0  0  0  0
  -17.6740  -30.7290   24.1480 C   0  0  0  0  0  3  0  0  0  0  0  0
  -16.5590  -29.9800   23.7340 C   0  0  0  0  0  3  0  0  0  0  0  0
  -16.7450  -28.7180   23.1420 C   0  0  0  0  0  3  0  0  0  0  0  0
  -25.9420  -32.5310   23.8780 C   0  0  0  0  0  3  0  0  0  0  0  0
  -26.4570  -31.7470   25.1480 C   0  0  1  0  0  0  0  0  0  0  0  0
  -25.3660  -31.5120   26.2180 C   0  0  0  0  0  1  0  0  0  0  0  0
  -27.0270  -30.3670   24.7440 C   0  0  0  0  0  1  0  0  0  0  0  0
  -27.6160  -32.5280   25.8130 C   0  0  0  0  0  1  0  0  0  0  0  0
  -25.6470  -33.9300   24.2190 N   0  0  0  0  0  0  0  0  0  0  0  0
  -25.9600  -34.9830   23.4540 C   0  0  0  0  0  0  0  0  0  0  0  0
  -26.6000  -34.8800   22.4040 O   0  0  0  0  0  0  0  0  0  0  0  0
  -25.0780  -34.0850   25.0390 H   0  0  0  0  0  0  0  0  0  0  0  0
  -24.2170  -36.7730   23.1660 C   0  0  0  0  0  1  0  0  0  0  0  0
  -25.4900  -36.3720   23.9280 C   0  0  0  0  0  3  0  0  0  0  0  0
  -27.6530  -37.2620   24.6750 C   0  0  0  0  0  1  0  0  0  0  0  0
  -26.5160  -37.4260   23.7730 N   0  0  0  0  0  0  0  0  0  0  0  0
  -26.1140  -38.3460   23.9320 H   0  0  0  0  0  0  0  0  0  0  0  0
  -28.2320  -20.7120   20.3360 C   0  0  0  0  0  2  0  0  0  0  0  0
  -29.3830  -19.7400   20.5230 N   0  0  0  0  0  4  0  0  0  0  0  0
  -29.8420  -19.9510   21.3950 H   0  0  0  0  0  0  0  0  0  0  0  0
  -30.0510  -19.8910   19.7850 H   0  0  0  0  0  0  0  0  0  0  0  0
  -29.0090  -18.2610   20.5310 C   0  0  0  0  0  3  0  0  0  0  0  0
  -30.1820  -17.1890   20.6710 C   0  0  0  0  0  3  0  0  0  0  0  0
  -30.5610  -14.6380   20.4210 C   0  0  0  0  0  0  0  0  0  0  0  0
  -30.3290  -12.4030   19.3630 C   0  0  0  0  0  2  0  0  0  0  0  0
  -29.3830  -12.5260   18.1500 C   0  0  0  0  0  2  0  0  0  0  0  0
  -27.9120  -12.3720   18.5850 C   0  0  0  0  0  2  0  0  0  0  0  0
  -27.5590  -13.2420   19.8210 C   0  0  0  0  0  3  0  0  0  0  0  0
  -28.6200  -13.0980   20.9340 C   0  0  0  0  0  2  0  0  0  0  0  0
  -29.9250  -13.4280   20.3460 N   0  0  0  0  0  0  0  0  0  0  0  0
  -31.7290  -14.7730   20.0470 O   0  0  0  0  0  0  0  0  0  0  0  0
  -29.7910  -15.7310   20.7240 N   0  0  0  0  0  0  0  0  0  0  0  0
  -28.8390  -15.5270   20.9890 H   0  0  0  0  0  0  0  0  0  0  0  0
  -25.1740  -13.8480   20.5550 C   0  0  0  0  0  0  0  0  0  0  0  0
  -24.1050  -13.0790   20.9260 C   0  0  0  0  0  0  0  0  0  0  0  0
  -24.5610  -11.7250   20.8860 C   0  0  0  0  0  0  0  0  0  0  0  0
  -26.2120  -12.9650   20.3120 N   0  0  0  0  0  0  0  0  0  0  0  0
  -25.8490  -11.6820   20.5710 N   0  0  0  0  0  0  0  0  0  0  0  0
  -23.8290  -10.4650   21.0720 C   0  0  0  0  0  0  0  0  0  0  0  0
  -24.2630   -9.4890   21.9950 C   0  0  0  0  0  3  0  0  0  0  0  0
  -23.5310   -8.2940   22.1690 C   0  0  0  0  0  3  0  0  0  0  0  0
  -22.3530   -8.0670   21.4190 C   0  0  0  0  0  0  0  0  0  0  0  0
  -21.9400   -9.0320   20.4830 C   0  0  0  0  0  3  0  0  0  0  0  0
  -22.6720  -10.2180   20.3070 C   0  0  0  0  0  3  0  0  0  0  0  0
  -21.5930   -6.9260   21.5020 O   0  0  0  0  0  0  0  0  0  0  0  0
  -21.5440   -6.1770   22.6500 C   0  0  0  0  0  0  0  0  0  0  0  0
  -21.1030   -6.7210   23.8760 C   0  0  0  0  0  3  0  0  0  0  0  0
  -21.0030   -5.8970   25.0160 C   0  0  0  0  0  3  0  0  0  0  0  0
  -21.3310   -4.5320   24.9300 C   0  0  0  0  0  0  0  0  0  0  0  0
  -21.7640   -3.9870   23.7080 C   0  0  0  0  0  3  0  0  0  0  0  0
  -21.8670   -4.8060   22.5710 C   0  0  0  0  0  0  0  0  0  0  0  0
  -22.2650   -4.2720   21.3910 F   0  0  0  0  0  0  0  0  0  0  0  0
  -21.2270   -3.7380   26.0220 F   0  0  0  0  0  0  0  0  0  0  0  0
  -22.7110  -13.5610   21.2050 C   0  0  0  0  0  0  0  0  0  0  0  0
  -21.9860  -12.8690   22.0770 N   0  0  0  0  0  0  0  0  0  0  0  0
  -22.2740  -14.5870   20.6860 O   0  0  0  0  0  0  0  0  0  0  0  0
  -22.3540  -12.0380   22.5180 H   0  0  0  0  0  0  0  0  0  0  0  0
  -21.0510  -13.1730   22.3080 H   0  0  0  0  0  0  0  0  0  0  0  0
  -25.3430  -15.2190   20.3800 N   0  0  0  0  0  0  0  0  0  0  0  0
  -24.5710  -15.8690   20.4800 H   0  0  0  0  0  0  0  0  0  0  0  0
  -26.1720  -15.6460   19.9890 H   0  0  0  0  0  0  0  0  0  0  0  0
  1  4  1  0
  2  1  2  0
  2  5  1  0
  4 48  1  0
  4  3  2  0
  5  6  2  0
  6  3  1  0
  7  5  1  0
  7  9  1  0
  8 19  2  0
  9 14  1  0
 10 18  1  0
 10 20  1  0
 11 17  1  0
 11 13  1  0
 12 18  1  0
 13 12  1  0
 14 13  2  0
 15  9  2  0
 16 15  1  0
 16 11  2  0
 17 10  1  0
 18  8  1  0
 20 22  2  0
 21 20  1  0
 23 21  1  0
 24 33  2  0
 24 29  1  0
 25 21  1  0
 25 29  1  0
 26 25  1  0
 27 28  1  0
 27 26  1  0
 28 24  1  0
 29 30  2  0
 30 31  1  0
 32 31  2  0
 33 32  1  0
 34  8  1  0
 34 39  1  0
 34 35  1  0
 35 38  1  1
 35 36  1  0
 37 35  1  0
 39 42  1  0
 40 44  1  0
 40 39  1  0
 41 40  2  0
 44 43  1  0
 46 44  1  0
 46 47  1  0
 46 45  1  0
 48 49  1  0
 49 52  1  0
 49 50  1  0
 51 49  1  0
 52 53  2  0
 53 62  1  0
 54 62  1  0
 55 60  1  0
 56 57  1  0
 56 55  1  0
 58 57  1  0
 58 67  1  0
 58 59  1  0
 60 54  1  0
 60 59  1  0
 61 54  2  0
 62 63  1  0
 64 65  2  0
 65 84  1  0
 66 65  1  0
 66 69  1  0
 67 64  1  0
 67 68  1  0
 68 66  2  0
 69 70  1  0
 70 71  2  0
 72 75  1  0
 72 71  1  0
 73 72  2  0
 74 73  1  0
 74 69  2  0
 75 76  1  0
 76 77  1  0
 77 78  2  0
 79 78  1  0
 79 83  1  0
 80 79  2  0
 81 76  2  0
 81 80  1  0
 82 81  1  0
 84 85  1  0
 85 88  1  0
 85 87  1  0
 86 84  2  0
 89 90  1  0
 89 64  1  0
 91 89  1  0
M  ISO  4   5 101   7 101  54 100  62 100
M  END
>  <TORSDO>  (7) 
F 20

>  <SCORE>  (7) 
-13.786

>  <name>  (7) 
6

>  <ligand_id>  (7) 
6

>  <original_smiles>  (7) 
[H]c1nc(Oc2c([H])c([H])c3c(c2[H])C([H])([H])N(C(=O)C([H])(N([H])C(=O)C([H])(N([H])C([H])([H])[H])C([H])([H])[H])C(C([H])([H])[H])(C([H])([H])[H])C([H])([H])[H])C([H])(C(=O)N([H])C2([H])c4c([H])c([H])c([H])c([H])c4C([H])([H])C([H])([H])C2([H])[H])C3([H])[H])c([H])c([H])c1C([H])([H])[N+]([H])([H])C([H])([H])C([H])([H])N([H])C(=O)N1C([H])([H])C([H])([H])C([H])([H])C([H])(n2nc(-c3c([H])c([H])c(Oc4c([H])c([H])c(F)c([H])c4F)c([H])c3[H])c(C(=O)N([H])[H])c2N([H])[H])C1([H])[H]

>  <smiles>  (7) 
[H]c1nc(Oc2c([H])c([H])c3c(c2[H])C([H])([H])N(C(=O)C([H])(N([H])C(=O)C([H])(N([H])C([H])([H])[H])C([H])([H])[H])C(C([H])([H])[H])(C([H])([H])[H])C([H])([H])[H])C([H])(C(=O)N([H])C2([H])c4c([H])c([H])c([H])c([H])c4C([H])([H])C([H])([H])C2([H])[H])C3([H])[H])c([H])c([H])c1C([H])([H])[N+]([H])([H])C([H])([H])C([H])([H])N([H])C(=O)N1C([H])([H])C([H])([H])C([H])([H])C([H])(n2nc(-c3c([H])c([H])c(Oc4c([H])c([H])c(F)c([H])c4F)c([H])c3[H])c(C(=O)N([H])[H])c2N([H])[H])C1([H])[H]

$$$$
7:0:0
     RDKit          3D

 85 89  0  0  1  0  0  0  0  0999 V2000
  -28.7350  -21.3800   20.5270 C   0  0  0  0  0 15  0  0  0  0  0  0
  -28.2190  -23.3630   20.0060 C   0  0  0  0  0 15  0  0  0  0  0  0
  -28.1100  -25.2150   20.4170 O   0  0  0  0  0  1  0  0  0  0  0  0
  -24.6490  -31.8670   23.2020 C   0  0  0  0  0  0  0  0  0  0  0  0
  -27.1760  -26.5440   20.2930 C   0  0  0  0  0  0  0  0  0  0  0  0
  -23.4750  -30.4440   21.5810 C   0  0  0  0  0  3  0  0  0  0  0  0
  -24.9300  -28.7340   20.1990 C   0  0  0  0  0  0  0  0  0  0  0  0
  -26.0640  -30.5140   21.4940 C   0  0  0  0  0  2  0  0  0  0  0  0
  -26.1260  -29.0480   20.8530 C   0  0  0  0  0  0  0  0  0  0  0  0
  -27.2150  -27.9880   20.8650 C   0  0  0  0  0  3  0  0  0  0  0  0
  -25.9460  -26.5090   19.5650 C   0  0  0  0  0  3  0  0  0  0  0  0
  -24.8940  -27.4940   19.5300 C   0  0  0  0  0  3  0  0  0  0  0  0
  -23.7300  -29.7130   20.2260 C   0  0  0  0  0  2  0  0  0  0  0  0
  -24.7560  -30.9820   22.1440 N   0  0  0  0  0  0  0  0  0  0  0  0
  -23.5500  -32.1830   23.6920 O   0  0  0  0  0  0  0  0  0  0  0  0
  -22.7350  -29.5000   22.5680 C   0  0  0  0  0  0  0  0  0  0  0  0
  -21.4000  -29.3550   22.4420 N   0  0  0  0  0  0  0  0  0  0  0  0
  -23.3780  -28.8890   23.4250 O   0  0  0  0  0  0  0  0  0  0  0  0
  -20.9260  -29.8980   21.7330 H   0  0  0  0  0  0  0  0  0  0  0  0
  -18.0070  -28.1450   22.9670 C   0  0  0  0  0  0  0  0  0  0  0  0
  -20.5680  -28.4310   23.2270 C   0  0  0  0  0  3  0  0  0  0  0  0
  -20.6730  -26.9890   22.6750 C   0  0  0  0  0  2  0  0  0  0  0  0
  -19.5760  -26.6500   21.6610 C   0  0  0  0  0  2  0  0  0  0  0  0
  -18.1920  -26.7920   22.3000 C   0  0  0  0  0  2  0  0  0  0  0  0
  -19.1210  -28.9220   23.3870 C   0  0  0  0  0  0  0  0  0  0  0  0
  -18.8900  -30.1820   23.9780 C   0  0  0  0  0  3  0  0  0  0  0  0
  -17.5800  -30.6700   24.1480 C   0  0  0  0  0  3  0  0  0  0  0  0
  -16.4820  -29.8930   23.7400 C   0  0  0  0  0  3  0  0  0  0  0  0
  -16.6970  -28.6320   23.1570 C   0  0  0  0  0  3  0  0  0  0  0  0
  -25.8990  -32.5390   23.8480 C   0  0  0  0  0  3  0  0  0  0  0  0
  -26.3810  -31.8080   25.1640 C   0  0  1  0  0  0  0  0  0  0  0  0
  -25.2620  -31.6060   26.2140 C   0  0  0  0  0  1  0  0  0  0  0  0
  -26.9700  -30.4170   24.8450 C   0  0  0  0  0  1  0  0  0  0  0  0
  -27.5190  -32.6190   25.8280 C   0  0  0  0  0  1  0  0  0  0  0  0
  -25.5670  -33.9460   24.1640 N   0  0  0  0  0  0  0  0  0  0  0  0
  -25.9070  -35.0110   23.4220 C   0  0  0  0  0  0  0  0  0  0  0  0
  -26.5840  -34.9120   22.3980 O   0  0  0  0  0  0  0  0  0  0  0  0
  -24.9640  -34.0950   24.9590 H   0  0  0  0  0  0  0  0  0  0  0  0
  -24.1850  -36.8230   23.0820 C   0  0  0  0  0  1  0  0  0  0  0  0
  -25.4250  -36.4030   23.8880 C   0  0  0  0  0  3  0  0  0  0  0  0
  -27.5610  -37.2900   24.7240 C   0  0  0  0  0  1  0  0  0  0  0  0
  -26.4600  -37.4570   23.7780 N   0  0  0  0  0  0  0  0  0  0  0  0
  -26.0550  -38.3780   23.9220 H   0  0  0  0  0  0  0  0  0  0  0  0
  -29.3220  -19.4540   19.8940 C   0  0  0  0  0  2  0  0  0  0  0  0
  -30.1290  -16.1130   20.1660 C   0  0  0  0  0  0  0  0  0  0  0  0
  -30.3160  -13.4710   19.3990 C   0  0  0  0  0  2  0  0  0  0  0  0
  -29.4520  -12.9180   18.2170 C   0  0  0  0  0  2  0  0  0  0  0  0
  -28.0620  -12.4840   18.6960 C   0  0  0  0  0  2  0  0  0  0  0  0
  -27.5170  -13.4940   19.7250 C   0  0  0  0  0  3  0  0  0  0  0  0
  -28.5360  -13.9440   20.8100 C   0  0  0  0  0  2  0  0  0  0  0  0
  -29.6480  -14.6800   20.1300 N   0  0  0  0  0  0  0  0  0  0  0  0
  -31.3530  -15.9880   19.9230 O   0  0  0  0  0  0  0  0  0  0  0  0
  -29.3920  -17.5820   20.2960 N   0  0  0  0  0  0  0  0  0  0  0  0
  -28.4640  -17.3470   20.6200 H   0  0  0  0  0  0  0  0  0  0  0  0
  -25.1730  -13.9800   20.5370 C   0  0  0  0  0  0  0  0  0  0  0  0
  -24.1240  -13.1910   20.9110 C   0  0  0  0  0  0  0  0  0  0  0  0
  -24.6000  -11.8440   20.8540 C   0  0  0  0  0  0  0  0  0  0  0  0
  -26.2180  -13.1210   20.2680 N   0  0  0  0  0  0  0  0  0  0  0  0
  -25.8900  -11.8240   20.5210 N   0  0  0  0  0  0  0  0  0  0  0  0
  -23.8760  -10.5780   21.0410 C   0  0  0  0  0  0  0  0  0  0  0  0
  -24.3120   -9.6020   21.9650 C   0  0  0  0  0  3  0  0  0  0  0  0
  -23.5810   -8.4070   22.1460 C   0  0  0  0  0  3  0  0  0  0  0  0
  -22.3990   -8.1780   21.4020 C   0  0  0  0  0  0  0  0  0  0  0  0
  -21.9810   -9.1400   20.4660 C   0  0  0  0  0  3  0  0  0  0  0  0
  -22.7120  -10.3270   20.2850 C   0  0  0  0  0  3  0  0  0  0  0  0
  -21.6410   -7.0350   21.4900 O   0  0  0  0  0  0  0  0  0  0  0  0
  -21.5940   -6.2890   22.6400 C   0  0  0  0  0  0  0  0  0  0  0  0
  -21.1590   -6.8370   23.8660 C   0  0  0  0  0  3  0  0  0  0  0  0
  -21.0610   -6.0180   25.0080 C   0  0  0  0  0  3  0  0  0  0  0  0
  -21.3860   -4.6510   24.9260 C   0  0  0  0  0  0  0  0  0  0  0  0
  -21.8140   -4.1020   23.7040 C   0  0  0  0  0  3  0  0  0  0  0  0
  -21.9140   -4.9180   22.5640 C   0  0  0  0  0  0  0  0  0  0  0  0
  -22.3070   -4.3790   21.3850 F   0  0  0  0  0  0  0  0  0  0  0  0
  -21.2850   -3.8620   26.0210 F   0  0  0  0  0  0  0  0  0  0  0  0
  -22.7290  -13.6610   21.1990 C   0  0  0  0  0  0  0  0  0  0  0  0
  -22.0120  -12.9550   22.0640 N   0  0  0  0  0  0  0  0  0  0  0  0
  -22.2880  -14.6940   20.6950 O   0  0  0  0  0  0  0  0  0  0  0  0
  -22.3830  -12.1200   22.4920 H   0  0  0  0  0  0  0  0  0  0  0  0
  -21.0760  -13.2530   22.3030 H   0  0  0  0  0  0  0  0  0  0  0  0
  -25.3220  -15.3540   20.3700 N   0  0  0  0  0  0  0  0  0  0  0  0
  -24.5500  -16.0000   20.4910 H   0  0  0  0  0  0  0  0  0  0  0  0
  -26.1550  -15.7960   20.0060 H   0  0  0  0  0  0  0  0  0  0  0  0
  -28.7280  -18.1730   17.6560 C   0  0  0  0  0  1  0  0  0  0  0  0
  -29.6920  -20.4880   17.5740 C   0  0  0  0  0  1  0  0  0  0  0  0
  -28.8400  -19.5150   18.4100 C   0  0  0  0  0  3  0  0  0  0  0  0
  4 15  2  0
  5  3  1  0
  5 10  1  0
  6 14  1  0
  6 16  1  0
  7 13  1  0
  7  9  1  0
  8 14  1  0
  9 10  2  0
  9  8  1  0
 11  5  2  0
 12 11  1  0
 12  7  2  0
 13  6  1  0
 14  4  1  0
 16 18  2  0
 17 16  1  0
 19 17  1  0
 20 29  2  0
 20 25  1  0
 21 17  1  0
 21 25  1  0
 22 21  1  0
 23 24  1  0
 23 22  1  0
 24 20  1  0
 25 26  2  0
 26 27  1  0
 28 27  2  0
 29 28  1  0
 30  4  1  0
 30 35  1  0
 30 31  1  0
 31 34  1  1
 31 32  1  0
 33 31  1  0
 35 38  1  0
 36 40  1  0
 36 35  1  0
 37 36  2  0
 40 39  1  0
 42 40  1  0
 42 43  1  0
 42 41  1  0
 44 53  1  0
 45 53  1  0
 46 51  1  0
 47 48  1  0
 47 46  1  0
 49 48  1  0
 49 58  1  0
 49 50  1  0
 51 45  1  0
 51 50  1  0
 52 45  2  0
 53 54  1  0
 55 56  2  0
 56 75  1  0
 57 56  1  0
 57 60  1  0
 58 59  1  0
 58 55  1  0
 59 57  2  0
 60 61  1  0
 61 62  2  0
 63 66  1  0
 63 62  1  0
 64 63  2  0
 65 64  1  0
 65 60  2  0
 66 67  1  0
 67 68  1  0
 68 69  2  0
 70 69  1  0
 70 74  1  0
 71 70  2  0
 72 67  2  0
 72 71  1  0
 73 72  1  0
 75 76  1  0
 76 79  1  0
 76 78  1  0
 77 75  2  0
 80 81  1  0
 80 55  1  0
 82 80  1  0
 83 85  1  0
 84 85  1  0
 85 44  1  0
M  ISO  4   2 101   3 101  45 100  53 100
M  END
>  <TORSDO>  (8) 
F 19

>  <SCORE>  (8) 
-16.065

>  <name>  (8) 
7

>  <ligand_id>  (8) 
7

>  <original_smiles>  (8) 
[H]c1c([H])c([H])c2c(c1[H])C([H])([H])C([H])([H])C([H])([H])C2([H])N([H])C(=O)C1([H])N(C(=O)C([H])(N([H])C(=O)C([H])(N([H])C([H])([H])[H])C([H])([H])[H])C(C([H])([H])[H])(C([H])([H])[H])C([H])([H])[H])C([H])([H])c2c([H])c(OC([H])([H])C([H])([H])C([H])(N([H])C(=O)N3C([H])([H])C([H])([H])C([H])([H])C([H])(n4nc(-c5c([H])c([H])c(Oc6c([H])c([H])c(F)c([H])c6F)c([H])c5[H])c(C(=O)N([H])[H])c4N([H])[H])C3([H])[H])C([H])(C([H])([H])[H])C([H])([H])[H])c([H])c([H])c2C1([H])[H]

>  <smiles>  (8) 
[H]c1c([H])c([H])c2c(c1[H])C([H])([H])C([H])([H])C([H])([H])C2([H])N([H])C(=O)C1([H])N(C(=O)C([H])(N([H])C(=O)C([H])(N([H])C([H])([H])[H])C([H])([H])[H])C(C([H])([H])[H])(C([H])([H])[H])C([H])([H])[H])C([H])([H])c2c([H])c(OC([H])([H])C([H])([H])C([H])(N([H])C(=O)N3C([H])([H])C([H])([H])C([H])([H])C([H])(n4nc(-c5c([H])c([H])c(Oc6c([H])c([H])c(F)c([H])c6F)c([H])c5[H])c(C(=O)N([H])[H])c4N([H])[H])C3([H])[H])C([H])(C([H])([H])[H])C([H])([H])[H])c([H])c([H])c2C1([H])[H]

$$$$
8:0:0
     RDKit          3D

 92100  0  0  1  0  0  0  0  0999 V2000
  -30.5590  -21.0440   18.9140 C   0  0  0  0  0  3  0  0  0  0  0  0
  -29.7360  -20.4960   19.8630 C   0  0  0  0  0  0  0  0  0  0  0  0
  -31.2100  -18.9320   19.0860 C   0  0  0  0  0  3  0  0  0  0  0  0
  -32.1120  -17.7690   18.8440 C   0  0  0  0  0  1  0  0  0  0  0  0
  -30.1530  -19.0520   19.9300 N   0  0  0  0  0  0  0  0  0  0  0  0
  -31.4200  -20.0960   18.4800 N   0  0  0  0  0  0  0  0  0  0  0  0
  -32.1620  -20.2650   17.8120 H   0  0  0  0  0  0  0  0  0  0  0  0
  -28.6510  -21.5250   20.5030 C   0  0  0  0  0  2  0  0  0  0  0  0
  -28.8660  -23.2170   20.7340 C   0  0  0  0  0  3  0  0  0  0  0  0
  -28.4300  -24.5890   19.8150 C   0  0  0  0  0  0  0  0  0  0  0  0
  -27.9140  -24.9100   17.2720 C   0  0  0  0  0  1  0  0  0  0  0  0
  -27.6450  -24.1190   18.5640 C   0  0  0  0  0  2  0  0  0  0  0  0
  -28.3060  -26.1110   20.2880 O   0  0  0  0  0  0  0  0  0  0  0  0
  -24.6290  -31.8580   23.2320 C   0  0  0  0  0  0  0  0  0  0  0  0
  -27.2180  -27.0800   20.2260 C   0  0  0  0  0  0  0  0  0  0  0  0
  -23.4370  -30.4540   21.5970 C   0  0  0  0  0  3  0  0  0  0  0  0
  -24.8930  -28.8670   20.1890 C   0  0  0  0  0  0  0  0  0  0  0  0
  -25.9960  -30.6970   21.4530 C   0  0  0  0  0  2  0  0  0  0  0  0
  -26.0710  -29.2980   20.8090 C   0  0  0  0  0  0  0  0  0  0  0  0
  -27.2270  -28.4200   20.8170 C   0  0  0  0  0  3  0  0  0  0  0  0
  -26.0000  -26.7680   19.5880 C   0  0  0  0  0  3  0  0  0  0  0  0
  -24.8730  -27.6150   19.5640 C   0  0  0  0  0  3  0  0  0  0  0  0
  -23.6660  -29.7690   20.2250 C   0  0  0  0  0  2  0  0  0  0  0  0
  -24.7060  -31.0270   22.1470 N   0  0  0  0  0  0  0  0  0  0  0  0
  -23.5400  -32.1490   23.7520 O   0  0  0  0  0  0  0  0  0  0  0  0
  -22.7530  -29.4530   22.5640 C   0  0  0  0  0  0  0  0  0  0  0  0
  -21.4260  -29.2860   22.4350 N   0  0  0  0  0  0  0  0  0  0  0  0
  -23.4200  -28.8290   23.3940 O   0  0  0  0  0  0  0  0  0  0  0  0
  -20.9460  -29.8380   21.7390 H   0  0  0  0  0  0  0  0  0  0  0  0
  -18.0400  -28.0930   22.9350 C   0  0  0  0  0  0  0  0  0  0  0  0
  -20.5980  -28.3540   23.2070 C   0  0  0  0  0  3  0  0  0  0  0  0
  -20.7000  -26.9190   22.6410 C   0  0  0  0  0  2  0  0  0  0  0  0
  -19.5990  -26.5930   21.6260 C   0  0  0  0  0  2  0  0  0  0  0  0
  -18.2160  -26.7400   22.2640 C   0  0  0  0  0  2  0  0  0  0  0  0
  -19.1580  -28.8580   23.3630 C   0  0  0  0  0  0  0  0  0  0  0  0
  -18.9370  -30.1200   23.9530 C   0  0  0  0  0  3  0  0  0  0  0  0
  -17.6320  -30.6220   24.1170 C   0  0  0  0  0  3  0  0  0  0  0  0
  -16.5280  -29.8560   23.7010 C   0  0  0  0  0  3  0  0  0  0  0  0
  -16.7330  -28.5930   23.1170 C   0  0  0  0  0  3  0  0  0  0  0  0
  -25.9020  -32.4990   23.8620 C   0  0  0  0  0  3  0  0  0  0  0  0
  -25.5870  -33.8990   24.1860 N   0  0  0  0  0  0  0  0  0  0  0  0
  -25.9180  -34.9530   23.4290 C   0  0  0  0  0  0  0  0  0  0  0  0
  -26.5900  -34.8500   22.4020 O   0  0  0  0  0  0  0  0  0  0  0  0
  -24.9930  -34.0530   24.9870 H   0  0  0  0  0  0  0  0  0  0  0  0
  -24.1900  -36.7470   23.0680 C   0  0  0  0  0  1  0  0  0  0  0  0
  -25.4270  -36.3430   23.8840 C   0  0  0  0  0  3  0  0  0  0  0  0
  -27.5550  -37.2330   24.7290 C   0  0  0  0  0  1  0  0  0  0  0  0
  -26.4600  -37.3980   23.7760 N   0  0  0  0  0  0  0  0  0  0  0  0
  -26.0520  -38.3180   23.9210 H   0  0  0  0  0  0  0  0  0  0  0  0
  -26.4020  -31.7400   25.1530 C   0  0  1  0  0  0  0  0  0  0  0  0
  -25.2960  -31.5140   26.2100 C   0  0  0  0  0  1  0  0  0  0  0  0
  -26.9910  -30.3590   24.7870 C   0  0  0  0  0  1  0  0  0  0  0  0
  -27.5470  -32.5400   25.8160 C   0  0  0  0  0  1  0  0  0  0  0  0
  -29.8740  -17.7250   20.8100 C   0  0  0  0  0  2  0  0  0  0  0  0
  -30.5500  -14.9950   20.3330 C   0  0  0  0  0  0  0  0  0  0  0  0
  -30.4160  -12.6470   19.3600 C   0  0  0  0  0  2  0  0  0  0  0  0
  -29.4750  -12.5900   18.1340 C   0  0  0  0  0  2  0  0  0  0  0  0
  -28.0160  -12.3700   18.5780 C   0  0  0  0  0  2  0  0  0  0  0  0
  -27.6090  -13.3020   19.7480 C   0  0  0  0  0  3  0  0  0  0  0  0
  -28.6710  -13.3310   20.8660 C   0  0  0  0  0  2  0  0  0  0  0  0
  -29.9320  -13.7480   20.2370 N   0  0  0  0  0  0  0  0  0  0  0  0
  -31.7760  -15.0160   20.2040 O   0  0  0  0  0  0  0  0  0  0  0  0
  -29.7700  -16.1960   20.3300 N   0  0  0  0  0  0  0  0  0  0  0  0
  -28.8030  -15.9510   20.1910 H   0  0  0  0  0  0  0  0  0  0  0  0
  -25.2270  -13.8860   20.4780 C   0  0  0  0  0  0  0  0  0  0  0  0
  -24.1620  -13.1140   20.8490 C   0  0  0  0  0  0  0  0  0  0  0  0
  -24.6270  -11.7630   20.8300 C   0  0  0  0  0  0  0  0  0  0  0  0
  -26.2730  -13.0070   20.2510 N   0  0  0  0  0  0  0  0  0  0  0  0
  -25.9210  -11.7250   20.5300 N   0  0  0  0  0  0  0  0  0  0  0  0
  -23.9010  -10.5020   21.0220 C   0  0  0  0  0  0  0  0  0  0  0  0
  -24.3200   -9.5420   21.9680 C   0  0  0  0  0  3  0  0  0  0  0  0
  -23.5920   -8.3470   22.1480 C   0  0  0  0  0  3  0  0  0  0  0  0
  -22.4270   -8.1020   21.3810 C   0  0  0  0  0  0  0  0  0  0  0  0
  -22.0260   -9.0510   20.4230 C   0  0  0  0  0  3  0  0  0  0  0  0
  -22.7560  -10.2380   20.2420 C   0  0  0  0  0  3  0  0  0  0  0  0
  -21.6720   -6.9590   21.4680 O   0  0  0  0  0  0  0  0  0  0  0  0
  -21.6070   -6.2260   22.6270 C   0  0  0  0  0  0  0  0  0  0  0  0
  -21.1620   -6.7910   23.8420 C   0  0  0  0  0  3  0  0  0  0  0  0
  -21.0460   -5.9860   24.9930 C   0  0  0  0  0  3  0  0  0  0  0  0
  -21.3660   -4.6170   24.9290 C   0  0  0  0  0  0  0  0  0  0  0  0
  -21.8020   -4.0510   23.7180 C   0  0  0  0  0  3  0  0  0  0  0  0
  -21.9200   -4.8530   22.5700 C   0  0  0  0  0  0  0  0  0  0  0  0
  -22.3220   -4.2980   21.3990 F   0  0  0  0  0  0  0  0  0  0  0  0
  -21.2470   -3.8400   26.0310 F   0  0  0  0  0  0  0  0  0  0  0  0
  -22.7620  -13.5920   21.1030 C   0  0  0  0  0  0  0  0  0  0  0  0
  -22.0260  -12.8980   21.9660 N   0  0  0  0  0  0  0  0  0  0  0  0
  -22.3320  -14.6170   20.5760 O   0  0  0  0  0  0  0  0  0  0  0  0
  -22.3870  -12.0690   22.4130 H   0  0  0  0  0  0  0  0  0  0  0  0
  -21.0870  -13.2020   22.1810 H   0  0  0  0  0  0  0  0  0  0  0  0
  -25.3900  -15.2550   20.2830 N   0  0  0  0  0  0  0  0  0  0  0  0
  -24.6100  -15.9010   20.3350 H   0  0  0  0  0  0  0  0  0  0  0  0
  -26.2270  -15.6840   19.9110 H   0  0  0  0  0  0  0  0  0  0  0  0
  1  2  2  0
  2  5  1  0
  2  8  1  0
  3  4  1  0
  3  5  1  0
  5 54  1  0
  6  1  1  0
  6  3  1  0
  7  6  1  0
  8  9  1  0
 10 13  1  0
 10  9  2  0
 11 12  1  0
 12 10  1  0
 14 25  2  0
 15 13  1  0
 15 20  1  0
 16 24  1  0
 16 26  1  0
 17 23  1  0
 17 19  1  0
 18 24  1  0
 19 20  2  0
 19 18  1  0
 21 15  2  0
 22 21  1  0
 22 17  2  0
 23 16  1  0
 24 14  1  0
 26 28  2  0
 27 26  1  0
 29 27  1  0
 30 39  2  0
 30 35  1  0
 31 27  1  0
 31 35  1  0
 32 31  1  0
 33 34  1  0
 33 32  1  0
 34 30  1  0
 35 36  2  0
 36 37  1  0
 38 37  2  0
 39 38  1  0
 40 14  1  0
 40 41  1  0
 40 50  1  0
 41 44  1  0
 42 46  1  0
 42 41  1  0
 43 42  2  0
 46 45  1  0
 48 46  1  0
 48 49  1  0
 48 47  1  0
 50 53  1  1
 50 51  1  0
 52 50  1  0
 56 61  1  0
 57 58  1  0
 57 56  1  0
 59 58  1  0
 59 68  1  0
 59 60  1  0
 61 55  1  0
 61 60  1  0
 62 55  2  0
 63 55  1  0
 63 54  1  0
 64 63  1  0
 65 66  2  0
 66 85  1  0
 67 66  1  0
 67 70  1  0
 68 65  1  0
 68 69  1  0
 69 67  2  0
 70 71  1  0
 71 72  2  0
 73 76  1  0
 73 72  1  0
 74 73  2  0
 75 74  1  0
 75 70  2  0
 76 77  1  0
 77 78  1  0
 78 79  2  0
 80 79  1  0
 80 84  1  0
 81 80  2  0
 82 77  2  0
 82 81  1  0
 83 82  1  0
 85 86  1  0
 86 89  1  0
 86 88  1  0
 87 85  2  0
 90 91  1  0
 90 65  1  0
 92 90  1  0
M  ISO  4  10 101  13 101  55 100  63 100
M  END
>  <TORSDO>  (9) 
F 21

>  <SCORE>  (9) 
-14.402

>  <name>  (9) 
8

>  <ligand_id>  (9) 
8

>  <original_smiles>  (9) 
[H]c1c([H])c([H])c2c(c1[H])C([H])([H])C([H])([H])C([H])([H])C2([H])N([H])C(=O)C1([H])N(C(=O)C([H])(N([H])C(=O)C([H])(N([H])C([H])([H])[H])C([H])([H])[H])C(C([H])([H])[H])(C([H])([H])[H])C([H])([H])[H])C([H])([H])c2c([H])c(OC([H])(C([H])([H])C([H])([H])[H])C([H])([H])C([H])([H])c3c([H])[n+]([H])c(C([H])([H])[H])n3C([H])([H])N([H])C(=O)N3C([H])([H])C([H])([H])C([H])([H])C([H])(n4nc(-c5c([H])c([H])c(Oc6c([H])c([H])c(F)c([H])c6F)c([H])c5[H])c(C(=O)N([H])[H])c4N([H])[H])C3([H])[H])c([H])c([H])c2C1([H])[H]

>  <smiles>  (9) 
[H]c1c([H])c([H])c2c(c1[H])C([H])([H])C([H])([H])C([H])([H])C2([H])N([H])C(=O)C1([H])N(C(=O)C([H])(N([H])C(=O)C([H])(N([H])C([H])([H])[H])C([H])([H])[H])C(C([H])([H])[H])(C([H])([H])[H])C([H])([H])[H])C([H])([H])c2c([H])c(OC([H])(C([H])([H])C([H])([H])[H])C([H])([H])C([H])([H])c3c([H])[n+]([H])c(C([H])([H])[H])n3C([H])([H])N([H])C(=O)N3C([H])([H])C([H])([H])C([H])([H])C([H])(n4nc(-c5c([H])c([H])c(Oc6c([H])c([H])c(F)c([H])c6F)c([H])c5[H])c(C(=O)N([H])[H])c4N([H])[H])C3([H])[H])c([H])c([H])c2C1([H])[H]

$$$$
9:0:0
     RDKit          3D

 93101  0  0  1  0  0  0  0  0999 V2000
  -29.1930  -22.3780   19.5960 N   0  0  0  0  0  4  0  0  0  0  0  0
  -28.3270  -22.2570   19.1000 H   0  0  0  0  0  0  0  0  0  0  0  0
  -29.9090  -22.2600   18.8950 H   0  0  0  0  0  0  0  0  0  0  0  0
  -29.4200  -21.1410   20.4690 C   0  0  0  0  0  2  0  0  0  0  0  0
  -30.5670  -17.3910   18.4910 C   0  0  0  0  0  3  0  0  0  0  0  0
  -29.7020  -18.4670   20.4490 C   0  0  0  0  0  3  0  0  0  0  0  0
  -30.1290  -17.2260   19.8270 C   0  0  0  0  0  0  0  0  0  0  0  0
  -30.6140  -18.6730   17.8930 C   0  0  0  0  0  0  0  0  0  0  0  0
  -29.7630  -19.7490   19.7800 C   0  0  0  0  0  0  0  0  0  0  0  0
  -31.1970  -18.8350   16.5000 C   0  0  0  0  0  1  0  0  0  0  0  0
  -30.2190  -19.8160   18.5080 N   0  0  0  0  0  0  0  0  0  0  0  0
  -30.7450  -14.7190   20.0410 C   0  0  0  0  0  0  0  0  0  0  0  0
  -30.3800  -12.5070   18.9360 C   0  0  0  0  0  2  0  0  0  0  0  0
  -29.3750  -12.6520   17.7730 C   0  0  0  0  0  2  0  0  0  0  0  0
  -27.9270  -12.4980   18.2800 C   0  0  0  0  0  2  0  0  0  0  0  0
  -27.6470  -13.3330   19.5590 C   0  0  0  0  0  3  0  0  0  0  0  0
  -28.7690  -13.1660   20.6020 C   0  0  0  0  0  2  0  0  0  0  0  0
  -30.0410  -13.5320   19.9520 N   0  0  0  0  0  0  0  0  0  0  0  0
  -31.8860  -14.7710   19.5720 O   0  0  0  0  0  0  0  0  0  0  0  0
  -29.9000  -15.9250   21.9540 C   0  0  0  0  0  1  0  0  0  0  0  0
  -30.1350  -15.8880   20.5050 N   0  0  0  0  0  0  0  0  0  0  0  0
  -25.3030  -13.9190   20.4250 C   0  0  0  0  0  0  0  0  0  0  0  0
  -24.2520  -13.1440   20.8350 C   0  0  0  0  0  0  0  0  0  0  0  0
  -24.7060  -11.7910   20.7580 C   0  0  0  0  0  0  0  0  0  0  0  0
  -26.3280  -13.0400   20.1170 N   0  0  0  0  0  0  0  0  0  0  0  0
  -25.9800  -11.7530   20.3820 N   0  0  0  0  0  0  0  0  0  0  0  0
  -23.9800  -10.5280   20.9630 C   0  0  0  0  0  0  0  0  0  0  0  0
  -24.4350   -9.5540   21.8780 C   0  0  0  0  0  3  0  0  0  0  0  0
  -23.7080   -8.3590   22.0690 C   0  0  0  0  0  3  0  0  0  0  0  0
  -22.5130   -8.1320   21.3470 C   0  0  0  0  0  0  0  0  0  0  0  0
  -22.0780   -9.0970   20.4230 C   0  0  0  0  0  3  0  0  0  0  0  0
  -22.8040  -10.2820   20.2280 C   0  0  0  0  0  3  0  0  0  0  0  0
  -21.7540   -6.9910   21.4530 O   0  0  0  0  0  0  0  0  0  0  0  0
  -21.7130   -6.2580   22.6120 C   0  0  0  0  0  0  0  0  0  0  0  0
  -21.3090   -6.8270   23.8400 C   0  0  0  0  0  3  0  0  0  0  0  0
  -21.2130   -6.0210   24.9930 C   0  0  0  0  0  3  0  0  0  0  0  0
  -21.5120   -4.6470   24.9170 C   0  0  0  0  0  0  0  0  0  0  0  0
  -21.9060   -4.0770   23.6950 C   0  0  0  0  0  3  0  0  0  0  0  0
  -22.0030   -4.8800   22.5460 C   0  0  0  0  0  0  0  0  0  0  0  0
  -22.3650   -4.3220   21.3640 F   0  0  0  0  0  0  0  0  0  0  0  0
  -21.4110   -3.8710   26.0220 F   0  0  0  0  0  0  0  0  0  0  0  0
  -22.8720  -13.6230   21.1860 C   0  0  0  0  0  0  0  0  0  0  0  0
  -22.1840  -12.9180   22.0770 N   0  0  0  0  0  0  0  0  0  0  0  0
  -22.4160  -14.6600   20.7070 O   0  0  0  0  0  0  0  0  0  0  0  0
  -22.5620  -12.0740   22.4800 H   0  0  0  0  0  0  0  0  0  0  0  0
  -21.2620  -13.2250   22.3580 H   0  0  0  0  0  0  0  0  0  0  0  0
  -25.4720  -15.2930   20.2620 N   0  0  0  0  0  0  0  0  0  0  0  0
  -24.7320  -15.9630   20.4330 H   0  0  0  0  0  0  0  0  0  0  0  0
  -26.3300  -15.7210   19.9370 H   0  0  0  0  0  0  0  0  0  0  0  0
  -29.3400  -23.8180   20.1480 C   0  0  0  0  0  2  0  0  0  0  0  0
  -27.1170  -24.3640   21.2050 C   0  0  0  0  0  1  0  0  0  0  0  0
  -28.0810  -24.8380   20.1010 C   0  0  0  0  0  3  0  0  0  0  0  0
  -28.2930  -26.3380   20.2410 O   0  0  0  0  0  0  0  0  0  0  0  0
  -24.5850  -31.8680   23.2080 C   0  0  0  0  0  0  0  0  0  0  0  0
  -27.1990  -27.2460   20.1700 C   0  0  0  0  0  0  0  0  0  0  0  0
  -23.3840  -30.4660   21.5670 C   0  0  0  0  0  3  0  0  0  0  0  0
  -24.8420  -28.9070   20.1510 C   0  0  0  0  0  0  0  0  0  0  0  0
  -25.9270  -30.7640   21.3990 C   0  0  0  0  0  2  0  0  0  0  0  0
  -26.0110  -29.3780   20.7600 C   0  0  0  0  0  0  0  0  0  0  0  0
  -27.1900  -28.5600   20.7670 C   0  0  0  0  0  3  0  0  0  0  0  0
  -26.0120  -26.8660   19.5050 C   0  0  0  0  0  3  0  0  0  0  0  0
  -24.8500  -27.6620   19.5100 C   0  0  0  0  0  3  0  0  0  0  0  0
  -23.6100  -29.7900   20.1930 C   0  0  0  0  0  2  0  0  0  0  0  0
  -24.6500  -31.0520   22.1130 N   0  0  0  0  0  0  0  0  0  0  0  0
  -23.5000  -32.1470   23.7390 O   0  0  0  0  0  0  0  0  0  0  0  0
  -22.7150  -29.4540   22.5280 C   0  0  0  0  0  0  0  0  0  0  0  0
  -21.3890  -29.2790   22.4000 N   0  0  0  0  0  0  0  0  0  0  0  0
  -23.3920  -28.8310   23.3520 O   0  0  0  0  0  0  0  0  0  0  0  0
  -20.9010  -29.8370   21.7130 H   0  0  0  0  0  0  0  0  0  0  0  0
  -18.0120  -28.0820   22.8990 C   0  0  0  0  0  0  0  0  0  0  0  0
  -20.5680  -28.3460   23.1750 C   0  0  0  0  0  3  0  0  0  0  0  0
  -20.6720  -26.9120   22.6040 C   0  0  0  0  0  2  0  0  0  0  0  0
  -19.5730  -26.5850   21.5870 C   0  0  0  0  0  2  0  0  0  0  0  0
  -18.1900  -26.7300   22.2270 C   0  0  0  0  0  2  0  0  0  0  0  0
  -19.1270  -28.8490   23.3280 C   0  0  0  0  0  0  0  0  0  0  0  0
  -18.9050  -30.1130   23.9140 C   0  0  0  0  0  3  0  0  0  0  0  0
  -17.5990  -30.6140   24.0770 C   0  0  0  0  0  3  0  0  0  0  0  0
  -16.4980  -29.8470   23.6580 C   0  0  0  0  0  3  0  0  0  0  0  0
  -16.7040  -28.5840   23.0780 C   0  0  0  0  0  3  0  0  0  0  0  0
  -25.8660  -32.5030   23.8290 C   0  0  0  0  0  3  0  0  0  0  0  0
  -26.3820  -31.7310   25.1040 C   0  0  1  0  0  0  0  0  0  0  0  0
  -25.2920  -31.4940   26.1750 C   0  0  0  0  0  1  0  0  0  0  0  0
  -26.9670  -30.3550   24.7070 C   0  0  0  0  0  1  0  0  0  0  0  0
  -27.5290  -32.5250   25.7710 C   0  0  0  0  0  1  0  0  0  0  0  0
  -25.5530  -33.8990   24.1670 N   0  0  0  0  0  0  0  0  0  0  0  0
  -25.8740  -34.9580   23.4120 C   0  0  0  0  0  0  0  0  0  0  0  0
  -26.5360  -34.8650   22.3750 O   0  0  0  0  0  0  0  0  0  0  0  0
  -24.9730  -34.0440   24.9800 H   0  0  0  0  0  0  0  0  0  0  0  0
  -24.1350  -36.7450   23.0720 C   0  0  0  0  0  1  0  0  0  0  0  0
  -25.3800  -36.3420   23.8800 C   0  0  0  0  0  3  0  0  0  0  0  0
  -27.5140  -37.2320   24.7040 C   0  0  0  0  0  1  0  0  0  0  0  0
  -26.4060  -37.4020   23.7690 N   0  0  0  0  0  0  0  0  0  0  0  0
  -25.9970  -38.3210   23.9230 H   0  0  0  0  0  0  0  0  0  0  0  0
  1 50  1  0
  1  4  1  0
  2  1  1  0
  3  1  1  0
  5  7  1  0
  7  6  2  0
  7 21  1  0
  8  5  2  0
  8 11  1  0
  9  6  1  0
  9  4  1  0
 10  8  1  0
 11  9  2  0
 12 21  1  0
 13 18  1  0
 14 15  1  0
 14 13  1  0
 16 15  1  0
 16 25  1  0
 16 17  1  0
 18 12  1  0
 18 17  1  0
 19 12  2  0
 21 20  1  0
 22 23  2  0
 23 42  1  0
 24 23  1  0
 24 27  1  0
 25 26  1  0
 25 22  1  0
 26 24  2  0
 27 28  1  0
 28 29  2  0
 30 33  1  0
 30 29  1  0
 31 30  2  0
 32 31  1  0
 32 27  2  0
 33 34  1  0
 34 35  1  0
 35 36  2  0
 37 36  1  0
 37 41  1  0
 38 37  2  0
 39 34  2  0
 39 38  1  0
 40 39  1  0
 42 43  1  0
 43 46  1  0
 43 45  1  0
 44 42  2  0
 47 22  1  0
 47 48  1  0
 49 47  1  0
 52 50  1  0
 52 53  1  0
 52 51  1  0
 54 65  2  0
 55 53  1  0
 55 60  1  0
 56 64  1  0
 56 66  1  0
 57 63  1  0
 57 59  1  0
 58 64  1  0
 59 60  2  0
 59 58  1  0
 61 62  1  0
 61 55  2  0
 62 57  2  0
 63 56  1  0
 64 54  1  0
 66 68  2  0
 67 66  1  0
 69 67  1  0
 70 79  2  0
 70 75  1  0
 71 67  1  0
 71 75  1  0
 72 71  1  0
 73 74  1  0
 73 72  1  0
 74 70  1  0
 75 76  2  0
 76 77  1  0
 78 77  2  0
 79 78  1  0
 80 54  1  0
 80 85  1  0
 80 81  1  0
 81 84  1  1
 81 82  1  0
 83 81  1  0
 85 88  1  0
 86 90  1  0
 86 85  1  0
 87 86  2  0
 90 89  1  0
 92 90  1  0
 92 93  1  0
 92 91  1  0
M  ISO  4  12 100  21 100  52 101  53 101
M  END
>  <TORSDO>  (10) 
F 20

>  <SCORE>  (10) 
-13.563

>  <name>  (10) 
9

>  <ligand_id>  (10) 
9

>  <original_smiles>  (10) 
[H]c1c([H])c([H])c2c(c1[H])C([H])([H])C([H])([H])C([H])([H])C2([H])N([H])C(=O)C1([H])N(C(=O)C([H])(N([H])C(=O)C([H])(N([H])C([H])([H])[H])C([H])([H])[H])C(C([H])([H])[H])(C([H])([H])[H])C([H])([H])[H])C([H])([H])c2c([H])c(OC([H])(C([H])([H])[H])C([H])([H])[N+]([H])([H])C([H])([H])c3nc(C([H])([H])[H])c([H])c(N(C(=O)N4C([H])([H])C([H])([H])C([H])([H])C([H])(n5nc(-c6c([H])c([H])c(Oc7c([H])c([H])c(F)c([H])c7F)c([H])c6[H])c(C(=O)N([H])[H])c5N([H])[H])C4([H])[H])C([H])([H])[H])c3[H])c([H])c([H])c2C1([H])[H]

>  <smiles>  (10) 
[H]c1c([H])c([H])c2c(c1[H])C([H])([H])C([H])([H])C([H])([H])C2([H])N([H])C(=O)C1([H])N(C(=O)C([H])(N([H])C(=O)C([H])(N([H])C([H])([H])[H])C([H])([H])[H])C(C([H])([H])[H])(C([H])([H])[H])C([H])([H])[H])C([H])([H])c2c([H])c(OC([H])(C([H])([H])[H])C([H])([H])[N+]([H])([H])C([H])([H])c3nc(C([H])([H])[H])c([H])c(N(C(=O)N4C([H])([H])C([H])([H])C([H])([H])C([H])(n5nc(-c6c([H])c([H])c(Oc7c([H])c([H])c(F)c([H])c7F)c([H])c6[H])c(C(=O)N([H])[H])c5N([H])[H])C4([H])[H])C([H])([H])[H])c3[H])c([H])c([H])c2C1([H])[H]

$$$$
10:0:0
     RDKit          3D

 87 95  0  0  1  0  0  0  0  0999 V2000
  -28.7830  -22.5420   19.7840 C   0  0  0  0  0  2  0  0  0  0  0  0
  -30.4700  -19.1330   21.1660 C   0  0  0  0  0  3  0  0  0  0  0  0
  -30.2020  -20.5210   21.1320 C   0  0  0  0  0  3  0  0  0  0  0  0
  -28.8450  -19.5070   19.7870 C   0  0  0  0  0  3  0  0  0  0  0  0
  -29.6190  -18.3600   20.3000 C   0  0  0  0  0  0  0  0  0  0  0  0
  -29.1710  -20.9220   20.2560 N   0  0  0  0  0  0  0  0  0  0  0  0
  -30.3630  -15.4320   20.1730 C   0  0  0  0  0  0  0  0  0  0  0  0
  -30.3910  -12.9560   19.2930 C   0  0  0  0  0  2  0  0  0  0  0  0
  -29.4590  -12.6660   18.0860 C   0  0  0  0  0  2  0  0  0  0  0  0
  -28.0240  -12.3670   18.5550 C   0  0  0  0  0  2  0  0  0  0  0  0
  -27.5640  -13.3460   19.6610 C   0  0  0  0  0  3  0  0  0  0  0  0
  -28.6240  -13.5520   20.7630 C   0  0  0  0  0  2  0  0  0  0  0  0
  -29.8180  -14.1060   20.0950 N   0  0  0  0  0  0  0  0  0  0  0  0
  -31.5960  -15.4170   20.0200 O   0  0  0  0  0  0  0  0  0  0  0  0
  -29.5550  -16.7090   20.1430 N   0  0  0  0  0  0  0  0  0  0  0  0
  -28.6030  -16.4250   19.9720 H   0  0  0  0  0  0  0  0  0  0  0  0
  -25.2050  -13.8890   20.4490 C   0  0  0  0  0  0  0  0  0  0  0  0
  -24.1510  -13.1080   20.8300 C   0  0  0  0  0  0  0  0  0  0  0  0
  -24.6250  -11.7600   20.7980 C   0  0  0  0  0  0  0  0  0  0  0  0
  -26.2490  -13.0190   20.1950 N   0  0  0  0  0  0  0  0  0  0  0  0
  -25.9140  -11.7320   20.4740 N   0  0  0  0  0  0  0  0  0  0  0  0
  -23.9040  -10.4950   20.9960 C   0  0  0  0  0  0  0  0  0  0  0  0
  -24.3450   -9.5320   21.9300 C   0  0  0  0  0  3  0  0  0  0  0  0
  -23.6210   -8.3350   22.1190 C   0  0  0  0  0  3  0  0  0  0  0  0
  -22.4430   -8.0920   21.3740 C   0  0  0  0  0  0  0  0  0  0  0  0
  -22.0200   -9.0440   20.4300 C   0  0  0  0  0  3  0  0  0  0  0  0
  -22.7450  -10.2340   20.2390 C   0  0  0  0  0  3  0  0  0  0  0  0
  -21.6900   -6.9470   21.4720 O   0  0  0  0  0  0  0  0  0  0  0  0
  -21.6520   -6.2070   22.6270 C   0  0  0  0  0  0  0  0  0  0  0  0
  -21.2360   -6.7660   23.8550 C   0  0  0  0  0  3  0  0  0  0  0  0
  -21.1440   -5.9520   25.0020 C   0  0  0  0  0  3  0  0  0  0  0  0
  -21.4590   -4.5820   24.9220 C   0  0  0  0  0  0  0  0  0  0  0  0
  -21.8690   -4.0240   23.6990 C   0  0  0  0  0  3  0  0  0  0  0  0
  -21.9620   -4.8340   22.5540 C   0  0  0  0  0  0  0  0  0  0  0  0
  -22.3360   -4.2870   21.3730 F   0  0  0  0  0  0  0  0  0  0  0  0
  -21.3650   -3.8000   26.0230 F   0  0  0  0  0  0  0  0  0  0  0  0
  -22.7540  -13.5810   21.1060 C   0  0  0  0  0  0  0  0  0  0  0  0
  -22.0330  -12.8860   21.9800 N   0  0  0  0  0  0  0  0  0  0  0  0
  -22.3090  -14.6010   20.5820 O   0  0  0  0  0  0  0  0  0  0  0  0
  -22.4070  -12.0600   22.4250 H   0  0  0  0  0  0  0  0  0  0  0  0
  -21.0960  -13.1850   22.2070 H   0  0  0  0  0  0  0  0  0  0  0  0
  -25.3550  -15.2610   20.2670 N   0  0  0  0  0  0  0  0  0  0  0  0
  -24.5810  -15.9060   20.3880 H   0  0  0  0  0  0  0  0  0  0  0  0
  -26.1870  -15.7090   19.9070 H   0  0  0  0  0  0  0  0  0  0  0  0
  -28.4470  -24.0540   22.0140 C   0  0  0  0  0  1  0  0  0  0  0  0
  -28.1390  -24.1170   20.5150 C   0  0  0  0  0  3  0  0  0  0  0  0
  -28.2610  -25.7780   20.2110 O   0  0  0  0  0  0  0  0  0  0  0  0
  -24.6560  -31.8450   23.1770 C   0  0  0  0  0  0  0  0  0  0  0  0
  -27.2340  -26.8880   20.2240 C   0  0  0  0  0  0  0  0  0  0  0  0
  -23.4750  -30.4330   21.5450 C   0  0  0  0  0  3  0  0  0  0  0  0
  -24.9340  -28.8050   20.1500 C   0  0  0  0  0  0  0  0  0  0  0  0
  -26.0460  -30.6310   21.4130 C   0  0  0  0  0  2  0  0  0  0  0  0
  -26.1230  -29.2080   20.7720 C   0  0  0  0  0  0  0  0  0  0  0  0
  -27.2670  -28.2750   20.7730 C   0  0  0  0  0  3  0  0  0  0  0  0
  -26.0080  -26.6510   19.5620 C   0  0  0  0  0  3  0  0  0  0  0  0
  -24.9050  -27.5480   19.5240 C   0  0  0  0  0  3  0  0  0  0  0  0
  -23.7170  -29.7330   20.1790 C   0  0  0  0  0  2  0  0  0  0  0  0
  -24.7490  -30.9990   22.0980 N   0  0  0  0  0  0  0  0  0  0  0  0
  -23.5630  -32.1370   23.6890 O   0  0  0  0  0  0  0  0  0  0  0  0
  -22.7740  -29.4470   22.5180 C   0  0  0  0  0  0  0  0  0  0  0  0
  -21.4420  -29.2920   22.3990 N   0  0  0  0  0  0  0  0  0  0  0  0
  -23.4370  -28.8210   23.3480 O   0  0  0  0  0  0  0  0  0  0  0  0
  -20.9590  -29.8470   21.7070 H   0  0  0  0  0  0  0  0  0  0  0  0
  -18.0540  -28.1000   22.9320 C   0  0  0  0  0  0  0  0  0  0  0  0
  -20.6180  -28.3590   23.1760 C   0  0  0  0  0  3  0  0  0  0  0  0
  -20.7090  -26.9260   22.6030 C   0  0  0  0  0  2  0  0  0  0  0  0
  -19.5990  -26.6060   21.5960 C   0  0  0  0  0  2  0  0  0  0  0  0
  -18.2230  -26.7520   22.2500 C   0  0  0  0  0  2  0  0  0  0  0  0
  -19.1780  -28.8610   23.3520 C   0  0  0  0  0  0  0  0  0  0  0  0
  -18.9630  -30.1200   23.9540 C   0  0  0  0  0  3  0  0  0  0  0  0
  -17.6590  -30.6190   24.1360 C   0  0  0  0  0  3  0  0  0  0  0  0
  -16.5510  -29.8560   23.7280 C   0  0  0  0  0  3  0  0  0  0  0  0
  -16.7500  -28.5980   23.1330 C   0  0  0  0  0  3  0  0  0  0  0  0
  -25.9200  -32.5000   23.8130 C   0  0  0  0  0  3  0  0  0  0  0  0
  -25.5920  -33.8990   24.1430 N   0  0  0  0  0  0  0  0  0  0  0  0
  -25.9240  -34.9630   23.4010 C   0  0  0  0  0  0  0  0  0  0  0  0
  -26.6000  -34.8710   22.3730 O   0  0  0  0  0  0  0  0  0  0  0  0
  -24.9890  -34.0430   24.9410 H   0  0  0  0  0  0  0  0  0  0  0  0
  -24.1920  -36.7620   23.0590 C   0  0  0  0  0  1  0  0  0  0  0  0
  -25.4330  -36.3490   23.8690 C   0  0  0  0  0  3  0  0  0  0  0  0
  -27.5610  -37.2380   24.7150 C   0  0  0  0  0  1  0  0  0  0  0  0
  -26.4630  -37.4070   23.7680 N   0  0  0  0  0  0  0  0  0  0  0  0
  -26.0530  -38.3240   23.9170 H   0  0  0  0  0  0  0  0  0  0  0  0
  -26.4220  -31.7440   25.1060 C   0  0  1  0  0  0  0  0  0  0  0  0
  -25.3190  -31.5180   26.1660 C   0  0  0  0  0  1  0  0  0  0  0  0
  -27.0120  -30.3620   24.7470 C   0  0  0  0  0  1  0  0  0  0  0  0
  -27.5650  -32.5490   25.7710 C   0  0  0  0  0  1  0  0  0  0  0  0
  1  6  1  0
  1 46  1  0
  3  2  2  0
  4  6  1  0
  4  5  2  0
  5  2  1  0
  6  3  1  0
  8 13  1  0
  9 10  1  0
  9  8  1  0
 11 10  1  0
 11 20  1  0
 11 12  1  0
 13  7  1  0
 13 12  1  0
 14  7  2  0
 15  7  1  0
 15  5  1  0
 16 15  1  0
 17 18  2  0
 18 37  1  0
 19 18  1  0
 19 22  1  0
 20 17  1  0
 20 21  1  0
 21 19  2  0
 22 23  1  0
 23 24  2  0
 25 28  1  0
 25 24  1  0
 26 25  2  0
 27 26  1  0
 27 22  2  0
 28 29  1  0
 29 30  1  0
 30 31  2  0
 32 31  1  0
 32 36  1  0
 33 32  2  0
 34 29  2  0
 34 33  1  0
 35 34  1  0
 37 38  1  0
 38 41  1  0
 38 40  1  0
 39 37  2  0
 42 43  1  0
 42 17  1  0
 44 42  1  0
 46 45  1  0
 47 49  1  0
 47 46  1  0
 48 59  2  0
 49 54  1  0
 50 58  1  0
 50 60  1  0
 51 57  1  0
 51 53  1  0
 52 58  1  0
 53 54  2  0
 53 52  1  0
 55 49  2  0
 56 55  1  0
 56 51  2  0
 57 50  1  0
 58 48  1  0
 60 62  2  0
 61 60  1  0
 63 61  1  0
 64 73  2  0
 64 69  1  0
 65 61  1  0
 65 69  1  0
 66 65  1  0
 67 68  1  0
 67 66  1  0
 68 64  1  0
 69 70  2  0
 70 71  1  0
 72 71  2  0
 73 72  1  0
 74 48  1  0
 74 75  1  0
 74 84  1  0
 75 78  1  0
 76 80  1  0
 76 75  1  0
 77 76  2  0
 80 79  1  0
 82 80  1  0
 82 83  1  0
 82 81  1  0
 84 87  1  1
 84 85  1  0
 86 84  1  0
M  ISO  4   7 100  15 100  46 101  47 101
M  END
>  <TORSDO>  (11) 
F 18

>  <SCORE>  (11) 
-16.095

>  <name>  (11) 
10

>  <ligand_id>  (11) 
10

>  <original_smiles>  (11) 
[H]c1c([H])c([H])c2c(c1[H])C([H])([H])C([H])([H])C([H])([H])C2([H])N([H])C(=O)C1([H])N(C(=O)C([H])(N([H])C(=O)C([H])(N([H])C([H])([H])[H])C([H])([H])[H])C(C([H])([H])[H])(C([H])([H])[H])C([H])([H])[H])C([H])([H])c2c([H])c(OC([H])(C([H])([H])[H])C([H])([H])n3c([H])c([H])c(N([H])C(=O)N4C([H])([H])C([H])([H])C([H])([H])C([H])(n5nc(-c6c([H])c([H])c(Oc7c([H])c([H])c(F)c([H])c7F)c([H])c6[H])c(C(=O)N([H])[H])c5N([H])[H])C4([H])[H])c3[H])c([H])c([H])c2C1([H])[H]

>  <smiles>  (11) 
[H]c1c([H])c([H])c2c(c1[H])C([H])([H])C([H])([H])C([H])([H])C2([H])N([H])C(=O)C1([H])N(C(=O)C([H])(N([H])C(=O)C([H])(N([H])C([H])([H])[H])C([H])([H])[H])C(C([H])([H])[H])(C([H])([H])[H])C([H])([H])[H])C([H])([H])c2c([H])c(OC([H])(C([H])([H])[H])C([H])([H])n3c([H])c([H])c(N([H])C(=O)N4C([H])([H])C([H])([H])C([H])([H])C([H])(n5nc(-c6c([H])c([H])c(Oc7c([H])c([H])c(F)c([H])c7F)c([H])c6[H])c(C(=O)N([H])[H])c5N([H])[H])C4([H])[H])c3[H])c([H])c([H])c2C1([H])[H]

$$$$
11:0:0
     RDKit          3D

 93102  0  0  1  0  0  0  0  0999 V2000
  -28.7500  -23.3140   19.2940 C   0  0  0  0  0  3  0  0  0  0  0  0
  -29.1230  -21.9630   18.9980 C   0  0  0  0  0  3  0  0  0  0  0  0
  -29.2890  -22.8320   21.5600 C   0  0  0  0  0  3  0  0  0  0  0  0
  -28.8360  -23.8030   20.6220 C   0  0  0  0  0  0  0  0  0  0  0  0
  -29.5550  -21.0690   20.0150 C   0  0  0  0  0  0  0  0  0  0  0  0
  -29.6250  -21.5310   21.2830 N   0  0  0  0  0  0  0  0  0  0  0  0
  -30.0380  -19.7530   19.6880 N   0  0  0  0  0  0  0  0  0  0  0  0
  -30.1660  -19.6480   18.6880 H   0  0  0  0  0  0  0  0  0  0  0  0
  -30.9100  -14.6850   19.6680 C   0  0  0  0  0  0  0  0  0  0  0  0
  -30.4540  -12.5280   18.4950 C   0  0  0  0  0  2  0  0  0  0  0  0
  -29.3640  -12.7250   17.4190 C   0  0  0  0  0  2  0  0  0  0  0  0
  -27.9630  -12.5420   18.0300 C   0  0  0  0  0  2  0  0  0  0  0  0
  -27.7820  -13.3370   19.3490 C   0  0  0  0  0  3  0  0  0  0  0  0
  -28.9760  -13.1400   20.3050 C   0  0  0  0  0  2  0  0  0  0  0  0
  -30.2000  -13.5070   19.5800 N   0  0  0  0  0  0  0  0  0  0  0  0
  -31.9650  -14.8090   19.0380 O   0  0  0  0  0  0  0  0  0  0  0  0
  -29.7100  -16.9800   22.4010 C   0  0  0  0  0  2  0  0  0  0  0  0
  -30.0250  -18.3760   21.8400 C   0  0  0  0  0  2  0  0  0  0  0  0
  -30.5510  -15.8770   21.7300 C   0  0  0  0  0  2  0  0  0  0  0  0
  -30.4930  -17.1760   19.6500 C   0  0  0  0  0  2  0  0  0  0  0  0
  -29.7460  -18.4220   20.3330 C   0  0  0  0  0  3  0  0  0  0  0  0
  -30.3430  -15.7970   20.2750 N   0  0  0  0  0  0  0  0  0  0  0  0
  -25.5440  -13.8950   20.4740 C   0  0  0  0  0  0  0  0  0  0  0  0
  -24.5160  -13.1060   20.9120 C   0  0  0  0  0  0  0  0  0  0  0  0
  -24.9230  -11.7580   20.6770 C   0  0  0  0  0  0  0  0  0  0  0  0
  -26.5120  -13.0250   19.9970 N   0  0  0  0  0  0  0  0  0  0  0  0
  -26.1530  -11.7280   20.1800 N   0  0  0  0  0  0  0  0  0  0  0  0
  -24.1890  -10.4950   20.8430 C   0  0  0  0  0  0  0  0  0  0  0  0
  -24.6980   -9.4420   21.6320 C   0  0  0  0  0  3  0  0  0  0  0  0
  -23.9650   -8.2450   21.7900 C   0  0  0  0  0  3  0  0  0  0  0  0
  -22.7080   -8.0960   21.1570 C   0  0  0  0  0  0  0  0  0  0  0  0
  -22.2160   -9.1390   20.3540 C   0  0  0  0  0  3  0  0  0  0  0  0
  -22.9500  -10.3270   20.1950 C   0  0  0  0  0  3  0  0  0  0  0  0
  -21.9350   -6.9620   21.2340 O   0  0  0  0  0  0  0  0  0  0  0  0
  -21.9690   -6.1420   22.3330 C   0  0  0  0  0  0  0  0  0  0  0  0
  -21.6860   -6.6220   23.6310 C   0  0  0  0  0  3  0  0  0  0  0  0
  -21.6630   -5.7300   24.7220 C   0  0  0  0  0  3  0  0  0  0  0  0
  -21.9120   -4.3600   24.5180 C   0  0  0  0  0  0  0  0  0  0  0  0
  -22.1860   -3.8790   23.2250 C   0  0  0  0  0  3  0  0  0  0  0  0
  -22.2120   -4.7680   22.1360 C   0  0  0  0  0  0  0  0  0  0  0  0
  -22.4570   -4.2960   20.8900 F   0  0  0  0  0  0  0  0  0  0  0  0
  -21.8820   -3.5010   25.5630 F   0  0  0  0  0  0  0  0  0  0  0  0
  -23.1890  -13.5800   21.4330 C   0  0  0  0  0  0  0  0  0  0  0  0
  -22.5750  -12.8190   22.3320 N   0  0  0  0  0  0  0  0  0  0  0  0
  -22.7110  -14.6570   21.0790 O   0  0  0  0  0  0  0  0  0  0  0  0
  -22.9780  -11.9460   22.6420 H   0  0  0  0  0  0  0  0  0  0  0  0
  -21.6910  -13.1150   22.7200 H   0  0  0  0  0  0  0  0  0  0  0  0
  -25.7300  -15.2720   20.4170 N   0  0  0  0  0  0  0  0  0  0  0  0
  -25.0210  -15.9310   20.7170 H   0  0  0  0  0  0  0  0  0  0  0  0
  -26.5570  -15.7240   20.0460 H   0  0  0  0  0  0  0  0  0  0  0  0
  -27.1140  -25.1450   21.9580 C   0  0  0  0  0  1  0  0  0  0  0  0
  -28.4090  -25.2480   21.1190 C   0  0  0  0  0  3  0  0  0  0  0  0
  -28.4490  -26.4290   20.2110 O   0  0  0  0  0  0  0  0  0  0  0  0
  -24.6090  -31.7970   23.1860 C   0  0  0  0  0  0  0  0  0  0  0  0
  -27.3470  -27.2960   20.1700 C   0  0  0  0  0  0  0  0  0  0  0  0
  -23.4590  -30.3880   21.5160 C   0  0  0  0  0  3  0  0  0  0  0  0
  -24.9630  -28.8650   20.1110 C   0  0  0  0  0  0  0  0  0  0  0  0
  -25.9940  -30.7460   21.3860 C   0  0  0  0  0  2  0  0  0  0  0  0
  -26.1100  -29.3710   20.7370 C   0  0  0  0  0  0  0  0  0  0  0  0
  -27.3080  -28.5960   20.7610 C   0  0  0  0  0  3  0  0  0  0  0  0
  -26.1870  -26.8450   19.5090 C   0  0  0  0  0  3  0  0  0  0  0  0
  -25.0030  -27.6080   19.4870 C   0  0  0  0  0  3  0  0  0  0  0  0
  -23.7110  -29.7210   20.1380 C   0  0  0  0  0  2  0  0  0  0  0  0
  -24.7050  -30.9940   22.0870 N   0  0  0  0  0  0  0  0  0  0  0  0
  -23.5120  -32.0560   23.7020 O   0  0  0  0  0  0  0  0  0  0  0  0
  -22.7910  -29.3590   22.4590 C   0  0  0  0  0  0  0  0  0  0  0  0
  -21.4680  -29.1760   22.3170 N   0  0  0  0  0  0  0  0  0  0  0  0
  -23.4650  -28.7280   23.2780 O   0  0  0  0  0  0  0  0  0  0  0  0
  -20.9830  -29.7380   21.6330 H   0  0  0  0  0  0  0  0  0  0  0  0
  -18.0940  -27.9510   22.7600 C   0  0  0  0  0  0  0  0  0  0  0  0
  -20.6450  -28.2260   23.0690 C   0  0  0  0  0  3  0  0  0  0  0  0
  -20.7680  -26.8000   22.4850 C   0  0  0  0  0  2  0  0  0  0  0  0
  -19.6830  -26.4760   21.4540 C   0  0  0  0  0  2  0  0  0  0  0  0
  -18.2910  -26.6080   22.0780 C   0  0  0  0  0  2  0  0  0  0  0  0
  -19.2000  -28.7180   23.2120 C   0  0  0  0  0  0  0  0  0  0  0  0
  -18.9630  -29.9740   23.8100 C   0  0  0  0  0  3  0  0  0  0  0  0
  -17.6520  -30.4650   23.9600 C   0  0  0  0  0  3  0  0  0  0  0  0
  -16.5600  -29.6950   23.5260 C   0  0  0  0  0  3  0  0  0  0  0  0
  -16.7810  -28.4390   22.9310 C   0  0  0  0  0  3  0  0  0  0  0  0
  -25.8710  -32.4440   23.8360 C   0  0  0  0  0  3  0  0  0  0  0  0
  -25.5380  -33.8380   24.1620 N   0  0  0  0  0  0  0  0  0  0  0  0
  -25.8670  -34.8970   23.4090 C   0  0  0  0  0  0  0  0  0  0  0  0
  -26.5510  -34.8020   22.3860 O   0  0  0  0  0  0  0  0  0  0  0  0
  -24.9310  -33.9820   24.9550 H   0  0  0  0  0  0  0  0  0  0  0  0
  -24.1150  -36.6620   23.0350 C   0  0  0  0  0  1  0  0  0  0  0  0
  -25.3550  -36.2790   23.8580 C   0  0  0  0  0  3  0  0  0  0  0  0
  -27.4710  -37.1950   24.7030 C   0  0  0  0  0  1  0  0  0  0  0  0
  -26.3740  -37.3470   23.7510 N   0  0  0  0  0  0  0  0  0  0  0  0
  -25.9530  -38.2610   23.8960 H   0  0  0  0  0  0  0  0  0  0  0  0
  -26.3680  -31.6770   25.1230 C   0  0  1  0  0  0  0  0  0  0  0  0
  -25.2540  -31.4280   26.1670 C   0  0  0  0  0  1  0  0  0  0  0  0
  -26.9720  -30.3050   24.7430 C   0  0  0  0  0  1  0  0  0  0  0  0
  -27.4970  -32.4820   25.8080 C   0  0  0  0  0  1  0  0  0  0  0  0
  1  4  1  0
  2  1  2  0
  2  5  1  0
  4 52  1  0
  4  3  2  0
  5  6  2  0
  6  3  1  0
  7  5  1  0
  8  7  1  0
  9 22  1  0
 10 15  1  0
 11 12  1  0
 11 10  1  0
 13 12  1  0
 13 26  1  0
 13 14  1  0
 15  9  1  0
 15 14  1  0
 16  9  2  0
 18 17  1  0
 19 17  1  0
 20 22  1  0
 20 21  1  0
 21  7  1  0
 21 18  1  0
 22 19  1  0
 23 24  2  0
 24 43  1  0
 25 28  1  0
 25 24  1  0
 26 27  1  0
 26 23  1  0
 27 25  2  0
 28 29  1  0
 29 30  2  0
 31 34  1  0
 31 30  1  0
 32 31  2  0
 33 32  1  0
 33 28  2  0
 34 35  1  0
 35 36  1  0
 36 37  2  0
 38 37  1  0
 38 42  1  0
 39 38  2  0
 40 35  2  0
 40 39  1  0
 41 40  1  0
 43 44  1  0
 44 46  1  0
 44 47  1  0
 45 43  2  0
 48 23  1  0
 48 49  1  0
 50 48  1  0
 52 51  1  0
 53 52  1  0
 54 65  2  0
 55 53  1  0
 55 60  1  0
 56 64  1  0
 56 66  1  0
 57 63  1  0
 57 59  1  0
 58 64  1  0
 59 60  2  0
 59 58  1  0
 61 55  2  0
 62 61  1  0
 62 57  2  0
 63 56  1  0
 64 54  1  0
 66 68  2  0
 67 66  1  0
 69 67  1  0
 70 79  2  0
 70 75  1  0
 71 67  1  0
 71 75  1  0
 72 71  1  0
 73 74  1  0
 73 72  1  0
 74 70  1  0
 75 76  2  0
 76 77  1  0
 78 77  2  0
 79 78  1  0
 80 54  1  0
 80 81  1  0
 80 90  1  0
 81 84  1  0
 82 86  1  0
 82 81  1  0
 83 82  2  0
 86 85  1  0
 88 86  1  0
 88 89  1  0
 88 87  1  0
 90 93  1  1
 90 91  1  0
 92 90  1  0
M  ISO  4   9 100  22 100  52 101  53 101
M  END
>  <TORSDO>  (12) 
F 17

>  <SCORE>  (12) 
-12.827

>  <name>  (12) 
11

>  <ligand_id>  (12) 
11

>  <original_smiles>  (12) 
[H]c1nc(N([H])C2([H])C([H])([H])N(C(=O)N3C([H])([H])C([H])([H])C([H])([H])C([H])(n4nc(-c5c([H])c([H])c(Oc6c([H])c([H])c(F)c([H])c6F)c([H])c5[H])c(C(=O)N([H])[H])c4N([H])[H])C3([H])[H])C([H])([H])C([H])([H])C2([H])[H])c([H])c([H])c1C([H])(Oc1c([H])c([H])c2c(c1[H])C([H])([H])N(C(=O)C([H])(N([H])C(=O)C([H])(N([H])C([H])([H])[H])C([H])([H])[H])C(C([H])([H])[H])(C([H])([H])[H])C([H])([H])[H])C([H])(C(=O)N([H])C1([H])c3c([H])c([H])c([H])c([H])c3C([H])([H])C([H])([H])C1([H])[H])C2([H])[H])C([H])([H])[H]

>  <smiles>  (12) 
[H]c1nc(N([H])C2([H])C([H])([H])N(C(=O)N3C([H])([H])C([H])([H])C([H])([H])C([H])(n4nc(-c5c([H])c([H])c(Oc6c([H])c([H])c(F)c([H])c6F)c([H])c5[H])c(C(=O)N([H])[H])c4N([H])[H])C3([H])[H])C([H])([H])C([H])([H])C2([H])[H])c([H])c([H])c1C([H])(Oc1c([H])c([H])c2c(c1[H])C([H])([H])N(C(=O)C([H])(N([H])C(=O)C([H])(N([H])C([H])([H])[H])C([H])([H])[H])C(C([H])([H])[H])(C([H])([H])[H])C([H])([H])[H])C([H])(C(=O)N([H])C1([H])c3c([H])c([H])c([H])c([H])c3C([H])([H])C([H])([H])C1([H])[H])C2([H])[H])C([H])([H])[H]

$$$$
12:0:0
     RDKit          3D

 96104  0  0  1  0  0  0  0  0999 V2000
  -31.4150  -20.4040   23.7760 C   0  0  0  0  0  3  0  0  0  0  0  0
  -31.7110  -19.5150   22.7100 C   0  0  0  0  0  3  0  0  0  0  0  0
  -30.5670  -21.3530   23.2860 C   0  0  0  0  0  3  0  0  0  0  0  0
  -31.0090  -19.9150   21.6020 C   0  0  0  0  0  0  0  0  0  0  0  0
  -30.3420  -21.1060   21.9380 N   0  0  0  0  0  0  0  0  0  0  0  0
  -28.0640  -21.3430   21.0360 C   0  0  0  0  0  1  0  0  0  0  0  0
  -29.4810  -21.9380   21.0740 C   0  0  0  0  0  3  0  0  0  0  0  0
  -29.4630  -23.4320   21.5170 C   0  0  0  0  0  2  0  0  0  0  0  0
  -28.8840  -24.4530   20.5030 C   0  0  0  0  0  2  0  0  0  0  0  0
  -28.7510  -25.8770   21.0980 C   0  0  0  0  0  2  0  0  0  0  0  0
  -28.5550  -26.8690   20.0870 O   0  0  0  0  0  0  0  0  0  0  0  0
  -24.6670  -31.9570   23.2520 C   0  0  0  0  0  0  0  0  0  0  0  0
  -27.3760  -27.5720   20.1550 C   0  0  0  0  0  0  0  0  0  0  0  0
  -23.4780  -30.5400   21.6080 C   0  0  0  0  0  3  0  0  0  0  0  0
  -24.9540  -29.0240   20.1810 C   0  0  0  0  0  0  0  0  0  0  0  0
  -25.9950  -30.9420   21.4010 C   0  0  0  0  0  2  0  0  0  0  0  0
  -26.1040  -29.5710   20.7660 C   0  0  0  0  0  0  0  0  0  0  0  0
  -27.3200  -28.8510   20.7520 C   0  0  0  0  0  3  0  0  0  0  0  0
  -26.2140  -27.0320   19.5690 C   0  0  0  0  0  3  0  0  0  0  0  0
  -25.0030  -27.7510   19.5800 C   0  0  0  0  0  3  0  0  0  0  0  0
  -23.6960  -29.8630   20.2270 C   0  0  0  0  0  2  0  0  0  0  0  0
  -24.7320  -31.1610   22.1460 N   0  0  0  0  0  0  0  0  0  0  0  0
  -23.5840  -32.2090   23.7960 O   0  0  0  0  0  0  0  0  0  0  0  0
  -22.8440  -29.5090   22.5690 C   0  0  0  0  0  0  0  0  0  0  0  0
  -21.5210  -29.3120   22.4480 N   0  0  0  0  0  0  0  0  0  0  0  0
  -23.5400  -28.8870   23.3760 O   0  0  0  0  0  0  0  0  0  0  0  0
  -21.0210  -29.8690   21.7690 H   0  0  0  0  0  0  0  0  0  0  0  0
  -18.1640  -28.0730   22.9530 C   0  0  0  0  0  0  0  0  0  0  0  0
  -20.7190  -28.3610   23.2170 C   0  0  0  0  0  3  0  0  0  0  0  0
  -20.8380  -26.9330   22.6350 C   0  0  0  0  0  2  0  0  0  0  0  0
  -19.7360  -26.6020   21.6230 C   0  0  0  0  0  2  0  0  0  0  0  0
  -18.3550  -26.7280   22.2730 C   0  0  0  0  0  2  0  0  0  0  0  0
  -19.2750  -28.8470   23.3820 C   0  0  0  0  0  0  0  0  0  0  0  0
  -19.0430  -30.1050   23.9770 C   0  0  0  0  0  3  0  0  0  0  0  0
  -17.7330  -30.5920   24.1480 C   0  0  0  0  0  3  0  0  0  0  0  0
  -16.6370  -29.8150   23.7350 C   0  0  0  0  0  3  0  0  0  0  0  0
  -16.8530  -28.5580   23.1440 C   0  0  0  0  0  3  0  0  0  0  0  0
  -25.9470  -32.6040   23.8690 C   0  0  0  0  0  3  0  0  0  0  0  0
  -26.4800  -31.8370   25.1410 C   0  0  1  0  0  0  0  0  0  0  0  0
  -25.3950  -31.5810   26.2130 C   0  0  0  0  0  1  0  0  0  0  0  0
  -27.0800  -30.4690   24.7400 C   0  0  0  0  0  1  0  0  0  0  0  0
  -27.6240  -32.6450   25.7980 C   0  0  0  0  0  1  0  0  0  0  0  0
  -25.6210  -33.9980   24.2000 N   0  0  0  0  0  0  0  0  0  0  0  0
  -25.9370  -35.0530   23.4390 C   0  0  0  0  0  0  0  0  0  0  0  0
  -26.6070  -34.9570   22.4060 O   0  0  0  0  0  0  0  0  0  0  0  0
  -25.0260  -34.1450   25.0030 H   0  0  0  0  0  0  0  0  0  0  0  0
  -24.1810  -36.8190   23.0900 C   0  0  0  0  0  1  0  0  0  0  0  0
  -25.4330  -36.4360   23.8950 C   0  0  0  0  0  3  0  0  0  0  0  0
  -27.5620  -37.3510   24.7070 C   0  0  0  0  0  1  0  0  0  0  0  0
  -26.4510  -37.5020   23.7720 N   0  0  0  0  0  0  0  0  0  0  0  0
  -26.0330  -38.4160   23.9220 H   0  0  0  0  0  0  0  0  0  0  0  0
  -30.9540  -19.2580   20.2400 C   0  0  0  0  0  3  0  0  0  0  0  0
  -31.9750  -19.8610   19.3700 N   0  0  0  0  0  4  0  0  0  0  0  0
  -32.8920  -19.6920   19.7420 H   0  0  0  0  0  0  0  0  0  0  0  0
  -31.8410  -20.8530   19.3140 H   0  0  0  0  0  0  0  0  0  0  0  0
  -31.9240  -19.4780   18.4430 H   0  0  0  0  0  0  0  0  0  0  0  0
  -31.1000  -17.7030   20.2490 C   0  0  0  0  0  3  0  0  0  0  0  0
  -30.2200  -16.9560   21.2860 C   0  0  0  0  0  3  0  0  0  0  0  0
  -30.7260  -14.5560   20.4930 C   0  0  0  0  0  0  0  0  0  0  0  0
  -30.4570  -12.4140   19.2970 C   0  0  0  0  0  2  0  0  0  0  0  0
  -29.5220  -12.6330   18.0890 C   0  0  0  0  0  2  0  0  0  0  0  0
  -28.0400  -12.5040   18.5010 C   0  0  0  0  0  2  0  0  0  0  0  0
  -27.6970  -13.3250   19.7720 C   0  0  0  0  0  3  0  0  0  0  0  0
  -28.7380  -13.0620   20.8830 C   0  0  0  0  0  2  0  0  0  0  0  0
  -30.0710  -13.3760   20.3360 N   0  0  0  0  0  0  0  0  0  0  0  0
  -31.8530  -14.7730   20.0390 O   0  0  0  0  0  0  0  0  0  0  0  0
  -29.9760  -15.5220   21.0510 N   0  0  0  0  0  0  0  0  0  0  0  0
  -29.0650  -15.1980   21.3430 H   0  0  0  0  0  0  0  0  0  0  0  0
  -25.2840  -13.9460   20.4290 C   0  0  0  0  0  0  0  0  0  0  0  0
  -24.2120  -13.1790   20.7950 C   0  0  0  0  0  0  0  0  0  0  0  0
  -24.6740  -11.8270   20.7940 C   0  0  0  0  0  0  0  0  0  0  0  0
  -26.3350  -13.0610   20.2310 N   0  0  0  0  0  0  0  0  0  0  0  0
  -25.9690  -11.7830   20.5060 N   0  0  0  0  0  0  0  0  0  0  0  0
  -23.9470  -10.5670   20.9940 C   0  0  0  0  0  0  0  0  0  0  0  0
  -24.3800   -9.6050   21.9320 C   0  0  0  0  0  3  0  0  0  0  0  0
  -23.6540   -8.4080   22.1180 C   0  0  0  0  0  3  0  0  0  0  0  0
  -22.4800   -8.1670   21.3650 C   0  0  0  0  0  0  0  0  0  0  0  0
  -22.0670   -9.1190   20.4170 C   0  0  0  0  0  3  0  0  0  0  0  0
  -22.7940  -10.3060   20.2280 C   0  0  0  0  0  3  0  0  0  0  0  0
  -21.7240   -7.0240   21.4610 O   0  0  0  0  0  0  0  0  0  0  0  0
  -21.6900   -6.2770   22.6120 C   0  0  0  0  0  0  0  0  0  0  0  0
  -21.3010   -6.8350   23.8490 C   0  0  0  0  0  3  0  0  0  0  0  0
  -21.2130   -6.0160   24.9930 C   0  0  0  0  0  3  0  0  0  0  0  0
  -21.5030   -4.6420   24.9000 C   0  0  0  0  0  0  0  0  0  0  0  0
  -21.8860   -4.0840   23.6670 C   0  0  0  0  0  3  0  0  0  0  0  0
  -21.9760   -4.9000   22.5260 C   0  0  0  0  0  0  0  0  0  0  0  0
  -22.3250   -4.3540   21.3360 F   0  0  0  0  0  0  0  0  0  0  0  0
  -21.4110   -3.8530   25.9960 F   0  0  0  0  0  0  0  0  0  0  0  0
  -22.8090  -13.6580   21.0380 C   0  0  0  0  0  0  0  0  0  0  0  0
  -22.0710  -12.9760   21.9060 N   0  0  0  0  0  0  0  0  0  0  0  0
  -22.3770  -14.6730   20.4940 O   0  0  0  0  0  0  0  0  0  0  0  0
  -22.4320  -12.1540   22.3670 H   0  0  0  0  0  0  0  0  0  0  0  0
  -21.1300  -13.2800   22.1120 H   0  0  0  0  0  0  0  0  0  0  0  0
  -25.4510  -15.3130   20.2310 N   0  0  0  0  0  0  0  0  0  0  0  0
  -24.6800  -15.9670   20.3130 H   0  0  0  0  0  0  0  0  0  0  0  0
  -26.3030  -15.7460   19.8970 H   0  0  0  0  0  0  0  0  0  0  0  0
  2  1  1  0
  3  1  2  0
  4  5  1  0
  4  2  2  0
  5  3  1  0
  7  6  1  0
  7  8  1  0
  7  5  1  0
  9 10  1  0
  9  8  1  0
 11 13  1  0
 11 10  1  0
 12 23  2  0
 13 18  1  0
 14 22  1  0
 14 24  1  0
 15 21  1  0
 15 17  1  0
 16 22  1  0
 17 16  1  0
 18 17  2  0
 19 20  1  0
 19 13  2  0
 20 15  2  0
 21 14  1  0
 22 12  1  0
 24 26  2  0
 25 24  1  0
 27 25  1  0
 28 37  2  0
 28 33  1  0
 29 25  1  0
 29 33  1  0
 30 29  1  0
 31 32  1  0
 31 30  1  0
 32 28  1  0
 33 34  2  0
 34 35  1  0
 36 35  2  0
 37 36  1  0
 38 12  1  0
 38 43  1  0
 38 39  1  0
 39 42  1  1
 39 40  1  0
 41 39  1  0
 43 46  1  0
 44 48  1  0
 44 43  1  0
 45 44  2  0
 48 47  1  0
 50 48  1  0
 50 51  1  0
 50 49  1  0
 52 57  1  0
 52  4  1  0
 53 54  1  0
 53 52  1  0
 55 53  1  0
 56 53  1  0
 57 58  2  0
 59 67  1  0
 60 65  1  0
 61 62  1  0
 61 60  1  0
 63 62  1  0
 63 72  1  0
 63 64  1  0
 65 59  1  0
 65 64  1  0
 66 59  2  0
 67 58  1  0
 67 68  1  0
 69 70  2  0
 70 89  1  0
 71 70  1  0
 71 74  1  0
 72 69  1  0
 72 73  1  0
 73 71  2  0
 74 75  1  0
 75 76  2  0
 77 80  1  0
 77 76  1  0
 78 77  2  0
 79 78  1  0
 79 74  2  0
 80 81  1  0
 81 82  1  0
 82 83  2  0
 84 83  1  0
 84 88  1  0
 85 84  2  0
 86 81  2  0
 86 85  1  0
 87 86  1  0
 89 90  1  0
 90 93  1  0
 90 92  1  0
 91 89  2  0
 94 95  1  0
 94 69  1  0
 96 94  1  0
M  ISO  4  10 101  11 101  59 100  67 100
M  END
>  <TORSDO>  (13) 
F 24

>  <SCORE>  (13) 
-13.153

>  <name>  (13) 
12

>  <ligand_id>  (13) 
12

>  <original_smiles>  (13) 
[H]c1c([H])c([H])c2c(c1[H])C([H])([H])C([H])([H])C([H])([H])C2([H])N([H])C(=O)C1([H])N(C(=O)C([H])(N([H])C(=O)C([H])(N([H])C([H])([H])[H])C([H])([H])[H])C(C([H])([H])[H])(C([H])([H])[H])C([H])([H])[H])C([H])([H])c2c([H])c(OC([H])([H])C([H])([H])C([H])([H])C([H])(n3c([H])c([H])c([H])c3C([H])(C([H])([H])C([H])([H])N([H])C(=O)N3C([H])([H])C([H])([H])C([H])([H])C([H])(n4nc(-c5c([H])c([H])c(Oc6c([H])c([H])c(F)c([H])c6F)c([H])c5[H])c(C(=O)N([H])[H])c4N([H])[H])C3([H])[H])[N+]([H])([H])[H])C([H])([H])[H])c([H])c([H])c2C1([H])[H]

>  <smiles>  (13) 
[H]c1c([H])c([H])c2c(c1[H])C([H])([H])C([H])([H])C([H])([H])C2([H])N([H])C(=O)C1([H])N(C(=O)C([H])(N([H])C(=O)C([H])(N([H])C([H])([H])[H])C([H])([H])[H])C(C([H])([H])[H])(C([H])([H])[H])C([H])([H])[H])C([H])([H])c2c([H])c(OC([H])([H])C([H])([H])C([H])([H])C([H])(n3c([H])c([H])c([H])c3C([H])(C([H])([H])C([H])([H])N([H])C(=O)N3C([H])([H])C([H])([H])C([H])([H])C([H])(n4nc(-c5c([H])c([H])c(Oc6c([H])c([H])c(F)c([H])c6F)c([H])c5[H])c(C(=O)N([H])[H])c4N([H])[H])C3([H])[H])[N+]([H])([H])[H])C([H])([H])[H])c([H])c([H])c2C1([H])[H]

$$$$
13:0:0
     RDKit          3D

 97105  0  0  1  0  0  0  0  0999 V2000
  -30.1800  -21.6830   20.6370 C   0  0  0  0  0  3  0  0  0  0  0  0
  -28.3880  -19.9510   19.6140 C   0  0  0  0  0  3  0  0  0  0  0  0
  -30.4850  -20.2710   20.6460 C   0  0  0  0  0  0  0  0  0  0  0  0
  -29.5770  -19.2980   20.1070 C   0  0  0  0  0  0  0  0  0  0  0  0
  -29.0010  -22.2550   20.0630 C   0  0  0  0  0  0  0  0  0  0  0  0
  -28.1260  -21.3200   19.5690 N   0  0  0  0  0  0  0  0  0  0  0  0
  -31.8890  -19.8860   21.1100 C   0  0  0  0  0  2  0  0  0  0  0  0
  -31.4970  -21.1970   23.3080 C   0  0  0  0  0  1  0  0  0  0  0  0
  -32.1160  -19.9510   22.6390 C   0  0  0  0  0  3  0  0  0  0  0  0
  -33.5580  -19.8650   22.9520 N   0  0  0  0  0  4  0  0  0  0  0  0
  -34.0700  -20.6380   22.5660 H   0  0  0  0  0  0  0  0  0  0  0  0
  -33.9470  -19.0130   22.5870 H   0  0  0  0  0  0  0  0  0  0  0  0
  -33.7000  -19.8680   23.9470 H   0  0  0  0  0  0  0  0  0  0  0  0
  -29.9790  -17.7450   19.7230 C   0  0  0  0  0  2  0  0  0  0  0  0
  -30.5820  -15.2280   20.4000 C   0  0  0  0  0  0  0  0  0  0  0  0
  -30.5300  -12.8510   19.5750 C   0  0  0  0  0  2  0  0  0  0  0  0
  -29.6310  -12.7710   18.3210 C   0  0  0  0  0  2  0  0  0  0  0  0
  -28.1590  -12.5490   18.7230 C   0  0  0  0  0  2  0  0  0  0  0  0
  -27.7060  -13.4840   19.8770 C   0  0  0  0  0  3  0  0  0  0  0  0
  -28.7400  -13.5510   21.0250 C   0  0  0  0  0  2  0  0  0  0  0  0
  -30.0170  -13.9570   20.4270 N   0  0  0  0  0  0  0  0  0  0  0  0
  -31.7730  -15.3250   20.0910 O   0  0  0  0  0  0  0  0  0  0  0  0
  -29.7780  -16.3880   20.4720 N   0  0  0  0  0  0  0  0  0  0  0  0
  -28.8370  -16.2100   20.7870 H   0  0  0  0  0  0  0  0  0  0  0  0
  -25.3020  -13.9970   20.6030 C   0  0  0  0  0  0  0  0  0  0  0  0
  -24.2560  -13.1940   20.9600 C   0  0  0  0  0  0  0  0  0  0  0  0
  -24.7520  -11.8550   20.9120 C   0  0  0  0  0  0  0  0  0  0  0  0
  -26.3700  -13.1500   20.3580 N   0  0  0  0  0  0  0  0  0  0  0  0
  -26.0460  -11.8530   20.6110 N   0  0  0  0  0  0  0  0  0  0  0  0
  -24.0540  -10.5740   21.0790 C   0  0  0  0  0  0  0  0  0  0  0  0
  -24.4800   -9.6200   22.0290 C   0  0  0  0  0  3  0  0  0  0  0  0
  -23.7820   -8.4030   22.1880 C   0  0  0  0  0  3  0  0  0  0  0  0
  -22.6380   -8.1340   21.3980 C   0  0  0  0  0  0  0  0  0  0  0  0
  -22.2300   -9.0790   20.4410 C   0  0  0  0  0  3  0  0  0  0  0  0
  -22.9290  -10.2870   20.2790 C   0  0  0  0  0  3  0  0  0  0  0  0
  -21.9100   -6.9700   21.4670 O   0  0  0  0  0  0  0  0  0  0  0  0
  -21.8310   -6.2380   22.6250 C   0  0  0  0  0  0  0  0  0  0  0  0
  -21.2960   -6.7790   23.8150 C   0  0  0  0  0  3  0  0  0  0  0  0
  -21.1700   -5.9680   24.9610 C   0  0  0  0  0  3  0  0  0  0  0  0
  -21.5640   -4.6180   24.9170 C   0  0  0  0  0  0  0  0  0  0  0  0
  -22.0880   -4.0760   23.7310 C   0  0  0  0  0  3  0  0  0  0  0  0
  -22.2190   -4.8840   22.5880 C   0  0  0  0  0  0  0  0  0  0  0  0
  -22.7030   -4.3490   21.4420 F   0  0  0  0  0  0  0  0  0  0  0  0
  -21.4340   -3.8370   26.0160 F   0  0  0  0  0  0  0  0  0  0  0  0
  -22.8460  -13.6350   21.2210 C   0  0  0  0  0  0  0  0  0  0  0  0
  -22.1270  -12.9140   22.0740 N   0  0  0  0  0  0  0  0  0  0  0  0
  -22.3900  -14.6540   20.7080 O   0  0  0  0  0  0  0  0  0  0  0  0
  -22.5050  -12.0900   22.5150 H   0  0  0  0  0  0  0  0  0  0  0  0
  -21.1840  -13.2000   22.2920 H   0  0  0  0  0  0  0  0  0  0  0  0
  -25.4320  -15.3750   20.4400 N   0  0  0  0  0  0  0  0  0  0  0  0
  -24.6440  -16.0020   20.5650 H   0  0  0  0  0  0  0  0  0  0  0  0
  -26.2600  -15.8450   20.1010 H   0  0  0  0  0  0  0  0  0  0  0  0
  -28.9180  -23.8660   19.6980 C   0  0  0  0  0  3  0  0  0  0  0  0
  -30.1650  -24.4810   19.9910 O   0  0  0  0  0  0  0  0  0  0  0  0
  -30.2670  -24.4370   20.9340 H   0  0  0  0  0  0  0  0  0  0  0  0
  -27.8480  -25.0080   20.2430 C   0  0  0  0  0  2  0  0  0  0  0  0
  -28.0930  -26.5290   20.0670 O   0  0  0  0  0  0  0  0  0  0  0  0
  -24.6190  -32.0730   23.4280 C   0  0  0  0  0  0  0  0  0  0  0  0
  -27.0340  -27.4910   20.1170 C   0  0  0  0  0  0  0  0  0  0  0  0
  -23.3540  -30.7770   21.7580 C   0  0  0  0  0  3  0  0  0  0  0  0
  -24.7350  -29.2450   20.2320 C   0  0  0  0  0  0  0  0  0  0  0  0
  -25.9070  -31.0140   21.5410 C   0  0  0  0  0  2  0  0  0  0  0  0
  -25.9360  -29.6550   20.8240 C   0  0  0  0  0  0  0  0  0  0  0  0
  -27.0910  -28.7950   20.7460 C   0  0  0  0  0  3  0  0  0  0  0  0
  -25.8080  -27.1790   19.4890 C   0  0  0  0  0  3  0  0  0  0  0  0
  -24.6810  -28.0210   19.5500 C   0  0  0  0  0  3  0  0  0  0  0  0
  -23.5290  -30.1600   20.3460 C   0  0  0  0  0  2  0  0  0  0  0  0
  -24.6480  -31.3060   22.2970 N   0  0  0  0  0  0  0  0  0  0  0  0
  -23.5510  -32.3530   23.9940 O   0  0  0  0  0  0  0  0  0  0  0  0
  -22.6780  -29.7380   22.6870 C   0  0  0  0  0  0  0  0  0  0  0  0
  -21.3520  -29.5550   22.5410 N   0  0  0  0  0  0  0  0  0  0  0  0
  -23.3480  -29.1000   23.5020 O   0  0  0  0  0  0  0  0  0  0  0  0
  -20.8670  -30.1280   21.8650 H   0  0  0  0  0  0  0  0  0  0  0  0
  -17.9910  -28.2570   22.9290 C   0  0  0  0  0  0  0  0  0  0  0  0
  -20.5330  -28.5910   23.2810 C   0  0  0  0  0  3  0  0  0  0  0  0
  -20.6910  -27.1640   22.7060 C   0  0  0  0  0  2  0  0  0  0  0  0
  -19.6330  -26.8140   21.6550 C   0  0  0  0  0  2  0  0  0  0  0  0
  -18.2270  -26.9160   22.2530 C   0  0  0  0  0  2  0  0  0  0  0  0
  -19.0740  -29.0490   23.3970 C   0  0  0  0  0  0  0  0  0  0  0  0
  -18.7970  -30.3010   23.9870 C   0  0  0  0  0  3  0  0  0  0  0  0
  -17.4740  -30.7650   24.1110 C   0  0  0  0  0  3  0  0  0  0  0  0
  -16.4060  -29.9700   23.6580 C   0  0  0  0  0  3  0  0  0  0  0  0
  -16.6660  -28.7170   23.0740 C   0  0  0  0  0  3  0  0  0  0  0  0
  -25.9220  -32.6540   24.0550 C   0  0  0  0  0  3  0  0  0  0  0  0
  -25.6600  -34.0580   24.4120 N   0  0  0  0  0  0  0  0  0  0  0  0
  -26.0390  -35.1140   23.6800 C   0  0  0  0  0  0  0  0  0  0  0  0
  -26.7140  -35.0060   22.6530 O   0  0  0  0  0  0  0  0  0  0  0  0
  -25.0620  -34.2180   25.2080 H   0  0  0  0  0  0  0  0  0  0  0  0
  -24.3900  -36.9870   23.3570 C   0  0  0  0  0  1  0  0  0  0  0  0
  -25.6050  -36.5120   24.1680 C   0  0  0  0  0  3  0  0  0  0  0  0
  -27.7650  -37.2920   25.0370 C   0  0  0  0  0  1  0  0  0  0  0  0
  -26.6790  -37.5260   24.0880 N   0  0  0  0  0  0  0  0  0  0  0  0
  -26.3080  -38.4580   24.2560 H   0  0  0  0  0  0  0  0  0  0  0  0
  -26.4160  -31.8490   25.3200 C   0  0  1  0  0  0  0  0  0  0  0  0
  -25.3150  -31.6220   26.3840 C   0  0  0  0  0  1  0  0  0  0  0  0
  -26.9660  -30.4630   24.9090 C   0  0  0  0  0  1  0  0  0  0  0  0
  -27.5880  -32.6000   25.9930 C   0  0  0  0  0  1  0  0  0  0  0  0
  1  3  1  0
  2  4  1  0
  3  7  1  0
  4  3  2  0
  5  1  2  0
  6  2  2  0
  6  5  1  0
  7  9  1  0
  9 10  1  0
  9  8  1  0
 10 13  1  0
 11 10  1  0
 12 10  1  0
 14  4  1  0
 14 23  1  0
 15 21  1  0
 15 23  1  0
 16 21  1  0
 17 18  1  0
 17 16  1  0
 19 18  1  0
 19 28  1  0
 19 20  1  0
 21 20  1  0
 22 15  2  0
 23 24  1  0
 25 26  2  0
 26 45  1  0
 27 26  1  0
 27 30  1  0
 28 25  1  0
 28 29  1  0
 29 27  2  0
 30 31  1  0
 31 32  2  0
 33 36  1  0
 33 32  1  0
 34 33  2  0
 35 34  1  0
 35 30  2  0
 36 37  1  0
 37 38  1  0
 38 39  2  0
 40 39  1  0
 40 44  1  0
 41 40  2  0
 42 37  2  0
 42 41  1  0
 43 42  1  0
 45 46  1  0
 46 49  1  0
 46 48  1  0
 47 45  2  0
 50 51  1  0
 50 25  1  0
 52 50  1  0
 53 54  1  0
 53  5  1  0
 53 56  1  0
 54 55  1  0
 57 59  1  0
 57 56  1  0
 58 69  2  0
 59 64  1  0
 60 68  1  0
 60 70  1  0
 61 67  1  0
 61 63  1  0
 62 68  1  0
 63 62  1  0
 64 63  2  0
 65 66  1  0
 65 59  2  0
 66 61  2  0
 67 60  1  0
 68 58  1  0
 70 72  2  0
 71 70  1  0
 73 71  1  0
 74 83  2  0
 74 79  1  0
 75 71  1  0
 75 79  1  0
 76 75  1  0
 77 78  1  0
 77 76  1  0
 78 74  1  0
 79 80  2  0
 80 81  1  0
 82 81  2  0
 83 82  1  0
 84 58  1  0
 84 85  1  0
 84 94  1  0
 85 88  1  0
 86 90  1  0
 86 85  1  0
 87 86  2  0
 90 89  1  0
 92 90  1  0
 92 93  1  0
 92 91  1  0
 94 97  1  1
 94 95  1  0
 96 94  1  0
M  ISO  4  15 100  23 100  56 101  57 101
M  END
>  <TORSDO>  (14) 
F 23

>  <SCORE>  (14) 
-13.166

>  <name>  (14) 
13

>  <ligand_id>  (14) 
13

>  <original_smiles>  (14) 
[H]OC([H])(c1nc([H])c(C([H])([H])N([H])C(=O)N2C([H])([H])C([H])([H])C([H])([H])C([H])(n3nc(-c4c([H])c([H])c(Oc5c([H])c([H])c(F)c([H])c5F)c([H])c4[H])c(C(=O)N([H])[H])c3N([H])[H])C2([H])[H])c(C([H])([H])C([H])(C([H])([H])[H])[N+]([H])([H])[H])c1[H])C([H])([H])Oc1c([H])c([H])c2c(c1[H])C([H])([H])N(C(=O)C([H])(N([H])C(=O)C([H])(N([H])C([H])([H])[H])C([H])([H])[H])C(C([H])([H])[H])(C([H])([H])[H])C([H])([H])[H])C([H])(C(=O)N([H])C1([H])c3c([H])c([H])c([H])c([H])c3C([H])([H])C([H])([H])C1([H])[H])C2([H])[H]

>  <smiles>  (14) 
[H]OC([H])(c1nc([H])c(C([H])([H])N([H])C(=O)N2C([H])([H])C([H])([H])C([H])([H])C([H])(n3nc(-c4c([H])c([H])c(Oc5c([H])c([H])c(F)c([H])c5F)c([H])c4[H])c(C(=O)N([H])[H])c3N([H])[H])C2([H])[H])c(C([H])([H])C([H])(C([H])([H])[H])[N+]([H])([H])[H])c1[H])C([H])([H])Oc1c([H])c([H])c2c(c1[H])C([H])([H])N(C(=O)C([H])(N([H])C(=O)C([H])(N([H])C([H])([H])[H])C([H])([H])[H])C(C([H])([H])[H])(C([H])([H])[H])C([H])([H])[H])C([H])(C(=O)N([H])C1([H])c3c([H])c([H])c([H])c([H])c3C([H])([H])C([H])([H])C1([H])[H])C2([H])[H]

$$$$
14:0:0
     RDKit          3D

 98107  0  0  1  0  0  0  0  0999 V2000
  -30.2530  -23.5510   20.3530 C   0  0  0  0  0  3  0  0  0  0  0  0
  -30.9450  -22.2990   20.4330 C   0  0  0  0  0  3  0  0  0  0  0  0
  -28.2320  -22.3400   19.8890 C   0  0  0  0  0  3  0  0  0  0  0  0
  -28.9860  -18.6130   20.0160 C   0  0  0  0  0  3  0  0  0  0  0  0
  -28.9240  -21.0790   19.9820 C   0  0  0  0  0  0  0  0  0  0  0  0
  -28.8610  -23.6100   20.0940 C   0  0  0  0  0  0  0  0  0  0  0  0
  -28.2660  -19.8250   19.8280 C   0  0  0  0  0  0  0  0  0  0  0  0
  -30.3120  -21.0350   20.2790 C   0  0  0  0  0  0  0  0  0  0  0  0
  -30.3600  -18.6300   20.3340 C   0  0  0  0  0  0  0  0  0  0  0  0
  -26.7860  -19.7510   19.4900 C   0  0  0  0  0  1  0  0  0  0  0  0
  -30.9930  -19.8430   20.4410 N   0  0  0  0  0  0  0  0  0  0  0  0
  -27.9770  -24.9220   20.2480 C   0  0  0  0  0  2  0  0  0  0  0  0
  -28.3020  -26.2470   19.6490 O   0  0  0  0  0  0  0  0  0  0  0  0
  -24.6520  -31.5560   22.9680 C   0  0  0  0  0  0  0  0  0  0  0  0
  -27.2300  -27.1590   19.6570 C   0  0  0  0  0  0  0  0  0  0  0  0
  -23.4310  -30.2440   21.2720 C   0  0  0  0  0  3  0  0  0  0  0  0
  -24.8700  -28.7760   19.7450 C   0  0  0  0  0  0  0  0  0  0  0  0
  -25.9700  -30.5750   21.0770 C   0  0  0  0  0  2  0  0  0  0  0  0
  -26.0460  -29.2310   20.3570 C   0  0  0  0  0  0  0  0  0  0  0  0
  -27.2330  -28.4350   20.3040 C   0  0  0  0  0  3  0  0  0  0  0  0
  -26.0370  -26.7700   19.0090 C   0  0  0  0  0  3  0  0  0  0  0  0
  -24.8690  -27.5530   19.0590 C   0  0  0  0  0  3  0  0  0  0  0  0
  -23.6320  -29.6430   19.8550 C   0  0  0  0  0  2  0  0  0  0  0  0
  -24.7040  -30.8070   21.8290 N   0  0  0  0  0  0  0  0  0  0  0  0
  -23.5730  -31.8040   23.5290 O   0  0  0  0  0  0  0  0  0  0  0  0
  -22.7800  -29.1770   22.1840 C   0  0  0  0  0  0  0  0  0  0  0  0
  -21.4470  -29.0320   22.0920 N   0  0  0  0  0  0  0  0  0  0  0  0
  -23.4730  -28.4870   22.9370 O   0  0  0  0  0  0  0  0  0  0  0  0
  -20.9490  -29.6400   21.4580 H   0  0  0  0  0  0  0  0  0  0  0  0
  -18.0600  -27.8880   22.6540 C   0  0  0  0  0  0  0  0  0  0  0  0
  -20.6350  -28.0600   22.8280 C   0  0  0  0  0  3  0  0  0  0  0  0
  -20.6700  -26.6750   22.1440 C   0  0  0  0  0  2  0  0  0  0  0  0
  -19.5180  -26.4570   21.1600 C   0  0  0  0  0  2  0  0  0  0  0  0
  -18.1690  -26.5890   21.8730 C   0  0  0  0  0  2  0  0  0  0  0  0
  -19.2190  -28.5870   23.0890 C   0  0  0  0  0  0  0  0  0  0  0  0
  -19.0610  -29.8060   23.7810 C   0  0  0  0  0  3  0  0  0  0  0  0
  -17.7790  -30.3270   24.0430 C   0  0  0  0  0  3  0  0  0  0  0  0
  -16.6360  -29.6230   23.6230 C   0  0  0  0  0  3  0  0  0  0  0  0
  -16.7790  -28.4050   22.9350 C   0  0  0  0  0  3  0  0  0  0  0  0
  -25.9410  -32.1580   23.6080 C   0  0  0  0  0  3  0  0  0  0  0  0
  -25.6320  -33.5340   24.0210 N   0  0  0  0  0  0  0  0  0  0  0  0
  -25.9690  -34.6310   23.3300 C   0  0  0  0  0  0  0  0  0  0  0  0
  -26.6430  -34.5900   22.2970 O   0  0  0  0  0  0  0  0  0  0  0  0
  -25.0340  -33.6400   24.8270 H   0  0  0  0  0  0  0  0  0  0  0  0
  -24.2430  -36.4440   23.0820 C   0  0  0  0  0  1  0  0  0  0  0  0
  -25.4820  -35.9900   23.8710 C   0  0  0  0  0  3  0  0  0  0  0  0
  -27.6170  -36.8190   24.7540 C   0  0  0  0  0  1  0  0  0  0  0  0
  -26.5150  -37.0480   23.8250 N   0  0  0  0  0  0  0  0  0  0  0  0
  -26.1090  -37.9570   24.0320 H   0  0  0  0  0  0  0  0  0  0  0  0
  -26.4760  -31.3190   24.8330 C   0  0  1  0  0  0  0  0  0  0  0  0
  -25.3990  -31.0260   25.9040 C   0  0  0  0  0  1  0  0  0  0  0  0
  -27.0480  -29.9620   24.3600 C   0  0  0  0  0  1  0  0  0  0  0  0
  -27.6400  -32.0740   25.5160 C   0  0  0  0  0  1  0  0  0  0  0  0
  -31.1520  -17.3030   20.7110 C   0  0  0  0  0  2  0  0  0  0  0  0
  -31.4900  -14.7770   20.5450 C   0  0  0  0  0  0  0  0  0  0  0  0
  -31.2960  -12.3620   19.9730 C   0  0  0  0  0  2  0  0  0  0  0  0
  -30.4790  -12.1820   18.6760 C   0  0  0  0  0  2  0  0  0  0  0  0
  -28.9670  -12.1290   18.9830 C   0  0  0  0  0  2  0  0  0  0  0  0
  -28.4960  -13.2280   19.9740 C   0  0  0  0  0  3  0  0  0  0  0  0
  -29.4540  -13.3800   21.1730 C   0  0  0  0  0  2  0  0  0  0  0  0
  -30.8030  -13.5880   20.6310 N   0  0  0  0  0  0  0  0  0  0  0  0
  -32.7210  -14.7750   20.5180 O   0  0  0  0  0  0  0  0  0  0  0  0
  -30.8100  -15.9280   20.1540 N   0  0  0  0  0  0  0  0  0  0  0  0
  -26.1130  -13.9950   20.5160 C   0  0  0  0  0  0  0  0  0  0  0  0
  -24.9740  -13.3010   20.8180 C   0  0  0  0  0  0  0  0  0  0  0  0
  -25.3500  -11.9230   20.8560 C   0  0  0  0  0  0  0  0  0  0  0  0
  -27.1100  -13.0420   20.3820 N   0  0  0  0  0  0  0  0  0  0  0  0
  -26.6540  -11.7940   20.6510 N   0  0  0  0  0  0  0  0  0  0  0  0
  -24.5340  -10.7140   21.0170 C   0  0  0  0  0  0  0  0  0  0  0  0
  -24.8470   -9.7380   21.9880 C   0  0  0  0  0  3  0  0  0  0  0  0
  -24.0360   -8.5920   22.1360 C   0  0  0  0  0  3  0  0  0  0  0  0
  -22.8990   -8.4160   21.3130 C   0  0  0  0  0  0  0  0  0  0  0  0
  -22.6060   -9.3790   20.3320 C   0  0  0  0  0  3  0  0  0  0  0  0
  -23.4160  -10.5170   20.1820 C   0  0  0  0  0  3  0  0  0  0  0  0
  -22.0680   -7.3240   21.3700 O   0  0  0  0  0  0  0  0  0  0  0  0
  -21.8890   -6.6170   22.5310 C   0  0  0  0  0  0  0  0  0  0  0  0
  -21.4150   -7.2300   23.7120 C   0  0  0  0  0  3  0  0  0  0  0  0
  -21.1800   -6.4510   24.8630 C   0  0  0  0  0  3  0  0  0  0  0  0
  -21.4080   -5.0610   24.8330 C   0  0  0  0  0  0  0  0  0  0  0  0
  -21.8740   -4.4490   23.6560 C   0  0  0  0  0  3  0  0  0  0  0  0
  -22.1100   -5.2250   22.5080 C   0  0  0  0  0  0  0  0  0  0  0  0
  -22.5390   -4.6270   21.3710 F   0  0  0  0  0  0  0  0  0  0  0  0
  -21.1750   -4.3120   25.9350 F   0  0  0  0  0  0  0  0  0  0  0  0
  -23.5940  -13.8720   20.9670 C   0  0  0  0  0  0  0  0  0  0  0  0
  -22.7670  -13.2620   21.8070 N   0  0  0  0  0  0  0  0  0  0  0  0
  -23.2580  -14.8940   20.3700 O   0  0  0  0  0  0  0  0  0  0  0  0
  -23.0520  -12.4340   22.3110 H   0  0  0  0  0  0  0  0  0  0  0  0
  -21.8360  -13.6260   21.9500 H   0  0  0  0  0  0  0  0  0  0  0  0
  -26.3800  -15.3470   20.3190 N   0  0  0  0  0  0  0  0  0  0  0  0
  -25.6520  -16.0520   20.3540 H   0  0  0  0  0  0  0  0  0  0  0  0
  -27.2820  -15.7190   20.0540 H   0  0  0  0  0  0  0  0  0  0  0  0
  -30.3880  -16.0150   18.7350 C   0  0  0  0  0  2  0  0  0  0  0  0
  -31.4470  -16.6010   17.7620 C   0  0  0  0  0  2  0  0  0  0  0  0
  -32.4080  -15.5590   17.1480 C   0  0  0  0  0  2  0  0  0  0  0  0
  -33.3560  -16.1630   16.1960 N   0  0  0  0  0  4  0  0  0  0  0  0
  -32.8740  -16.5880   15.4230 H   0  0  0  0  0  0  0  0  0  0  0  0
  -33.9650  -15.4550   15.8270 H   0  0  0  0  0  0  0  0  0  0  0  0
  -33.9270  -16.8580   16.6440 H   0  0  0  0  0  0  0  0  0  0  0  0
  1  2  1  0
  3  5  2  0
  3  6  1  0
  4  9  1  0
  5  8  1  0
  6 12  1  0
  6  1  2  0
  7  5  1  0
  7  4  2  0
  8  2  2  0
  8 11  1  0
  9 11  2  0
  9 54  1  0
 10  7  1  0
 13 15  1  0
 13 12  1  0
 14 25  2  0
 15 20  1  0
 16 24  1  0
 16 26  1  0
 17 23  1  0
 17 19  1  0
 18 24  1  0
 19 18  1  0
 20 19  2  0
 21 22  1  0
 21 15  2  0
 22 17  2  0
 23 16  1  0
 24 14  1  0
 26 28  2  0
 27 26  1  0
 29 27  1  0
 30 39  2  0
 30 35  1  0
 31 27  1  0
 31 35  1  0
 32 31  1  0
 33 34  1  0
 33 32  1  0
 34 30  1  0
 35 36  2  0
 36 37  1  0
 38 37  2  0
 39 38  1  0
 40 14  1  0
 40 41  1  0
 40 50  1  0
 41 44  1  0
 42 46  1  0
 42 41  1  0
 43 42  2  0
 46 45  1  0
 48 46  1  0
 48 49  1  0
 48 47  1  0
 50 53  1  1
 50 51  1  0
 52 50  1  0
 55 61  1  0
 56 61  1  0
 57 58  1  0
 57 56  1  0
 59 58  1  0
 59 67  1  0
 59 60  1  0
 61 60  1  0
 62 55  2  0
 63 55  1  0
 63 54  1  0
 64 65  2  0
 65 66  1  0
 65 84  1  0
 66 69  1  0
 67 64  1  0
 67 68  1  0
 68 66  2  0
 69 70  1  0
 70 71  2  0
 72 75  1  0
 72 71  1  0
 73 72  2  0
 74 73  1  0
 74 69  2  0
 75 76  1  0
 76 77  1  0
 77 78  2  0
 79 78  1  0
 79 83  1  0
 80 79  2  0
 81 76  2  0
 81 80  1  0
 82 81  1  0
 84 85  1  0
 85 88  1  0
 85 87  1  0
 86 84  2  0
 89 90  1  0
 89 64  1  0
 91 89  1  0
 92 63  1  0
 93 92  1  0
 94 93  1  0
 95 98  1  0
 95 94  1  0
 96 95  1  0
 97 95  1  0
M  ISO  4  12 101  13 101  55 100  63 100
M  END
>  <TORSDO>  (15) 
F 22

>  <SCORE>  (15) 
-11.928

>  <name>  (15) 
14

>  <ligand_id>  (15) 
14

>  <original_smiles>  (15) 
[H]c1c([H])c([H])c2c(c1[H])C([H])([H])C([H])([H])C([H])([H])C2([H])N([H])C(=O)C1([H])N(C(=O)C([H])(N([H])C(=O)C([H])(N([H])C([H])([H])[H])C([H])([H])[H])C(C([H])([H])[H])(C([H])([H])[H])C([H])([H])[H])C([H])([H])c2c([H])c(OC([H])([H])c3c([H])c([H])c4nc(C([H])([H])N(C(=O)N5C([H])([H])C([H])([H])C([H])([H])C([H])(n6nc(-c7c([H])c([H])c(Oc8c([H])c([H])c(F)c([H])c8F)c([H])c7[H])c(C(=O)N([H])[H])c6N([H])[H])C5([H])[H])C([H])([H])C([H])([H])C([H])([H])[N+]([H])([H])[H])c([H])c(C([H])([H])[H])c4c3[H])c([H])c([H])c2C1([H])[H]

>  <smiles>  (15) 
[H]c1c([H])c([H])c2c(c1[H])C([H])([H])C([H])([H])C([H])([H])C2([H])N([H])C(=O)C1([H])N(C(=O)C([H])(N([H])C(=O)C([H])(N([H])C([H])([H])[H])C([H])([H])[H])C(C([H])([H])[H])(C([H])([H])[H])C([H])([H])[H])C([H])([H])c2c([H])c(OC([H])([H])c3c([H])c([H])c4nc(C([H])([H])N(C(=O)N5C([H])([H])C([H])([H])C([H])([H])C([H])(n6nc(-c7c([H])c([H])c(Oc8c([H])c([H])c(F)c([H])c8F)c([H])c7[H])c(C(=O)N([H])[H])c6N([H])[H])C5([H])[H])C([H])([H])C([H])([H])C([H])([H])[N+]([H])([H])[H])c([H])c(C([H])([H])[H])c4c3[H])c([H])c([H])c2C1([H])[H]

$$$$
15:0:0
     RDKit          3D

 97105  0  0  1  0  0  0  0  0999 V2000
  -30.4060  -22.2180   17.4690 C   0  0  0  0  0  3  0  0  0  0  0  0
  -31.4440  -21.3540   17.8380 C   0  0  0  0  0  3  0  0  0  0  0  0
  -30.5980  -23.2850   16.5470 C   0  0  0  0  0  0  0  0  0  0  0  0
  -32.7100  -21.5660   17.2940 C   0  0  0  0  0  0  0  0  0  0  0  0
  -31.9920  -23.4360   16.0540 C   0  0  0  0  0  0  0  0  0  0  0  0
  -33.8770  -20.6610   17.6220 C   0  0  0  0  0  1  0  0  0  0  0  0
  -32.9610  -22.5740   16.4500 N   0  0  0  0  0  0  0  0  0  0  0  0
  -29.2640  -24.1350   16.2730 C   0  0  0  0  0  2  0  0  0  0  0  0
  -27.9800  -23.3560   15.8550 N   0  0  0  0  0  4  0  0  0  0  0  0
  -28.2380  -22.8280   15.0380 H   0  0  0  0  0  0  0  0  0  0  0  0
  -27.3080  -24.0420   15.5520 H   0  0  0  0  0  0  0  0  0  0  0  0
  -27.2320  -22.3350   16.7460 C   0  0  0  0  0  3  0  0  0  0  0  0
  -28.0630  -21.9650   18.0040 C   0  0  0  0  0  2  0  0  0  0  0  0
  -28.6650  -20.2880   19.8170 C   0  0  0  0  0  1  0  0  0  0  0  0
  -27.6690  -19.4460   17.6690 C   0  0  0  0  0  1  0  0  0  0  0  0
  -27.6930  -20.6130   18.6700 C   0  0  0  0  0  3  0  0  0  0  0  0
  -25.6840  -22.7200   17.1210 C   0  0  0  0  0  2  0  0  0  0  0  0
  -23.8270  -22.3830   18.9680 C   0  0  0  0  0  0  0  0  0  0  0  0
  -21.8820  -23.5020   20.0630 C   0  0  0  0  0  2  0  0  0  0  0  0
  -21.8180  -24.9670   19.5750 C   0  0  0  0  0  2  0  0  0  0  0  0
  -22.7100  -25.8740   20.4430 C   0  0  0  0  0  2  0  0  0  0  0  0
  -24.1240  -25.2780   20.6800 C   0  0  0  0  0  3  0  0  0  0  0  0
  -24.0600  -23.7850   21.0790 C   0  0  0  0  0  2  0  0  0  0  0  0
  -23.3030  -23.0820   20.0340 N   0  0  0  0  0  0  0  0  0  0  0  0
  -23.0920  -21.6760   18.2770 O   0  0  0  0  0  0  0  0  0  0  0  0
  -25.1120  -22.6900   18.5480 N   0  0  0  0  0  0  0  0  0  0  0  0
  -25.6350  -23.2270   19.2220 H   0  0  0  0  0  0  0  0  0  0  0  0
  -26.0710  -26.7690   21.4370 C   0  0  0  0  0  0  0  0  0  0  0  0
  -26.3350  -27.4070   22.6180 C   0  0  0  0  0  0  0  0  0  0  0  0
  -25.2710  -27.0520   23.5040 C   0  0  0  0  0  0  0  0  0  0  0  0
  -24.8920  -26.0690   21.6380 N   0  0  0  0  0  0  0  0  0  0  0  0
  -24.4450  -26.1960   22.9130 N   0  0  0  0  0  0  0  0  0  0  0  0
  -24.9590  -27.5260   24.8600 C   0  0  0  0  0  0  0  0  0  0  0  0
  -24.5630  -26.6350   25.8820 C   0  0  0  0  0  3  0  0  0  0  0  0
  -24.2910  -27.1120   27.1830 C   0  0  0  0  0  3  0  0  0  0  0  0
  -24.4150  -28.4920   27.4730 C   0  0  0  0  0  0  0  0  0  0  0  0
  -24.7870  -29.3790   26.4470 C   0  0  0  0  0  3  0  0  0  0  0  0
  -25.0540  -28.9030   25.1520 C   0  0  0  0  0  3  0  0  0  0  0  0
  -24.1460  -29.0490   28.7010 O   0  0  0  0  0  0  0  0  0  0  0  0
  -24.0250  -28.2790   29.8290 C   0  0  0  0  0  0  0  0  0  0  0  0
  -24.9950  -27.3140   30.1800 C   0  0  0  0  0  3  0  0  0  0  0  0
  -24.8670  -26.5940   31.3850 C   0  0  0  0  0  3  0  0  0  0  0  0
  -23.7790  -26.8420   32.2430 C   0  0  0  0  0  0  0  0  0  0  0  0
  -22.8170  -27.8070   31.8980 C   0  0  0  0  0  3  0  0  0  0  0  0
  -22.9420  -28.5260   30.6960 C   0  0  0  0  0  0  0  0  0  0  0  0
  -22.0230  -29.4700   30.3790 F   0  0  0  0  0  0  0  0  0  0  0  0
  -23.6610  -26.1560   33.4040 F   0  0  0  0  0  0  0  0  0  0  0  0
  -27.4530  -28.3730   22.8810 C   0  0  0  0  0  0  0  0  0  0  0  0
  -27.8000  -28.5800   24.1450 N   0  0  0  0  0  0  0  0  0  0  0  0
  -28.0620  -28.9140   21.9570 O   0  0  0  0  0  0  0  0  0  0  0  0
  -27.3200  -28.1200   24.9050 H   0  0  0  0  0  0  0  0  0  0  0  0
  -28.5600  -29.2080   24.3600 H   0  0  0  0  0  0  0  0  0  0  0  0
  -26.7170  -26.7440   20.2030 N   0  0  0  0  0  0  0  0  0  0  0  0
  -27.5500  -27.2900   20.0190 H   0  0  0  0  0  0  0  0  0  0  0  0
  -26.3370  -26.3080   19.3740 H   0  0  0  0  0  0  0  0  0  0  0  0
  -32.6840  -24.4420   15.0420 C   0  0  0  0  0  2  0  0  0  0  0  0
  -34.1980  -24.3720   14.9130 O   0  0  0  0  0  0  0  0  0  0  0  0
  -39.4210  -28.7200   12.3200 C   0  0  0  0  0  0  0  0  0  0  0  0
  -34.8950  -24.8910   13.7960 C   0  0  0  0  0  0  0  0  0  0  0  0
  -37.7140  -27.9440   10.7140 C   0  0  0  0  0  3  0  0  0  0  0  0
  -36.2170  -26.0180   11.5040 C   0  0  0  0  0  0  0  0  0  0  0  0
  -38.3250  -26.5020   12.7470 C   0  0  0  0  0  2  0  0  0  0  0  0
  -36.9030  -25.9380   12.7220 C   0  0  0  0  0  0  0  0  0  0  0  0
  -36.2520  -25.3610   13.8610 C   0  0  0  0  0  3  0  0  0  0  0  0
  -34.2720  -24.9500   12.5300 C   0  0  0  0  0  3  0  0  0  0  0  0
  -34.9120  -25.5110   11.4060 C   0  0  0  0  0  3  0  0  0  0  0  0
  -36.9330  -26.6600   10.3290 C   0  0  0  0  0  2  0  0  0  0  0  0
  -38.5140  -27.7600   11.9690 N   0  0  0  0  0  0  0  0  0  0  0  0
  -39.6130  -29.7170   11.6090 O   0  0  0  0  0  0  0  0  0  0  0  0
  -36.7290  -29.1350   10.7870 C   0  0  0  0  0  0  0  0  0  0  0  0
  -36.4320  -29.7520    9.6290 N   0  0  0  0  0  0  0  0  0  0  0  0
  -36.2310  -29.4720   11.8640 O   0  0  0  0  0  0  0  0  0  0  0  0
  -36.8950  -29.4300    8.7900 H   0  0  0  0  0  0  0  0  0  0  0  0
  -35.1100  -32.1270    7.2360 C   0  0  0  0  0  0  0  0  0  0  0  0
  -35.4930  -30.8630    9.4600 C   0  0  0  0  0  3  0  0  0  0  0  0
  -34.0430  -30.3500    9.2960 C   0  0  0  0  0  2  0  0  0  0  0  0
  -33.6310  -30.1640    7.8330 C   0  0  0  0  0  2  0  0  0  0  0  0
  -33.7430  -31.4870    7.0700 C   0  0  0  0  0  2  0  0  0  0  0  0
  -35.9390  -31.8220    8.3490 C   0  0  0  0  0  0  0  0  0  0  0  0
  -37.2160  -32.4200    8.4360 C   0  0  0  0  0  3  0  0  0  0  0  0
  -37.6640  -33.3070    7.4380 C   0  0  0  0  0  3  0  0  0  0  0  0
  -36.8330  -33.6160    6.3460 C   0  0  0  0  0  3  0  0  0  0  0  0
  -35.5600  -33.0290    6.2490 C   0  0  0  0  0  3  0  0  0  0  0  0
  -40.2790  -28.5970   13.6170 C   0  0  0  0  0  3  0  0  0  0  0  0
  -41.6780  -28.8700   13.2570 N   0  0  0  0  0  0  0  0  0  0  0  0
  -42.6150  -27.9300   13.0750 C   0  0  0  0  0  0  0  0  0  0  0  0
  -42.4000  -26.7290   13.2620 O   0  0  0  0  0  0  0  0  0  0  0  0
  -41.9110  -29.8260   13.0360 H   0  0  0  0  0  0  0  0  0  0  0  0
  -44.1700  -28.1270   11.1080 C   0  0  0  0  0  1  0  0  0  0  0  0
  -44.0100  -28.3940   12.6120 C   0  0  0  0  0  3  0  0  0  0  0  0
  -45.1790  -28.1430   14.7570 C   0  0  0  0  0  1  0  0  0  0  0  0
  -45.1190  -27.7530   13.3510 N   0  0  0  0  0  0  0  0  0  0  0  0
  -46.0140  -27.9770   12.9250 H   0  0  0  0  0  0  0  0  0  0  0  0
  -39.8060  -29.5690   14.7690 C   0  0  1  0  0  0  0  0  0  0  0  0
  -39.5320  -31.0160   14.2950 C   0  0  0  0  0  1  0  0  0  0  0  0
  -38.5130  -29.0420   15.4320 C   0  0  0  0  0  1  0  0  0  0  0  0
  -40.8790  -29.6230   15.8830 C   0  0  0  0  0  1  0  0  0  0  0  0
  1  2  1  0
  3  1  2  0
  4  6  1  0
  4  2  2  0
  5  7  2  0
  5  3  1  0
  7  4  1  0
  8  3  1  0
  9  8  1  0
  9 12  1  0
 10  9  1  0
 11  9  1  0
 12 17  1  0
 12 13  1  0
 13 16  1  0
 15 16  1  0
 16 14  1  0
 17 26  1  0
 18 24  1  0
 20 19  1  0
 20 21  1  0
 22 21  1  0
 22 23  1  0
 22 31  1  0
 24 19  1  0
 24 23  1  0
 25 18  2  0
 26 18  1  0
 26 27  1  0
 28 31  1  0
 28 29  2  0
 29 48  1  0
 29 30  1  0
 30 33  1  0
 31 32  1  0
 32 30  2  0
 33 38  2  0
 33 34  1  0
 34 35  2  0
 35 36  1  0
 36 39  1  0
 37 36  2  0
 38 37  1  0
 39 40  1  0
 40 41  2  0
 40 45  1  0
 41 42  1  0
 42 43  2  0
 43 47  1  0
 44 43  1  0
 45 44  2  0
 46 45  1  0
 48 49  1  0
 49 52  1  0
 49 51  1  0
 50 48  2  0
 53 28  1  0
 54 53  1  0
 55 53  1  0
 56  5  1  0
 57 56  1  0
 59 64  1  0
 59 57  1  0
 60 70  1  0
 60 68  1  0
 61 63  1  0
 63 62  1  0
 63 64  2  0
 65 59  2  0
 66 61  2  0
 66 65  1  0
 67 60  1  0
 67 61  1  0
 68 58  1  0
 68 62  1  0
 69 58  2  0
 70 72  2  0
 71 70  1  0
 73 71  1  0
 74 79  1  0
 75 71  1  0
 76 75  1  0
 77 76  1  0
 78 74  1  0
 78 77  1  0
 79 80  2  0
 79 75  1  0
 81 80  1  0
 82 81  2  0
 83 82  1  0
 83 74  2  0
 84 58  1  0
 84 94  1  0
 85 84  1  0
 86 85  1  0
 86 87  2  0
 88 85  1  0
 90 89  1  0
 90 86  1  0
 90 92  1  0
 92 91  1  0
 93 92  1  0
 94 96  1  1
 94 97  1  0
 95 94  1  0
M  ISO  4  18 100  26 100  56 101  57 101
M  END
>  <TORSDO>  (16) 
F 23

>  <SCORE>  (16) 
-0.106

>  <name>  (16) 
15

>  <ligand_id>  (16) 
15

>  <original_smiles>  (16) 
[H]c1c(C([H])([H])[H])nc(C([H])([H])Oc2c([H])c([H])c3c(c2[H])C([H])([H])N(C(=O)C([H])(N([H])C(=O)C([H])(N([H])C([H])([H])[H])C([H])([H])[H])C(C([H])([H])[H])(C([H])([H])[H])C([H])([H])[H])C([H])(C(=O)N([H])C2([H])c4c([H])c([H])c([H])c([H])c4C([H])([H])C([H])([H])C2([H])[H])C3([H])[H])c(C([H])([H])[N+]([H])([H])C([H])(C([H])([H])N([H])C(=O)N2C([H])([H])C([H])([H])C([H])([H])C([H])(n3nc(-c4c([H])c([H])c(Oc5c([H])c([H])c(F)c([H])c5F)c([H])c4[H])c(C(=O)N([H])[H])c3N([H])[H])C2([H])[H])C([H])([H])C([H])(C([H])([H])[H])C([H])([H])[H])c1[H]

>  <smiles>  (16) 
[H]c1c(C([H])([H])[H])nc(C([H])([H])Oc2c([H])c([H])c3c(c2[H])C([H])([H])N(C(=O)C([H])(N([H])C(=O)C([H])(N([H])C([H])([H])[H])C([H])([H])[H])C(C([H])([H])[H])(C([H])([H])[H])C([H])([H])[H])C([H])(C(=O)N([H])C2([H])c4c([H])c([H])c([H])c([H])c4C([H])([H])C([H])([H])C2([H])[H])C3([H])[H])c(C([H])([H])[N+]([H])([H])C([H])(C([H])([H])N([H])C(=O)N2C([H])([H])C([H])([H])C([H])([H])C([H])(n3nc(-c4c([H])c([H])c(Oc5c([H])c([H])c(F)c([H])c5F)c([H])c4[H])c(C(=O)N([H])[H])c3N([H])[H])C2([H])[H])C([H])([H])C([H])(C([H])([H])[H])C([H])([H])[H])c1[H]

$$$$
16:0:0
     RDKit          3D

 95103  0  0  1  0  0  0  0  0999 V2000
  -28.9080  -21.8380   18.6980 C   0  0  0  0  0  2  0  0  0  0  0  0
  -29.6070  -21.9240   21.0770 C   0  0  0  0  0  2  0  0  0  0  0  0
  -28.6650  -20.3150   18.8180 C   0  0  0  0  0  2  0  0  0  0  0  0
  -29.3940  -20.3700   21.1890 C   0  0  0  0  0  2  0  0  0  0  0  0
  -28.7040  -22.6210   20.0170 C   0  0  0  0  0  3  0  0  0  0  0  0
  -29.5800  -19.5920   19.8520 C   0  0  0  0  0  3  0  0  0  0  0  0
  -28.9120  -24.1740   19.7500 C   0  0  0  0  0  2  0  0  0  0  0  0
  -27.1900  -24.8680   21.5310 C   0  0  0  0  0  1  0  0  0  0  0  0
  -29.5910  -25.4840   21.8350 C   0  0  0  0  0  1  0  0  0  0  0  0
  -28.4820  -25.2830   20.7870 C   0  0  1  0  0  0  0  0  0  0  0  0
  -28.4310  -26.6060   20.1380 O   0  0  0  0  0  0  0  0  0  0  0  0
  -24.6370  -31.8640   23.2070 C   0  0  0  0  0  0  0  0  0  0  0  0
  -27.2750  -27.3810   20.1390 C   0  0  0  0  0  0  0  0  0  0  0  0
  -23.4340  -30.4660   21.5620 C   0  0  0  0  0  3  0  0  0  0  0  0
  -24.8900  -28.9280   20.1300 C   0  0  0  0  0  0  0  0  0  0  0  0
  -25.9630  -30.8140   21.3700 C   0  0  0  0  0  2  0  0  0  0  0  0
  -26.0500  -29.4400   20.7270 C   0  0  0  0  0  0  0  0  0  0  0  0
  -27.2460  -28.6760   20.7240 C   0  0  0  0  0  3  0  0  0  0  0  0
  -26.1060  -26.9120   19.5060 C   0  0  0  0  0  3  0  0  0  0  0  0
  -24.9170  -27.6660   19.5130 C   0  0  0  0  0  3  0  0  0  0  0  0
  -23.6470  -29.7910   20.1800 C   0  0  0  0  0  2  0  0  0  0  0  0
  -24.6970  -31.0650   22.1040 N   0  0  0  0  0  0  0  0  0  0  0  0
  -23.5550  -32.1340   23.7470 O   0  0  0  0  0  0  0  0  0  0  0  0
  -22.7810  -29.4430   22.5210 C   0  0  0  0  0  0  0  0  0  0  0  0
  -21.4540  -29.2720   22.4070 N   0  0  0  0  0  0  0  0  0  0  0  0
  -23.4660  -28.8070   23.3250 O   0  0  0  0  0  0  0  0  0  0  0  0
  -20.9610  -29.8360   21.7290 H   0  0  0  0  0  0  0  0  0  0  0  0
  -18.0760  -28.1010   22.9290 C   0  0  0  0  0  0  0  0  0  0  0  0
  -20.6370  -28.3320   23.1760 C   0  0  0  0  0  3  0  0  0  0  0  0
  -20.7220  -26.9070   22.5810 C   0  0  0  0  0  2  0  0  0  0  0  0
  -19.6060  -26.6040   21.5770 C   0  0  0  0  0  2  0  0  0  0  0  0
  -18.2320  -26.7570   22.2370 C   0  0  0  0  0  2  0  0  0  0  0  0
  -19.2050  -28.8470   23.3550 C   0  0  0  0  0  0  0  0  0  0  0  0
  -19.0050  -30.1060   23.9620 C   0  0  0  0  0  3  0  0  0  0  0  0
  -17.7070  -30.6180   24.1470 C   0  0  0  0  0  3  0  0  0  0  0  0
  -16.5910  -29.8670   23.7400 C   0  0  0  0  0  3  0  0  0  0  0  0
  -16.7750  -28.6100   23.1340 C   0  0  0  0  0  3  0  0  0  0  0  0
  -25.9220  -32.4960   23.8280 C   0  0  0  0  0  3  0  0  0  0  0  0
  -25.6090  -33.8910   24.1690 N   0  0  0  0  0  0  0  0  0  0  0  0
  -25.9310  -34.9490   23.4140 C   0  0  0  0  0  0  0  0  0  0  0  0
  -26.5940  -34.8550   22.3780 O   0  0  0  0  0  0  0  0  0  0  0  0
  -25.0230  -34.0360   24.9760 H   0  0  0  0  0  0  0  0  0  0  0  0
  -24.1910  -36.7340   23.0860 C   0  0  0  0  0  1  0  0  0  0  0  0
  -25.4400  -36.3310   23.8850 C   0  0  0  0  0  3  0  0  0  0  0  0
  -27.5800  -37.2210   24.6980 C   0  0  0  0  0  1  0  0  0  0  0  0
  -26.4650  -37.3910   23.7700 N   0  0  0  0  0  0  0  0  0  0  0  0
  -26.0540  -38.3070   23.9350 H   0  0  0  0  0  0  0  0  0  0  0  0
  -26.4460  -31.7180   25.0960 C   0  0  1  0  0  0  0  0  0  0  0  0
  -25.3590  -31.4710   26.1670 C   0  0  0  0  0  1  0  0  0  0  0  0
  -27.0310  -30.3450   24.6880 C   0  0  0  0  0  1  0  0  0  0  0  0
  -27.5980  -32.5110   25.7580 C   0  0  0  0  0  1  0  0  0  0  0  0
  -29.3010  -18.0200   19.8970 C   0  0  0  0  0  3  0  0  0  0  0  0
  -29.3510  -17.4690   18.5300 N   0  0  0  0  0  4  0  0  0  0  0  0
  -30.2930  -17.4780   18.1810 H   0  0  0  0  0  0  0  0  0  0  0  0
  -28.7800  -18.0220   17.9160 H   0  0  0  0  0  0  0  0  0  0  0  0
  -29.0120  -16.5250   18.5110 H   0  0  0  0  0  0  0  0  0  0  0  0
  -30.1940  -17.1050   20.8210 C   0  0  0  0  0  2  0  0  0  0  0  0
  -30.6330  -14.5860   20.4180 C   0  0  0  0  0  0  0  0  0  0  0  0
  -30.3900  -12.3800   19.3200 C   0  0  0  0  0  2  0  0  0  0  0  0
  -29.4420  -12.5320   18.1100 C   0  0  0  0  0  2  0  0  0  0  0  0
  -27.9690  -12.3830   18.5410 C   0  0  0  0  0  2  0  0  0  0  0  0
  -27.6190  -13.2350   19.7920 C   0  0  0  0  0  3  0  0  0  0  0  0
  -28.6800  -13.0600   20.9020 C   0  0  0  0  0  2  0  0  0  0  0  0
  -29.9920  -13.3840   20.3230 N   0  0  0  0  0  0  0  0  0  0  0  0
  -31.7840  -14.7540   20.0110 O   0  0  0  0  0  0  0  0  0  0  0  0
  -29.8570  -15.6440   20.7790 N   0  0  0  0  0  0  0  0  0  0  0  0
  -28.9360  -15.3940   21.1100 H   0  0  0  0  0  0  0  0  0  0  0  0
  -25.2210  -13.8340   20.5020 C   0  0  0  0  0  0  0  0  0  0  0  0
  -24.1560  -13.0600   20.8730 C   0  0  0  0  0  0  0  0  0  0  0  0
  -24.6220  -11.7090   20.8490 C   0  0  0  0  0  0  0  0  0  0  0  0
  -26.2690  -12.9550   20.2750 N   0  0  0  0  0  0  0  0  0  0  0  0
  -25.9130  -11.6730   20.5430 N   0  0  0  0  0  0  0  0  0  0  0  0
  -23.9000  -10.4460   21.0440 C   0  0  0  0  0  0  0  0  0  0  0  0
  -24.3410   -9.4780   21.9720 C   0  0  0  0  0  3  0  0  0  0  0  0
  -23.6180   -8.2800   22.1540 C   0  0  0  0  0  3  0  0  0  0  0  0
  -22.4390   -8.0420   21.4070 C   0  0  0  0  0  0  0  0  0  0  0  0
  -22.0170   -8.9990   20.4690 C   0  0  0  0  0  3  0  0  0  0  0  0
  -22.7400  -10.1890   20.2850 C   0  0  0  0  0  3  0  0  0  0  0  0
  -21.6870   -6.8950   21.5000 O   0  0  0  0  0  0  0  0  0  0  0  0
  -21.6570   -6.1440   22.6470 C   0  0  0  0  0  0  0  0  0  0  0  0
  -21.2570   -6.6920   23.8860 C   0  0  0  0  0  3  0  0  0  0  0  0
  -21.1740   -5.8670   25.0250 C   0  0  0  0  0  3  0  0  0  0  0  0
  -21.4820   -4.4970   24.9290 C   0  0  0  0  0  0  0  0  0  0  0  0
  -21.8750   -3.9490   23.6950 C   0  0  0  0  0  3  0  0  0  0  0  0
  -21.9600   -4.7700   22.5570 C   0  0  0  0  0  0  0  0  0  0  0  0
  -22.3190   -4.2330   21.3660 F   0  0  0  0  0  0  0  0  0  0  0  0
  -21.3950   -3.7030   26.0210 F   0  0  0  0  0  0  0  0  0  0  0  0
  -22.7570  -13.5350   21.1410 C   0  0  0  0  0  0  0  0  0  0  0  0
  -22.0290  -12.8390   22.0090 N   0  0  0  0  0  0  0  0  0  0  0  0
  -22.3180  -14.5580   20.6170 O   0  0  0  0  0  0  0  0  0  0  0  0
  -22.3980  -12.0120   22.4540 H   0  0  0  0  0  0  0  0  0  0  0  0
  -21.0910  -13.1390   22.2310 H   0  0  0  0  0  0  0  0  0  0  0  0
  -25.3800  -15.2050   20.3170 N   0  0  0  0  0  0  0  0  0  0  0  0
  -24.6020  -15.8480   20.4170 H   0  0  0  0  0  0  0  0  0  0  0  0
  -26.2130  -15.6470   19.9570 H   0  0  0  0  0  0  0  0  0  0  0  0
  1  3  1  0
  1  5  1  0
  2  4  1  0
  3  6  1  0
  5  7  1  0
  5  2  1  0
  6 52  1  0
  6  4  1  0
  7 10  1  0
 10  8  1  1
 10  9  1  0
 11 13  1  0
 11 10  1  0
 12 23  2  0
 13 18  1  0
 14 22  1  0
 14 24  1  0
 15 21  1  0
 15 17  1  0
 16 22  1  0
 17 16  1  0
 18 17  2  0
 19 20  1  0
 19 13  2  0
 20 15  2  0
 21 14  1  0
 22 12  1  0
 24 26  2  0
 25 24  1  0
 27 25  1  0
 28 37  2  0
 28 33  1  0
 29 25  1  0
 29 33  1  0
 30 29  1  0
 31 32  1  0
 31 30  1  0
 32 28  1  0
 33 34  2  0
 34 35  1  0
 36 35  2  0
 37 36  1  0
 38 12  1  0
 38 39  1  0
 38 48  1  0
 39 42  1  0
 40 44  1  0
 40 39  1  0
 41 40  2  0
 44 43  1  0
 46 44  1  0
 46 47  1  0
 46 45  1  0
 48 51  1  1
 48 49  1  0
 50 48  1  0
 52 57  1  0
 53 52  1  0
 54 53  1  0
 55 53  1  0
 56 53  1  0
 58 66  1  0
 59 64  1  0
 60 61  1  0
 60 59  1  0
 62 61  1  0
 62 71  1  0
 62 63  1  0
 64 58  1  0
 64 63  1  0
 65 58  2  0
 66 57  1  0
 66 67  1  0
 68 69  2  0
 69 88  1  0
 70 69  1  0
 70 73  1  0
 71 68  1  0
 71 72  1  0
 72 70  2  0
 73 74  1  0
 74 75  2  0
 76 79  1  0
 76 75  1  0
 77 76  2  0
 78 77  1  0
 78 73  2  0
 79 80  1  0
 80 81  1  0
 81 82  2  0
 83 82  1  0
 83 87  1  0
 84 83  2  0
 85 80  2  0
 85 84  1  0
 86 85  1  0
 88 89  1  0
 89 92  1  0
 89 91  1  0
 90 88  2  0
 93 94  1  0
 93 68  1  0
 95 93  1  0
M  ISO  4  10 101  11 101  58 100  66 100
M  END
>  <TORSDO>  (17) 
F 21

>  <SCORE>  (17) 
-13.896

>  <name>  (17) 
16

>  <ligand_id>  (17) 
16

>  <original_smiles>  (17) 
[H]c1c([H])c([H])c2c(c1[H])C([H])([H])C([H])([H])C([H])([H])C2([H])N([H])C(=O)C1([H])N(C(=O)C([H])(N([H])C(=O)C([H])(N([H])C([H])([H])[H])C([H])([H])[H])C(C([H])([H])[H])(C([H])([H])[H])C([H])([H])[H])C([H])([H])c2c([H])c(OC(C([H])([H])[H])(C([H])([H])[H])C([H])([H])C3([H])C([H])([H])C([H])([H])C([H])(C([H])(C([H])([H])N([H])C(=O)N4C([H])([H])C([H])([H])C([H])([H])C([H])(n5nc(-c6c([H])c([H])c(Oc7c([H])c([H])c(F)c([H])c7F)c([H])c6[H])c(C(=O)N([H])[H])c5N([H])[H])C4([H])[H])[N+]([H])([H])[H])C([H])([H])C3([H])[H])c([H])c([H])c2C1([H])[H]

>  <smiles>  (17) 
[H]c1c([H])c([H])c2c(c1[H])C([H])([H])C([H])([H])C([H])([H])C2([H])N([H])C(=O)C1([H])N(C(=O)C([H])(N([H])C(=O)C([H])(N([H])C([H])([H])[H])C([H])([H])[H])C(C([H])([H])[H])(C([H])([H])[H])C([H])([H])[H])C([H])([H])c2c([H])c(OC(C([H])([H])[H])(C([H])([H])[H])C([H])([H])C3([H])C([H])([H])C([H])([H])C([H])(C([H])(C([H])([H])N([H])C(=O)N4C([H])([H])C([H])([H])C([H])([H])C([H])(n5nc(-c6c([H])c([H])c(Oc7c([H])c([H])c(F)c([H])c7F)c([H])c6[H])c(C(=O)N([H])[H])c5N([H])[H])C4([H])[H])[N+]([H])([H])[H])C([H])([H])C3([H])[H])c([H])c([H])c2C1([H])[H]

$$$$
17:0:0
     RDKit          3D

 95103  0  0  1  0  0  0  0  0999 V2000
  -30.2620  -22.9360   22.8500 C   0  0  0  0  0  2  0  0  0  0  0  0
  -31.7680  -23.8010   21.0900 C   0  0  0  0  0  1  0  0  0  0  0  0
  -30.3690  -23.7100   21.5790 N   0  0  2  0  0  4  0  0  0  0  0  0
  -29.8500  -23.1860   20.8910 H   0  0  0  0  0  0  0  0  0  0  0  0
  -29.6870  -25.0360   21.6680 C   0  0  0  0  0  2  0  0  0  0  0  0
  -29.8720  -25.9370   20.4230 C   0  0  0  0  0  2  0  0  0  0  0  0
  -28.9480  -27.1640   20.4310 C   0  0  0  0  0  2  0  0  0  0  0  0
  -27.6910  -26.8020   19.8690 O   0  0  0  0  0  0  0  0  0  0  0  0
  -24.4900  -32.0510   23.4950 C   0  0  0  0  0  0  0  0  0  0  0  0
  -26.6240  -27.6610   20.0210 C   0  0  0  0  0  0  0  0  0  0  0  0
  -23.0760  -30.8300   21.8700 C   0  0  0  0  0  3  0  0  0  0  0  0
  -24.3210  -29.2840   20.2680 C   0  0  0  0  0  0  0  0  0  0  0  0
  -25.5930  -31.0510   21.5010 C   0  0  0  0  0  2  0  0  0  0  0  0
  -25.5430  -29.7150   20.7950 C   0  0  0  0  0  0  0  0  0  0  0  0
  -26.6960  -28.9170   20.6690 C   0  0  0  0  0  3  0  0  0  0  0  0
  -25.3850  -27.2400   19.4940 C   0  0  0  0  0  3  0  0  0  0  0  0
  -24.2330  -28.0440   19.6120 C   0  0  0  0  0  3  0  0  0  0  0  0
  -23.1400  -30.2120   20.4460 C   0  0  0  0  0  2  0  0  0  0  0  0
  -24.4100  -31.3200   22.3480 N   0  0  0  0  0  0  0  0  0  0  0  0
  -23.4720  -32.3630   24.1280 O   0  0  0  0  0  0  0  0  0  0  0  0
  -22.4220  -29.8030   22.8200 C   0  0  0  0  0  0  0  0  0  0  0  0
  -21.1000  -29.6190   22.6820 N   0  0  0  0  0  0  0  0  0  0  0  0
  -23.1020  -29.1720   23.6360 O   0  0  0  0  0  0  0  0  0  0  0  0
  -20.6140  -30.1800   21.9960 H   0  0  0  0  0  0  0  0  0  0  0  0
  -17.7530  -28.3080   23.0300 C   0  0  0  0  0  0  0  0  0  0  0  0
  -20.2780  -28.6770   23.4390 C   0  0  0  0  0  3  0  0  0  0  0  0
  -20.4690  -27.2320   22.9210 C   0  0  0  0  0  2  0  0  0  0  0  0
  -19.4410  -26.8310   21.8580 C   0  0  0  0  0  2  0  0  0  0  0  0
  -18.0200  -26.9430   22.4170 C   0  0  0  0  0  2  0  0  0  0  0  0
  -18.8150  -29.1280   23.4950 C   0  0  0  0  0  0  0  0  0  0  0  0
  -18.5150  -30.4030   24.0230 C   0  0  0  0  0  3  0  0  0  0  0  0
  -17.1850  -30.8590   24.0930 C   0  0  0  0  0  3  0  0  0  0  0  0
  -16.1370  -30.0360   23.6460 C   0  0  0  0  0  3  0  0  0  0  0  0
  -16.4220  -28.7630   23.1200 C   0  0  0  0  0  3  0  0  0  0  0  0
  -25.8590  -32.5530   24.0530 C   0  0  0  0  0  3  0  0  0  0  0  0
  -25.6830  -33.9520   24.4630 N   0  0  0  0  0  0  0  0  0  0  0  0
  -26.0810  -35.0100   23.7420 C   0  0  0  0  0  0  0  0  0  0  0  0
  -26.7070  -34.9030   22.6840 O   0  0  0  0  0  0  0  0  0  0  0  0
  -25.1300  -34.1150   25.2910 H   0  0  0  0  0  0  0  0  0  0  0  0
  -24.5140  -36.9630   23.5180 C   0  0  0  0  0  1  0  0  0  0  0  0
  -25.7270  -36.4090   24.2810 C   0  0  0  0  0  3  0  0  0  0  0  0
  -27.9450  -37.0550   25.1110 C   0  0  0  0  0  1  0  0  0  0  0  0
  -26.8470  -37.3700   24.2010 N   0  0  0  0  0  0  0  0  0  0  0  0
  -26.5270  -38.3130   24.4050 H   0  0  0  0  0  0  0  0  0  0  0  0
  -26.4000  -31.6820   25.2530 C   0  0  1  0  0  0  0  0  0  0  0  0
  -25.3560  -31.4430   26.3670 C   0  0  0  0  0  1  0  0  0  0  0  0
  -26.8810  -30.3010   24.7480 C   0  0  0  0  0  1  0  0  0  0  0  0
  -27.6290  -32.3720   25.8900 C   0  0  0  0  0  1  0  0  0  0  0  0
  -30.0930  -21.4150   22.6370 C   0  0  0  0  0  2  0  0  0  0  0  0
  -31.3800  -20.6380   22.2900 C   0  0  0  0  0  2  0  0  0  0  0  0
  -30.7040  -14.3880   20.0540 C   0  0  0  0  0  0  0  0  0  0  0  0
  -30.3320  -12.2690   18.8460 C   0  0  0  0  0  2  0  0  0  0  0  0
  -29.3250  -12.4570   17.6950 C   0  0  0  0  0  2  0  0  0  0  0  0
  -27.8800  -12.2850   18.2020 C   0  0  0  0  0  2  0  0  0  0  0  0
  -27.5920  -13.1280   19.4720 C   0  0  0  0  0  3  0  0  0  0  0  0
  -28.7020  -12.9260   20.5280 C   0  0  0  0  0  2  0  0  0  0  0  0
  -30.0070  -13.2300   19.9110 N   0  0  0  0  0  0  0  0  0  0  0  0
  -31.6640  -14.6800   19.3330 O   0  0  0  0  0  0  0  0  0  0  0  0
  -30.5780  -16.8970   22.7130 C   0  0  0  0  0  3  0  0  0  0  0  0
  -31.1320  -18.6790   20.7090 C   0  0  0  0  0  3  0  0  0  0  0  0
  -30.8340  -18.2360   23.0660 C   0  0  0  0  0  0  0  0  0  0  0  0
  -31.1100  -19.1590   22.0300 C   0  0  0  0  0  0  0  0  0  0  0  0
  -30.6280  -16.4960   21.3630 C   0  0  0  0  0  0  0  0  0  0  0  0
  -30.8070  -18.6480   24.5270 C   0  0  0  0  0  1  0  0  0  0  0  0
  -30.8940  -17.3920   20.3840 N   0  0  0  0  0  0  0  0  0  0  0  0
  -30.3340  -15.1360   21.1060 N   0  0  0  0  0  0  0  0  0  0  0  0
  -29.7000  -14.6900   21.7480 H   0  0  0  0  0  0  0  0  0  0  0  0
  -25.2140  -13.6920   20.2880 C   0  0  0  0  0  0  0  0  0  0  0  0
  -24.1850  -12.9000   20.7240 C   0  0  0  0  0  0  0  0  0  0  0  0
  -24.6780  -11.5590   20.6910 C   0  0  0  0  0  0  0  0  0  0  0  0
  -26.2680  -12.8320   20.0180 N   0  0  0  0  0  0  0  0  0  0  0  0
  -25.9500  -11.5450   20.3160 N   0  0  0  0  0  0  0  0  0  0  0  0
  -23.9970  -10.2830   20.9410 C   0  0  0  0  0  0  0  0  0  0  0  0
  -24.4280   -9.4030   21.9590 C   0  0  0  0  0  3  0  0  0  0  0  0
  -23.7460   -8.1900   22.1930 C   0  0  0  0  0  3  0  0  0  0  0  0
  -22.6190   -7.8460   21.4090 C   0  0  0  0  0  0  0  0  0  0  0  0
  -22.2080   -8.7140   20.3820 C   0  0  0  0  0  3  0  0  0  0  0  0
  -22.8900   -9.9190   20.1480 C   0  0  0  0  0  3  0  0  0  0  0  0
  -21.9130   -6.6750   21.5450 O   0  0  0  0  0  0  0  0  0  0  0  0
  -21.7580   -6.0660   22.7640 C   0  0  0  0  0  0  0  0  0  0  0  0
  -21.1520   -6.7260   23.8540 C   0  0  0  0  0  3  0  0  0  0  0  0
  -20.9480   -6.0400   25.0680 C   0  0  0  0  0  3  0  0  0  0  0  0
  -21.3400   -4.6930   25.1910 C   0  0  0  0  0  0  0  0  0  0  0  0
  -21.9390   -4.0320   24.1040 C   0  0  0  0  0  3  0  0  0  0  0  0
  -22.1440   -4.7160   22.8940 C   0  0  0  0  0  0  0  0  0  0  0  0
  -22.7010   -4.0680   21.8420 F   0  0  0  0  0  0  0  0  0  0  0  0
  -21.1370   -4.0310   26.3550 F   0  0  0  0  0  0  0  0  0  0  0  0
  -22.7910  -13.3460   21.0630 C   0  0  0  0  0  0  0  0  0  0  0  0
  -22.1340  -12.6550   21.9870 N   0  0  0  0  0  0  0  0  0  0  0  0
  -22.2940  -14.3430   20.5410 O   0  0  0  0  0  0  0  0  0  0  0  0
  -22.5500  -11.8510   22.4330 H   0  0  0  0  0  0  0  0  0  0  0  0
  -21.2030  -12.9390   22.2580 H   0  0  0  0  0  0  0  0  0  0  0  0
  -25.3370  -15.0630   20.0840 N   0  0  0  0  0  0  0  0  0  0  0  0
  -24.5690  -15.7080   20.2420 H   0  0  0  0  0  0  0  0  0  0  0  0
  -26.1680  -15.5150   19.7230 H   0  0  0  0  0  0  0  0  0  0  0  0
  2  3  1  0
  3  5  1  0
  3  1  1  0
  3  4  1  6
  6  7  1  0
  6  5  1  0
  8 10  1  0
  8  7  1  0
  9 20  2  0
 10 15  1  0
 11 19  1  0
 11 21  1  0
 12 18  1  0
 12 14  1  0
 13 19  1  0
 14 13  1  0
 15 14  2  0
 16 17  1  0
 16 10  2  0
 17 12  2  0
 18 11  1  0
 19  9  1  0
 21 23  2  0
 22 21  1  0
 24 22  1  0
 25 34  2  0
 25 30  1  0
 26 22  1  0
 26 30  1  0
 27 26  1  0
 28 29  1  0
 28 27  1  0
 29 25  1  0
 30 31  2  0
 31 32  1  0
 33 32  2  0
 34 33  1  0
 35  9  1  0
 35 36  1  0
 35 45  1  0
 36 39  1  0
 37 41  1  0
 37 36  1  0
 38 37  2  0
 41 40  1  0
 43 41  1  0
 43 44  1  0
 43 42  1  0
 45 48  1  1
 45 46  1  0
 47 45  1  0
 49  1  1  0
 50 49  1  0
 51 66  1  0
 52 57  1  0
 53 54  1  0
 53 52  1  0
 55 54  1  0
 55 71  1  0
 55 56  1  0
 57 51  1  0
 57 56  1  0
 58 51  2  0
 59 61  1  0
 60 62  1  0
 61 64  1  0
 62 50  1  0
 62 61  2  0
 63 59  2  0
 65 60  2  0
 65 63  1  0
 66 63  1  0
 66 67  1  0
 68 69  2  0
 69 88  1  0
 70 69  1  0
 70 73  1  0
 71 68  1  0
 71 72  1  0
 72 70  2  0
 73 74  1  0
 74 75  2  0
 76 79  1  0
 76 75  1  0
 77 76  2  0
 78 77  1  0
 78 73  2  0
 79 80  1  0
 80 85  2  0
 80 81  1  0
 81 82  2  0
 82 83  1  0
 83 87  1  0
 84 83  2  0
 85 84  1  0
 86 85  1  0
 88 89  1  0
 89 92  1  0
 89 91  1  0
 90 88  2  0
 93 94  1  0
 93 68  1  0
 95 93  1  0
M  ISO  4   7 101   8 101  51 100  66 100
M  END
>  <TORSDO>  (18) 
F 22

>  <SCORE>  (18) 
-10.658

>  <name>  (18) 
17

>  <ligand_id>  (18) 
17

>  <original_smiles>  (18) 
[H]c1nc(N([H])C(=O)N2C([H])([H])C([H])([H])C([H])([H])C([H])(n3nc(-c4c([H])c([H])c(Oc5c([H])c([H])c(F)c([H])c5F)c([H])c4[H])c(C(=O)N([H])[H])c3N([H])[H])C2([H])[H])c([H])c(C([H])([H])[H])c1C([H])([H])C([H])([H])C([H])([H])[N+]([H])(C([H])([H])[H])C([H])([H])C([H])([H])C([H])([H])Oc1c([H])c([H])c2c(c1[H])C([H])([H])N(C(=O)C([H])(N([H])C(=O)C([H])(N([H])C([H])([H])[H])C([H])([H])[H])C(C([H])([H])[H])(C([H])([H])[H])C([H])([H])[H])C([H])(C(=O)N([H])C1([H])c3c([H])c([H])c([H])c([H])c3C([H])([H])C([H])([H])C1([H])[H])C2([H])[H]

>  <smiles>  (18) 
[H]c1nc(N([H])C(=O)N2C([H])([H])C([H])([H])C([H])([H])C([H])(n3nc(-c4c([H])c([H])c(Oc5c([H])c([H])c(F)c([H])c5F)c([H])c4[H])c(C(=O)N([H])[H])c3N([H])[H])C2([H])[H])c([H])c(C([H])([H])[H])c1C([H])([H])C([H])([H])C([H])([H])[N+]([H])(C([H])([H])[H])C([H])([H])C([H])([H])C([H])([H])Oc1c([H])c([H])c2c(c1[H])C([H])([H])N(C(=O)C([H])(N([H])C(=O)C([H])(N([H])C([H])([H])[H])C([H])([H])[H])C(C([H])([H])[H])(C([H])([H])[H])C([H])([H])[H])C([H])(C(=O)N([H])C1([H])c3c([H])c([H])c([H])c([H])c3C([H])([H])C([H])([H])C1([H])[H])C2([H])[H]

$$$$
18:0:0
     RDKit          3D

 88 96  0  0  1  0  0  0  0  0999 V2000
  -29.4230  -19.8930   20.5590 C   0  0  0  0  0  0  0  0  0  0  0  0
  -29.1680  -21.2530   20.0090 N   0  0  0  0  0  0  0  0  0  0  0  0
  -29.3020  -19.7920   21.7800 O   0  0  0  0  0  0  0  0  0  0  0  0
  -29.2470  -21.2500   19.0000 H   0  0  0  0  0  0  0  0  0  0  0  0
  -30.4150  -15.4330   20.1630 C   0  0  0  0  0  0  0  0  0  0  0  0
  -30.3810  -12.9570   19.3350 C   0  0  0  0  0  2  0  0  0  0  0  0
  -29.4540  -12.6850   18.1220 C   0  0  0  0  0  2  0  0  0  0  0  0
  -28.0180  -12.3790   18.5850 C   0  0  0  0  0  2  0  0  0  0  0  0
  -27.5460  -13.3600   19.6800 C   0  0  0  0  0  3  0  0  0  0  0  0
  -28.6090  -13.6080   20.7810 C   0  0  0  0  0  2  0  0  0  0  0  0
  -29.8280  -14.1220   20.1190 N   0  0  0  0  0  0  0  0  0  0  0  0
  -31.6520  -15.3850   20.0740 O   0  0  0  0  0  0  0  0  0  0  0  0
  -28.0350  -17.8380   18.5500 C   0  0  0  0  0  2  0  0  0  0  0  0
  -29.3650  -18.5320   18.3570 C   0  0  0  0  0  2  0  0  0  0  0  0
  -28.4540  -16.5410   19.2380 C   0  0  0  0  0  2  0  0  0  0  0  0
  -29.9170  -18.3960   19.7730 C   0  0  0  0  0  3  0  0  0  0  0  0
  -29.6720  -16.7420   20.0380 N   0  0  0  0  0  0  0  0  0  0  0  0
  -25.1840  -13.9500   20.4480 C   0  0  0  0  0  0  0  0  0  0  0  0
  -24.1200  -13.1830   20.8220 C   0  0  0  0  0  0  0  0  0  0  0  0
  -24.5860  -11.8320   20.8000 C   0  0  0  0  0  0  0  0  0  0  0  0
  -26.2250  -13.0670   20.2100 N   0  0  0  0  0  0  0  0  0  0  0  0
  -25.8760  -11.7870   20.4900 N   0  0  0  0  0  0  0  0  0  0  0  0
  -23.8570  -10.5760   20.9930 C   0  0  0  0  0  0  0  0  0  0  0  0
  -24.2810   -9.6170   21.9370 C   0  0  0  0  0  3  0  0  0  0  0  0
  -23.5510   -8.4240   22.1190 C   0  0  0  0  0  3  0  0  0  0  0  0
  -22.3830   -8.1850   21.3580 C   0  0  0  0  0  0  0  0  0  0  0  0
  -21.9780   -9.1340   20.4020 C   0  0  0  0  0  3  0  0  0  0  0  0
  -22.7090  -10.3180   20.2180 C   0  0  0  0  0  3  0  0  0  0  0  0
  -21.6240   -7.0450   21.4510 O   0  0  0  0  0  0  0  0  0  0  0  0
  -21.5610   -6.3170   22.6110 C   0  0  0  0  0  0  0  0  0  0  0  0
  -21.1110   -6.8840   23.8230 C   0  0  0  0  0  3  0  0  0  0  0  0
  -20.9960   -6.0810   24.9760 C   0  0  0  0  0  3  0  0  0  0  0  0
  -21.3220   -4.7130   24.9170 C   0  0  0  0  0  0  0  0  0  0  0  0
  -21.7660   -4.1450   23.7100 C   0  0  0  0  0  3  0  0  0  0  0  0
  -21.8830   -4.9460   22.5600 C   0  0  0  0  0  0  0  0  0  0  0  0
  -22.2910   -4.3900   21.3930 F   0  0  0  0  0  0  0  0  0  0  0  0
  -21.2030   -3.9400   26.0220 F   0  0  0  0  0  0  0  0  0  0  0  0
  -22.7250  -13.6690   21.0800 C   0  0  0  0  0  0  0  0  0  0  0  0
  -21.9880  -12.9840   21.9460 N   0  0  0  0  0  0  0  0  0  0  0  0
  -22.2970  -14.6950   20.5510 O   0  0  0  0  0  0  0  0  0  0  0  0
  -22.3470  -12.1560   22.3990 H   0  0  0  0  0  0  0  0  0  0  0  0
  -21.0520  -13.2930   22.1640 H   0  0  0  0  0  0  0  0  0  0  0  0
  -25.3270  -15.3200   20.2600 N   0  0  0  0  0  0  0  0  0  0  0  0
  -24.5480  -15.9590   20.3720 H   0  0  0  0  0  0  0  0  0  0  0  0
  -26.1610  -15.7720   19.9150 H   0  0  0  0  0  0  0  0  0  0  0  0
  -28.9490  -22.8160   20.5850 C   0  0  0  0  0  3  0  0  0  0  0  0
  -28.1640  -24.3180   19.9460 C   0  0  0  0  0  3  0  0  0  0  0  0
  -28.2370  -25.9320   20.3130 O   0  0  0  0  0  0  0  0  0  0  0  0
  -24.6210  -31.8740   23.2320 C   0  0  0  0  0  0  0  0  0  0  0  0
  -27.2060  -27.0090   20.2120 C   0  0  0  0  0  0  0  0  0  0  0  0
  -23.4310  -30.4730   21.5930 C   0  0  0  0  0  3  0  0  0  0  0  0
  -24.8870  -28.8720   20.1670 C   0  0  0  0  0  0  0  0  0  0  0  0
  -25.9950  -30.6950   21.4450 C   0  0  0  0  0  2  0  0  0  0  0  0
  -26.0720  -29.2850   20.7890 C   0  0  0  0  0  0  0  0  0  0  0  0
  -27.2210  -28.3740   20.7880 C   0  0  0  0  0  3  0  0  0  0  0  0
  -25.9910  -26.7480   19.5370 C   0  0  0  0  0  3  0  0  0  0  0  0
  -24.8720  -27.6250   19.5210 C   0  0  0  0  0  3  0  0  0  0  0  0
  -23.6620  -29.7870   20.2180 C   0  0  0  0  0  2  0  0  0  0  0  0
  -24.7040  -31.0420   22.1440 N   0  0  0  0  0  0  0  0  0  0  0  0
  -23.5310  -32.1620   23.7540 O   0  0  0  0  0  0  0  0  0  0  0  0
  -22.7390  -29.4780   22.5610 C   0  0  0  0  0  0  0  0  0  0  0  0
  -21.4100  -29.3100   22.4360 N   0  0  0  0  0  0  0  0  0  0  0  0
  -23.4060  -28.8580   23.3930 O   0  0  0  0  0  0  0  0  0  0  0  0
  -20.9240  -29.8610   21.7420 H   0  0  0  0  0  0  0  0  0  0  0  0
  -18.0330  -28.0780   22.9370 C   0  0  0  0  0  0  0  0  0  0  0  0
  -20.5900  -28.3690   23.2090 C   0  0  0  0  0  3  0  0  0  0  0  0
  -20.7060  -26.9350   22.6420 C   0  0  0  0  0  2  0  0  0  0  0  0
  -19.6110  -26.5980   21.6250 C   0  0  0  0  0  2  0  0  0  0  0  0
  -18.2250  -26.7300   22.2630 C   0  0  0  0  0  2  0  0  0  0  0  0
  -19.1430  -28.8540   23.3660 C   0  0  0  0  0  0  0  0  0  0  0  0
  -18.9060  -30.1130   23.9610 C   0  0  0  0  0  3  0  0  0  0  0  0
  -17.5960  -30.5980   24.1260 C   0  0  0  0  0  3  0  0  0  0  0  0
  -16.5010  -29.8200   23.7100 C   0  0  0  0  0  3  0  0  0  0  0  0
  -16.7200  -28.5620   23.1220 C   0  0  0  0  0  3  0  0  0  0  0  0
  -25.8910  -32.5210   23.8640 C   0  0  0  0  0  3  0  0  0  0  0  0
  -25.5720  -33.9230   24.1920 N   0  0  0  0  0  0  0  0  0  0  0  0
  -25.9020  -34.9820   23.4410 C   0  0  0  0  0  0  0  0  0  0  0  0
  -26.5700  -34.8820   22.4090 O   0  0  0  0  0  0  0  0  0  0  0  0
  -24.9750  -34.0730   24.9920 H   0  0  0  0  0  0  0  0  0  0  0  0
  -24.1720  -36.7820   23.1060 C   0  0  0  0  0  1  0  0  0  0  0  0
  -25.4200  -36.3720   23.9060 C   0  0  0  0  0  3  0  0  0  0  0  0
  -27.5570  -37.2610   24.7260 C   0  0  0  0  0  1  0  0  0  0  0  0
  -26.4510  -37.4260   23.7870 N   0  0  0  0  0  0  0  0  0  0  0  0
  -26.0450  -38.3460   23.9330 H   0  0  0  0  0  0  0  0  0  0  0  0
  -26.3920  -31.7650   25.1570 C   0  0  1  0  0  0  0  0  0  0  0  0
  -25.2880  -31.5430   26.2180 C   0  0  0  0  0  1  0  0  0  0  0  0
  -26.9760  -30.3800   24.7950 C   0  0  0  0  0  1  0  0  0  0  0  0
  -27.5390  -32.5640   25.8200 C   0  0  0  0  0  1  0  0  0  0  0  0
  1  3  2  0
  2  1  1  0
  2 46  1  0
  4  2  1  0
  6 11  1  0
  7  8  1  0
  7  6  1  0
  9  8  1  0
  9 21  1  0
  9 10  1  0
 11  5  1  0
 11 10  1  0
 12  5  2  0
 13 15  1  0
 14 13  1  0
 14 16  1  0
 15 17  1  0
 16 17  1  0
 16  1  1  0
 17  5  1  0
 18 19  2  0
 19 38  1  0
 20 19  1  0
 20 23  1  0
 21 18  1  0
 21 22  1  0
 22 20  2  0
 23 24  1  0
 24 25  2  0
 26 29  1  0
 26 25  1  0
 27 26  2  0
 28 27  1  0
 28 23  2  0
 29 30  1  0
 30 31  1  0
 31 32  2  0
 33 32  1  0
 33 37  1  0
 34 33  2  0
 35 30  2  0
 35 34  1  0
 36 35  1  0
 38 39  1  0
 39 42  1  0
 39 41  1  0
 40 38  2  0
 43 44  1  0
 43 18  1  0
 45 43  1  0
 47 48  1  0
 47 46  2  0
 49 60  2  0
 50 48  1  0
 50 55  1  0
 51 59  1  0
 51 61  1  0
 52 58  1  0
 52 54  1  0
 53 59  1  0
 54 53  1  0
 55 54  2  0
 56 50  2  0
 57 56  1  0
 57 52  2  0
 58 51  1  0
 59 49  1  0
 61 63  2  0
 62 61  1  0
 64 62  1  0
 65 74  2  0
 65 70  1  0
 66 62  1  0
 66 70  1  0
 67 66  1  0
 68 69  1  0
 68 67  1  0
 69 65  1  0
 70 71  2  0
 71 72  1  0
 73 72  2  0
 74 73  1  0
 75 49  1  0
 75 76  1  0
 75 85  1  0
 76 79  1  0
 77 81  1  0
 77 76  1  0
 78 77  2  0
 81 80  1  0
 83 81  1  0
 83 84  1  0
 83 82  1  0
 85 88  1  1
 85 86  1  0
 87 85  1  0
M  ISO  4   5 100  17 100  47 101  48 101
M  END
>  <TORSDO>  (19) 
F 18

>  <SCORE>  (19) 
-16.300

>  <name>  (19) 
18

>  <ligand_id>  (19) 
18

>  <original_smiles>  (19) 
[H]c1c([H])c([H])c2c(c1[H])C([H])([H])C([H])([H])C([H])([H])C2([H])N([H])C(=O)C1([H])N(C(=O)C([H])(N([H])C(=O)C([H])(N([H])C([H])([H])[H])C([H])([H])[H])C(C([H])([H])[H])(C([H])([H])[H])C([H])([H])[H])C([H])([H])c2c([H])c(OC([H])([H])C([H])([H])N([H])C(=O)C3([H])N(C(=O)N4C([H])([H])C([H])([H])C([H])([H])C([H])(n5nc(-c6c([H])c([H])c(Oc7c([H])c([H])c(F)c([H])c7F)c([H])c6[H])c(C(=O)N([H])[H])c5N([H])[H])C4([H])[H])C([H])([H])C([H])([H])C3([H])[H])c([H])c([H])c2C1([H])[H]

>  <smiles>  (19) 
[H]c1c([H])c([H])c2c(c1[H])C([H])([H])C([H])([H])C([H])([H])C2([H])N([H])C(=O)C1([H])N(C(=O)C([H])(N([H])C(=O)C([H])(N([H])C([H])([H])[H])C([H])([H])[H])C(C([H])([H])[H])(C([H])([H])[H])C([H])([H])[H])C([H])([H])c2c([H])c(OC([H])([H])C([H])([H])N([H])C(=O)C3([H])N(C(=O)N4C([H])([H])C([H])([H])C([H])([H])C([H])(n5nc(-c6c([H])c([H])c(Oc7c([H])c([H])c(F)c([H])c7F)c([H])c6[H])c(C(=O)N([H])[H])c5N([H])[H])C4([H])[H])C([H])([H])C([H])([H])C3([H])[H])c([H])c([H])c2C1([H])[H]

$$$$
19:0:0
     RDKit          3D

 91 99  0  0  1  0  0  0  0  0999 V2000
  -29.2130  -21.5890   20.2330 C   0  0  0  0  0  3  0  0  0  0  0  0
  -28.6590  -21.1350   17.6930 C   0  0  0  0  0  3  0  0  0  0  0  0
  -28.7860  -22.8780   19.4780 C   0  0  0  0  0  0  0  0  0  0  0  0
  -28.5310  -22.4890   18.1370 C   0  0  0  0  0  0  0  0  0  0  0  0
  -29.3400  -20.1290   19.7250 C   0  0  0  0  0  0  0  0  0  0  0  0
  -28.0650  -23.5310   17.1360 C   0  0  0  0  0  1  0  0  0  0  0  0
  -29.0250  -20.0330   18.4160 N   0  0  0  0  0  0  0  0  0  0  0  0
  -29.9650  -18.6200   20.4110 C   0  0  0  0  0  2  0  0  0  0  0  0
  -30.5370  -15.6810   20.1810 C   0  0  0  0  0  0  0  0  0  0  0  0
  -30.6010  -13.1850   19.3970 C   0  0  0  0  0  2  0  0  0  0  0  0
  -29.7060  -12.8570   18.1750 C   0  0  0  0  0  2  0  0  0  0  0  0
  -28.2630  -12.5570   18.6160 C   0  0  0  0  0  2  0  0  0  0  0  0
  -27.7640  -13.5660   19.6790 C   0  0  0  0  0  3  0  0  0  0  0  0
  -28.7920  -13.8220   20.8000 C   0  0  0  0  0  2  0  0  0  0  0  0
  -29.9990  -14.3550   20.1450 N   0  0  0  0  0  0  0  0  0  0  0  0
  -31.7710  -15.6770   20.0460 O   0  0  0  0  0  0  0  0  0  0  0  0
  -29.7520  -16.9560   20.1800 N   0  0  0  0  0  0  0  0  0  0  0  0
  -28.7650  -16.7490   20.1330 H   0  0  0  0  0  0  0  0  0  0  0  0
  -25.3860  -14.1030   20.4180 C   0  0  0  0  0  0  0  0  0  0  0  0
  -24.3310  -13.3180   20.7890 C   0  0  0  0  0  0  0  0  0  0  0  0
  -24.8130  -11.9730   20.7760 C   0  0  0  0  0  0  0  0  0  0  0  0
  -26.4400  -13.2370   20.1900 N   0  0  0  0  0  0  0  0  0  0  0  0
  -26.1080  -11.9500   20.4750 N   0  0  0  0  0  0  0  0  0  0  0  0
  -24.0980  -10.7060   20.9730 C   0  0  0  0  0  0  0  0  0  0  0  0
  -24.5210   -9.7570   21.9300 C   0  0  0  0  0  3  0  0  0  0  0  0
  -23.8010   -8.5570   22.1160 C   0  0  0  0  0  3  0  0  0  0  0  0
  -22.6430   -8.2960   21.3440 C   0  0  0  0  0  0  0  0  0  0  0  0
  -22.2400   -9.2330   20.3760 C   0  0  0  0  0  3  0  0  0  0  0  0
  -22.9610  -10.4240   20.1880 C   0  0  0  0  0  3  0  0  0  0  0  0
  -21.8980   -7.1460   21.4370 O   0  0  0  0  0  0  0  0  0  0  0  0
  -21.8280   -6.4260   22.6020 C   0  0  0  0  0  0  0  0  0  0  0  0
  -21.3110   -6.9820   23.7920 C   0  0  0  0  0  3  0  0  0  0  0  0
  -21.1930   -6.1850   24.9480 C   0  0  0  0  0  3  0  0  0  0  0  0
  -21.5820   -4.8330   24.9150 C   0  0  0  0  0  0  0  0  0  0  0  0
  -22.0930   -4.2760   23.7300 C   0  0  0  0  0  3  0  0  0  0  0  0
  -22.2120   -5.0700   22.5760 C   0  0  0  0  0  0  0  0  0  0  0  0
  -22.6850   -4.5220   21.4300 F   0  0  0  0  0  0  0  0  0  0  0  0
  -21.4630   -4.0650   26.0230 F   0  0  0  0  0  0  0  0  0  0  0  0
  -22.9260  -13.7840   21.0380 C   0  0  0  0  0  0  0  0  0  0  0  0
  -22.1970  -13.0940   21.9070 N   0  0  0  0  0  0  0  0  0  0  0  0
  -22.4850  -14.7970   20.4950 O   0  0  0  0  0  0  0  0  0  0  0  0
  -22.5680  -12.2760   22.3660 H   0  0  0  0  0  0  0  0  0  0  0  0
  -21.2540  -13.3910   22.1180 H   0  0  0  0  0  0  0  0  0  0  0  0
  -25.5310  -15.4730   20.2250 N   0  0  0  0  0  0  0  0  0  0  0  0
  -24.7490  -16.1130   20.3150 H   0  0  0  0  0  0  0  0  0  0  0  0
  -26.3620  -15.9160   19.8540 H   0  0  0  0  0  0  0  0  0  0  0  0
  -28.3830  -24.5380   19.9860 C   0  0  0  0  0  3  0  0  0  0  0  0
  -28.2000  -26.0190   19.2110 O   0  0  0  0  0  0  0  0  0  0  0  0
  -24.7090  -31.6890   22.9520 C   0  0  0  0  0  0  0  0  0  0  0  0
  -27.1790  -27.1130   19.3930 C   0  0  0  0  0  0  0  0  0  0  0  0
  -23.4600  -30.4300   21.2490 C   0  0  0  0  0  3  0  0  0  0  0  0
  -24.8620  -28.9820   19.6220 C   0  0  0  0  0  0  0  0  0  0  0  0
  -26.0170  -30.6870   21.0080 C   0  0  0  0  0  2  0  0  0  0  0  0
  -26.0760  -29.3390   20.2250 C   0  0  0  0  0  0  0  0  0  0  0  0
  -27.2280  -28.4310   20.0830 C   0  0  0  0  0  3  0  0  0  0  0  0
  -25.9310  -26.9320   18.7520 C   0  0  0  0  0  3  0  0  0  0  0  0
  -24.8150  -27.8020   18.8650 C   0  0  0  0  0  3  0  0  0  0  0  0
  -23.6380  -29.8800   19.8060 C   0  0  0  0  0  2  0  0  0  0  0  0
  -24.7530  -30.9590   21.7910 N   0  0  0  0  0  0  0  0  0  0  0  0
  -23.6400  -31.9110   23.5460 O   0  0  0  0  0  0  0  0  0  0  0  0
  -22.8230  -29.3380   22.1480 C   0  0  0  0  0  0  0  0  0  0  0  0
  -21.4930  -29.1510   22.0590 N   0  0  0  0  0  0  0  0  0  0  0  0
  -23.5320  -28.6610   22.8960 O   0  0  0  0  0  0  0  0  0  0  0  0
  -20.9690  -29.7520   21.4370 H   0  0  0  0  0  0  0  0  0  0  0  0
  -18.1530  -27.8520   22.6360 C   0  0  0  0  0  0  0  0  0  0  0  0
  -20.7220  -28.1280   22.7750 C   0  0  0  0  0  3  0  0  0  0  0  0
  -20.8010  -26.7650   22.0500 C   0  0  0  0  0  2  0  0  0  0  0  0
  -19.6430  -26.5310   21.0750 C   0  0  0  0  0  2  0  0  0  0  0  0
  -18.3010  -26.5860   21.8100 C   0  0  0  0  0  2  0  0  0  0  0  0
  -19.2880  -28.5850   23.0760 C   0  0  0  0  0  0  0  0  0  0  0  0
  -19.0910  -29.7690   23.8170 C   0  0  0  0  0  3  0  0  0  0  0  0
  -17.7920  -30.2250   24.1170 C   0  0  0  0  0  3  0  0  0  0  0  0
  -16.6730  -29.4890   23.6900 C   0  0  0  0  0  3  0  0  0  0  0  0
  -16.8550  -28.3040   22.9560 C   0  0  0  0  0  3  0  0  0  0  0  0
  -25.9980  -32.2960   23.5860 C   0  0  0  0  0  3  0  0  0  0  0  0
  -26.6250  -31.3800   24.7080 C   0  0  1  0  0  0  0  0  0  0  0  0
  -25.6190  -30.9580   25.8050 C   0  0  0  0  0  1  0  0  0  0  0  0
  -27.2220  -30.0900   24.1010 C   0  0  0  0  0  1  0  0  0  0  0  0
  -27.7960  -32.1220   25.3940 C   0  0  0  0  0  1  0  0  0  0  0  0
  -25.6520  -33.6150   24.1470 N   0  0  0  0  0  0  0  0  0  0  0  0
  -25.9400  -34.7930   23.5770 C   0  0  0  0  0  0  0  0  0  0  0  0
  -26.5880  -34.8840   22.5310 O   0  0  0  0  0  0  0  0  0  0  0  0
  -25.0720  -33.6150   24.9720 H   0  0  0  0  0  0  0  0  0  0  0  0
  -24.1810  -36.5970   23.5550 C   0  0  0  0  0  1  0  0  0  0  0  0
  -25.4350  -36.0720   24.2760 C   0  0  0  0  0  3  0  0  0  0  0  0
  -27.5530  -36.8440   25.2520 C   0  0  0  0  0  1  0  0  0  0  0  0
  -26.4490  -37.1470   24.3460 N   0  0  0  0  0  0  0  0  0  0  0  0
  -26.0270  -38.0230   24.6430 H   0  0  0  0  0  0  0  0  0  0  0  0
  -27.2240  -24.4810   21.0150 C   0  0  0  0  0  2  0  0  0  0  0  0
  -28.7240  -23.5070   22.8770 C   0  0  0  0  0  1  0  0  0  0  0  0
  -27.3560  -23.4780   22.1790 C   0  0  0  0  0  2  0  0  0  0  0  0
  2  4  2  0
  2  7  1  0
  3 47  1  0
  3  1  2  0
  4  3  1  0
  5  1  1  0
  5  8  1  0
  6  4  1  0
  7  5  2  0
 10 15  1  0
 11 12  1  0
 11 10  1  0
 13 12  1  0
 13 22  1  0
 13 14  1  0
 15  9  1  0
 15 14  1  0
 16  9  2  0
 17  9  1  0
 17  8  1  0
 18 17  1  0
 19 20  2  0
 20 39  1  0
 21 20  1  0
 21 24  1  0
 22 19  1  0
 22 23  1  0
 23 21  2  0
 24 25  1  0
 25 26  2  0
 27 30  1  0
 27 26  1  0
 28 27  2  0
 29 28  1  0
 29 24  2  0
 30 31  1  0
 31 32  1  0
 32 33  2  0
 34 33  1  0
 34 38  1  0
 35 34  2  0
 36 31  2  0
 36 35  1  0
 37 36  1  0
 39 40  1  0
 40 43  1  0
 40 42  1  0
 41 39  2  0
 44 45  1  0
 44 19  1  0
 46 44  1  0
 47 89  1  0
 48 50  1  0
 48 47  1  0
 49 60  2  0
 50 55  1  0
 51 59  1  0
 51 61  1  0
 52 58  1  0
 52 54  1  0
 53 59  1  0
 54 53  1  0
 55 54  2  0
 56 57  1  0
 56 50  2  0
 57 52  2  0
 58 51  1  0
 59 49  1  0
 61 63  2  0
 62 61  1  0
 64 62  1  0
 65 74  2  0
 65 70  1  0
 66 62  1  0
 66 70  1  0
 67 66  1  0
 68 69  1  0
 68 67  1  0
 69 65  1  0
 70 71  2  0
 71 72  1  0
 73 72  2  0
 74 73  1  0
 75 49  1  0
 75 80  1  0
 75 76  1  0
 76 79  1  1
 76 77  1  0
 78 76  1  0
 80 83  1  0
 81 80  1  0
 81 85  1  0
 82 81  2  0
 85 84  1  0
 85 87  1  0
 87 88  1  0
 87 86  1  0
 89 91  1  0
 91 90  1  0
M  ISO  4   9 100  17 100  47 101  48 101
M  END
>  <TORSDO>  (20) 
F 20

>  <SCORE>  (20) 
-14.118

>  <name>  (20) 
19

>  <ligand_id>  (20) 
19

>  <original_smiles>  (20) 
[H]c1nc(C([H])([H])N([H])C(=O)N2C([H])([H])C([H])([H])C([H])([H])C([H])(n3nc(-c4c([H])c([H])c(Oc5c([H])c([H])c(F)c([H])c5F)c([H])c4[H])c(C(=O)N([H])[H])c3N([H])[H])C2([H])[H])c([H])c(C([H])(Oc2c([H])c([H])c3c(c2[H])C([H])([H])N(C(=O)C([H])(N([H])C(=O)C([H])(N([H])C([H])([H])[H])C([H])([H])[H])C(C([H])([H])[H])(C([H])([H])[H])C([H])([H])[H])C([H])(C(=O)N([H])C2([H])c4c([H])c([H])c([H])c([H])c4C([H])([H])C([H])([H])C2([H])[H])C3([H])[H])C([H])([H])C([H])([H])C([H])([H])[H])c1C([H])([H])[H]

>  <smiles>  (20) 
[H]c1nc(C([H])([H])N([H])C(=O)N2C([H])([H])C([H])([H])C([H])([H])C([H])(n3nc(-c4c([H])c([H])c(Oc5c([H])c([H])c(F)c([H])c5F)c([H])c4[H])c(C(=O)N([H])[H])c3N([H])[H])C2([H])[H])c([H])c(C([H])(Oc2c([H])c([H])c3c(c2[H])C([H])([H])N(C(=O)C([H])(N([H])C(=O)C([H])(N([H])C([H])([H])[H])C([H])([H])[H])C(C([H])([H])[H])(C([H])([H])[H])C([H])([H])[H])C([H])(C(=O)N([H])C2([H])c4c([H])c([H])c([H])c([H])c4C([H])([H])C([H])([H])C2([H])[H])C3([H])[H])C([H])([H])C([H])([H])C([H])([H])[H])c1C([H])([H])[H]

$$$$
20:0:0
     RDKit          3D

 94102  0  0  1  0  0  0  0  0999 V2000
  -28.8120  -21.8400   19.9110 N   0  0  0  0  0  0  0  0  0  0  0  0
  -30.8290  -15.5840   19.8630 C   0  0  0  0  0  0  0  0  0  0  0  0
  -30.7210  -13.1790   18.9700 C   0  0  0  0  0  2  0  0  0  0  0  0
  -29.7920  -13.0180   17.7430 C   0  0  0  0  0  2  0  0  0  0  0  0
  -28.3450  -12.7650   18.2040 C   0  0  0  0  0  2  0  0  0  0  0  0
  -27.9090  -13.7490   19.3190 C   0  0  0  0  0  3  0  0  0  0  0  0
  -28.9600  -13.8810   20.4380 C   0  0  0  0  0  2  0  0  0  0  0  0
  -30.2070  -14.3220   19.8000 N   0  0  0  0  0  0  0  0  0  0  0  0
  -32.0430  -15.5580   19.6120 O   0  0  0  0  0  0  0  0  0  0  0  0
  -29.4790  -19.3420   21.0980 C   0  0  0  0  0  2  0  0  0  0  0  0
  -29.4770  -19.3630   18.7760 C   0  0  0  0  0  2  0  0  0  0  0  0
  -30.2510  -17.8750   21.0720 C   0  0  0  0  0  2  0  0  0  0  0  0
  -30.2450  -17.8950   18.7830 C   0  0  0  0  0  2  0  0  0  0  0  0
  -29.6630  -20.4570   19.9440 C   0  0  0  0  0  3  0  0  0  0  0  0
  -30.1300  -16.8760   19.9180 N   0  0  0  0  0  0  0  0  0  0  0  0
  -25.5660  -14.3310   20.1480 C   0  0  0  0  0  0  0  0  0  0  0  0
  -24.4940  -13.5610   20.5050 C   0  0  0  0  0  0  0  0  0  0  0  0
  -24.9330  -12.2050   20.4100 C   0  0  0  0  0  0  0  0  0  0  0  0
  -26.5830  -13.4450   19.8410 N   0  0  0  0  0  0  0  0  0  0  0  0
  -26.2160  -12.1580   20.0710 N   0  0  0  0  0  0  0  0  0  0  0  0
  -24.1860  -10.9500   20.5610 C   0  0  0  0  0  0  0  0  0  0  0  0
  -24.6300   -9.9220   21.4220 C   0  0  0  0  0  3  0  0  0  0  0  0
  -23.8820   -8.7340   21.5640 C   0  0  0  0  0  3  0  0  0  0  0  0
  -22.6760   -8.5650   20.8450 C   0  0  0  0  0  0  0  0  0  0  0  0
  -22.2490   -9.5800   19.9720 C   0  0  0  0  0  3  0  0  0  0  0  0
  -22.9970  -10.7610   19.8270 C   0  0  0  0  0  3  0  0  0  0  0  0
  -21.8970   -7.4320   20.9000 O   0  0  0  0  0  0  0  0  0  0  0  0
  -21.8690   -6.6320   22.0140 C   0  0  0  0  0  0  0  0  0  0  0  0
  -21.5160   -7.1370   23.2840 C   0  0  0  0  0  3  0  0  0  0  0  0
  -21.4320   -6.2650   24.3900 C   0  0  0  0  0  3  0  0  0  0  0  0
  -21.6900   -4.8910   24.2250 C   0  0  0  0  0  0  0  0  0  0  0  0
  -22.0380   -4.3860   22.9590 C   0  0  0  0  0  3  0  0  0  0  0  0
  -22.1230   -5.2540   21.8570 C   0  0  0  0  0  0  0  0  0  0  0  0
  -22.4390   -4.7590   20.6350 F   0  0  0  0  0  0  0  0  0  0  0  0
  -21.6020   -4.0520   25.2830 F   0  0  0  0  0  0  0  0  0  0  0  0
  -23.1120  -14.0560   20.8160 C   0  0  0  0  0  0  0  0  0  0  0  0
  -22.3980  -13.3650   21.6990 N   0  0  0  0  0  0  0  0  0  0  0  0
  -22.6750  -15.0900   20.3170 O   0  0  0  0  0  0  0  0  0  0  0  0
  -22.7630  -12.5300   22.1330 H   0  0  0  0  0  0  0  0  0  0  0  0
  -21.4730  -13.6830   21.9510 H   0  0  0  0  0  0  0  0  0  0  0  0
  -25.7520  -15.7050   20.0300 N   0  0  0  0  0  0  0  0  0  0  0  0
  -24.9970  -16.3650   20.1870 H   0  0  0  0  0  0  0  0  0  0  0  0
  -26.6110  -16.1490   19.7290 H   0  0  0  0  0  0  0  0  0  0  0  0
  -29.2120  -23.4080   19.9590 C   0  0  0  0  0  3  0  0  0  0  0  0
  -28.2610  -24.8660   19.6560 C   0  0  0  0  0  3  0  0  0  0  0  0
  -28.4970  -26.4320   19.9400 O   0  0  0  0  0  0  0  0  0  0  0  0
  -24.7030  -31.8410   23.3980 C   0  0  0  0  0  0  0  0  0  0  0  0
  -27.4430  -27.4560   19.9440 C   0  0  0  0  0  0  0  0  0  0  0  0
  -23.5660  -30.5840   21.6090 C   0  0  0  0  0  3  0  0  0  0  0  0
  -25.0780  -29.2020   20.0410 C   0  0  0  0  0  0  0  0  0  0  0  0
  -26.1170  -30.9190   21.5100 C   0  0  0  0  0  2  0  0  0  0  0  0
  -26.2400  -29.5950   20.7180 C   0  0  0  0  0  0  0  0  0  0  0  0
  -27.4190  -28.7440   20.6480 C   0  0  0  0  0  3  0  0  0  0  0  0
  -26.2510  -27.1950   19.2300 C   0  0  0  0  0  3  0  0  0  0  0  0
  -25.1060  -28.0250   19.2770 C   0  0  0  0  0  3  0  0  0  0  0  0
  -23.8240  -30.0610   20.1690 C   0  0  0  0  0  2  0  0  0  0  0  0
  -24.8140  -31.1350   22.2290 N   0  0  0  0  0  0  0  0  0  0  0  0
  -23.6020  -32.0360   23.9370 O   0  0  0  0  0  0  0  0  0  0  0  0
  -22.9060  -29.4660   22.4570 C   0  0  0  0  0  0  0  0  0  0  0  0
  -21.5870  -29.2580   22.2940 N   0  0  0  0  0  0  0  0  0  0  0  0
  -23.5890  -28.7890   23.2310 O   0  0  0  0  0  0  0  0  0  0  0  0
  -21.0880  -29.8640   21.6570 H   0  0  0  0  0  0  0  0  0  0  0  0
  -18.2630  -27.8350   22.5740 C   0  0  0  0  0  0  0  0  0  0  0  0
  -20.7930  -28.2150   22.9540 C   0  0  0  0  0  3  0  0  0  0  0  0
  -20.9920  -26.8410   22.2730 C   0  0  0  0  0  2  0  0  0  0  0  0
  -19.9450  -26.5440   21.1950 C   0  0  0  0  0  2  0  0  0  0  0  0
  -18.5370  -26.5600   21.7960 C   0  0  0  0  0  2  0  0  0  0  0  0
  -19.3200  -28.6210   23.1050 C   0  0  0  0  0  0  0  0  0  0  0  0
  -19.0090  -29.8110   23.7950 C   0  0  0  0  0  3  0  0  0  0  0  0
  -17.6710  -30.2220   23.9540 C   0  0  0  0  0  3  0  0  0  0  0  0
  -16.6290  -29.4360   23.4350 C   0  0  0  0  0  3  0  0  0  0  0  0
  -16.9240  -28.2420   22.7540 C   0  0  0  0  0  3  0  0  0  0  0  0
  -25.9490  -32.4540   24.1040 C   0  0  0  0  0  3  0  0  0  0  0  0
  -26.3220  -31.7180   25.4510 C   0  0  1  0  0  0  0  0  0  0  0  0
  -25.1360  -31.5840   26.4350 C   0  0  0  0  0  1  0  0  0  0  0  0
  -26.8610  -30.2960   25.1710 C   0  0  0  0  0  1  0  0  0  0  0  0
  -27.4600  -32.4830   26.1670 C   0  0  0  0  0  1  0  0  0  0  0  0
  -25.6680  -33.8750   24.3650 N   0  0  0  0  0  0  0  0  0  0  0  0
  -26.0780  -34.8920   23.5930 C   0  0  0  0  0  0  0  0  0  0  0  0
  -26.8000  -34.7280   22.6060 O   0  0  0  0  0  0  0  0  0  0  0  0
  -25.0360  -34.0760   25.1250 H   0  0  0  0  0  0  0  0  0  0  0  0
  -24.4280  -36.7270   23.1000 C   0  0  0  0  0  1  0  0  0  0  0  0
  -25.6220  -36.3140   23.9780 C   0  0  0  0  0  3  0  0  0  0  0  0
  -27.7470  -37.1680   24.8650 C   0  0  0  0  0  1  0  0  0  0  0  0
  -26.6930  -37.3280   23.8660 N   0  0  0  0  0  0  0  0  0  0  0  0
  -26.3140  -38.2670   23.9540 H   0  0  0  0  0  0  0  0  0  0  0  0
  -27.3770  -21.6000   20.1340 C   0  0  0  0  0  2  0  0  0  0  0  0
  -26.5620  -22.8410   20.5870 C   0  0  0  0  0  3  0  0  0  0  0  0
  -26.7160  -23.0860   22.0300 N   0  0  0  0  0  4  0  0  0  0  0  0
  -26.2730  -22.3730   22.5800 H   0  0  0  0  0  0  0  0  0  0  0  0
  -26.3280  -23.9800   22.2790 H   0  0  0  0  0  0  0  0  0  0  0  0
  -27.6980  -23.0990   22.2390 H   0  0  0  0  0  0  0  0  0  0  0  0
  -24.3370  -24.0560   20.1030 C   0  0  0  0  0  1  0  0  0  0  0  0
  -25.0730  -22.7080   20.1920 C   0  0  0  0  0  2  0  0  0  0  0  0
  1 44  1  0
  1 87  1  0
  2 15  1  0
  3  8  1  0
  4  5  1  0
  4  3  1  0
  6  5  1  0
  6 19  1  0
  6  7  1  0
  8  2  1  0
  8  7  1  0
  9  2  2  0
 11 13  1  0
 11 14  1  0
 12 10  1  0
 13 15  1  0
 14  1  1  0
 14 10  1  0
 15 12  1  0
 16 17  2  0
 17 36  1  0
 18 17  1  0
 18 21  1  0
 19 20  1  0
 19 16  1  0
 20 18  2  0
 21 22  1  0
 22 23  2  0
 24 27  1  0
 24 23  1  0
 25 24  2  0
 26 25  1  0
 26 21  2  0
 27 28  1  0
 28 29  1  0
 29 30  2  0
 31 30  1  0
 31 35  1  0
 32 31  2  0
 33 28  2  0
 33 32  1  0
 34 33  1  0
 36 37  1  0
 37 40  1  0
 37 39  1  0
 38 36  2  0
 41 16  1  0
 41 42  1  0
 43 41  1  0
 45 46  1  0
 45 44  2  0
 46 48  1  0
 47 58  2  0
 48 53  1  0
 49 57  1  0
 49 59  1  0
 50 56  1  0
 50 52  1  0
 51 57  1  0
 52 51  1  0
 53 52  2  0
 54 55  1  0
 54 48  2  0
 55 50  2  0
 56 49  1  0
 57 47  1  0
 59 61  2  0
 60 59  1  0
 62 60  1  0
 63 72  2  0
 63 68  1  0
 64 60  1  0
 64 68  1  0
 65 64  1  0
 66 67  1  0
 66 65  1  0
 67 63  1  0
 68 69  2  0
 69 70  1  0
 71 70  2  0
 72 71  1  0
 73 47  1  0
 73 78  1  0
 73 74  1  0
 74 77  1  1
 74 75  1  0
 76 74  1  0
 78 81  1  0
 79 83  1  0
 79 78  1  0
 80 79  2  0
 83 82  1  0
 85 86  1  0
 85 83  1  0
 85 84  1  0
 88 87  1  0
 88 89  1  0
 89 92  1  0
 89 91  1  0
 89 90  1  0
 93 94  1  0
 94 88  1  0
M  ISO  4   2 100  15 100  45 101  46 101
M  END
>  <TORSDO>  (21) 
F 22

>  <SCORE>  (21) 
-12.344

>  <name>  (21) 
20

>  <ligand_id>  (21) 
20

>  <original_smiles>  (21) 
[H]c1c([H])c([H])c2c(c1[H])C([H])([H])C([H])([H])C([H])([H])C2([H])N([H])C(=O)C1([H])N(C(=O)C([H])(N([H])C(=O)C([H])(N([H])C([H])([H])[H])C([H])([H])[H])C(C([H])([H])[H])(C([H])([H])[H])C([H])([H])[H])C([H])([H])c2c([H])c(OC([H])([H])C([H])([H])N(C([H])([H])C([H])(C([H])([H])C([H])([H])[H])[N+]([H])([H])[H])C3([H])C([H])([H])C([H])([H])N(C(=O)N4C([H])([H])C([H])([H])C([H])([H])C([H])(n5nc(-c6c([H])c([H])c(Oc7c([H])c([H])c(F)c([H])c7F)c([H])c6[H])c(C(=O)N([H])[H])c5N([H])[H])C4([H])[H])C([H])([H])C3([H])[H])c([H])c([H])c2C1([H])[H]

>  <smiles>  (21) 
[H]c1c([H])c([H])c2c(c1[H])C([H])([H])C([H])([H])C([H])([H])C2([H])N([H])C(=O)C1([H])N(C(=O)C([H])(N([H])C(=O)C([H])(N([H])C([H])([H])[H])C([H])([H])[H])C(C([H])([H])[H])(C([H])([H])[H])C([H])([H])[H])C([H])([H])c2c([H])c(OC([H])([H])C([H])([H])N(C([H])([H])C([H])(C([H])([H])C([H])([H])[H])[N+]([H])([H])[H])C3([H])C([H])([H])C([H])([H])N(C(=O)N4C([H])([H])C([H])([H])C([H])([H])C([H])(n5nc(-c6c([H])c([H])c(Oc7c([H])c([H])c(F)c([H])c7F)c([H])c6[H])c(C(=O)N([H])[H])c5N([H])[H])C4([H])[H])C([H])([H])C3([H])[H])c([H])c([H])c2C1([H])[H]

$$$$
21:0:0
     RDKit          3D

 90 98  0  0  1  0  0  0  0  0999 V2000
  -29.7610  -19.0170   20.9880 C   0  0  0  0  0  3  0  0  0  0  0  0
  -28.3690  -20.0080   19.5540 C   0  0  0  0  0  3  0  0  0  0  0  0
  -29.2580  -20.3020   20.5480 C   0  0  0  0  0  0  0  0  0  0  0  0
  -29.1390  -17.9970   20.2810 C   0  0  0  0  0  0  0  0  0  0  0  0
  -27.3730  -18.0290   18.4330 C   0  0  0  0  0  1  0  0  0  0  0  0
  -28.2770  -18.6420   19.3960 N   0  0  0  0  0  0  0  0  0  0  0  0
  -29.1450  -16.4540   20.2790 C   0  0  0  0  0  2  0  0  0  0  0  0
  -30.7620  -14.5800   20.4810 C   0  0  0  0  0  0  0  0  0  0  0  0
  -30.4110  -12.3930   19.3680 C   0  0  0  0  0  2  0  0  0  0  0  0
  -29.4920  -12.5390   18.1390 C   0  0  0  0  0  2  0  0  0  0  0  0
  -28.0180  -12.3860   18.5580 C   0  0  0  0  0  2  0  0  0  0  0  0
  -27.6530  -13.2630   19.7830 C   0  0  0  0  0  3  0  0  0  0  0  0
  -28.7040  -13.1490   20.9140 C   0  0  0  0  0  2  0  0  0  0  0  0
  -30.0270  -13.4340   20.3400 N   0  0  0  0  0  0  0  0  0  0  0  0
  -31.9230  -14.6560   20.0860 O   0  0  0  0  0  0  0  0  0  0  0  0
  -30.1900  -15.6990   20.9940 N   0  0  0  0  0  0  0  0  0  0  0  0
  -30.8870  -16.3210   21.3730 H   0  0  0  0  0  0  0  0  0  0  0  0
  -25.2520  -13.8720   20.4650 C   0  0  0  0  0  0  0  0  0  0  0  0
  -24.1800  -13.1040   20.8270 C   0  0  0  0  0  0  0  0  0  0  0  0
  -24.6430  -11.7520   20.8200 C   0  0  0  0  0  0  0  0  0  0  0  0
  -26.3000  -12.9880   20.2610 N   0  0  0  0  0  0  0  0  0  0  0  0
  -25.9390  -11.7090   20.5370 N   0  0  0  0  0  0  0  0  0  0  0  0
  -23.9150  -10.4930   21.0160 C   0  0  0  0  0  0  0  0  0  0  0  0
  -24.3470   -9.5320   21.9560 C   0  0  0  0  0  3  0  0  0  0  0  0
  -23.6220   -8.3350   22.1390 C   0  0  0  0  0  3  0  0  0  0  0  0
  -22.4500   -8.0920   21.3830 C   0  0  0  0  0  0  0  0  0  0  0  0
  -22.0370   -9.0430   20.4340 C   0  0  0  0  0  3  0  0  0  0  0  0
  -22.7620  -10.2310   20.2490 C   0  0  0  0  0  3  0  0  0  0  0  0
  -21.6950   -6.9480   21.4760 O   0  0  0  0  0  0  0  0  0  0  0  0
  -21.6520   -6.2060   22.6280 C   0  0  0  0  0  0  0  0  0  0  0  0
  -21.2440   -6.7630   23.8590 C   0  0  0  0  0  3  0  0  0  0  0  0
  -21.1470   -5.9470   25.0040 C   0  0  0  0  0  3  0  0  0  0  0  0
  -21.4500   -4.5740   24.9190 C   0  0  0  0  0  0  0  0  0  0  0  0
  -21.8500   -4.0170   23.6920 C   0  0  0  0  0  3  0  0  0  0  0  0
  -21.9480   -4.8310   22.5500 C   0  0  0  0  0  0  0  0  0  0  0  0
  -22.3140   -4.2840   21.3660 F   0  0  0  0  0  0  0  0  0  0  0  0
  -21.3500   -3.7880   26.0160 F   0  0  0  0  0  0  0  0  0  0  0  0
  -22.7790  -13.5840   21.0710 C   0  0  0  0  0  0  0  0  0  0  0  0
  -22.0370  -12.9030   21.9370 N   0  0  0  0  0  0  0  0  0  0  0  0
  -22.3500  -14.6050   20.5300 O   0  0  0  0  0  0  0  0  0  0  0  0
  -22.3950  -12.0820   22.4020 H   0  0  0  0  0  0  0  0  0  0  0  0
  -21.0960  -13.2090   22.1370 H   0  0  0  0  0  0  0  0  0  0  0  0
  -25.4170  -15.2390   20.2770 N   0  0  0  0  0  0  0  0  0  0  0  0
  -24.6500  -15.8930   20.3900 H   0  0  0  0  0  0  0  0  0  0  0  0
  -26.2820  -15.6770   19.9970 H   0  0  0  0  0  0  0  0  0  0  0  0
  -29.6030  -21.5820   20.9970 O   0  0  0  0  0  0  0  0  0  0  0  0
  -28.6350  -22.6520   20.7800 C   0  0  0  0  0  2  0  0  0  0  0  0
  -29.1430  -24.1370   20.8190 C   0  0  0  0  0  2  0  0  0  0  0  0
  -28.1020  -25.1410   20.2140 C   0  0  0  0  0  2  0  0  0  0  0  0
  -28.3380  -26.5770   20.3320 O   0  0  0  0  0  0  0  0  0  0  0  0
  -24.6040  -31.9330   23.2620 C   0  0  0  0  0  0  0  0  0  0  0  0
  -27.2120  -27.3970   20.2400 C   0  0  0  0  0  0  0  0  0  0  0  0
  -23.3970  -30.5330   21.6240 C   0  0  0  0  0  3  0  0  0  0  0  0
  -24.8440  -28.9810   20.2090 C   0  0  0  0  0  0  0  0  0  0  0  0
  -25.9350  -30.8560   21.4400 C   0  0  0  0  0  2  0  0  0  0  0  0
  -26.0110  -29.4820   20.8010 C   0  0  0  0  0  0  0  0  0  0  0  0
  -27.1990  -28.7010   20.8070 C   0  0  0  0  0  3  0  0  0  0  0  0
  -26.0250  -26.9430   19.6140 C   0  0  0  0  0  3  0  0  0  0  0  0
  -24.8490  -27.7130   19.6100 C   0  0  0  0  0  3  0  0  0  0  0  0
  -23.6120  -29.8570   20.2460 C   0  0  0  0  0  2  0  0  0  0  0  0
  -24.6640  -31.1230   22.1670 N   0  0  0  0  0  0  0  0  0  0  0  0
  -23.5200  -32.2140   23.7940 O   0  0  0  0  0  0  0  0  0  0  0  0
  -22.7330  -29.5170   22.5830 C   0  0  0  0  0  0  0  0  0  0  0  0
  -21.4070  -29.3450   22.4540 N   0  0  0  0  0  0  0  0  0  0  0  0
  -23.4080  -28.8870   23.4010 O   0  0  0  0  0  0  0  0  0  0  0  0
  -20.9240  -29.9050   21.7650 H   0  0  0  0  0  0  0  0  0  0  0  0
  -18.0180  -28.1910   22.9590 C   0  0  0  0  0  0  0  0  0  0  0  0
  -20.5790  -28.4190   23.2280 C   0  0  0  0  0  3  0  0  0  0  0  0
  -20.6650  -26.9850   22.6540 C   0  0  0  0  0  2  0  0  0  0  0  0
  -19.5580  -26.6760   21.6420 C   0  0  0  0  0  2  0  0  0  0  0  0
  -18.1780  -26.8380   22.2860 C   0  0  0  0  0  2  0  0  0  0  0  0
  -19.1460  -28.9400   23.3880 C   0  0  0  0  0  0  0  0  0  0  0  0
  -18.9410  -30.2080   23.9740 C   0  0  0  0  0  3  0  0  0  0  0  0
  -17.6420  -30.7230   24.1410 C   0  0  0  0  0  3  0  0  0  0  0  0
  -16.5290  -29.9700   23.7290 C   0  0  0  0  0  3  0  0  0  0  0  0
  -16.7180  -28.7050   23.1430 C   0  0  0  0  0  3  0  0  0  0  0  0
  -25.8890  -32.5620   23.8830 C   0  0  0  0  0  3  0  0  0  0  0  0
  -25.5860  -33.9610   24.2080 N   0  0  0  0  0  0  0  0  0  0  0  0
  -25.9130  -35.0080   23.4390 C   0  0  0  0  0  0  0  0  0  0  0  0
  -26.5750  -34.8980   22.4040 O   0  0  0  0  0  0  0  0  0  0  0  0
  -25.0050  -34.1230   25.0170 H   0  0  0  0  0  0  0  0  0  0  0  0
  -24.1810  -36.7970   23.0860 C   0  0  0  0  0  1  0  0  0  0  0  0
  -25.4290  -36.4000   23.8910 C   0  0  0  0  0  3  0  0  0  0  0  0
  -27.5720  -37.2890   24.6960 C   0  0  0  0  0  1  0  0  0  0  0  0
  -26.4610  -37.4520   23.7610 N   0  0  0  0  0  0  0  0  0  0  0  0
  -26.0580  -38.3740   23.9060 H   0  0  0  0  0  0  0  0  0  0  0  0
  -26.3990  -31.7910   25.1610 C   0  0  1  0  0  0  0  0  0  0  0  0
  -25.3030  -31.5590   26.2270 C   0  0  0  0  0  1  0  0  0  0  0  0
  -26.9760  -30.4100   24.7730 C   0  0  0  0  0  1  0  0  0  0  0  0
  -27.5520  -32.5810   25.8240 C   0  0  0  0  0  1  0  0  0  0  0  0
  2  3  2  0
  3  1  1  0
  3 46  1  0
  4  1  2  0
  5  6  1  0
  6  2  1  0
  6  4  1  0
  7  4  1  0
  7 16  1  0
  8 16  1  0
  9 14  1  0
 10 11  1  0
 10  9  1  0
 12 11  1  0
 12 21  1  0
 12 13  1  0
 14  8  1  0
 14 13  1  0
 15  8  2  0
 16 17  1  0
 18 19  2  0
 19 38  1  0
 20 19  1  0
 20 23  1  0
 21 18  1  0
 21 22  1  0
 22 20  2  0
 23 24  1  0
 24 25  2  0
 26 29  1  0
 26 25  1  0
 27 26  2  0
 28 27  1  0
 28 23  2  0
 29 30  1  0
 30 31  1  0
 31 32  2  0
 33 32  1  0
 33 37  1  0
 34 33  2  0
 35 30  2  0
 35 34  1  0
 36 35  1  0
 38 39  1  0
 39 42  1  0
 39 41  1  0
 40 38  2  0
 43 44  1  0
 43 18  1  0
 45 43  1  0
 47 48  1  0
 47 46  1  0
 49 50  1  0
 49 48  1  0
 51 62  2  0
 52 50  1  0
 52 57  1  0
 53 61  1  0
 53 63  1  0
 54 60  1  0
 54 56  1  0
 55 61  1  0
 56 57  2  0
 56 55  1  0
 58 52  2  0
 59 58  1  0
 59 54  2  0
 60 53  1  0
 61 51  1  0
 63 65  2  0
 64 63  1  0
 66 64  1  0
 67 76  2  0
 67 72  1  0
 68 64  1  0
 68 72  1  0
 69 68  1  0
 70 71  1  0
 70 69  1  0
 71 67  1  0
 72 73  2  0
 73 74  1  0
 75 74  2  0
 76 75  1  0
 77 51  1  0
 77 78  1  0
 77 87  1  0
 78 81  1  0
 79 83  1  0
 79 78  1  0
 80 79  2  0
 83 82  1  0
 85 83  1  0
 85 86  1  0
 85 84  1  0
 87 90  1  1
 87 88  1  0
 89 87  1  0
M  ISO  4   8 100  16 100  49 101  50 101
M  END
>  <TORSDO>  (22) 
F 21

>  <SCORE>  (22) 
-13.397

>  <name>  (22) 
21

>  <ligand_id>  (22) 
21

>  <original_smiles>  (22) 
[H]c1c([H])c([H])c2c(c1[H])C([H])([H])C([H])([H])C([H])([H])C2([H])N([H])C(=O)C1([H])N(C(=O)C([H])(N([H])C(=O)C([H])(N([H])C([H])([H])[H])C([H])([H])[H])C(C([H])([H])[H])(C([H])([H])[H])C([H])([H])[H])C([H])([H])c2c([H])c(OC([H])([H])C([H])([H])C([H])([H])Oc3c([H])c(C([H])([H])N([H])C(=O)N4C([H])([H])C([H])([H])C([H])([H])C([H])(n5nc(-c6c([H])c([H])c(Oc7c([H])c([H])c(F)c([H])c7F)c([H])c6[H])c(C(=O)N([H])[H])c5N([H])[H])C4([H])[H])n(C([H])([H])[H])c3[H])c([H])c([H])c2C1([H])[H]

>  <smiles>  (22) 
[H]c1c([H])c([H])c2c(c1[H])C([H])([H])C([H])([H])C([H])([H])C2([H])N([H])C(=O)C1([H])N(C(=O)C([H])(N([H])C(=O)C([H])(N([H])C([H])([H])[H])C([H])([H])[H])C(C([H])([H])[H])(C([H])([H])[H])C([H])([H])[H])C([H])([H])c2c([H])c(OC([H])([H])C([H])([H])C([H])([H])Oc3c([H])c(C([H])([H])N([H])C(=O)N4C([H])([H])C([H])([H])C([H])([H])C([H])(n5nc(-c6c([H])c([H])c(Oc7c([H])c([H])c(F)c([H])c7F)c([H])c6[H])c(C(=O)N([H])[H])c5N([H])[H])C4([H])[H])n(C([H])([H])[H])c3[H])c([H])c([H])c2C1([H])[H]

$$$$
22:0:0
     RDKit          3D

 89 96  0  0  1  0  0  0  0  0999 V2000
  -29.2490  -21.9200   20.1540 C   0  0  0  0  0  2  0  0  0  0  0  0
  -28.8450  -20.4260   20.5390 N   0  0  0  0  0  4  0  0  0  0  0  0
  -27.8410  -20.3770   20.4650 H   0  0  0  0  0  0  0  0  0  0  0  0
  -29.0420  -20.3540   21.5250 H   0  0  0  0  0  0  0  0  0  0  0  0
  -28.4750  -18.7040   18.6900 C   0  0  0  0  0  1  0  0  0  0  0  0
  -29.3800  -19.0740   19.8750 C   0  0  0  0  0  3  0  0  0  0  0  0
  -29.7020  -17.6740   20.7760 C   0  0  0  0  0  2  0  0  0  0  0  0
  -30.4420  -14.9980   20.2970 C   0  0  0  0  0  0  0  0  0  0  0  0
  -30.3480  -12.6470   19.3390 C   0  0  0  0  0  2  0  0  0  0  0  0
  -29.4060  -12.5980   18.1150 C   0  0  0  0  0  2  0  0  0  0  0  0
  -27.9460  -12.3790   18.5560 C   0  0  0  0  0  2  0  0  0  0  0  0
  -27.5380  -13.3060   19.7330 C   0  0  0  0  0  3  0  0  0  0  0  0
  -28.5980  -13.3160   20.8500 C   0  0  0  0  0  2  0  0  0  0  0  0
  -29.8570  -13.7360   20.2230 N   0  0  0  0  0  0  0  0  0  0  0  0
  -31.6640  -15.0730   20.1430 O   0  0  0  0  0  0  0  0  0  0  0  0
  -29.6080  -16.1530   20.3190 N   0  0  0  0  0  0  0  0  0  0  0  0
  -28.6490  -15.8800   20.1750 H   0  0  0  0  0  0  0  0  0  0  0  0
  -25.1610  -13.8930   20.4770 C   0  0  0  0  0  0  0  0  0  0  0  0
  -24.0990  -13.1190   20.8540 C   0  0  0  0  0  0  0  0  0  0  0  0
  -24.5640  -11.7690   20.8300 C   0  0  0  0  0  0  0  0  0  0  0  0
  -26.2020  -13.0120   20.2380 N   0  0  0  0  0  0  0  0  0  0  0  0
  -25.8550  -11.7310   20.5210 N   0  0  0  0  0  0  0  0  0  0  0  0
  -23.8380  -10.5080   21.0220 C   0  0  0  0  0  0  0  0  0  0  0  0
  -24.2640   -9.5450   21.9630 C   0  0  0  0  0  3  0  0  0  0  0  0
  -23.5380   -8.3480   22.1440 C   0  0  0  0  0  3  0  0  0  0  0  0
  -22.3690   -8.1050   21.3820 C   0  0  0  0  0  0  0  0  0  0  0  0
  -21.9650   -9.0540   20.4260 C   0  0  0  0  0  3  0  0  0  0  0  0
  -22.6920  -10.2420   20.2450 C   0  0  0  0  0  3  0  0  0  0  0  0
  -21.6140   -6.9610   21.4730 O   0  0  0  0  0  0  0  0  0  0  0  0
  -21.5540   -6.2280   22.6300 C   0  0  0  0  0  0  0  0  0  0  0  0
  -21.1090   -6.7880   23.8460 C   0  0  0  0  0  3  0  0  0  0  0  0
  -20.9990   -5.9790   24.9950 C   0  0  0  0  0  3  0  0  0  0  0  0
  -21.3230   -4.6120   24.9280 C   0  0  0  0  0  0  0  0  0  0  0  0
  -21.7600   -4.0510   23.7150 C   0  0  0  0  0  3  0  0  0  0  0  0
  -21.8730   -4.8560   22.5690 C   0  0  0  0  0  0  0  0  0  0  0  0
  -22.2750   -4.3060   21.3970 F   0  0  0  0  0  0  0  0  0  0  0  0
  -21.2090   -3.8320   26.0290 F   0  0  0  0  0  0  0  0  0  0  0  0
  -22.7000  -13.5960   21.1190 C   0  0  0  0  0  0  0  0  0  0  0  0
  -21.9640  -12.9040   21.9820 N   0  0  0  0  0  0  0  0  0  0  0  0
  -22.2630  -14.6190   20.5910 O   0  0  0  0  0  0  0  0  0  0  0  0
  -22.3290  -12.0790   22.4360 H   0  0  0  0  0  0  0  0  0  0  0  0
  -21.0240  -13.2030   22.1950 H   0  0  0  0  0  0  0  0  0  0  0  0
  -25.3210  -15.2640   20.2850 N   0  0  0  0  0  0  0  0  0  0  0  0
  -24.5470  -15.9110   20.3770 H   0  0  0  0  0  0  0  0  0  0  0  0
  -26.1520  -15.6980   19.9080 H   0  0  0  0  0  0  0  0  0  0  0  0
  -26.7780  -22.7930   20.4390 C   0  0  0  0  0  1  0  0  0  0  0  0
  -28.1960  -23.2620   20.0710 C   0  0  0  0  0  3  0  0  0  0  0  0
  -28.4260  -24.8070   20.7380 C   0  0  0  0  0  2  0  0  0  0  0  0
  -28.3410  -26.2560   20.1630 O   0  0  0  0  0  0  0  0  0  0  0  0
  -24.6250  -31.8780   23.2370 C   0  0  0  0  0  0  0  0  0  0  0  0
  -27.2320  -27.1690   20.2380 C   0  0  0  0  0  0  0  0  0  0  0  0
  -23.4340  -30.4710   21.5970 C   0  0  0  0  0  3  0  0  0  0  0  0
  -24.8920  -28.8870   20.1900 C   0  0  0  0  0  0  0  0  0  0  0  0
  -25.9850  -30.7510   21.4310 C   0  0  0  0  0  2  0  0  0  0  0  0
  -26.0670  -29.3520   20.7960 C   0  0  0  0  0  0  0  0  0  0  0  0
  -27.2410  -28.5100   20.7950 C   0  0  0  0  0  3  0  0  0  0  0  0
  -26.0330  -26.7930   19.6050 C   0  0  0  0  0  3  0  0  0  0  0  0
  -24.8890  -27.6230   19.5760 C   0  0  0  0  0  3  0  0  0  0  0  0
  -23.6620  -29.7810   20.2240 C   0  0  0  0  0  2  0  0  0  0  0  0
  -24.7010  -31.0570   22.1450 N   0  0  0  0  0  0  0  0  0  0  0  0
  -23.5370  -32.1560   23.7660 O   0  0  0  0  0  0  0  0  0  0  0  0
  -22.7590  -29.4670   22.5670 C   0  0  0  0  0  0  0  0  0  0  0  0
  -21.4320  -29.2890   22.4400 N   0  0  0  0  0  0  0  0  0  0  0  0
  -23.4350  -28.8470   23.3920 O   0  0  0  0  0  0  0  0  0  0  0  0
  -20.9440  -29.8460   21.7530 H   0  0  0  0  0  0  0  0  0  0  0  0
  -18.0590  -28.0660   22.9410 C   0  0  0  0  0  0  0  0  0  0  0  0
  -20.6140  -28.3490   23.2130 C   0  0  0  0  0  3  0  0  0  0  0  0
  -20.7280  -26.9150   22.6470 C   0  0  0  0  0  2  0  0  0  0  0  0
  -19.6310  -26.5790   21.6310 C   0  0  0  0  0  2  0  0  0  0  0  0
  -18.2460  -26.7160   22.2710 C   0  0  0  0  0  2  0  0  0  0  0  0
  -19.1700  -28.8400   23.3700 C   0  0  0  0  0  0  0  0  0  0  0  0
  -18.9410  -30.1010   23.9610 C   0  0  0  0  0  3  0  0  0  0  0  0
  -17.6310  -30.5920   24.1250 C   0  0  0  0  0  3  0  0  0  0  0  0
  -16.5340  -29.8170   23.7100 C   0  0  0  0  0  3  0  0  0  0  0  0
  -16.7480  -28.5560   23.1270 C   0  0  0  0  0  3  0  0  0  0  0  0
  -25.8990  -32.5240   23.8640 C   0  0  0  0  0  3  0  0  0  0  0  0
  -25.5820  -33.9240   24.1870 N   0  0  0  0  0  0  0  0  0  0  0  0
  -25.9150  -34.9790   23.4300 C   0  0  0  0  0  0  0  0  0  0  0  0
  -26.5870  -34.8750   22.4000 O   0  0  0  0  0  0  0  0  0  0  0  0
  -24.9840  -34.0780   24.9860 H   0  0  0  0  0  0  0  0  0  0  0  0
  -24.1860  -36.7750   23.0710 C   0  0  0  0  0  1  0  0  0  0  0  0
  -25.4260  -36.3690   23.8850 C   0  0  0  0  0  3  0  0  0  0  0  0
  -27.5590  -37.2600   24.7170 C   0  0  0  0  0  1  0  0  0  0  0  0
  -26.4580  -37.4240   23.7720 N   0  0  0  0  0  0  0  0  0  0  0  0
  -26.0480  -38.3440   23.9190 H   0  0  0  0  0  0  0  0  0  0  0  0
  -26.4110  -31.7650   25.1510 C   0  0  1  0  0  0  0  0  0  0  0  0
  -25.3140  -31.5350   26.2170 C   0  0  0  0  0  1  0  0  0  0  0  0
  -26.9940  -30.3830   24.7770 C   0  0  0  0  0  1  0  0  0  0  0  0
  -27.5560  -32.5650   25.8110 C   0  0  0  0  0  1  0  0  0  0  0  0
  1  2  1  0
  2  4  1  0
  3  2  1  0
  6  5  1  0
  6  2  1  0
  6  7  1  0
  8 16  1  0
  9 14  1  0
 10 11  1  0
 10  9  1  0
 12 11  1  0
 12 21  1  0
 12 13  1  0
 14  8  1  0
 14 13  1  0
 15  8  2  0
 16  7  1  0
 17 16  1  0
 18 19  2  0
 19 38  1  0
 20 19  1  0
 20 23  1  0
 21 18  1  0
 21 22  1  0
 22 20  2  0
 23 24  1  0
 24 25  2  0
 26 29  1  0
 26 25  1  0
 27 26  2  0
 28 27  1  0
 28 23  2  0
 29 30  1  0
 30 31  1  0
 31 32  2  0
 33 32  1  0
 33 37  1  0
 34 33  2  0
 35 30  2  0
 35 34  1  0
 36 35  1  0
 38 39  1  0
 39 42  1  0
 39 41  1  0
 40 38  2  0
 43 44  1  0
 43 18  1  0
 45 43  1  0
 47  1  1  0
 47 46  1  0
 47 48  1  0
 49 51  1  0
 49 48  1  0
 50 61  2  0
 51 56  1  0
 52 60  1  0
 52 62  1  0
 53 59  1  0
 53 55  1  0
 54 60  1  0
 55 54  1  0
 56 55  2  0
 57 51  2  0
 58 57  1  0
 58 53  2  0
 59 52  1  0
 60 50  1  0
 62 64  2  0
 63 62  1  0
 65 63  1  0
 66 75  2  0
 66 71  1  0
 67 63  1  0
 67 71  1  0
 68 67  1  0
 69 70  1  0
 69 68  1  0
 70 66  1  0
 71 72  2  0
 72 73  1  0
 74 73  2  0
 75 74  1  0
 76 50  1  0
 76 77  1  0
 76 86  1  0
 77 80  1  0
 78 82  1  0
 78 77  1  0
 79 78  2  0
 82 81  1  0
 84 82  1  0
 84 85  1  0
 84 83  1  0
 86 89  1  1
 86 87  1  0
 88 86  1  0
M  ISO  4   8 100  16 100  48 101  49 101
M  END
>  <TORSDO>  (23) 
F 21

>  <SCORE>  (23) 
-15.097

>  <name>  (23) 
22

>  <ligand_id>  (23) 
22

>  <original_smiles>  (23) 
[H]c1c([H])c([H])c2c(c1[H])C([H])([H])C([H])([H])C([H])([H])C2([H])N([H])C(=O)C1([H])N(C(=O)C([H])(N([H])C(=O)C([H])(N([H])C([H])([H])[H])C([H])([H])[H])C(C([H])([H])[H])(C([H])([H])[H])C([H])([H])[H])C([H])([H])c2c([H])c(OC([H])([H])C([H])(C([H])([H])[H])C([H])([H])[N+]([H])([H])C([H])(C([H])([H])[H])C([H])([H])N([H])C(=O)N3C([H])([H])C([H])([H])C([H])([H])C([H])(n4nc(-c5c([H])c([H])c(Oc6c([H])c([H])c(F)c([H])c6F)c([H])c5[H])c(C(=O)N([H])[H])c4N([H])[H])C3([H])[H])c([H])c([H])c2C1([H])[H]

>  <smiles>  (23) 
[H]c1c([H])c([H])c2c(c1[H])C([H])([H])C([H])([H])C([H])([H])C2([H])N([H])C(=O)C1([H])N(C(=O)C([H])(N([H])C(=O)C([H])(N([H])C([H])([H])[H])C([H])([H])[H])C(C([H])([H])[H])(C([H])([H])[H])C([H])([H])[H])C([H])([H])c2c([H])c(OC([H])([H])C([H])(C([H])([H])[H])C([H])([H])[N+]([H])([H])C([H])(C([H])([H])[H])C([H])([H])N([H])C(=O)N3C([H])([H])C([H])([H])C([H])([H])C([H])(n4nc(-c5c([H])c([H])c(Oc6c([H])c([H])c(F)c([H])c6F)c([H])c5[H])c(C(=O)N([H])[H])c4N([H])[H])C3([H])[H])c([H])c([H])c2C1([H])[H]

$$$$
23:0:0
     RDKit          3D

 94102  0  0  1  0  0  0  0  0999 V2000
  -29.1120  -22.5970   19.5550 C   0  0  0  0  0  2  0  0  0  0  0  0
  -29.7990  -20.3150   20.9440 C   0  0  0  0  0  3  0  0  0  0  0  0
  -28.7020  -20.1450   19.0460 C   0  0  0  0  0  3  0  0  0  0  0  0
  -29.7610  -18.9330   20.6550 C   0  0  0  0  0  0  0  0  0  0  0  0
  -29.0540  -18.8660   19.4140 C   0  0  0  0  0  0  0  0  0  0  0  0
  -29.1720  -21.1020   19.9380 N   0  0  0  0  0  0  0  0  0  0  0  0
  -30.0550  -17.2560   17.7630 C   0  0  0  0  0  1  0  0  0  0  0  0
  -27.5580  -17.6970   17.7120 C   0  0  0  0  0  1  0  0  0  0  0  0
  -28.8120  -17.6120   18.5920 C   0  0  0  0  0  3  0  0  0  0  0  0
  -30.4550  -17.7040   21.4200 C   0  0  0  0  0  2  0  0  0  0  0  0
  -30.7950  -15.0890   21.2110 C   0  0  0  0  0  0  0  0  0  0  0  0
  -30.7600  -12.7630   20.2960 C   0  0  0  0  0  2  0  0  0  0  0  0
  -29.9710  -12.7200   18.9710 C   0  0  0  0  0  2  0  0  0  0  0  0
  -28.4700  -12.5050   19.2390 C   0  0  0  0  0  2  0  0  0  0  0  0
  -27.9200  -13.4530   20.3380 C   0  0  0  0  0  3  0  0  0  0  0  0
  -28.8380  -13.4810   21.5800 C   0  0  0  0  0  2  0  0  0  0  0  0
  -30.1870  -13.8540   21.1200 N   0  0  0  0  0  0  0  0  0  0  0  0
  -32.0090  -15.1820   21.0290 O   0  0  0  0  0  0  0  0  0  0  0  0
  -30.0180  -16.2340   21.3180 N   0  0  0  0  0  0  0  0  0  0  0  0
  -29.0270  -16.0700   21.4070 H   0  0  0  0  0  0  0  0  0  0  0  0
  -25.4490  -13.9960   20.7640 C   0  0  0  0  0  0  0  0  0  0  0  0
  -24.3640  -13.2040   21.0290 C   0  0  0  0  0  0  0  0  0  0  0  0
  -24.8580  -11.8660   21.0910 C   0  0  0  0  0  0  0  0  0  0  0  0
  -26.5340  -13.1390   20.6800 N   0  0  0  0  0  0  0  0  0  0  0  0
  -26.1780  -11.8530   20.9380 N   0  0  0  0  0  0  0  0  0  0  0  0
  -24.1420  -10.5900   21.2290 C   0  0  0  0  0  0  0  0  0  0  0  0
  -24.4950   -9.6420   22.2140 C   0  0  0  0  0  3  0  0  0  0  0  0
  -23.7750   -8.4340   22.3350 C   0  0  0  0  0  3  0  0  0  0  0  0
  -22.6890   -8.1650   21.4710 C   0  0  0  0  0  0  0  0  0  0  0  0
  -22.3550   -9.1010   20.4770 C   0  0  0  0  0  3  0  0  0  0  0  0
  -23.0760  -10.3000   20.3530 C   0  0  0  0  0  3  0  0  0  0  0  0
  -21.9500   -7.0060   21.5010 O   0  0  0  0  0  0  0  0  0  0  0  0
  -21.8060   -6.2740   22.6510 C   0  0  0  0  0  0  0  0  0  0  0  0
  -21.2490   -6.8290   23.8230 C   0  0  0  0  0  3  0  0  0  0  0  0
  -21.0520   -6.0230   24.9620 C   0  0  0  0  0  3  0  0  0  0  0  0
  -21.4070   -4.6610   24.9300 C   0  0  0  0  0  0  0  0  0  0  0  0
  -21.9580   -4.1030   23.7630 C   0  0  0  0  0  3  0  0  0  0  0  0
  -22.1550   -4.9070   22.6260 C   0  0  0  0  0  0  0  0  0  0  0  0
  -22.6670   -4.3600   21.4980 F   0  0  0  0  0  0  0  0  0  0  0  0
  -21.2140   -3.8840   26.0210 F   0  0  0  0  0  0  0  0  0  0  0  0
  -22.9340  -13.6570   21.1230 C   0  0  0  0  0  0  0  0  0  0  0  0
  -22.1250  -12.9720   21.9250 N   0  0  0  0  0  0  0  0  0  0  0  0
  -22.5360  -14.6510   20.5190 O   0  0  0  0  0  0  0  0  0  0  0  0
  -22.4560  -12.1750   22.4460 H   0  0  0  0  0  0  0  0  0  0  0  0
  -21.1620  -13.2620   22.0280 H   0  0  0  0  0  0  0  0  0  0  0  0
  -25.6000  -15.3650   20.5660 N   0  0  0  0  0  0  0  0  0  0  0  0
  -24.8090  -15.9980   20.5460 H   0  0  0  0  0  0  0  0  0  0  0  0
  -26.4750  -15.8230   20.3410 H   0  0  0  0  0  0  0  0  0  0  0  0
  -28.1770  -23.6500   21.7630 C   0  0  0  0  0  1  0  0  0  0  0  0
  -28.9780  -23.9300   20.4800 C   0  0  0  0  0  3  0  0  0  0  0  0
  -28.2830  -25.1860   19.6750 C   0  0  0  0  0  3  0  0  0  0  0  0
  -28.7010  -25.1710   18.3280 O   0  0  0  0  0  0  0  0  0  0  0  0
  -29.6370  -25.3430   18.3140 H   0  0  0  0  0  0  0  0  0  0  0  0
  -28.4160  -26.5680   20.1910 O   0  0  0  0  0  0  0  0  0  0  0  0
  -24.6410  -31.9720   23.2790 C   0  0  0  0  0  0  0  0  0  0  0  0
  -27.3230  -27.4790   20.1030 C   0  0  0  0  0  0  0  0  0  0  0  0
  -23.4660  -30.5950   21.6050 C   0  0  0  0  0  3  0  0  0  0  0  0
  -24.9460  -29.1170   20.1310 C   0  0  0  0  0  0  0  0  0  0  0  0
  -26.0110  -30.9410   21.4470 C   0  0  0  0  0  2  0  0  0  0  0  0
  -26.1110  -29.5810   20.7560 C   0  0  0  0  0  0  0  0  0  0  0  0
  -27.2960  -28.7710   20.7400 C   0  0  0  0  0  3  0  0  0  0  0  0
  -26.1390  -27.1270   19.4070 C   0  0  0  0  0  3  0  0  0  0  0  0
  -24.9680  -27.9000   19.4440 C   0  0  0  0  0  3  0  0  0  0  0  0
  -23.6940  -29.9650   20.2090 C   0  0  0  0  0  2  0  0  0  0  0  0
  -24.7250  -31.1870   22.1650 N   0  0  0  0  0  0  0  0  0  0  0  0
  -23.5500  -32.2170   23.8150 O   0  0  0  0  0  0  0  0  0  0  0  0
  -22.8190  -29.5420   22.5350 C   0  0  0  0  0  0  0  0  0  0  0  0
  -21.4950  -29.3480   22.4030 N   0  0  0  0  0  0  0  0  0  0  0  0
  -23.5050  -28.9040   23.3370 O   0  0  0  0  0  0  0  0  0  0  0  0
  -20.9990  -29.9130   21.7270 H   0  0  0  0  0  0  0  0  0  0  0  0
  -18.1320  -28.0940   22.8780 C   0  0  0  0  0  0  0  0  0  0  0  0
  -20.6880  -28.3800   23.1510 C   0  0  0  0  0  3  0  0  0  0  0  0
  -20.8100  -26.9680   22.5370 C   0  0  0  0  0  2  0  0  0  0  0  0
  -19.7100  -26.6570   21.5160 C   0  0  0  0  0  2  0  0  0  0  0  0
  -18.3260  -26.7670   22.1650 C   0  0  0  0  0  2  0  0  0  0  0  0
  -19.2420  -28.8600   23.3280 C   0  0  0  0  0  0  0  0  0  0  0  0
  -19.0060  -30.1010   23.9550 C   0  0  0  0  0  3  0  0  0  0  0  0
  -17.6950  -30.5800   24.1360 C   0  0  0  0  0  3  0  0  0  0  0  0
  -16.6000  -29.8110   23.7060 C   0  0  0  0  0  3  0  0  0  0  0  0
  -16.8200  -28.5700   23.0820 C   0  0  0  0  0  3  0  0  0  0  0  0
  -25.9090  -32.6130   23.9210 C   0  0  0  0  0  3  0  0  0  0  0  0
  -25.5680  -33.9930   24.2990 N   0  0  0  0  0  0  0  0  0  0  0  0
  -25.9020  -35.0810   23.5920 C   0  0  0  0  0  0  0  0  0  0  0  0
  -26.6000  -35.0290   22.5750 O   0  0  0  0  0  0  0  0  0  0  0  0
  -24.9540  -34.1090   25.0920 H   0  0  0  0  0  0  0  0  0  0  0  0
  -24.1620  -36.8630   23.2580 C   0  0  0  0  0  1  0  0  0  0  0  0
  -25.3810  -36.4420   24.0940 C   0  0  0  0  0  3  0  0  0  0  0  0
  -27.4770  -37.3070   25.0330 C   0  0  0  0  0  1  0  0  0  0  0  0
  -26.4030  -37.5120   24.0630 N   0  0  0  0  0  0  0  0  0  0  0  0
  -25.9810  -38.4180   24.2430 H   0  0  0  0  0  0  0  0  0  0  0  0
  -26.4420  -31.8150   25.1720 C   0  0  1  0  0  0  0  0  0  0  0  0
  -25.3540  -31.5220   26.2310 C   0  0  0  0  0  1  0  0  0  0  0  0
  -27.0510  -30.4610   24.7430 C   0  0  0  0  0  1  0  0  0  0  0  0
  -27.5770  -32.6120   25.8560 C   0  0  0  0  0  1  0  0  0  0  0  0
  1  6  1  0
  1 50  1  0
  3  5  2  0
  3  6  1  0
  4  2  2  0
  4 10  1  0
  5  4  1  0
  6  2  1  0
  7  9  1  0
  8  9  1  0
  9  5  1  0
 11 19  1  0
 12 17  1  0
 13 14  1  0
 13 12  1  0
 15 14  1  0
 15 24  1  0
 15 16  1  0
 17 11  1  0
 17 16  1  0
 18 11  2  0
 19 20  1  0
 19 10  1  0
 21 22  2  0
 22 23  1  0
 22 41  1  0
 23 26  1  0
 24 21  1  0
 24 25  1  0
 25 23  2  0
 26 27  1  0
 27 28  2  0
 29 32  1  0
 29 28  1  0
 30 29  2  0
 31 30  1  0
 31 26  2  0
 32 33  1  0
 33 34  1  0
 34 35  2  0
 36 35  1  0
 36 40  1  0
 37 36  2  0
 38 33  2  0
 38 37  1  0
 39 38  1  0
 41 42  1  0
 42 45  1  0
 42 44  1  0
 43 41  2  0
 46 21  1  0
 47 46  1  0
 48 46  1  0
 50 49  1  0
 51 52  1  0
 51 54  1  0
 51 50  1  0
 53 52  1  0
 55 66  2  0
 56 54  1  0
 56 61  1  0
 57 65  1  0
 57 67  1  0
 58 64  1  0
 58 60  1  0
 59 65  1  0
 60 59  1  0
 61 60  2  0
 62 63  1  0
 62 56  2  0
 63 58  2  0
 64 57  1  0
 65 55  1  0
 67 69  2  0
 68 67  1  0
 70 68  1  0
 71 80  2  0
 71 76  1  0
 72 68  1  0
 72 76  1  0
 73 72  1  0
 74 75  1  0
 74 73  1  0
 75 71  1  0
 76 77  2  0
 77 78  1  0
 79 78  2  0
 80 79  1  0
 81 55  1  0
 81 82  1  0
 81 91  1  0
 82 85  1  0
 83 87  1  0
 83 82  1  0
 84 83  2  0
 87 86  1  0
 89 87  1  0
 89 90  1  0
 89 88  1  0
 91 94  1  1
 91 92  1  0
 93 91  1  0
M  ISO  4  11 100  19 100  51 101  54 101
M  END
>  <TORSDO>  (24) 
F 22

>  <SCORE>  (24) 
-12.240

>  <name>  (24) 
23

>  <ligand_id>  (24) 
23

>  <original_smiles>  (24) 
[H]OC([H])(Oc1c([H])c([H])c2c(c1[H])C([H])([H])N(C(=O)C([H])(N([H])C(=O)C([H])(N([H])C([H])([H])[H])C([H])([H])[H])C(C([H])([H])[H])(C([H])([H])[H])C([H])([H])[H])C([H])(C(=O)N([H])C1([H])c3c([H])c([H])c([H])c([H])c3C([H])([H])C([H])([H])C1([H])[H])C2([H])[H])C([H])(C([H])([H])[H])C([H])([H])n1c([H])c(C([H])([H])N([H])C(=O)N2C([H])([H])C([H])([H])C([H])([H])C([H])(n3nc(-c4c([H])c([H])c(Oc5c([H])c([H])c(F)c([H])c5F)c([H])c4[H])c(C(=O)N([H])[H])c3N([H])[H])C2([H])[H])c(C([H])(C([H])([H])[H])C([H])([H])[H])c1[H]

>  <smiles>  (24) 
[H]OC([H])(Oc1c([H])c([H])c2c(c1[H])C([H])([H])N(C(=O)C([H])(N([H])C(=O)C([H])(N([H])C([H])([H])[H])C([H])([H])[H])C(C([H])([H])[H])(C([H])([H])[H])C([H])([H])[H])C([H])(C(=O)N([H])C1([H])c3c([H])c([H])c([H])c([H])c3C([H])([H])C([H])([H])C1([H])[H])C2([H])[H])C([H])(C([H])([H])[H])C([H])([H])n1c([H])c(C([H])([H])N([H])C(=O)N2C([H])([H])C([H])([H])C([H])([H])C([H])(n3nc(-c4c([H])c([H])c(Oc5c([H])c([H])c(F)c([H])c5F)c([H])c4[H])c(C(=O)N([H])[H])c3N([H])[H])C2([H])[H])c(C([H])(C([H])([H])[H])C([H])([H])[H])c1[H]

$$$$
24:0:0
     RDKit          3D

 90 98  0  0  1  0  0  0  0  0999 V2000
  -28.6520  -22.0140   19.8470 C   0  0  0  0  0  2  0  0  0  0  0  0
  -28.4320  -18.0780   20.6980 C   0  0  0  0  0  2  0  0  0  0  0  0
  -30.7810  -18.5340   20.4480 C   0  0  0  0  0  2  0  0  0  0  0  0
  -28.0750  -19.5580   20.2360 C   0  0  0  0  0  2  0  0  0  0  0  0
  -30.4250  -20.0370   19.9650 C   0  0  0  0  0  2  0  0  0  0  0  0
  -29.7200  -17.4290   20.0840 C   0  0  0  0  0  3  0  0  0  0  0  0
  -29.1160  -20.6360   20.4460 N   0  0  1  0  0  4  0  0  0  0  0  0
  -29.1910  -20.7650   21.4450 H   0  0  0  0  0  0  0  0  0  0  0  0
  -30.6690  -14.8480   20.0500 C   0  0  0  0  0  0  0  0  0  0  0  0
  -30.4640  -12.5760   18.9970 C   0  0  0  0  0  2  0  0  0  0  0  0
  -29.4640  -12.6710   17.8220 C   0  0  0  0  0  2  0  0  0  0  0  0
  -28.0180  -12.4730   18.3150 C   0  0  0  0  0  2  0  0  0  0  0  0
  -27.7030  -13.3270   19.5710 C   0  0  0  0  0  3  0  0  0  0  0  0
  -28.8140  -13.2090   20.6400 C   0  0  0  0  0  2  0  0  0  0  0  0
  -30.0820  -13.5970   20.0060 N   0  0  0  0  0  0  0  0  0  0  0  0
  -31.7990  -15.0030   19.5760 O   0  0  0  0  0  0  0  0  0  0  0  0
  -29.8760  -15.9250   20.4540 N   0  0  0  0  0  0  0  0  0  0  0  0
  -29.0450  -15.5730   20.9060 H   0  0  0  0  0  0  0  0  0  0  0  0
  -25.3610  -13.9120   20.4390 C   0  0  0  0  0  0  0  0  0  0  0  0
  -24.3090  -13.1360   20.8440 C   0  0  0  0  0  0  0  0  0  0  0  0
  -24.7570  -11.7820   20.7490 C   0  0  0  0  0  0  0  0  0  0  0  0
  -26.3820  -13.0320   20.1200 N   0  0  0  0  0  0  0  0  0  0  0  0
  -26.0300  -11.7430   20.3690 N   0  0  0  0  0  0  0  0  0  0  0  0
  -24.0290  -10.5210   20.9420 C   0  0  0  0  0  0  0  0  0  0  0  0
  -24.4550   -9.5590   21.8850 C   0  0  0  0  0  3  0  0  0  0  0  0
  -23.7270   -8.3640   22.0660 C   0  0  0  0  0  3  0  0  0  0  0  0
  -22.5600   -8.1210   21.3050 C   0  0  0  0  0  0  0  0  0  0  0  0
  -22.1530   -9.0710   20.3500 C   0  0  0  0  0  3  0  0  0  0  0  0
  -22.8820  -10.2580   20.1670 C   0  0  0  0  0  3  0  0  0  0  0  0
  -21.8060   -6.9760   21.3930 O   0  0  0  0  0  0  0  0  0  0  0  0
  -21.6880   -6.2810   22.5710 C   0  0  0  0  0  0  0  0  0  0  0  0
  -21.1420   -6.8680   23.7330 C   0  0  0  0  0  3  0  0  0  0  0  0
  -20.9760   -6.0970   24.9000 C   0  0  0  0  0  3  0  0  0  0  0  0
  -21.3450   -4.7390   24.9050 C   0  0  0  0  0  0  0  0  0  0  0  0
  -21.8820   -4.1500   23.7470 C   0  0  0  0  0  3  0  0  0  0  0  0
  -22.0510   -4.9190   22.5830 C   0  0  0  0  0  0  0  0  0  0  0  0
  -22.5490   -4.3410   21.4620 F   0  0  0  0  0  0  0  0  0  0  0  0
  -21.1790   -3.9940   26.0240 F   0  0  0  0  0  0  0  0  0  0  0  0
  -22.9330  -13.6160   21.2020 C   0  0  0  0  0  0  0  0  0  0  0  0
  -22.2440  -12.8990   22.0810 N   0  0  0  0  0  0  0  0  0  0  0  0
  -22.4790  -14.6600   20.7350 O   0  0  0  0  0  0  0  0  0  0  0  0
  -22.6240  -12.0550   22.4820 H   0  0  0  0  0  0  0  0  0  0  0  0
  -21.3180  -13.1970   22.3570 H   0  0  0  0  0  0  0  0  0  0  0  0
  -25.5260  -15.2860   20.2890 N   0  0  0  0  0  0  0  0  0  0  0  0
  -24.7580  -15.9330   20.4370 H   0  0  0  0  0  0  0  0  0  0  0  0
  -26.3370  -15.7230   19.8720 H   0  0  0  0  0  0  0  0  0  0  0  0
  -29.0360  -23.5160   20.4170 C   0  0  0  0  0  2  0  0  0  0  0  0
  -26.9330  -24.4980   21.4330 C   0  0  0  0  0  1  0  0  0  0  0  0
  -27.9410  -24.7480   20.2810 C   0  0  0  0  0  3  0  0  0  0  0  0
  -28.2660  -26.2520   20.2700 O   0  0  0  0  0  0  0  0  0  0  0  0
  -24.6350  -31.8700   23.1950 C   0  0  0  0  0  0  0  0  0  0  0  0
  -27.2150  -27.2200   20.1550 C   0  0  0  0  0  0  0  0  0  0  0  0
  -23.4300  -30.4680   21.5650 C   0  0  0  0  0  3  0  0  0  0  0  0
  -24.8760  -28.9130   20.1290 C   0  0  0  0  0  0  0  0  0  0  0  0
  -25.9760  -30.7630   21.3790 C   0  0  0  0  0  2  0  0  0  0  0  0
  -26.0540  -29.3750   20.7340 C   0  0  0  0  0  0  0  0  0  0  0  0
  -27.2240  -28.5400   20.7380 C   0  0  0  0  0  3  0  0  0  0  0  0
  -26.0280  -26.8660   19.4730 C   0  0  0  0  0  3  0  0  0  0  0  0
  -24.8720  -27.6690   19.4860 C   0  0  0  0  0  3  0  0  0  0  0  0
  -23.6430  -29.7970   20.1830 C   0  0  0  0  0  2  0  0  0  0  0  0
  -24.7000  -31.0530   22.1020 N   0  0  0  0  0  0  0  0  0  0  0  0
  -23.5530  -32.1480   23.7320 O   0  0  0  0  0  0  0  0  0  0  0  0
  -22.7660  -29.4540   22.5300 C   0  0  0  0  0  0  0  0  0  0  0  0
  -21.4390  -29.2730   22.4090 N   0  0  0  0  0  0  0  0  0  0  0  0
  -23.4480  -28.8320   23.3500 O   0  0  0  0  0  0  0  0  0  0  0  0
  -20.9450  -29.8270   21.7220 H   0  0  0  0  0  0  0  0  0  0  0  0
  -18.0630  -28.0810   22.9470 C   0  0  0  0  0  0  0  0  0  0  0  0
  -20.6250  -28.3370   23.1880 C   0  0  0  0  0  3  0  0  0  0  0  0
  -20.7180  -26.9060   22.6120 C   0  0  0  0  0  2  0  0  0  0  0  0
  -19.6040  -26.5870   21.6080 C   0  0  0  0  0  2  0  0  0  0  0  0
  -18.2300  -26.7340   22.2670 C   0  0  0  0  0  2  0  0  0  0  0  0
  -19.1880  -28.8410   23.3660 C   0  0  0  0  0  0  0  0  0  0  0  0
  -18.9770  -30.1020   23.9650 C   0  0  0  0  0  3  0  0  0  0  0  0
  -17.6750  -30.6050   24.1470 C   0  0  0  0  0  3  0  0  0  0  0  0
  -16.5640  -29.8430   23.7420 C   0  0  0  0  0  3  0  0  0  0  0  0
  -16.7600  -28.5840   23.1470 C   0  0  0  0  0  3  0  0  0  0  0  0
  -25.9180  -32.5090   23.8100 C   0  0  0  0  0  3  0  0  0  0  0  0
  -26.4480  -31.7320   25.0770 C   0  0  1  0  0  0  0  0  0  0  0  0
  -25.3600  -31.4760   26.1470 C   0  0  0  0  0  1  0  0  0  0  0  0
  -27.0410  -30.3610   24.6730 C   0  0  0  0  0  1  0  0  0  0  0  0
  -27.5930  -32.5310   25.7400 C   0  0  0  0  0  1  0  0  0  0  0  0
  -25.5980  -33.9020   24.1550 N   0  0  0  0  0  0  0  0  0  0  0  0
  -25.9140  -34.9660   23.4040 C   0  0  0  0  0  0  0  0  0  0  0  0
  -26.5720  -34.8760   22.3640 O   0  0  0  0  0  0  0  0  0  0  0  0
  -25.0060  -34.0420   24.9610 H   0  0  0  0  0  0  0  0  0  0  0  0
  -24.1780  -36.7580   23.0820 C   0  0  0  0  0  1  0  0  0  0  0  0
  -25.4250  -36.3460   23.8820 C   0  0  0  0  0  3  0  0  0  0  0  0
  -27.5540  -37.2360   24.7220 C   0  0  0  0  0  1  0  0  0  0  0  0
  -26.4530  -37.4050   23.7780 N   0  0  0  0  0  0  0  0  0  0  0  0
  -26.0430  -38.3220   23.9310 H   0  0  0  0  0  0  0  0  0  0  0  0
  1 47  1  0
  1  7  1  0
  4  7  1  0
  4  2  1  0
  5  7  1  0
  5  3  1  0
  6  3  1  0
  6 17  1  0
  6  2  1  0
  7  8  1  1
  9 17  1  0
 10 15  1  0
 11 12  1  0
 11 10  1  0
 13 12  1  0
 13 22  1  0
 13 14  1  0
 15  9  1  0
 15 14  1  0
 16  9  2  0
 17 18  1  0
 19 20  2  0
 20 39  1  0
 21 20  1  0
 21 24  1  0
 22 23  1  0
 22 19  1  0
 23 21  2  0
 24 25  1  0
 25 26  2  0
 27 30  1  0
 27 26  1  0
 28 27  2  0
 29 28  1  0
 29 24  2  0
 30 31  1  0
 31 36  2  0
 31 32  1  0
 32 33  2  0
 33 34  1  0
 34 38  1  0
 35 34  2  0
 36 35  1  0
 37 36  1  0
 39 40  1  0
 40 43  1  0
 40 42  1  0
 41 39  2  0
 44 45  1  0
 44 19  1  0
 46 44  1  0
 49 47  1  0
 49 48  1  0
 50 49  1  0
 51 62  2  0
 52 50  1  0
 52 57  1  0
 53 61  1  0
 53 63  1  0
 54 60  1  0
 54 56  1  0
 55 61  1  0
 56 57  2  0
 56 55  1  0
 58 59  1  0
 58 52  2  0
 59 54  2  0
 60 53  1  0
 61 51  1  0
 63 65  2  0
 64 63  1  0
 66 64  1  0
 67 76  2  0
 67 72  1  0
 68 64  1  0
 68 72  1  0
 69 68  1  0
 70 71  1  0
 70 69  1  0
 71 67  1  0
 72 73  2  0
 73 74  1  0
 75 74  2  0
 76 75  1  0
 77 51  1  0
 77 82  1  0
 77 78  1  0
 78 81  1  1
 78 79  1  0
 80 78  1  0
 82 85  1  0
 83 87  1  0
 83 82  1  0
 84 83  2  0
 87 86  1  0
 89 87  1  0
 89 90  1  0
 89 88  1  0
M  ISO  4   9 100  17 100  49 101  50 101
M  END
>  <TORSDO>  (25) 
F 19

>  <SCORE>  (25) 
-14.017

>  <name>  (25) 
24

>  <ligand_id>  (25) 
24

>  <original_smiles>  (25) 
[H]c1c([H])c([H])c2c(c1[H])C([H])([H])C([H])([H])C([H])([H])C2([H])N([H])C(=O)C1([H])N(C(=O)C([H])(N([H])C(=O)C([H])(N([H])C([H])([H])[H])C([H])([H])[H])C(C([H])([H])[H])(C([H])([H])[H])C([H])([H])[H])C([H])([H])c2c([H])c(OC([H])(C([H])([H])[H])C([H])([H])C([H])([H])[N+]3([H])C([H])([H])C([H])([H])C([H])(N([H])C(=O)N4C([H])([H])C([H])([H])C([H])([H])C([H])(n5nc(-c6c([H])c([H])c(Oc7c([H])c([H])c(F)c([H])c7F)c([H])c6[H])c(C(=O)N([H])[H])c5N([H])[H])C4([H])[H])C([H])([H])C3([H])[H])c([H])c([H])c2C1([H])[H]

>  <smiles>  (25) 
[H]c1c([H])c([H])c2c(c1[H])C([H])([H])C([H])([H])C([H])([H])C2([H])N([H])C(=O)C1([H])N(C(=O)C([H])(N([H])C(=O)C([H])(N([H])C([H])([H])[H])C([H])([H])[H])C(C([H])([H])[H])(C([H])([H])[H])C([H])([H])[H])C([H])([H])c2c([H])c(OC([H])(C([H])([H])[H])C([H])([H])C([H])([H])[N+]3([H])C([H])([H])C([H])([H])C([H])(N([H])C(=O)N4C([H])([H])C([H])([H])C([H])([H])C([H])(n5nc(-c6c([H])c([H])c(Oc7c([H])c([H])c(F)c([H])c7F)c([H])c6[H])c(C(=O)N([H])[H])c5N([H])[H])C4([H])[H])C([H])([H])C3([H])[H])c([H])c([H])c2C1([H])[H]

$$$$
25:0:0
     RDKit          3D

 92100  0  0  1  0  0  0  0  0999 V2000
  -27.7340  -21.5820   19.8340 C   0  0  0  0  0  3  0  0  0  0  0  0
  -28.1780  -20.1720   19.8710 C   0  0  0  0  0  3  0  0  0  0  0  0
  -29.7500  -22.3010   20.6650 C   0  0  0  0  0  3  0  0  0  0  0  0
  -28.4650  -22.7900   20.2030 C   0  0  0  0  0  0  0  0  0  0  0  0
  -29.4680  -19.6760   20.3070 C   0  0  0  0  0  0  0  0  0  0  0  0
  -30.2210  -20.8810   20.7180 C   0  0  0  0  0  0  0  0  0  0  0  0
  -31.6500  -20.6680   21.2220 C   0  0  1  0  0  0  0  0  0  0  0  0
  -32.2050  -21.7880   21.6870 F   0  0  0  0  0  0  0  0  0  0  0  0
  -31.6520  -19.7840   22.2210 F   0  0  0  0  0  0  0  0  0  0  0  0
  -32.4240  -20.2150   20.2370 F   0  0  0  0  0  0  0  0  0  0  0  0
  -30.4920  -18.0800   18.5640 C   0  0  0  0  0  1  0  0  0  0  0  0
  -30.1490  -18.0890   20.0650 C   0  0  0  0  0  0  0  0  0  0  0  0
  -30.4710  -15.2430   20.2600 C   0  0  0  0  0  0  0  0  0  0  0  0
  -30.3780  -12.8410   19.3310 C   0  0  0  0  0  2  0  0  0  0  0  0
  -29.4430  -12.7050   18.1040 C   0  0  0  0  0  2  0  0  0  0  0  0
  -27.9960  -12.4440   18.5570 C   0  0  0  0  0  2  0  0  0  0  0  0
  -27.5710  -13.3810   19.7160 C   0  0  0  0  0  3  0  0  0  0  0  0
  -28.6340  -13.4800   20.8320 C   0  0  0  0  0  2  0  0  0  0  0  0
  -29.8700  -13.9620   20.1990 N   0  0  0  0  0  0  0  0  0  0  0  0
  -31.6790  -15.2300   19.9930 O   0  0  0  0  0  0  0  0  0  0  0  0
  -29.7500  -16.5230   20.3940 N   0  0  0  0  0  4  0  0  0  0  0  0
  -28.7790  -16.4000   20.6320 H   0  0  0  0  0  0  0  0  0  0  0  0
  -25.2050  -13.9330   20.4960 C   0  0  0  0  0  0  0  0  0  0  0  0
  -24.1490  -13.1510   20.8690 C   0  0  0  0  0  0  0  0  0  0  0  0
  -24.6190  -11.8020   20.8240 C   0  0  0  0  0  0  0  0  0  0  0  0
  -26.2480  -13.0610   20.2340 N   0  0  0  0  0  0  0  0  0  0  0  0
  -25.9070  -11.7730   20.5000 N   0  0  0  0  0  0  0  0  0  0  0  0
  -23.8960  -10.5360   21.0100 C   0  0  0  0  0  0  0  0  0  0  0  0
  -24.3200   -9.5730   21.9510 C   0  0  0  0  0  3  0  0  0  0  0  0
  -23.5960   -8.3740   22.1250 C   0  0  0  0  0  3  0  0  0  0  0  0
  -22.4300   -8.1300   21.3580 C   0  0  0  0  0  0  0  0  0  0  0  0
  -22.0250   -9.0810   20.4060 C   0  0  0  0  0  3  0  0  0  0  0  0
  -22.7510  -10.2720   20.2300 C   0  0  0  0  0  3  0  0  0  0  0  0
  -21.6780   -6.9840   21.4420 O   0  0  0  0  0  0  0  0  0  0  0  0
  -21.5940   -6.2620   22.6060 C   0  0  0  0  0  0  0  0  0  0  0  0
  -21.0910   -6.8250   23.7980 C   0  0  0  0  0  3  0  0  0  0  0  0
  -20.9560   -6.0280   24.9530 C   0  0  0  0  0  3  0  0  0  0  0  0
  -21.3140   -4.6680   24.9150 C   0  0  0  0  0  0  0  0  0  0  0  0
  -21.8110   -4.1030   23.7270 C   0  0  0  0  0  3  0  0  0  0  0  0
  -21.9480   -4.8980   22.5740 C   0  0  0  0  0  0  0  0  0  0  0  0
  -22.4050   -4.3430   21.4260 F   0  0  0  0  0  0  0  0  0  0  0  0
  -21.1780   -3.8990   26.0210 F   0  0  0  0  0  0  0  0  0  0  0  0
  -22.7530  -13.6230   21.1510 C   0  0  0  0  0  0  0  0  0  0  0  0
  -22.0290  -12.9170   22.0130 N   0  0  0  0  0  0  0  0  0  0  0  0
  -22.3130  -14.6530   20.6420 O   0  0  0  0  0  0  0  0  0  0  0  0
  -22.4000  -12.0850   22.4490 H   0  0  0  0  0  0  0  0  0  0  0  0
  -21.0920  -13.2150   22.2410 H   0  0  0  0  0  0  0  0  0  0  0  0
  -25.3640  -15.3050   20.3250 N   0  0  0  0  0  0  0  0  0  0  0  0
  -24.5940  -15.9550   20.4420 H   0  0  0  0  0  0  0  0  0  0  0  0
  -26.1970  -15.7430   19.9530 H   0  0  0  0  0  0  0  0  0  0  0  0
  -27.7590  -24.3680   20.0330 C   0  0  0  0  0  2  0  0  0  0  0  0
  -28.1610  -25.9210   20.2840 O   0  0  0  0  0  0  0  0  0  0  0  0
  -24.6340  -31.8890   23.2070 C   0  0  0  0  0  0  0  0  0  0  0  0
  -27.1720  -27.0270   20.2030 C   0  0  0  0  0  0  0  0  0  0  0  0
  -23.4320  -30.4880   21.5810 C   0  0  0  0  0  3  0  0  0  0  0  0
  -24.8750  -28.8880   20.1580 C   0  0  0  0  0  0  0  0  0  0  0  0
  -25.9970  -30.7060   21.4210 C   0  0  0  0  0  2  0  0  0  0  0  0
  -26.0650  -29.2970   20.7730 C   0  0  0  0  0  0  0  0  0  0  0  0
  -27.2100  -28.3870   20.7750 C   0  0  0  0  0  3  0  0  0  0  0  0
  -25.9530  -26.7670   19.5340 C   0  0  0  0  0  3  0  0  0  0  0  0
  -24.8420  -27.6420   19.5180 C   0  0  0  0  0  3  0  0  0  0  0  0
  -23.6550  -29.8040   20.2050 C   0  0  0  0  0  2  0  0  0  0  0  0
  -24.7100  -31.0540   22.1230 N   0  0  0  0  0  0  0  0  0  0  0  0
  -23.5470  -32.1810   23.7320 O   0  0  0  0  0  0  0  0  0  0  0  0
  -22.7430  -29.4930   22.5500 C   0  0  0  0  0  0  0  0  0  0  0  0
  -21.4140  -29.3220   22.4250 N   0  0  0  0  0  0  0  0  0  0  0  0
  -23.4110  -28.8760   23.3840 O   0  0  0  0  0  0  0  0  0  0  0  0
  -20.9290  -29.8710   21.7310 H   0  0  0  0  0  0  0  0  0  0  0  0
  -18.0310  -28.1230   22.9530 C   0  0  0  0  0  0  0  0  0  0  0  0
  -20.5940  -28.3880   23.2040 C   0  0  0  0  0  3  0  0  0  0  0  0
  -20.6900  -26.9530   22.6350 C   0  0  0  0  0  2  0  0  0  0  0  0
  -19.5830  -26.6290   21.6270 C   0  0  0  0  0  2  0  0  0  0  0  0
  -18.2040  -26.7730   22.2790 C   0  0  0  0  0  2  0  0  0  0  0  0
  -19.1530  -28.8890   23.3730 C   0  0  0  0  0  0  0  0  0  0  0  0
  -18.9330  -30.1500   23.9690 C   0  0  0  0  0  3  0  0  0  0  0  0
  -17.6280  -30.6470   24.1450 C   0  0  0  0  0  3  0  0  0  0  0  0
  -16.5220  -29.8790   23.7380 C   0  0  0  0  0  3  0  0  0  0  0  0
  -16.7260  -28.6200   23.1480 C   0  0  0  0  0  3  0  0  0  0  0  0
  -25.9090  -32.5330   23.8320 C   0  0  0  0  0  3  0  0  0  0  0  0
  -26.4220  -31.7690   25.1140 C   0  0  1  0  0  0  0  0  0  0  0  0
  -25.3260  -31.5350   26.1800 C   0  0  0  0  0  1  0  0  0  0  0  0
  -27.0090  -30.3900   24.7370 C   0  0  0  0  0  1  0  0  0  0  0  0
  -27.5690  -32.5690   25.7760 C   0  0  0  0  0  1  0  0  0  0  0  0
  -25.5910  -33.9320   24.1680 N   0  0  0  0  0  0  0  0  0  0  0  0
  -25.9090  -34.9940   23.4150 C   0  0  0  0  0  0  0  0  0  0  0  0
  -26.5640  -34.8980   22.3740 O   0  0  0  0  0  0  0  0  0  0  0  0
  -25.0080  -34.0790   24.9790 H   0  0  0  0  0  0  0  0  0  0  0  0
  -24.1780  -36.7940   23.0930 C   0  0  0  0  0  1  0  0  0  0  0  0
  -25.4260  -36.3790   23.8890 C   0  0  0  0  0  3  0  0  0  0  0  0
  -27.5620  -37.2660   24.7170 C   0  0  0  0  0  1  0  0  0  0  0  0
  -26.4570  -37.4340   23.7760 N   0  0  0  0  0  0  0  0  0  0  0  0
  -26.0500  -38.3540   23.9260 H   0  0  0  0  0  0  0  0  0  0  0  0
  1  2  2  0
  1  4  1  0
  2  5  1  0
  3  6  1  0
  4  3  2  0
  5  6  2  0
  6  7  1  0
  7  8  1  1
  7  9  1  0
 10  7  1  0
 11 12  1  0
 12  5  1  0
 12 21  2  0
 13 21  1  0
 14 19  1  0
 15 16  1  0
 15 14  1  0
 17 16  1  0
 17 26  1  0
 17 18  1  0
 19 13  1  0
 19 18  1  0
 20 13  2  0
 21 22  1  0
 23 24  2  0
 24 43  1  0
 25 24  1  0
 25 28  1  0
 26 23  1  0
 26 27  1  0
 27 25  2  0
 28 29  1  0
 29 30  2  0
 31 34  1  0
 31 30  1  0
 32 31  2  0
 33 32  1  0
 33 28  2  0
 34 35  1  0
 35 36  1  0
 36 37  2  0
 38 37  1  0
 38 42  1  0
 39 38  2  0
 40 35  2  0
 40 39  1  0
 41 40  1  0
 43 44  1  0
 44 47  1  0
 44 46  1  0
 45 43  2  0
 48 49  1  0
 48 23  1  0
 50 48  1  0
 51  4  1  0
 51 52  1  0
 53 64  2  0
 54 52  1  0
 54 59  1  0
 55 63  1  0
 55 65  1  0
 56 62  1  0
 56 58  1  0
 57 63  1  0
 58 59  2  0
 58 57  1  0
 60 54  2  0
 61 60  1  0
 61 56  2  0
 62 55  1  0
 63 53  1  0
 65 67  2  0
 66 65  1  0
 68 66  1  0
 69 78  2  0
 69 74  1  0
 70 66  1  0
 70 74  1  0
 71 70  1  0
 72 73  1  0
 72 71  1  0
 73 69  1  0
 74 75  2  0
 75 76  1  0
 77 76  2  0
 78 77  1  0
 79 53  1  0
 79 84  1  0
 79 80  1  0
 80 83  1  1
 80 81  1  0
 82 80  1  0
 84 87  1  0
 85 89  1  0
 85 84  1  0
 86 85  2  0
 89 88  1  0
 91 89  1  0
 91 92  1  0
 91 90  1  0
M  ISO  4  13 100  21 100  51 101  52 101
M  END
>  <TORSDO>  (26) 
F 19

>  <SCORE>  (26) 
-15.566

>  <name>  (26) 
25

>  <ligand_id>  (26) 
25

>  <original_smiles>  (26) 
[H]c1c([H])c([H])c2c(c1[H])C([H])([H])C([H])([H])C([H])([H])C2([H])N([H])C(=O)C1([H])N(C(=O)C([H])(N([H])C(=O)C([H])(N([H])C([H])([H])[H])C([H])([H])[H])C(C([H])([H])[H])(C([H])([H])[H])C([H])([H])[H])C([H])([H])c2c([H])c(OC([H])([H])c3c([H])c([H])c(C([H])(N([H])C(=O)N4C([H])([H])C([H])([H])C([H])([H])C([H])(n5nc(-c6c([H])c([H])c(Oc7c([H])c([H])c(F)c([H])c7F)c([H])c6[H])c(C(=O)N([H])[H])c5N([H])[H])C4([H])[H])C([H])([H])[H])c(C(F)(F)F)c3[H])c([H])c([H])c2C1([H])[H]

>  <smiles>  (26) 
[H]c1c([H])c([H])c2c(c1[H])C([H])([H])C([H])([H])C([H])([H])C2([H])N([H])C(=O)C1([H])N(C(=O)C([H])(N([H])C(=O)C([H])(N([H])C([H])([H])[H])C([H])([H])[H])C(C([H])([H])[H])(C([H])([H])[H])C([H])([H])[H])C([H])([H])c2c([H])c(OC([H])([H])c3c([H])c([H])c(C([H])(N([H])C(=O)N4C([H])([H])C([H])([H])C([H])([H])C([H])(n5nc(-c6c([H])c([H])c(Oc7c([H])c([H])c(F)c([H])c7F)c([H])c6[H])c(C(=O)N([H])[H])c5N([H])[H])C4([H])[H])C([H])([H])[H])c(C(F)(F)F)c3[H])c([H])c([H])c2C1([H])[H]

$$$$
26:0:0
     RDKit          3D

 91 98  0  0  1  0  0  0  0  0999 V2000
  -31.3260  -24.8160   19.7170 C   0  0  0  0  0  1  0  0  0  0  0  0
  -30.2850  -23.8160   20.0550 N   0  0  1  0  0  4  0  0  0  0  0  0
  -29.8330  -23.5940   19.1790 H   0  0  0  0  0  0  0  0  0  0  0  0
  -30.8890  -22.5310   20.5420 C   0  0  0  0  0  2  0  0  0  0  0  0
  -29.9870  -21.2670   20.3750 C   0  0  0  0  0  2  0  0  0  0  0  0
  -30.7190  -19.9970   19.8340 C   0  0  0  0  0  2  0  0  0  0  0  0
  -30.2530  -17.8220   20.7930 C   0  0  0  0  0  0  0  0  0  0  0  0
  -29.0780  -17.5240   19.8640 C   0  0  0  0  0  1  0  0  0  0  0  0
  -30.9040  -18.9310   20.8270 N   0  0  0  0  0  0  0  0  0  0  0  0
  -30.6500  -16.6810   21.7520 C   0  0  0  0  0  2  0  0  0  0  0  0
  -30.6830  -14.4490   20.5890 C   0  0  0  0  0  0  0  0  0  0  0  0
  -30.3410  -12.3430   19.3350 C   0  0  0  0  0  2  0  0  0  0  0  0
  -29.4040  -12.5740   18.1330 C   0  0  0  0  0  2  0  0  0  0  0  0
  -27.9290  -12.4270   18.5520 C   0  0  0  0  0  2  0  0  0  0  0  0
  -27.5900  -13.2510   19.8220 C   0  0  0  0  0  3  0  0  0  0  0  0
  -28.6360  -13.0070   20.9330 C   0  0  0  0  0  2  0  0  0  0  0  0
  -29.9740  -13.3040   20.3880 N   0  0  0  0  0  0  0  0  0  0  0  0
  -31.7520  -14.6870   20.0200 O   0  0  0  0  0  0  0  0  0  0  0  0
  -30.1250  -15.3430   21.4190 N   0  0  0  0  0  0  0  0  0  0  0  0
  -29.2500  -15.0800   21.8440 H   0  0  0  0  0  0  0  0  0  0  0  0
  -25.1850  -13.8580   20.5100 C   0  0  0  0  0  0  0  0  0  0  0  0
  -24.1150  -13.0880   20.8780 C   0  0  0  0  0  0  0  0  0  0  0  0
  -24.5780  -11.7360   20.8610 C   0  0  0  0  0  0  0  0  0  0  0  0
  -26.2330  -12.9770   20.2920 N   0  0  0  0  0  0  0  0  0  0  0  0
  -25.8700  -11.6950   20.5600 N   0  0  0  0  0  0  0  0  0  0  0  0
  -23.8520  -10.4740   21.0580 C   0  0  0  0  0  0  0  0  0  0  0  0
  -24.2950   -9.5070   21.9870 C   0  0  0  0  0  3  0  0  0  0  0  0
  -23.5710   -8.3070   22.1710 C   0  0  0  0  0  3  0  0  0  0  0  0
  -22.3910   -8.0690   21.4270 C   0  0  0  0  0  0  0  0  0  0  0  0
  -21.9660   -9.0260   20.4880 C   0  0  0  0  0  3  0  0  0  0  0  0
  -22.6900  -10.2160   20.3020 C   0  0  0  0  0  3  0  0  0  0  0  0
  -21.6380   -6.9230   21.5200 O   0  0  0  0  0  0  0  0  0  0  0  0
  -21.6190   -6.1660   22.6630 C   0  0  0  0  0  0  0  0  0  0  0  0
  -21.2390   -6.7080   23.9100 C   0  0  0  0  0  3  0  0  0  0  0  0
  -21.1660   -5.8770   25.0460 C   0  0  0  0  0  3  0  0  0  0  0  0
  -21.4620   -4.5050   24.9360 C   0  0  0  0  0  0  0  0  0  0  0  0
  -21.8350   -3.9630   23.6940 C   0  0  0  0  0  3  0  0  0  0  0  0
  -21.9100   -4.7900   22.5600 C   0  0  0  0  0  0  0  0  0  0  0  0
  -22.2490   -4.2580   21.3620 F   0  0  0  0  0  0  0  0  0  0  0  0
  -21.3860   -3.7040   26.0250 F   0  0  0  0  0  0  0  0  0  0  0  0
  -22.7140  -13.5620   21.1370 C   0  0  0  0  0  0  0  0  0  0  0  0
  -21.9810  -12.8730   22.0050 N   0  0  0  0  0  0  0  0  0  0  0  0
  -22.2750  -14.5800   20.6030 O   0  0  0  0  0  0  0  0  0  0  0  0
  -22.3490  -12.0510   22.4610 H   0  0  0  0  0  0  0  0  0  0  0  0
  -21.0410  -13.1730   22.2160 H   0  0  0  0  0  0  0  0  0  0  0  0
  -25.3520  -15.2270   20.3230 N   0  0  0  0  0  0  0  0  0  0  0  0
  -24.5860  -15.8860   20.4180 H   0  0  0  0  0  0  0  0  0  0  0  0
  -26.2060  -15.6590   19.9960 H   0  0  0  0  0  0  0  0  0  0  0  0
  -29.2510  -24.4070   20.9540 C   0  0  0  0  0  2  0  0  0  0  0  0
  -28.1650  -25.2280   20.2080 C   0  0  0  0  0  2  0  0  0  0  0  0
  -28.3640  -26.6610   20.2070 O   0  0  0  0  0  0  0  0  0  0  0  0
  -24.6030  -31.8970   23.2460 C   0  0  0  0  0  0  0  0  0  0  0  0
  -27.2110  -27.4280   20.1560 C   0  0  0  0  0  0  0  0  0  0  0  0
  -23.3810  -30.4920   21.6190 C   0  0  0  0  0  3  0  0  0  0  0  0
  -24.8200  -28.9560   20.1780 C   0  0  0  0  0  0  0  0  0  0  0  0
  -25.9080  -30.8460   21.3950 C   0  0  0  0  0  2  0  0  0  0  0  0
  -25.9870  -29.4710   20.7580 C   0  0  0  0  0  0  0  0  0  0  0  0
  -27.1850  -28.7160   20.7450 C   0  0  0  0  0  3  0  0  0  0  0  0
  -26.0280  -26.9470   19.5460 C   0  0  0  0  0  3  0  0  0  0  0  0
  -24.8370  -27.6930   19.5680 C   0  0  0  0  0  3  0  0  0  0  0  0
  -23.5760  -29.8130   20.2380 C   0  0  0  0  0  2  0  0  0  0  0  0
  -24.6500  -31.0920   22.1450 N   0  0  0  0  0  0  0  0  0  0  0  0
  -23.5260  -32.1690   23.7950 O   0  0  0  0  0  0  0  0  0  0  0  0
  -22.7370  -29.4720   22.5850 C   0  0  0  0  0  0  0  0  0  0  0  0
  -21.4120  -29.2840   22.4640 N   0  0  0  0  0  0  0  0  0  0  0  0
  -23.4260  -28.8510   23.3990 O   0  0  0  0  0  0  0  0  0  0  0  0
  -20.9160  -29.8420   21.7800 H   0  0  0  0  0  0  0  0  0  0  0  0
  -18.0470  -28.0680   22.9620 C   0  0  0  0  0  0  0  0  0  0  0  0
  -20.6010  -28.3460   23.2400 C   0  0  0  0  0  3  0  0  0  0  0  0
  -20.7170  -26.9110   22.6750 C   0  0  0  0  0  2  0  0  0  0  0  0
  -19.6200  -26.5720   21.6620 C   0  0  0  0  0  2  0  0  0  0  0  0
  -18.2350  -26.7130   22.3000 C   0  0  0  0  0  2  0  0  0  0  0  0
  -19.1590  -28.8400   23.3900 C   0  0  0  0  0  0  0  0  0  0  0  0
  -18.9290  -30.1070   23.9680 C   0  0  0  0  0  3  0  0  0  0  0  0
  -17.6210  -30.6020   24.1230 C   0  0  0  0  0  3  0  0  0  0  0  0
  -16.5230  -29.8260   23.7120 C   0  0  0  0  0  3  0  0  0  0  0  0
  -16.7380  -28.5610   23.1390 C   0  0  0  0  0  3  0  0  0  0  0  0
  -25.8950  -32.5250   23.8540 C   0  0  0  0  0  3  0  0  0  0  0  0
  -25.5880  -33.9230   24.1900 N   0  0  0  0  0  0  0  0  0  0  0  0
  -25.9180  -34.9760   23.4300 C   0  0  0  0  0  0  0  0  0  0  0  0
  -26.5800  -34.8720   22.3950 O   0  0  0  0  0  0  0  0  0  0  0  0
  -24.9920  -34.0750   24.9890 H   0  0  0  0  0  0  0  0  0  0  0  0
  -24.1880  -36.7700   23.0860 C   0  0  0  0  0  1  0  0  0  0  0  0
  -25.4320  -36.3630   23.8910 C   0  0  0  0  0  3  0  0  0  0  0  0
  -27.5750  -37.2410   24.7090 C   0  0  0  0  0  1  0  0  0  0  0  0
  -26.4660  -37.4160   23.7730 N   0  0  0  0  0  0  0  0  0  0  0  0
  -26.0630  -38.3370   23.9280 H   0  0  0  0  0  0  0  0  0  0  0  0
  -26.4240  -31.7490   25.1210 C   0  0  1  0  0  0  0  0  0  0  0  0
  -25.3430  -31.5100   26.2010 C   0  0  0  0  0  1  0  0  0  0  0  0
  -26.9970  -30.3720   24.7120 C   0  0  0  0  0  1  0  0  0  0  0  0
  -27.5860  -32.5340   25.7700 C   0  0  0  0  0  1  0  0  0  0  0  0
  1  2  1  0
  2  4  1  0
  2 49  1  0
  2  3  1  6
  5  4  1  0
  6  5  1  0
  6  9  1  0
  7  9  2  0
  7 10  1  0
  8  7  1  0
 11 19  1  0
 12 17  1  0
 13 14  1  0
 13 12  1  0
 15 14  1  0
 15 24  1  0
 15 16  1  0
 17 11  1  0
 17 16  1  0
 18 11  2  0
 19 10  1  0
 19 20  1  0
 21 22  2  0
 22 41  1  0
 23 22  1  0
 23 26  1  0
 24 21  1  0
 24 25  1  0
 25 23  2  0
 26 27  1  0
 27 28  2  0
 29 32  1  0
 29 28  1  0
 30 29  2  0
 31 30  1  0
 31 26  2  0
 32 33  1  0
 33 34  1  0
 34 35  2  0
 36 35  1  0
 36 40  1  0
 37 36  2  0
 38 33  2  0
 38 37  1  0
 39 38  1  0
 41 42  1  0
 42 45  1  0
 42 44  1  0
 43 41  2  0
 46 47  1  0
 46 21  1  0
 48 46  1  0
 50 49  1  0
 51 50  1  0
 52 63  2  0
 53 51  1  0
 53 58  1  0
 54 62  1  0
 54 64  1  0
 55 61  1  0
 55 57  1  0
 56 62  1  0
 57 56  1  0
 58 57  2  0
 59 60  1  0
 59 53  2  0
 60 55  2  0
 61 54  1  0
 62 52  1  0
 64 66  2  0
 65 64  1  0
 67 65  1  0
 68 77  2  0
 68 73  1  0
 69 65  1  0
 69 73  1  0
 70 69  1  0
 71 72  1  0
 71 70  1  0
 72 68  1  0
 73 74  2  0
 74 75  1  0
 76 75  2  0
 77 76  1  0
 78 52  1  0
 78 79  1  0
 78 88  1  0
 79 82  1  0
 80 84  1  0
 80 79  1  0
 81 80  2  0
 84 83  1  0
 86 84  1  0
 86 87  1  0
 86 85  1  0
 88 91  1  1
 88 89  1  0
 90 88  1  0
M  ISO  4  11 100  19 100  50 101  51 101
M  END
>  <TORSDO>  (27) 
F 23

>  <SCORE>  (27) 
-12.844

>  <name>  (27) 
26

>  <ligand_id>  (27) 
26

>  <original_smiles>  (27) 
[H]c1c([H])c([H])c2c(c1[H])C([H])([H])C([H])([H])C([H])([H])C2([H])N([H])C(=O)C1([H])N(C(=O)C([H])(N([H])C(=O)C([H])(N([H])C([H])([H])[H])C([H])([H])[H])C(C([H])([H])[H])(C([H])([H])[H])C([H])([H])[H])C([H])([H])c2c([H])c(OC([H])([H])C([H])([H])[N+]([H])(C([H])([H])[H])C([H])([H])C([H])([H])C([H])([H])N=C(C([H])([H])[H])C([H])([H])N([H])C(=O)N3C([H])([H])C([H])([H])C([H])([H])C([H])(n4nc(-c5c([H])c([H])c(Oc6c([H])c([H])c(F)c([H])c6F)c([H])c5[H])c(C(=O)N([H])[H])c4N([H])[H])C3([H])[H])c([H])c([H])c2C1([H])[H]

>  <smiles>  (27) 
[H]c1c([H])c([H])c2c(c1[H])C([H])([H])C([H])([H])C([H])([H])C2([H])N([H])C(=O)C1([H])N(C(=O)C([H])(N([H])C(=O)C([H])(N([H])C([H])([H])[H])C([H])([H])[H])C(C([H])([H])[H])(C([H])([H])[H])C([H])([H])[H])C([H])([H])c2c([H])c(OC([H])([H])C([H])([H])[N+]([H])(C([H])([H])[H])C([H])([H])C([H])([H])C([H])([H])N=C(C([H])([H])[H])C([H])([H])N([H])C(=O)N3C([H])([H])C([H])([H])C([H])([H])C([H])(n4nc(-c5c([H])c([H])c(Oc6c([H])c([H])c(F)c([H])c6F)c([H])c5[H])c(C(=O)N([H])[H])c4N([H])[H])C3([H])[H])c([H])c([H])c2C1([H])[H]

$$$$
27:0:0
     RDKit          3D

 95104  0  0  1  0  0  0  0  0999 V2000
  -28.0610  -21.9380   21.6600 C   0  0  0  0  0  3  0  0  0  0  0  0
  -28.0110  -23.2940   21.1930 C   0  0  0  0  0  3  0  0  0  0  0  0
  -29.1280  -19.4940   21.1710 C   0  0  0  0  0  3  0  0  0  0  0  0
  -28.8580  -20.9350   21.0320 C   0  0  0  0  0  0  0  0  0  0  0  0
  -28.7930  -23.7200   20.0920 C   0  0  0  0  0  0  0  0  0  0  0  0
  -30.0470  -19.0830   20.2120 C   0  0  0  0  0  0  0  0  0  0  0  0
  -29.6240  -21.4310   19.9530 C   0  0  0  0  0  0  0  0  0  0  0  0
  -29.6020  -22.7670   19.4880 N   0  0  0  0  0  0  0  0  0  0  0  0
  -30.3920  -20.3080   19.5120 N   0  0  0  0  0  0  0  0  0  0  0  0
  -28.2840  -25.1880   17.9590 C   0  0  0  0  0  1  0  0  0  0  0  0
  -28.7360  -25.2080   19.4360 C   0  0  0  0  0  3  0  0  0  0  0  0
  -28.4980  -26.5280   20.1680 O   0  0  0  0  0  0  0  0  0  0  0  0
  -24.6770  -31.9410   23.1980 C   0  0  0  0  0  0  0  0  0  0  0  0
  -27.3650  -27.3920   20.0860 C   0  0  0  0  0  0  0  0  0  0  0  0
  -23.4980  -30.5250   21.5560 C   0  0  0  0  0  3  0  0  0  0  0  0
  -24.9750  -29.0120   20.1080 C   0  0  0  0  0  0  0  0  0  0  0  0
  -26.0360  -30.8940   21.3600 C   0  0  0  0  0  2  0  0  0  0  0  0
  -26.1460  -29.5210   20.6830 C   0  0  0  0  0  0  0  0  0  0  0  0
  -27.3430  -28.7250   20.6480 C   0  0  0  0  0  3  0  0  0  0  0  0
  -26.1520  -26.9510   19.5250 C   0  0  0  0  0  3  0  0  0  0  0  0
  -24.9830  -27.7410   19.5190 C   0  0  0  0  0  3  0  0  0  0  0  0
  -23.7230  -29.8650   20.1710 C   0  0  0  0  0  2  0  0  0  0  0  0
  -24.7560  -31.1420   22.0910 N   0  0  0  0  0  0  0  0  0  0  0  0
  -23.5920  -32.1890   23.7450 O   0  0  0  0  0  0  0  0  0  0  0  0
  -22.8590  -29.4940   22.5190 C   0  0  0  0  0  0  0  0  0  0  0  0
  -21.5390  -29.2800   22.3890 N   0  0  0  0  0  0  0  0  0  0  0  0
  -23.5540  -28.8890   23.3390 O   0  0  0  0  0  0  0  0  0  0  0  0
  -21.0370  -29.8110   21.6900 H   0  0  0  0  0  0  0  0  0  0  0  0
  -18.1980  -27.9700   22.8760 C   0  0  0  0  0  0  0  0  0  0  0  0
  -20.7470  -28.3160   23.1570 C   0  0  0  0  0  3  0  0  0  0  0  0
  -20.8990  -26.8900   22.5750 C   0  0  0  0  0  2  0  0  0  0  0  0
  -19.8110  -26.5330   21.5580 C   0  0  0  0  0  2  0  0  0  0  0  0
  -18.4220  -26.6320   22.1960 C   0  0  0  0  0  2  0  0  0  0  0  0
  -19.2900  -28.7660   23.3140 C   0  0  0  0  0  0  0  0  0  0  0  0
  -19.0250  -30.0180   23.9130 C   0  0  0  0  0  3  0  0  0  0  0  0
  -17.7040  -30.4730   24.0790 C   0  0  0  0  0  3  0  0  0  0  0  0
  -16.6270  -29.6730   23.6600 C   0  0  0  0  0  3  0  0  0  0  0  0
  -16.8760  -28.4250   23.0640 C   0  0  0  0  0  3  0  0  0  0  0  0
  -25.9480  -32.5980   23.8190 C   0  0  0  0  0  3  0  0  0  0  0  0
  -26.4720  -31.8460   25.1030 C   0  0  1  0  0  0  0  0  0  0  0  0
  -25.3710  -31.5870   26.1560 C   0  0  0  0  0  1  0  0  0  0  0  0
  -27.0920  -30.4780   24.7300 C   0  0  0  0  0  1  0  0  0  0  0  0
  -27.5970  -32.6700   25.7760 C   0  0  0  0  0  1  0  0  0  0  0  0
  -25.6210  -33.9940   24.1450 N   0  0  0  0  0  0  0  0  0  0  0  0
  -25.9510  -35.0500   23.3890 C   0  0  0  0  0  0  0  0  0  0  0  0
  -26.6320  -34.9540   22.3660 O   0  0  0  0  0  0  0  0  0  0  0  0
  -25.0220  -34.1460   24.9410 H   0  0  0  0  0  0  0  0  0  0  0  0
  -24.2140  -36.8250   23.0070 C   0  0  0  0  0  1  0  0  0  0  0  0
  -25.4420  -36.4310   23.8430 C   0  0  0  0  0  3  0  0  0  0  0  0
  -27.5380  -37.3330   24.7440 C   0  0  0  0  0  1  0  0  0  0  0  0
  -26.4680  -37.4930   23.7620 N   0  0  0  0  0  0  0  0  0  0  0  0
  -26.0450  -38.4050   23.9040 H   0  0  0  0  0  0  0  0  0  0  0  0
  -30.7420  -17.6450   19.9490 C   0  0  0  0  0  2  0  0  0  0  0  0
  -30.8420  -15.0240   19.9360 C   0  0  0  0  0  0  0  0  0  0  0  0
  -30.5620  -12.7280   18.9450 C   0  0  0  0  0  2  0  0  0  0  0  0
  -29.5570  -12.7670   17.7740 C   0  0  0  0  0  2  0  0  0  0  0  0
  -28.1200  -12.5610   18.2850 C   0  0  0  0  0  2  0  0  0  0  0  0
  -27.7990  -13.4510   19.5150 C   0  0  0  0  0  3  0  0  0  0  0  0
  -28.9260  -13.4290   20.5730 C   0  0  0  0  0  2  0  0  0  0  0  0
  -30.1820  -13.8040   19.9030 N   0  0  0  0  0  0  0  0  0  0  0  0
  -31.9930  -15.0790   19.4870 O   0  0  0  0  0  0  0  0  0  0  0  0
  -30.1940  -16.2250   20.2580 N   0  0  0  0  0  0  0  0  0  0  0  0
  -29.2510  -16.1640   20.6110 H   0  0  0  0  0  0  0  0  0  0  0  0
  -25.4700  -14.0010   20.4340 C   0  0  0  0  0  0  0  0  0  0  0  0
  -24.4290  -13.2150   20.8380 C   0  0  0  0  0  0  0  0  0  0  0  0
  -24.8810  -11.8640   20.7160 C   0  0  0  0  0  0  0  0  0  0  0  0
  -26.4910  -13.1330   20.0850 N   0  0  0  0  0  0  0  0  0  0  0  0
  -26.1490  -11.8380   20.3170 N   0  0  0  0  0  0  0  0  0  0  0  0
  -24.1630  -10.5970   20.9050 C   0  0  0  0  0  0  0  0  0  0  0  0
  -24.5800   -9.6420   21.8600 C   0  0  0  0  0  3  0  0  0  0  0  0
  -23.8590   -8.4410   22.0370 C   0  0  0  0  0  3  0  0  0  0  0  0
  -22.7060   -8.1850   21.2590 C   0  0  0  0  0  0  0  0  0  0  0  0
  -22.3090   -9.1260   20.2920 C   0  0  0  0  0  3  0  0  0  0  0  0
  -23.0320  -10.3170   20.1140 C   0  0  0  0  0  3  0  0  0  0  0  0
  -21.9600   -7.0330   21.3420 O   0  0  0  0  0  0  0  0  0  0  0  0
  -21.7910   -6.3690   22.5310 C   0  0  0  0  0  0  0  0  0  0  0  0
  -21.1710   -6.9800   23.6420 C   0  0  0  0  0  3  0  0  0  0  0  0
  -20.9520   -6.2400   24.8230 C   0  0  0  0  0  3  0  0  0  0  0  0
  -21.3460   -4.8900   24.8900 C   0  0  0  0  0  0  0  0  0  0  0  0
  -21.9530   -4.2770   23.7800 C   0  0  0  0  0  3  0  0  0  0  0  0
  -22.1740   -5.0150   22.6040 C   0  0  0  0  0  0  0  0  0  0  0  0
  -22.7440   -4.4130   21.5310 F   0  0  0  0  0  0  0  0  0  0  0  0
  -21.1260   -4.1760   26.0190 F   0  0  0  0  0  0  0  0  0  0  0  0
  -23.0560  -13.6800   21.2280 C   0  0  0  0  0  0  0  0  0  0  0  0
  -22.3840  -12.9510   22.1050 N   0  0  0  0  0  0  0  0  0  0  0  0
  -22.5880  -14.7330   20.7910 O   0  0  0  0  0  0  0  0  0  0  0  0
  -22.7760  -12.1020   22.4840 H   0  0  0  0  0  0  0  0  0  0  0  0
  -21.4650  -13.2450   22.4090 H   0  0  0  0  0  0  0  0  0  0  0  0
  -25.6300  -15.3780   20.3050 N   0  0  0  0  0  0  0  0  0  0  0  0
  -24.8910  -16.0410   20.5130 H   0  0  0  0  0  0  0  0  0  0  0  0
  -26.4710  -15.8240   19.9580 H   0  0  0  0  0  0  0  0  0  0  0  0
  -31.3600  -20.4000   18.4120 C   0  0  0  0  0  2  0  0  0  0  0  0
  -33.2910  -21.5350   17.2390 C   0  0  0  0  0  1  0  0  0  0  0  0
  -33.3110  -21.4670   19.7840 C   0  0  0  0  0  1  0  0  0  0  0  0
  -32.4360  -21.5200   18.5140 C   0  0  0  0  0  3  0  0  0  0  0  0
  2  1  1  0
  4  3  1  0
  4  1  2  0
  5  2  2  0
  6  3  2  0
  7  4  1  0
  8  7  2  0
  8  5  1  0
  9  7  1  0
  9  6  1  0
 11 10  1  0
 11  5  1  0
 11 12  1  0
 13 24  2  0
 14 12  1  0
 14 19  1  0
 15 23  1  0
 15 25  1  0
 16 22  1  0
 16 18  1  0
 17 23  1  0
 18 17  1  0
 19 18  2  0
 20 14  2  0
 21 20  1  0
 21 16  2  0
 22 15  1  0
 23 13  1  0
 25 27  2  0
 26 25  1  0
 28 26  1  0
 29 38  2  0
 29 34  1  0
 30 26  1  0
 30 34  1  0
 31 30  1  0
 32 33  1  0
 32 31  1  0
 33 29  1  0
 34 35  2  0
 35 36  1  0
 37 36  2  0
 38 37  1  0
 39 13  1  0
 39 44  1  0
 39 40  1  0
 40 43  1  1
 40 41  1  0
 42 40  1  0
 44 47  1  0
 45 49  1  0
 45 44  1  0
 46 45  2  0
 49 48  1  0
 51 49  1  0
 51 52  1  0
 51 50  1  0
 53  6  1  0
 53 62  1  0
 54 62  1  0
 55 60  1  0
 56 57  1  0
 56 55  1  0
 58 57  1  0
 58 67  1  0
 58 59  1  0
 60 54  1  0
 60 59  1  0
 61 54  2  0
 62 63  1  0
 64 65  2  0
 65 84  1  0
 66 65  1  0
 66 69  1  0
 67 68  1  0
 67 64  1  0
 68 66  2  0
 69 70  1  0
 70 71  2  0
 72 75  1  0
 72 71  1  0
 73 72  2  0
 74 73  1  0
 74 69  2  0
 75 76  1  0
 76 81  2  0
 76 77  1  0
 77 78  2  0
 78 79  1  0
 79 83  1  0
 80 79  2  0
 81 80  1  0
 82 81  1  0
 84 85  1  0
 85 88  1  0
 85 87  1  0
 86 84  2  0
 89 64  1  0
 89 90  1  0
 91 89  1  0
 92 95  1  0
 92  9  1  0
 93 95  1  0
 95 94  1  0
M  ISO  4  11 101  12 101  54 100  62 100
M  END
>  <TORSDO>  (28) 
F 20

>  <SCORE>  (28) 
-13.379

>  <name>  (28) 
27

>  <ligand_id>  (28) 
27

>  <original_smiles>  (28) 
[H]c1c([H])c([H])c2c(c1[H])C([H])([H])C([H])([H])C([H])([H])C2([H])N([H])C(=O)C1([H])N(C(=O)C([H])(N([H])C(=O)C([H])(N([H])C([H])([H])[H])C([H])([H])[H])C(C([H])([H])[H])(C([H])([H])[H])C([H])([H])[H])C([H])([H])c2c([H])c(OC([H])(c3nc4c(c([H])c3[H])c([H])c(C([H])([H])N([H])C(=O)N3C([H])([H])C([H])([H])C([H])([H])C([H])(n5nc(-c6c([H])c([H])c(Oc7c([H])c([H])c(F)c([H])c7F)c([H])c6[H])c(C(=O)N([H])[H])c5N([H])[H])C3([H])[H])n4C([H])([H])C([H])(C([H])([H])[H])C([H])([H])[H])C([H])([H])[H])c([H])c([H])c2C1([H])[H]

>  <smiles>  (28) 
[H]c1c([H])c([H])c2c(c1[H])C([H])([H])C([H])([H])C([H])([H])C2([H])N([H])C(=O)C1([H])N(C(=O)C([H])(N([H])C(=O)C([H])(N([H])C([H])([H])[H])C([H])([H])[H])C(C([H])([H])[H])(C([H])([H])[H])C([H])([H])[H])C([H])([H])c2c([H])c(OC([H])(c3nc4c(c([H])c3[H])c([H])c(C([H])([H])N([H])C(=O)N3C([H])([H])C([H])([H])C([H])([H])C([H])(n5nc(-c6c([H])c([H])c(Oc7c([H])c([H])c(F)c([H])c7F)c([H])c6[H])c(C(=O)N([H])[H])c5N([H])[H])C3([H])[H])n4C([H])([H])C([H])(C([H])([H])[H])C([H])([H])[H])C([H])([H])[H])c([H])c([H])c2C1([H])[H]

$$$$
28:0:0
     RDKit          3D

 89 97  0  0  1  0  0  0  0  0999 V2000
  -28.5630  -21.6110   20.5990 C   0  0  0  0  0  2  0  0  0  0  0  0
  -31.0260  -18.5880   20.3660 C   0  0  0  0  0  3  0  0  0  0  0  0
  -28.8410  -18.8430   20.4450 C   0  0  0  0  0  3  0  0  0  0  0  0
  -29.8240  -17.8110   20.4130 C   0  0  0  0  0  0  0  0  0  0  0  0
  -30.7470  -19.9600   20.4070 C   0  0  0  0  0  0  0  0  0  0  0  0
  -31.7340  -21.0840   20.4710 C   0  0  0  0  0  1  0  0  0  0  0  0
  -29.3600  -20.2120   20.4330 N   0  0  0  0  0  0  0  0  0  0  0  0
  -30.4960  -15.0940   20.3040 C   0  0  0  0  0  0  0  0  0  0  0  0
  -30.4180  -12.7230   19.3590 C   0  0  0  0  0  2  0  0  0  0  0  0
  -29.4790  -12.6560   18.1310 C   0  0  0  0  0  2  0  0  0  0  0  0
  -28.0220  -12.4130   18.5720 C   0  0  0  0  0  2  0  0  0  0  0  0
  -27.6060  -13.3330   19.7500 C   0  0  0  0  0  3  0  0  0  0  0  0
  -28.6670  -13.3670   20.8700 C   0  0  0  0  0  2  0  0  0  0  0  0
  -29.9250  -13.8130   20.2560 N   0  0  0  0  0  0  0  0  0  0  0  0
  -31.6970  -15.1660   20.0220 O   0  0  0  0  0  0  0  0  0  0  0  0
  -29.6720  -16.2610   20.4650 N   0  0  0  0  0  0  0  0  0  0  0  0
  -28.7200  -15.9780   20.6360 H   0  0  0  0  0  0  0  0  0  0  0  0
  -25.2270  -13.8850   20.5120 C   0  0  0  0  0  0  0  0  0  0  0  0
  -24.1710  -13.1000   20.8810 C   0  0  0  0  0  0  0  0  0  0  0  0
  -24.6430  -11.7510   20.8340 C   0  0  0  0  0  0  0  0  0  0  0  0
  -26.2740  -13.0160   20.2560 N   0  0  0  0  0  0  0  0  0  0  0  0
  -25.9340  -11.7260   20.5160 N   0  0  0  0  0  0  0  0  0  0  0  0
  -23.9240  -10.4840   21.0150 C   0  0  0  0  0  0  0  0  0  0  0  0
  -24.3440   -9.5280   21.9660 C   0  0  0  0  0  3  0  0  0  0  0  0
  -23.6240   -8.3250   22.1360 C   0  0  0  0  0  3  0  0  0  0  0  0
  -22.4720   -8.0700   21.3560 C   0  0  0  0  0  0  0  0  0  0  0  0
  -22.0720   -9.0150   20.3950 C   0  0  0  0  0  3  0  0  0  0  0  0
  -22.7920  -10.2090   20.2220 C   0  0  0  0  0  3  0  0  0  0  0  0
  -21.7260   -6.9190   21.4340 O   0  0  0  0  0  0  0  0  0  0  0  0
  -21.6270   -6.2030   22.6010 C   0  0  0  0  0  0  0  0  0  0  0  0
  -21.1010   -6.7710   23.7810 C   0  0  0  0  0  3  0  0  0  0  0  0
  -20.9550   -5.9810   24.9390 C   0  0  0  0  0  3  0  0  0  0  0  0
  -21.3210   -4.6210   24.9130 C   0  0  0  0  0  0  0  0  0  0  0  0
  -21.8380   -4.0520   23.7360 C   0  0  0  0  0  3  0  0  0  0  0  0
  -21.9870   -4.8410   22.5820 C   0  0  0  0  0  0  0  0  0  0  0  0
  -22.4680   -4.2820   21.4450 F   0  0  0  0  0  0  0  0  0  0  0  0
  -21.1710   -3.8580   26.0210 F   0  0  0  0  0  0  0  0  0  0  0  0
  -22.7720  -13.5650   21.1610 C   0  0  0  0  0  0  0  0  0  0  0  0
  -22.0490  -12.8540   22.0190 N   0  0  0  0  0  0  0  0  0  0  0  0
  -22.3280  -14.5950   20.6550 O   0  0  0  0  0  0  0  0  0  0  0  0
  -22.4210  -12.0220   22.4520 H   0  0  0  0  0  0  0  0  0  0  0  0
  -21.1070  -13.1460   22.2440 H   0  0  0  0  0  0  0  0  0  0  0  0
  -25.3760  -15.2580   20.3460 N   0  0  0  0  0  0  0  0  0  0  0  0
  -24.5940  -15.8950   20.4600 H   0  0  0  0  0  0  0  0  0  0  0  0
  -26.2010  -15.7120   19.9740 H   0  0  0  0  0  0  0  0  0  0  0  0
  -29.2950  -23.2060   18.6340 C   0  0  0  0  0  1  0  0  0  0  0  0
  -28.9560  -23.2170   20.1320 C   0  0  0  0  0  3  0  0  0  0  0  0
  -27.9630  -24.5930   20.4130 C   0  0  0  0  0  2  0  0  0  0  0  0
  -28.2360  -26.1430   20.2340 O   0  0  0  0  0  0  0  0  0  0  0  0
  -24.6080  -31.8940   23.2330 C   0  0  0  0  0  0  0  0  0  0  0  0
  -27.1810  -27.1460   20.2020 C   0  0  0  0  0  0  0  0  0  0  0  0
  -23.4100  -30.5000   21.5920 C   0  0  0  0  0  3  0  0  0  0  0  0
  -24.8570  -28.9220   20.1680 C   0  0  0  0  0  0  0  0  0  0  0  0
  -25.9660  -30.7540   21.4340 C   0  0  0  0  0  2  0  0  0  0  0  0
  -26.0390  -29.3580   20.7800 C   0  0  0  0  0  0  0  0  0  0  0  0
  -27.2000  -28.4880   20.7760 C   0  0  0  0  0  3  0  0  0  0  0  0
  -25.9730  -26.8290   19.5420 C   0  0  0  0  0  3  0  0  0  0  0  0
  -24.8400  -27.6720   19.5310 C   0  0  0  0  0  3  0  0  0  0  0  0
  -23.6330  -29.8240   20.2130 C   0  0  0  0  0  2  0  0  0  0  0  0
  -24.6820  -31.0720   22.1410 N   0  0  0  0  0  0  0  0  0  0  0  0
  -23.5210  -32.1780   23.7600 O   0  0  0  0  0  0  0  0  0  0  0  0
  -22.7270  -29.4930   22.5530 C   0  0  0  0  0  0  0  0  0  0  0  0
  -21.4000  -29.3190   22.4230 N   0  0  0  0  0  0  0  0  0  0  0  0
  -23.3970  -28.8700   23.3810 O   0  0  0  0  0  0  0  0  0  0  0  0
  -20.9140  -29.8800   21.7360 H   0  0  0  0  0  0  0  0  0  0  0  0
  -18.0190  -28.1090   22.9140 C   0  0  0  0  0  0  0  0  0  0  0  0
  -20.5760  -28.3790   23.1890 C   0  0  0  0  0  3  0  0  0  0  0  0
  -20.6810  -26.9460   22.6150 C   0  0  0  0  0  2  0  0  0  0  0  0
  -19.5840  -26.6220   21.5970 C   0  0  0  0  0  2  0  0  0  0  0  0
  -18.2010  -26.7620   22.2370 C   0  0  0  0  0  2  0  0  0  0  0  0
  -19.1330  -28.8760   23.3470 C   0  0  0  0  0  0  0  0  0  0  0  0
  -18.9070  -30.1370   23.9410 C   0  0  0  0  0  3  0  0  0  0  0  0
  -17.5990  -30.6300   24.1080 C   0  0  0  0  0  3  0  0  0  0  0  0
  -16.4980  -29.8610   23.6910 C   0  0  0  0  0  3  0  0  0  0  0  0
  -16.7100  -28.6030   23.1000 C   0  0  0  0  0  3  0  0  0  0  0  0
  -25.8850  -32.5300   23.8620 C   0  0  0  0  0  3  0  0  0  0  0  0
  -26.3840  -31.7710   25.1540 C   0  0  1  0  0  0  0  0  0  0  0  0
  -25.2790  -31.5500   26.2150 C   0  0  0  0  0  1  0  0  0  0  0  0
  -26.9650  -30.3860   24.7900 C   0  0  0  0  0  1  0  0  0  0  0  0
  -27.5290  -32.5690   25.8220 C   0  0  0  0  0  1  0  0  0  0  0  0
  -25.5780  -33.9320   24.1840 N   0  0  0  0  0  0  0  0  0  0  0  0
  -25.9080  -34.9830   23.4220 C   0  0  0  0  0  0  0  0  0  0  0  0
  -26.5720  -34.8750   22.3880 O   0  0  0  0  0  0  0  0  0  0  0  0
  -24.9970  -34.0910   24.9940 H   0  0  0  0  0  0  0  0  0  0  0  0
  -24.1900  -36.7880   23.0700 C   0  0  0  0  0  1  0  0  0  0  0  0
  -25.4290  -36.3750   23.8790 C   0  0  0  0  0  3  0  0  0  0  0  0
  -27.5650  -37.2570   24.7120 C   0  0  0  0  0  1  0  0  0  0  0  0
  -26.4660  -37.4250   23.7650 N   0  0  0  0  0  0  0  0  0  0  0  0
  -26.0620  -38.3460   23.9090 H   0  0  0  0  0  0  0  0  0  0  0  0
  2  5  2  0
  2  4  1  0
  4  3  2  0
  4 16  1  0
  5  7  1  0
  5  6  1  0
  7  3  1  0
  7  1  1  0
  8 16  1  0
  9 14  1  0
 10 11  1  0
 10  9  1  0
 12 11  1  0
 12 21  1  0
 12 13  1  0
 14  8  1  0
 14 13  1  0
 15  8  2  0
 16 17  1  0
 18 19  2  0
 19 38  1  0
 20 19  1  0
 20 23  1  0
 21 18  1  0
 21 22  1  0
 22 20  2  0
 23 24  1  0
 24 25  2  0
 26 29  1  0
 26 25  1  0
 27 26  2  0
 28 27  1  0
 28 23  2  0
 29 30  1  0
 30 31  1  0
 31 32  2  0
 33 32  1  0
 33 37  1  0
 34 33  2  0
 35 30  2  0
 35 34  1  0
 36 35  1  0
 38 39  1  0
 39 42  1  0
 39 41  1  0
 40 38  2  0
 43 44  1  0
 43 18  1  0
 45 43  1  0
 47 46  1  0
 47 48  1  0
 47  1  1  0
 49 48  1  0
 50 61  2  0
 51 49  1  0
 51 56  1  0
 52 60  1  0
 52 62  1  0
 53 59  1  0
 53 55  1  0
 54 60  1  0
 55 54  1  0
 56 55  2  0
 57 51  2  0
 58 57  1  0
 58 53  2  0
 59 52  1  0
 60 50  1  0
 62 64  2  0
 63 62  1  0
 65 63  1  0
 66 75  2  0
 66 71  1  0
 67 63  1  0
 67 71  1  0
 68 67  1  0
 69 70  1  0
 69 68  1  0
 70 66  1  0
 71 72  2  0
 72 73  1  0
 74 73  2  0
 75 74  1  0
 76 50  1  0
 76 81  1  0
 76 77  1  0
 77 80  1  1
 77 78  1  0
 79 77  1  0
 81 84  1  0
 82 86  1  0
 82 81  1  0
 83 82  2  0
 86 85  1  0
 88 86  1  0
 88 89  1  0
 88 87  1  0
M  ISO  4   8 100  16 100  48 101  49 101
M  END
>  <TORSDO>  (29) 
F 19

>  <SCORE>  (29) 
-15.588

>  <name>  (29) 
28

>  <ligand_id>  (29) 
28

>  <original_smiles>  (29) 
[H]c1c([H])c([H])c2c(c1[H])C([H])([H])C([H])([H])C([H])([H])C2([H])N([H])C(=O)C1([H])N(C(=O)C([H])(N([H])C(=O)C([H])(N([H])C([H])([H])[H])C([H])([H])[H])C(C([H])([H])[H])(C([H])([H])[H])C([H])([H])[H])C([H])([H])c2c([H])c(OC([H])([H])C([H])(C([H])([H])[H])C([H])([H])n3c([H])c(N([H])C(=O)N4C([H])([H])C([H])([H])C([H])([H])C([H])(n5nc(-c6c([H])c([H])c(Oc7c([H])c([H])c(F)c([H])c7F)c([H])c6[H])c(C(=O)N([H])[H])c5N([H])[H])C4([H])[H])c([H])c3C([H])([H])[H])c([H])c([H])c2C1([H])[H]

>  <smiles>  (29) 
[H]c1c([H])c([H])c2c(c1[H])C([H])([H])C([H])([H])C([H])([H])C2([H])N([H])C(=O)C1([H])N(C(=O)C([H])(N([H])C(=O)C([H])(N([H])C([H])([H])[H])C([H])([H])[H])C(C([H])([H])[H])(C([H])([H])[H])C([H])([H])[H])C([H])([H])c2c([H])c(OC([H])([H])C([H])(C([H])([H])[H])C([H])([H])n3c([H])c(N([H])C(=O)N4C([H])([H])C([H])([H])C([H])([H])C([H])(n5nc(-c6c([H])c([H])c(Oc7c([H])c([H])c(F)c([H])c7F)c([H])c6[H])c(C(=O)N([H])[H])c5N([H])[H])C4([H])[H])c([H])c3C([H])([H])[H])c([H])c([H])c2C1([H])[H]

$$$$
29:0:0
     RDKit          3D

 99105  0  0  1  0  0  0  0  0999 V2000
  -28.7990  -16.7110   21.5550 C   0  0  0  0  0  2  0  0  0  0  0  0
  -30.5170  -14.3880   21.6770 C   0  0  0  0  0  2  0  0  0  0  0  0
  -29.3260  -15.1110   21.7980 C   0  0  0  0  0  3  0  0  0  0  0  0
  -28.5480  -13.9560   22.2180 C   0  0  0  0  0  3  0  0  0  0  0  0
  -29.2570  -12.7480   22.0210 C   0  0  0  0  0  3  0  0  0  0  0  0
  -27.1830  -14.0620   22.8490 C   0  0  0  0  0  1  0  0  0  0  0  0
  -30.3230  -12.9930   21.1690 N   0  0  0  0  0  0  0  0  0  0  0  0
  -28.3640  -10.3640   21.8190 C   0  0  0  0  0  1  0  0  0  0  0  0
  -28.6900  -11.4450   24.1120 C   0  0  0  0  0  1  0  0  0  0  0  0
  -29.1500  -11.3770   22.6390 C   0  0  0  0  0  3  0  0  0  0  0  0
  -31.1210  -12.0260   19.9510 C   0  0  0  0  0  1  0  0  0  0  0  0
  -32.0000  -13.1700   17.5080 C   0  0  0  0  0  1  0  0  0  0  0  0
  -33.9120  -13.7070   18.8040 C   0  0  0  0  0  0  0  0  0  0  0  0
  -32.8820  -11.5890   19.0000 C   0  0  0  0  0  3  0  0  0  0  0  0
  -31.3180  -11.0040   18.1150 C   0  0  0  0  0  3  0  0  0  0  0  0
  -29.8990  -12.1360   17.7710 C   0  0  0  0  0  2  0  0  0  0  0  0
  -29.8790  -13.8590   18.4380 C   0  0  0  0  0  3  0  0  0  0  0  0
  -31.4800  -14.5720   19.2170 C   0  0  0  0  0  1  0  0  0  0  0  0
  -32.9370  -13.3370   19.4750 N   0  0  0  0  0  2  0  0  0  0  0  0
  -35.0670  -13.6670   19.1700 O   0  0  0  0  0  0  0  0  0  0  0  0
  -34.1210  -14.1760   16.3670 C   0  0  0  0  0  1  0  0  0  0  0  0
  -33.3950  -13.7670   17.5660 N   0  0  0  0  0  0  0  0  0  0  0  0
  -27.9110  -15.0790   19.4130 C   0  0  0  0  0  0  0  0  0  0  0  0
  -26.6860  -14.6200   19.7980 C   0  0  0  0  0  0  0  0  0  0  0  0
  -26.7590  -13.2000   19.8820 C   0  0  0  0  0  0  0  0  0  0  0  0
  -28.6540  -13.9620   19.2150 N   0  0  0  0  0  0  0  0  0  0  0  0
  -27.9710  -12.8320   19.5760 N   0  0  0  0  0  0  0  0  0  0  0  0
  -25.7350  -12.1630   20.0920 C   0  0  0  0  0  0  0  0  0  0  0  0
  -25.9130  -11.1080   21.0140 C   0  0  0  0  0  3  0  0  0  0  0  0
  -24.8910  -10.1510   21.2160 C   0  0  0  0  0  3  0  0  0  0  0  0
  -23.6720  -10.2540   20.4990 C   0  0  0  0  0  0  0  0  0  0  0  0
  -23.5250  -11.2740   19.5410 C   0  0  0  0  0  3  0  0  0  0  0  0
  -24.5480  -12.2130   19.3350 C   0  0  0  0  0  3  0  0  0  0  0  0
  -22.6170   -9.3830   20.6300 O   0  0  0  0  0  0  0  0  0  0  0  0
  -22.3910   -8.6920   21.7940 C   0  0  0  0  0  0  0  0  0  0  0  0
  -22.3340   -9.3460   23.0450 C   0  0  0  0  0  3  0  0  0  0  0  0
  -22.0310   -8.6140   24.2130 C   0  0  0  0  0  3  0  0  0  0  0  0
  -21.7760   -7.2320   24.1220 C   0  0  0  0  0  0  0  0  0  0  0  0
  -21.8370   -6.5720   22.8800 C   0  0  0  0  0  3  0  0  0  0  0  0
  -22.1400   -7.3060   21.7180 C   0  0  0  0  0  0  0  0  0  0  0  0
  -22.1640   -6.6840   20.5150 F   0  0  0  0  0  0  0  0  0  0  0  0
  -21.4850   -6.5240   25.2370 F   0  0  0  0  0  0  0  0  0  0  0  0
  -25.4730  -15.4600   19.9230 C   0  0  0  0  0  0  0  0  0  0  0  0
  -24.5510  -15.0520   20.7870 N   0  0  0  0  0  0  0  0  0  0  0  0
  -25.3620  -16.5030   19.2820 O   0  0  0  0  0  0  0  0  0  0  0  0
  -24.6460  -14.1720   21.2740 H   0  0  0  0  0  0  0  0  0  0  0  0
  -23.7370  -15.6260   20.9610 H   0  0  0  0  0  0  0  0  0  0  0  0
  -28.4310  -16.3300   19.1040 N   0  0  0  0  0  0  0  0  0  0  0  0
  -27.8380  -17.1530   19.1220 H   0  0  0  0  0  0  0  0  0  0  0  0
  -29.3320  -16.4900   18.6790 H   0  0  0  0  0  0  0  0  0  0  0  0
  -29.5390  -18.2460   21.3850 C   0  0  0  0  0  2  0  0  0  0  0  0
  -27.7310  -19.1270   19.5990 C   0  0  0  0  0  1  0  0  0  0  0  0
  -29.0370  -19.5140   20.3180 C   0  0  0  0  0  3  0  0  0  0  0  0
  -28.9240  -21.0690   20.6740 N   0  0  0  0  0  4  0  0  0  0  0  0
  -28.1400  -21.1420   21.3070 H   0  0  0  0  0  0  0  0  0  0  0  0
  -29.7370  -21.3200   21.2200 H   0  0  0  0  0  0  0  0  0  0  0  0
  -28.7260  -22.2400   19.6010 C   0  0  0  0  0  2  0  0  0  0  0  0
  -28.2570  -23.8340   19.9550 C   0  0  0  0  0  2  0  0  0  0  0  0
  -28.4220  -25.1570   19.1320 O   0  0  0  0  0  0  0  0  0  0  0  0
  -24.8370  -30.4850   22.6050 C   0  0  0  0  0  0  0  0  0  0  0  0
  -27.4150  -26.1790   19.1300 C   0  0  0  0  0  0  0  0  0  0  0  0
  -23.6530  -29.2870   20.8050 C   0  0  0  0  0  3  0  0  0  0  0  0
  -25.1180  -27.9300   19.1900 C   0  0  0  0  0  0  0  0  0  0  0  0
  -26.1950  -29.6230   20.6630 C   0  0  0  0  0  2  0  0  0  0  0  0
  -26.2840  -28.3130   19.8660 C   0  0  0  0  0  0  0  0  0  0  0  0
  -27.4410  -27.4550   19.8180 C   0  0  0  0  0  3  0  0  0  0  0  0
  -26.2510  -25.9190   18.3790 C   0  0  0  0  0  3  0  0  0  0  0  0
  -25.1180  -26.7580   18.4170 C   0  0  0  0  0  3  0  0  0  0  0  0
  -23.8870  -28.8000   19.3500 C   0  0  0  0  0  2  0  0  0  0  0  0
  -24.9170  -29.8110   21.4190 N   0  0  0  0  0  0  0  0  0  0  0  0
  -23.7460  -30.6850   23.1640 O   0  0  0  0  0  0  0  0  0  0  0  0
  -22.9930  -28.1530   21.6300 C   0  0  0  0  0  0  0  0  0  0  0  0
  -21.6660  -27.9860   21.4920 N   0  0  0  0  0  0  0  0  0  0  0  0
  -23.6740  -27.4350   22.3650 O   0  0  0  0  0  0  0  0  0  0  0  0
  -21.1720  -28.6240   20.8840 H   0  0  0  0  0  0  0  0  0  0  0  0
  -18.2950  -26.7050   21.8580 C   0  0  0  0  0  0  0  0  0  0  0  0
  -20.8550  -26.9500   22.1400 C   0  0  0  0  0  3  0  0  0  0  0  0
  -20.9610  -25.6070   21.3800 C   0  0  0  0  0  2  0  0  0  0  0  0
  -19.8490  -25.4100   20.3430 C   0  0  0  0  0  2  0  0  0  0  0  0
  -18.4740  -25.4590   21.0120 C   0  0  0  0  0  2  0  0  0  0  0  0
  -19.4120  -27.4160   22.3740 C   0  0  0  0  0  0  0  0  0  0  0  0
  -19.1850  -28.5890   23.1290 C   0  0  0  0  0  3  0  0  0  0  0  0
  -17.8750  -29.0460   23.3750 C   0  0  0  0  0  3  0  0  0  0  0  0
  -16.7750  -28.3320   22.8700 C   0  0  0  0  0  3  0  0  0  0  0  0
  -16.9870  -27.1620   22.1190 C   0  0  0  0  0  3  0  0  0  0  0  0
  -26.1060  -31.0580   23.3100 C   0  0  0  0  0  3  0  0  0  0  0  0
  -26.7220  -30.0720   24.3780 C   0  0  1  0  0  0  0  0  0  0  0  0
  -25.6910  -29.5410   25.4020 C   0  0  0  0  0  1  0  0  0  0  0  0
  -27.3670  -28.8540   23.6780 C   0  0  0  0  0  1  0  0  0  0  0  0
  -27.8460  -30.7830   25.1650 C   0  0  0  0  0  1  0  0  0  0  0  0
  -25.7370  -32.3360   23.9420 N   0  0  0  0  0  0  0  0  0  0  0  0
  -26.0450  -33.5460   23.4530 C   0  0  0  0  0  0  0  0  0  0  0  0
  -26.7330  -33.7010   22.4410 O   0  0  0  0  0  0  0  0  0  0  0  0
  -25.1290  -32.2850   24.7460 H   0  0  0  0  0  0  0  0  0  0  0  0
  -24.2750  -35.3350   23.4650 C   0  0  0  0  0  1  0  0  0  0  0  0
  -25.5000  -34.7740   24.2060 C   0  0  0  0  0  3  0  0  0  0  0  0
  -27.5750  -35.4830   25.3080 C   0  0  0  0  0  1  0  0  0  0  0  0
  -26.5030  -35.8450   24.3850 N   0  0  0  0  0  0  0  0  0  0  0  0
  -26.0650  -36.6940   24.7280 H   0  0  0  0  0  0  0  0  0  0  0  0
  2  3  1  0
  3  1  1  0
  3  4  1  0
  4  6  1  0
  5  4  1  0
  5 10  1  0
  7  2  1  0
  7  5  1  0
  8 10  1  0
 10  9  1  0
 11  7  1  0
 12 22  1  0
 13 20  2  0
 13 19  1  0
 14 19  1  0
 15 14  2  0
 16 15  1  0
 16 17  1  0
 17 26  1  0
 17 18  1  0
 21 22  1  0
 22 13  1  0
 23 24  2  0
 24 25  1  0
 24 43  1  0
 25 28  1  0
 26 23  1  0
 26 27  1  0
 27 25  2  0
 28 29  1  0
 29 30  2  0
 31 34  1  0
 31 30  1  0
 32 31  2  0
 33 32  1  0
 33 28  2  0
 34 35  1  0
 35 36  1  0
 36 37  2  0
 38 37  1  0
 38 42  1  0
 39 38  2  0
 40 35  2  0
 40 39  1  0
 41 40  1  0
 43 44  1  0
 44 47  1  0
 44 46  1  0
 45 43  2  0
 48 49  1  0
 48 23  1  0
 50 48  1  0
 51  1  1  0
 53 52  1  0
 53 54  1  0
 53 51  1  0
 54 56  1  0
 54 55  1  0
 57 58  1  0
 57 54  1  0
 59 58  1  0
 60 71  2  0
 61 59  1  0
 61 66  1  0
 62 70  1  0
 62 72  1  0
 63 69  1  0
 63 65  1  0
 64 70  1  0
 65 64  1  0
 66 65  2  0
 67 68  1  0
 67 61  2  0
 68 63  2  0
 69 62  1  0
 70 60  1  0
 72 74  2  0
 73 72  1  0
 75 73  1  0
 76 85  2  0
 76 81  1  0
 77 73  1  0
 77 81  1  0
 78 77  1  0
 79 80  1  0
 79 78  1  0
 80 76  1  0
 81 82  2  0
 82 83  1  0
 84 83  2  0
 85 84  1  0
 86 60  1  0
 86 91  1  0
 86 87  1  0
 87 90  1  1
 87 88  1  0
 89 87  1  0
 91 94  1  0
 92 91  1  0
 92 96  1  0
 93 92  2  0
 96 95  1  0
 96 98  1  0
 98 99  1  0
 98 97  1  0
M  ISO  4  13 100  22 100  58 101  59 101
M  END
>  <TORSDO>  (30) 
F 25

>  <SCORE>  (30) 
0.303

>  <name>  (30) 
29

>  <ligand_id>  (30) 
29

>  <original_smiles>  (30) 
[H]c1c([H])c([H])c2c(c1[H])C([H])([H])C([H])([H])C([H])([H])C2([H])N([H])C(=O)C1([H])N(C(=O)C([H])(N([H])C(=O)C([H])(N([H])C([H])([H])[H])C([H])([H])[H])C(C([H])([H])[H])(C([H])([H])[H])C([H])([H])[H])C([H])([H])c2c([H])c(OC([H])([H])C([H])([H])[N+]([H])([H])C([H])(C([H])([H])[H])C([H])([H])C([H])([H])c3c(C([H])([H])[H])c(C([H])(C([H])([H])[H])C([H])([H])[H])n(C([H])([H])C([H])([H])N(C(=O)N4C([H])([H])C([H])([H])C([H])([H])C([H])(n5nc(-c6c([H])c([H])c(Oc7c([H])c([H])c(F)c([H])c7F)c([H])c6[H])c(C(=O)N([H])[H])c5N([H])[H])C4([H])[H])C([H])([H])[H])c3[H])c([H])c([H])c2C1([H])[H]

>  <smiles>  (30) 
[H]c1c([H])c([H])c2c(c1[H])C([H])([H])C([H])([H])C([H])([H])C2([H])N([H])C(=O)C1([H])N(C(=O)C([H])(N([H])C(=O)C([H])(N([H])C([H])([H])[H])C([H])([H])[H])C(C([H])([H])[H])(C([H])([H])[H])C([H])([H])[H])C([H])([H])c2c([H])c(OC([H])([H])C([H])([H])[N+]([H])([H])C([H])(C([H])([H])[H])C([H])([H])C([H])([H])c3c(C([H])([H])[H])c(C([H])(C([H])([H])[H])C([H])([H])[H])n(C([H])([H])C([H])([H])N(C(=O)N4C([H])([H])C([H])([H])C([H])([H])C([H])(n5nc(-c6c([H])c([H])c(Oc7c([H])c([H])c(F)c([H])c7F)c([H])c6[H])c(C(=O)N([H])[H])c5N([H])[H])C4([H])[H])C([H])([H])[H])c3[H])c([H])c([H])c2C1([H])[H]

$$$$
30:0:0
     RDKit          3D

 95103  0  0  1  0  0  0  0  0999 V2000
  -30.5860  -23.3900   18.1880 C   0  0  0  0  0  3  0  0  0  0  0  0
  -31.5790  -22.7450   17.4220 C   0  0  0  0  0  0  0  0  0  0  0  0
  -33.0070  -23.2480   17.6800 C   0  0  0  0  0  0  0  0  0  0  0  0
  -33.0380  -24.5460   18.2950 C   0  0  0  0  0  0  0  0  0  0  0  0
  -31.9180  -25.0600   18.9800 C   0  0  0  0  0  0  0  0  0  0  0  0
  -34.2390  -25.4840   18.1880 C   0  0  0  0  0  1  0  0  0  0  0  0
  -31.9540  -26.3220   19.8310 C   0  0  0  0  0  1  0  0  0  0  0  0
  -30.7350  -24.4590   18.9690 N   0  0  0  0  0  0  0  0  0  0  0  0
  -30.7870  -21.6030   16.5300 C   0  0  0  0  0  2  0  0  0  0  0  0
  -31.0740  -21.3640   14.8440 C   0  0  0  0  0  2  0  0  0  0  0  0
  -30.0320  -20.8620   13.5930 C   0  0  0  0  0  2  0  0  0  0  0  0
  -29.9290  -21.4040   12.1150 O   0  0  0  0  0  0  0  0  0  0  0  0
  -26.4390  -18.3950    6.3140 C   0  0  0  0  0  0  0  0  0  0  0  0
  -28.7790  -21.3590   11.2300 C   0  0  0  0  0  0  0  0  0  0  0  0
  -25.8110  -20.6910    6.9610 C   0  0  0  0  0  3  0  0  0  0  0  0
  -26.6070  -21.4720    9.2780 C   0  0  0  0  0  0  0  0  0  0  0  0
  -26.6660  -19.0430    8.7460 C   0  0  0  0  0  2  0  0  0  0  0  0
  -27.2090  -20.2380    9.5550 C   0  0  0  0  0  0  0  0  0  0  0  0
  -28.2750  -20.1810   10.5340 C   0  0  0  0  0  3  0  0  0  0  0  0
  -28.0740  -22.5460   10.9260 C   0  0  0  0  0  3  0  0  0  0  0  0
  -27.0360  -22.6100    9.9730 C   0  0  0  0  0  3  0  0  0  0  0  0
  -25.5110  -21.5370    8.2260 C   0  0  0  0  0  2  0  0  0  0  0  0
  -26.3320  -19.3280    7.3100 N   0  0  0  0  0  0  0  0  0  0  0  0
  -26.1000  -18.6480    5.1470 O   0  0  0  0  0  0  0  0  0  0  0  0
  -26.7620  -21.4860    6.0310 C   0  0  0  0  0  0  0  0  0  0  0  0
  -26.8460  -22.8150    6.2260 N   0  0  0  0  0  0  0  0  0  0  0  0
  -27.4280  -20.9020    5.1720 O   0  0  0  0  0  0  0  0  0  0  0  0
  -26.2580  -23.2290    6.9360 H   0  0  0  0  0  0  0  0  0  0  0  0
  -27.8800  -26.2760    5.9600 C   0  0  0  0  0  0  0  0  0  0  0  0
  -27.7260  -23.7350    5.5000 C   0  0  0  0  0  3  0  0  0  0  0  0
  -29.1750  -23.6590    6.0340 C   0  0  0  0  0  2  0  0  0  0  0  0
  -29.4730  -24.6930    7.1250 C   0  0  0  0  0  2  0  0  0  0  0  0
  -29.2510  -26.1120    6.5930 C   0  0  0  0  0  2  0  0  0  0  0  0
  -27.1580  -25.1590    5.4620 C   0  0  0  0  0  0  0  0  0  0  0  0
  -25.8730  -25.3670    4.9140 C   0  0  0  0  0  3  0  0  0  0  0  0
  -25.3130  -26.6580    4.8600 C   0  0  0  0  0  3  0  0  0  0  0  0
  -26.0390  -27.7610    5.3420 C   0  0  0  0  0  3  0  0  0  0  0  0
  -27.3210  -27.5690    5.8870 C   0  0  0  0  0  3  0  0  0  0  0  0
  -26.9720  -16.9570    6.5970 C   0  0  0  0  0  3  0  0  0  0  0  0
  -26.3260  -16.0440    5.6410 N   0  0  0  0  0  0  0  0  0  0  0  0
  -25.3290  -15.1990    5.9440 C   0  0  0  0  0  0  0  0  0  0  0  0
  -24.8940  -15.0640    7.0900 O   0  0  0  0  0  0  0  0  0  0  0  0
  -26.5860  -16.1480    4.6720 H   0  0  0  0  0  0  0  0  0  0  0  0
  -23.1880  -14.3760    4.9010 C   0  0  0  0  0  1  0  0  0  0  0  0
  -24.7220  -14.3730    4.7920 C   0  0  0  0  0  3  0  0  0  0  0  0
  -25.9300  -12.6520    3.5220 C   0  0  0  0  0  1  0  0  0  0  0  0
  -25.2080  -12.9760    4.7490 N   0  0  0  0  0  0  0  0  0  0  0  0
  -24.4330  -12.3260    4.8420 H   0  0  0  0  0  0  0  0  0  0  0  0
  -28.5430  -16.8440    6.4810 C   0  0  1  0  0  0  0  0  0  0  0  0
  -29.0140  -15.8880    5.3610 C   0  0  0  0  0  1  0  0  0  0  0  0
  -29.1800  -18.2290    6.2160 C   0  0  0  0  0  1  0  0  0  0  0  0
  -29.1340  -16.3330    7.8160 C   0  0  0  0  0  1  0  0  0  0  0  0
  -34.5360  -22.6600   17.4420 C   0  0  0  0  0  3  0  0  0  0  0  0
  -35.6900  -20.0810   17.5120 C   0  0  0  0  0  0  0  0  0  0  0  0
  -37.2360  -18.2730   16.6070 C   0  0  0  0  0  2  0  0  0  0  0  0
  -37.8550  -18.7440   15.2700 C   0  0  0  0  0  2  0  0  0  0  0  0
  -36.9310  -18.3670   14.0980 C   0  0  0  0  0  2  0  0  0  0  0  0
  -35.4600  -18.7700   14.3710 C   0  0  0  0  0  3  0  0  0  0  0  0
  -34.9910  -18.3110   15.7710 C   0  0  0  0  0  2  0  0  0  0  0  0
  -35.9050  -18.9340   16.7400 N   0  0  0  0  0  0  0  0  0  0  0  0
  -36.4140  -20.2230   18.5000 O   0  0  0  0  0  0  0  0  0  0  0  0
  -34.8330  -21.1310   17.0560 N   0  0  0  0  0  0  0  0  0  0  0  0
  -34.3350  -20.8700   16.2220 H   0  0  0  0  0  0  0  0  0  0  0  0
  -33.7720  -19.0900   12.4760 C   0  0  0  0  0  0  0  0  0  0  0  0
  -33.1940  -18.2160   11.6020 C   0  0  0  0  0  0  0  0  0  0  0  0
  -33.6830  -16.9200   11.9580 C   0  0  0  0  0  0  0  0  0  0  0  0
  -34.5640  -18.3250   13.3130 N   0  0  0  0  0  0  0  0  0  0  0  0
  -34.4590  -16.9990   13.0320 N   0  0  0  0  0  0  0  0  0  0  0  0
  -33.5060  -15.6190   11.2990 C   0  0  0  0  0  0  0  0  0  0  0  0
  -32.4700  -14.7350   11.6730 C   0  0  0  0  0  3  0  0  0  0  0  0
  -32.3070  -13.5010   11.0100 C   0  0  0  0  0  3  0  0  0  0  0  0
  -33.1810  -13.1410    9.9560 C   0  0  0  0  0  0  0  0  0  0  0  0
  -34.2220  -14.0170    9.6010 C   0  0  0  0  0  3  0  0  0  0  0  0
  -34.3870  -15.2440   10.2660 C   0  0  0  0  0  3  0  0  0  0  0  0
  -33.1150  -11.9550    9.2680 O   0  0  0  0  0  0  0  0  0  0  0  0
  -32.1120  -11.7010    8.3670 C   0  0  0  0  0  0  0  0  0  0  0  0
  -31.5630  -12.7190    7.5580 C   0  0  0  0  0  3  0  0  0  0  0  0
  -30.5800  -12.4020    6.5990 C   0  0  0  0  0  3  0  0  0  0  0  0
  -30.1550  -11.0690    6.4410 C   0  0  0  0  0  0  0  0  0  0  0  0
  -30.7030  -10.0550    7.2460 C   0  0  0  0  0  3  0  0  0  0  0  0
  -31.6800  -10.3700    8.2050 C   0  0  0  0  0  0  0  0  0  0  0  0
  -32.2210   -9.3850    8.9630 F   0  0  0  0  0  0  0  0  0  0  0  0
  -29.2170  -10.7620    5.5140 F   0  0  0  0  0  0  0  0  0  0  0  0
  -32.3210  -18.5680   10.4330 C   0  0  0  0  0  0  0  0  0  0  0  0
  -31.1270  -17.9930   10.3710 N   0  0  0  0  0  0  0  0  0  0  0  0
  -32.6750  -19.3990    9.5980 O   0  0  0  0  0  0  0  0  0  0  0  0
  -30.8400  -17.3310   11.0750 H   0  0  0  0  0  0  0  0  0  0  0  0
  -30.5010  -18.2160    9.6100 H   0  0  0  0  0  0  0  0  0  0  0  0
  -33.7080  -20.4740   12.6180 N   0  0  0  0  0  0  0  0  0  0  0  0
  -33.2070  -21.0490   11.9520 H   0  0  0  0  0  0  0  0  0  0  0  0
  -34.2470  -21.0180   13.2760 H   0  0  0  0  0  0  0  0  0  0  0  0
  -35.3180  -23.5930   16.4930 C   0  0  0  0  0  2  0  0  0  0  0  0
  -36.5260  -23.4020   14.2920 C   0  0  0  0  0  1  0  0  0  0  0  0
  -34.1760  -24.3610   14.3130 C   0  0  0  0  0  1  0  0  0  0  0  0
  -35.1490  -23.3630   14.9680 C   0  0  0  0  0  3  0  0  0  0  0  0
  1  8  1  0
  2  3  1  0
  2  1  2  0
  3  4  2  0
  4  5  1  0
  5  7  1  0
  6  4  1  0
  8  5  2  0
  9  2  1  0
 10  9  1  0
 11 10  1  0
 12 11  1  0
 13 23  1  0
 14 12  1  0
 15 25  1  0
 15 23  1  0
 15 22  1  0
 16 18  2  0
 16 21  1  0
 17 18  1  0
 18 19  1  0
 19 14  2  0
 20 14  1  0
 21 20  2  0
 22 16  1  0
 23 17  1  0
 24 13  2  0
 25 26  1  0
 26 28  1  0
 27 25  2  0
 29 33  1  0
 30 31  1  0
 30 26  1  0
 31 32  1  0
 33 32  1  0
 34 30  1  0
 34 29  2  0
 35 34  1  0
 36 35  2  0
 36 37  1  0
 37 38  2  0
 38 29  1  0
 39 13  1  0
 40 41  1  0
 40 39  1  0
 41 42  2  0
 43 40  1  0
 45 44  1  0
 45 41  1  0
 46 47  1  0
 47 45  1  0
 47 48  1  0
 49 39  1  0
 49 52  1  1
 50 49  1  0
 51 49  1  0
 53 92  1  0
 53  3  1  0
 54 61  2  0
 55 60  1  0
 56 55  1  0
 57 58  1  0
 57 56  1  0
 58 67  1  0
 58 59  1  0
 59 60  1  0
 60 54  1  0
 62 53  1  0
 62 54  1  0
 63 62  1  0
 64 89  1  0
 64 67  1  0
 65 66  1  0
 65 64  2  0
 66 68  2  0
 68 67  1  0
 69 70  1  0
 69 66  1  0
 71 70  2  0
 72 71  1  0
 73 72  2  0
 73 74  1  0
 74 69  2  0
 75 72  1  0
 76 75  1  0
 77 76  2  0
 78 77  1  0
 79 78  2  0
 79 80  1  0
 80 81  2  0
 81 76  1  0
 81 82  1  0
 83 79  1  0
 84 65  1  0
 85 84  1  0
 85 87  1  0
 86 84  2  0
 88 85  1  0
 89 91  1  0
 90 89  1  0
 93 95  1  0
 94 95  1  0
 95 92  1  0
M  ISO  4  11 101  12 101  54 100  62 100
M  END
>  <TORSDO>  (31) 
F 22

>  <SCORE>  (31) 
-3.314

>  <name>  (31) 
30

>  <ligand_id>  (31) 
30

>  <original_smiles>  (31) 
[H]c1nc(C([H])([H])[H])c(C([H])([H])[H])c(C([H])(N([H])C(=O)N2C([H])([H])C([H])([H])C([H])([H])C([H])(n3nc(-c4c([H])c([H])c(Oc5c([H])c([H])c(F)c([H])c5F)c([H])c4[H])c(C(=O)N([H])[H])c3N([H])[H])C2([H])[H])C([H])([H])C([H])(C([H])([H])[H])C([H])([H])[H])c1C([H])([H])C([H])([H])C([H])([H])Oc1c([H])c([H])c2c(c1[H])C([H])([H])N(C(=O)C([H])(N([H])C(=O)C([H])(N([H])C([H])([H])[H])C([H])([H])[H])C(C([H])([H])[H])(C([H])([H])[H])C([H])([H])[H])C([H])(C(=O)N([H])C1([H])c3c([H])c([H])c([H])c([H])c3C([H])([H])C([H])([H])C1([H])[H])C2([H])[H]

>  <smiles>  (31) 
[H]c1nc(C([H])([H])[H])c(C([H])([H])[H])c(C([H])(N([H])C(=O)N2C([H])([H])C([H])([H])C([H])([H])C([H])(n3nc(-c4c([H])c([H])c(Oc5c([H])c([H])c(F)c([H])c5F)c([H])c4[H])c(C(=O)N([H])[H])c3N([H])[H])C2([H])[H])C([H])([H])C([H])(C([H])([H])[H])C([H])([H])[H])c1C([H])([H])C([H])([H])C([H])([H])Oc1c([H])c([H])c2c(c1[H])C([H])([H])N(C(=O)C([H])(N([H])C(=O)C([H])(N([H])C([H])([H])[H])C([H])([H])[H])C(C([H])([H])[H])(C([H])([H])[H])C([H])([H])[H])C([H])(C(=O)N([H])C1([H])c3c([H])c([H])c([H])c([H])c3C([H])([H])C([H])([H])C1([H])[H])C2([H])[H]

$$$$
31:0:0
     RDKit          3D

 89 98  0  0  1  0  0  0  0  0999 V2000
  -30.3710  -23.2510   19.6720 C   0  0  0  0  0  2  0  0  0  0  0  0
  -29.4890  -23.0380   18.4790 C   0  0  0  0  0  2  0  0  0  0  0  0
  -28.8990  -22.9440   19.8750 C   0  0  1  0  0  0  0  0  0  0  0  0
  -28.5080  -21.3030   20.2830 C   0  0  0  0  0  2  0  0  0  0  0  0
  -30.5150  -15.1360   19.8980 C   0  0  0  0  0  0  0  0  0  0  0  0
  -30.3390  -12.7500   18.9710 C   0  0  0  0  0  2  0  0  0  0  0  0
  -29.3340  -12.6330   17.8000 C   0  0  0  0  0  2  0  0  0  0  0  0
  -27.9230  -12.3650   18.3440 C   0  0  0  0  0  2  0  0  0  0  0  0
  -27.5650  -13.3080   19.5200 C   0  0  0  0  0  3  0  0  0  0  0  0
  -28.6900  -13.4160   20.5740 C   0  0  0  0  0  2  0  0  0  0  0  0
  -29.8900  -13.8720   19.8610 N   0  0  0  0  0  0  0  0  0  0  0  0
  -31.7050  -15.1100   19.5500 O   0  0  0  0  0  0  0  0  0  0  0  0
  -29.9060  -17.5070   18.8540 C   0  0  0  0  0  2  0  0  0  0  0  0
  -29.4110  -17.2640   21.1320 C   0  0  0  0  0  2  0  0  0  0  0  0
  -29.0350  -18.9110   18.9440 C   0  0  0  0  0  2  0  0  0  0  0  0
  -29.5600  -18.9270   21.2430 C   0  0  0  0  0  2  0  0  0  0  0  0
  -29.8130  -16.4230   19.9260 N   0  0  0  0  0  0  0  0  0  0  0  0
  -29.3520  -19.8990   20.0630 N   0  0  2  0  0  4  0  0  0  0  0  0
  -30.2870  -20.2160   19.8560 H   0  0  0  0  0  0  0  0  0  0  0  0
  -25.2600  -13.8650   20.4560 C   0  0  0  0  0  0  0  0  0  0  0  0
  -24.2190  -13.0790   20.8690 C   0  0  0  0  0  0  0  0  0  0  0  0
  -24.6740  -11.7280   20.7640 C   0  0  0  0  0  0  0  0  0  0  0  0
  -26.2740  -12.9890   20.1120 N   0  0  0  0  0  0  0  0  0  0  0  0
  -25.9400  -11.6970   20.3680 N   0  0  0  0  0  0  0  0  0  0  0  0
  -23.9570  -10.4630   20.9620 C   0  0  0  0  0  0  0  0  0  0  0  0
  -24.4090   -9.4900   21.8810 C   0  0  0  0  0  3  0  0  0  0  0  0
  -23.6880   -8.2910   22.0680 C   0  0  0  0  0  3  0  0  0  0  0  0
  -22.5000   -8.0550   21.3350 C   0  0  0  0  0  0  0  0  0  0  0  0
  -22.0660   -9.0150   20.4040 C   0  0  0  0  0  3  0  0  0  0  0  0
  -22.7890  -10.2060   20.2150 C   0  0  0  0  0  3  0  0  0  0  0  0
  -21.7490   -6.9080   21.4320 O   0  0  0  0  0  0  0  0  0  0  0  0
  -21.6780   -6.1900   22.5980 C   0  0  0  0  0  0  0  0  0  0  0  0
  -21.2260   -6.7690   23.8040 C   0  0  0  0  0  3  0  0  0  0  0  0
  -21.1060   -5.9760   24.9640 C   0  0  0  0  0  3  0  0  0  0  0  0
  -21.4290   -4.6070   24.9170 C   0  0  0  0  0  0  0  0  0  0  0  0
  -21.8740   -4.0270   23.7150 C   0  0  0  0  0  3  0  0  0  0  0  0
  -21.9970   -4.8180   22.5590 C   0  0  0  0  0  0  0  0  0  0  0  0
  -22.4070   -4.2490   21.3990 F   0  0  0  0  0  0  0  0  0  0  0  0
  -21.3070   -3.8430   26.0290 F   0  0  0  0  0  0  0  0  0  0  0  0
  -22.8450  -13.5510   21.2460 C   0  0  0  0  0  0  0  0  0  0  0  0
  -22.1780  -12.8310   22.1420 N   0  0  0  0  0  0  0  0  0  0  0  0
  -22.3770  -14.5900   20.7850 O   0  0  0  0  0  0  0  0  0  0  0  0
  -22.5720  -11.9860   22.5280 H   0  0  0  0  0  0  0  0  0  0  0  0
  -21.2590  -13.1230   22.4430 H   0  0  0  0  0  0  0  0  0  0  0  0
  -25.4290  -15.2410   20.3140 N   0  0  0  0  0  0  0  0  0  0  0  0
  -24.6890  -15.9130   20.4950 H   0  0  0  0  0  0  0  0  0  0  0  0
  -26.2660  -15.6700   19.9430 H   0  0  0  0  0  0  0  0  0  0  0  0
  -27.9460  -24.3490   20.2550 C   0  0  0  0  0  2  0  0  0  0  0  0
  -28.2320  -25.9440   20.1800 O   0  0  0  0  0  0  0  0  0  0  0  0
  -24.6370  -31.8330   23.1660 C   0  0  0  0  0  0  0  0  0  0  0  0
  -27.2080  -27.0050   20.1570 C   0  0  0  0  0  0  0  0  0  0  0  0
  -23.4540  -30.4310   21.5250 C   0  0  0  0  0  3  0  0  0  0  0  0
  -24.9080  -28.8440   20.1070 C   0  0  0  0  0  0  0  0  0  0  0  0
  -26.0170  -30.6620   21.3860 C   0  0  0  0  0  2  0  0  0  0  0  0
  -26.0910  -29.2570   20.7330 C   0  0  0  0  0  0  0  0  0  0  0  0
  -27.2410  -28.3580   20.7370 C   0  0  0  0  0  3  0  0  0  0  0  0
  -25.9980  -26.7290   19.4860 C   0  0  0  0  0  3  0  0  0  0  0  0
  -24.8860  -27.5980   19.4620 C   0  0  0  0  0  3  0  0  0  0  0  0
  -23.6840  -29.7510   20.1500 C   0  0  0  0  0  2  0  0  0  0  0  0
  -24.7240  -31.0020   22.0780 N   0  0  0  0  0  0  0  0  0  0  0  0
  -23.5460  -32.1150   23.6850 O   0  0  0  0  0  0  0  0  0  0  0  0
  -22.7660  -29.4270   22.4870 C   0  0  0  0  0  0  0  0  0  0  0  0
  -21.4370  -29.2610   22.3670 N   0  0  0  0  0  0  0  0  0  0  0  0
  -23.4360  -28.7980   23.3100 O   0  0  0  0  0  0  0  0  0  0  0  0
  -20.9470  -29.8050   21.6690 H   0  0  0  0  0  0  0  0  0  0  0  0
  -18.0480  -28.1010   22.9200 C   0  0  0  0  0  0  0  0  0  0  0  0
  -20.6150  -28.3350   23.1500 C   0  0  0  0  0  3  0  0  0  0  0  0
  -20.6850  -26.9050   22.5680 C   0  0  0  0  0  2  0  0  0  0  0  0
  -19.5710  -26.6170   21.5550 C   0  0  0  0  0  2  0  0  0  0  0  0
  -18.2050  -26.7530   22.2350 C   0  0  0  0  0  2  0  0  0  0  0  0
  -19.1830  -28.8490   23.3380 C   0  0  0  0  0  0  0  0  0  0  0  0
  -18.9880  -30.1050   23.9490 C   0  0  0  0  0  3  0  0  0  0  0  0
  -17.6930  -30.6170   24.1510 C   0  0  0  0  0  3  0  0  0  0  0  0
  -16.5720  -29.8700   23.7490 C   0  0  0  0  0  3  0  0  0  0  0  0
  -16.7510  -28.6170   23.1360 C   0  0  0  0  0  3  0  0  0  0  0  0
  -25.9050  -32.4790   23.7990 C   0  0  0  0  0  3  0  0  0  0  0  0
  -25.5770  -33.8760   24.1360 N   0  0  0  0  0  0  0  0  0  0  0  0
  -25.9070  -34.9400   23.3930 C   0  0  0  0  0  0  0  0  0  0  0  0
  -26.5840  -34.8490   22.3650 O   0  0  0  0  0  0  0  0  0  0  0  0
  -24.9740  -34.0180   24.9330 H   0  0  0  0  0  0  0  0  0  0  0  0
  -24.1720  -36.7340   23.0540 C   0  0  0  0  0  1  0  0  0  0  0  0
  -25.4130  -36.3250   23.8640 C   0  0  0  0  0  3  0  0  0  0  0  0
  -27.5390  -37.2150   24.7120 C   0  0  0  0  0  1  0  0  0  0  0  0
  -26.4410  -37.3840   23.7640 N   0  0  0  0  0  0  0  0  0  0  0  0
  -26.0300  -38.3020   23.9140 H   0  0  0  0  0  0  0  0  0  0  0  0
  -26.4110  -31.7150   25.0850 C   0  0  1  0  0  0  0  0  0  0  0  0
  -25.3080  -31.4800   26.1440 C   0  0  0  0  0  1  0  0  0  0  0  0
  -27.0020  -30.3360   24.7110 C   0  0  0  0  0  1  0  0  0  0  0  0
  -27.5520  -32.5160   25.7540 C   0  0  0  0  0  1  0  0  0  0  0  0
  1  3  1  0
  2  1  1  0
  2  3  1  0
  3 48  1  6
  3  4  1  0
  5 17  1  0
  6 11  1  0
  7  8  1  0
  7  6  1  0
  9  8  1  0
  9 23  1  0
  9 10  1  0
 11  5  1  0
 11 10  1  0
 12  5  2  0
 13 15  1  0
 13 17  1  0
 14 16  1  0
 15 18  1  0
 17 14  1  0
 18  4  1  0
 18 16  1  0
 18 19  1  6
 20 21  2  0
 21 40  1  0
 22 21  1  0
 22 25  1  0
 23 24  1  0
 23 20  1  0
 24 22  2  0
 25 26  1  0
 26 27  2  0
 28 31  1  0
 28 27  1  0
 29 28  2  0
 30 29  1  0
 30 25  2  0
 31 32  1  0
 32 33  1  0
 33 34  2  0
 35 34  1  0
 35 39  1  0
 36 35  2  0
 37 32  2  0
 37 36  1  0
 38 37  1  0
 40 41  1  0
 41 44  1  0
 41 43  1  0
 42 40  2  0
 45 20  1  0
 45 46  1  0
 47 45  1  0
 49 48  1  0
 50 61  2  0
 51 49  1  0
 51 56  1  0
 52 60  1  0
 52 62  1  0
 53 59  1  0
 53 55  1  0
 54 60  1  0
 55 56  2  0
 55 54  1  0
 57 51  2  0
 58 57  1  0
 58 53  2  0
 59 52  1  0
 60 50  1  0
 62 64  2  0
 63 62  1  0
 65 63  1  0
 66 75  2  0
 66 71  1  0
 67 63  1  0
 67 71  1  0
 68 67  1  0
 69 70  1  0
 69 68  1  0
 70 66  1  0
 71 72  2  0
 72 73  1  0
 74 73  2  0
 75 74  1  0
 76 50  1  0
 76 77  1  0
 76 86  1  0
 77 80  1  0
 78 82  1  0
 78 77  1  0
 79 78  2  0
 82 81  1  0
 84 82  1  0
 84 85  1  0
 84 83  1  0
 86 89  1  1
 86 87  1  0
 88 86  1  0
M  ISO  4   5 100  17 100  48 101  49 101
M  END
>  <TORSDO>  (32) 
F 18

>  <SCORE>  (32) 
-15.578

>  <name>  (32) 
31

>  <ligand_id>  (32) 
31

>  <original_smiles>  (32) 
[H]c1c([H])c([H])c2c(c1[H])C([H])([H])C([H])([H])C([H])([H])C2([H])N([H])C(=O)C1([H])N(C(=O)C([H])(N([H])C(=O)C([H])(N([H])C([H])([H])[H])C([H])([H])[H])C(C([H])([H])[H])(C([H])([H])[H])C([H])([H])[H])C([H])([H])c2c([H])c(OC([H])([H])C3(C([H])([H])[N+]4([H])C([H])([H])C([H])([H])N(C(=O)N5C([H])([H])C([H])([H])C([H])([H])C([H])(n6nc(-c7c([H])c([H])c(Oc8c([H])c([H])c(F)c([H])c8F)c([H])c7[H])c(C(=O)N([H])[H])c6N([H])[H])C5([H])[H])C([H])([H])C4([H])[H])C([H])([H])C3([H])[H])c([H])c([H])c2C1([H])[H]

>  <smiles>  (32) 
[H]c1c([H])c([H])c2c(c1[H])C([H])([H])C([H])([H])C([H])([H])C2([H])N([H])C(=O)C1([H])N(C(=O)C([H])(N([H])C(=O)C([H])(N([H])C([H])([H])[H])C([H])([H])[H])C(C([H])([H])[H])(C([H])([H])[H])C([H])([H])[H])C([H])([H])c2c([H])c(OC([H])([H])C3(C([H])([H])[N+]4([H])C([H])([H])C([H])([H])N(C(=O)N5C([H])([H])C([H])([H])C([H])([H])C([H])(n6nc(-c7c([H])c([H])c(Oc8c([H])c([H])c(F)c([H])c8F)c([H])c7[H])c(C(=O)N([H])[H])c6N([H])[H])C5([H])[H])C([H])([H])C4([H])[H])C([H])([H])C3([H])[H])c([H])c([H])c2C1([H])[H]

$$$$
32:0:0
     RDKit          3D

 90 99  0  0  1  0  0  0  0  0999 V2000
  -30.2570  -21.2100   19.8110 C   0  0  0  0  0  3  0  0  0  0  0  0
  -30.5620  -19.7410   19.9410 C   0  0  0  0  0  3  0  0  0  0  0  0
  -28.9290  -21.6440   19.6320 C   0  0  0  0  0  0  0  0  0  0  0  0
  -29.4840  -18.8580   19.8650 C   0  0  0  0  0  0  0  0  0  0  0  0
  -28.4790  -20.1020   19.6860 N   0  0  0  0  0  0  0  0  0  0  0  0
  -30.2120  -15.8050   19.7520 C   0  0  0  0  0  0  0  0  0  0  0  0
  -30.2960  -13.2040   18.9270 C   0  0  0  0  0  2  0  0  0  0  0  0
  -29.3380  -12.7130   17.7970 C   0  0  0  0  0  2  0  0  0  0  0  0
  -27.9650  -12.3210   18.3610 C   0  0  0  0  0  2  0  0  0  0  0  0
  -27.5120  -13.3310   19.4360 C   0  0  0  0  0  3  0  0  0  0  0  0
  -28.6120  -13.7120   20.4620 C   0  0  0  0  0  2  0  0  0  0  0  0
  -29.7030  -14.4010   19.7160 N   0  0  0  0  0  0  0  0  0  0  0  0
  -31.4290  -15.6990   19.4780 O   0  0  0  0  0  0  0  0  0  0  0  0
  -29.4570  -17.2220   19.9240 N   0  0  0  0  0  0  0  0  0  0  0  0
  -28.5160  -16.9440   20.1610 H   0  0  0  0  0  0  0  0  0  0  0  0
  -25.2370  -13.8540   20.4160 C   0  0  0  0  0  0  0  0  0  0  0  0
  -24.1990  -13.0790   20.8470 C   0  0  0  0  0  0  0  0  0  0  0  0
  -24.6430  -11.7250   20.7330 C   0  0  0  0  0  0  0  0  0  0  0  0
  -26.2420  -12.9790   20.0570 N   0  0  0  0  0  0  0  0  0  0  0  0
  -25.9060  -11.6870   20.3110 N   0  0  0  0  0  0  0  0  0  0  0  0
  -23.9080  -10.4690   20.9390 C   0  0  0  0  0  0  0  0  0  0  0  0
  -24.3680   -9.4810   21.8370 C   0  0  0  0  0  3  0  0  0  0  0  0
  -23.6290   -8.2950   22.0380 C   0  0  0  0  0  3  0  0  0  0  0  0
  -22.4150   -8.0880   21.3410 C   0  0  0  0  0  0  0  0  0  0  0  0
  -21.9720   -9.0650   20.4310 C   0  0  0  0  0  3  0  0  0  0  0  0
  -22.7120  -10.2420   20.2290 C   0  0  0  0  0  3  0  0  0  0  0  0
  -21.6440   -6.9550   21.4510 O   0  0  0  0  0  0  0  0  0  0  0  0
  -21.6020   -6.2240   22.6120 C   0  0  0  0  0  0  0  0  0  0  0  0
  -21.2150   -6.8000   23.8420 C   0  0  0  0  0  3  0  0  0  0  0  0
  -21.1180   -5.9970   24.9960 C   0  0  0  0  0  3  0  0  0  0  0  0
  -21.3970   -4.6200   24.9220 C   0  0  0  0  0  0  0  0  0  0  0  0
  -21.7780   -4.0430   23.6970 C   0  0  0  0  0  3  0  0  0  0  0  0
  -21.8760   -4.8430   22.5450 C   0  0  0  0  0  0  0  0  0  0  0  0
  -22.2220   -4.2790   21.3640 F   0  0  0  0  0  0  0  0  0  0  0  0
  -21.2980   -3.8470   26.0280 F   0  0  0  0  0  0  0  0  0  0  0  0
  -22.8370  -13.5710   21.2390 C   0  0  0  0  0  0  0  0  0  0  0  0
  -22.1740  -12.8750   22.1540 N   0  0  0  0  0  0  0  0  0  0  0  0
  -22.3760  -14.6100   20.7680 O   0  0  0  0  0  0  0  0  0  0  0  0
  -22.5640  -12.0370   22.5580 H   0  0  0  0  0  0  0  0  0  0  0  0
  -21.2630  -13.1880   22.4570 H   0  0  0  0  0  0  0  0  0  0  0  0
  -25.4000  -15.2250   20.2570 N   0  0  0  0  0  0  0  0  0  0  0  0
  -24.6370  -15.8720   20.4240 H   0  0  0  0  0  0  0  0  0  0  0  0
  -26.1890  -15.6510   19.7920 H   0  0  0  0  0  0  0  0  0  0  0  0
  -25.0580  -18.6050   19.2190 C   0  0  0  0  0  2  0  0  0  0  0  0
  -25.0660  -19.7080   18.1520 C   0  0  0  0  0  2  0  0  0  0  0  0
  -26.5200  -18.4590   19.6430 C   0  0  0  0  0  2  0  0  0  0  0  0
  -26.3930  -20.4670   18.3280 C   0  0  0  0  0  2  0  0  0  0  0  0
  -27.0300  -19.9000   19.6040 C   0  0  0  0  0  3  0  0  0  0  0  0
  -28.0650  -23.3790   19.3070 C   0  0  0  0  0  2  0  0  0  0  0  0
  -28.2900  -25.1930   19.4890 O   0  0  0  0  0  0  0  0  0  0  0  0
  -24.6950  -31.4550   22.7750 C   0  0  0  0  0  0  0  0  0  0  0  0
  -27.3160  -26.4660   19.5260 C   0  0  0  0  0  0  0  0  0  0  0  0
  -23.5360  -30.1150   21.0760 C   0  0  0  0  0  3  0  0  0  0  0  0
  -25.0150  -28.5470   19.5820 C   0  0  0  0  0  0  0  0  0  0  0  0
  -26.1190  -30.2780   20.9660 C   0  0  0  0  0  2  0  0  0  0  0  0
  -26.2110  -28.8670   20.2350 C   0  0  0  0  0  0  0  0  0  0  0  0
  -27.3380  -27.8620   20.1710 C   0  0  0  0  0  3  0  0  0  0  0  0
  -26.0770  -26.3990   18.8270 C   0  0  0  0  0  3  0  0  0  0  0  0
  -24.9960  -27.3430   18.8530 C   0  0  0  0  0  3  0  0  0  0  0  0
  -23.7930  -29.4840   19.6740 C   0  0  0  0  0  2  0  0  0  0  0  0
  -24.8090  -30.6510   21.6590 N   0  0  0  0  0  0  0  0  0  0  0  0
  -23.5950  -31.7100   23.2990 O   0  0  0  0  0  0  0  0  0  0  0  0
  -22.8330  -29.0840   22.0030 C   0  0  0  0  0  0  0  0  0  0  0  0
  -21.4900  -28.9800   21.9420 N   0  0  0  0  0  0  0  0  0  0  0  0
  -23.5100  -28.3740   22.7510 O   0  0  0  0  0  0  0  0  0  0  0  0
  -20.9920  -29.6010   21.3200 H   0  0  0  0  0  0  0  0  0  0  0  0
  -18.0940  -27.8630   22.6180 C   0  0  0  0  0  0  0  0  0  0  0  0
  -20.6790  -27.9990   22.6780 C   0  0  0  0  0  3  0  0  0  0  0  0
  -20.6580  -26.6370   21.9460 C   0  0  0  0  0  2  0  0  0  0  0  0
  -19.4610  -26.4780   21.0020 C   0  0  0  0  0  2  0  0  0  0  0  0
  -18.1470  -26.6000   21.7770 C   0  0  0  0  0  2  0  0  0  0  0  0
  -19.2810  -28.5310   23.0270 C   0  0  0  0  0  0  0  0  0  0  0  0
  -19.1710  -29.7150   23.7850 C   0  0  0  0  0  3  0  0  0  0  0  0
  -17.9090  -30.2350   24.1320 C   0  0  0  0  0  3  0  0  0  0  0  0
  -16.7390  -29.5670   23.7340 C   0  0  0  0  0  3  0  0  0  0  0  0
  -16.8330  -28.3810   22.9830 C   0  0  0  0  0  3  0  0  0  0  0  0
  -25.9400  -32.1080   23.4500 C   0  0  0  0  0  3  0  0  0  0  0  0
  -25.5560  -33.4510   23.9360 N   0  0  0  0  0  0  0  0  0  0  0  0
  -25.8360  -34.6080   23.3210 C   0  0  0  0  0  0  0  0  0  0  0  0
  -26.4980  -34.6610   22.2810 O   0  0  0  0  0  0  0  0  0  0  0  0
  -24.9600  -33.4770   24.7510 H   0  0  0  0  0  0  0  0  0  0  0  0
  -24.0230  -36.3580   23.2320 C   0  0  0  0  0  1  0  0  0  0  0  0
  -25.3050  -35.9120   23.9540 C   0  0  0  0  0  3  0  0  0  0  0  0
  -27.4210  -36.8030   24.8310 C   0  0  0  0  0  1  0  0  0  0  0  0
  -26.2860  -37.0210   23.9400 N   0  0  0  0  0  0  0  0  0  0  0  0
  -25.8420  -37.8990   24.2000 H   0  0  0  0  0  0  0  0  0  0  0  0
  -26.5080  -31.2540   24.6520 C   0  0  1  0  0  0  0  0  0  0  0  0
  -25.4450  -30.8840   25.7140 C   0  0  0  0  0  1  0  0  0  0  0  0
  -27.1380  -29.9360   24.1510 C   0  0  0  0  0  1  0  0  0  0  0  0
  -27.6410  -32.0340   25.3600 C   0  0  0  0  0  1  0  0  0  0  0  0
  1  2  1  0
  3  5  1  0
  3  1  2  0
  4 14  1  0
  4  2  2  0
  5  4  1  0
  6 14  1  0
  7 12  1  0
  8  9  1  0
  8  7  1  0
 10  9  1  0
 10 19  1  0
 10 11  1  0
 12  6  1  0
 12 11  1  0
 13  6  2  0
 14 15  1  0
 16 17  2  0
 17 36  1  0
 18 17  1  0
 18 21  1  0
 19 20  1  0
 19 16  1  0
 20 18  2  0
 21 22  1  0
 22 23  2  0
 24 27  1  0
 24 23  1  0
 25 24  2  0
 26 25  1  0
 26 21  2  0
 27 28  1  0
 28 29  1  0
 29 30  2  0
 31 30  1  0
 31 35  1  0
 32 31  2  0
 33 28  2  0
 33 32  1  0
 34 33  1  0
 36 37  1  0
 37 40  1  0
 37 39  1  0
 38 36  2  0
 41 16  1  0
 41 42  1  0
 43 41  1  0
 44 46  1  0
 45 47  1  0
 45 44  1  0
 47 48  1  0
 48 46  1  0
 48  5  1  0
 49 50  1  0
 49  3  1  0
 50 52  1  0
 51 62  2  0
 52 57  1  0
 53 61  1  0
 53 63  1  0
 54 60  1  0
 54 56  1  0
 55 61  1  0
 56 55  1  0
 57 56  2  0
 58 59  1  0
 58 52  2  0
 59 54  2  0
 60 53  1  0
 61 51  1  0
 63 65  2  0
 64 63  1  0
 66 64  1  0
 67 76  2  0
 67 72  1  0
 68 64  1  0
 68 72  1  0
 69 68  1  0
 70 71  1  0
 70 69  1  0
 71 67  1  0
 72 73  2  0
 73 74  1  0
 75 74  2  0
 76 75  1  0
 77 51  1  0
 77 78  1  0
 77 87  1  0
 78 81  1  0
 79 78  1  0
 79 83  1  0
 80 79  2  0
 83 82  1  0
 85 83  1  0
 85 86  1  0
 85 84  1  0
 87 90  1  1
 87 88  1  0
 89 87  1  0
M  ISO  4   6 100  14 100  49 101  50 101
M  END
>  <TORSDO>  (33) 
F 18

>  <SCORE>  (33) 
-12.943

>  <name>  (33) 
32

>  <ligand_id>  (33) 
32

>  <original_smiles>  (33) 
[H]c1c([H])c([H])c2c(c1[H])C([H])([H])C([H])([H])C([H])([H])C2([H])N([H])C(=O)C1([H])N(C(=O)C([H])(N([H])C(=O)C([H])(N([H])C([H])([H])[H])C([H])([H])[H])C(C([H])([H])[H])(C([H])([H])[H])C([H])([H])[H])C([H])([H])c2c([H])c(OC([H])([H])c3c([H])c([H])c(N([H])C(=O)N4C([H])([H])C([H])([H])C([H])([H])C([H])(n5nc(-c6c([H])c([H])c(Oc7c([H])c([H])c(F)c([H])c7F)c([H])c6[H])c(C(=O)N([H])[H])c5N([H])[H])C4([H])[H])n3C3([H])C([H])([H])C([H])([H])C([H])([H])C3([H])[H])c([H])c([H])c2C1([H])[H]

>  <smiles>  (33) 
[H]c1c([H])c([H])c2c(c1[H])C([H])([H])C([H])([H])C([H])([H])C2([H])N([H])C(=O)C1([H])N(C(=O)C([H])(N([H])C(=O)C([H])(N([H])C([H])([H])[H])C([H])([H])[H])C(C([H])([H])[H])(C([H])([H])[H])C([H])([H])[H])C([H])([H])c2c([H])c(OC([H])([H])c3c([H])c([H])c(N([H])C(=O)N4C([H])([H])C([H])([H])C([H])([H])C([H])(n5nc(-c6c([H])c([H])c(Oc7c([H])c([H])c(F)c([H])c7F)c([H])c6[H])c(C(=O)N([H])[H])c5N([H])[H])C4([H])[H])n3C3([H])C([H])([H])C([H])([H])C([H])([H])C3([H])[H])c([H])c([H])c2C1([H])[H]

$$$$
33:0:0
     RDKit          3D

101110  0  0  1  0  0  0  0  0999 V2000
  -29.7770  -18.7620   20.6390 C   0  0  0  0  0  3  0  0  0  0  0  0
  -29.8550  -20.1070   20.1820 C   0  0  0  0  0  0  0  0  0  0  0  0
  -31.0080  -20.8780   20.5080 C   0  0  0  0  0  0  0  0  0  0  0  0
  -30.8400  -18.2200   21.3880 C   0  0  0  0  0  0  0  0  0  0  0  0
  -32.0460  -20.2160   21.2130 C   0  0  0  0  0  0  0  0  0  0  0  0
  -33.3230  -20.9390   21.6080 C   0  0  0  0  0  1  0  0  0  0  0  0
  -31.9620  -18.9310   21.6300 N   0  0  0  0  0  0  0  0  0  0  0  0
  -27.6400  -19.7810   18.8730 C   0  0  0  0  0  2  0  0  0  0  0  0
  -27.9570  -21.7940   20.3250 C   0  0  0  0  0  2  0  0  0  0  0  0
  -26.5770  -20.5520   18.0660 C   0  0  0  0  0  2  0  0  0  0  0  0
  -26.8860  -22.5400   19.5100 C   0  0  0  0  0  2  0  0  0  0  0  0
  -28.6800  -20.7590   19.4480 C   0  0  0  0  0  3  0  0  0  0  0  0
  -24.8700  -22.3280   18.1170 C   0  0  0  0  0  1  0  0  0  0  0  0
  -25.9140  -21.6060   18.8810 N   0  0  1  0  0  4  0  0  0  0  0  0
  -25.4290  -21.1350   19.6320 H   0  0  0  0  0  0  0  0  0  0  0  0
  -31.0660  -22.2720   20.2660 N   0  0  0  0  0  0  0  0  0  0  0  0
  -31.6740  -22.7390   20.9340 H   0  0  0  0  0  0  0  0  0  0  0  0
  -31.4030  -22.7270   18.9110 C   0  0  0  0  0  2  0  0  0  0  0  0
  -32.3150  -25.0360   19.6770 C   0  0  0  0  0  1  0  0  0  0  0  0
  -31.3640  -24.2860   18.7250 C   0  0  0  0  0  3  0  0  0  0  0  0
  -29.9340  -24.8930   18.7260 C   0  0  0  0  0  2  0  0  0  0  0  0
  -29.9110  -26.3270   18.9320 O   0  0  0  0  0  0  0  0  0  0  0  0
  -25.8430  -29.8060   23.6680 C   0  0  0  0  0  0  0  0  0  0  0  0
  -28.6830  -26.9150   19.1970 C   0  0  0  0  0  0  0  0  0  0  0  0
  -24.6790  -28.9400   21.6690 C   0  0  0  0  0  3  0  0  0  0  0  0
  -26.1790  -28.1220   19.7770 C   0  0  0  0  0  0  0  0  0  0  0  0
  -27.1580  -29.5710   21.5590 C   0  0  0  0  0  2  0  0  0  0  0  0
  -27.3230  -28.5130   20.4840 C   0  0  0  0  0  0  0  0  0  0  0  0
  -28.5760  -27.9220   20.1900 C   0  0  0  0  0  3  0  0  0  0  0  0
  -27.5110  -26.5440   18.4960 C   0  0  0  0  0  3  0  0  0  0  0  0
  -26.2710  -27.1400   18.7800 C   0  0  0  0  0  3  0  0  0  0  0  0
  -24.8740  -28.7970   20.1380 C   0  0  0  0  0  2  0  0  0  0  0  0
  -25.9140  -29.4360   22.3580 N   0  0  0  0  0  0  0  0  0  0  0  0
  -24.7700  -29.7770   24.2870 O   0  0  0  0  0  0  0  0  0  0  0  0
  -24.1600  -27.5960   22.2290 C   0  0  0  0  0  0  0  0  0  0  0  0
  -22.9010  -27.2570   21.9070 N   0  0  0  0  0  0  0  0  0  0  0  0
  -24.8900  -26.8740   22.9140 O   0  0  0  0  0  0  0  0  0  0  0  0
  -22.3640  -27.9060   21.3490 H   0  0  0  0  0  0  0  0  0  0  0  0
  -19.8890  -25.3210   21.4180 C   0  0  0  0  0  0  0  0  0  0  0  0
  -22.2180  -26.0220   22.2920 C   0  0  0  0  0  3  0  0  0  0  0  0
  -22.7670  -24.8120   21.5000 C   0  0  0  0  0  2  0  0  0  0  0  0
  -21.9710  -24.5150   20.2260 C   0  0  0  0  0  2  0  0  0  0  0  0
  -20.5050  -24.2270   20.5620 C   0  0  0  0  0  2  0  0  0  0  0  0
  -20.6950  -26.1740   22.2180 C   0  0  0  0  0  0  0  0  0  0  0  0
  -20.0760  -27.1990   22.9660 C   0  0  0  0  0  3  0  0  0  0  0  0
  -18.6800  -27.3750   22.9270 C   0  0  0  0  0  3  0  0  0  0  0  0
  -17.8850  -26.5180   22.1470 C   0  0  0  0  0  3  0  0  0  0  0  0
  -18.4890  -25.4930   21.3980 C   0  0  0  0  0  3  0  0  0  0  0  0
  -27.1020  -30.3040   24.4440 C   0  0  0  0  0  3  0  0  0  0  0  0
  -26.8340  -31.6800   24.8840 N   0  0  0  0  0  0  0  0  0  0  0  0
  -27.4400  -32.7680   24.3900 C   0  0  0  0  0  0  0  0  0  0  0  0
  -28.3470  -32.7100   23.5560 O   0  0  0  0  0  0  0  0  0  0  0  0
  -26.0620  -31.8080   25.5230 H   0  0  0  0  0  0  0  0  0  0  0  0
  -26.1860  -34.8660   23.7960 C   0  0  0  0  0  1  0  0  0  0  0  0
  -26.9640  -34.1410   24.9050 C   0  0  0  0  0  3  0  0  0  0  0  0
  -28.6830  -34.5180   26.6170 C   0  0  0  0  0  1  0  0  0  0  0  0
  -28.0650  -35.0040   25.3850 N   0  0  0  0  0  0  0  0  0  0  0  0
  -27.7360  -35.9510   25.5500 H   0  0  0  0  0  0  0  0  0  0  0  0
  -27.4790  -29.3890   25.6730 C   0  0  1  0  0  0  0  0  0  0  0  0
  -26.3060  -29.1500   26.6520 C   0  0  0  0  0  1  0  0  0  0  0  0
  -27.9830  -28.0080   25.1920 C   0  0  0  0  0  1  0  0  0  0  0  0
  -28.6460  -30.0290   26.4640 C   0  0  0  0  0  1  0  0  0  0  0  0
  -30.7340  -16.8820   22.1420 C   0  0  0  0  0  2  0  0  0  0  0  0
  -30.6530  -14.8610   20.6780 C   0  0  0  0  0  0  0  0  0  0  0  0
  -30.3770  -12.8100   19.3190 C   0  0  0  0  0  2  0  0  0  0  0  0
  -29.4250  -13.0710   18.1340 C   0  0  0  0  0  2  0  0  0  0  0  0
  -27.9610  -12.8470   18.5580 C   0  0  0  0  0  2  0  0  0  0  0  0
  -27.6040  -13.5780   19.8800 C   0  0  0  0  0  3  0  0  0  0  0  0
  -28.6700  -13.3150   20.9670 C   0  0  0  0  0  2  0  0  0  0  0  0
  -29.9800  -13.7030   20.4210 N   0  0  0  0  0  0  0  0  0  0  0  0
  -31.7450  -15.1140   20.1650 O   0  0  0  0  0  0  0  0  0  0  0  0
  -30.0510  -15.7450   21.4970 N   0  0  0  0  0  0  0  0  0  0  0  0
  -29.1350  -15.5090   21.8410 H   0  0  0  0  0  0  0  0  0  0  0  0
  -25.1780  -14.0520   20.5910 C   0  0  0  0  0  0  0  0  0  0  0  0
  -24.1420  -13.2200   20.9210 C   0  0  0  0  0  0  0  0  0  0  0  0
  -24.6630  -11.8920   20.8480 C   0  0  0  0  0  0  0  0  0  0  0  0
  -26.2620  -13.2260   20.3390 N   0  0  0  0  0  0  0  0  0  0  0  0
  -25.9560  -11.9210   20.5510 N   0  0  0  0  0  0  0  0  0  0  0  0
  -23.9930  -10.5930   20.9870 C   0  0  0  0  0  0  0  0  0  0  0  0
  -24.4470   -9.6220   21.9060 C   0  0  0  0  0  3  0  0  0  0  0  0
  -23.7740   -8.3880   22.0340 C   0  0  0  0  0  3  0  0  0  0  0  0
  -22.6310   -8.1180   21.2440 C   0  0  0  0  0  0  0  0  0  0  0  0
  -22.1970   -9.0780   20.3150 C   0  0  0  0  0  3  0  0  0  0  0  0
  -22.8710  -10.3040   20.1850 C   0  0  0  0  0  3  0  0  0  0  0  0
  -21.9290   -6.9370   21.2820 O   0  0  0  0  0  0  0  0  0  0  0  0
  -21.9220   -6.1400   22.3990 C   0  0  0  0  0  0  0  0  0  0  0  0
  -21.5020   -6.6250   23.6570 C   0  0  0  0  0  3  0  0  0  0  0  0
  -21.4430   -5.7550   24.7640 C   0  0  0  0  0  3  0  0  0  0  0  0
  -21.7930   -4.3990   24.6130 C   0  0  0  0  0  0  0  0  0  0  0  0
  -22.2040   -3.9130   23.3600 C   0  0  0  0  0  3  0  0  0  0  0  0
  -22.2650   -4.7810   22.2560 C   0  0  0  0  0  0  0  0  0  0  0  0
  -22.6430   -4.3030   21.0460 F   0  0  0  0  0  0  0  0  0  0  0  0
  -21.7280   -3.5610   25.6740 F   0  0  0  0  0  0  0  0  0  0  0  0
  -22.7240  -13.6270   21.1970 C   0  0  0  0  0  0  0  0  0  0  0  0
  -22.0460  -12.9180   22.0950 N   0  0  0  0  0  0  0  0  0  0  0  0
  -22.2220  -14.6090   20.6500 O   0  0  0  0  0  0  0  0  0  0  0  0
  -22.4660  -12.1260   22.5580 H   0  0  0  0  0  0  0  0  0  0  0  0
  -21.0960  -13.1730   22.3220 H   0  0  0  0  0  0  0  0  0  0  0  0
  -25.2840  -15.4340   20.4630 N   0  0  0  0  0  0  0  0  0  0  0  0
  -24.4820  -16.0440   20.5750 H   0  0  0  0  0  0  0  0  0  0  0  0
  -26.1160  -15.9180   20.1490 H   0  0  0  0  0  0  0  0  0  0  0  0
  1  4  1  0
  2  3  1  0
  2  1  2  0
  3  5  2  0
  4  7  2  0
  4 63  1  0
  5  6  1  0
  5  7  1  0
  8 12  1  0
 10  8  1  0
 10 14  1  0
 11  9  1  0
 12  2  1  0
 12  9  1  0
 13 14  1  0
 14 11  1  0
 14 15  1  1
 16  3  1  0
 16 17  1  0
 18 16  1  0
 20 21  1  0
 20 18  1  0
 20 19  1  0
 21 22  1  0
 22 24  1  0
 23 34  2  0
 24 29  1  0
 25 35  1  0
 25 33  1  0
 26 32  1  0
 26 28  1  0
 27 33  1  0
 28 27  1  0
 29 28  2  0
 30 31  1  0
 30 24  2  0
 31 26  2  0
 32 25  1  0
 33 23  1  0
 35 37  2  0
 36 35  1  0
 38 36  1  0
 39 44  1  0
 40 36  1  0
 41 40  1  0
 42 43  1  0
 42 41  1  0
 43 39  1  0
 44 40  1  0
 44 45  2  0
 46 45  1  0
 47 46  2  0
 48 39  2  0
 48 47  1  0
 49 23  1  0
 49 50  1  0
 49 59  1  0
 50 53  1  0
 51 50  1  0
 51 55  1  0
 52 51  2  0
 55 54  1  0
 55 57  1  0
 57 58  1  0
 57 56  1  0
 59 62  1  1
 59 60  1  0
 61 59  1  0
 64 72  1  0
 65 70  1  0
 66 67  1  0
 66 65  1  0
 68 67  1  0
 68 77  1  0
 68 69  1  0
 70 64  1  0
 70 69  1  0
 71 64  2  0
 72 73  1  0
 72 63  1  0
 74 75  2  0
 75 94  1  0
 76 75  1  0
 76 79  1  0
 77 78  1  0
 77 74  1  0
 78 76  2  0
 79 80  1  0
 80 81  2  0
 82 85  1  0
 82 81  1  0
 83 82  2  0
 84 83  1  0
 84 79  2  0
 85 86  1  0
 86 87  1  0
 87 88  2  0
 89 88  1  0
 89 93  1  0
 90 89  2  0
 91 86  2  0
 91 90  1  0
 92 91  1  0
 94 95  1  0
 95 98  1  0
 95 97  1  0
 96 94  2  0
 99100  1  0
 99 74  1  0
101 99  1  0
M  ISO  4  21 101  22 101  64 100  72 100
M  END
>  <TORSDO>  (34) 
F 22

>  <SCORE>  (34) 
-11.509

>  <name>  (34) 
33

>  <ligand_id>  (34) 
33

>  <original_smiles>  (34) 
[H]c1c([H])c([H])c2c(c1[H])C([H])([H])C([H])([H])C([H])([H])C2([H])N([H])C(=O)C1([H])N(C(=O)C([H])(N([H])C(=O)C([H])(N([H])C([H])([H])[H])C([H])([H])[H])C(C([H])([H])[H])(C([H])([H])[H])C([H])([H])[H])C([H])([H])c2c([H])c(OC([H])([H])C([H])(C([H])([H])[H])C([H])([H])N([H])c3c(C([H])([H])[H])nc(C([H])([H])N([H])C(=O)N4C([H])([H])C([H])([H])C([H])([H])C([H])(n5nc(-c6c([H])c([H])c(Oc7c([H])c([H])c(F)c([H])c7F)c([H])c6[H])c(C(=O)N([H])[H])c5N([H])[H])C4([H])[H])c([H])c3C3([H])C([H])([H])C([H])([H])[N+]([H])(C([H])([H])[H])C([H])([H])C3([H])[H])c([H])c([H])c2C1([H])[H]

>  <smiles>  (34) 
[H]c1c([H])c([H])c2c(c1[H])C([H])([H])C([H])([H])C([H])([H])C2([H])N([H])C(=O)C1([H])N(C(=O)C([H])(N([H])C(=O)C([H])(N([H])C([H])([H])[H])C([H])([H])[H])C(C([H])([H])[H])(C([H])([H])[H])C([H])([H])[H])C([H])([H])c2c([H])c(OC([H])([H])C([H])(C([H])([H])[H])C([H])([H])N([H])c3c(C([H])([H])[H])nc(C([H])([H])N([H])C(=O)N4C([H])([H])C([H])([H])C([H])([H])C([H])(n5nc(-c6c([H])c([H])c(Oc7c([H])c([H])c(F)c([H])c7F)c([H])c6[H])c(C(=O)N([H])[H])c5N([H])[H])C4([H])[H])c([H])c3C3([H])C([H])([H])C([H])([H])[N+]([H])(C([H])([H])[H])C([H])([H])C3([H])[H])c([H])c([H])c2C1([H])[H]

$$$$
34:0:0
     RDKit          3D

 95103  0  0  1  0  0  0  0  0999 V2000
  -30.3830  -23.5620   18.8950 C   0  0  0  0  0  1  0  0  0  0  0  0
  -29.8140  -22.8940   20.1600 C   0  0  0  0  0  3  0  0  0  0  0  0
  -30.5730  -21.5620   20.4500 C   0  0  0  0  0  0  0  0  0  0  0  0
  -28.3400  -18.7480   19.2470 C   0  0  0  0  0  2  0  0  0  0  0  0
  -28.6850  -17.6830   20.2840 C   0  0  0  0  0  2  0  0  0  0  0  0
  -28.6350  -20.1770   19.7340 C   0  0  0  0  0  2  0  0  0  0  0  0
  -30.4950  -19.2100   21.1670 C   0  0  0  0  0  2  0  0  0  0  0  0
  -30.1710  -17.7910   20.6380 C   0  0  0  0  0  3  0  0  0  0  0  0
  -29.9510  -20.3510   20.3820 N   0  0  0  0  0  0  0  0  0  0  0  0
  -31.7470  -21.6570   20.8240 O   0  0  0  0  0  0  0  0  0  0  0  0
  -30.6460  -16.7000   21.6370 C   0  0  0  0  0  2  0  0  0  0  0  0
  -30.7100  -14.4470   20.5120 C   0  0  0  0  0  0  0  0  0  0  0  0
  -30.3590  -12.3220   19.2990 C   0  0  0  0  0  2  0  0  0  0  0  0
  -29.4240  -12.5370   18.0930 C   0  0  0  0  0  2  0  0  0  0  0  0
  -27.9500  -12.4180   18.5250 C   0  0  0  0  0  2  0  0  0  0  0  0
  -27.6150  -13.2520   19.7930 C   0  0  0  0  0  3  0  0  0  0  0  0
  -28.6630  -13.0140   20.9020 C   0  0  0  0  0  2  0  0  0  0  0  0
  -30.0010  -13.2980   20.3420 N   0  0  0  0  0  0  0  0  0  0  0  0
  -31.7740  -14.6820   19.9320 O   0  0  0  0  0  0  0  0  0  0  0  0
  -30.1520  -15.3510   21.3300 N   0  0  0  0  0  0  0  0  0  0  0  0
  -29.2860  -15.0830   21.7720 H   0  0  0  0  0  0  0  0  0  0  0  0
  -25.2140  -13.8560   20.5090 C   0  0  0  0  0  0  0  0  0  0  0  0
  -24.1500  -13.0820   20.8860 C   0  0  0  0  0  0  0  0  0  0  0  0
  -24.6140  -11.7320   20.8540 C   0  0  0  0  0  0  0  0  0  0  0  0
  -26.2600  -12.9760   20.2730 N   0  0  0  0  0  0  0  0  0  0  0  0
  -25.9010  -11.6930   20.5370 N   0  0  0  0  0  0  0  0  0  0  0  0
  -23.8910  -10.4690   21.0520 C   0  0  0  0  0  0  0  0  0  0  0  0
  -24.3370   -9.4980   21.9760 C   0  0  0  0  0  3  0  0  0  0  0  0
  -23.6120   -8.3020   22.1630 C   0  0  0  0  0  3  0  0  0  0  0  0
  -22.4270   -8.0670   21.4260 C   0  0  0  0  0  0  0  0  0  0  0  0
  -21.9990   -9.0270   20.4910 C   0  0  0  0  0  3  0  0  0  0  0  0
  -22.7240  -10.2150   20.3040 C   0  0  0  0  0  3  0  0  0  0  0  0
  -21.6730   -6.9230   21.5220 O   0  0  0  0  0  0  0  0  0  0  0  0
  -21.6510   -6.1690   22.6670 C   0  0  0  0  0  0  0  0  0  0  0  0
  -21.2610   -6.7130   23.9110 C   0  0  0  0  0  3  0  0  0  0  0  0
  -21.1830   -5.8850   25.0490 C   0  0  0  0  0  3  0  0  0  0  0  0
  -21.4870   -4.5140   24.9430 C   0  0  0  0  0  0  0  0  0  0  0  0
  -21.8700   -3.9690   23.7040 C   0  0  0  0  0  3  0  0  0  0  0  0
  -21.9480   -4.7950   22.5690 C   0  0  0  0  0  0  0  0  0  0  0  0
  -22.2980   -4.2600   21.3750 F   0  0  0  0  0  0  0  0  0  0  0  0
  -21.4050   -3.7170   26.0340 F   0  0  0  0  0  0  0  0  0  0  0  0
  -22.7560  -13.5610   21.1700 C   0  0  0  0  0  0  0  0  0  0  0  0
  -22.0340  -12.8660   22.0410 N   0  0  0  0  0  0  0  0  0  0  0  0
  -22.3150  -14.5870   20.6550 O   0  0  0  0  0  0  0  0  0  0  0  0
  -22.4040  -12.0390   22.4870 H   0  0  0  0  0  0  0  0  0  0  0  0
  -21.1000  -13.1700   22.2700 H   0  0  0  0  0  0  0  0  0  0  0  0
  -25.3690  -15.2260   20.3350 N   0  0  0  0  0  0  0  0  0  0  0  0
  -24.5940  -15.8660   20.4750 H   0  0  0  0  0  0  0  0  0  0  0  0
  -26.2080  -15.6850   20.0050 H   0  0  0  0  0  0  0  0  0  0  0  0
  -29.9230  -23.8410   21.4000 C   0  0  0  0  0  2  0  0  0  0  0  0
  -28.7640  -24.8260   21.7540 C   0  0  0  0  0  3  0  0  0  0  0  0
  -26.2710  -24.9060   22.4250 C   0  0  0  0  0  1  0  0  0  0  0  0
  -27.3440  -24.2490   21.5450 C   0  0  0  0  0  2  0  0  0  0  0  0
  -28.9660  -26.3140   21.3280 C   0  0  0  0  0  2  0  0  0  0  0  0
  -28.4090  -26.6720   20.0580 O   0  0  0  0  0  0  0  0  0  0  0  0
  -24.6130  -31.8710   23.2010 C   0  0  0  0  0  0  0  0  0  0  0  0
  -27.2760  -27.4570   20.0950 C   0  0  0  0  0  0  0  0  0  0  0  0
  -23.4180  -30.4820   21.5390 C   0  0  0  0  0  3  0  0  0  0  0  0
  -24.8820  -28.9610   20.1050 C   0  0  0  0  0  0  0  0  0  0  0  0
  -25.9410  -30.8480   21.3540 C   0  0  0  0  0  2  0  0  0  0  0  0
  -26.0330  -29.4780   20.7130 C   0  0  0  0  0  0  0  0  0  0  0  0
  -27.2330  -28.7300   20.7140 C   0  0  0  0  0  3  0  0  0  0  0  0
  -26.1150  -26.9650   19.4660 C   0  0  0  0  0  3  0  0  0  0  0  0
  -24.9160  -27.7020   19.4820 C   0  0  0  0  0  3  0  0  0  0  0  0
  -23.6340  -29.8140   20.1550 C   0  0  0  0  0  2  0  0  0  0  0  0
  -24.6770  -31.0830   22.0900 N   0  0  0  0  0  0  0  0  0  0  0  0
  -23.5310  -32.1370   23.7380 O   0  0  0  0  0  0  0  0  0  0  0  0
  -22.7650  -29.4520   22.4880 C   0  0  0  0  0  0  0  0  0  0  0  0
  -21.4400  -29.2730   22.3550 N   0  0  0  0  0  0  0  0  0  0  0  0
  -23.4460  -28.8150   23.2970 O   0  0  0  0  0  0  0  0  0  0  0  0
  -20.9540  -29.8370   21.6730 H   0  0  0  0  0  0  0  0  0  0  0  0
  -18.0610  -28.0860   22.8330 C   0  0  0  0  0  0  0  0  0  0  0  0
  -20.6190  -28.3290   23.1130 C   0  0  0  0  0  3  0  0  0  0  0  0
  -20.7180  -26.9060   22.5170 C   0  0  0  0  0  2  0  0  0  0  0  0
  -19.6160  -26.6020   21.4960 C   0  0  0  0  0  2  0  0  0  0  0  0
  -18.2340  -26.7440   22.1410 C   0  0  0  0  0  2  0  0  0  0  0  0
  -19.1820  -28.8370   23.2760 C   0  0  0  0  0  0  0  0  0  0  0  0
  -18.9680  -30.0940   23.8790 C   0  0  0  0  0  3  0  0  0  0  0  0
  -17.6650  -30.6000   24.0490 C   0  0  0  0  0  3  0  0  0  0  0  0
  -16.5590  -29.8430   23.6250 C   0  0  0  0  0  3  0  0  0  0  0  0
  -16.7570  -28.5900   23.0220 C   0  0  0  0  0  3  0  0  0  0  0  0
  -25.8960  -32.4990   23.8310 C   0  0  0  0  0  3  0  0  0  0  0  0
  -25.5860  -33.8950   24.1690 N   0  0  0  0  0  0  0  0  0  0  0  0
  -25.9240  -34.9500   23.4170 C   0  0  0  0  0  0  0  0  0  0  0  0
  -26.6010  -34.8520   22.3890 O   0  0  0  0  0  0  0  0  0  0  0  0
  -24.9870  -34.0440   24.9670 H   0  0  0  0  0  0  0  0  0  0  0  0
  -24.1990  -36.7460   23.0600 C   0  0  0  0  0  1  0  0  0  0  0  0
  -25.4350  -36.3360   23.8780 C   0  0  0  0  0  3  0  0  0  0  0  0
  -27.5660  -37.2160   24.7250 C   0  0  0  0  0  1  0  0  0  0  0  0
  -26.4680  -37.3890   23.7770 N   0  0  0  0  0  0  0  0  0  0  0  0
  -26.0630  -38.3090   23.9280 H   0  0  0  0  0  0  0  0  0  0  0  0
  -26.4090  -31.7170   25.1030 C   0  0  1  0  0  0  0  0  0  0  0  0
  -25.3120  -31.4720   26.1670 C   0  0  0  0  0  1  0  0  0  0  0  0
  -26.9910  -30.3420   24.6980 C   0  0  0  0  0  1  0  0  0  0  0  0
  -27.5580  -32.5040   25.7760 C   0  0  0  0  0  1  0  0  0  0  0  0
  2  1  1  0
  2  3  1  0
  2 50  1  0
  3 10  2  0
  4  6  1  0
  4  5  1  0
  5  8  1  0
  6  9  1  0
  8  7  1  0
  8 11  1  0
  9  3  1  0
  9  7  1  0
 12 20  1  0
 13 18  1  0
 14 15  1  0
 14 13  1  0
 16 15  1  0
 16 25  1  0
 16 17  1  0
 18 12  1  0
 18 17  1  0
 19 12  2  0
 20 11  1  0
 20 21  1  0
 22 23  2  0
 23 42  1  0
 24 23  1  0
 24 27  1  0
 25 22  1  0
 25 26  1  0
 26 24  2  0
 27 28  1  0
 28 29  2  0
 30 33  1  0
 30 29  1  0
 31 30  2  0
 32 31  1  0
 32 27  2  0
 33 34  1  0
 34 35  1  0
 35 36  2  0
 37 36  1  0
 37 41  1  0
 38 37  2  0
 39 34  2  0
 39 38  1  0
 40 39  1  0
 42 43  1  0
 43 46  1  0
 43 45  1  0
 44 42  2  0
 47 48  1  0
 47 22  1  0
 49 47  1  0
 50 51  1  0
 51 54  1  0
 53 51  1  0
 53 52  1  0
 55 57  1  0
 55 54  1  0
 56 67  2  0
 57 62  1  0
 58 66  1  0
 58 68  1  0
 59 65  1  0
 59 61  1  0
 60 66  1  0
 61 62  2  0
 61 60  1  0
 63 64  1  0
 63 57  2  0
 64 59  2  0
 65 58  1  0
 66 56  1  0
 68 70  2  0
 69 68  1  0
 71 69  1  0
 72 81  2  0
 72 77  1  0
 73 69  1  0
 73 77  1  0
 74 73  1  0
 75 76  1  0
 75 74  1  0
 76 72  1  0
 77 78  2  0
 78 79  1  0
 80 79  2  0
 81 80  1  0
 82 56  1  0
 82 83  1  0
 82 92  1  0
 83 86  1  0
 84 88  1  0
 84 83  1  0
 85 84  2  0
 88 87  1  0
 90 88  1  0
 90 91  1  0
 90 89  1  0
 92 95  1  1
 92 93  1  0
 94 92  1  0
M  ISO  4  12 100  20 100  54 101  55 101
M  END
>  <TORSDO>  (35) 
F 22

>  <SCORE>  (35) 
-13.645

>  <name>  (35) 
34

>  <ligand_id>  (35) 
34

>  <original_smiles>  (35) 
[H]c1c([H])c([H])c2c(c1[H])C([H])([H])C([H])([H])C([H])([H])C2([H])N([H])C(=O)C1([H])N(C(=O)C([H])(N([H])C(=O)C([H])(N([H])C([H])([H])[H])C([H])([H])[H])C(C([H])([H])[H])(C([H])([H])[H])C([H])([H])[H])C([H])([H])c2c([H])c(OC([H])([H])C([H])(C([H])([H])C([H])([H])[H])C([H])([H])C([H])(C(=O)N3C([H])([H])C([H])([H])C([H])([H])C([H])(C([H])([H])N([H])C(=O)N4C([H])([H])C([H])([H])C([H])([H])C([H])(n5nc(-c6c([H])c([H])c(Oc7c([H])c([H])c(F)c([H])c7F)c([H])c6[H])c(C(=O)N([H])[H])c5N([H])[H])C4([H])[H])C3([H])[H])C([H])([H])[H])c([H])c([H])c2C1([H])[H]

>  <smiles>  (35) 
[H]c1c([H])c([H])c2c(c1[H])C([H])([H])C([H])([H])C([H])([H])C2([H])N([H])C(=O)C1([H])N(C(=O)C([H])(N([H])C(=O)C([H])(N([H])C([H])([H])[H])C([H])([H])[H])C(C([H])([H])[H])(C([H])([H])[H])C([H])([H])[H])C([H])([H])c2c([H])c(OC([H])([H])C([H])(C([H])([H])C([H])([H])[H])C([H])([H])C([H])(C(=O)N3C([H])([H])C([H])([H])C([H])([H])C([H])(C([H])([H])N([H])C(=O)N4C([H])([H])C([H])([H])C([H])([H])C([H])(n5nc(-c6c([H])c([H])c(Oc7c([H])c([H])c(F)c([H])c7F)c([H])c6[H])c(C(=O)N([H])[H])c5N([H])[H])C4([H])[H])C3([H])[H])C([H])([H])[H])c([H])c([H])c2C1([H])[H]

$$$$
35:0:0
     RDKit          3D

 94102  0  0  1  0  0  0  0  0999 V2000
  -29.3230  -21.1890   19.6070 C   0  0  0  0  0  2  0  0  0  0  0  0
  -30.0880  -21.6070   21.9730 C   0  0  0  0  0  2  0  0  0  0  0  0
  -29.7770  -19.6950   19.6930 C   0  0  0  0  0  2  0  0  0  0  0  0
  -30.8010  -20.2290   21.8780 C   0  0  0  0  0  2  0  0  0  0  0  0
  -28.9100  -21.7500   20.9840 C   0  0  0  0  0  3  0  0  0  0  0  0
  -30.0290  -19.2270   21.0920 N   0  0  2  0  0  4  0  0  0  0  0  0
  -29.1250  -19.1770   21.5390 H   0  0  0  0  0  0  0  0  0  0  0  0
  -28.2660  -23.0970   20.9970 N   0  0  0  0  0  4  0  0  0  0  0  0
  -28.0740  -23.3160   21.9630 H   0  0  0  0  0  0  0  0  0  0  0  0
  -27.3620  -23.0100   20.5570 H   0  0  0  0  0  0  0  0  0  0  0  0
  -28.9470  -24.2710   20.3820 C   0  0  0  0  0  2  0  0  0  0  0  0
  -29.4160  -25.9820   22.2160 C   0  0  0  0  0  1  0  0  0  0  0  0
  -28.4820  -25.5920   21.0620 C   0  0  0  0  0  3  0  0  0  0  0  0
  -28.4460  -26.7120   20.1590 O   0  0  0  0  0  0  0  0  0  0  0  0
  -24.5950  -31.8890   23.2410 C   0  0  0  0  0  0  0  0  0  0  0  0
  -27.2810  -27.4500   20.1870 C   0  0  0  0  0  0  0  0  0  0  0  0
  -23.4040  -30.4780   21.5950 C   0  0  0  0  0  3  0  0  0  0  0  0
  -24.8740  -28.9350   20.1910 C   0  0  0  0  0  0  0  0  0  0  0  0
  -25.9290  -30.8440   21.4130 C   0  0  0  0  0  2  0  0  0  0  0  0
  -26.0260  -29.4700   20.7810 C   0  0  0  0  0  0  0  0  0  0  0  0
  -27.2360  -28.7350   20.7740 C   0  0  0  0  0  3  0  0  0  0  0  0
  -26.1130  -26.9250   19.5960 C   0  0  0  0  0  3  0  0  0  0  0  0
  -24.9100  -27.6600   19.5960 C   0  0  0  0  0  3  0  0  0  0  0  0
  -23.6250  -29.7890   20.2220 C   0  0  0  0  0  2  0  0  0  0  0  0
  -24.6600  -31.0840   22.1430 N   0  0  0  0  0  0  0  0  0  0  0  0
  -23.5090  -32.1610   23.7730 O   0  0  0  0  0  0  0  0  0  0  0  0
  -22.7480  -29.4600   22.5570 C   0  0  0  0  0  0  0  0  0  0  0  0
  -21.4240  -29.2810   22.4240 N   0  0  0  0  0  0  0  0  0  0  0  0
  -23.4290  -28.8350   23.3730 O   0  0  0  0  0  0  0  0  0  0  0  0
  -20.9370  -29.8380   21.7360 H   0  0  0  0  0  0  0  0  0  0  0  0
  -18.0450  -28.1020   22.9230 C   0  0  0  0  0  0  0  0  0  0  0  0
  -20.6030  -28.3460   23.1930 C   0  0  0  0  0  3  0  0  0  0  0  0
  -20.6970  -26.9170   22.6110 C   0  0  0  0  0  2  0  0  0  0  0  0
  -19.5920  -26.6040   21.5970 C   0  0  0  0  0  2  0  0  0  0  0  0
  -18.2120  -26.7540   22.2410 C   0  0  0  0  0  2  0  0  0  0  0  0
  -19.1670  -28.8560   23.3540 C   0  0  0  0  0  0  0  0  0  0  0  0
  -18.9550  -30.1190   23.9490 C   0  0  0  0  0  3  0  0  0  0  0  0
  -17.6540  -30.6290   24.1150 C   0  0  0  0  0  3  0  0  0  0  0  0
  -16.5450  -29.8720   23.6980 C   0  0  0  0  0  3  0  0  0  0  0  0
  -16.7410  -28.6100   23.1090 C   0  0  0  0  0  3  0  0  0  0  0  0
  -25.8780  -32.5230   23.8660 C   0  0  0  0  0  3  0  0  0  0  0  0
  -25.5640  -33.9210   24.1910 N   0  0  0  0  0  0  0  0  0  0  0  0
  -25.9050  -34.9710   23.4320 C   0  0  0  0  0  0  0  0  0  0  0  0
  -26.5860  -34.8640   22.4070 O   0  0  0  0  0  0  0  0  0  0  0  0
  -24.9570  -34.0770   24.9820 H   0  0  0  0  0  0  0  0  0  0  0  0
  -24.1810  -36.7610   23.0510 C   0  0  0  0  0  1  0  0  0  0  0  0
  -25.4130  -36.3620   23.8790 C   0  0  0  0  0  3  0  0  0  0  0  0
  -27.5390  -37.2460   24.7310 C   0  0  0  0  0  1  0  0  0  0  0  0
  -26.4480  -37.4140   23.7750 N   0  0  0  0  0  0  0  0  0  0  0  0
  -26.0410  -38.3350   23.9160 H   0  0  0  0  0  0  0  0  0  0  0  0
  -26.3890  -31.7550   25.1470 C   0  0  1  0  0  0  0  0  0  0  0  0
  -25.2920  -31.5170   26.2120 C   0  0  0  0  0  1  0  0  0  0  0  0
  -26.9750  -30.3770   24.7580 C   0  0  0  0  0  1  0  0  0  0  0  0
  -27.5370  -32.5510   25.8110 C   0  0  0  0  0  1  0  0  0  0  0  0
  -30.5620  -17.8360   21.2450 C   0  0  0  0  0  2  0  0  0  0  0  0
  -29.6880  -16.7650   20.5530 C   0  0  0  0  0  2  0  0  0  0  0  0
  -30.6390  -14.4490   20.4760 C   0  0  0  0  0  0  0  0  0  0  0  0
  -30.3710  -12.3090   19.2890 C   0  0  0  0  0  2  0  0  0  0  0  0
  -29.4140  -12.5560   18.1000 C   0  0  0  0  0  2  0  0  0  0  0  0
  -27.9400  -12.4200   18.5370 C   0  0  0  0  0  2  0  0  0  0  0  0
  -27.6210  -13.2180   19.8290 C   0  0  0  0  0  3  0  0  0  0  0  0
  -28.6820  -12.9270   20.9170 C   0  0  0  0  0  2  0  0  0  0  0  0
  -30.0110  -13.2480   20.3600 N   0  0  0  0  0  0  0  0  0  0  0  0
  -31.7180  -14.7180   19.9400 O   0  0  0  0  0  0  0  0  0  0  0  0
  -29.8810  -15.3940   21.0440 N   0  0  0  0  0  0  0  0  0  0  0  0
  -29.1040  -15.0230   21.5730 H   0  0  0  0  0  0  0  0  0  0  0  0
  -25.2210  -13.8330   20.5450 C   0  0  0  0  0  0  0  0  0  0  0  0
  -24.1540  -13.0620   20.9210 C   0  0  0  0  0  0  0  0  0  0  0  0
  -24.6130  -11.7090   20.8840 C   0  0  0  0  0  0  0  0  0  0  0  0
  -26.2640  -12.9500   20.3080 N   0  0  0  0  0  0  0  0  0  0  0  0
  -25.9010  -11.6680   20.5670 N   0  0  0  0  0  0  0  0  0  0  0  0
  -23.8890  -10.4480   21.0770 C   0  0  0  0  0  0  0  0  0  0  0  0
  -24.3340   -9.4730   21.9970 C   0  0  0  0  0  3  0  0  0  0  0  0
  -23.6110   -8.2750   22.1770 C   0  0  0  0  0  3  0  0  0  0  0  0
  -22.4270   -8.0430   21.4340 C   0  0  0  0  0  0  0  0  0  0  0  0
  -22.0020   -9.0050   20.5020 C   0  0  0  0  0  3  0  0  0  0  0  0
  -22.7270  -10.1950   20.3210 C   0  0  0  0  0  3  0  0  0  0  0  0
  -21.6770   -6.8950   21.5230 O   0  0  0  0  0  0  0  0  0  0  0  0
  -21.6490   -6.1390   22.6660 C   0  0  0  0  0  0  0  0  0  0  0  0
  -21.2490   -6.6800   23.9080 C   0  0  0  0  0  3  0  0  0  0  0  0
  -21.1680   -5.8510   25.0440 C   0  0  0  0  0  3  0  0  0  0  0  0
  -21.4770   -4.4810   24.9410 C   0  0  0  0  0  0  0  0  0  0  0  0
  -21.8720   -3.9400   23.7040 C   0  0  0  0  0  3  0  0  0  0  0  0
  -21.9540   -4.7670   22.5710 C   0  0  0  0  0  0  0  0  0  0  0  0
  -22.3140   -4.2350   21.3770 F   0  0  0  0  0  0  0  0  0  0  0  0
  -21.3940   -3.6820   26.0300 F   0  0  0  0  0  0  0  0  0  0  0  0
  -22.7590  -13.5400   21.2050 C   0  0  0  0  0  0  0  0  0  0  0  0
  -22.0350  -12.8410   22.0730 N   0  0  0  0  0  0  0  0  0  0  0  0
  -22.3160  -14.5670   20.6920 O   0  0  0  0  0  0  0  0  0  0  0  0
  -22.4040  -12.0120   22.5130 H   0  0  0  0  0  0  0  0  0  0  0  0
  -21.0980  -13.1440   22.3020 H   0  0  0  0  0  0  0  0  0  0  0  0
  -25.3860  -15.2040   20.3650 N   0  0  0  0  0  0  0  0  0  0  0  0
  -24.6110  -15.8540   20.4500 H   0  0  0  0  0  0  0  0  0  0  0  0
  -26.2150  -15.6270   19.9690 H   0  0  0  0  0  0  0  0  0  0  0  0
  1  3  1  0
  1  5  1  0
  3  6  1  0
  4  2  1  0
  5  8  1  0
  5  2  1  0
  6 55  1  0
  6  7  1  1
  6  4  1  0
  8  9  1  0
 10  8  1  0
 11  8  1  0
 11 13  1  0
 13 12  1  0
 14 16  1  0
 14 13  1  0
 15 26  2  0
 16 21  1  0
 17 25  1  0
 17 27  1  0
 18 24  1  0
 18 20  1  0
 19 25  1  0
 20 19  1  0
 21 20  2  0
 22 16  2  0
 23 22  1  0
 23 18  2  0
 24 17  1  0
 25 15  1  0
 27 29  2  0
 28 27  1  0
 30 28  1  0
 31 40  2  0
 31 36  1  0
 32 28  1  0
 32 36  1  0
 33 32  1  0
 34 35  1  0
 34 33  1  0
 35 31  1  0
 36 37  2  0
 37 38  1  0
 39 38  2  0
 40 39  1  0
 41 15  1  0
 41 42  1  0
 41 51  1  0
 42 45  1  0
 43 47  1  0
 43 42  1  0
 44 43  2  0
 47 46  1  0
 49 47  1  0
 49 50  1  0
 49 48  1  0
 51 54  1  1
 51 52  1  0
 53 51  1  0
 56 65  1  0
 56 55  1  0
 57 65  1  0
 58 63  1  0
 59 60  1  0
 59 58  1  0
 61 60  1  0
 61 70  1  0
 61 62  1  0
 63 57  1  0
 63 62  1  0
 64 57  2  0
 65 66  1  0
 67 68  2  0
 68 87  1  0
 69 68  1  0
 69 72  1  0
 70 67  1  0
 70 71  1  0
 71 69  2  0
 72 73  1  0
 73 74  2  0
 75 78  1  0
 75 74  1  0
 76 75  2  0
 77 76  1  0
 77 72  2  0
 78 79  1  0
 79 80  1  0
 80 81  2  0
 82 81  1  0
 82 86  1  0
 83 82  2  0
 84 79  2  0
 84 83  1  0
 85 84  1  0
 87 88  1  0
 88 91  1  0
 88 90  1  0
 89 87  2  0
 92 93  1  0
 92 67  1  0
 94 92  1  0
M  ISO  4  13 101  14 101  57 100  65 100
M  END
>  <TORSDO>  (36) 
F 21

>  <SCORE>  (36) 
-13.832

>  <name>  (36) 
35

>  <ligand_id>  (36) 
35

>  <original_smiles>  (36) 
[H]c1c([H])c([H])c2c(c1[H])C([H])([H])C([H])([H])C([H])([H])C2([H])N([H])C(=O)C1([H])N(C(=O)C([H])(N([H])C(=O)C([H])(N([H])C([H])([H])[H])C([H])([H])[H])C(C([H])([H])[H])(C([H])([H])[H])C([H])([H])[H])C([H])([H])c2c([H])c(OC([H])(C([H])([H])[H])C([H])([H])[N+]([H])([H])C3([H])C([H])([H])C([H])([H])[N+]([H])(C([H])([H])C([H])([H])N([H])C(=O)N4C([H])([H])C([H])([H])C([H])([H])C([H])(n5nc(-c6c([H])c([H])c(Oc7c([H])c([H])c(F)c([H])c7F)c([H])c6[H])c(C(=O)N([H])[H])c5N([H])[H])C4([H])[H])C([H])([H])C3([H])[H])c([H])c([H])c2C1([H])[H]

>  <smiles>  (36) 
[H]c1c([H])c([H])c2c(c1[H])C([H])([H])C([H])([H])C([H])([H])C2([H])N([H])C(=O)C1([H])N(C(=O)C([H])(N([H])C(=O)C([H])(N([H])C([H])([H])[H])C([H])([H])[H])C(C([H])([H])[H])(C([H])([H])[H])C([H])([H])[H])C([H])([H])c2c([H])c(OC([H])(C([H])([H])[H])C([H])([H])[N+]([H])([H])C3([H])C([H])([H])C([H])([H])[N+]([H])(C([H])([H])C([H])([H])N([H])C(=O)N4C([H])([H])C([H])([H])C([H])([H])C([H])(n5nc(-c6c([H])c([H])c(Oc7c([H])c([H])c(F)c([H])c7F)c([H])c6[H])c(C(=O)N([H])[H])c5N([H])[H])C4([H])[H])C([H])([H])C3([H])[H])c([H])c([H])c2C1([H])[H]

$$$$
36:0:0
     RDKit          3D

 88 96  0  0  1  0  0  0  0  0999 V2000
  -28.1460  -19.6480   19.5670 C   0  0  0  0  0  3  0  0  0  0  0  0
  -29.7960  -20.6860   20.4970 C   0  0  0  0  0  3  0  0  0  0  0  0
  -29.4100  -19.3470   20.1890 C   0  0  0  0  0  0  0  0  0  0  0  0
  -27.8620  -21.0170   19.5220 C   0  0  0  0  0  0  0  0  0  0  0  0
  -26.6590  -21.6970   18.9410 C   0  0  0  0  0  1  0  0  0  0  0  0
  -28.8930  -21.7640   20.1080 N   0  0  0  0  0  0  0  0  0  0  0  0
  -30.2350  -17.8840   20.4090 C   0  0  0  0  0  2  0  0  0  0  0  0
  -30.5100  -15.1280   20.3340 C   0  0  0  0  0  0  0  0  0  0  0  0
  -30.3970  -12.7630   19.3910 C   0  0  0  0  0  2  0  0  0  0  0  0
  -29.4670  -12.7250   18.1570 C   0  0  0  0  0  2  0  0  0  0  0  0
  -27.9980  -12.5170   18.5790 C   0  0  0  0  0  2  0  0  0  0  0  0
  -27.5940  -13.4010   19.7890 C   0  0  0  0  0  3  0  0  0  0  0  0
  -28.6600  -13.4170   20.9030 C   0  0  0  0  0  2  0  0  0  0  0  0
  -29.9130  -13.8630   20.2820 N   0  0  0  0  0  0  0  0  0  0  0  0
  -31.7240  -15.1620   20.0940 O   0  0  0  0  0  0  0  0  0  0  0  0
  -29.7650  -16.3560   20.4340 N   0  0  0  0  0  0  0  0  0  0  0  0
  -28.7730  -16.2280   20.5650 H   0  0  0  0  0  0  0  0  0  0  0  0
  -25.2190  -13.9380   20.5530 C   0  0  0  0  0  0  0  0  0  0  0  0
  -24.1620  -13.1470   20.9120 C   0  0  0  0  0  0  0  0  0  0  0  0
  -24.6370  -11.8000   20.8540 C   0  0  0  0  0  0  0  0  0  0  0  0
  -26.2670  -13.0730   20.2930 N   0  0  0  0  0  0  0  0  0  0  0  0
  -25.9300  -11.7800   20.5380 N   0  0  0  0  0  0  0  0  0  0  0  0
  -23.9170  -10.5290   21.0260 C   0  0  0  0  0  0  0  0  0  0  0  0
  -24.3460   -9.5560   21.9530 C   0  0  0  0  0  3  0  0  0  0  0  0
  -23.6270   -8.3520   22.1090 C   0  0  0  0  0  3  0  0  0  0  0  0
  -22.4610   -8.1140   21.3430 C   0  0  0  0  0  0  0  0  0  0  0  0
  -22.0470   -9.0770   20.4090 C   0  0  0  0  0  3  0  0  0  0  0  0
  -22.7680  -10.2740   20.2500 C   0  0  0  0  0  3  0  0  0  0  0  0
  -21.7140   -6.9630   21.4110 O   0  0  0  0  0  0  0  0  0  0  0  0
  -21.6410   -6.2160   22.5600 C   0  0  0  0  0  0  0  0  0  0  0  0
  -21.1440   -6.7500   23.7680 C   0  0  0  0  0  3  0  0  0  0  0  0
  -21.0310   -5.9290   24.9070 C   0  0  0  0  0  3  0  0  0  0  0  0
  -21.4000   -4.5730   24.8380 C   0  0  0  0  0  0  0  0  0  0  0  0
  -21.8850   -4.0350   23.6320 C   0  0  0  0  0  3  0  0  0  0  0  0
  -22.0060   -4.8540   22.4970 C   0  0  0  0  0  0  0  0  0  0  0  0
  -22.4600   -4.3280   21.3330 F   0  0  0  0  0  0  0  0  0  0  0  0
  -21.2780   -3.7810   25.9290 F   0  0  0  0  0  0  0  0  0  0  0  0
  -22.7630  -13.6110   21.1920 C   0  0  0  0  0  0  0  0  0  0  0  0
  -22.0390  -12.8930   22.0430 N   0  0  0  0  0  0  0  0  0  0  0  0
  -22.3210  -14.6430   20.6900 O   0  0  0  0  0  0  0  0  0  0  0  0
  -22.4080  -12.0580   22.4720 H   0  0  0  0  0  0  0  0  0  0  0  0
  -21.0990  -13.1850   22.2670 H   0  0  0  0  0  0  0  0  0  0  0  0
  -25.3690  -15.3120   20.3950 N   0  0  0  0  0  0  0  0  0  0  0  0
  -24.5950  -15.9560   20.5100 H   0  0  0  0  0  0  0  0  0  0  0  0
  -26.2040  -15.7570   20.0370 H   0  0  0  0  0  0  0  0  0  0  0  0
  -29.0870  -23.3600   20.2700 C   0  0  0  0  0  3  0  0  0  0  0  0
  -28.0040  -24.6600   20.0050 C   0  0  0  0  0  3  0  0  0  0  0  0
  -28.2380  -26.2000   20.2750 O   0  0  0  0  0  0  0  0  0  0  0  0
  -24.6010  -31.9330   23.2830 C   0  0  0  0  0  0  0  0  0  0  0  0
  -27.1870  -27.1990   20.2320 C   0  0  0  0  0  0  0  0  0  0  0  0
  -23.4060  -30.5380   21.6430 C   0  0  0  0  0  3  0  0  0  0  0  0
  -24.8580  -28.9620   20.2180 C   0  0  0  0  0  0  0  0  0  0  0  0
  -25.9660  -30.7990   21.4830 C   0  0  0  0  0  2  0  0  0  0  0  0
  -26.0410  -29.4040   20.8240 C   0  0  0  0  0  0  0  0  0  0  0  0
  -27.2050  -28.5390   20.8130 C   0  0  0  0  0  3  0  0  0  0  0  0
  -25.9750  -26.8680   19.5900 C   0  0  0  0  0  3  0  0  0  0  0  0
  -24.8410  -27.7080   19.5880 C   0  0  0  0  0  3  0  0  0  0  0  0
  -23.6300  -29.8630   20.2640 C   0  0  0  0  0  2  0  0  0  0  0  0
  -24.6790  -31.1100   22.1920 N   0  0  0  0  0  0  0  0  0  0  0  0
  -23.5110  -32.2200   23.8030 O   0  0  0  0  0  0  0  0  0  0  0  0
  -22.7230  -29.5310   22.6060 C   0  0  0  0  0  0  0  0  0  0  0  0
  -21.3980  -29.3510   22.4660 N   0  0  0  0  0  0  0  0  0  0  0  0
  -23.3900  -28.9140   23.4420 O   0  0  0  0  0  0  0  0  0  0  0  0
  -20.9190  -29.8950   21.7620 H   0  0  0  0  0  0  0  0  0  0  0  0
  -18.0180  -28.1370   22.9480 C   0  0  0  0  0  0  0  0  0  0  0  0
  -20.5750  -28.4110   23.2320 C   0  0  0  0  0  3  0  0  0  0  0  0
  -20.6880  -26.9820   22.6540 C   0  0  0  0  0  2  0  0  0  0  0  0
  -19.5910  -26.6530   21.6350 C   0  0  0  0  0  2  0  0  0  0  0  0
  -18.2040  -26.7910   22.2700 C   0  0  0  0  0  2  0  0  0  0  0  0
  -19.1310  -28.9060   23.3840 C   0  0  0  0  0  0  0  0  0  0  0  0
  -18.9010  -30.1650   23.9800 C   0  0  0  0  0  3  0  0  0  0  0  0
  -17.5920  -30.6570   24.1400 C   0  0  0  0  0  3  0  0  0  0  0  0
  -16.4940  -29.8870   23.7180 C   0  0  0  0  0  3  0  0  0  0  0  0
  -16.7080  -28.6270   23.1310 C   0  0  0  0  0  3  0  0  0  0  0  0
  -25.8760  -32.5680   23.9170 C   0  0  0  0  0  3  0  0  0  0  0  0
  -26.3610  -31.8160   25.2150 C   0  0  1  0  0  0  0  0  0  0  0  0
  -25.2450  -31.5990   26.2650 C   0  0  0  0  0  1  0  0  0  0  0  0
  -26.9480  -30.4320   24.8570 C   0  0  0  0  0  1  0  0  0  0  0  0
  -27.5060  -32.6150   25.8840 C   0  0  0  0  0  1  0  0  0  0  0  0
  -25.5700  -33.9760   24.2250 N   0  0  0  0  0  0  0  0  0  0  0  0
  -25.9020  -35.0200   23.4530 C   0  0  0  0  0  0  0  0  0  0  0  0
  -26.5670  -34.8990   22.4210 O   0  0  0  0  0  0  0  0  0  0  0  0
  -24.9900  -34.1430   25.0340 H   0  0  0  0  0  0  0  0  0  0  0  0
  -24.1840  -36.8200   23.0870 C   0  0  0  0  0  1  0  0  0  0  0  0
  -25.4270  -36.4190   23.8970 C   0  0  0  0  0  3  0  0  0  0  0  0
  -27.5650  -37.3120   24.7110 C   0  0  0  0  0  1  0  0  0  0  0  0
  -26.4660  -37.4620   23.7600 N   0  0  0  0  0  0  0  0  0  0  0  0
  -26.0670  -38.3890   23.8850 H   0  0  0  0  0  0  0  0  0  0  0  0
  1  3  1  0
  3  7  1  0
  3  2  2  0
  4  1  2  0
  4  6  1  0
  5  4  1  0
  6 46  1  0
  6  2  1  0
  7 16  1  0
  8 16  1  0
  9 14  1  0
 10 11  1  0
 10  9  1  0
 12 11  1  0
 12 21  1  0
 12 13  1  0
 14  8  1  0
 14 13  1  0
 15  8  2  0
 16 17  1  0
 18 19  2  0
 19 38  1  0
 20 19  1  0
 20 23  1  0
 21 22  1  0
 21 18  1  0
 22 20  2  0
 23 24  1  0
 24 25  2  0
 26 29  1  0
 26 25  1  0
 27 26  2  0
 28 27  1  0
 28 23  2  0
 29 30  1  0
 30 31  1  0
 31 32  2  0
 33 32  1  0
 33 37  1  0
 34 33  2  0
 35 30  2  0
 35 34  1  0
 36 35  1  0
 38 39  1  0
 39 42  1  0
 39 41  1  0
 40 38  2  0
 43 44  1  0
 43 18  1  0
 45 43  1  0
 47 46  2  0
 47 48  1  0
 49 60  2  0
 50 48  1  0
 50 55  1  0
 51 59  1  0
 51 61  1  0
 52 58  1  0
 52 54  1  0
 53 59  1  0
 54 53  1  0
 55 54  2  0
 56 50  2  0
 57 56  1  0
 57 52  2  0
 58 51  1  0
 59 49  1  0
 61 63  2  0
 62 61  1  0
 64 62  1  0
 65 74  2  0
 65 70  1  0
 66 62  1  0
 66 70  1  0
 67 66  1  0
 68 69  1  0
 68 67  1  0
 69 65  1  0
 70 71  2  0
 71 72  1  0
 73 72  2  0
 74 73  1  0
 75 49  1  0
 75 80  1  0
 75 76  1  0
 76 79  1  1
 76 77  1  0
 78 76  1  0
 80 83  1  0
 81 85  1  0
 81 80  1  0
 82 81  2  0
 85 84  1  0
 87 88  1  0
 87 85  1  0
 87 86  1  0
M  ISO  4   8 100  16 100  47 101  48 101
M  END
>  <TORSDO>  (37) 
F 19

>  <SCORE>  (37) 
-14.967

>  <name>  (37) 
36

>  <ligand_id>  (37) 
36

>  <original_smiles>  (37) 
[H]c1c([H])c([H])c2c(c1[H])C([H])([H])C([H])([H])C([H])([H])C2([H])N([H])C(=O)C1([H])N(C(=O)C([H])(N([H])C(=O)C([H])(N([H])C([H])([H])[H])C([H])([H])[H])C(C([H])([H])[H])(C([H])([H])[H])C([H])([H])[H])C([H])([H])c2c([H])c(OC([H])([H])C([H])([H])n3c([H])c(C([H])([H])N([H])C(=O)N4C([H])([H])C([H])([H])C([H])([H])C([H])(n5nc(-c6c([H])c([H])c(Oc7c([H])c([H])c(F)c([H])c7F)c([H])c6[H])c(C(=O)N([H])[H])c5N([H])[H])C4([H])[H])c([H])c3C([H])([H])[H])c([H])c([H])c2C1([H])[H]

>  <smiles>  (37) 
[H]c1c([H])c([H])c2c(c1[H])C([H])([H])C([H])([H])C([H])([H])C2([H])N([H])C(=O)C1([H])N(C(=O)C([H])(N([H])C(=O)C([H])(N([H])C([H])([H])[H])C([H])([H])[H])C(C([H])([H])[H])(C([H])([H])[H])C([H])([H])[H])C([H])([H])c2c([H])c(OC([H])([H])C([H])([H])n3c([H])c(C([H])([H])N([H])C(=O)N4C([H])([H])C([H])([H])C([H])([H])C([H])(n5nc(-c6c([H])c([H])c(Oc7c([H])c([H])c(F)c([H])c7F)c([H])c6[H])c(C(=O)N([H])[H])c5N([H])[H])C4([H])[H])c([H])c3C([H])([H])[H])c([H])c([H])c2C1([H])[H]

$$$$
37:0:0
     RDKit          3D

 90 98  0  0  1  0  0  0  0  0999 V2000
  -30.2570  -19.1280   21.4700 C   0  0  0  0  0  3  0  0  0  0  0  0
  -29.1230  -19.6330   19.7010 C   0  0  0  0  0  3  0  0  0  0  0  0
  -29.7180  -18.4400   20.3300 C   0  0  0  0  0  0  0  0  0  0  0  0
  -29.9930  -20.5180   21.4880 C   0  0  0  0  0  0  0  0  0  0  0  0
  -29.2850  -21.0030   20.3540 N   0  0  0  0  0  0  0  0  0  0  0  0
  -30.4930  -15.5260   20.1630 C   0  0  0  0  0  0  0  0  0  0  0  0
  -30.5200  -13.0500   19.2870 C   0  0  0  0  0  2  0  0  0  0  0  0
  -29.5870  -12.7550   18.0830 C   0  0  0  0  0  2  0  0  0  0  0  0
  -28.1580  -12.4510   18.5630 C   0  0  0  0  0  2  0  0  0  0  0  0
  -27.6950  -13.4420   19.6570 C   0  0  0  0  0  3  0  0  0  0  0  0
  -28.7540  -13.6550   20.7580 C   0  0  0  0  0  2  0  0  0  0  0  0
  -29.9480  -14.2030   20.0840 N   0  0  0  0  0  0  0  0  0  0  0  0
  -31.7280  -15.5130   20.0170 O   0  0  0  0  0  0  0  0  0  0  0  0
  -29.6870  -16.8010   20.0990 N   0  0  0  0  0  0  0  0  0  0  0  0
  -28.7460  -16.5130   19.8700 H   0  0  0  0  0  0  0  0  0  0  0  0
  -25.3370  -13.9970   20.4450 C   0  0  0  0  0  0  0  0  0  0  0  0
  -24.2810  -13.2200   20.8300 C   0  0  0  0  0  0  0  0  0  0  0  0
  -24.7520  -11.8700   20.8020 C   0  0  0  0  0  0  0  0  0  0  0  0
  -26.3780  -13.1230   20.1910 N   0  0  0  0  0  0  0  0  0  0  0  0
  -26.0410  -11.8380   20.4740 N   0  0  0  0  0  0  0  0  0  0  0  0
  -24.0320  -10.6060   21.0040 C   0  0  0  0  0  0  0  0  0  0  0  0
  -24.4590   -9.6550   21.9560 C   0  0  0  0  0  3  0  0  0  0  0  0
  -23.7340   -8.4590   22.1470 C   0  0  0  0  0  3  0  0  0  0  0  0
  -22.5680   -8.2050   21.3870 C   0  0  0  0  0  0  0  0  0  0  0  0
  -22.1600   -9.1450   20.4240 C   0  0  0  0  0  3  0  0  0  0  0  0
  -22.8850  -10.3330   20.2300 C   0  0  0  0  0  3  0  0  0  0  0  0
  -21.8160   -7.0590   21.4870 O   0  0  0  0  0  0  0  0  0  0  0  0
  -21.7480   -6.3420   22.6530 C   0  0  0  0  0  0  0  0  0  0  0  0
  -21.2660   -6.9140   23.8520 C   0  0  0  0  0  3  0  0  0  0  0  0
  -21.1490   -6.1210   25.0110 C   0  0  0  0  0  3  0  0  0  0  0  0
  -21.5020   -4.7600   24.9740 C   0  0  0  0  0  0  0  0  0  0  0  0
  -21.9780   -4.1880   23.7810 C   0  0  0  0  0  3  0  0  0  0  0  0
  -22.0980   -4.9770   22.6230 C   0  0  0  0  0  0  0  0  0  0  0  0
  -22.5350   -4.4170   21.4700 F   0  0  0  0  0  0  0  0  0  0  0  0
  -21.3830   -3.9970   26.0860 F   0  0  0  0  0  0  0  0  0  0  0  0
  -22.8860  -13.6950   21.1100 C   0  0  0  0  0  0  0  0  0  0  0  0
  -22.1630  -12.9970   21.9790 N   0  0  0  0  0  0  0  0  0  0  0  0
  -22.4440  -14.7190   20.5910 O   0  0  0  0  0  0  0  0  0  0  0  0
  -22.5330  -12.1680   22.4180 H   0  0  0  0  0  0  0  0  0  0  0  0
  -21.2250  -13.2980   22.2080 H   0  0  0  0  0  0  0  0  0  0  0  0
  -25.4950  -15.3670   20.2580 N   0  0  0  0  0  0  0  0  0  0  0  0
  -24.7310  -16.0240   20.3820 H   0  0  0  0  0  0  0  0  0  0  0  0
  -26.3300  -15.8030   19.8910 H   0  0  0  0  0  0  0  0  0  0  0  0
  -31.9070  -21.8610   22.4090 C   0  0  0  0  0  1  0  0  0  0  0  0
  -30.1560  -20.9150   23.9660 C   0  0  0  0  0  1  0  0  0  0  0  0
  -30.4320  -21.4720   22.5600 C   0  0  0  0  0  3  0  0  0  0  0  0
  -29.0510  -22.6620   19.8970 C   0  0  0  0  0  2  0  0  0  0  0  0
  -27.7840  -24.0750   21.9030 C   0  0  0  0  0  1  0  0  0  0  0  0
  -28.1180  -24.1840   20.4120 C   0  0  0  0  0  3  0  0  0  0  0  0
  -28.2940  -25.8580   20.2190 O   0  0  0  0  0  0  0  0  0  0  0  0
  -24.6650  -31.9050   23.1550 C   0  0  0  0  0  0  0  0  0  0  0  0
  -27.2670  -26.9690   20.1950 C   0  0  0  0  0  0  0  0  0  0  0  0
  -23.4880  -30.4840   21.5290 C   0  0  0  0  0  3  0  0  0  0  0  0
  -24.9530  -28.8690   20.1250 C   0  0  0  0  0  0  0  0  0  0  0  0
  -26.0540  -30.7050   21.3820 C   0  0  0  0  0  2  0  0  0  0  0  0
  -26.1410  -29.2810   20.7430 C   0  0  0  0  0  0  0  0  0  0  0  0
  -27.2910  -28.3560   20.7460 C   0  0  0  0  0  3  0  0  0  0  0  0
  -26.0430  -26.7260   19.5280 C   0  0  0  0  0  3  0  0  0  0  0  0
  -24.9320  -27.6140   19.4950 C   0  0  0  0  0  3  0  0  0  0  0  0
  -23.7280  -29.7870   20.1600 C   0  0  0  0  0  2  0  0  0  0  0  0
  -24.7580  -31.0620   22.0740 N   0  0  0  0  0  0  0  0  0  0  0  0
  -23.5710  -32.1860   23.6750 O   0  0  0  0  0  0  0  0  0  0  0  0
  -22.8020  -29.4920   22.5070 C   0  0  0  0  0  0  0  0  0  0  0  0
  -21.4740  -29.3130   22.3860 N   0  0  0  0  0  0  0  0  0  0  0  0
  -23.4760  -28.8820   23.3410 O   0  0  0  0  0  0  0  0  0  0  0  0
  -20.9820  -29.8560   21.6910 H   0  0  0  0  0  0  0  0  0  0  0  0
  -18.1070  -28.0620   22.9100 C   0  0  0  0  0  0  0  0  0  0  0  0
  -20.6630  -28.3730   23.1670 C   0  0  0  0  0  3  0  0  0  0  0  0
  -20.7870  -26.9370   22.6060 C   0  0  0  0  0  2  0  0  0  0  0  0
  -19.6890  -26.5880   21.5960 C   0  0  0  0  0  2  0  0  0  0  0  0
  -18.3060  -26.7120   22.2400 C   0  0  0  0  0  2  0  0  0  0  0  0
  -19.2130  -28.8480   23.3300 C   0  0  0  0  0  0  0  0  0  0  0  0
  -18.9700  -30.1070   23.9210 C   0  0  0  0  0  3  0  0  0  0  0  0
  -17.6560  -30.5820   24.0920 C   0  0  0  0  0  3  0  0  0  0  0  0
  -16.5650  -29.7950   23.6830 C   0  0  0  0  0  3  0  0  0  0  0  0
  -16.7920  -28.5360   23.0990 C   0  0  0  0  0  3  0  0  0  0  0  0
  -25.9250  -32.5720   23.7830 C   0  0  0  0  0  3  0  0  0  0  0  0
  -26.4320  -31.8320   25.0820 C   0  0  1  0  0  0  0  0  0  0  0  0
  -25.3290  -31.6040   26.1440 C   0  0  0  0  0  1  0  0  0  0  0  0
  -27.0340  -30.4520   24.7320 C   0  0  0  0  0  1  0  0  0  0  0  0
  -27.5670  -32.6480   25.7430 C   0  0  0  0  0  1  0  0  0  0  0  0
  -25.5910  -33.9730   24.1020 N   0  0  0  0  0  0  0  0  0  0  0  0
  -25.9220  -35.0330   23.3520 C   0  0  0  0  0  0  0  0  0  0  0  0
  -26.6010  -34.9340   22.3270 O   0  0  0  0  0  0  0  0  0  0  0  0
  -24.9850  -34.1200   24.8970 H   0  0  0  0  0  0  0  0  0  0  0  0
  -24.1950  -36.8280   22.9760 C   0  0  0  0  0  1  0  0  0  0  0  0
  -25.4230  -36.4210   23.8070 C   0  0  0  0  0  3  0  0  0  0  0  0
  -27.5370  -37.3170   24.6800 C   0  0  0  0  0  1  0  0  0  0  0  0
  -26.4530  -37.4790   23.7150 N   0  0  0  0  0  0  0  0  0  0  0  0
  -26.0390  -38.3960   23.8530 H   0  0  0  0  0  0  0  0  0  0  0  0
  1  4  2  0
  2  3  2  0
  2  5  1  0
  3  1  1  0
  4 46  1  0
  5  4  1  0
  7 12  1  0
  8  9  1  0
  8  7  1  0
 10  9  1  0
 10 19  1  0
 10 11  1  0
 12  6  1  0
 12 11  1  0
 13  6  2  0
 14  6  1  0
 14  3  1  0
 15 14  1  0
 16 17  2  0
 17 36  1  0
 18 17  1  0
 18 21  1  0
 19 16  1  0
 19 20  1  0
 20 18  2  0
 21 22  1  0
 22 23  2  0
 24 27  1  0
 24 23  1  0
 25 24  2  0
 26 25  1  0
 26 21  2  0
 27 28  1  0
 28 29  1  0
 29 30  2  0
 31 30  1  0
 31 35  1  0
 32 31  2  0
 33 28  2  0
 33 32  1  0
 34 33  1  0
 36 37  1  0
 37 40  1  0
 37 39  1  0
 38 36  2  0
 41 42  1  0
 41 16  1  0
 43 41  1  0
 44 46  1  0
 46 45  1  0
 47  5  1  0
 47 49  1  0
 49 48  1  0
 50 49  1  0
 51 62  2  0
 52 50  1  0
 52 57  1  0
 53 61  1  0
 53 63  1  0
 54 60  1  0
 54 56  1  0
 55 61  1  0
 56 57  2  0
 56 55  1  0
 58 52  2  0
 59 58  1  0
 59 54  2  0
 60 53  1  0
 61 51  1  0
 63 65  2  0
 64 63  1  0
 66 64  1  0
 67 76  2  0
 67 72  1  0
 68 64  1  0
 68 72  1  0
 69 68  1  0
 70 71  1  0
 70 69  1  0
 71 67  1  0
 72 73  2  0
 73 74  1  0
 75 74  2  0
 76 75  1  0
 77 51  1  0
 77 82  1  0
 77 78  1  0
 78 81  1  1
 78 79  1  0
 80 78  1  0
 82 85  1  0
 83 87  1  0
 83 82  1  0
 84 83  2  0
 87 86  1  0
 89 87  1  0
 89 90  1  0
 89 88  1  0
M  ISO  4   6 100  14 100  49 101  50 101
M  END
>  <TORSDO>  (38) 
F 19

>  <SCORE>  (38) 
-15.296

>  <name>  (38) 
37

>  <ligand_id>  (38) 
37

>  <original_smiles>  (38) 
[H]c1c([H])c([H])c2c(c1[H])C([H])([H])C([H])([H])C([H])([H])C2([H])N([H])C(=O)C1([H])N(C(=O)C([H])(N([H])C(=O)C([H])(N([H])C([H])([H])[H])C([H])([H])[H])C(C([H])([H])[H])(C([H])([H])[H])C([H])([H])[H])C([H])([H])c2c([H])c(OC([H])(C([H])([H])[H])C([H])([H])n3c([H])c(N([H])C(=O)N4C([H])([H])C([H])([H])C([H])([H])C([H])(n5nc(-c6c([H])c([H])c(Oc7c([H])c([H])c(F)c([H])c7F)c([H])c6[H])c(C(=O)N([H])[H])c5N([H])[H])C4([H])[H])c([H])c3C([H])(C([H])([H])[H])C([H])([H])[H])c([H])c([H])c2C1([H])[H]

>  <smiles>  (38) 
[H]c1c([H])c([H])c2c(c1[H])C([H])([H])C([H])([H])C([H])([H])C2([H])N([H])C(=O)C1([H])N(C(=O)C([H])(N([H])C(=O)C([H])(N([H])C([H])([H])[H])C([H])([H])[H])C(C([H])([H])[H])(C([H])([H])[H])C([H])([H])[H])C([H])([H])c2c([H])c(OC([H])(C([H])([H])[H])C([H])([H])n3c([H])c(N([H])C(=O)N4C([H])([H])C([H])([H])C([H])([H])C([H])(n5nc(-c6c([H])c([H])c(Oc7c([H])c([H])c(F)c([H])c7F)c([H])c6[H])c(C(=O)N([H])[H])c5N([H])[H])C4([H])[H])c([H])c3C([H])(C([H])([H])[H])C([H])([H])[H])c([H])c([H])c2C1([H])[H]

$$$$
38:0:0
     RDKit          3D

 95103  0  0  1  0  0  0  0  0999 V2000
  -28.8930  -23.0080   18.4030 C   0  0  0  0  0  3  0  0  0  0  0  0
  -29.2560  -21.6610   18.6970 C   0  0  0  0  0  3  0  0  0  0  0  0
  -29.6010  -22.3090   20.9720 C   0  0  0  0  0  3  0  0  0  0  0  0
  -28.8630  -24.0600   19.3670 C   0  0  0  0  0  0  0  0  0  0  0  0
  -29.2060  -23.6650   20.7010 C   0  0  0  0  0  0  0  0  0  0  0  0
  -29.6450  -21.2710   20.0000 C   0  0  0  0  0  0  0  0  0  0  0  0
  -28.5770  -24.0210   23.1460 C   0  0  0  0  0  1  0  0  0  0  0  0
  -29.1850  -24.6510   21.8780 C   0  0  0  0  0  3  0  0  0  0  0  0
  -31.0650  -26.1010   21.1050 C   0  0  0  0  0  1  0  0  0  0  0  0
  -30.5320  -25.2020   22.1470 N   0  0  0  0  0  4  0  0  0  0  0  0
  -30.4930  -25.7230   23.0080 H   0  0  0  0  0  0  0  0  0  0  0  0
  -31.1840  -24.4460   22.2830 H   0  0  0  0  0  0  0  0  0  0  0  0
  -28.5000  -25.5050   18.8120 C   0  0  0  0  0  2  0  0  0  0  0  0
  -28.3870  -26.7260   19.6370 O   0  0  0  0  0  0  0  0  0  0  0  0
  -24.6040  -31.7760   23.1290 C   0  0  0  0  0  0  0  0  0  0  0  0
  -27.2200  -27.5110   19.6680 C   0  0  0  0  0  0  0  0  0  0  0  0
  -23.3730  -30.4500   21.4490 C   0  0  0  0  0  3  0  0  0  0  0  0
  -24.8040  -29.0390   19.8690 C   0  0  0  0  0  0  0  0  0  0  0  0
  -25.8910  -30.8580   21.1860 C   0  0  0  0  0  2  0  0  0  0  0  0
  -25.9820  -29.5270   20.4480 C   0  0  0  0  0  0  0  0  0  0  0  0
  -27.1880  -28.7720   20.3420 C   0  0  0  0  0  3  0  0  0  0  0  0
  -26.0050  -27.0630   19.0990 C   0  0  0  0  0  3  0  0  0  0  0  0
  -24.8170  -27.8120   19.1900 C   0  0  0  0  0  3  0  0  0  0  0  0
  -23.5460  -29.8710   20.0210 C   0  0  0  0  0  2  0  0  0  0  0  0
  -24.6430  -31.0410   21.9780 N   0  0  0  0  0  0  0  0  0  0  0  0
  -23.5360  -31.9860   23.7230 O   0  0  0  0  0  0  0  0  0  0  0  0
  -22.7780  -29.3540   22.3660 C   0  0  0  0  0  0  0  0  0  0  0  0
  -21.4610  -29.1130   22.2430 N   0  0  0  0  0  0  0  0  0  0  0  0
  -23.4990  -28.7270   23.1450 O   0  0  0  0  0  0  0  0  0  0  0  0
  -20.9350  -29.6770   21.5900 H   0  0  0  0  0  0  0  0  0  0  0  0
  -18.1680  -27.6820   22.6760 C   0  0  0  0  0  0  0  0  0  0  0  0
  -20.7020  -28.0990   22.9760 C   0  0  0  0  0  3  0  0  0  0  0  0
  -20.9010  -26.6970   22.3530 C   0  0  0  0  0  2  0  0  0  0  0  0
  -19.8290  -26.3370   21.3200 C   0  0  0  0  0  2  0  0  0  0  0  0
  -18.4360  -26.3710   21.9570 C   0  0  0  0  0  2  0  0  0  0  0  0
  -19.2310  -28.5000   23.1410 C   0  0  0  0  0  0  0  0  0  0  0  0
  -18.9260  -29.7260   23.7720 C   0  0  0  0  0  3  0  0  0  0  0  0
  -17.5900  -30.1340   23.9430 C   0  0  0  0  0  3  0  0  0  0  0  0
  -16.5410  -29.3130   23.4950 C   0  0  0  0  0  3  0  0  0  0  0  0
  -16.8300  -28.0870   22.8680 C   0  0  0  0  0  3  0  0  0  0  0  0
  -25.8930  -32.4040   23.7420 C   0  0  0  0  0  3  0  0  0  0  0  0
  -25.5720  -33.7820   24.1370 N   0  0  0  0  0  0  0  0  0  0  0  0
  -25.8900  -34.8720   23.4260 C   0  0  0  0  0  0  0  0  0  0  0  0
  -26.5560  -34.8220   22.3870 O   0  0  0  0  0  0  0  0  0  0  0  0
  -24.9810  -33.8950   24.9480 H   0  0  0  0  0  0  0  0  0  0  0  0
  -24.1500  -36.6680   23.1540 C   0  0  0  0  0  1  0  0  0  0  0  0
  -25.3930  -36.2330   23.9480 C   0  0  0  0  0  3  0  0  0  0  0  0
  -27.5140  -37.0980   24.8330 C   0  0  0  0  0  1  0  0  0  0  0  0
  -26.4180  -37.2980   23.8880 N   0  0  0  0  0  0  0  0  0  0  0  0
  -26.0040  -38.2080   24.0710 H   0  0  0  0  0  0  0  0  0  0  0  0
  -26.4550  -31.5910   24.9720 C   0  0  1  0  0  0  0  0  0  0  0  0
  -25.3940  -31.2930   26.0580 C   0  0  0  0  0  1  0  0  0  0  0  0
  -27.0470  -30.2380   24.5110 C   0  0  0  0  0  1  0  0  0  0  0  0
  -27.6110  -32.3760   25.6360 C   0  0  0  0  0  1  0  0  0  0  0  0
  -30.1330  -19.9970   20.3830 O   0  0  0  0  0  0  0  0  0  0  0  0
  -29.8420  -18.7310   19.6930 C   0  0  0  0  0  2  0  0  0  0  0  0
  -30.8600  -17.5350   20.0200 C   0  0  0  0  0  2  0  0  0  0  0  0
  -31.0090  -14.9700   20.0180 C   0  0  0  0  0  0  0  0  0  0  0  0
  -30.7070  -12.7340   18.9400 C   0  0  0  0  0  2  0  0  0  0  0  0
  -29.7040  -12.8310   17.7690 C   0  0  0  0  0  2  0  0  0  0  0  0
  -28.2490  -12.6860   18.2620 C   0  0  0  0  0  2  0  0  0  0  0  0
  -27.9590  -13.5510   19.5170 C   0  0  0  0  0  3  0  0  0  0  0  0
  -29.0670  -13.3570   20.5690 C   0  0  0  0  0  2  0  0  0  0  0  0
  -30.3360  -13.7650   19.9420 N   0  0  0  0  0  0  0  0  0  0  0  0
  -32.1400  -15.0490   19.5230 O   0  0  0  0  0  0  0  0  0  0  0  0
  -29.5750  -16.2270   21.6260 C   0  0  0  0  0  1  0  0  0  0  0  0
  -30.3450  -16.1470   20.3780 N   0  0  0  0  0  0  0  0  0  0  0  0
  -25.6290  -14.1850   20.3870 C   0  0  0  0  0  0  0  0  0  0  0  0
  -24.5630  -13.4270   20.7850 C   0  0  0  0  0  0  0  0  0  0  0  0
  -24.9830  -12.0660   20.6790 C   0  0  0  0  0  0  0  0  0  0  0  0
  -26.6330  -13.2860   20.0640 N   0  0  0  0  0  0  0  0  0  0  0  0
  -26.2530  -12.0030   20.2970 N   0  0  0  0  0  0  0  0  0  0  0  0
  -24.2320  -10.8170   20.8620 C   0  0  0  0  0  0  0  0  0  0  0  0
  -24.6330   -9.8450   21.8040 C   0  0  0  0  0  3  0  0  0  0  0  0
  -23.8830   -8.6610   21.9730 C   0  0  0  0  0  3  0  0  0  0  0  0
  -22.7170   -8.4430   21.2010 C   0  0  0  0  0  0  0  0  0  0  0  0
  -22.3370   -9.4040   20.2480 C   0  0  0  0  0  3  0  0  0  0  0  0
  -23.0880  -10.5790   20.0760 C   0  0  0  0  0  3  0  0  0  0  0  0
  -21.9410   -7.3120   21.2800 O   0  0  0  0  0  0  0  0  0  0  0  0
  -21.7700   -6.6370   22.4620 C   0  0  0  0  0  0  0  0  0  0  0  0
  -21.1970   -7.2520   23.5970 C   0  0  0  0  0  3  0  0  0  0  0  0
  -20.9780   -6.5010   24.7680 C   0  0  0  0  0  3  0  0  0  0  0  0
  -21.3210   -5.1360   24.8050 C   0  0  0  0  0  0  0  0  0  0  0  0
  -21.8870   -4.5210   23.6740 C   0  0  0  0  0  3  0  0  0  0  0  0
  -22.1090   -5.2690   22.5060 C   0  0  0  0  0  0  0  0  0  0  0  0
  -22.6360   -4.6670   21.4120 F   0  0  0  0  0  0  0  0  0  0  0  0
  -21.1050   -4.4120   25.9280 F   0  0  0  0  0  0  0  0  0  0  0  0
  -23.1980  -13.9310   21.1530 C   0  0  0  0  0  0  0  0  0  0  0  0
  -22.5040  -13.2280   22.0410 N   0  0  0  0  0  0  0  0  0  0  0  0
  -22.7580  -14.9820   20.6880 O   0  0  0  0  0  0  0  0  0  0  0  0
  -22.8750  -12.3760   22.4360 H   0  0  0  0  0  0  0  0  0  0  0  0
  -21.5900  -13.5440   22.3300 H   0  0  0  0  0  0  0  0  0  0  0  0
  -25.8210  -15.5570   20.2500 N   0  0  0  0  0  0  0  0  0  0  0  0
  -25.0750  -16.2230   20.4200 H   0  0  0  0  0  0  0  0  0  0  0  0
  -26.6660  -15.9880   19.8980 H   0  0  0  0  0  0  0  0  0  0  0  0
  1  2  2  0
  1  4  1  0
  2  6  1  0
  4  5  2  0
  5  3  1  0
  5  8  1  0
  6 55  1  0
  6  3  2  0
  8 10  1  0
  8  7  1  0
  9 10  1  0
 10 12  1  0
 10 11  1  0
 13  4  1  0
 13 14  1  0
 14 16  1  0
 15 26  2  0
 16 21  1  0
 17 25  1  0
 17 27  1  0
 18 24  1  0
 18 20  1  0
 19 25  1  0
 20 19  1  0
 21 20  2  0
 22 23  1  0
 22 16  2  0
 23 18  2  0
 24 17  1  0
 25 15  1  0
 27 29  2  0
 28 27  1  0
 30 28  1  0
 31 40  2  0
 31 36  1  0
 32 28  1  0
 32 36  1  0
 33 32  1  0
 34 35  1  0
 34 33  1  0
 35 31  1  0
 36 37  2  0
 37 38  1  0
 39 38  2  0
 40 39  1  0
 41 15  1  0
 41 42  1  0
 41 51  1  0
 42 45  1  0
 43 47  1  0
 43 42  1  0
 44 43  2  0
 47 46  1  0
 49 47  1  0
 49 50  1  0
 49 48  1  0
 51 54  1  1
 51 52  1  0
 53 51  1  0
 56 57  1  0
 56 55  1  0
 57 67  1  0
 58 67  1  0
 59 64  1  0
 60 61  1  0
 60 59  1  0
 62 61  1  0
 62 71  1  0
 62 63  1  0
 64 58  1  0
 64 63  1  0
 65 58  2  0
 67 66  1  0
 68 69  2  0
 69 88  1  0
 70 69  1  0
 70 73  1  0
 71 72  1  0
 71 68  1  0
 72 70  2  0
 73 74  1  0
 74 75  2  0
 76 79  1  0
 76 75  1  0
 77 76  2  0
 78 77  1  0
 78 73  2  0
 79 80  1  0
 80 85  2  0
 80 81  1  0
 81 82  2  0
 82 83  1  0
 83 87  1  0
 84 83  2  0
 85 84  1  0
 86 85  1  0
 88 89  1  0
 89 92  1  0
 89 91  1  0
 90 88  2  0
 93 68  1  0
 93 94  1  0
 95 93  1  0
M  ISO  4  13 101  14 101  58 100  67 100
M  END
>  <TORSDO>  (39) 
F 22

>  <SCORE>  (39) 
-12.059

>  <name>  (39) 
38

>  <ligand_id>  (39) 
38

>  <original_smiles>  (39) 
[H]c1c([H])c([H])c2c(c1[H])C([H])([H])C([H])([H])C([H])([H])C2([H])N([H])C(=O)C1([H])N(C(=O)C([H])(N([H])C(=O)C([H])(N([H])C([H])([H])[H])C([H])([H])[H])C(C([H])([H])[H])(C([H])([H])[H])C([H])([H])[H])C([H])([H])c2c([H])c(OC([H])([H])c3c([H])c([H])c(OC([H])([H])C([H])([H])N(C(=O)N4C([H])([H])C([H])([H])C([H])([H])C([H])(n5nc(-c6c([H])c([H])c(Oc7c([H])c([H])c(F)c([H])c7F)c([H])c6[H])c(C(=O)N([H])[H])c5N([H])[H])C4([H])[H])C([H])([H])[H])c([H])c3C([H])(C([H])([H])[H])[N+]([H])([H])C([H])([H])[H])c([H])c([H])c2C1([H])[H]

>  <smiles>  (39) 
[H]c1c([H])c([H])c2c(c1[H])C([H])([H])C([H])([H])C([H])([H])C2([H])N([H])C(=O)C1([H])N(C(=O)C([H])(N([H])C(=O)C([H])(N([H])C([H])([H])[H])C([H])([H])[H])C(C([H])([H])[H])(C([H])([H])[H])C([H])([H])[H])C([H])([H])c2c([H])c(OC([H])([H])c3c([H])c([H])c(OC([H])([H])C([H])([H])N(C(=O)N4C([H])([H])C([H])([H])C([H])([H])C([H])(n5nc(-c6c([H])c([H])c(Oc7c([H])c([H])c(F)c([H])c7F)c([H])c6[H])c(C(=O)N([H])[H])c5N([H])[H])C4([H])[H])C([H])([H])[H])c([H])c3C([H])(C([H])([H])[H])[N+]([H])([H])C([H])([H])[H])c([H])c([H])c2C1([H])[H]

$$$$
39:0:0
     RDKit          3D

 93101  0  0  1  0  0  0  0  0999 V2000
  -29.0730  -22.3640   19.8540 C   0  0  0  0  0  3  0  0  0  0  0  0
  -30.4600  -15.5500   19.8490 C   0  0  0  0  0  0  0  0  0  0  0  0
  -30.3820  -13.0840   18.9140 C   0  0  0  0  0  2  0  0  0  0  0  0
  -29.3960  -12.7350   17.7690 C   0  0  0  0  0  2  0  0  0  0  0  0
  -28.0040  -12.4080   18.3270 C   0  0  0  0  0  2  0  0  0  0  0  0
  -27.5990  -13.3800   19.4590 C   0  0  0  0  0  3  0  0  0  0  0  0
  -28.7160  -13.6360   20.4960 C   0  0  0  0  0  2  0  0  0  0  0  0
  -29.8380  -14.2420   19.7500 N   0  0  0  0  0  0  0  0  0  0  0  0
  -31.6750  -15.4110   19.6180 O   0  0  0  0  0  0  0  0  0  0  0  0
  -30.7530  -18.3070   19.9670 C   0  0  0  0  0  2  0  0  0  0  0  0
  -30.3530  -19.8620   20.5810 C   0  0  0  0  0  2  0  0  0  0  0  0
  -28.3150  -19.4570   19.6050 C   0  0  0  0  0  2  0  0  0  0  0  0
  -28.5460  -17.7880   20.0680 C   0  0  0  0  0  3  0  0  0  0  0  0
  -27.9520  -17.5840   21.4750 C   0  0  0  0  0  1  0  0  0  0  0  0
  -29.9040  -16.9910   19.9890 N   0  0  0  0  0  0  0  0  0  0  0  0
  -29.0410  -20.6740   20.2980 N   0  0  2  0  0  4  0  0  0  0  0  0
  -28.6040  -20.7130   21.2080 H   0  0  0  0  0  0  0  0  0  0  0  0
  -25.3140  -13.8970   20.4340 C   0  0  0  0  0  0  0  0  0  0  0  0
  -24.2780  -13.1070   20.8420 C   0  0  0  0  0  0  0  0  0  0  0  0
  -24.7360  -11.7590   20.7240 C   0  0  0  0  0  0  0  0  0  0  0  0
  -26.3280  -13.0320   20.0720 N   0  0  0  0  0  0  0  0  0  0  0  0
  -26.0020  -11.7350   20.3150 N   0  0  0  0  0  0  0  0  0  0  0  0
  -24.0200  -10.4900   20.9150 C   0  0  0  0  0  0  0  0  0  0  0  0
  -24.4600   -9.5260   21.8480 C   0  0  0  0  0  3  0  0  0  0  0  0
  -23.7390   -8.3250   22.0320 C   0  0  0  0  0  3  0  0  0  0  0  0
  -22.5630   -8.0810   21.2810 C   0  0  0  0  0  0  0  0  0  0  0  0
  -22.1420   -9.0360   20.3390 C   0  0  0  0  0  3  0  0  0  0  0  0
  -22.8640  -10.2260   20.1540 C   0  0  0  0  0  3  0  0  0  0  0  0
  -21.8130   -6.9340   21.3740 O   0  0  0  0  0  0  0  0  0  0  0  0
  -21.7050   -6.2370   22.5500 C   0  0  0  0  0  0  0  0  0  0  0  0
  -21.1920   -6.8330   23.7230 C   0  0  0  0  0  3  0  0  0  0  0  0
  -21.0320   -6.0620   24.8920 C   0  0  0  0  0  3  0  0  0  0  0  0
  -21.3750   -4.6960   24.8880 C   0  0  0  0  0  0  0  0  0  0  0  0
  -21.8840   -4.1010   23.7200 C   0  0  0  0  0  3  0  0  0  0  0  0
  -22.0440   -4.8690   22.5530 C   0  0  0  0  0  0  0  0  0  0  0  0
  -22.5140   -4.2850   21.4240 F   0  0  0  0  0  0  0  0  0  0  0  0
  -21.2140   -3.9540   26.0100 F   0  0  0  0  0  0  0  0  0  0  0  0
  -22.9080  -13.5770   21.2270 C   0  0  0  0  0  0  0  0  0  0  0  0
  -22.2350  -12.8510   22.1130 N   0  0  0  0  0  0  0  0  0  0  0  0
  -22.4450  -14.6230   20.7790 O   0  0  0  0  0  0  0  0  0  0  0  0
  -22.6240  -12.0020   22.4980 H   0  0  0  0  0  0  0  0  0  0  0  0
  -21.3200  -13.1540   22.4130 H   0  0  0  0  0  0  0  0  0  0  0  0
  -25.4760  -15.2740   20.3060 N   0  0  0  0  0  0  0  0  0  0  0  0
  -24.7400  -15.9330   20.5320 H   0  0  0  0  0  0  0  0  0  0  0  0
  -26.3360  -15.7160   20.0160 H   0  0  0  0  0  0  0  0  0  0  0  0
  -29.3570  -22.4030   18.3300 C   0  0  0  0  0  2  0  0  0  0  0  0
  -30.4140  -23.4350   17.8550 C   0  0  0  0  0  2  0  0  0  0  0  0
  -32.2660  -21.8730   17.2380 C   0  0  0  0  0  1  0  0  0  0  0  0
  -32.7670  -24.1650   17.9270 C   0  0  0  0  0  1  0  0  0  0  0  0
  -31.8330  -23.0240   18.0710 N   0  0  1  0  0  4  0  0  0  0  0  0
  -31.9340  -22.7310   19.0300 H   0  0  0  0  0  0  0  0  0  0  0  0
  -28.0850  -23.9320   20.2630 C   0  0  0  0  0  2  0  0  0  0  0  0
  -28.2610  -25.6520   20.1790 O   0  0  0  0  0  0  0  0  0  0  0  0
  -24.6500  -31.8120   23.0970 C   0  0  0  0  0  0  0  0  0  0  0  0
  -27.2500  -26.8050   20.1500 C   0  0  0  0  0  0  0  0  0  0  0  0
  -23.4840  -30.3880   21.4650 C   0  0  0  0  0  3  0  0  0  0  0  0
  -24.9550  -28.7590   20.0720 C   0  0  0  0  0  0  0  0  0  0  0  0
  -26.0570  -30.5830   21.3460 C   0  0  0  0  0  2  0  0  0  0  0  0
  -26.1430  -29.1530   20.6990 C   0  0  0  0  0  0  0  0  0  0  0  0
  -27.2810  -28.2040   20.7010 C   0  0  0  0  0  3  0  0  0  0  0  0
  -26.0270  -26.6020   19.4660 C   0  0  0  0  0  3  0  0  0  0  0  0
  -24.9310  -27.5100   19.4310 C   0  0  0  0  0  3  0  0  0  0  0  0
  -23.7350  -29.6890   20.0990 C   0  0  0  0  0  2  0  0  0  0  0  0
  -24.7530  -30.9570   22.0230 N   0  0  0  0  0  0  0  0  0  0  0  0
  -23.5530  -32.1000   23.6020 O   0  0  0  0  0  0  0  0  0  0  0  0
  -22.7810  -29.4030   22.4370 C   0  0  0  0  0  0  0  0  0  0  0  0
  -21.4520  -29.2250   22.3020 N   0  0  0  0  0  0  0  0  0  0  0  0
  -23.4400  -28.7970   23.2860 O   0  0  0  0  0  0  0  0  0  0  0  0
  -20.9680  -29.7710   21.6010 H   0  0  0  0  0  0  0  0  0  0  0  0
  -18.0840  -27.9520   22.7850 C   0  0  0  0  0  0  0  0  0  0  0  0
  -20.6350  -28.2830   23.0780 C   0  0  0  0  0  3  0  0  0  0  0  0
  -20.7750  -26.8410   22.5320 C   0  0  0  0  0  2  0  0  0  0  0  0
  -19.6950  -26.4780   21.5060 C   0  0  0  0  0  2  0  0  0  0  0  0
  -18.3030  -26.5990   22.1290 C   0  0  0  0  0  2  0  0  0  0  0  0
  -19.1790  -28.7490   23.2150 C   0  0  0  0  0  0  0  0  0  0  0  0
  -18.9190  -30.0120   23.7910 C   0  0  0  0  0  3  0  0  0  0  0  0
  -17.5990  -30.4770   23.9420 C   0  0  0  0  0  3  0  0  0  0  0  0
  -16.5200  -29.6790   23.5240 C   0  0  0  0  0  3  0  0  0  0  0  0
  -16.7640  -28.4180   22.9490 C   0  0  0  0  0  3  0  0  0  0  0  0
  -25.9060  -32.4790   23.7340 C   0  0  0  0  0  3  0  0  0  0  0  0
  -26.4200  -31.7240   25.0210 C   0  0  1  0  0  0  0  0  0  0  0  0
  -25.3200  -31.4740   26.0810 C   0  0  0  0  0  1  0  0  0  0  0  0
  -27.0310  -30.3520   24.6560 C   0  0  0  0  0  1  0  0  0  0  0  0
  -27.5490  -32.5430   25.6910 C   0  0  0  0  0  1  0  0  0  0  0  0
  -25.5600  -33.8710   24.0780 N   0  0  0  0  0  0  0  0  0  0  0  0
  -25.8840  -34.9480   23.3510 C   0  0  0  0  0  0  0  0  0  0  0  0
  -26.5680  -34.8750   22.3260 O   0  0  0  0  0  0  0  0  0  0  0  0
  -24.9480  -33.9980   24.8700 H   0  0  0  0  0  0  0  0  0  0  0  0
  -24.1450  -36.7440   23.0120 C   0  0  0  0  0  1  0  0  0  0  0  0
  -25.3760  -36.3230   23.8330 C   0  0  0  0  0  3  0  0  0  0  0  0
  -27.4800  -37.2170   24.7330 C   0  0  0  0  0  1  0  0  0  0  0  0
  -26.3980  -37.3910   23.7670 N   0  0  0  0  0  0  0  0  0  0  0  0
  -25.9760  -38.3000   23.9300 H   0  0  0  0  0  0  0  0  0  0  0  0
  1 46  1  0
  1 52  1  0
  1 16  1  0
  2 15  1  0
  3  8  1  0
  4  5  1  0
  4  3  1  0
  6  5  1  0
  6 21  1  0
  6  7  1  0
  8  2  1  0
  8  7  1  0
  9  2  2  0
 10 15  1  0
 10 11  1  0
 12 13  1  0
 12 16  1  0
 13 14  1  0
 15 13  1  0
 16 11  1  0
 16 17  1  1
 18 19  2  0
 19 38  1  0
 20 19  1  0
 20 23  1  0
 21 22  1  0
 21 18  1  0
 22 20  2  0
 23 24  1  0
 24 25  2  0
 26 29  1  0
 26 25  1  0
 27 26  2  0
 28 27  1  0
 28 23  2  0
 29 30  1  0
 30 35  2  0
 30 31  1  0
 31 32  2  0
 33 32  1  0
 33 37  1  0
 34 33  2  0
 35 34  1  0
 36 35  1  0
 38 39  1  0
 39 42  1  0
 39 41  1  0
 40 38  2  0
 43 18  1  0
 43 44  1  0
 45 43  1  0
 47 50  1  0
 47 46  1  0
 48 50  1  0
 49 50  1  0
 50 51  1  1
 53 52  1  0
 54 65  2  0
 55 53  1  0
 55 60  1  0
 56 64  1  0
 56 66  1  0
 57 63  1  0
 57 59  1  0
 58 64  1  0
 59 60  2  0
 59 58  1  0
 61 55  2  0
 62 61  1  0
 62 57  2  0
 63 56  1  0
 64 54  1  0
 66 68  2  0
 67 66  1  0
 69 67  1  0
 70 79  2  0
 70 75  1  0
 71 67  1  0
 71 75  1  0
 72 71  1  0
 73 74  1  0
 73 72  1  0
 74 70  1  0
 75 76  2  0
 76 77  1  0
 78 77  2  0
 79 78  1  0
 80 54  1  0
 80 85  1  0
 80 81  1  0
 81 84  1  1
 81 82  1  0
 83 81  1  0
 85 88  1  0
 86 90  1  0
 86 85  1  0
 87 86  2  0
 90 89  1  0
 92 90  1  0
 92 93  1  0
 92 91  1  0
M  ISO  4   2 100  15 100  52 101  53 101
M  END
>  <TORSDO>  (40) 
F 20

>  <SCORE>  (40) 
-13.434

>  <name>  (40) 
39

>  <ligand_id>  (40) 
39

>  <original_smiles>  (40) 
[H]c1c([H])c([H])c2c(c1[H])C([H])([H])C([H])([H])C([H])([H])C2([H])N([H])C(=O)C1([H])N(C(=O)C([H])(N([H])C(=O)C([H])(N([H])C([H])([H])[H])C([H])([H])[H])C(C([H])([H])[H])(C([H])([H])[H])C([H])([H])[H])C([H])([H])c2c([H])c(OC([H])([H])C([H])(C([H])([H])C([H])([H])[N+]([H])(C([H])([H])[H])C([H])([H])[H])[N+]3([H])C([H])([H])C([H])([H])N(C(=O)N4C([H])([H])C([H])([H])C([H])([H])C([H])(n5nc(-c6c([H])c([H])c(Oc7c([H])c([H])c(F)c([H])c7F)c([H])c6[H])c(C(=O)N([H])[H])c5N([H])[H])C4([H])[H])C([H])(C([H])([H])[H])C3([H])[H])c([H])c([H])c2C1([H])[H]

>  <smiles>  (40) 
[H]c1c([H])c([H])c2c(c1[H])C([H])([H])C([H])([H])C([H])([H])C2([H])N([H])C(=O)C1([H])N(C(=O)C([H])(N([H])C(=O)C([H])(N([H])C([H])([H])[H])C([H])([H])[H])C(C([H])([H])[H])(C([H])([H])[H])C([H])([H])[H])C([H])([H])c2c([H])c(OC([H])([H])C([H])(C([H])([H])C([H])([H])[N+]([H])(C([H])([H])[H])C([H])([H])[H])[N+]3([H])C([H])([H])C([H])([H])N(C(=O)N4C([H])([H])C([H])([H])C([H])([H])C([H])(n5nc(-c6c([H])c([H])c(Oc7c([H])c([H])c(F)c([H])c7F)c([H])c6[H])c(C(=O)N([H])[H])c5N([H])[H])C4([H])[H])C([H])(C([H])([H])[H])C3([H])[H])c([H])c([H])c2C1([H])[H]

$$$$
40:0:0
     RDKit          3D

 93101  0  0  1  0  0  0  0  0999 V2000
  -29.9270  -23.0100   19.2040 C   0  0  0  0  0  3  0  0  0  0  0  0
  -30.1600  -21.6380   19.1030 C   0  0  0  0  0  3  0  0  0  0  0  0
  -28.8390  -23.3220   20.0920 C   0  0  0  0  0  0  0  0  0  0  0  0
  -28.5160  -21.9840   20.5060 C   0  0  0  0  0  0  0  0  0  0  0  0
  -27.4530  -21.6340   21.5060 C   0  0  0  0  0  1  0  0  0  0  0  0
  -29.2900  -20.8920   19.8970 N   0  0  0  0  0  0  0  0  0  0  0  0
  -28.2620  -25.0260   22.0170 C   0  0  0  0  0  1  0  0  0  0  0  0
  -28.1210  -24.8100   20.5010 C   0  0  0  0  0  3  0  0  0  0  0  0
  -28.3660  -26.2710   19.9540 O   0  0  0  0  0  0  0  0  0  0  0  0
  -24.5290  -31.7900   23.1470 C   0  0  0  0  0  0  0  0  0  0  0  0
  -27.2960  -27.2590   19.9650 C   0  0  0  0  0  0  0  0  0  0  0  0
  -23.3860  -30.3950   21.4680 C   0  0  0  0  0  3  0  0  0  0  0  0
  -24.8990  -28.9290   19.9900 C   0  0  0  0  0  0  0  0  0  0  0  0
  -25.9290  -30.7710   21.3060 C   0  0  0  0  0  2  0  0  0  0  0  0
  -26.0640  -29.4010   20.6100 C   0  0  0  0  0  0  0  0  0  0  0  0
  -27.2640  -28.5840   20.5780 C   0  0  0  0  0  3  0  0  0  0  0  0
  -26.1020  -26.9080   19.3010 C   0  0  0  0  0  3  0  0  0  0  0  0
  -24.9330  -27.6990   19.3170 C   0  0  0  0  0  3  0  0  0  0  0  0
  -23.6350  -29.7740   20.0680 C   0  0  0  0  0  2  0  0  0  0  0  0
  -24.6350  -31.0060   22.0300 N   0  0  0  0  0  0  0  0  0  0  0  0
  -23.4320  -32.0080   23.6860 O   0  0  0  0  0  0  0  0  0  0  0  0
  -22.7540  -29.3290   22.4000 C   0  0  0  0  0  0  0  0  0  0  0  0
  -21.4390  -29.0870   22.2540 N   0  0  0  0  0  0  0  0  0  0  0  0
  -23.4500  -28.7250   23.2190 O   0  0  0  0  0  0  0  0  0  0  0  0
  -20.9280  -29.6300   21.5720 H   0  0  0  0  0  0  0  0  0  0  0  0
  -18.1300  -27.6720   22.6880 C   0  0  0  0  0  0  0  0  0  0  0  0
  -20.6650  -28.0860   22.9960 C   0  0  0  0  0  3  0  0  0  0  0  0
  -20.8610  -26.6750   22.3980 C   0  0  0  0  0  2  0  0  0  0  0  0
  -19.7950  -26.3050   21.3610 C   0  0  0  0  0  2  0  0  0  0  0  0
  -18.3980  -26.3510   21.9880 C   0  0  0  0  0  2  0  0  0  0  0  0
  -19.1930  -28.4940   23.1480 C   0  0  0  0  0  0  0  0  0  0  0  0
  -18.8870  -29.7260   23.7650 C   0  0  0  0  0  3  0  0  0  0  0  0
  -17.5510  -30.1390   23.9270 C   0  0  0  0  0  3  0  0  0  0  0  0
  -16.5030  -29.3170   23.4810 C   0  0  0  0  0  3  0  0  0  0  0  0
  -16.7930  -28.0840   22.8680 C   0  0  0  0  0  3  0  0  0  0  0  0
  -25.7780  -32.4640   23.7910 C   0  0  0  0  0  3  0  0  0  0  0  0
  -26.3040  -31.6970   25.0660 C   0  0  1  0  0  0  0  0  0  0  0  0
  -25.2060  -31.4120   26.1190 C   0  0  0  0  0  1  0  0  0  0  0  0
  -26.9390  -30.3440   24.6750 C   0  0  0  0  0  1  0  0  0  0  0  0
  -27.4190  -32.5230   25.7510 C   0  0  0  0  0  1  0  0  0  0  0  0
  -25.4140  -33.8470   24.1380 N   0  0  0  0  0  0  0  0  0  0  0  0
  -25.7000  -34.9230   23.3930 C   0  0  0  0  0  0  0  0  0  0  0  0
  -26.3650  -34.8590   22.3560 O   0  0  0  0  0  0  0  0  0  0  0  0
  -24.8210  -33.9680   24.9460 H   0  0  0  0  0  0  0  0  0  0  0  0
  -23.9070  -36.6610   23.0790 C   0  0  0  0  0  1  0  0  0  0  0  0
  -25.1680  -36.2890   23.8740 C   0  0  0  0  0  3  0  0  0  0  0  0
  -27.2690  -37.2460   24.7140 C   0  0  0  0  0  1  0  0  0  0  0  0
  -26.1610  -37.3800   23.7710 N   0  0  0  0  0  0  0  0  0  0  0  0
  -25.7210  -38.2830   23.9280 H   0  0  0  0  0  0  0  0  0  0  0  0
  -29.1060  -19.2770   19.9300 C   0  0  0  0  0  3  0  0  0  0  0  0
  -26.8170  -18.9130   18.9450 C   0  0  0  0  0  1  0  0  0  0  0  0
  -28.2780  -18.9930   18.7390 N   0  0  0  0  0  4  0  0  0  0  0  0
  -28.4740  -19.6950   18.0440 H   0  0  0  0  0  0  0  0  0  0  0  0
  -28.5920  -18.1150   18.3660 H   0  0  0  0  0  0  0  0  0  0  0  0
  -30.2800  -18.0330   19.9930 C   0  0  0  0  0  2  0  0  0  0  0  0
  -30.7320  -15.2590   19.9300 C   0  0  0  0  0  0  0  0  0  0  0  0
  -30.5790  -12.8850   19.0260 C   0  0  0  0  0  2  0  0  0  0  0  0
  -29.5830  -12.8120   17.8460 C   0  0  0  0  0  2  0  0  0  0  0  0
  -28.1490  -12.5880   18.3600 C   0  0  0  0  0  2  0  0  0  0  0  0
  -27.7960  -13.5190   19.5480 C   0  0  0  0  0  3  0  0  0  0  0  0
  -28.9120  -13.5630   20.6150 C   0  0  0  0  0  2  0  0  0  0  0  0
  -30.1390  -13.9910   19.9300 N   0  0  0  0  0  0  0  0  0  0  0  0
  -31.9160  -15.3110   19.5790 O   0  0  0  0  0  0  0  0  0  0  0  0
  -29.9680  -16.4600   20.1230 N   0  0  0  0  0  0  0  0  0  0  0  0
  -29.0300  -16.2580   20.4320 H   0  0  0  0  0  0  0  0  0  0  0  0
  -25.4840  -14.0980   20.4660 C   0  0  0  0  0  0  0  0  0  0  0  0
  -24.4350  -13.3240   20.8810 C   0  0  0  0  0  0  0  0  0  0  0  0
  -24.8760  -11.9700   20.7700 C   0  0  0  0  0  0  0  0  0  0  0  0
  -26.4940  -13.2150   20.1240 N   0  0  0  0  0  0  0  0  0  0  0  0
  -26.1430  -11.9270   20.3750 N   0  0  0  0  0  0  0  0  0  0  0  0
  -24.1440  -10.7110   20.9640 C   0  0  0  0  0  0  0  0  0  0  0  0
  -24.5760   -9.7390   21.8930 C   0  0  0  0  0  3  0  0  0  0  0  0
  -23.8420   -8.5470   22.0770 C   0  0  0  0  0  3  0  0  0  0  0  0
  -22.6630   -8.3180   21.3290 C   0  0  0  0  0  0  0  0  0  0  0  0
  -22.2490   -9.2790   20.3890 C   0  0  0  0  0  3  0  0  0  0  0  0
  -22.9830  -10.4610   20.2040 C   0  0  0  0  0  3  0  0  0  0  0  0
  -21.9000   -7.1790   21.4220 O   0  0  0  0  0  0  0  0  0  0  0  0
  -21.8050   -6.4690   22.5910 C   0  0  0  0  0  0  0  0  0  0  0  0
  -21.2720   -7.0400   23.7680 C   0  0  0  0  0  3  0  0  0  0  0  0
  -21.1300   -6.2550   24.9290 C   0  0  0  0  0  3  0  0  0  0  0  0
  -21.5090   -4.8990   24.9140 C   0  0  0  0  0  0  0  0  0  0  0  0
  -22.0340   -4.3280   23.7430 C   0  0  0  0  0  3  0  0  0  0  0  0
  -22.1790   -5.1110   22.5840 C   0  0  0  0  0  0  0  0  0  0  0  0
  -22.6670   -4.5500   21.4500 F   0  0  0  0  0  0  0  0  0  0  0  0
  -21.3650   -4.1430   26.0270 F   0  0  0  0  0  0  0  0  0  0  0  0
  -23.0650  -13.8110   21.2530 C   0  0  0  0  0  0  0  0  0  0  0  0
  -22.3890  -13.1070   22.1520 N   0  0  0  0  0  0  0  0  0  0  0  0
  -22.6080  -14.8510   20.7780 O   0  0  0  0  0  0  0  0  0  0  0  0
  -22.7770  -12.2660   22.5540 H   0  0  0  0  0  0  0  0  0  0  0  0
  -21.4710  -13.4110   22.4450 H   0  0  0  0  0  0  0  0  0  0  0  0
  -25.6550  -15.4710   20.3280 N   0  0  0  0  0  0  0  0  0  0  0  0
  -24.8950  -16.1190   20.5030 H   0  0  0  0  0  0  0  0  0  0  0  0
  -26.4560  -15.8950   19.8860 H   0  0  0  0  0  0  0  0  0  0  0  0
  1  3  1  0
  2  1  2  0
  2  6  1  0
  3  8  1  0
  3  4  2  0
  4  5  1  0
  6 50  1  0
  6  4  1  0
  8  7  1  0
  9 11  1  0
  9  8  1  0
 10 21  2  0
 11 16  1  0
 12 20  1  0
 12 22  1  0
 13 19  1  0
 13 15  1  0
 14 20  1  0
 15 14  1  0
 16 15  2  0
 17 18  1  0
 17 11  2  0
 18 13  2  0
 19 12  1  0
 20 10  1  0
 22 24  2  0
 23 22  1  0
 25 23  1  0
 26 35  2  0
 26 31  1  0
 27 23  1  0
 27 31  1  0
 28 27  1  0
 29 30  1  0
 29 28  1  0
 30 26  1  0
 31 32  2  0
 32 33  1  0
 34 33  2  0
 35 34  1  0
 36 10  1  0
 36 41  1  0
 36 37  1  0
 37 40  1  1
 37 38  1  0
 39 37  1  0
 41 44  1  0
 42 46  1  0
 42 41  1  0
 43 42  2  0
 46 45  1  0
 48 46  1  0
 48 49  1  0
 48 47  1  0
 50 55  1  0
 52 51  1  0
 52 50  1  0
 53 52  1  0
 54 52  1  0
 55 64  1  0
 56 64  1  0
 57 62  1  0
 58 59  1  0
 58 57  1  0
 60 59  1  0
 60 69  1  0
 60 61  1  0
 62 56  1  0
 62 61  1  0
 63 56  2  0
 64 65  1  0
 66 67  2  0
 67 86  1  0
 68 67  1  0
 68 71  1  0
 69 70  1  0
 69 66  1  0
 70 68  2  0
 71 72  1  0
 72 73  2  0
 74 77  1  0
 74 73  1  0
 75 74  2  0
 76 75  1  0
 76 71  2  0
 77 78  1  0
 78 79  1  0
 79 80  2  0
 81 80  1  0
 81 85  1  0
 82 81  2  0
 83 78  2  0
 83 82  1  0
 84 83  1  0
 86 87  1  0
 87 90  1  0
 87 89  1  0
 88 86  2  0
 91 66  1  0
 91 92  1  0
 93 91  1  0
M  ISO  4   8 101   9 101  56 100  64 100
M  END
>  <TORSDO>  (41) 
F 20

>  <SCORE>  (41) 
-13.796

>  <name>  (41) 
40

>  <ligand_id>  (41) 
40

>  <original_smiles>  (41) 
[H]c1c([H])c([H])c2c(c1[H])C([H])([H])C([H])([H])C([H])([H])C2([H])N([H])C(=O)C1([H])N(C(=O)C([H])(N([H])C(=O)C([H])(N([H])C([H])([H])[H])C([H])([H])[H])C(C([H])([H])[H])(C([H])([H])[H])C([H])([H])[H])C([H])([H])c2c([H])c(OC([H])(c3c([H])c([H])n(C([H])(C([H])([H])N([H])C(=O)N4C([H])([H])C([H])([H])C([H])([H])C([H])(n5nc(-c6c([H])c([H])c(Oc7c([H])c([H])c(F)c([H])c7F)c([H])c6[H])c(C(=O)N([H])[H])c5N([H])[H])C4([H])[H])[N+]([H])([H])C([H])([H])[H])c3C([H])([H])[H])C([H])([H])[H])c([H])c([H])c2C1([H])[H]

>  <smiles>  (41) 
[H]c1c([H])c([H])c2c(c1[H])C([H])([H])C([H])([H])C([H])([H])C2([H])N([H])C(=O)C1([H])N(C(=O)C([H])(N([H])C(=O)C([H])(N([H])C([H])([H])[H])C([H])([H])[H])C(C([H])([H])[H])(C([H])([H])[H])C([H])([H])[H])C([H])([H])c2c([H])c(OC([H])(c3c([H])c([H])n(C([H])(C([H])([H])N([H])C(=O)N4C([H])([H])C([H])([H])C([H])([H])C([H])(n5nc(-c6c([H])c([H])c(Oc7c([H])c([H])c(F)c([H])c7F)c([H])c6[H])c(C(=O)N([H])[H])c5N([H])[H])C4([H])[H])[N+]([H])([H])C([H])([H])[H])c3C([H])([H])[H])C([H])([H])[H])c([H])c([H])c2C1([H])[H]

$$$$
41:0:0
     RDKit          3D

 96104  0  0  1  0  0  0  0  0999 V2000
  -31.8300  -16.1100   20.9240 C   0  0  0  0  0  0  0  0  0  0  0  0
  -31.7670  -13.7300   19.8050 C   0  0  0  0  0  2  0  0  0  0  0  0
  -30.9310  -13.6390   18.4950 C   0  0  0  0  0  2  0  0  0  0  0  0
  -29.4470  -13.3940   18.8050 C   0  0  0  0  0  2  0  0  0  0  0  0
  -28.9700  -14.2610   19.9920 C   0  0  0  0  0  3  0  0  0  0  0  0
  -29.9400  -14.2570   21.1990 C   0  0  0  0  0  2  0  0  0  0  0  0
  -31.2210  -14.8130   20.7190 N   0  0  0  0  0  0  0  0  0  0  0  0
  -33.0480  -16.0630   20.7020 O   0  0  0  0  0  0  0  0  0  0  0  0
  -30.7590  -21.5930   21.2750 C   0  0  0  0  0  0  0  0  0  0  0  0
  -29.5420  -20.9650   20.9910 C   0  0  0  0  0  0  0  0  0  0  0  0
  -30.9210  -19.0410   21.1280 C   0  0  0  0  0  0  0  0  0  0  0  0
  -31.5970  -20.2940   21.3780 N   0  0  0  0  0  0  0  0  0  0  0  0
  -29.6790  -19.5280   20.7820 N   0  0  0  0  0  0  0  0  0  0  0  0
  -31.1000  -17.3840   21.2880 N   0  0  0  0  0  0  0  0  0  0  0  0
  -30.2220  -17.0490   21.6500 H   0  0  0  0  0  0  0  0  0  0  0  0
  -26.5350  -14.9010   20.3840 C   0  0  0  0  0  0  0  0  0  0  0  0
  -25.4120  -14.1750   20.6460 C   0  0  0  0  0  0  0  0  0  0  0  0
  -25.8360  -12.8170   20.7050 C   0  0  0  0  0  0  0  0  0  0  0  0
  -27.5790  -14.0000   20.3310 N   0  0  0  0  0  0  0  0  0  0  0  0
  -27.1580  -12.7330   20.5710 N   0  0  0  0  0  0  0  0  0  0  0  0
  -25.0460  -11.5870   20.8230 C   0  0  0  0  0  0  0  0  0  0  0  0
  -25.3410  -10.6130   21.8010 C   0  0  0  0  0  3  0  0  0  0  0  0
  -24.5500   -9.4490   21.9080 C   0  0  0  0  0  3  0  0  0  0  0  0
  -23.4510   -9.2560   21.0400 C   0  0  0  0  0  0  0  0  0  0  0  0
  -23.1750  -10.2190   20.0550 C   0  0  0  0  0  3  0  0  0  0  0  0
  -23.9650  -11.3740   19.9440 C   0  0  0  0  0  3  0  0  0  0  0  0
  -22.6380   -8.1480   21.0590 O   0  0  0  0  0  0  0  0  0  0  0  0
  -22.3790   -7.4700   22.2230 C   0  0  0  0  0  0  0  0  0  0  0  0
  -21.7800   -8.1000   23.3350 C   0  0  0  0  0  3  0  0  0  0  0  0
  -21.4660   -7.3510   24.4850 C   0  0  0  0  0  3  0  0  0  0  0  0
  -21.7380   -5.9710   24.5230 C   0  0  0  0  0  0  0  0  0  0  0  0
  -22.3320   -5.3400   23.4160 C   0  0  0  0  0  3  0  0  0  0  0  0
  -22.6470   -6.0860   22.2690 C   0  0  0  0  0  0  0  0  0  0  0  0
  -23.1990   -5.4690   21.1970 F   0  0  0  0  0  0  0  0  0  0  0  0
  -21.4270   -5.2490   25.6260 F   0  0  0  0  0  0  0  0  0  0  0  0
  -24.0200  -14.7220   20.7410 C   0  0  0  0  0  0  0  0  0  0  0  0
  -23.1970  -14.1570   21.6190 N   0  0  0  0  0  0  0  0  0  0  0  0
  -23.6730  -15.6970   20.0790 O   0  0  0  0  0  0  0  0  0  0  0  0
  -23.4750  -13.3700   22.1800 H   0  0  0  0  0  0  0  0  0  0  0  0
  -22.2630  -14.5260   21.7240 H   0  0  0  0  0  0  0  0  0  0  0  0
  -26.7360  -16.2520   20.1670 N   0  0  0  0  0  0  0  0  0  0  0  0
  -25.8450  -16.7150   20.3200 H   0  0  0  0  0  0  0  0  0  0  0  0
  -27.3840  -16.5820   20.8710 H   0  0  0  0  0  0  0  0  0  0  0  0
  -27.5370  -21.8220   19.5880 C   0  0  0  0  0  1  0  0  0  0  0  0
  -28.2060  -22.9220   21.8160 C   0  0  0  0  0  1  0  0  0  0  0  0
  -28.1760  -21.6300   20.9790 C   0  0  0  0  0  3  0  0  0  0  0  0
  -31.8330  -23.6340   19.9770 C   0  0  0  0  0  1  0  0  0  0  0  0
  -31.1260  -23.3580   21.3240 C   0  0  0  0  0  3  0  0  0  0  0  0
  -30.1710  -24.9200   21.6170 C   0  0  0  0  0  2  0  0  0  0  0  0
  -30.0710  -26.4590   20.9460 O   0  0  0  0  0  0  0  0  0  0  0  0
  -25.3210  -31.8350   23.5300 C   0  0  0  0  0  0  0  0  0  0  0  0
  -28.8950  -27.3960   20.8130 C   0  0  0  0  0  0  0  0  0  0  0  0
  -24.5350  -30.3080   21.7660 C   0  0  0  0  0  3  0  0  0  0  0  0
  -26.3540  -28.9430   20.5190 C   0  0  0  0  0  0  0  0  0  0  0  0
  -27.0480  -30.8800   21.9110 C   0  0  0  0  0  2  0  0  0  0  0  0
  -27.3990  -29.5010   21.2650 C   0  0  0  0  0  0  0  0  0  0  0  0
  -28.6620  -28.7500   21.3790 C   0  0  0  0  0  3  0  0  0  0  0  0
  -27.7990  -26.9950   20.0100 C   0  0  0  0  0  3  0  0  0  0  0  0
  -26.5790  -27.7150   19.8710 C   0  0  0  0  0  3  0  0  0  0  0  0
  -25.0180  -29.6860   20.4280 C   0  0  0  0  0  2  0  0  0  0  0  0
  -25.6460  -31.0400   22.4560 N   0  0  0  0  0  0  0  0  0  0  0  0
  -24.1490  -31.9530   23.9230 O   0  0  0  0  0  0  0  0  0  0  0  0
  -23.8850  -29.2080   22.6490 C   0  0  0  0  0  0  0  0  0  0  0  0
  -22.7050  -28.6970   22.2460 N   0  0  0  0  0  0  0  0  0  0  0  0
  -24.4600  -28.8150   23.6670 O   0  0  0  0  0  0  0  0  0  0  0  0
  -22.2780  -29.0910   21.4200 H   0  0  0  0  0  0  0  0  0  0  0  0
  -19.6240  -26.7730   22.1950 C   0  0  0  0  0  0  0  0  0  0  0  0
  -21.9730  -27.6040   22.8990 C   0  0  0  0  0  3  0  0  0  0  0  0
  -22.4870  -26.2250   22.4260 C   0  0  0  0  0  2  0  0  0  0  0  0
  -21.6860  -25.6520   21.2520 C   0  0  0  0  0  2  0  0  0  0  0  0
  -20.2110  -25.4930   21.6260 C   0  0  0  0  0  2  0  0  0  0  0  0
  -20.4510  -27.7710   22.7780 C   0  0  0  0  0  0  0  0  0  0  0  0
  -19.8530  -28.9520   23.2670 C   0  0  0  0  0  3  0  0  0  0  0  0
  -18.4600  -29.1450   23.1780 C   0  0  0  0  0  3  0  0  0  0  0  0
  -17.6460  -28.1510   22.6080 C   0  0  0  0  0  3  0  0  0  0  0  0
  -18.2290  -26.9650   22.1260 C   0  0  0  0  0  3  0  0  0  0  0  0
  -26.4020  -32.6430   24.3090 C   0  0  0  0  0  3  0  0  0  0  0  0
  -25.8210  -33.9460   24.6820 N   0  0  0  0  0  0  0  0  0  0  0  0
  -25.9040  -35.0640   23.9480 C   0  0  0  0  0  0  0  0  0  0  0  0
  -26.5380  -35.1180   22.8920 O   0  0  0  0  0  0  0  0  0  0  0  0
  -25.2480  -33.9590   25.5130 H   0  0  0  0  0  0  0  0  0  0  0  0
  -23.8090  -36.4470   23.7630 C   0  0  0  0  0  1  0  0  0  0  0  0
  -25.1720  -36.3210   24.4640 C   0  0  0  0  0  3  0  0  0  0  0  0
  -27.1240  -37.6570   25.1290 C   0  0  0  0  0  1  0  0  0  0  0  0
  -25.9430  -37.5710   24.2760 N   0  0  0  0  0  0  0  0  0  0  0  0
  -25.3610  -38.3850   24.4560 H   0  0  0  0  0  0  0  0  0  0  0  0
  -26.9250  -31.8960   25.5980 C   0  0  1  0  0  0  0  0  0  0  0  0
  -25.7990  -31.3250   26.4940 C   0  0  0  0  0  1  0  0  0  0  0  0
  -27.8580  -30.7240   25.2160 C   0  0  0  0  0  1  0  0  0  0  0  0
  -27.7750  -32.8650   26.4550 C   0  0  0  0  0  1  0  0  0  0  0  0
  -28.6080  -18.6770   20.2680 C   0  0  0  0  0  2  0  0  0  0  0  0
  -28.3420  -18.9070   18.7530 C   0  0  0  0  0  2  0  0  0  0  0  0
  -27.2970  -17.9180   16.7010 C   0  0  0  0  0  1  0  0  0  0  0  0
  -29.0180  -16.7050   17.8860 C   0  0  0  0  0  1  0  0  0  0  0  0
  -27.9130  -17.6750   18.0280 N   0  0  1  0  0  4  0  0  0  0  0  0
  -27.1920  -17.2340   18.5970 H   0  0  0  0  0  0  0  0  0  0  0  0
  1 14  1  0
  2  7  1  0
  3  4  1  0
  3  2  1  0
  5  4  1  0
  5 19  1  0
  5  6  1  0
  7  1  1  0
  7  6  1  0
  8  1  2  0
  9 48  1  0
  9 12  1  0
 10  9  2  0
 11 14  1  0
 11 12  2  0
 13 10  1  0
 13 11  1  0
 14 15  1  0
 16 17  2  0
 17 18  1  0
 17 36  1  0
 18 21  1  0
 19 16  1  0
 19 20  1  0
 20 18  2  0
 21 22  1  0
 22 23  2  0
 24 27  1  0
 24 23  1  0
 25 24  2  0
 26 25  1  0
 26 21  2  0
 27 28  1  0
 28 33  2  0
 28 29  1  0
 29 30  2  0
 30 31  1  0
 31 35  1  0
 32 31  2  0
 33 32  1  0
 34 33  1  0
 36 37  1  0
 37 40  1  0
 37 39  1  0
 38 36  2  0
 41 42  1  0
 41 16  1  0
 41 43  1  0
 44 46  1  0
 46 10  1  0
 46 45  1  0
 48 47  1  0
 48 49  1  0
 50 49  1  0
 51 62  2  0
 52 50  1  0
 52 57  1  0
 53 61  1  0
 53 63  1  0
 54 56  1  0
 55 61  1  0
 56 57  2  0
 56 55  1  0
 58 52  2  0
 59 58  1  0
 59 54  2  0
 60 54  1  0
 60 53  1  0
 61 51  1  0
 63 65  2  0
 64 63  1  0
 66 64  1  0
 67 72  1  0
 68 64  1  0
 69 68  1  0
 70 71  1  0
 70 69  1  0
 71 67  1  0
 72 68  1  0
 72 73  2  0
 74 73  1  0
 75 74  2  0
 76 67  2  0
 76 75  1  0
 77 51  1  0
 77 78  1  0
 77 87  1  0
 78 81  1  0
 79 83  1  0
 79 78  1  0
 80 79  2  0
 83 82  1  0
 85 86  1  0
 85 83  1  0
 85 84  1  0
 87 90  1  1
 87 88  1  0
 89 87  1  0
 91 13  1  0
 92 91  1  0
 93 95  1  0
 94 95  1  0
 95 96  1  1
 95 92  1  0
M  ISO  4   1 100  14 100  49 101  50 101
M  END
>  <TORSDO>  (42) 
F 21

>  <SCORE>  (42) 
-7.542

>  <name>  (42) 
41

>  <ligand_id>  (42) 
41

>  <original_smiles>  (42) 
[H]c1c([H])c([H])c2c(c1[H])C([H])([H])C([H])([H])C([H])([H])C2([H])N([H])C(=O)C1([H])N(C(=O)C([H])(N([H])C(=O)C([H])(N([H])C([H])([H])[H])C([H])([H])[H])C(C([H])([H])[H])(C([H])([H])[H])C([H])([H])[H])C([H])([H])c2c([H])c(OC([H])([H])C([H])(c3nc(N([H])C(=O)N4C([H])([H])C([H])([H])C([H])([H])C([H])(n5nc(-c6c([H])c([H])c(Oc7c([H])c([H])c(F)c([H])c7F)c([H])c6[H])c(C(=O)N([H])[H])c5N([H])[H])C4([H])[H])n(C([H])([H])C([H])([H])[N+]([H])(C([H])([H])[H])C([H])([H])[H])c3C([H])(C([H])([H])[H])C([H])([H])[H])C([H])([H])[H])c([H])c([H])c2C1([H])[H]

>  <smiles>  (42) 
[H]c1c([H])c([H])c2c(c1[H])C([H])([H])C([H])([H])C([H])([H])C2([H])N([H])C(=O)C1([H])N(C(=O)C([H])(N([H])C(=O)C([H])(N([H])C([H])([H])[H])C([H])([H])[H])C(C([H])([H])[H])(C([H])([H])[H])C([H])([H])[H])C([H])([H])c2c([H])c(OC([H])([H])C([H])(c3nc(N([H])C(=O)N4C([H])([H])C([H])([H])C([H])([H])C([H])(n5nc(-c6c([H])c([H])c(Oc7c([H])c([H])c(F)c([H])c7F)c([H])c6[H])c(C(=O)N([H])[H])c5N([H])[H])C4([H])[H])n(C([H])([H])C([H])([H])[N+]([H])(C([H])([H])[H])C([H])([H])[H])c3C([H])(C([H])([H])[H])C([H])([H])[H])C([H])([H])[H])c([H])c([H])c2C1([H])[H]

$$$$
42:0:0
     RDKit          3D

 98106  0  0  1  0  0  0  0  0999 V2000
  -29.5090  -23.0110   23.1950 C   0  0  0  0  0  2  0  0  0  0  0  0
  -28.1850  -22.5950   22.6830 N   0  0  0  0  0  4  0  0  0  0  0  0
  -27.6280  -22.3480   23.4860 H   0  0  0  0  0  0  0  0  0  0  0  0
  -28.2950  -21.7480   22.1470 H   0  0  0  0  0  0  0  0  0  0  0  0
  -27.3280  -24.9870   22.5040 C   0  0  0  0  0  1  0  0  0  0  0  0
  -27.3920  -23.5720   21.8910 C   0  0  0  0  0  3  0  0  0  0  0  0
  -27.6960  -23.5370   20.3730 C   0  0  0  0  0  2  0  0  0  0  0  0
  -28.9410  -24.2970   19.8650 C   0  0  0  0  0  2  0  0  0  0  0  0
  -28.6280  -25.5120   18.9650 C   0  0  0  0  0  2  0  0  0  0  0  0
  -28.3830  -26.6800   19.7460 O   0  0  0  0  0  0  0  0  0  0  0  0
  -24.4790  -31.6130   23.0150 C   0  0  0  0  0  0  0  0  0  0  0  0
  -27.1540  -27.3080   19.7610 C   0  0  0  0  0  0  0  0  0  0  0  0
  -23.2660  -30.2280   21.3620 C   0  0  0  0  0  3  0  0  0  0  0  0
  -24.7180  -28.7460   19.8770 C   0  0  0  0  0  0  0  0  0  0  0  0
  -25.7810  -30.6350   21.1280 C   0  0  0  0  0  2  0  0  0  0  0  0
  -25.8740  -29.2820   20.4570 C   0  0  0  0  0  0  0  0  0  0  0  0
  -27.0880  -28.5640   20.4010 C   0  0  0  0  0  3  0  0  0  0  0  0
  -25.9740  -26.7760   19.1900 C   0  0  0  0  0  3  0  0  0  0  0  0
  -24.7600  -27.4900   19.2490 C   0  0  0  0  0  3  0  0  0  0  0  0
  -23.4590  -29.5790   19.9640 C   0  0  0  0  0  2  0  0  0  0  0  0
  -24.5270  -30.8410   21.8910 N   0  0  0  0  0  0  0  0  0  0  0  0
  -23.4060  -31.8530   23.5830 O   0  0  0  0  0  0  0  0  0  0  0  0
  -22.6500  -29.1760   22.3100 C   0  0  0  0  0  0  0  0  0  0  0  0
  -21.3290  -28.9640   22.1880 N   0  0  0  0  0  0  0  0  0  0  0  0
  -23.3560  -28.5520   23.1070 O   0  0  0  0  0  0  0  0  0  0  0  0
  -20.8230  -29.5170   21.5110 H   0  0  0  0  0  0  0  0  0  0  0  0
  -17.9940  -27.6620   22.6660 C   0  0  0  0  0  0  0  0  0  0  0  0
  -20.5410  -27.9920   22.9450 C   0  0  0  0  0  3  0  0  0  0  0  0
  -20.6880  -26.5700   22.3560 C   0  0  0  0  0  2  0  0  0  0  0  0
  -19.5980  -26.2240   21.3360 C   0  0  0  0  0  2  0  0  0  0  0  0
  -18.2100  -26.3250   21.9770 C   0  0  0  0  0  2  0  0  0  0  0  0
  -19.0880  -28.4510   23.1050 C   0  0  0  0  0  0  0  0  0  0  0  0
  -18.8320  -29.7030   23.7070 C   0  0  0  0  0  3  0  0  0  0  0  0
  -17.5150  -30.1640   23.8770 C   0  0  0  0  0  3  0  0  0  0  0  0
  -16.4330  -29.3730   23.4540 C   0  0  0  0  0  3  0  0  0  0  0  0
  -16.6730  -28.1240   22.8540 C   0  0  0  0  0  3  0  0  0  0  0  0
  -25.7680  -32.2490   23.6240 C   0  0  0  0  0  3  0  0  0  0  0  0
  -25.4430  -33.6280   24.0110 N   0  0  0  0  0  0  0  0  0  0  0  0
  -25.7560  -34.7130   23.2910 C   0  0  0  0  0  0  0  0  0  0  0  0
  -26.4230  -34.6600   22.2540 O   0  0  0  0  0  0  0  0  0  0  0  0
  -24.8540  -33.7450   24.8240 H   0  0  0  0  0  0  0  0  0  0  0  0
  -24.0100  -36.4980   22.9950 C   0  0  0  0  0  1  0  0  0  0  0  0
  -25.2480  -36.0760   23.8010 C   0  0  0  0  0  3  0  0  0  0  0  0
  -27.3660  -36.9490   24.6850 C   0  0  0  0  0  1  0  0  0  0  0  0
  -26.2700  -37.1430   23.7400 N   0  0  0  0  0  0  0  0  0  0  0  0
  -25.8530  -38.0530   23.9220 H   0  0  0  0  0  0  0  0  0  0  0  0
  -26.3370  -31.4410   24.8550 C   0  0  1  0  0  0  0  0  0  0  0  0
  -25.2820  -31.1480   25.9480 C   0  0  0  0  0  1  0  0  0  0  0  0
  -26.9270  -30.0850   24.3980 C   0  0  0  0  0  1  0  0  0  0  0  0
  -27.4970  -32.2290   25.5070 C   0  0  0  0  0  1  0  0  0  0  0  0
  -31.6840  -22.2470   24.2610 C   0  0  0  0  0  1  0  0  0  0  0  0
  -30.2580  -21.8310   23.8680 C   0  0  0  0  0  3  0  0  0  0  0  0
  -30.1600  -20.5280   21.6510 C   0  0  0  0  0  3  0  0  0  0  0  0
  -30.3600  -19.3410   20.9260 C   0  0  0  0  0  3  0  0  0  0  0  0
  -30.6250  -19.3220   23.7100 C   0  0  0  0  0  3  0  0  0  0  0  0
  -30.3140  -20.5350   23.0540 C   0  0  0  0  0  0  0  0  0  0  0  0
  -30.7470  -18.1450   21.5690 C   0  0  0  0  0  0  0  0  0  0  0  0
  -30.8610  -18.1330   22.9810 C   0  0  0  0  0  0  0  0  0  0  0  0
  -31.3060  -16.8910   23.7370 C   0  0  0  0  0  1  0  0  0  0  0  0
  -31.2090  -16.9940   20.6780 C   0  0  0  0  0  2  0  0  0  0  0  0
  -31.0130  -14.6620   20.0450 C   0  0  0  0  0  0  0  0  0  0  0  0
  -30.5890  -12.4960   18.9640 C   0  0  0  0  0  2  0  0  0  0  0  0
  -29.6090  -12.6750   17.7910 C   0  0  0  0  0  2  0  0  0  0  0  0
  -28.1570  -12.5560   18.2860 C   0  0  0  0  0  2  0  0  0  0  0  0
  -27.8720  -13.4320   19.5360 C   0  0  0  0  0  3  0  0  0  0  0  0
  -28.9750  -13.2700   20.6080 C   0  0  0  0  0  2  0  0  0  0  0  0
  -30.2780  -13.5210   19.9770 N   0  0  0  0  0  0  0  0  0  0  0  0
  -32.0680  -14.7990   19.4200 O   0  0  0  0  0  0  0  0  0  0  0  0
  -30.5190  -15.6980   20.7460 N   0  0  0  0  0  0  0  0  0  0  0  0
  -29.6460  -15.6140   21.2420 H   0  0  0  0  0  0  0  0  0  0  0  0
  -25.5170  -14.0450   20.3720 C   0  0  0  0  0  0  0  0  0  0  0  0
  -24.4630  -13.2770   20.7900 C   0  0  0  0  0  0  0  0  0  0  0  0
  -24.9130  -11.9230   20.7270 C   0  0  0  0  0  0  0  0  0  0  0  0
  -26.5430  -13.1600   20.0830 N   0  0  0  0  0  0  0  0  0  0  0  0
  -26.1850  -11.8770   20.3520 N   0  0  0  0  0  0  0  0  0  0  0  0
  -24.1850  -10.6650   20.9460 C   0  0  0  0  0  0  0  0  0  0  0  0
  -24.6180   -9.7200   21.9030 C   0  0  0  0  0  3  0  0  0  0  0  0
  -23.8930   -8.5260   22.1080 C   0  0  0  0  0  3  0  0  0  0  0  0
  -22.7200   -8.2680   21.3570 C   0  0  0  0  0  0  0  0  0  0  0  0
  -22.3080   -9.2010   20.3900 C   0  0  0  0  0  3  0  0  0  0  0  0
  -23.0340  -10.3870   20.1830 C   0  0  0  0  0  3  0  0  0  0  0  0
  -21.9660   -7.1260   21.4710 O   0  0  0  0  0  0  0  0  0  0  0  0
  -21.8410   -6.4630   22.6660 C   0  0  0  0  0  0  0  0  0  0  0  0
  -21.3540   -7.1030   23.8260 C   0  0  0  0  0  3  0  0  0  0  0  0
  -21.1750   -6.3650   25.0140 C   0  0  0  0  0  3  0  0  0  0  0  0
  -21.4720   -4.9900   25.0410 C   0  0  0  0  0  0  0  0  0  0  0  0
  -21.9510   -4.3500   23.8850 C   0  0  0  0  0  3  0  0  0  0  0  0
  -22.1320   -5.0840   22.6990 C   0  0  0  0  0  0  0  0  0  0  0  0
  -22.5740   -4.4580   21.5830 F   0  0  0  0  0  0  0  0  0  0  0  0
  -21.2930   -4.2790   26.1800 F   0  0  0  0  0  0  0  0  0  0  0  0
  -23.0840  -13.7630   21.1350 C   0  0  0  0  0  0  0  0  0  0  0  0
  -22.4050  -13.0840   22.0540 N   0  0  0  0  0  0  0  0  0  0  0  0
  -22.6190  -14.7800   20.6250 O   0  0  0  0  0  0  0  0  0  0  0  0
  -22.7960  -12.2650   22.4940 H   0  0  0  0  0  0  0  0  0  0  0  0
  -21.4810  -13.3910   22.3230 H   0  0  0  0  0  0  0  0  0  0  0  0
  -25.6800  -15.4160   20.1950 N   0  0  0  0  0  0  0  0  0  0  0  0
  -24.9230  -16.0730   20.3460 H   0  0  0  0  0  0  0  0  0  0  0  0
  -26.5210  -15.8550   19.8400 H   0  0  0  0  0  0  0  0  0  0  0  0
  1 52  1  0
  2  1  1  0
  2  3  1  0
  4  2  1  0
  6  5  1  0
  6  2  1  0
  7  6  1  0
  8  7  1  0
  9 10  1  0
  9  8  1  0
 10 12  1  0
 11 22  2  0
 12 17  1  0
 13 21  1  0
 13 23  1  0
 14 20  1  0
 14 16  1  0
 15 21  1  0
 16 15  1  0
 17 16  2  0
 18 19  1  0
 18 12  2  0
 19 14  2  0
 20 13  1  0
 21 11  1  0
 23 25  2  0
 24 23  1  0
 26 24  1  0
 27 36  2  0
 27 32  1  0
 28 24  1  0
 28 32  1  0
 29 28  1  0
 30 31  1  0
 30 29  1  0
 31 27  1  0
 32 33  2  0
 33 34  1  0
 35 34  2  0
 36 35  1  0
 37 11  1  0
 37 38  1  0
 37 47  1  0
 38 41  1  0
 39 43  1  0
 39 38  1  0
 40 39  2  0
 43 42  1  0
 45 43  1  0
 45 46  1  0
 45 44  1  0
 47 50  1  1
 47 48  1  0
 49 47  1  0
 52 51  1  0
 53 56  1  0
 54 57  1  0
 54 53  2  0
 56 55  2  0
 56 52  1  0
 57 58  2  0
 58 55  1  0
 58 59  1  0
 60 69  1  0
 60 57  1  0
 61 69  1  0
 62 67  1  0
 63 64  1  0
 63 62  1  0
 65 64  1  0
 65 74  1  0
 65 66  1  0
 67 61  1  0
 67 66  1  0
 68 61  2  0
 69 70  1  0
 71 72  2  0
 72 91  1  0
 73 72  1  0
 73 76  1  0
 74 75  1  0
 74 71  1  0
 75 73  2  0
 76 77  1  0
 77 78  2  0
 79 82  1  0
 79 78  1  0
 80 79  2  0
 81 80  1  0
 81 76  2  0
 82 83  1  0
 83 88  2  0
 83 84  1  0
 84 85  2  0
 85 86  1  0
 86 90  1  0
 87 86  2  0
 88 87  1  0
 89 88  1  0
 91 92  1  0
 92 95  1  0
 92 94  1  0
 93 91  2  0
 96 97  1  0
 96 71  1  0
 98 96  1  0
M  ISO  4   9 101  10 101  61 100  69 100
M  END
>  <TORSDO>  (43) 
F 24

>  <SCORE>  (43) 
-9.010

>  <name>  (43) 
42

>  <ligand_id>  (43) 
42

>  <original_smiles>  (43) 
[H]c1c([H])c([H])c2c(c1[H])C([H])([H])C([H])([H])C([H])([H])C2([H])N([H])C(=O)C1([H])N(C(=O)C([H])(N([H])C(=O)C([H])(N([H])C([H])([H])[H])C([H])([H])[H])C(C([H])([H])[H])(C([H])([H])[H])C([H])([H])[H])C([H])([H])c2c([H])c(OC([H])([H])C([H])([H])C([H])([H])C([H])(C([H])([H])[H])[N+]([H])([H])C([H])([H])C([H])(c3c([H])c([H])c(C([H])([H])N([H])C(=O)N4C([H])([H])C([H])([H])C([H])([H])C([H])(n5nc(-c6c([H])c([H])c(Oc7c([H])c([H])c(F)c([H])c7F)c([H])c6[H])c(C(=O)N([H])[H])c5N([H])[H])C4([H])[H])c(C([H])([H])[H])c3[H])C([H])([H])[H])c([H])c([H])c2C1([H])[H]

>  <smiles>  (43) 
[H]c1c([H])c([H])c2c(c1[H])C([H])([H])C([H])([H])C([H])([H])C2([H])N([H])C(=O)C1([H])N(C(=O)C([H])(N([H])C(=O)C([H])(N([H])C([H])([H])[H])C([H])([H])[H])C(C([H])([H])[H])(C([H])([H])[H])C([H])([H])[H])C([H])([H])c2c([H])c(OC([H])([H])C([H])([H])C([H])([H])C([H])(C([H])([H])[H])[N+]([H])([H])C([H])([H])C([H])(c3c([H])c([H])c(C([H])([H])N([H])C(=O)N4C([H])([H])C([H])([H])C([H])([H])C([H])(n5nc(-c6c([H])c([H])c(Oc7c([H])c([H])c(F)c([H])c7F)c([H])c6[H])c(C(=O)N([H])[H])c5N([H])[H])C4([H])[H])c(C([H])([H])[H])c3[H])C([H])([H])[H])c([H])c([H])c2C1([H])[H]

$$$$
43:0:0
     RDKit          3D

 86 94  0  0  1  0  0  0  0  0999 V2000
  -31.2960  -20.8830   20.1820 C   0  0  0  0  0  2  0  0  0  0  0  0
  -30.3890  -22.1040   19.7240 C   0  0  0  0  0  2  0  0  0  0  0  0
  -30.9630  -19.4140   19.7000 C   0  0  0  0  0  2  0  0  0  0  0  0
  -28.6160  -20.3540   20.2200 C   0  0  0  0  0  2  0  0  0  0  0  0
  -28.9640  -22.1910   20.3660 C   0  0  0  0  0  3  0  0  0  0  0  0
  -29.7070  -18.8330   20.3860 C   0  0  0  0  0  3  0  0  0  0  0  0
  -30.2890  -15.6900   20.1940 C   0  0  0  0  0  0  0  0  0  0  0  0
  -30.3830  -13.1580   19.3080 C   0  0  0  0  0  2  0  0  0  0  0  0
  -29.4690  -12.7990   18.0970 C   0  0  0  0  0  2  0  0  0  0  0  0
  -28.0380  -12.4490   18.5470 C   0  0  0  0  0  2  0  0  0  0  0  0
  -27.5570  -13.3980   19.6690 C   0  0  0  0  0  3  0  0  0  0  0  0
  -28.6220  -13.6350   20.7650 C   0  0  0  0  0  2  0  0  0  0  0  0
  -29.7690  -14.3170   20.1050 N   0  0  0  0  0  0  0  0  0  0  0  0
  -31.5240  -15.6270   20.0300 O   0  0  0  0  0  0  0  0  0  0  0  0
  -28.0900  -16.8950   20.3760 C   0  0  0  0  0  1  0  0  0  0  0  0
  -29.5260  -17.0650   20.2670 N   0  0  0  0  0  0  0  0  0  0  0  0
  -25.1920  -13.9070   20.4630 C   0  0  0  0  0  0  0  0  0  0  0  0
  -24.1460  -13.1180   20.8410 C   0  0  0  0  0  0  0  0  0  0  0  0
  -24.6310  -11.7730   20.7970 C   0  0  0  0  0  0  0  0  0  0  0  0
  -26.2470  -13.0480   20.2040 N   0  0  0  0  0  0  0  0  0  0  0  0
  -25.9220  -11.7560   20.4720 N   0  0  0  0  0  0  0  0  0  0  0  0
  -23.9160  -10.5060   20.9860 C   0  0  0  0  0  0  0  0  0  0  0  0
  -24.3520   -9.5490   21.9270 C   0  0  0  0  0  3  0  0  0  0  0  0
  -23.6390   -8.3440   22.1070 C   0  0  0  0  0  3  0  0  0  0  0  0
  -22.4710   -8.0910   21.3480 C   0  0  0  0  0  0  0  0  0  0  0  0
  -22.0540   -9.0360   20.3920 C   0  0  0  0  0  3  0  0  0  0  0  0
  -22.7720  -10.2310   20.2100 C   0  0  0  0  0  3  0  0  0  0  0  0
  -21.7280   -6.9380   21.4410 O   0  0  0  0  0  0  0  0  0  0  0  0
  -21.6660   -6.2090   22.6010 C   0  0  0  0  0  0  0  0  0  0  0  0
  -21.1800   -6.7620   23.8050 C   0  0  0  0  0  3  0  0  0  0  0  0
  -21.0650   -5.9570   24.9560 C   0  0  0  0  0  3  0  0  0  0  0  0
  -21.4310   -4.5990   24.9040 C   0  0  0  0  0  0  0  0  0  0  0  0
  -21.9100   -4.0420   23.7060 C   0  0  0  0  0  3  0  0  0  0  0  0
  -22.0250   -4.8450   22.5560 C   0  0  0  0  0  0  0  0  0  0  0  0
  -22.4670   -4.2980   21.3990 F   0  0  0  0  0  0  0  0  0  0  0  0
  -21.3170   -3.8240   26.0070 F   0  0  0  0  0  0  0  0  0  0  0  0
  -22.7460  -13.5790   21.1170 C   0  0  0  0  0  0  0  0  0  0  0  0
  -22.0260  -12.8810   21.9860 N   0  0  0  0  0  0  0  0  0  0  0  0
  -22.2950  -14.5970   20.5940 O   0  0  0  0  0  0  0  0  0  0  0  0
  -22.4010  -12.0620   22.4440 H   0  0  0  0  0  0  0  0  0  0  0  0
  -21.0790  -13.1660   22.1930 H   0  0  0  0  0  0  0  0  0  0  0  0
  -25.3250  -15.2800   20.2840 N   0  0  0  0  0  0  0  0  0  0  0  0
  -24.5460  -15.9200   20.3920 H   0  0  0  0  0  0  0  0  0  0  0  0
  -26.1630  -15.7320   19.9430 H   0  0  0  0  0  0  0  0  0  0  0  0
  -28.0550  -23.8820   20.0690 C   0  0  0  0  0  2  0  0  0  0  0  0
  -28.1920  -25.6180   20.3050 O   0  0  0  0  0  0  0  0  0  0  0  0
  -24.6750  -31.8870   23.1970 C   0  0  0  0  0  0  0  0  0  0  0  0
  -27.2050  -26.8130   20.2310 C   0  0  0  0  0  0  0  0  0  0  0  0
  -23.4800  -30.4830   21.5700 C   0  0  0  0  0  3  0  0  0  0  0  0
  -24.9230  -28.8250   20.1620 C   0  0  0  0  0  0  0  0  0  0  0  0
  -26.0590  -30.6240   21.4450 C   0  0  0  0  0  2  0  0  0  0  0  0
  -26.1180  -29.1920   20.7950 C   0  0  0  0  0  0  0  0  0  0  0  0
  -27.2400  -28.2130   20.7990 C   0  0  0  0  0  3  0  0  0  0  0  0
  -25.9760  -26.6450   19.5460 C   0  0  0  0  0  3  0  0  0  0  0  0
  -24.8920  -27.5760   19.5140 C   0  0  0  0  0  3  0  0  0  0  0  0
  -23.7140  -29.7730   20.2020 C   0  0  0  0  0  2  0  0  0  0  0  0
  -24.7630  -31.0340   22.1220 N   0  0  0  0  0  0  0  0  0  0  0  0
  -23.5870  -32.1900   23.7120 O   0  0  0  0  0  0  0  0  0  0  0  0
  -22.7630  -29.5160   22.5500 C   0  0  0  0  0  0  0  0  0  0  0  0
  -21.4310  -29.3600   22.4220 N   0  0  0  0  0  0  0  0  0  0  0  0
  -23.4180  -28.9040   23.3990 O   0  0  0  0  0  0  0  0  0  0  0  0
  -20.9500  -29.9020   21.7180 H   0  0  0  0  0  0  0  0  0  0  0  0
  -18.0440  -28.1490   22.9380 C   0  0  0  0  0  0  0  0  0  0  0  0
  -20.6030  -28.4270   23.2000 C   0  0  0  0  0  3  0  0  0  0  0  0
  -20.7080  -26.9900   22.6360 C   0  0  0  0  0  2  0  0  0  0  0  0
  -19.6090  -26.6580   21.6220 C   0  0  0  0  0  2  0  0  0  0  0  0
  -18.2270  -26.8000   22.2630 C   0  0  0  0  0  2  0  0  0  0  0  0
  -19.1590  -28.9200   23.3630 C   0  0  0  0  0  0  0  0  0  0  0  0
  -18.9300  -30.1810   23.9570 C   0  0  0  0  0  3  0  0  0  0  0  0
  -17.6210  -30.6720   24.1250 C   0  0  0  0  0  3  0  0  0  0  0  0
  -16.5230  -29.8970   23.7150 C   0  0  0  0  0  3  0  0  0  0  0  0
  -16.7340  -28.6370   23.1280 C   0  0  0  0  0  3  0  0  0  0  0  0
  -25.9410  -32.5350   23.8350 C   0  0  0  0  0  3  0  0  0  0  0  0
  -25.6180  -33.9340   24.1770 N   0  0  0  0  0  0  0  0  0  0  0  0
  -25.9100  -35.0040   23.4220 C   0  0  0  0  0  0  0  0  0  0  0  0
  -26.5340  -34.9150   22.3630 O   0  0  0  0  0  0  0  0  0  0  0  0
  -25.0520  -34.0720   25.0010 H   0  0  0  0  0  0  0  0  0  0  0  0
  -24.1320  -36.7780   23.2030 C   0  0  0  0  0  1  0  0  0  0  0  0
  -25.4370  -36.3870   23.9180 C   0  0  0  0  0  3  0  0  0  0  0  0
  -27.6060  -37.3200   24.5970 C   0  0  0  0  0  1  0  0  0  0  0  0
  -26.4400  -37.4590   23.7300 N   0  0  0  0  0  0  0  0  0  0  0  0
  -26.0260  -38.3730   23.8920 H   0  0  0  0  0  0  0  0  0  0  0  0
  -26.4430  -31.7750   25.1270 C   0  0  1  0  0  0  0  0  0  0  0  0
  -25.3400  -31.5570   26.1900 C   0  0  0  0  0  1  0  0  0  0  0  0
  -27.0180  -30.3880   24.7670 C   0  0  0  0  0  1  0  0  0  0  0  0
  -27.5980  -32.5670   25.7850 C   0  0  0  0  0  1  0  0  0  0  0  0
  2  1  1  0
  2  5  1  0
  3  1  1  0
  3  6  1  0
  4  5  1  0
  4  6  1  0
  5 45  1  0
  6 16  1  0
  7 16  1  0
  8 13  1  0
  9 10  1  0
  9  8  1  0
 11 10  1  0
 11 20  1  0
 11 12  1  0
 13  7  1  0
 13 12  1  0
 14  7  2  0
 16 15  1  0
 17 18  2  0
 18 37  1  0
 19 18  1  0
 19 22  1  0
 20 17  1  0
 20 21  1  0
 21 19  2  0
 22 23  1  0
 23 24  2  0
 25 28  1  0
 25 24  1  0
 26 25  2  0
 27 26  1  0
 27 22  2  0
 28 29  1  0
 29 30  1  0
 30 31  2  0
 32 31  1  0
 32 36  1  0
 33 32  2  0
 34 29  2  0
 34 33  1  0
 35 34  1  0
 37 38  1  0
 38 41  1  0
 38 40  1  0
 39 37  2  0
 42 43  1  0
 42 17  1  0
 44 42  1  0
 45 46  1  0
 47 58  2  0
 48 46  1  0
 48 53  1  0
 49 57  1  0
 49 59  1  0
 50 56  1  0
 50 52  1  0
 51 57  1  0
 52 53  2  0
 52 51  1  0
 54 48  2  0
 55 54  1  0
 55 50  2  0
 56 49  1  0
 57 47  1  0
 59 61  2  0
 60 59  1  0
 62 60  1  0
 63 72  2  0
 63 68  1  0
 64 60  1  0
 64 68  1  0
 65 64  1  0
 66 67  1  0
 66 65  1  0
 67 63  1  0
 68 69  2  0
 69 70  1  0
 71 70  2  0
 72 71  1  0
 73 47  1  0
 73 74  1  0
 73 83  1  0
 74 77  1  0
 75 79  1  0
 75 74  1  0
 76 75  2  0
 79 78  1  0
 81 82  1  0
 81 79  1  0
 81 80  1  0
 83 86  1  1
 83 84  1  0
 85 83  1  0
M  ISO  4   7 100  16 100  45 101  46 101
M  END
>  <TORSDO>  (44) 
F 17

>  <SCORE>  (44) 
-16.658

>  <name>  (44) 
43

>  <ligand_id>  (44) 
43

>  <original_smiles>  (44) 
[H]c1c([H])c([H])c2c(c1[H])C([H])([H])C([H])([H])C([H])([H])C2([H])N([H])C(=O)C1([H])N(C(=O)C([H])(N([H])C(=O)C([H])(N([H])C([H])([H])[H])C([H])([H])[H])C(C([H])([H])[H])(C([H])([H])[H])C([H])([H])[H])C([H])([H])c2c([H])c(OC([H])([H])C3([H])C([H])([H])C([H])([H])C([H])([H])C([H])(N(C(=O)N4C([H])([H])C([H])([H])C([H])([H])C([H])(n5nc(-c6c([H])c([H])c(Oc7c([H])c([H])c(F)c([H])c7F)c([H])c6[H])c(C(=O)N([H])[H])c5N([H])[H])C4([H])[H])C([H])([H])[H])C3([H])[H])c([H])c([H])c2C1([H])[H]

>  <smiles>  (44) 
[H]c1c([H])c([H])c2c(c1[H])C([H])([H])C([H])([H])C([H])([H])C2([H])N([H])C(=O)C1([H])N(C(=O)C([H])(N([H])C(=O)C([H])(N([H])C([H])([H])[H])C([H])([H])[H])C(C([H])([H])[H])(C([H])([H])[H])C([H])([H])[H])C([H])([H])c2c([H])c(OC([H])([H])C3([H])C([H])([H])C([H])([H])C([H])([H])C([H])(N(C(=O)N4C([H])([H])C([H])([H])C([H])([H])C([H])(n5nc(-c6c([H])c([H])c(Oc7c([H])c([H])c(F)c([H])c7F)c([H])c6[H])c(C(=O)N([H])[H])c5N([H])[H])C4([H])[H])C([H])([H])[H])C3([H])[H])c([H])c([H])c2C1([H])[H]

$$$$
44:0:0
     RDKit          3D

 98106  0  0  1  0  0  0  0  0999 V2000
  -30.2220  -22.5100   19.5850 C   0  0  0  0  0  3  0  0  0  0  0  0
  -29.7560  -22.6050   21.8470 C   0  0  0  0  0  3  0  0  0  0  0  0
  -29.9190  -23.3500   20.7020 C   0  0  0  0  0  0  0  0  0  0  0  0
  -30.3440  -21.1710   19.8790 C   0  0  0  0  0  0  0  0  0  0  0  0
  -30.0110  -20.9000   21.5720 S   0  0  0  0  0  0  0  0  0  0  0  0
  -30.5280  -20.5560   17.4670 C   0  0  0  0  0  1  0  0  0  0  0  0
  -32.2640  -19.7810   19.0730 C   0  0  0  0  0  1  0  0  0  0  0  0
  -30.7520  -20.0690   18.9190 C   0  0  1  0  0  0  0  0  0  0  0  0
  -29.9120  -18.7600   19.0700 C   0  0  0  0  0  2  0  0  0  0  0  0
  -30.3240  -17.8410   20.1650 N   0  0  0  0  0  4  0  0  0  0  0  0
  -30.3100  -18.3370   21.0400 H   0  0  0  0  0  0  0  0  0  0  0  0
  -31.2660  -17.5420   19.9770 H   0  0  0  0  0  0  0  0  0  0  0  0
  -29.4530  -16.6420   20.2310 C   0  0  0  0  0  2  0  0  0  0  0  0
  -30.6150  -14.4730   20.4620 C   0  0  0  0  0  0  0  0  0  0  0  0
  -30.3640  -12.3360   19.2780 C   0  0  0  0  0  2  0  0  0  0  0  0
  -29.4170  -12.5900   18.0840 C   0  0  0  0  0  2  0  0  0  0  0  0
  -27.9390  -12.4530   18.5030 C   0  0  0  0  0  2  0  0  0  0  0  0
  -27.6090  -13.2450   19.7960 C   0  0  0  0  0  3  0  0  0  0  0  0
  -28.6620  -12.9510   20.8930 C   0  0  0  0  0  2  0  0  0  0  0  0
  -29.9960  -13.2690   20.3510 N   0  0  0  0  0  0  0  0  0  0  0  0
  -31.7010  -14.7410   19.9380 O   0  0  0  0  0  0  0  0  0  0  0  0
  -29.8330  -15.4340   20.9770 N   0  0  0  0  0  0  0  0  0  0  0  0
  -29.0770  -15.0590   21.5310 H   0  0  0  0  0  0  0  0  0  0  0  0
  -25.2050  -13.8670   20.4810 C   0  0  0  0  0  0  0  0  0  0  0  0
  -24.1360  -13.0980   20.8550 C   0  0  0  0  0  0  0  0  0  0  0  0
  -24.5940  -11.7450   20.8310 C   0  0  0  0  0  0  0  0  0  0  0  0
  -26.2510  -12.9800   20.2620 N   0  0  0  0  0  0  0  0  0  0  0  0
  -25.8840  -11.7010   20.5240 N   0  0  0  0  0  0  0  0  0  0  0  0
  -23.8680  -10.4840   21.0270 C   0  0  0  0  0  0  0  0  0  0  0  0
  -24.3020   -9.5210   21.9610 C   0  0  0  0  0  3  0  0  0  0  0  0
  -23.5780   -8.3230   22.1490 C   0  0  0  0  0  3  0  0  0  0  0  0
  -22.4040   -8.0820   21.3960 C   0  0  0  0  0  0  0  0  0  0  0  0
  -21.9850   -9.0370   20.4530 C   0  0  0  0  0  3  0  0  0  0  0  0
  -22.7110  -10.2260   20.2650 C   0  0  0  0  0  3  0  0  0  0  0  0
  -21.6500   -6.9370   21.4900 O   0  0  0  0  0  0  0  0  0  0  0  0
  -21.6120   -6.1910   22.6420 C   0  0  0  0  0  0  0  0  0  0  0  0
  -21.1970   -6.7450   23.8720 C   0  0  0  0  0  3  0  0  0  0  0  0
  -21.1040   -5.9280   25.0160 C   0  0  0  0  0  3  0  0  0  0  0  0
  -21.4190   -4.5580   24.9290 C   0  0  0  0  0  0  0  0  0  0  0  0
  -21.8210   -4.0030   23.7020 C   0  0  0  0  0  3  0  0  0  0  0  0
  -21.9150   -4.8180   22.5600 C   0  0  0  0  0  0  0  0  0  0  0  0
  -22.2870   -4.2740   21.3760 F   0  0  0  0  0  0  0  0  0  0  0  0
  -21.3210   -3.7710   26.0240 F   0  0  0  0  0  0  0  0  0  0  0  0
  -22.7380  -13.5790   21.1250 C   0  0  0  0  0  0  0  0  0  0  0  0
  -22.0080  -12.8890   21.9960 N   0  0  0  0  0  0  0  0  0  0  0  0
  -22.3010  -14.6000   20.5970 O   0  0  0  0  0  0  0  0  0  0  0  0
  -22.3690  -12.0620   22.4470 H   0  0  0  0  0  0  0  0  0  0  0  0
  -21.0720  -13.1970   22.2160 H   0  0  0  0  0  0  0  0  0  0  0  0
  -25.3710  -15.2360   20.2930 N   0  0  0  0  0  0  0  0  0  0  0  0
  -24.5940  -15.8820   20.3840 H   0  0  0  0  0  0  0  0  0  0  0  0
  -26.1990  -15.6610   19.8980 H   0  0  0  0  0  0  0  0  0  0  0  0
  -29.8240  -24.8650   20.6390 C   0  0  0  0  0  3  0  0  0  0  0  0
  -32.2830  -25.1210   20.0690 C   0  0  0  0  0  1  0  0  0  0  0  0
  -30.8760  -25.4650   19.7720 N   0  0  0  0  0  4  0  0  0  0  0  0
  -30.6890  -25.2340   18.8080 H   0  0  0  0  0  0  0  0  0  0  0  0
  -30.7840  -26.4670   19.8440 H   0  0  0  0  0  0  0  0  0  0  0  0
  -28.4250  -25.3630   20.1950 C   0  0  0  0  0  2  0  0  0  0  0  0
  -28.4390  -26.7930   20.1700 O   0  0  0  0  0  0  0  0  0  0  0  0
  -24.5870  -31.8830   23.2370 C   0  0  0  0  0  0  0  0  0  0  0  0
  -27.2320  -27.4610   20.1550 C   0  0  0  0  0  0  0  0  0  0  0  0
  -23.3700  -30.4800   21.5990 C   0  0  0  0  0  3  0  0  0  0  0  0
  -24.8210  -28.9380   20.1720 C   0  0  0  0  0  0  0  0  0  0  0  0
  -25.8900  -30.8490   21.3820 C   0  0  0  0  0  2  0  0  0  0  0  0
  -25.9770  -29.4770   20.7480 C   0  0  0  0  0  0  0  0  0  0  0  0
  -27.1840  -28.7490   20.7280 C   0  0  0  0  0  3  0  0  0  0  0  0
  -26.0570  -26.9230   19.5790 C   0  0  0  0  0  3  0  0  0  0  0  0
  -24.8550  -27.6600   19.5840 C   0  0  0  0  0  3  0  0  0  0  0  0
  -23.5720  -29.7900   20.2210 C   0  0  0  0  0  2  0  0  0  0  0  0
  -24.6350  -31.0830   22.1340 N   0  0  0  0  0  0  0  0  0  0  0  0
  -23.5090  -32.1540   23.7860 O   0  0  0  0  0  0  0  0  0  0  0  0
  -22.7230  -29.4620   22.5660 C   0  0  0  0  0  0  0  0  0  0  0  0
  -21.4000  -29.2780   22.4420 N   0  0  0  0  0  0  0  0  0  0  0  0
  -23.4110  -28.8370   23.3780 O   0  0  0  0  0  0  0  0  0  0  0  0
  -20.9030  -29.8370   21.7630 H   0  0  0  0  0  0  0  0  0  0  0  0
  -18.0310  -28.0750   22.9420 C   0  0  0  0  0  0  0  0  0  0  0  0
  -20.5880  -28.3390   23.2150 C   0  0  0  0  0  3  0  0  0  0  0  0
  -20.6930  -26.9060   22.6450 C   0  0  0  0  0  2  0  0  0  0  0  0
  -19.5960  -26.5770   21.6290 C   0  0  0  0  0  2  0  0  0  0  0  0
  -18.2120  -26.7230   22.2700 C   0  0  0  0  0  2  0  0  0  0  0  0
  -19.1480  -28.8390   23.3710 C   0  0  0  0  0  0  0  0  0  0  0  0
  -18.9280  -30.1060   23.9560 C   0  0  0  0  0  3  0  0  0  0  0  0
  -17.6230  -30.6070   24.1170 C   0  0  0  0  0  3  0  0  0  0  0  0
  -16.5200  -29.8380   23.7090 C   0  0  0  0  0  3  0  0  0  0  0  0
  -16.7240  -28.5740   23.1260 C   0  0  0  0  0  3  0  0  0  0  0  0
  -25.8780  -32.5120   23.8490 C   0  0  0  0  0  3  0  0  0  0  0  0
  -25.5760  -33.9110   24.1800 N   0  0  0  0  0  0  0  0  0  0  0  0
  -25.9080  -34.9610   23.4160 C   0  0  0  0  0  0  0  0  0  0  0  0
  -26.5750  -34.8550   22.3830 O   0  0  0  0  0  0  0  0  0  0  0  0
  -24.9850  -34.0690   24.9830 H   0  0  0  0  0  0  0  0  0  0  0  0
  -24.1850  -36.7580   23.0580 C   0  0  0  0  0  1  0  0  0  0  0  0
  -25.4240  -36.3520   23.8720 C   0  0  0  0  0  3  0  0  0  0  0  0
  -27.5630  -37.2300   24.7020 C   0  0  0  0  0  1  0  0  0  0  0  0
  -26.4600  -37.4020   23.7580 N   0  0  0  0  0  0  0  0  0  0  0  0
  -26.0570  -38.3240   23.9070 H   0  0  0  0  0  0  0  0  0  0  0  0
  -26.4070  -31.7410   25.1200 C   0  0  1  0  0  0  0  0  0  0  0  0
  -25.3240  -31.5040   26.1990 C   0  0  0  0  0  1  0  0  0  0  0  0
  -26.9850  -30.3630   24.7200 C   0  0  0  0  0  1  0  0  0  0  0  0
  -27.5620  -32.5330   25.7760 C   0  0  0  0  0  1  0  0  0  0  0  0
  1  4  2  0
  1  3  1  0
  3  2  2  0
  4  5  1  0
  5  2  1  0
  8  6  1  6
  8  9  1  0
  8  7  1  0
  8  4  1  0
  9 10  1  0
 10 13  1  0
 10 11  1  0
 12 10  1  0
 13 22  1  0
 14 22  1  0
 15 20  1  0
 16 17  1  0
 16 15  1  0
 18 17  1  0
 18 27  1  0
 18 19  1  0
 20 14  1  0
 20 19  1  0
 21 14  2  0
 22 23  1  0
 24 25  2  0
 25 44  1  0
 26 25  1  0
 26 29  1  0
 27 24  1  0
 27 28  1  0
 28 26  2  0
 29 30  1  0
 30 31  2  0
 32 35  1  0
 32 31  1  0
 33 32  2  0
 34 33  1  0
 34 29  2  0
 35 36  1  0
 36 37  1  0
 37 38  2  0
 39 38  1  0
 39 43  1  0
 40 39  2  0
 41 36  2  0
 41 40  1  0
 42 41  1  0
 44 45  1  0
 45 48  1  0
 45 47  1  0
 46 44  2  0
 49 50  1  0
 49 24  1  0
 51 49  1  0
 52 57  1  0
 52  3  1  0
 54 56  1  0
 54 53  1  0
 54 52  1  0
 55 54  1  0
 58 57  1  0
 59 70  2  0
 60 58  1  0
 60 65  1  0
 61 69  1  0
 61 71  1  0
 62 68  1  0
 62 64  1  0
 63 69  1  0
 64 63  1  0
 65 64  2  0
 66 67  1  0
 66 60  2  0
 67 62  2  0
 68 61  1  0
 69 59  1  0
 71 73  2  0
 72 71  1  0
 74 72  1  0
 75 84  2  0
 75 80  1  0
 76 72  1  0
 76 80  1  0
 77 76  1  0
 78 79  1  0
 78 77  1  0
 79 75  1  0
 80 81  2  0
 81 82  1  0
 83 82  2  0
 84 83  1  0
 85 59  1  0
 85 86  1  0
 85 95  1  0
 86 89  1  0
 87 91  1  0
 87 86  1  0
 88 87  2  0
 91 90  1  0
 93 91  1  0
 93 94  1  0
 93 92  1  0
 95 98  1  1
 95 96  1  0
 97 95  1  0
M  ISO  4  14 100  22 100  57 101  58 101
M  END
>  <TORSDO>  (45) 
F 23

>  <SCORE>  (45) 
-12.922

>  <name>  (45) 
44

>  <ligand_id>  (45) 
44

>  <original_smiles>  (45) 
[H]c1sc(C(C([H])([H])[H])(C([H])([H])[H])C([H])([H])[N+]([H])([H])C([H])([H])N([H])C(=O)N2C([H])([H])C([H])([H])C([H])([H])C([H])(n3nc(-c4c([H])c([H])c(Oc5c([H])c([H])c(F)c([H])c5F)c([H])c4[H])c(C(=O)N([H])[H])c3N([H])[H])C2([H])[H])c([H])c1C([H])(C([H])([H])Oc1c([H])c([H])c2c(c1[H])C([H])([H])N(C(=O)C([H])(N([H])C(=O)C([H])(N([H])C([H])([H])[H])C([H])([H])[H])C(C([H])([H])[H])(C([H])([H])[H])C([H])([H])[H])C([H])(C(=O)N([H])C1([H])c3c([H])c([H])c([H])c([H])c3C([H])([H])C([H])([H])C1([H])[H])C2([H])[H])[N+]([H])([H])C([H])([H])[H]

>  <smiles>  (45) 
[H]c1sc(C(C([H])([H])[H])(C([H])([H])[H])C([H])([H])[N+]([H])([H])C([H])([H])N([H])C(=O)N2C([H])([H])C([H])([H])C([H])([H])C([H])(n3nc(-c4c([H])c([H])c(Oc5c([H])c([H])c(F)c([H])c5F)c([H])c4[H])c(C(=O)N([H])[H])c3N([H])[H])C2([H])[H])c([H])c1C([H])(C([H])([H])Oc1c([H])c([H])c2c(c1[H])C([H])([H])N(C(=O)C([H])(N([H])C(=O)C([H])(N([H])C([H])([H])[H])C([H])([H])[H])C(C([H])([H])[H])(C([H])([H])[H])C([H])([H])[H])C([H])(C(=O)N([H])C1([H])c3c([H])c([H])c([H])c([H])c3C([H])([H])C([H])([H])C1([H])[H])C2([H])[H])[N+]([H])([H])C([H])([H])[H]

$$$$
45:0:0
     RDKit          3D

 88 96  0  0  1  0  0  0  0  0999 V2000
  -29.8410  -20.6460   20.5130 C   0  0  0  0  0  3  0  0  0  0  0  0
  -28.1150  -19.3070   19.8220 C   0  0  0  0  0  3  0  0  0  0  0  0
  -29.4200  -19.2120   20.2510 C   0  0  0  0  0  0  0  0  0  0  0  0
  -28.9400  -21.7470   20.3070 C   0  0  0  0  0  0  0  0  0  0  0  0
  -27.4660  -20.9720   19.7570 S   0  0  0  0  0  0  0  0  0  0  0  0
  -30.2920  -17.8030   20.3850 C   0  0  0  0  0  2  0  0  0  0  0  0
  -30.5450  -15.0740   20.1750 C   0  0  0  0  0  0  0  0  0  0  0  0
  -30.3680  -12.7500   19.1640 C   0  0  0  0  0  2  0  0  0  0  0  0
  -29.3940  -12.7370   17.9640 C   0  0  0  0  0  2  0  0  0  0  0  0
  -27.9480  -12.5150   18.4450 C   0  0  0  0  0  2  0  0  0  0  0  0
  -27.5840  -13.4040   19.6640 C   0  0  0  0  0  3  0  0  0  0  0  0
  -28.6810  -13.3920   20.7490 C   0  0  0  0  0  2  0  0  0  0  0  0
  -29.9250  -13.8260   20.1010 N   0  0  0  0  0  0  0  0  0  0  0  0
  -31.7420  -15.1130   19.8710 O   0  0  0  0  0  0  0  0  0  0  0  0
  -29.8130  -16.2860   20.3820 N   0  0  0  0  0  0  0  0  0  0  0  0
  -28.8320  -16.1550   20.5720 H   0  0  0  0  0  0  0  0  0  0  0  0
  -25.2290  -13.9570   20.4900 C   0  0  0  0  0  0  0  0  0  0  0  0
  -24.1810  -13.1710   20.8830 C   0  0  0  0  0  0  0  0  0  0  0  0
  -24.6520  -11.8230   20.8180 C   0  0  0  0  0  0  0  0  0  0  0  0
  -26.2670  -13.0890   20.2020 N   0  0  0  0  0  0  0  0  0  0  0  0
  -25.9330  -11.7980   20.4670 N   0  0  0  0  0  0  0  0  0  0  0  0
  -23.9370  -10.5550   21.0110 C   0  0  0  0  0  0  0  0  0  0  0  0
  -24.3860   -9.5860   21.9360 C   0  0  0  0  0  3  0  0  0  0  0  0
  -23.6670   -8.3850   22.1190 C   0  0  0  0  0  3  0  0  0  0  0  0
  -22.4870   -8.1440   21.3780 C   0  0  0  0  0  0  0  0  0  0  0  0
  -22.0580   -9.1000   20.4410 C   0  0  0  0  0  3  0  0  0  0  0  0
  -22.7760  -10.2930   20.2560 C   0  0  0  0  0  3  0  0  0  0  0  0
  -21.7390   -6.9940   21.4710 O   0  0  0  0  0  0  0  0  0  0  0  0
  -21.6920   -6.2570   22.6270 C   0  0  0  0  0  0  0  0  0  0  0  0
  -21.2120   -6.8010   23.8380 C   0  0  0  0  0  3  0  0  0  0  0  0
  -21.1150   -5.9890   24.9860 C   0  0  0  0  0  3  0  0  0  0  0  0
  -21.4880   -4.6340   24.9230 C   0  0  0  0  0  0  0  0  0  0  0  0
  -21.9630   -4.0890   23.7170 C   0  0  0  0  0  3  0  0  0  0  0  0
  -22.0610   -4.8980   22.5710 C   0  0  0  0  0  0  0  0  0  0  0  0
  -22.4980   -4.3630   21.4060 F   0  0  0  0  0  0  0  0  0  0  0  0
  -21.3880   -3.8510   26.0230 F   0  0  0  0  0  0  0  0  0  0  0  0
  -22.7900  -13.6390   21.1990 C   0  0  0  0  0  0  0  0  0  0  0  0
  -22.0880  -12.9250   22.0710 N   0  0  0  0  0  0  0  0  0  0  0  0
  -22.3370  -14.6720   20.7090 O   0  0  0  0  0  0  0  0  0  0  0  0
  -22.4690  -12.0910   22.4920 H   0  0  0  0  0  0  0  0  0  0  0  0
  -21.1550  -13.2200   22.3250 H   0  0  0  0  0  0  0  0  0  0  0  0
  -25.3780  -15.3310   20.3260 N   0  0  0  0  0  0  0  0  0  0  0  0
  -24.6050  -15.9740   20.4650 H   0  0  0  0  0  0  0  0  0  0  0  0
  -26.1970  -15.7760   19.9360 H   0  0  0  0  0  0  0  0  0  0  0  0
  -29.0390  -23.3780   20.6210 C   0  0  0  0  0  2  0  0  0  0  0  0
  -28.4760  -24.6470   18.4280 C   0  0  0  0  0  1  0  0  0  0  0  0
  -28.2010  -24.6910   19.9400 C   0  0  0  0  0  3  0  0  0  0  0  0
  -28.3280  -26.2090   20.3490 O   0  0  0  0  0  0  0  0  0  0  0  0
  -24.6150  -31.9010   23.2710 C   0  0  0  0  0  0  0  0  0  0  0  0
  -27.2640  -27.1930   20.2570 C   0  0  0  0  0  0  0  0  0  0  0  0
  -23.4480  -30.5040   21.6120 C   0  0  0  0  0  3  0  0  0  0  0  0
  -24.9260  -28.9420   20.2000 C   0  0  0  0  0  0  0  0  0  0  0  0
  -26.0050  -30.7800   21.4850 C   0  0  0  0  0  2  0  0  0  0  0  0
  -26.0960  -29.3900   20.8260 C   0  0  0  0  0  0  0  0  0  0  0  0
  -27.2640  -28.5320   20.8350 C   0  0  0  0  0  3  0  0  0  0  0  0
  -26.0590  -26.8540   19.6010 C   0  0  0  0  0  3  0  0  0  0  0  0
  -24.9210  -27.6900   19.5710 C   0  0  0  0  0  3  0  0  0  0  0  0
  -23.6930  -29.8340   20.2340 C   0  0  0  0  0  2  0  0  0  0  0  0
  -24.7090  -31.0840   22.1770 N   0  0  0  0  0  0  0  0  0  0  0  0
  -23.5190  -32.1780   23.7840 O   0  0  0  0  0  0  0  0  0  0  0  0
  -22.7620  -29.4890   22.5620 C   0  0  0  0  0  0  0  0  0  0  0  0
  -21.4370  -29.3090   22.4160 N   0  0  0  0  0  0  0  0  0  0  0  0
  -23.4260  -28.8660   23.3950 O   0  0  0  0  0  0  0  0  0  0  0  0
  -20.9580  -29.8650   21.7210 H   0  0  0  0  0  0  0  0  0  0  0  0
  -18.0560  -28.0890   22.8760 C   0  0  0  0  0  0  0  0  0  0  0  0
  -20.6110  -28.3640   23.1730 C   0  0  0  0  0  3  0  0  0  0  0  0
  -20.7250  -26.9350   22.5930 C   0  0  0  0  0  2  0  0  0  0  0  0
  -19.6370  -26.6110   21.5650 C   0  0  0  0  0  2  0  0  0  0  0  0
  -18.2480  -26.7440   22.1940 C   0  0  0  0  0  2  0  0  0  0  0  0
  -19.1650  -28.8560   23.3210 C   0  0  0  0  0  0  0  0  0  0  0  0
  -18.9300  -30.1120   23.9210 C   0  0  0  0  0  3  0  0  0  0  0  0
  -17.6200  -30.6030   24.0780 C   0  0  0  0  0  3  0  0  0  0  0  0
  -16.5260  -29.8340   23.6460 C   0  0  0  0  0  3  0  0  0  0  0  0
  -16.7440  -28.5780   23.0520 C   0  0  0  0  0  3  0  0  0  0  0  0
  -25.8790  -32.5450   23.9200 C   0  0  0  0  0  3  0  0  0  0  0  0
  -26.3550  -31.7960   25.2270 C   0  0  1  0  0  0  0  0  0  0  0  0
  -25.2280  -31.5790   26.2660 C   0  0  0  0  0  1  0  0  0  0  0  0
  -26.9490  -30.4110   24.8830 C   0  0  0  0  0  1  0  0  0  0  0  0
  -27.4840  -32.6030   25.9080 C   0  0  0  0  0  1  0  0  0  0  0  0
  -25.5600  -33.9500   24.2250 N   0  0  0  0  0  0  0  0  0  0  0  0
  -25.8870  -34.9930   23.4490 C   0  0  0  0  0  0  0  0  0  0  0  0
  -26.5520  -34.8730   22.4170 O   0  0  0  0  0  0  0  0  0  0  0  0
  -24.9660  -34.1150   25.0230 H   0  0  0  0  0  0  0  0  0  0  0  0
  -24.1440  -36.7730   23.0870 C   0  0  0  0  0  1  0  0  0  0  0  0
  -25.3990  -36.3880   23.8870 C   0  0  0  0  0  3  0  0  0  0  0  0
  -27.5330  -37.3110   24.6780 C   0  0  0  0  0  1  0  0  0  0  0  0
  -26.4240  -37.4450   23.7360 N   0  0  0  0  0  0  0  0  0  0  0  0
  -26.0130  -38.3650   23.8580 H   0  0  0  0  0  0  0  0  0  0  0  0
  2  3  2  0
  3  6  1  0
  3  1  1  0
  4  1  2  0
  4 45  1  0
  5  2  1  0
  5  4  1  0
  7 15  1  0
  8 13  1  0
  9 10  1  0
  9  8  1  0
 11 10  1  0
 11 20  1  0
 11 12  1  0
 13  7  1  0
 13 12  1  0
 14  7  2  0
 15  6  1  0
 15 16  1  0
 17 18  2  0
 18 37  1  0
 19 18  1  0
 19 22  1  0
 20 21  1  0
 20 17  1  0
 21 19  2  0
 22 23  1  0
 23 24  2  0
 25 28  1  0
 25 24  1  0
 26 25  2  0
 27 26  1  0
 27 22  2  0
 28 29  1  0
 29 30  1  0
 30 31  2  0
 32 31  1  0
 32 36  1  0
 33 32  2  0
 34 29  2  0
 34 33  1  0
 35 34  1  0
 37 38  1  0
 38 41  1  0
 38 40  1  0
 39 37  2  0
 42 43  1  0
 42 17  1  0
 44 42  1  0
 47 46  1  0
 47 48  1  0
 47 45  1  0
 49 60  2  0
 50 48  1  0
 50 55  1  0
 51 59  1  0
 51 61  1  0
 52 58  1  0
 52 54  1  0
 53 59  1  0
 54 55  2  0
 54 53  1  0
 56 50  2  0
 57 56  1  0
 57 52  2  0
 58 51  1  0
 59 49  1  0
 61 63  2  0
 62 61  1  0
 64 62  1  0
 65 74  2  0
 65 70  1  0
 66 62  1  0
 66 70  1  0
 67 66  1  0
 68 69  1  0
 68 67  1  0
 69 65  1  0
 70 71  2  0
 71 72  1  0
 73 72  2  0
 74 73  1  0
 75 49  1  0
 75 80  1  0
 75 76  1  0
 76 79  1  1
 76 77  1  0
 78 76  1  0
 80 83  1  0
 81 85  1  0
 81 80  1  0
 82 81  2  0
 85 84  1  0
 87 88  1  0
 87 85  1  0
 87 86  1  0
M  ISO  4   7 100  15 100  47 101  48 101
M  END
>  <TORSDO>  (46) 
F 19

>  <SCORE>  (46) 
-14.609

>  <name>  (46) 
45

>  <ligand_id>  (46) 
45

>  <original_smiles>  (46) 
[H]c1sc(C([H])([H])C([H])(Oc2c([H])c([H])c3c(c2[H])C([H])([H])N(C(=O)C([H])(N([H])C(=O)C([H])(N([H])C([H])([H])[H])C([H])([H])[H])C(C([H])([H])[H])(C([H])([H])[H])C([H])([H])[H])C([H])(C(=O)N([H])C2([H])c4c([H])c([H])c([H])c([H])c4C([H])([H])C([H])([H])C2([H])[H])C3([H])[H])C([H])([H])[H])c([H])c1C([H])([H])N([H])C(=O)N1C([H])([H])C([H])([H])C([H])([H])C([H])(n2nc(-c3c([H])c([H])c(Oc4c([H])c([H])c(F)c([H])c4F)c([H])c3[H])c(C(=O)N([H])[H])c2N([H])[H])C1([H])[H]

>  <smiles>  (46) 
[H]c1sc(C([H])([H])C([H])(Oc2c([H])c([H])c3c(c2[H])C([H])([H])N(C(=O)C([H])(N([H])C(=O)C([H])(N([H])C([H])([H])[H])C([H])([H])[H])C(C([H])([H])[H])(C([H])([H])[H])C([H])([H])[H])C([H])(C(=O)N([H])C2([H])c4c([H])c([H])c([H])c([H])c4C([H])([H])C([H])([H])C2([H])[H])C3([H])[H])C([H])([H])[H])c([H])c1C([H])([H])N([H])C(=O)N1C([H])([H])C([H])([H])C([H])([H])C([H])(n2nc(-c3c([H])c([H])c(Oc4c([H])c([H])c(F)c([H])c4F)c([H])c3[H])c(C(=O)N([H])[H])c2N([H])[H])C1([H])[H]

$$$$
46:0:0
     RDKit          3D

 97105  0  0  1  0  0  0  0  0999 V2000
  -28.3440  -20.8230   19.8230 C   0  0  0  0  0  2  0  0  0  0  0  0
  -29.0440  -18.3440   19.7680 C   0  0  0  0  0  3  0  0  0  0  0  0
  -30.4690  -18.2710   21.5480 C   0  0  0  0  0  0  0  0  0  0  0  0
  -29.8250  -17.4930   20.5270 C   0  0  0  0  0  0  0  0  0  0  0  0
  -30.0840  -19.5830   21.3240 C   0  0  0  0  0  0  0  0  0  0  0  0
  -30.4500  -20.8030   22.1160 C   0  0  0  0  0  1  0  0  0  0  0  0
  -29.1780  -19.6500   20.2570 N   0  0  0  0  0  0  0  0  0  0  0  0
  -30.6530  -15.0780   20.2120 C   0  0  0  0  0  0  0  0  0  0  0  0
  -30.6370  -12.7880   19.2490 C   0  0  0  0  0  2  0  0  0  0  0  0
  -29.7070  -12.8070   18.0150 C   0  0  0  0  0  2  0  0  0  0  0  0
  -28.2390  -12.5640   18.4200 C   0  0  0  0  0  2  0  0  0  0  0  0
  -27.7970  -13.4550   19.6100 C   0  0  0  0  0  3  0  0  0  0  0  0
  -28.8370  -13.4140   20.7530 C   0  0  0  0  0  2  0  0  0  0  0  0
  -30.1380  -13.8100   20.1880 N   0  0  0  0  0  0  0  0  0  0  0  0
  -31.7970  -15.3300   19.8190 O   0  0  0  0  0  0  0  0  0  0  0  0
  -29.7290  -16.0510   20.4650 N   0  0  0  0  0  0  0  0  0  0  0  0
  -28.8090  -15.6830   20.6400 H   0  0  0  0  0  0  0  0  0  0  0  0
  -25.3560  -13.9260   20.2590 C   0  0  0  0  0  0  0  0  0  0  0  0
  -24.3360  -13.0970   20.6460 C   0  0  0  0  0  0  0  0  0  0  0  0
  -24.8900  -11.7820   20.6860 C   0  0  0  0  0  0  0  0  0  0  0  0
  -26.4610  -13.1070   20.0830 N   0  0  0  0  0  0  0  0  0  0  0  0
  -26.1840  -11.8150   20.3960 N   0  0  0  0  0  0  0  0  0  0  0  0
  -24.2510  -10.4810   20.9220 C   0  0  0  0  0  0  0  0  0  0  0  0
  -24.5850   -9.6840   22.0400 C   0  0  0  0  0  3  0  0  0  0  0  0
  -23.9400   -8.4450   22.2500 C   0  0  0  0  0  3  0  0  0  0  0  0
  -22.9500   -7.9980   21.3440 C   0  0  0  0  0  0  0  0  0  0  0  0
  -22.6420   -8.7830   20.2200 C   0  0  0  0  0  3  0  0  0  0  0  0
  -23.2870  -10.0130   20.0070 C   0  0  0  0  0  3  0  0  0  0  0  0
  -22.2900   -6.7970   21.4550 O   0  0  0  0  0  0  0  0  0  0  0  0
  -21.9400   -6.2780   22.6750 C   0  0  0  0  0  0  0  0  0  0  0  0
  -21.0660   -6.9590   23.5510 C   0  0  0  0  0  3  0  0  0  0  0  0
  -20.6780   -6.3580   24.7660 C   0  0  0  0  0  3  0  0  0  0  0  0
  -21.1540   -5.0780   25.1020 C   0  0  0  0  0  0  0  0  0  0  0  0
  -22.0220   -4.3970   24.2300 C   0  0  0  0  0  3  0  0  0  0  0  0
  -22.4100   -4.9950   23.0180 C   0  0  0  0  0  0  0  0  0  0  0  0
  -23.2290   -4.3240   22.1710 F   0  0  0  0  0  0  0  0  0  0  0  0
  -20.7770   -4.4970   26.2650 F   0  0  0  0  0  0  0  0  0  0  0  0
  -22.9060  -13.4890   20.8770 C   0  0  0  0  0  0  0  0  0  0  0  0
  -22.2110  -12.7770   21.7600 N   0  0  0  0  0  0  0  0  0  0  0  0
  -22.4090  -14.4570   20.3060 O   0  0  0  0  0  0  0  0  0  0  0  0
  -22.6300  -11.9920   22.2340 H   0  0  0  0  0  0  0  0  0  0  0  0
  -21.2520  -13.0230   21.9590 H   0  0  0  0  0  0  0  0  0  0  0  0
  -25.4340  -15.2960   20.0300 N   0  0  0  0  0  0  0  0  0  0  0  0
  -24.6320  -15.9100   20.1150 H   0  0  0  0  0  0  0  0  0  0  0  0
  -26.2590  -15.7850   19.7030 H   0  0  0  0  0  0  0  0  0  0  0  0
  -32.6350  -18.6000   22.8710 C   0  0  0  0  0  1  0  0  0  0  0  0
  -31.3100  -17.8280   22.7470 C   0  0  0  0  0  3  0  0  0  0  0  0
  -31.5650  -16.4340   22.8050 O   0  0  0  0  0  0  0  0  0  0  0  0
  -31.7320  -16.2040   23.7120 H   0  0  0  0  0  0  0  0  0  0  0  0
  -29.0520  -22.1480   19.3320 C   0  0  0  0  0  2  0  0  0  0  0  0
  -28.6020  -23.4480   19.9740 N   0  0  0  0  0  4  0  0  0  0  0  0
  -29.4150  -24.0440   20.0170 H   0  0  0  0  0  0  0  0  0  0  0  0
  -28.3820  -23.2520   20.9380 H   0  0  0  0  0  0  0  0  0  0  0  0
  -26.5730  -23.5020   18.4430 C   0  0  0  0  0  1  0  0  0  0  0  0
  -27.4870  -24.3060   19.3970 C   0  0  0  0  0  3  0  0  0  0  0  0
  -27.9530  -25.6880   18.7630 C   0  0  0  0  0  2  0  0  0  0  0  0
  -27.8810  -26.9180   19.5480 O   0  0  0  0  0  0  0  0  0  0  0  0
  -24.4450  -32.0420   23.1930 C   0  0  0  0  0  0  0  0  0  0  0  0
  -26.7250  -27.6890   19.6480 C   0  0  0  0  0  0  0  0  0  0  0  0
  -23.0750  -30.7510   21.5860 C   0  0  0  0  0  3  0  0  0  0  0  0
  -24.3740  -29.2740   19.9530 C   0  0  0  0  0  0  0  0  0  0  0  0
  -25.5910  -31.0650   21.1980 C   0  0  0  0  0  2  0  0  0  0  0  0
  -25.5890  -29.7270   20.4770 C   0  0  0  0  0  0  0  0  0  0  0  0
  -26.7610  -28.9380   20.3330 C   0  0  0  0  0  3  0  0  0  0  0  0
  -25.4840  -27.2650   19.1170 C   0  0  0  0  0  3  0  0  0  0  0  0
  -24.3210  -28.0420   19.2730 C   0  0  0  0  0  3  0  0  0  0  0  0
  -23.1540  -30.1450   20.1570 C   0  0  0  0  0  2  0  0  0  0  0  0
  -24.3950  -31.3030   22.0480 N   0  0  0  0  0  0  0  0  0  0  0  0
  -23.4190  -32.2970   23.8400 O   0  0  0  0  0  0  0  0  0  0  0  0
  -22.4870  -29.6910   22.5490 C   0  0  0  0  0  0  0  0  0  0  0  0
  -21.1670  -29.4540   22.4520 N   0  0  0  0  0  0  0  0  0  0  0  0
  -23.2170  -29.0800   23.3330 O   0  0  0  0  0  0  0  0  0  0  0  0
  -20.6430  -29.9780   21.7620 H   0  0  0  0  0  0  0  0  0  0  0  0
  -17.8790  -28.0240   22.9610 C   0  0  0  0  0  0  0  0  0  0  0  0
  -20.4120  -28.4700   23.2280 C   0  0  0  0  0  3  0  0  0  0  0  0
  -20.6160  -27.0470   22.6580 C   0  0  0  0  0  2  0  0  0  0  0  0
  -19.5350  -26.6360   21.6490 C   0  0  0  0  0  2  0  0  0  0  0  0
  -18.1550  -26.6800   22.3090 C   0  0  0  0  0  2  0  0  0  0  0  0
  -18.9390  -28.8690   23.3860 C   0  0  0  0  0  0  0  0  0  0  0  0
  -18.6280  -30.1130   23.9760 C   0  0  0  0  0  3  0  0  0  0  0  0
  -17.2910  -30.5190   24.1340 C   0  0  0  0  0  3  0  0  0  0  0  0
  -16.2440  -29.6810   23.7120 C   0  0  0  0  0  3  0  0  0  0  0  0
  -16.5390  -28.4340   23.1310 C   0  0  0  0  0  3  0  0  0  0  0  0
  -25.7870  -32.6240   23.7360 C   0  0  0  0  0  3  0  0  0  0  0  0
  -25.5470  -34.0230   24.1130 N   0  0  0  0  0  0  0  0  0  0  0  0
  -25.8730  -35.0810   23.3580 C   0  0  0  0  0  0  0  0  0  0  0  0
  -26.4730  -34.9770   22.2860 O   0  0  0  0  0  0  0  0  0  0  0  0
  -25.0010  -34.1790   24.9460 H   0  0  0  0  0  0  0  0  0  0  0  0
  -24.1900  -36.9320   23.1520 C   0  0  0  0  0  1  0  0  0  0  0  0
  -25.4650  -36.4740   23.8750 C   0  0  0  0  0  3  0  0  0  0  0  0
  -27.6710  -37.2720   24.5970 C   0  0  0  0  0  1  0  0  0  0  0  0
  -26.5260  -37.4930   23.7160 N   0  0  0  0  0  0  0  0  0  0  0  0
  -26.1650  -38.4260   23.8910 H   0  0  0  0  0  0  0  0  0  0  0  0
  -26.3720  -31.8110   24.9570 C   0  0  1  0  0  0  0  0  0  0  0  0
  -25.3360  -31.5570   26.0770 C   0  0  0  0  0  1  0  0  0  0  0  0
  -26.9060  -30.4380   24.4940 C   0  0  0  0  0  1  0  0  0  0  0  0
  -27.5790  -32.5670   25.5600 C   0  0  0  0  0  1  0  0  0  0  0  0
  1  7  1  0
  2  7  1  0
  2  4  2  0
  3 47  1  0
  4  3  1  0
  5  3  2  0
  5  6  1  0
  7  5  1  0
  8 16  1  0
  9 14  1  0
 10 11  1  0
 10  9  1  0
 12 11  1  0
 12 21  1  0
 12 13  1  0
 14  8  1  0
 14 13  1  0
 15  8  2  0
 16  4  1  0
 16 17  1  0
 18 19  2  0
 19 20  1  0
 19 38  1  0
 20 23  1  0
 21 18  1  0
 21 22  1  0
 22 20  2  0
 23 24  1  0
 24 25  2  0
 26 29  1  0
 26 25  1  0
 27 26  2  0
 28 27  1  0
 28 23  2  0
 29 30  1  0
 30 35  2  0
 30 31  1  0
 31 32  2  0
 32 33  1  0
 33 37  1  0
 34 33  2  0
 35 34  1  0
 36 35  1  0
 38 39  1  0
 39 42  1  0
 39 41  1  0
 40 38  2  0
 43 44  1  0
 43 18  1  0
 45 43  1  0
 47 48  1  0
 47 46  1  0
 48 49  1  0
 50  1  1  0
 50 51  1  0
 51 52  1  0
 51 53  1  0
 55 54  1  0
 55 51  1  0
 56 55  1  0
 56 57  1  0
 57 59  1  0
 58 69  2  0
 59 64  1  0
 60 68  1  0
 60 70  1  0
 61 67  1  0
 61 63  1  0
 62 68  1  0
 63 62  1  0
 64 63  2  0
 65 66  1  0
 65 59  2  0
 66 61  2  0
 67 60  1  0
 68 58  1  0
 70 72  2  0
 71 70  1  0
 73 71  1  0
 74 83  2  0
 74 79  1  0
 75 71  1  0
 75 79  1  0
 76 75  1  0
 77 78  1  0
 77 76  1  0
 78 74  1  0
 79 80  2  0
 80 81  1  0
 82 81  2  0
 83 82  1  0
 84 58  1  0
 84 85  1  0
 84 94  1  0
 85 88  1  0
 86 90  1  0
 86 85  1  0
 87 86  2  0
 90 89  1  0
 92 90  1  0
 92 93  1  0
 92 91  1  0
 94 97  1  1
 94 95  1  0
 96 94  1  0
M  ISO  4   8 100  16 100  56 101  57 101
M  END
>  <TORSDO>  (47) 
F 23

>  <SCORE>  (47) 
-9.464

>  <name>  (47) 
46

>  <ligand_id>  (47) 
46

>  <original_smiles>  (47) 
[H]OC([H])(c1c(N([H])C(=O)N2C([H])([H])C([H])([H])C([H])([H])C([H])(n3nc(-c4c([H])c([H])c(Oc5c([H])c([H])c(F)c([H])c5F)c([H])c4[H])c(C(=O)N([H])[H])c3N([H])[H])C2([H])[H])c([H])n(C([H])([H])C([H])([H])[N+]([H])([H])C([H])(C([H])([H])[H])C([H])([H])Oc2c([H])c([H])c3c(c2[H])C([H])([H])N(C(=O)C([H])(N([H])C(=O)C([H])(N([H])C([H])([H])[H])C([H])([H])[H])C(C([H])([H])[H])(C([H])([H])[H])C([H])([H])[H])C([H])(C(=O)N([H])C2([H])c4c([H])c([H])c([H])c([H])c4C([H])([H])C([H])([H])C2([H])[H])C3([H])[H])c1C([H])([H])[H])C([H])([H])[H]

>  <smiles>  (47) 
[H]OC([H])(c1c(N([H])C(=O)N2C([H])([H])C([H])([H])C([H])([H])C([H])(n3nc(-c4c([H])c([H])c(Oc5c([H])c([H])c(F)c([H])c5F)c([H])c4[H])c(C(=O)N([H])[H])c3N([H])[H])C2([H])[H])c([H])n(C([H])([H])C([H])([H])[N+]([H])([H])C([H])(C([H])([H])[H])C([H])([H])Oc2c([H])c([H])c3c(c2[H])C([H])([H])N(C(=O)C([H])(N([H])C(=O)C([H])(N([H])C([H])([H])[H])C([H])([H])[H])C(C([H])([H])[H])(C([H])([H])[H])C([H])([H])[H])C([H])(C(=O)N([H])C2([H])c4c([H])c([H])c([H])c([H])c4C([H])([H])C([H])([H])C2([H])[H])C3([H])[H])c1C([H])([H])[H])C([H])([H])[H]

$$$$
47:0:0
     RDKit          3D

 96104  0  0  1  0  0  0  0  0999 V2000
  -30.4660  -23.4070   20.0470 C   0  0  0  0  0  0  0  0  0  0  0  0
  -30.0570  -24.3510   20.9040 N   0  0  0  0  0  0  0  0  0  0  0  0
  -31.1060  -23.6750   19.0280 O   0  0  0  0  0  0  0  0  0  0  0  0
  -29.4890  -24.0630   21.6900 H   0  0  0  0  0  0  0  0  0  0  0  0
  -30.1410  -21.9470   20.3970 C   0  0  0  0  0  2  0  0  0  0  0  0
  -31.1820  -20.9560   19.8270 C   0  0  0  0  0  2  0  0  0  0  0  0
  -29.7570  -18.8710   19.8560 C   0  0  0  0  0  3  0  0  0  0  0  0
  -31.7000  -17.3740   21.2100 C   0  0  0  0  0  3  0  0  0  0  0  0
  -30.9590  -19.4980   20.2380 C   0  0  0  0  0  0  0  0  0  0  0  0
  -29.5200  -17.5100   20.1430 C   0  0  0  0  0  0  0  0  0  0  0  0
  -31.9320  -18.7420   20.9410 C   0  0  0  0  0  0  0  0  0  0  0  0
  -30.5110  -16.7320   20.7920 C   0  0  0  0  0  0  0  0  0  0  0  0
  -28.1850  -16.9260   19.7500 C   0  0  0  0  0  1  0  0  0  0  0  0
  -33.2530  -19.3450   21.3830 C   0  0  0  0  0  1  0  0  0  0  0  0
  -30.6750  -14.4640   20.0080 C   0  0  0  0  0  0  0  0  0  0  0  0
  -30.1420  -12.4340   18.6960 C   0  0  0  0  0  2  0  0  0  0  0  0
  -29.0980  -12.6980   17.5940 C   0  0  0  0  0  2  0  0  0  0  0  0
  -27.6720  -12.5400   18.1500 C   0  0  0  0  0  2  0  0  0  0  0  0
  -27.4610  -13.3200   19.4700 C   0  0  0  0  0  3  0  0  0  0  0  0
  -28.6050  -13.0560   20.4730 C   0  0  0  0  0  2  0  0  0  0  0  0
  -29.8930  -13.3580   19.8190 N   0  0  0  0  0  0  0  0  0  0  0  0
  -31.6430  -14.7010   19.2790 O   0  0  0  0  0  0  0  0  0  0  0  0
  -30.5220  -14.8570   22.3980 C   0  0  0  0  0  1  0  0  0  0  0  0
  -30.3510  -15.3210   21.0140 N   0  0  0  0  0  0  0  0  0  0  0  0
  -25.1300  -13.9170   20.3930 C   0  0  0  0  0  0  0  0  0  0  0  0
  -24.1020  -13.1370   20.8510 C   0  0  0  0  0  0  0  0  0  0  0  0
  -24.5640  -11.7880   20.7610 C   0  0  0  0  0  0  0  0  0  0  0  0
  -26.1550  -13.0420   20.0610 N   0  0  0  0  0  0  0  0  0  0  0  0
  -25.8230  -11.7560   20.3430 N   0  0  0  0  0  0  0  0  0  0  0  0
  -23.8610  -10.5220   20.9900 C   0  0  0  0  0  0  0  0  0  0  0  0
  -24.3560   -9.5570   21.8950 C   0  0  0  0  0  3  0  0  0  0  0  0
  -23.6510   -8.3540   22.1140 C   0  0  0  0  0  3  0  0  0  0  0  0
  -22.4380   -8.1090   21.4290 C   0  0  0  0  0  0  0  0  0  0  0  0
  -21.9630   -9.0610   20.5100 C   0  0  0  0  0  3  0  0  0  0  0  0
  -22.6670  -10.2560   20.2890 C   0  0  0  0  0  3  0  0  0  0  0  0
  -21.6990   -6.9580   21.5580 O   0  0  0  0  0  0  0  0  0  0  0  0
  -21.7060   -6.2260   22.7180 C   0  0  0  0  0  0  0  0  0  0  0  0
  -21.3450   -6.7910   23.9600 C   0  0  0  0  0  3  0  0  0  0  0  0
  -21.3000   -5.9840   25.1140 C   0  0  0  0  0  3  0  0  0  0  0  0
  -21.6060   -4.6130   25.0270 C   0  0  0  0  0  0  0  0  0  0  0  0
  -21.9600   -4.0470   23.7900 C   0  0  0  0  0  3  0  0  0  0  0  0
  -22.0060   -4.8510   22.6380 C   0  0  0  0  0  0  0  0  0  0  0  0
  -22.3270   -4.2960   21.4450 F   0  0  0  0  0  0  0  0  0  0  0  0
  -21.5550   -3.8360   26.1350 F   0  0  0  0  0  0  0  0  0  0  0  0
  -22.7330  -13.6060   21.2480 C   0  0  0  0  0  0  0  0  0  0  0  0
  -22.0970  -12.9110   22.1830 N   0  0  0  0  0  0  0  0  0  0  0  0
  -22.2410  -14.6240   20.7620 O   0  0  0  0  0  0  0  0  0  0  0  0
  -22.5160  -12.0930   22.6000 H   0  0  0  0  0  0  0  0  0  0  0  0
  -21.1790  -13.2010   22.4910 H   0  0  0  0  0  0  0  0  0  0  0  0
  -25.2630  -15.2870   20.2080 N   0  0  0  0  0  0  0  0  0  0  0  0
  -24.4960  -15.9280   20.3830 H   0  0  0  0  0  0  0  0  0  0  0  0
  -26.0420  -15.7180   19.7300 H   0  0  0  0  0  0  0  0  0  0  0  0
  -30.4670  -25.7590   20.8670 C   0  0  0  0  0  2  0  0  0  0  0  0
  -28.6620  -26.3940   22.5670 C   0  0  0  0  0  1  0  0  0  0  0  0
  -29.3200  -26.7310   21.2110 C   0  0  0  0  0  3  0  0  0  0  0  0
  -28.3850  -26.6710   20.1310 O   0  0  0  0  0  0  0  0  0  0  0  0
  -24.6220  -31.9060   23.2230 C   0  0  0  0  0  0  0  0  0  0  0  0
  -27.2630  -27.4700   20.1640 C   0  0  0  0  0  0  0  0  0  0  0  0
  -23.4050  -30.4940   21.5950 C   0  0  0  0  0  3  0  0  0  0  0  0
  -24.8560  -28.9510   20.1710 C   0  0  0  0  0  0  0  0  0  0  0  0
  -25.9240  -30.8660   21.3730 C   0  0  0  0  0  2  0  0  0  0  0  0
  -26.0120  -29.4900   20.7490 C   0  0  0  0  0  0  0  0  0  0  0  0
  -27.2190  -28.7600   20.7440 C   0  0  0  0  0  3  0  0  0  0  0  0
  -26.0940  -26.9470   19.5740 C   0  0  0  0  0  3  0  0  0  0  0  0
  -24.8900  -27.6750   19.5810 C   0  0  0  0  0  3  0  0  0  0  0  0
  -23.6070  -29.8010   20.2190 C   0  0  0  0  0  2  0  0  0  0  0  0
  -24.6690  -31.1020   22.1240 N   0  0  0  0  0  0  0  0  0  0  0  0
  -23.5470  -32.1820   23.7700 O   0  0  0  0  0  0  0  0  0  0  0  0
  -22.7610  -29.4800   22.5670 C   0  0  0  0  0  0  0  0  0  0  0  0
  -21.4360  -29.2950   22.4450 N   0  0  0  0  0  0  0  0  0  0  0  0
  -23.4480  -28.8610   23.3840 O   0  0  0  0  0  0  0  0  0  0  0  0
  -20.9430  -29.8450   21.7560 H   0  0  0  0  0  0  0  0  0  0  0  0
  -18.0650  -28.1020   22.9570 C   0  0  0  0  0  0  0  0  0  0  0  0
  -20.6230  -28.3620   23.2240 C   0  0  0  0  0  3  0  0  0  0  0  0
  -20.7260  -26.9260   22.6590 C   0  0  0  0  0  2  0  0  0  0  0  0
  -19.6230  -26.5970   21.6490 C   0  0  0  0  0  2  0  0  0  0  0  0
  -18.2420  -26.7470   22.2940 C   0  0  0  0  0  2  0  0  0  0  0  0
  -19.1840  -28.8670   23.3800 C   0  0  0  0  0  0  0  0  0  0  0  0
  -18.9680  -30.1370   23.9600 C   0  0  0  0  0  3  0  0  0  0  0  0
  -17.6630  -30.6400   24.1220 C   0  0  0  0  0  3  0  0  0  0  0  0
  -16.5580  -29.8720   23.7170 C   0  0  0  0  0  3  0  0  0  0  0  0
  -16.7610  -28.6060   23.1410 C   0  0  0  0  0  3  0  0  0  0  0  0
  -25.9150  -32.5380   23.8290 C   0  0  0  0  0  3  0  0  0  0  0  0
  -25.6070  -33.9330   24.1720 N   0  0  0  0  0  0  0  0  0  0  0  0
  -25.9320  -34.9900   23.4170 C   0  0  0  0  0  0  0  0  0  0  0  0
  -26.5930  -34.8940   22.3780 O   0  0  0  0  0  0  0  0  0  0  0  0
  -25.0210  -34.0820   24.9810 H   0  0  0  0  0  0  0  0  0  0  0  0
  -24.1980  -36.7790   23.0810 C   0  0  0  0  0  1  0  0  0  0  0  0
  -25.4440  -36.3740   23.8850 C   0  0  0  0  0  3  0  0  0  0  0  0
  -27.5810  -37.2550   24.7110 C   0  0  0  0  0  1  0  0  0  0  0  0
  -26.4730  -37.4290   23.7750 N   0  0  0  0  0  0  0  0  0  0  0  0
  -26.0680  -38.3480   23.9310 H   0  0  0  0  0  0  0  0  0  0  0  0
  -26.4580  -31.7580   25.0880 C   0  0  1  0  0  0  0  0  0  0  0  0
  -25.3840  -31.5040   26.1710 C   0  0  0  0  0  1  0  0  0  0  0  0
  -27.0430  -30.3880   24.6680 C   0  0  0  0  0  1  0  0  0  0  0  0
  -27.6150  -32.5520   25.7380 C   0  0  0  0  0  1  0  0  0  0  0  0
  1  5  1  0
  1  2  1  0
  2  4  1  0
  3  1  2  0
  6  9  1  0
  6  5  1  0
  7 10  2  0
  7  9  1  0
  9 11  2  0
 10 12  1  0
 11  8  1  0
 11 14  1  0
 12 24  1  0
 12  8  2  0
 13 10  1  0
 15 24  1  0
 16 21  1  0
 17 18  1  0
 17 16  1  0
 19 18  1  0
 19 28  1  0
 19 20  1  0
 21 15  1  0
 21 20  1  0
 22 15  2  0
 24 23  1  0
 25 26  2  0
 26 45  1  0
 27 26  1  0
 27 30  1  0
 28 29  1  0
 28 25  1  0
 29 27  2  0
 30 31  1  0
 31 32  2  0
 33 36  1  0
 33 32  1  0
 34 33  2  0
 35 34  1  0
 35 30  2  0
 36 37  1  0
 37 38  1  0
 38 39  2  0
 40 39  1  0
 40 44  1  0
 41 40  2  0
 42 37  2  0
 42 41  1  0
 43 42  1  0
 45 46  1  0
 46 49  1  0
 46 48  1  0
 47 45  2  0
 50 51  1  0
 50 25  1  0
 52 50  1  0
 53  2  1  0
 53 55  1  0
 55 54  1  0
 56 58  1  0
 56 55  1  0
 57 68  2  0
 58 63  1  0
 59 67  1  0
 59 69  1  0
 60 66  1  0
 60 62  1  0
 61 67  1  0
 62 61  1  0
 63 62  2  0
 64 65  1  0
 64 58  2  0
 65 60  2  0
 66 59  1  0
 67 57  1  0
 69 71  2  0
 70 69  1  0
 72 70  1  0
 73 82  2  0
 73 78  1  0
 74 70  1  0
 74 78  1  0
 75 74  1  0
 76 77  1  0
 76 75  1  0
 77 73  1  0
 78 79  2  0
 79 80  1  0
 81 80  2  0
 82 81  1  0
 83 57  1  0
 83 84  1  0
 83 93  1  0
 84 87  1  0
 85 89  1  0
 85 84  1  0
 86 85  2  0
 89 88  1  0
 91 89  1  0
 91 92  1  0
 91 90  1  0
 93 96  1  1
 93 94  1  0
 95 93  1  0
M  ISO  4  15 100  24 100  55 101  56 101
M  END
>  <TORSDO>  (48) 
F 21

>  <SCORE>  (48) 
-12.412

>  <name>  (48) 
47

>  <ligand_id>  (48) 
47

>  <original_smiles>  (48) 
[H]c1c([H])c([H])c2c(c1[H])C([H])([H])C([H])([H])C([H])([H])C2([H])N([H])C(=O)C1([H])N(C(=O)C([H])(N([H])C(=O)C([H])(N([H])C([H])([H])[H])C([H])([H])[H])C(C([H])([H])[H])(C([H])([H])[H])C([H])([H])[H])C([H])([H])c2c([H])c(OC([H])(C([H])([H])[H])C([H])([H])N([H])C(=O)C([H])([H])C([H])([H])c3c([H])c(C([H])([H])[H])c(N(C(=O)N4C([H])([H])C([H])([H])C([H])([H])C([H])(n5nc(-c6c([H])c([H])c(Oc7c([H])c([H])c(F)c([H])c7F)c([H])c6[H])c(C(=O)N([H])[H])c5N([H])[H])C4([H])[H])C([H])([H])[H])c([H])c3C([H])([H])[H])c([H])c([H])c2C1([H])[H]

>  <smiles>  (48) 
[H]c1c([H])c([H])c2c(c1[H])C([H])([H])C([H])([H])C([H])([H])C2([H])N([H])C(=O)C1([H])N(C(=O)C([H])(N([H])C(=O)C([H])(N([H])C([H])([H])[H])C([H])([H])[H])C(C([H])([H])[H])(C([H])([H])[H])C([H])([H])[H])C([H])([H])c2c([H])c(OC([H])(C([H])([H])[H])C([H])([H])N([H])C(=O)C([H])([H])C([H])([H])c3c([H])c(C([H])([H])[H])c(N(C(=O)N4C([H])([H])C([H])([H])C([H])([H])C([H])(n5nc(-c6c([H])c([H])c(Oc7c([H])c([H])c(F)c([H])c7F)c([H])c6[H])c(C(=O)N([H])[H])c5N([H])[H])C4([H])[H])C([H])([H])[H])c([H])c3C([H])([H])[H])c([H])c([H])c2C1([H])[H]

$$$$
48:0:0
     RDKit          3D

 90 98  0  0  1  0  0  0  0  0999 V2000
  -28.7450  -21.8530   19.5450 C   0  0  0  0  0  3  0  0  0  0  0  0
  -30.7800  -22.5120   18.7530 C   0  0  0  0  0  3  0  0  0  0  0  0
  -29.5100  -23.0500   19.2080 C   0  0  0  0  0  0  0  0  0  0  0  0
  -29.1760  -20.4290   19.4660 C   0  0  0  0  0  0  0  0  0  0  0  0
  -30.4820  -20.0050   18.9950 C   0  0  0  0  0  0  0  0  0  0  0  0
  -31.2130  -21.1550   18.6770 N   0  0  0  0  0  0  0  0  0  0  0  0
  -27.4600  -18.7300   18.6920 C   0  0  0  0  0  1  0  0  0  0  0  0
  -27.2010  -19.8570   20.9570 C   0  0  0  0  0  1  0  0  0  0  0  0
  -28.1880  -19.3470   19.8960 C   0  0  0  0  0  3  0  0  0  0  0  0
  -28.8270  -24.6440   19.0190 C   0  0  0  0  0  2  0  0  0  0  0  0
  -29.0480  -26.1390   19.6310 O   0  0  0  0  0  0  0  0  0  0  0  0
  -25.0170  -31.3820   23.2360 C   0  0  0  0  0  0  0  0  0  0  0  0
  -27.9860  -27.1810   19.6650 C   0  0  0  0  0  0  0  0  0  0  0  0
  -23.9680  -30.1600   21.3740 C   0  0  0  0  0  3  0  0  0  0  0  0
  -25.5650  -28.8810   19.7950 C   0  0  0  0  0  0  0  0  0  0  0  0
  -26.5150  -30.5620   21.3560 C   0  0  0  0  0  2  0  0  0  0  0  0
  -26.7030  -29.2720   20.5130 C   0  0  0  0  0  0  0  0  0  0  0  0
  -27.9090  -28.4440   20.4300 C   0  0  0  0  0  3  0  0  0  0  0  0
  -26.8110  -26.9480   18.9130 C   0  0  0  0  0  3  0  0  0  0  0  0
  -25.6420  -27.7430   18.9790 C   0  0  0  0  0  3  0  0  0  0  0  0
  -24.2830  -29.7000   19.9250 C   0  0  0  0  0  2  0  0  0  0  0  0
  -25.1850  -30.7210   22.0460 N   0  0  0  0  0  0  0  0  0  0  0  0
  -23.8960  -31.5220   23.7520 O   0  0  0  0  0  0  0  0  0  0  0  0
  -23.3200  -28.9910   22.1610 C   0  0  0  0  0  0  0  0  0  0  0  0
  -22.0250  -28.7210   21.9200 N   0  0  0  0  0  0  0  0  0  0  0  0
  -23.9930  -28.3330   22.9600 O   0  0  0  0  0  0  0  0  0  0  0  0
  -21.5310  -29.3110   21.2650 H   0  0  0  0  0  0  0  0  0  0  0  0
  -18.7490  -27.1650   22.0460 C   0  0  0  0  0  0  0  0  0  0  0  0
  -21.2520  -27.6240   22.5150 C   0  0  0  0  0  3  0  0  0  0  0  0
  -21.5240  -26.2900   21.7830 C   0  0  0  0  0  2  0  0  0  0  0  0
  -20.5190  -26.0000   20.6640 C   0  0  0  0  0  2  0  0  0  0  0  0
  -19.0960  -25.9340   21.2250 C   0  0  0  0  0  2  0  0  0  0  0  0
  -19.7610  -27.9670   22.6390 C   0  0  0  0  0  0  0  0  0  0  0  0
  -19.3830  -29.1150   23.3670 C   0  0  0  0  0  3  0  0  0  0  0  0
  -18.0280  -29.4660   23.5080 C   0  0  0  0  0  3  0  0  0  0  0  0
  -17.0300  -28.6630   22.9290 C   0  0  0  0  0  3  0  0  0  0  0  0
  -17.3910  -27.5130   22.2050 C   0  0  0  0  0  3  0  0  0  0  0  0
  -26.2220  -32.0080   23.9990 C   0  0  0  0  0  3  0  0  0  0  0  0
  -26.6200  -31.2010   25.2970 C   0  0  1  0  0  0  0  0  0  0  0  0
  -25.4260  -30.9060   26.2380 C   0  0  0  0  0  1  0  0  0  0  0  0
  -27.2700  -29.8490   24.9310 C   0  0  0  0  0  1  0  0  0  0  0  0
  -27.6770  -31.9940   26.1020 C   0  0  0  0  0  1  0  0  0  0  0  0
  -25.8650  -33.3930   24.3530 N   0  0  0  0  0  0  0  0  0  0  0  0
  -26.1940  -34.4770   23.6390 C   0  0  0  0  0  0  0  0  0  0  0  0
  -26.8940  -34.4180   22.6240 O   0  0  0  0  0  0  0  0  0  0  0  0
  -25.2450  -33.5100   25.1400 H   0  0  0  0  0  0  0  0  0  0  0  0
  -24.4050  -36.2210   23.3300 C   0  0  0  0  0  1  0  0  0  0  0  0
  -25.6660  -35.8420   24.1230 C   0  0  0  0  0  3  0  0  0  0  0  0
  -27.7670  -36.7980   24.9640 C   0  0  0  0  0  1  0  0  0  0  0  0
  -26.6610  -36.9320   24.0190 N   0  0  0  0  0  0  0  0  0  0  0  0
  -26.2230  -37.8370   24.1720 H   0  0  0  0  0  0  0  0  0  0  0  0
  -31.2650  -18.4490   18.9670 C   0  0  0  0  0  2  0  0  0  0  0  0
  -31.7680  -15.6620   19.4350 C   0  0  0  0  0  0  0  0  0  0  0  0
  -31.8340  -13.1180   18.9830 C   0  0  0  0  0  2  0  0  0  0  0  0
  -30.8560  -12.6690   17.8700 C   0  0  0  0  0  2  0  0  0  0  0  0
  -29.4560  -12.4050   18.4510 C   0  0  0  0  0  2  0  0  0  0  0  0
  -29.0150  -13.5180   19.4350 C   0  0  0  0  0  3  0  0  0  0  0  0
  -30.1180  -13.9080   20.4400 C   0  0  0  0  0  2  0  0  0  0  0  0
  -31.2740  -14.3500   19.6460 N   0  0  0  0  0  0  0  0  0  0  0  0
  -32.9660  -15.6920   19.1240 O   0  0  0  0  0  0  0  0  0  0  0  0
  -30.9500  -16.8840   19.3700 N   0  0  0  0  0  0  0  0  0  0  0  0
  -29.9800  -16.7250   19.5930 H   0  0  0  0  0  0  0  0  0  0  0  0
  -26.8140  -14.1060   20.5810 C   0  0  0  0  0  0  0  0  0  0  0  0
  -25.7570  -13.3470   20.9980 C   0  0  0  0  0  0  0  0  0  0  0  0
  -26.1160  -11.9890   20.7350 C   0  0  0  0  0  0  0  0  0  0  0  0
  -27.7470  -13.2140   20.0850 N   0  0  0  0  0  0  0  0  0  0  0  0
  -27.3490  -11.9250   20.2440 N   0  0  0  0  0  0  0  0  0  0  0  0
  -25.3290  -10.7540   20.8690 C   0  0  0  0  0  0  0  0  0  0  0  0
  -25.6190   -9.7980   21.8660 C   0  0  0  0  0  3  0  0  0  0  0  0
  -24.8340   -8.6310   21.9880 C   0  0  0  0  0  3  0  0  0  0  0  0
  -23.7450   -8.4110   21.1090 C   0  0  0  0  0  0  0  0  0  0  0  0
  -23.4770   -9.3560   20.1030 C   0  0  0  0  0  3  0  0  0  0  0  0
  -24.2620  -10.5150   19.9810 C   0  0  0  0  0  3  0  0  0  0  0  0
  -22.9440   -7.2960   21.1370 O   0  0  0  0  0  0  0  0  0  0  0  0
  -22.4200   -6.8160   22.3100 C   0  0  0  0  0  0  0  0  0  0  0  0
  -21.5860   -7.6040   23.1320 C   0  0  0  0  0  3  0  0  0  0  0  0
  -21.0120   -7.0480   24.2930 C   0  0  0  0  0  3  0  0  0  0  0  0
  -21.2630   -5.7050   24.6290 C   0  0  0  0  0  0  0  0  0  0  0  0
  -22.0870   -4.9160   23.8080 C   0  0  0  0  0  3  0  0  0  0  0  0
  -22.6630   -5.4690   22.6500 C   0  0  0  0  0  0  0  0  0  0  0  0
  -23.4390   -4.6980   21.8510 F   0  0  0  0  0  0  0  0  0  0  0  0
  -20.7050   -5.1670   25.7390 F   0  0  0  0  0  0  0  0  0  0  0  0
  -24.4460  -13.8620   21.5140 C   0  0  0  0  0  0  0  0  0  0  0  0
  -23.7990  -13.1120   22.4000 N   0  0  0  0  0  0  0  0  0  0  0  0
  -24.0090  -14.9590   21.1670 O   0  0  0  0  0  0  0  0  0  0  0  0
  -24.1700  -12.2220   22.6980 H   0  0  0  0  0  0  0  0  0  0  0  0
  -22.9240  -13.4330   22.7860 H   0  0  0  0  0  0  0  0  0  0  0  0
  -27.0490  -15.4770   20.5490 N   0  0  0  0  0  0  0  0  0  0  0  0
  -26.3440  -16.1460   20.8400 H   0  0  0  0  0  0  0  0  0  0  0  0
  -27.8560  -15.9130   20.1250 H   0  0  0  0  0  0  0  0  0  0  0  0
  2  3  1  0
  3  1  2  0
  4  1  1  0
  4  9  1  0
  5  4  2  0
  6  2  2  0
  6  5  1  0
  7  9  1  0
  9  8  1  0
 10  3  1  0
 10 11  1  0
 11 13  1  0
 12 23  2  0
 13 18  1  0
 14 22  1  0
 14 24  1  0
 15 21  1  0
 15 17  1  0
 16 22  1  0
 17 16  1  0
 18 17  2  0
 19 20  1  0
 19 13  2  0
 20 15  2  0
 21 14  1  0
 22 12  1  0
 24 26  2  0
 25 24  1  0
 27 25  1  0
 28 37  2  0
 28 33  1  0
 29 25  1  0
 29 33  1  0
 30 29  1  0
 31 32  1  0
 31 30  1  0
 32 28  1  0
 33 34  2  0
 34 35  1  0
 36 35  2  0
 37 36  1  0
 38 12  1  0
 38 43  1  0
 38 39  1  0
 39 42  1  1
 39 40  1  0
 41 39  1  0
 43 46  1  0
 44 48  1  0
 44 43  1  0
 45 44  2  0
 48 47  1  0
 50 48  1  0
 50 51  1  0
 50 49  1  0
 52  5  1  0
 52 61  1  0
 53 59  1  0
 54 59  1  0
 55 56  1  0
 55 54  1  0
 57 56  1  0
 57 66  1  0
 57 58  1  0
 59 58  1  0
 60 53  2  0
 61 53  1  0
 61 62  1  0
 63 64  2  0
 64 83  1  0
 65 68  1  0
 65 64  1  0
 66 67  1  0
 66 63  1  0
 67 65  2  0
 68 69  1  0
 69 70  2  0
 71 74  1  0
 71 70  1  0
 72 71  2  0
 73 72  1  0
 73 68  2  0
 74 75  1  0
 75 80  2  0
 75 76  1  0
 76 77  2  0
 77 78  1  0
 78 82  1  0
 79 78  2  0
 80 79  1  0
 81 80  1  0
 83 84  1  0
 84 86  1  0
 84 87  1  0
 85 83  2  0
 88 63  1  0
 88 89  1  0
 90 88  1  0
M  ISO  4  10 101  11 101  53 100  61 100
M  END
>  <TORSDO>  (49) 
F 19

>  <SCORE>  (49) 
-9.162

>  <name>  (49) 
48

>  <ligand_id>  (49) 
48

>  <original_smiles>  (49) 
[H]c1nc(C([H])([H])N([H])C(=O)N2C([H])([H])C([H])([H])C([H])([H])C([H])(n3nc(-c4c([H])c([H])c(Oc5c([H])c([H])c(F)c([H])c5F)c([H])c4[H])c(C(=O)N([H])[H])c3N([H])[H])C2([H])[H])c(C([H])(C([H])([H])[H])C([H])([H])[H])c([H])c1C([H])([H])Oc1c([H])c([H])c2c(c1[H])C([H])([H])N(C(=O)C([H])(N([H])C(=O)C([H])(N([H])C([H])([H])[H])C([H])([H])[H])C(C([H])([H])[H])(C([H])([H])[H])C([H])([H])[H])C([H])(C(=O)N([H])C1([H])c3c([H])c([H])c([H])c([H])c3C([H])([H])C([H])([H])C1([H])[H])C2([H])[H]

>  <smiles>  (49) 
[H]c1nc(C([H])([H])N([H])C(=O)N2C([H])([H])C([H])([H])C([H])([H])C([H])(n3nc(-c4c([H])c([H])c(Oc5c([H])c([H])c(F)c([H])c5F)c([H])c4[H])c(C(=O)N([H])[H])c3N([H])[H])C2([H])[H])c(C([H])(C([H])([H])[H])C([H])([H])[H])c([H])c1C([H])([H])Oc1c([H])c([H])c2c(c1[H])C([H])([H])N(C(=O)C([H])(N([H])C(=O)C([H])(N([H])C([H])([H])[H])C([H])([H])[H])C(C([H])([H])[H])(C([H])([H])[H])C([H])([H])[H])C([H])(C(=O)N([H])C1([H])c3c([H])c([H])c([H])c([H])c3C([H])([H])C([H])([H])C1([H])[H])C2([H])[H]

$$$$
49:0:0
     RDKit          3D

 89 97  0  0  1  0  0  0  0  0999 V2000
  -29.1700  -21.3150   19.7040 C   0  0  0  0  0  3  0  0  0  0  0  0
  -29.8100  -22.7630   21.4790 C   0  0  0  0  0  3  0  0  0  0  0  0
  -29.0880  -22.7560   20.2720 C   0  0  0  0  0  0  0  0  0  0  0  0
  -29.8740  -20.0530   20.2650 C   0  0  0  0  0  0  0  0  0  0  0  0
  -30.4980  -20.4350   21.4770 C   0  0  0  0  0  0  0  0  0  0  0  0
  -31.3120  -19.4210   22.2600 C   0  0  0  0  0  1  0  0  0  0  0  0
  -30.4610  -21.6890   22.0250 N   0  0  0  0  0  0  0  0  0  0  0  0
  -26.7850  -23.6920   19.5050 C   0  0  0  0  0  1  0  0  0  0  0  0
  -28.2080  -24.2020   19.7530 C   0  0  0  0  0  3  0  0  0  0  0  0
  -28.2290  -25.8400   20.1850 O   0  0  0  0  0  0  0  0  0  0  0  0
  -24.6790  -31.8980   23.1280 C   0  0  0  0  0  0  0  0  0  0  0  0
  -27.2380  -26.9880   20.0660 C   0  0  0  0  0  0  0  0  0  0  0  0
  -23.4900  -30.5070   21.4900 C   0  0  0  0  0  3  0  0  0  0  0  0
  -24.9460  -28.9300   20.0510 C   0  0  0  0  0  0  0  0  0  0  0  0
  -26.0640  -30.7090   21.3540 C   0  0  0  0  0  2  0  0  0  0  0  0
  -26.1380  -29.3030   20.6820 C   0  0  0  0  0  0  0  0  0  0  0  0
  -27.2700  -28.3540   20.6710 C   0  0  0  0  0  3  0  0  0  0  0  0
  -26.0170  -26.8230   19.3610 C   0  0  0  0  0  3  0  0  0  0  0  0
  -24.9180  -27.7130   19.3710 C   0  0  0  0  0  3  0  0  0  0  0  0
  -23.7250  -29.8480   20.1070 C   0  0  0  0  0  2  0  0  0  0  0  0
  -24.7670  -31.0660   22.0420 N   0  0  0  0  0  0  0  0  0  0  0  0
  -23.5870  -32.1800   23.6490 O   0  0  0  0  0  0  0  0  0  0  0  0
  -22.8020  -29.4970   22.4450 C   0  0  0  0  0  0  0  0  0  0  0  0
  -21.4760  -29.3070   22.3050 N   0  0  0  0  0  0  0  0  0  0  0  0
  -23.4690  -28.8840   23.2830 O   0  0  0  0  0  0  0  0  0  0  0  0
  -20.9920  -29.8470   21.6010 H   0  0  0  0  0  0  0  0  0  0  0  0
  -18.1140  -28.0110   22.7550 C   0  0  0  0  0  0  0  0  0  0  0  0
  -20.6590  -28.3590   23.0720 C   0  0  0  0  0  3  0  0  0  0  0  0
  -20.8170  -26.9220   22.5250 C   0  0  0  0  0  2  0  0  0  0  0  0
  -19.7490  -26.5480   21.4920 C   0  0  0  0  0  2  0  0  0  0  0  0
  -18.3480  -26.6590   22.1020 C   0  0  0  0  0  2  0  0  0  0  0  0
  -19.2000  -28.8160   23.1960 C   0  0  0  0  0  0  0  0  0  0  0  0
  -18.9270  -30.0750   23.7710 C   0  0  0  0  0  3  0  0  0  0  0  0
  -17.6030  -30.5330   23.9100 C   0  0  0  0  0  3  0  0  0  0  0  0
  -16.5320  -29.7280   23.4870 C   0  0  0  0  0  3  0  0  0  0  0  0
  -16.7880  -28.4690   22.9140 C   0  0  0  0  0  3  0  0  0  0  0  0
  -25.9450  -32.5500   23.7610 C   0  0  0  0  0  3  0  0  0  0  0  0
  -25.6160  -33.9470   24.0970 N   0  0  0  0  0  0  0  0  0  0  0  0
  -25.9410  -35.0130   23.3530 C   0  0  0  0  0  0  0  0  0  0  0  0
  -26.6110  -34.9220   22.3220 O   0  0  0  0  0  0  0  0  0  0  0  0
  -25.0290  -34.0930   24.9050 H   0  0  0  0  0  0  0  0  0  0  0  0
  -24.2110  -36.8100   23.0180 C   0  0  0  0  0  1  0  0  0  0  0  0
  -25.4510  -36.3960   23.8280 C   0  0  0  0  0  3  0  0  0  0  0  0
  -27.5720  -37.2860   24.6890 C   0  0  0  0  0  1  0  0  0  0  0  0
  -26.4810  -37.4550   23.7340 N   0  0  0  0  0  0  0  0  0  0  0  0
  -26.0700  -38.3730   23.8840 H   0  0  0  0  0  0  0  0  0  0  0  0
  -26.4530  -31.7880   25.0480 C   0  0  1  0  0  0  0  0  0  0  0  0
  -25.3480  -31.5480   26.1030 C   0  0  0  0  0  1  0  0  0  0  0  0
  -27.0540  -30.4120   24.6860 C   0  0  0  0  0  1  0  0  0  0  0  0
  -27.5910  -32.5970   25.7170 C   0  0  0  0  0  1  0  0  0  0  0  0
  -30.1420  -18.4200   19.6200 C   0  0  0  0  0  2  0  0  0  0  0  0
  -30.7740  -15.5230   20.0190 C   0  0  0  0  0  0  0  0  0  0  0  0
  -30.7310  -13.0460   19.2250 C   0  0  0  0  0  2  0  0  0  0  0  0
  -29.7900  -12.7910   18.0170 C   0  0  0  0  0  2  0  0  0  0  0  0
  -28.3470  -12.5360   18.4790 C   0  0  0  0  0  2  0  0  0  0  0  0
  -27.9160  -13.5290   19.5850 C   0  0  0  0  0  3  0  0  0  0  0  0
  -28.9810  -13.7140   20.6930 C   0  0  0  0  0  2  0  0  0  0  0  0
  -30.2020  -14.2120   20.0350 N   0  0  0  0  0  0  0  0  0  0  0  0
  -31.9750  -15.5010   19.7150 O   0  0  0  0  0  0  0  0  0  0  0  0
  -30.0320  -16.8160   20.1460 N   0  0  0  0  0  0  0  0  0  0  0  0
  -29.0960  -16.6190   20.4720 H   0  0  0  0  0  0  0  0  0  0  0  0
  -25.5720  -14.1250   20.3930 C   0  0  0  0  0  0  0  0  0  0  0  0
  -24.5040  -13.3650   20.7780 C   0  0  0  0  0  0  0  0  0  0  0  0
  -24.9430  -12.0070   20.7240 C   0  0  0  0  0  0  0  0  0  0  0  0
  -26.5930  -13.2320   20.1180 N   0  0  0  0  0  0  0  0  0  0  0  0
  -26.2280  -11.9500   20.3850 N   0  0  0  0  0  0  0  0  0  0  0  0
  -24.1950  -10.7560   20.9170 C   0  0  0  0  0  0  0  0  0  0  0  0
  -24.5980   -9.7900   21.8640 C   0  0  0  0  0  3  0  0  0  0  0  0
  -23.8490   -8.6070   22.0460 C   0  0  0  0  0  3  0  0  0  0  0  0
  -22.6790   -8.3830   21.2810 C   0  0  0  0  0  0  0  0  0  0  0  0
  -22.2950   -9.3360   20.3220 C   0  0  0  0  0  3  0  0  0  0  0  0
  -23.0450  -10.5110   20.1390 C   0  0  0  0  0  3  0  0  0  0  0  0
  -21.9010   -7.2530   21.3750 O   0  0  0  0  0  0  0  0  0  0  0  0
  -21.7880   -6.5500   22.5470 C   0  0  0  0  0  0  0  0  0  0  0  0
  -21.2780   -7.1420   23.7240 C   0  0  0  0  0  3  0  0  0  0  0  0
  -21.1140   -6.3650   24.8900 C   0  0  0  0  0  3  0  0  0  0  0  0
  -21.4460   -4.9970   24.8760 C   0  0  0  0  0  0  0  0  0  0  0  0
  -21.9470   -4.4040   23.7040 C   0  0  0  0  0  3  0  0  0  0  0  0
  -22.1140   -5.1790   22.5420 C   0  0  0  0  0  0  0  0  0  0  0  0
  -22.5760   -4.5980   21.4090 F   0  0  0  0  0  0  0  0  0  0  0  0
  -21.2810   -4.2480   25.9920 F   0  0  0  0  0  0  0  0  0  0  0  0
  -23.1210  -13.8650   21.0760 C   0  0  0  0  0  0  0  0  0  0  0  0
  -22.4000  -13.1880   21.9620 N   0  0  0  0  0  0  0  0  0  0  0  0
  -22.6910  -14.8950   20.5580 O   0  0  0  0  0  0  0  0  0  0  0  0
  -22.7600  -12.3570   22.4070 H   0  0  0  0  0  0  0  0  0  0  0  0
  -21.4690  -13.5030   22.1960 H   0  0  0  0  0  0  0  0  0  0  0  0
  -25.7560  -15.4930   20.2180 N   0  0  0  0  0  0  0  0  0  0  0  0
  -25.0110  -16.1640   20.3700 H   0  0  0  0  0  0  0  0  0  0  0  0
  -26.5890  -15.9070   19.8210 H   0  0  0  0  0  0  0  0  0  0  0  0
  1  4  2  0
  1  3  1  0
  2  7  1  0
  3  2  2  0
  4  5  1  0
  5  7  2  0
  5  6  1  0
  9  8  1  0
  9 10  1  0
  9  3  1  0
 11 22  2  0
 12 10  1  0
 12 17  1  0
 13 21  1  0
 13 23  1  0
 14 20  1  0
 14 16  1  0
 15 21  1  0
 16 15  1  0
 17 16  2  0
 18 19  1  0
 18 12  2  0
 19 14  2  0
 20 13  1  0
 21 11  1  0
 23 25  2  0
 24 23  1  0
 26 24  1  0
 27 36  2  0
 27 32  1  0
 28 24  1  0
 28 32  1  0
 29 28  1  0
 30 31  1  0
 30 29  1  0
 31 27  1  0
 32 33  2  0
 33 34  1  0
 35 34  2  0
 36 35  1  0
 37 11  1  0
 37 38  1  0
 37 47  1  0
 38 41  1  0
 39 43  1  0
 39 38  1  0
 40 39  2  0
 43 42  1  0
 45 43  1  0
 45 46  1  0
 45 44  1  0
 47 50  1  1
 47 48  1  0
 49 47  1  0
 51 60  1  0
 51  4  1  0
 52 58  1  0
 52 60  1  0
 53 58  1  0
 54 55  1  0
 54 53  1  0
 56 55  1  0
 56 65  1  0
 56 57  1  0
 58 57  1  0
 59 52  2  0
 60 61  1  0
 62 63  2  0
 63 82  1  0
 64 63  1  0
 64 67  1  0
 65 66  1  0
 65 62  1  0
 66 64  2  0
 67 68  1  0
 68 69  2  0
 70 73  1  0
 70 69  1  0
 71 70  2  0
 72 71  1  0
 72 67  2  0
 73 74  1  0
 74 75  1  0
 75 76  2  0
 77 76  1  0
 77 81  1  0
 78 77  2  0
 79 74  2  0
 79 78  1  0
 80 79  1  0
 82 83  1  0
 83 86  1  0
 83 85  1  0
 84 82  2  0
 87 88  1  0
 87 62  1  0
 89 87  1  0
M  ISO  4   9 101  10 101  52 100  60 100
M  END
>  <TORSDO>  (50) 
F 18

>  <SCORE>  (50) 
-16.584

>  <name>  (50) 
49

>  <ligand_id>  (50) 
49

>  <original_smiles>  (50) 
[H]c1nc(C([H])([H])[H])c(C([H])([H])N([H])C(=O)N2C([H])([H])C([H])([H])C([H])([H])C([H])(n3nc(-c4c([H])c([H])c(Oc5c([H])c([H])c(F)c([H])c5F)c([H])c4[H])c(C(=O)N([H])[H])c3N([H])[H])C2([H])[H])c([H])c1C([H])(Oc1c([H])c([H])c2c(c1[H])C([H])([H])N(C(=O)C([H])(N([H])C(=O)C([H])(N([H])C([H])([H])[H])C([H])([H])[H])C(C([H])([H])[H])(C([H])([H])[H])C([H])([H])[H])C([H])(C(=O)N([H])C1([H])c3c([H])c([H])c([H])c([H])c3C([H])([H])C([H])([H])C1([H])[H])C2([H])[H])C([H])([H])[H]

>  <smiles>  (50) 
[H]c1nc(C([H])([H])[H])c(C([H])([H])N([H])C(=O)N2C([H])([H])C([H])([H])C([H])([H])C([H])(n3nc(-c4c([H])c([H])c(Oc5c([H])c([H])c(F)c([H])c5F)c([H])c4[H])c(C(=O)N([H])[H])c3N([H])[H])C2([H])[H])c([H])c1C([H])(Oc1c([H])c([H])c2c(c1[H])C([H])([H])N(C(=O)C([H])(N([H])C(=O)C([H])(N([H])C([H])([H])[H])C([H])([H])[H])C(C([H])([H])[H])(C([H])([H])[H])C([H])([H])[H])C([H])(C(=O)N([H])C1([H])c3c([H])c([H])c([H])c([H])c3C([H])([H])C([H])([H])C1([H])[H])C2([H])[H])C([H])([H])[H]

$$$$
50:0:0
     RDKit          3D

 96106  0  0  1  0  0  0  0  0999 V2000
  -33.3050  -20.9580   19.8890 C   0  0  0  0  0  3  0  0  0  0  0  0
  -32.7640  -22.2460   19.9590 C   0  0  0  0  0  3  0  0  0  0  0  0
  -32.4650  -19.8400   20.0240 C   0  0  0  0  0  3  0  0  0  0  0  0
  -31.3780  -22.4070   20.1150 C   0  0  0  0  0  3  0  0  0  0  0  0
  -31.0660  -19.9710   20.2150 C   0  0  0  0  0  0  0  0  0  0  0  0
  -30.4980  -21.2970   20.1780 C   0  0  0  0  0  0  0  0  0  0  0  0
  -30.6770  -14.5470   20.2870 C   0  0  0  0  0  0  0  0  0  0  0  0
  -30.3540  -12.3780   19.1550 C   0  0  0  0  0  2  0  0  0  0  0  0
  -29.3900  -12.6170   17.9710 C   0  0  0  0  0  2  0  0  0  0  0  0
  -27.9160  -12.5000   18.4250 C   0  0  0  0  0  2  0  0  0  0  0  0
  -27.6150  -13.2890   19.7280 C   0  0  0  0  0  3  0  0  0  0  0  0
  -28.7060  -13.0510   20.7980 C   0  0  0  0  0  2  0  0  0  0  0  0
  -30.0060  -13.3630   20.1870 N   0  0  0  0  0  0  0  0  0  0  0  0
  -31.8370  -14.6840   19.8910 O   0  0  0  0  0  0  0  0  0  0  0  0
  -30.0910  -17.7970   19.2100 C   0  0  0  0  0  2  0  0  0  0  0  0
  -30.9120  -17.7480   21.5510 C   0  0  0  0  0  2  0  0  0  0  0  0
  -29.3360  -16.4650   19.4890 C   0  0  0  0  0  2  0  0  0  0  0  0
  -30.1160  -16.4340   21.8010 C   0  0  0  0  0  2  0  0  0  0  0  0
  -30.2670  -18.6640   20.4760 C   0  0  0  0  0  3  0  0  0  0  0  0
  -29.9200  -15.6440   20.5740 N   0  0  0  0  0  0  0  0  0  0  0  0
  -25.2270  -13.8690   20.4930 C   0  0  0  0  0  0  0  0  0  0  0  0
  -24.1730  -13.0870   20.8790 C   0  0  0  0  0  0  0  0  0  0  0  0
  -24.6420  -11.7390   20.8250 C   0  0  0  0  0  0  0  0  0  0  0  0
  -26.2750  -12.9990   20.2360 N   0  0  0  0  0  0  0  0  0  0  0  0
  -25.9270  -11.7100   20.4890 N   0  0  0  0  0  0  0  0  0  0  0  0
  -23.9270  -10.4720   21.0190 C   0  0  0  0  0  0  0  0  0  0  0  0
  -24.3770   -9.5040   21.9440 C   0  0  0  0  0  3  0  0  0  0  0  0
  -23.6640   -8.3000   22.1240 C   0  0  0  0  0  3  0  0  0  0  0  0
  -22.4830   -8.0560   21.3840 C   0  0  0  0  0  0  0  0  0  0  0  0
  -22.0540   -9.0140   20.4490 C   0  0  0  0  0  3  0  0  0  0  0  0
  -22.7660  -10.2100   20.2670 C   0  0  0  0  0  3  0  0  0  0  0  0
  -21.7360   -6.9090   21.4800 O   0  0  0  0  0  0  0  0  0  0  0  0
  -21.7010   -6.1630   22.6310 C   0  0  0  0  0  0  0  0  0  0  0  0
  -21.2650   -6.7080   23.8570 C   0  0  0  0  0  3  0  0  0  0  0  0
  -21.1800   -5.8890   25.0020 C   0  0  0  0  0  3  0  0  0  0  0  0
  -21.5190   -4.5260   24.9200 C   0  0  0  0  0  0  0  0  0  0  0  0
  -21.9450   -3.9790   23.6970 C   0  0  0  0  0  3  0  0  0  0  0  0
  -22.0330   -4.7960   22.5560 C   0  0  0  0  0  0  0  0  0  0  0  0
  -22.4290   -4.2590   21.3760 F   0  0  0  0  0  0  0  0  0  0  0  0
  -21.4270   -3.7380   26.0170 F   0  0  0  0  0  0  0  0  0  0  0  0
  -22.7800  -13.5550   21.1830 C   0  0  0  0  0  0  0  0  0  0  0  0
  -22.0720  -12.8480   22.0580 N   0  0  0  0  0  0  0  0  0  0  0  0
  -22.3270  -14.5860   20.6840 O   0  0  0  0  0  0  0  0  0  0  0  0
  -22.4500  -12.0180   22.4910 H   0  0  0  0  0  0  0  0  0  0  0  0
  -21.1360  -13.1430   22.3000 H   0  0  0  0  0  0  0  0  0  0  0  0
  -25.3790  -15.2430   20.3220 N   0  0  0  0  0  0  0  0  0  0  0  0
  -24.6190  -15.9000   20.4700 H   0  0  0  0  0  0  0  0  0  0  0  0
  -26.2280  -15.6900   20.0060 H   0  0  0  0  0  0  0  0  0  0  0  0
  -28.9740  -21.5830   20.1750 C   0  0  0  0  0  2  0  0  0  0  0  0
  -28.3830  -25.4300   17.9880 C   0  0  0  0  0  2  0  0  0  0  0  0
  -28.2530  -24.1660   20.2640 C   0  0  0  0  0  2  0  0  0  0  0  0
  -28.7800  -24.0800   17.3500 C   0  0  0  0  0  2  0  0  0  0  0  0
  -28.6570  -25.4720   19.5100 C   0  0  0  0  0  3  0  0  0  0  0  0
  -28.4660  -22.8710   19.4090 C   0  0  0  0  0  3  0  0  0  0  0  0
  -29.3070  -23.1450   18.2890 O   0  0  0  0  0  0  0  0  0  0  0  0
  -28.4170  -26.7360   20.1890 O   0  0  0  0  0  0  0  0  0  0  0  0
  -24.5780  -31.9250   23.2520 C   0  0  0  0  0  0  0  0  0  0  0  0
  -27.2100  -27.4220   20.1960 C   0  0  0  0  0  0  0  0  0  0  0  0
  -23.3700  -30.5140   21.6240 C   0  0  0  0  0  3  0  0  0  0  0  0
  -24.8140  -28.9520   20.2190 C   0  0  0  0  0  0  0  0  0  0  0  0
  -25.9020  -30.8540   21.4250 C   0  0  0  0  0  2  0  0  0  0  0  0
  -25.9770  -29.4750   20.7910 C   0  0  0  0  0  0  0  0  0  0  0  0
  -27.1770  -28.7190   20.7690 C   0  0  0  0  0  3  0  0  0  0  0  0
  -26.0080  -26.8980   19.6720 C   0  0  0  0  0  3  0  0  0  0  0  0
  -24.8240  -27.6620   19.6580 C   0  0  0  0  0  3  0  0  0  0  0  0
  -23.5760  -29.8220   20.2520 C   0  0  0  0  0  2  0  0  0  0  0  0
  -24.6350  -31.1140   22.1570 N   0  0  0  0  0  0  0  0  0  0  0  0
  -23.4950  -32.2060   23.7850 O   0  0  0  0  0  0  0  0  0  0  0  0
  -22.7100  -29.5050   22.5930 C   0  0  0  0  0  0  0  0  0  0  0  0
  -21.3870  -29.3140   22.4540 N   0  0  0  0  0  0  0  0  0  0  0  0
  -23.3850  -28.8930   23.4240 O   0  0  0  0  0  0  0  0  0  0  0  0
  -20.9030  -29.8520   21.7480 H   0  0  0  0  0  0  0  0  0  0  0  0
  -18.0140  -28.1060   22.9320 C   0  0  0  0  0  0  0  0  0  0  0  0
  -20.5670  -28.3860   23.2310 C   0  0  0  0  0  3  0  0  0  0  0  0
  -20.6900  -26.9450   22.6840 C   0  0  0  0  0  2  0  0  0  0  0  0
  -19.6030  -26.5980   21.6610 C   0  0  0  0  0  2  0  0  0  0  0  0
  -18.2100  -26.7450   22.2820 C   0  0  0  0  0  2  0  0  0  0  0  0
  -19.1220  -28.8820   23.3630 C   0  0  0  0  0  0  0  0  0  0  0  0
  -18.8880  -30.1540   23.9300 C   0  0  0  0  0  3  0  0  0  0  0  0
  -17.5790  -30.6500   24.0700 C   0  0  0  0  0  3  0  0  0  0  0  0
  -16.4850  -29.8710   23.6560 C   0  0  0  0  0  3  0  0  0  0  0  0
  -16.7030  -28.6010   23.0920 C   0  0  0  0  0  3  0  0  0  0  0  0
  -25.8630  -32.5590   23.8670 C   0  0  0  0  0  3  0  0  0  0  0  0
  -25.5580  -33.9620   24.1790 N   0  0  0  0  0  0  0  0  0  0  0  0
  -25.8980  -35.0050   23.4100 C   0  0  0  0  0  0  0  0  0  0  0  0
  -26.5720  -34.8870   22.3830 O   0  0  0  0  0  0  0  0  0  0  0  0
  -24.9620  -34.1300   24.9780 H   0  0  0  0  0  0  0  0  0  0  0  0
  -24.1810  -36.8030   23.0190 C   0  0  0  0  0  1  0  0  0  0  0  0
  -25.4120  -36.4010   23.8480 C   0  0  0  0  0  3  0  0  0  0  0  0
  -27.5400  -37.2830   24.6940 C   0  0  0  0  0  1  0  0  0  0  0  0
  -26.4500  -37.4480   23.7370 N   0  0  0  0  0  0  0  0  0  0  0  0
  -26.0470  -38.3720   23.8720 H   0  0  0  0  0  0  0  0  0  0  0  0
  -26.3780  -31.8010   25.1520 C   0  0  1  0  0  0  0  0  0  0  0  0
  -25.2830  -31.5750   26.2210 C   0  0  0  0  0  1  0  0  0  0  0  0
  -26.9630  -30.4190   24.7810 C   0  0  0  0  0  1  0  0  0  0  0  0
  -27.5270  -32.6020   25.8080 C   0  0  0  0  0  1  0  0  0  0  0  0
  1  2  2  0
  1  3  1  0
  2  4  1  0
  3  5  2  0
  4  6  2  0
  6  5  1  0
  7 20  1  0
  8 13  1  0
  9 10  1  0
  9  8  1  0
 11 10  1  0
 11 24  1  0
 11 12  1  0
 13  7  1  0
 13 12  1  0
 14  7  2  0
 15 17  1  0
 15 19  1  0
 16 18  1  0
 17 20  1  0
 19  5  1  0
 19 16  1  0
 20 18  1  0
 21 22  2  0
 22 41  1  0
 23 22  1  0
 23 26  1  0
 24 25  1  0
 24 21  1  0
 25 23  2  0
 26 27  1  0
 27 28  2  0
 29 32  1  0
 29 28  1  0
 30 29  2  0
 31 30  1  0
 31 26  2  0
 32 33  1  0
 33 34  1  0
 34 35  2  0
 36 35  1  0
 36 40  1  0
 37 36  2  0
 38 33  2  0
 38 37  1  0
 39 38  1  0
 41 42  1  0
 42 45  1  0
 42 44  1  0
 43 41  2  0
 46 47  1  0
 46 21  1  0
 48 46  1  0
 49  6  1  0
 50 53  1  0
 52 50  1  0
 52 55  1  0
 53 56  1  0
 53 51  1  0
 54 49  1  0
 54 51  1  0
 55 54  1  0
 56 58  1  0
 57 68  2  0
 58 63  1  0
 59 67  1  0
 59 69  1  0
 60 66  1  0
 60 62  1  0
 61 67  1  0
 62 61  1  0
 63 62  2  0
 64 58  2  0
 65 64  1  0
 65 60  2  0
 66 59  1  0
 67 57  1  0
 69 71  2  0
 70 69  1  0
 72 70  1  0
 73 82  2  0
 73 78  1  0
 74 70  1  0
 74 78  1  0
 75 74  1  0
 76 77  1  0
 76 75  1  0
 77 73  1  0
 78 79  2  0
 79 80  1  0
 81 80  2  0
 82 81  1  0
 83 57  1  0
 83 84  1  0
 83 93  1  0
 84 87  1  0
 85 89  1  0
 85 84  1  0
 86 85  2  0
 89 88  1  0
 91 89  1  0
 91 92  1  0
 91 90  1  0
 93 96  1  1
 93 94  1  0
 95 93  1  0
M  ISO  4   7 100  20 100  53 101  56 101
M  END
>  <TORSDO>  (51) 
F 18

>  <SCORE>  (51) 
-15.118

>  <name>  (51) 
50

>  <ligand_id>  (51) 
50

>  <original_smiles>  (51) 
[H]c1c([H])c([H])c2c(c1[H])C([H])([H])C([H])([H])C([H])([H])C2([H])N([H])C(=O)C1([H])N(C(=O)C([H])(N([H])C(=O)C([H])(N([H])C([H])([H])[H])C([H])([H])[H])C(C([H])([H])[H])(C([H])([H])[H])C([H])([H])[H])C([H])([H])c2c([H])c(OC3([H])C([H])([H])C([H])([H])OC([H])(C([H])([H])c4c([H])c([H])c([H])c([H])c4C4([H])C([H])([H])C([H])([H])N(C(=O)N5C([H])([H])C([H])([H])C([H])([H])C([H])(n6nc(-c7c([H])c([H])c(Oc8c([H])c([H])c(F)c([H])c8F)c([H])c7[H])c(C(=O)N([H])[H])c6N([H])[H])C5([H])[H])C([H])([H])C4([H])[H])C3([H])[H])c([H])c([H])c2C1([H])[H]

>  <smiles>  (51) 
[H]c1c([H])c([H])c2c(c1[H])C([H])([H])C([H])([H])C([H])([H])C2([H])N([H])C(=O)C1([H])N(C(=O)C([H])(N([H])C(=O)C([H])(N([H])C([H])([H])[H])C([H])([H])[H])C(C([H])([H])[H])(C([H])([H])[H])C([H])([H])[H])C([H])([H])c2c([H])c(OC3([H])C([H])([H])C([H])([H])OC([H])(C([H])([H])c4c([H])c([H])c([H])c([H])c4C4([H])C([H])([H])C([H])([H])N(C(=O)N5C([H])([H])C([H])([H])C([H])([H])C([H])(n6nc(-c7c([H])c([H])c(Oc8c([H])c([H])c(F)c([H])c8F)c([H])c7[H])c(C(=O)N([H])[H])c6N([H])[H])C5([H])[H])C([H])([H])C4([H])[H])C3([H])[H])c([H])c([H])c2C1([H])[H]

$$$$
51:0:0
     RDKit          3D

 94102  0  0  1  0  0  0  0  0999 V2000
  -30.2740  -20.0070   21.4330 C   0  0  0  0  0  2  0  0  0  0  0  0
  -28.4830  -20.8370   19.4760 C   0  0  0  0  0  2  0  0  0  0  0  0
  -28.8670  -21.9650   20.5440 C   0  0  0  0  0  3  0  0  0  0  0  0
  -29.8470  -18.8830   20.4080 C   0  0  0  0  0  3  0  0  0  0  0  0
  -30.2060  -21.4530   20.9940 N   0  0  0  0  0  0  0  0  0  0  0  0
  -28.5080  -19.3760   19.9380 N   0  0  0  0  0  4  0  0  0  0  0  0
  -28.2140  -18.8060   19.1630 H   0  0  0  0  0  0  0  0  0  0  0  0
  -27.8330  -19.2690   20.6720 H   0  0  0  0  0  0  0  0  0  0  0  0
  -32.4230  -22.1720   21.7750 C   0  0  0  0  0  1  0  0  0  0  0  0
  -30.4530  -22.2080   23.4060 C   0  0  0  0  0  1  0  0  0  0  0  0
  -30.9050  -22.3460   21.9370 C   0  0  0  0  0  3  0  0  0  0  0  0
  -28.8470  -23.5460   19.9850 C   0  0  0  0  0  2  0  0  0  0  0  0
  -28.2080  -24.8780   22.1650 C   0  0  0  0  0  1  0  0  0  0  0  0
  -28.0310  -24.8260   20.6440 C   0  0  0  0  0  3  0  0  0  0  0  0
  -28.2580  -26.2750   20.2190 O   0  0  0  0  0  0  0  0  0  0  0  0
  -24.5910  -31.8570   23.2360 C   0  0  0  0  0  0  0  0  0  0  0  0
  -27.1730  -27.1990   20.2050 C   0  0  0  0  0  0  0  0  0  0  0  0
  -23.3880  -30.4500   21.6060 C   0  0  0  0  0  3  0  0  0  0  0  0
  -24.8350  -28.8820   20.1830 C   0  0  0  0  0  0  0  0  0  0  0  0
  -25.9350  -30.7390   21.4290 C   0  0  0  0  0  2  0  0  0  0  0  0
  -26.0090  -29.3490   20.7860 C   0  0  0  0  0  0  0  0  0  0  0  0
  -27.1840  -28.5210   20.7800 C   0  0  0  0  0  3  0  0  0  0  0  0
  -25.9770  -26.8130   19.5650 C   0  0  0  0  0  3  0  0  0  0  0  0
  -24.8240  -27.6250   19.5590 C   0  0  0  0  0  3  0  0  0  0  0  0
  -23.6050  -29.7710   20.2290 C   0  0  0  0  0  2  0  0  0  0  0  0
  -24.6570  -31.0360   22.1450 N   0  0  0  0  0  0  0  0  0  0  0  0
  -23.5060  -32.1420   23.7680 O   0  0  0  0  0  0  0  0  0  0  0  0
  -22.7160  -29.4450   22.5710 C   0  0  0  0  0  0  0  0  0  0  0  0
  -21.3890  -29.2750   22.4470 N   0  0  0  0  0  0  0  0  0  0  0  0
  -23.3890  -28.8210   23.3950 O   0  0  0  0  0  0  0  0  0  0  0  0
  -20.9020  -29.8340   21.7610 H   0  0  0  0  0  0  0  0  0  0  0  0
  -18.0050  -28.0950   22.9630 C   0  0  0  0  0  0  0  0  0  0  0  0
  -20.5640  -28.3420   23.2220 C   0  0  0  0  0  3  0  0  0  0  0  0
  -20.6580  -26.9070   22.6530 C   0  0  0  0  0  2  0  0  0  0  0  0
  -19.5520  -26.5900   21.6420 C   0  0  0  0  0  2  0  0  0  0  0  0
  -18.1710  -26.7430   22.2890 C   0  0  0  0  0  2  0  0  0  0  0  0
  -19.1280  -28.8530   23.3860 C   0  0  0  0  0  0  0  0  0  0  0  0
  -18.9190  -30.1170   23.9750 C   0  0  0  0  0  3  0  0  0  0  0  0
  -17.6180  -30.6250   24.1480 C   0  0  0  0  0  3  0  0  0  0  0  0
  -16.5070  -29.8640   23.7440 C   0  0  0  0  0  3  0  0  0  0  0  0
  -16.7020  -28.6010   23.1530 C   0  0  0  0  0  3  0  0  0  0  0  0
  -25.8710  -32.4960   23.8530 C   0  0  0  0  0  3  0  0  0  0  0  0
  -26.3810  -31.7370   25.1390 C   0  0  1  0  0  0  0  0  0  0  0  0
  -25.2830  -31.5150   26.2040 C   0  0  0  0  0  1  0  0  0  0  0  0
  -26.9610  -30.3520   24.7660 C   0  0  0  0  0  1  0  0  0  0  0  0
  -27.5310  -32.5340   25.7960 C   0  0  0  0  0  1  0  0  0  0  0  0
  -25.5630  -33.8970   24.1710 N   0  0  0  0  0  0  0  0  0  0  0  0
  -25.8990  -34.9440   23.4060 C   0  0  0  0  0  0  0  0  0  0  0  0
  -26.5700  -34.8330   22.3760 O   0  0  0  0  0  0  0  0  0  0  0  0
  -24.9660  -34.0580   24.9680 H   0  0  0  0  0  0  0  0  0  0  0  0
  -24.1810  -36.7460   23.0380 C   0  0  0  0  0  1  0  0  0  0  0  0
  -25.4180  -36.3380   23.8540 C   0  0  0  0  0  3  0  0  0  0  0  0
  -27.5510  -37.2220   24.6890 C   0  0  0  0  0  1  0  0  0  0  0  0
  -26.4540  -37.3870   23.7400 N   0  0  0  0  0  0  0  0  0  0  0  0
  -26.0510  -38.3090   23.8820 H   0  0  0  0  0  0  0  0  0  0  0  0
  -30.0390  -17.3580   21.0570 C   0  0  0  0  0  2  0  0  0  0  0  0
  -30.4590  -14.8090   20.3070 C   0  0  0  0  0  0  0  0  0  0  0  0
  -30.2980  -12.5170   19.2790 C   0  0  0  0  0  2  0  0  0  0  0  0
  -29.3270  -12.5170   18.0770 C   0  0  0  0  0  2  0  0  0  0  0  0
  -27.8730  -12.3100   18.5430 C   0  0  0  0  0  2  0  0  0  0  0  0
  -27.4990  -13.2100   19.7500 C   0  0  0  0  0  3  0  0  0  0  0  0
  -28.5820  -13.1720   20.8480 C   0  0  0  0  0  2  0  0  0  0  0  0
  -29.8470  -13.5730   20.2180 N   0  0  0  0  0  0  0  0  0  0  0  0
  -31.6590  -14.9040   20.0370 O   0  0  0  0  0  0  0  0  0  0  0  0
  -29.6750  -15.9530   20.5100 N   0  0  0  0  0  0  0  0  0  0  0  0
  -28.6930  -15.7340   20.5860 H   0  0  0  0  0  0  0  0  0  0  0  0
  -25.1270  -13.7800   20.5360 C   0  0  0  0  0  0  0  0  0  0  0  0
  -24.0730  -12.9970   20.9190 C   0  0  0  0  0  0  0  0  0  0  0  0
  -24.5450  -11.6500   20.8700 C   0  0  0  0  0  0  0  0  0  0  0  0
  -26.1710  -12.9090   20.2710 N   0  0  0  0  0  0  0  0  0  0  0  0
  -25.8300  -11.6220   20.5370 N   0  0  0  0  0  0  0  0  0  0  0  0
  -23.8280  -10.3810   21.0610 C   0  0  0  0  0  0  0  0  0  0  0  0
  -24.2830   -9.4090   21.9790 C   0  0  0  0  0  3  0  0  0  0  0  0
  -23.5660   -8.2050   22.1610 C   0  0  0  0  0  3  0  0  0  0  0  0
  -22.3820   -7.9670   21.4240 C   0  0  0  0  0  0  0  0  0  0  0  0
  -21.9450   -8.9280   20.4950 C   0  0  0  0  0  3  0  0  0  0  0  0
  -22.6630  -10.1230   20.3130 C   0  0  0  0  0  3  0  0  0  0  0  0
  -21.6350   -6.8160   21.5140 O   0  0  0  0  0  0  0  0  0  0  0  0
  -21.6170   -6.0600   22.6570 C   0  0  0  0  0  0  0  0  0  0  0  0
  -21.2070   -6.5940   23.8990 C   0  0  0  0  0  3  0  0  0  0  0  0
  -21.1360   -5.7630   25.0340 C   0  0  0  0  0  3  0  0  0  0  0  0
  -21.4670   -4.3970   24.9310 C   0  0  0  0  0  0  0  0  0  0  0  0
  -21.8710   -3.8630   23.6940 C   0  0  0  0  0  3  0  0  0  0  0  0
  -21.9430   -4.6910   22.5600 C   0  0  0  0  0  0  0  0  0  0  0  0
  -22.3120   -4.1670   21.3660 F   0  0  0  0  0  0  0  0  0  0  0  0
  -21.3910   -3.5960   26.0200 F   0  0  0  0  0  0  0  0  0  0  0  0
  -22.6780  -13.4640   21.2180 C   0  0  0  0  0  0  0  0  0  0  0  0
  -21.9680  -12.7530   22.0860 N   0  0  0  0  0  0  0  0  0  0  0  0
  -22.2290  -14.4920   20.7140 O   0  0  0  0  0  0  0  0  0  0  0  0
  -22.3460  -11.9210   22.5120 H   0  0  0  0  0  0  0  0  0  0  0  0
  -21.0320  -13.0460   22.3280 H   0  0  0  0  0  0  0  0  0  0  0  0
  -25.2800  -15.1540   20.3660 N   0  0  0  0  0  0  0  0  0  0  0  0
  -24.5050  -15.7970   20.4840 H   0  0  0  0  0  0  0  0  0  0  0  0
  -26.1010  -15.5960   19.9780 H   0  0  0  0  0  0  0  0  0  0  0  0
  2  6  1  0
  2  3  1  0
  3 12  1  0
  3  5  1  0
  4 56  1  0
  4  1  1  0
  5  1  1  0
  5 11  1  0
  6  4  1  0
  6  8  1  0
  7  6  1  0
  9 11  1  0
 11 10  1  0
 12 14  1  0
 14 13  1  0
 15 14  1  0
 16 27  2  0
 17 15  1  0
 17 22  1  0
 18 26  1  0
 18 28  1  0
 19 25  1  0
 19 21  1  0
 20 26  1  0
 21 20  1  0
 22 21  2  0
 23 17  2  0
 24 23  1  0
 24 19  2  0
 25 18  1  0
 26 16  1  0
 28 30  2  0
 29 28  1  0
 31 29  1  0
 32 41  2  0
 32 37  1  0
 33 29  1  0
 33 37  1  0
 34 33  1  0
 35 36  1  0
 35 34  1  0
 36 32  1  0
 37 38  2  0
 38 39  1  0
 40 39  2  0
 41 40  1  0
 42 16  1  0
 42 47  1  0
 42 43  1  0
 43 46  1  1
 43 44  1  0
 45 43  1  0
 47 50  1  0
 48 52  1  0
 48 47  1  0
 49 48  2  0
 52 51  1  0
 54 52  1  0
 54 55  1  0
 54 53  1  0
 57 65  1  0
 58 63  1  0
 59 60  1  0
 59 58  1  0
 61 60  1  0
 61 70  1  0
 61 62  1  0
 63 57  1  0
 63 62  1  0
 64 57  2  0
 65 66  1  0
 65 56  1  0
 67 68  2  0
 68 87  1  0
 69 68  1  0
 69 72  1  0
 70 67  1  0
 70 71  1  0
 71 69  2  0
 72 73  1  0
 73 74  2  0
 75 78  1  0
 75 74  1  0
 76 75  2  0
 77 76  1  0
 77 72  2  0
 78 79  1  0
 79 80  1  0
 80 81  2  0
 82 81  1  0
 82 86  1  0
 83 82  2  0
 84 79  2  0
 84 83  1  0
 85 84  1  0
 87 88  1  0
 88 91  1  0
 88 90  1  0
 89 87  2  0
 92 93  1  0
 92 67  1  0
 94 92  1  0
M  ISO  4  14 101  15 101  57 100  65 100
M  END
>  <TORSDO>  (52) 
F 20

>  <SCORE>  (52) 
-13.485

>  <name>  (52) 
51

>  <ligand_id>  (52) 
51

>  <original_smiles>  (52) 
[H]c1c([H])c([H])c2c(c1[H])C([H])([H])C([H])([H])C([H])([H])C2([H])N([H])C(=O)C1([H])N(C(=O)C([H])(N([H])C(=O)C([H])(N([H])C([H])([H])[H])C([H])([H])[H])C(C([H])([H])[H])(C([H])([H])[H])C([H])([H])[H])C([H])([H])c2c([H])c(OC([H])(C([H])([H])[H])C([H])([H])C3([H])N(C([H])(C([H])([H])[H])C([H])([H])[H])C([H])([H])C([H])(C([H])([H])N([H])C(=O)N4C([H])([H])C([H])([H])C([H])([H])C([H])(n5nc(-c6c([H])c([H])c(Oc7c([H])c([H])c(F)c([H])c7F)c([H])c6[H])c(C(=O)N([H])[H])c5N([H])[H])C4([H])[H])[N+]([H])([H])C3([H])[H])c([H])c([H])c2C1([H])[H]

>  <smiles>  (52) 
[H]c1c([H])c([H])c2c(c1[H])C([H])([H])C([H])([H])C([H])([H])C2([H])N([H])C(=O)C1([H])N(C(=O)C([H])(N([H])C(=O)C([H])(N([H])C([H])([H])[H])C([H])([H])[H])C(C([H])([H])[H])(C([H])([H])[H])C([H])([H])[H])C([H])([H])c2c([H])c(OC([H])(C([H])([H])[H])C([H])([H])C3([H])N(C([H])(C([H])([H])[H])C([H])([H])[H])C([H])([H])C([H])(C([H])([H])N([H])C(=O)N4C([H])([H])C([H])([H])C([H])([H])C([H])(n5nc(-c6c([H])c([H])c(Oc7c([H])c([H])c(F)c([H])c7F)c([H])c6[H])c(C(=O)N([H])[H])c5N([H])[H])C4([H])[H])[N+]([H])([H])C3([H])[H])c([H])c([H])c2C1([H])[H]

$$$$
52:0:0
     RDKit          3D

 95103  0  0  1  0  0  0  0  0999 V2000
  -30.5250  -21.7110   19.8250 C   0  0  0  0  0  3  0  0  0  0  0  0
  -30.4990  -20.2860   19.7670 C   0  0  0  0  0  3  0  0  0  0  0  0
  -28.2690  -21.8080   18.9980 C   0  0  0  0  0  3  0  0  0  0  0  0
  -29.4170  -22.5130   19.4290 C   0  0  0  0  0  0  0  0  0  0  0  0
  -29.3530  -19.5850   19.3160 C   0  0  0  0  0  0  0  0  0  0  0  0
  -28.2290  -20.3820   18.9570 C   0  0  0  0  0  0  0  0  0  0  0  0
  -30.0240  -24.5260   18.0180 C   0  0  0  0  0  1  0  0  0  0  0  0
  -29.5300  -24.0810   19.4040 C   0  0  0  0  0  3  0  0  0  0  0  0
  -28.2700  -24.9500   19.8050 C   0  0  0  0  0  2  0  0  0  0  0  0
  -28.4260  -26.4120   19.6770 O   0  0  0  0  0  0  0  0  0  0  0  0
  -24.6020  -31.5260   23.0080 C   0  0  0  0  0  0  0  0  0  0  0  0
  -27.2790  -27.2090   19.7010 C   0  0  0  0  0  0  0  0  0  0  0  0
  -23.4200  -30.2150   21.2780 C   0  0  0  0  0  3  0  0  0  0  0  0
  -24.8940  -28.7710   19.7720 C   0  0  0  0  0  0  0  0  0  0  0  0
  -25.9530  -30.5770   21.1310 C   0  0  0  0  0  2  0  0  0  0  0  0
  -26.0520  -29.2410   20.4050 C   0  0  0  0  0  0  0  0  0  0  0  0
  -27.2470  -28.4700   20.3630 C   0  0  0  0  0  3  0  0  0  0  0  0
  -26.1030  -26.7900   19.0380 C   0  0  0  0  0  3  0  0  0  0  0  0
  -24.9190  -27.5490   19.0830 C   0  0  0  0  0  3  0  0  0  0  0  0
  -23.6500  -29.6260   19.8610 C   0  0  0  0  0  2  0  0  0  0  0  0
  -24.6760  -30.7860   21.8650 N   0  0  0  0  0  0  0  0  0  0  0  0
  -23.5140  -31.7630   23.5510 O   0  0  0  0  0  0  0  0  0  0  0  0
  -22.7620  -29.1370   22.1710 C   0  0  0  0  0  0  0  0  0  0  0  0
  -21.4320  -28.9840   22.0500 N   0  0  0  0  0  0  0  0  0  0  0  0
  -23.4440  -28.4440   22.9300 O   0  0  0  0  0  0  0  0  0  0  0  0
  -20.9410  -29.5990   21.4150 H   0  0  0  0  0  0  0  0  0  0  0  0
  -18.0380  -27.8490   22.5670 C   0  0  0  0  0  0  0  0  0  0  0  0
  -20.6110  -28.0030   22.7600 C   0  0  0  0  0  3  0  0  0  0  0  0
  -20.6450  -26.6300   22.0490 C   0  0  0  0  0  2  0  0  0  0  0  0
  -19.4970  -26.4400   21.0510 C   0  0  0  0  0  2  0  0  0  0  0  0
  -18.1460  -26.5650   21.7610 C   0  0  0  0  0  2  0  0  0  0  0  0
  -19.1980  -28.5320   23.0220 C   0  0  0  0  0  0  0  0  0  0  0  0
  -19.0440  -29.7390   23.7380 C   0  0  0  0  0  3  0  0  0  0  0  0
  -17.7650  -30.2630   24.0020 C   0  0  0  0  0  3  0  0  0  0  0  0
  -16.6200  -29.5750   23.5650 C   0  0  0  0  0  3  0  0  0  0  0  0
  -16.7580  -28.3690   22.8530 C   0  0  0  0  0  3  0  0  0  0  0  0
  -25.8760  -32.1290   23.6760 C   0  0  0  0  0  3  0  0  0  0  0  0
  -25.5700  -33.5150   24.0540 N   0  0  0  0  0  0  0  0  0  0  0  0
  -25.9150  -34.5930   23.3360 C   0  0  0  0  0  0  0  0  0  0  0  0
  -26.5940  -34.5230   22.3090 O   0  0  0  0  0  0  0  0  0  0  0  0
  -24.9710  -33.6450   24.8550 H   0  0  0  0  0  0  0  0  0  0  0  0
  -24.1920  -36.4020   23.0350 C   0  0  0  0  0  1  0  0  0  0  0  0
  -25.4270  -35.9650   23.8400 C   0  0  0  0  0  3  0  0  0  0  0  0
  -27.5560  -36.8170   24.7180 C   0  0  0  0  0  1  0  0  0  0  0  0
  -26.4620  -37.0190   23.7720 N   0  0  0  0  0  0  0  0  0  0  0  0
  -26.0570  -37.9330   23.9520 H   0  0  0  0  0  0  0  0  0  0  0  0
  -26.3710  -31.3070   24.9290 C   0  0  1  0  0  0  0  0  0  0  0  0
  -25.2610  -31.0360   25.9720 C   0  0  0  0  0  1  0  0  0  0  0  0
  -26.9510  -29.9420   24.4940 C   0  0  0  0  0  1  0  0  0  0  0  0
  -27.5140  -32.0700   25.6380 C   0  0  0  0  0  1  0  0  0  0  0  0
  -29.2440  -18.0210   19.2210 C   0  0  0  0  0  2  0  0  0  0  0  0
  -30.5040  -17.0740   19.3270 C   0  0  0  0  0  2  0  0  0  0  0  0
  -30.9750  -14.5680   19.6620 C   0  0  0  0  0  0  0  0  0  0  0  0
  -30.7290  -12.1920   19.0100 C   0  0  0  0  0  2  0  0  0  0  0  0
  -29.7400  -12.1090   17.8290 C   0  0  0  0  0  2  0  0  0  0  0  0
  -28.2890  -12.0120   18.3390 C   0  0  0  0  0  2  0  0  0  0  0  0
  -27.9640  -13.0740   19.4250 C   0  0  0  0  0  3  0  0  0  0  0  0
  -29.0680  -13.1320   20.5050 C   0  0  0  0  0  2  0  0  0  0  0  0
  -30.3500  -13.3620   19.8250 N   0  0  0  0  0  0  0  0  0  0  0  0
  -32.1130  -14.6510   19.1960 O   0  0  0  0  0  0  0  0  0  0  0  0
  -30.2070  -15.6850   19.8200 N   0  0  0  0  0  0  0  0  0  0  0  0
  -29.2830  -15.5240   20.1940 H   0  0  0  0  0  0  0  0  0  0  0  0
  -25.6800  -13.8040   20.3470 C   0  0  0  0  0  0  0  0  0  0  0  0
  -24.5930  -13.0920   20.7720 C   0  0  0  0  0  0  0  0  0  0  0  0
  -24.9550  -11.7150   20.6610 C   0  0  0  0  0  0  0  0  0  0  0  0
  -26.6400  -12.8660   20.0040 N   0  0  0  0  0  0  0  0  0  0  0  0
  -26.2130  -11.6020   20.2510 N   0  0  0  0  0  0  0  0  0  0  0  0
  -24.1590  -10.4970   20.8640 C   0  0  0  0  0  0  0  0  0  0  0  0
  -24.5510   -9.5030   21.7890 C   0  0  0  0  0  3  0  0  0  0  0  0
  -23.7580   -8.3500   21.9800 C   0  0  0  0  0  3  0  0  0  0  0  0
  -22.5590   -8.1840   21.2460 C   0  0  0  0  0  0  0  0  0  0  0  0
  -22.1860   -9.1650   20.3100 C   0  0  0  0  0  3  0  0  0  0  0  0
  -22.9780  -10.3090   20.1170 C   0  0  0  0  0  3  0  0  0  0  0  0
  -21.7400   -7.0850   21.3470 O   0  0  0  0  0  0  0  0  0  0  0  0
  -21.6030   -6.3950   22.5260 C   0  0  0  0  0  0  0  0  0  0  0  0
  -21.1600   -7.0240   23.7090 C   0  0  0  0  0  3  0  0  0  0  0  0
  -20.9670   -6.2630   24.8800 C   0  0  0  0  0  3  0  0  0  0  0  0
  -21.2080   -4.8750   24.8660 C   0  0  0  0  0  0  0  0  0  0  0  0
  -21.6430   -4.2470   23.6870 C   0  0  0  0  0  3  0  0  0  0  0  0
  -21.8380   -5.0050   22.5190 C   0  0  0  0  0  0  0  0  0  0  0  0
  -22.2380   -4.3920   21.3780 F   0  0  0  0  0  0  0  0  0  0  0  0
  -21.0140   -4.1430   25.9880 F   0  0  0  0  0  0  0  0  0  0  0  0
  -23.2570  -13.6500   21.1710 C   0  0  0  0  0  0  0  0  0  0  0  0
  -22.5560  -12.9770   22.0750 N   0  0  0  0  0  0  0  0  0  0  0  0
  -22.8490  -14.7190   20.7140 O   0  0  0  0  0  0  0  0  0  0  0  0
  -22.9010  -12.1110   22.4620 H   0  0  0  0  0  0  0  0  0  0  0  0
  -21.6610  -13.3320   22.3840 H   0  0  0  0  0  0  0  0  0  0  0  0
  -25.9260  -15.1660   20.1990 N   0  0  0  0  0  0  0  0  0  0  0  0
  -25.2110  -15.8630   20.3740 H   0  0  0  0  0  0  0  0  0  0  0  0
  -26.7640  -15.5560   19.7900 H   0  0  0  0  0  0  0  0  0  0  0  0
  -27.0940  -19.7450   18.5260 O   0  0  0  0  0  0  0  0  0  0  0  0
  -26.0960  -19.5320   19.5200 C   0  0  0  0  0  2  0  0  0  0  0  0
  -24.6740  -17.7250   20.5930 C   0  0  0  0  0  1  0  0  0  0  0  0
  -24.9160  -17.7980   18.0740 C   0  0  0  0  0  1  0  0  0  0  0  0
  -25.6010  -18.0780   19.4220 C   0  0  0  0  0  3  0  0  0  0  0  0
  2  1  1  0
  3  4  1  0
  4  1  2  0
  5  2  2  0
  6  3  2  0
  6  5  1  0
  8  7  1  0
  8  4  1  0
  8  9  1  0
 10 12  1  0
 10  9  1  0
 11 22  2  0
 12 17  1  0
 13 21  1  0
 13 23  1  0
 14 20  1  0
 14 16  1  0
 15 21  1  0
 16 15  1  0
 17 16  2  0
 18 19  1  0
 18 12  2  0
 19 14  2  0
 20 13  1  0
 21 11  1  0
 23 25  2  0
 24 23  1  0
 26 24  1  0
 27 36  2  0
 27 32  1  0
 28 24  1  0
 28 32  1  0
 29 28  1  0
 30 31  1  0
 30 29  1  0
 31 27  1  0
 32 33  2  0
 33 34  1  0
 35 34  2  0
 36 35  1  0
 37 11  1  0
 37 38  1  0
 37 47  1  0
 38 41  1  0
 39 43  1  0
 39 38  1  0
 40 39  2  0
 43 42  1  0
 45 43  1  0
 45 46  1  0
 45 44  1  0
 47 50  1  1
 47 48  1  0
 49 47  1  0
 51  5  1  0
 51 52  1  0
 52 61  1  0
 53 61  1  0
 53 59  1  0
 54 59  1  0
 55 56  1  0
 55 54  1  0
 57 56  1  0
 57 66  1  0
 57 58  1  0
 59 58  1  0
 60 53  2  0
 61 62  1  0
 63 64  2  0
 64 83  1  0
 65 64  1  0
 65 68  1  0
 66 67  1  0
 66 63  1  0
 67 65  2  0
 68 69  1  0
 69 70  2  0
 71 74  1  0
 71 70  1  0
 72 71  2  0
 73 72  1  0
 73 68  2  0
 74 75  1  0
 75 76  1  0
 76 77  2  0
 78 77  1  0
 78 82  1  0
 79 78  2  0
 80 75  2  0
 80 79  1  0
 81 80  1  0
 83 84  1  0
 84 87  1  0
 84 86  1  0
 85 83  2  0
 88 63  1  0
 88 89  1  0
 90 88  1  0
 91  6  1  0
 91 92  1  0
 94 95  1  0
 95 92  1  0
 95 93  1  0
M  ISO  4   9 101  10 101  53 100  61 100
M  END
>  <TORSDO>  (53) 
F 23

>  <SCORE>  (53) 
-6.829

>  <name>  (53) 
52

>  <ligand_id>  (53) 
52

>  <original_smiles>  (53) 
[H]c1c([H])c([H])c2c(c1[H])C([H])([H])C([H])([H])C([H])([H])C2([H])N([H])C(=O)C1([H])N(C(=O)C([H])(N([H])C(=O)C([H])(N([H])C([H])([H])[H])C([H])([H])[H])C(C([H])([H])[H])(C([H])([H])[H])C([H])([H])[H])C([H])([H])c2c([H])c(OC([H])([H])C([H])(c3c([H])c([H])c(C([H])([H])C([H])([H])N([H])C(=O)N4C([H])([H])C([H])([H])C([H])([H])C([H])(n5nc(-c6c([H])c([H])c(Oc7c([H])c([H])c(F)c([H])c7F)c([H])c6[H])c(C(=O)N([H])[H])c5N([H])[H])C4([H])[H])c(OC([H])([H])C([H])(C([H])([H])[H])C([H])([H])[H])c3[H])C([H])([H])[H])c([H])c([H])c2C1([H])[H]

>  <smiles>  (53) 
[H]c1c([H])c([H])c2c(c1[H])C([H])([H])C([H])([H])C([H])([H])C2([H])N([H])C(=O)C1([H])N(C(=O)C([H])(N([H])C(=O)C([H])(N([H])C([H])([H])[H])C([H])([H])[H])C(C([H])([H])[H])(C([H])([H])[H])C([H])([H])[H])C([H])([H])c2c([H])c(OC([H])([H])C([H])(c3c([H])c([H])c(C([H])([H])C([H])([H])N([H])C(=O)N4C([H])([H])C([H])([H])C([H])([H])C([H])(n5nc(-c6c([H])c([H])c(Oc7c([H])c([H])c(F)c([H])c7F)c([H])c6[H])c(C(=O)N([H])[H])c5N([H])[H])C4([H])[H])c(OC([H])([H])C([H])(C([H])([H])[H])C([H])([H])[H])c3[H])C([H])([H])[H])c([H])c([H])c2C1([H])[H]

$$$$
53:0:0
     RDKit          3D

 98106  0  0  1  0  0  0  0  0999 V2000
  -28.6250  -24.6320   17.0910 C   0  0  0  0  0  2  0  0  0  0  0  0
  -28.5310  -23.9650   19.3250 C   0  0  0  0  0  2  0  0  0  0  0  0
  -27.6180  -23.4750   17.1260 C   0  0  0  0  0  3  0  0  0  0  0  0
  -27.6240  -22.9750   18.5820 C   0  0  0  0  0  3  0  0  0  0  0  0
  -26.2280  -23.8980   16.6290 C   0  0  0  0  0  1  0  0  0  0  0  0
  -29.4390  -24.4320   18.2870 N   0  0  0  0  0  0  0  0  0  0  0  0
  -28.2020  -21.6250   18.6590 N   0  0  0  0  0  4  0  0  0  0  0  0
  -28.5640  -21.5080   19.5920 H   0  0  0  0  0  0  0  0  0  0  0  0
  -28.9850  -21.5880   18.0260 H   0  0  0  0  0  0  0  0  0  0  0  0
  -27.2580  -20.5150   18.4150 C   0  0  0  0  0  2  0  0  0  0  0  0
  -27.9510  -19.1370   18.4190 C   0  0  0  0  0  2  0  0  0  0  0  0
  -28.6890  -18.6570   19.6850 C   0  0  0  0  0  0  0  0  0  0  0  0
  -29.4100  -17.5020   19.6570 C   0  0  0  0  0  0  0  0  0  0  0  0
  -28.5230  -19.5160   20.9430 C   0  0  0  0  0  1  0  0  0  0  0  0
  -29.4860  -16.6390   18.3990 C   0  0  0  0  0  1  0  0  0  0  0  0
  -30.2060  -16.9250   20.8450 C   0  0  0  0  0  2  0  0  0  0  0  0
  -30.7830  -14.5010   20.5720 C   0  0  0  0  0  0  0  0  0  0  0  0
  -30.5080  -12.3600   19.3970 C   0  0  0  0  0  2  0  0  0  0  0  0
  -29.5890  -12.6080   18.1820 C   0  0  0  0  0  2  0  0  0  0  0  0
  -28.1000  -12.5090   18.5880 C   0  0  0  0  0  2  0  0  0  0  0  0
  -27.7590  -13.3170   19.8710 C   0  0  0  0  0  3  0  0  0  0  0  0
  -28.7930  -13.0290   20.9850 C   0  0  0  0  0  2  0  0  0  0  0  0
  -30.1330  -13.3170   20.4450 N   0  0  0  0  0  0  0  0  0  0  0  0
  -31.9140  -14.7160   20.1260 O   0  0  0  0  0  0  0  0  0  0  0  0
  -29.9980  -15.4890   21.0240 N   0  0  0  0  0  0  0  0  0  0  0  0
  -29.0890  -15.2060   21.3650 H   0  0  0  0  0  0  0  0  0  0  0  0
  -25.3600  -13.9530   20.5480 C   0  0  0  0  0  0  0  0  0  0  0  0
  -24.2760  -13.1910   20.8940 C   0  0  0  0  0  0  0  0  0  0  0  0
  -24.7200  -11.8350   20.8520 C   0  0  0  0  0  0  0  0  0  0  0  0
  -26.3940  -13.0590   20.3220 N   0  0  0  0  0  0  0  0  0  0  0  0
  -26.0120  -11.7800   20.5600 N   0  0  0  0  0  0  0  0  0  0  0  0
  -23.9770  -10.5800   21.0200 C   0  0  0  0  0  0  0  0  0  0  0  0
  -24.3820   -9.6020   21.9530 C   0  0  0  0  0  3  0  0  0  0  0  0
  -23.6480   -8.4070   22.1030 C   0  0  0  0  0  3  0  0  0  0  0  0
  -22.4880   -8.1860   21.3220 C   0  0  0  0  0  0  0  0  0  0  0  0
  -22.1020   -9.1520   20.3770 C   0  0  0  0  0  3  0  0  0  0  0  0
  -22.8390  -10.3400   20.2250 C   0  0  0  0  0  3  0  0  0  0  0  0
  -21.7170   -7.0520   21.3890 O   0  0  0  0  0  0  0  0  0  0  0  0
  -21.6280   -6.3080   22.5390 C   0  0  0  0  0  0  0  0  0  0  0  0
  -21.1380   -6.8580   23.7440 C   0  0  0  0  0  3  0  0  0  0  0  0
  -20.9990   -6.0400   24.8830 C   0  0  0  0  0  3  0  0  0  0  0  0
  -21.3370   -4.6750   24.8150 C   0  0  0  0  0  0  0  0  0  0  0  0
  -21.8170   -4.1250   23.6140 C   0  0  0  0  0  3  0  0  0  0  0  0
  -21.9590   -4.9410   22.4770 C   0  0  0  0  0  0  0  0  0  0  0  0
  -22.4030   -4.4020   21.3160 F   0  0  0  0  0  0  0  0  0  0  0  0
  -21.1920   -3.8870   25.9060 F   0  0  0  0  0  0  0  0  0  0  0  0
  -22.8830  -13.6810   21.1620 C   0  0  0  0  0  0  0  0  0  0  0  0
  -22.1360  -12.9820   22.0090 N   0  0  0  0  0  0  0  0  0  0  0  0
  -22.4630  -14.7180   20.6520 O   0  0  0  0  0  0  0  0  0  0  0  0
  -22.4860  -12.1440   22.4470 H   0  0  0  0  0  0  0  0  0  0  0  0
  -21.2000  -13.2940   22.2250 H   0  0  0  0  0  0  0  0  0  0  0  0
  -25.5420  -15.3240   20.3930 N   0  0  0  0  0  0  0  0  0  0  0  0
  -24.7800  -15.9860   20.5000 H   0  0  0  0  0  0  0  0  0  0  0  0
  -26.4020  -15.7580   20.0840 H   0  0  0  0  0  0  0  0  0  0  0  0
  -30.3130  -25.5560   18.6610 C   0  0  0  0  0  2  0  0  0  0  0  0
  -30.7080  -28.0310   19.0830 C   0  0  0  0  0  1  0  0  0  0  0  0
  -29.6440  -26.9360   18.9150 C   0  0  0  0  0  3  0  0  0  0  0  0
  -28.8950  -26.8970   20.1250 O   0  0  0  0  0  0  0  0  0  0  0  0
  -24.7720  -31.7810   23.2530 C   0  0  0  0  0  0  0  0  0  0  0  0
  -27.7040  -27.5830   20.1100 C   0  0  0  0  0  0  0  0  0  0  0  0
  -23.6740  -30.3600   21.5510 C   0  0  0  0  0  3  0  0  0  0  0  0
  -25.2340  -28.9420   20.1210 C   0  0  0  0  0  0  0  0  0  0  0  0
  -26.1790  -30.8570   21.4200 C   0  0  0  0  0  2  0  0  0  0  0  0
  -26.3480  -29.5110   20.7490 C   0  0  0  0  0  0  0  0  0  0  0  0
  -27.5850  -28.8290   20.7600 C   0  0  0  0  0  3  0  0  0  0  0  0
  -26.5720  -27.0180   19.4870 C   0  0  0  0  0  3  0  0  0  0  0  0
  -25.3350  -27.6870   19.4960 C   0  0  0  0  0  3  0  0  0  0  0  0
  -23.9470  -29.7310   20.1570 C   0  0  0  0  0  2  0  0  0  0  0  0
  -24.8900  -31.0140   22.1330 N   0  0  0  0  0  0  0  0  0  0  0  0
  -23.6670  -31.9830   23.7770 O   0  0  0  0  0  0  0  0  0  0  0  0
  -23.0570  -29.2820   22.4710 C   0  0  0  0  0  0  0  0  0  0  0  0
  -21.7530  -29.0150   22.2900 N   0  0  0  0  0  0  0  0  0  0  0  0
  -23.7490  -28.6880   23.3010 O   0  0  0  0  0  0  0  0  0  0  0  0
  -21.2510  -29.5530   21.5980 H   0  0  0  0  0  0  0  0  0  0  0  0
  -18.4540  -27.5790   22.6200 C   0  0  0  0  0  0  0  0  0  0  0  0
  -20.9710  -28.0150   23.0160 C   0  0  0  0  0  3  0  0  0  0  0  0
  -21.2030  -26.6000   22.4400 C   0  0  0  0  0  2  0  0  0  0  0  0
  -20.1770  -26.2080   21.3730 C   0  0  0  0  0  2  0  0  0  0  0  0
  -18.7580  -26.2510   21.9480 C   0  0  0  0  0  2  0  0  0  0  0  0
  -19.4930  -28.4160   23.1060 C   0  0  0  0  0  0  0  0  0  0  0  0
  -19.1580  -29.6570   23.6890 C   0  0  0  0  0  3  0  0  0  0  0  0
  -17.8140  -30.0650   23.7910 C   0  0  0  0  0  3  0  0  0  0  0  0
  -16.7880  -29.2260   23.3220 C   0  0  0  0  0  3  0  0  0  0  0  0
  -17.1080  -27.9850   22.7450 C   0  0  0  0  0  3  0  0  0  0  0  0
  -26.0130  -32.4620   23.9140 C   0  0  0  0  0  3  0  0  0  0  0  0
  -25.6390  -33.8440   24.2360 N   0  0  0  0  0  0  0  0  0  0  0  0
  -25.9450  -34.9100   23.4840 C   0  0  0  0  0  0  0  0  0  0  0  0
  -26.6440  -34.8350   22.4700 O   0  0  0  0  0  0  0  0  0  0  0  0
  -25.0290  -33.9760   25.0290 H   0  0  0  0  0  0  0  0  0  0  0  0
  -24.1580  -36.6310   23.0790 C   0  0  0  0  0  1  0  0  0  0  0  0
  -25.3880  -36.2750   23.9290 C   0  0  0  0  0  3  0  0  0  0  0  0
  -27.4520  -37.2460   24.8350 C   0  0  0  0  0  1  0  0  0  0  0  0
  -26.3800  -37.3700   23.8520 N   0  0  0  0  0  0  0  0  0  0  0  0
  -25.9300  -38.2710   23.9900 H   0  0  0  0  0  0  0  0  0  0  0  0
  -26.5280  -31.7040   25.1980 C   0  0  1  0  0  0  0  0  0  0  0  0
  -25.4180  -31.4120   26.2330 C   0  0  0  0  0  1  0  0  0  0  0  0
  -27.1820  -30.3580   24.8100 C   0  0  0  0  0  1  0  0  0  0  0  0
  -27.6240  -32.5450   25.8970 C   0  0  0  0  0  1  0  0  0  0  0  0
  1  3  1  0
  1  6  1  0
  3  5  1  0
  3  4  1  0
  4  7  1  0
  4  2  1  0
  6 55  1  0
  6  2  1  0
  7  8  1  0
  9  7  1  0
 10 11  1  0
 10  7  1  0
 11 12  1  0
 12 14  1  0
 13 12  2  0
 13 16  1  0
 15 13  1  0
 16 25  1  0
 17 25  1  0
 18 23  1  0
 19 20  1  0
 19 18  1  0
 21 20  1  0
 21 30  1  0
 21 22  1  0
 23 17  1  0
 23 22  1  0
 24 17  2  0
 25 26  1  0
 27 28  2  0
 28 47  1  0
 29 28  1  0
 29 32  1  0
 30 27  1  0
 30 31  1  0
 31 29  2  0
 32 33  1  0
 33 34  2  0
 35 38  1  0
 35 34  1  0
 36 35  2  0
 37 36  1  0
 37 32  2  0
 38 39  1  0
 39 40  1  0
 40 41  2  0
 42 41  1  0
 42 46  1  0
 43 42  2  0
 44 39  2  0
 44 43  1  0
 45 44  1  0
 47 48  1  0
 48 51  1  0
 48 50  1  0
 49 47  2  0
 52 53  1  0
 52 27  1  0
 54 52  1  0
 55 57  1  0
 57 56  1  0
 57 58  1  0
 59 70  2  0
 60 58  1  0
 60 65  1  0
 61 69  1  0
 61 71  1  0
 62 68  1  0
 62 64  1  0
 63 69  1  0
 64 65  2  0
 64 63  1  0
 66 67  1  0
 66 60  2  0
 67 62  2  0
 68 61  1  0
 69 59  1  0
 71 73  2  0
 72 71  1  0
 74 72  1  0
 75 84  2  0
 75 80  1  0
 76 72  1  0
 76 80  1  0
 77 76  1  0
 78 79  1  0
 78 77  1  0
 79 75  1  0
 80 81  2  0
 81 82  1  0
 83 82  2  0
 84 83  1  0
 85 59  1  0
 85 86  1  0
 85 95  1  0
 86 89  1  0
 87 91  1  0
 87 86  1  0
 88 87  2  0
 91 90  1  0
 93 91  1  0
 93 94  1  0
 93 92  1  0
 95 98  1  1
 95 96  1  0
 97 95  1  0
M  ISO  4  17 100  25 100  57 101  58 101
M  END
>  <TORSDO>  (54) 
F 23

>  <SCORE>  (54) 
-11.365

>  <name>  (54) 
53

>  <ligand_id>  (54) 
53

>  <original_smiles>  (54) 
[H]c1c([H])c([H])c2c(c1[H])C([H])([H])C([H])([H])C([H])([H])C2([H])N([H])C(=O)C1([H])N(C(=O)C([H])(N([H])C(=O)C([H])(N([H])C([H])([H])[H])C([H])([H])[H])C(C([H])([H])[H])(C([H])([H])[H])C([H])([H])[H])C([H])([H])c2c([H])c(OC([H])(C([H])([H])[H])C([H])([H])N3C([H])([H])C([H])(C([H])([H])[H])C([H])([N+]([H])([H])C([H])([H])C([H])([H])C(=C(C([H])([H])[H])C([H])([H])N([H])C(=O)N4C([H])([H])C([H])([H])C([H])([H])C([H])(n5nc(-c6c([H])c([H])c(Oc7c([H])c([H])c(F)c([H])c7F)c([H])c6[H])c(C(=O)N([H])[H])c5N([H])[H])C4([H])[H])C([H])([H])[H])C3([H])[H])c([H])c([H])c2C1([H])[H]

>  <smiles>  (54) 
[H]c1c([H])c([H])c2c(c1[H])C([H])([H])C([H])([H])C([H])([H])C2([H])N([H])C(=O)C1([H])N(C(=O)C([H])(N([H])C(=O)C([H])(N([H])C([H])([H])[H])C([H])([H])[H])C(C([H])([H])[H])(C([H])([H])[H])C([H])([H])[H])C([H])([H])c2c([H])c(OC([H])(C([H])([H])[H])C([H])([H])N3C([H])([H])C([H])(C([H])([H])[H])C([H])([N+]([H])([H])C([H])([H])C([H])([H])C(=C(C([H])([H])[H])C([H])([H])N([H])C(=O)N4C([H])([H])C([H])([H])C([H])([H])C([H])(n5nc(-c6c([H])c([H])c(Oc7c([H])c([H])c(F)c([H])c7F)c([H])c6[H])c(C(=O)N([H])[H])c5N([H])[H])C4([H])[H])C([H])([H])[H])C3([H])[H])c([H])c([H])c2C1([H])[H]

$$$$
54:0:0
     RDKit          3D

 89 96  0  0  1  0  0  0  0  0999 V2000
  -28.5730  -21.8640   20.4420 N   0  0  0  0  0  4  0  0  0  0  0  0
  -28.1930  -21.7770   21.3710 H   0  0  0  0  0  0  0  0  0  0  0  0
  -27.8040  -21.7030   19.8110 H   0  0  0  0  0  0  0  0  0  0  0  0
  -29.5610  -20.6380   20.2570 C   0  0  0  0  0  3  0  0  0  0  0  0
  -29.1340  -19.0140   20.4790 C   0  0  0  0  0  3  0  0  0  0  0  0
  -30.6500  -17.8220   18.7430 C   0  0  0  0  0  1  0  0  0  0  0  0
  -30.1540  -17.6950   20.1940 C   0  0  0  0  0  3  0  0  0  0  0  0
  -30.5330  -14.9730   20.3230 C   0  0  0  0  0  0  0  0  0  0  0  0
  -30.3890  -12.6320   19.3780 C   0  0  0  0  0  2  0  0  0  0  0  0
  -29.4540  -12.6030   18.1470 C   0  0  0  0  0  2  0  0  0  0  0  0
  -27.9920  -12.3920   18.5840 C   0  0  0  0  0  2  0  0  0  0  0  0
  -27.5900  -13.3100   19.7680 C   0  0  0  0  0  3  0  0  0  0  0  0
  -28.6490  -13.3210   20.8910 C   0  0  0  0  0  2  0  0  0  0  0  0
  -29.9190  -13.7240   20.2770 N   0  0  0  0  0  0  0  0  0  0  0  0
  -31.7380  -15.0140   20.0500 O   0  0  0  0  0  0  0  0  0  0  0  0
  -29.7780  -16.1740   20.4430 N   0  0  0  0  0  0  0  0  0  0  0  0
  -28.8030  -16.0120   20.6540 H   0  0  0  0  0  0  0  0  0  0  0  0
  -25.2110  -13.8750   20.5220 C   0  0  0  0  0  0  0  0  0  0  0  0
  -24.1510  -13.0930   20.8910 C   0  0  0  0  0  0  0  0  0  0  0  0
  -24.6200  -11.7440   20.8490 C   0  0  0  0  0  0  0  0  0  0  0  0
  -26.2550  -13.0020   20.2700 N   0  0  0  0  0  0  0  0  0  0  0  0
  -25.9100  -11.7150   20.5330 N   0  0  0  0  0  0  0  0  0  0  0  0
  -23.8970  -10.4780   21.0300 C   0  0  0  0  0  0  0  0  0  0  0  0
  -24.3190   -9.5150   21.9730 C   0  0  0  0  0  3  0  0  0  0  0  0
  -23.5950   -8.3150   22.1430 C   0  0  0  0  0  3  0  0  0  0  0  0
  -22.4350   -8.0690   21.3700 C   0  0  0  0  0  0  0  0  0  0  0  0
  -22.0330   -9.0220   20.4170 C   0  0  0  0  0  3  0  0  0  0  0  0
  -22.7570  -10.2130   20.2450 C   0  0  0  0  0  3  0  0  0  0  0  0
  -21.6830   -6.9220   21.4500 O   0  0  0  0  0  0  0  0  0  0  0  0
  -21.5980   -6.1970   22.6120 C   0  0  0  0  0  0  0  0  0  0  0  0
  -21.1110   -6.7640   23.8090 C   0  0  0  0  0  3  0  0  0  0  0  0
  -20.9730   -5.9650   24.9610 C   0  0  0  0  0  3  0  0  0  0  0  0
  -21.3110   -4.6000   24.9160 C   0  0  0  0  0  0  0  0  0  0  0  0
  -21.7920   -4.0320   23.7230 C   0  0  0  0  0  3  0  0  0  0  0  0
  -21.9310   -4.8290   22.5730 C   0  0  0  0  0  0  0  0  0  0  0  0
  -22.3740   -4.2710   21.4210 F   0  0  0  0  0  0  0  0  0  0  0  0
  -21.1730   -3.8290   26.0220 F   0  0  0  0  0  0  0  0  0  0  0  0
  -22.7530  -13.5640   21.1680 C   0  0  0  0  0  0  0  0  0  0  0  0
  -22.0290  -12.8600   22.0320 N   0  0  0  0  0  0  0  0  0  0  0  0
  -22.3120  -14.5910   20.6550 O   0  0  0  0  0  0  0  0  0  0  0  0
  -22.3990  -12.0290   22.4690 H   0  0  0  0  0  0  0  0  0  0  0  0
  -21.0910  -13.1580   22.2590 H   0  0  0  0  0  0  0  0  0  0  0  0
  -25.3680  -15.2470   20.3530 N   0  0  0  0  0  0  0  0  0  0  0  0
  -24.5930  -15.8940   20.4660 H   0  0  0  0  0  0  0  0  0  0  0  0
  -26.2010  -15.6900   19.9870 H   0  0  0  0  0  0  0  0  0  0  0  0
  -29.0010  -23.3880   20.2640 C   0  0  0  0  0  2  0  0  0  0  0  0
  -27.2940  -24.5700   21.8270 C   0  0  0  0  0  1  0  0  0  0  0  0
  -27.9190  -24.6700   20.4250 C   0  0  0  0  0  3  0  0  0  0  0  0
  -28.2260  -26.1960   20.2440 O   0  0  0  0  0  0  0  0  0  0  0  0
  -24.6280  -31.8920   23.2430 C   0  0  0  0  0  0  0  0  0  0  0  0
  -27.1760  -27.1860   20.1870 C   0  0  0  0  0  0  0  0  0  0  0  0
  -23.4170  -30.5050   21.6070 C   0  0  0  0  0  3  0  0  0  0  0  0
  -24.8540  -28.9360   20.1690 C   0  0  0  0  0  0  0  0  0  0  0  0
  -25.9710  -30.7660   21.4290 C   0  0  0  0  0  2  0  0  0  0  0  0
  -26.0380  -29.3770   20.7740 C   0  0  0  0  0  0  0  0  0  0  0  0
  -27.2010  -28.5190   20.7660 C   0  0  0  0  0  3  0  0  0  0  0  0
  -25.9680  -26.8540   19.5320 C   0  0  0  0  0  3  0  0  0  0  0  0
  -24.8320  -27.6870   19.5320 C   0  0  0  0  0  3  0  0  0  0  0  0
  -23.6290  -29.8340   20.2250 C   0  0  0  0  0  2  0  0  0  0  0  0
  -24.6920  -31.0750   22.1490 N   0  0  0  0  0  0  0  0  0  0  0  0
  -23.5450  -32.1760   23.7780 O   0  0  0  0  0  0  0  0  0  0  0  0
  -22.7420  -29.4940   22.5680 C   0  0  0  0  0  0  0  0  0  0  0  0
  -21.4140  -29.3210   22.4440 N   0  0  0  0  0  0  0  0  0  0  0  0
  -23.4150  -28.8670   23.3900 O   0  0  0  0  0  0  0  0  0  0  0  0
  -20.9270  -29.8780   21.7560 H   0  0  0  0  0  0  0  0  0  0  0  0
  -18.0360  -28.1130   22.9440 C   0  0  0  0  0  0  0  0  0  0  0  0
  -20.5940  -28.3840   23.2150 C   0  0  0  0  0  3  0  0  0  0  0  0
  -20.7010  -26.9500   22.6460 C   0  0  0  0  0  2  0  0  0  0  0  0
  -19.6010  -26.6200   21.6300 C   0  0  0  0  0  2  0  0  0  0  0  0
  -18.2190  -26.7630   22.2710 C   0  0  0  0  0  2  0  0  0  0  0  0
  -19.1510  -28.8810   23.3730 C   0  0  0  0  0  0  0  0  0  0  0  0
  -18.9250  -30.1440   23.9630 C   0  0  0  0  0  3  0  0  0  0  0  0
  -17.6180  -30.6380   24.1280 C   0  0  0  0  0  3  0  0  0  0  0  0
  -16.5180  -29.8680   23.7140 C   0  0  0  0  0  3  0  0  0  0  0  0
  -16.7270  -28.6070   23.1270 C   0  0  0  0  0  3  0  0  0  0  0  0
  -25.9110  -32.5230   23.8660 C   0  0  0  0  0  3  0  0  0  0  0  0
  -25.6020  -33.9190   24.2090 N   0  0  0  0  0  0  0  0  0  0  0  0
  -25.9070  -34.9790   23.4480 C   0  0  0  0  0  0  0  0  0  0  0  0
  -26.5460  -34.8830   22.3970 O   0  0  0  0  0  0  0  0  0  0  0  0
  -25.0300  -34.0670   25.0280 H   0  0  0  0  0  0  0  0  0  0  0  0
  -24.1510  -36.7620   23.1730 C   0  0  0  0  0  1  0  0  0  0  0  0
  -25.4290  -36.3640   23.9290 C   0  0  0  0  0  3  0  0  0  0  0  0
  -27.5890  -37.2690   24.6700 C   0  0  0  0  0  1  0  0  0  0  0  0
  -26.4490  -37.4260   23.7720 N   0  0  0  0  0  0  0  0  0  0  0  0
  -26.0410  -38.3420   23.9350 H   0  0  0  0  0  0  0  0  0  0  0  0
  -26.4290  -31.7450   25.1390 C   0  0  1  0  0  0  0  0  0  0  0  0
  -25.3390  -31.5070   26.2090 C   0  0  0  0  0  1  0  0  0  0  0  0
  -27.0070  -30.3670   24.7450 C   0  0  0  0  0  1  0  0  0  0  0  0
  -27.5840  -32.5350   25.8000 C   0  0  0  0  0  1  0  0  0  0  0  0
  1  2  1  0
  3  1  1  0
  4  1  1  0
  4  5  2  0
  7  6  1  0
  7 16  1  0
  7  5  1  0
  8 16  1  0
  9 14  1  0
 10 11  1  0
 10  9  1  0
 12 11  1  0
 12 21  1  0
 12 13  1  0
 14  8  1  0
 14 13  1  0
 15  8  2  0
 16 17  1  0
 18 19  2  0
 19 38  1  0
 20 19  1  0
 20 23  1  0
 21 18  1  0
 21 22  1  0
 22 20  2  0
 23 24  1  0
 24 25  2  0
 26 29  1  0
 26 25  1  0
 27 26  2  0
 28 27  1  0
 28 23  2  0
 29 30  1  0
 30 31  1  0
 31 32  2  0
 33 32  1  0
 33 37  1  0
 34 33  2  0
 35 30  2  0
 35 34  1  0
 36 35  1  0
 38 39  1  0
 39 42  1  0
 39 41  1  0
 40 38  2  0
 43 44  1  0
 43 18  1  0
 45 43  1  0
 46 48  1  0
 46  1  1  0
 48 47  1  0
 49 48  1  0
 50 61  2  0
 51 49  1  0
 51 56  1  0
 52 60  1  0
 52 62  1  0
 53 59  1  0
 53 55  1  0
 54 60  1  0
 55 54  1  0
 56 55  2  0
 57 51  2  0
 58 57  1  0
 58 53  2  0
 59 52  1  0
 60 50  1  0
 62 64  2  0
 63 62  1  0
 65 63  1  0
 66 75  2  0
 66 71  1  0
 67 63  1  0
 67 71  1  0
 68 67  1  0
 69 70  1  0
 69 68  1  0
 70 66  1  0
 71 72  2  0
 72 73  1  0
 74 73  2  0
 75 74  1  0
 76 50  1  0
 76 77  1  0
 76 86  1  0
 77 80  1  0
 78 82  1  0
 78 77  1  0
 79 78  2  0
 82 81  1  0
 84 82  1  0
 84 85  1  0
 84 83  1  0
 86 89  1  1
 86 87  1  0
 88 86  1  0
M  ISO  4   8 100  16 100  48 101  49 101
M  END
>  <TORSDO>  (55) 
F 21

>  <SCORE>  (55) 
-14.018

>  <name>  (55) 
54

>  <ligand_id>  (55) 
54

>  <original_smiles>  (55) 
[H]c1c([H])c([H])c2c(c1[H])C([H])([H])C([H])([H])C([H])([H])C2([H])N([H])C(=O)C1([H])N(C(=O)C([H])(N([H])C(=O)C([H])(N([H])C([H])([H])[H])C([H])([H])[H])C(C([H])([H])[H])(C([H])([H])[H])C([H])([H])[H])C([H])([H])c2c([H])c(OC([H])(C([H])([H])[H])C([H])([H])[N+]([H])([H])C([H])([H])C([H])([H])C([H])(N([H])C(=O)N3C([H])([H])C([H])([H])C([H])([H])C([H])(n4nc(-c5c([H])c([H])c(Oc6c([H])c([H])c(F)c([H])c6F)c([H])c5[H])c(C(=O)N([H])[H])c4N([H])[H])C3([H])[H])C([H])([H])[H])c([H])c([H])c2C1([H])[H]

>  <smiles>  (55) 
[H]c1c([H])c([H])c2c(c1[H])C([H])([H])C([H])([H])C([H])([H])C2([H])N([H])C(=O)C1([H])N(C(=O)C([H])(N([H])C(=O)C([H])(N([H])C([H])([H])[H])C([H])([H])[H])C(C([H])([H])[H])(C([H])([H])[H])C([H])([H])[H])C([H])([H])c2c([H])c(OC([H])(C([H])([H])[H])C([H])([H])[N+]([H])([H])C([H])([H])C([H])([H])C([H])(N([H])C(=O)N3C([H])([H])C([H])([H])C([H])([H])C([H])(n4nc(-c5c([H])c([H])c(Oc6c([H])c([H])c(F)c([H])c6F)c([H])c5[H])c(C(=O)N([H])[H])c4N([H])[H])C3([H])[H])C([H])([H])[H])c([H])c([H])c2C1([H])[H]

$$$$
55:0:0
     RDKit          3D

 83 87  0  0  1  0  0  0  0  0999 V2000
  -28.2660  -23.3290   19.9650 C   0  0  0  0  0 15  0  0  0  0  0  0
  -28.1290  -25.1790   20.3750 O   0  0  0  0  0  1  0  0  0  0  0  0
  -24.6210  -31.8080   23.1460 C   0  0  0  0  0  0  0  0  0  0  0  0
  -27.1880  -26.5040   20.2430 C   0  0  0  0  0  0  0  0  0  0  0  0
  -23.4610  -30.3810   21.5180 C   0  0  0  0  0  3  0  0  0  0  0  0
  -24.9310  -28.6810   20.1400 C   0  0  0  0  0  0  0  0  0  0  0  0
  -26.0500  -30.4660   21.4430 C   0  0  0  0  0  2  0  0  0  0  0  0
  -26.1220  -29.0010   20.8000 C   0  0  0  0  0  0  0  0  0  0  0  0
  -27.2170  -27.9460   20.8170 C   0  0  0  0  0  3  0  0  0  0  0  0
  -25.9630  -26.4620   19.5090 C   0  0  0  0  0  3  0  0  0  0  0  0
  -24.9060  -27.4420   19.4700 C   0  0  0  0  0  3  0  0  0  0  0  0
  -23.7270  -29.6530   20.1630 C   0  0  0  0  0  2  0  0  0  0  0  0
  -24.7370  -30.9250   22.0870 N   0  0  0  0  0  0  0  0  0  0  0  0
  -23.5180  -32.1170   23.6340 O   0  0  0  0  0  0  0  0  0  0  0  0
  -22.7220  -29.4320   22.5010 C   0  0  0  0  0  0  0  0  0  0  0  0
  -21.3850  -29.2980   22.3840 N   0  0  0  0  0  0  0  0  0  0  0  0
  -23.3670  -28.8090   23.3480 O   0  0  0  0  0  0  0  0  0  0  0  0
  -20.9100  -29.8490   21.6830 H   0  0  0  0  0  0  0  0  0  0  0  0
  -17.9860  -28.1120   22.9300 C   0  0  0  0  0  0  0  0  0  0  0  0
  -20.5520  -28.3700   23.1640 C   0  0  0  0  0  3  0  0  0  0  0  0
  -20.6370  -26.9350   22.5930 C   0  0  0  0  0  2  0  0  0  0  0  0
  -19.5260  -26.6200   21.5870 C   0  0  0  0  0  2  0  0  0  0  0  0
  -18.1510  -26.7670   22.2440 C   0  0  0  0  0  2  0  0  0  0  0  0
  -19.1130  -28.8720   23.3470 C   0  0  0  0  0  0  0  0  0  0  0  0
  -18.9000  -30.1280   23.9580 C   0  0  0  0  0  3  0  0  0  0  0  0
  -17.5960  -30.6250   24.1490 C   0  0  0  0  0  3  0  0  0  0  0  0
  -16.4860  -29.8640   23.7430 C   0  0  0  0  0  3  0  0  0  0  0  0
  -16.6820  -28.6090   23.1400 C   0  0  0  0  0  3  0  0  0  0  0  0
  -25.8650  -32.4850   23.7990 C   0  0  0  0  0  3  0  0  0  0  0  0
  -25.5220  -33.8870   24.1250 N   0  0  0  0  0  0  0  0  0  0  0  0
  -25.8550  -34.9600   23.3950 C   0  0  0  0  0  0  0  0  0  0  0  0
  -26.5360  -34.8760   22.3700 O   0  0  0  0  0  0  0  0  0  0  0  0
  -24.9130  -34.0240   24.9190 H   0  0  0  0  0  0  0  0  0  0  0  0
  -24.1210  -36.7630   23.0660 C   0  0  0  0  0  1  0  0  0  0  0  0
  -25.3620  -36.3460   23.8710 C   0  0  0  0  0  3  0  0  0  0  0  0
  -27.4880  -37.2420   24.7210 C   0  0  0  0  0  1  0  0  0  0  0  0
  -26.3890  -37.4080   23.7730 N   0  0  0  0  0  0  0  0  0  0  0  0
  -25.9760  -38.3240   23.9250 H   0  0  0  0  0  0  0  0  0  0  0  0
  -26.3530  -31.7470   25.1080 C   0  0  1  0  0  0  0  0  0  0  0  0
  -25.2360  -31.5290   26.1560 C   0  0  0  0  0  1  0  0  0  0  0  0
  -26.9520  -30.3630   24.7790 C   0  0  0  0  0  1  0  0  0  0  0  0
  -27.4850  -32.5620   25.7780 C   0  0  0  0  0  1  0  0  0  0  0  0
  -28.7380  -21.3420   20.5050 C   0  0  0  0  0 15  0  0  0  0  0  0
  -29.0950  -19.4660   18.4200 C   0  0  0  0  0  1  0  0  0  0  0  0
  -29.4180  -19.4360   19.9170 C   0  0  0  0  0  2  0  0  0  0  0  0
  -30.1850  -16.0840   20.1350 C   0  0  0  0  0  0  0  0  0  0  0  0
  -30.3730  -13.4450   19.3550 C   0  0  0  0  0  2  0  0  0  0  0  0
  -29.5040  -12.8800   18.1820 C   0  0  0  0  0  2  0  0  0  0  0  0
  -28.1210  -12.4410   18.6730 C   0  0  0  0  0  2  0  0  0  0  0  0
  -27.5760  -13.4540   19.6990 C   0  0  0  0  0  3  0  0  0  0  0  0
  -28.6000  -13.9130   20.7780 C   0  0  0  0  0  2  0  0  0  0  0  0
  -29.7050  -14.6520   20.0890 N   0  0  0  0  0  0  0  0  0  0  0  0
  -31.4120  -15.9610   19.8980 O   0  0  0  0  0  0  0  0  0  0  0  0
  -29.4460  -17.5530   20.2610 N   0  0  0  0  0  0  0  0  0  0  0  0
  -28.5090  -17.3150   20.5560 H   0  0  0  0  0  0  0  0  0  0  0  0
  -25.2330  -13.9340   20.5180 C   0  0  0  0  0  0  0  0  0  0  0  0
  -24.1900  -13.1410   20.9000 C   0  0  0  0  0  0  0  0  0  0  0  0
  -24.6730  -11.7960   20.8510 C   0  0  0  0  0  0  0  0  0  0  0  0
  -26.2820  -13.0780   20.2500 N   0  0  0  0  0  0  0  0  0  0  0  0
  -25.9620  -11.7810   20.5130 N   0  0  0  0  0  0  0  0  0  0  0  0
  -23.9570  -10.5270   21.0470 C   0  0  0  0  0  0  0  0  0  0  0  0
  -24.4020   -9.5590   21.9740 C   0  0  0  0  0  3  0  0  0  0  0  0
  -23.6780   -8.3610   22.1630 C   0  0  0  0  0  3  0  0  0  0  0  0
  -22.4950   -8.1210   21.4250 C   0  0  0  0  0  0  0  0  0  0  0  0
  -22.0680   -9.0770   20.4870 C   0  0  0  0  0  3  0  0  0  0  0  0
  -22.7910  -10.2670   20.2960 C   0  0  0  0  0  3  0  0  0  0  0  0
  -21.7430   -6.9750   21.5230 O   0  0  0  0  0  0  0  0  0  0  0  0
  -21.7050   -6.2350   22.6780 C   0  0  0  0  0  0  0  0  0  0  0  0
  -21.2770   -6.7880   23.9040 C   0  0  0  0  0  3  0  0  0  0  0  0
  -21.1870   -5.9740   25.0510 C   0  0  0  0  0  3  0  0  0  0  0  0
  -21.5160   -4.6070   24.9730 C   0  0  0  0  0  0  0  0  0  0  0  0
  -21.9370   -4.0530   23.7510 C   0  0  0  0  0  3  0  0  0  0  0  0
  -22.0280   -4.8640   22.6070 C   0  0  0  0  0  0  0  0  0  0  0  0
  -22.4130   -4.3200   21.4270 F   0  0  0  0  0  0  0  0  0  0  0  0
  -21.4230   -3.8230   26.0720 F   0  0  0  0  0  0  0  0  0  0  0  0
  -22.7930  -13.6050   21.1890 C   0  0  0  0  0  0  0  0  0  0  0  0
  -22.0820  -12.9010   22.0610 N   0  0  0  0  0  0  0  0  0  0  0  0
  -22.3440  -14.6300   20.6780 O   0  0  0  0  0  0  0  0  0  0  0  0
  -22.4610  -12.0730   22.4970 H   0  0  0  0  0  0  0  0  0  0  0  0
  -21.1460  -13.1960   22.3000 H   0  0  0  0  0  0  0  0  0  0  0  0
  -25.3740  -15.3080   20.3420 N   0  0  0  0  0  0  0  0  0  0  0  0
  -24.5970  -15.9500   20.4610 H   0  0  0  0  0  0  0  0  0  0  0  0
  -26.2030  -15.7520   19.9730 H   0  0  0  0  0  0  0  0  0  0  0  0
  3 14  2  0
  4  2  1  0
  4  9  1  0
  5 13  1  0
  5 15  1  0
  6 12  1  0
  6  8  1  0
  7 13  1  0
  8  9  2  0
  8  7  1  0
 10  4  2  0
 11 10  1  0
 11  6  2  0
 12  5  1  0
 13  3  1  0
 15 17  2  0
 16 15  1  0
 18 16  1  0
 19 28  2  0
 19 24  1  0
 20 16  1  0
 20 24  1  0
 21 20  1  0
 22 23  1  0
 22 21  1  0
 23 19  1  0
 24 25  2  0
 25 26  1  0
 27 26  2  0
 28 27  1  0
 29  3  1  0
 29 30  1  0
 29 39  1  0
 30 33  1  0
 31 35  1  0
 31 30  1  0
 32 31  2  0
 35 34  1  0
 37 35  1  0
 37 38  1  0
 37 36  1  0
 39 42  1  1
 39 40  1  0
 41 39  1  0
 44 45  1  0
 45 54  1  0
 46 54  1  0
 47 52  1  0
 48 49  1  0
 48 47  1  0
 50 49  1  0
 50 59  1  0
 50 51  1  0
 52 46  1  0
 52 51  1  0
 53 46  2  0
 54 55  1  0
 56 57  2  0
 57 76  1  0
 58 57  1  0
 58 61  1  0
 59 60  1  0
 59 56  1  0
 60 58  2  0
 61 62  1  0
 62 63  2  0
 64 67  1  0
 64 63  1  0
 65 64  2  0
 66 65  1  0
 66 61  2  0
 67 68  1  0
 68 69  1  0
 69 70  2  0
 71 70  1  0
 71 75  1  0
 72 71  2  0
 73 68  2  0
 73 72  1  0
 74 73  1  0
 76 77  1  0
 77 80  1  0
 77 79  1  0
 78 76  2  0
 81 82  1  0
 81 56  1  0
 83 81  1  0
M  ISO  4   1 101   2 101  46 100  54 100
M  END
>  <TORSDO>  (56) 
F 18

>  <SCORE>  (56) 
-16.192

>  <name>  (56) 
55

>  <ligand_id>  (56) 
55

>  <original_smiles>  (56) 
[H]c1c([H])c([H])c2c(c1[H])C([H])([H])C([H])([H])C([H])([H])C2([H])N([H])C(=O)C1([H])N(C(=O)C([H])(N([H])C(=O)C([H])(N([H])C([H])([H])[H])C([H])([H])[H])C(C([H])([H])[H])(C([H])([H])[H])C([H])([H])[H])C([H])([H])c2c([H])c(OC([H])([H])C([H])([H])C([H])(N([H])C(=O)N3C([H])([H])C([H])([H])C([H])([H])C([H])(n4nc(-c5c([H])c([H])c(Oc6c([H])c([H])c(F)c([H])c6F)c([H])c5[H])c(C(=O)N([H])[H])c4N([H])[H])C3([H])[H])C([H])([H])[H])c([H])c([H])c2C1([H])[H]

>  <smiles>  (56) 
[H]c1c([H])c([H])c2c(c1[H])C([H])([H])C([H])([H])C([H])([H])C2([H])N([H])C(=O)C1([H])N(C(=O)C([H])(N([H])C(=O)C([H])(N([H])C([H])([H])[H])C([H])([H])[H])C(C([H])([H])[H])(C([H])([H])[H])C([H])([H])[H])C([H])([H])c2c([H])c(OC([H])([H])C([H])([H])C([H])(N([H])C(=O)N3C([H])([H])C([H])([H])C([H])([H])C([H])(n4nc(-c5c([H])c([H])c(Oc6c([H])c([H])c(F)c([H])c6F)c([H])c5[H])c(C(=O)N([H])[H])c4N([H])[H])C3([H])[H])C([H])([H])[H])c([H])c([H])c2C1([H])[H]

$$$$
56:0:0
     RDKit          3D

 93100  0  0  1  0  0  0  0  0999 V2000
  -28.8990  -21.0780   20.7230 C   0  0  0  0  0  3  0  0  0  0  0  0
  -29.4470  -19.8490   20.0020 N   0  0  0  0  0  4  0  0  0  0  0  0
  -30.4240  -20.0340   19.8360 H   0  0  0  0  0  0  0  0  0  0  0  0
  -29.0040  -19.8030   19.0980 H   0  0  0  0  0  0  0  0  0  0  0  0
  -29.2970  -18.4610   20.6390 C   0  0  0  0  0  2  0  0  0  0  0  0
  -30.2260  -17.2700   20.0660 C   0  0  0  0  0  3  0  0  0  0  0  0
  -30.6260  -14.6800   20.2510 C   0  0  0  0  0  0  0  0  0  0  0  0
  -30.3570  -12.4310   19.2340 C   0  0  0  0  0  2  0  0  0  0  0  0
  -29.4090  -12.5470   18.0220 C   0  0  0  0  0  2  0  0  0  0  0  0
  -27.9420  -12.3990   18.4650 C   0  0  0  0  0  2  0  0  0  0  0  0
  -27.5970  -13.2670   19.7060 C   0  0  0  0  0  3  0  0  0  0  0  0
  -28.6700  -13.1530   20.8100 C   0  0  0  0  0  2  0  0  0  0  0  0
  -29.9660  -13.4780   20.2060 N   0  0  0  0  0  0  0  0  0  0  0  0
  -31.7930  -14.7460   19.8640 O   0  0  0  0  0  0  0  0  0  0  0  0
  -29.8930  -15.8300   20.4750 N   0  0  0  0  0  0  0  0  0  0  0  0
  -28.9490  -15.6760   20.7980 H   0  0  0  0  0  0  0  0  0  0  0  0
  -25.2110  -13.8450   20.4540 C   0  0  0  0  0  0  0  0  0  0  0  0
  -24.1560  -13.0650   20.8450 C   0  0  0  0  0  0  0  0  0  0  0  0
  -24.6290  -11.7160   20.8150 C   0  0  0  0  0  0  0  0  0  0  0  0
  -26.2580  -12.9720   20.2110 N   0  0  0  0  0  0  0  0  0  0  0  0
  -25.9150  -11.6870   20.4910 N   0  0  0  0  0  0  0  0  0  0  0  0
  -23.9140  -10.4500   21.0190 C   0  0  0  0  0  0  0  0  0  0  0  0
  -24.3650   -9.4900   21.9510 C   0  0  0  0  0  3  0  0  0  0  0  0
  -23.6490   -8.2890   22.1480 C   0  0  0  0  0  3  0  0  0  0  0  0
  -22.4700   -8.0370   21.4090 C   0  0  0  0  0  0  0  0  0  0  0  0
  -22.0380   -8.9860   20.4640 C   0  0  0  0  0  3  0  0  0  0  0  0
  -22.7540  -10.1780   20.2670 C   0  0  0  0  0  3  0  0  0  0  0  0
  -21.7270   -6.8860   21.5090 O   0  0  0  0  0  0  0  0  0  0  0  0
  -21.6990   -6.1460   22.6640 C   0  0  0  0  0  0  0  0  0  0  0  0
  -21.2850   -6.7020   23.8950 C   0  0  0  0  0  3  0  0  0  0  0  0
  -21.2040   -5.8890   25.0440 C   0  0  0  0  0  3  0  0  0  0  0  0
  -21.5310   -4.5230   24.9630 C   0  0  0  0  0  0  0  0  0  0  0  0
  -21.9360   -3.9660   23.7380 C   0  0  0  0  0  3  0  0  0  0  0  0
  -22.0160   -4.7750   22.5910 C   0  0  0  0  0  0  0  0  0  0  0  0
  -22.3880   -4.2300   21.4080 F   0  0  0  0  0  0  0  0  0  0  0  0
  -21.4480   -3.7390   26.0640 F   0  0  0  0  0  0  0  0  0  0  0  0
  -22.7580  -13.5330   21.1280 C   0  0  0  0  0  0  0  0  0  0  0  0
  -22.0430  -12.8340   22.0040 N   0  0  0  0  0  0  0  0  0  0  0  0
  -22.3070  -14.5510   20.6080 O   0  0  0  0  0  0  0  0  0  0  0  0
  -22.4200  -12.0100   22.4490 H   0  0  0  0  0  0  0  0  0  0  0  0
  -21.1050  -13.1290   22.2380 H   0  0  0  0  0  0  0  0  0  0  0  0
  -25.3590  -15.2150   20.2590 N   0  0  0  0  0  0  0  0  0  0  0  0
  -24.5770  -15.8530   20.3600 H   0  0  0  0  0  0  0  0  0  0  0  0
  -26.1670  -15.6440   19.8270 H   0  0  0  0  0  0  0  0  0  0  0  0
  -31.7150  -17.6160   20.2930 C   0  0  0  0  0  0  0  0  0  0  0  0
  -32.6310  -17.6890   19.0750 C   0  0  0  0  0  1  0  0  0  0  0  0
  -32.1830  -17.8200   21.4150 O   0  0  0  0  0  0  0  0  0  0  0  0
  -28.8860  -22.4750   19.9190 C   0  0  0  0  0  3  0  0  0  0  0  0
  -29.8410  -24.1360   21.5970 C   0  0  0  0  0  1  0  0  0  0  0  0
  -27.3520  -23.7920   21.5280 C   0  0  0  0  0  1  0  0  0  0  0  0
  -28.6320  -23.8780   20.6780 C   0  0  2  0  0  0  0  0  0  0  0  0
  -28.4750  -25.1530   19.7080 C   0  0  0  0  0  2  0  0  0  0  0  0
  -28.3650  -26.5260   20.2770 O   0  0  0  0  0  0  0  0  0  0  0  0
  -24.5910  -31.8950   23.2720 C   0  0  0  0  0  0  0  0  0  0  0  0
  -27.2100  -27.3260   20.2150 C   0  0  0  0  0  0  0  0  0  0  0  0
  -23.3890  -30.4950   21.6310 C   0  0  0  0  0  3  0  0  0  0  0  0
  -24.8390  -28.9410   20.2060 C   0  0  0  0  0  0  0  0  0  0  0  0
  -25.9270  -30.8110   21.4490 C   0  0  0  0  0  2  0  0  0  0  0  0
  -26.0050  -29.4300   20.8060 C   0  0  0  0  0  0  0  0  0  0  0  0
  -27.1880  -28.6330   20.8020 C   0  0  0  0  0  3  0  0  0  0  0  0
  -26.0120  -26.8880   19.6020 C   0  0  0  0  0  3  0  0  0  0  0  0
  -24.8470  -27.6780   19.5960 C   0  0  0  0  0  3  0  0  0  0  0  0
  -23.6030  -29.8150   20.2520 C   0  0  0  0  0  2  0  0  0  0  0  0
  -24.6540  -31.0850   22.1740 N   0  0  0  0  0  0  0  0  0  0  0  0
  -23.5090  -32.1730   23.8070 O   0  0  0  0  0  0  0  0  0  0  0  0
  -22.7240  -29.4800   22.5910 C   0  0  0  0  0  0  0  0  0  0  0  0
  -21.3990  -29.3020   22.4630 N   0  0  0  0  0  0  0  0  0  0  0  0
  -23.4010  -28.8570   23.4130 O   0  0  0  0  0  0  0  0  0  0  0  0
  -20.9120  -29.8560   21.7710 H   0  0  0  0  0  0  0  0  0  0  0  0
  -18.0200  -28.1140   22.9610 C   0  0  0  0  0  0  0  0  0  0  0  0
  -20.5790  -28.3680   23.2350 C   0  0  0  0  0  3  0  0  0  0  0  0
  -20.6780  -26.9370   22.6600 C   0  0  0  0  0  2  0  0  0  0  0  0
  -19.5770  -26.6170   21.6440 C   0  0  0  0  0  2  0  0  0  0  0  0
  -18.1950  -26.7650   22.2860 C   0  0  0  0  0  2  0  0  0  0  0  0
  -19.1390  -28.8740   23.3940 C   0  0  0  0  0  0  0  0  0  0  0  0
  -18.9210  -30.1390   23.9820 C   0  0  0  0  0  3  0  0  0  0  0  0
  -17.6170  -30.6420   24.1460 C   0  0  0  0  0  3  0  0  0  0  0  0
  -16.5120  -29.8780   23.7300 C   0  0  0  0  0  3  0  0  0  0  0  0
  -16.7160  -28.6170   23.1440 C   0  0  0  0  0  3  0  0  0  0  0  0
  -25.8740  -32.5270   23.8950 C   0  0  0  0  0  3  0  0  0  0  0  0
  -25.5690  -33.9290   24.2140 N   0  0  0  0  0  0  0  0  0  0  0  0
  -25.9110  -34.9740   23.4500 C   0  0  0  0  0  0  0  0  0  0  0  0
  -26.5840  -34.8600   22.4220 O   0  0  0  0  0  0  0  0  0  0  0  0
  -24.9690  -34.0920   25.0090 H   0  0  0  0  0  0  0  0  0  0  0  0
  -24.1910  -36.7720   23.0760 C   0  0  0  0  0  1  0  0  0  0  0  0
  -25.4280  -36.3680   23.8940 C   0  0  0  0  0  3  0  0  0  0  0  0
  -27.5650  -37.2500   24.7250 C   0  0  0  0  0  1  0  0  0  0  0  0
  -26.4660  -37.4160   23.7770 N   0  0  0  0  0  0  0  0  0  0  0  0
  -26.0630  -38.3390   23.9160 H   0  0  0  0  0  0  0  0  0  0  0  0
  -26.3820  -31.7620   25.1800 C   0  0  1  0  0  0  0  0  0  0  0  0
  -25.2850  -31.5350   26.2450 C   0  0  0  0  0  1  0  0  0  0  0  0
  -26.9580  -30.3790   24.7990 C   0  0  0  0  0  1  0  0  0  0  0  0
  -27.5350  -32.5540   25.8420 C   0  0  0  0  0  1  0  0  0  0  0  0
  2  5  1  0
  2  1  1  0
  3  2  1  0
  4  2  1  0
  6 45  1  0
  6 15  1  0
  6  5  1  0
  7 15  1  0
  8 13  1  0
  9 10  1  0
  9  8  1  0
 11 10  1  0
 11 20  1  0
 11 12  1  0
 13  7  1  0
 13 12  1  0
 14  7  2  0
 15 16  1  0
 17 18  2  0
 18 37  1  0
 19 18  1  0
 19 22  1  0
 20 17  1  0
 20 21  1  0
 21 19  2  0
 22 23  1  0
 23 24  2  0
 25 28  1  0
 25 24  1  0
 26 25  2  0
 27 26  1  0
 27 22  2  0
 28 29  1  0
 29 30  1  0
 30 31  2  0
 32 31  1  0
 32 36  1  0
 33 32  2  0
 34 29  2  0
 34 33  1  0
 35 34  1  0
 37 38  1  0
 38 41  1  0
 38 40  1  0
 39 37  2  0
 42 43  1  0
 42 17  1  0
 44 42  1  0
 45 47  2  0
 46 45  1  0
 48 51  1  0
 48  1  2  0
 51 50  1  1
 51 49  1  0
 52 53  1  0
 52 51  1  0
 54 65  2  0
 55 53  1  0
 55 60  1  0
 56 64  1  0
 56 66  1  0
 57 63  1  0
 57 59  1  0
 58 64  1  0
 59 58  1  0
 60 59  2  0
 61 55  2  0
 62 61  1  0
 62 57  2  0
 63 56  1  0
 64 54  1  0
 66 68  2  0
 67 66  1  0
 69 67  1  0
 70 79  2  0
 70 75  1  0
 71 67  1  0
 71 75  1  0
 72 71  1  0
 73 74  1  0
 73 72  1  0
 74 70  1  0
 75 76  2  0
 76 77  1  0
 78 77  2  0
 79 78  1  0
 80 54  1  0
 80 81  1  0
 80 90  1  0
 81 84  1  0
 82 86  1  0
 82 81  1  0
 83 82  2  0
 86 85  1  0
 88 86  1  0
 88 89  1  0
 88 87  1  0
 90 93  1  1
 90 91  1  0
 92 90  1  0
M  ISO  4   7 100  15 100  52 101  53 101
M  END
>  <TORSDO>  (57) 
F 23

>  <SCORE>  (57) 
-12.887

>  <name>  (57) 
56

>  <ligand_id>  (57) 
56

>  <original_smiles>  (57) 
[H]c1c([H])c([H])c2c(c1[H])C([H])([H])C([H])([H])C([H])([H])C2([H])N([H])C(=O)C1([H])N(C(=O)C([H])(N([H])C(=O)C([H])(N([H])C([H])([H])[H])C([H])([H])[H])C(C([H])([H])[H])(C([H])([H])[H])C([H])([H])[H])C([H])([H])c2c([H])c(OC([H])([H])C(C([H])([H])[H])(C([H])([H])[H])C([H])([H])C([H])([H])[N+]([H])([H])C([H])([H])C([H])(C(=O)C([H])([H])[H])N([H])C(=O)N3C([H])([H])C([H])([H])C([H])([H])C([H])(n4nc(-c5c([H])c([H])c(Oc6c([H])c([H])c(F)c([H])c6F)c([H])c5[H])c(C(=O)N([H])[H])c4N([H])[H])C3([H])[H])c([H])c([H])c2C1([H])[H]

>  <smiles>  (57) 
[H]c1c([H])c([H])c2c(c1[H])C([H])([H])C([H])([H])C([H])([H])C2([H])N([H])C(=O)C1([H])N(C(=O)C([H])(N([H])C(=O)C([H])(N([H])C([H])([H])[H])C([H])([H])[H])C(C([H])([H])[H])(C([H])([H])[H])C([H])([H])[H])C([H])([H])c2c([H])c(OC([H])([H])C(C([H])([H])[H])(C([H])([H])[H])C([H])([H])C([H])([H])[N+]([H])([H])C([H])([H])C([H])(C(=O)C([H])([H])[H])N([H])C(=O)N3C([H])([H])C([H])([H])C([H])([H])C([H])(n4nc(-c5c([H])c([H])c(Oc6c([H])c([H])c(F)c([H])c6F)c([H])c5[H])c(C(=O)N([H])[H])c4N([H])[H])C3([H])[H])c([H])c([H])c2C1([H])[H]

$$$$
57:0:0
     RDKit          3D

 96104  0  0  1  0  0  0  0  0999 V2000
  -28.7480  -18.4660   20.3270 C   0  0  0  0  0  3  0  0  0  0  0  0
  -28.3650  -19.8320   20.1440 C   0  0  0  0  0  0  0  0  0  0  0  0
  -29.4670  -20.6190   20.3920 C   0  0  0  0  0  0  0  0  0  0  0  0
  -30.0620  -18.3980   20.6880 C   0  0  0  0  0  0  0  0  0  0  0  0
  -26.9840  -20.2740   19.7270 C   0  0  0  0  0  1  0  0  0  0  0  0
  -30.5140  -19.7340   20.7580 N   0  0  0  0  0  0  0  0  0  0  0  0
  -29.6180  -22.1310   20.2520 C   0  0  0  0  0  0  0  0  0  0  0  0
  -28.6330  -22.8960   20.7800 N   0  0  0  0  0  0  0  0  0  0  0  0
  -30.5860  -22.6320   19.6780 O   0  0  0  0  0  0  0  0  0  0  0  0
  -27.9360  -22.3320   21.2390 H   0  0  0  0  0  0  0  0  0  0  0  0
  -28.2850  -24.3530   20.7430 C   0  0  0  0  0  2  0  0  0  0  0  0
  -29.2740  -25.4220   20.1670 C   0  0  0  0  0  2  0  0  0  0  0  0
  -29.0440  -26.8040   20.5870 O   0  0  0  0  0  0  0  0  0  0  0  0
  -24.6650  -31.7730   23.2960 C   0  0  0  0  0  0  0  0  0  0  0  0
  -27.8280  -27.4660   20.4380 C   0  0  0  0  0  0  0  0  0  0  0  0
  -23.6980  -30.3260   21.5400 C   0  0  0  0  0  3  0  0  0  0  0  0
  -25.3570  -28.8750   20.2400 C   0  0  0  0  0  0  0  0  0  0  0  0
  -26.2120  -30.8060   21.5850 C   0  0  0  0  0  2  0  0  0  0  0  0
  -26.4280  -29.4450   20.9410 C   0  0  0  0  0  0  0  0  0  0  0  0
  -27.6630  -28.7480   21.0300 C   0  0  0  0  0  3  0  0  0  0  0  0
  -26.7380  -26.9270   19.7200 C   0  0  0  0  0  3  0  0  0  0  0  0
  -25.5130  -27.6190   19.6240 C   0  0  0  0  0  3  0  0  0  0  0  0
  -24.0710  -29.6750   20.1800 C   0  0  0  0  0  2  0  0  0  0  0  0
  -24.8710  -30.9860   22.2000 N   0  0  0  0  0  0  0  0  0  0  0  0
  -23.5240  -31.9810   23.7300 O   0  0  0  0  0  0  0  0  0  0  0  0
  -23.0110  -29.2630   22.4270 C   0  0  0  0  0  0  0  0  0  0  0  0
  -21.6950  -29.0790   22.2340 N   0  0  0  0  0  0  0  0  0  0  0  0
  -23.6620  -28.6090   23.2450 O   0  0  0  0  0  0  0  0  0  0  0  0
  -21.2320  -29.6640   21.5520 H   0  0  0  0  0  0  0  0  0  0  0  0
  -18.2920  -27.9170   22.6150 C   0  0  0  0  0  0  0  0  0  0  0  0
  -20.8520  -28.1040   22.9250 C   0  0  0  0  0  3  0  0  0  0  0  0
  -20.9310  -26.7180   22.2430 C   0  0  0  0  0  2  0  0  0  0  0  0
  -19.8320  -26.4950   21.1980 C   0  0  0  0  0  2  0  0  0  0  0  0
  -18.4480  -26.6180   21.8420 C   0  0  0  0  0  2  0  0  0  0  0  0
  -19.4200  -28.6220   23.1090 C   0  0  0  0  0  0  0  0  0  0  0  0
  -19.2210  -29.8430   23.7910 C   0  0  0  0  0  3  0  0  0  0  0  0
  -17.9230  -30.3560   23.9810 C   0  0  0  0  0  3  0  0  0  0  0  0
  -16.8090  -29.6450   23.5030 C   0  0  0  0  0  3  0  0  0  0  0  0
  -16.9940  -28.4280   22.8260 C   0  0  0  0  0  3  0  0  0  0  0  0
  -25.8470  -32.4660   24.0410 C   0  0  0  0  0  3  0  0  0  0  0  0
  -25.4740  -33.8720   24.2520 N   0  0  0  0  0  0  0  0  0  0  0  0
  -25.8770  -34.8900   23.4820 C   0  0  0  0  0  0  0  0  0  0  0  0
  -26.6710  -34.7490   22.5460 O   0  0  0  0  0  0  0  0  0  0  0  0
  -24.7830  -34.0540   24.9650 H   0  0  0  0  0  0  0  0  0  0  0  0
  -24.1590  -36.6100   22.8360 C   0  0  0  0  0  1  0  0  0  0  0  0
  -25.3160  -36.2900   23.7980 C   0  0  0  0  0  3  0  0  0  0  0  0
  -27.3180  -37.2930   24.8030 C   0  0  0  0  0  1  0  0  0  0  0  0
  -26.3310  -37.3630   23.7280 N   0  0  0  0  0  0  0  0  0  0  0  0
  -25.8930  -38.2790   23.7570 H   0  0  0  0  0  0  0  0  0  0  0  0
  -26.2080  -31.7720   25.4120 C   0  0  1  0  0  0  0  0  0  0  0  0
  -24.9940  -31.5730   26.3510 C   0  0  0  0  0  1  0  0  0  0  0  0
  -26.8460  -30.3850   25.1660 C   0  0  0  0  0  1  0  0  0  0  0  0
  -27.2600  -32.6190   26.1650 C   0  0  0  0  0  1  0  0  0  0  0  0
  -30.9400  -17.1780   21.0200 C   0  0  0  0  0  2  0  0  0  0  0  0
  -31.0210  -14.7050   20.6160 C   0  0  0  0  0  0  0  0  0  0  0  0
  -30.7200  -12.5750   19.4030 C   0  0  0  0  0  2  0  0  0  0  0  0
  -29.8180  -12.8210   18.1760 C   0  0  0  0  0  2  0  0  0  0  0  0
  -28.3330  -12.6720   18.5610 C   0  0  0  0  0  2  0  0  0  0  0  0
  -27.9620  -13.4700   19.8410 C   0  0  0  0  0  3  0  0  0  0  0  0
  -28.9880  -13.2400   20.9760 C   0  0  0  0  0  2  0  0  0  0  0  0
  -30.3220  -13.5480   20.4390 N   0  0  0  0  0  0  0  0  0  0  0  0
  -32.2010  -14.7960   20.2670 O   0  0  0  0  0  0  0  0  0  0  0  0
  -30.3330  -15.8160   20.9910 N   0  0  0  0  0  0  0  0  0  0  0  0
  -29.3570  -15.7270   21.2180 H   0  0  0  0  0  0  0  0  0  0  0  0
  -25.5440  -14.0620   20.4720 C   0  0  0  0  0  0  0  0  0  0  0  0
  -24.4620  -13.2890   20.7920 C   0  0  0  0  0  0  0  0  0  0  0  0
  -24.9240  -11.9360   20.7710 C   0  0  0  0  0  0  0  0  0  0  0  0
  -26.5950  -13.1850   20.2730 N   0  0  0  0  0  0  0  0  0  0  0  0
  -26.2260  -11.9000   20.5110 N   0  0  0  0  0  0  0  0  0  0  0  0
  -24.1900  -10.6740   20.9190 C   0  0  0  0  0  0  0  0  0  0  0  0
  -24.5830   -9.6950   21.8580 C   0  0  0  0  0  3  0  0  0  0  0  0
  -23.8480   -8.4970   21.9960 C   0  0  0  0  0  3  0  0  0  0  0  0
  -22.7040   -8.2700   21.1930 C   0  0  0  0  0  0  0  0  0  0  0  0
  -22.3290   -9.2390   20.2450 C   0  0  0  0  0  3  0  0  0  0  0  0
  -23.0660  -10.4270   20.1060 C   0  0  0  0  0  3  0  0  0  0  0  0
  -21.9450   -7.1260   21.2410 O   0  0  0  0  0  0  0  0  0  0  0  0
  -21.8420   -6.3770   22.3860 C   0  0  0  0  0  0  0  0  0  0  0  0
  -21.3030   -6.9080   23.5790 C   0  0  0  0  0  3  0  0  0  0  0  0
  -21.1500   -6.0840   24.7100 C   0  0  0  0  0  3  0  0  0  0  0  0
  -21.5310   -4.7300   24.6530 C   0  0  0  0  0  0  0  0  0  0  0  0
  -22.0630   -4.1970   23.4660 C   0  0  0  0  0  3  0  0  0  0  0  0
  -22.2170   -5.0190   22.3340 C   0  0  0  0  0  0  0  0  0  0  0  0
  -22.7110   -4.4960   21.1880 F   0  0  0  0  0  0  0  0  0  0  0  0
  -21.3760   -3.9370   25.7380 F   0  0  0  0  0  0  0  0  0  0  0  0
  -23.0560  -13.7670   21.0120 C   0  0  0  0  0  0  0  0  0  0  0  0
  -22.2970  -13.0740   21.8530 N   0  0  0  0  0  0  0  0  0  0  0  0
  -22.6390  -14.7870   20.4670 O   0  0  0  0  0  0  0  0  0  0  0  0
  -22.6440  -12.2470   22.3130 H   0  0  0  0  0  0  0  0  0  0  0  0
  -21.3520  -13.3810   22.0400 H   0  0  0  0  0  0  0  0  0  0  0  0
  -25.7140  -15.4350   20.3110 N   0  0  0  0  0  0  0  0  0  0  0  0
  -24.9340  -16.0770   20.3880 H   0  0  0  0  0  0  0  0  0  0  0  0
  -26.5600  -15.8780   19.9760 H   0  0  0  0  0  0  0  0  0  0  0  0
  -31.8620  -20.1310   21.1980 C   0  0  0  0  0  2  0  0  0  0  0  0
  -33.3310  -20.7850   23.1790 C   0  0  0  0  0  1  0  0  0  0  0  0
  -31.0010  -19.9640   23.6360 C   0  0  0  0  0  1  0  0  0  0  0  0
  -31.8940  -20.7180   22.6340 C   0  0  0  0  0  3  0  0  0  0  0  0
  1  4  2  0
  2  1  1  0
  2  3  2  0
  3  6  1  0
  4  6  1  0
  4 54  1  0
  5  2  1  0
  6 93  1  0
  7  3  1  0
  7  8  1  0
  8 10  1  0
  9  7  2  0
 11  8  1  0
 12 13  1  0
 12 11  1  0
 14 25  2  0
 15 13  1  0
 15 20  1  0
 16 24  1  0
 16 26  1  0
 17 19  1  0
 18 24  1  0
 19 20  2  0
 19 18  1  0
 21 15  2  0
 22 21  1  0
 22 17  2  0
 23 17  1  0
 23 16  1  0
 24 14  1  0
 26 28  2  0
 27 26  1  0
 29 27  1  0
 30 39  2  0
 30 35  1  0
 31 27  1  0
 31 35  1  0
 32 31  1  0
 33 34  1  0
 33 32  1  0
 34 30  1  0
 35 36  2  0
 36 37  1  0
 38 37  2  0
 39 38  1  0
 40 14  1  0
 40 41  1  0
 40 50  1  0
 41 44  1  0
 42 46  1  0
 42 41  1  0
 43 42  2  0
 46 45  1  0
 48 49  1  0
 48 46  1  0
 48 47  1  0
 50 53  1  1
 50 51  1  0
 52 50  1  0
 55 63  1  0
 56 61  1  0
 57 58  1  0
 57 56  1  0
 59 58  1  0
 59 68  1  0
 59 60  1  0
 61 55  1  0
 61 60  1  0
 62 55  2  0
 63 54  1  0
 63 64  1  0
 65 66  2  0
 66 85  1  0
 67 66  1  0
 67 70  1  0
 68 65  1  0
 68 69  1  0
 69 67  2  0
 70 71  1  0
 71 72  2  0
 73 76  1  0
 73 72  1  0
 74 73  2  0
 75 74  1  0
 75 70  2  0
 76 77  1  0
 77 78  1  0
 78 79  2  0
 80 79  1  0
 80 84  1  0
 81 80  2  0
 82 77  2  0
 82 81  1  0
 83 82  1  0
 85 86  1  0
 86 89  1  0
 86 88  1  0
 87 85  2  0
 90 91  1  0
 90 65  1  0
 92 90  1  0
 93 96  1  0
 96 94  1  0
 96 95  1  0
M  ISO  4  12 101  13 101  55 100  63 100
M  END
>  <TORSDO>  (58) 
F 22

>  <SCORE>  (58) 
-12.854

>  <name>  (58) 
57

>  <ligand_id>  (58) 
57

>  <original_smiles>  (58) 
[H]c1c([H])c([H])c2c(c1[H])C([H])([H])C([H])([H])C([H])([H])C2([H])N([H])C(=O)C1([H])N(C(=O)C([H])(N([H])C(=O)C([H])(N([H])C([H])([H])[H])C([H])([H])[H])C(C([H])([H])[H])(C([H])([H])[H])C([H])([H])[H])C([H])([H])c2c([H])c(OC([H])([H])C([H])([H])N([H])C(=O)c3c(C([H])([H])[H])c([H])c(C([H])([H])N([H])C(=O)N4C([H])([H])C([H])([H])C([H])([H])C([H])(n5nc(-c6c([H])c([H])c(Oc7c([H])c([H])c(F)c([H])c7F)c([H])c6[H])c(C(=O)N([H])[H])c5N([H])[H])C4([H])[H])n3C([H])([H])C([H])(C([H])([H])[H])C([H])([H])[H])c([H])c([H])c2C1([H])[H]

>  <smiles>  (58) 
[H]c1c([H])c([H])c2c(c1[H])C([H])([H])C([H])([H])C([H])([H])C2([H])N([H])C(=O)C1([H])N(C(=O)C([H])(N([H])C(=O)C([H])(N([H])C([H])([H])[H])C([H])([H])[H])C(C([H])([H])[H])(C([H])([H])[H])C([H])([H])[H])C([H])([H])c2c([H])c(OC([H])([H])C([H])([H])N([H])C(=O)c3c(C([H])([H])[H])c([H])c(C([H])([H])N([H])C(=O)N4C([H])([H])C([H])([H])C([H])([H])C([H])(n5nc(-c6c([H])c([H])c(Oc7c([H])c([H])c(F)c([H])c7F)c([H])c6[H])c(C(=O)N([H])[H])c5N([H])[H])C4([H])[H])n3C([H])([H])C([H])(C([H])([H])[H])C([H])([H])[H])c([H])c([H])c2C1([H])[H]

$$$$
58:0:0
     RDKit          3D

 95103  0  0  1  0  0  0  0  0999 V2000
  -27.9470  -24.4020   20.1850 C   0  0  0  0  0  3  0  0  0  0  0  0
  -28.1560  -26.0550   20.0800 O   0  0  0  0  0  0  0  0  0  0  0  0
  -24.5850  -31.9470   23.2410 C   0  0  0  0  0  0  0  0  0  0  0  0
  -27.1260  -27.1430   20.0930 C   0  0  0  0  0  0  0  0  0  0  0  0
  -23.3770  -30.5840   21.5880 C   0  0  0  0  0  3  0  0  0  0  0  0
  -24.8170  -29.0210   20.1100 C   0  0  0  0  0  0  0  0  0  0  0  0
  -25.9400  -30.8130   21.4070 C   0  0  0  0  0  2  0  0  0  0  0  0
  -26.0090  -29.4170   20.7240 C   0  0  0  0  0  0  0  0  0  0  0  0
  -27.1580  -28.5020   20.6890 C   0  0  0  0  0  3  0  0  0  0  0  0
  -25.9020  -26.9080   19.4270 C   0  0  0  0  0  3  0  0  0  0  0  0
  -24.7890  -27.7910   19.4380 C   0  0  0  0  0  3  0  0  0  0  0  0
  -23.5950  -29.9350   20.1940 C   0  0  0  0  0  2  0  0  0  0  0  0
  -24.6570  -31.1400   22.1340 N   0  0  0  0  0  0  0  0  0  0  0  0
  -23.5010  -32.2160   23.7850 O   0  0  0  0  0  0  0  0  0  0  0  0
  -22.7020  -29.5600   22.5390 C   0  0  0  0  0  0  0  0  0  0  0  0
  -21.3740  -29.3740   22.4120 N   0  0  0  0  0  0  0  0  0  0  0  0
  -23.3790  -28.9350   23.3580 O   0  0  0  0  0  0  0  0  0  0  0  0
  -20.8790  -29.9300   21.7280 H   0  0  0  0  0  0  0  0  0  0  0  0
  -18.0130  -28.1040   22.9040 C   0  0  0  0  0  0  0  0  0  0  0  0
  -20.5690  -28.4090   23.1700 C   0  0  0  0  0  3  0  0  0  0  0  0
  -20.6950  -26.9880   22.5700 C   0  0  0  0  0  2  0  0  0  0  0  0
  -19.5950  -26.6640   21.5540 C   0  0  0  0  0  2  0  0  0  0  0  0
  -18.2130  -26.7730   22.2010 C   0  0  0  0  0  2  0  0  0  0  0  0
  -19.1190  -28.8800   23.3440 C   0  0  0  0  0  0  0  0  0  0  0  0
  -18.8760  -30.1250   23.9630 C   0  0  0  0  0  3  0  0  0  0  0  0
  -17.5620  -30.5940   24.1460 C   0  0  0  0  0  3  0  0  0  0  0  0
  -16.4720  -29.8140   23.7220 C   0  0  0  0  0  3  0  0  0  0  0  0
  -16.6980  -28.5700   23.1060 C   0  0  0  0  0  3  0  0  0  0  0  0
  -25.8630  -32.5800   23.8710 C   0  0  0  0  0  3  0  0  0  0  0  0
  -25.5600  -33.9870   24.1910 N   0  0  0  0  0  0  0  0  0  0  0  0
  -25.9100  -35.0380   23.4380 C   0  0  0  0  0  0  0  0  0  0  0  0
  -26.5860  -34.9250   22.4110 O   0  0  0  0  0  0  0  0  0  0  0  0
  -24.9640  -34.1500   24.9890 H   0  0  0  0  0  0  0  0  0  0  0  0
  -24.2020  -36.8580   23.0860 C   0  0  0  0  0  1  0  0  0  0  0  0
  -25.4410  -36.4360   23.8950 C   0  0  0  0  0  3  0  0  0  0  0  0
  -27.5850  -37.3020   24.7190 C   0  0  0  0  0  1  0  0  0  0  0  0
  -26.4830  -37.4790   23.7780 N   0  0  0  0  0  0  0  0  0  0  0  0
  -26.0830  -38.4020   23.9250 H   0  0  0  0  0  0  0  0  0  0  0  0
  -26.3500  -31.8250   25.1690 C   0  0  1  0  0  0  0  0  0  0  0  0
  -25.2420  -31.6190   26.2280 C   0  0  0  0  0  1  0  0  0  0  0  0
  -26.9190  -30.4330   24.8140 C   0  0  0  0  0  1  0  0  0  0  0  0
  -27.5030  -32.6150   25.8350 C   0  0  0  0  0  1  0  0  0  0  0  0
  -29.0420  -22.9480   20.0780 C   0  0  0  0  0  2  0  0  0  0  0  0
  -30.9480  -20.3220   21.9260 C   0  0  0  0  0  2  0  0  0  0  0  0
  -30.6920  -18.7830   21.8080 C   0  0  0  0  0  2  0  0  0  0  0  0
  -29.6800  -21.2420   21.9940 C   0  0  0  0  0  2  0  0  0  0  0  0
  -29.1670  -19.9080   19.9590 C   0  0  0  0  0  2  0  0  0  0  0  0
  -29.5530  -18.4060   20.8340 C   0  0  0  0  0  3  0  0  0  0  0  0
  -28.9470  -21.3770   20.6940 N   0  0  2  0  0  4  0  0  0  0  0  0
  -27.9770  -21.3000   20.9590 H   0  0  0  0  0  0  0  0  0  0  0  0
  -30.3880  -15.5430   20.3910 C   0  0  0  0  0  0  0  0  0  0  0  0
  -30.4500  -13.1130   19.4710 C   0  0  0  0  0  2  0  0  0  0  0  0
  -29.5450  -12.8800   18.2340 C   0  0  0  0  0  2  0  0  0  0  0  0
  -28.0920  -12.5760   18.6510 C   0  0  0  0  0  2  0  0  0  0  0  0
  -27.6080  -13.5140   19.7860 C   0  0  0  0  0  3  0  0  0  0  0  0
  -28.6440  -13.6770   20.9190 C   0  0  0  0  0  2  0  0  0  0  0  0
  -29.8590  -14.2280   20.2920 N   0  0  0  0  0  0  0  0  0  0  0  0
  -31.6180  -15.5840   20.2560 O   0  0  0  0  0  0  0  0  0  0  0  0
  -29.5570  -16.7720   20.4370 N   0  0  0  0  0  0  0  0  0  0  0  0
  -28.5990  -16.4710   20.3390 H   0  0  0  0  0  0  0  0  0  0  0  0
  -25.2430  -14.0190   20.5920 C   0  0  0  0  0  0  0  0  0  0  0  0
  -24.1820  -13.2180   20.9100 C   0  0  0  0  0  0  0  0  0  0  0  0
  -24.6500  -11.8740   20.7830 C   0  0  0  0  0  0  0  0  0  0  0  0
  -26.2840  -13.1630   20.2820 N   0  0  0  0  0  0  0  0  0  0  0  0
  -25.9420  -11.8610   20.4670 N   0  0  0  0  0  0  0  0  0  0  0  0
  -23.9230  -10.6010   20.8860 C   0  0  0  0  0  0  0  0  0  0  0  0
  -24.3850   -9.5500   21.7080 C   0  0  0  0  0  3  0  0  0  0  0  0
  -23.6540   -8.3460   21.8070 C   0  0  0  0  0  3  0  0  0  0  0  0
  -22.4490   -8.1850   21.0820 C   0  0  0  0  0  0  0  0  0  0  0  0
  -22.0080   -9.2260   20.2470 C   0  0  0  0  0  3  0  0  0  0  0  0
  -22.7380  -10.4220   20.1460 C   0  0  0  0  0  3  0  0  0  0  0  0
  -21.6870   -7.0440   21.0970 O   0  0  0  0  0  0  0  0  0  0  0  0
  -21.7070   -6.1780   22.1620 C   0  0  0  0  0  0  0  0  0  0  0  0
  -21.3720   -6.5940   23.4690 C   0  0  0  0  0  3  0  0  0  0  0  0
  -21.3390   -5.6550   24.5190 C   0  0  0  0  0  3  0  0  0  0  0  0
  -21.6310   -4.3020   24.2660 C   0  0  0  0  0  0  0  0  0  0  0  0
  -21.9580   -3.8860   22.9630 C   0  0  0  0  0  3  0  0  0  0  0  0
  -21.9940   -4.8200   21.9150 C   0  0  0  0  0  0  0  0  0  0  0  0
  -22.2900   -4.4090   20.6580 F   0  0  0  0  0  0  0  0  0  0  0  0
  -21.5910   -3.4000   25.2740 F   0  0  0  0  0  0  0  0  0  0  0  0
  -22.7870  -13.6760   21.2120 C   0  0  0  0  0  0  0  0  0  0  0  0
  -22.0650  -12.9340   22.0420 N   0  0  0  0  0  0  0  0  0  0  0  0
  -22.3480  -14.7290   20.7510 O   0  0  0  0  0  0  0  0  0  0  0  0
  -22.4330  -12.0820   22.4360 H   0  0  0  0  0  0  0  0  0  0  0  0
  -21.1280  -13.2230   22.2860 H   0  0  0  0  0  0  0  0  0  0  0  0
  -25.3990  -15.3990   20.5080 N   0  0  0  0  0  0  0  0  0  0  0  0
  -24.6180  -16.0300   20.6450 H   0  0  0  0  0  0  0  0  0  0  0  0
  -26.2260  -15.8640   20.1620 H   0  0  0  0  0  0  0  0  0  0  0  0
  -27.0540  -24.2670   21.4500 C   0  0  0  0  0  2  0  0  0  0  0  0
  -25.6010  -24.1420   21.1360 N   0  0  0  0  0  4  0  0  0  0  0  0
  -25.2950  -23.1830   21.2000 H   0  0  0  0  0  0  0  0  0  0  0  0
  -25.4760  -24.4210   20.1740 H   0  0  0  0  0  0  0  0  0  0  0  0
  -24.7010  -24.6430   23.4310 C   0  0  0  0  0  1  0  0  0  0  0  0
  -23.2550  -24.9420   21.3680 C   0  0  0  0  0  1  0  0  0  0  0  0
  -24.6880  -25.0020   21.9310 C   0  0  0  0  0  3  0  0  0  0  0  0
  1 43  1  0
  1 89  1  0
  2  4  1  0
  2  1  1  0
  3 14  2  0
  4  9  1  0
  5 13  1  0
  5 15  1  0
  6 12  1  0
  6  8  1  0
  7 13  1  0
  8  7  1  0
  9  8  2  0
 10 11  1  0
 10  4  2  0
 11  6  2  0
 12  5  1  0
 13  3  1  0
 15 17  2  0
 16 15  1  0
 18 16  1  0
 19 28  2  0
 19 24  1  0
 20 16  1  0
 20 24  1  0
 21 20  1  0
 22 23  1  0
 22 21  1  0
 23 19  1  0
 24 25  2  0
 25 26  1  0
 27 26  2  0
 28 27  1  0
 29  3  1  0
 29 30  1  0
 29 39  1  0
 30 33  1  0
 31 35  1  0
 31 30  1  0
 32 31  2  0
 35 34  1  0
 37 35  1  0
 37 38  1  0
 37 36  1  0
 39 42  1  1
 39 40  1  0
 41 39  1  0
 43 49  1  0
 44 46  1  0
 45 44  1  0
 47 49  1  0
 47 48  1  0
 48 59  1  0
 48 45  1  0
 49 50  1  1
 49 46  1  0
 51 59  1  0
 52 57  1  0
 53 54  1  0
 53 52  1  0
 55 54  1  0
 55 64  1  0
 55 56  1  0
 57 51  1  0
 57 56  1  0
 58 51  2  0
 60 59  1  0
 61 62  2  0
 62 81  1  0
 63 66  1  0
 63 62  1  0
 64 65  1  0
 64 61  1  0
 65 63  2  0
 66 67  1  0
 67 68  2  0
 69 72  1  0
 69 68  1  0
 70 69  2  0
 71 70  1  0
 71 66  2  0
 72 73  1  0
 73 74  1  0
 74 75  2  0
 76 75  1  0
 76 80  1  0
 77 76  2  0
 78 73  2  0
 78 77  1  0
 79 78  1  0
 81 82  1  0
 82 85  1  0
 82 84  1  0
 83 81  2  0
 86 61  1  0
 86 87  1  0
 88 86  1  0
 90 91  1  0
 90 89  1  0
 90 95  1  0
 92 90  1  0
 94 95  1  0
 95 93  1  0
M  ISO  4   1 101   2 101  51 100  59 100
M  END
>  <TORSDO>  (59) 
F 21

>  <SCORE>  (59) 
-15.526

>  <name>  (59) 
58

>  <ligand_id>  (59) 
58

>  <original_smiles>  (59) 
[H]c1c([H])c([H])c2c(c1[H])C([H])([H])C([H])([H])C([H])([H])C2([H])N([H])C(=O)C1([H])N(C(=O)C([H])(N([H])C(=O)C([H])(N([H])C([H])([H])[H])C([H])([H])[H])C(C([H])([H])[H])(C([H])([H])[H])C([H])([H])[H])C([H])([H])c2c([H])c(OC([H])(C([H])([H])[N+]([H])([H])C([H])(C([H])([H])[H])C([H])([H])[H])C([H])([H])[N+]3([H])C([H])([H])C([H])([H])C([H])([H])C([H])(N([H])C(=O)N4C([H])([H])C([H])([H])C([H])([H])C([H])(n5nc(-c6c([H])c([H])c(Oc7c([H])c([H])c(F)c([H])c7F)c([H])c6[H])c(C(=O)N([H])[H])c5N([H])[H])C4([H])[H])C3([H])[H])c([H])c([H])c2C1([H])[H]

>  <smiles>  (59) 
[H]c1c([H])c([H])c2c(c1[H])C([H])([H])C([H])([H])C([H])([H])C2([H])N([H])C(=O)C1([H])N(C(=O)C([H])(N([H])C(=O)C([H])(N([H])C([H])([H])[H])C([H])([H])[H])C(C([H])([H])[H])(C([H])([H])[H])C([H])([H])[H])C([H])([H])c2c([H])c(OC([H])(C([H])([H])[N+]([H])([H])C([H])(C([H])([H])[H])C([H])([H])[H])C([H])([H])[N+]3([H])C([H])([H])C([H])([H])C([H])([H])C([H])(N([H])C(=O)N4C([H])([H])C([H])([H])C([H])([H])C([H])(n5nc(-c6c([H])c([H])c(Oc7c([H])c([H])c(F)c([H])c7F)c([H])c6[H])c(C(=O)N([H])[H])c5N([H])[H])C4([H])[H])C3([H])[H])c([H])c([H])c2C1([H])[H]

$$$$
59:0:0
     RDKit          3D

 83 87  0  0  1  0  0  0  0  0999 V2000
  -28.4490  -23.3580   21.9660 C   0  0  0  0  0  1  0  0  0  0  0  0
  -28.2200  -23.3530   20.4530 C   0  0  0  0  0  1  0  0  0  0  0  0
  -28.2180  -25.2350   20.2090 O   0  0  0  0  0  1  0  0  0  0  0  0
  -24.6900  -31.8550   23.1320 C   0  0  0  0  0  0  0  0  0  0  0  0
  -27.2430  -26.5410   20.2450 C   0  0  0  0  0  0  0  0  0  0  0  0
  -23.5190  -30.4160   21.5240 C   0  0  0  0  0  3  0  0  0  0  0  0
  -24.9780  -28.7100   20.1550 C   0  0  0  0  0  0  0  0  0  0  0  0
  -26.1080  -30.5110   21.4200 C   0  0  0  0  0  2  0  0  0  0  0  0
  -26.1810  -29.0400   20.7890 C   0  0  0  0  0  0  0  0  0  0  0  0
  -27.2870  -27.9940   20.7870 C   0  0  0  0  0  3  0  0  0  0  0  0
  -25.9950  -26.4830   19.5530 C   0  0  0  0  0  3  0  0  0  0  0  0
  -24.9390  -27.4600   19.5100 C   0  0  0  0  0  3  0  0  0  0  0  0
  -23.7750  -29.6810   20.1740 C   0  0  0  0  0  2  0  0  0  0  0  0
  -24.8000  -30.9680   22.0770 N   0  0  0  0  0  0  0  0  0  0  0  0
  -23.5900  -32.1610   23.6290 O   0  0  0  0  0  0  0  0  0  0  0  0
  -22.7920  -29.4670   22.5180 C   0  0  0  0  0  0  0  0  0  0  0  0
  -21.4570  -29.3140   22.4020 N   0  0  0  0  0  0  0  0  0  0  0  0
  -23.4460  -28.8640   23.3710 O   0  0  0  0  0  0  0  0  0  0  0  0
  -20.9750  -29.8500   21.6950 H   0  0  0  0  0  0  0  0  0  0  0  0
  -18.0760  -28.0860   22.9590 C   0  0  0  0  0  0  0  0  0  0  0  0
  -20.6370  -28.3840   23.1930 C   0  0  0  0  0  3  0  0  0  0  0  0
  -20.7440  -26.9440   22.6390 C   0  0  0  0  0  2  0  0  0  0  0  0
  -19.6380  -26.5990   21.6370 C   0  0  0  0  0  2  0  0  0  0  0  0
  -18.2600  -26.7340   22.2900 C   0  0  0  0  0  2  0  0  0  0  0  0
  -19.1910  -28.8670   23.3670 C   0  0  0  0  0  0  0  0  0  0  0  0
  -18.9590  -30.1270   23.9610 C   0  0  0  0  0  3  0  0  0  0  0  0
  -17.6490  -30.6080   24.1450 C   0  0  0  0  0  3  0  0  0  0  0  0
  -16.5490  -29.8260   23.7470 C   0  0  0  0  0  3  0  0  0  0  0  0
  -16.7640  -28.5660   23.1610 C   0  0  0  0  0  3  0  0  0  0  0  0
  -25.9370  -32.5390   23.7690 C   0  0  0  0  0  3  0  0  0  0  0  0
  -25.5870  -33.9370   24.1030 N   0  0  0  0  0  0  0  0  0  0  0  0
  -25.9110  -35.0160   23.3780 C   0  0  0  0  0  0  0  0  0  0  0  0
  -26.5880  -34.9400   22.3500 O   0  0  0  0  0  0  0  0  0  0  0  0
  -24.9810  -34.0660   24.9010 H   0  0  0  0  0  0  0  0  0  0  0  0
  -24.1750  -36.8170   23.0520 C   0  0  0  0  0  1  0  0  0  0  0  0
  -25.4130  -36.3960   23.8620 C   0  0  0  0  0  3  0  0  0  0  0  0
  -27.5290  -37.2900   24.7350 C   0  0  0  0  0  1  0  0  0  0  0  0
  -26.4380  -37.4600   23.7790 N   0  0  0  0  0  0  0  0  0  0  0  0
  -26.0210  -38.3750   23.9320 H   0  0  0  0  0  0  0  0  0  0  0  0
  -26.4470  -31.8010   25.0700 C   0  0  1  0  0  0  0  0  0  0  0  0
  -25.3440  -31.5700   26.1320 C   0  0  0  0  0  1  0  0  0  0  0  0
  -27.0550  -30.4240   24.7280 C   0  0  0  0  0  1  0  0  0  0  0  0
  -27.5790  -32.6240   25.7300 C   0  0  0  0  0  1  0  0  0  0  0  0
  -28.8670  -21.4210   19.9000 C   0  0  0  0  0 15  0  0  0  0  0  0
  -29.4460  -19.4780   20.4720 C   0  0  0  0  0  1  0  0  0  0  0  0
  -30.2560  -16.1340   20.1100 C   0  0  0  0  0  0  0  0  0  0  0  0
  -30.4650  -13.5090   19.2880 C   0  0  0  0  0  2  0  0  0  0  0  0
  -29.5950  -12.8960   18.1420 C   0  0  0  0  0  2  0  0  0  0  0  0
  -28.2190  -12.4500   18.6530 C   0  0  0  0  0  2  0  0  0  0  0  0
  -27.6670  -13.4730   19.6630 C   0  0  0  0  0  3  0  0  0  0  0  0
  -28.6960  -13.9590   20.7200 C   0  0  0  0  0  2  0  0  0  0  0  0
  -29.7700  -14.7110   19.9940 N   0  0  0  0  0  0  0  0  0  0  0  0
  -31.5020  -16.0040   20.0460 O   0  0  0  0  0  0  0  0  0  0  0  0
  -29.5000  -17.5990   20.1120 N   0  0  0  0  0  0  0  0  0  0  0  0
  -28.5360  -17.3440   19.9440 H   0  0  0  0  0  0  0  0  0  0  0  0
  -25.3350  -13.9530   20.5210 C   0  0  0  0  0  0  0  0  0  0  0  0
  -24.2910  -13.1580   20.8960 C   0  0  0  0  0  0  0  0  0  0  0  0
  -24.7670  -11.8130   20.8190 C   0  0  0  0  0  0  0  0  0  0  0  0
  -26.3780  -13.0970   20.2280 N   0  0  0  0  0  0  0  0  0  0  0  0
  -26.0530  -11.7980   20.4700 N   0  0  0  0  0  0  0  0  0  0  0  0
  -24.0470  -10.5430   20.9970 C   0  0  0  0  0  0  0  0  0  0  0  0
  -24.4740   -9.5730   21.9290 C   0  0  0  0  0  3  0  0  0  0  0  0
  -23.7470   -8.3740   22.1000 C   0  0  0  0  0  3  0  0  0  0  0  0
  -22.5770   -8.1370   21.3390 C   0  0  0  0  0  0  0  0  0  0  0  0
  -22.1680   -9.0970   20.3970 C   0  0  0  0  0  3  0  0  0  0  0  0
  -22.8960  -10.2870   20.2240 C   0  0  0  0  0  3  0  0  0  0  0  0
  -21.8240   -6.9910   21.4190 O   0  0  0  0  0  0  0  0  0  0  0  0
  -21.7350   -6.2660   22.5810 C   0  0  0  0  0  0  0  0  0  0  0  0
  -21.2390   -6.8310   23.7750 C   0  0  0  0  0  3  0  0  0  0  0  0
  -21.1010   -6.0320   24.9280 C   0  0  0  0  0  3  0  0  0  0  0  0
  -21.4480   -4.6680   24.8860 C   0  0  0  0  0  0  0  0  0  0  0  0
  -21.9370   -4.1020   23.6950 C   0  0  0  0  0  3  0  0  0  0  0  0
  -22.0770   -4.8980   22.5460 C   0  0  0  0  0  0  0  0  0  0  0  0
  -22.5280   -4.3420   21.3950 F   0  0  0  0  0  0  0  0  0  0  0  0
  -21.3090   -3.8980   25.9900 F   0  0  0  0  0  0  0  0  0  0  0  0
  -22.8980  -13.6240   21.2050 C   0  0  0  0  0  0  0  0  0  0  0  0
  -22.1880  -12.9020   22.0630 N   0  0  0  0  0  0  0  0  0  0  0  0
  -22.4520  -14.6640   20.7220 O   0  0  0  0  0  0  0  0  0  0  0  0
  -22.5640  -12.0610   22.4750 H   0  0  0  0  0  0  0  0  0  0  0  0
  -21.2540  -13.1960   22.3130 H   0  0  0  0  0  0  0  0  0  0  0  0
  -25.4800  -15.3290   20.3690 N   0  0  0  0  0  0  0  0  0  0  0  0
  -24.7100  -15.9730   20.5130 H   0  0  0  0  0  0  0  0  0  0  0  0
  -26.3140  -15.7800   20.0180 H   0  0  0  0  0  0  0  0  0  0  0  0
  2  1  1  0
  3  5  1  0
  4 15  2  0
  5 10  1  0
  6 14  1  0
  6 16  1  0
  7 13  1  0
  7  9  1  0
  8 14  1  0
  9  8  1  0
 10  9  2  0
 11  5  2  0
 12 11  1  0
 12  7  2  0
 13  6  1  0
 14  4  1  0
 16 18  2  0
 17 16  1  0
 19 17  1  0
 20 29  2  0
 20 25  1  0
 21 17  1  0
 21 25  1  0
 22 21  1  0
 23 24  1  0
 23 22  1  0
 24 20  1  0
 25 26  2  0
 26 27  1  0
 28 27  2  0
 29 28  1  0
 30  4  1  0
 30 31  1  0
 30 40  1  0
 31 34  1  0
 32 36  1  0
 32 31  1  0
 33 32  2  0
 36 35  1  0
 38 36  1  0
 38 39  1  0
 38 37  1  0
 40 43  1  1
 40 41  1  0
 42 40  1  0
 46 54  1  0
 47 52  1  0
 48 49  1  0
 48 47  1  0
 50 49  1  0
 50 59  1  0
 50 51  1  0
 52 46  1  0
 52 51  1  0
 53 46  2  0
 54 45  1  0
 55 54  1  0
 56 57  2  0
 57 76  1  0
 58 57  1  0
 58 61  1  0
 59 60  1  0
 59 56  1  0
 60 58  2  0
 61 62  1  0
 62 63  2  0
 64 67  1  0
 64 63  1  0
 65 64  2  0
 66 65  1  0
 66 61  2  0
 67 68  1  0
 68 69  1  0
 69 70  2  0
 71 70  1  0
 71 75  1  0
 72 71  2  0
 73 68  2  0
 73 72  1  0
 74 73  1  0
 76 77  1  0
 77 80  1  0
 77 79  1  0
 78 76  2  0
 81 82  1  0
 81 56  1  0
 83 81  1  0
M  ISO  4   2 101   3 101  46 100  54 100
M  END
>  <TORSDO>  (60) 
F 18

>  <SCORE>  (60) 
-16.120

>  <name>  (60) 
59

>  <ligand_id>  (60) 
59

>  <original_smiles>  (60) 
[H]c1c([H])c([H])c2c(c1[H])C([H])([H])C([H])([H])C([H])([H])C2([H])N([H])C(=O)C1([H])N(C(=O)C([H])(N([H])C(=O)C([H])(N([H])C([H])([H])[H])C([H])([H])[H])C(C([H])([H])[H])(C([H])([H])[H])C([H])([H])[H])C([H])([H])c2c([H])c(OC([H])(C([H])([H])[H])C([H])([H])C([H])([H])N([H])C(=O)N3C([H])([H])C([H])([H])C([H])([H])C([H])(n4nc(-c5c([H])c([H])c(Oc6c([H])c([H])c(F)c([H])c6F)c([H])c5[H])c(C(=O)N([H])[H])c4N([H])[H])C3([H])[H])c([H])c([H])c2C1([H])[H]

>  <smiles>  (60) 
[H]c1c([H])c([H])c2c(c1[H])C([H])([H])C([H])([H])C([H])([H])C2([H])N([H])C(=O)C1([H])N(C(=O)C([H])(N([H])C(=O)C([H])(N([H])C([H])([H])[H])C([H])([H])[H])C(C([H])([H])[H])(C([H])([H])[H])C([H])([H])[H])C([H])([H])c2c([H])c(OC([H])(C([H])([H])[H])C([H])([H])C([H])([H])N([H])C(=O)N3C([H])([H])C([H])([H])C([H])([H])C([H])(n4nc(-c5c([H])c([H])c(Oc6c([H])c([H])c(F)c([H])c6F)c([H])c5[H])c(C(=O)N([H])[H])c4N([H])[H])C3([H])[H])c([H])c([H])c2C1([H])[H]

$$$$
60:0:0
     RDKit          3D

 88 96  0  0  1  0  0  0  0  0999 V2000
  -27.7950  -20.9440   19.6890 C   0  0  0  0  0  3  0  0  0  0  0  0
  -28.1200  -19.4650   19.7060 C   0  0  0  0  0  0  0  0  0  0  0  0
  -29.2950  -18.7550   20.2630 C   0  0  0  0  0  0  0  0  0  0  0  0
  -28.5250  -22.1130   20.2130 C   0  0  0  0  0  0  0  0  0  0  0  0
  -30.0090  -19.9780   20.7840 C   0  0  0  0  0  0  0  0  0  0  0  0
  -27.0720  -18.5680   19.0710 C   0  0  0  0  0  1  0  0  0  0  0  0
  -31.3190  -19.7190   21.4970 C   0  0  0  0  0  1  0  0  0  0  0  0
  -29.6640  -21.4280   20.7720 N   0  0  0  0  0  0  0  0  0  0  0  0
  -30.3130  -15.7310   20.2830 C   0  0  0  0  0  0  0  0  0  0  0  0
  -30.4620  -13.1900   19.4630 C   0  0  0  0  0  2  0  0  0  0  0  0
  -29.5700  -12.7820   18.2550 C   0  0  0  0  0  2  0  0  0  0  0  0
  -28.1470  -12.4170   18.7110 C   0  0  0  0  0  2  0  0  0  0  0  0
  -27.6300  -13.4100   19.7760 C   0  0  0  0  0  3  0  0  0  0  0  0
  -28.6600  -13.7210   20.8860 C   0  0  0  0  0  2  0  0  0  0  0  0
  -29.8260  -14.3550   20.2260 N   0  0  0  0  0  0  0  0  0  0  0  0
  -31.5480  -15.7180   20.1190 O   0  0  0  0  0  0  0  0  0  0  0  0
  -29.4600  -17.0310   20.3170 N   0  0  0  0  0  0  0  0  0  0  0  0
  -28.5240  -16.6540   20.3190 H   0  0  0  0  0  0  0  0  0  0  0  0
  -25.2640  -13.9110   20.5580 C   0  0  0  0  0  0  0  0  0  0  0  0
  -24.2150  -13.1170   20.9210 C   0  0  0  0  0  0  0  0  0  0  0  0
  -24.6990  -11.7730   20.8710 C   0  0  0  0  0  0  0  0  0  0  0  0
  -26.3170  -13.0540   20.2970 N   0  0  0  0  0  0  0  0  0  0  0  0
  -25.9910  -11.7600   20.5540 N   0  0  0  0  0  0  0  0  0  0  0  0
  -23.9840  -10.5020   21.0460 C   0  0  0  0  0  0  0  0  0  0  0  0
  -24.4040   -9.5400   21.9910 C   0  0  0  0  0  3  0  0  0  0  0  0
  -23.6840   -8.3360   22.1560 C   0  0  0  0  0  3  0  0  0  0  0  0
  -22.5300   -8.0870   21.3760 C   0  0  0  0  0  0  0  0  0  0  0  0
  -22.1290   -9.0360   20.4200 C   0  0  0  0  0  3  0  0  0  0  0  0
  -22.8490  -10.2310   20.2530 C   0  0  0  0  0  3  0  0  0  0  0  0
  -21.7840   -6.9350   21.4500 O   0  0  0  0  0  0  0  0  0  0  0  0
  -21.6850   -6.2140   22.6140 C   0  0  0  0  0  0  0  0  0  0  0  0
  -21.1460   -6.7740   23.7930 C   0  0  0  0  0  3  0  0  0  0  0  0
  -20.9980   -5.9780   24.9460 C   0  0  0  0  0  3  0  0  0  0  0  0
  -21.3780   -4.6240   24.9210 C   0  0  0  0  0  0  0  0  0  0  0  0
  -21.9100   -4.0630   23.7460 C   0  0  0  0  0  3  0  0  0  0  0  0
  -22.0590   -4.8560   22.5950 C   0  0  0  0  0  0  0  0  0  0  0  0
  -22.5520   -4.3050   21.4600 F   0  0  0  0  0  0  0  0  0  0  0  0
  -21.2300   -3.8560   26.0270 F   0  0  0  0  0  0  0  0  0  0  0  0
  -22.8130  -13.5770   21.1930 C   0  0  0  0  0  0  0  0  0  0  0  0
  -22.0960  -12.8730   22.0600 N   0  0  0  0  0  0  0  0  0  0  0  0
  -22.3650  -14.5980   20.6740 O   0  0  0  0  0  0  0  0  0  0  0  0
  -22.4730  -12.0480   22.5020 H   0  0  0  0  0  0  0  0  0  0  0  0
  -21.1540  -13.1640   22.2860 H   0  0  0  0  0  0  0  0  0  0  0  0
  -25.4060  -15.2860   20.3940 N   0  0  0  0  0  0  0  0  0  0  0  0
  -24.6220  -15.9200   20.5020 H   0  0  0  0  0  0  0  0  0  0  0  0
  -26.2270  -15.7290   20.0070 H   0  0  0  0  0  0  0  0  0  0  0  0
  -27.8120  -23.8550   20.2560 C   0  0  0  0  0  2  0  0  0  0  0  0
  -28.1430  -25.5790   20.2980 O   0  0  0  0  0  0  0  0  0  0  0  0
  -24.6470  -31.8870   23.2240 C   0  0  0  0  0  0  0  0  0  0  0  0
  -27.1790  -26.8000   20.2560 C   0  0  0  0  0  0  0  0  0  0  0  0
  -23.4570  -30.4770   21.5980 C   0  0  0  0  0  3  0  0  0  0  0  0
  -24.9050  -28.8260   20.1930 C   0  0  0  0  0  0  0  0  0  0  0  0
  -26.0360  -30.6250   21.4690 C   0  0  0  0  0  2  0  0  0  0  0  0
  -26.1020  -29.1890   20.8210 C   0  0  0  0  0  0  0  0  0  0  0  0
  -27.2250  -28.2050   20.8180 C   0  0  0  0  0  3  0  0  0  0  0  0
  -25.9440  -26.6480   19.5730 C   0  0  0  0  0  3  0  0  0  0  0  0
  -24.8640  -27.5810   19.5450 C   0  0  0  0  0  3  0  0  0  0  0  0
  -23.6950  -29.7740   20.2320 C   0  0  0  0  0  2  0  0  0  0  0  0
  -24.7370  -31.0290   22.1490 N   0  0  0  0  0  0  0  0  0  0  0  0
  -23.5530  -32.1870   23.7350 O   0  0  0  0  0  0  0  0  0  0  0  0
  -22.7450  -29.5030   22.5760 C   0  0  0  0  0  0  0  0  0  0  0  0
  -21.4140  -29.3400   22.4500 N   0  0  0  0  0  0  0  0  0  0  0  0
  -23.4020  -28.8930   23.4230 O   0  0  0  0  0  0  0  0  0  0  0  0
  -20.9330  -29.8830   21.7460 H   0  0  0  0  0  0  0  0  0  0  0  0
  -18.0320  -28.1130   22.9690 C   0  0  0  0  0  0  0  0  0  0  0  0
  -20.5910  -28.4060   23.2300 C   0  0  0  0  0  3  0  0  0  0  0  0
  -20.7020  -26.9670   22.6710 C   0  0  0  0  0  2  0  0  0  0  0  0
  -19.6050  -26.6260   21.6580 C   0  0  0  0  0  2  0  0  0  0  0  0
  -18.2210  -26.7620   22.3000 C   0  0  0  0  0  2  0  0  0  0  0  0
  -19.1440  -28.8920   23.3910 C   0  0  0  0  0  0  0  0  0  0  0  0
  -18.9080  -30.1520   23.9820 C   0  0  0  0  0  3  0  0  0  0  0  0
  -17.5970  -30.6350   24.1520 C   0  0  0  0  0  3  0  0  0  0  0  0
  -16.5020  -29.8560   23.7420 C   0  0  0  0  0  3  0  0  0  0  0  0
  -16.7200  -28.5960   23.1580 C   0  0  0  0  0  3  0  0  0  0  0  0
  -25.9090  -32.5430   23.8570 C   0  0  0  0  0  3  0  0  0  0  0  0
  -25.5850  -33.9460   24.1830 N   0  0  0  0  0  0  0  0  0  0  0  0
  -25.9080  -35.0080   23.4320 C   0  0  0  0  0  0  0  0  0  0  0  0
  -26.5670  -34.9100   22.3940 O   0  0  0  0  0  0  0  0  0  0  0  0
  -24.9960  -34.0940   24.9890 H   0  0  0  0  0  0  0  0  0  0  0  0
  -24.1750  -36.8110   23.1140 C   0  0  0  0  0  1  0  0  0  0  0  0
  -25.4280  -36.3990   23.9030 C   0  0  0  0  0  3  0  0  0  0  0  0
  -27.5680  -37.2930   24.7140 C   0  0  0  0  0  1  0  0  0  0  0  0
  -26.4580  -37.4540   23.7790 N   0  0  0  0  0  0  0  0  0  0  0  0
  -26.0520  -38.3730   23.9240 H   0  0  0  0  0  0  0  0  0  0  0  0
  -26.4080  -31.7950   25.1570 C   0  0  1  0  0  0  0  0  0  0  0  0
  -25.3010  -31.5790   26.2170 C   0  0  0  0  0  1  0  0  0  0  0  0
  -26.9940  -30.4090   24.8100 C   0  0  0  0  0  1  0  0  0  0  0  0
  -27.5520  -32.6000   25.8180 C   0  0  0  0  0  1  0  0  0  0  0  0
  1  2  2  0
  1  4  1  0
  2  3  1  0
  3 17  1  0
  3  5  2  0
  4 47  1  0
  4  8  2  0
  5  7  1  0
  6  2  1  0
  8  5  1  0
  9 17  1  0
 10 15  1  0
 11 12  1  0
 11 10  1  0
 13 12  1  0
 13 22  1  0
 13 14  1  0
 15  9  1  0
 15 14  1  0
 16  9  2  0
 17 18  1  0
 19 20  2  0
 20 39  1  0
 21 20  1  0
 21 24  1  0
 22 23  1  0
 22 19  1  0
 23 21  2  0
 24 25  1  0
 25 26  2  0
 27 30  1  0
 27 26  1  0
 28 27  2  0
 29 28  1  0
 29 24  2  0
 30 31  1  0
 31 32  1  0
 32 33  2  0
 34 33  1  0
 34 38  1  0
 35 34  2  0
 36 31  2  0
 36 35  1  0
 37 36  1  0
 39 40  1  0
 40 43  1  0
 40 42  1  0
 41 39  2  0
 44 45  1  0
 44 19  1  0
 46 44  1  0
 47 48  1  0
 49 60  2  0
 50 48  1  0
 50 55  1  0
 51 59  1  0
 51 61  1  0
 52 58  1  0
 52 54  1  0
 53 59  1  0
 54 53  1  0
 55 54  2  0
 56 50  2  0
 57 56  1  0
 57 52  2  0
 58 51  1  0
 59 49  1  0
 61 63  2  0
 62 61  1  0
 64 62  1  0
 65 74  2  0
 65 70  1  0
 66 62  1  0
 66 70  1  0
 67 66  1  0
 68 69  1  0
 68 67  1  0
 69 65  1  0
 70 71  2  0
 71 72  1  0
 73 72  2  0
 74 73  1  0
 75 49  1  0
 75 76  1  0
 75 85  1  0
 76 79  1  0
 77 81  1  0
 77 76  1  0
 78 77  2  0
 81 80  1  0
 83 81  1  0
 83 84  1  0
 83 82  1  0
 85 88  1  1
 85 86  1  0
 87 85  1  0
M  ISO  4   9 100  17 100  47 101  48 101
M  END
>  <TORSDO>  (61) 
F 17

>  <SCORE>  (61) 
-16.744

>  <name>  (61) 
60

>  <ligand_id>  (61) 
60

>  <original_smiles>  (61) 
[H]c1c([H])c([H])c2c(c1[H])C([H])([H])C([H])([H])C([H])([H])C2([H])N([H])C(=O)C1([H])N(C(=O)C([H])(N([H])C(=O)C([H])(N([H])C([H])([H])[H])C([H])([H])[H])C(C([H])([H])[H])(C([H])([H])[H])C([H])([H])[H])C([H])([H])c2c([H])c(OC([H])([H])c3nc(C([H])([H])[H])c(N([H])C(=O)N4C([H])([H])C([H])([H])C([H])([H])C([H])(n5nc(-c6c([H])c([H])c(Oc7c([H])c([H])c(F)c([H])c7F)c([H])c6[H])c(C(=O)N([H])[H])c5N([H])[H])C4([H])[H])c(C([H])([H])[H])c3[H])c([H])c([H])c2C1([H])[H]

>  <smiles>  (61) 
[H]c1c([H])c([H])c2c(c1[H])C([H])([H])C([H])([H])C([H])([H])C2([H])N([H])C(=O)C1([H])N(C(=O)C([H])(N([H])C(=O)C([H])(N([H])C([H])([H])[H])C([H])([H])[H])C(C([H])([H])[H])(C([H])([H])[H])C([H])([H])[H])C([H])([H])c2c([H])c(OC([H])([H])c3nc(C([H])([H])[H])c(N([H])C(=O)N4C([H])([H])C([H])([H])C([H])([H])C([H])(n5nc(-c6c([H])c([H])c(Oc7c([H])c([H])c(F)c([H])c7F)c([H])c6[H])c(C(=O)N([H])[H])c5N([H])[H])C4([H])[H])c(C([H])([H])[H])c3[H])c([H])c([H])c2C1([H])[H]

$$$$
61:0:0
     RDKit          3D

 95104  0  0  1  0  0  0  0  0999 V2000
  -28.2230  -21.7780   19.4720 C   0  0  0  0  0  3  0  0  0  0  0  0
  -29.6370  -20.8870   21.5610 C   0  0  0  0  0  2  0  0  0  0  0  0
  -29.3940  -19.7690   20.6360 C   0  0  0  0  0  0  0  0  0  0  0  0
  -28.6400  -20.3540   19.5440 C   0  0  0  0  0  0  0  0  0  0  0  0
  -28.5000  -22.8550   20.4200 C   0  0  0  0  0  0  0  0  0  0  0  0
  -29.2190  -22.2510   21.4500 N   0  0  0  0  0  0  0  0  0  0  0  0
  -29.4740  -22.8630   22.2280 H   0  0  0  0  0  0  0  0  0  0  0  0
  -28.3110  -19.4680   18.5070 N   0  0  0  0  0  0  0  0  0  0  0  0
  -28.3960  -18.4880   18.7520 H   0  0  0  0  0  0  0  0  0  0  0  0
  -30.2770  -19.8290   15.3700 C   0  0  0  0  0  2  0  0  0  0  0  0
  -29.2170  -18.7950   14.9650 C   0  0  0  0  0  2  0  0  0  0  0  0
  -30.1460  -19.9690   16.8860 C   0  0  0  0  0  2  0  0  0  0  0  0
  -28.2500  -18.6750   16.1550 C   0  0  0  0  0  2  0  0  0  0  0  0
  -28.6450  -19.7940   17.1270 C   0  0  0  0  0  3  0  0  0  0  0  0
  -30.1260  -18.1930   20.7890 C   0  0  0  0  0  2  0  0  0  0  0  0
  -30.4550  -15.3410   20.5610 C   0  0  0  0  0  0  0  0  0  0  0  0
  -30.4330  -12.9600   19.5650 C   0  0  0  0  0  2  0  0  0  0  0  0
  -29.5280  -12.8260   18.3160 C   0  0  0  0  0  2  0  0  0  0  0  0
  -28.0760  -12.5310   18.7290 C   0  0  0  0  0  2  0  0  0  0  0  0
  -27.6070  -13.4410   19.8920 C   0  0  0  0  0  3  0  0  0  0  0  0
  -28.6400  -13.5310   21.0360 C   0  0  0  0  0  2  0  0  0  0  0  0
  -29.8800  -14.0520   20.4420 N   0  0  0  0  0  0  0  0  0  0  0  0
  -31.6750  -15.3610   20.3510 O   0  0  0  0  0  0  0  0  0  0  0  0
  -29.7030  -16.5990   20.7140 N   0  0  0  0  0  0  0  0  0  0  0  0
  -28.7140  -16.4370   20.8350 H   0  0  0  0  0  0  0  0  0  0  0  0
  -25.2020  -13.9360   20.5840 C   0  0  0  0  0  0  0  0  0  0  0  0
  -24.1540  -13.1300   20.9300 C   0  0  0  0  0  0  0  0  0  0  0  0
  -24.6610  -11.7940   20.9170 C   0  0  0  0  0  0  0  0  0  0  0  0
  -26.2760  -13.0910   20.3690 N   0  0  0  0  0  0  0  0  0  0  0  0
  -25.9610  -11.7970   20.6400 N   0  0  0  0  0  0  0  0  0  0  0  0
  -23.9670  -10.5120   21.0930 C   0  0  0  0  0  0  0  0  0  0  0  0
  -24.4100   -9.5530   22.0300 C   0  0  0  0  0  3  0  0  0  0  0  0
  -23.7110   -8.3370   22.1950 C   0  0  0  0  0  3  0  0  0  0  0  0
  -22.5570   -8.0720   21.4220 C   0  0  0  0  0  0  0  0  0  0  0  0
  -22.1330   -9.0190   20.4730 C   0  0  0  0  0  3  0  0  0  0  0  0
  -22.8320  -10.2260   20.3060 C   0  0  0  0  0  3  0  0  0  0  0  0
  -21.8290   -6.9080   21.4960 O   0  0  0  0  0  0  0  0  0  0  0  0
  -21.7830   -6.1600   22.6440 C   0  0  0  0  0  0  0  0  0  0  0  0
  -21.3150   -6.6950   23.8650 C   0  0  0  0  0  3  0  0  0  0  0  0
  -21.2200   -5.8720   25.0040 C   0  0  0  0  0  3  0  0  0  0  0  0
  -21.5830   -4.5140   24.9250 C   0  0  0  0  0  0  0  0  0  0  0  0
  -22.0440   -3.9780   23.7090 C   0  0  0  0  0  3  0  0  0  0  0  0
  -22.1410   -4.7990   22.5720 C   0  0  0  0  0  0  0  0  0  0  0  0
  -22.5670   -4.2720   21.3980 F   0  0  0  0  0  0  0  0  0  0  0  0
  -21.4840   -3.7200   26.0160 F   0  0  0  0  0  0  0  0  0  0  0  0
  -22.7370  -13.5670   21.1570 C   0  0  0  0  0  0  0  0  0  0  0  0
  -22.0100  -12.8670   22.0200 N   0  0  0  0  0  0  0  0  0  0  0  0
  -22.2810  -14.5680   20.6040 O   0  0  0  0  0  0  0  0  0  0  0  0
  -22.3920  -12.0590   22.4890 H   0  0  0  0  0  0  0  0  0  0  0  0
  -21.0590  -13.1450   22.2170 H   0  0  0  0  0  0  0  0  0  0  0  0
  -25.3270  -15.3110   20.4030 N   0  0  0  0  0  0  0  0  0  0  0  0
  -24.5300  -15.9350   20.4770 H   0  0  0  0  0  0  0  0  0  0  0  0
  -26.1570  -15.7690   20.0530 H   0  0  0  0  0  0  0  0  0  0  0  0
  -27.7870  -24.4380   20.2750 C   0  0  0  0  0  2  0  0  0  0  0  0
  -28.1810  -25.9990   20.5240 O   0  0  0  0  0  0  0  0  0  0  0  0
  -24.6260  -32.0440   23.2800 C   0  0  0  0  0  0  0  0  0  0  0  0
  -27.1920  -27.1050   20.4170 C   0  0  0  0  0  0  0  0  0  0  0  0
  -23.4420  -30.6070   21.6710 C   0  0  0  0  0  3  0  0  0  0  0  0
  -24.8990  -28.9720   20.3040 C   0  0  0  0  0  0  0  0  0  0  0  0
  -26.0090  -30.8170   21.5370 C   0  0  0  0  0  2  0  0  0  0  0  0
  -26.0830  -29.3940   20.9220 C   0  0  0  0  0  0  0  0  0  0  0  0
  -27.2270  -28.4800   20.9560 C   0  0  0  0  0  3  0  0  0  0  0  0
  -25.9780  -26.8360   19.7410 C   0  0  0  0  0  3  0  0  0  0  0  0
  -24.8690  -27.7130   19.6930 C   0  0  0  0  0  3  0  0  0  0  0  0
  -23.6810  -29.8930   20.3150 C   0  0  0  0  0  2  0  0  0  0  0  0
  -24.7140  -31.1840   22.2150 N   0  0  0  0  0  0  0  0  0  0  0  0
  -23.5330  -32.3470   23.7860 O   0  0  0  0  0  0  0  0  0  0  0  0
  -22.7410  -29.6350   22.6560 C   0  0  0  0  0  0  0  0  0  0  0  0
  -21.4160  -29.4500   22.5090 N   0  0  0  0  0  0  0  0  0  0  0  0
  -23.3960  -29.0470   23.5210 O   0  0  0  0  0  0  0  0  0  0  0  0
  -20.9400  -29.9740   21.7880 H   0  0  0  0  0  0  0  0  0  0  0  0
  -18.0400  -28.2060   22.9750 C   0  0  0  0  0  0  0  0  0  0  0  0
  -20.5870  -28.5330   23.2980 C   0  0  0  0  0  3  0  0  0  0  0  0
  -20.7300  -27.0790   22.7910 C   0  0  0  0  0  2  0  0  0  0  0  0
  -19.6640  -26.6910   21.7630 C   0  0  0  0  0  2  0  0  0  0  0  0
  -18.2620  -26.8340   22.3610 C   0  0  0  0  0  2  0  0  0  0  0  0
  -19.1310  -29.0100   23.4000 C   0  0  0  0  0  0  0  0  0  0  0  0
  -18.8700  -30.2890   23.9360 C   0  0  0  0  0  3  0  0  0  0  0  0
  -17.5500  -30.7670   24.0480 C   0  0  0  0  0  3  0  0  0  0  0  0
  -16.4730  -29.9630   23.6370 C   0  0  0  0  0  3  0  0  0  0  0  0
  -16.7190  -28.6840   23.1070 C   0  0  0  0  0  3  0  0  0  0  0  0
  -25.8940  -32.7020   23.9040 C   0  0  0  0  0  3  0  0  0  0  0  0
  -26.3960  -31.9640   25.2050 C   0  0  1  0  0  0  0  0  0  0  0  0
  -25.2870  -31.7300   26.2580 C   0  0  0  0  0  1  0  0  0  0  0  0
  -27.0050  -30.5870   24.8580 C   0  0  0  0  0  1  0  0  0  0  0  0
  -27.5220  -32.7860   25.8720 C   0  0  0  0  0  1  0  0  0  0  0  0
  -25.5710  -34.1060   24.2100 N   0  0  0  0  0  0  0  0  0  0  0  0
  -25.9100  -35.1550   23.4510 C   0  0  0  0  0  0  0  0  0  0  0  0
  -26.5900  -35.0430   22.4270 O   0  0  0  0  0  0  0  0  0  0  0  0
  -24.9680  -34.2660   25.0040 H   0  0  0  0  0  0  0  0  0  0  0  0
  -24.1810  -36.9460   23.0720 C   0  0  0  0  0  1  0  0  0  0  0  0
  -25.4190  -36.5500   23.8920 C   0  0  0  0  0  3  0  0  0  0  0  0
  -27.5480  -37.4480   24.7240 C   0  0  0  0  0  1  0  0  0  0  0  0
  -26.4500  -37.6050   23.7730 N   0  0  0  0  0  0  0  0  0  0  0  0
  -26.0410  -38.5250   23.9080 H   0  0  0  0  0  0  0  0  0  0  0  0
  1  4  1  0
  1  5  2  0
  3 15  1  0
  3  2  1  0
  4  3  2  0
  5  6  1  0
  6  2  1  0
  6  7  1  0
  8  9  1  0
  8  4  1  0
 10 12  1  0
 11 10  1  0
 11 13  1  0
 12 14  1  0
 13 14  1  0
 14  8  1  0
 16 24  1  0
 17 22  1  0
 18 19  1  0
 18 17  1  0
 20 19  1  0
 20 29  1  0
 20 21  1  0
 22 16  1  0
 22 21  1  0
 23 16  2  0
 24 15  1  0
 24 25  1  0
 26 27  2  0
 27 46  1  0
 28 27  1  0
 28 31  1  0
 29 26  1  0
 29 30  1  0
 30 28  2  0
 31 32  1  0
 32 33  2  0
 34 37  1  0
 34 33  1  0
 35 34  2  0
 36 35  1  0
 36 31  2  0
 37 38  1  0
 38 39  1  0
 39 40  2  0
 41 40  1  0
 41 45  1  0
 42 41  2  0
 43 38  2  0
 43 42  1  0
 44 43  1  0
 46 47  1  0
 47 50  1  0
 47 49  1  0
 48 46  2  0
 51 52  1  0
 51 26  1  0
 53 51  1  0
 54  5  1  0
 54 55  1  0
 56 67  2  0
 57 55  1  0
 57 62  1  0
 58 66  1  0
 58 68  1  0
 59 65  1  0
 59 61  1  0
 60 66  1  0
 61 62  2  0
 61 60  1  0
 63 57  2  0
 64 63  1  0
 64 59  2  0
 65 58  1  0
 66 56  1  0
 68 70  2  0
 69 68  1  0
 71 69  1  0
 72 81  2  0
 72 77  1  0
 73 69  1  0
 73 77  1  0
 74 73  1  0
 75 76  1  0
 75 74  1  0
 76 72  1  0
 77 78  2  0
 78 79  1  0
 80 79  2  0
 81 80  1  0
 82 56  1  0
 82 87  1  0
 82 83  1  0
 83 86  1  1
 83 84  1  0
 85 83  1  0
 87 90  1  0
 88 92  1  0
 88 87  1  0
 89 88  2  0
 92 91  1  0
 94 92  1  0
 94 95  1  0
 94 93  1  0
M  ISO  4  16 100  24 100  54 101  55 101
M  END
>  <TORSDO>  (62) 
F 20

>  <SCORE>  (62) 
-15.380

>  <name>  (62) 
61

>  <ligand_id>  (62) 
61

>  <original_smiles>  (62) 
[H]c1c([H])c([H])c2c(c1[H])C([H])([H])C([H])([H])C([H])([H])C2([H])N([H])C(=O)C1([H])N(C(=O)C([H])(N([H])C(=O)C([H])(N([H])C([H])([H])[H])C([H])([H])[H])C(C([H])([H])[H])(C([H])([H])[H])C([H])([H])[H])C([H])([H])c2c([H])c(OC([H])([H])c3c([H])c(N([H])C4([H])C([H])([H])C([H])([H])C([H])([H])C4([H])[H])c(C([H])([H])N([H])C(=O)N4C([H])([H])C([H])([H])C([H])([H])C([H])(n5nc(-c6c([H])c([H])c(Oc7c([H])c([H])c(F)c([H])c7F)c([H])c6[H])c(C(=O)N([H])[H])c5N([H])[H])C4([H])[H])c([H])[n+]3[H])c([H])c([H])c2C1([H])[H]

>  <smiles>  (62) 
[H]c1c([H])c([H])c2c(c1[H])C([H])([H])C([H])([H])C([H])([H])C2([H])N([H])C(=O)C1([H])N(C(=O)C([H])(N([H])C(=O)C([H])(N([H])C([H])([H])[H])C([H])([H])[H])C(C([H])([H])[H])(C([H])([H])[H])C([H])([H])[H])C([H])([H])c2c([H])c(OC([H])([H])c3c([H])c(N([H])C4([H])C([H])([H])C([H])([H])C([H])([H])C4([H])[H])c(C([H])([H])N([H])C(=O)N4C([H])([H])C([H])([H])C([H])([H])C([H])(n5nc(-c6c([H])c([H])c(Oc7c([H])c([H])c(F)c([H])c7F)c([H])c6[H])c(C(=O)N([H])[H])c5N([H])[H])C4([H])[H])c([H])[n+]3[H])c([H])c([H])c2C1([H])[H]

$$$$
62:0:0
     RDKit          3D

 94102  0  0  1  0  0  0  0  0999 V2000
  -31.0730  -21.1300   20.4710 C   0  0  0  0  0  2  0  0  0  0  0  0
  -29.7250  -19.0660   21.9530 C   0  0  0  0  0  2  0  0  0  0  0  0
  -29.9460  -19.0270   20.4280 C   0  0  0  0  0  3  0  0  0  0  0  0
  -31.0170  -21.1830   22.0340 C   0  0  0  0  0  3  0  0  0  0  0  0
  -32.2640  -21.9390   22.5380 C   0  0  0  0  0  1  0  0  0  0  0  0
  -29.8580  -20.5260   19.8940 N   0  0  0  0  0  0  0  0  0  0  0  0
  -30.8670  -19.7940   22.5930 N   0  0  1  0  0  4  0  0  0  0  0  0
  -31.6920  -19.3080   22.2720 H   0  0  0  0  0  0  0  0  0  0  0  0
  -30.9210  -18.1860   24.5300 C   0  0  0  0  0  1  0  0  0  0  0  0
  -29.8140  -20.4290   24.8220 C   0  0  0  0  0  1  0  0  0  0  0  0
  -30.9260  -19.6620   24.0840 C   0  0  0  0  0  3  0  0  0  0  0  0
  -29.6060  -17.5650   19.6610 C   0  0  0  0  0  2  0  0  0  0  0  0
  -30.5390  -14.9200   19.8680 C   0  0  0  0  0  0  0  0  0  0  0  0
  -30.3430  -12.5600   18.9530 C   0  0  0  0  0  2  0  0  0  0  0  0
  -29.3400  -12.5460   17.7740 C   0  0  0  0  0  2  0  0  0  0  0  0
  -27.8990  -12.3680   18.2860 C   0  0  0  0  0  2  0  0  0  0  0  0
  -27.5810  -13.2890   19.4940 C   0  0  0  0  0  3  0  0  0  0  0  0
  -28.7010  -13.2620   20.5620 C   0  0  0  0  0  2  0  0  0  0  0  0
  -29.9480  -13.6550   19.8910 N   0  0  0  0  0  0  0  0  0  0  0  0
  -31.6790  -15.0010   19.3960 O   0  0  0  0  0  0  0  0  0  0  0  0
  -29.7860  -16.0770   20.2070 N   0  0  0  0  0  0  0  0  0  0  0  0
  -28.9640  -15.7860   20.7170 H   0  0  0  0  0  0  0  0  0  0  0  0
  -25.2620  -13.9120   20.3820 C   0  0  0  0  0  0  0  0  0  0  0  0
  -24.2050  -13.1580   20.8080 C   0  0  0  0  0  0  0  0  0  0  0  0
  -24.6280  -11.7960   20.7240 C   0  0  0  0  0  0  0  0  0  0  0  0
  -26.2680  -13.0130   20.0660 N   0  0  0  0  0  0  0  0  0  0  0  0
  -25.8980  -11.7330   20.3330 N   0  0  0  0  0  0  0  0  0  0  0  0
  -23.8800  -10.5510   20.9420 C   0  0  0  0  0  0  0  0  0  0  0  0
  -24.3280   -9.5710   21.8530 C   0  0  0  0  0  3  0  0  0  0  0  0
  -23.5840   -8.3880   22.0560 C   0  0  0  0  0  3  0  0  0  0  0  0
  -22.3740   -8.1800   21.3530 C   0  0  0  0  0  0  0  0  0  0  0  0
  -21.9420   -9.1520   20.4330 C   0  0  0  0  0  3  0  0  0  0  0  0
  -22.6860  -10.3260   20.2280 C   0  0  0  0  0  3  0  0  0  0  0  0
  -21.5930   -7.0560   21.4740 O   0  0  0  0  0  0  0  0  0  0  0  0
  -21.5670   -6.3210   22.6320 C   0  0  0  0  0  0  0  0  0  0  0  0
  -21.2060   -6.8920   23.8740 C   0  0  0  0  0  3  0  0  0  0  0  0
  -21.1250   -6.0820   25.0240 C   0  0  0  0  0  3  0  0  0  0  0  0
  -21.3900   -4.7020   24.9350 C   0  0  0  0  0  0  0  0  0  0  0  0
  -21.7390   -4.1320   23.6990 C   0  0  0  0  0  3  0  0  0  0  0  0
  -21.8270   -4.9390   22.5510 C   0  0  0  0  0  0  0  0  0  0  0  0
  -22.1430   -4.3810   21.3580 F   0  0  0  0  0  0  0  0  0  0  0  0
  -21.3070   -3.9200   26.0370 F   0  0  0  0  0  0  0  0  0  0  0  0
  -22.8390  -13.6660   21.1730 C   0  0  0  0  0  0  0  0  0  0  0  0
  -22.1480  -12.9790   22.0760 N   0  0  0  0  0  0  0  0  0  0  0  0
  -22.3950  -14.7090   20.6910 O   0  0  0  0  0  0  0  0  0  0  0  0
  -22.5150  -12.1370   22.4900 H   0  0  0  0  0  0  0  0  0  0  0  0
  -21.2320  -13.3030   22.3560 H   0  0  0  0  0  0  0  0  0  0  0  0
  -25.4450  -15.2830   20.2080 N   0  0  0  0  0  0  0  0  0  0  0  0
  -24.6920  -15.9460   20.3560 H   0  0  0  0  0  0  0  0  0  0  0  0
  -26.2650  -15.7050   19.7910 H   0  0  0  0  0  0  0  0  0  0  0  0
  -28.7490  -21.6410   20.0450 C   0  0  0  0  0  2  0  0  0  0  0  0
  -28.9770  -23.3010   19.7070 C   0  0  0  0  0  3  0  0  0  0  0  0
  -27.8640  -24.5630   19.8890 C   0  0  0  0  0  3  0  0  0  0  0  0
  -28.0980  -26.1030   19.7350 O   0  0  0  0  0  0  0  0  0  0  0  0
  -24.4640  -31.6330   23.0240 C   0  0  0  0  0  0  0  0  0  0  0  0
  -27.0170  -27.0620   19.7570 C   0  0  0  0  0  0  0  0  0  0  0  0
  -23.2370  -30.2880   21.3640 C   0  0  0  0  0  3  0  0  0  0  0  0
  -24.6640  -28.7760   19.8520 C   0  0  0  0  0  0  0  0  0  0  0  0
  -25.7850  -30.5830   21.1480 C   0  0  0  0  0  2  0  0  0  0  0  0
  -25.8560  -29.2140   20.4460 C   0  0  0  0  0  0  0  0  0  0  0  0
  -27.0300  -28.3750   20.3820 C   0  0  0  0  0  3  0  0  0  0  0  0
  -25.8030  -26.7350   19.1190 C   0  0  0  0  0  3  0  0  0  0  0  0
  -24.6500  -27.5500   19.1720 C   0  0  0  0  0  3  0  0  0  0  0  0
  -23.4340  -29.6640   19.9560 C   0  0  0  0  0  2  0  0  0  0  0  0
  -24.5170  -30.8530   21.9000 N   0  0  0  0  0  0  0  0  0  0  0  0
  -23.3870  -31.8860   23.5880 O   0  0  0  0  0  0  0  0  0  0  0  0
  -22.5920  -29.2370   22.3020 C   0  0  0  0  0  0  0  0  0  0  0  0
  -21.2610  -29.0690   22.2080 N   0  0  0  0  0  0  0  0  0  0  0  0
  -23.2910  -28.5770   23.0750 O   0  0  0  0  0  0  0  0  0  0  0  0
  -20.7530  -29.6570   21.5610 H   0  0  0  0  0  0  0  0  0  0  0  0
  -17.8910  -27.8740   22.8050 C   0  0  0  0  0  0  0  0  0  0  0  0
  -20.4620  -28.1020   22.9670 C   0  0  0  0  0  3  0  0  0  0  0  0
  -20.5200  -26.7000   22.3150 C   0  0  0  0  0  2  0  0  0  0  0  0
  -19.3710  -26.4400   21.3370 C   0  0  0  0  0  2  0  0  0  0  0  0
  -18.0230  -26.5630   22.0510 C   0  0  0  0  0  2  0  0  0  0  0  0
  -19.0360  -28.6060   23.2230 C   0  0  0  0  0  0  0  0  0  0  0  0
  -18.8550  -29.8340   23.8910 C   0  0  0  0  0  3  0  0  0  0  0  0
  -17.5630  -30.3350   24.1440 C   0  0  0  0  0  3  0  0  0  0  0  0
  -16.4350  -29.6000   23.7370 C   0  0  0  0  0  3  0  0  0  0  0  0
  -16.6000  -28.3720   23.0760 C   0  0  0  0  0  3  0  0  0  0  0  0
  -25.7490  -32.2580   23.6450 C   0  0  0  0  0  3  0  0  0  0  0  0
  -25.4220  -33.6320   24.0550 N   0  0  0  0  0  0  0  0  0  0  0  0
  -25.7030  -34.7310   23.3410 C   0  0  0  0  0  0  0  0  0  0  0  0
  -26.3330  -34.6950   22.2820 O   0  0  0  0  0  0  0  0  0  0  0  0
  -24.8490  -33.7310   24.8800 H   0  0  0  0  0  0  0  0  0  0  0  0
  -23.9180  -36.4980   23.1700 C   0  0  0  0  0  1  0  0  0  0  0  0
  -25.2110  -36.0860   23.8920 C   0  0  0  0  0  3  0  0  0  0  0  0
  -27.3710  -36.9800   24.6470 C   0  0  0  0  0  1  0  0  0  0  0  0
  -26.2140  -37.1670   23.7760 N   0  0  0  0  0  0  0  0  0  0  0  0
  -25.7970  -38.0700   23.9930 H   0  0  0  0  0  0  0  0  0  0  0  0
  -26.3100  -31.4340   24.8700 C   0  0  1  0  0  0  0  0  0  0  0  0
  -25.2510  -31.1270   25.9550 C   0  0  0  0  0  1  0  0  0  0  0  0
  -26.8960  -30.0850   24.3960 C   0  0  0  0  0  1  0  0  0  0  0  0
  -27.4760  -32.2080   25.5330 C   0  0  0  0  0  1  0  0  0  0  0  0
  1  4  1  0
  2  7  1  0
  3 12  1  0
  3  2  1  0
  4  5  1  0
  4  7  1  0
  6 51  1  0
  6  3  1  0
  6  1  1  0
  7 11  1  0
  7  8  1  6
 11  9  1  0
 11 10  1  0
 12 21  1  0
 13 19  1  0
 13 21  1  0
 14 19  1  0
 15 16  1  0
 15 14  1  0
 17 16  1  0
 17 26  1  0
 17 18  1  0
 19 18  1  0
 20 13  2  0
 21 22  1  0
 23 24  2  0
 24 43  1  0
 25 24  1  0
 25 28  1  0
 26 27  1  0
 26 23  1  0
 27 25  2  0
 28 29  1  0
 29 30  2  0
 31 34  1  0
 31 30  1  0
 32 31  2  0
 33 32  1  0
 33 28  2  0
 34 35  1  0
 35 36  1  0
 36 37  2  0
 38 37  1  0
 38 42  1  0
 39 38  2  0
 40 35  2  0
 40 39  1  0
 41 40  1  0
 43 44  1  0
 44 47  1  0
 44 46  1  0
 45 43  2  0
 48 49  1  0
 48 23  1  0
 50 48  1  0
 52 53  2  0
 52 51  1  0
 54 56  1  0
 54 53  1  0
 55 66  2  0
 56 61  1  0
 57 65  1  0
 57 67  1  0
 58 64  1  0
 58 60  1  0
 59 65  1  0
 60 59  1  0
 61 60  2  0
 62 63  1  0
 62 56  2  0
 63 58  2  0
 64 57  1  0
 65 55  1  0
 67 69  2  0
 68 67  1  0
 70 68  1  0
 71 80  2  0
 71 76  1  0
 72 68  1  0
 72 76  1  0
 73 72  1  0
 74 75  1  0
 74 73  1  0
 75 71  1  0
 76 77  2  0
 77 78  1  0
 79 78  2  0
 80 79  1  0
 81 55  1  0
 81 82  1  0
 81 91  1  0
 82 85  1  0
 83 87  1  0
 83 82  1  0
 84 83  2  0
 87 86  1  0
 89 87  1  0
 89 90  1  0
 89 88  1  0
 91 94  1  1
 91 92  1  0
 93 91  1  0
M  ISO  4  13 100  21 100  53 101  54 101
M  END
>  <TORSDO>  (63) 
F 21

>  <SCORE>  (63) 
-10.600

>  <name>  (63) 
62

>  <ligand_id>  (63) 
62

>  <original_smiles>  (63) 
[H]c1c([H])c([H])c2c(c1[H])C([H])([H])C([H])([H])C([H])([H])C2([H])N([H])C(=O)C1([H])N(C(=O)C([H])(N([H])C(=O)C([H])(N([H])C([H])([H])[H])C([H])([H])[H])C(C([H])([H])[H])(C([H])([H])[H])C([H])([H])[H])C([H])([H])c2c([H])c(OC([H])([H])C([H])([H])C([H])([H])N3C([H])([H])C([H])(C([H])([H])[H])[N+]([H])(C([H])(C([H])([H])[H])C([H])([H])[H])C([H])([H])C3([H])C([H])([H])N([H])C(=O)N3C([H])([H])C([H])([H])C([H])([H])C([H])(n4nc(-c5c([H])c([H])c(Oc6c([H])c([H])c(F)c([H])c6F)c([H])c5[H])c(C(=O)N([H])[H])c4N([H])[H])C3([H])[H])c([H])c([H])c2C1([H])[H]

>  <smiles>  (63) 
[H]c1c([H])c([H])c2c(c1[H])C([H])([H])C([H])([H])C([H])([H])C2([H])N([H])C(=O)C1([H])N(C(=O)C([H])(N([H])C(=O)C([H])(N([H])C([H])([H])[H])C([H])([H])[H])C(C([H])([H])[H])(C([H])([H])[H])C([H])([H])[H])C([H])([H])c2c([H])c(OC([H])([H])C([H])([H])C([H])([H])N3C([H])([H])C([H])(C([H])([H])[H])[N+]([H])(C([H])(C([H])([H])[H])C([H])([H])[H])C([H])([H])C3([H])C([H])([H])N([H])C(=O)N3C([H])([H])C([H])([H])C([H])([H])C([H])(n4nc(-c5c([H])c([H])c(Oc6c([H])c([H])c(F)c([H])c6F)c([H])c5[H])c(C(=O)N([H])[H])c4N([H])[H])C3([H])[H])c([H])c([H])c2C1([H])[H]

$$$$
63:0:0
     RDKit          3D

 90 98  0  0  1  0  0  0  0  0999 V2000
  -27.3400  -18.1000   20.7160 C   0  0  0  0  0  3  0  0  0  0  0  0
  -27.8640  -19.3510   20.3700 C   0  0  0  0  0  3  0  0  0  0  0  0
  -28.1770  -16.9740   20.7940 C   0  0  0  0  0  0  0  0  0  0  0  0
  -29.5280  -17.0520   20.3560 C   0  0  0  0  0  0  0  0  0  0  0  0
  -29.2390  -19.4850   20.1170 C   0  0  0  0  0  0  0  0  0  0  0  0
  -30.0340  -18.3330   20.0460 N   0  0  0  0  0  0  0  0  0  0  0  0
  -27.5240  -15.5920   21.6020 Cl  0  0  0  0  0  0  0  0  0  0  0  0
  -31.8240  -16.2360   21.1260 C   0  0  0  0  0  1  0  0  0  0  0  0
  -30.4710  -15.7480   20.5660 C   0  0  0  0  0  3  0  0  0  0  0  0
  -30.7120  -14.5150   19.5320 C   0  0  0  0  0  0  0  0  0  0  0  0
  -30.3150  -12.2820   18.4200 C   0  0  0  0  0  2  0  0  0  0  0  0
  -29.2380  -12.3960   17.3200 C   0  0  0  0  0  2  0  0  0  0  0  0
  -27.8330  -12.2100   17.9230 C   0  0  0  0  0  2  0  0  0  0  0  0
  -27.6280  -13.0560   19.2090 C   0  0  0  0  0  3  0  0  0  0  0  0
  -28.8190  -12.8940   20.1840 C   0  0  0  0  0  2  0  0  0  0  0  0
  -30.0360  -13.3030   19.4690 N   0  0  0  0  0  0  0  0  0  0  0  0
  -31.7010  -14.6310   18.7980 O   0  0  0  0  0  0  0  0  0  0  0  0
  -25.3120  -13.6280   20.1770 C   0  0  0  0  0  0  0  0  0  0  0  0
  -24.3080  -12.8500   20.6780 C   0  0  0  0  0  0  0  0  0  0  0  0
  -24.7680  -11.5000   20.5850 C   0  0  0  0  0  0  0  0  0  0  0  0
  -26.3420  -12.7600   19.8400 N   0  0  0  0  0  0  0  0  0  0  0  0
  -26.0200  -11.4740   20.1360 N   0  0  0  0  0  0  0  0  0  0  0  0
  -24.0670  -10.2350   20.8400 C   0  0  0  0  0  0  0  0  0  0  0  0
  -24.5310   -9.3150   21.8060 C   0  0  0  0  0  3  0  0  0  0  0  0
  -23.8250   -8.1160   22.0490 C   0  0  0  0  0  3  0  0  0  0  0  0
  -22.6440   -7.8280   21.3270 C   0  0  0  0  0  0  0  0  0  0  0  0
  -22.2010   -8.7350   20.3490 C   0  0  0  0  0  3  0  0  0  0  0  0
  -22.9060   -9.9250   20.1030 C   0  0  0  0  0  3  0  0  0  0  0  0
  -21.9100   -6.6770   21.4780 O   0  0  0  0  0  0  0  0  0  0  0  0
  -21.8050   -6.0430   22.6900 C   0  0  0  0  0  0  0  0  0  0  0  0
  -21.2800   -6.6960   23.8280 C   0  0  0  0  0  3  0  0  0  0  0  0
  -21.1270   -5.9890   25.0370 C   0  0  0  0  0  3  0  0  0  0  0  0
  -21.4890   -4.6300   25.1090 C   0  0  0  0  0  0  0  0  0  0  0  0
  -22.0060   -3.9780   23.9760 C   0  0  0  0  0  3  0  0  0  0  0  0
  -22.1610   -4.6820   22.7700 C   0  0  0  0  0  0  0  0  0  0  0  0
  -22.6420   -4.0430   21.6760 F   0  0  0  0  0  0  0  0  0  0  0  0
  -21.3320   -3.9480   26.2680 F   0  0  0  0  0  0  0  0  0  0  0  0
  -22.9530  -13.3240   21.1220 C   0  0  0  0  0  0  0  0  0  0  0  0
  -22.3490  -12.6280   22.0810 N   0  0  0  0  0  0  0  0  0  0  0  0
  -22.4490  -14.3460   20.6610 O   0  0  0  0  0  0  0  0  0  0  0  0
  -22.7760  -11.8040   22.4740 H   0  0  0  0  0  0  0  0  0  0  0  0
  -21.4450  -12.9230   22.4220 H   0  0  0  0  0  0  0  0  0  0  0  0
  -25.4170  -14.9960   19.9510 N   0  0  0  0  0  0  0  0  0  0  0  0
  -24.6580  -15.6280   20.1660 H   0  0  0  0  0  0  0  0  0  0  0  0
  -26.2570  -15.4680   19.6450 H   0  0  0  0  0  0  0  0  0  0  0  0
  -29.8110  -20.7890   19.9740 O   0  0  0  0  0  0  0  0  0  0  0  0
  -28.9810  -22.0240   20.2140 C   0  0  0  0  0  3  0  0  0  0  0  0
  -29.5400  -23.5500   20.1390 C   0  0  0  0  0  3  0  0  0  0  0  0
  -28.4540  -24.7560   20.2610 C   0  0  0  0  0  2  0  0  0  0  0  0
  -28.7600  -26.2400   20.2890 O   0  0  0  0  0  0  0  0  0  0  0  0
  -24.9970  -31.6550   23.4260 C   0  0  0  0  0  0  0  0  0  0  0  0
  -27.6780  -27.1620   20.2520 C   0  0  0  0  0  0  0  0  0  0  0  0
  -23.8550  -30.3700   21.6480 C   0  0  0  0  0  3  0  0  0  0  0  0
  -25.3570  -28.8680   20.2180 C   0  0  0  0  0  0  0  0  0  0  0  0
  -26.4150  -30.6320   21.6250 C   0  0  0  0  0  2  0  0  0  0  0  0
  -26.5050  -29.2840   20.9030 C   0  0  0  0  0  0  0  0  0  0  0  0
  -27.6710  -28.4490   20.9030 C   0  0  0  0  0  3  0  0  0  0  0  0
  -26.5030  -26.8280   19.5420 C   0  0  0  0  0  3  0  0  0  0  0  0
  -25.3580  -27.6490   19.5310 C   0  0  0  0  0  3  0  0  0  0  0  0
  -24.1420  -29.7750   20.2450 C   0  0  0  0  0  2  0  0  0  0  0  0
  -25.1050  -30.9010   22.2920 N   0  0  0  0  0  0  0  0  0  0  0  0
  -23.8900  -31.9340   23.9140 O   0  0  0  0  0  0  0  0  0  0  0  0
  -23.1180  -29.3200   22.5170 C   0  0  0  0  0  0  0  0  0  0  0  0
  -21.7920  -29.1850   22.3240 N   0  0  0  0  0  0  0  0  0  0  0  0
  -23.7420  -28.6320   23.3290 O   0  0  0  0  0  0  0  0  0  0  0  0
  -21.3470  -29.8070   21.6620 H   0  0  0  0  0  0  0  0  0  0  0  0
  -18.3700  -28.0380   22.5900 C   0  0  0  0  0  0  0  0  0  0  0  0
  -20.9160  -28.2260   23.0020 C   0  0  0  0  0  3  0  0  0  0  0  0
  -21.0170  -26.8230   22.3590 C   0  0  0  0  0  2  0  0  0  0  0  0
  -19.9620  -26.5770   21.2750 C   0  0  0  0  0  2  0  0  0  0  0  0
  -18.5530  -26.7210   21.8550 C   0  0  0  0  0  2  0  0  0  0  0  0
  -19.4790  -28.7510   23.1150 C   0  0  0  0  0  0  0  0  0  0  0  0
  -19.2530  -29.9860   23.7610 C   0  0  0  0  0  3  0  0  0  0  0  0
  -17.9510  -30.5050   23.8890 C   0  0  0  0  0  3  0  0  0  0  0  0
  -16.8550  -29.7880   23.3790 C   0  0  0  0  0  3  0  0  0  0  0  0
  -17.0650  -28.5550   22.7340 C   0  0  0  0  0  3  0  0  0  0  0  0
  -26.2560  -32.2230   24.1480 C   0  0  0  0  0  3  0  0  0  0  0  0
  -25.9630  -33.6120   24.5320 N   0  0  0  0  0  0  0  0  0  0  0  0
  -26.3540  -34.6930   23.8450 C   0  0  0  0  0  0  0  0  0  0  0  0
  -27.0710  -34.6260   22.8440 O   0  0  0  0  0  0  0  0  0  0  0  0
  -25.3430  -33.7420   25.3190 H   0  0  0  0  0  0  0  0  0  0  0  0
  -24.6900  -36.5470   23.5020 C   0  0  0  0  0  1  0  0  0  0  0  0
  -25.8770  -36.0650   24.3510 C   0  0  0  0  0  3  0  0  0  0  0  0
  -27.9830  -36.8520   25.3420 C   0  0  0  0  0  1  0  0  0  0  0  0
  -26.9370  -37.0960   24.3520 N   0  0  0  0  0  0  0  0  0  0  0  0
  -26.5440  -38.0170   24.5270 H   0  0  0  0  0  0  0  0  0  0  0  0
  -26.6890  -31.3790   25.4090 C   0  0  1  0  0  0  0  0  0  0  0  0
  -25.5360  -31.1220   26.4060 C   0  0  0  0  0  1  0  0  0  0  0  0
  -27.2620  -30.0070   24.9820 C   0  0  0  0  0  1  0  0  0  0  0  0
  -27.8180  -32.1150   26.1690 C   0  0  0  0  0  1  0  0  0  0  0  0
  1  3  1  0
  2  1  2  0
  3  7  1  0
  4  9  1  0
  4  3  2  0
  5  2  1  0
  6  5  2  0
  6  4  1  0
  9  8  1  0
 10  9  1  0
 11 16  1  0
 12 13  1  0
 12 11  1  0
 14 13  1  0
 14 21  1  0
 14 15  1  0
 16 10  1  0
 16 15  1  0
 17 10  2  0
 18 19  2  0
 19 38  1  0
 20 19  1  0
 20 23  1  0
 21 22  1  0
 21 18  1  0
 22 20  2  0
 23 24  1  0
 24 25  2  0
 26 29  1  0
 26 25  1  0
 27 26  2  0
 28 27  1  0
 28 23  2  0
 29 30  1  0
 30 35  2  0
 30 31  1  0
 31 32  2  0
 32 33  1  0
 33 37  1  0
 34 33  2  0
 35 34  1  0
 36 35  1  0
 38 39  1  0
 39 42  1  0
 39 41  1  0
 40 38  2  0
 43 44  1  0
 43 18  1  0
 45 43  1  0
 46  5  1  0
 46 47  1  0
 48 47  2  0
 48 49  1  0
 49 50  1  0
 51 62  2  0
 52 50  1  0
 52 57  1  0
 53 61  1  0
 53 63  1  0
 54 60  1  0
 54 56  1  0
 55 61  1  0
 56 57  2  0
 56 55  1  0
 58 52  2  0
 59 58  1  0
 59 54  2  0
 60 53  1  0
 61 51  1  0
 63 65  2  0
 64 63  1  0
 66 64  1  0
 67 76  2  0
 67 72  1  0
 68 64  1  0
 68 72  1  0
 69 68  1  0
 70 71  1  0
 70 69  1  0
 71 67  1  0
 72 73  2  0
 73 74  1  0
 75 74  2  0
 76 75  1  0
 77 51  1  0
 77 78  1  0
 77 87  1  0
 78 81  1  0
 79 83  1  0
 79 78  1  0
 80 79  2  0
 83 82  1  0
 83 85  1  0
 85 86  1  0
 85 84  1  0
 87 90  1  1
 87 88  1  0
 89 87  1  0
M  ISO  4   9 100  10 100  49 101  50 101
M  END
>  <TORSDO>  (64) 
F 21

>  <SCORE>  (64) 
-9.580

>  <name>  (64) 
63

>  <ligand_id>  (64) 
63

>  <original_smiles>  (64) 
[H]c1c(OC([H])([H])C([H])([H])C([H])([H])Oc2c([H])c([H])c3c(c2[H])C([H])([H])N(C(=O)C([H])(N([H])C(=O)C([H])(N([H])C([H])([H])[H])C([H])([H])[H])C(C([H])([H])[H])(C([H])([H])[H])C([H])([H])[H])C([H])(C(=O)N([H])C2([H])c4c([H])c([H])c([H])c([H])c4C([H])([H])C([H])([H])C2([H])[H])C3([H])[H])nc(C([H])(C(=O)N2C([H])([H])C([H])([H])C([H])([H])C([H])(n3nc(-c4c([H])c([H])c(Oc5c([H])c([H])c(F)c([H])c5F)c([H])c4[H])c(C(=O)N([H])[H])c3N([H])[H])C2([H])[H])C([H])([H])[H])c(Cl)c1[H]

>  <smiles>  (64) 
[H]c1c(OC([H])([H])C([H])([H])C([H])([H])Oc2c([H])c([H])c3c(c2[H])C([H])([H])N(C(=O)C([H])(N([H])C(=O)C([H])(N([H])C([H])([H])[H])C([H])([H])[H])C(C([H])([H])[H])(C([H])([H])[H])C([H])([H])[H])C([H])(C(=O)N([H])C2([H])c4c([H])c([H])c([H])c([H])c4C([H])([H])C([H])([H])C2([H])[H])C3([H])[H])nc(C([H])(C(=O)N2C([H])([H])C([H])([H])C([H])([H])C([H])(n3nc(-c4c([H])c([H])c(Oc5c([H])c([H])c(F)c([H])c5F)c([H])c4[H])c(C(=O)N([H])[H])c3N([H])[H])C2([H])[H])C([H])([H])[H])c(Cl)c1[H]

$$$$
64:0:0
     RDKit          3D

 89 97  0  0  1  0  0  0  0  0999 V2000
  -28.0460  -21.8160   22.1410 C   0  0  0  0  0  2  0  0  0  0  0  0
  -27.9270  -23.2490   21.5510 C   0  0  0  0  0  2  0  0  0  0  0  0
  -29.3510  -21.0580   21.7580 C   0  0  0  0  0  2  0  0  0  0  0  0
  -28.8150  -21.9880   19.5200 C   0  0  0  0  0  2  0  0  0  0  0  0
  -28.7370  -23.4990   20.2510 C   0  0  0  0  0  3  0  0  0  0  0  0
  -29.4380  -20.7570   20.2980 N   0  0  2  0  0  4  0  0  0  0  0  0
  -30.4210  -20.8220   20.0800 H   0  0  0  0  0  0  0  0  0  0  0  0
  -28.1620  -24.9070   19.5160 C   0  0  0  0  0  2  0  0  0  0  0  0
  -28.2910  -26.4000   19.9670 O   0  0  0  0  0  0  0  0  0  0  0  0
  -24.6490  -31.9650   23.1200 C   0  0  0  0  0  0  0  0  0  0  0  0
  -27.2290  -27.3760   19.9030 C   0  0  0  0  0  0  0  0  0  0  0  0
  -23.4410  -30.5970   21.4640 C   0  0  0  0  0  3  0  0  0  0  0  0
  -24.8850  -29.0990   19.9620 C   0  0  0  0  0  0  0  0  0  0  0  0
  -25.9860  -30.9100   21.2590 C   0  0  0  0  0  2  0  0  0  0  0  0
  -26.0680  -29.5380   20.5660 C   0  0  0  0  0  0  0  0  0  0  0  0
  -27.2400  -28.6940   20.5240 C   0  0  0  0  0  3  0  0  0  0  0  0
  -26.0250  -27.0580   19.2390 C   0  0  0  0  0  3  0  0  0  0  0  0
  -24.8780  -27.8760   19.2840 C   0  0  0  0  0  3  0  0  0  0  0  0
  -23.6480  -29.9800   20.0580 C   0  0  0  0  0  2  0  0  0  0  0  0
  -24.7140  -31.1800   22.0030 N   0  0  0  0  0  0  0  0  0  0  0  0
  -23.5690  -32.2120   23.6780 O   0  0  0  0  0  0  0  0  0  0  0  0
  -22.8000  -29.5440   22.4050 C   0  0  0  0  0  0  0  0  0  0  0  0
  -21.4760  -29.3400   22.2860 N   0  0  0  0  0  0  0  0  0  0  0  0
  -23.4960  -28.9210   23.2120 O   0  0  0  0  0  0  0  0  0  0  0  0
  -20.9690  -29.8990   21.6140 H   0  0  0  0  0  0  0  0  0  0  0  0
  -18.1450  -28.0070   22.7620 C   0  0  0  0  0  0  0  0  0  0  0  0
  -20.6900  -28.3610   23.0420 C   0  0  0  0  0  3  0  0  0  0  0  0
  -20.8480  -26.9390   22.4520 C   0  0  0  0  0  2  0  0  0  0  0  0
  -19.7630  -26.5900   21.4290 C   0  0  0  0  0  2  0  0  0  0  0  0
  -18.3750  -26.6750   22.0670 C   0  0  0  0  0  2  0  0  0  0  0  0
  -19.2320  -28.8050   23.2060 C   0  0  0  0  0  0  0  0  0  0  0  0
  -18.9640  -30.0470   23.8180 C   0  0  0  0  0  3  0  0  0  0  0  0
  -17.6390  -30.4960   23.9880 C   0  0  0  0  0  3  0  0  0  0  0  0
  -16.5670  -29.6990   23.5540 C   0  0  0  0  0  3  0  0  0  0  0  0
  -16.8220  -28.4550   22.9490 C   0  0  0  0  0  3  0  0  0  0  0  0
  -25.9290  -32.6060   23.7400 C   0  0  0  0  0  3  0  0  0  0  0  0
  -26.4530  -31.8320   25.0120 C   0  0  1  0  0  0  0  0  0  0  0  0
  -25.3620  -31.5710   26.0760 C   0  0  0  0  0  1  0  0  0  0  0  0
  -27.0650  -30.4690   24.6140 C   0  0  0  0  0  1  0  0  0  0  0  0
  -27.5850  -32.6440   25.6860 C   0  0  0  0  0  1  0  0  0  0  0  0
  -25.6050  -33.9990   24.0870 N   0  0  0  0  0  0  0  0  0  0  0  0
  -25.9010  -35.0640   23.3300 C   0  0  0  0  0  0  0  0  0  0  0  0
  -26.5430  -34.9790   22.2800 O   0  0  0  0  0  0  0  0  0  0  0  0
  -25.0380  -34.1350   24.9110 H   0  0  0  0  0  0  0  0  0  0  0  0
  -24.1380  -36.8400   23.0400 C   0  0  0  0  0  1  0  0  0  0  0  0
  -25.4070  -36.4420   23.8130 C   0  0  0  0  0  3  0  0  0  0  0  0
  -27.5470  -37.3570   24.6000 C   0  0  0  0  0  1  0  0  0  0  0  0
  -26.4230  -37.5100   23.6790 N   0  0  0  0  0  0  0  0  0  0  0  0
  -26.0040  -38.4230   23.8380 H   0  0  0  0  0  0  0  0  0  0  0  0
  -29.1050  -19.2320   19.9600 C   0  0  0  0  0  3  0  0  0  0  0  0
  -30.1990  -17.9540   20.1690 C   0  0  0  0  0  3  0  0  0  0  0  0
  -30.6670  -15.2330   19.9340 C   0  0  0  0  0  0  0  0  0  0  0  0
  -30.5340  -12.8770   19.0080 C   0  0  0  0  0  2  0  0  0  0  0  0
  -29.5410  -12.8170   17.8230 C   0  0  0  0  0  2  0  0  0  0  0  0
  -28.1060  -12.5790   18.3310 C   0  0  0  0  0  2  0  0  0  0  0  0
  -27.7430  -13.5230   19.5080 C   0  0  0  0  0  3  0  0  0  0  0  0
  -28.8450  -13.5570   20.5850 C   0  0  0  0  0  2  0  0  0  0  0  0
  -30.0830  -13.9690   19.9130 N   0  0  0  0  0  0  0  0  0  0  0  0
  -31.8620  -15.3140   19.6260 O   0  0  0  0  0  0  0  0  0  0  0  0
  -29.8690  -16.4020   20.1000 N   0  0  0  0  0  0  0  0  0  0  0  0
  -28.8900  -16.1900   20.2200 H   0  0  0  0  0  0  0  0  0  0  0  0
  -25.4260  -14.1030   20.4220 C   0  0  0  0  0  0  0  0  0  0  0  0
  -24.3770  -13.3270   20.8320 C   0  0  0  0  0  0  0  0  0  0  0  0
  -24.8210  -11.9730   20.7190 C   0  0  0  0  0  0  0  0  0  0  0  0
  -26.4370  -13.2210   20.0770 N   0  0  0  0  0  0  0  0  0  0  0  0
  -26.0880  -11.9330   20.3250 N   0  0  0  0  0  0  0  0  0  0  0  0
  -24.0900  -10.7150   20.9030 C   0  0  0  0  0  0  0  0  0  0  0  0
  -24.5300   -9.7290   21.8160 C   0  0  0  0  0  3  0  0  0  0  0  0
  -23.7990   -8.5330   21.9880 C   0  0  0  0  0  3  0  0  0  0  0  0
  -22.6160   -8.3130   21.2440 C   0  0  0  0  0  0  0  0  0  0  0  0
  -22.1960   -9.2860   20.3220 C   0  0  0  0  0  3  0  0  0  0  0  0
  -22.9270  -10.4730   20.1470 C   0  0  0  0  0  3  0  0  0  0  0  0
  -21.8550   -7.1720   21.3290 O   0  0  0  0  0  0  0  0  0  0  0  0
  -21.7850   -6.4360   22.4850 C   0  0  0  0  0  0  0  0  0  0  0  0
  -21.2950   -6.9880   23.6900 C   0  0  0  0  0  3  0  0  0  0  0  0
  -21.1730   -6.1770   24.8360 C   0  0  0  0  0  3  0  0  0  0  0  0
  -21.5280   -4.8170   24.7790 C   0  0  0  0  0  0  0  0  0  0  0  0
  -22.0110   -4.2660   23.5800 C   0  0  0  0  0  3  0  0  0  0  0  0
  -22.1330   -5.0720   22.4340 C   0  0  0  0  0  0  0  0  0  0  0  0
  -22.5800   -4.5300   21.2760 F   0  0  0  0  0  0  0  0  0  0  0  0
  -21.4010   -4.0370   25.8780 F   0  0  0  0  0  0  0  0  0  0  0  0
  -23.0040  -13.8110   21.2000 C   0  0  0  0  0  0  0  0  0  0  0  0
  -22.3220  -13.0980   22.0910 N   0  0  0  0  0  0  0  0  0  0  0  0
  -22.5490  -14.8540   20.7370 O   0  0  0  0  0  0  0  0  0  0  0  0
  -22.7020  -12.2540   22.4930 H   0  0  0  0  0  0  0  0  0  0  0  0
  -21.4050  -13.4070   22.3820 H   0  0  0  0  0  0  0  0  0  0  0  0
  -25.5980  -15.4790   20.2870 N   0  0  0  0  0  0  0  0  0  0  0  0
  -24.8360  -16.1310   20.4440 H   0  0  0  0  0  0  0  0  0  0  0  0
  -26.4050  -15.9180   19.8650 H   0  0  0  0  0  0  0  0  0  0  0  0
  2  1  1  0
  3  1  1  0
  4  5  1  0
  4  6  1  0
  5  8  1  0
  5  2  1  0
  6  3  1  0
  6  7  1  6
  8  9  1  0
 10 21  2  0
 11  9  1  0
 11 16  1  0
 12 20  1  0
 12 22  1  0
 13 19  1  0
 13 15  1  0
 14 20  1  0
 15 14  1  0
 16 15  2  0
 17 18  1  0
 17 11  2  0
 18 13  2  0
 19 12  1  0
 20 10  1  0
 22 24  2  0
 23 22  1  0
 25 23  1  0
 26 35  2  0
 26 31  1  0
 27 23  1  0
 27 31  1  0
 28 27  1  0
 29 30  1  0
 29 28  1  0
 30 26  1  0
 31 32  2  0
 32 33  1  0
 34 33  2  0
 35 34  1  0
 36 10  1  0
 36 41  1  0
 36 37  1  0
 37 40  1  1
 37 38  1  0
 39 37  1  0
 41 44  1  0
 42 46  1  0
 42 41  1  0
 43 42  2  0
 46 45  1  0
 48 46  1  0
 48 49  1  0
 48 47  1  0
 50 51  2  0
 50  6  1  0
 52 60  1  0
 53 58  1  0
 54 55  1  0
 54 53  1  0
 56 55  1  0
 56 65  1  0
 56 57  1  0
 58 52  1  0
 58 57  1  0
 59 52  2  0
 60 51  1  0
 60 61  1  0
 62 63  2  0
 63 82  1  0
 64 63  1  0
 64 67  1  0
 65 66  1  0
 65 62  1  0
 66 64  2  0
 67 68  1  0
 68 69  2  0
 70 73  1  0
 70 69  1  0
 71 70  2  0
 72 71  1  0
 72 67  2  0
 73 74  1  0
 74 75  1  0
 75 76  2  0
 77 76  1  0
 77 81  1  0
 78 77  2  0
 79 74  2  0
 79 78  1  0
 80 79  1  0
 82 83  1  0
 83 86  1  0
 83 85  1  0
 84 82  2  0
 87 62  1  0
 87 88  1  0
 89 87  1  0
M  ISO  4   8 101   9 101  52 100  60 100
M  END
>  <TORSDO>  (65) 
F 19

>  <SCORE>  (65) 
-14.208

>  <name>  (65) 
64

>  <ligand_id>  (65) 
64

>  <original_smiles>  (65) 
[H]c1c([H])c([H])c2c(c1[H])C([H])([H])C([H])([H])C([H])([H])C2([H])N([H])C(=O)C1([H])N(C(=O)C([H])(N([H])C(=O)C([H])(N([H])C([H])([H])[H])C([H])([H])[H])C(C([H])([H])[H])(C([H])([H])[H])C([H])([H])[H])C([H])([H])c2c([H])c(OC([H])([H])C3([H])C([H])([H])C([H])([H])C([H])([H])[N+]([H])(C([H])([H])C([H])([H])N([H])C(=O)N4C([H])([H])C([H])([H])C([H])([H])C([H])(n5nc(-c6c([H])c([H])c(Oc7c([H])c([H])c(F)c([H])c7F)c([H])c6[H])c(C(=O)N([H])[H])c5N([H])[H])C4([H])[H])C3([H])[H])c([H])c([H])c2C1([H])[H]

>  <smiles>  (65) 
[H]c1c([H])c([H])c2c(c1[H])C([H])([H])C([H])([H])C([H])([H])C2([H])N([H])C(=O)C1([H])N(C(=O)C([H])(N([H])C(=O)C([H])(N([H])C([H])([H])[H])C([H])([H])[H])C(C([H])([H])[H])(C([H])([H])[H])C([H])([H])[H])C([H])([H])c2c([H])c(OC([H])([H])C3([H])C([H])([H])C([H])([H])C([H])([H])[N+]([H])(C([H])([H])C([H])([H])N([H])C(=O)N4C([H])([H])C([H])([H])C([H])([H])C([H])(n5nc(-c6c([H])c([H])c(Oc7c([H])c([H])c(F)c([H])c7F)c([H])c6[H])c(C(=O)N([H])[H])c5N([H])[H])C4([H])[H])C3([H])[H])c([H])c([H])c2C1([H])[H]

$$$$
65:0:0
     RDKit          3D

 94103  0  0  1  0  0  0  0  0999 V2000
  -29.7980  -21.8150   19.9630 C   0  0  0  0  0  3  0  0  0  0  0  0
  -28.0270  -20.6940   19.5770 C   0  0  0  0  0  0  0  0  0  0  0  0
  -29.4210  -20.3860   19.8100 C   0  0  0  0  0  0  0  0  0  0  0  0
  -27.7060  -22.0670   19.5920 C   0  0  0  0  0  0  0  0  0  0  0  0
  -26.3520  -22.5740   19.2400 C   0  0  0  0  0  0  0  0  0  0  0  0
  -26.9510  -19.7090   19.2230 C   0  0  0  0  0  2  0  0  0  0  0  0
  -26.0150  -20.3430   18.1700 C   0  0  0  0  0  2  0  0  0  0  0  0
  -28.7820  -22.9500   19.8470 N   0  0  0  0  0  0  0  0  0  0  0  0
  -25.5890  -21.7300   18.4860 N   0  0  0  0  0  0  0  0  0  0  0  0
  -25.9960  -23.7080   19.5660 O   0  0  0  0  0  0  0  0  0  0  0  0
  -23.1070  -21.9210   18.6980 C   0  0  0  0  0  1  0  0  0  0  0  0
  -24.2020  -21.5970   16.4020 C   0  0  0  0  0  1  0  0  0  0  0  0
  -24.3450  -22.1790   17.8240 C   0  0  0  0  0  3  0  0  0  0  0  0
  -30.2810  -18.7760   19.8470 C   0  0  0  0  0  2  0  0  0  0  0  0
  -30.6910  -15.7810   19.8780 C   0  0  0  0  0  0  0  0  0  0  0  0
  -30.6600  -13.3010   19.0160 C   0  0  0  0  0  2  0  0  0  0  0  0
  -29.7080  -13.0280   17.8220 C   0  0  0  0  0  2  0  0  0  0  0  0
  -28.2790  -12.7480   18.3130 C   0  0  0  0  0  2  0  0  0  0  0  0
  -27.8530  -13.7260   19.4360 C   0  0  0  0  0  3  0  0  0  0  0  0
  -28.9340  -13.9160   20.5220 C   0  0  0  0  0  2  0  0  0  0  0  0
  -30.1230  -14.4600   19.8390 N   0  0  0  0  0  0  0  0  0  0  0  0
  -31.9080  -15.7380   19.6320 O   0  0  0  0  0  0  0  0  0  0  0  0
  -29.9580  -17.1020   19.9910 N   0  0  0  0  0  0  0  0  0  0  0  0
  -28.9790  -16.9350   20.1660 H   0  0  0  0  0  0  0  0  0  0  0  0
  -25.5300  -14.2970   20.3000 C   0  0  0  0  0  0  0  0  0  0  0  0
  -24.4690  -13.5300   20.6890 C   0  0  0  0  0  0  0  0  0  0  0  0
  -24.9100  -12.1730   20.6050 C   0  0  0  0  0  0  0  0  0  0  0  0
  -26.5450  -13.4110   19.9920 N   0  0  0  0  0  0  0  0  0  0  0  0
  -26.1890  -12.1250   20.2440 N   0  0  0  0  0  0  0  0  0  0  0  0
  -24.1650  -10.9200   20.7880 C   0  0  0  0  0  0  0  0  0  0  0  0
  -24.5580   -9.9570   21.7430 C   0  0  0  0  0  3  0  0  0  0  0  0
  -23.8080   -8.7730   21.9160 C   0  0  0  0  0  3  0  0  0  0  0  0
  -22.6540   -8.5430   21.1320 C   0  0  0  0  0  0  0  0  0  0  0  0
  -22.2800   -9.4940   20.1660 C   0  0  0  0  0  3  0  0  0  0  0  0
  -23.0290  -10.6690   19.9910 C   0  0  0  0  0  3  0  0  0  0  0  0
  -21.8810   -7.4100   21.2110 O   0  0  0  0  0  0  0  0  0  0  0  0
  -21.7510   -6.7070   22.3810 C   0  0  0  0  0  0  0  0  0  0  0  0
  -21.2310   -7.2990   23.5520 C   0  0  0  0  0  3  0  0  0  0  0  0
  -21.0500   -6.5230   24.7130 C   0  0  0  0  0  3  0  0  0  0  0  0
  -21.3770   -5.1540   24.7040 C   0  0  0  0  0  0  0  0  0  0  0  0
  -21.8900   -4.5610   23.5380 C   0  0  0  0  0  3  0  0  0  0  0  0
  -22.0730   -5.3340   22.3780 C   0  0  0  0  0  0  0  0  0  0  0  0
  -22.5470   -4.7520   21.2500 F   0  0  0  0  0  0  0  0  0  0  0  0
  -21.1960   -4.4050   25.8180 F   0  0  0  0  0  0  0  0  0  0  0  0
  -23.0910  -14.0280   21.0110 C   0  0  0  0  0  0  0  0  0  0  0  0
  -22.3940  -13.3560   21.9200 N   0  0  0  0  0  0  0  0  0  0  0  0
  -22.6440  -15.0500   20.4940 O   0  0  0  0  0  0  0  0  0  0  0  0
  -22.7700  -12.5320   22.3640 H   0  0  0  0  0  0  0  0  0  0  0  0
  -21.4710  -13.6760   22.1770 H   0  0  0  0  0  0  0  0  0  0  0  0
  -25.7060  -15.6700   20.1510 N   0  0  0  0  0  0  0  0  0  0  0  0
  -24.9390  -16.3180   20.2940 H   0  0  0  0  0  0  0  0  0  0  0  0
  -26.5180  -16.1020   19.7330 H   0  0  0  0  0  0  0  0  0  0  0  0
  -28.7920  -24.6650   19.5790 C   0  0  0  0  0  2  0  0  0  0  0  0
  -28.5270  -26.0030   20.5110 O   0  0  0  0  0  0  0  0  0  0  0  0
  -24.6550  -31.9230   23.3160 C   0  0  0  0  0  0  0  0  0  0  0  0
  -27.5310  -27.1330   20.3270 C   0  0  0  0  0  0  0  0  0  0  0  0
  -23.6060  -30.5250   21.5860 C   0  0  0  0  0  3  0  0  0  0  0  0
  -25.1880  -29.0040   20.1990 C   0  0  0  0  0  0  0  0  0  0  0  0
  -26.1720  -30.7980   21.6040 C   0  0  0  0  0  2  0  0  0  0  0  0
  -26.3230  -29.4030   20.9120 C   0  0  0  0  0  0  0  0  0  0  0  0
  -27.4770  -28.4840   20.9630 C   0  0  0  0  0  3  0  0  0  0  0  0
  -26.3710  -26.9250   19.5390 C   0  0  0  0  0  3  0  0  0  0  0  0
  -25.2440  -27.7920   19.4930 C   0  0  0  0  0  3  0  0  0  0  0  0
  -23.9390  -29.8880   20.2070 C   0  0  0  0  0  2  0  0  0  0  0  0
  -24.8290  -31.1110   22.2230 N   0  0  0  0  0  0  0  0  0  0  0  0
  -23.5290  -32.1680   23.7790 O   0  0  0  0  0  0  0  0  0  0  0  0
  -22.8910  -29.4860   22.4900 C   0  0  0  0  0  0  0  0  0  0  0  0
  -21.5590  -29.3540   22.3570 N   0  0  0  0  0  0  0  0  0  0  0  0
  -23.5440  -28.8020   23.2830 O   0  0  0  0  0  0  0  0  0  0  0  0
  -21.0830  -29.9600   21.7040 H   0  0  0  0  0  0  0  0  0  0  0  0
  -18.1450  -28.2260   22.8680 C   0  0  0  0  0  0  0  0  0  0  0  0
  -20.7190  -28.3860   23.0730 C   0  0  0  0  0  3  0  0  0  0  0  0
  -20.7530  -27.0050   22.3780 C   0  0  0  0  0  2  0  0  0  0  0  0
  -19.6130  -26.8070   21.3730 C   0  0  0  0  0  2  0  0  0  0  0  0
  -18.2550  -26.9380   22.0700 C   0  0  0  0  0  2  0  0  0  0  0  0
  -19.3010  -28.9130   23.3250 C   0  0  0  0  0  0  0  0  0  0  0  0
  -19.1420  -30.1200   24.0390 C   0  0  0  0  0  3  0  0  0  0  0  0
  -17.8610  -30.6410   24.2980 C   0  0  0  0  0  3  0  0  0  0  0  0
  -16.7180  -29.9500   23.8560 C   0  0  0  0  0  3  0  0  0  0  0  0
  -16.8620  -28.7440   23.1450 C   0  0  0  0  0  3  0  0  0  0  0  0
  -25.8640  -32.5960   24.0320 C   0  0  0  0  0  3  0  0  0  0  0  0
  -26.2530  -31.8900   25.3920 C   0  0  1  0  0  0  0  0  0  0  0  0
  -25.0610  -31.7100   26.3630 C   0  0  0  0  0  1  0  0  0  0  0  0
  -26.8620  -30.4920   25.1410 C   0  0  0  0  0  1  0  0  0  0  0  0
  -27.3400  -32.7180   26.1190 C   0  0  0  0  0  1  0  0  0  0  0  0
  -25.5160  -34.0080   24.2810 N   0  0  0  0  0  0  0  0  0  0  0  0
  -25.9010  -35.0420   23.5220 C   0  0  0  0  0  0  0  0  0  0  0  0
  -26.6460  -34.9100   22.5480 O   0  0  0  0  0  0  0  0  0  0  0  0
  -24.8540  -34.1830   25.0250 H   0  0  0  0  0  0  0  0  0  0  0  0
  -24.1740  -36.8100   23.0180 C   0  0  0  0  0  1  0  0  0  0  0  0
  -25.3790  -36.4450   23.8990 C   0  0  0  0  0  3  0  0  0  0  0  0
  -27.4550  -37.4040   24.8020 C   0  0  0  0  0  1  0  0  0  0  0  0
  -26.4050  -37.5080   23.7920 N   0  0  0  0  0  0  0  0  0  0  0  0
  -25.9800  -38.4270   23.8720 H   0  0  0  0  0  0  0  0  0  0  0  0
  2  4  2  0
  2  3  1  0
  3 14  1  0
  3  1  2  0
  4  8  1  0
  5 10  2  0
  5  4  1  0
  6  2  1  0
  7  9  1  0
  7  6  1  0
  8  1  1  0
  9  5  1  0
 12 13  1  0
 13  9  1  0
 13 11  1  0
 14 23  1  0
 15 23  1  0
 16 21  1  0
 17 18  1  0
 17 16  1  0
 19 18  1  0
 19 28  1  0
 19 20  1  0
 21 15  1  0
 21 20  1  0
 22 15  2  0
 23 24  1  0
 25 26  2  0
 26 45  1  0
 27 26  1  0
 27 30  1  0
 28 29  1  0
 28 25  1  0
 29 27  2  0
 30 31  1  0
 31 32  2  0
 33 36  1  0
 33 32  1  0
 34 33  2  0
 35 34  1  0
 35 30  2  0
 36 37  1  0
 37 38  1  0
 38 39  2  0
 40 39  1  0
 40 44  1  0
 41 40  2  0
 42 37  2  0
 42 41  1  0
 43 42  1  0
 45 46  1  0
 46 49  1  0
 46 48  1  0
 47 45  2  0
 50 51  1  0
 50 25  1  0
 52 50  1  0
 53  8  1  0
 53 54  1  0
 55 66  2  0
 56 54  1  0
 56 61  1  0
 57 65  1  0
 57 67  1  0
 58 64  1  0
 58 60  1  0
 59 65  1  0
 60 61  2  0
 60 59  1  0
 62 56  2  0
 63 62  1  0
 63 58  2  0
 64 57  1  0
 65 55  1  0
 67 69  2  0
 68 67  1  0
 70 68  1  0
 71 80  2  0
 71 76  1  0
 72 68  1  0
 72 76  1  0
 73 72  1  0
 74 75  1  0
 74 73  1  0
 75 71  1  0
 76 77  2  0
 77 78  1  0
 79 78  2  0
 80 79  1  0
 81 55  1  0
 81 86  1  0
 81 82  1  0
 82 85  1  1
 82 83  1  0
 84 82  1  0
 86 89  1  0
 87 91  1  0
 87 86  1  0
 88 87  2  0
 91 90  1  0
 93 94  1  0
 93 91  1  0
 93 92  1  0
M  ISO  4  15 100  23 100  53 101  54 101
M  END
>  <TORSDO>  (66) 
F 19

>  <SCORE>  (66) 
-14.266

>  <name>  (66) 
65

>  <ligand_id>  (66) 
65

>  <original_smiles>  (66) 
[H]c1c([H])c([H])c2c(c1[H])C([H])([H])C([H])([H])C([H])([H])C2([H])N([H])C(=O)C1([H])N(C(=O)C([H])(N([H])C(=O)C([H])(N([H])C([H])([H])[H])C([H])([H])[H])C(C([H])([H])[H])(C([H])([H])[H])C([H])([H])[H])C([H])([H])c2c([H])c(OC([H])([H])n3c([H])c(C([H])([H])N([H])C(=O)N4C([H])([H])C([H])([H])C([H])([H])C([H])(n5nc(-c6c([H])c([H])c(Oc7c([H])c([H])c(F)c([H])c7F)c([H])c6[H])c(C(=O)N([H])[H])c5N([H])[H])C4([H])[H])c4c3C(=O)N(C([H])(C([H])([H])[H])C([H])([H])[H])C([H])([H])C4([H])[H])c([H])c([H])c2C1([H])[H]

>  <smiles>  (66) 
[H]c1c([H])c([H])c2c(c1[H])C([H])([H])C([H])([H])C([H])([H])C2([H])N([H])C(=O)C1([H])N(C(=O)C([H])(N([H])C(=O)C([H])(N([H])C([H])([H])[H])C([H])([H])[H])C(C([H])([H])[H])(C([H])([H])[H])C([H])([H])[H])C([H])([H])c2c([H])c(OC([H])([H])n3c([H])c(C([H])([H])N([H])C(=O)N4C([H])([H])C([H])([H])C([H])([H])C([H])(n5nc(-c6c([H])c([H])c(Oc7c([H])c([H])c(F)c([H])c7F)c([H])c6[H])c(C(=O)N([H])[H])c5N([H])[H])C4([H])[H])c4c3C(=O)N(C([H])(C([H])([H])[H])C([H])([H])[H])C([H])([H])C4([H])[H])c([H])c([H])c2C1([H])[H]

$$$$
66:0:0
     RDKit          3D

 91 98  0  0  1  0  0  0  0  0999 V2000
  -28.9210  -21.7310   20.7210 N   0  0  0  0  0  4  0  0  0  0  0  0
  -28.5220  -21.7900   19.7970 H   0  0  0  0  0  0  0  0  0  0  0  0
  -28.1690  -21.4720   21.3370 H   0  0  0  0  0  0  0  0  0  0  0  0
  -30.9780  -20.6600   21.7770 C   0  0  0  0  0  1  0  0  0  0  0  0
  -29.8940  -20.5840   20.6800 C   0  0  0  0  0  3  0  0  0  0  0  0
  -27.8440  -19.1510   19.9470 C   0  0  0  0  0  1  0  0  0  0  0  0
  -29.1720  -19.1790   20.7420 C   0  0  0  0  0  3  0  0  0  0  0  0
  -30.0560  -17.9440   20.3040 C   0  0  0  0  0  2  0  0  0  0  0  0
  -30.5290  -16.9490   21.4160 C   0  0  0  0  0  2  0  0  0  0  0  0
  -30.9300  -14.5460   20.5770 C   0  0  0  0  0  0  0  0  0  0  0  0
  -30.7110  -12.3340   19.4670 C   0  0  0  0  0  2  0  0  0  0  0  0
  -29.8130  -12.4580   18.2180 C   0  0  0  0  0  2  0  0  0  0  0  0
  -28.3160  -12.3500   18.5850 C   0  0  0  0  0  2  0  0  0  0  0  0
  -27.9310  -13.2400   19.7960 C   0  0  0  0  0  3  0  0  0  0  0  0
  -28.9340  -13.0520   20.9550 C   0  0  0  0  0  2  0  0  0  0  0  0
  -30.2800  -13.3560   20.4370 N   0  0  0  0  0  0  0  0  0  0  0  0
  -32.0630  -14.7440   20.1240 O   0  0  0  0  0  0  0  0  0  0  0  0
  -30.1990  -15.5300   21.1470 N   0  0  0  0  0  0  0  0  0  0  0  0
  -29.2830  -15.2360   21.4580 H   0  0  0  0  0  0  0  0  0  0  0  0
  -25.5190  -13.9110   20.4010 C   0  0  0  0  0  0  0  0  0  0  0  0
  -24.4220  -13.1680   20.7480 C   0  0  0  0  0  0  0  0  0  0  0  0
  -24.8550  -11.8080   20.7610 C   0  0  0  0  0  0  0  0  0  0  0  0
  -26.5540  -13.0020   20.2280 N   0  0  0  0  0  0  0  0  0  0  0  0
  -26.1560  -11.7330   20.5020 N   0  0  0  0  0  0  0  0  0  0  0  0
  -24.0970  -10.5640   20.9500 C   0  0  0  0  0  0  0  0  0  0  0  0
  -24.4510   -9.6290   21.9480 C   0  0  0  0  0  3  0  0  0  0  0  0
  -23.6970   -8.4490   22.1230 C   0  0  0  0  0  3  0  0  0  0  0  0
  -22.5730   -8.1960   21.3000 C   0  0  0  0  0  0  0  0  0  0  0  0
  -22.2390   -9.1190   20.2930 C   0  0  0  0  0  3  0  0  0  0  0  0
  -22.9930  -10.2920   20.1150 C   0  0  0  0  0  3  0  0  0  0  0  0
  -21.7990   -7.0650   21.3790 O   0  0  0  0  0  0  0  0  0  0  0  0
  -21.6310   -6.3890   22.5620 C   0  0  0  0  0  0  0  0  0  0  0  0
  -21.0730   -7.0100   23.7020 C   0  0  0  0  0  3  0  0  0  0  0  0
  -20.8530   -6.2600   24.8750 C   0  0  0  0  0  3  0  0  0  0  0  0
  -21.1800   -4.8900   24.9080 C   0  0  0  0  0  0  0  0  0  0  0  0
  -21.7280   -4.2690   23.7720 C   0  0  0  0  0  3  0  0  0  0  0  0
  -21.9500   -5.0170   22.6010 C   0  0  0  0  0  0  0  0  0  0  0  0
  -22.4590   -4.4090   21.5010 F   0  0  0  0  0  0  0  0  0  0  0  0
  -20.9630   -4.1660   26.0310 F   0  0  0  0  0  0  0  0  0  0  0  0
  -23.0250  -13.6800   20.9590 C   0  0  0  0  0  0  0  0  0  0  0  0
  -22.2520  -13.0190   21.8130 N   0  0  0  0  0  0  0  0  0  0  0  0
  -22.6270  -14.6990   20.3970 O   0  0  0  0  0  0  0  0  0  0  0  0
  -22.5890  -12.1990   22.2960 H   0  0  0  0  0  0  0  0  0  0  0  0
  -21.3090  -13.3390   21.9850 H   0  0  0  0  0  0  0  0  0  0  0  0
  -25.7160  -15.2740   20.2000 N   0  0  0  0  0  0  0  0  0  0  0  0
  -24.9550  -15.9410   20.2610 H   0  0  0  0  0  0  0  0  0  0  0  0
  -26.5820  -15.6870   19.8800 H   0  0  0  0  0  0  0  0  0  0  0  0
  -29.3610  -23.1110   21.0980 C   0  0  0  0  0  2  0  0  0  0  0  0
  -28.4540  -24.2230   20.4800 C   0  0  0  0  0  2  0  0  0  0  0  0
  -28.6150  -25.6440   21.0930 C   0  0  0  0  0  2  0  0  0  0  0  0
  -28.4300  -26.7020   20.1360 O   0  0  0  0  0  0  0  0  0  0  0  0
  -24.6030  -31.8820   23.2320 C   0  0  0  0  0  0  0  0  0  0  0  0
  -27.2520  -27.4130   20.2000 C   0  0  0  0  0  0  0  0  0  0  0  0
  -23.3950  -30.4660   21.6000 C   0  0  0  0  0  3  0  0  0  0  0  0
  -24.8510  -28.9090   20.1960 C   0  0  0  0  0  0  0  0  0  0  0  0
  -25.9180  -30.8260   21.3950 C   0  0  0  0  0  2  0  0  0  0  0  0
  -26.0070  -29.4440   20.7770 C   0  0  0  0  0  0  0  0  0  0  0  0
  -27.2110  -28.7040   20.7750 C   0  0  0  0  0  3  0  0  0  0  0  0
  -26.0820  -26.8890   19.6130 C   0  0  0  0  0  3  0  0  0  0  0  0
  -24.8800  -27.6280   19.6160 C   0  0  0  0  0  3  0  0  0  0  0  0
  -23.6040  -29.7660   20.2300 C   0  0  0  0  0  2  0  0  0  0  0  0
  -24.6560  -31.0750   22.1340 N   0  0  0  0  0  0  0  0  0  0  0  0
  -23.5230  -32.1560   23.7750 O   0  0  0  0  0  0  0  0  0  0  0  0
  -22.7450  -29.4540   22.5710 C   0  0  0  0  0  0  0  0  0  0  0  0
  -21.4210  -29.2750   22.4520 N   0  0  0  0  0  0  0  0  0  0  0  0
  -23.4300  -28.8320   23.3870 O   0  0  0  0  0  0  0  0  0  0  0  0
  -20.9290  -29.8300   21.7650 H   0  0  0  0  0  0  0  0  0  0  0  0
  -18.0410  -28.1070   22.9800 C   0  0  0  0  0  0  0  0  0  0  0  0
  -20.6050  -28.3390   23.2260 C   0  0  0  0  0  3  0  0  0  0  0  0
  -20.6870  -26.9090   22.6460 C   0  0  0  0  0  2  0  0  0  0  0  0
  -19.5720  -26.6000   21.6410 C   0  0  0  0  0  2  0  0  0  0  0  0
  -18.1980  -26.7580   22.2990 C   0  0  0  0  0  2  0  0  0  0  0  0
  -19.1720  -28.8560   23.4000 C   0  0  0  0  0  0  0  0  0  0  0  0
  -18.9730  -30.1200   23.9950 C   0  0  0  0  0  3  0  0  0  0  0  0
  -17.6760  -30.6370   24.1730 C   0  0  0  0  0  3  0  0  0  0  0  0
  -16.5590  -29.8830   23.7720 C   0  0  0  0  0  3  0  0  0  0  0  0
  -16.7430  -28.6200   23.1800 C   0  0  0  0  0  3  0  0  0  0  0  0
  -25.8900  -32.5160   23.8470 C   0  0  0  0  0  3  0  0  0  0  0  0
  -26.4060  -31.7570   25.1300 C   0  0  1  0  0  0  0  0  0  0  0  0
  -25.3160  -31.5350   26.2020 C   0  0  0  0  0  1  0  0  0  0  0  0
  -26.9870  -30.3750   24.7490 C   0  0  0  0  0  1  0  0  0  0  0  0
  -27.5550  -32.5590   25.7870 C   0  0  0  0  0  1  0  0  0  0  0  0
  -25.5900  -33.9190   24.1600 N   0  0  0  0  0  0  0  0  0  0  0  0
  -25.9360  -34.9600   23.3910 C   0  0  0  0  0  0  0  0  0  0  0  0
  -26.6130  -34.8390   22.3660 O   0  0  0  0  0  0  0  0  0  0  0  0
  -24.9910  -34.0890   24.9550 H   0  0  0  0  0  0  0  0  0  0  0  0
  -24.2280  -36.7610   22.9870 C   0  0  0  0  0  1  0  0  0  0  0  0
  -25.4510  -36.3570   23.8260 C   0  0  0  0  0  3  0  0  0  0  0  0
  -27.5740  -37.2330   24.6910 C   0  0  0  0  0  1  0  0  0  0  0  0
  -26.4950  -37.3990   23.7230 N   0  0  0  0  0  0  0  0  0  0  0  0
  -26.0920  -38.3240   23.8510 H   0  0  0  0  0  0  0  0  0  0  0  0
  1 48  1  0
  1  3  1  0
  2  1  1  0
  5  1  1  0
  5  7  1  0
  5  4  1  0
  7  6  1  0
  8  7  1  0
  8  9  1  0
 10 18  1  0
 11 16  1  0
 12 13  1  0
 12 11  1  0
 14 13  1  0
 14 23  1  0
 14 15  1  0
 16 10  1  0
 16 15  1  0
 17 10  2  0
 18  9  1  0
 18 19  1  0
 20 21  2  0
 21 22  1  0
 21 40  1  0
 22 25  1  0
 23 20  1  0
 23 24  1  0
 24 22  2  0
 25 26  1  0
 26 27  2  0
 28 31  1  0
 28 27  1  0
 29 28  2  0
 30 29  1  0
 30 25  2  0
 31 32  1  0
 32 37  2  0
 32 33  1  0
 33 34  2  0
 34 35  1  0
 35 39  1  0
 36 35  2  0
 37 36  1  0
 38 37  1  0
 40 41  1  0
 41 44  1  0
 41 43  1  0
 42 40  2  0
 45 46  1  0
 45 20  1  0
 47 45  1  0
 49 50  1  0
 49 48  1  0
 51 53  1  0
 51 50  1  0
 52 63  2  0
 53 58  1  0
 54 62  1  0
 54 64  1  0
 55 61  1  0
 55 57  1  0
 56 62  1  0
 57 56  1  0
 58 57  2  0
 59 60  1  0
 59 53  2  0
 60 55  2  0
 61 54  1  0
 62 52  1  0
 64 66  2  0
 65 64  1  0
 67 65  1  0
 68 77  2  0
 68 73  1  0
 69 65  1  0
 69 73  1  0
 70 69  1  0
 71 72  1  0
 71 70  1  0
 72 68  1  0
 73 74  2  0
 74 75  1  0
 76 75  2  0
 77 76  1  0
 78 52  1  0
 78 83  1  0
 78 79  1  0
 79 82  1  1
 79 80  1  0
 81 79  1  0
 83 86  1  0
 84 88  1  0
 84 83  1  0
 85 84  2  0
 88 87  1  0
 90 88  1  0
 90 91  1  0
 90 89  1  0
M  ISO  4  10 100  18 100  50 101  51 101
M  END
>  <TORSDO>  (67) 
F 23

>  <SCORE>  (67) 
-12.579

>  <name>  (67) 
66

>  <ligand_id>  (67) 
66

>  <original_smiles>  (67) 
[H]c1c([H])c([H])c2c(c1[H])C([H])([H])C([H])([H])C([H])([H])C2([H])N([H])C(=O)C1([H])N(C(=O)C([H])(N([H])C(=O)C([H])(N([H])C([H])([H])[H])C([H])([H])[H])C(C([H])([H])[H])(C([H])([H])[H])C([H])([H])[H])C([H])([H])c2c([H])c(OC([H])([H])C([H])([H])C([H])([H])[N+]([H])([H])C([H])(C([H])([H])[H])C([H])(C([H])([H])[H])C([H])([H])C([H])([H])N([H])C(=O)N3C([H])([H])C([H])([H])C([H])([H])C([H])(n4nc(-c5c([H])c([H])c(Oc6c([H])c([H])c(F)c([H])c6F)c([H])c5[H])c(C(=O)N([H])[H])c4N([H])[H])C3([H])[H])c([H])c([H])c2C1([H])[H]

>  <smiles>  (67) 
[H]c1c([H])c([H])c2c(c1[H])C([H])([H])C([H])([H])C([H])([H])C2([H])N([H])C(=O)C1([H])N(C(=O)C([H])(N([H])C(=O)C([H])(N([H])C([H])([H])[H])C([H])([H])[H])C(C([H])([H])[H])(C([H])([H])[H])C([H])([H])[H])C([H])([H])c2c([H])c(OC([H])([H])C([H])([H])C([H])([H])[N+]([H])([H])C([H])(C([H])([H])[H])C([H])(C([H])([H])[H])C([H])([H])C([H])([H])N([H])C(=O)N3C([H])([H])C([H])([H])C([H])([H])C([H])(n4nc(-c5c([H])c([H])c(Oc6c([H])c([H])c(F)c([H])c6F)c([H])c5[H])c(C(=O)N([H])[H])c4N([H])[H])C3([H])[H])c([H])c([H])c2C1([H])[H]

$$$$
67:0:0
     RDKit          3D

 89 97  0  0  1  0  0  0  0  0999 V2000
  -30.4060  -23.6870   19.6450 C   0  0  0  0  0  1  0  0  0  0  0  0
  -29.5190  -23.5070   21.9700 C   0  0  0  0  0  1  0  0  0  0  0  0
  -29.1660  -23.3180   20.4840 C   0  0  2  0  0  0  0  0  0  0  0  0
  -28.0310  -19.5900   20.2800 C   0  0  0  0  0  3  0  0  0  0  0  0
  -27.7800  -20.9660   20.2860 C   0  0  0  0  0  3  0  0  0  0  0  0
  -29.9240  -20.6210   20.3910 C   0  0  0  0  0  3  0  0  0  0  0  0
  -29.4320  -19.2780   20.3520 C   0  0  0  0  0  0  0  0  0  0  0  0
  -28.9560  -21.7150   20.3330 N   0  0  0  0  0  0  0  0  0  0  0  0
  -30.2630  -17.8030   20.4010 C   0  0  0  0  0  2  0  0  0  0  0  0
  -30.5240  -15.0540   20.2990 C   0  0  0  0  0  0  0  0  0  0  0  0
  -30.4100  -12.6870   19.3660 C   0  0  0  0  0  2  0  0  0  0  0  0
  -29.4810  -12.6230   18.1330 C   0  0  0  0  0  2  0  0  0  0  0  0
  -28.0140  -12.4120   18.5580 C   0  0  0  0  0  2  0  0  0  0  0  0
  -27.6080  -13.3220   19.7490 C   0  0  0  0  0  3  0  0  0  0  0  0
  -28.6660  -13.3530   20.8710 C   0  0  0  0  0  2  0  0  0  0  0  0
  -29.9200  -13.7920   20.2470 N   0  0  0  0  0  0  0  0  0  0  0  0
  -31.7310  -15.0830   20.0340 O   0  0  0  0  0  0  0  0  0  0  0  0
  -29.7850  -16.2800   20.4400 N   0  0  0  0  0  0  0  0  0  0  0  0
  -28.7950  -16.1550   20.5930 H   0  0  0  0  0  0  0  0  0  0  0  0
  -25.2350  -13.8970   20.5010 C   0  0  0  0  0  0  0  0  0  0  0  0
  -24.1680  -13.1230   20.8680 C   0  0  0  0  0  0  0  0  0  0  0  0
  -24.6260  -11.7710   20.8270 C   0  0  0  0  0  0  0  0  0  0  0  0
  -26.2720  -13.0180   20.2520 N   0  0  0  0  0  0  0  0  0  0  0  0
  -25.9170  -11.7310   20.5100 N   0  0  0  0  0  0  0  0  0  0  0  0
  -23.8940  -10.5110   21.0130 C   0  0  0  0  0  0  0  0  0  0  0  0
  -24.3090   -9.5530   21.9640 C   0  0  0  0  0  3  0  0  0  0  0  0
  -23.5800   -8.3570   22.1380 C   0  0  0  0  0  3  0  0  0  0  0  0
  -22.4210   -8.1100   21.3630 C   0  0  0  0  0  0  0  0  0  0  0  0
  -22.0280   -9.0570   20.4020 C   0  0  0  0  0  3  0  0  0  0  0  0
  -22.7550  -10.2460   20.2260 C   0  0  0  0  0  3  0  0  0  0  0  0
  -21.6660   -6.9660   21.4450 O   0  0  0  0  0  0  0  0  0  0  0  0
  -21.5710   -6.2490   22.6110 C   0  0  0  0  0  0  0  0  0  0  0  0
  -21.0630   -6.8200   23.7970 C   0  0  0  0  0  3  0  0  0  0  0  0
  -20.9180   -6.0290   24.9550 C   0  0  0  0  0  3  0  0  0  0  0  0
  -21.2660   -4.6650   24.9240 C   0  0  0  0  0  0  0  0  0  0  0  0
  -21.7630   -4.0910   23.7410 C   0  0  0  0  0  3  0  0  0  0  0  0
  -21.9110   -4.8810   22.5870 C   0  0  0  0  0  0  0  0  0  0  0  0
  -22.3710   -4.3190   21.4430 F   0  0  0  0  0  0  0  0  0  0  0  0
  -21.1190   -3.9020   26.0320 F   0  0  0  0  0  0  0  0  0  0  0  0
  -22.7740  -13.6040   21.1420 C   0  0  0  0  0  0  0  0  0  0  0  0
  -22.0460  -12.9100   22.0120 N   0  0  0  0  0  0  0  0  0  0  0  0
  -22.3380  -14.6280   20.6190 O   0  0  0  0  0  0  0  0  0  0  0  0
  -22.4110  -12.0880   22.4680 H   0  0  0  0  0  0  0  0  0  0  0  0
  -21.1060  -13.2100   22.2250 H   0  0  0  0  0  0  0  0  0  0  0  0
  -25.4000  -15.2700   20.3270 N   0  0  0  0  0  0  0  0  0  0  0  0
  -24.6350  -15.9220   20.4610 H   0  0  0  0  0  0  0  0  0  0  0  0
  -26.2260  -15.7000   19.9300 H   0  0  0  0  0  0  0  0  0  0  0  0
  -28.0430  -24.5750   20.1370 C   0  0  0  0  0  2  0  0  0  0  0  0
  -28.2700  -26.1400   20.2810 O   0  0  0  0  0  0  0  0  0  0  0  0
  -24.6560  -31.8660   23.2580 C   0  0  0  0  0  0  0  0  0  0  0  0
  -27.2190  -27.1400   20.2040 C   0  0  0  0  0  0  0  0  0  0  0  0
  -23.4500  -30.4890   21.6090 C   0  0  0  0  0  3  0  0  0  0  0  0
  -24.8940  -28.9160   20.1740 C   0  0  0  0  0  0  0  0  0  0  0  0
  -26.0060  -30.7480   21.4350 C   0  0  0  0  0  2  0  0  0  0  0  0
  -26.0810  -29.3570   20.7730 C   0  0  0  0  0  0  0  0  0  0  0  0
  -27.2410  -28.4880   20.7630 C   0  0  0  0  0  3  0  0  0  0  0  0
  -26.0030  -26.8100   19.5650 C   0  0  0  0  0  3  0  0  0  0  0  0
  -24.8710  -27.6570   19.5570 C   0  0  0  0  0  3  0  0  0  0  0  0
  -23.6700  -29.8210   20.2270 C   0  0  0  0  0  2  0  0  0  0  0  0
  -24.7260  -31.0560   22.1560 N   0  0  0  0  0  0  0  0  0  0  0  0
  -23.5720  -32.1460   23.7920 O   0  0  0  0  0  0  0  0  0  0  0  0
  -22.7690  -29.4760   22.5630 C   0  0  0  0  0  0  0  0  0  0  0  0
  -21.4400  -29.3070   22.4360 N   0  0  0  0  0  0  0  0  0  0  0  0
  -23.4390  -28.8430   23.3840 O   0  0  0  0  0  0  0  0  0  0  0  0
  -20.9550  -29.8690   21.7500 H   0  0  0  0  0  0  0  0  0  0  0  0
  -18.0590  -28.1090   22.9310 C   0  0  0  0  0  0  0  0  0  0  0  0
  -20.6180  -28.3650   23.1990 C   0  0  0  0  0  3  0  0  0  0  0  0
  -20.7180  -26.9380   22.6120 C   0  0  0  0  0  2  0  0  0  0  0  0
  -19.6160  -26.6270   21.5950 C   0  0  0  0  0  2  0  0  0  0  0  0
  -18.2330  -26.7680   22.2390 C   0  0  0  0  0  2  0  0  0  0  0  0
  -19.1780  -28.8670   23.3660 C   0  0  0  0  0  0  0  0  0  0  0  0
  -18.9600  -30.1210   23.9730 C   0  0  0  0  0  3  0  0  0  0  0  0
  -17.6570  -30.6200   24.1500 C   0  0  0  0  0  3  0  0  0  0  0  0
  -16.5510  -29.8610   23.7280 C   0  0  0  0  0  3  0  0  0  0  0  0
  -16.7530  -28.6070   23.1240 C   0  0  0  0  0  3  0  0  0  0  0  0
  -25.9340  -32.4950   23.8910 C   0  0  0  0  0  3  0  0  0  0  0  0
  -26.4270  -31.7290   25.1810 C   0  0  1  0  0  0  0  0  0  0  0  0
  -25.3180  -31.5150   26.2360 C   0  0  0  0  0  1  0  0  0  0  0  0
  -26.9980  -30.3420   24.8080 C   0  0  0  0  0  1  0  0  0  0  0  0
  -27.5740  -32.5200   25.8530 C   0  0  0  0  0  1  0  0  0  0  0  0
  -25.6310  -33.8980   24.2160 N   0  0  0  0  0  0  0  0  0  0  0  0
  -25.9490  -34.9470   23.4480 C   0  0  0  0  0  0  0  0  0  0  0  0
  -26.5930  -34.8370   22.4020 O   0  0  0  0  0  0  0  0  0  0  0  0
  -25.0530  -34.0560   25.0280 H   0  0  0  0  0  0  0  0  0  0  0  0
  -24.1950  -36.7320   23.1610 C   0  0  0  0  0  1  0  0  0  0  0  0
  -25.4750  -36.3390   23.9150 C   0  0  0  0  0  3  0  0  0  0  0  0
  -27.6380  -37.2450   24.6440 C   0  0  0  0  0  1  0  0  0  0  0  0
  -26.4960  -37.3960   23.7450 N   0  0  0  0  0  0  0  0  0  0  0  0
  -26.0920  -38.3140   23.9040 H   0  0  0  0  0  0  0  0  0  0  0  0
  3  1  1  6
  3  2  1  0
  4  5  2  0
  4  7  1  0
  5  8  1  0
  7  6  2  0
  7  9  1  0
  8  6  1  0
  8  3  1  0
  9 18  1  0
 10 18  1  0
 11 16  1  0
 12 13  1  0
 12 11  1  0
 14 13  1  0
 14 23  1  0
 14 15  1  0
 16 10  1  0
 16 15  1  0
 17 10  2  0
 18 19  1  0
 20 21  2  0
 21 40  1  0
 22 21  1  0
 22 25  1  0
 23 20  1  0
 23 24  1  0
 24 22  2  0
 25 26  1  0
 26 27  2  0
 28 31  1  0
 28 27  1  0
 29 28  2  0
 30 29  1  0
 30 25  2  0
 31 32  1  0
 32 33  1  0
 33 34  2  0
 35 34  1  0
 35 39  1  0
 36 35  2  0
 37 32  2  0
 37 36  1  0
 38 37  1  0
 40 41  1  0
 41 44  1  0
 41 43  1  0
 42 40  2  0
 45 46  1  0
 45 20  1  0
 47 45  1  0
 48 49  1  0
 48  3  1  0
 50 61  2  0
 51 49  1  0
 51 56  1  0
 52 60  1  0
 52 62  1  0
 53 59  1  0
 53 55  1  0
 54 60  1  0
 55 54  1  0
 56 55  2  0
 57 51  2  0
 58 57  1  0
 58 53  2  0
 59 52  1  0
 60 50  1  0
 62 64  2  0
 63 62  1  0
 65 63  1  0
 66 75  2  0
 66 71  1  0
 67 63  1  0
 67 71  1  0
 68 67  1  0
 69 70  1  0
 69 68  1  0
 70 66  1  0
 71 72  2  0
 72 73  1  0
 74 73  2  0
 75 74  1  0
 76 50  1  0
 76 81  1  0
 76 77  1  0
 77 80  1  1
 77 78  1  0
 79 77  1  0
 81 84  1  0
 82 86  1  0
 82 81  1  0
 83 82  2  0
 86 85  1  0
 88 89  1  0
 88 86  1  0
 88 87  1  0
M  ISO  4  10 100  18 100  48 101  49 101
M  END
>  <TORSDO>  (68) 
F 19

>  <SCORE>  (68) 
-14.612

>  <name>  (68) 
67

>  <ligand_id>  (68) 
67

>  <original_smiles>  (68) 
[H]c1c([H])c([H])c2c(c1[H])C([H])([H])C([H])([H])C([H])([H])C2([H])N([H])C(=O)C1([H])N(C(=O)C([H])(N([H])C(=O)C([H])(N([H])C([H])([H])[H])C([H])([H])[H])C(C([H])([H])[H])(C([H])([H])[H])C([H])([H])[H])C([H])([H])c2c([H])c(OC([H])([H])C(n3c([H])c([H])c(C([H])([H])N([H])C(=O)N4C([H])([H])C([H])([H])C([H])([H])C([H])(n5nc(-c6c([H])c([H])c(Oc7c([H])c([H])c(F)c([H])c7F)c([H])c6[H])c(C(=O)N([H])[H])c5N([H])[H])C4([H])[H])c3[H])(C([H])([H])[H])C([H])([H])[H])c([H])c([H])c2C1([H])[H]

>  <smiles>  (68) 
[H]c1c([H])c([H])c2c(c1[H])C([H])([H])C([H])([H])C([H])([H])C2([H])N([H])C(=O)C1([H])N(C(=O)C([H])(N([H])C(=O)C([H])(N([H])C([H])([H])[H])C([H])([H])[H])C(C([H])([H])[H])(C([H])([H])[H])C([H])([H])[H])C([H])([H])c2c([H])c(OC([H])([H])C(n3c([H])c([H])c(C([H])([H])N([H])C(=O)N4C([H])([H])C([H])([H])C([H])([H])C([H])(n5nc(-c6c([H])c([H])c(Oc7c([H])c([H])c(F)c([H])c7F)c([H])c6[H])c(C(=O)N([H])[H])c5N([H])[H])C4([H])[H])c3[H])(C([H])([H])[H])C([H])([H])[H])c([H])c([H])c2C1([H])[H]

$$$$
68:0:0
     RDKit          3D

 92 99  0  0  1  0  0  0  0  0999 V2000
  -28.1830  -22.6620   20.3440 C   0  0  0  0  0  3  0  0  0  0  0  0
  -29.9520  -21.4580   21.7720 C   0  0  0  0  0  1  0  0  0  0  0  0
  -29.1830  -21.3200   20.5150 N   0  0  1  0  0  4  0  0  0  0  0  0
  -29.8880  -21.4750   19.8080 H   0  0  0  0  0  0  0  0  0  0  0  0
  -28.8250  -19.6950   20.3100 C   0  0  0  0  0  3  0  0  0  0  0  0
  -29.8860  -18.2350   20.4570 C   0  0  0  0  0  3  0  0  0  0  0  0
  -30.4020  -15.3240   20.1960 C   0  0  0  0  0  0  0  0  0  0  0  0
  -30.3720  -12.8880   19.2880 C   0  0  0  0  0  2  0  0  0  0  0  0
  -29.4200  -12.6830   18.0820 C   0  0  0  0  0  2  0  0  0  0  0  0
  -27.9870  -12.3980   18.5660 C   0  0  0  0  0  2  0  0  0  0  0  0
  -27.5620  -13.3510   19.7090 C   0  0  0  0  0  3  0  0  0  0  0  0
  -28.6410  -13.4940   20.8030 C   0  0  0  0  0  2  0  0  0  0  0  0
  -29.8420  -14.0170   20.1350 N   0  0  0  0  0  0  0  0  0  0  0  0
  -31.6210  -15.3360   19.9700 O   0  0  0  0  0  0  0  0  0  0  0  0
  -29.6220  -16.5840   20.3070 N   0  0  0  0  0  0  0  0  0  0  0  0
  -28.6370  -16.3720   20.3610 H   0  0  0  0  0  0  0  0  0  0  0  0
  -25.2200  -13.8880   20.5510 C   0  0  0  0  0  0  0  0  0  0  0  0
  -24.1710  -13.1010   20.9350 C   0  0  0  0  0  0  0  0  0  0  0  0
  -24.6380  -11.7520   20.8560 C   0  0  0  0  0  0  0  0  0  0  0  0
  -26.2550  -13.0190   20.2560 N   0  0  0  0  0  0  0  0  0  0  0  0
  -25.9190  -11.7270   20.5060 N   0  0  0  0  0  0  0  0  0  0  0  0
  -23.9170  -10.4860   21.0360 C   0  0  0  0  0  0  0  0  0  0  0  0
  -24.3700   -9.5010   21.9400 C   0  0  0  0  0  3  0  0  0  0  0  0
  -23.6500   -8.2990   22.1090 C   0  0  0  0  0  3  0  0  0  0  0  0
  -22.4600   -8.0760   21.3760 C   0  0  0  0  0  0  0  0  0  0  0  0
  -22.0270   -9.0490   20.4590 C   0  0  0  0  0  3  0  0  0  0  0  0
  -22.7480  -10.2420   20.2880 C   0  0  0  0  0  3  0  0  0  0  0  0
  -21.7070   -6.9290   21.4580 O   0  0  0  0  0  0  0  0  0  0  0  0
  -21.6700   -6.1730   22.6020 C   0  0  0  0  0  0  0  0  0  0  0  0
  -21.2510   -6.7120   23.8380 C   0  0  0  0  0  3  0  0  0  0  0  0
  -21.1660   -5.8810   24.9740 C   0  0  0  0  0  3  0  0  0  0  0  0
  -21.4830   -4.5140   24.8730 C   0  0  0  0  0  0  0  0  0  0  0  0
  -21.8910   -3.9750   23.6420 C   0  0  0  0  0  3  0  0  0  0  0  0
  -21.9820   -4.8020   22.5080 C   0  0  0  0  0  0  0  0  0  0  0  0
  -22.3570   -4.2740   21.3190 F   0  0  0  0  0  0  0  0  0  0  0  0
  -21.3910   -3.7130   25.9620 F   0  0  0  0  0  0  0  0  0  0  0  0
  -22.7840  -13.5700   21.2570 C   0  0  0  0  0  0  0  0  0  0  0  0
  -22.0830  -12.8550   22.1310 N   0  0  0  0  0  0  0  0  0  0  0  0
  -22.3310  -14.6040   20.7680 O   0  0  0  0  0  0  0  0  0  0  0  0
  -22.4660  -12.0170   22.5440 H   0  0  0  0  0  0  0  0  0  0  0  0
  -21.1540  -13.1480   22.3930 H   0  0  0  0  0  0  0  0  0  0  0  0
  -25.3760  -15.2620   20.3950 N   0  0  0  0  0  0  0  0  0  0  0  0
  -24.6040  -15.9060   20.5180 H   0  0  0  0  0  0  0  0  0  0  0  0
  -26.1940  -15.6980   19.9920 H   0  0  0  0  0  0  0  0  0  0  0  0
  -27.3990  -22.5830   19.0460 C   0  0  0  0  0  3  0  0  0  0  0  0
  -26.0570  -22.4760   18.9930 C   0  0  0  0  0  3  0  0  0  0  0  0
  -25.0420  -21.0990   17.1990 C   0  0  0  0  0  1  0  0  0  0  0  0
  -24.0810  -23.2840   17.7410 C   0  0  0  0  0  1  0  0  0  0  0  0
  -25.3090  -22.4590   17.7100 N   0  0  1  0  0  4  0  0  0  0  0  0
  -25.8930  -22.8980   17.0140 H   0  0  0  0  0  0  0  0  0  0  0  0
  -28.4530  -24.4070   20.7490 C   0  0  0  0  0  2  0  0  0  0  0  0
  -28.3290  -25.9190   20.0900 O   0  0  0  0  0  0  0  0  0  0  0  0
  -24.6810  -31.8250   23.1310 C   0  0  0  0  0  0  0  0  0  0  0  0
  -27.2700  -26.9600   20.1500 C   0  0  0  0  0  0  0  0  0  0  0  0
  -23.4990  -30.4140   21.4950 C   0  0  0  0  0  3  0  0  0  0  0  0
  -24.9580  -28.8130   20.0880 C   0  0  0  0  0  0  0  0  0  0  0  0
  -26.0630  -30.6500   21.3470 C   0  0  0  0  0  2  0  0  0  0  0  0
  -26.1430  -29.2360   20.7030 C   0  0  0  0  0  0  0  0  0  0  0  0
  -27.2980  -28.3350   20.6990 C   0  0  0  0  0  3  0  0  0  0  0  0
  -26.0530  -26.6800   19.4950 C   0  0  0  0  0  3  0  0  0  0  0  0
  -24.9370  -27.5550   19.4620 C   0  0  0  0  0  3  0  0  0  0  0  0
  -23.7350  -29.7250   20.1230 C   0  0  0  0  0  2  0  0  0  0  0  0
  -24.7690  -30.9910   22.0440 N   0  0  0  0  0  0  0  0  0  0  0  0
  -23.5890  -32.1040   23.6490 O   0  0  0  0  0  0  0  0  0  0  0  0
  -22.8140  -29.4150   22.4620 C   0  0  0  0  0  0  0  0  0  0  0  0
  -21.4890  -29.2240   22.3230 N   0  0  0  0  0  0  0  0  0  0  0  0
  -23.4820  -28.8110   23.3060 O   0  0  0  0  0  0  0  0  0  0  0  0
  -21.0060  -29.7600   21.6150 H   0  0  0  0  0  0  0  0  0  0  0  0
  -18.1320  -27.9220   22.7670 C   0  0  0  0  0  0  0  0  0  0  0  0
  -20.6740  -28.2790   23.0930 C   0  0  0  0  0  3  0  0  0  0  0  0
  -20.8370  -26.8380   22.5550 C   0  0  0  0  0  2  0  0  0  0  0  0
  -19.7740  -26.4560   21.5200 C   0  0  0  0  0  2  0  0  0  0  0  0
  -18.3710  -26.5660   22.1230 C   0  0  0  0  0  2  0  0  0  0  0  0
  -19.2120  -28.7310   23.2080 C   0  0  0  0  0  0  0  0  0  0  0  0
  -18.9320  -29.9950   23.7730 C   0  0  0  0  0  3  0  0  0  0  0  0
  -17.6060  -30.4520   23.8960 C   0  0  0  0  0  3  0  0  0  0  0  0
  -16.5410  -29.6400   23.4720 C   0  0  0  0  0  3  0  0  0  0  0  0
  -16.8050  -28.3760   22.9140 C   0  0  0  0  0  3  0  0  0  0  0  0
  -25.9470  -32.4780   23.7640 C   0  0  0  0  0  3  0  0  0  0  0  0
  -25.6060  -33.8650   24.1250 N   0  0  0  0  0  0  0  0  0  0  0  0
  -25.9090  -34.9460   23.3950 C   0  0  0  0  0  0  0  0  0  0  0  0
  -26.5680  -34.8820   22.3530 O   0  0  0  0  0  0  0  0  0  0  0  0
  -25.0190  -33.9890   24.9360 H   0  0  0  0  0  0  0  0  0  0  0  0
  -24.1380  -36.7150   23.1230 C   0  0  0  0  0  1  0  0  0  0  0  0
  -25.4060  -36.3150   23.8960 C   0  0  0  0  0  3  0  0  0  0  0  0
  -27.5380  -37.2290   24.7040 C   0  0  0  0  0  1  0  0  0  0  0  0
  -26.4140  -37.3920   23.7850 N   0  0  0  0  0  0  0  0  0  0  0  0
  -25.9920  -38.3000   23.9590 H   0  0  0  0  0  0  0  0  0  0  0  0
  -26.4760  -31.7010   25.0320 C   0  0  1  0  0  0  0  0  0  0  0  0
  -25.3870  -31.4340   26.0980 C   0  0  0  0  0  1  0  0  0  0  0  0
  -27.0770  -30.3360   24.6290 C   0  0  0  0  0  1  0  0  0  0  0  0
  -27.6190  -32.5040   25.6960 C   0  0  0  0  0  1  0  0  0  0  0  0
  1 45  1  0
  1  3  1  0
  1 51  1  0
  3  2  1  0
  3  4  1  6
  5  6  2  0
  5  3  1  0
  7 15  1  0
  8 13  1  0
  9 10  1  0
  9  8  1  0
 11 10  1  0
 11 20  1  0
 11 12  1  0
 13  7  1  0
 13 12  1  0
 14  7  2  0
 15 16  1  0
 15  6  1  0
 17 18  2  0
 18 37  1  0
 19 18  1  0
 19 22  1  0
 20 21  1  0
 20 17  1  0
 21 19  2  0
 22 23  1  0
 23 24  2  0
 25 28  1  0
 25 24  1  0
 26 25  2  0
 27 26  1  0
 27 22  2  0
 28 29  1  0
 29 30  1  0
 30 31  2  0
 32 31  1  0
 32 36  1  0
 33 32  2  0
 34 29  2  0
 34 33  1  0
 35 34  1  0
 37 38  1  0
 38 41  1  0
 38 40  1  0
 39 37  2  0
 42 43  1  0
 42 17  1  0
 44 42  1  0
 46 45  2  0
 47 49  1  0
 49 48  1  0
 49 46  1  0
 49 50  1  6
 52 54  1  0
 52 51  1  0
 53 64  2  0
 54 59  1  0
 55 63  1  0
 55 65  1  0
 56 62  1  0
 56 58  1  0
 57 63  1  0
 58 57  1  0
 59 58  2  0
 60 54  2  0
 61 60  1  0
 61 56  2  0
 62 55  1  0
 63 53  1  0
 65 67  2  0
 66 65  1  0
 68 66  1  0
 69 78  2  0
 69 74  1  0
 70 66  1  0
 70 74  1  0
 71 70  1  0
 72 73  1  0
 72 71  1  0
 73 69  1  0
 74 75  2  0
 75 76  1  0
 77 76  2  0
 78 77  1  0
 79 53  1  0
 79 80  1  0
 79 89  1  0
 80 83  1  0
 81 85  1  0
 81 80  1  0
 82 81  2  0
 85 84  1  0
 87 85  1  0
 87 88  1  0
 87 86  1  0
 89 92  1  1
 89 90  1  0
 91 89  1  0
M  ISO  4   7 100  15 100  51 101  52 101
M  END
>  <TORSDO>  (69) 
F 22

>  <SCORE>  (69) 
-16.253

>  <name>  (69) 
68

>  <ligand_id>  (69) 
68

>  <original_smiles>  (69) 
[H]C(=C([H])[N+]([H])(C([H])([H])[H])C([H])([H])[H])C([H])(C([H])([H])Oc1c([H])c([H])c2c(c1[H])C([H])([H])N(C(=O)C([H])(N([H])C(=O)C([H])(N([H])C([H])([H])[H])C([H])([H])[H])C(C([H])([H])[H])(C([H])([H])[H])C([H])([H])[H])C([H])(C(=O)N([H])C1([H])c3c([H])c([H])c([H])c([H])c3C([H])([H])C([H])([H])C1([H])[H])C2([H])[H])[N+]([H])(C([H])([H])[H])C([H])([H])C([H])([H])N([H])C(=O)N1C([H])([H])C([H])([H])C([H])([H])C([H])(n2nc(-c3c([H])c([H])c(Oc4c([H])c([H])c(F)c([H])c4F)c([H])c3[H])c(C(=O)N([H])[H])c2N([H])[H])C1([H])[H]

>  <smiles>  (69) 
[H]C(=C([H])[N+]([H])(C([H])([H])[H])C([H])([H])[H])C([H])(C([H])([H])Oc1c([H])c([H])c2c(c1[H])C([H])([H])N(C(=O)C([H])(N([H])C(=O)C([H])(N([H])C([H])([H])[H])C([H])([H])[H])C(C([H])([H])[H])(C([H])([H])[H])C([H])([H])[H])C([H])(C(=O)N([H])C1([H])c3c([H])c([H])c([H])c([H])c3C([H])([H])C([H])([H])C1([H])[H])C2([H])[H])[N+]([H])(C([H])([H])[H])C([H])([H])C([H])([H])N([H])C(=O)N1C([H])([H])C([H])([H])C([H])([H])C([H])(n2nc(-c3c([H])c([H])c(Oc4c([H])c([H])c(F)c([H])c4F)c([H])c3[H])c(C(=O)N([H])[H])c2N([H])[H])C1([H])[H]

$$$$
69:0:0
     RDKit          3D

 91 98  0  0  1  0  0  0  0  0999 V2000
  -28.7000  -24.8200   20.5390 C   0  0  1  0  0  0  0  0  0  0  0  0
  -31.0860  -25.9620   20.6350 C   0  0  0  0  0  1  0  0  0  0  0  0
  -30.2020  -24.8020   20.1310 C   0  0  0  0  0  2  0  0  0  0  0  0
  -29.2380  -23.8790   22.9260 C   0  0  0  0  0  1  0  0  0  0  0  0
  -28.5220  -24.9430   22.0720 C   0  0  0  0  0  2  0  0  0  0  0  0
  -28.3550  -26.2650   20.0250 O   0  0  0  0  0  0  0  0  0  0  0  0
  -24.6450  -31.8670   23.1960 C   0  0  0  0  0  0  0  0  0  0  0  0
  -27.2170  -27.1350   20.1790 C   0  0  0  0  0  0  0  0  0  0  0  0
  -23.4330  -30.4560   21.5780 C   0  0  0  0  0  3  0  0  0  0  0  0
  -24.8690  -28.8570   20.1680 C   0  0  0  0  0  0  0  0  0  0  0  0
  -25.9840  -30.7270   21.3850 C   0  0  0  0  0  2  0  0  0  0  0  0
  -26.0530  -29.3240   20.7510 C   0  0  0  0  0  0  0  0  0  0  0  0
  -27.2300  -28.4840   20.7250 C   0  0  0  0  0  3  0  0  0  0  0  0
  -26.0010  -26.7530   19.5830 C   0  0  0  0  0  3  0  0  0  0  0  0
  -24.8530  -27.5830   19.5720 C   0  0  0  0  0  3  0  0  0  0  0  0
  -23.6410  -29.7570   20.2070 C   0  0  0  0  0  2  0  0  0  0  0  0
  -24.7070  -31.0420   22.1060 N   0  0  0  0  0  0  0  0  0  0  0  0
  -23.5630  -32.1500   23.7340 O   0  0  0  0  0  0  0  0  0  0  0  0
  -22.7640  -29.4580   22.5560 C   0  0  0  0  0  0  0  0  0  0  0  0
  -21.4340  -29.2830   22.4430 N   0  0  0  0  0  0  0  0  0  0  0  0
  -23.4460  -28.8410   23.3780 O   0  0  0  0  0  0  0  0  0  0  0  0
  -20.9390  -29.8340   21.7550 H   0  0  0  0  0  0  0  0  0  0  0  0
  -18.0680  -28.0610   22.9710 C   0  0  0  0  0  0  0  0  0  0  0  0
  -20.6240  -28.3490   23.2300 C   0  0  0  0  0  3  0  0  0  0  0  0
  -20.7370  -26.9110   22.6710 C   0  0  0  0  0  2  0  0  0  0  0  0
  -19.6360  -26.5660   21.6630 C   0  0  0  0  0  2  0  0  0  0  0  0
  -18.2550  -26.7060   22.3070 C   0  0  0  0  0  2  0  0  0  0  0  0
  -19.1810  -28.8380   23.3890 C   0  0  0  0  0  0  0  0  0  0  0  0
  -18.9520  -30.1040   23.9700 C   0  0  0  0  0  3  0  0  0  0  0  0
  -17.6430  -30.5940   24.1360 C   0  0  0  0  0  3  0  0  0  0  0  0
  -16.5440  -29.8150   23.7340 C   0  0  0  0  0  3  0  0  0  0  0  0
  -16.7580  -28.5500   23.1570 C   0  0  0  0  0  3  0  0  0  0  0  0
  -25.9270  -32.5100   23.8080 C   0  0  0  0  0  3  0  0  0  0  0  0
  -26.4620  -31.7400   25.0780 C   0  0  1  0  0  0  0  0  0  0  0  0
  -25.3830  -31.4960   26.1590 C   0  0  0  0  0  1  0  0  0  0  0  0
  -27.0450  -30.3610   24.6870 C   0  0  0  0  0  1  0  0  0  0  0  0
  -27.6200  -32.5370   25.7260 C   0  0  0  0  0  1  0  0  0  0  0  0
  -25.6060  -33.9050   24.1540 N   0  0  0  0  0  0  0  0  0  0  0  0
  -25.9230  -34.9710   23.4060 C   0  0  0  0  0  0  0  0  0  0  0  0
  -26.5790  -34.8820   22.3640 O   0  0  0  0  0  0  0  0  0  0  0  0
  -25.0090  -34.0420   24.9560 H   0  0  0  0  0  0  0  0  0  0  0  0
  -24.1730  -36.7570   23.1100 C   0  0  0  0  0  1  0  0  0  0  0  0
  -25.4370  -36.3530   23.8860 C   0  0  0  0  0  3  0  0  0  0  0  0
  -27.5870  -37.2490   24.6670 C   0  0  0  0  0  1  0  0  0  0  0  0
  -26.4600  -37.4150   23.7540 N   0  0  0  0  0  0  0  0  0  0  0  0
  -26.0530  -38.3320   23.9160 H   0  0  0  0  0  0  0  0  0  0  0  0
  -28.1150  -23.2960   20.0710 C   0  0  0  0  0  2  0  0  0  0  0  0
  -28.9890  -21.9730   19.8100 N   0  0  0  0  0  4  0  0  0  0  0  0
  -28.6630  -21.6790   18.9020 H   0  0  0  0  0  0  0  0  0  0  0  0
  -29.9430  -22.2520   19.6450 H   0  0  0  0  0  0  0  0  0  0  0  0
  -29.0260  -20.6090   20.6290 C   0  0  0  0  0  2  0  0  0  0  0  0
  -29.3080  -19.0660   19.9460 C   0  0  0  0  0  2  0  0  0  0  0  0
  -29.9250  -17.6900   20.7310 C   0  0  0  0  0  2  0  0  0  0  0  0
  -30.4720  -14.9750   20.3140 C   0  0  0  0  0  0  0  0  0  0  0  0
  -30.3600  -12.6210   19.3720 C   0  0  0  0  0  2  0  0  0  0  0  0
  -29.4180  -12.5630   18.1470 C   0  0  0  0  0  2  0  0  0  0  0  0
  -27.9560  -12.3510   18.5930 C   0  0  0  0  0  2  0  0  0  0  0  0
  -27.5520  -13.2860   19.7670 C   0  0  0  0  0  3  0  0  0  0  0  0
  -28.6160  -13.3040   20.8810 C   0  0  0  0  0  2  0  0  0  0  0  0
  -29.8770  -13.7190   20.2520 N   0  0  0  0  0  0  0  0  0  0  0  0
  -31.6910  -15.0340   20.1170 O   0  0  0  0  0  0  0  0  0  0  0  0
  -29.6710  -16.1560   20.3930 N   0  0  0  0  0  0  0  0  0  0  0  0
  -28.6890  -15.9240   20.3750 H   0  0  0  0  0  0  0  0  0  0  0  0
  -25.1800  -13.8740   20.5280 C   0  0  0  0  0  0  0  0  0  0  0  0
  -24.1160  -13.1030   20.9080 C   0  0  0  0  0  0  0  0  0  0  0  0
  -24.5780  -11.7500   20.8780 C   0  0  0  0  0  0  0  0  0  0  0  0
  -26.2190  -12.9910   20.2810 N   0  0  0  0  0  0  0  0  0  0  0  0
  -25.8680  -11.7090   20.5600 N   0  0  0  0  0  0  0  0  0  0  0  0
  -23.8490  -10.4910   21.0750 C   0  0  0  0  0  0  0  0  0  0  0  0
  -24.2940   -9.5130   21.9910 C   0  0  0  0  0  3  0  0  0  0  0  0
  -23.5630   -8.3190   22.1760 C   0  0  0  0  0  3  0  0  0  0  0  0
  -22.3720   -8.0960   21.4460 C   0  0  0  0  0  0  0  0  0  0  0  0
  -21.9460   -9.0640   20.5190 C   0  0  0  0  0  3  0  0  0  0  0  0
  -22.6780  -10.2480   20.3300 C   0  0  0  0  0  3  0  0  0  0  0  0
  -21.6110   -6.9560   21.5390 O   0  0  0  0  0  0  0  0  0  0  0  0
  -21.6020   -6.1900   22.6780 C   0  0  0  0  0  0  0  0  0  0  0  0
  -21.2460   -6.7270   23.9350 C   0  0  0  0  0  3  0  0  0  0  0  0
  -21.1770   -5.8880   25.0630 C   0  0  0  0  0  3  0  0  0  0  0  0
  -21.4590   -4.5140   24.9410 C   0  0  0  0  0  0  0  0  0  0  0  0
  -21.8100   -3.9780   23.6900 C   0  0  0  0  0  3  0  0  0  0  0  0
  -21.8790   -4.8130   22.5610 C   0  0  0  0  0  0  0  0  0  0  0  0
  -22.1950   -4.2850   21.3540 F   0  0  0  0  0  0  0  0  0  0  0  0
  -21.3900   -3.7060   26.0250 F   0  0  0  0  0  0  0  0  0  0  0  0
  -22.7200  -13.5860   21.1760 C   0  0  0  0  0  0  0  0  0  0  0  0
  -21.9890  -12.9010   22.0460 N   0  0  0  0  0  0  0  0  0  0  0  0
  -22.2850  -14.6090   20.6460 O   0  0  0  0  0  0  0  0  0  0  0  0
  -22.3500  -12.0790   22.5040 H   0  0  0  0  0  0  0  0  0  0  0  0
  -21.0510  -13.2110   22.2610 H   0  0  0  0  0  0  0  0  0  0  0  0
  -25.3410  -15.2450   20.3450 N   0  0  0  0  0  0  0  0  0  0  0  0
  -24.5680  -15.8910   20.4550 H   0  0  0  0  0  0  0  0  0  0  0  0
  -26.1700  -15.6840   19.9690 H   0  0  0  0  0  0  0  0  0  0  0  0
  1  5  1  1
  3  1  1  0
  3  2  1  0
  5  4  1  0
  6  8  1  0
  6  1  1  0
  7 18  2  0
  8 13  1  0
  9 17  1  0
  9 19  1  0
 10 16  1  0
 10 12  1  0
 11 17  1  0
 12 11  1  0
 13 12  2  0
 14  8  2  0
 15 14  1  0
 15 10  2  0
 16  9  1  0
 17  7  1  0
 19 21  2  0
 20 19  1  0
 22 20  1  0
 23 32  2  0
 23 28  1  0
 24 20  1  0
 24 28  1  0
 25 24  1  0
 26 27  1  0
 26 25  1  0
 27 23  1  0
 28 29  2  0
 29 30  1  0
 31 30  2  0
 32 31  1  0
 33  7  1  0
 33 38  1  0
 33 34  1  0
 34 37  1  1
 34 35  1  0
 36 34  1  0
 38 41  1  0
 39 43  1  0
 39 38  1  0
 40 39  2  0
 43 42  1  0
 45 43  1  0
 45 46  1  0
 45 44  1  0
 47  1  1  0
 48 47  1  0
 48 51  1  0
 49 48  1  0
 50 48  1  0
 52 51  1  0
 52 53  1  0
 54 62  1  0
 55 60  1  0
 56 57  1  0
 56 55  1  0
 58 57  1  0
 58 67  1  0
 58 59  1  0
 60 54  1  0
 60 59  1  0
 61 54  2  0
 62 53  1  0
 63 62  1  0
 64 65  2  0
 65 84  1  0
 66 65  1  0
 66 69  1  0
 67 64  1  0
 67 68  1  0
 68 66  2  0
 69 70  1  0
 70 71  2  0
 72 75  1  0
 72 71  1  0
 73 72  2  0
 74 73  1  0
 74 69  2  0
 75 76  1  0
 76 77  1  0
 77 78  2  0
 79 78  1  0
 79 83  1  0
 80 79  2  0
 81 76  2  0
 81 80  1  0
 82 81  1  0
 84 85  1  0
 85 88  1  0
 85 87  1  0
 86 84  2  0
 89 90  1  0
 89 64  1  0
 91 89  1  0
M  ISO  4   1 101   6 101  54 100  62 100
M  END
>  <TORSDO>  (70) 
F 23

>  <SCORE>  (70) 
-14.179

>  <name>  (70) 
69

>  <ligand_id>  (70) 
69

>  <original_smiles>  (70) 
[H]c1c([H])c([H])c2c(c1[H])C([H])([H])C([H])([H])C([H])([H])C2([H])N([H])C(=O)C1([H])N(C(=O)C([H])(N([H])C(=O)C([H])(N([H])C([H])([H])[H])C([H])([H])[H])C(C([H])([H])[H])(C([H])([H])[H])C([H])([H])[H])C([H])([H])c2c([H])c(OC(C([H])([H])C([H])([H])[H])(C([H])([H])C([H])([H])[H])C([H])([H])[N+]([H])([H])C([H])([H])C([H])([H])C([H])([H])N([H])C(=O)N3C([H])([H])C([H])([H])C([H])([H])C([H])(n4nc(-c5c([H])c([H])c(Oc6c([H])c([H])c(F)c([H])c6F)c([H])c5[H])c(C(=O)N([H])[H])c4N([H])[H])C3([H])[H])c([H])c([H])c2C1([H])[H]

>  <smiles>  (70) 
[H]c1c([H])c([H])c2c(c1[H])C([H])([H])C([H])([H])C([H])([H])C2([H])N([H])C(=O)C1([H])N(C(=O)C([H])(N([H])C(=O)C([H])(N([H])C([H])([H])[H])C([H])([H])[H])C(C([H])([H])[H])(C([H])([H])[H])C([H])([H])[H])C([H])([H])c2c([H])c(OC(C([H])([H])C([H])([H])[H])(C([H])([H])C([H])([H])[H])C([H])([H])[N+]([H])([H])C([H])([H])C([H])([H])C([H])([H])N([H])C(=O)N3C([H])([H])C([H])([H])C([H])([H])C([H])(n4nc(-c5c([H])c([H])c(Oc6c([H])c([H])c(F)c([H])c6F)c([H])c5[H])c(C(=O)N([H])[H])c4N([H])[H])C3([H])[H])c([H])c([H])c2C1([H])[H]

$$$$
70:0:0
     RDKit          3D

 91 99  0  0  1  0  0  0  0  0999 V2000
  -30.2260  -22.1120   20.6820 C   0  0  0  0  0  3  0  0  0  0  0  0
  -28.8820  -22.3680   20.2790 C   0  0  0  0  0  0  0  0  0  0  0  0
  -30.5090  -20.7620   20.6740 C   0  0  0  0  0  0  0  0  0  0  0  0
  -28.4260  -21.0840   19.9480 C   0  0  0  0  0  0  0  0  0  0  0  0
  -31.7810  -20.1130   21.1240 C   0  0  0  0  0  1  0  0  0  0  0  0
  -27.0800  -20.7050   19.4110 C   0  0  0  0  0  1  0  0  0  0  0  0
  -29.3900  -20.0570   20.2200 N   0  0  0  0  0  0  0  0  0  0  0  0
  -27.9170  -24.1040   21.8650 C   0  0  0  0  0  1  0  0  0  0  0  0
  -28.1110  -23.7780   20.3780 C   0  0  0  0  0  3  0  0  0  0  0  0
  -28.6290  -25.1010   19.6040 C   0  0  0  0  0  2  0  0  0  0  0  0
  -28.4710  -26.4990   20.1320 O   0  0  0  0  0  0  0  0  0  0  0  0
  -24.6700  -31.8410   23.1730 C   0  0  0  0  0  0  0  0  0  0  0  0
  -27.3210  -27.3090   20.0580 C   0  0  0  0  0  0  0  0  0  0  0  0
  -23.4790  -30.4620   21.5040 C   0  0  0  0  0  3  0  0  0  0  0  0
  -24.9420  -28.9250   20.0610 C   0  0  0  0  0  0  0  0  0  0  0  0
  -26.0170  -30.7840   21.3400 C   0  0  0  0  0  2  0  0  0  0  0  0
  -26.1040  -29.4120   20.6710 C   0  0  0  0  0  0  0  0  0  0  0  0
  -27.2890  -28.6130   20.6600 C   0  0  0  0  0  3  0  0  0  0  0  0
  -26.1340  -26.8720   19.4320 C   0  0  0  0  0  3  0  0  0  0  0  0
  -24.9610  -27.6630   19.4350 C   0  0  0  0  0  3  0  0  0  0  0  0
  -23.7050  -29.8030   20.1150 C   0  0  0  0  0  2  0  0  0  0  0  0
  -24.7410  -31.0470   22.0620 N   0  0  0  0  0  0  0  0  0  0  0  0
  -23.5830  -32.1050   23.7070 O   0  0  0  0  0  0  0  0  0  0  0  0
  -22.8140  -29.4300   22.4460 C   0  0  0  0  0  0  0  0  0  0  0  0
  -21.4860  -29.2680   22.3240 N   0  0  0  0  0  0  0  0  0  0  0  0
  -23.4920  -28.7830   23.2490 O   0  0  0  0  0  0  0  0  0  0  0  0
  -20.9980  -29.8370   21.6480 H   0  0  0  0  0  0  0  0  0  0  0  0
  -18.1030  -28.0990   22.8460 C   0  0  0  0  0  0  0  0  0  0  0  0
  -20.6680  -28.3200   23.0820 C   0  0  0  0  0  3  0  0  0  0  0  0
  -20.7400  -26.9050   22.4640 C   0  0  0  0  0  2  0  0  0  0  0  0
  -19.6220  -26.6270   21.4560 C   0  0  0  0  0  2  0  0  0  0  0  0
  -18.2520  -26.7690   22.1250 C   0  0  0  0  0  2  0  0  0  0  0  0
  -19.2370  -28.8330   23.2810 C   0  0  0  0  0  0  0  0  0  0  0  0
  -19.0430  -30.0790   23.9150 C   0  0  0  0  0  3  0  0  0  0  0  0
  -17.7480  -30.5920   24.1150 C   0  0  0  0  0  3  0  0  0  0  0  0
  -16.6280  -29.8550   23.6940 C   0  0  0  0  0  3  0  0  0  0  0  0
  -16.8060  -28.6090   23.0660 C   0  0  0  0  0  3  0  0  0  0  0  0
  -25.9460  -32.4690   23.8120 C   0  0  0  0  0  3  0  0  0  0  0  0
  -26.4520  -31.6870   25.0870 C   0  0  1  0  0  0  0  0  0  0  0  0
  -25.3510  -31.4380   26.1440 C   0  0  0  0  0  1  0  0  0  0  0  0
  -27.0370  -30.3150   24.6870 C   0  0  0  0  0  1  0  0  0  0  0  0
  -27.5970  -32.4750   25.7660 C   0  0  0  0  0  1  0  0  0  0  0  0
  -25.6310  -33.8640   24.1530 N   0  0  0  0  0  0  0  0  0  0  0  0
  -25.9670  -34.9270   23.4110 C   0  0  0  0  0  0  0  0  0  0  0  0
  -26.6440  -34.8340   22.3820 O   0  0  0  0  0  0  0  0  0  0  0  0
  -25.0310  -34.0080   24.9530 H   0  0  0  0  0  0  0  0  0  0  0  0
  -24.2420  -36.7230   23.0560 C   0  0  0  0  0  1  0  0  0  0  0  0
  -25.4740  -36.3110   23.8780 C   0  0  0  0  0  3  0  0  0  0  0  0
  -27.5970  -37.1870   24.7470 C   0  0  0  0  0  1  0  0  0  0  0  0
  -26.5070  -37.3650   23.7920 N   0  0  0  0  0  0  0  0  0  0  0  0
  -26.1010  -38.2860   23.9420 H   0  0  0  0  0  0  0  0  0  0  0  0
  -29.1750  -18.5300   20.0550 C   0  0  0  0  0  3  0  0  0  0  0  0
  -30.3020  -17.4040   20.3890 C   0  0  0  0  0  3  0  0  0  0  0  0
  -30.7010  -14.7990   20.1970 C   0  0  0  0  0  0  0  0  0  0  0  0
  -30.5140  -12.5290   19.1790 C   0  0  0  0  0  2  0  0  0  0  0  0
  -29.5600  -12.5970   17.9690 C   0  0  0  0  0  2  0  0  0  0  0  0
  -28.0950  -12.4220   18.4160 C   0  0  0  0  0  2  0  0  0  0  0  0
  -27.7310  -13.3070   19.6370 C   0  0  0  0  0  3  0  0  0  0  0  0
  -28.7980  -13.2130   20.7460 C   0  0  0  0  0  2  0  0  0  0  0  0
  -30.0860  -13.5710   20.1410 N   0  0  0  0  0  0  0  0  0  0  0  0
  -31.8800  -14.9160   19.8450 O   0  0  0  0  0  0  0  0  0  0  0  0
  -29.9210  -15.9190   20.4420 N   0  0  0  0  0  0  0  0  0  0  0  0
  -28.9700  -15.7150   20.7120 H   0  0  0  0  0  0  0  0  0  0  0  0
  -25.3460  -13.8970   20.3790 C   0  0  0  0  0  0  0  0  0  0  0  0
  -24.2850  -13.1220   20.7680 C   0  0  0  0  0  0  0  0  0  0  0  0
  -24.7530  -11.7710   20.7430 C   0  0  0  0  0  0  0  0  0  0  0  0
  -26.3920  -13.0190   20.1410 N   0  0  0  0  0  0  0  0  0  0  0  0
  -26.0420  -11.7370   20.4220 N   0  0  0  0  0  0  0  0  0  0  0  0
  -24.0350  -10.5060   20.9490 C   0  0  0  0  0  0  0  0  0  0  0  0
  -24.4700   -9.5530   21.8950 C   0  0  0  0  0  3  0  0  0  0  0  0
  -23.7500   -8.3550   22.0880 C   0  0  0  0  0  3  0  0  0  0  0  0
  -22.5800   -8.1020   21.3350 C   0  0  0  0  0  0  0  0  0  0  0  0
  -22.1630   -9.0440   20.3780 C   0  0  0  0  0  3  0  0  0  0  0  0
  -22.8850  -10.2330   20.1810 C   0  0  0  0  0  3  0  0  0  0  0  0
  -21.8320   -6.9540   21.4360 O   0  0  0  0  0  0  0  0  0  0  0  0
  -21.7800   -6.2300   22.6000 C   0  0  0  0  0  0  0  0  0  0  0  0
  -21.3320   -6.7980   23.8120 C   0  0  0  0  0  3  0  0  0  0  0  0
  -21.2230   -5.9980   24.9660 C   0  0  0  0  0  3  0  0  0  0  0  0
  -21.5570   -4.6310   24.9110 C   0  0  0  0  0  0  0  0  0  0  0  0
  -22.0040   -4.0640   23.7040 C   0  0  0  0  0  3  0  0  0  0  0  0
  -22.1110   -4.8600   22.5500 C   0  0  0  0  0  0  0  0  0  0  0  0
  -22.5190   -4.3050   21.3840 F   0  0  0  0  0  0  0  0  0  0  0  0
  -21.4480   -3.8600   26.0180 F   0  0  0  0  0  0  0  0  0  0  0  0
  -22.8900  -13.5990   21.0430 C   0  0  0  0  0  0  0  0  0  0  0  0
  -22.1660  -12.9050   21.9170 N   0  0  0  0  0  0  0  0  0  0  0  0
  -22.4460  -14.6200   20.5210 O   0  0  0  0  0  0  0  0  0  0  0  0
  -22.5370  -12.0790   22.3620 H   0  0  0  0  0  0  0  0  0  0  0  0
  -21.2280  -13.2080   22.1430 H   0  0  0  0  0  0  0  0  0  0  0  0
  -25.5040  -15.2640   20.1820 N   0  0  0  0  0  0  0  0  0  0  0  0
  -24.7290  -15.9140   20.2590 H   0  0  0  0  0  0  0  0  0  0  0  0
  -26.3310  -15.6870   19.7770 H   0  0  0  0  0  0  0  0  0  0  0  0
  2  9  1  0
  2  1  1  0
  3  1  2  0
  3  5  1  0
  4  7  1  0
  4  2  2  0
  6  4  1  0
  7  3  1  0
  9  8  1  0
 10 11  1  0
 10  9  1  0
 12 23  2  0
 13 11  1  0
 13 18  1  0
 14 22  1  0
 14 24  1  0
 15 21  1  0
 15 17  1  0
 16 22  1  0
 17 16  1  0
 18 17  2  0
 19 20  1  0
 19 13  2  0
 20 15  2  0
 21 14  1  0
 22 12  1  0
 24 26  2  0
 25 24  1  0
 27 25  1  0
 28 37  2  0
 28 33  1  0
 29 25  1  0
 29 33  1  0
 30 29  1  0
 31 32  1  0
 31 30  1  0
 32 28  1  0
 33 34  2  0
 34 35  1  0
 36 35  2  0
 37 36  1  0
 38 12  1  0
 38 43  1  0
 38 39  1  0
 39 42  1  1
 39 40  1  0
 41 39  1  0
 43 46  1  0
 44 48  1  0
 44 43  1  0
 45 44  2  0
 48 47  1  0
 50 48  1  0
 50 51  1  0
 50 49  1  0
 52  7  1  0
 52 53  2  0
 53 62  1  0
 54 62  1  0
 55 60  1  0
 56 57  1  0
 56 55  1  0
 58 57  1  0
 58 67  1  0
 58 59  1  0
 60 54  1  0
 60 59  1  0
 61 54  2  0
 62 63  1  0
 64 65  2  0
 65 84  1  0
 66 65  1  0
 66 69  1  0
 67 64  1  0
 67 68  1  0
 68 66  2  0
 69 70  1  0
 70 71  2  0
 72 75  1  0
 72 71  1  0
 73 72  2  0
 74 73  1  0
 74 69  2  0
 75 76  1  0
 76 77  1  0
 77 78  2  0
 79 78  1  0
 79 83  1  0
 80 79  2  0
 81 76  2  0
 81 80  1  0
 82 81  1  0
 84 85  1  0
 85 88  1  0
 85 87  1  0
 86 84  2  0
 89 90  1  0
 89 64  1  0
 91 89  1  0
M  ISO  4  10 101  11 101  54 100  62 100
M  END
>  <TORSDO>  (71) 
F 20

>  <SCORE>  (71) 
-13.618

>  <name>  (71) 
70

>  <ligand_id>  (71) 
70

>  <original_smiles>  (71) 
[H]c1c([H])c([H])c2c(c1[H])C([H])([H])C([H])([H])C([H])([H])C2([H])N([H])C(=O)C1([H])N(C(=O)C([H])(N([H])C(=O)C([H])(N([H])C([H])([H])[H])C([H])([H])[H])C(C([H])([H])[H])(C([H])([H])[H])C([H])([H])[H])C([H])([H])c2c([H])c(OC([H])([H])C([H])(c3c([H])c(C([H])([H])[H])n(C([H])([H])C([H])([H])N([H])C(=O)N4C([H])([H])C([H])([H])C([H])([H])C([H])(n5nc(-c6c([H])c([H])c(Oc7c([H])c([H])c(F)c([H])c7F)c([H])c6[H])c(C(=O)N([H])[H])c5N([H])[H])C4([H])[H])c3C([H])([H])[H])C([H])([H])[H])c([H])c([H])c2C1([H])[H]

>  <smiles>  (71) 
[H]c1c([H])c([H])c2c(c1[H])C([H])([H])C([H])([H])C([H])([H])C2([H])N([H])C(=O)C1([H])N(C(=O)C([H])(N([H])C(=O)C([H])(N([H])C([H])([H])[H])C([H])([H])[H])C(C([H])([H])[H])(C([H])([H])[H])C([H])([H])[H])C([H])([H])c2c([H])c(OC([H])([H])C([H])(c3c([H])c(C([H])([H])[H])n(C([H])([H])C([H])([H])N([H])C(=O)N4C([H])([H])C([H])([H])C([H])([H])C([H])(n5nc(-c6c([H])c([H])c(Oc7c([H])c([H])c(F)c([H])c7F)c([H])c6[H])c(C(=O)N([H])[H])c5N([H])[H])C4([H])[H])c3C([H])([H])[H])C([H])([H])[H])c([H])c([H])c2C1([H])[H]

$$$$
71:0:0
     RDKit          3D

 94102  0  0  1  0  0  0  0  0999 V2000
  -30.3100  -22.8520   19.1310 C   0  0  0  0  0  2  0  0  0  0  0  0
  -30.0810  -24.3470   19.6060 C   0  0  0  0  0  2  0  0  0  0  0  0
  -27.7010  -24.0440   19.4100 C   0  0  0  0  0  2  0  0  0  0  0  0
  -27.8690  -22.4780   18.9880 C   0  0  0  0  0  3  0  0  0  0  0  0
  -29.2180  -21.7360   19.4490 C   0  0  0  0  0  3  0  0  0  0  0  0
  -28.8300  -25.0780   19.0240 C   0  0  0  0  0  3  0  0  0  0  0  0
  -30.8270  -20.2520   18.1200 C   0  0  0  0  0  1  0  0  0  0  0  0
  -29.5340  -20.2900   18.8600 N   0  0  1  0  0  4  0  0  0  0  0  0
  -28.8610  -20.1930   18.1140 H   0  0  0  0  0  0  0  0  0  0  0  0
  -29.3640  -18.9540   19.6770 C   0  0  0  0  0  3  0  0  0  0  0  0
  -29.9510  -17.5170   19.0660 C   0  0  0  0  0  3  0  0  0  0  0  0
  -30.7230  -15.0010   19.5370 C   0  0  0  0  0  0  0  0  0  0  0  0
  -30.5520  -12.6460   18.6860 C   0  0  0  0  0  2  0  0  0  0  0  0
  -29.5110  -12.6100   17.5460 C   0  0  0  0  0  2  0  0  0  0  0  0
  -28.0940  -12.3960   18.1130 C   0  0  0  0  0  2  0  0  0  0  0  0
  -27.7910  -13.3290   19.3150 C   0  0  0  0  0  3  0  0  0  0  0  0
  -28.9460  -13.3550   20.3400 C   0  0  0  0  0  2  0  0  0  0  0  0
  -30.1650  -13.7370   19.6180 N   0  0  0  0  0  0  0  0  0  0  0  0
  -31.8530  -15.1190   19.0530 O   0  0  0  0  0  0  0  0  0  0  0  0
  -29.9250  -16.1300   19.7680 N   0  0  0  0  0  0  0  0  0  0  0  0
  -29.0530  -15.9160   20.2300 H   0  0  0  0  0  0  0  0  0  0  0  0
  -25.5020  -13.8830   20.3280 C   0  0  0  0  0  0  0  0  0  0  0  0
  -24.4830  -13.0940   20.7840 C   0  0  0  0  0  0  0  0  0  0  0  0
  -24.9370  -11.7450   20.6490 C   0  0  0  0  0  0  0  0  0  0  0  0
  -26.5110  -13.0160   19.9400 N   0  0  0  0  0  0  0  0  0  0  0  0
  -26.1850  -11.7220   20.1960 N   0  0  0  0  0  0  0  0  0  0  0  0
  -24.2320  -10.4750   20.8690 C   0  0  0  0  0  0  0  0  0  0  0  0
  -24.6880   -9.5310   21.8150 C   0  0  0  0  0  3  0  0  0  0  0  0
  -23.9810   -8.3270   22.0220 C   0  0  0  0  0  3  0  0  0  0  0  0
  -22.8030   -8.0580   21.2830 C   0  0  0  0  0  0  0  0  0  0  0  0
  -22.3670   -8.9920   20.3270 C   0  0  0  0  0  3  0  0  0  0  0  0
  -23.0740  -10.1870   20.1180 C   0  0  0  0  0  3  0  0  0  0  0  0
  -22.0670   -6.9040   21.3990 O   0  0  0  0  0  0  0  0  0  0  0  0
  -21.9400   -6.2490   22.5980 C   0  0  0  0  0  0  0  0  0  0  0  0
  -21.4020   -6.8810   23.7400 C   0  0  0  0  0  3  0  0  0  0  0  0
  -21.2250   -6.1500   24.9310 C   0  0  0  0  0  3  0  0  0  0  0  0
  -21.5740   -4.7870   24.9810 C   0  0  0  0  0  0  0  0  0  0  0  0
  -22.1040   -4.1550   23.8420 C   0  0  0  0  0  3  0  0  0  0  0  0
  -22.2840   -4.8840   22.6540 C   0  0  0  0  0  0  0  0  0  0  0  0
  -22.7740   -4.2630   21.5540 F   0  0  0  0  0  0  0  0  0  0  0  0
  -21.3970   -4.0830   26.1220 F   0  0  0  0  0  0  0  0  0  0  0  0
  -23.1270  -13.5580   21.2260 C   0  0  0  0  0  0  0  0  0  0  0  0
  -22.5090  -12.8450   22.1610 N   0  0  0  0  0  0  0  0  0  0  0  0
  -22.6260  -14.5880   20.7760 O   0  0  0  0  0  0  0  0  0  0  0  0
  -22.9300  -12.0130   22.5470 H   0  0  0  0  0  0  0  0  0  0  0  0
  -21.6020  -13.1370   22.4970 H   0  0  0  0  0  0  0  0  0  0  0  0
  -25.6460  -15.2600   20.1840 N   0  0  0  0  0  0  0  0  0  0  0  0
  -24.8840  -15.8960   20.3900 H   0  0  0  0  0  0  0  0  0  0  0  0
  -26.4330  -15.7150   19.7400 H   0  0  0  0  0  0  0  0  0  0  0  0
  -25.3050  -22.3930   19.5990 C   0  0  0  0  0  1  0  0  0  0  0  0
  -26.6160  -21.6090   19.3610 C   0  0  0  0  0  3  0  0  0  0  0  0
  -25.6710  -19.2420   18.8690 C   0  0  0  0  0  1  0  0  0  0  0  0
  -26.3820  -20.4890   18.3160 C   0  0  0  0  0  2  0  0  0  0  0  0
  -28.7580  -26.5310   19.4860 O   0  0  0  0  0  0  0  0  0  0  0  0
  -24.6850  -31.4600   22.9700 C   0  0  0  0  0  0  0  0  0  0  0  0
  -27.5930  -27.3490   19.4830 C   0  0  0  0  0  0  0  0  0  0  0  0
  -23.5890  -30.1910   21.1570 C   0  0  0  0  0  3  0  0  0  0  0  0
  -25.1480  -28.8810   19.5950 C   0  0  0  0  0  0  0  0  0  0  0  0
  -26.1150  -30.6460   21.0690 C   0  0  0  0  0  2  0  0  0  0  0  0
  -26.2810  -29.3480   20.2710 C   0  0  0  0  0  0  0  0  0  0  0  0
  -27.5030  -28.5980   20.2010 C   0  0  0  0  0  3  0  0  0  0  0  0
  -26.4300  -26.9530   18.7900 C   0  0  0  0  0  3  0  0  0  0  0  0
  -25.2290  -27.6950   18.8440 C   0  0  0  0  0  3  0  0  0  0  0  0
  -23.8660  -29.6860   19.7150 C   0  0  0  0  0  2  0  0  0  0  0  0
  -24.8130  -30.7810   21.7900 N   0  0  0  0  0  0  0  0  0  0  0  0
  -23.5770  -31.6170   23.5070 O   0  0  0  0  0  0  0  0  0  0  0  0
  -22.9640  -29.0440   21.9860 C   0  0  0  0  0  0  0  0  0  0  0  0
  -21.6340  -28.8780   21.8920 N   0  0  0  0  0  0  0  0  0  0  0  0
  -23.6760  -28.3090   22.6750 O   0  0  0  0  0  0  0  0  0  0  0  0
  -21.1160  -29.5270   21.3160 H   0  0  0  0  0  0  0  0  0  0  0  0
  -18.2700  -27.6620   22.4540 C   0  0  0  0  0  0  0  0  0  0  0  0
  -20.8500  -27.8300   22.5480 C   0  0  0  0  0  3  0  0  0  0  0  0
  -20.8600  -26.5250   21.7180 C   0  0  0  0  0  2  0  0  0  0  0  0
  -19.6710  -26.4100   20.7580 C   0  0  0  0  0  2  0  0  0  0  0  0
  -18.3510  -26.4570   21.5330 C   0  0  0  0  0  2  0  0  0  0  0  0
  -19.4430  -28.3170   22.9180 C   0  0  0  0  0  0  0  0  0  0  0  0
  -19.3120  -29.4520   23.7450 C   0  0  0  0  0  3  0  0  0  0  0  0
  -18.0400  -29.9330   24.1110 C   0  0  0  0  0  3  0  0  0  0  0  0
  -16.8830  -29.2740   23.6600 C   0  0  0  0  0  3  0  0  0  0  0  0
  -17.0000  -28.1400   22.8380 C   0  0  0  0  0  3  0  0  0  0  0  0
  -25.9160  -32.0890   23.6900 C   0  0  0  0  0  3  0  0  0  0  0  0
  -25.4940  -33.3820   24.2510 N   0  0  0  0  0  0  0  0  0  0  0  0
  -25.7820  -34.5770   23.7180 C   0  0  0  0  0  0  0  0  0  0  0  0
  -26.4990  -34.7080   22.7230 O   0  0  0  0  0  0  0  0  0  0  0  0
  -24.8580  -33.3480   25.0340 H   0  0  0  0  0  0  0  0  0  0  0  0
  -23.9530  -36.2990   23.6040 C   0  0  0  0  0  1  0  0  0  0  0  0
  -25.1810  -35.8230   24.3960 C   0  0  0  0  0  3  0  0  0  0  0  0
  -27.2120  -36.6610   25.4950 C   0  0  0  0  0  1  0  0  0  0  0  0
  -26.1440  -36.9380   24.5370 N   0  0  0  0  0  0  0  0  0  0  0  0
  -25.6690  -37.7890   24.8280 H   0  0  0  0  0  0  0  0  0  0  0  0
  -26.5120  -31.1650   24.8240 C   0  0  1  0  0  0  0  0  0  0  0  0
  -25.4570  -30.6740   25.8440 C   0  0  0  0  0  1  0  0  0  0  0  0
  -27.1930  -29.9190   24.2130 C   0  0  0  0  0  1  0  0  0  0  0  0
  -27.6080  -31.9300   25.6010 C   0  0  0  0  0  1  0  0  0  0  0  0
  1  5  1  0
  1  2  1  0
  4 51  1  0
  4  3  1  0
  4  5  1  0
  5  8  1  0
  6  3  1  0
  6 54  1  0
  6  2  1  0
  7  8  1  0
  8 10  1  0
  8  9  1  6
 11 10  2  0
 11 20  1  0
 12 18  1  0
 12 20  1  0
 13 18  1  0
 14 15  1  0
 14 13  1  0
 16 15  1  0
 16 25  1  0
 16 17  1  0
 18 17  1  0
 19 12  2  0
 20 21  1  0
 22 23  2  0
 23 42  1  0
 24 23  1  0
 24 27  1  0
 25 26  1  0
 25 22  1  0
 26 24  2  0
 27 28  1  0
 28 29  2  0
 30 33  1  0
 30 29  1  0
 31 30  2  0
 32 31  1  0
 32 27  2  0
 33 34  1  0
 34 39  2  0
 34 35  1  0
 35 36  2  0
 36 37  1  0
 37 41  1  0
 38 37  2  0
 39 38  1  0
 40 39  1  0
 42 43  1  0
 43 46  1  0
 43 45  1  0
 44 42  2  0
 47 22  1  0
 47 48  1  0
 49 47  1  0
 51 50  1  0
 53 52  1  0
 53 51  1  0
 55 66  2  0
 56 54  1  0
 56 61  1  0
 57 65  1  0
 57 67  1  0
 58 64  1  0
 58 60  1  0
 59 65  1  0
 60 59  1  0
 61 60  2  0
 62 63  1  0
 62 56  2  0
 63 58  2  0
 64 57  1  0
 65 55  1  0
 67 69  2  0
 68 67  1  0
 70 68  1  0
 71 80  2  0
 71 76  1  0
 72 68  1  0
 72 76  1  0
 73 72  1  0
 74 75  1  0
 74 73  1  0
 75 71  1  0
 76 77  2  0
 77 78  1  0
 79 78  2  0
 80 79  1  0
 81 55  1  0
 81 82  1  0
 81 91  1  0
 82 85  1  0
 83 82  1  0
 83 87  1  0
 84 83  2  0
 87 86  1  0
 87 89  1  0
 89 90  1  0
 89 88  1  0
 91 94  1  1
 91 92  1  0
 93 91  1  0
M  ISO  4   6 101  12 100  20 100  54 101
M  END
>  <TORSDO>  (72) 
F 21

>  <SCORE>  (72) 
-10.485

>  <name>  (72) 
71

>  <ligand_id>  (72) 
71

>  <original_smiles>  (72) 
[H]c1c([H])c([H])c2c(c1[H])C([H])([H])C([H])([H])C([H])([H])C2([H])N([H])C(=O)C1([H])N(C(=O)C([H])(N([H])C(=O)C([H])(N([H])C([H])([H])[H])C([H])([H])[H])C(C([H])([H])[H])(C([H])([H])[H])C([H])([H])[H])C([H])([H])c2c([H])c(OC3([H])C([H])([H])C([H])([H])C([H])([N+]([H])(C([H])([H])[H])C([H])([H])C([H])([H])N([H])C(=O)N4C([H])([H])C([H])([H])C([H])([H])C([H])(n5nc(-c6c([H])c([H])c(Oc7c([H])c([H])c(F)c([H])c7F)c([H])c6[H])c(C(=O)N([H])[H])c5N([H])[H])C4([H])[H])C([H])(C([H])(C([H])([H])[H])C([H])([H])C([H])([H])[H])C3([H])[H])c([H])c([H])c2C1([H])[H]

>  <smiles>  (72) 
[H]c1c([H])c([H])c2c(c1[H])C([H])([H])C([H])([H])C([H])([H])C2([H])N([H])C(=O)C1([H])N(C(=O)C([H])(N([H])C(=O)C([H])(N([H])C([H])([H])[H])C([H])([H])[H])C(C([H])([H])[H])(C([H])([H])[H])C([H])([H])[H])C([H])([H])c2c([H])c(OC3([H])C([H])([H])C([H])([H])C([H])([N+]([H])(C([H])([H])[H])C([H])([H])C([H])([H])N([H])C(=O)N4C([H])([H])C([H])([H])C([H])([H])C([H])(n5nc(-c6c([H])c([H])c(Oc7c([H])c([H])c(F)c([H])c7F)c([H])c6[H])c(C(=O)N([H])[H])c5N([H])[H])C4([H])[H])C([H])(C([H])(C([H])([H])[H])C([H])([H])C([H])([H])[H])C3([H])[H])c([H])c([H])c2C1([H])[H]

$$$$
72:0:0
     RDKit          3D

 94103  0  0  1  0  0  0  0  0999 V2000
  -30.7460  -14.9870   20.2770 C   0  0  0  0  0  0  0  0  0  0  0  0
  -30.6560  -12.5770   19.4800 C   0  0  0  0  0  2  0  0  0  0  0  0
  -29.7680  -12.4810   18.2160 C   0  0  0  0  0  2  0  0  0  0  0  0
  -28.2820  -12.3270   18.5950 C   0  0  0  0  0  2  0  0  0  0  0  0
  -27.8500  -13.3230   19.7020 C   0  0  0  0  0  3  0  0  0  0  0  0
  -28.8590  -13.3600   20.8710 C   0  0  0  0  0  2  0  0  0  0  0  0
  -30.1660  -13.7180   20.3020 N   0  0  0  0  0  0  0  0  0  0  0  0
  -31.9520  -15.0530   20.0030 O   0  0  0  0  0  0  0  0  0  0  0  0
  -28.6420  -18.3220   20.4330 C   0  0  0  0  0  3  0  0  0  0  0  0
  -28.4560  -19.7580   20.3670 C   0  0  0  0  0  0  0  0  0  0  0  0
  -29.5180  -20.6700   20.0730 C   0  0  0  0  0  0  0  0  0  0  0  0
  -30.7410  -19.9230   19.8670 C   0  0  0  0  0  0  0  0  0  0  0  0
  -29.8880  -17.6440   20.2280 C   0  0  0  0  0  0  0  0  0  0  0  0
  -27.0930  -20.3320   20.7010 C   0  0  0  0  0  1  0  0  0  0  0  0
  -30.9040  -18.5260   19.9180 N   0  0  0  0  0  0  0  0  0  0  0  0
  -29.8950  -16.1180   20.3960 N   0  0  0  0  0  0  0  0  0  0  0  0
  -28.9760  -15.7870   20.6350 H   0  0  0  0  0  0  0  0  0  0  0  0
  -25.4570  -13.9980   20.3150 C   0  0  0  0  0  0  0  0  0  0  0  0
  -24.3600  -13.2700   20.6840 C   0  0  0  0  0  0  0  0  0  0  0  0
  -24.7900  -11.9080   20.7360 C   0  0  0  0  0  0  0  0  0  0  0  0
  -26.4850  -13.0830   20.1580 N   0  0  0  0  0  0  0  0  0  0  0  0
  -26.0900  -11.8240   20.4770 N   0  0  0  0  0  0  0  0  0  0  0  0
  -24.0230  -10.6750   20.9580 C   0  0  0  0  0  0  0  0  0  0  0  0
  -24.4280   -9.7140   21.9100 C   0  0  0  0  0  3  0  0  0  0  0  0
  -23.6640   -8.5460   22.1200 C   0  0  0  0  0  3  0  0  0  0  0  0
  -22.4790   -8.3300   21.3760 C   0  0  0  0  0  0  0  0  0  0  0  0
  -22.0930   -9.2780   20.4120 C   0  0  0  0  0  3  0  0  0  0  0  0
  -22.8580  -10.4370   20.2010 C   0  0  0  0  0  3  0  0  0  0  0  0
  -21.6870   -7.2140   21.4940 O   0  0  0  0  0  0  0  0  0  0  0  0
  -21.6750   -6.4570   22.6380 C   0  0  0  0  0  0  0  0  0  0  0  0
  -21.3570   -7.0130   23.8960 C   0  0  0  0  0  3  0  0  0  0  0  0
  -21.2880   -6.1840   25.0340 C   0  0  0  0  0  3  0  0  0  0  0  0
  -21.5290   -4.8020   24.9160 C   0  0  0  0  0  0  0  0  0  0  0  0
  -21.8410   -4.2470   23.6630 C   0  0  0  0  0  3  0  0  0  0  0  0
  -21.9110   -5.0720   22.5270 C   0  0  0  0  0  0  0  0  0  0  0  0
  -22.1910   -4.5270   21.3180 F   0  0  0  0  0  0  0  0  0  0  0  0
  -21.4560   -4.0060   26.0080 F   0  0  0  0  0  0  0  0  0  0  0  0
  -22.9670  -13.7930   20.8750 C   0  0  0  0  0  0  0  0  0  0  0  0
  -22.1980  -13.1800   21.7690 N   0  0  0  0  0  0  0  0  0  0  0  0
  -22.5680  -14.7850   20.2650 O   0  0  0  0  0  0  0  0  0  0  0  0
  -22.5340  -12.3800   22.2840 H   0  0  0  0  0  0  0  0  0  0  0  0
  -21.2610  -13.5160   21.9400 H   0  0  0  0  0  0  0  0  0  0  0  0
  -25.6600  -15.3540   20.0730 N   0  0  0  0  0  0  0  0  0  0  0  0
  -24.8890  -16.0110   20.0950 H   0  0  0  0  0  0  0  0  0  0  0  0
  -26.4890  -15.7350   19.6380 H   0  0  0  0  0  0  0  0  0  0  0  0
  -32.0200  -20.6990   19.6050 C   0  0  0  0  0  2  0  0  0  0  0  0
  -33.5480  -21.5460   17.6510 C   0  0  0  0  0  2  0  0  0  0  0  0
  -33.1680  -20.1340   17.2880 C   0  0  0  0  0  2  0  0  0  0  0  0
  -32.2300  -20.9750   18.1270 C   0  0  0  0  0  3  0  0  0  0  0  0
  -29.4080  -22.1160   20.3030 O   0  0  0  0  0  0  0  0  0  0  0  0
  -28.9320  -23.2730   19.4030 C   0  0  0  0  0  2  0  0  0  0  0  0
  -27.1840  -24.5170   20.9090 C   0  0  0  0  0  1  0  0  0  0  0  0
  -28.4350  -24.7590   20.0470 C   0  0  0  0  0  3  0  0  0  0  0  0
  -28.4080  -26.1830   19.3960 O   0  0  0  0  0  0  0  0  0  0  0  0
  -24.6740  -31.5240   22.8570 C   0  0  0  0  0  0  0  0  0  0  0  0
  -27.3120  -27.1140   19.4710 C   0  0  0  0  0  0  0  0  0  0  0  0
  -23.4780  -30.2210   21.1390 C   0  0  0  0  0  3  0  0  0  0  0  0
  -24.9390  -28.7860   19.5860 C   0  0  0  0  0  0  0  0  0  0  0  0
  -26.0200  -30.5650   20.9530 C   0  0  0  0  0  2  0  0  0  0  0  0
  -26.1160  -29.2240   20.2080 C   0  0  0  0  0  0  0  0  0  0  0  0
  -27.3040  -28.4070   20.1310 C   0  0  0  0  0  3  0  0  0  0  0  0
  -26.1120  -26.7800   18.8080 C   0  0  0  0  0  3  0  0  0  0  0  0
  -24.9480  -27.5780   18.8700 C   0  0  0  0  0  3  0  0  0  0  0  0
  -23.6910  -29.6470   19.7120 C   0  0  0  0  0  2  0  0  0  0  0  0
  -24.7440  -30.7900   21.7060 N   0  0  0  0  0  0  0  0  0  0  0  0
  -23.5900  -31.7420   23.4220 O   0  0  0  0  0  0  0  0  0  0  0  0
  -22.8420  -29.1310   22.0360 C   0  0  0  0  0  0  0  0  0  0  0  0
  -21.5060  -28.9850   21.9700 N   0  0  0  0  0  0  0  0  0  0  0  0
  -23.5490  -28.4210   22.7560 O   0  0  0  0  0  0  0  0  0  0  0  0
  -20.9900  -29.6090   21.3670 H   0  0  0  0  0  0  0  0  0  0  0  0
  -18.1380  -27.8080   22.5920 C   0  0  0  0  0  0  0  0  0  0  0  0
  -20.7160  -27.9860   22.6940 C   0  0  0  0  0  3  0  0  0  0  0  0
  -20.7340  -26.6240   21.9600 C   0  0  0  0  0  2  0  0  0  0  0  0
  -19.5530  -26.4400   21.0020 C   0  0  0  0  0  2  0  0  0  0  0  0
  -18.2270  -26.5410   21.7590 C   0  0  0  0  0  2  0  0  0  0  0  0
  -19.3050  -28.4960   23.0180 C   0  0  0  0  0  0  0  0  0  0  0  0
  -19.1650  -29.6860   23.7620 C   0  0  0  0  0  3  0  0  0  0  0  0
  -17.8910  -30.1900   24.0820 C   0  0  0  0  0  3  0  0  0  0  0  0
  -16.7380  -29.5000   23.6690 C   0  0  0  0  0  3  0  0  0  0  0  0
  -16.8630  -28.3100   22.9300 C   0  0  0  0  0  3  0  0  0  0  0  0
  -25.9480  -32.1440   23.5080 C   0  0  0  0  0  3  0  0  0  0  0  0
  -26.5100  -31.2850   24.7080 C   0  0  1  0  0  0  0  0  0  0  0  0
  -25.4480  -30.9440   25.7800 C   0  0  0  0  0  1  0  0  0  0  0  0
  -27.1070  -29.9530   24.1990 C   0  0  0  0  0  1  0  0  0  0  0  0
  -27.6630  -32.0490   25.4010 C   0  0  0  0  0  1  0  0  0  0  0  0
  -25.6010  -33.4980   23.9670 N   0  0  0  0  0  0  0  0  0  0  0  0
  -25.9070  -34.6280   23.3130 C   0  0  0  0  0  0  0  0  0  0  0  0
  -26.5750  -34.6380   22.2760 O   0  0  0  0  0  0  0  0  0  0  0  0
  -25.0030  -33.5610   24.7770 H   0  0  0  0  0  0  0  0  0  0  0  0
  -24.1340  -36.4060   23.1420 C   0  0  0  0  0  1  0  0  0  0  0  0
  -25.3910  -35.9550   23.9030 C   0  0  0  0  0  3  0  0  0  0  0  0
  -27.5090  -36.8140   24.8030 C   0  0  0  0  0  1  0  0  0  0  0  0
  -26.3980  -37.0390   23.8820 N   0  0  0  0  0  0  0  0  0  0  0  0
  -25.9700  -37.9320   24.1130 H   0  0  0  0  0  0  0  0  0  0  0  0
  1  7  1  0
  1 16  1  0
  2  7  1  0
  3  4  1  0
  3  2  1  0
  5  4  1  0
  5 21  1  0
  5  6  1  0
  7  6  1  0
  8  1  2  0
 10  9  1  0
 10 14  1  0
 11 50  1  0
 11 10  2  0
 12 15  2  0
 12 11  1  0
 13 16  1  0
 13  9  2  0
 15 13  1  0
 16 17  1  0
 18 19  2  0
 19 20  1  0
 19 38  1  0
 20 23  1  0
 21 18  1  0
 21 22  1  0
 22 20  2  0
 23 24  1  0
 24 25  2  0
 26 29  1  0
 26 25  1  0
 27 26  2  0
 28 27  1  0
 28 23  2  0
 29 30  1  0
 30 31  1  0
 31 32  2  0
 33 32  1  0
 33 37  1  0
 34 33  2  0
 35 30  2  0
 35 34  1  0
 36 35  1  0
 38 39  1  0
 39 42  1  0
 39 41  1  0
 40 38  2  0
 43 44  1  0
 43 18  1  0
 45 43  1  0
 46 12  1  0
 47 49  1  0
 48 47  1  0
 48 49  1  0
 49 46  1  0
 51 53  1  0
 51 50  1  0
 53 52  1  0
 54 56  1  0
 54 53  1  0
 55 66  2  0
 56 61  1  0
 57 65  1  0
 57 67  1  0
 58 64  1  0
 58 60  1  0
 59 65  1  0
 60 59  1  0
 61 60  2  0
 62 63  1  0
 62 56  2  0
 63 58  2  0
 64 57  1  0
 65 55  1  0
 67 69  2  0
 68 67  1  0
 70 68  1  0
 71 80  2  0
 71 76  1  0
 72 68  1  0
 72 76  1  0
 73 72  1  0
 74 75  1  0
 74 73  1  0
 75 71  1  0
 76 77  2  0
 77 78  1  0
 79 78  2  0
 80 79  1  0
 81 55  1  0
 81 86  1  0
 81 82  1  0
 82 85  1  1
 82 83  1  0
 84 82  1  0
 86 89  1  0
 87 91  1  0
 87 86  1  0
 88 87  2  0
 91 90  1  0
 93 91  1  0
 93 94  1  0
 93 92  1  0
M  ISO  4   1 100  16 100  53 101  54 101
M  END
>  <TORSDO>  (73) 
F 20

>  <SCORE>  (73) 
-11.829

>  <name>  (73) 
72

>  <ligand_id>  (73) 
72

>  <original_smiles>  (73) 
[H]c1c([H])c([H])c2c(c1[H])C([H])([H])C([H])([H])C([H])([H])C2([H])N([H])C(=O)C1([H])N(C(=O)C([H])(N([H])C(=O)C([H])(N([H])C([H])([H])[H])C([H])([H])[H])C(C([H])([H])[H])(C([H])([H])[H])C([H])([H])[H])C([H])([H])c2c([H])c(OC([H])(C([H])([H])[H])C([H])([H])Oc3c(C([H])([H])C4([H])C([H])([H])C4([H])[H])nc(N([H])C(=O)N4C([H])([H])C([H])([H])C([H])([H])C([H])(n5nc(-c6c([H])c([H])c(Oc7c([H])c([H])c(F)c([H])c7F)c([H])c6[H])c(C(=O)N([H])[H])c5N([H])[H])C4([H])[H])c([H])c3C([H])([H])[H])c([H])c([H])c2C1([H])[H]

>  <smiles>  (73) 
[H]c1c([H])c([H])c2c(c1[H])C([H])([H])C([H])([H])C([H])([H])C2([H])N([H])C(=O)C1([H])N(C(=O)C([H])(N([H])C(=O)C([H])(N([H])C([H])([H])[H])C([H])([H])[H])C(C([H])([H])[H])(C([H])([H])[H])C([H])([H])[H])C([H])([H])c2c([H])c(OC([H])(C([H])([H])[H])C([H])([H])Oc3c(C([H])([H])C4([H])C([H])([H])C4([H])[H])nc(N([H])C(=O)N4C([H])([H])C([H])([H])C([H])([H])C([H])(n5nc(-c6c([H])c([H])c(Oc7c([H])c([H])c(F)c([H])c7F)c([H])c6[H])c(C(=O)N([H])[H])c5N([H])[H])C4([H])[H])c([H])c3C([H])([H])[H])c([H])c([H])c2C1([H])[H]

$$$$
73:0:0
     RDKit          3D

 95104  0  0  1  0  0  0  0  0999 V2000
  -28.6100  -18.7970   20.3610 C   0  0  0  0  0  3  0  0  0  0  0  0
  -28.0450  -20.0970   20.4090 C   0  0  0  0  0  3  0  0  0  0  0  0
  -30.0120  -18.6230   20.3880 C   0  0  0  0  0  0  0  0  0  0  0  0
  -30.7710  -19.8490   20.5310 C   0  0  0  0  0  0  0  0  0  0  0  0
  -28.8620  -21.2460   20.4860 C   0  0  0  0  0  0  0  0  0  0  0  0
  -30.2000  -21.1030   20.5680 N   0  0  0  0  0  0  0  0  0  0  0  0
  -32.2760  -19.8610   20.5830 C   0  0  0  0  0  0  0  0  0  0  0  0
  -32.9980  -19.1930   19.8320 O   0  0  0  0  0  0  0  0  0  0  0  0
  -32.5690  -20.6040   23.0710 C   0  0  0  0  0  2  0  0  0  0  0  0
  -33.9260  -20.1830   22.5640 C   0  0  0  0  0  2  0  0  0  0  0  0
  -32.9160  -20.7870   21.5980 C   0  0  0  0  0  3  0  0  0  0  0  0
  -30.8990  -17.1500   18.5650 C   0  0  0  0  0  1  0  0  0  0  0  0
  -30.6680  -17.2060   20.0930 C   0  0  0  0  0  3  0  0  0  0  0  0
  -30.7060  -14.6810   20.4290 C   0  0  0  0  0  0  0  0  0  0  0  0
  -30.3760  -12.4570   19.3920 C   0  0  0  0  0  2  0  0  0  0  0  0
  -29.4690  -12.6220   18.1560 C   0  0  0  0  0  2  0  0  0  0  0  0
  -27.9900  -12.4780   18.5620 C   0  0  0  0  0  2  0  0  0  0  0  0
  -27.6240  -13.3360   19.8050 C   0  0  0  0  0  3  0  0  0  0  0  0
  -28.6750  -13.2170   20.9340 C   0  0  0  0  0  2  0  0  0  0  0  0
  -29.9870  -13.5150   20.3480 N   0  0  0  0  0  0  0  0  0  0  0  0
  -31.9070  -14.6840   20.1610 O   0  0  0  0  0  0  0  0  0  0  0  0
  -30.0420  -15.8880   20.5150 N   0  0  0  0  0  0  0  0  0  0  0  0
  -29.0500  -15.8580   20.6840 H   0  0  0  0  0  0  0  0  0  0  0  0
  -25.2260  -13.9160   20.5070 C   0  0  0  0  0  0  0  0  0  0  0  0
  -24.1580  -13.1400   20.8670 C   0  0  0  0  0  0  0  0  0  0  0  0
  -24.6240  -11.7900   20.8460 C   0  0  0  0  0  0  0  0  0  0  0  0
  -26.2760  -13.0400   20.2850 N   0  0  0  0  0  0  0  0  0  0  0  0
  -25.9190  -11.7550   20.5510 N   0  0  0  0  0  0  0  0  0  0  0  0
  -23.8970  -10.5260   21.0300 C   0  0  0  0  0  0  0  0  0  0  0  0
  -24.3140   -9.5640   21.9750 C   0  0  0  0  0  3  0  0  0  0  0  0
  -23.5850   -8.3680   22.1500 C   0  0  0  0  0  3  0  0  0  0  0  0
  -22.4250   -8.1250   21.3770 C   0  0  0  0  0  0  0  0  0  0  0  0
  -22.0260   -9.0760   20.4200 C   0  0  0  0  0  3  0  0  0  0  0  0
  -22.7550  -10.2630   20.2450 C   0  0  0  0  0  3  0  0  0  0  0  0
  -21.6690   -6.9800   21.4580 O   0  0  0  0  0  0  0  0  0  0  0  0
  -21.5880   -6.2510   22.6170 C   0  0  0  0  0  0  0  0  0  0  0  0
  -21.1190   -6.8180   23.8230 C   0  0  0  0  0  3  0  0  0  0  0  0
  -20.9880   -6.0150   24.9740 C   0  0  0  0  0  3  0  0  0  0  0  0
  -21.3150   -4.6470   24.9190 C   0  0  0  0  0  0  0  0  0  0  0  0
  -21.7780   -4.0800   23.7190 C   0  0  0  0  0  3  0  0  0  0  0  0
  -21.9110   -4.8800   22.5700 C   0  0  0  0  0  0  0  0  0  0  0  0
  -22.3370   -4.3260   21.4100 F   0  0  0  0  0  0  0  0  0  0  0  0
  -21.1820   -3.8720   26.0200 F   0  0  0  0  0  0  0  0  0  0  0  0
  -22.7570  -13.6160   21.1180 C   0  0  0  0  0  0  0  0  0  0  0  0
  -22.0190  -12.9250   21.9800 N   0  0  0  0  0  0  0  0  0  0  0  0
  -22.3240  -14.6370   20.5840 O   0  0  0  0  0  0  0  0  0  0  0  0
  -22.3810  -12.1010   22.4350 H   0  0  0  0  0  0  0  0  0  0  0  0
  -21.0770  -13.2280   22.1860 H   0  0  0  0  0  0  0  0  0  0  0  0
  -25.3850  -15.2860   20.3230 N   0  0  0  0  0  0  0  0  0  0  0  0
  -24.5990  -15.9230   20.3890 H   0  0  0  0  0  0  0  0  0  0  0  0
  -26.2180  -15.7240   19.9540 H   0  0  0  0  0  0  0  0  0  0  0  0
  -28.2660  -22.5220   20.4910 O   0  0  0  0  0  0  0  0  0  0  0  0
  -28.9630  -23.8130   20.3900 C   0  0  0  0  0  2  0  0  0  0  0  0
  -27.9020  -25.0090   20.3340 C   0  0  0  0  0  2  0  0  0  0  0  0
  -28.2380  -26.4570   20.1770 O   0  0  0  0  0  0  0  0  0  0  0  0
  -24.5840  -31.8930   23.2250 C   0  0  0  0  0  0  0  0  0  0  0  0
  -27.1500  -27.3470   20.1190 C   0  0  0  0  0  0  0  0  0  0  0  0
  -23.3670  -30.5150   21.5770 C   0  0  0  0  0  3  0  0  0  0  0  0
  -24.8020  -28.9910   20.1210 C   0  0  0  0  0  0  0  0  0  0  0  0
  -25.9080  -30.8260   21.3870 C   0  0  0  0  0  2  0  0  0  0  0  0
  -25.9780  -29.4560   20.7280 C   0  0  0  0  0  0  0  0  0  0  0  0
  -27.1530  -28.6470   20.7180 C   0  0  0  0  0  3  0  0  0  0  0  0
  -25.9570  -26.9560   19.4650 C   0  0  0  0  0  3  0  0  0  0  0  0
  -24.8020  -27.7490   19.4740 C   0  0  0  0  0  3  0  0  0  0  0  0
  -23.5700  -29.8670   20.1850 C   0  0  0  0  0  2  0  0  0  0  0  0
  -24.6390  -31.0960   22.1180 N   0  0  0  0  0  0  0  0  0  0  0  0
  -23.5020  -32.1610   23.7680 O   0  0  0  0  0  0  0  0  0  0  0  0
  -22.7060  -29.4890   22.5310 C   0  0  0  0  0  0  0  0  0  0  0  0
  -21.3790  -29.3120   22.4130 N   0  0  0  0  0  0  0  0  0  0  0  0
  -23.3920  -28.8550   23.3380 O   0  0  0  0  0  0  0  0  0  0  0  0
  -20.8820  -29.8780   21.7390 H   0  0  0  0  0  0  0  0  0  0  0  0
  -18.0040  -28.1130   22.9250 C   0  0  0  0  0  0  0  0  0  0  0  0
  -20.5630  -28.3660   23.1810 C   0  0  0  0  0  3  0  0  0  0  0  0
  -20.6610  -26.9370   22.5970 C   0  0  0  0  0  2  0  0  0  0  0  0
  -19.5540  -26.6230   21.5890 C   0  0  0  0  0  2  0  0  0  0  0  0
  -18.1740  -26.7690   22.2380 C   0  0  0  0  0  2  0  0  0  0  0  0
  -19.1260  -28.8700   23.3560 C   0  0  0  0  0  0  0  0  0  0  0  0
  -18.9100  -30.1280   23.9590 C   0  0  0  0  0  3  0  0  0  0  0  0
  -17.6060  -30.6310   24.1320 C   0  0  0  0  0  3  0  0  0  0  0  0
  -16.4990  -29.8700   23.7200 C   0  0  0  0  0  3  0  0  0  0  0  0
  -16.6980  -28.6130   23.1230 C   0  0  0  0  0  3  0  0  0  0  0  0
  -25.8690  -32.5230   23.8430 C   0  0  0  0  0  3  0  0  0  0  0  0
  -25.5650  -33.9210   24.1810 N   0  0  0  0  0  0  0  0  0  0  0  0
  -25.8850  -34.9740   23.4210 C   0  0  0  0  0  0  0  0  0  0  0  0
  -26.5450  -34.8740   22.3820 O   0  0  0  0  0  0  0  0  0  0  0  0
  -24.9960  -34.0760   25.0020 H   0  0  0  0  0  0  0  0  0  0  0  0
  -24.1660  -36.7750   23.0850 C   0  0  0  0  0  1  0  0  0  0  0  0
  -25.4090  -36.3640   23.8880 C   0  0  0  0  0  3  0  0  0  0  0  0
  -27.5530  -37.2380   24.7060 C   0  0  0  0  0  1  0  0  0  0  0  0
  -26.4450  -37.4140   23.7710 N   0  0  0  0  0  0  0  0  0  0  0  0
  -26.0430  -38.3350   23.9280 H   0  0  0  0  0  0  0  0  0  0  0  0
  -26.3880  -31.7420   25.1120 C   0  0  1  0  0  0  0  0  0  0  0  0
  -25.3000  -31.5050   26.1830 C   0  0  0  0  0  1  0  0  0  0  0  0
  -26.9650  -30.3660   24.7070 C   0  0  0  0  0  1  0  0  0  0  0  0
  -27.5470  -32.5240   25.7710 C   0  0  0  0  0  1  0  0  0  0  0  0
  1  3  1  0
  1  2  2  0
  2  5  1  0
  3  4  2  0
  4  6  1  0
  4  7  1  0
  5 52  1  0
  5  6  2  0
  7 11  1  0
  8  7  2  0
 10  9  1  0
 11 10  1  0
 11  9  1  0
 13 12  1  0
 13  3  1  0
 13 22  1  0
 14 22  1  0
 15 20  1  0
 16 17  1  0
 16 15  1  0
 18 17  1  0
 18 27  1  0
 18 19  1  0
 20 14  1  0
 20 19  1  0
 21 14  2  0
 22 23  1  0
 24 25  2  0
 25 44  1  0
 26 25  1  0
 26 29  1  0
 27 24  1  0
 27 28  1  0
 28 26  2  0
 29 30  1  0
 30 31  2  0
 32 35  1  0
 32 31  1  0
 33 32  2  0
 34 33  1  0
 34 29  2  0
 35 36  1  0
 36 37  1  0
 37 38  2  0
 39 38  1  0
 39 43  1  0
 40 39  2  0
 41 36  2  0
 41 40  1  0
 42 41  1  0
 44 45  1  0
 45 48  1  0
 45 47  1  0
 46 44  2  0
 49 50  1  0
 49 24  1  0
 51 49  1  0
 53 52  1  0
 54 53  1  0
 55 54  1  0
 56 67  2  0
 57 55  1  0
 57 62  1  0
 58 66  1  0
 58 68  1  0
 59 65  1  0
 59 61  1  0
 60 66  1  0
 61 60  1  0
 62 61  2  0
 63 64  1  0
 63 57  2  0
 64 59  2  0
 65 58  1  0
 66 56  1  0
 68 70  2  0
 69 68  1  0
 71 69  1  0
 72 81  2  0
 72 77  1  0
 73 69  1  0
 73 77  1  0
 74 73  1  0
 75 76  1  0
 75 74  1  0
 76 72  1  0
 77 78  2  0
 78 79  1  0
 80 79  2  0
 81 80  1  0
 82 56  1  0
 82 83  1  0
 82 92  1  0
 83 86  1  0
 84 88  1  0
 84 83  1  0
 85 84  2  0
 88 87  1  0
 90 88  1  0
 90 91  1  0
 90 89  1  0
 92 95  1  1
 92 93  1  0
 94 92  1  0
M  ISO  4  14 100  22 100  54 101  55 101
M  END
>  <TORSDO>  (74) 
F 22

>  <SCORE>  (74) 
-13.720

>  <name>  (74) 
73

>  <ligand_id>  (74) 
73

>  <original_smiles>  (74) 
[H]c1c(OC([H])([H])C([H])([H])Oc2c([H])c([H])c3c(c2[H])C([H])([H])N(C(=O)C([H])(N([H])C(=O)C([H])(N([H])C([H])([H])[H])C([H])([H])[H])C(C([H])([H])[H])(C([H])([H])[H])C([H])([H])[H])C([H])(C(=O)N([H])C2([H])c4c([H])c([H])c([H])c([H])c4C([H])([H])C([H])([H])C2([H])[H])C3([H])[H])nc(C(=O)C2([H])C([H])([H])C2([H])[H])c(C([H])(N([H])C(=O)N2C([H])([H])C([H])([H])C([H])([H])C([H])(n3nc(-c4c([H])c([H])c(Oc5c([H])c([H])c(F)c([H])c5F)c([H])c4[H])c(C(=O)N([H])[H])c3N([H])[H])C2([H])[H])C([H])([H])[H])c1[H]

>  <smiles>  (74) 
[H]c1c(OC([H])([H])C([H])([H])Oc2c([H])c([H])c3c(c2[H])C([H])([H])N(C(=O)C([H])(N([H])C(=O)C([H])(N([H])C([H])([H])[H])C([H])([H])[H])C(C([H])([H])[H])(C([H])([H])[H])C([H])([H])[H])C([H])(C(=O)N([H])C2([H])c4c([H])c([H])c([H])c([H])c4C([H])([H])C([H])([H])C2([H])[H])C3([H])[H])nc(C(=O)C2([H])C([H])([H])C2([H])[H])c(C([H])(N([H])C(=O)N2C([H])([H])C([H])([H])C([H])([H])C([H])(n3nc(-c4c([H])c([H])c(Oc5c([H])c([H])c(F)c([H])c5F)c([H])c4[H])c(C(=O)N([H])[H])c3N([H])[H])C2([H])[H])C([H])([H])[H])c1[H]

$$$$
74:0:0
     RDKit          3D

 91 99  0  0  1  0  0  0  0  0999 V2000
  -28.5450  -19.6860   19.0640 C   0  0  0  0  0  2  0  0  0  0  0  0
  -29.6400  -19.0700   19.8190 C   0  0  0  0  0  3  0  0  0  0  0  0
  -29.4760  -20.7740   19.5920 C   0  0  2  0  0  0  0  0  0  0  0  0
  -27.6590  -21.7450   21.1560 C   0  0  0  0  0  1  0  0  0  0  0  0
  -29.8160  -20.8960   22.1760 C   0  0  0  0  0  1  0  0  0  0  0  0
  -29.1630  -21.5090   20.9230 C   0  0  0  0  0  3  0  0  0  0  0  0
  -30.2880  -17.6840   19.1870 C   0  0  0  0  0  2  0  0  0  0  0  0
  -31.0130  -15.1080   19.4850 C   0  0  0  0  0  0  0  0  0  0  0  0
  -30.7300  -12.7260   18.6500 C   0  0  0  0  0  2  0  0  0  0  0  0
  -29.7040  -12.6470   17.4940 C   0  0  0  0  0  2  0  0  0  0  0  0
  -28.2810  -12.4700   18.0530 C   0  0  0  0  0  2  0  0  0  0  0  0
  -27.9820  -13.4680   19.1970 C   0  0  0  0  0  3  0  0  0  0  0  0
  -29.1140  -13.5350   20.2350 C   0  0  0  0  0  2  0  0  0  0  0  0
  -30.3620  -13.8740   19.5340 N   0  0  0  0  0  0  0  0  0  0  0  0
  -32.0910  -15.1470   18.8820 O   0  0  0  0  0  0  0  0  0  0  0  0
  -30.4220  -16.3140   19.9740 N   0  0  0  0  0  0  0  0  0  0  0  0
  -25.7430  -14.1390   20.2410 C   0  0  0  0  0  0  0  0  0  0  0  0
  -24.6860  -13.4060   20.7010 C   0  0  0  0  0  0  0  0  0  0  0  0
  -25.0630  -12.0340   20.5590 C   0  0  0  0  0  0  0  0  0  0  0  0
  -26.6940  -13.2190   19.8340 N   0  0  0  0  0  0  0  0  0  0  0  0
  -26.3030  -11.9440   20.0930 N   0  0  0  0  0  0  0  0  0  0  0  0
  -24.2900  -10.8050   20.7790 C   0  0  0  0  0  0  0  0  0  0  0  0
  -24.7050   -9.8280   21.7130 C   0  0  0  0  0  3  0  0  0  0  0  0
  -23.9340   -8.6650   21.9200 C   0  0  0  0  0  3  0  0  0  0  0  0
  -22.7350   -8.4660   21.1930 C   0  0  0  0  0  0  0  0  0  0  0  0
  -22.3410   -9.4300   20.2480 C   0  0  0  0  0  3  0  0  0  0  0  0
  -23.1100  -10.5860   20.0400 C   0  0  0  0  0  3  0  0  0  0  0  0
  -21.9390   -7.3520   21.3070 O   0  0  0  0  0  0  0  0  0  0  0  0
  -21.7940   -6.6920   22.5010 C   0  0  0  0  0  0  0  0  0  0  0  0
  -21.3090   -7.3410   23.6570 C   0  0  0  0  0  3  0  0  0  0  0  0
  -21.1090   -6.6080   24.8440 C   0  0  0  0  0  3  0  0  0  0  0  0
  -21.3830   -5.2290   24.8750 C   0  0  0  0  0  0  0  0  0  0  0  0
  -21.8590   -4.5780   23.7230 C   0  0  0  0  0  3  0  0  0  0  0  0
  -22.0620   -5.3080   22.5380 C   0  0  0  0  0  0  0  0  0  0  0  0
  -22.5020   -4.6750   21.4240 F   0  0  0  0  0  0  0  0  0  0  0  0
  -21.1840   -4.5220   26.0120 F   0  0  0  0  0  0  0  0  0  0  0  0
  -23.3580  -13.9430   21.1550 C   0  0  0  0  0  0  0  0  0  0  0  0
  -22.7100  -13.2650   22.0960 N   0  0  0  0  0  0  0  0  0  0  0  0
  -22.9110  -14.9990   20.7080 O   0  0  0  0  0  0  0  0  0  0  0  0
  -23.0850  -12.4100   22.4790 H   0  0  0  0  0  0  0  0  0  0  0  0
  -21.8240  -13.6060   22.4400 H   0  0  0  0  0  0  0  0  0  0  0  0
  -25.9700  -15.5050   20.1090 N   0  0  0  0  0  0  0  0  0  0  0  0
  -25.2760  -16.1970   20.3650 H   0  0  0  0  0  0  0  0  0  0  0  0
  -26.8160  -15.9100   19.7290 H   0  0  0  0  0  0  0  0  0  0  0  0
  -31.1330  -15.4990   22.3510 C   0  0  0  0  0  1  0  0  0  0  0  0
  -31.4290  -17.8750   21.7230 C   0  0  0  0  0  1  0  0  0  0  0  0
  -30.5610  -16.6210   21.4380 C   0  0  0  0  0  3  0  0  0  0  0  0
  -29.4320  -21.9670   18.4300 C   0  0  0  0  0  2  0  0  0  0  0  0
  -29.5810  -23.6460   18.5990 C   0  0  0  0  0  3  0  0  0  0  0  0
  -28.3900  -24.8060   18.4120 C   0  0  0  0  0  3  0  0  0  0  0  0
  -28.5460  -26.3440   18.5530 O   0  0  0  0  0  0  0  0  0  0  0  0
  -24.6650  -31.0710   22.6220 C   0  0  0  0  0  0  0  0  0  0  0  0
  -27.4070  -27.2100   18.6960 C   0  0  0  0  0  0  0  0  0  0  0  0
  -23.4710  -29.8420   20.8520 C   0  0  0  0  0  3  0  0  0  0  0  0
  -24.9380  -28.6800   19.0930 C   0  0  0  0  0  0  0  0  0  0  0  0
  -25.9650  -30.3960   20.5720 C   0  0  0  0  0  2  0  0  0  0  0  0
  -26.1130  -29.1410   19.6970 C   0  0  0  0  0  0  0  0  0  0  0  0
  -27.3480  -28.4250   19.4860 C   0  0  0  0  0  3  0  0  0  0  0  0
  -26.1970  -26.8520   18.0630 C   0  0  0  0  0  3  0  0  0  0  0  0
  -24.9890  -27.5510   18.2600 C   0  0  0  0  0  3  0  0  0  0  0  0
  -23.6410  -29.4220   19.3670 C   0  0  0  0  0  2  0  0  0  0  0  0
  -24.7220  -30.4510   21.4040 N   0  0  0  0  0  0  0  0  0  0  0  0
  -23.6020  -31.1590   23.2560 O   0  0  0  0  0  0  0  0  0  0  0  0
  -22.9650  -28.6290   21.6730 C   0  0  0  0  0  0  0  0  0  0  0  0
  -21.6570  -28.3320   21.5830 N   0  0  0  0  0  0  0  0  0  0  0  0
  -23.7500  -27.9640   22.3540 O   0  0  0  0  0  0  0  0  0  0  0  0
  -21.0750  -28.9340   21.0180 H   0  0  0  0  0  0  0  0  0  0  0  0
  -18.4720  -26.6610   21.9910 C   0  0  0  0  0  0  0  0  0  0  0  0
  -20.9880  -27.2020   22.2320 C   0  0  0  0  0  3  0  0  0  0  0  0
  -21.2400  -25.8870   21.4610 C   0  0  0  0  0  2  0  0  0  0  0  0
  -20.1460  -25.5710   20.4350 C   0  0  0  0  0  2  0  0  0  0  0  0
  -18.7840  -25.4520   21.1240 C   0  0  0  0  0  2  0  0  0  0  0  0
  -19.5070  -27.4910   22.4970 C   0  0  0  0  0  0  0  0  0  0  0  0
  -19.1600  -28.6210   23.2700 C   0  0  0  0  0  3  0  0  0  0  0  0
  -17.8120  -28.9270   23.5360 C   0  0  0  0  0  3  0  0  0  0  0  0
  -16.7930  -28.0940   23.0430 C   0  0  0  0  0  3  0  0  0  0  0  0
  -17.1230  -26.9610   22.2780 C   0  0  0  0  0  3  0  0  0  0  0  0
  -25.9260  -31.7250   23.2660 C   0  0  0  0  0  3  0  0  0  0  0  0
  -25.5090  -32.9940   23.8810 N   0  0  0  0  0  0  0  0  0  0  0  0
  -25.6990  -34.2040   23.3400 C   0  0  0  0  0  0  0  0  0  0  0  0
  -26.3130  -34.3740   22.2830 O   0  0  0  0  0  0  0  0  0  0  0  0
  -24.9510  -32.9270   24.7200 H   0  0  0  0  0  0  0  0  0  0  0  0
  -23.7990  -35.8540   23.4280 C   0  0  0  0  0  1  0  0  0  0  0  0
  -25.1170  -35.4200   24.0890 C   0  0  0  0  0  3  0  0  0  0  0  0
  -27.2090  -36.3320   24.9980 C   0  0  0  0  0  1  0  0  0  0  0  0
  -26.0430  -36.5710   24.1510 N   0  0  0  0  0  0  0  0  0  0  0  0
  -25.5670  -37.4010   24.4930 H   0  0  0  0  0  0  0  0  0  0  0  0
  -26.6260  -30.7980   24.3350 C   0  0  1  0  0  0  0  0  0  0  0  0
  -25.6620  -30.2590   25.4180 C   0  0  0  0  0  1  0  0  0  0  0  0
  -27.2940  -29.5820   23.6540 C   0  0  0  0  0  1  0  0  0  0  0  0
  -27.7550  -31.5790   25.0460 C   0  0  0  0  0  1  0  0  0  0  0  0
  1  3  1  0
  1  2  1  0
  2  7  1  0
  3 48  1  6
  3  2  1  0
  3  6  1  0
  6  4  1  0
  6  5  1  0
  7 16  1  0
  8 14  1  0
  8 16  1  0
  9 14  1  0
 10 11  1  0
 10  9  1  0
 12 11  1  0
 12 20  1  0
 12 13  1  0
 14 13  1  0
 15  8  2  0
 16 47  1  0
 17 18  2  0
 18 37  1  0
 19 18  1  0
 19 22  1  0
 20 21  1  0
 20 17  1  0
 21 19  2  0
 22 23  1  0
 23 24  2  0
 25 28  1  0
 25 24  1  0
 26 25  2  0
 27 26  1  0
 27 22  2  0
 28 29  1  0
 29 34  2  0
 29 30  1  0
 30 31  2  0
 31 32  1  0
 32 36  1  0
 33 32  2  0
 34 33  1  0
 35 34  1  0
 37 38  1  0
 38 41  1  0
 38 40  1  0
 39 37  2  0
 42 17  1  0
 42 43  1  0
 44 42  1  0
 47 46  1  0
 47 45  1  0
 48 49  1  0
 50 51  1  0
 50 49  2  0
 51 53  1  0
 52 63  2  0
 53 58  1  0
 54 62  1  0
 54 64  1  0
 55 61  1  0
 55 57  1  0
 56 62  1  0
 57 56  1  0
 58 57  2  0
 59 60  1  0
 59 53  2  0
 60 55  2  0
 61 54  1  0
 62 52  1  0
 64 66  2  0
 65 64  1  0
 67 65  1  0
 68 77  2  0
 68 73  1  0
 69 65  1  0
 69 73  1  0
 70 69  1  0
 71 72  1  0
 71 70  1  0
 72 68  1  0
 73 74  2  0
 74 75  1  0
 76 75  2  0
 77 76  1  0
 78 52  1  0
 78 79  1  0
 78 88  1  0
 79 82  1  0
 80 79  1  0
 80 84  1  0
 81 80  2  0
 84 83  1  0
 84 86  1  0
 86 87  1  0
 86 85  1  0
 88 91  1  1
 88 89  1  0
 90 88  1  0
M  ISO  4   8 100  16 100  50 101  51 101
M  END
>  <TORSDO>  (75) 
F 22

>  <SCORE>  (75) 
-9.494

>  <name>  (75) 
74

>  <ligand_id>  (75) 
74

>  <original_smiles>  (75) 
[H]c1c([H])c([H])c2c(c1[H])C([H])([H])C([H])([H])C([H])([H])C2([H])N([H])C(=O)C1([H])N(C(=O)C([H])(N([H])C(=O)C([H])(N([H])C([H])([H])[H])C([H])([H])[H])C(C([H])([H])[H])(C([H])([H])[H])C([H])([H])[H])C([H])([H])c2c([H])c(OC([H])([H])C([H])([H])C([H])([H])C3(C([H])(C([H])([H])[H])C([H])([H])[H])C([H])([H])C3([H])C([H])([H])N(C(=O)N3C([H])([H])C([H])([H])C([H])([H])C([H])(n4nc(-c5c([H])c([H])c(Oc6c([H])c([H])c(F)c([H])c6F)c([H])c5[H])c(C(=O)N([H])[H])c4N([H])[H])C3([H])[H])C([H])(C([H])([H])[H])C([H])([H])[H])c([H])c([H])c2C1([H])[H]

>  <smiles>  (75) 
[H]c1c([H])c([H])c2c(c1[H])C([H])([H])C([H])([H])C([H])([H])C2([H])N([H])C(=O)C1([H])N(C(=O)C([H])(N([H])C(=O)C([H])(N([H])C([H])([H])[H])C([H])([H])[H])C(C([H])([H])[H])(C([H])([H])[H])C([H])([H])[H])C([H])([H])c2c([H])c(OC([H])([H])C([H])([H])C([H])([H])C3(C([H])(C([H])([H])[H])C([H])([H])[H])C([H])([H])C3([H])C([H])([H])N(C(=O)N3C([H])([H])C([H])([H])C([H])([H])C([H])(n4nc(-c5c([H])c([H])c(Oc6c([H])c([H])c(F)c([H])c6F)c([H])c5[H])c(C(=O)N([H])[H])c4N([H])[H])C3([H])[H])C([H])(C([H])([H])[H])C([H])([H])[H])c([H])c([H])c2C1([H])[H]

$$$$
75:0:0
     RDKit          3D

 92100  0  0  1  0  0  0  0  0999 V2000
  -28.6450  -19.6700   19.5600 C   0  0  0  0  0  3  0  0  0  0  0  0
  -28.4100  -21.1020   19.4840 C   0  0  0  0  0  3  0  0  0  0  0  0
  -29.5530  -19.3370   20.5350 C   0  0  0  0  0  0  0  0  0  0  0  0
  -29.1420  -21.8150   20.4100 C   0  0  0  0  0  0  0  0  0  0  0  0
  -29.8820  -20.6950   21.0350 N   0  0  0  0  0  0  0  0  0  0  0  0
  -30.6080  -24.0910   20.6430 C   0  0  0  0  0  1  0  0  0  0  0  0
  -29.1780  -23.4760   20.7350 C   0  0  0  0  0  3  0  0  0  0  0  0
  -28.1650  -24.6930   20.0940 C   0  0  0  0  0  2  0  0  0  0  0  0
  -28.2650  -26.2370   20.3740 O   0  0  0  0  0  0  0  0  0  0  0  0
  -24.5850  -31.9150   23.2830 C   0  0  0  0  0  0  0  0  0  0  0  0
  -27.1870  -27.1980   20.2720 C   0  0  0  0  0  0  0  0  0  0  0  0
  -23.3940  -30.5250   21.6250 C   0  0  0  0  0  3  0  0  0  0  0  0
  -24.8540  -28.9480   20.2040 C   0  0  0  0  0  0  0  0  0  0  0  0
  -25.9450  -30.7920   21.4790 C   0  0  0  0  0  2  0  0  0  0  0  0
  -26.0230  -29.3930   20.8370 C   0  0  0  0  0  0  0  0  0  0  0  0
  -27.1830  -28.5320   20.8500 C   0  0  0  0  0  3  0  0  0  0  0  0
  -25.9880  -26.8550   19.6030 C   0  0  0  0  0  3  0  0  0  0  0  0
  -24.8540  -27.6980   19.5660 C   0  0  0  0  0  3  0  0  0  0  0  0
  -23.6300  -29.8480   20.2430 C   0  0  0  0  0  2  0  0  0  0  0  0
  -24.6600  -31.1010   22.1850 N   0  0  0  0  0  0  0  0  0  0  0  0
  -23.4970  -32.1960   23.8080 O   0  0  0  0  0  0  0  0  0  0  0  0
  -22.7050  -29.5210   22.5850 C   0  0  0  0  0  0  0  0  0  0  0  0
  -21.3750  -29.3600   22.4580 N   0  0  0  0  0  0  0  0  0  0  0  0
  -23.3680  -28.8890   23.4080 O   0  0  0  0  0  0  0  0  0  0  0  0
  -20.8900  -29.9280   21.7780 H   0  0  0  0  0  0  0  0  0  0  0  0
  -17.9870  -28.1770   22.9690 C   0  0  0  0  0  0  0  0  0  0  0  0
  -20.5490  -28.4280   23.2310 C   0  0  0  0  0  3  0  0  0  0  0  0
  -20.6400  -26.9990   22.6530 C   0  0  0  0  0  2  0  0  0  0  0  0
  -19.5340  -26.6870   21.6380 C   0  0  0  0  0  2  0  0  0  0  0  0
  -18.1540  -26.8320   22.2840 C   0  0  0  0  0  2  0  0  0  0  0  0
  -19.1100  -28.9330   23.4000 C   0  0  0  0  0  0  0  0  0  0  0  0
  -18.8930  -30.1900   24.0060 C   0  0  0  0  0  3  0  0  0  0  0  0
  -17.5900  -30.6960   24.1720 C   0  0  0  0  0  3  0  0  0  0  0  0
  -16.4840  -29.9420   23.7490 C   0  0  0  0  0  3  0  0  0  0  0  0
  -16.6830  -28.6800   23.1580 C   0  0  0  0  0  3  0  0  0  0  0  0
  -25.8600  -32.5490   23.9200 C   0  0  0  0  0  3  0  0  0  0  0  0
  -25.5630  -33.9590   24.2230 N   0  0  0  0  0  0  0  0  0  0  0  0
  -25.9140  -34.9950   23.4490 C   0  0  0  0  0  0  0  0  0  0  0  0
  -26.5930  -34.8640   22.4260 O   0  0  0  0  0  0  0  0  0  0  0  0
  -24.9700  -34.1330   25.0210 H   0  0  0  0  0  0  0  0  0  0  0  0
  -24.2270  -36.8170   23.0360 C   0  0  0  0  0  1  0  0  0  0  0  0
  -25.4440  -36.3980   23.8780 C   0  0  0  0  0  3  0  0  0  0  0  0
  -27.5760  -37.2630   24.7430 C   0  0  0  0  0  1  0  0  0  0  0  0
  -26.4970  -37.4330   23.7720 N   0  0  0  0  0  0  0  0  0  0  0  0
  -26.1040  -38.3630   23.8950 H   0  0  0  0  0  0  0  0  0  0  0  0
  -26.3390  -31.8000   25.2250 C   0  0  1  0  0  0  0  0  0  0  0  0
  -25.2250  -31.6070   26.2800 C   0  0  0  0  0  1  0  0  0  0  0  0
  -26.9110  -30.4050   24.8800 C   0  0  0  0  0  1  0  0  0  0  0  0
  -27.4820  -32.5940   25.8960 C   0  0  0  0  0  1  0  0  0  0  0  0
  -30.1330  -17.8390   21.0230 C   0  0  0  0  0  2  0  0  0  0  0  0
  -30.5080  -15.1370   20.3830 C   0  0  0  0  0  0  0  0  0  0  0  0
  -30.4230  -12.7860   19.4020 C   0  0  0  0  0  2  0  0  0  0  0  0
  -29.5020  -12.7010   18.1610 C   0  0  0  0  0  2  0  0  0  0  0  0
  -28.0410  -12.4380   18.5840 C   0  0  0  0  0  2  0  0  0  0  0  0
  -27.6020  -13.3540   19.7600 C   0  0  0  0  0  3  0  0  0  0  0  0
  -28.6540  -13.4130   20.8880 C   0  0  0  0  0  2  0  0  0  0  0  0
  -29.9070  -13.8760   20.2770 N   0  0  0  0  0  0  0  0  0  0  0  0
  -31.7210  -15.1740   20.1300 O   0  0  0  0  0  0  0  0  0  0  0  0
  -29.7540  -16.3480   20.5810 N   0  0  0  0  0  0  0  0  0  0  0  0
  -28.7610  -16.1760   20.6240 H   0  0  0  0  0  0  0  0  0  0  0  0
  -25.2220  -13.8910   20.5330 C   0  0  0  0  0  0  0  0  0  0  0  0
  -24.1710  -13.1030   20.9040 C   0  0  0  0  0  0  0  0  0  0  0  0
  -24.6460  -11.7570   20.8470 C   0  0  0  0  0  0  0  0  0  0  0  0
  -26.2710  -13.0280   20.2660 N   0  0  0  0  0  0  0  0  0  0  0  0
  -25.9340  -11.7360   20.5170 N   0  0  0  0  0  0  0  0  0  0  0  0
  -23.9280  -10.4880   21.0310 C   0  0  0  0  0  0  0  0  0  0  0  0
  -24.3580   -9.5250   21.9690 C   0  0  0  0  0  3  0  0  0  0  0  0
  -23.6380   -8.3230   22.1410 C   0  0  0  0  0  3  0  0  0  0  0  0
  -22.4750   -8.0740   21.3730 C   0  0  0  0  0  0  0  0  0  0  0  0
  -22.0640   -9.0270   20.4250 C   0  0  0  0  0  3  0  0  0  0  0  0
  -22.7830  -10.2230   20.2530 C   0  0  0  0  0  3  0  0  0  0  0  0
  -21.7310   -6.9210   21.4530 O   0  0  0  0  0  0  0  0  0  0  0  0
  -21.6490   -6.1950   22.6120 C   0  0  0  0  0  0  0  0  0  0  0  0
  -21.1410   -6.7530   23.8070 C   0  0  0  0  0  3  0  0  0  0  0  0
  -21.0100   -5.9520   24.9570 C   0  0  0  0  0  3  0  0  0  0  0  0
  -21.3740   -4.5910   24.9140 C   0  0  0  0  0  0  0  0  0  0  0  0
  -21.8740   -4.0330   23.7250 C   0  0  0  0  0  3  0  0  0  0  0  0
  -22.0100   -4.8330   22.5780 C   0  0  0  0  0  0  0  0  0  0  0  0
  -22.4710   -4.2870   21.4270 F   0  0  0  0  0  0  0  0  0  0  0  0
  -21.2420   -3.8170   26.0180 F   0  0  0  0  0  0  0  0  0  0  0  0
  -22.7740  -13.5690   21.1930 C   0  0  0  0  0  0  0  0  0  0  0  0
  -22.0580  -12.8530   22.0520 N   0  0  0  0  0  0  0  0  0  0  0  0
  -22.3300  -14.6030   20.6960 O   0  0  0  0  0  0  0  0  0  0  0  0
  -22.4270  -12.0140   22.4750 H   0  0  0  0  0  0  0  0  0  0  0  0
  -21.1190  -13.1470   22.2870 H   0  0  0  0  0  0  0  0  0  0  0  0
  -25.3640  -15.2660   20.3720 N   0  0  0  0  0  0  0  0  0  0  0  0
  -24.5780  -15.8940   20.5000 H   0  0  0  0  0  0  0  0  0  0  0  0
  -26.1830  -15.7330   20.0010 H   0  0  0  0  0  0  0  0  0  0  0  0
  -30.8370  -20.9910   22.1180 C   0  0  0  0  0  2  0  0  0  0  0  0
  -33.0430  -20.7810   23.3090 C   0  0  0  0  0  1  0  0  0  0  0  0
  -32.9850  -20.2830   20.8470 C   0  0  0  0  0  1  0  0  0  0  0  0
  -32.1790  -20.2280   22.1630 C   0  0  0  0  0  3  0  0  0  0  0  0
  1  3  2  0
  2  1  1  0
  2  4  2  0
  3 50  1  0
  3  5  1  0
  4  7  1  0
  4  5  1  0
  5 89  1  0
  7  6  1  0
  8  9  1  0
  8  7  1  0
 10 21  2  0
 11  9  1  0
 11 16  1  0
 12 20  1  0
 12 22  1  0
 13 19  1  0
 13 15  1  0
 14 20  1  0
 15 16  2  0
 15 14  1  0
 17 11  2  0
 18 17  1  0
 18 13  2  0
 19 12  1  0
 20 10  1  0
 22 24  2  0
 23 22  1  0
 25 23  1  0
 26 35  2  0
 26 31  1  0
 27 23  1  0
 27 31  1  0
 28 27  1  0
 29 30  1  0
 29 28  1  0
 30 26  1  0
 31 32  2  0
 32 33  1  0
 34 33  2  0
 35 34  1  0
 36 10  1  0
 36 37  1  0
 36 46  1  0
 37 40  1  0
 38 42  1  0
 38 37  1  0
 39 38  2  0
 42 41  1  0
 44 42  1  0
 44 45  1  0
 44 43  1  0
 46 49  1  1
 46 47  1  0
 48 46  1  0
 51 59  1  0
 52 57  1  0
 53 54  1  0
 53 52  1  0
 55 54  1  0
 55 64  1  0
 55 56  1  0
 57 51  1  0
 57 56  1  0
 58 51  2  0
 59 60  1  0
 59 50  1  0
 61 62  2  0
 62 81  1  0
 63 62  1  0
 63 66  1  0
 64 65  1  0
 64 61  1  0
 65 63  2  0
 66 67  1  0
 67 68  2  0
 69 72  1  0
 69 68  1  0
 70 69  2  0
 71 70  1  0
 71 66  2  0
 72 73  1  0
 73 74  1  0
 74 75  2  0
 76 75  1  0
 76 80  1  0
 77 76  2  0
 78 73  2  0
 78 77  1  0
 79 78  1  0
 81 82  1  0
 82 85  1  0
 82 84  1  0
 83 81  2  0
 86 87  1  0
 86 61  1  0
 88 86  1  0
 89 92  1  0
 91 92  1  0
 92 90  1  0
M  ISO  4   8 101   9 101  51 100  59 100
M  END
>  <TORSDO>  (76) 
F 21

>  <SCORE>  (76) 
-14.378

>  <name>  (76) 
75

>  <ligand_id>  (76) 
75

>  <original_smiles>  (76) 
[H]c1c([H])c([H])c2c(c1[H])C([H])([H])C([H])([H])C([H])([H])C2([H])N([H])C(=O)C1([H])N(C(=O)C([H])(N([H])C(=O)C([H])(N([H])C([H])([H])[H])C([H])([H])[H])C(C([H])([H])[H])(C([H])([H])[H])C([H])([H])[H])C([H])([H])c2c([H])c(OC([H])([H])C([H])(c3c([H])c([H])c(C([H])([H])N([H])C(=O)N4C([H])([H])C([H])([H])C([H])([H])C([H])(n5nc(-c6c([H])c([H])c(Oc7c([H])c([H])c(F)c([H])c7F)c([H])c6[H])c(C(=O)N([H])[H])c5N([H])[H])C4([H])[H])n3C([H])([H])C([H])(C([H])([H])[H])C([H])([H])[H])C([H])([H])[H])c([H])c([H])c2C1([H])[H]

>  <smiles>  (76) 
[H]c1c([H])c([H])c2c(c1[H])C([H])([H])C([H])([H])C([H])([H])C2([H])N([H])C(=O)C1([H])N(C(=O)C([H])(N([H])C(=O)C([H])(N([H])C([H])([H])[H])C([H])([H])[H])C(C([H])([H])[H])(C([H])([H])[H])C([H])([H])[H])C([H])([H])c2c([H])c(OC([H])([H])C([H])(c3c([H])c([H])c(C([H])([H])N([H])C(=O)N4C([H])([H])C([H])([H])C([H])([H])C([H])(n5nc(-c6c([H])c([H])c(Oc7c([H])c([H])c(F)c([H])c7F)c([H])c6[H])c(C(=O)N([H])[H])c5N([H])[H])C4([H])[H])n3C([H])([H])C([H])(C([H])([H])[H])C([H])([H])[H])C([H])([H])[H])c([H])c([H])c2C1([H])[H]

$$$$
76:0:0
     RDKit          3D

 98107  0  0  1  0  0  0  0  0999 V2000
  -28.5030  -22.4470   18.6510 C   0  0  0  0  0  3  0  0  0  0  0  0
  -28.0430  -23.6170   19.2730 C   0  0  0  0  0  3  0  0  0  0  0  0
  -29.7000  -21.8180   19.0760 C   0  0  0  0  0  0  0  0  0  0  0  0
  -30.3240  -22.3850   20.2340 C   0  0  0  0  0  0  0  0  0  0  0  0
  -28.7920  -24.1680   20.3180 C   0  0  0  0  0  0  0  0  0  0  0  0
  -29.8930  -23.5470   20.7890 N   0  0  0  0  0  0  0  0  0  0  0  0
  -30.0880  -21.0390   16.6940 C   0  0  0  0  0  1  0  0  0  0  0  0
  -31.7530  -20.3500   18.3470 C   0  0  0  0  0  1  0  0  0  0  0  0
  -30.2400  -20.6500   18.1880 C   0  0  1  0  0  0  0  0  0  0  0  0
  -29.4410  -19.3360   18.4040 C   0  0  0  0  0  2  0  0  0  0  0  0
  -29.6330  -18.7850   19.7600 N   0  0  0  0  0  4  0  0  0  0  0  0
  -30.5810  -19.0080   20.0160 H   0  0  0  0  0  0  0  0  0  0  0  0
  -29.0130  -19.2680   20.3930 H   0  0  0  0  0  0  0  0  0  0  0  0
  -29.4520  -17.3200   19.8690 C   0  0  0  0  0  2  0  0  0  0  0  0
  -30.1610  -16.7170   21.1060 C   0  0  0  0  0  2  0  0  0  0  0  0
  -30.6390  -14.3340   20.5240 C   0  0  0  0  0  0  0  0  0  0  0  0
  -30.3500  -12.2150   19.3000 C   0  0  0  0  0  2  0  0  0  0  0  0
  -29.4050  -12.4740   18.1090 C   0  0  0  0  0  2  0  0  0  0  0  0
  -27.9290  -12.3420   18.5370 C   0  0  0  0  0  2  0  0  0  0  0  0
  -27.6060  -13.1350   19.8290 C   0  0  0  0  0  3  0  0  0  0  0  0
  -28.6570  -12.8390   20.9230 C   0  0  0  0  0  2  0  0  0  0  0  0
  -29.9870  -13.1540   20.3710 N   0  0  0  0  0  0  0  0  0  0  0  0
  -31.7200  -14.5950   19.9890 O   0  0  0  0  0  0  0  0  0  0  0  0
  -29.9360  -15.2710   21.1760 N   0  0  0  0  0  0  0  0  0  0  0  0
  -29.0750  -14.9590   21.6010 H   0  0  0  0  0  0  0  0  0  0  0  0
  -25.1950  -13.7450   20.5010 C   0  0  0  0  0  0  0  0  0  0  0  0
  -24.1290  -12.9730   20.8770 C   0  0  0  0  0  0  0  0  0  0  0  0
  -24.5930  -11.6240   20.8580 C   0  0  0  0  0  0  0  0  0  0  0  0
  -26.2470  -12.8650   20.2910 N   0  0  0  0  0  0  0  0  0  0  0  0
  -25.8840  -11.5850   20.5570 N   0  0  0  0  0  0  0  0  0  0  0  0
  -23.8680  -10.3630   21.0540 C   0  0  0  0  0  0  0  0  0  0  0  0
  -24.3070   -9.3990   21.9870 C   0  0  0  0  0  3  0  0  0  0  0  0
  -23.5870   -8.2000   22.1720 C   0  0  0  0  0  3  0  0  0  0  0  0
  -22.4130   -7.9560   21.4220 C   0  0  0  0  0  0  0  0  0  0  0  0
  -21.9930   -8.9070   20.4750 C   0  0  0  0  0  3  0  0  0  0  0  0
  -22.7130  -10.0990   20.2900 C   0  0  0  0  0  3  0  0  0  0  0  0
  -21.6630   -6.8090   21.5140 O   0  0  0  0  0  0  0  0  0  0  0  0
  -21.6300   -6.0610   22.6640 C   0  0  0  0  0  0  0  0  0  0  0  0
  -21.2220   -6.6100   23.8990 C   0  0  0  0  0  3  0  0  0  0  0  0
  -21.1400   -5.7880   25.0420 C   0  0  0  0  0  3  0  0  0  0  0  0
  -21.4520   -4.4180   24.9500 C   0  0  0  0  0  0  0  0  0  0  0  0
  -21.8510   -3.8690   23.7180 C   0  0  0  0  0  3  0  0  0  0  0  0
  -21.9380   -4.6880   22.5790 C   0  0  0  0  0  0  0  0  0  0  0  0
  -22.3030   -4.1490   21.3910 F   0  0  0  0  0  0  0  0  0  0  0  0
  -21.3650   -3.6250   26.0430 F   0  0  0  0  0  0  0  0  0  0  0  0
  -22.7300  -13.4480   21.1430 C   0  0  0  0  0  0  0  0  0  0  0  0
  -22.0020  -12.7570   22.0140 N   0  0  0  0  0  0  0  0  0  0  0  0
  -22.2900  -14.4680   20.6130 O   0  0  0  0  0  0  0  0  0  0  0  0
  -22.3680  -11.9290   22.4610 H   0  0  0  0  0  0  0  0  0  0  0  0
  -21.0640  -13.0590   22.2300 H   0  0  0  0  0  0  0  0  0  0  0  0
  -25.3580  -15.1130   20.3040 N   0  0  0  0  0  0  0  0  0  0  0  0
  -24.5800  -15.7580   20.3810 H   0  0  0  0  0  0  0  0  0  0  0  0
  -26.1870  -15.5340   19.9070 H   0  0  0  0  0  0  0  0  0  0  0  0
  -31.4060  -20.5210   21.7880 C   0  0  0  0  0  2  0  0  0  0  0  0
  -31.4720  -21.8220   22.5260 C   0  0  0  0  0  2  0  0  0  0  0  0
  -31.4950  -21.8230   21.0030 C   0  0  0  0  0  3  0  0  0  0  0  0
  -28.3520  -25.4560   21.0200 C   0  0  0  0  0  2  0  0  0  0  0  0
  -28.3970  -26.6280   20.1920 O   0  0  0  0  0  0  0  0  0  0  0  0
  -24.5570  -31.8320   23.2150 C   0  0  0  0  0  0  0  0  0  0  0  0
  -27.2380  -27.3720   20.1950 C   0  0  0  0  0  0  0  0  0  0  0  0
  -23.3730  -30.4270   21.5580 C   0  0  0  0  0  3  0  0  0  0  0  0
  -24.8460  -28.8770   20.1660 C   0  0  0  0  0  0  0  0  0  0  0  0
  -25.9030  -30.7760   21.4030 C   0  0  0  0  0  2  0  0  0  0  0  0
  -25.9970  -29.4010   20.7740 C   0  0  0  0  0  0  0  0  0  0  0  0
  -27.1970  -28.6550   20.7860 C   0  0  0  0  0  3  0  0  0  0  0  0
  -26.0770  -26.8630   19.5780 C   0  0  0  0  0  3  0  0  0  0  0  0
  -24.8820  -27.6070   19.5660 C   0  0  0  0  0  3  0  0  0  0  0  0
  -23.6030  -29.7400   20.1870 C   0  0  0  0  0  2  0  0  0  0  0  0
  -24.6280  -31.0260   22.1180 N   0  0  0  0  0  0  0  0  0  0  0  0
  -23.4680  -32.1110   23.7340 O   0  0  0  0  0  0  0  0  0  0  0  0
  -22.7030  -29.4130   22.5120 C   0  0  0  0  0  0  0  0  0  0  0  0
  -21.3780  -29.2440   22.3700 N   0  0  0  0  0  0  0  0  0  0  0  0
  -23.3720  -28.7810   23.3340 O   0  0  0  0  0  0  0  0  0  0  0  0
  -20.9030  -29.8030   21.6750 H   0  0  0  0  0  0  0  0  0  0  0  0
  -17.9840  -28.0950   22.8390 C   0  0  0  0  0  0  0  0  0  0  0  0
  -20.5430  -28.3160   23.1310 C   0  0  0  0  0  3  0  0  0  0  0  0
  -20.6310  -26.8860   22.5510 C   0  0  0  0  0  2  0  0  0  0  0  0
  -19.5330  -26.5820   21.5270 C   0  0  0  0  0  2  0  0  0  0  0  0
  -18.1470  -26.7460   22.1590 C   0  0  0  0  0  2  0  0  0  0  0  0
  -19.1100  -28.8390   23.2790 C   0  0  0  0  0  0  0  0  0  0  0  0
  -18.9050  -30.1050   23.8720 C   0  0  0  0  0  3  0  0  0  0  0  0
  -17.6070  -30.6250   24.0280 C   0  0  0  0  0  3  0  0  0  0  0  0
  -16.4950  -29.8780   23.6020 C   0  0  0  0  0  3  0  0  0  0  0  0
  -16.6840  -28.6130   23.0140 C   0  0  0  0  0  3  0  0  0  0  0  0
  -25.8360  -32.4600   23.8530 C   0  0  0  0  0  3  0  0  0  0  0  0
  -25.5220  -33.8560   24.1880 N   0  0  0  0  0  0  0  0  0  0  0  0
  -25.8540  -34.9120   23.4320 C   0  0  0  0  0  0  0  0  0  0  0  0
  -26.5270  -34.8130   22.4030 O   0  0  0  0  0  0  0  0  0  0  0  0
  -24.9270  -34.0070   24.9890 H   0  0  0  0  0  0  0  0  0  0  0  0
  -24.1160  -36.6940   23.0770 C   0  0  0  0  0  1  0  0  0  0  0  0
  -25.3570  -36.2970   23.8900 C   0  0  0  0  0  3  0  0  0  0  0  0
  -27.4870  -37.1890   24.7240 C   0  0  0  0  0  1  0  0  0  0  0  0
  -26.3850  -37.3550   23.7790 N   0  0  0  0  0  0  0  0  0  0  0  0
  -25.9740  -38.2720   23.9300 H   0  0  0  0  0  0  0  0  0  0  0  0
  -26.3410  -31.6800   25.1290 C   0  0  1  0  0  0  0  0  0  0  0  0
  -25.2380  -31.4330   26.1840 C   0  0  0  0  0  1  0  0  0  0  0  0
  -26.9310  -30.3080   24.7300 C   0  0  0  0  0  1  0  0  0  0  0  0
  -27.4850  -32.4710   25.8070 C   0  0  0  0  0  1  0  0  0  0  0  0
  1  3  2  0
  1  2  1  0
  2  5  2  0
  3  4  1  0
  4  6  2  0
  4 56  1  0
  5  6  1  0
  5 57  1  0
  9  7  1  6
  9  8  1  0
  9 10  1  0
  9  3  1  0
 10 11  1  0
 11 14  1  0
 11 12  1  0
 11 13  1  0
 14 15  1  0
 15 24  1  0
 16 24  1  0
 17 22  1  0
 18 19  1  0
 18 17  1  0
 20 19  1  0
 20 29  1  0
 20 21  1  0
 22 16  1  0
 22 21  1  0
 23 16  2  0
 24 25  1  0
 26 27  2  0
 27 46  1  0
 28 27  1  0
 28 31  1  0
 29 26  1  0
 29 30  1  0
 30 28  2  0
 31 32  1  0
 32 33  2  0
 34 37  1  0
 34 33  1  0
 35 34  2  0
 36 35  1  0
 36 31  2  0
 37 38  1  0
 38 39  1  0
 39 40  2  0
 41 40  1  0
 41 45  1  0
 42 41  2  0
 43 38  2  0
 43 42  1  0
 44 43  1  0
 46 47  1  0
 47 50  1  0
 47 49  1  0
 48 46  2  0
 51 52  1  0
 51 26  1  0
 53 51  1  0
 54 55  1  0
 56 54  1  0
 56 55  1  0
 58 60  1  0
 58 57  1  0
 59 70  2  0
 60 65  1  0
 61 69  1  0
 61 71  1  0
 62 68  1  0
 62 64  1  0
 63 69  1  0
 64 65  2  0
 64 63  1  0
 66 60  2  0
 67 66  1  0
 67 62  2  0
 68 61  1  0
 69 59  1  0
 71 73  2  0
 72 71  1  0
 74 72  1  0
 75 84  2  0
 75 80  1  0
 76 72  1  0
 76 80  1  0
 77 76  1  0
 78 79  1  0
 78 77  1  0
 79 75  1  0
 80 81  2  0
 81 82  1  0
 83 82  2  0
 84 83  1  0
 85 59  1  0
 85 86  1  0
 85 95  1  0
 86 89  1  0
 87 91  1  0
 87 86  1  0
 88 87  2  0
 91 90  1  0
 93 91  1  0
 93 94  1  0
 93 92  1  0
 95 98  1  1
 95 96  1  0
 97 95  1  0
M  ISO  4  16 100  24 100  57 101  58 101
M  END
>  <TORSDO>  (77) 
F 23

>  <SCORE>  (77) 
-12.990

>  <name>  (77) 
76

>  <ligand_id>  (77) 
76

>  <original_smiles>  (77) 
[H]c1c(C([H])([H])Oc2c([H])c([H])c3c(c2[H])C([H])([H])N(C(=O)C([H])(N([H])C(=O)C([H])(N([H])C([H])([H])[H])C([H])([H])[H])C(C([H])([H])[H])(C([H])([H])[H])C([H])([H])[H])C([H])(C(=O)N([H])C2([H])c4c([H])c([H])c([H])c([H])c4C([H])([H])C([H])([H])C2([H])[H])C3([H])[H])nc(C2([H])C([H])([H])C2([H])[H])c(C(C([H])([H])[H])(C([H])([H])[H])C([H])([H])[N+]([H])([H])C([H])([H])C([H])([H])N([H])C(=O)N2C([H])([H])C([H])([H])C([H])([H])C([H])(n3nc(-c4c([H])c([H])c(Oc5c([H])c([H])c(F)c([H])c5F)c([H])c4[H])c(C(=O)N([H])[H])c3N([H])[H])C2([H])[H])c1[H]

>  <smiles>  (77) 
[H]c1c(C([H])([H])Oc2c([H])c([H])c3c(c2[H])C([H])([H])N(C(=O)C([H])(N([H])C(=O)C([H])(N([H])C([H])([H])[H])C([H])([H])[H])C(C([H])([H])[H])(C([H])([H])[H])C([H])([H])[H])C([H])(C(=O)N([H])C2([H])c4c([H])c([H])c([H])c([H])c4C([H])([H])C([H])([H])C2([H])[H])C3([H])[H])nc(C2([H])C([H])([H])C2([H])[H])c(C(C([H])([H])[H])(C([H])([H])[H])C([H])([H])[N+]([H])([H])C([H])([H])C([H])([H])N([H])C(=O)N2C([H])([H])C([H])([H])C([H])([H])C([H])(n3nc(-c4c([H])c([H])c(Oc5c([H])c([H])c(F)c([H])c5F)c([H])c4[H])c(C(=O)N([H])[H])c3N([H])[H])C2([H])[H])c1[H]

$$$$
77:0:0
     RDKit          3D

100109  0  0  1  0  0  0  0  0999 V2000
  -31.1230  -20.8620   19.5560 C   0  0  0  0  0  3  0  0  0  0  0  0
  -31.2940  -18.6550   19.7410 C   0  0  0  0  0  3  0  0  0  0  0  0
  -32.0180  -19.7610   19.4390 C   0  0  0  0  0  0  0  0  0  0  0  0
  -29.9050  -20.4830   20.0730 C   0  0  0  0  0  0  0  0  0  0  0  0
  -30.0310  -18.9760   20.1830 N   0  0  0  0  0  0  0  0  0  0  0  0
  -28.8310  -21.6810   20.4600 C   0  0  0  0  0  2  0  0  0  0  0  0
  -28.8120  -23.2570   19.7850 C   0  0  0  0  0  3  0  0  0  0  0  0
  -28.5990  -22.0310   17.4420 C   0  0  0  0  0  1  0  0  0  0  0  0
  -28.1280  -23.1390   18.3970 C   0  0  0  0  0  2  0  0  0  0  0  0
  -28.0880  -24.6440   20.4840 C   0  0  0  0  0  2  0  0  0  0  0  0
  -28.2870  -26.1830   20.1970 O   0  0  0  0  0  0  0  0  0  0  0  0
  -24.6210  -31.9040   23.2430 C   0  0  0  0  0  0  0  0  0  0  0  0
  -27.2140  -27.1580   20.2210 C   0  0  0  0  0  0  0  0  0  0  0  0
  -23.4240  -30.4940   21.6120 C   0  0  0  0  0  3  0  0  0  0  0  0
  -24.8750  -28.9080   20.2040 C   0  0  0  0  0  0  0  0  0  0  0  0
  -25.9770  -30.7640   21.4390 C   0  0  0  0  0  2  0  0  0  0  0  0
  -26.0570  -29.3610   20.8030 C   0  0  0  0  0  0  0  0  0  0  0  0
  -27.2300  -28.5030   20.7850 C   0  0  0  0  0  3  0  0  0  0  0  0
  -25.9910  -26.8070   19.6070 C   0  0  0  0  0  3  0  0  0  0  0  0
  -24.8510  -27.6420   19.5930 C   0  0  0  0  0  3  0  0  0  0  0  0
  -23.6480  -29.8100   20.2360 C   0  0  0  0  0  2  0  0  0  0  0  0
  -24.6940  -31.0790   22.1500 N   0  0  0  0  0  0  0  0  0  0  0  0
  -23.5330  -32.1800   23.7750 O   0  0  0  0  0  0  0  0  0  0  0  0
  -22.7480  -29.4890   22.5790 C   0  0  0  0  0  0  0  0  0  0  0  0
  -21.4220  -29.3060   22.4520 N   0  0  0  0  0  0  0  0  0  0  0  0
  -23.4230  -28.8780   23.4100 O   0  0  0  0  0  0  0  0  0  0  0  0
  -20.9300  -29.8620   21.7690 H   0  0  0  0  0  0  0  0  0  0  0  0
  -18.0470  -28.0800   22.9360 C   0  0  0  0  0  0  0  0  0  0  0  0
  -20.6000  -28.3680   23.2240 C   0  0  0  0  0  3  0  0  0  0  0  0
  -20.7210  -26.9310   22.6650 C   0  0  0  0  0  2  0  0  0  0  0  0
  -19.6310  -26.5870   21.6430 C   0  0  0  0  0  2  0  0  0  0  0  0
  -18.2420  -26.7260   22.2720 C   0  0  0  0  0  2  0  0  0  0  0  0
  -19.1530  -28.8580   23.3650 C   0  0  0  0  0  0  0  0  0  0  0  0
  -18.9110  -30.1270   23.9370 C   0  0  0  0  0  3  0  0  0  0  0  0
  -17.5990  -30.6120   24.0900 C   0  0  0  0  0  3  0  0  0  0  0  0
  -16.5080  -29.8280   23.6790 C   0  0  0  0  0  3  0  0  0  0  0  0
  -16.7330  -28.5650   23.1040 C   0  0  0  0  0  3  0  0  0  0  0  0
  -25.8930  -32.5510   23.8650 C   0  0  0  0  0  3  0  0  0  0  0  0
  -26.4020  -31.7990   25.1570 C   0  0  1  0  0  0  0  0  0  0  0  0
  -25.3050  -31.5830   26.2260 C   0  0  0  0  0  1  0  0  0  0  0  0
  -26.9850  -30.4160   24.7920 C   0  0  0  0  0  1  0  0  0  0  0  0
  -27.5500  -32.6000   25.8180 C   0  0  0  0  0  1  0  0  0  0  0  0
  -25.5840  -33.9520   24.1870 N   0  0  0  0  0  0  0  0  0  0  0  0
  -25.9050  -35.0050   23.4230 C   0  0  0  0  0  0  0  0  0  0  0  0
  -26.5770  -34.9010   22.3910 O   0  0  0  0  0  0  0  0  0  0  0  0
  -25.0190  -34.1070   25.0090 H   0  0  0  0  0  0  0  0  0  0  0  0
  -24.1770  -36.7970   23.0600 C   0  0  0  0  0  1  0  0  0  0  0  0
  -25.4160  -36.3950   23.8770 C   0  0  0  0  0  3  0  0  0  0  0  0
  -27.5480  -37.2860   24.7120 C   0  0  0  0  0  1  0  0  0  0  0  0
  -26.4470  -37.4520   23.7650 N   0  0  0  0  0  0  0  0  0  0  0  0
  -26.0400  -38.3710   23.9160 H   0  0  0  0  0  0  0  0  0  0  0  0
  -29.2180  -17.7420   20.6790 C   0  0  0  0  0  2  0  0  0  0  0  0
  -30.4560  -15.0770   20.3850 C   0  0  0  0  0  0  0  0  0  0  0  0
  -30.4390  -12.7380   19.3840 C   0  0  0  0  0  2  0  0  0  0  0  0
  -29.5100  -12.6820   18.1490 C   0  0  0  0  0  2  0  0  0  0  0  0
  -28.0360  -12.4600   18.5560 C   0  0  0  0  0  2  0  0  0  0  0  0
  -27.6170  -13.3450   19.7620 C   0  0  0  0  0  3  0  0  0  0  0  0
  -28.6590  -13.3310   20.8950 C   0  0  0  0  0  2  0  0  0  0  0  0
  -29.9240  -13.7900   20.3020 N   0  0  0  0  0  0  0  0  0  0  0  0
  -31.6650  -15.1950   20.1560 O   0  0  0  0  0  0  0  0  0  0  0  0
  -29.5350  -16.1670   20.5230 N   0  0  0  0  0  0  0  0  0  0  0  0
  -28.6420  -15.7110   20.5960 H   0  0  0  0  0  0  0  0  0  0  0  0
  -25.2300  -13.9240   20.4850 C   0  0  0  0  0  0  0  0  0  0  0  0
  -24.1630  -13.1510   20.8480 C   0  0  0  0  0  0  0  0  0  0  0  0
  -24.6280  -11.8000   20.8250 C   0  0  0  0  0  0  0  0  0  0  0  0
  -26.2780  -13.0420   20.2450 N   0  0  0  0  0  0  0  0  0  0  0  0
  -25.9220  -11.7620   20.5200 N   0  0  0  0  0  0  0  0  0  0  0  0
  -23.9040  -10.5380   21.0170 C   0  0  0  0  0  0  0  0  0  0  0  0
  -24.3240   -9.5790   21.9660 C   0  0  0  0  0  3  0  0  0  0  0  0
  -23.5990   -8.3800   22.1410 C   0  0  0  0  0  3  0  0  0  0  0  0
  -22.4380   -8.1320   21.3690 C   0  0  0  0  0  0  0  0  0  0  0  0
  -22.0360   -9.0830   20.4140 C   0  0  0  0  0  3  0  0  0  0  0  0
  -22.7610  -10.2730   20.2360 C   0  0  0  0  0  3  0  0  0  0  0  0
  -21.6820   -6.9870   21.4550 O   0  0  0  0  0  0  0  0  0  0  0  0
  -21.6160   -6.2560   22.6140 C   0  0  0  0  0  0  0  0  0  0  0  0
  -21.1620   -6.8200   23.8260 C   0  0  0  0  0  3  0  0  0  0  0  0
  -21.0420   -6.0110   24.9760 C   0  0  0  0  0  3  0  0  0  0  0  0
  -21.3650   -4.6430   24.9120 C   0  0  0  0  0  0  0  0  0  0  0  0
  -21.8110   -4.0810   23.7020 C   0  0  0  0  0  3  0  0  0  0  0  0
  -21.9360   -4.8840   22.5570 C   0  0  0  0  0  0  0  0  0  0  0  0
  -22.3450   -4.3320   21.3880 F   0  0  0  0  0  0  0  0  0  0  0  0
  -21.2450   -3.8640   26.0140 F   0  0  0  0  0  0  0  0  0  0  0  0
  -22.7610  -13.6310   21.0950 C   0  0  0  0  0  0  0  0  0  0  0  0
  -22.0150  -12.9420   21.9510 N   0  0  0  0  0  0  0  0  0  0  0  0
  -22.3320  -14.6560   20.5650 O   0  0  0  0  0  0  0  0  0  0  0  0
  -22.3690  -12.1160   22.4140 H   0  0  0  0  0  0  0  0  0  0  0  0
  -21.0750  -13.2490   22.1480 H   0  0  0  0  0  0  0  0  0  0  0  0
  -25.3850  -15.2920   20.3040 N   0  0  0  0  0  0  0  0  0  0  0  0
  -24.5960  -15.9220   20.4060 H   0  0  0  0  0  0  0  0  0  0  0  0
  -26.1880  -15.7410   19.8890 H   0  0  0  0  0  0  0  0  0  0  0  0
  -33.5040  -19.7490   19.1260 C   0  0  0  0  0  3  0  0  0  0  0  0
  -35.9320  -19.6030   21.7300 C   0  0  0  0  0  2  0  0  0  0  0  0
  -34.6420  -20.3850   21.4710 C   0  0  0  0  0  2  0  0  0  0  0  0
  -35.7740  -18.9890   20.3360 C   0  0  0  0  0  2  0  0  0  0  0  0
  -34.2770  -19.3360   20.4000 C   0  0  0  0  0  3  0  0  0  0  0  0
  -33.8370  -18.8160   17.9310 C   0  0  0  0  0  2  0  0  0  0  0  0
  -33.7500  -20.5250   16.1190 C   0  0  0  0  0  1  0  0  0  0  0  0
  -33.2390  -19.2440   16.6460 N   0  0  0  0  0  4  0  0  0  0  0  0
  -33.4550  -18.5300   15.9690 H   0  0  0  0  0  0  0  0  0  0  0  0
  -32.2360  -19.2750   16.7300 H   0  0  0  0  0  0  0  0  0  0  0  0
  1  4  2  0
  2  5  1  0
  3  1  1  0
  3  2  2  0
  4  5  1  0
  4  6  1  0
  5 52  1  0
  7  9  1  0
  7  6  1  0
  7 10  1  0
  8  9  1  0
 11 13  1  0
 11 10  1  0
 12 23  2  0
 13 18  1  0
 14 22  1  0
 14 24  1  0
 15 21  1  0
 15 17  1  0
 16 22  1  0
 17 16  1  0
 18 17  2  0
 19 13  2  0
 20 19  1  0
 20 15  2  0
 21 14  1  0
 22 12  1  0
 24 26  2  0
 25 24  1  0
 27 25  1  0
 28 37  2  0
 28 33  1  0
 29 25  1  0
 29 33  1  0
 30 29  1  0
 31 32  1  0
 31 30  1  0
 32 28  1  0
 33 34  2  0
 34 35  1  0
 36 35  2  0
 37 36  1  0
 38 12  1  0
 38 43  1  0
 38 39  1  0
 39 42  1  1
 39 40  1  0
 41 39  1  0
 43 46  1  0
 44 48  1  0
 44 43  1  0
 45 44  2  0
 48 47  1  0
 50 48  1  0
 50 51  1  0
 50 49  1  0
 53 61  1  0
 54 59  1  0
 55 56  1  0
 55 54  1  0
 57 56  1  0
 57 66  1  0
 57 58  1  0
 59 53  1  0
 59 58  1  0
 60 53  2  0
 61 62  1  0
 61 52  1  0
 63 64  2  0
 64 83  1  0
 65 64  1  0
 65 68  1  0
 66 63  1  0
 66 67  1  0
 67 65  2  0
 68 69  1  0
 69 70  2  0
 71 74  1  0
 71 70  1  0
 72 71  2  0
 73 72  1  0
 73 68  2  0
 74 75  1  0
 75 76  1  0
 76 77  2  0
 78 77  1  0
 78 82  1  0
 79 78  2  0
 80 75  2  0
 80 79  1  0
 81 80  1  0
 83 84  1  0
 84 87  1  0
 84 86  1  0
 85 83  2  0
 88 89  1  0
 88 63  1  0
 90 88  1  0
 91 96  1  0
 91  3  1  0
 91 95  1  0
 93 92  1  0
 94 95  1  0
 94 92  1  0
 95 93  1  0
 97 98  1  0
 98100  1  0
 98 96  1  0
 99 98  1  0
M  ISO  4  10 101  11 101  53 100  61 100
M  END
>  <TORSDO>  (78) 
F 25

>  <SCORE>  (78) 
-13.652

>  <name>  (78) 
77

>  <ligand_id>  (78) 
77

>  <original_smiles>  (78) 
[H]c1c([H])c([H])c2c(c1[H])C([H])([H])C([H])([H])C([H])([H])C2([H])N([H])C(=O)C1([H])N(C(=O)C([H])(N([H])C(=O)C([H])(N([H])C([H])([H])[H])C([H])([H])[H])C(C([H])([H])[H])(C([H])([H])[H])C([H])([H])[H])C([H])([H])c2c([H])c(OC([H])([H])C([H])(C([H])([H])c3c([H])c(C([H])(C4([H])C([H])([H])C([H])([H])C4([H])[H])C([H])([H])[N+]([H])([H])C([H])([H])[H])c([H])n3C([H])([H])N([H])C(=O)N3C([H])([H])C([H])([H])C([H])([H])C([H])(n4nc(-c5c([H])c([H])c(Oc6c([H])c([H])c(F)c([H])c6F)c([H])c5[H])c(C(=O)N([H])[H])c4N([H])[H])C3([H])[H])C([H])([H])C([H])([H])[H])c([H])c([H])c2C1([H])[H]

>  <smiles>  (78) 
[H]c1c([H])c([H])c2c(c1[H])C([H])([H])C([H])([H])C([H])([H])C2([H])N([H])C(=O)C1([H])N(C(=O)C([H])(N([H])C(=O)C([H])(N([H])C([H])([H])[H])C([H])([H])[H])C(C([H])([H])[H])(C([H])([H])[H])C([H])([H])[H])C([H])([H])c2c([H])c(OC([H])([H])C([H])(C([H])([H])c3c([H])c(C([H])(C4([H])C([H])([H])C([H])([H])C4([H])[H])C([H])([H])[N+]([H])([H])C([H])([H])[H])c([H])n3C([H])([H])N([H])C(=O)N3C([H])([H])C([H])([H])C([H])([H])C([H])(n4nc(-c5c([H])c([H])c(Oc6c([H])c([H])c(F)c([H])c6F)c([H])c5[H])c(C(=O)N([H])[H])c4N([H])[H])C3([H])[H])C([H])([H])C([H])([H])[H])c([H])c([H])c2C1([H])[H]

$$$$
78:0:0
     RDKit          3D

 90 97  0  0  1  0  0  0  0  0999 V2000
  -29.5220  -21.0790   20.3120 N   0  0  1  0  0  4  0  0  0  0  0  0
  -29.9540  -21.0580   19.4000 H   0  0  0  0  0  0  0  0  0  0  0  0
  -30.1900  -21.5800   22.7130 C   0  0  0  0  0  1  0  0  0  0  0  0
  -31.8260  -22.0110   20.7740 C   0  0  0  0  0  1  0  0  0  0  0  0
  -30.6440  -21.1740   21.2950 C   0  0  0  0  0  3  0  0  0  0  0  0
  -28.8300  -19.7140   20.4340 C   0  0  0  0  0  2  0  0  0  0  0  0
  -29.5520  -18.3640   19.9160 C   0  0  0  0  0  2  0  0  0  0  0  0
  -30.1110  -17.2500   20.9250 C   0  0  0  0  0  2  0  0  0  0  0  0
  -30.5740  -14.6950   20.4210 C   0  0  0  0  0  0  0  0  0  0  0  0
  -30.3700  -12.4440   19.3710 C   0  0  0  0  0  2  0  0  0  0  0  0
  -29.4320  -12.5420   18.1470 C   0  0  0  0  0  2  0  0  0  0  0  0
  -27.9570  -12.3850   18.5690 C   0  0  0  0  0  2  0  0  0  0  0  0
  -27.5900  -13.2670   19.7940 C   0  0  0  0  0  3  0  0  0  0  0  0
  -28.6410  -13.1370   20.9180 C   0  0  0  0  0  2  0  0  0  0  0  0
  -29.9470  -13.4780   20.3360 N   0  0  0  0  0  0  0  0  0  0  0  0
  -31.7590  -14.8260   20.0990 O   0  0  0  0  0  0  0  0  0  0  0  0
  -29.7800  -15.7860   20.6910 N   0  0  0  0  0  0  0  0  0  0  0  0
  -28.8190  -15.5420   20.8780 H   0  0  0  0  0  0  0  0  0  0  0  0
  -25.1970  -13.8830   20.4910 C   0  0  0  0  0  0  0  0  0  0  0  0
  -24.1220  -13.1190   20.8590 C   0  0  0  0  0  0  0  0  0  0  0  0
  -24.5770  -11.7650   20.8430 C   0  0  0  0  0  0  0  0  0  0  0  0
  -26.2370  -12.9940   20.2710 N   0  0  0  0  0  0  0  0  0  0  0  0
  -25.8700  -11.7150   20.5460 N   0  0  0  0  0  0  0  0  0  0  0  0
  -23.8410  -10.5090   21.0380 C   0  0  0  0  0  0  0  0  0  0  0  0
  -24.2740   -9.5380   21.9670 C   0  0  0  0  0  3  0  0  0  0  0  0
  -23.5400   -8.3450   22.1500 C   0  0  0  0  0  3  0  0  0  0  0  0
  -22.3610   -8.1160   21.4020 C   0  0  0  0  0  0  0  0  0  0  0  0
  -21.9470   -9.0770   20.4620 C   0  0  0  0  0  3  0  0  0  0  0  0
  -22.6810  -10.2600   20.2780 C   0  0  0  0  0  3  0  0  0  0  0  0
  -21.5990   -6.9770   21.4950 O   0  0  0  0  0  0  0  0  0  0  0  0
  -21.5670   -6.2230   22.6410 C   0  0  0  0  0  0  0  0  0  0  0  0
  -21.1850   -6.7720   23.8840 C   0  0  0  0  0  3  0  0  0  0  0  0
  -21.0990   -5.9460   25.0220 C   0  0  0  0  0  3  0  0  0  0  0  0
  -21.3850   -4.5710   24.9190 C   0  0  0  0  0  0  0  0  0  0  0  0
  -21.7600   -4.0210   23.6800 C   0  0  0  0  0  3  0  0  0  0  0  0
  -21.8480   -4.8450   22.5450 C   0  0  0  0  0  0  0  0  0  0  0  0
  -22.1890   -4.3060   21.3490 F   0  0  0  0  0  0  0  0  0  0  0  0
  -21.2960   -3.7770   26.0110 F   0  0  0  0  0  0  0  0  0  0  0  0
  -22.7260  -13.6070   21.1140 C   0  0  0  0  0  0  0  0  0  0  0  0
  -21.9880  -12.9220   21.9800 N   0  0  0  0  0  0  0  0  0  0  0  0
  -22.2970  -14.6300   20.5810 O   0  0  0  0  0  0  0  0  0  0  0  0
  -22.3480  -12.0930   22.4300 H   0  0  0  0  0  0  0  0  0  0  0  0
  -21.0490  -13.2260   22.1960 H   0  0  0  0  0  0  0  0  0  0  0  0
  -25.3740  -15.2500   20.2990 N   0  0  0  0  0  0  0  0  0  0  0  0
  -24.6110  -15.9130   20.3950 H   0  0  0  0  0  0  0  0  0  0  0  0
  -26.2180  -15.6710   19.9330 H   0  0  0  0  0  0  0  0  0  0  0  0
  -28.5610  -22.2880   20.2630 C   0  0  0  0  0  2  0  0  0  0  0  0
  -29.0930  -23.8150   20.2120 C   0  0  0  0  0  3  0  0  0  0  0  0
  -28.0000  -24.9620   19.9870 C   0  0  0  0  0  3  0  0  0  0  0  0
  -28.2780  -26.4200   20.1690 O   0  0  0  0  0  0  0  0  0  0  0  0
  -24.6080  -31.8810   23.2280 C   0  0  0  0  0  0  0  0  0  0  0  0
  -27.1750  -27.3010   20.1340 C   0  0  0  0  0  0  0  0  0  0  0  0
  -23.3870  -30.4890   21.5990 C   0  0  0  0  0  3  0  0  0  0  0  0
  -24.8200  -28.9420   20.1580 C   0  0  0  0  0  0  0  0  0  0  0  0
  -25.9300  -30.7940   21.3980 C   0  0  0  0  0  2  0  0  0  0  0  0
  -26.0000  -29.4160   20.7450 C   0  0  0  0  0  0  0  0  0  0  0  0
  -27.1810  -28.6080   20.7240 C   0  0  0  0  0  3  0  0  0  0  0  0
  -25.9660  -26.8930   19.5220 C   0  0  0  0  0  3  0  0  0  0  0  0
  -24.8090  -27.6870   19.5360 C   0  0  0  0  0  3  0  0  0  0  0  0
  -23.5880  -29.8190   20.2160 C   0  0  0  0  0  2  0  0  0  0  0  0
  -24.6620  -31.0710   22.1310 N   0  0  0  0  0  0  0  0  0  0  0  0
  -23.5280  -32.1630   23.7710 O   0  0  0  0  0  0  0  0  0  0  0  0
  -22.7300  -29.4710   22.5620 C   0  0  0  0  0  0  0  0  0  0  0  0
  -21.4030  -29.2950   22.4430 N   0  0  0  0  0  0  0  0  0  0  0  0
  -23.4130  -28.8440   23.3760 O   0  0  0  0  0  0  0  0  0  0  0  0
  -20.9110  -29.8570   21.7630 H   0  0  0  0  0  0  0  0  0  0  0  0
  -18.0270  -28.0950   22.9580 C   0  0  0  0  0  0  0  0  0  0  0  0
  -20.5860  -28.3600   23.2210 C   0  0  0  0  0  3  0  0  0  0  0  0
  -20.6860  -26.9250   22.6540 C   0  0  0  0  0  2  0  0  0  0  0  0
  -19.5820  -26.5960   21.6440 C   0  0  0  0  0  2  0  0  0  0  0  0
  -18.2020  -26.7430   22.2900 C   0  0  0  0  0  2  0  0  0  0  0  0
  -19.1460  -28.8620   23.3800 C   0  0  0  0  0  0  0  0  0  0  0  0
  -18.9270  -30.1280   23.9670 C   0  0  0  0  0  3  0  0  0  0  0  0
  -17.6220  -30.6270   24.1320 C   0  0  0  0  0  3  0  0  0  0  0  0
  -16.5180  -29.8590   23.7260 C   0  0  0  0  0  3  0  0  0  0  0  0
  -16.7210  -28.5950   23.1430 C   0  0  0  0  0  3  0  0  0  0  0  0
  -25.8960  -32.5110   23.8420 C   0  0  0  0  0  3  0  0  0  0  0  0
  -25.5860  -33.9070   24.1810 N   0  0  0  0  0  0  0  0  0  0  0  0
  -25.9050  -34.9650   23.4240 C   0  0  0  0  0  0  0  0  0  0  0  0
  -26.5610  -34.8680   22.3820 O   0  0  0  0  0  0  0  0  0  0  0  0
  -25.0020  -34.0580   24.9900 H   0  0  0  0  0  0  0  0  0  0  0  0
  -24.1640  -36.7540   23.1130 C   0  0  0  0  0  1  0  0  0  0  0  0
  -25.4230  -36.3500   23.8980 C   0  0  0  0  0  3  0  0  0  0  0  0
  -27.5730  -37.2350   24.6860 C   0  0  0  0  0  1  0  0  0  0  0  0
  -26.4490  -37.4070   23.7690 N   0  0  0  0  0  0  0  0  0  0  0  0
  -26.0440  -38.3240   23.9340 H   0  0  0  0  0  0  0  0  0  0  0  0
  -26.4230  -31.7360   25.1120 C   0  0  1  0  0  0  0  0  0  0  0  0
  -25.3390  -31.4990   26.1900 C   0  0  0  0  0  1  0  0  0  0  0  0
  -27.0010  -30.3590   24.7120 C   0  0  0  0  0  1  0  0  0  0  0  0
  -27.5820  -32.5280   25.7630 C   0  0  0  0  0  1  0  0  0  0  0  0
  1  6  1  0
  1  5  1  0
  1  2  1  6
  4  5  1  0
  5  3  1  0
  7  6  1  0
  7  8  1  0
  9 17  1  0
 10 15  1  0
 11 12  1  0
 11 10  1  0
 13 12  1  0
 13 22  1  0
 13 14  1  0
 15  9  1  0
 15 14  1  0
 16  9  2  0
 17 18  1  0
 17  8  1  0
 19 20  2  0
 20 39  1  0
 21 20  1  0
 21 24  1  0
 22 19  1  0
 22 23  1  0
 23 21  2  0
 24 25  1  0
 25 26  2  0
 27 30  1  0
 27 26  1  0
 28 27  2  0
 29 28  1  0
 29 24  2  0
 30 31  1  0
 31 32  1  0
 32 33  2  0
 34 33  1  0
 34 38  1  0
 35 34  2  0
 36 31  2  0
 36 35  1  0
 37 36  1  0
 39 40  1  0
 40 43  1  0
 40 42  1  0
 41 39  2  0
 44 45  1  0
 44 19  1  0
 46 44  1  0
 47  1  1  0
 48 47  1  0
 49 50  1  0
 49 48  2  0
 51 62  2  0
 52 50  1  0
 52 57  1  0
 53 61  1  0
 53 63  1  0
 54 60  1  0
 54 56  1  0
 55 61  1  0
 56 55  1  0
 57 56  2  0
 58 59  1  0
 58 52  2  0
 59 54  2  0
 60 53  1  0
 61 51  1  0
 63 65  2  0
 64 63  1  0
 66 64  1  0
 67 76  2  0
 67 72  1  0
 68 64  1  0
 68 72  1  0
 69 68  1  0
 70 71  1  0
 70 69  1  0
 71 67  1  0
 72 73  2  0
 73 74  1  0
 75 74  2  0
 76 75  1  0
 77 51  1  0
 77 78  1  0
 77 87  1  0
 78 81  1  0
 79 83  1  0
 79 78  1  0
 80 79  2  0
 83 82  1  0
 85 83  1  0
 85 86  1  0
 85 84  1  0
 87 90  1  1
 87 88  1  0
 89 87  1  0
M  ISO  4   9 100  17 100  49 101  50 101
M  END
>  <TORSDO>  (79) 
F 23

>  <SCORE>  (79) 
-12.831

>  <name>  (79) 
78

>  <ligand_id>  (79) 
78

>  <original_smiles>  (79) 
[H]c1c([H])c([H])c2c(c1[H])C([H])([H])C([H])([H])C([H])([H])C2([H])N([H])C(=O)C1([H])N(C(=O)C([H])(N([H])C(=O)C([H])(N([H])C([H])([H])[H])C([H])([H])[H])C(C([H])([H])[H])(C([H])([H])[H])C([H])([H])[H])C([H])([H])c2c([H])c(OC([H])([H])C([H])([H])C([H])([H])[N+]([H])(C([H])([H])C([H])([H])C([H])([H])N([H])C(=O)N3C([H])([H])C([H])([H])C([H])([H])C([H])(n4nc(-c5c([H])c([H])c(Oc6c([H])c([H])c(F)c([H])c6F)c([H])c5[H])c(C(=O)N([H])[H])c4N([H])[H])C3([H])[H])C([H])(C([H])([H])[H])C([H])([H])[H])c([H])c([H])c2C1([H])[H]

>  <smiles>  (79) 
[H]c1c([H])c([H])c2c(c1[H])C([H])([H])C([H])([H])C([H])([H])C2([H])N([H])C(=O)C1([H])N(C(=O)C([H])(N([H])C(=O)C([H])(N([H])C([H])([H])[H])C([H])([H])[H])C(C([H])([H])[H])(C([H])([H])[H])C([H])([H])[H])C([H])([H])c2c([H])c(OC([H])([H])C([H])([H])C([H])([H])[N+]([H])(C([H])([H])C([H])([H])C([H])([H])N([H])C(=O)N3C([H])([H])C([H])([H])C([H])([H])C([H])(n4nc(-c5c([H])c([H])c(Oc6c([H])c([H])c(F)c([H])c6F)c([H])c5[H])c(C(=O)N([H])[H])c4N([H])[H])C3([H])[H])C([H])(C([H])([H])[H])C([H])([H])[H])c([H])c([H])c2C1([H])[H]

$$$$
79:0:0
     RDKit          3D

 98107  0  0  1  0  0  0  0  0999 V2000
  -30.6020  -22.4810   20.6270 C   0  0  0  0  0  3  0  0  0  0  0  0
  -28.4470  -23.5530   20.4170 C   0  0  0  0  0  3  0  0  0  0  0  0
  -29.7800  -23.6020   20.8580 C   0  0  0  0  0  0  0  0  0  0  0  0
  -30.0780  -21.3580   19.9450 C   0  0  0  0  0  0  0  0  0  0  0  0
  -28.7300  -21.4230   19.5340 C   0  0  0  0  0  0  0  0  0  0  0  0
  -27.9300  -22.4860   19.7770 N   0  0  0  0  0  0  0  0  0  0  0  0
  -32.4610  -20.3310   19.8400 C   0  0  0  0  0  1  0  0  0  0  0  0
  -30.9480  -20.1360   19.5820 C   0  0  0  0  0  3  0  0  0  0  0  0
  -30.9260  -14.4820   20.0400 C   0  0  0  0  0  0  0  0  0  0  0  0
  -30.4780  -12.4020   18.8040 C   0  0  0  0  0  2  0  0  0  0  0  0
  -29.4660  -12.6950   17.6760 C   0  0  0  0  0  2  0  0  0  0  0  0
  -28.0190  -12.5870   18.1960 C   0  0  0  0  0  2  0  0  0  0  0  0
  -27.7890  -13.3590   19.5220 C   0  0  0  0  0  3  0  0  0  0  0  0
  -28.9090  -13.0550   20.5440 C   0  0  0  0  0  2  0  0  0  0  0  0
  -30.2030  -13.3400   19.9000 N   0  0  0  0  0  0  0  0  0  0  0  0
  -32.0280  -14.6580   19.5140 O   0  0  0  0  0  0  0  0  0  0  0  0
  -30.0230  -17.4450   22.2430 C   0  0  0  0  0  2  0  0  0  0  0  0
  -30.4970  -16.0080   21.9000 C   0  0  0  0  0  2  0  0  0  0  0  0
  -29.7070  -16.5190   19.5590 C   0  0  0  0  0  2  0  0  0  0  0  0
  -30.8100  -18.5980   21.5720 C   0  0  0  0  0  2  0  0  0  0  0  0
  -30.6790  -17.6800   19.2680 C   0  0  0  0  0  2  0  0  0  0  0  0
  -30.2380  -15.5430   20.5260 N   0  0  0  0  0  0  0  0  0  0  0  0
  -30.4300  -18.8490   20.1540 N   0  0  2  0  0  4  0  0  0  0  0  0
  -29.4280  -18.9660   20.1410 H   0  0  0  0  0  0  0  0  0  0  0  0
  -25.4460  -13.9890   20.3770 C   0  0  0  0  0  0  0  0  0  0  0  0
  -24.3890  -13.2250   20.7980 C   0  0  0  0  0  0  0  0  0  0  0  0
  -24.8290  -11.8680   20.7210 C   0  0  0  0  0  0  0  0  0  0  0  0
  -26.4630  -13.0970   20.0730 N   0  0  0  0  0  0  0  0  0  0  0  0
  -26.0990  -11.8160   20.3360 N   0  0  0  0  0  0  0  0  0  0  0  0
  -24.1000  -10.6120   20.9340 C   0  0  0  0  0  0  0  0  0  0  0  0
  -24.5420   -9.6520   21.8730 C   0  0  0  0  0  3  0  0  0  0  0  0
  -23.8140   -8.4600   22.0740 C   0  0  0  0  0  3  0  0  0  0  0  0
  -22.6300   -8.2180   21.3380 C   0  0  0  0  0  0  0  0  0  0  0  0
  -22.2070   -9.1650   20.3870 C   0  0  0  0  0  3  0  0  0  0  0  0
  -22.9360  -10.3480   20.1840 C   0  0  0  0  0  3  0  0  0  0  0  0
  -21.8730   -7.0770   21.4470 O   0  0  0  0  0  0  0  0  0  0  0  0
  -21.7910   -6.3800   22.6250 C   0  0  0  0  0  0  0  0  0  0  0  0
  -21.3350   -6.9820   23.8190 C   0  0  0  0  0  3  0  0  0  0  0  0
  -21.2010   -6.2110   24.9900 C   0  0  0  0  0  3  0  0  0  0  0  0
  -21.5110   -4.8380   24.9690 C   0  0  0  0  0  0  0  0  0  0  0  0
  -21.9590   -4.2350   23.7800 C   0  0  0  0  0  3  0  0  0  0  0  0
  -22.0950   -5.0040   22.6120 C   0  0  0  0  0  0  0  0  0  0  0  0
  -22.5070   -4.4140   21.4640 F   0  0  0  0  0  0  0  0  0  0  0  0
  -21.3750   -4.0940   26.0930 F   0  0  0  0  0  0  0  0  0  0  0  0
  -23.0170  -13.7150   21.1600 C   0  0  0  0  0  0  0  0  0  0  0  0
  -22.3460  -13.0300   22.0810 N   0  0  0  0  0  0  0  0  0  0  0  0
  -22.5500  -14.7380   20.6630 O   0  0  0  0  0  0  0  0  0  0  0  0
  -22.7380  -12.2010   22.5030 H   0  0  0  0  0  0  0  0  0  0  0  0
  -21.4280  -13.3370   22.3680 H   0  0  0  0  0  0  0  0  0  0  0  0
  -25.6230  -15.3590   20.2090 N   0  0  0  0  0  0  0  0  0  0  0  0
  -24.8810  -16.0300   20.3730 H   0  0  0  0  0  0  0  0  0  0  0  0
  -26.4670  -15.7770   19.8430 H   0  0  0  0  0  0  0  0  0  0  0  0
  -26.8100  -20.3830   18.5100 C   0  0  0  0  0  1  0  0  0  0  0  0
  -28.1880  -20.3370   18.8770 O   0  0  0  0  0  0  0  0  0  0  0  0
  -30.3210  -24.8230   21.5920 C   0  0  0  0  0  2  0  0  0  0  0  0
  -30.6620  -26.0210   20.6780 C   0  0  0  0  0  2  0  0  0  0  0  0
  -29.6160  -27.1520   20.6860 C   0  0  0  0  0  2  0  0  0  0  0  0
  -28.4460  -26.7090   20.0150 O   0  0  0  0  0  0  0  0  0  0  0  0
  -24.5140  -31.8060   23.1640 C   0  0  0  0  0  0  0  0  0  0  0  0
  -27.3040  -27.4760   20.0780 C   0  0  0  0  0  0  0  0  0  0  0  0
  -23.3550  -30.3920   21.4930 C   0  0  0  0  0  3  0  0  0  0  0  0
  -24.8610  -28.8990   20.0760 C   0  0  0  0  0  0  0  0  0  0  0  0
  -25.8680  -30.8190   21.3230 C   0  0  0  0  0  2  0  0  0  0  0  0
  -25.9940  -29.4540   20.6810 C   0  0  0  0  0  0  0  0  0  0  0  0
  -27.2180  -28.7520   20.6870 C   0  0  0  0  0  3  0  0  0  0  0  0
  -26.1520  -26.9280   19.4800 C   0  0  0  0  0  3  0  0  0  0  0  0
  -24.9320  -27.6310   19.4740 C   0  0  0  0  0  3  0  0  0  0  0  0
  -23.5950  -29.7250   20.1120 C   0  0  0  0  0  2  0  0  0  0  0  0
  -24.5950  -31.0210   22.0540 N   0  0  0  0  0  0  0  0  0  0  0  0
  -23.4230  -32.0520   23.6950 O   0  0  0  0  0  0  0  0  0  0  0  0
  -22.7140  -29.3520   22.4390 C   0  0  0  0  0  0  0  0  0  0  0  0
  -21.3910  -29.1610   22.3080 N   0  0  0  0  0  0  0  0  0  0  0  0
  -23.4020  -28.7190   23.2440 O   0  0  0  0  0  0  0  0  0  0  0  0
  -20.8990  -29.7240   21.6290 H   0  0  0  0  0  0  0  0  0  0  0  0
  -18.0200  -27.9600   22.8020 C   0  0  0  0  0  0  0  0  0  0  0  0
  -20.5800  -28.2040   23.0590 C   0  0  0  0  0  3  0  0  0  0  0  0
  -20.6750  -26.7890   22.4420 C   0  0  0  0  0  2  0  0  0  0  0  0
  -19.5640  -26.4970   21.4290 C   0  0  0  0  0  2  0  0  0  0  0  0
  -18.1880  -26.6280   22.0880 C   0  0  0  0  0  2  0  0  0  0  0  0
  -19.1440  -28.7070   23.2420 C   0  0  0  0  0  0  0  0  0  0  0  0
  -18.9340  -29.9560   23.8660 C   0  0  0  0  0  3  0  0  0  0  0  0
  -17.6340  -30.4560   24.0560 C   0  0  0  0  0  3  0  0  0  0  0  0
  -16.5230  -29.7040   23.6330 C   0  0  0  0  0  3  0  0  0  0  0  0
  -16.7180  -28.4580   23.0100 C   0  0  0  0  0  3  0  0  0  0  0  0
  -25.7810  -32.4530   23.8040 C   0  0  0  0  0  3  0  0  0  0  0  0
  -25.4490  -33.8440   24.1380 N   0  0  0  0  0  0  0  0  0  0  0  0
  -25.7720  -34.9040   23.3850 C   0  0  0  0  0  0  0  0  0  0  0  0
  -26.4550  -34.8160   22.3600 O   0  0  0  0  0  0  0  0  0  0  0  0
  -24.8480  -33.9870   24.9360 H   0  0  0  0  0  0  0  0  0  0  0  0
  -24.0170  -36.6660   23.0140 C   0  0  0  0  0  1  0  0  0  0  0  0
  -25.2540  -36.2810   23.8410 C   0  0  0  0  0  3  0  0  0  0  0  0
  -27.3640  -37.1980   24.6990 C   0  0  0  0  0  1  0  0  0  0  0  0
  -26.2690  -37.3530   23.7470 N   0  0  0  0  0  0  0  0  0  0  0  0
  -25.8450  -38.2650   23.8970 H   0  0  0  0  0  0  0  0  0  0  0  0
  -26.2990  -31.6800   25.0780 C   0  0  1  0  0  0  0  0  0  0  0  0
  -25.1990  -31.4110   26.1300 C   0  0  0  0  0  1  0  0  0  0  0  0
  -26.9120  -30.3190   24.6740 C   0  0  0  0  0  1  0  0  0  0  0  0
  -27.4260  -32.4910   25.7610 C   0  0  0  0  0  1  0  0  0  0  0  0
  1  3  1  0
  2  3  2  0
  3 55  1  0
  4  1  2  0
  5  6  2  0
  5  4  1  0
  6  2  1  0
  8  7  1  0
  8  4  1  0
  8 23  1  0
  9 22  1  0
 10 15  1  0
 11 12  1  0
 11 10  1  0
 13 12  1  0
 13 28  1  0
 13 14  1  0
 15  9  1  0
 15 14  1  0
 16  9  2  0
 18 17  1  0
 19 22  1  0
 20 17  1  0
 21 19  1  0
 21 23  1  0
 22 18  1  0
 23 20  1  0
 23 24  1  1
 25 26  2  0
 26 45  1  0
 27 26  1  0
 27 30  1  0
 28 29  1  0
 28 25  1  0
 29 27  2  0
 30 31  1  0
 31 32  2  0
 33 36  1  0
 33 32  1  0
 34 33  2  0
 35 34  1  0
 35 30  2  0
 36 37  1  0
 37 38  1  0
 38 39  2  0
 40 39  1  0
 40 44  1  0
 41 40  2  0
 42 37  2  0
 42 41  1  0
 43 42  1  0
 45 46  1  0
 46 49  1  0
 46 48  1  0
 47 45  2  0
 50 51  1  0
 50 25  1  0
 52 50  1  0
 53 54  1  0
 54  5  1  0
 56 57  1  0
 56 55  1  0
 58 60  1  0
 58 57  1  0
 59 70  2  0
 60 65  1  0
 61 69  1  0
 61 71  1  0
 62 68  1  0
 62 64  1  0
 63 69  1  0
 64 65  2  0
 64 63  1  0
 66 60  2  0
 67 66  1  0
 67 62  2  0
 68 61  1  0
 69 59  1  0
 71 73  2  0
 72 71  1  0
 74 72  1  0
 75 84  2  0
 75 80  1  0
 76 72  1  0
 76 80  1  0
 77 76  1  0
 78 79  1  0
 78 77  1  0
 79 75  1  0
 80 81  2  0
 81 82  1  0
 83 82  2  0
 84 83  1  0
 85 59  1  0
 85 86  1  0
 85 95  1  0
 86 89  1  0
 87 91  1  0
 87 86  1  0
 88 87  2  0
 91 90  1  0
 93 91  1  0
 93 94  1  0
 93 92  1  0
 95 98  1  1
 95 96  1  0
 97 95  1  0
M  ISO  4   9 100  22 100  57 101  58 101
M  END
>  <TORSDO>  (80) 
F 21

>  <SCORE>  (80) 
-13.413

>  <name>  (80) 
79

>  <ligand_id>  (80) 
79

>  <original_smiles>  (80) 
[H]c1nc(OC([H])([H])[H])c(C([H])(C([H])([H])[H])[N+]2([H])C([H])([H])C([H])([H])N(C(=O)N3C([H])([H])C([H])([H])C([H])([H])C([H])(n4nc(-c5c([H])c([H])c(Oc6c([H])c([H])c(F)c([H])c6F)c([H])c5[H])c(C(=O)N([H])[H])c4N([H])[H])C3([H])[H])C([H])([H])C([H])([H])C2([H])[H])c([H])c1C([H])([H])C([H])([H])C([H])([H])Oc1c([H])c([H])c2c(c1[H])C([H])([H])N(C(=O)C([H])(N([H])C(=O)C([H])(N([H])C([H])([H])[H])C([H])([H])[H])C(C([H])([H])[H])(C([H])([H])[H])C([H])([H])[H])C([H])(C(=O)N([H])C1([H])c3c([H])c([H])c([H])c([H])c3C([H])([H])C([H])([H])C1([H])[H])C2([H])[H]

>  <smiles>  (80) 
[H]c1nc(OC([H])([H])[H])c(C([H])(C([H])([H])[H])[N+]2([H])C([H])([H])C([H])([H])N(C(=O)N3C([H])([H])C([H])([H])C([H])([H])C([H])(n4nc(-c5c([H])c([H])c(Oc6c([H])c([H])c(F)c([H])c6F)c([H])c5[H])c(C(=O)N([H])[H])c4N([H])[H])C3([H])[H])C([H])([H])C([H])([H])C2([H])[H])c([H])c1C([H])([H])C([H])([H])C([H])([H])Oc1c([H])c([H])c2c(c1[H])C([H])([H])N(C(=O)C([H])(N([H])C(=O)C([H])(N([H])C([H])([H])[H])C([H])([H])[H])C(C([H])([H])[H])(C([H])([H])[H])C([H])([H])[H])C([H])(C(=O)N([H])C1([H])c3c([H])c([H])c([H])c([H])c3C([H])([H])C([H])([H])C1([H])[H])C2([H])[H]

$$$$
80:0:0
     RDKit          3D

 94102  0  0  1  0  0  0  0  0999 V2000
  -29.8500  -21.1670   21.3710 C   0  0  0  0  0  0  0  0  0  0  0  0
  -29.6900  -22.5390   21.0440 C   0  0  0  0  0  3  0  0  0  0  0  0
  -29.4540  -20.8890   22.8220 C   0  0  0  0  0  2  0  0  0  0  0  0
  -30.4050  -19.8600   23.4010 C   0  0  0  0  0  2  0  0  0  0  0  0
  -31.0850  -19.2620   22.1920 C   0  0  0  0  0  2  0  0  0  0  0  0
  -30.3060  -19.6600   20.8940 C   0  0  1  0  0  0  0  0  0  0  0  0
  -28.8860  -17.4420   21.4750 C   0  0  0  0  0  1  0  0  0  0  0  0
  -27.7030  -19.3730   20.3530 C   0  0  0  0  0  1  0  0  0  0  0  0
  -29.0680  -18.6970   20.5830 C   0  0  0  0  0  3  0  0  0  0  0  0
  -29.0750  -23.0630   18.6530 C   0  0  0  0  0  1  0  0  0  0  0  0
  -31.1310  -24.1300   19.6300 C   0  0  0  0  0  1  0  0  0  0  0  0
  -29.6830  -23.6800   19.9170 C   0  0  2  0  0  0  0  0  0  0  0  0
  -28.8140  -25.0380   20.3690 C   0  0  0  0  0  2  0  0  0  0  0  0
  -28.8260  -26.4420   19.7670 O   0  0  0  0  0  0  0  0  0  0  0  0
  -24.6670  -31.5660   22.9290 C   0  0  0  0  0  0  0  0  0  0  0  0
  -27.6640  -27.2690   19.7770 C   0  0  0  0  0  0  0  0  0  0  0  0
  -23.5970  -30.1590   21.2050 C   0  0  0  0  0  3  0  0  0  0  0  0
  -25.1910  -28.7670   19.7500 C   0  0  0  0  0  0  0  0  0  0  0  0
  -26.1180  -30.6560   21.0890 C   0  0  0  0  0  2  0  0  0  0  0  0
  -26.3170  -29.3060   20.3880 C   0  0  0  0  0  0  0  0  0  0  0  0
  -27.5600  -28.5790   20.3750 C   0  0  0  0  0  3  0  0  0  0  0  0
  -26.5120  -26.8030   19.1100 C   0  0  0  0  0  3  0  0  0  0  0  0
  -25.2990  -27.5260   19.0960 C   0  0  0  0  0  3  0  0  0  0  0  0
  -23.8890  -29.5550   19.8060 C   0  0  0  0  0  2  0  0  0  0  0  0
  -24.8100  -30.8110   21.7950 N   0  0  0  0  0  0  0  0  0  0  0  0
  -23.5570  -31.7370   23.4550 O   0  0  0  0  0  0  0  0  0  0  0  0
  -22.9880  -29.0590   22.1060 C   0  0  0  0  0  0  0  0  0  0  0  0
  -21.6690  -28.8270   21.9860 N   0  0  0  0  0  0  0  0  0  0  0  0
  -23.7040  -28.4190   22.8810 O   0  0  0  0  0  0  0  0  0  0  0  0
  -21.1420  -29.4000   21.3420 H   0  0  0  0  0  0  0  0  0  0  0  0
  -18.3520  -27.4820   22.5060 C   0  0  0  0  0  0  0  0  0  0  0  0
  -20.9100  -27.8030   22.7060 C   0  0  0  0  0  3  0  0  0  0  0  0
  -21.0330  -26.4230   22.0170 C   0  0  0  0  0  2  0  0  0  0  0  0
  -19.9030  -26.1480   21.0180 C   0  0  0  0  0  2  0  0  0  0  0  0
  -18.5420  -26.1970   21.7180 C   0  0  0  0  0  2  0  0  0  0  0  0
  -19.4630  -28.2440   22.9580 C   0  0  0  0  0  0  0  0  0  0  0  0
  -19.2270  -29.4490   23.6560 C   0  0  0  0  0  3  0  0  0  0  0  0
  -17.9140  -29.8940   23.9040 C   0  0  0  0  0  3  0  0  0  0  0  0
  -16.8190  -29.1280   23.4670 C   0  0  0  0  0  3  0  0  0  0  0  0
  -17.0390  -27.9230   22.7760 C   0  0  0  0  0  3  0  0  0  0  0  0
  -25.8850  -32.2650   23.6020 C   0  0  0  0  0  3  0  0  0  0  0  0
  -25.4620  -33.6190   23.9920 N   0  0  0  0  0  0  0  0  0  0  0  0
  -25.7350  -34.7330   23.3010 C   0  0  0  0  0  0  0  0  0  0  0  0
  -26.4350  -34.7360   22.2840 O   0  0  0  0  0  0  0  0  0  0  0  0
  -24.8310  -33.6850   24.7770 H   0  0  0  0  0  0  0  0  0  0  0  0
  -23.8870  -36.4150   23.0010 C   0  0  0  0  0  1  0  0  0  0  0  0
  -25.1390  -36.0560   23.8180 C   0  0  0  0  0  3  0  0  0  0  0  0
  -27.1860  -37.0520   24.7410 C   0  0  0  0  0  1  0  0  0  0  0  0
  -26.0940  -37.1860   23.7820 N   0  0  0  0  0  0  0  0  0  0  0  0
  -25.6160  -38.0660   23.9640 H   0  0  0  0  0  0  0  0  0  0  0  0
  -26.4420  -31.4760   24.8500 C   0  0  1  0  0  0  0  0  0  0  0  0
  -25.3540  -31.0930   25.8780 C   0  0  0  0  0  1  0  0  0  0  0  0
  -27.1490  -30.1720   24.4100 C   0  0  0  0  0  1  0  0  0  0  0  0
  -27.4980  -32.3350   25.5850 C   0  0  0  0  0  1  0  0  0  0  0  0
  -31.3830  -19.2510   19.7830 C   0  0  0  0  0  2  0  0  0  0  0  0
  -31.9700  -17.7110   19.6530 C   0  0  0  0  0  2  0  0  0  0  0  0
  -31.9000  -15.1390   19.8260 C   0  0  0  0  0  0  0  0  0  0  0  0
  -31.5400  -12.8280   18.9610 C   0  0  0  0  0  2  0  0  0  0  0  0
  -30.5980  -12.8760   17.7380 C   0  0  0  0  0  2  0  0  0  0  0  0
  -29.1290  -12.7830   18.1860 C   0  0  0  0  0  2  0  0  0  0  0  0
  -28.8000  -13.7450   19.3600 C   0  0  0  0  0  3  0  0  0  0  0  0
  -29.8760  -13.7310   20.4700 C   0  0  0  0  0  2  0  0  0  0  0  0
  -31.1750  -13.9680   19.8350 N   0  0  0  0  0  0  0  0  0  0  0  0
  -33.0910  -15.1040   19.5210 O   0  0  0  0  0  0  0  0  0  0  0  0
  -31.2670  -16.3750   19.9320 N   0  0  0  0  0  0  0  0  0  0  0  0
  -30.2830  -16.3850   20.1550 H   0  0  0  0  0  0  0  0  0  0  0  0
  -26.4710  -14.4600   20.1440 C   0  0  0  0  0  0  0  0  0  0  0  0
  -25.3790  -13.7490   20.5540 C   0  0  0  0  0  0  0  0  0  0  0  0
  -25.7660  -12.3740   20.5200 C   0  0  0  0  0  0  0  0  0  0  0  0
  -27.4600  -13.5230   19.8900 N   0  0  0  0  0  0  0  0  0  0  0  0
  -27.0470  -12.2630   20.1840 N   0  0  0  0  0  0  0  0  0  0  0  0
  -24.9710  -11.1560   20.7230 C   0  0  0  0  0  0  0  0  0  0  0  0
  -25.3030  -10.2200   21.7270 C   0  0  0  0  0  3  0  0  0  0  0  0
  -24.5100   -9.0680   21.9190 C   0  0  0  0  0  3  0  0  0  0  0  0
  -23.3700   -8.8450   21.1100 C   0  0  0  0  0  0  0  0  0  0  0  0
  -23.0610   -9.7700   20.0950 C   0  0  0  0  0  3  0  0  0  0  0  0
  -23.8560  -10.9090   19.9000 C   0  0  0  0  0  3  0  0  0  0  0  0
  -22.5500   -7.7470   21.2110 O   0  0  0  0  0  0  0  0  0  0  0  0
  -22.2720   -7.1630   22.4230 C   0  0  0  0  0  0  0  0  0  0  0  0
  -21.7210   -7.9020   23.4950 C   0  0  0  0  0  3  0  0  0  0  0  0
  -21.3840   -7.2480   24.6980 C   0  0  0  0  0  3  0  0  0  0  0  0
  -21.5860   -5.8610   24.8280 C   0  0  0  0  0  0  0  0  0  0  0  0
  -22.1260   -5.1240   23.7580 C   0  0  0  0  0  3  0  0  0  0  0  0
  -22.4670   -5.7740   22.5580 C   0  0  0  0  0  0  0  0  0  0  0  0
  -22.9630   -5.0530   21.5230 F   0  0  0  0  0  0  0  0  0  0  0  0
  -21.2650   -5.2360   25.9840 F   0  0  0  0  0  0  0  0  0  0  0  0
  -24.0130  -14.2980   20.8510 C   0  0  0  0  0  0  0  0  0  0  0  0
  -23.2890  -13.6750   21.7750 N   0  0  0  0  0  0  0  0  0  0  0  0
  -23.5990  -15.3110   20.2890 O   0  0  0  0  0  0  0  0  0  0  0  0
  -23.6500  -12.8590   22.2490 H   0  0  0  0  0  0  0  0  0  0  0  0
  -22.3610  -14.0020   22.0020 H   0  0  0  0  0  0  0  0  0  0  0  0
  -26.7040  -15.8180   19.9370 N   0  0  0  0  0  0  0  0  0  0  0  0
  -25.9570  -16.5000   20.0110 H   0  0  0  0  0  0  0  0  0  0  0  0
  -27.5300  -16.1930   19.4890 H   0  0  0  0  0  0  0  0  0  0  0  0
  1  3  1  0
  2  1  2  0
  3  4  1  0
  5  4  1  0
  6 55  1  6
  6  1  1  0
  6  5  1  0
  8  9  1  0
  9  6  1  0
  9  7  1  0
 12 10  1  6
 11 12  1  0
 12 13  1  0
 12  2  1  0
 14 16  1  0
 14 13  1  0
 15 26  2  0
 16 21  1  0
 17 25  1  0
 17 27  1  0
 18 24  1  0
 18 20  1  0
 19 25  1  0
 20 19  1  0
 21 20  2  0
 22 16  2  0
 23 22  1  0
 23 18  2  0
 24 17  1  0
 25 15  1  0
 27 29  2  0
 28 27  1  0
 30 28  1  0
 31 40  2  0
 31 36  1  0
 32 28  1  0
 32 36  1  0
 33 32  1  0
 34 35  1  0
 34 33  1  0
 35 31  1  0
 36 37  2  0
 37 38  1  0
 39 38  2  0
 40 39  1  0
 41 15  1  0
 41 42  1  0
 41 51  1  0
 42 45  1  0
 43 47  1  0
 43 42  1  0
 44 43  2  0
 47 46  1  0
 49 47  1  0
 49 50  1  0
 49 48  1  0
 51 54  1  1
 51 52  1  0
 53 51  1  0
 56 55  1  0
 56 65  1  0
 57 63  1  0
 57 65  1  0
 58 63  1  0
 59 60  1  0
 59 58  1  0
 61 60  1  0
 61 70  1  0
 61 62  1  0
 63 62  1  0
 64 57  2  0
 65 66  1  0
 67 68  2  0
 68 87  1  0
 69 68  1  0
 69 72  1  0
 70 67  1  0
 70 71  1  0
 71 69  2  0
 72 73  1  0
 73 74  2  0
 75 78  1  0
 75 74  1  0
 76 75  2  0
 77 76  1  0
 77 72  2  0
 78 79  1  0
 79 84  2  0
 79 80  1  0
 80 81  2  0
 81 82  1  0
 82 86  1  0
 83 82  2  0
 84 83  1  0
 85 84  1  0
 87 88  1  0
 88 91  1  0
 88 90  1  0
 89 87  2  0
 92 93  1  0
 92 67  1  0
 94 92  1  0
M  ISO  4  13 101  14 101  57 100  65 100
M  END
>  <TORSDO>  (81) 
F 21

>  <SCORE>  (81) 
-9.499

>  <name>  (81) 
80

>  <ligand_id>  (81) 
80

>  <original_smiles>  (81) 
[H]C(=C1C([H])([H])C([H])([H])C([H])([H])C1(C([H])([H])C([H])([H])N([H])C(=O)N1C([H])([H])C([H])([H])C([H])([H])C([H])(n2nc(-c3c([H])c([H])c(Oc4c([H])c([H])c(F)c([H])c4F)c([H])c3[H])c(C(=O)N([H])[H])c2N([H])[H])C1([H])[H])C([H])(C([H])([H])[H])C([H])([H])[H])C(C([H])([H])[H])(C([H])([H])[H])C([H])([H])Oc1c([H])c([H])c2c(c1[H])C([H])([H])N(C(=O)C([H])(N([H])C(=O)C([H])(N([H])C([H])([H])[H])C([H])([H])[H])C(C([H])([H])[H])(C([H])([H])[H])C([H])([H])[H])C([H])(C(=O)N([H])C1([H])c3c([H])c([H])c([H])c([H])c3C([H])([H])C([H])([H])C1([H])[H])C2([H])[H]

>  <smiles>  (81) 
[H]C(=C1C([H])([H])C([H])([H])C([H])([H])C1(C([H])([H])C([H])([H])N([H])C(=O)N1C([H])([H])C([H])([H])C([H])([H])C([H])(n2nc(-c3c([H])c([H])c(Oc4c([H])c([H])c(F)c([H])c4F)c([H])c3[H])c(C(=O)N([H])[H])c2N([H])[H])C1([H])[H])C([H])(C([H])([H])[H])C([H])([H])[H])C(C([H])([H])[H])(C([H])([H])[H])C([H])([H])Oc1c([H])c([H])c2c(c1[H])C([H])([H])N(C(=O)C([H])(N([H])C(=O)C([H])(N([H])C([H])([H])[H])C([H])([H])[H])C(C([H])([H])[H])(C([H])([H])[H])C([H])([H])[H])C([H])(C(=O)N([H])C1([H])c3c([H])c([H])c([H])c([H])c3C([H])([H])C([H])([H])C1([H])[H])C2([H])[H]

$$$$
81:0:0
     RDKit          3D

 96104  0  0  1  0  0  0  0  0999 V2000
  -31.4700  -19.2940   20.4570 C   0  0  0  0  0  2  0  0  0  0  0  0
  -33.0080  -18.9710   20.2830 C   0  0  0  0  0  2  0  0  0  0  0  0
  -30.9670  -20.7220   20.8740 C   0  0  0  0  0  2  0  0  0  0  0  0
  -32.1460  -21.8670   19.1910 C   0  0  0  0  0  2  0  0  0  0  0  0
  -33.8590  -19.7690   19.2360 C   0  0  0  0  0  3  0  0  0  0  0  0
  -32.8530  -20.6690   18.3830 C   0  0  0  0  0  3  0  0  0  0  0  0
  -30.7720  -21.6630   19.7550 N   0  0  0  0  0  0  0  0  0  0  0  0
  -35.8930  -18.0360   18.9020 C   0  0  0  0  0  0  0  0  0  0  0  0
  -38.3680  -17.6750   18.8220 C   0  0  0  0  0  2  0  0  0  0  0  0
  -39.0620  -19.0160   19.1590 C   0  0  0  0  0  2  0  0  0  0  0  0
  -39.2230  -19.8800   17.8910 C   0  0  0  0  0  2  0  0  0  0  0  0
  -37.9240  -19.9520   17.0490 C   0  0  0  0  0  3  0  0  0  0  0  0
  -37.2910  -18.5540   16.8490 C   0  0  0  0  0  2  0  0  0  0  0  0
  -37.0670  -17.9820   18.1840 N   0  0  0  0  0  0  0  0  0  0  0  0
  -35.7870  -17.4120   19.9620 O   0  0  0  0  0  0  0  0  0  0  0  0
  -34.9530  -18.9700   18.4960 N   0  0  0  0  0  0  0  0  0  0  0  0
  -35.2010  -19.3260   17.5880 H   0  0  0  0  0  0  0  0  0  0  0  0
  -37.4640  -21.7450   15.2720 C   0  0  0  0  0  0  0  0  0  0  0  0
  -38.0860  -22.0480   14.0900 C   0  0  0  0  0  0  0  0  0  0  0  0
  -39.1420  -21.0970   13.9450 C   0  0  0  0  0  0  0  0  0  0  0  0
  -38.1380  -20.6480   15.7830 N   0  0  0  0  0  0  0  0  0  0  0  0
  -39.1180  -20.2250   14.9450 N   0  0  0  0  0  0  0  0  0  0  0  0
  -40.2120  -21.0040   12.9430 C   0  0  0  0  0  0  0  0  0  0  0  0
  -40.3560  -19.8630   12.1220 C   0  0  0  0  0  3  0  0  0  0  0  0
  -41.3820  -19.8010   11.1550 C   0  0  0  0  0  3  0  0  0  0  0  0
  -42.2730  -20.8890   10.9960 C   0  0  0  0  0  0  0  0  0  0  0  0
  -42.1410  -22.0120   11.8310 C   0  0  0  0  0  3  0  0  0  0  0  0
  -41.1220  -22.0700   12.7970 C   0  0  0  0  0  3  0  0  0  0  0  0
  -43.3150  -20.9080   10.0990 O   0  0  0  0  0  0  0  0  0  0  0  0
  -43.2240  -20.2900    8.8780 C   0  0  0  0  0  0  0  0  0  0  0  0
  -42.2280  -20.6380    7.9390 C   0  0  0  0  0  3  0  0  0  0  0  0
  -42.2140  -20.0280    6.6690 C   0  0  0  0  0  3  0  0  0  0  0  0
  -43.1960  -19.0750    6.3350 C   0  0  0  0  0  0  0  0  0  0  0  0
  -44.1900  -18.7290    7.2670 C   0  0  0  0  0  3  0  0  0  0  0  0
  -44.2040  -19.3370    8.5340 C   0  0  0  0  0  0  0  0  0  0  0  0
  -45.1770  -19.0180    9.4220 F   0  0  0  0  0  0  0  0  0  0  0  0
  -43.1880  -18.4950    5.1120 F   0  0  0  0  0  0  0  0  0  0  0  0
  -37.7930  -23.2230   13.2050 C   0  0  0  0  0  0  0  0  0  0  0  0
  -37.9950  -23.0750   11.9030 N   0  0  0  0  0  0  0  0  0  0  0  0
  -37.3340  -24.2690   13.6650 O   0  0  0  0  0  0  0  0  0  0  0  0
  -38.3430  -22.2070   11.5250 H   0  0  0  0  0  0  0  0  0  0  0  0
  -37.7900  -23.8370   11.2710 H   0  0  0  0  0  0  0  0  0  0  0  0
  -36.4100  -22.3240   15.9760 N   0  0  0  0  0  0  0  0  0  0  0  0
  -36.2080  -23.2450   15.6030 H   0  0  0  0  0  0  0  0  0  0  0  0
  -36.6220  -22.3840   16.9650 H   0  0  0  0  0  0  0  0  0  0  0  0
  -33.4130  -21.1540   17.0900 N   0  0  0  0  0  4  0  0  0  0  0  0
  -34.0090  -20.4560   16.6830 H   0  0  0  0  0  0  0  0  0  0  0  0
  -33.9910  -21.9610   17.2700 H   0  0  0  0  0  0  0  0  0  0  0  0
  -31.7220  -20.2510   15.4730 C   0  0  0  0  0  1  0  0  0  0  0  0
  -32.9410  -22.4010   14.9590 C   0  0  0  0  0  1  0  0  0  0  0  0
  -32.3790  -21.5080   16.0780 C   0  0  0  0  0  3  0  0  0  0  0  0
  -30.0810  -22.9630   20.1700 C   0  0  0  0  0  2  0  0  0  0  0  0
  -27.6510  -22.0660   20.0290 C   0  0  0  0  0  1  0  0  0  0  0  0
  -28.5800  -23.0170   20.8030 C   0  0  0  0  0  3  0  0  0  0  0  0
  -27.8690  -24.4750   20.8640 C   0  0  0  0  0  2  0  0  0  0  0  0
  -26.6040  -24.7900   21.6280 O   0  0  0  0  0  0  0  0  0  0  0  0
  -19.7150  -26.2310   19.8440 C   0  0  0  0  0  0  0  0  0  0  0  0
  -25.6710  -25.6920   21.0580 C   0  0  0  0  0  0  0  0  0  0  0  0
  -21.4730  -27.4600   18.6200 C   0  0  0  0  0  3  0  0  0  0  0  0
  -23.8200  -27.3740   19.6420 C   0  0  0  0  0  0  0  0  0  0  0  0
  -21.8730  -26.6900   21.0380 C   0  0  0  0  0  2  0  0  0  0  0  0
  -23.3660  -26.6010   20.7170 C   0  0  0  0  0  0  0  0  0  0  0  0
  -24.2870  -25.7690   21.4340 C   0  0  0  0  0  3  0  0  0  0  0  0
  -26.0820  -26.5540   20.0150 C   0  0  0  0  0  3  0  0  0  0  0  0
  -25.1790  -27.3640   19.3020 C   0  0  0  0  0  3  0  0  0  0  0  0
  -22.8060  -28.2090   18.8860 C   0  0  0  0  0  2  0  0  0  0  0  0
  -20.9800  -26.7490   19.8430 N   0  0  0  0  0  0  0  0  0  0  0  0
  -18.9630  -26.3610   18.8660 O   0  0  0  0  0  0  0  0  0  0  0  0
  -21.6440  -26.5240   17.3970 C   0  0  0  0  0  0  0  0  0  0  0  0
  -21.6260  -27.0980   16.1810 N   0  0  0  0  0  0  0  0  0  0  0  0
  -21.8070  -25.3120   17.5530 O   0  0  0  0  0  0  0  0  0  0  0  0
  -21.4570  -28.0930   16.1280 H   0  0  0  0  0  0  0  0  0  0  0  0
  -21.7530  -27.5830   12.5970 C   0  0  0  0  0  0  0  0  0  0  0  0
  -21.8140  -26.4100   14.9010 C   0  0  0  0  0  3  0  0  0  0  0  0
  -23.3140  -26.1580   14.6150 C   0  0  0  0  0  2  0  0  0  0  0  0
  -23.9670  -27.2690   13.7840 C   0  0  0  0  0  2  0  0  0  0  0  0
  -23.2540  -27.4170   12.4360 C   0  0  0  0  0  2  0  0  0  0  0  0
  -21.0770  -27.1250   13.7610 C   0  0  0  0  0  0  0  0  0  0  0  0
  -19.6870  -27.3350   13.8730 C   0  0  0  0  0  3  0  0  0  0  0  0
  -18.9720  -27.9900   12.8530 C   0  0  0  0  0  3  0  0  0  0  0  0
  -19.6420  -28.4260   11.6950 C   0  0  0  0  0  3  0  0  0  0  0  0
  -21.0270  -28.2200   11.5680 C   0  0  0  0  0  3  0  0  0  0  0  0
  -19.1440  -25.4750   21.0820 C   0  0  0  0  0  3  0  0  0  0  0  0
  -17.9840  -26.2330   21.5740 N   0  0  0  0  0  0  0  0  0  0  0  0
  -17.9820  -26.9940   22.6780 C   0  0  0  0  0  0  0  0  0  0  0  0
  -18.9510  -27.0750   23.4360 O   0  0  0  0  0  0  0  0  0  0  0  0
  -17.1720  -26.2530   20.9750 H   0  0  0  0  0  0  0  0  0  0  0  0
  -16.9140  -29.2710   22.6450 C   0  0  0  0  0  1  0  0  0  0  0  0
  -16.6990  -27.7890   22.9920 C   0  0  0  0  0  3  0  0  0  0  0  0
  -15.7430  -26.3400   24.7280 C   0  0  0  0  0  1  0  0  0  0  0  0
  -16.2580  -27.6650   24.3990 N   0  0  0  0  0  0  0  0  0  0  0  0
  -15.5340  -28.3460   24.6090 H   0  0  0  0  0  0  0  0  0  0  0  0
  -18.7320  -23.9840   20.7640 C   0  0  1  0  0  0  0  0  0  0  0  0
  -17.8310  -23.8380   19.5160 C   0  0  0  0  0  1  0  0  0  0  0  0
  -19.9850  -23.1100   20.5330 C   0  0  0  0  0  1  0  0  0  0  0  0
  -17.9860  -23.3740   21.9740 C   0  0  0  0  0  1  0  0  0  0  0  0
  1  3  1  0
  2  1  1  0
  4  7  1  0
  5 16  1  0
  5  2  1  0
  6 46  1  0
  6  4  1  0
  6  5  1  0
  7 52  1  0
  7  3  1  0
  8 15  2  0
  9 10  1  0
 11 10  1  0
 12 21  1  0
 12 11  1  0
 13 12  1  0
 13 14  1  0
 14  9  1  0
 14  8  1  0
 16  8  1  0
 17 16  1  0
 18 21  1  0
 18 43  1  0
 19 18  2  0
 20 19  1  0
 20 22  2  0
 22 21  1  0
 23 20  1  0
 24 23  2  0
 25 24  1  0
 26 25  2  0
 26 27  1  0
 27 28  2  0
 28 23  1  0
 29 26  1  0
 30 29  1  0
 31 30  2  0
 32 31  1  0
 33 32  2  0
 33 34  1  0
 34 35  2  0
 35 30  1  0
 35 36  1  0
 37 33  1  0
 38 40  2  0
 38 19  1  0
 39 38  1  0
 41 39  1  0
 42 39  1  0
 43 45  1  0
 44 43  1  0
 46 48  1  0
 47 46  1  0
 49 51  1  0
 50 51  1  0
 51 46  1  0
 52 54  1  0
 54 53  1  0
 54 55  1  0
 55 56  1  0
 58 63  1  0
 58 56  1  0
 59 69  1  0
 59 66  1  0
 59 67  1  0
 60 62  1  0
 62 61  1  0
 62 63  2  0
 64 58  2  0
 65 60  2  0
 65 64  1  0
 66 60  1  0
 67 57  1  0
 67 61  1  0
 68 57  2  0
 69 71  2  0
 70 69  1  0
 72 70  1  0
 73 78  1  0
 74 70  1  0
 75 74  1  0
 76 75  1  0
 77 73  1  0
 77 76  1  0
 78 79  2  0
 78 74  1  0
 80 79  1  0
 81 80  2  0
 82 81  1  0
 82 73  2  0
 83 57  1  0
 83 84  1  0
 84 85  1  0
 85 89  1  0
 85 86  2  0
 87 84  1  0
 89 88  1  0
 89 91  1  0
 91 92  1  0
 91 90  1  0
 93 83  1  0
 93 96  1  1
 94 93  1  0
 95 93  1  0
M  ISO  4   8 100  16 100  55 101  56 101
M  END
>  <TORSDO>  (82) 
F 21

>  <SCORE>  (82) 
-4.817

>  <name>  (82) 
81

>  <ligand_id>  (82) 
81

>  <original_smiles>  (82) 
[H]c1c([H])c([H])c2c(c1[H])C([H])([H])C([H])([H])C([H])([H])C2([H])N([H])C(=O)C1([H])N(C(=O)C([H])(N([H])C(=O)C([H])(N([H])C([H])([H])[H])C([H])([H])[H])C(C([H])([H])[H])(C([H])([H])[H])C([H])([H])[H])C([H])([H])c2c([H])c(OC([H])([H])C([H])(C([H])([H])[H])C([H])([H])N3C([H])([H])C([H])([H])C([H])([H])C([H])(N([H])C(=O)N4C([H])([H])C([H])([H])C([H])([H])C([H])(n5nc(-c6c([H])c([H])c(Oc7c([H])c([H])c(F)c([H])c7F)c([H])c6[H])c(C(=O)N([H])[H])c5N([H])[H])C4([H])[H])C([H])([N+]([H])([H])C([H])(C([H])([H])[H])C([H])([H])[H])C3([H])[H])c([H])c([H])c2C1([H])[H]

>  <smiles>  (82) 
[H]c1c([H])c([H])c2c(c1[H])C([H])([H])C([H])([H])C([H])([H])C2([H])N([H])C(=O)C1([H])N(C(=O)C([H])(N([H])C(=O)C([H])(N([H])C([H])([H])[H])C([H])([H])[H])C(C([H])([H])[H])(C([H])([H])[H])C([H])([H])[H])C([H])([H])c2c([H])c(OC([H])([H])C([H])(C([H])([H])[H])C([H])([H])N3C([H])([H])C([H])([H])C([H])([H])C([H])(N([H])C(=O)N4C([H])([H])C([H])([H])C([H])([H])C([H])(n5nc(-c6c([H])c([H])c(Oc7c([H])c([H])c(F)c([H])c7F)c([H])c6[H])c(C(=O)N([H])[H])c5N([H])[H])C4([H])[H])C([H])([N+]([H])([H])C([H])(C([H])([H])[H])C([H])([H])[H])C3([H])[H])c([H])c([H])c2C1([H])[H]

$$$$
82:0:0
     RDKit          3D

 92100  0  0  1  0  0  0  0  0999 V2000
  -30.4020  -21.6880   19.0100 C   0  0  0  0  0  3  0  0  0  0  0  0
  -30.8540  -19.5060   19.0760 C   0  0  0  0  0  3  0  0  0  0  0  0
  -31.2630  -20.6790   18.5120 C   0  0  0  0  0  0  0  0  0  0  0  0
  -29.4440  -21.2170   19.8700 C   0  0  0  0  0  0  0  0  0  0  0  0
  -29.7730  -19.6580   19.9380 N   0  0  0  0  0  0  0  0  0  0  0  0
  -31.9280  -21.6060   16.2650 C   0  0  0  0  0  1  0  0  0  0  0  0
  -33.1740  -19.6100   17.2040 C   0  0  0  0  0  1  0  0  0  0  0  0
  -32.4140  -20.9030   17.5430 C   0  0  0  0  0  3  0  0  0  0  0  0
  -28.3620  -22.5160   20.3100 C   0  0  1  0  0  0  0  0  0  0  0  0
  -27.3740  -22.5310   19.4170 F   0  0  0  0  0  0  0  0  0  0  0  0
  -27.7830  -22.1740   21.4590 F   0  0  0  0  0  0  0  0  0  0  0  0
  -28.6390  -24.3080   20.5520 C   0  0  0  0  0  2  0  0  0  0  0  0
  -28.3000  -25.8800   20.0810 O   0  0  0  0  0  0  0  0  0  0  0  0
  -24.6290  -31.8260   23.1600 C   0  0  0  0  0  0  0  0  0  0  0  0
  -27.2110  -26.8970   20.2160 C   0  0  0  0  0  0  0  0  0  0  0  0
  -23.4400  -30.4030   21.5410 C   0  0  0  0  0  3  0  0  0  0  0  0
  -24.8910  -28.7680   20.1570 C   0  0  0  0  0  0  0  0  0  0  0  0
  -26.0060  -30.6170   21.3900 C   0  0  0  0  0  2  0  0  0  0  0  0
  -26.0820  -29.1920   20.7600 C   0  0  0  0  0  0  0  0  0  0  0  0
  -27.2370  -28.2820   20.7530 C   0  0  0  0  0  3  0  0  0  0  0  0
  -25.9800  -26.6210   19.5780 C   0  0  0  0  0  3  0  0  0  0  0  0
  -24.8660  -27.5020   19.5480 C   0  0  0  0  0  3  0  0  0  0  0  0
  -23.6740  -29.6930   20.1790 C   0  0  0  0  0  2  0  0  0  0  0  0
  -24.7140  -30.9780   22.0820 N   0  0  0  0  0  0  0  0  0  0  0  0
  -23.5390  -32.1190   23.6750 O   0  0  0  0  0  0  0  0  0  0  0  0
  -22.7440  -29.4240   22.5210 C   0  0  0  0  0  0  0  0  0  0  0  0
  -21.4130  -29.2670   22.4080 N   0  0  0  0  0  0  0  0  0  0  0  0
  -23.4130  -28.8010   23.3500 O   0  0  0  0  0  0  0  0  0  0  0  0
  -20.9280  -29.8200   21.7160 H   0  0  0  0  0  0  0  0  0  0  0  0
  -18.0280  -28.0770   22.9550 C   0  0  0  0  0  0  0  0  0  0  0  0
  -20.5910  -28.3370   23.1920 C   0  0  0  0  0  3  0  0  0  0  0  0
  -20.6820  -26.9010   22.6250 C   0  0  0  0  0  2  0  0  0  0  0  0
  -19.5690  -26.5760   21.6240 C   0  0  0  0  0  2  0  0  0  0  0  0
  -18.1950  -26.7270   22.2820 C   0  0  0  0  0  2  0  0  0  0  0  0
  -19.1530  -28.8410   23.3680 C   0  0  0  0  0  0  0  0  0  0  0  0
  -18.9400  -30.1030   23.9630 C   0  0  0  0  0  3  0  0  0  0  0  0
  -17.6390  -30.6050   24.1460 C   0  0  0  0  0  3  0  0  0  0  0  0
  -16.5290  -29.8390   23.7450 C   0  0  0  0  0  3  0  0  0  0  0  0
  -16.7250  -28.5780   23.1560 C   0  0  0  0  0  3  0  0  0  0  0  0
  -25.8960  -32.4820   23.7860 C   0  0  0  0  0  3  0  0  0  0  0  0
  -26.4130  -31.7230   25.0710 C   0  0  1  0  0  0  0  0  0  0  0  0
  -25.3190  -31.4910   26.1420 C   0  0  0  0  0  1  0  0  0  0  0  0
  -27.0030  -30.3450   24.7010 C   0  0  0  0  0  1  0  0  0  0  0  0
  -27.5590  -32.5290   25.7280 C   0  0  0  0  0  1  0  0  0  0  0  0
  -25.5660  -33.8790   24.1220 N   0  0  0  0  0  0  0  0  0  0  0  0
  -25.8870  -34.9450   23.3780 C   0  0  0  0  0  0  0  0  0  0  0  0
  -26.5530  -34.8570   22.3430 O   0  0  0  0  0  0  0  0  0  0  0  0
  -24.9700  -34.0180   24.9250 H   0  0  0  0  0  0  0  0  0  0  0  0
  -24.1410  -36.7330   23.0610 C   0  0  0  0  0  1  0  0  0  0  0  0
  -25.3940  -36.3270   23.8530 C   0  0  0  0  0  3  0  0  0  0  0  0
  -27.5310  -37.2270   24.6680 C   0  0  0  0  0  1  0  0  0  0  0  0
  -26.4170  -37.3920   23.7380 N   0  0  0  0  0  0  0  0  0  0  0  0
  -26.0040  -38.3060   23.8950 H   0  0  0  0  0  0  0  0  0  0  0  0
  -29.4770  -18.1960   20.6930 C   0  0  0  0  0  2  0  0  0  0  0  0
  -30.3920  -15.3170   20.2430 C   0  0  0  0  0  0  0  0  0  0  0  0
  -30.3790  -12.8650   19.3330 C   0  0  0  0  0  2  0  0  0  0  0  0
  -29.4350  -12.6190   18.1290 C   0  0  0  0  0  2  0  0  0  0  0  0
  -27.9980  -12.3360   18.6040 C   0  0  0  0  0  2  0  0  0  0  0  0
  -27.5560  -13.3070   19.7270 C   0  0  0  0  0  3  0  0  0  0  0  0
  -28.6280  -13.4800   20.8230 C   0  0  0  0  0  2  0  0  0  0  0  0
  -29.8280  -14.0090   20.1470 N   0  0  0  0  0  0  0  0  0  0  0  0
  -31.6280  -15.3060   20.1480 O   0  0  0  0  0  0  0  0  0  0  0  0
  -29.5980  -16.5800   20.1980 N   0  0  0  0  0  0  0  0  0  0  0  0
  -28.6610  -16.2930   19.9570 H   0  0  0  0  0  0  0  0  0  0  0  0
  -25.1970  -13.8600   20.5240 C   0  0  0  0  0  0  0  0  0  0  0  0
  -24.1400  -13.0800   20.9060 C   0  0  0  0  0  0  0  0  0  0  0  0
  -24.6120  -11.7310   20.8680 C   0  0  0  0  0  0  0  0  0  0  0  0
  -26.2390  -12.9860   20.2640 N   0  0  0  0  0  0  0  0  0  0  0  0
  -25.9000  -11.7000   20.5410 N   0  0  0  0  0  0  0  0  0  0  0  0
  -23.8890  -10.4670   21.0640 C   0  0  0  0  0  0  0  0  0  0  0  0
  -24.3360   -9.4940   21.9870 C   0  0  0  0  0  3  0  0  0  0  0  0
  -23.6110   -8.2980   22.1730 C   0  0  0  0  0  3  0  0  0  0  0  0
  -22.4260   -8.0660   21.4380 C   0  0  0  0  0  0  0  0  0  0  0  0
  -21.9960   -9.0260   20.5050 C   0  0  0  0  0  3  0  0  0  0  0  0
  -22.7220  -10.2140   20.3160 C   0  0  0  0  0  3  0  0  0  0  0  0
  -21.6700   -6.9230   21.5360 O   0  0  0  0  0  0  0  0  0  0  0  0
  -21.6500   -6.1670   22.6810 C   0  0  0  0  0  0  0  0  0  0  0  0
  -21.2660   -6.7130   23.9260 C   0  0  0  0  0  3  0  0  0  0  0  0
  -21.1920   -5.8850   25.0630 C   0  0  0  0  0  3  0  0  0  0  0  0
  -21.4920   -4.5140   24.9600 C   0  0  0  0  0  0  0  0  0  0  0  0
  -21.8680   -3.9680   23.7200 C   0  0  0  0  0  3  0  0  0  0  0  0
  -21.9440   -4.7920   22.5830 C   0  0  0  0  0  0  0  0  0  0  0  0
  -22.2870   -4.2570   21.3870 F   0  0  0  0  0  0  0  0  0  0  0  0
  -21.4140   -3.7170   26.0500 F   0  0  0  0  0  0  0  0  0  0  0  0
  -22.7450  -13.5550   21.1850 C   0  0  0  0  0  0  0  0  0  0  0  0
  -22.0260  -12.8580   22.0570 N   0  0  0  0  0  0  0  0  0  0  0  0
  -22.3030  -14.5780   20.6660 O   0  0  0  0  0  0  0  0  0  0  0  0
  -22.3980  -12.0320   22.5000 H   0  0  0  0  0  0  0  0  0  0  0  0
  -21.0880  -13.1560   22.2850 H   0  0  0  0  0  0  0  0  0  0  0  0
  -25.3520  -15.2310   20.3460 N   0  0  0  0  0  0  0  0  0  0  0  0
  -24.5810  -15.8770   20.4700 H   0  0  0  0  0  0  0  0  0  0  0  0
  -26.1840  -15.6760   19.9810 H   0  0  0  0  0  0  0  0  0  0  0  0
  1  4  2  0
  2  5  1  0
  3  1  1  0
  3  2  2  0
  4  5  1  0
  4  9  1  0
  5 54  1  0
  6  8  1  0
  7  8  1  0
  8  3  1  0
  9 12  1  0
  9 11  1  1
 10  9  1  0
 13 15  1  0
 13 12  1  0
 14 25  2  0
 15 20  1  0
 16 24  1  0
 16 26  1  0
 17 23  1  0
 17 19  1  0
 18 24  1  0
 19 18  1  0
 20 19  2  0
 21 15  2  0
 22 21  1  0
 22 17  2  0
 23 16  1  0
 24 14  1  0
 26 28  2  0
 27 26  1  0
 29 27  1  0
 30 39  2  0
 30 35  1  0
 31 27  1  0
 31 35  1  0
 32 31  1  0
 33 34  1  0
 33 32  1  0
 34 30  1  0
 35 36  2  0
 36 37  1  0
 38 37  2  0
 39 38  1  0
 40 14  1  0
 40 45  1  0
 40 41  1  0
 41 44  1  1
 41 42  1  0
 43 41  1  0
 45 48  1  0
 46 50  1  0
 46 45  1  0
 47 46  2  0
 50 49  1  0
 52 50  1  0
 52 53  1  0
 52 51  1  0
 56 61  1  0
 57 58  1  0
 57 56  1  0
 59 58  1  0
 59 68  1  0
 59 60  1  0
 61 55  1  0
 61 60  1  0
 62 55  2  0
 63 55  1  0
 63 54  1  0
 64 63  1  0
 65 66  2  0
 66 85  1  0
 67 66  1  0
 67 70  1  0
 68 65  1  0
 68 69  1  0
 69 67  2  0
 70 71  1  0
 71 72  2  0
 73 76  1  0
 73 72  1  0
 74 73  2  0
 75 74  1  0
 75 70  2  0
 76 77  1  0
 77 78  1  0
 78 79  2  0
 80 79  1  0
 80 84  1  0
 81 80  2  0
 82 77  2  0
 82 81  1  0
 83 82  1  0
 85 86  1  0
 86 89  1  0
 86 88  1  0
 87 85  2  0
 90 91  1  0
 90 65  1  0
 92 90  1  0
M  ISO  4  12 101  13 101  55 100  63 100
M  END
>  <TORSDO>  (83) 
F 20

>  <SCORE>  (83) 
-16.225

>  <name>  (83) 
82

>  <ligand_id>  (83) 
82

>  <original_smiles>  (83) 
[H]c1c([H])c([H])c2c(c1[H])C([H])([H])C([H])([H])C([H])([H])C2([H])N([H])C(=O)C1([H])N(C(=O)C([H])(N([H])C(=O)C([H])(N([H])C([H])([H])[H])C([H])([H])[H])C(C([H])([H])[H])(C([H])([H])[H])C([H])([H])[H])C([H])([H])c2c([H])c(OC([H])([H])C(F)(F)c3c([H])c(C([H])(C([H])([H])[H])C([H])([H])[H])c([H])n3C([H])([H])N([H])C(=O)N3C([H])([H])C([H])([H])C([H])([H])C([H])(n4nc(-c5c([H])c([H])c(Oc6c([H])c([H])c(F)c([H])c6F)c([H])c5[H])c(C(=O)N([H])[H])c4N([H])[H])C3([H])[H])c([H])c([H])c2C1([H])[H]

>  <smiles>  (83) 
[H]c1c([H])c([H])c2c(c1[H])C([H])([H])C([H])([H])C([H])([H])C2([H])N([H])C(=O)C1([H])N(C(=O)C([H])(N([H])C(=O)C([H])(N([H])C([H])([H])[H])C([H])([H])[H])C(C([H])([H])[H])(C([H])([H])[H])C([H])([H])[H])C([H])([H])c2c([H])c(OC([H])([H])C(F)(F)c3c([H])c(C([H])(C([H])([H])[H])C([H])([H])[H])c([H])n3C([H])([H])N([H])C(=O)N3C([H])([H])C([H])([H])C([H])([H])C([H])(n4nc(-c5c([H])c([H])c(Oc6c([H])c([H])c(F)c([H])c6F)c([H])c5[H])c(C(=O)N([H])[H])c4N([H])[H])C3([H])[H])c([H])c([H])c2C1([H])[H]

$$$$
83:0:0
     RDKit          3D

 93101  0  0  1  0  0  0  0  0999 V2000
  -30.4360  -20.6620   19.0640 C   0  0  0  0  0  3  0  0  0  0  0  0
  -30.5490  -21.5140   21.0340 C   0  0  0  0  0  3  0  0  0  0  0  0
  -30.3070  -21.9730   19.7610 C   0  0  0  0  0  0  0  0  0  0  0  0
  -30.8260  -19.5250   19.8290 C   0  0  0  0  0  0  0  0  0  0  0  0
  -30.8810  -20.1240   21.1150 N   0  0  0  0  0  0  0  0  0  0  0  0
  -31.4220  -20.4450   23.5500 C   0  0  0  0  0  1  0  0  0  0  0  0
  -32.5680  -18.6970   22.2530 C   0  0  0  0  0  1  0  0  0  0  0  0
  -30.0680  -18.5040   22.7750 C   0  0  0  0  0  1  0  0  0  0  0  0
  -31.2240  -19.4450   22.3840 C   0  0  2  0  0  0  0  0  0  0  0  0
  -31.3010  -17.9900   19.3350 C   0  0  0  0  0  2  0  0  0  0  0  0
  -31.6220  -15.2760   19.6600 C   0  0  0  0  0  0  0  0  0  0  0  0
  -31.4520  -12.8300   18.9700 C   0  0  0  0  0  2  0  0  0  0  0  0
  -30.4390  -12.6320   17.8180 C   0  0  0  0  0  2  0  0  0  0  0  0
  -29.0140  -12.4570   18.3700 C   0  0  0  0  0  2  0  0  0  0  0  0
  -28.6730  -13.4980   19.4680 C   0  0  0  0  0  3  0  0  0  0  0  0
  -29.8040  -13.6490   20.5090 C   0  0  0  0  0  2  0  0  0  0  0  0
  -31.0200  -14.0160   19.7730 N   0  0  0  0  0  0  0  0  0  0  0  0
  -32.7970  -15.2820   19.2760 O   0  0  0  0  0  0  0  0  0  0  0  0
  -30.8920  -16.5080   19.7650 N   0  0  0  0  0  0  0  0  0  0  0  0
  -29.9400  -16.4110   20.0770 H   0  0  0  0  0  0  0  0  0  0  0  0
  -26.4400  -14.1520   20.5250 C   0  0  0  0  0  0  0  0  0  0  0  0
  -25.3670  -13.4160   20.9430 C   0  0  0  0  0  0  0  0  0  0  0  0
  -25.7210  -12.0480   20.7340 C   0  0  0  0  0  0  0  0  0  0  0  0
  -27.3820  -13.2370   20.0890 N   0  0  0  0  0  0  0  0  0  0  0  0
  -26.9660  -11.9570   20.2790 N   0  0  0  0  0  0  0  0  0  0  0  0
  -24.9220  -10.8250   20.8880 C   0  0  0  0  0  0  0  0  0  0  0  0
  -25.2620   -9.8300   21.8330 C   0  0  0  0  0  3  0  0  0  0  0  0
  -24.4620   -8.6760   21.9750 C   0  0  0  0  0  3  0  0  0  0  0  0
  -23.3090   -8.5060   21.1720 C   0  0  0  0  0  0  0  0  0  0  0  0
  -22.9880   -9.4870   20.2190 C   0  0  0  0  0  3  0  0  0  0  0  0
  -23.7890  -10.6330   20.0740 C   0  0  0  0  0  3  0  0  0  0  0  0
  -22.4890   -7.4060   21.2250 O   0  0  0  0  0  0  0  0  0  0  0  0
  -22.1750   -6.7980   22.4130 C   0  0  0  0  0  0  0  0  0  0  0  0
  -21.5510   -7.5000   23.4670 C   0  0  0  0  0  3  0  0  0  0  0  0
  -21.1810   -6.8210   24.6430 C   0  0  0  0  0  3  0  0  0  0  0  0
  -21.4250   -5.4400   24.7670 C   0  0  0  0  0  0  0  0  0  0  0  0
  -22.0410   -4.7380   23.7170 C   0  0  0  0  0  3  0  0  0  0  0  0
  -22.4100   -5.4140   22.5400 C   0  0  0  0  0  0  0  0  0  0  0  0
  -22.9840   -4.7280   21.5240 F   0  0  0  0  0  0  0  0  0  0  0  0
  -21.0630   -4.7860   25.8940 F   0  0  0  0  0  0  0  0  0  0  0  0
  -24.0500  -13.9570   21.4120 C   0  0  0  0  0  0  0  0  0  0  0  0
  -23.3820  -13.2470   22.3140 N   0  0  0  0  0  0  0  0  0  0  0  0
  -23.6280  -15.0440   21.0170 O   0  0  0  0  0  0  0  0  0  0  0  0
  -23.7390  -12.3640   22.6480 H   0  0  0  0  0  0  0  0  0  0  0  0
  -22.5050  -13.5910   22.6760 H   0  0  0  0  0  0  0  0  0  0  0  0
  -26.6840  -15.5210   20.4540 N   0  0  0  0  0  0  0  0  0  0  0  0
  -25.9740  -16.2000   20.7040 H   0  0  0  0  0  0  0  0  0  0  0  0
  -27.4970  -15.9420   20.0280 H   0  0  0  0  0  0  0  0  0  0  0  0
  -30.1190  -23.5750   19.2410 C   0  0  0  0  0  3  0  0  0  0  0  0
  -31.6460  -23.4160   17.1210 C   0  0  0  0  0  1  0  0  0  0  0  0
  -30.2410  -23.6680   17.7020 C   0  0  0  0  0  2  0  0  0  0  0  0
  -28.9450  -24.7230   19.6940 C   0  0  0  0  0  2  0  0  0  0  0  0
  -29.0190  -26.2820   19.4880 O   0  0  0  0  0  0  0  0  0  0  0  0
  -24.9300  -31.3650   22.9700 C   0  0  0  0  0  0  0  0  0  0  0  0
  -27.8650  -27.1600   19.5330 C   0  0  0  0  0  0  0  0  0  0  0  0
  -23.8250  -30.0070   21.2350 C   0  0  0  0  0  3  0  0  0  0  0  0
  -25.3840  -28.6900   19.6670 C   0  0  0  0  0  0  0  0  0  0  0  0
  -26.3430  -30.5150   21.0630 C   0  0  0  0  0  2  0  0  0  0  0  0
  -26.5310  -29.1930   20.2920 C   0  0  0  0  0  0  0  0  0  0  0  0
  -27.7680  -28.4450   20.2110 C   0  0  0  0  0  3  0  0  0  0  0  0
  -26.6800  -26.7630   18.8770 C   0  0  0  0  0  3  0  0  0  0  0  0
  -25.4700  -27.4910   18.9430 C   0  0  0  0  0  3  0  0  0  0  0  0
  -24.0800  -29.4650   19.8030 C   0  0  0  0  0  2  0  0  0  0  0  0
  -25.0510  -30.6490   21.8100 N   0  0  0  0  0  0  0  0  0  0  0  0
  -23.8350  -31.5070   23.5350 O   0  0  0  0  0  0  0  0  0  0  0  0
  -23.2580  -28.8680   22.1200 C   0  0  0  0  0  0  0  0  0  0  0  0
  -21.9650  -28.5410   21.9510 N   0  0  0  0  0  0  0  0  0  0  0  0
  -23.9860  -28.2820   22.9260 O   0  0  0  0  0  0  0  0  0  0  0  0
  -21.4250  -29.0750   21.2860 H   0  0  0  0  0  0  0  0  0  0  0  0
  -18.7650  -26.8670   22.2490 C   0  0  0  0  0  0  0  0  0  0  0  0
  -21.2510  -27.4650   22.6450 C   0  0  0  0  0  3  0  0  0  0  0  0
  -21.5750  -26.0900   22.0200 C   0  0  0  0  0  2  0  0  0  0  0  0
  -20.5700  -25.6660   20.9460 C   0  0  0  0  0  2  0  0  0  0  0  0
  -19.1530  -25.5880   21.5270 C   0  0  0  0  0  2  0  0  0  0  0  0
  -19.7510  -27.7560   22.7580 C   0  0  0  0  0  0  0  0  0  0  0  0
  -19.3350  -28.9460   23.3930 C   0  0  0  0  0  3  0  0  0  0  0  0
  -17.9680  -29.2540   23.5230 C   0  0  0  0  0  3  0  0  0  0  0  0
  -16.9980  -28.3640   23.0340 C   0  0  0  0  0  3  0  0  0  0  0  0
  -17.3970  -27.1720   22.4010 C   0  0  0  0  0  3  0  0  0  0  0  0
  -26.1560  -32.0610   23.6310 C   0  0  0  0  0  3  0  0  0  0  0  0
  -25.7220  -33.3850   24.1050 N   0  0  0  0  0  0  0  0  0  0  0  0
  -25.9140  -34.5350   23.4460 C   0  0  0  0  0  0  0  0  0  0  0  0
  -26.5410  -34.5990   22.3850 O   0  0  0  0  0  0  0  0  0  0  0  0
  -25.1560  -33.4000   24.9420 H   0  0  0  0  0  0  0  0  0  0  0  0
  -23.9850  -36.1510   23.3610 C   0  0  0  0  0  1  0  0  0  0  0  0
  -25.3150  -35.8190   24.0560 C   0  0  0  0  0  3  0  0  0  0  0  0
  -27.3900  -36.8650   24.8480 C   0  0  0  0  0  1  0  0  0  0  0  0
  -26.2210  -36.9850   23.9820 N   0  0  0  0  0  0  0  0  0  0  0  0
  -25.7310  -37.8400   24.2360 H   0  0  0  0  0  0  0  0  0  0  0  0
  -26.7800  -31.2290   24.8200 C   0  0  1  0  0  0  0  0  0  0  0  0
  -25.7440  -30.7930   25.8830 C   0  0  0  0  0  1  0  0  0  0  0  0
  -27.4840  -29.9570   24.2970 C   0  0  0  0  0  1  0  0  0  0  0  0
  -27.8660  -32.0710   25.5330 C   0  0  0  0  0  1  0  0  0  0  0  0
  1  3  1  0
  1  4  2  0
  2  5  1  0
  3  2  2  0
  4  5  1  0
  5  9  1  0
  9  7  1  6
  9  8  1  0
  9  6  1  0
 10 19  1  0
 10  4  1  0
 11 19  1  0
 11 17  1  0
 12 17  1  0
 13 14  1  0
 13 12  1  0
 15 14  1  0
 15 24  1  0
 15 16  1  0
 17 16  1  0
 18 11  2  0
 19 20  1  0
 21 22  2  0
 22 41  1  0
 23 26  1  0
 23 22  1  0
 24 25  1  0
 24 21  1  0
 25 23  2  0
 26 27  1  0
 27 28  2  0
 29 32  1  0
 29 28  1  0
 30 29  2  0
 31 30  1  0
 31 26  2  0
 32 33  1  0
 33 38  2  0
 33 34  1  0
 34 35  2  0
 35 36  1  0
 36 40  1  0
 37 36  2  0
 38 37  1  0
 39 38  1  0
 41 42  1  0
 42 44  1  0
 42 45  1  0
 43 41  2  0
 46 21  1  0
 46 47  1  0
 48 46  1  0
 49 51  1  0
 49 52  1  0
 49  3  1  0
 50 51  1  0
 53 55  1  0
 53 52  1  0
 54 65  2  0
 55 60  1  0
 56 64  1  0
 56 66  1  0
 57 63  1  0
 57 59  1  0
 58 64  1  0
 59 58  1  0
 60 59  2  0
 61 62  1  0
 61 55  2  0
 62 57  2  0
 63 56  1  0
 64 54  1  0
 66 68  2  0
 67 66  1  0
 69 67  1  0
 70 79  2  0
 70 75  1  0
 71 67  1  0
 71 75  1  0
 72 71  1  0
 73 74  1  0
 73 72  1  0
 74 70  1  0
 75 76  2  0
 76 77  1  0
 78 77  2  0
 79 78  1  0
 80 54  1  0
 80 81  1  0
 80 90  1  0
 81 84  1  0
 82 86  1  0
 82 81  1  0
 83 82  2  0
 86 85  1  0
 88 86  1  0
 88 89  1  0
 88 87  1  0
 90 93  1  1
 90 91  1  0
 92 90  1  0
M  ISO  4  11 100  19 100  52 101  53 101
M  END
>  <TORSDO>  (84) 
F 21

>  <SCORE>  (84) 
-9.684

>  <name>  (84) 
83

>  <ligand_id>  (84) 
83

>  <original_smiles>  (84) 
[H]c1c([H])c([H])c2c(c1[H])C([H])([H])C([H])([H])C([H])([H])C2([H])N([H])C(=O)C1([H])N(C(=O)C([H])(N([H])C(=O)C([H])(N([H])C([H])([H])[H])C([H])([H])[H])C(C([H])([H])[H])(C([H])([H])[H])C([H])([H])[H])C([H])([H])c2c([H])c(OC([H])([H])C([H])(c3c([H])c(C([H])([H])N([H])C(=O)N4C([H])([H])C([H])([H])C([H])([H])C([H])(n5nc(-c6c([H])c([H])c(Oc7c([H])c([H])c(F)c([H])c7F)c([H])c6[H])c(C(=O)N([H])[H])c5N([H])[H])C4([H])[H])n(C(C([H])([H])[H])(C([H])([H])[H])C([H])([H])[H])c3[H])C([H])([H])C([H])([H])[H])c([H])c([H])c2C1([H])[H]

>  <smiles>  (84) 
[H]c1c([H])c([H])c2c(c1[H])C([H])([H])C([H])([H])C([H])([H])C2([H])N([H])C(=O)C1([H])N(C(=O)C([H])(N([H])C(=O)C([H])(N([H])C([H])([H])[H])C([H])([H])[H])C(C([H])([H])[H])(C([H])([H])[H])C([H])([H])[H])C([H])([H])c2c([H])c(OC([H])([H])C([H])(c3c([H])c(C([H])([H])N([H])C(=O)N4C([H])([H])C([H])([H])C([H])([H])C([H])(n5nc(-c6c([H])c([H])c(Oc7c([H])c([H])c(F)c([H])c7F)c([H])c6[H])c(C(=O)N([H])[H])c5N([H])[H])C4([H])[H])n(C(C([H])([H])[H])(C([H])([H])[H])C([H])([H])[H])c3[H])C([H])([H])C([H])([H])[H])c([H])c([H])c2C1([H])[H]

$$$$
84:0:0
     RDKit          3D

101109  0  0  1  0  0  0  0  0999 V2000
  -30.8320  -23.1350   16.1550 N   0  0  0  0  0  4  0  0  0  0  0  0
  -31.0090  -24.0600   16.5150 H   0  0  0  0  0  0  0  0  0  0  0  0
  -31.6780  -22.6060   16.2870 H   0  0  0  0  0  0  0  0  0  0  0  0
  -30.5870  -21.9370   13.9630 C   0  0  0  0  0  2  0  0  0  0  0  0
  -32.0650  -21.6060   13.7540 C   0  0  0  0  0  2  0  0  0  0  0  0
  -31.7970  -23.9780   14.0320 C   0  0  0  0  0  2  0  0  0  0  0  0
  -30.6060  -23.2790   14.6980 C   0  0  0  0  0  3  0  0  0  0  0  0
  -32.7300  -22.9050   13.6540 N   0  0  0  0  0  0  0  0  0  0  0  0
  -33.4770  -23.1430   12.4070 C   0  0  0  0  0  2  0  0  0  0  0  0
  -32.9350  -24.8320   10.5030 C   0  0  0  0  0  1  0  0  0  0  0  0
  -33.5180  -24.6150   11.9060 C   0  0  0  0  0  3  0  0  0  0  0  0
  -34.8970  -24.9890   11.8200 O   0  0  0  0  0  0  0  0  0  0  0  0
  -41.0790  -26.7390   14.8320 C   0  0  0  0  0  0  0  0  0  0  0  0
  -35.4990  -25.6150   12.8910 C   0  0  0  0  0  0  0  0  0  0  0  0
  -39.0700  -27.1080   16.2260 C   0  0  0  0  0  3  0  0  0  0  0  0
  -36.8350  -26.9100   15.0210 C   0  0  0  0  0  0  0  0  0  0  0  0
  -38.9210  -27.1900   13.6740 C   0  0  0  0  0  2  0  0  0  0  0  0
  -37.4940  -26.7010   13.8030 C   0  0  0  0  0  0  0  0  0  0  0  0
  -36.8330  -26.0510   12.7400 C   0  0  0  0  0  3  0  0  0  0  0  0
  -34.8390  -25.8630   14.1190 C   0  0  0  0  0  3  0  0  0  0  0  0
  -35.5060  -26.4890   15.1850 C   0  0  0  0  0  3  0  0  0  0  0  0
  -37.6070  -27.6130   16.1110 C   0  0  0  0  0  2  0  0  0  0  0  0
  -39.7380  -26.9780   14.8920 N   0  0  0  0  0  0  0  0  0  0  0  0
  -41.7620  -26.6650   15.8620 O   0  0  0  0  0  0  0  0  0  0  0  0
  -39.0740  -25.7940   17.0420 C   0  0  0  0  0  0  0  0  0  0  0  0
  -38.8240  -25.9060   18.3560 N   0  0  0  0  0  0  0  0  0  0  0  0
  -39.2740  -24.7080   16.4910 O   0  0  0  0  0  0  0  0  0  0  0  0
  -38.6820  -26.8330   18.7330 H   0  0  0  0  0  0  0  0  0  0  0  0
  -37.7850  -25.0320   21.7040 C   0  0  0  0  0  0  0  0  0  0  0  0
  -38.7420  -24.8040   19.3130 C   0  0  0  0  0  3  0  0  0  0  0  0
  -37.5200  -23.9020   19.0200 C   0  0  0  0  0  2  0  0  0  0  0  0
  -36.2710  -24.3020   19.8110 C   0  0  0  0  0  2  0  0  0  0  0  0
  -36.5480  -24.2410   21.3160 C   0  0  0  0  0  2  0  0  0  0  0  0
  -38.8090  -25.3100   20.7590 C   0  0  0  0  0  0  0  0  0  0  0  0
  -39.9220  -26.0800   21.1600 C   0  0  0  0  0  3  0  0  0  0  0  0
  -40.0240  -26.5640   22.4780 C   0  0  0  0  0  3  0  0  0  0  0  0
  -39.0170  -26.2720   23.4140 C   0  0  0  0  0  3  0  0  0  0  0  0
  -37.9030  -25.5050   23.0280 C   0  0  0  0  0  3  0  0  0  0  0  0
  -41.8200  -26.5700   13.4680 C   0  0  0  0  0  3  0  0  0  0  0  0
  -42.2590  -25.0820   13.1790 C   0  0  1  0  0  0  0  0  0  0  0  0
  -43.6030  -24.6920   13.8360 C   0  0  0  0  0  1  0  0  0  0  0  0
  -41.1830  -24.0890   13.6770 C   0  0  0  0  0  1  0  0  0  0  0  0
  -42.3920  -24.8610   11.6530 C   0  0  0  0  0  1  0  0  0  0  0  0
  -42.9870  -27.4630   13.4850 N   0  0  0  0  0  0  0  0  0  0  0  0
  -42.9830  -28.7260   13.0390 C   0  0  0  0  0  0  0  0  0  0  0  0
  -42.0040  -29.2430   12.4930 O   0  0  0  0  0  0  0  0  0  0  0  0
  -43.8080  -27.1250   13.9630 H   0  0  0  0  0  0  0  0  0  0  0  0
  -44.0880  -30.5430   14.3800 C   0  0  0  0  0  1  0  0  0  0  0  0
  -44.2730  -29.5470   13.2240 C   0  0  0  0  0  3  0  0  0  0  0  0
  -45.1810  -29.3890   10.9500 C   0  0  0  0  0  1  0  0  0  0  0  0
  -44.6910  -30.2730   12.0050 N   0  0  0  0  0  0  0  0  0  0  0  0
  -45.4230  -30.9450   12.2180 H   0  0  0  0  0  0  0  0  0  0  0  0
  -29.6940  -22.5760   16.9270 C   0  0  0  0  0  2  0  0  0  0  0  0
  -28.0430  -23.1770   18.8030 C   0  0  0  0  0  1  0  0  0  0  0  0
  -28.8040  -23.6800   17.5560 C   0  0  0  0  0  3  0  0  0  0  0  0
  -29.5460  -25.0260   17.8000 C   0  0  0  0  0  2  0  0  0  0  0  0
  -30.4570  -25.0250   18.9750 N   0  0  0  0  0  4  0  0  0  0  0  0
  -31.0310  -24.1960   18.9430 H   0  0  0  0  0  0  0  0  0  0  0  0
  -29.9090  -24.9510   19.8170 H   0  0  0  0  0  0  0  0  0  0  0  0
  -31.4020  -26.1660   19.1250 C   0  0  0  0  0  2  0  0  0  0  0  0
  -31.4920  -28.2210   20.6330 C   0  0  0  0  0  1  0  0  0  0  0  0
  -30.6800  -26.0700   21.6280 C   0  0  0  0  0  1  0  0  0  0  0  0
  -31.6520  -26.6850   20.5880 C   0  0  1  0  0  0  0  0  0  0  0  0
  -34.0190  -27.3320   21.4040 C   0  0  0  0  0  0  0  0  0  0  0  0
  -36.2820  -27.9840   20.6550 C   0  0  0  0  0  2  0  0  0  0  0  0
  -36.4680  -29.5040   20.4980 C   0  0  0  0  0  2  0  0  0  0  0  0
  -36.0030  -29.9750   19.1070 C   0  0  0  0  0  2  0  0  0  0  0  0
  -34.5880  -29.4530   18.7610 C   0  0  0  0  0  3  0  0  0  0  0  0
  -34.5070  -27.9300   19.0020 C   0  0  0  0  0  2  0  0  0  0  0  0
  -34.8750  -27.6410   20.3960 N   0  0  0  0  0  0  0  0  0  0  0  0
  -34.3100  -27.4650   22.5970 O   0  0  0  0  0  0  0  0  0  0  0  0
  -33.0370  -26.4720   21.0710 N   0  0  0  0  0  0  0  0  0  0  0  0
  -33.0140  -25.7610   21.7870 H   0  0  0  0  0  0  0  0  0  0  0  0
  -32.9810  -30.2620   16.9170 C   0  0  0  0  0  0  0  0  0  0  0  0
  -33.1710  -30.4930   15.5790 C   0  0  0  0  0  0  0  0  0  0  0  0
  -34.5320  -30.1520   15.3090 C   0  0  0  0  0  0  0  0  0  0  0  0
  -34.1990  -29.8020   17.3970 N   0  0  0  0  0  0  0  0  0  0  0  0
  -35.1170  -29.6860   16.4040 N   0  0  0  0  0  0  0  0  0  0  0  0
  -35.3300  -30.2980   14.0870 C   0  0  0  0  0  0  0  0  0  0  0  0
  -35.0640  -29.5220   12.9370 C   0  0  0  0  0  3  0  0  0  0  0  0
  -35.8330  -29.6910   11.7660 C   0  0  0  0  0  3  0  0  0  0  0  0
  -36.8800  -30.6430   11.7350 C   0  0  0  0  0  0  0  0  0  0  0  0
  -37.1570  -31.3940   12.8910 C   0  0  0  0  0  3  0  0  0  0  0  0
  -36.3910  -31.2240   14.0570 C   0  0  0  0  0  3  0  0  0  0  0  0
  -37.6980  -30.8560   10.6520 O   0  0  0  0  0  0  0  0  0  0  0  0
  -37.3110  -31.6560    9.6070 C   0  0  0  0  0  0  0  0  0  0  0  0
  -37.3910  -33.0650    9.6770 C   0  0  0  0  0  3  0  0  0  0  0  0
  -37.0500  -33.8440    8.5530 C   0  0  0  0  0  3  0  0  0  0  0  0
  -36.6370  -33.2210    7.3600 C   0  0  0  0  0  0  0  0  0  0  0  0
  -36.5620  -31.8190    7.2890 C   0  0  0  0  0  3  0  0  0  0  0  0
  -36.9000  -31.0390    8.4090 C   0  0  0  0  0  0  0  0  0  0  0  0
  -36.8450  -29.6880    8.3270 F   0  0  0  0  0  0  0  0  0  0  0  0
  -36.3180  -33.9690    6.2780 F   0  0  0  0  0  0  0  0  0  0  0  0
  -32.1810  -31.0960   14.6250 C   0  0  0  0  0  0  0  0  0  0  0  0
  -31.4210  -30.2670   13.9200 N   0  0  0  0  0  0  0  0  0  0  0  0
  -32.0460  -32.3170   14.5370 O   0  0  0  0  0  0  0  0  0  0  0  0
  -31.5130  -29.2670   14.0100 H   0  0  0  0  0  0  0  0  0  0  0  0
  -30.7280  -30.6390   13.2860 H   0  0  0  0  0  0  0  0  0  0  0  0
  -31.8880  -30.4180   17.7650 N   0  0  0  0  0  0  0  0  0  0  0  0
  -31.1360  -30.9900   17.3970 H   0  0  0  0  0  0  0  0  0  0  0  0
  -32.0920  -30.6540   18.7280 H   0  0  0  0  0  0  0  0  0  0  0  0
  1  3  1  0
  1  2  1  0
  1 53  1  0
  4  7  1  0
  5  4  1  0
  6  7  1  0
  7  1  1  0
  8  5  1  0
  8  6  1  0
  9  8  1  0
 11 10  1  0
 11  9  1  0
 12 11  1  0
 12 14  1  0
 13 23  1  0
 13 24  2  0
 14 20  1  0
 15 25  1  0
 16 21  1  0
 16 22  1  0
 17 18  1  0
 17 23  1  0
 18 16  2  0
 19 14  2  0
 19 18  1  0
 20 21  2  0
 22 15  1  0
 23 15  1  0
 25 26  1  0
 26 28  1  0
 27 25  2  0
 29 38  1  0
 30 26  1  0
 30 34  1  0
 31 30  1  0
 31 32  1  0
 32 33  1  0
 33 29  1  0
 34 35  1  0
 34 29  2  0
 35 36  2  0
 36 37  1  0
 38 37  2  0
 39 44  1  0
 39 13  1  0
 40 39  1  0
 40 42  1  1
 40 41  1  0
 43 40  1  0
 44 47  1  0
 45 49  1  0
 45 44  1  0
 46 45  2  0
 49 48  1  0
 50 51  1  0
 51 52  1  0
 51 49  1  0
 53 55  1  0
 55 56  1  0
 55 54  1  0
 56 57  1  0
 57 60  1  0
 57 59  1  0
 58 57  1  0
 60 63  1  0
 63 61  1  6
 63 72  1  0
 63 62  1  0
 64 71  2  0
 66 65  1  0
 67 66  1  0
 68 77  1  0
 68 69  1  0
 68 67  1  0
 69 70  1  0
 70 65  1  0
 70 64  1  0
 72 64  1  0
 72 73  1  0
 74 77  1  0
 74 99  1  0
 75 74  2  0
 76 75  1  0
 76 78  2  0
 78 77  1  0
 79 76  1  0
 80 79  2  0
 81 80  1  0
 82 81  2  0
 82 83  1  0
 83 84  2  0
 84 79  1  0
 85 82  1  0
 86 87  1  0
 86 85  1  0
 88 87  2  0
 89 88  1  0
 90 89  2  0
 90 91  1  0
 91 86  2  0
 92 91  1  0
 93 89  1  0
 94 75  1  0
 95 97  1  0
 95 94  1  0
 96 94  2  0
 98 95  1  0
 99101  1  0
100 99  1  0
M  ISO  4  11 101  12 101  64 100  72 100
M  END
>  <TORSDO>  (85) 
F 25

>  <SCORE>  (85) 
-2.109

>  <name>  (85) 
84

>  <ligand_id>  (85) 
84

>  <original_smiles>  (85) 
[H]c1c([H])c([H])c2c(c1[H])C([H])([H])C([H])([H])C([H])([H])C2([H])N([H])C(=O)C1([H])N(C(=O)C([H])(N([H])C(=O)C([H])(N([H])C([H])([H])[H])C([H])([H])[H])C(C([H])([H])[H])(C([H])([H])[H])C([H])([H])[H])C([H])([H])c2c([H])c(OC([H])(C([H])([H])[H])C([H])([H])N3C([H])([H])C([H])([H])C([H])([N+]([H])([H])C([H])([H])C([H])(C([H])([H])[H])C([H])([H])[N+]([H])([H])C([H])([H])C(N([H])C(=O)N4C([H])([H])C([H])([H])C([H])([H])C([H])(n5nc(-c6c([H])c([H])c(Oc7c([H])c([H])c(F)c([H])c7F)c([H])c6[H])c(C(=O)N([H])[H])c5N([H])[H])C4([H])[H])(C([H])([H])[H])C([H])([H])[H])C3([H])[H])c([H])c([H])c2C1([H])[H]

>  <smiles>  (85) 
[H]c1c([H])c([H])c2c(c1[H])C([H])([H])C([H])([H])C([H])([H])C2([H])N([H])C(=O)C1([H])N(C(=O)C([H])(N([H])C(=O)C([H])(N([H])C([H])([H])[H])C([H])([H])[H])C(C([H])([H])[H])(C([H])([H])[H])C([H])([H])[H])C([H])([H])c2c([H])c(OC([H])(C([H])([H])[H])C([H])([H])N3C([H])([H])C([H])([H])C([H])([N+]([H])([H])C([H])([H])C([H])(C([H])([H])[H])C([H])([H])[N+]([H])([H])C([H])([H])C(N([H])C(=O)N4C([H])([H])C([H])([H])C([H])([H])C([H])(n5nc(-c6c([H])c([H])c(Oc7c([H])c([H])c(F)c([H])c7F)c([H])c6[H])c(C(=O)N([H])[H])c5N([H])[H])C4([H])[H])(C([H])([H])[H])C([H])([H])[H])C3([H])[H])c([H])c([H])c2C1([H])[H]

$$$$
85:0:0
     RDKit          3D

 94102  0  0  1  0  0  0  0  0999 V2000
  -28.7270  -21.3400   20.8620 C   0  0  0  0  0  3  0  0  0  0  0  0
  -30.3770  -21.9820   19.5810 C   0  0  0  0  0  3  0  0  0  0  0  0
  -29.2600  -22.5220   20.2540 C   0  0  0  0  0  0  0  0  0  0  0  0
  -29.3930  -20.2010   20.4870 C   0  0  0  0  0  0  0  0  0  0  0  0
  -30.4870  -20.5470   19.7010 N   0  0  0  0  0  0  0  0  0  0  0  0
  -27.5690  -18.5110   20.2850 C   0  0  0  0  0  1  0  0  0  0  0  0
  -29.1480  -18.4560   22.2840 C   0  0  0  0  0  1  0  0  0  0  0  0
  -28.9970  -18.7860   20.7890 C   0  0  0  0  0  3  0  0  0  0  0  0
  -28.7310  -24.2990   22.0030 C   0  0  0  0  0  1  0  0  0  0  0  0
  -27.0180  -23.7740   20.2860 C   0  0  0  0  0  1  0  0  0  0  0  0
  -28.5410  -23.9650   20.5070 C   0  0  2  0  0  0  0  0  0  0  0  0
  -28.6880  -25.2440   18.1860 C   0  0  0  0  0  1  0  0  0  0  0  0
  -28.9330  -25.3230   19.7090 C   0  0  0  0  0  3  0  0  0  0  0  0
  -28.7320  -26.6960   20.3380 O   0  0  0  0  0  0  0  0  0  0  0  0
  -24.8590  -31.9720   23.4830 C   0  0  0  0  0  0  0  0  0  0  0  0
  -27.5890  -27.5300   20.2940 C   0  0  0  0  0  0  0  0  0  0  0  0
  -23.7130  -30.6280   21.7610 C   0  0  0  0  0  3  0  0  0  0  0  0
  -25.2130  -29.1570   20.2960 C   0  0  0  0  0  0  0  0  0  0  0  0
  -26.2560  -30.9740   21.6440 C   0  0  0  0  0  2  0  0  0  0  0  0
  -26.3670  -29.6230   20.9400 C   0  0  0  0  0  0  0  0  0  0  0  0
  -27.5530  -28.8230   20.9230 C   0  0  0  0  0  3  0  0  0  0  0  0
  -26.4090  -27.1350   19.6330 C   0  0  0  0  0  3  0  0  0  0  0  0
  -25.2410  -27.9230   19.6320 C   0  0  0  0  0  3  0  0  0  0  0  0
  -23.9650  -30.0200   20.3560 C   0  0  0  0  0  2  0  0  0  0  0  0
  -24.9630  -31.2070   22.3550 N   0  0  0  0  0  0  0  0  0  0  0  0
  -23.7600  -32.2120   24.0030 O   0  0  0  0  0  0  0  0  0  0  0  0
  -23.0440  -29.5640   22.6610 C   0  0  0  0  0  0  0  0  0  0  0  0
  -21.7340  -29.3360   22.4600 N   0  0  0  0  0  0  0  0  0  0  0  0
  -23.7020  -28.9480   23.5010 O   0  0  0  0  0  0  0  0  0  0  0  0
  -21.2570  -29.8870   21.7600 H   0  0  0  0  0  0  0  0  0  0  0  0
  -18.4050  -27.9420   22.7090 C   0  0  0  0  0  0  0  0  0  0  0  0
  -20.9190  -28.3470   23.1670 C   0  0  0  0  0  3  0  0  0  0  0  0
  -21.1440  -26.9280   22.5940 C   0  0  0  0  0  2  0  0  0  0  0  0
  -20.1400  -26.5560   21.4990 C   0  0  0  0  0  2  0  0  0  0  0  0
  -18.7090  -26.6130   22.0420 C   0  0  0  0  0  2  0  0  0  0  0  0
  -19.4430  -28.7640   23.2250 C   0  0  0  0  0  0  0  0  0  0  0  0
  -19.1100  -30.0070   23.8060 C   0  0  0  0  0  3  0  0  0  0  0  0
  -17.7690  -30.4290   23.8790 C   0  0  0  0  0  3  0  0  0  0  0  0
  -16.7450  -29.6060   23.3820 C   0  0  0  0  0  3  0  0  0  0  0  0
  -17.0620  -28.3650   22.8020 C   0  0  0  0  0  3  0  0  0  0  0  0
  -26.1170  -32.5970   24.1630 C   0  0  0  0  0  3  0  0  0  0  0  0
  -25.8140  -34.0040   24.4590 N   0  0  0  0  0  0  0  0  0  0  0  0
  -26.1730  -35.0390   23.6900 C   0  0  0  0  0  0  0  0  0  0  0  0
  -26.8670  -34.9110   22.6770 O   0  0  0  0  0  0  0  0  0  0  0  0
  -25.2120  -34.1810   25.2500 H   0  0  0  0  0  0  0  0  0  0  0  0
  -24.4600  -36.8300   23.2680 C   0  0  0  0  0  1  0  0  0  0  0  0
  -25.6860  -36.4400   24.1080 C   0  0  0  0  0  3  0  0  0  0  0  0
  -27.8140  -37.3310   24.9480 C   0  0  0  0  0  1  0  0  0  0  0  0
  -26.7260  -37.4850   23.9860 N   0  0  0  0  0  0  0  0  0  0  0  0
  -26.3230  -38.4100   24.1110 H   0  0  0  0  0  0  0  0  0  0  0  0
  -26.5540  -31.8400   25.4770 C   0  0  1  0  0  0  0  0  0  0  0  0
  -25.3920  -31.5900   26.4670 C   0  0  0  0  0  1  0  0  0  0  0  0
  -27.1860  -30.4710   25.1340 C   0  0  0  0  0  1  0  0  0  0  0  0
  -27.6460  -32.6530   26.2110 C   0  0  0  0  0  1  0  0  0  0  0  0
  -31.4200  -19.5300   18.9980 C   0  0  0  0  0  2  0  0  0  0  0  0
  -32.3740  -18.4580   19.7940 C   0  0  0  0  0  2  0  0  0  0  0  0
  -32.7580  -15.7880   19.9260 C   0  0  0  0  0  0  0  0  0  0  0  0
  -32.5560  -13.3680   19.3050 C   0  0  0  0  0  2  0  0  0  0  0  0
  -31.6830  -13.2520   18.0390 C   0  0  0  0  0  2  0  0  0  0  0  0
  -30.1930  -13.1630   18.4290 C   0  0  0  0  0  2  0  0  0  0  0  0
  -29.7830  -14.2470   19.4660 C   0  0  0  0  0  3  0  0  0  0  0  0
  -30.7900  -14.3390   20.6320 C   0  0  0  0  0  2  0  0  0  0  0  0
  -32.1120  -14.5730   20.0440 N   0  0  0  0  0  0  0  0  0  0  0  0
  -33.9570  -15.8060   19.6400 O   0  0  0  0  0  0  0  0  0  0  0  0
  -31.9990  -16.9600   19.9360 N   0  0  0  0  0  0  0  0  0  0  0  0
  -31.0250  -16.8030   20.1500 H   0  0  0  0  0  0  0  0  0  0  0  0
  -27.4560  -15.0410   20.1920 C   0  0  0  0  0  0  0  0  0  0  0  0
  -26.3220  -14.3670   20.5470 C   0  0  0  0  0  0  0  0  0  0  0  0
  -26.6580  -12.9780   20.5030 C   0  0  0  0  0  0  0  0  0  0  0  0
  -28.4160  -14.0720   19.9420 N   0  0  0  0  0  0  0  0  0  0  0  0
  -27.9440  -12.8260   20.1990 N   0  0  0  0  0  0  0  0  0  0  0  0
  -25.8160  -11.7900   20.6770 C   0  0  0  0  0  0  0  0  0  0  0  0
  -26.0710  -10.8480   21.6980 C   0  0  0  0  0  3  0  0  0  0  0  0
  -25.2380   -9.7180   21.8530 C   0  0  0  0  0  3  0  0  0  0  0  0
  -24.1330   -9.5270   20.9870 C   0  0  0  0  0  0  0  0  0  0  0  0
  -23.8990  -10.4580   19.9590 C   0  0  0  0  0  3  0  0  0  0  0  0
  -24.7330  -11.5770   19.8030 C   0  0  0  0  0  3  0  0  0  0  0  0
  -23.2820   -8.4500   21.0490 O   0  0  0  0  0  0  0  0  0  0  0  0
  -22.8840   -7.9150   22.2480 C   0  0  0  0  0  0  0  0  0  0  0  0
  -22.2090   -8.6840   23.2220 C   0  0  0  0  0  3  0  0  0  0  0  0
  -21.7550   -8.0770   24.4090 C   0  0  0  0  0  3  0  0  0  0  0  0
  -21.9680   -6.7010   24.6220 C   0  0  0  0  0  0  0  0  0  0  0  0
  -22.6320   -5.9320   23.6530 C   0  0  0  0  0  3  0  0  0  0  0  0
  -23.0880   -6.5380   22.4660 C   0  0  0  0  0  0  0  0  0  0  0  0
  -23.7090   -5.7870   21.5250 F   0  0  0  0  0  0  0  0  0  0  0  0
  -21.5220   -6.1140   25.7580 F   0  0  0  0  0  0  0  0  0  0  0  0
  -24.9720  -14.9730   20.8110 C   0  0  0  0  0  0  0  0  0  0  0  0
  -24.1780  -14.3580   21.6770 N   0  0  0  0  0  0  0  0  0  0  0  0
  -24.6330  -16.0290   20.2770 O   0  0  0  0  0  0  0  0  0  0  0  0
  -24.4640  -13.5100   22.1460 H   0  0  0  0  0  0  0  0  0  0  0  0
  -23.2680  -14.7420   21.8820 H   0  0  0  0  0  0  0  0  0  0  0  0
  -27.7490  -16.3910   20.0390 N   0  0  0  0  0  0  0  0  0  0  0  0
  -27.0540  -17.1100   20.1950 H   0  0  0  0  0  0  0  0  0  0  0  0
  -28.6360  -16.7600   19.7240 H   0  0  0  0  0  0  0  0  0  0  0  0
  2  5  1  0
  2  3  2  0
  3 11  1  0
  3  1  1  0
  4  8  1  0
  4  1  2  0
  5  4  1  0
  6  8  1  0
  8  7  1  0
 11 10  1  1
 11  9  1  0
 13 12  1  0
 13 14  1  0
 13 11  1  0
 15 26  2  0
 16 14  1  0
 16 21  1  0
 17 25  1  0
 17 27  1  0
 18 24  1  0
 18 20  1  0
 19 25  1  0
 20 19  1  0
 21 20  2  0
 22 16  2  0
 23 22  1  0
 23 18  2  0
 24 17  1  0
 25 15  1  0
 27 29  2  0
 28 27  1  0
 30 28  1  0
 31 40  2  0
 31 36  1  0
 32 28  1  0
 32 36  1  0
 33 32  1  0
 34 35  1  0
 34 33  1  0
 35 31  1  0
 36 37  2  0
 37 38  1  0
 39 38  2  0
 40 39  1  0
 41 15  1  0
 41 42  1  0
 41 51  1  0
 42 45  1  0
 43 47  1  0
 43 42  1  0
 44 43  2  0
 47 46  1  0
 49 47  1  0
 49 50  1  0
 49 48  1  0
 51 54  1  1
 51 52  1  0
 53 51  1  0
 55  5  1  0
 55 56  1  0
 56 65  1  0
 57 65  1  0
 57 63  1  0
 58 63  1  0
 59 60  1  0
 59 58  1  0
 61 60  1  0
 61 70  1  0
 61 62  1  0
 63 62  1  0
 64 57  2  0
 65 66  1  0
 67 68  2  0
 68 87  1  0
 69 68  1  0
 69 72  1  0
 70 67  1  0
 70 71  1  0
 71 69  2  0
 72 73  1  0
 73 74  2  0
 75 78  1  0
 75 74  1  0
 76 75  2  0
 77 76  1  0
 77 72  2  0
 78 79  1  0
 79 84  2  0
 79 80  1  0
 80 81  2  0
 81 82  1  0
 82 86  1  0
 83 82  2  0
 84 83  1  0
 85 84  1  0
 87 88  1  0
 88 91  1  0
 88 90  1  0
 89 87  2  0
 92 67  1  0
 92 93  1  0
 94 92  1  0
M  ISO  4  13 101  14 101  57 100  65 100
M  END
>  <TORSDO>  (86) 
F 21

>  <SCORE>  (86) 
-8.130

>  <name>  (86) 
85

>  <ligand_id>  (86) 
85

>  <original_smiles>  (86) 
[H]c1c([H])c([H])c2c(c1[H])C([H])([H])C([H])([H])C([H])([H])C2([H])N([H])C(=O)C1([H])N(C(=O)C([H])(N([H])C(=O)C([H])(N([H])C([H])([H])[H])C([H])([H])[H])C(C([H])([H])[H])(C([H])([H])[H])C([H])([H])[H])C([H])([H])c2c([H])c(OC([H])(C([H])([H])[H])C(c3c([H])c(C([H])(C([H])([H])[H])C([H])([H])[H])n(C([H])([H])C([H])([H])N([H])C(=O)N4C([H])([H])C([H])([H])C([H])([H])C([H])(n5nc(-c6c([H])c([H])c(Oc7c([H])c([H])c(F)c([H])c7F)c([H])c6[H])c(C(=O)N([H])[H])c5N([H])[H])C4([H])[H])c3[H])(C([H])([H])[H])C([H])([H])[H])c([H])c([H])c2C1([H])[H]

>  <smiles>  (86) 
[H]c1c([H])c([H])c2c(c1[H])C([H])([H])C([H])([H])C([H])([H])C2([H])N([H])C(=O)C1([H])N(C(=O)C([H])(N([H])C(=O)C([H])(N([H])C([H])([H])[H])C([H])([H])[H])C(C([H])([H])[H])(C([H])([H])[H])C([H])([H])[H])C([H])([H])c2c([H])c(OC([H])(C([H])([H])[H])C(c3c([H])c(C([H])(C([H])([H])[H])C([H])([H])[H])n(C([H])([H])C([H])([H])N([H])C(=O)N4C([H])([H])C([H])([H])C([H])([H])C([H])(n5nc(-c6c([H])c([H])c(Oc7c([H])c([H])c(F)c([H])c7F)c([H])c6[H])c(C(=O)N([H])[H])c5N([H])[H])C4([H])[H])c3[H])(C([H])([H])[H])C([H])([H])[H])c([H])c([H])c2C1([H])[H]

$$$$
86:0:0
     RDKit          3D

 89 97  0  0  1  0  0  0  0  0999 V2000
  -29.0660  -21.7290   19.9140 C   0  0  0  0  0  2  0  0  0  0  0  0
  -31.0660  -19.9580   22.4980 C   0  0  0  0  0  3  0  0  0  0  0  0
  -31.0540  -18.8480   21.6310 C   0  0  0  0  0  3  0  0  0  0  0  0
  -30.3490  -20.9470   21.9040 C   0  0  0  0  0  3  0  0  0  0  0  0
  -30.3080  -19.1150   20.5160 C   0  0  0  0  0  0  0  0  0  0  0  0
  -29.8940  -20.5750   20.6430 N   0  0  0  0  0  0  0  0  0  0  0  0
  -30.1740  -17.8500   19.4980 C   0  0  0  0  0  2  0  0  0  0  0  0
  -30.8280  -15.1270   19.8290 C   0  0  0  0  0  0  0  0  0  0  0  0
  -30.6620  -12.7350   18.9970 C   0  0  0  0  0  2  0  0  0  0  0  0
  -29.6890  -12.6730   17.7950 C   0  0  0  0  0  2  0  0  0  0  0  0
  -28.2430  -12.4620   18.2800 C   0  0  0  0  0  2  0  0  0  0  0  0
  -27.8770  -13.4020   19.4590 C   0  0  0  0  0  3  0  0  0  0  0  0
  -28.9770  -13.4720   20.5430 C   0  0  0  0  0  2  0  0  0  0  0  0
  -30.2280  -13.8640   19.8750 N   0  0  0  0  0  0  0  0  0  0  0  0
  -32.0070  -15.1670   19.4580 O   0  0  0  0  0  0  0  0  0  0  0  0
  -30.0670  -16.3270   19.9780 N   0  0  0  0  0  0  0  0  0  0  0  0
  -29.1370  -16.1220   20.3120 H   0  0  0  0  0  0  0  0  0  0  0  0
  -25.5340  -13.9950   20.3060 C   0  0  0  0  0  0  0  0  0  0  0  0
  -24.4790  -13.2240   20.7140 C   0  0  0  0  0  0  0  0  0  0  0  0
  -24.9290  -11.8710   20.6530 C   0  0  0  0  0  0  0  0  0  0  0  0
  -26.5590  -13.1090   20.0160 N   0  0  0  0  0  0  0  0  0  0  0  0
  -26.2040  -11.8260   20.2900 N   0  0  0  0  0  0  0  0  0  0  0  0
  -24.2020  -10.6130   20.8640 C   0  0  0  0  0  0  0  0  0  0  0  0
  -24.6420   -9.6480   21.7950 C   0  0  0  0  0  3  0  0  0  0  0  0
  -23.9060   -8.4600   21.9980 C   0  0  0  0  0  3  0  0  0  0  0  0
  -22.7170   -8.2260   21.2660 C   0  0  0  0  0  0  0  0  0  0  0  0
  -22.2960   -9.1820   20.3260 C   0  0  0  0  0  3  0  0  0  0  0  0
  -23.0320  -10.3610   20.1210 C   0  0  0  0  0  3  0  0  0  0  0  0
  -21.9540   -7.0890   21.3750 O   0  0  0  0  0  0  0  0  0  0  0  0
  -21.8930   -6.3740   22.5450 C   0  0  0  0  0  0  0  0  0  0  0  0
  -21.4550   -6.9580   23.7540 C   0  0  0  0  0  3  0  0  0  0  0  0
  -21.3410   -6.1680   24.9150 C   0  0  0  0  0  3  0  0  0  0  0  0
  -21.6550   -4.7960   24.8680 C   0  0  0  0  0  0  0  0  0  0  0  0
  -22.0860   -4.2120   23.6640 C   0  0  0  0  0  3  0  0  0  0  0  0
  -22.2010   -4.9990   22.5030 C   0  0  0  0  0  0  0  0  0  0  0  0
  -22.5950   -4.4250   21.3400 F   0  0  0  0  0  0  0  0  0  0  0  0
  -21.5370   -4.0360   25.9810 F   0  0  0  0  0  0  0  0  0  0  0  0
  -23.0990  -13.7140   21.0430 C   0  0  0  0  0  0  0  0  0  0  0  0
  -22.4110  -13.0260   21.9470 N   0  0  0  0  0  0  0  0  0  0  0  0
  -22.6470  -14.7430   20.5430 O   0  0  0  0  0  0  0  0  0  0  0  0
  -22.7920  -12.1900   22.3680 H   0  0  0  0  0  0  0  0  0  0  0  0
  -21.4870  -13.3340   22.2200 H   0  0  0  0  0  0  0  0  0  0  0  0
  -25.6990  -15.3660   20.1280 N   0  0  0  0  0  0  0  0  0  0  0  0
  -24.9330  -16.0200   20.2500 H   0  0  0  0  0  0  0  0  0  0  0  0
  -26.5340  -15.8060   19.7640 H   0  0  0  0  0  0  0  0  0  0  0  0
  -30.6370  -23.7740   19.5170 C   0  0  0  0  0  1  0  0  0  0  0  0
  -29.3010  -23.4150   20.1970 C   0  0  0  0  0  3  0  0  0  0  0  0
  -28.2080  -24.6790   19.8730 C   0  0  0  0  0  2  0  0  0  0  0  0
  -28.3590  -26.2110   20.1840 O   0  0  0  0  0  0  0  0  0  0  0  0
  -24.6580  -31.8860   23.1610 C   0  0  0  0  0  0  0  0  0  0  0  0
  -27.2760  -27.1730   20.1280 C   0  0  0  0  0  0  0  0  0  0  0  0
  -23.4570  -30.4690   21.5410 C   0  0  0  0  0  3  0  0  0  0  0  0
  -24.9110  -28.8900   20.1160 C   0  0  0  0  0  0  0  0  0  0  0  0
  -26.0090  -30.7510   21.3570 C   0  0  0  0  0  2  0  0  0  0  0  0
  -26.0900  -29.3550   20.7110 C   0  0  0  0  0  0  0  0  0  0  0  0
  -27.2690  -28.5130   20.7020 C   0  0  0  0  0  3  0  0  0  0  0  0
  -26.0660  -26.8140   19.4940 C   0  0  0  0  0  3  0  0  0  0  0  0
  -24.9120  -27.6300   19.4970 C   0  0  0  0  0  3  0  0  0  0  0  0
  -23.6680  -29.7710   20.1710 C   0  0  0  0  0  2  0  0  0  0  0  0
  -24.7280  -31.0580   22.0730 N   0  0  0  0  0  0  0  0  0  0  0  0
  -23.5750  -32.1720   23.6930 O   0  0  0  0  0  0  0  0  0  0  0  0
  -22.7880  -29.4710   22.5190 C   0  0  0  0  0  0  0  0  0  0  0  0
  -21.4640  -29.2730   22.3830 N   0  0  0  0  0  0  0  0  0  0  0  0
  -23.4650  -28.8760   23.3630 O   0  0  0  0  0  0  0  0  0  0  0  0
  -20.9750  -29.8090   21.6810 H   0  0  0  0  0  0  0  0  0  0  0  0
  -18.1160  -27.9690   22.8490 C   0  0  0  0  0  0  0  0  0  0  0  0
  -20.6560  -28.3280   23.1610 C   0  0  0  0  0  3  0  0  0  0  0  0
  -20.8190  -26.8860   22.6330 C   0  0  0  0  0  2  0  0  0  0  0  0
  -19.7510  -26.4970   21.6070 C   0  0  0  0  0  2  0  0  0  0  0  0
  -18.3540  -26.6090   22.2180 C   0  0  0  0  0  2  0  0  0  0  0  0
  -19.1970  -28.7850   23.2770 C   0  0  0  0  0  0  0  0  0  0  0  0
  -18.9210  -30.0540   23.8280 C   0  0  0  0  0  3  0  0  0  0  0  0
  -17.5960  -30.5100   23.9540 C   0  0  0  0  0  3  0  0  0  0  0  0
  -16.5290  -29.6940   23.5350 C   0  0  0  0  0  3  0  0  0  0  0  0
  -16.7910  -28.4250   22.9910 C   0  0  0  0  0  3  0  0  0  0  0  0
  -25.9350  -32.5320   23.7850 C   0  0  0  0  0  3  0  0  0  0  0  0
  -26.4630  -31.7630   25.0590 C   0  0  1  0  0  0  0  0  0  0  0  0
  -25.3770  -31.5170   26.1330 C   0  0  0  0  0  1  0  0  0  0  0  0
  -27.0580  -30.3900   24.6670 C   0  0  0  0  0  1  0  0  0  0  0  0
  -27.6120  -32.5660   25.7130 C   0  0  0  0  0  1  0  0  0  0  0  0
  -25.6090  -33.9270   24.1300 N   0  0  0  0  0  0  0  0  0  0  0  0
  -25.9410  -34.9910   23.3910 C   0  0  0  0  0  0  0  0  0  0  0  0
  -26.6160  -34.9060   22.3620 O   0  0  0  0  0  0  0  0  0  0  0  0
  -24.9970  -34.0710   24.9200 H   0  0  0  0  0  0  0  0  0  0  0  0
  -24.2080  -36.7870   23.0490 C   0  0  0  0  0  1  0  0  0  0  0  0
  -25.4450  -36.3720   23.8640 C   0  0  0  0  0  3  0  0  0  0  0  0
  -27.5710  -37.2560   24.7210 C   0  0  0  0  0  1  0  0  0  0  0  0
  -26.4750  -37.4300   23.7710 N   0  0  0  0  0  0  0  0  0  0  0  0
  -26.0670  -38.3490   23.9160 H   0  0  0  0  0  0  0  0  0  0  0  0
  1 47  1  0
  1  6  1  0
  3  2  1  0
  4  2  2  0
  5  6  1  0
  5  3  2  0
  6  4  1  0
  7 16  1  0
  7  5  1  0
  8 14  1  0
  8 16  1  0
  9 14  1  0
 10 11  1  0
 10  9  1  0
 12 11  1  0
 12 21  1  0
 12 13  1  0
 14 13  1  0
 15  8  2  0
 16 17  1  0
 18 19  2  0
 19 38  1  0
 20 19  1  0
 20 23  1  0
 21 22  1  0
 21 18  1  0
 22 20  2  0
 23 24  1  0
 24 25  2  0
 26 29  1  0
 26 25  1  0
 27 26  2  0
 28 27  1  0
 28 23  2  0
 29 30  1  0
 30 31  1  0
 31 32  2  0
 33 32  1  0
 33 37  1  0
 34 33  2  0
 35 30  2  0
 35 34  1  0
 36 35  1  0
 38 39  1  0
 39 42  1  0
 39 41  1  0
 40 38  2  0
 43 44  1  0
 43 18  1  0
 45 43  1  0
 47 46  1  0
 48 49  1  0
 48 47  1  0
 50 61  2  0
 51 49  1  0
 51 56  1  0
 52 60  1  0
 52 62  1  0
 53 59  1  0
 53 55  1  0
 54 60  1  0
 55 54  1  0
 56 55  2  0
 57 58  1  0
 57 51  2  0
 58 53  2  0
 59 52  1  0
 60 50  1  0
 62 64  2  0
 63 62  1  0
 65 63  1  0
 66 75  2  0
 66 71  1  0
 67 63  1  0
 67 71  1  0
 68 67  1  0
 69 70  1  0
 69 68  1  0
 70 66  1  0
 71 72  2  0
 72 73  1  0
 74 73  2  0
 75 74  1  0
 76 50  1  0
 76 81  1  0
 76 77  1  0
 77 80  1  1
 77 78  1  0
 79 77  1  0
 81 84  1  0
 82 86  1  0
 82 81  1  0
 83 82  2  0
 86 85  1  0
 88 86  1  0
 88 89  1  0
 88 87  1  0
M  ISO  4   8 100  16 100  48 101  49 101
M  END
>  <TORSDO>  (87) 
F 20

>  <SCORE>  (87) 
-14.795

>  <name>  (87) 
86

>  <ligand_id>  (87) 
86

>  <original_smiles>  (87) 
[H]c1c([H])c([H])c2c(c1[H])C([H])([H])C([H])([H])C([H])([H])C2([H])N([H])C(=O)C1([H])N(C(=O)C([H])(N([H])C(=O)C([H])(N([H])C([H])([H])[H])C([H])([H])[H])C(C([H])([H])[H])(C([H])([H])[H])C([H])([H])[H])C([H])([H])c2c([H])c(OC([H])([H])C([H])(C([H])([H])[H])C([H])([H])n3c([H])c([H])c([H])c3C([H])([H])N([H])C(=O)N3C([H])([H])C([H])([H])C([H])([H])C([H])(n4nc(-c5c([H])c([H])c(Oc6c([H])c([H])c(F)c([H])c6F)c([H])c5[H])c(C(=O)N([H])[H])c4N([H])[H])C3([H])[H])c([H])c([H])c2C1([H])[H]

>  <smiles>  (87) 
[H]c1c([H])c([H])c2c(c1[H])C([H])([H])C([H])([H])C([H])([H])C2([H])N([H])C(=O)C1([H])N(C(=O)C([H])(N([H])C(=O)C([H])(N([H])C([H])([H])[H])C([H])([H])[H])C(C([H])([H])[H])(C([H])([H])[H])C([H])([H])[H])C([H])([H])c2c([H])c(OC([H])([H])C([H])(C([H])([H])[H])C([H])([H])n3c([H])c([H])c([H])c3C([H])([H])N([H])C(=O)N3C([H])([H])C([H])([H])C([H])([H])C([H])(n4nc(-c5c([H])c([H])c(Oc6c([H])c([H])c(F)c([H])c6F)c([H])c5[H])c(C(=O)N([H])[H])c4N([H])[H])C3([H])[H])c([H])c([H])c2C1([H])[H]

$$$$
87:0:0
     RDKit          3D

 93102  0  0  1  0  0  0  0  0999 V2000
  -30.8470  -21.3630   20.2710 C   0  0  0  0  0  3  0  0  0  0  0  0
  -31.1140  -20.0570   20.5880 C   0  0  0  0  0  3  0  0  0  0  0  0
  -28.9090  -20.2770   20.3670 C   0  0  0  0  0  3  0  0  0  0  0  0
  -29.4380  -21.5260   20.1160 C   0  0  0  0  0  0  0  0  0  0  0  0
  -29.9190  -19.3530   20.6460 N   0  0  0  0  0  0  0  0  0  0  0  0
  -31.0710  -16.9620   22.8530 C   0  0  0  0  0  2  0  0  0  0  0  0
  -29.7990  -17.7680   22.5470 C   0  0  0  0  0  2  0  0  0  0  0  0
  -31.8220  -16.8280   21.5270 C   0  0  0  0  0  2  0  0  0  0  0  0
  -29.7000  -17.9260   21.0140 C   0  0  0  0  0  3  0  0  0  0  0  0
  -30.7230  -16.8770   20.4550 C   0  0  0  0  0  3  0  0  0  0  0  0
  -30.7440  -14.4610   19.6870 C   0  0  0  0  0  0  0  0  0  0  0  0
  -30.2480  -12.3360   18.5270 C   0  0  0  0  0  2  0  0  0  0  0  0
  -29.2000  -12.6010   17.4270 C   0  0  0  0  0  2  0  0  0  0  0  0
  -27.7740  -12.4960   18.0020 C   0  0  0  0  0  2  0  0  0  0  0  0
  -27.5950  -13.3070   19.3140 C   0  0  0  0  0  3  0  0  0  0  0  0
  -28.7510  -13.0360   20.3030 C   0  0  0  0  0  2  0  0  0  0  0  0
  -30.0150  -13.3130   19.6040 N   0  0  0  0  0  0  0  0  0  0  0  0
  -31.8310  -14.5940   19.1210 O   0  0  0  0  0  0  0  0  0  0  0  0
  -30.1530  -15.5110   20.3030 N   0  0  0  0  0  0  0  0  0  0  0  0
  -29.2480  -15.3440   20.7130 H   0  0  0  0  0  0  0  0  0  0  0  0
  -25.3060  -13.9720   20.2800 C   0  0  0  0  0  0  0  0  0  0  0  0
  -24.2530  -13.2260   20.7370 C   0  0  0  0  0  0  0  0  0  0  0  0
  -24.6580  -11.8610   20.6240 C   0  0  0  0  0  0  0  0  0  0  0  0
  -26.2900  -13.0630   19.9230 N   0  0  0  0  0  0  0  0  0  0  0  0
  -25.9090  -11.7860   20.1860 N   0  0  0  0  0  0  0  0  0  0  0  0
  -23.9080  -10.6190   20.8550 C   0  0  0  0  0  0  0  0  0  0  0  0
  -24.3760   -9.6270   21.7430 C   0  0  0  0  0  3  0  0  0  0  0  0
  -23.6280   -8.4510   21.9610 C   0  0  0  0  0  3  0  0  0  0  0  0
  -22.3960   -8.2580   21.2930 C   0  0  0  0  0  0  0  0  0  0  0  0
  -21.9450   -9.2380   20.3910 C   0  0  0  0  0  3  0  0  0  0  0  0
  -22.6940  -10.4060   20.1710 C   0  0  0  0  0  3  0  0  0  0  0  0
  -21.6140   -7.1360   21.4230 O   0  0  0  0  0  0  0  0  0  0  0  0
  -21.5970   -6.4020   22.5820 C   0  0  0  0  0  0  0  0  0  0  0  0
  -21.2570   -6.9780   23.8240 C   0  0  0  0  0  3  0  0  0  0  0  0
  -21.1830   -6.1730   24.9780 C   0  0  0  0  0  3  0  0  0  0  0  0
  -21.4400   -4.7920   24.8910 C   0  0  0  0  0  0  0  0  0  0  0  0
  -21.7750   -4.2150   23.6530 C   0  0  0  0  0  3  0  0  0  0  0  0
  -21.8490   -5.0180   22.5010 C   0  0  0  0  0  0  0  0  0  0  0  0
  -22.1500   -4.4520   21.3070 F   0  0  0  0  0  0  0  0  0  0  0  0
  -21.3620   -4.0150   25.9970 F   0  0  0  0  0  0  0  0  0  0  0  0
  -22.9100  -13.7440   21.1610 C   0  0  0  0  0  0  0  0  0  0  0  0
  -22.2540  -13.0570   22.0920 N   0  0  0  0  0  0  0  0  0  0  0  0
  -22.4540  -14.7910   20.7030 O   0  0  0  0  0  0  0  0  0  0  0  0
  -22.6380  -12.2100   22.4830 H   0  0  0  0  0  0  0  0  0  0  0  0
  -21.3580  -13.3860   22.4190 H   0  0  0  0  0  0  0  0  0  0  0  0
  -25.5010  -15.3410   20.1200 N   0  0  0  0  0  0  0  0  0  0  0  0
  -24.7650  -16.0120   20.3080 H   0  0  0  0  0  0  0  0  0  0  0  0
  -26.3150  -15.7580   19.6860 H   0  0  0  0  0  0  0  0  0  0  0  0
  -28.6720  -22.7920   19.6940 C   0  0  0  0  0  2  0  0  0  0  0  0
  -29.1760  -24.1800   20.2210 C   0  0  0  0  0  2  0  0  0  0  0  0
  -28.5370  -25.3940   19.4910 C   0  0  0  0  0  0  0  0  0  0  0  0
  -28.2360  -25.3140   18.2950 O   0  0  0  0  0  0  0  0  0  0  0  0
  -28.3240  -26.5250   20.2740 O   0  0  0  0  0  0  0  0  0  0  0  0
  -24.5170  -31.8330   23.2020 C   0  0  0  0  0  0  0  0  0  0  0  0
  -27.1800  -27.3190   20.1780 C   0  0  0  0  0  0  0  0  0  0  0  0
  -23.3310  -30.4250   21.5550 C   0  0  0  0  0  3  0  0  0  0  0  0
  -24.7960  -28.8780   20.1550 C   0  0  0  0  0  0  0  0  0  0  0  0
  -25.8660  -30.7620   21.3930 C   0  0  0  0  0  2  0  0  0  0  0  0
  -25.9550  -29.3860   20.7540 C   0  0  0  0  0  0  0  0  0  0  0  0
  -27.1490  -28.6170   20.7580 C   0  0  0  0  0  3  0  0  0  0  0  0
  -25.9840  -26.8380   19.5880 C   0  0  0  0  0  3  0  0  0  0  0  0
  -24.8080  -27.6050   19.5690 C   0  0  0  0  0  3  0  0  0  0  0  0
  -23.5570  -29.7450   20.1810 C   0  0  0  0  0  2  0  0  0  0  0  0
  -24.5900  -31.0210   22.1080 N   0  0  0  0  0  0  0  0  0  0  0  0
  -23.4280  -32.1120   23.7230 O   0  0  0  0  0  0  0  0  0  0  0  0
  -22.6620  -29.4090   22.5110 C   0  0  0  0  0  0  0  0  0  0  0  0
  -21.3400  -29.2200   22.3580 N   0  0  0  0  0  0  0  0  0  0  0  0
  -23.3290  -28.7970   23.3480 O   0  0  0  0  0  0  0  0  0  0  0  0
  -20.8630  -29.7660   21.6550 H   0  0  0  0  0  0  0  0  0  0  0  0
  -17.9660  -27.9920   22.7790 C   0  0  0  0  0  0  0  0  0  0  0  0
  -20.5110  -28.2870   23.1210 C   0  0  0  0  0  3  0  0  0  0  0  0
  -20.6480  -26.8460   22.5770 C   0  0  0  0  0  2  0  0  0  0  0  0
  -19.5810  -26.4900   21.5380 C   0  0  0  0  0  2  0  0  0  0  0  0
  -18.1790  -26.6310   22.1370 C   0  0  0  0  0  2  0  0  0  0  0  0
  -19.0630  -28.7750   23.2270 C   0  0  0  0  0  0  0  0  0  0  0  0
  -18.8130  -30.0470   23.7870 C   0  0  0  0  0  3  0  0  0  0  0  0
  -17.4990  -30.5380   23.9030 C   0  0  0  0  0  3  0  0  0  0  0  0
  -16.4150  -29.7520   23.4720 C   0  0  0  0  0  3  0  0  0  0  0  0
  -16.6500  -28.4810   22.9160 C   0  0  0  0  0  3  0  0  0  0  0  0
  -25.7940  -32.4670   23.8350 C   0  0  0  0  0  3  0  0  0  0  0  0
  -26.3050  -31.6930   25.1110 C   0  0  1  0  0  0  0  0  0  0  0  0
  -25.2050  -31.4440   26.1680 C   0  0  0  0  0  1  0  0  0  0  0  0
  -26.8980  -30.3190   24.7150 C   0  0  0  0  0  1  0  0  0  0  0  0
  -27.4470  -32.4890   25.7850 C   0  0  0  0  0  1  0  0  0  0  0  0
  -25.4770  -33.8630   24.1660 N   0  0  0  0  0  0  0  0  0  0  0  0
  -25.8040  -34.9180   23.4070 C   0  0  0  0  0  0  0  0  0  0  0  0
  -26.4760  -34.8180   22.3760 O   0  0  0  0  0  0  0  0  0  0  0  0
  -24.8840  -34.0130   24.9680 H   0  0  0  0  0  0  0  0  0  0  0  0
  -24.0630  -36.6980   23.0570 C   0  0  0  0  0  1  0  0  0  0  0  0
  -25.3090  -36.3020   23.8650 C   0  0  0  0  0  3  0  0  0  0  0  0
  -27.4400  -37.2010   24.6900 C   0  0  0  0  0  1  0  0  0  0  0  0
  -26.3340  -37.3620   23.7500 N   0  0  0  0  0  0  0  0  0  0  0  0
  -25.9220  -38.2800   23.9000 H   0  0  0  0  0  0  0  0  0  0  0  0
  1  2  2  0
  2  5  1  0
  3  5  1  0
  4  1  1  0
  4  3  2  0
  7  6  1  0
  8  6  1  0
  9  5  1  0
  9  7  1  0
 10 19  1  0
 10  9  1  0
 10  8  1  0
 11 19  1  0
 12 17  1  0
 13 14  1  0
 13 12  1  0
 15 14  1  0
 15 24  1  0
 15 16  1  0
 17 11  1  0
 17 16  1  0
 18 11  2  0
 19 20  1  0
 21 22  2  0
 22 41  1  0
 23 22  1  0
 23 26  1  0
 24 25  1  0
 24 21  1  0
 25 23  2  0
 26 27  1  0
 27 28  2  0
 29 32  1  0
 29 28  1  0
 30 29  2  0
 31 30  1  0
 31 26  2  0
 32 33  1  0
 33 34  1  0
 34 35  2  0
 36 35  1  0
 36 40  1  0
 37 36  2  0
 38 33  2  0
 38 37  1  0
 39 38  1  0
 41 42  1  0
 42 45  1  0
 42 44  1  0
 43 41  2  0
 46 21  1  0
 46 47  1  0
 48 46  1  0
 49  4  1  0
 49 50  1  0
 51 50  1  0
 51 53  1  0
 52 51  2  0
 54 65  2  0
 55 53  1  0
 55 60  1  0
 56 64  1  0
 56 66  1  0
 57 63  1  0
 57 59  1  0
 58 64  1  0
 59 60  2  0
 59 58  1  0
 61 55  2  0
 62 61  1  0
 62 57  2  0
 63 56  1  0
 64 54  1  0
 66 68  2  0
 67 66  1  0
 69 67  1  0
 70 79  2  0
 70 75  1  0
 71 67  1  0
 71 75  1  0
 72 71  1  0
 73 74  1  0
 73 72  1  0
 74 70  1  0
 75 76  2  0
 76 77  1  0
 78 77  2  0
 79 78  1  0
 80 54  1  0
 80 85  1  0
 80 81  1  0
 81 84  1  1
 81 82  1  0
 83 81  1  0
 85 88  1  0
 86 90  1  0
 86 85  1  0
 87 86  2  0
 90 89  1  0
 92 90  1  0
 92 93  1  0
 92 91  1  0
M  ISO  4  11 100  19 100  51 101  53 101
M  END
>  <TORSDO>  (88) 
F 20

>  <SCORE>  (88) 
-11.720

>  <name>  (88) 
87

>  <ligand_id>  (88) 
87

>  <original_smiles>  (88) 
[H]c1c([H])c([H])c2c(c1[H])C([H])([H])C([H])([H])C([H])([H])C2([H])N([H])C(=O)C1([H])N(C(=O)C([H])(N([H])C(=O)C([H])(N([H])C([H])([H])[H])C([H])([H])[H])C(C([H])([H])[H])(C([H])([H])[H])C([H])([H])[H])C([H])([H])c2c([H])c(OC(=O)C([H])([H])C([H])([H])c3c([H])c([H])n(C4([H])C([H])([H])C([H])([H])C([H])([H])C4([H])N([H])C(=O)N4C([H])([H])C([H])([H])C([H])([H])C([H])(n5nc(-c6c([H])c([H])c(Oc7c([H])c([H])c(F)c([H])c7F)c([H])c6[H])c(C(=O)N([H])[H])c5N([H])[H])C4([H])[H])c3[H])c([H])c([H])c2C1([H])[H]

>  <smiles>  (88) 
[H]c1c([H])c([H])c2c(c1[H])C([H])([H])C([H])([H])C([H])([H])C2([H])N([H])C(=O)C1([H])N(C(=O)C([H])(N([H])C(=O)C([H])(N([H])C([H])([H])[H])C([H])([H])[H])C(C([H])([H])[H])(C([H])([H])[H])C([H])([H])[H])C([H])([H])c2c([H])c(OC(=O)C([H])([H])C([H])([H])c3c([H])c([H])n(C4([H])C([H])([H])C([H])([H])C([H])([H])C4([H])N([H])C(=O)N4C([H])([H])C([H])([H])C([H])([H])C([H])(n5nc(-c6c([H])c([H])c(Oc7c([H])c([H])c(F)c([H])c7F)c([H])c6[H])c(C(=O)N([H])[H])c5N([H])[H])C4([H])[H])c3[H])c([H])c([H])c2C1([H])[H]

$$$$
88:0:0
     RDKit          3D

 96104  0  0  1  0  0  0  0  0999 V2000
  -29.6880  -22.7680   21.6060 C   0  0  0  0  0  3  0  0  0  0  0  0
  -29.1270  -23.9920   21.1770 C   0  0  0  0  0  3  0  0  0  0  0  0
  -30.4360  -21.9720   20.7010 C   0  0  0  0  0  0  0  0  0  0  0  0
  -29.3410  -24.4220   19.8520 C   0  0  0  0  0  0  0  0  0  0  0  0
  -30.6070  -22.4950   19.3910 C   0  0  0  0  0  0  0  0  0  0  0  0
  -31.3600  -21.7570   18.2930 C   0  0  0  0  0  1  0  0  0  0  0  0
  -30.0760  -23.6760   18.9920 N   0  0  0  0  0  0  0  0  0  0  0  0
  -31.0490  -20.6230   21.1600 C   0  0  0  0  0  2  0  0  0  0  0  0
  -30.1860  -19.4560   20.8410 N   0  0  0  0  0  4  0  0  0  0  0  0
  -29.9860  -19.4630   19.8540 H   0  0  0  0  0  0  0  0  0  0  0  0
  -29.3100  -19.5820   21.3220 H   0  0  0  0  0  0  0  0  0  0  0  0
  -30.6710  -18.0810   21.1770 C   0  0  0  0  0  2  0  0  0  0  0  0
  -28.2690  -17.3600   21.0350 C   0  0  0  0  0  1  0  0  0  0  0  0
  -29.7040  -17.0080   20.5760 C   0  0  2  0  0  0  0  0  0  0  0  0
  -30.7950  -14.6400   20.7750 C   0  0  0  0  0  0  0  0  0  0  0  0
  -30.7010  -12.3760   19.7780 C   0  0  0  0  0  2  0  0  0  0  0  0
  -29.8540  -12.4660   18.4900 C   0  0  0  0  0  2  0  0  0  0  0  0
  -28.3360  -12.3920   18.7960 C   0  0  0  0  0  2  0  0  0  0  0  0
  -27.8840  -13.2380   20.0230 C   0  0  0  0  0  3  0  0  0  0  0  0
  -28.8670  -13.0670   21.2030 C   0  0  0  0  0  2  0  0  0  0  0  0
  -30.2220  -13.4020   20.7180 N   0  0  0  0  0  0  0  0  0  0  0  0
  -31.9420  -14.8780   20.3880 O   0  0  0  0  0  0  0  0  0  0  0  0
  -29.9120  -15.6210   21.0710 N   0  0  0  0  0  0  0  0  0  0  0  0
  -29.0800  -15.2380   21.4940 H   0  0  0  0  0  0  0  0  0  0  0  0
  -25.4210  -13.8230   20.5240 C   0  0  0  0  0  0  0  0  0  0  0  0
  -24.3470  -13.0490   20.8610 C   0  0  0  0  0  0  0  0  0  0  0  0
  -24.8350  -11.7080   20.9060 C   0  0  0  0  0  0  0  0  0  0  0  0
  -26.5030  -12.9590   20.4100 N   0  0  0  0  0  0  0  0  0  0  0  0
  -26.1450  -11.6810   20.6910 N   0  0  0  0  0  0  0  0  0  0  0  0
  -24.1170  -10.4420   21.0810 C   0  0  0  0  0  0  0  0  0  0  0  0
  -24.5020   -9.5070   22.0660 C   0  0  0  0  0  3  0  0  0  0  0  0
  -23.7850   -8.3040   22.2250 C   0  0  0  0  0  3  0  0  0  0  0  0
  -22.6720   -8.0260   21.3980 C   0  0  0  0  0  0  0  0  0  0  0  0
  -22.3080   -8.9480   20.4030 C   0  0  0  0  0  3  0  0  0  0  0  0
  -23.0250  -10.1450   20.2410 C   0  0  0  0  0  3  0  0  0  0  0  0
  -21.9300   -6.8720   21.4670 O   0  0  0  0  0  0  0  0  0  0  0  0
  -21.8140   -6.1640   22.6350 C   0  0  0  0  0  0  0  0  0  0  0  0
  -21.2810   -6.7410   23.8080 C   0  0  0  0  0  3  0  0  0  0  0  0
  -21.1120   -5.9560   24.9660 C   0  0  0  0  0  3  0  0  0  0  0  0
  -21.4720   -4.5950   24.9510 C   0  0  0  0  0  0  0  0  0  0  0  0
  -22.0020   -4.0180   23.7840 C   0  0  0  0  0  3  0  0  0  0  0  0
  -22.1700   -4.8000   22.6280 C   0  0  0  0  0  0  0  0  0  0  0  0
  -22.6590   -4.2350   21.4990 F   0  0  0  0  0  0  0  0  0  0  0  0
  -21.3050   -3.8370   26.0610 F   0  0  0  0  0  0  0  0  0  0  0  0
  -22.9260  -13.5110   21.0200 C   0  0  0  0  0  0  0  0  0  0  0  0
  -22.1510  -12.8350   21.8600 N   0  0  0  0  0  0  0  0  0  0  0  0
  -22.5120  -14.5130   20.4370 O   0  0  0  0  0  0  0  0  0  0  0  0
  -22.4950  -12.0250   22.3560 H   0  0  0  0  0  0  0  0  0  0  0  0
  -21.1970  -13.1310   22.0140 H   0  0  0  0  0  0  0  0  0  0  0  0
  -25.5380  -15.1820   20.2750 N   0  0  0  0  0  0  0  0  0  0  0  0
  -24.7000  -15.7530   20.2230 H   0  0  0  0  0  0  0  0  0  0  0  0
  -26.3310  -15.5990   19.8110 H   0  0  0  0  0  0  0  0  0  0  0  0
  -28.7610  -16.2610   18.2300 C   0  0  0  0  0  1  0  0  0  0  0  0
  -29.7870  -17.0880   19.0180 C   0  0  0  0  0  2  0  0  0  0  0  0
  -28.6790  -25.6850   19.2650 C   0  0  0  0  0  2  0  0  0  0  0  0
  -28.4230  -26.7620   20.1950 O   0  0  0  0  0  0  0  0  0  0  0  0
  -24.5560  -31.9150   23.2590 C   0  0  0  0  0  0  0  0  0  0  0  0
  -27.2370  -27.4830   20.1470 C   0  0  0  0  0  0  0  0  0  0  0  0
  -23.3660  -30.5260   21.5970 C   0  0  0  0  0  3  0  0  0  0  0  0
  -24.8320  -29.0070   20.1690 C   0  0  0  0  0  0  0  0  0  0  0  0
  -25.8970  -30.8850   21.4250 C   0  0  0  0  0  2  0  0  0  0  0  0
  -25.9880  -29.5200   20.7710 C   0  0  0  0  0  0  0  0  0  0  0  0
  -27.1860  -28.7620   20.7590 C   0  0  0  0  0  3  0  0  0  0  0  0
  -26.0460  -26.9860   19.5620 C   0  0  0  0  0  3  0  0  0  0  0  0
  -24.8580  -27.7400   19.5670 C   0  0  0  0  0  3  0  0  0  0  0  0
  -23.5860  -29.8600   20.2150 C   0  0  0  0  0  2  0  0  0  0  0  0
  -24.6250  -31.1220   22.1520 N   0  0  0  0  0  0  0  0  0  0  0  0
  -23.4700  -32.1840   23.7900 O   0  0  0  0  0  0  0  0  0  0  0  0
  -22.7060  -29.4970   22.5430 C   0  0  0  0  0  0  0  0  0  0  0  0
  -21.3810  -29.3210   22.4060 N   0  0  0  0  0  0  0  0  0  0  0  0
  -23.3820  -28.8590   23.3540 O   0  0  0  0  0  0  0  0  0  0  0  0
  -20.8980  -29.8810   21.7190 H   0  0  0  0  0  0  0  0  0  0  0  0
  -17.9960  -28.1460   22.8810 C   0  0  0  0  0  0  0  0  0  0  0  0
  -20.5560  -28.3790   23.1630 C   0  0  0  0  0  3  0  0  0  0  0  0
  -20.6480  -26.9560   22.5680 C   0  0  0  0  0  2  0  0  0  0  0  0
  -19.5480  -26.6560   21.5450 C   0  0  0  0  0  2  0  0  0  0  0  0
  -18.1650  -26.8040   22.1870 C   0  0  0  0  0  2  0  0  0  0  0  0
  -19.1200  -28.8930   23.3240 C   0  0  0  0  0  0  0  0  0  0  0  0
  -18.9100  -30.1500   23.9290 C   0  0  0  0  0  3  0  0  0  0  0  0
  -17.6090  -30.6600   24.0980 C   0  0  0  0  0  3  0  0  0  0  0  0
  -16.4990  -29.9070   23.6760 C   0  0  0  0  0  3  0  0  0  0  0  0
  -16.6940  -28.6530   23.0710 C   0  0  0  0  0  3  0  0  0  0  0  0
  -25.8370  -32.5420   23.8930 C   0  0  0  0  0  3  0  0  0  0  0  0
  -25.5280  -33.9410   24.2170 N   0  0  0  0  0  0  0  0  0  0  0  0
  -25.8830  -34.9940   23.4680 C   0  0  0  0  0  0  0  0  0  0  0  0
  -26.5750  -34.8900   22.4530 O   0  0  0  0  0  0  0  0  0  0  0  0
  -24.9110  -34.0960   25.0010 H   0  0  0  0  0  0  0  0  0  0  0  0
  -24.1810  -36.7990   23.0640 C   0  0  0  0  0  1  0  0  0  0  0  0
  -25.3890  -36.3820   23.9180 C   0  0  0  0  0  3  0  0  0  0  0  0
  -27.5000  -37.2410   24.8290 C   0  0  0  0  0  1  0  0  0  0  0  0
  -26.4320  -37.4290   23.8510 N   0  0  0  0  0  0  0  0  0  0  0  0
  -26.0270  -38.3500   23.9950 H   0  0  0  0  0  0  0  0  0  0  0  0
  -26.3380  -31.7690   25.1740 C   0  0  1  0  0  0  0  0  0  0  0  0
  -25.2320  -31.5350   26.2280 C   0  0  0  0  0  1  0  0  0  0  0  0
  -26.9200  -30.3900   24.7880 C   0  0  0  0  0  1  0  0  0  0  0  0
  -27.4820  -32.5600   25.8490 C   0  0  0  0  0  1  0  0  0  0  0  0
  2  1  1  0
  3  8  1  0
  3  1  2  0
  4  2  2  0
  5  3  1  0
  6  5  1  0
  7  5  2  0
  7  4  1  0
  9  8  1  0
  9 12  1  0
  9 11  1  0
 10  9  1  0
 14 13  1  6
 14 23  1  0
 14 12  1  0
 15 23  1  0
 16 21  1  0
 17 18  1  0
 17 16  1  0
 19 18  1  0
 19 28  1  0
 19 20  1  0
 21 15  1  0
 21 20  1  0
 22 15  2  0
 23 24  1  0
 25 26  2  0
 26 27  1  0
 26 45  1  0
 27 30  1  0
 28 25  1  0
 28 29  1  0
 29 27  2  0
 30 31  1  0
 31 32  2  0
 33 36  1  0
 33 32  1  0
 34 33  2  0
 35 34  1  0
 35 30  2  0
 36 37  1  0
 37 38  1  0
 38 39  2  0
 40 39  1  0
 40 44  1  0
 41 40  2  0
 42 37  2  0
 42 41  1  0
 43 42  1  0
 45 46  1  0
 46 49  1  0
 46 48  1  0
 47 45  2  0
 50 25  1  0
 51 50  1  0
 52 50  1  0
 53 54  1  0
 54 14  1  0
 55  4  1  0
 55 56  1  0
 57 68  2  0
 58 56  1  0
 58 63  1  0
 59 67  1  0
 59 69  1  0
 60 66  1  0
 60 62  1  0
 61 67  1  0
 62 61  1  0
 63 62  2  0
 64 65  1  0
 64 58  2  0
 65 60  2  0
 66 59  1  0
 67 57  1  0
 69 71  2  0
 70 69  1  0
 72 70  1  0
 73 82  2  0
 73 78  1  0
 74 70  1  0
 74 78  1  0
 75 74  1  0
 76 77  1  0
 76 75  1  0
 77 73  1  0
 78 79  2  0
 79 80  1  0
 81 80  2  0
 82 81  1  0
 83 57  1  0
 83 84  1  0
 83 93  1  0
 84 87  1  0
 85 89  1  0
 85 84  1  0
 86 85  2  0
 89 88  1  0
 91 89  1  0
 91 92  1  0
 91 90  1  0
 93 96  1  1
 93 94  1  0
 95 93  1  0
M  ISO  4  15 100  23 100  55 101  56 101
M  END
>  <TORSDO>  (89) 
F 22

>  <SCORE>  (89) 
-12.000

>  <name>  (89) 
88

>  <ligand_id>  (89) 
88

>  <original_smiles>  (89) 
[H]c1c(C([H])([H])Oc2c([H])c([H])c3c(c2[H])C([H])([H])N(C(=O)C([H])(N([H])C(=O)C([H])(N([H])C([H])([H])[H])C([H])([H])[H])C(C([H])([H])[H])(C([H])([H])[H])C([H])([H])[H])C([H])(C(=O)N([H])C2([H])c4c([H])c([H])c([H])c([H])c4C([H])([H])C([H])([H])C2([H])[H])C3([H])[H])nc(C([H])([H])[H])c(C([H])([H])[N+]([H])([H])C([H])([H])C(N([H])C(=O)N2C([H])([H])C([H])([H])C([H])([H])C([H])(n3nc(-c4c([H])c([H])c(Oc5c([H])c([H])c(F)c([H])c5F)c([H])c4[H])c(C(=O)N([H])[H])c3N([H])[H])C2([H])[H])(C([H])([H])[H])C([H])([H])C([H])([H])[H])c1[H]

>  <smiles>  (89) 
[H]c1c(C([H])([H])Oc2c([H])c([H])c3c(c2[H])C([H])([H])N(C(=O)C([H])(N([H])C(=O)C([H])(N([H])C([H])([H])[H])C([H])([H])[H])C(C([H])([H])[H])(C([H])([H])[H])C([H])([H])[H])C([H])(C(=O)N([H])C2([H])c4c([H])c([H])c([H])c([H])c4C([H])([H])C([H])([H])C2([H])[H])C3([H])[H])nc(C([H])([H])[H])c(C([H])([H])[N+]([H])([H])C([H])([H])C(N([H])C(=O)N2C([H])([H])C([H])([H])C([H])([H])C([H])(n3nc(-c4c([H])c([H])c(Oc5c([H])c([H])c(F)c([H])c5F)c([H])c4[H])c(C(=O)N([H])[H])c3N([H])[H])C2([H])[H])(C([H])([H])[H])C([H])([H])C([H])([H])[H])c1[H]

$$$$
89:0:0
     RDKit          3D

 94102  0  0  1  0  0  0  0  0999 V2000
  -29.3690  -22.5570   21.6890 C   0  0  0  0  0  3  0  0  0  0  0  0
  -30.1650  -20.1510   21.6180 C   0  0  0  0  0  0  0  0  0  0  0  0
  -30.0940  -21.4610   22.2280 C   0  0  0  0  0  0  0  0  0  0  0  0
  -28.6280  -22.4910   20.5020 C   0  0  0  0  0  3  0  0  0  0  0  0
  -29.4780  -19.8750   20.3820 C   0  0  0  0  0  0  0  0  0  0  0  0
  -28.7470  -21.1100   19.9260 N   0  0  0  0  0  0  0  0  0  0  0  0
  -28.2260  -20.9840   19.0560 H   0  0  0  0  0  0  0  0  0  0  0  0
  -32.3790  -18.7690   21.6710 C   0  0  0  0  0  1  0  0  0  0  0  0
  -30.1890  -17.8240   22.7400 C   0  0  0  0  0  1  0  0  0  0  0  0
  -31.0110  -19.0590   22.3230 C   0  0  0  0  0  3  0  0  0  0  0  0
  -29.9460  -21.3410   24.6300 C   0  0  0  0  0  1  0  0  0  0  0  0
  -31.5750  -22.9010   23.5430 C   0  0  0  0  0  1  0  0  0  0  0  0
  -30.7350  -21.7100   23.4600 N   0  0  0  0  0  0  0  0  0  0  0  0
  -29.7020  -18.2900   19.5840 C   0  0  0  0  0  2  0  0  0  0  0  0
  -30.3930  -15.3450   19.7730 C   0  0  0  0  0  0  0  0  0  0  0  0
  -30.3380  -12.8730   18.9220 C   0  0  0  0  0  2  0  0  0  0  0  0
  -29.3390  -12.6360   17.7590 C   0  0  0  0  0  2  0  0  0  0  0  0
  -27.9300  -12.3450   18.3040 C   0  0  0  0  0  2  0  0  0  0  0  0
  -27.5510  -13.3090   19.4530 C   0  0  0  0  0  3  0  0  0  0  0  0
  -28.6730  -13.4860   20.5000 C   0  0  0  0  0  2  0  0  0  0  0  0
  -29.8450  -14.0190   19.7840 N   0  0  0  0  0  0  0  0  0  0  0  0
  -31.5780  -15.3400   19.4040 O   0  0  0  0  0  0  0  0  0  0  0  0
  -29.6390  -16.6280   19.9740 N   0  0  0  0  0  0  0  0  0  0  0  0
  -28.7220  -16.4040   20.3280 H   0  0  0  0  0  0  0  0  0  0  0  0
  -25.2540  -13.8560   20.4060 C   0  0  0  0  0  0  0  0  0  0  0  0
  -24.2190  -13.0770   20.8360 C   0  0  0  0  0  0  0  0  0  0  0  0
  -24.6690  -11.7250   20.7310 C   0  0  0  0  0  0  0  0  0  0  0  0
  -26.2660  -12.9820   20.0560 N   0  0  0  0  0  0  0  0  0  0  0  0
  -25.9330  -11.6910   20.3180 N   0  0  0  0  0  0  0  0  0  0  0  0
  -23.9470  -10.4630   20.9410 C   0  0  0  0  0  0  0  0  0  0  0  0
  -24.3890   -9.5040   21.8790 C   0  0  0  0  0  3  0  0  0  0  0  0
  -23.6620   -8.3100   22.0800 C   0  0  0  0  0  3  0  0  0  0  0  0
  -22.4800   -8.0660   21.3420 C   0  0  0  0  0  0  0  0  0  0  0  0
  -22.0560   -9.0140   20.3940 C   0  0  0  0  0  3  0  0  0  0  0  0
  -22.7830  -10.1990   20.1910 C   0  0  0  0  0  3  0  0  0  0  0  0
  -21.7250   -6.9240   21.4510 O   0  0  0  0  0  0  0  0  0  0  0  0
  -21.6200   -6.2400   22.6370 C   0  0  0  0  0  0  0  0  0  0  0  0
  -21.1430   -6.8570   23.8130 C   0  0  0  0  0  3  0  0  0  0  0  0
  -20.9860   -6.1000   24.9910 C   0  0  0  0  0  3  0  0  0  0  0  0
  -21.2950   -4.7270   24.9930 C   0  0  0  0  0  0  0  0  0  0  0  0
  -21.7660   -4.1090   23.8210 C   0  0  0  0  0  3  0  0  0  0  0  0
  -21.9240   -4.8640   22.6450 C   0  0  0  0  0  0  0  0  0  0  0  0
  -22.3570   -4.2580   21.5130 F   0  0  0  0  0  0  0  0  0  0  0  0
  -21.1380   -3.9970   26.1220 F   0  0  0  0  0  0  0  0  0  0  0  0
  -22.8510  -13.5570   21.2240 C   0  0  0  0  0  0  0  0  0  0  0  0
  -22.1960  -12.8610   22.1460 N   0  0  0  0  0  0  0  0  0  0  0  0
  -22.3760  -14.5860   20.7450 O   0  0  0  0  0  0  0  0  0  0  0  0
  -22.5950  -12.0290   22.5550 H   0  0  0  0  0  0  0  0  0  0  0  0
  -21.2810  -13.1670   22.4500 H   0  0  0  0  0  0  0  0  0  0  0  0
  -25.4120  -15.2310   20.2520 N   0  0  0  0  0  0  0  0  0  0  0  0
  -24.6510  -15.8780   20.4270 H   0  0  0  0  0  0  0  0  0  0  0  0
  -26.2090  -15.6700   19.8130 H   0  0  0  0  0  0  0  0  0  0  0  0
  -27.6690  -23.9430   20.1250 C   0  0  0  0  0  2  0  0  0  0  0  0
  -27.8600  -25.5950   20.3880 O   0  0  0  0  0  0  0  0  0  0  0  0
  -24.5020  -31.8530   23.0930 C   0  0  0  0  0  0  0  0  0  0  0  0
  -26.8910  -26.7460   20.2400 C   0  0  0  0  0  0  0  0  0  0  0  0
  -23.2450  -30.4060   21.5490 C   0  0  0  0  0  3  0  0  0  0  0  0
  -24.6310  -28.7060   20.1590 C   0  0  0  0  0  0  0  0  0  0  0  0
  -25.8130  -30.5460   21.3370 C   0  0  0  0  0  2  0  0  0  0  0  0
  -25.8400  -29.1020   20.7410 C   0  0  0  0  0  0  0  0  0  0  0  0
  -26.9580  -28.1420   20.7600 C   0  0  0  0  0  3  0  0  0  0  0  0
  -25.6560  -26.5230   19.5870 C   0  0  0  0  0  3  0  0  0  0  0  0
  -24.5670  -27.4390   19.5590 C   0  0  0  0  0  3  0  0  0  0  0  0
  -23.4290  -29.6550   20.1990 C   0  0  0  0  0  2  0  0  0  0  0  0
  -24.5440  -30.9670   22.0440 N   0  0  0  0  0  0  0  0  0  0  0  0
  -23.4300  -32.1870   23.6240 O   0  0  0  0  0  0  0  0  0  0  0  0
  -22.5550  -29.4720   22.5770 C   0  0  0  0  0  0  0  0  0  0  0  0
  -21.2280  -29.2750   22.4530 N   0  0  0  0  0  0  0  0  0  0  0  0
  -23.2210  -28.9200   23.4560 O   0  0  0  0  0  0  0  0  0  0  0  0
  -20.7410  -29.7710   21.7190 H   0  0  0  0  0  0  0  0  0  0  0  0
  -17.8870  -27.9390   22.9400 C   0  0  0  0  0  0  0  0  0  0  0  0
  -20.4160  -28.3780   23.2830 C   0  0  0  0  0  3  0  0  0  0  0  0
  -20.6190  -26.9020   22.8680 C   0  0  0  0  0  2  0  0  0  0  0  0
  -19.5860  -26.4140   21.8470 C   0  0  0  0  0  2  0  0  0  0  0  0
  -18.1690  -26.5410   22.4130 C   0  0  0  0  0  2  0  0  0  0  0  0
  -18.9420  -28.8060   23.3330 C   0  0  0  0  0  0  0  0  0  0  0  0
  -18.6250  -30.1040   23.7890 C   0  0  0  0  0  3  0  0  0  0  0  0
  -17.2880  -30.5380   23.8540 C   0  0  0  0  0  3  0  0  0  0  0  0
  -16.2480  -29.6710   23.4740 C   0  0  0  0  0  3  0  0  0  0  0  0
  -16.5490  -28.3730   23.0240 C   0  0  0  0  0  3  0  0  0  0  0  0
  -25.7970  -32.5040   23.6650 C   0  0  0  0  0  3  0  0  0  0  0  0
  -26.3780  -31.7300   24.9140 C   0  0  1  0  0  0  0  0  0  0  0  0
  -25.3320  -31.4600   26.0220 C   0  0  0  0  0  1  0  0  0  0  0  0
  -26.9750  -30.3690   24.4950 C   0  0  0  0  0  1  0  0  0  0  0  0
  -27.5380  -32.5420   25.5390 C   0  0  0  0  0  1  0  0  0  0  0  0
  -25.4820  -33.8960   24.0370 N   0  0  0  0  0  0  0  0  0  0  0  0
  -25.8180  -34.9780   23.3210 C   0  0  0  0  0  0  0  0  0  0  0  0
  -26.4860  -34.9100   22.2870 O   0  0  0  0  0  0  0  0  0  0  0  0
  -24.8880  -34.0210   24.8420 H   0  0  0  0  0  0  0  0  0  0  0  0
  -24.1100  -36.8080   23.0300 C   0  0  0  0  0  1  0  0  0  0  0  0
  -25.3400  -36.3530   23.8330 C   0  0  0  0  0  3  0  0  0  0  0  0
  -27.4770  -37.1840   24.7140 C   0  0  0  0  0  1  0  0  0  0  0  0
  -26.3830  -37.4020   23.7710 N   0  0  0  0  0  0  0  0  0  0  0  0
  -25.9840  -38.3180   23.9550 H   0  0  0  0  0  0  0  0  0  0  0  0
  1  3  2  0
  2  3  1  0
  2 10  1  0
  3 13  1  0
  4 53  1  0
  4  1  1  0
  5  2  2  0
  6  5  1  0
  6  4  1  0
  7  6  1  0
  8 10  1  0
 10  9  1  0
 13 12  1  0
 13 11  1  0
 14 23  1  0
 14  5  1  0
 15 21  1  0
 15 23  1  0
 16 21  1  0
 17 18  1  0
 17 16  1  0
 19 18  1  0
 19 28  1  0
 19 20  1  0
 21 20  1  0
 22 15  2  0
 23 24  1  0
 25 26  2  0
 26 45  1  0
 27 26  1  0
 27 30  1  0
 28 29  1  0
 28 25  1  0
 29 27  2  0
 30 31  1  0
 31 32  2  0
 33 36  1  0
 33 32  1  0
 34 33  2  0
 35 34  1  0
 35 30  2  0
 36 37  1  0
 37 42  2  0
 37 38  1  0
 38 39  2  0
 39 40  1  0
 40 44  1  0
 41 40  2  0
 42 41  1  0
 43 42  1  0
 45 46  1  0
 46 49  1  0
 46 48  1  0
 47 45  2  0
 50 25  1  0
 50 51  1  0
 52 50  1  0
 53 54  1  0
 55 66  2  0
 56 54  1  0
 56 61  1  0
 57 65  1  0
 57 67  1  0
 58 64  1  0
 58 60  1  0
 59 65  1  0
 60 61  2  0
 60 59  1  0
 62 56  2  0
 63 62  1  0
 63 58  2  0
 64 57  1  0
 65 55  1  0
 67 69  2  0
 68 67  1  0
 70 68  1  0
 71 80  2  0
 71 76  1  0
 72 68  1  0
 72 76  1  0
 73 72  1  0
 74 75  1  0
 74 73  1  0
 75 71  1  0
 76 77  2  0
 77 78  1  0
 79 78  2  0
 80 79  1  0
 81 55  1  0
 81 86  1  0
 81 82  1  0
 82 85  1  1
 82 83  1  0
 84 82  1  0
 86 89  1  0
 87 91  1  0
 87 86  1  0
 88 87  2  0
 91 90  1  0
 93 91  1  0
 93 94  1  0
 93 92  1  0
M  ISO  4  15 100  23 100  53 101  54 101
M  END
>  <TORSDO>  (90) 
F 20

>  <SCORE>  (90) 
-12.867

>  <name>  (90) 
89

>  <ligand_id>  (90) 
89

>  <original_smiles>  (90) 
[H]c1c([H])c([H])c2c(c1[H])C([H])([H])C([H])([H])C([H])([H])C2([H])N([H])C(=O)C1([H])N(C(=O)C([H])(N([H])C(=O)C([H])(N([H])C([H])([H])[H])C([H])([H])[H])C(C([H])([H])[H])(C([H])([H])[H])C([H])([H])[H])C([H])([H])c2c([H])c(OC([H])([H])c3c([H])c(N(C([H])([H])[H])C([H])([H])[H])c(C([H])(C([H])([H])[H])C([H])([H])[H])c(C([H])([H])N([H])C(=O)N4C([H])([H])C([H])([H])C([H])([H])C([H])(n5nc(-c6c([H])c([H])c(Oc7c([H])c([H])c(F)c([H])c7F)c([H])c6[H])c(C(=O)N([H])[H])c5N([H])[H])C4([H])[H])[n+]3[H])c([H])c([H])c2C1([H])[H]

>  <smiles>  (90) 
[H]c1c([H])c([H])c2c(c1[H])C([H])([H])C([H])([H])C([H])([H])C2([H])N([H])C(=O)C1([H])N(C(=O)C([H])(N([H])C(=O)C([H])(N([H])C([H])([H])[H])C([H])([H])[H])C(C([H])([H])[H])(C([H])([H])[H])C([H])([H])[H])C([H])([H])c2c([H])c(OC([H])([H])c3c([H])c(N(C([H])([H])[H])C([H])([H])[H])c(C([H])(C([H])([H])[H])C([H])([H])[H])c(C([H])([H])N([H])C(=O)N4C([H])([H])C([H])([H])C([H])([H])C([H])(n5nc(-c6c([H])c([H])c(Oc7c([H])c([H])c(F)c([H])c7F)c([H])c6[H])c(C(=O)N([H])[H])c5N([H])[H])C4([H])[H])[n+]3[H])c([H])c([H])c2C1([H])[H]

$$$$
90:0:0
     RDKit          3D

 91 99  0  0  1  0  0  0  0  0999 V2000
  -28.8170  -22.3370   20.1230 N   0  0  0  0  0  4  0  0  0  0  0  0
  -29.0570  -22.2750   19.1450 H   0  0  0  0  0  0  0  0  0  0  0  0
  -27.8350  -22.1190   20.1930 H   0  0  0  0  0  0  0  0  0  0  0  0
  -29.0360  -23.8040   20.5610 C   0  0  0  0  0  3  0  0  0  0  0  0
  -28.0340  -24.9420   20.0050 C   0  0  0  0  0  3  0  0  0  0  0  0
  -28.2440  -26.4060   20.2850 O   0  0  0  0  0  0  0  0  0  0  0  0
  -24.5750  -31.9150   23.2390 C   0  0  0  0  0  0  0  0  0  0  0  0
  -27.1480  -27.2970   20.2010 C   0  0  0  0  0  0  0  0  0  0  0  0
  -23.3620  -30.5170   21.6060 C   0  0  0  0  0  3  0  0  0  0  0  0
  -24.8000  -28.9540   20.1810 C   0  0  0  0  0  0  0  0  0  0  0  0
  -25.9050  -30.8120   21.4220 C   0  0  0  0  0  2  0  0  0  0  0  0
  -25.9740  -29.4270   20.7790 C   0  0  0  0  0  0  0  0  0  0  0  0
  -27.1500  -28.6110   20.7780 C   0  0  0  0  0  3  0  0  0  0  0  0
  -25.9520  -26.8980   19.5570 C   0  0  0  0  0  3  0  0  0  0  0  0
  -24.7940  -27.6970   19.5580 C   0  0  0  0  0  3  0  0  0  0  0  0
  -23.5710  -29.8390   20.2280 C   0  0  0  0  0  2  0  0  0  0  0  0
  -24.6330  -31.1000   22.1460 N   0  0  0  0  0  0  0  0  0  0  0  0
  -23.4950  -32.2020   23.7740 O   0  0  0  0  0  0  0  0  0  0  0  0
  -22.6920  -29.5090   22.5720 C   0  0  0  0  0  0  0  0  0  0  0  0
  -21.3630  -29.3440   22.4510 N   0  0  0  0  0  0  0  0  0  0  0  0
  -23.3660  -28.8800   23.3900 O   0  0  0  0  0  0  0  0  0  0  0  0
  -20.8760  -29.9040   21.7660 H   0  0  0  0  0  0  0  0  0  0  0  0
  -17.9790  -28.1710   22.9630 C   0  0  0  0  0  0  0  0  0  0  0  0
  -20.5390  -28.4160   23.2280 C   0  0  0  0  0  3  0  0  0  0  0  0
  -20.6310  -26.9810   22.6590 C   0  0  0  0  0  2  0  0  0  0  0  0
  -19.5250  -26.6610   21.6480 C   0  0  0  0  0  2  0  0  0  0  0  0
  -18.1460  -26.8180   22.2940 C   0  0  0  0  0  2  0  0  0  0  0  0
  -19.1030  -28.9280   23.3880 C   0  0  0  0  0  0  0  0  0  0  0  0
  -18.8940  -30.1950   23.9760 C   0  0  0  0  0  3  0  0  0  0  0  0
  -17.5930  -30.7050   24.1440 C   0  0  0  0  0  3  0  0  0  0  0  0
  -16.4830  -29.9450   23.7360 C   0  0  0  0  0  3  0  0  0  0  0  0
  -16.6760  -28.6800   23.1510 C   0  0  0  0  0  3  0  0  0  0  0  0
  -25.8620  -32.5430   23.8560 C   0  0  0  0  0  3  0  0  0  0  0  0
  -25.5600  -33.9440   24.1890 N   0  0  0  0  0  0  0  0  0  0  0  0
  -25.8860  -34.9960   23.4270 C   0  0  0  0  0  0  0  0  0  0  0  0
  -26.5430  -34.8900   22.3880 O   0  0  0  0  0  0  0  0  0  0  0  0
  -24.9750  -34.1000   24.9960 H   0  0  0  0  0  0  0  0  0  0  0  0
  -24.1560  -36.7930   23.0970 C   0  0  0  0  0  1  0  0  0  0  0  0
  -25.4080  -36.3860   23.8900 C   0  0  0  0  0  3  0  0  0  0  0  0
  -27.5580  -37.2670   24.6860 C   0  0  0  0  0  1  0  0  0  0  0  0
  -26.4400  -37.4370   23.7610 N   0  0  0  0  0  0  0  0  0  0  0  0
  -26.0380  -38.3580   23.9140 H   0  0  0  0  0  0  0  0  0  0  0  0
  -26.3800  -31.7710   25.1320 C   0  0  1  0  0  0  0  0  0  0  0  0
  -25.2890  -31.5410   26.2060 C   0  0  0  0  0  1  0  0  0  0  0  0
  -26.9560  -30.3900   24.7430 C   0  0  0  0  0  1  0  0  0  0  0  0
  -27.5370  -32.5600   25.7910 C   0  0  0  0  0  1  0  0  0  0  0  0
  -29.5850  -21.2410   20.8720 C   0  0  0  0  0  2  0  0  0  0  0  0
  -30.3490  -19.5960   18.9870 C   0  0  0  0  0  1  0  0  0  0  0  0
  -29.6650  -19.6800   20.3590 C   0  0  0  0  0  3  0  0  0  0  0  0
  -31.5050  -19.4110   22.0580 C   0  0  0  0  0  1  0  0  0  0  0  0
  -30.3420  -18.6120   21.3930 C   0  0  0  0  0  3  0  0  0  0  0  0
  -30.6640  -14.7210   20.0530 C   0  0  0  0  0  0  0  0  0  0  0  0
  -30.2550  -12.5200   18.9270 C   0  0  0  0  0  2  0  0  0  0  0  0
  -29.2460  -12.6710   17.7710 C   0  0  0  0  0  2  0  0  0  0  0  0
  -27.8050  -12.5150   18.2910 C   0  0  0  0  0  2  0  0  0  0  0  0
  -27.5420  -13.3610   19.5650 C   0  0  0  0  0  3  0  0  0  0  0  0
  -28.6680  -13.2050   20.6080 C   0  0  0  0  0  2  0  0  0  0  0  0
  -29.9390  -13.5480   19.9520 N   0  0  0  0  0  0  0  0  0  0  0  0
  -31.7240  -14.8270   19.4280 O   0  0  0  0  0  0  0  0  0  0  0  0
  -31.5350  -16.3810   22.2420 C   0  0  0  0  0  2  0  0  0  0  0  0
  -30.2180  -15.6230   22.2550 C   0  0  0  0  0  2  0  0  0  0  0  0
  -30.9690  -17.1370   21.0160 C   0  0  0  0  0  3  0  0  0  0  0  0
  -30.1960  -15.8100   20.7990 N   0  0  0  0  0  0  0  0  0  0  0  0
  -25.2140  -13.9640   20.4570 C   0  0  0  0  0  0  0  0  0  0  0  0
  -24.1650  -13.1960   20.8820 C   0  0  0  0  0  0  0  0  0  0  0  0
  -24.6070  -11.8400   20.7930 C   0  0  0  0  0  0  0  0  0  0  0  0
  -26.2280  -13.0780   20.1340 N   0  0  0  0  0  0  0  0  0  0  0  0
  -25.8730  -11.7920   20.3980 N   0  0  0  0  0  0  0  0  0  0  0  0
  -23.8750  -10.5840   21.0100 C   0  0  0  0  0  0  0  0  0  0  0  0
  -24.3470   -9.6000   21.9070 C   0  0  0  0  0  3  0  0  0  0  0  0
  -23.6190   -8.4080   22.1120 C   0  0  0  0  0  3  0  0  0  0  0  0
  -22.4010   -8.1940   21.4220 C   0  0  0  0  0  0  0  0  0  0  0  0
  -21.9470   -9.1670   20.5150 C   0  0  0  0  0  3  0  0  0  0  0  0
  -22.6770  -10.3500   20.3070 C   0  0  0  0  0  3  0  0  0  0  0  0
  -21.6380   -7.0580   21.5400 O   0  0  0  0  0  0  0  0  0  0  0  0
  -21.6350   -6.3080   22.6890 C   0  0  0  0  0  0  0  0  0  0  0  0
  -21.2930   -6.8620   23.9410 C   0  0  0  0  0  3  0  0  0  0  0  0
  -21.2370   -6.0390   25.0840 C   0  0  0  0  0  3  0  0  0  0  0  0
  -21.5090   -4.6630   24.9750 C   0  0  0  0  0  0  0  0  0  0  0  0
  -21.8430   -4.1070   23.7280 C   0  0  0  0  0  3  0  0  0  0  0  0
  -21.9030   -4.9270   22.5870 C   0  0  0  0  0  0  0  0  0  0  0  0
  -22.2050   -4.3820   21.3840 F   0  0  0  0  0  0  0  0  0  0  0  0
  -21.4480   -3.8710   26.0710 F   0  0  0  0  0  0  0  0  0  0  0  0
  -22.7950  -13.6860   21.2560 C   0  0  0  0  0  0  0  0  0  0  0  0
  -22.1230  -12.9870   22.1630 N   0  0  0  0  0  0  0  0  0  0  0  0
  -22.3340  -14.7220   20.7800 O   0  0  0  0  0  0  0  0  0  0  0  0
  -22.5120  -12.1500   22.5680 H   0  0  0  0  0  0  0  0  0  0  0  0
  -21.2060  -13.2920   22.4560 H   0  0  0  0  0  0  0  0  0  0  0  0
  -25.3850  -15.3360   20.2960 N   0  0  0  0  0  0  0  0  0  0  0  0
  -24.6440  -16.0040   20.4770 H   0  0  0  0  0  0  0  0  0  0  0  0
  -26.2340  -15.7670   19.9470 H   0  0  0  0  0  0  0  0  0  0  0  0
  1  3  1  0
  1  4  1  0
  1 47  1  0
  2  1  1  0
  5  6  1  0
  5  4  2  0
  7 18  2  0
  8  6  1  0
  8 13  1  0
  9 17  1  0
  9 19  1  0
 10 16  1  0
 10 12  1  0
 11 17  1  0
 12 11  1  0
 13 12  2  0
 14 15  1  0
 14  8  2  0
 15 10  2  0
 16  9  1  0
 17  7  1  0
 19 21  2  0
 20 19  1  0
 22 20  1  0
 23 32  2  0
 23 28  1  0
 24 20  1  0
 24 28  1  0
 25 24  1  0
 26 27  1  0
 26 25  1  0
 27 23  1  0
 28 29  2  0
 29 30  1  0
 31 30  2  0
 32 31  1  0
 33  7  1  0
 33 34  1  0
 33 43  1  0
 34 37  1  0
 35 39  1  0
 35 34  1  0
 36 35  2  0
 39 38  1  0
 41 39  1  0
 41 42  1  0
 41 40  1  0
 43 46  1  1
 43 44  1  0
 45 43  1  0
 49 48  1  0
 49 47  1  0
 49 51  1  0
 51 50  1  0
 52 63  1  0
 53 58  1  0
 54 55  1  0
 54 53  1  0
 56 55  1  0
 56 67  1  0
 56 57  1  0
 58 52  1  0
 58 57  1  0
 59 52  2  0
 60 61  1  0
 62 51  1  0
 62 60  1  0
 63 62  1  0
 63 61  1  0
 64 65  2  0
 65 84  1  0
 66 65  1  0
 66 69  1  0
 67 68  1  0
 67 64  1  0
 68 66  2  0
 69 70  1  0
 70 71  2  0
 72 75  1  0
 72 71  1  0
 73 72  2  0
 74 73  1  0
 74 69  2  0
 75 76  1  0
 76 77  1  0
 77 78  2  0
 79 78  1  0
 79 83  1  0
 80 79  2  0
 81 76  2  0
 81 80  1  0
 82 81  1  0
 84 85  1  0
 85 88  1  0
 85 87  1  0
 86 84  2  0
 89 64  1  0
 89 90  1  0
 91 89  1  0
M  ISO  4   5 101   6 101  52 100  63 100
M  END
>  <TORSDO>  (91) 
F 21

>  <SCORE>  (91) 
-12.146

>  <name>  (91) 
90

>  <ligand_id>  (91) 
90

>  <original_smiles>  (91) 
[H]c1c([H])c([H])c2c(c1[H])C([H])([H])C([H])([H])C([H])([H])C2([H])N([H])C(=O)C1([H])N(C(=O)C([H])(N([H])C(=O)C([H])(N([H])C([H])([H])[H])C([H])([H])[H])C(C([H])([H])[H])(C([H])([H])[H])C([H])([H])[H])C([H])([H])c2c([H])c(OC([H])([H])C([H])([H])[N+]([H])([H])C([H])([H])C([H])(C([H])([H])[H])C([H])(C([H])([H])[H])C3([H])N(C(=O)N4C([H])([H])C([H])([H])C([H])([H])C([H])(n5nc(-c6c([H])c([H])c(Oc7c([H])c([H])c(F)c([H])c7F)c([H])c6[H])c(C(=O)N([H])[H])c5N([H])[H])C4([H])[H])C([H])([H])C3([H])[H])c([H])c([H])c2C1([H])[H]

>  <smiles>  (91) 
[H]c1c([H])c([H])c2c(c1[H])C([H])([H])C([H])([H])C([H])([H])C2([H])N([H])C(=O)C1([H])N(C(=O)C([H])(N([H])C(=O)C([H])(N([H])C([H])([H])[H])C([H])([H])[H])C(C([H])([H])[H])(C([H])([H])[H])C([H])([H])[H])C([H])([H])c2c([H])c(OC([H])([H])C([H])([H])[N+]([H])([H])C([H])([H])C([H])(C([H])([H])[H])C([H])(C([H])([H])[H])C3([H])N(C(=O)N4C([H])([H])C([H])([H])C([H])([H])C([H])(n5nc(-c6c([H])c([H])c(Oc7c([H])c([H])c(F)c([H])c7F)c([H])c6[H])c(C(=O)N([H])[H])c5N([H])[H])C4([H])[H])C([H])([H])C3([H])[H])c([H])c([H])c2C1([H])[H]

$$$$
91:0:0
     RDKit          3D

 93101  0  0  1  0  0  0  0  0999 V2000
  -29.7970  -22.0640   19.2590 C   0  0  0  0  0  3  0  0  0  0  0  0
  -28.9050  -21.2070   21.0690 C   0  0  0  0  0  3  0  0  0  0  0  0
  -29.1050  -22.4430   20.4460 C   0  0  0  0  0  0  0  0  0  0  0  0
  -29.9460  -20.6940   19.1760 C   0  0  0  0  0  0  0  0  0  0  0  0
  -29.4070  -20.1040   20.3240 N   0  0  0  0  0  0  0  0  0  0  0  0
  -32.0960  -19.8470   18.1920 C   0  0  0  0  0  1  0  0  0  0  0  0
  -30.1850  -20.4710   16.6750 C   0  0  0  0  0  1  0  0  0  0  0  0
  -30.5680  -19.9120   18.0550 C   0  0  0  0  0  3  0  0  0  0  0  0
  -29.9170  -24.4050   21.8010 C   0  0  0  0  0  1  0  0  0  0  0  0
  -27.4790  -23.8660   21.8080 C   0  0  0  0  0  1  0  0  0  0  0  0
  -28.7420  -23.9260   20.9320 C   0  0  2  0  0  0  0  0  0  0  0  0
  -28.4820  -25.0630   19.8150 C   0  0  0  0  0  2  0  0  0  0  0  0
  -28.4010  -26.5060   20.2170 O   0  0  0  0  0  0  0  0  0  0  0  0
  -24.6370  -31.8820   23.2200 C   0  0  0  0  0  0  0  0  0  0  0  0
  -27.2440  -27.3120   20.1530 C   0  0  0  0  0  0  0  0  0  0  0  0
  -23.4250  -30.4810   21.5880 C   0  0  0  0  0  3  0  0  0  0  0  0
  -24.8680  -28.9280   20.1540 C   0  0  0  0  0  0  0  0  0  0  0  0
  -25.9610  -30.8040   21.3830 C   0  0  0  0  0  2  0  0  0  0  0  0
  -26.0390  -29.4220   20.7390 C   0  0  0  0  0  0  0  0  0  0  0  0
  -27.2260  -28.6270   20.7240 C   0  0  0  0  0  3  0  0  0  0  0  0
  -26.0430  -26.8710   19.5510 C   0  0  0  0  0  3  0  0  0  0  0  0
  -24.8730  -27.6580   19.5530 C   0  0  0  0  0  3  0  0  0  0  0  0
  -23.6300  -29.8000   20.2080 C   0  0  0  0  0  2  0  0  0  0  0  0
  -24.6940  -31.0740   22.1200 N   0  0  0  0  0  0  0  0  0  0  0  0
  -23.5570  -32.1580   23.7630 O   0  0  0  0  0  0  0  0  0  0  0  0
  -22.7700  -29.4650   22.5550 C   0  0  0  0  0  0  0  0  0  0  0  0
  -21.4430  -29.2850   22.4370 N   0  0  0  0  0  0  0  0  0  0  0  0
  -23.4550  -28.8440   23.3720 O   0  0  0  0  0  0  0  0  0  0  0  0
  -20.9500  -29.8380   21.7510 H   0  0  0  0  0  0  0  0  0  0  0  0
  -18.0760  -28.0670   22.9450 C   0  0  0  0  0  0  0  0  0  0  0  0
  -20.6310  -28.3450   23.2120 C   0  0  0  0  0  3  0  0  0  0  0  0
  -20.7430  -26.9110   22.6430 C   0  0  0  0  0  2  0  0  0  0  0  0
  -19.6420  -26.5770   21.6310 C   0  0  0  0  0  2  0  0  0  0  0  0
  -18.2600  -26.7160   22.2760 C   0  0  0  0  0  2  0  0  0  0  0  0
  -19.1890  -28.8390   23.3710 C   0  0  0  0  0  0  0  0  0  0  0  0
  -18.9620  -30.1030   23.9570 C   0  0  0  0  0  3  0  0  0  0  0  0
  -17.6540  -30.5960   24.1220 C   0  0  0  0  0  3  0  0  0  0  0  0
  -16.5540  -29.8210   23.7130 C   0  0  0  0  0  3  0  0  0  0  0  0
  -16.7660  -28.5580   23.1300 C   0  0  0  0  0  3  0  0  0  0  0  0
  -25.9230  -32.5180   23.8330 C   0  0  0  0  0  3  0  0  0  0  0  0
  -25.6120  -33.9150   24.1690 N   0  0  0  0  0  0  0  0  0  0  0  0
  -25.9370  -34.9710   23.4100 C   0  0  0  0  0  0  0  0  0  0  0  0
  -26.5980  -34.8710   22.3730 O   0  0  0  0  0  0  0  0  0  0  0  0
  -25.0220  -34.0660   24.9740 H   0  0  0  0  0  0  0  0  0  0  0  0
  -24.2030  -36.7630   23.0770 C   0  0  0  0  0  1  0  0  0  0  0  0
  -25.4510  -36.3580   23.8750 C   0  0  0  0  0  3  0  0  0  0  0  0
  -27.5920  -37.2450   24.6870 C   0  0  0  0  0  1  0  0  0  0  0  0
  -26.4820  -37.4130   23.7550 N   0  0  0  0  0  0  0  0  0  0  0  0
  -26.0750  -38.3320   23.9080 H   0  0  0  0  0  0  0  0  0  0  0  0
  -26.4500  -31.7460   25.1070 C   0  0  1  0  0  0  0  0  0  0  0  0
  -25.3650  -31.5120   26.1840 C   0  0  0  0  0  1  0  0  0  0  0  0
  -27.0280  -30.3680   24.7110 C   0  0  0  0  0  1  0  0  0  0  0  0
  -27.6040  -32.5420   25.7600 C   0  0  0  0  0  1  0  0  0  0  0  0
  -29.1720  -18.6180   20.6400 C   0  0  0  0  0  2  0  0  0  0  0  0
  -30.2890  -17.4360   20.5110 C   0  0  0  0  0  2  0  0  0  0  0  0
  -30.5670  -14.8220   20.2950 C   0  0  0  0  0  0  0  0  0  0  0  0
  -30.3700  -12.5080   19.3640 C   0  0  0  0  0  2  0  0  0  0  0  0
  -29.4240  -12.4790   18.1420 C   0  0  0  0  0  2  0  0  0  0  0  0
  -27.9500  -12.3400   18.5790 C   0  0  0  0  0  2  0  0  0  0  0  0
  -27.5630  -13.2470   19.7790 C   0  0  0  0  0  3  0  0  0  0  0  0
  -28.6400  -13.2510   20.8850 C   0  0  0  0  0  2  0  0  0  0  0  0
  -29.9200  -13.6000   20.2530 N   0  0  0  0  0  0  0  0  0  0  0  0
  -31.7960  -14.8580   20.1840 O   0  0  0  0  0  0  0  0  0  0  0  0
  -29.0320  -16.1310   18.9340 C   0  0  0  0  0  1  0  0  0  0  0  0
  -29.8230  -16.0090   20.1720 N   0  0  0  0  0  0  0  0  0  0  0  0
  -25.1890  -13.8510   20.5240 C   0  0  0  0  0  0  0  0  0  0  0  0
  -24.1240  -13.0780   20.8930 C   0  0  0  0  0  0  0  0  0  0  0  0
  -24.5900  -11.7280   20.8690 C   0  0  0  0  0  0  0  0  0  0  0  0
  -26.2300  -12.9670   20.2900 N   0  0  0  0  0  0  0  0  0  0  0  0
  -25.8800  -11.6870   20.5650 N   0  0  0  0  0  0  0  0  0  0  0  0
  -23.8700  -10.4650   21.0590 C   0  0  0  0  0  0  0  0  0  0  0  0
  -24.3170   -9.4960   21.9830 C   0  0  0  0  0  3  0  0  0  0  0  0
  -23.6000   -8.2950   22.1630 C   0  0  0  0  0  3  0  0  0  0  0  0
  -22.4210   -8.0550   21.4170 C   0  0  0  0  0  0  0  0  0  0  0  0
  -21.9940   -9.0130   20.4810 C   0  0  0  0  0  3  0  0  0  0  0  0
  -22.7130  -10.2060   20.2990 C   0  0  0  0  0  3  0  0  0  0  0  0
  -21.6730   -6.9060   21.5060 O   0  0  0  0  0  0  0  0  0  0  0  0
  -21.6490   -6.1540   22.6530 C   0  0  0  0  0  0  0  0  0  0  0  0
  -21.2500   -6.6970   23.8940 C   0  0  0  0  0  3  0  0  0  0  0  0
  -21.1720   -5.8690   25.0310 C   0  0  0  0  0  3  0  0  0  0  0  0
  -21.4820   -4.4990   24.9300 C   0  0  0  0  0  0  0  0  0  0  0  0
  -21.8760   -3.9560   23.6940 C   0  0  0  0  0  3  0  0  0  0  0  0
  -21.9560   -4.7800   22.5590 C   0  0  0  0  0  0  0  0  0  0  0  0
  -22.3130   -4.2480   21.3650 F   0  0  0  0  0  0  0  0  0  0  0  0
  -21.4000   -3.7030   26.0210 F   0  0  0  0  0  0  0  0  0  0  0  0
  -22.7250  -13.5520   21.1560 C   0  0  0  0  0  0  0  0  0  0  0  0
  -21.9950  -12.8570   22.0220 N   0  0  0  0  0  0  0  0  0  0  0  0
  -22.2850  -14.5730   20.6300 O   0  0  0  0  0  0  0  0  0  0  0  0
  -22.3610  -12.0300   22.4700 H   0  0  0  0  0  0  0  0  0  0  0  0
  -21.0550  -13.1570   22.2390 H   0  0  0  0  0  0  0  0  0  0  0  0
  -25.3530  -15.2220   20.3440 N   0  0  0  0  0  0  0  0  0  0  0  0
  -24.5940  -15.8840   20.4680 H   0  0  0  0  0  0  0  0  0  0  0  0
  -26.2160  -15.6600   20.0530 H   0  0  0  0  0  0  0  0  0  0  0  0
  1  3  1  0
  3 11  1  0
  3  2  2  0
  4  1  2  0
  4  5  1  0
  5 54  1  0
  5  2  1  0
  7  8  1  0
  8  6  1  0
  8  4  1  0
 11  9  1  1
 11 10  1  0
 12 13  1  0
 12 11  1  0
 14 25  2  0
 15 13  1  0
 15 20  1  0
 16 24  1  0
 16 26  1  0
 17 23  1  0
 17 19  1  0
 18 24  1  0
 19 18  1  0
 20 19  2  0
 21 22  1  0
 21 15  2  0
 22 17  2  0
 23 16  1  0
 24 14  1  0
 26 28  2  0
 27 26  1  0
 29 27  1  0
 30 39  2  0
 30 35  1  0
 31 27  1  0
 31 35  1  0
 32 31  1  0
 33 34  1  0
 33 32  1  0
 34 30  1  0
 35 36  2  0
 36 37  1  0
 38 37  2  0
 39 38  1  0
 40 14  1  0
 40 41  1  0
 40 50  1  0
 41 44  1  0
 42 46  1  0
 42 41  1  0
 43 42  2  0
 46 45  1  0
 48 46  1  0
 48 49  1  0
 48 47  1  0
 50 53  1  1
 50 51  1  0
 52 50  1  0
 55 54  1  0
 57 62  1  0
 58 59  1  0
 58 57  1  0
 60 59  1  0
 60 69  1  0
 60 61  1  0
 62 56  1  0
 62 61  1  0
 63 56  2  0
 64 65  1  0
 65 56  1  0
 65 55  1  0
 66 67  2  0
 67 86  1  0
 68 67  1  0
 68 71  1  0
 69 66  1  0
 69 70  1  0
 70 68  2  0
 71 72  1  0
 72 73  2  0
 74 77  1  0
 74 73  1  0
 75 74  2  0
 76 75  1  0
 76 71  2  0
 77 78  1  0
 78 79  1  0
 79 80  2  0
 81 80  1  0
 81 85  1  0
 82 81  2  0
 83 78  2  0
 83 82  1  0
 84 83  1  0
 86 87  1  0
 87 90  1  0
 87 89  1  0
 88 86  2  0
 91 92  1  0
 91 66  1  0
 93 91  1  0
M  ISO  4  12 101  13 101  56 100  65 100
M  END
>  <TORSDO>  (92) 
F 21

>  <SCORE>  (92) 
-13.477

>  <name>  (92) 
91

>  <ligand_id>  (92) 
91

>  <original_smiles>  (92) 
[H]c1c([H])c([H])c2c(c1[H])C([H])([H])C([H])([H])C([H])([H])C2([H])N([H])C(=O)C1([H])N(C(=O)C([H])(N([H])C(=O)C([H])(N([H])C([H])([H])[H])C([H])([H])[H])C(C([H])([H])[H])(C([H])([H])[H])C([H])([H])[H])C([H])([H])c2c([H])c(OC([H])([H])C(c3c([H])c(C([H])(C([H])([H])[H])C([H])([H])[H])n(C([H])([H])C([H])([H])N(C(=O)N4C([H])([H])C([H])([H])C([H])([H])C([H])(n5nc(-c6c([H])c([H])c(Oc7c([H])c([H])c(F)c([H])c7F)c([H])c6[H])c(C(=O)N([H])[H])c5N([H])[H])C4([H])[H])C([H])([H])[H])c3[H])(C([H])([H])[H])C([H])([H])[H])c([H])c([H])c2C1([H])[H]

>  <smiles>  (92) 
[H]c1c([H])c([H])c2c(c1[H])C([H])([H])C([H])([H])C([H])([H])C2([H])N([H])C(=O)C1([H])N(C(=O)C([H])(N([H])C(=O)C([H])(N([H])C([H])([H])[H])C([H])([H])[H])C(C([H])([H])[H])(C([H])([H])[H])C([H])([H])[H])C([H])([H])c2c([H])c(OC([H])([H])C(c3c([H])c(C([H])(C([H])([H])[H])C([H])([H])[H])n(C([H])([H])C([H])([H])N(C(=O)N4C([H])([H])C([H])([H])C([H])([H])C([H])(n5nc(-c6c([H])c([H])c(Oc7c([H])c([H])c(F)c([H])c7F)c([H])c6[H])c(C(=O)N([H])[H])c5N([H])[H])C4([H])[H])C([H])([H])[H])c3[H])(C([H])([H])[H])C([H])([H])[H])c([H])c([H])c2C1([H])[H]

$$$$
92:0:0
     RDKit          3D

 95103  0  0  1  0  0  0  0  0999 V2000
  -29.7150  -22.2650   20.4740 C   0  0  0  0  0  3  0  0  0  0  0  0
  -30.0690  -21.8330   18.3530 C   0  0  0  0  0  3  0  0  0  0  0  0
  -29.5920  -22.8600   19.1800 C   0  0  0  0  0  0  0  0  0  0  0  0
  -30.1960  -20.9730   20.3930 C   0  0  0  0  0  0  0  0  0  0  0  0
  -30.4020  -20.6430   19.0530 N   0  0  0  0  0  0  0  0  0  0  0  0
  -29.1150  -19.1470   21.7190 C   0  0  0  0  0  1  0  0  0  0  0  0
  -30.8050  -20.6540   22.8230 C   0  0  0  0  0  1  0  0  0  0  0  0
  -30.3840  -19.9820   21.5060 C   0  0  0  0  0  3  0  0  0  0  0  0
  -30.7050  -19.2510   18.4720 C   0  0  0  0  0  2  0  0  0  0  0  0
  -31.8750  -18.2720   19.0150 C   0  0  0  0  0  2  0  0  0  0  0  0
  -32.3180  -15.6790   19.3710 C   0  0  0  0  0  0  0  0  0  0  0  0
  -32.1210  -13.2340   18.9020 C   0  0  0  0  0  2  0  0  0  0  0  0
  -31.1300  -13.0130   17.7380 C   0  0  0  0  0  2  0  0  0  0  0  0
  -29.6810  -12.9370   18.2590 C   0  0  0  0  0  2  0  0  0  0  0  0
  -29.3410  -14.0750   19.2560 C   0  0  0  0  0  3  0  0  0  0  0  0
  -30.4450  -14.2490   20.3200 C   0  0  0  0  0  2  0  0  0  0  0  0
  -31.7090  -14.4680   19.6060 N   0  0  0  0  0  0  0  0  0  0  0  0
  -33.4920  -15.7220   18.9970 O   0  0  0  0  0  0  0  0  0  0  0  0
  -31.5270  -16.8150   19.3480 N   0  0  0  0  0  0  0  0  0  0  0  0
  -30.5680  -16.6510   19.6150 H   0  0  0  0  0  0  0  0  0  0  0  0
  -27.1150  -14.8600   20.2630 C   0  0  0  0  0  0  0  0  0  0  0  0
  -26.0040  -14.1790   20.6780 C   0  0  0  0  0  0  0  0  0  0  0  0
  -26.3000  -12.7920   20.4990 C   0  0  0  0  0  0  0  0  0  0  0  0
  -28.0230  -13.8970   19.8580 N   0  0  0  0  0  0  0  0  0  0  0  0
  -27.5450  -12.6420   20.0600 N   0  0  0  0  0  0  0  0  0  0  0  0
  -25.4480  -11.6060   20.6540 C   0  0  0  0  0  0  0  0  0  0  0  0
  -25.7460  -10.5990   21.5980 C   0  0  0  0  0  3  0  0  0  0  0  0
  -24.8970   -9.4800   21.7420 C   0  0  0  0  0  3  0  0  0  0  0  0
  -23.7360   -9.3610   20.9410 C   0  0  0  0  0  0  0  0  0  0  0  0
  -23.4580  -10.3550   19.9860 C   0  0  0  0  0  3  0  0  0  0  0  0
  -24.3070  -11.4650   19.8400 C   0  0  0  0  0  3  0  0  0  0  0  0
  -22.8670   -8.2990   20.9970 O   0  0  0  0  0  0  0  0  0  0  0  0
  -22.5370   -7.7010   22.1860 C   0  0  0  0  0  0  0  0  0  0  0  0
  -21.9050   -8.4140   23.2300 C   0  0  0  0  0  3  0  0  0  0  0  0
  -21.5200   -7.7420   24.4070 C   0  0  0  0  0  3  0  0  0  0  0  0
  -21.7570   -6.3620   24.5410 C   0  0  0  0  0  0  0  0  0  0  0  0
  -22.3830   -5.6500   23.5030 C   0  0  0  0  0  3  0  0  0  0  0  0
  -22.7680   -6.3180   22.3280 C   0  0  0  0  0  0  0  0  0  0  0  0
  -23.3500   -5.6230   21.3200 F   0  0  0  0  0  0  0  0  0  0  0  0
  -21.3800   -5.7160   25.6710 F   0  0  0  0  0  0  0  0  0  0  0  0
  -24.7010  -14.7810   21.1220 C   0  0  0  0  0  0  0  0  0  0  0  0
  -23.9790  -14.1040   22.0070 N   0  0  0  0  0  0  0  0  0  0  0  0
  -24.3400  -15.8870   20.7180 O   0  0  0  0  0  0  0  0  0  0  0  0
  -24.2820  -13.2060   22.3540 H   0  0  0  0  0  0  0  0  0  0  0  0
  -23.1090  -14.4930   22.3450 H   0  0  0  0  0  0  0  0  0  0  0  0
  -27.4160  -16.2170   20.1680 N   0  0  0  0  0  0  0  0  0  0  0  0
  -26.7150  -16.9260   20.3550 H   0  0  0  0  0  0  0  0  0  0  0  0
  -28.2290  -16.5850   19.6940 H   0  0  0  0  0  0  0  0  0  0  0  0
  -29.0420  -24.3270   18.8210 C   0  0  0  0  0  3  0  0  0  0  0  0
  -28.5280  -24.2130   16.3580 C   0  0  0  0  0  1  0  0  0  0  0  0
  -28.0270  -24.2310   17.7480 N   0  0  0  0  0  4  0  0  0  0  0  0
  -27.4370  -23.4300   17.9100 H   0  0  0  0  0  0  0  0  0  0  0  0
  -27.4510  -25.0530   17.8230 H   0  0  0  0  0  0  0  0  0  0  0  0
  -28.4100  -25.2910   19.9590 C   0  0  0  0  0  2  0  0  0  0  0  0
  -28.5560  -26.7880   19.8580 O   0  0  0  0  0  0  0  0  0  0  0  0
  -24.7120  -31.8220   23.4150 C   0  0  0  0  0  0  0  0  0  0  0  0
  -27.4170  -27.6160   19.9370 C   0  0  0  0  0  0  0  0  0  0  0  0
  -23.5310  -30.5420   21.6640 C   0  0  0  0  0  3  0  0  0  0  0  0
  -25.0100  -29.1700   20.0890 C   0  0  0  0  0  0  0  0  0  0  0  0
  -26.0600  -30.9500   21.4860 C   0  0  0  0  0  2  0  0  0  0  0  0
  -26.1730  -29.6350   20.7170 C   0  0  0  0  0  0  0  0  0  0  0  0
  -27.3800  -28.8740   20.6260 C   0  0  0  0  0  3  0  0  0  0  0  0
  -26.2300  -27.2140   19.2890 C   0  0  0  0  0  3  0  0  0  0  0  0
  -25.0420  -27.9680   19.3640 C   0  0  0  0  0  3  0  0  0  0  0  0
  -23.7500  -30.0020   20.2260 C   0  0  0  0  0  2  0  0  0  0  0  0
  -24.7870  -31.1190   22.2460 N   0  0  0  0  0  0  0  0  0  0  0  0
  -23.6280  -32.0140   23.9840 O   0  0  0  0  0  0  0  0  0  0  0  0
  -22.9130  -29.4220   22.5350 C   0  0  0  0  0  0  0  0  0  0  0  0
  -21.6110  -29.1500   22.3400 N   0  0  0  0  0  0  0  0  0  0  0  0
  -23.6060  -28.8010   23.3450 O   0  0  0  0  0  0  0  0  0  0  0  0
  -21.1050  -29.7110   21.6700 H   0  0  0  0  0  0  0  0  0  0  0  0
  -18.3410  -27.6150   22.5680 C   0  0  0  0  0  0  0  0  0  0  0  0
  -20.8400  -28.1070   23.0200 C   0  0  0  0  0  3  0  0  0  0  0  0
  -21.1160  -26.7160   22.4040 C   0  0  0  0  0  2  0  0  0  0  0  0
  -20.1200  -26.3330   21.3050 C   0  0  0  0  0  2  0  0  0  0  0  0
  -18.6910  -26.3190   21.8570 C   0  0  0  0  0  2  0  0  0  0  0  0
  -19.3500  -28.4620   23.1000 C   0  0  0  0  0  0  0  0  0  0  0  0
  -18.9700  -29.6710   23.7220 C   0  0  0  0  0  3  0  0  0  0  0  0
  -17.6150  -30.0370   23.8170 C   0  0  0  0  0  3  0  0  0  0  0  0
  -16.6200  -29.1880   23.3010 C   0  0  0  0  0  3  0  0  0  0  0  0
  -16.9830  -27.9790   22.6830 C   0  0  0  0  0  3  0  0  0  0  0  0
  -25.9820  -32.4370   24.0790 C   0  0  0  0  0  3  0  0  0  0  0  0
  -25.6820  -33.8400   24.4010 N   0  0  0  0  0  0  0  0  0  0  0  0
  -26.0470  -34.8890   23.6510 C   0  0  0  0  0  0  0  0  0  0  0  0
  -26.7430  -34.7770   22.6380 O   0  0  0  0  0  0  0  0  0  0  0  0
  -25.0730  -34.0020   25.1880 H   0  0  0  0  0  0  0  0  0  0  0  0
  -24.3520  -36.7050   23.2490 C   0  0  0  0  0  1  0  0  0  0  0  0
  -25.5650  -36.2830   24.0950 C   0  0  0  0  0  3  0  0  0  0  0  0
  -27.6850  -37.1450   24.9850 C   0  0  0  0  0  1  0  0  0  0  0  0
  -26.6130  -37.3250   24.0100 N   0  0  0  0  0  0  0  0  0  0  0  0
  -26.2130  -38.2500   24.1450 H   0  0  0  0  0  0  0  0  0  0  0  0
  -26.4430  -31.6600   25.3740 C   0  0  1  0  0  0  0  0  0  0  0  0
  -25.3030  -31.4000   26.3860 C   0  0  0  0  0  1  0  0  0  0  0  0
  -27.0610  -30.2920   25.0020 C   0  0  0  0  0  1  0  0  0  0  0  0
  -27.5500  -32.4610   26.1010 C   0  0  0  0  0  1  0  0  0  0  0  0
  2  5  1  0
  2  3  2  0
  3  1  1  0
  4  1  2  0
  4  8  1  0
  5  4  1  0
  8  6  1  0
  8  7  1  0
  9 10  1  0
  9  5  1  0
 10 19  1  0
 11 17  1  0
 12 17  1  0
 13 14  1  0
 13 12  1  0
 15 14  1  0
 15 24  1  0
 15 16  1  0
 17 16  1  0
 18 11  2  0
 19 11  1  0
 19 20  1  0
 21 22  2  0
 22 41  1  0
 23 26  1  0
 23 22  1  0
 24 25  1  0
 24 21  1  0
 25 23  2  0
 26 27  1  0
 27 28  2  0
 29 32  1  0
 29 28  1  0
 30 29  2  0
 31 30  1  0
 31 26  2  0
 32 33  1  0
 33 38  2  0
 33 34  1  0
 34 35  2  0
 35 36  1  0
 36 40  1  0
 37 36  2  0
 38 37  1  0
 39 38  1  0
 41 42  1  0
 42 45  1  0
 42 44  1  0
 43 41  2  0
 46 21  1  0
 46 47  1  0
 48 46  1  0
 49  3  1  0
 49 54  1  0
 50 51  1  0
 51 53  1  0
 51 52  1  0
 51 49  1  0
 55 57  1  0
 55 54  1  0
 56 67  2  0
 57 62  1  0
 58 66  1  0
 58 68  1  0
 59 65  1  0
 59 61  1  0
 60 66  1  0
 61 60  1  0
 62 61  2  0
 63 64  1  0
 63 57  2  0
 64 59  2  0
 65 58  1  0
 66 56  1  0
 68 70  2  0
 69 68  1  0
 71 69  1  0
 72 81  2  0
 72 77  1  0
 73 69  1  0
 73 77  1  0
 74 73  1  0
 75 76  1  0
 75 74  1  0
 76 72  1  0
 77 78  2  0
 78 79  1  0
 80 79  2  0
 81 80  1  0
 82 56  1  0
 82 83  1  0
 82 92  1  0
 83 86  1  0
 84 88  1  0
 84 83  1  0
 85 84  2  0
 88 87  1  0
 90 88  1  0
 90 91  1  0
 90 89  1  0
 92 95  1  1
 92 93  1  0
 94 92  1  0
M  ISO  4  11 100  19 100  54 101  55 101
M  END
>  <TORSDO>  (93) 
F 22

>  <SCORE>  (93) 
-8.904

>  <name>  (93) 
92

>  <ligand_id>  (93) 
92

>  <original_smiles>  (93) 
[H]c1c([H])c([H])c2c(c1[H])C([H])([H])C([H])([H])C([H])([H])C2([H])N([H])C(=O)C1([H])N(C(=O)C([H])(N([H])C(=O)C([H])(N([H])C([H])([H])[H])C([H])([H])[H])C(C([H])([H])[H])(C([H])([H])[H])C([H])([H])[H])C([H])([H])c2c([H])c(OC([H])([H])C([H])(c3c([H])c(C([H])(C([H])([H])[H])C([H])([H])[H])n(C([H])([H])C([H])([H])N([H])C(=O)N4C([H])([H])C([H])([H])C([H])([H])C([H])(n5nc(-c6c([H])c([H])c(Oc7c([H])c([H])c(F)c([H])c7F)c([H])c6[H])c(C(=O)N([H])[H])c5N([H])[H])C4([H])[H])c3[H])[N+]([H])([H])C([H])([H])[H])c([H])c([H])c2C1([H])[H]

>  <smiles>  (93) 
[H]c1c([H])c([H])c2c(c1[H])C([H])([H])C([H])([H])C([H])([H])C2([H])N([H])C(=O)C1([H])N(C(=O)C([H])(N([H])C(=O)C([H])(N([H])C([H])([H])[H])C([H])([H])[H])C(C([H])([H])[H])(C([H])([H])[H])C([H])([H])[H])C([H])([H])c2c([H])c(OC([H])([H])C([H])(c3c([H])c(C([H])(C([H])([H])[H])C([H])([H])[H])n(C([H])([H])C([H])([H])N([H])C(=O)N4C([H])([H])C([H])([H])C([H])([H])C([H])(n5nc(-c6c([H])c([H])c(Oc7c([H])c([H])c(F)c([H])c7F)c([H])c6[H])c(C(=O)N([H])[H])c5N([H])[H])C4([H])[H])c3[H])[N+]([H])([H])C([H])([H])[H])c([H])c([H])c2C1([H])[H]

$$$$
93:0:0
     RDKit          3D

 92100  0  0  1  0  0  0  0  0999 V2000
  -29.9930  -21.5290   20.4740 N   0  0  2  0  0  4  0  0  0  0  0  0
  -30.5950  -22.0680   21.0810 H   0  0  0  0  0  0  0  0  0  0  0  0
  -32.2950  -19.0960   19.1840 C   0  0  0  0  0  2  0  0  0  0  0  0
  -31.4860  -20.2940   18.6200 C   0  0  0  0  0  2  0  0  0  0  0  0
  -31.1730  -18.8510   20.2380 C   0  0  0  0  0  3  0  0  0  0  0  0
  -31.0560  -20.4820   20.0650 C   0  0  0  0  0  3  0  0  0  0  0  0
  -30.2930  -17.6020   19.7470 C   0  0  0  0  0  2  0  0  0  0  0  0
  -31.2250  -15.1220   19.9750 C   0  0  0  0  0  0  0  0  0  0  0  0
  -30.9850  -12.8170   19.0510 C   0  0  0  0  0  2  0  0  0  0  0  0
  -30.0130  -12.8820   17.8510 C   0  0  0  0  0  2  0  0  0  0  0  0
  -28.5510  -12.7490   18.3190 C   0  0  0  0  0  2  0  0  0  0  0  0
  -28.2270  -13.6690   19.5270 C   0  0  0  0  0  3  0  0  0  0  0  0
  -29.3160  -13.5760   20.6230 C   0  0  0  0  0  2  0  0  0  0  0  0
  -30.6120  -13.8910   20.0000 N   0  0  0  0  0  0  0  0  0  0  0  0
  -32.3420  -15.2590   19.4710 O   0  0  0  0  0  0  0  0  0  0  0  0
  -30.4630  -16.2100   20.3480 N   0  0  0  0  0  0  0  0  0  0  0  0
  -29.6550  -15.9180   20.8780 H   0  0  0  0  0  0  0  0  0  0  0  0
  -25.8960  -14.3230   20.3810 C   0  0  0  0  0  0  0  0  0  0  0  0
  -24.8140  -13.5760   20.7640 C   0  0  0  0  0  0  0  0  0  0  0  0
  -25.2160  -12.2090   20.6460 C   0  0  0  0  0  0  0  0  0  0  0  0
  -26.8910  -13.4150   20.0570 N   0  0  0  0  0  0  0  0  0  0  0  0
  -26.4890  -12.1350   20.2750 N   0  0  0  0  0  0  0  0  0  0  0  0
  -24.4440  -10.9700   20.8080 C   0  0  0  0  0  0  0  0  0  0  0  0
  -24.8230   -9.9820   21.7440 C   0  0  0  0  0  3  0  0  0  0  0  0
  -24.0530   -8.8080   21.8960 C   0  0  0  0  0  3  0  0  0  0  0  0
  -22.8900   -8.6140   21.1120 C   0  0  0  0  0  0  0  0  0  0  0  0
  -22.5300   -9.5910   20.1670 C   0  0  0  0  0  3  0  0  0  0  0  0
  -23.3010  -10.7570   20.0130 C   0  0  0  0  0  3  0  0  0  0  0  0
  -22.0960   -7.4950   21.1740 O   0  0  0  0  0  0  0  0  0  0  0  0
  -21.9260   -6.7970   22.3420 C   0  0  0  0  0  0  0  0  0  0  0  0
  -21.3720   -7.3970   23.4950 C   0  0  0  0  0  3  0  0  0  0  0  0
  -21.1500   -6.6240   24.6520 C   0  0  0  0  0  3  0  0  0  0  0  0
  -21.4730   -5.2530   24.6570 C   0  0  0  0  0  0  0  0  0  0  0  0
  -22.0190   -4.6540   23.5080 C   0  0  0  0  0  3  0  0  0  0  0  0
  -22.2430   -5.4240   22.3540 C   0  0  0  0  0  0  0  0  0  0  0  0
  -22.7490   -4.8360   21.2420 F   0  0  0  0  0  0  0  0  0  0  0  0
  -21.2520   -4.5080   25.7660 F   0  0  0  0  0  0  0  0  0  0  0  0
  -23.4530  -14.0960   21.1240 C   0  0  0  0  0  0  0  0  0  0  0  0
  -22.7380  -13.3900   21.9930 N   0  0  0  0  0  0  0  0  0  0  0  0
  -23.0350  -15.1600   20.6710 O   0  0  0  0  0  0  0  0  0  0  0  0
  -23.0890  -12.5270   22.3800 H   0  0  0  0  0  0  0  0  0  0  0  0
  -21.8240  -13.7180   22.2750 H   0  0  0  0  0  0  0  0  0  0  0  0
  -26.1100  -15.6940   20.2600 N   0  0  0  0  0  0  0  0  0  0  0  0
  -25.3720  -16.3700   20.4260 H   0  0  0  0  0  0  0  0  0  0  0  0
  -26.9500  -16.1110   19.8830 H   0  0  0  0  0  0  0  0  0  0  0  0
  -29.5490  -20.9530   22.8830 C   0  0  0  0  0  1  0  0  0  0  0  0
  -28.0890  -19.9490   21.0470 C   0  0  0  0  0  1  0  0  0  0  0  0
  -28.9550  -21.1430   21.4740 C   0  0  0  0  0  3  0  0  0  0  0  0
  -29.5810  -22.6890   19.5440 C   0  0  0  0  0  2  0  0  0  0  0  0
  -29.5540  -24.2030   20.1380 C   0  0  0  0  0  3  0  0  0  0  0  0
  -28.6190  -25.3220   19.4480 C   0  0  0  0  0  3  0  0  0  0  0  0
  -28.6780  -26.7720   19.8390 O   0  0  0  0  0  0  0  0  0  0  0  0
  -24.6770  -31.8050   23.1760 C   0  0  0  0  0  0  0  0  0  0  0  0
  -27.5150  -27.5800   19.8170 C   0  0  0  0  0  0  0  0  0  0  0  0
  -23.5380  -30.4370   21.4660 C   0  0  0  0  0  3  0  0  0  0  0  0
  -25.0590  -29.0690   19.9270 C   0  0  0  0  0  0  0  0  0  0  0  0
  -26.0520  -30.9140   21.2760 C   0  0  0  0  0  2  0  0  0  0  0  0
  -26.2060  -29.5810   20.5460 C   0  0  0  0  0  0  0  0  0  0  0  0
  -27.4320  -28.8470   20.4860 C   0  0  0  0  0  3  0  0  0  0  0  0
  -26.3430  -27.1470   19.1510 C   0  0  0  0  0  3  0  0  0  0  0  0
  -25.1320  -27.8620   19.2190 C   0  0  0  0  0  3  0  0  0  0  0  0
  -23.7720  -29.8640   20.0440 C   0  0  0  0  0  2  0  0  0  0  0  0
  -24.7750  -31.0680   22.0300 N   0  0  0  0  0  0  0  0  0  0  0  0
  -23.5870  -31.9810   23.7380 O   0  0  0  0  0  0  0  0  0  0  0  0
  -22.9500  -29.3270   22.3700 C   0  0  0  0  0  0  0  0  0  0  0  0
  -21.6410  -29.0600   22.2300 N   0  0  0  0  0  0  0  0  0  0  0  0
  -23.6730  -28.7100   23.1570 O   0  0  0  0  0  0  0  0  0  0  0  0
  -21.1110  -29.6150   21.5720 H   0  0  0  0  0  0  0  0  0  0  0  0
  -18.3660  -27.5730   22.6330 C   0  0  0  0  0  0  0  0  0  0  0  0
  -20.8930  -28.0250   22.9480 C   0  0  0  0  0  3  0  0  0  0  0  0
  -21.1160  -26.6330   22.3120 C   0  0  0  0  0  2  0  0  0  0  0  0
  -20.0530  -26.2690   21.2700 C   0  0  0  0  0  2  0  0  0  0  0  0
  -18.6580  -26.2740   21.9010 C   0  0  0  0  0  2  0  0  0  0  0  0
  -19.4150  -28.4020   23.1110 C   0  0  0  0  0  0  0  0  0  0  0  0
  -19.0880  -29.6160   23.7540 C   0  0  0  0  0  3  0  0  0  0  0  0
  -17.7450  -30.0000   23.9250 C   0  0  0  0  0  3  0  0  0  0  0  0
  -16.7110  -29.1690   23.4630 C   0  0  0  0  0  3  0  0  0  0  0  0
  -17.0220  -27.9570   22.8210 C   0  0  0  0  0  3  0  0  0  0  0  0
  -25.9280  -32.4770   23.8210 C   0  0  0  0  0  3  0  0  0  0  0  0
  -25.5690  -33.8640   24.1500 N   0  0  0  0  0  0  0  0  0  0  0  0
  -25.8850  -34.9310   23.4050 C   0  0  0  0  0  0  0  0  0  0  0  0
  -26.5800  -34.8540   22.3880 O   0  0  0  0  0  0  0  0  0  0  0  0
  -24.9510  -33.9950   24.9380 H   0  0  0  0  0  0  0  0  0  0  0  0
  -24.1090  -36.6720   23.0270 C   0  0  0  0  0  1  0  0  0  0  0  0
  -25.3480  -36.3020   23.8600 C   0  0  0  0  0  3  0  0  0  0  0  0
  -27.4330  -37.2540   24.7390 C   0  0  0  0  0  1  0  0  0  0  0  0
  -26.3490  -37.3870   23.7700 N   0  0  0  0  0  0  0  0  0  0  0  0
  -25.9110  -38.2950   23.9060 H   0  0  0  0  0  0  0  0  0  0  0  0
  -26.4440  -31.7200   25.1060 C   0  0  1  0  0  0  0  0  0  0  0  0
  -25.3400  -31.4450   26.1530 C   0  0  0  0  0  1  0  0  0  0  0  0
  -27.0770  -30.3630   24.7210 C   0  0  0  0  0  1  0  0  0  0  0  0
  -27.5570  -32.5470   25.7900 C   0  0  0  0  0  1  0  0  0  0  0  0
  1  2  1  1
  1 48  1  0
  3  5  1  0
  4  3  1  0
  4  6  1  0
  5  7  1  0
  6  5  1  0
  6  1  1  0
  7 16  1  0
  8 14  1  0
  8 16  1  0
  9 14  1  0
 10 11  1  0
 10  9  1  0
 12 11  1  0
 12 21  1  0
 12 13  1  0
 14 13  1  0
 15  8  2  0
 16 17  1  0
 18 19  2  0
 19 38  1  0
 20 19  1  0
 20 23  1  0
 21 22  1  0
 21 18  1  0
 22 20  2  0
 23 24  1  0
 24 25  2  0
 26 29  1  0
 26 25  1  0
 27 26  2  0
 28 27  1  0
 28 23  2  0
 29 30  1  0
 30 35  2  0
 30 31  1  0
 31 32  2  0
 32 33  1  0
 33 37  1  0
 34 33  2  0
 35 34  1  0
 36 35  1  0
 38 39  1  0
 39 42  1  0
 39 41  1  0
 40 38  2  0
 43 18  1  0
 43 44  1  0
 45 43  1  0
 47 48  1  0
 48 46  1  0
 49 50  1  0
 49  1  1  0
 51 52  1  0
 51 50  2  0
 53 64  2  0
 54 52  1  0
 54 59  1  0
 55 63  1  0
 55 65  1  0
 56 62  1  0
 56 58  1  0
 57 63  1  0
 58 57  1  0
 59 58  2  0
 60 61  1  0
 60 54  2  0
 61 56  2  0
 62 55  1  0
 63 53  1  0
 65 67  2  0
 66 65  1  0
 68 66  1  0
 69 78  2  0
 69 74  1  0
 70 66  1  0
 70 74  1  0
 71 70  1  0
 72 73  1  0
 72 71  1  0
 73 69  1  0
 74 75  2  0
 75 76  1  0
 77 76  2  0
 78 77  1  0
 79 53  1  0
 79 80  1  0
 79 89  1  0
 80 83  1  0
 81 85  1  0
 81 80  1  0
 82 81  2  0
 85 84  1  0
 87 85  1  0
 87 88  1  0
 87 86  1  0
 89 92  1  1
 89 90  1  0
 91 89  1  0
M  ISO  4   8 100  16 100  51 101  52 101
M  END
>  <TORSDO>  (94) 
F 22

>  <SCORE>  (94) 
-11.104

>  <name>  (94) 
93

>  <ligand_id>  (94) 
93

>  <original_smiles>  (94) 
[H]c1c([H])c([H])c2c(c1[H])C([H])([H])C([H])([H])C([H])([H])C2([H])N([H])C(=O)C1([H])N(C(=O)C([H])(N([H])C(=O)C([H])(N([H])C([H])([H])[H])C([H])([H])[H])C(C([H])([H])[H])(C([H])([H])[H])C([H])([H])[H])C([H])([H])c2c([H])c(OC([H])([H])C([H])([H])C([H])([H])[N+]([H])(C([H])(C([H])([H])[H])C([H])([H])[H])C3([H])C([H])([H])C([H])([H])C3([H])C([H])([H])N([H])C(=O)N3C([H])([H])C([H])([H])C([H])([H])C([H])(n4nc(-c5c([H])c([H])c(Oc6c([H])c([H])c(F)c([H])c6F)c([H])c5[H])c(C(=O)N([H])[H])c4N([H])[H])C3([H])[H])c([H])c([H])c2C1([H])[H]

>  <smiles>  (94) 
[H]c1c([H])c([H])c2c(c1[H])C([H])([H])C([H])([H])C([H])([H])C2([H])N([H])C(=O)C1([H])N(C(=O)C([H])(N([H])C(=O)C([H])(N([H])C([H])([H])[H])C([H])([H])[H])C(C([H])([H])[H])(C([H])([H])[H])C([H])([H])[H])C([H])([H])c2c([H])c(OC([H])([H])C([H])([H])C([H])([H])[N+]([H])(C([H])(C([H])([H])[H])C([H])([H])[H])C3([H])C([H])([H])C([H])([H])C3([H])C([H])([H])N([H])C(=O)N3C([H])([H])C([H])([H])C([H])([H])C([H])(n4nc(-c5c([H])c([H])c(Oc6c([H])c([H])c(F)c([H])c6F)c([H])c5[H])c(C(=O)N([H])[H])c4N([H])[H])C3([H])[H])c([H])c([H])c2C1([H])[H]

$$$$
94:0:0
     RDKit          3D

 93101  0  0  1  0  0  0  0  0999 V2000
  -28.0480  -18.0800   19.6390 C   0  0  0  0  0  3  0  0  0  0  0  0
  -27.1780  -15.8770   19.8160 C   0  0  0  0  0  3  0  0  0  0  0  0
  -26.9310  -17.2410   19.7620 C   0  0  0  0  0  0  0  0  0  0  0  0
  -29.3930  -17.6150   19.5850 C   0  0  0  0  0  0  0  0  0  0  0  0
  -29.5300  -16.0850   19.5810 C   0  0  0  0  0  0  0  0  0  0  0  0
  -28.4050  -15.3550   19.7100 N   0  0  0  0  0  0  0  0  0  0  0  0
  -31.3350  -14.0900   20.2350 C   0  0  0  0  0  0  0  0  0  0  0  0
  -31.4750  -11.5840   20.5960 C   0  0  0  0  0  2  0  0  0  0  0  0
  -30.7370  -10.7800   19.5030 C   0  0  0  0  0  2  0  0  0  0  0  0
  -29.2490  -10.6070   19.8650 C   0  0  0  0  0  2  0  0  0  0  0  0
  -28.6120  -11.9260   20.3770 C   0  0  0  0  0  3  0  0  0  0  0  0
  -29.5020  -12.6340   21.4160 C   0  0  0  0  0  2  0  0  0  0  0  0
  -30.7790  -12.9040   20.7420 N   0  0  0  0  0  0  0  0  0  0  0  0
  -32.5710  -14.0920   20.1860 O   0  0  0  0  0  0  0  0  0  0  0  0
  -30.6910  -15.1250   19.4590 N   0  0  0  0  0  0  0  0  0  0  0  0
  -31.3780  -15.5080   18.8290 H   0  0  0  0  0  0  0  0  0  0  0  0
  -26.2890  -12.6880   21.1180 C   0  0  0  0  0  0  0  0  0  0  0  0
  -25.1510  -12.0010   21.4360 C   0  0  0  0  0  0  0  0  0  0  0  0
  -25.4880  -10.6150   21.3460 C   0  0  0  0  0  0  0  0  0  0  0  0
  -27.2490  -11.7280   20.8510 N   0  0  0  0  0  0  0  0  0  0  0  0
  -26.7750  -10.4710   21.0530 N   0  0  0  0  0  0  0  0  0  0  0  0
  -24.6410   -9.4190   21.4680 C   0  0  0  0  0  0  0  0  0  0  0  0
  -24.7070   -8.5790   22.6000 C   0  0  0  0  0  3  0  0  0  0  0  0
  -23.8690   -7.4470   22.7010 C   0  0  0  0  0  3  0  0  0  0  0  0
  -22.9520   -7.1500   21.6670 C   0  0  0  0  0  0  0  0  0  0  0  0
  -22.9070   -7.9760   20.5310 C   0  0  0  0  0  3  0  0  0  0  0  0
  -23.7450   -9.0990   20.4280 C   0  0  0  0  0  3  0  0  0  0  0  0
  -22.1140   -6.0600   21.6650 O   0  0  0  0  0  0  0  0  0  0  0  0
  -21.3050   -5.7760   22.7360 C   0  0  0  0  0  0  0  0  0  0  0  0
  -20.3530   -6.7010   23.2200 C   0  0  0  0  0  3  0  0  0  0  0  0
  -19.4940   -6.3390   24.2760 C   0  0  0  0  0  3  0  0  0  0  0  0
  -19.5790   -5.0550   24.8460 C   0  0  0  0  0  0  0  0  0  0  0  0
  -20.5210   -4.1310   24.3600 C   0  0  0  0  0  3  0  0  0  0  0  0
  -21.3800   -4.4900   23.3080 C   0  0  0  0  0  0  0  0  0  0  0  0
  -22.2730   -3.5880   22.8310 F   0  0  0  0  0  0  0  0  0  0  0  0
  -18.7480   -4.7040   25.8550 F   0  0  0  0  0  0  0  0  0  0  0  0
  -23.8020  -12.5980   21.7110 C   0  0  0  0  0  0  0  0  0  0  0  0
  -23.0050  -11.9490   22.5530 N   0  0  0  0  0  0  0  0  0  0  0  0
  -23.4690  -13.6740   21.2190 O   0  0  0  0  0  0  0  0  0  0  0  0
  -23.2850  -11.0770   22.9750 H   0  0  0  0  0  0  0  0  0  0  0  0
  -22.0970  -12.3320   22.7740 H   0  0  0  0  0  0  0  0  0  0  0  0
  -26.5850  -14.0420   21.0160 N   0  0  0  0  0  0  0  0  0  0  0  0
  -25.9090  -14.7590   21.2510 H   0  0  0  0  0  0  0  0  0  0  0  0
  -27.5270  -14.3970   20.9120 H   0  0  0  0  0  0  0  0  0  0  0  0
  -24.4840  -16.7380   19.2970 C   0  0  0  0  0  1  0  0  0  0  0  0
  -25.2510  -19.1470   19.2580 C   0  0  0  0  0  1  0  0  0  0  0  0
  -25.4880  -17.7530   19.8700 C   0  0  0  0  0  3  0  0  0  0  0  0
  -30.3920  -18.9460   19.5690 C   0  0  0  0  0  3  0  0  0  0  0  0
  -29.8070  -20.5610   19.7580 C   0  0  0  0  0  3  0  0  0  0  0  0
  -31.8790  -22.1020   20.2390 C   0  0  0  0  0  1  0  0  0  0  0  0
  -30.5270  -22.0870   19.5110 C   0  0  0  0  0  3  0  0  0  0  0  0
  -29.7520  -23.5680   19.8360 C   0  0  0  0  0  2  0  0  0  0  0  0
  -30.2910  -25.0440   19.7620 O   0  0  0  0  0  0  0  0  0  0  0  0
  -27.3720  -30.1500   24.2660 C   0  0  0  0  0  0  0  0  0  0  0  0
  -29.4430  -26.1950   19.9960 C   0  0  0  0  0  0  0  0  0  0  0  0
  -26.1650  -29.6260   22.1840 C   0  0  0  0  0  3  0  0  0  0  0  0
  -27.4830  -28.3160   20.4070 C   0  0  0  0  0  0  0  0  0  0  0  0
  -28.7260  -29.3880   22.2760 C   0  0  0  0  0  2  0  0  0  0  0  0
  -28.6350  -28.2860   21.2050 C   0  0  0  0  0  0  0  0  0  0  0  0
  -29.6200  -27.2470   20.9880 C   0  0  0  0  0  3  0  0  0  0  0  0
  -28.2960  -26.3540   19.1860 C   0  0  0  0  0  3  0  0  0  0  0  0
  -27.3340  -27.3650   19.3880 C   0  0  0  0  0  3  0  0  0  0  0  0
  -26.4390  -29.3900   20.6750 C   0  0  0  0  0  2  0  0  0  0  0  0
  -27.4370  -29.7210   22.9690 N   0  0  0  0  0  0  0  0  0  0  0  0
  -26.2940  -30.4710   24.7910 O   0  0  0  0  0  0  0  0  0  0  0  0
  -25.2040  -28.5280   22.7080 C   0  0  0  0  0  0  0  0  0  0  0  0
  -23.9010  -28.6560   22.4040 N   0  0  0  0  0  0  0  0  0  0  0  0
  -25.6410  -27.5740   23.3570 O   0  0  0  0  0  0  0  0  0  0  0  0
  -23.6140  -29.4730   21.8820 H   0  0  0  0  0  0  0  0  0  0  0  0
  -20.3310  -28.0520   22.2230 C   0  0  0  0  0  0  0  0  0  0  0  0
  -22.8390  -27.7080   22.7560 C   0  0  0  0  0  3  0  0  0  0  0  0
  -22.7840  -26.5360   21.7480 C   0  0  0  0  0  2  0  0  0  0  0  0
  -21.7930  -26.7700   20.6030 C   0  0  0  0  0  2  0  0  0  0  0  0
  -20.3780  -26.9750   21.1530 C   0  0  0  0  0  2  0  0  0  0  0  0
  -21.4900  -28.4070   22.9660 C   0  0  0  0  0  0  0  0  0  0  0  0
  -21.3980  -29.4360   23.9270 C   0  0  0  0  0  3  0  0  0  0  0  0
  -20.1790  -30.1040   24.1530 C   0  0  0  0  0  3  0  0  0  0  0  0
  -19.0340  -29.7400   23.4260 C   0  0  0  0  0  3  0  0  0  0  0  0
  -19.1090  -28.7140   22.4680 C   0  0  0  0  0  3  0  0  0  0  0  0
  -28.6500  -30.2760   25.1510 C   0  0  0  0  0  3  0  0  0  0  0  0
  -28.4430  -31.3960   26.0850 N   0  0  0  0  0  0  0  0  0  0  0  0
  -28.9170  -32.6370   25.9090 C   0  0  0  0  0  0  0  0  0  0  0  0
  -29.6410  -32.9450   24.9590 O   0  0  0  0  0  0  0  0  0  0  0  0
  -27.8160  -31.2270   26.8570 H   0  0  0  0  0  0  0  0  0  0  0  0
  -27.3710  -34.5600   26.4080 C   0  0  0  0  0  1  0  0  0  0  0  0
  -28.5280  -33.7050   26.9520 C   0  0  0  0  0  3  0  0  0  0  0  0
  -30.6750  -33.8960   28.1280 C   0  0  0  0  0  1  0  0  0  0  0  0
  -29.6520  -34.5840   27.3440 N   0  0  0  0  0  0  0  0  0  0  0  0
  -29.3200  -35.3780   27.8830 H   0  0  0  0  0  0  0  0  0  0  0  0
  -28.9870  -28.9550   25.9470 C   0  0  1  0  0  0  0  0  0  0  0  0
  -27.7810  -28.3710   26.7200 C   0  0  0  0  0  1  0  0  0  0  0  0
  -29.5090  -27.8560   24.9930 C   0  0  0  0  0  1  0  0  0  0  0  0
  -30.1200  -29.2300   26.9620 C   0  0  0  0  0  1  0  0  0  0  0  0
  1  3  1  0
  3  2  2  0
  3 47  1  0
  4  1  2  0
  5  4  1  0
  5  6  2  0
  6  2  1  0
  7 13  1  0
  8 13  1  0
  9 10  1  0
  9  8  1  0
 11 10  1  0
 11 20  1  0
 11 12  1  0
 13 12  1  0
 14  7  2  0
 15  5  1  0
 15  7  1  0
 16 15  1  0
 17 18  2  0
 18 37  1  0
 19 18  1  0
 19 22  1  0
 20 21  1  0
 20 17  1  0
 21 19  2  0
 22 23  1  0
 23 24  2  0
 25 24  1  0
 26 25  2  0
 27 26  1  0
 27 22  2  0
 28 25  1  0
 28 29  1  0
 29 30  2  0
 29 34  1  0
 30 31  1  0
 31 32  2  0
 32 36  1  0
 33 32  1  0
 34 33  2  0
 35 34  1  0
 37 38  1  0
 38 41  1  0
 38 40  1  0
 39 37  2  0
 42 17  1  0
 42 43  1  0
 44 42  1  0
 45 47  1  0
 46 47  1  0
 48  4  1  0
 48 49  2  0
 51 49  1  0
 51 52  1  0
 51 50  1  0
 53 52  1  0
 53 55  1  0
 54 65  2  0
 55 60  1  0
 56 66  1  0
 56 64  1  0
 57 63  1  0
 57 59  1  0
 58 64  1  0
 59 58  1  0
 60 59  2  0
 61 62  1  0
 61 55  2  0
 62 57  2  0
 63 56  1  0
 64 54  1  0
 66 68  2  0
 67 66  1  0
 69 67  1  0
 70 79  2  0
 70 75  1  0
 71 67  1  0
 71 75  1  0
 72 71  1  0
 73 74  1  0
 73 72  1  0
 74 70  1  0
 75 76  2  0
 76 77  1  0
 78 77  2  0
 79 78  1  0
 80 54  1  0
 80 90  1  0
 80 81  1  0
 81 84  1  0
 82 81  1  0
 82 86  1  0
 83 82  2  0
 86 85  1  0
 86 88  1  0
 88 89  1  0
 88 87  1  0
 90 91  1  1
 90 93  1  0
 92 90  1  0
M  ISO  4   7 100  15 100  52 101  53 101
M  END
>  <TORSDO>  (95) 
F 21

>  <SCORE>  (95) 
-5.865

>  <name>  (95) 
94

>  <ligand_id>  (95) 
94

>  <original_smiles>  (95) 
[H]c1nc(N([H])C(=O)N2C([H])([H])C([H])([H])C([H])([H])C([H])(n3nc(-c4c([H])c([H])c(Oc5c([H])c([H])c(F)c([H])c5F)c([H])c4[H])c(C(=O)N([H])[H])c3N([H])[H])C2([H])[H])c(C([H])([H])C([H])([H])C([H])(C([H])([H])[H])C([H])([H])Oc2c([H])c([H])c3c(c2[H])C([H])([H])N(C(=O)C([H])(N([H])C(=O)C([H])(N([H])C([H])([H])[H])C([H])([H])[H])C(C([H])([H])[H])(C([H])([H])[H])C([H])([H])[H])C([H])(C(=O)N([H])C2([H])c4c([H])c([H])c([H])c([H])c4C([H])([H])C([H])([H])C2([H])[H])C3([H])[H])c([H])c1C([H])(C([H])([H])[H])C([H])([H])[H]

>  <smiles>  (95) 
[H]c1nc(N([H])C(=O)N2C([H])([H])C([H])([H])C([H])([H])C([H])(n3nc(-c4c([H])c([H])c(Oc5c([H])c([H])c(F)c([H])c5F)c([H])c4[H])c(C(=O)N([H])[H])c3N([H])[H])C2([H])[H])c(C([H])([H])C([H])([H])C([H])(C([H])([H])[H])C([H])([H])Oc2c([H])c([H])c3c(c2[H])C([H])([H])N(C(=O)C([H])(N([H])C(=O)C([H])(N([H])C([H])([H])[H])C([H])([H])[H])C(C([H])([H])[H])(C([H])([H])[H])C([H])([H])[H])C([H])(C(=O)N([H])C2([H])c4c([H])c([H])c([H])c([H])c4C([H])([H])C([H])([H])C2([H])[H])C3([H])[H])c([H])c1C([H])(C([H])([H])[H])C([H])([H])[H]

$$$$
95:0:0
     RDKit          3D

105113  0  0  1  0  0  0  0  0999 V2000
  -31.7540  -19.7190   21.4880 C   0  0  0  0  0  0  0  0  0  0  0  0
  -31.1130  -18.6210   21.6820 N   0  0  0  0  0  0  0  0  0  0  0  0
  -30.3990  -21.2920   23.0480 C   0  0  0  0  0  0  0  0  0  0  0  0
  -29.1220  -22.0910   22.8320 C   0  0  0  0  0  2  0  0  0  0  0  0
  -31.1200  -21.0980   21.7190 C   0  0  0  0  0  3  0  0  0  0  0  0
  -30.0550  -21.5570   20.7030 C   0  0  0  0  0  3  0  0  0  0  0  0
  -30.6600  -22.0660   19.3790 C   0  0  0  0  0  1  0  0  0  0  0  0
  -29.2880  -22.5970   21.4460 N   0  0  1  0  0  4  0  0  0  0  0  0
  -30.8210  -20.9250   24.1500 O   0  0  0  0  0  0  0  0  0  0  0  0
  -29.9000  -23.3920   21.5460 H   0  0  0  0  0  0  0  0  0  0  0  0
  -28.0300  -23.0890   20.8190 C   0  0  0  0  0  2  0  0  0  0  0  0
  -28.2060  -24.4160   20.0370 C   0  0  0  0  0  2  0  0  0  0  0  0
  -28.3360  -25.6660   20.9320 C   0  0  0  0  0  2  0  0  0  0  0  0
  -28.3830  -26.8730   20.1650 O   0  0  0  0  0  0  0  0  0  0  0  0
  -24.6030  -32.0080   23.2990 C   0  0  0  0  0  0  0  0  0  0  0  0
  -27.2150  -27.5980   20.1670 C   0  0  0  0  0  0  0  0  0  0  0  0
  -23.3770  -30.6020   21.6750 C   0  0  0  0  0  3  0  0  0  0  0  0
  -24.8130  -29.0770   20.2190 C   0  0  0  0  0  0  0  0  0  0  0  0
  -25.8940  -30.9810   21.4330 C   0  0  0  0  0  2  0  0  0  0  0  0
  -25.9780  -29.6140   20.7850 C   0  0  0  0  0  0  0  0  0  0  0  0
  -27.1840  -28.8810   20.7530 C   0  0  0  0  0  3  0  0  0  0  0  0
  -26.0360  -27.0720   19.5960 C   0  0  0  0  0  3  0  0  0  0  0  0
  -24.8350  -27.8050   19.6220 C   0  0  0  0  0  3  0  0  0  0  0  0
  -23.5660  -29.9270   20.2890 C   0  0  0  0  0  2  0  0  0  0  0  0
  -24.6440  -31.2110   22.1950 N   0  0  0  0  0  0  0  0  0  0  0  0
  -23.5320  -32.2750   23.8580 O   0  0  0  0  0  0  0  0  0  0  0  0
  -22.7480  -29.5760   22.6430 C   0  0  0  0  0  0  0  0  0  0  0  0
  -21.4350  -29.3400   22.4940 N   0  0  0  0  0  0  0  0  0  0  0  0
  -23.4390  -28.9920   23.4830 O   0  0  0  0  0  0  0  0  0  0  0  0
  -20.9380  -29.8630   21.7860 H   0  0  0  0  0  0  0  0  0  0  0  0
  -18.1150  -27.9740   22.8960 C   0  0  0  0  0  0  0  0  0  0  0  0
  -20.6390  -28.3870   23.2670 C   0  0  0  0  0  3  0  0  0  0  0  0
  -20.8470  -26.9430   22.7550 C   0  0  0  0  0  2  0  0  0  0  0  0
  -19.8110  -26.5200   21.7070 C   0  0  0  0  0  2  0  0  0  0  0  0
  -18.3950  -26.6120   22.2850 C   0  0  0  0  0  2  0  0  0  0  0  0
  -19.1690  -28.8140   23.3420 C   0  0  0  0  0  0  0  0  0  0  0  0
  -18.8560  -30.0850   23.8700 C   0  0  0  0  0  3  0  0  0  0  0  0
  -17.5210  -30.5200   23.9550 C   0  0  0  0  0  3  0  0  0  0  0  0
  -16.4790  -29.6780   23.5280 C   0  0  0  0  0  3  0  0  0  0  0  0
  -16.7760  -28.4080   23.0040 C   0  0  0  0  0  3  0  0  0  0  0  0
  -25.8980  -32.6410   23.8980 C   0  0  0  0  0  3  0  0  0  0  0  0
  -26.4340  -31.8770   25.1690 C   0  0  1  0  0  0  0  0  0  0  0  0
  -25.3530  -31.6280   26.2470 C   0  0  0  0  0  1  0  0  0  0  0  0
  -27.0310  -30.5070   24.7710 C   0  0  0  0  0  1  0  0  0  0  0  0
  -27.5820  -32.6850   25.8200 C   0  0  0  0  0  1  0  0  0  0  0  0
  -25.5950  -34.0410   24.2210 N   0  0  0  0  0  0  0  0  0  0  0  0
  -25.9250  -35.0870   23.4520 C   0  0  0  0  0  0  0  0  0  0  0  0
  -26.5880  -34.9750   22.4180 O   0  0  0  0  0  0  0  0  0  0  0  0
  -25.0040  -34.2030   25.0220 H   0  0  0  0  0  0  0  0  0  0  0  0
  -24.1920  -36.8730   23.1020 C   0  0  0  0  0  1  0  0  0  0  0  0
  -25.4420  -36.4780   23.9030 C   0  0  0  0  0  3  0  0  0  0  0  0
  -27.5870  -37.3670   24.7000 C   0  0  0  0  0  1  0  0  0  0  0  0
  -26.4730  -37.5300   23.7700 N   0  0  0  0  0  0  0  0  0  0  0  0
  -26.0690  -38.4520   23.9160 H   0  0  0  0  0  0  0  0  0  0  0  0
  -33.2110  -19.8430   21.0110 C   0  0  0  0  0  2  0  0  0  0  0  0
  -34.1990  -20.0800   22.1720 C   0  0  0  0  0  2  0  0  0  0  0  0
  -36.5210  -21.0140   22.4170 C   0  0  0  0  0  0  0  0  0  0  0  0
  -37.6670  -21.3410   21.8310 N   0  0  0  0  0  4  0  0  0  0  0  0
  -36.3680  -21.2390   23.7200 N   0  0  0  0  0  0  0  0  0  0  0  0
  -35.5360  -20.4710   21.6880 N   0  0  0  0  0  0  0  0  0  0  0  0
  -38.4350  -21.7580   22.3380 H   0  0  0  0  0  0  0  0  0  0  0  0
  -37.8110  -21.1980   20.8400 H   0  0  0  0  0  0  0  0  0  0  0  0
  -37.0960  -21.6560   24.2820 H   0  0  0  0  0  0  0  0  0  0  0  0
  -35.5170  -20.9810   24.1970 H   0  0  0  0  0  0  0  0  0  0  0  0
  -35.7290  -20.2510   20.7190 H   0  0  0  0  0  0  0  0  0  0  0  0
  -31.7570  -17.3260   21.4710 C   0  0  0  0  0  2  0  0  0  0  0  0
  -31.0750  -16.2030   22.2920 C   0  0  0  0  0  2  0  0  0  0  0  0
  -30.6660  -14.4770   20.5440 C   0  0  0  0  0  0  0  0  0  0  0  0
  -30.2840  -12.4100   19.2550 C   0  0  0  0  0  2  0  0  0  0  0  0
  -29.3350  -12.6400   18.0670 C   0  0  0  0  0  2  0  0  0  0  0  0
  -27.8690  -12.4820   18.5090 C   0  0  0  0  0  2  0  0  0  0  0  0
  -27.5400  -13.2990   19.7860 C   0  0  0  0  0  3  0  0  0  0  0  0
  -28.5990  -13.0620   20.8850 C   0  0  0  0  0  2  0  0  0  0  0  0
  -29.9270  -13.3610   20.3170 N   0  0  0  0  0  0  0  0  0  0  0  0
  -31.7050  -14.7260   19.9280 O   0  0  0  0  0  0  0  0  0  0  0  0
  -30.2380  -15.2670   21.5370 N   0  0  0  0  0  0  0  0  0  0  0  0
  -29.3550  -15.0120   21.9550 H   0  0  0  0  0  0  0  0  0  0  0  0
  -25.1440  -13.8800   20.5270 C   0  0  0  0  0  0  0  0  0  0  0  0
  -24.0800  -13.0940   20.8830 C   0  0  0  0  0  0  0  0  0  0  0  0
  -24.5440  -11.7450   20.8100 C   0  0  0  0  0  0  0  0  0  0  0  0
  -26.1890  -13.0090   20.2660 N   0  0  0  0  0  0  0  0  0  0  0  0
  -25.8320  -11.7170   20.4900 N   0  0  0  0  0  0  0  0  0  0  0  0
  -23.8230  -10.4760   20.9680 C   0  0  0  0  0  0  0  0  0  0  0  0
  -24.2750   -9.4740   21.8540 C   0  0  0  0  0  3  0  0  0  0  0  0
  -23.5540   -8.2690   22.0010 C   0  0  0  0  0  3  0  0  0  0  0  0
  -22.3640   -8.0600   21.2620 C   0  0  0  0  0  0  0  0  0  0  0  0
  -21.9320   -9.0500   20.3640 C   0  0  0  0  0  3  0  0  0  0  0  0
  -22.6540  -10.2460   20.2140 C   0  0  0  0  0  3  0  0  0  0  0  0
  -21.6130   -6.9110   21.3230 O   0  0  0  0  0  0  0  0  0  0  0  0
  -21.6020   -6.1150   22.4390 C   0  0  0  0  0  0  0  0  0  0  0  0
  -21.2270   -6.6140   23.7060 C   0  0  0  0  0  3  0  0  0  0  0  0
  -21.1630   -5.7450   24.8140 C   0  0  0  0  0  3  0  0  0  0  0  0
  -21.4630   -4.3790   24.6570 C   0  0  0  0  0  0  0  0  0  0  0  0
  -21.8310   -3.8800   23.3950 C   0  0  0  0  0  3  0  0  0  0  0  0
  -21.8970   -4.7450   22.2890 C   0  0  0  0  0  0  0  0  0  0  0  0
  -22.2310   -4.2540   21.0710 F   0  0  0  0  0  0  0  0  0  0  0  0
  -21.3940   -3.5430   25.7190 F   0  0  0  0  0  0  0  0  0  0  0  0
  -22.6850  -13.5600   21.1800 C   0  0  0  0  0  0  0  0  0  0  0  0
  -21.9680  -12.8410   22.0390 N   0  0  0  0  0  0  0  0  0  0  0  0
  -22.2390  -14.5970   20.6890 O   0  0  0  0  0  0  0  0  0  0  0  0
  -22.3430  -12.0010   22.4550 H   0  0  0  0  0  0  0  0  0  0  0  0
  -21.0330  -13.1350   22.2810 H   0  0  0  0  0  0  0  0  0  0  0  0
  -25.3050  -15.2540   20.3860 N   0  0  0  0  0  0  0  0  0  0  0  0
  -24.5380  -15.9060   20.5100 H   0  0  0  0  0  0  0  0  0  0  0  0
  -26.1550  -15.7000   20.0610 H   0  0  0  0  0  0  0  0  0  0  0  0
  1  2  2  0
  3  9  2  0
  4  3  1  0
  5  1  1  0
  5  3  1  0
  6  7  1  0
  6  8  1  0
  6  5  1  0
  8 10  1  1
  8  4  1  0
 11  8  1  0
 12 11  1  0
 12 13  1  0
 14 16  1  0
 14 13  1  0
 15 26  2  0
 16 21  1  0
 17 25  1  0
 17 27  1  0
 18 24  1  0
 18 20  1  0
 19 25  1  0
 20 19  1  0
 21 20  2  0
 22 23  1  0
 22 16  2  0
 23 18  2  0
 24 17  1  0
 25 15  1  0
 27 29  2  0
 28 27  1  0
 30 28  1  0
 31 40  2  0
 31 36  1  0
 32 28  1  0
 32 36  1  0
 33 32  1  0
 34 35  1  0
 34 33  1  0
 35 31  1  0
 36 37  2  0
 37 38  1  0
 39 38  2  0
 40 39  1  0
 41 15  1  0
 41 46  1  0
 41 42  1  0
 42 45  1  1
 42 43  1  0
 44 42  1  0
 46 49  1  0
 47 51  1  0
 47 46  1  0
 48 47  2  0
 51 50  1  0
 53 51  1  0
 53 54  1  0
 53 52  1  0
 55  1  1  0
 55 56  1  0
 57 59  1  0
 58 61  1  0
 58 57  2  0
 59 64  1  0
 59 63  1  0
 60 56  1  0
 60 57  1  0
 62 58  1  0
 65 60  1  0
 66  2  1  0
 66 67  1  0
 68 76  1  0
 69 74  1  0
 70 71  1  0
 70 69  1  0
 72 71  1  0
 72 81  1  0
 72 73  1  0
 74 68  1  0
 74 73  1  0
 75 68  2  0
 76 77  1  0
 76 67  1  0
 78 79  2  0
 79 98  1  0
 80 79  1  0
 80 83  1  0
 81 82  1  0
 81 78  1  0
 82 80  2  0
 83 84  1  0
 84 85  2  0
 86 89  1  0
 86 85  1  0
 87 86  2  0
 88 87  1  0
 88 83  2  0
 89 90  1  0
 90 91  1  0
 91 92  2  0
 93 92  1  0
 93 97  1  0
 94 93  2  0
 95 90  2  0
 95 94  1  0
 96 95  1  0
 98 99  1  0
 99102  1  0
 99101  1  0
100 98  2  0
103104  1  0
103 78  1  0
105103  1  0
M  ISO  4  13 101  14 101  68 100  76 100
M  END
>  <TORSDO>  (96) 
F 25

>  <SCORE>  (96) 
-12.535

>  <name>  (96) 
95

>  <ligand_id>  (96) 
95

>  <original_smiles>  (96) 
[H]c1c([H])c([H])c2c(c1[H])C([H])([H])C([H])([H])C([H])([H])C2([H])N([H])C(=O)C1([H])N(C(=O)C([H])(N([H])C(=O)C([H])(N([H])C([H])([H])[H])C([H])([H])[H])C(C([H])([H])[H])(C([H])([H])[H])C([H])([H])[H])C([H])([H])c2c([H])c(OC([H])([H])C([H])([H])C([H])([H])[N+]3([H])C([H])([H])C(=O)C([H])(C(=NC([H])([H])C([H])([H])N([H])C(=O)N4C([H])([H])C([H])([H])C([H])([H])C([H])(n5nc(-c6c([H])c([H])c(Oc7c([H])c([H])c(F)c([H])c7F)c([H])c6[H])c(C(=O)N([H])[H])c5N([H])[H])C4([H])[H])C([H])([H])C([H])([H])N([H])C(N([H])[H])=[N+]([H])[H])C3([H])C([H])([H])[H])c([H])c([H])c2C1([H])[H]

>  <smiles>  (96) 
[H]c1c([H])c([H])c2c(c1[H])C([H])([H])C([H])([H])C([H])([H])C2([H])N([H])C(=O)C1([H])N(C(=O)C([H])(N([H])C(=O)C([H])(N([H])C([H])([H])[H])C([H])([H])[H])C(C([H])([H])[H])(C([H])([H])[H])C([H])([H])[H])C([H])([H])c2c([H])c(OC([H])([H])C([H])([H])C([H])([H])[N+]3([H])C([H])([H])C(=O)C([H])(C(=NC([H])([H])C([H])([H])N([H])C(=O)N4C([H])([H])C([H])([H])C([H])([H])C([H])(n5nc(-c6c([H])c([H])c(Oc7c([H])c([H])c(F)c([H])c7F)c([H])c6[H])c(C(=O)N([H])[H])c5N([H])[H])C4([H])[H])C([H])([H])C([H])([H])N([H])C(N([H])[H])=[N+]([H])[H])C3([H])C([H])([H])[H])c([H])c([H])c2C1([H])[H]

$$$$
96:0:0
     RDKit          3D

 93100  0  0  1  0  0  0  0  0999 V2000
  -29.9140  -21.7970   20.5380 N   0  0  0  0  0  0  0  0  0  0  0  0
  -30.7490  -22.0530   20.0150 H   0  0  0  0  0  0  0  0  0  0  0  0
  -29.6050  -20.2530   18.6500 C   0  0  0  0  0  1  0  0  0  0  0  0
  -29.4700  -20.4350   20.1770 C   0  0  0  0  0  3  0  0  0  0  0  0
  -30.2720  -19.3360   20.9490 C   0  0  0  0  0  2  0  0  0  0  0  0
  -29.7020  -17.9720   20.7630 N   0  0  0  0  0  4  0  0  0  0  0  0
  -29.6660  -17.7960   19.7740 H   0  0  0  0  0  0  0  0  0  0  0  0
  -28.7570  -17.9860   21.1120 H   0  0  0  0  0  0  0  0  0  0  0  0
  -30.4480  -16.8570   21.4170 C   0  0  0  0  0  2  0  0  0  0  0  0
  -30.6420  -14.4860   20.5490 C   0  0  0  0  0  0  0  0  0  0  0  0
  -30.3300  -12.3500   19.3470 C   0  0  0  0  0  2  0  0  0  0  0  0
  -29.3980  -12.5630   18.1380 C   0  0  0  0  0  2  0  0  0  0  0  0
  -27.9210  -12.4260   18.5540 C   0  0  0  0  0  2  0  0  0  0  0  0
  -27.5750  -13.2600   19.8170 C   0  0  0  0  0  3  0  0  0  0  0  0
  -28.6190  -13.0240   20.9320 C   0  0  0  0  0  2  0  0  0  0  0  0
  -29.9520  -13.3250   20.3830 N   0  0  0  0  0  0  0  0  0  0  0  0
  -31.7490  -14.6840   20.0390 O   0  0  0  0  0  0  0  0  0  0  0  0
  -29.9880  -15.4660   21.2040 N   0  0  0  0  0  0  0  0  0  0  0  0
  -29.1070  -15.2010   21.6160 H   0  0  0  0  0  0  0  0  0  0  0  0
  -25.1660  -13.8800   20.4840 C   0  0  0  0  0  0  0  0  0  0  0  0
  -24.0910  -13.1130   20.8470 C   0  0  0  0  0  0  0  0  0  0  0  0
  -24.5500  -11.7600   20.8360 C   0  0  0  0  0  0  0  0  0  0  0  0
  -26.2130  -12.9930   20.2780 N   0  0  0  0  0  0  0  0  0  0  0  0
  -25.8440  -11.7140   20.5470 N   0  0  0  0  0  0  0  0  0  0  0  0
  -23.8190  -10.5000   21.0280 C   0  0  0  0  0  0  0  0  0  0  0  0
  -24.2430   -9.5370   21.9710 C   0  0  0  0  0  3  0  0  0  0  0  0
  -23.5140   -8.3430   22.1510 C   0  0  0  0  0  3  0  0  0  0  0  0
  -22.3460   -8.1020   21.3890 C   0  0  0  0  0  0  0  0  0  0  0  0
  -21.9420   -9.0520   20.4350 C   0  0  0  0  0  3  0  0  0  0  0  0
  -22.6720  -10.2390   20.2530 C   0  0  0  0  0  3  0  0  0  0  0  0
  -21.5890   -6.9580   21.4780 O   0  0  0  0  0  0  0  0  0  0  0  0
  -21.5350   -6.2190   22.6320 C   0  0  0  0  0  0  0  0  0  0  0  0
  -21.1010   -6.7750   23.8560 C   0  0  0  0  0  3  0  0  0  0  0  0
  -20.9960   -5.9610   25.0010 C   0  0  0  0  0  3  0  0  0  0  0  0
  -21.3130   -4.5920   24.9230 C   0  0  0  0  0  0  0  0  0  0  0  0
  -21.7410   -4.0340   23.7050 C   0  0  0  0  0  3  0  0  0  0  0  0
  -21.8480   -4.8460   22.5630 C   0  0  0  0  0  0  0  0  0  0  0  0
  -22.2390   -4.2990   21.3850 F   0  0  0  0  0  0  0  0  0  0  0  0
  -21.2040   -3.8080   26.0210 F   0  0  0  0  0  0  0  0  0  0  0  0
  -22.6900  -13.5940   21.0940 C   0  0  0  0  0  0  0  0  0  0  0  0
  -21.9490  -12.9080   21.9560 N   0  0  0  0  0  0  0  0  0  0  0  0
  -22.2590  -14.6140   20.5560 O   0  0  0  0  0  0  0  0  0  0  0  0
  -22.3090  -12.0820   22.4110 H   0  0  0  0  0  0  0  0  0  0  0  0
  -21.0080  -13.2110   22.1660 H   0  0  0  0  0  0  0  0  0  0  0  0
  -25.3380  -15.2480   20.2900 N   0  0  0  0  0  0  0  0  0  0  0  0
  -24.5640  -15.9010   20.3610 H   0  0  0  0  0  0  0  0  0  0  0  0
  -26.1780  -15.6690   19.9140 H   0  0  0  0  0  0  0  0  0  0  0  0
  -28.8760  -22.8180   20.2850 C   0  0  0  0  0  2  0  0  0  0  0  0
  -29.2690  -24.3070   20.4570 C   0  0  0  0  0  0  0  0  0  0  0  0
  -30.4490  -24.6740   20.3900 O   0  0  0  0  0  0  0  0  0  0  0  0
  -27.7690  -25.3280   22.2160 C   0  0  0  0  0  1  0  0  0  0  0  0
  -28.1050  -25.2940   20.7120 C   0  0  0  0  0  3  0  0  0  0  0  0
  -28.3620  -26.6470   20.2440 O   0  0  0  0  0  0  0  0  0  0  0  0
  -24.5830  -31.8990   23.2500 C   0  0  0  0  0  0  0  0  0  0  0  0
  -27.2270  -27.4400   20.1760 C   0  0  0  0  0  0  0  0  0  0  0  0
  -23.3810  -30.4960   21.6090 C   0  0  0  0  0  3  0  0  0  0  0  0
  -24.8390  -28.9640   20.1820 C   0  0  0  0  0  0  0  0  0  0  0  0
  -25.9110  -30.8510   21.4150 C   0  0  0  0  0  2  0  0  0  0  0  0
  -25.9990  -29.4820   20.7700 C   0  0  0  0  0  0  0  0  0  0  0  0
  -27.1990  -28.7290   20.7610 C   0  0  0  0  0  3  0  0  0  0  0  0
  -26.0500  -26.9530   19.5610 C   0  0  0  0  0  3  0  0  0  0  0  0
  -24.8600  -27.7010   19.5720 C   0  0  0  0  0  3  0  0  0  0  0  0
  -23.5940  -29.8210   20.2300 C   0  0  0  0  0  2  0  0  0  0  0  0
  -24.6440  -31.0960   22.1500 N   0  0  0  0  0  0  0  0  0  0  0  0
  -23.5000  -32.1690   23.7890 O   0  0  0  0  0  0  0  0  0  0  0  0
  -22.7300  -29.4730   22.5680 C   0  0  0  0  0  0  0  0  0  0  0  0
  -21.4040  -29.2920   22.4380 N   0  0  0  0  0  0  0  0  0  0  0  0
  -23.4110  -28.8450   23.3820 O   0  0  0  0  0  0  0  0  0  0  0  0
  -20.9160  -29.8490   21.7500 H   0  0  0  0  0  0  0  0  0  0  0  0
  -18.0250  -28.1150   22.9480 C   0  0  0  0  0  0  0  0  0  0  0  0
  -20.5850  -28.3570   23.2080 C   0  0  0  0  0  3  0  0  0  0  0  0
  -20.6760  -26.9280   22.6250 C   0  0  0  0  0  2  0  0  0  0  0  0
  -19.5680  -26.6160   21.6150 C   0  0  0  0  0  2  0  0  0  0  0  0
  -18.1900  -26.7670   22.2660 C   0  0  0  0  0  2  0  0  0  0  0  0
  -19.1500  -28.8690   23.3770 C   0  0  0  0  0  0  0  0  0  0  0  0
  -18.9420  -30.1300   23.9740 C   0  0  0  0  0  3  0  0  0  0  0  0
  -17.6410  -30.6400   24.1470 C   0  0  0  0  0  3  0  0  0  0  0  0
  -16.5300  -29.8840   23.7350 C   0  0  0  0  0  3  0  0  0  0  0  0
  -16.7230  -28.6230   23.1430 C   0  0  0  0  0  3  0  0  0  0  0  0
  -25.8660  -32.5330   23.8720 C   0  0  0  0  0  3  0  0  0  0  0  0
  -26.3820  -31.7670   25.1520 C   0  0  1  0  0  0  0  0  0  0  0  0
  -25.2880  -31.5310   26.2190 C   0  0  0  0  0  1  0  0  0  0  0  0
  -26.9670  -30.3900   24.7630 C   0  0  0  0  0  1  0  0  0  0  0  0
  -27.5300  -32.5660   25.8120 C   0  0  0  0  0  1  0  0  0  0  0  0
  -25.5590  -33.9320   24.1940 N   0  0  0  0  0  0  0  0  0  0  0  0
  -25.8930  -34.9800   23.4290 C   0  0  0  0  0  0  0  0  0  0  0  0
  -26.5690  -34.8690   22.4010 O   0  0  0  0  0  0  0  0  0  0  0  0
  -24.9680  -34.0930   24.9960 H   0  0  0  0  0  0  0  0  0  0  0  0
  -24.1730  -36.7730   23.0460 C   0  0  0  0  0  1  0  0  0  0  0  0
  -25.4050  -36.3710   23.8740 C   0  0  0  0  0  3  0  0  0  0  0  0
  -27.5330  -37.2530   24.7240 C   0  0  0  0  0  1  0  0  0  0  0  0
  -26.4410  -37.4200   23.7670 N   0  0  0  0  0  0  0  0  0  0  0  0
  -26.0370  -38.3420   23.9060 H   0  0  0  0  0  0  0  0  0  0  0  0
  2  1  1  0
  4  3  1  0
  4  1  1  0
  4  5  1  0
  6  5  1  0
  6  8  1  0
  6  9  1  0
  7  6  1  0
 10 18  1  0
 11 16  1  0
 12 13  1  0
 12 11  1  0
 14 13  1  0
 14 23  1  0
 14 15  1  0
 16 10  1  0
 16 15  1  0
 17 10  2  0
 18  9  1  0
 18 19  1  0
 20 21  2  0
 21 40  1  0
 22 21  1  0
 22 25  1  0
 23 20  1  0
 23 24  1  0
 24 22  2  0
 25 26  1  0
 26 27  2  0
 28 31  1  0
 28 27  1  0
 29 28  2  0
 30 29  1  0
 30 25  2  0
 31 32  1  0
 32 33  1  0
 33 34  2  0
 35 34  1  0
 35 39  1  0
 36 35  2  0
 37 32  2  0
 37 36  1  0
 38 37  1  0
 40 41  1  0
 41 44  1  0
 41 43  1  0
 42 40  2  0
 45 46  1  0
 45 20  1  0
 47 45  1  0
 48 49  1  0
 48  1  1  0
 49 52  1  0
 50 49  2  0
 52 51  1  0
 53 52  1  0
 54 65  2  0
 55 53  1  0
 55 60  1  0
 56 64  1  0
 56 66  1  0
 57 63  1  0
 57 59  1  0
 58 64  1  0
 59 58  1  0
 60 59  2  0
 61 62  1  0
 61 55  2  0
 62 57  2  0
 63 56  1  0
 64 54  1  0
 66 68  2  0
 67 66  1  0
 69 67  1  0
 70 79  2  0
 70 75  1  0
 71 67  1  0
 71 75  1  0
 72 71  1  0
 73 74  1  0
 73 72  1  0
 74 70  1  0
 75 76  2  0
 76 77  1  0
 78 77  2  0
 79 78  1  0
 80 54  1  0
 80 85  1  0
 80 81  1  0
 81 84  1  1
 81 82  1  0
 83 81  1  0
 85 88  1  0
 86 90  1  0
 86 85  1  0
 87 86  2  0
 90 89  1  0
 92 90  1  0
 92 93  1  0
 92 91  1  0
M  ISO  4  10 100  18 100  52 101  53 101
M  END
>  <TORSDO>  (97) 
F 23

>  <SCORE>  (97) 
-12.864

>  <name>  (97) 
96

>  <ligand_id>  (97) 
96

>  <original_smiles>  (97) 
[H]c1c([H])c([H])c2c(c1[H])C([H])([H])C([H])([H])C([H])([H])C2([H])N([H])C(=O)C1([H])N(C(=O)C([H])(N([H])C(=O)C([H])(N([H])C([H])([H])[H])C([H])([H])[H])C(C([H])([H])[H])(C([H])([H])[H])C([H])([H])[H])C([H])([H])c2c([H])c(OC([H])(C(=O)C([H])([H])N([H])C([H])(C([H])([H])[H])C([H])([H])[N+]([H])([H])C([H])([H])N([H])C(=O)N3C([H])([H])C([H])([H])C([H])([H])C([H])(n4nc(-c5c([H])c([H])c(Oc6c([H])c([H])c(F)c([H])c6F)c([H])c5[H])c(C(=O)N([H])[H])c4N([H])[H])C3([H])[H])C([H])([H])[H])c([H])c([H])c2C1([H])[H]

>  <smiles>  (97) 
[H]c1c([H])c([H])c2c(c1[H])C([H])([H])C([H])([H])C([H])([H])C2([H])N([H])C(=O)C1([H])N(C(=O)C([H])(N([H])C(=O)C([H])(N([H])C([H])([H])[H])C([H])([H])[H])C(C([H])([H])[H])(C([H])([H])[H])C([H])([H])[H])C([H])([H])c2c([H])c(OC([H])(C(=O)C([H])([H])N([H])C([H])(C([H])([H])[H])C([H])([H])[N+]([H])([H])C([H])([H])N([H])C(=O)N3C([H])([H])C([H])([H])C([H])([H])C([H])(n4nc(-c5c([H])c([H])c(Oc6c([H])c([H])c(F)c([H])c6F)c([H])c5[H])c(C(=O)N([H])[H])c4N([H])[H])C3([H])[H])C([H])([H])[H])c([H])c([H])c2C1([H])[H]

$$$$
97:0:0
     RDKit          3D

 91 99  0  0  1  0  0  0  0  0999 V2000
  -28.3780  -21.9480   21.8320 C   0  0  0  0  0  2  0  0  0  0  0  0
  -29.0010  -20.5280   22.0370 C   0  0  0  0  0  2  0  0  0  0  0  0
  -29.5900  -21.3700   19.8990 C   0  0  0  0  0  2  0  0  0  0  0  0
  -29.2580  -22.6510   20.7840 C   0  0  0  0  0  3  0  0  0  0  0  0
  -29.7370  -20.1470   20.7930 N   0  0  2  0  0  4  0  0  0  0  0  0
  -30.7130  -20.1610   21.0530 H   0  0  0  0  0  0  0  0  0  0  0  0
  -28.6620  -23.9600   20.0730 C   0  0  0  0  0  0  0  0  0  0  0  0
  -28.5040  -23.9460   18.8480 O   0  0  0  0  0  0  0  0  0  0  0  0
  -28.2910  -25.2900   20.8720 C   0  0  0  0  0  2  0  0  0  0  0  0
  -28.3720  -26.5930   20.1390 O   0  0  0  0  0  0  0  0  0  0  0  0
  -24.6180  -31.9550   23.2220 C   0  0  0  0  0  0  0  0  0  0  0  0
  -27.2490  -27.4360   20.1400 C   0  0  0  0  0  0  0  0  0  0  0  0
  -23.4100  -30.5560   21.5850 C   0  0  0  0  0  3  0  0  0  0  0  0
  -24.8650  -29.0220   20.1400 C   0  0  0  0  0  0  0  0  0  0  0  0
  -25.9420  -30.9100   21.3670 C   0  0  0  0  0  2  0  0  0  0  0  0
  -26.0360  -29.5340   20.7160 C   0  0  0  0  0  0  0  0  0  0  0  0
  -27.2340  -28.7540   20.6950 C   0  0  0  0  0  3  0  0  0  0  0  0
  -26.0590  -26.9750   19.5430 C   0  0  0  0  0  3  0  0  0  0  0  0
  -24.8800  -27.7510   19.5430 C   0  0  0  0  0  3  0  0  0  0  0  0
  -23.6150  -29.8800   20.2020 C   0  0  0  0  0  2  0  0  0  0  0  0
  -24.6770  -31.1570   22.1150 N   0  0  0  0  0  0  0  0  0  0  0  0
  -23.5400  -32.2160   23.7730 O   0  0  0  0  0  0  0  0  0  0  0  0
  -22.7690  -29.5280   22.5470 C   0  0  0  0  0  0  0  0  0  0  0  0
  -21.4470  -29.3210   22.4170 N   0  0  0  0  0  0  0  0  0  0  0  0
  -23.4590  -28.9140   23.3670 O   0  0  0  0  0  0  0  0  0  0  0  0
  -20.9510  -29.8680   21.7270 H   0  0  0  0  0  0  0  0  0  0  0  0
  -18.0970  -28.0430   22.8980 C   0  0  0  0  0  0  0  0  0  0  0  0
  -20.6470  -28.3660   23.1830 C   0  0  0  0  0  3  0  0  0  0  0  0
  -20.7870  -26.9360   22.6110 C   0  0  0  0  0  2  0  0  0  0  0  0
  -19.6970  -26.5830   21.5920 C   0  0  0  0  0  2  0  0  0  0  0  0
  -18.3080  -26.6970   22.2260 C   0  0  0  0  0  2  0  0  0  0  0  0
  -19.1950  -28.8340   23.3310 C   0  0  0  0  0  0  0  0  0  0  0  0
  -18.9440  -30.0930   23.9170 C   0  0  0  0  0  3  0  0  0  0  0  0
  -17.6260  -30.5630   24.0780 C   0  0  0  0  0  3  0  0  0  0  0  0
  -16.5430  -29.7690   23.6640 C   0  0  0  0  0  3  0  0  0  0  0  0
  -16.7780  -28.5120   23.0780 C   0  0  0  0  0  3  0  0  0  0  0  0
  -25.9000  -32.5960   23.8360 C   0  0  0  0  0  3  0  0  0  0  0  0
  -26.4260  -31.8360   25.1140 C   0  0  1  0  0  0  0  0  0  0  0  0
  -25.3350  -31.5860   26.1830 C   0  0  0  0  0  1  0  0  0  0  0  0
  -27.0310  -30.4670   24.7230 C   0  0  0  0  0  1  0  0  0  0  0  0
  -27.5660  -32.6480   25.7740 C   0  0  0  0  0  1  0  0  0  0  0  0
  -25.5840  -33.9950   24.1640 N   0  0  0  0  0  0  0  0  0  0  0  0
  -25.9170  -35.0480   23.4080 C   0  0  0  0  0  0  0  0  0  0  0  0
  -26.5890  -34.9460   22.3780 O   0  0  0  0  0  0  0  0  0  0  0  0
  -24.9930  -34.1500   24.9670 H   0  0  0  0  0  0  0  0  0  0  0  0
  -24.1960  -36.8440   23.0350 C   0  0  0  0  0  1  0  0  0  0  0  0
  -25.4240  -36.4360   23.8630 C   0  0  0  0  0  3  0  0  0  0  0  0
  -27.5470  -37.3130   24.7320 C   0  0  0  0  0  1  0  0  0  0  0  0
  -26.4600  -37.4880   23.7720 N   0  0  0  0  0  0  0  0  0  0  0  0
  -26.0520  -38.4080   23.9200 H   0  0  0  0  0  0  0  0  0  0  0  0
  -28.0120  -18.4050   20.0610 C   0  0  0  0  0  1  0  0  0  0  0  0
  -29.5120  -18.7230   20.2080 C   0  0  0  0  0  3  0  0  0  0  0  0
  -30.3300  -17.4820   20.8750 C   0  0  0  0  0  2  0  0  0  0  0  0
  -30.7940  -14.9320   20.2220 C   0  0  0  0  0  0  0  0  0  0  0  0
  -30.6280  -12.6620   19.1670 C   0  0  0  0  0  2  0  0  0  0  0  0
  -29.6610  -12.7040   17.9620 C   0  0  0  0  0  2  0  0  0  0  0  0
  -28.1990  -12.5170   18.4200 C   0  0  0  0  0  2  0  0  0  0  0  0
  -27.8360  -13.4130   19.6330 C   0  0  0  0  0  3  0  0  0  0  0  0
  -28.9090  -13.3200   20.7370 C   0  0  0  0  0  2  0  0  0  0  0  0
  -30.1900  -13.6990   20.1290 N   0  0  0  0  0  0  0  0  0  0  0  0
  -31.9710  -15.0730   19.8750 O   0  0  0  0  0  0  0  0  0  0  0  0
  -29.9940  -16.0200   20.5480 N   0  0  0  0  0  0  0  0  0  0  0  0
  -29.0360  -15.7630   20.7270 H   0  0  0  0  0  0  0  0  0  0  0  0
  -25.4650  -14.0030   20.4090 C   0  0  0  0  0  0  0  0  0  0  0  0
  -24.4050  -13.2310   20.7920 C   0  0  0  0  0  0  0  0  0  0  0  0
  -24.8630  -11.8780   20.7370 C   0  0  0  0  0  0  0  0  0  0  0  0
  -26.5010  -13.1240   20.1430 N   0  0  0  0  0  0  0  0  0  0  0  0
  -26.1470  -11.8400   20.4030 N   0  0  0  0  0  0  0  0  0  0  0  0
  -24.1380  -10.6170   20.9250 C   0  0  0  0  0  0  0  0  0  0  0  0
  -24.5640   -9.6500   21.8640 C   0  0  0  0  0  3  0  0  0  0  0  0
  -23.8370   -8.4530   22.0390 C   0  0  0  0  0  3  0  0  0  0  0  0
  -22.6700   -8.2130   21.2750 C   0  0  0  0  0  0  0  0  0  0  0  0
  -22.2640   -9.1670   20.3260 C   0  0  0  0  0  3  0  0  0  0  0  0
  -22.9930  -10.3550   20.1490 C   0  0  0  0  0  3  0  0  0  0  0  0
  -21.9140   -7.0690   21.3610 O   0  0  0  0  0  0  0  0  0  0  0  0
  -21.8300   -6.3460   22.5240 C   0  0  0  0  0  0  0  0  0  0  0  0
  -21.3480   -6.9160   23.7230 C   0  0  0  0  0  3  0  0  0  0  0  0
  -21.2140   -6.1190   24.8780 C   0  0  0  0  0  3  0  0  0  0  0  0
  -21.5520   -4.7540   24.8350 C   0  0  0  0  0  0  0  0  0  0  0  0
  -22.0240   -4.1830   23.6400 C   0  0  0  0  0  3  0  0  0  0  0  0
  -22.1620   -4.9770   22.4880 C   0  0  0  0  0  0  0  0  0  0  0  0
  -22.5990   -4.4180   21.3340 F   0  0  0  0  0  0  0  0  0  0  0  0
  -21.4160   -3.9870   25.9420 F   0  0  0  0  0  0  0  0  0  0  0  0
  -23.0150  -13.7080   21.0970 C   0  0  0  0  0  0  0  0  0  0  0  0
  -22.3000  -13.0000   21.9640 N   0  0  0  0  0  0  0  0  0  0  0  0
  -22.5730  -14.7430   20.6010 O   0  0  0  0  0  0  0  0  0  0  0  0
  -22.6700  -12.1580   22.3820 H   0  0  0  0  0  0  0  0  0  0  0  0
  -21.3700  -13.3010   22.2180 H   0  0  0  0  0  0  0  0  0  0  0  0
  -25.6270  -15.3750   20.2400 N   0  0  0  0  0  0  0  0  0  0  0  0
  -24.8520  -16.0210   20.3420 H   0  0  0  0  0  0  0  0  0  0  0  0
  -26.4390  -15.8000   19.8120 H   0  0  0  0  0  0  0  0  0  0  0  0
  1  2  1  0
  3  4  1  0
  3  5  1  0
  4  7  1  0
  4  1  1  0
  5  6  1  1
  5  2  1  0
  7  9  1  0
  8  7  2  0
 10 12  1  0
 10  9  1  0
 11 22  2  0
 12 17  1  0
 13 21  1  0
 13 23  1  0
 14 20  1  0
 14 16  1  0
 15 21  1  0
 16 15  1  0
 17 16  2  0
 18 12  2  0
 19 18  1  0
 19 14  2  0
 20 13  1  0
 21 11  1  0
 23 25  2  0
 24 23  1  0
 26 24  1  0
 27 36  2  0
 27 32  1  0
 28 24  1  0
 28 32  1  0
 29 28  1  0
 30 31  1  0
 30 29  1  0
 31 27  1  0
 32 33  2  0
 33 34  1  0
 35 34  2  0
 36 35  1  0
 37 11  1  0
 37 42  1  0
 37 38  1  0
 38 41  1  1
 38 39  1  0
 40 38  1  0
 42 45  1  0
 43 47  1  0
 43 42  1  0
 44 43  2  0
 47 46  1  0
 49 47  1  0
 49 50  1  0
 49 48  1  0
 52 51  1  0
 52  5  1  0
 52 53  1  0
 54 62  1  0
 55 60  1  0
 56 57  1  0
 56 55  1  0
 58 57  1  0
 58 67  1  0
 58 59  1  0
 60 54  1  0
 60 59  1  0
 61 54  2  0
 62 63  1  0
 62 53  1  0
 64 65  2  0
 65 84  1  0
 66 65  1  0
 66 69  1  0
 67 68  1  0
 67 64  1  0
 68 66  2  0
 69 70  1  0
 70 71  2  0
 72 75  1  0
 72 71  1  0
 73 72  2  0
 74 73  1  0
 74 69  2  0
 75 76  1  0
 76 77  1  0
 77 78  2  0
 79 78  1  0
 79 83  1  0
 80 79  2  0
 81 76  2  0
 81 80  1  0
 82 81  1  0
 84 85  1  0
 85 88  1  0
 85 87  1  0
 86 84  2  0
 89 90  1  0
 89 64  1  0
 91 89  1  0
M  ISO  4   9 101  10 101  54 100  62 100
M  END
>  <TORSDO>  (98) 
F 20

>  <SCORE>  (98) 
-13.135

>  <name>  (98) 
97

>  <ligand_id>  (98) 
97

>  <original_smiles>  (98) 
[H]c1c([H])c([H])c2c(c1[H])C([H])([H])C([H])([H])C([H])([H])C2([H])N([H])C(=O)C1([H])N(C(=O)C([H])(N([H])C(=O)C([H])(N([H])C([H])([H])[H])C([H])([H])[H])C(C([H])([H])[H])(C([H])([H])[H])C([H])([H])[H])C([H])([H])c2c([H])c(OC([H])([H])C(=O)C3([H])C([H])([H])C([H])([H])[N+]([H])(C([H])(C([H])([H])[H])C([H])([H])N([H])C(=O)N4C([H])([H])C([H])([H])C([H])([H])C([H])(n5nc(-c6c([H])c([H])c(Oc7c([H])c([H])c(F)c([H])c7F)c([H])c6[H])c(C(=O)N([H])[H])c5N([H])[H])C4([H])[H])C3([H])[H])c([H])c([H])c2C1([H])[H]

>  <smiles>  (98) 
[H]c1c([H])c([H])c2c(c1[H])C([H])([H])C([H])([H])C([H])([H])C2([H])N([H])C(=O)C1([H])N(C(=O)C([H])(N([H])C(=O)C([H])(N([H])C([H])([H])[H])C([H])([H])[H])C(C([H])([H])[H])(C([H])([H])[H])C([H])([H])[H])C([H])([H])c2c([H])c(OC([H])([H])C(=O)C3([H])C([H])([H])C([H])([H])[N+]([H])(C([H])(C([H])([H])[H])C([H])([H])N([H])C(=O)N4C([H])([H])C([H])([H])C([H])([H])C([H])(n5nc(-c6c([H])c([H])c(Oc7c([H])c([H])c(F)c([H])c7F)c([H])c6[H])c(C(=O)N([H])[H])c5N([H])[H])C4([H])[H])C3([H])[H])c([H])c([H])c2C1([H])[H]

$$$$
