0:0:0
     RDKit          3D

 93101  0  0  1  0  0  0  0  0999 V2000
  -29.1520  -22.8280   20.3440 N   0  0  0  0  0  4  0  0  0  0  0  0
  -30.1520  -22.9000   20.4450 H   0  0  0  0  0  0  0  0  0  0  0  0
  -28.7670  -22.6820   21.2640 H   0  0  0  0  0  0  0  0  0  0  0  0
  -28.8480  -21.6020   19.5260 C   0  0  0  0  0  2  0  0  0  0  0  0
  -29.6330  -19.2910   18.5590 C   0  0  0  0  0  2  0  0  0  0  0  0
  -29.7090  -19.5860   21.0670 C   0  0  0  0  0  2  0  0  0  0  0  0
  -29.3410  -17.8190   18.9850 C   0  0  0  0  0  2  0  0  0  0  0  0
  -30.6240  -18.3110   21.1280 C   0  0  0  0  0  2  0  0  0  0  0  0
  -29.7960  -20.3390   19.7110 C   0  0  0  0  0  3  0  0  0  0  0  0
  -30.3660  -17.2450   19.9980 C   0  0  0  0  0  3  0  0  0  0  0  0
  -30.6950  -14.6950   20.0940 C   0  0  0  0  0  0  0  0  0  0  0  0
  -30.4210  -12.5040   18.9240 C   0  0  0  0  0  2  0  0  0  0  0  0
  -29.4050  -12.6470   17.7700 C   0  0  0  0  0  2  0  0  0  0  0  0
  -27.9580  -12.4570   18.2710 C   0  0  0  0  0  2  0  0  0  0  0  0
  -27.6710  -13.2720   19.5600 C   0  0  0  0  0  3  0  0  0  0  0  0
  -28.7930  -13.0240   20.5970 C   0  0  0  0  0  2  0  0  0  0  0  0
  -30.0460  -13.4810   19.9770 N   0  0  0  0  0  0  0  0  0  0  0  0
  -31.8280  -14.8050   19.6090 O   0  0  0  0  0  0  0  0  0  0  0  0
  -28.9330  -15.9100   21.4800 C   0  0  0  0  0  1  0  0  0  0  0  0
  -29.9910  -15.8470   20.4530 N   0  0  0  0  0  0  0  0  0  0  0  0
  -25.3150  -13.8680   20.4040 C   0  0  0  0  0  0  0  0  0  0  0  0
  -24.2710  -13.0870   20.8240 C   0  0  0  0  0  0  0  0  0  0  0  0
  -24.7320  -11.7390   20.7460 C   0  0  0  0  0  0  0  0  0  0  0  0
  -26.3470  -12.9910   20.1070 N   0  0  0  0  0  0  0  0  0  0  0  0
  -26.0020  -11.7050   20.3660 N   0  0  0  0  0  0  0  0  0  0  0  0
  -24.0180  -10.4710   20.9500 C   0  0  0  0  0  0  0  0  0  0  0  0
  -24.4760   -9.5050   21.8740 C   0  0  0  0  0  3  0  0  0  0  0  0
  -23.7600   -8.3040   22.0640 C   0  0  0  0  0  3  0  0  0  0  0  0
  -22.5760   -8.0590   21.3280 C   0  0  0  0  0  0  0  0  0  0  0  0
  -22.1390   -9.0130   20.3930 C   0  0  0  0  0  3  0  0  0  0  0  0
  -22.8550  -10.2060   20.2010 C   0  0  0  0  0  3  0  0  0  0  0  0
  -21.8320   -6.9080   21.4290 O   0  0  0  0  0  0  0  0  0  0  0  0
  -21.7690   -6.1920   22.5980 C   0  0  0  0  0  0  0  0  0  0  0  0
  -21.3200   -6.7730   23.8040 C   0  0  0  0  0  3  0  0  0  0  0  0
  -21.2080   -5.9820   24.9660 C   0  0  0  0  0  3  0  0  0  0  0  0
  -21.5320   -4.6130   24.9210 C   0  0  0  0  0  0  0  0  0  0  0  0
  -21.9730   -4.0330   23.7180 C   0  0  0  0  0  3  0  0  0  0  0  0
  -22.0890   -4.8200   22.5590 C   0  0  0  0  0  0  0  0  0  0  0  0
  -22.4960   -4.2520   21.3990 F   0  0  0  0  0  0  0  0  0  0  0  0
  -21.4150   -3.8510   26.0330 F   0  0  0  0  0  0  0  0  0  0  0  0
  -22.8900  -13.5590   21.1780 C   0  0  0  0  0  0  0  0  0  0  0  0
  -22.2090  -12.8510   22.0730 N   0  0  0  0  0  0  0  0  0  0  0  0
  -22.4210  -14.5880   20.6940 O   0  0  0  0  0  0  0  0  0  0  0  0
  -22.6010  -12.0210   22.4930 H   0  0  0  0  0  0  0  0  0  0  0  0
  -21.2820  -13.1440   22.3440 H   0  0  0  0  0  0  0  0  0  0  0  0
  -25.4550  -15.2400   20.2300 N   0  0  0  0  0  0  0  0  0  0  0  0
  -24.6740  -15.8750   20.3500 H   0  0  0  0  0  0  0  0  0  0  0  0
  -26.2680  -15.6830   19.8200 H   0  0  0  0  0  0  0  0  0  0  0  0
  -28.6420  -24.1470   19.7960 C   0  0  0  0  0  2  0  0  0  0  0  0
  -27.5770  -25.1400   21.9040 C   0  0  0  0  0  1  0  0  0  0  0  0
  -30.0200  -25.5310   21.4540 C   0  0  0  0  0  1  0  0  0  0  0  0
  -28.6350  -25.3670   20.8020 C   0  0  1  0  0  0  0  0  0  0  0  0
  -28.5020  -26.6750   20.1470 O   0  0  0  0  0  0  0  0  0  0  0  0
  -24.6440  -31.8970   23.2380 C   0  0  0  0  0  0  0  0  0  0  0  0
  -27.3240  -27.4150   20.1900 C   0  0  0  0  0  0  0  0  0  0  0  0
  -23.4560  -30.4800   21.5950 C   0  0  0  0  0  3  0  0  0  0  0  0
  -24.9270  -28.9400   20.1780 C   0  0  0  0  0  0  0  0  0  0  0  0
  -25.9840  -30.8440   21.4110 C   0  0  0  0  0  2  0  0  0  0  0  0
  -26.0820  -29.4680   20.7730 C   0  0  0  0  0  0  0  0  0  0  0  0
  -27.2850  -28.7120   20.7710 C   0  0  0  0  0  3  0  0  0  0  0  0
  -26.1570  -26.9190   19.5780 C   0  0  0  0  0  3  0  0  0  0  0  0
  -24.9620  -27.6690   19.5760 C   0  0  0  0  0  3  0  0  0  0  0  0
  -23.6770  -29.7950   20.2170 C   0  0  0  0  0  2  0  0  0  0  0  0
  -24.7120  -31.0910   22.1390 N   0  0  0  0  0  0  0  0  0  0  0  0
  -23.5600  -32.1650   23.7740 O   0  0  0  0  0  0  0  0  0  0  0  0
  -22.8050  -29.4600   22.5570 C   0  0  0  0  0  0  0  0  0  0  0  0
  -21.4790  -29.2790   22.4340 N   0  0  0  0  0  0  0  0  0  0  0  0
  -23.4900  -28.8330   23.3710 O   0  0  0  0  0  0  0  0  0  0  0  0
  -20.9900  -29.8350   21.7460 H   0  0  0  0  0  0  0  0  0  0  0  0
  -18.1050  -28.0850   22.9280 C   0  0  0  0  0  0  0  0  0  0  0  0
  -20.6640  -28.3370   23.1990 C   0  0  0  0  0  3  0  0  0  0  0  0
  -20.7640  -26.9100   22.6130 C   0  0  0  0  0  2  0  0  0  0  0  0
  -19.6610  -26.5930   21.5990 C   0  0  0  0  0  2  0  0  0  0  0  0
  -18.2790  -26.7380   22.2470 C   0  0  0  0  0  2  0  0  0  0  0  0
  -19.2250  -28.8430   23.3610 C   0  0  0  0  0  0  0  0  0  0  0  0
  -19.0110  -30.1050   23.9550 C   0  0  0  0  0  3  0  0  0  0  0  0
  -17.7090  -30.6060   24.1310 C   0  0  0  0  0  3  0  0  0  0  0  0
  -16.6020  -29.8430   23.7200 C   0  0  0  0  0  3  0  0  0  0  0  0
  -16.8000  -28.5870   23.1200 C   0  0  0  0  0  3  0  0  0  0  0  0
  -25.9240  -32.5360   23.8610 C   0  0  0  0  0  3  0  0  0  0  0  0
  -26.4460  -31.7670   25.1360 C   0  0  1  0  0  0  0  0  0  0  0  0
  -25.3520  -31.5180   26.2010 C   0  0  0  0  0  1  0  0  0  0  0  0
  -27.0430  -30.3960   24.7390 C   0  0  0  0  0  1  0  0  0  0  0  0
  -27.5870  -32.5710   25.8030 C   0  0  0  0  0  1  0  0  0  0  0  0
  -25.6050  -33.9300   24.1940 N   0  0  0  0  0  0  0  0  0  0  0  0
  -25.9230  -34.9870   23.4340 C   0  0  0  0  0  0  0  0  0  0  0  0
  -26.5860  -34.8900   22.3990 O   0  0  0  0  0  0  0  0  0  0  0  0
  -25.0120  -34.0800   24.9980 H   0  0  0  0  0  0  0  0  0  0  0  0
  -24.1730  -36.7600   23.0930 C   0  0  0  0  0  1  0  0  0  0  0  0
  -25.4260  -36.3700   23.8920 C   0  0  0  0  0  3  0  0  0  0  0  0
  -27.5590  -37.2830   24.6980 C   0  0  0  0  0  1  0  0  0  0  0  0
  -26.4430  -37.4360   23.7680 N   0  0  0  0  0  0  0  0  0  0  0  0
  -26.0270  -38.3500   23.9200 H   0  0  0  0  0  0  0  0  0  0  0  0
  1  2  1  0
  1  3  1  0
  4  1  1  0
  5  7  1  0
  5  9  1  0
  6  8  1  0
  7 10  1  0
  9  4  1  0
  9  6  1  0
 10 20  1  0
 10  8  1  0
 11 20  1  0
 12 17  1  0
 13 14  1  0
 13 12  1  0
 15 14  1  0
 15 24  1  0
 15 16  1  0
 17 11  1  0
 17 16  1  0
 18 11  2  0
 20 19  1  0
 21 22  2  0
 22 41  1  0
 23 22  1  0
 23 26  1  0
 24 25  1  0
 24 21  1  0
 25 23  2  0
 26 27  1  0
 27 28  2  0
 29 32  1  0
 29 28  1  0
 30 29  2  0
 31 30  1  0
 31 26  2  0
 32 33  1  0
 33 34  1  0
 34 35  2  0
 36 35  1  0
 36 40  1  0
 37 36  2  0
 38 33  2  0
 38 37  1  0
 39 38  1  0
 41 42  1  0
 42 45  1  0
 42 44  1  0
 43 41  2  0
 46 47  1  0
 46 21  1  0
 48 46  1  0
 49  1  1  0
 49 52  1  0
 52 51  1  1
 52 50  1  0
 53 55  1  0
 53 52  1  0
 54 65  2  0
 55 60  1  0
 56 64  1  0
 56 66  1  0
 57 63  1  0
 57 59  1  0
 58 64  1  0
 59 58  1  0
 60 59  2  0
 61 55  2  0
 62 61  1  0
 62 57  2  0
 63 56  1  0
 64 54  1  0
 66 68  2  0
 67 66  1  0
 69 67  1  0
 70 79  2  0
 70 75  1  0
 71 67  1  0
 71 75  1  0
 72 71  1  0
 73 74  1  0
 73 72  1  0
 74 70  1  0
 75 76  2  0
 76 77  1  0
 78 77  2  0
 79 78  1  0
 80 54  1  0
 80 85  1  0
 80 81  1  0
 81 84  1  1
 81 82  1  0
 83 81  1  0
 85 88  1  0
 86 90  1  0
 86 85  1  0
 87 86  2  0
 90 89  1  0
 92 90  1  0
 92 93  1  0
 92 91  1  0
M  ISO  4  11 100  20 100  52 101  53 101
M  END
>  <TORSDO>  (1) 
F 20

>  <SCORE>  (1) 
-13.357

>  <name>  (1) 
0

>  <ligand_id>  (1) 
0

>  <original_smiles>  (1) 
[H]c1c([H])c([H])c2c(c1[H])C([H])([H])C([H])([H])C([H])([H])C2([H])N([H])C(=O)C1([H])N(C(=O)C([H])(N([H])C(=O)C([H])(N([H])C([H])([H])[H])C([H])([H])[H])C(C([H])([H])[H])(C([H])([H])[H])C([H])([H])[H])C([H])([H])c2c([H])c(OC(C([H])([H])[H])(C([H])([H])[H])C([H])([H])[N+]([H])([H])C([H])([H])C3([H])C([H])([H])C([H])([H])C([H])(N(C(=O)N4C([H])([H])C([H])([H])C([H])([H])C([H])(n5nc(-c6c([H])c([H])c(Oc7c([H])c([H])c(F)c([H])c7F)c([H])c6[H])c(C(=O)N([H])[H])c5N([H])[H])C4([H])[H])C([H])([H])[H])C([H])([H])C3([H])[H])c([H])c([H])c2C1([H])[H]

>  <smiles>  (1) 
[H]c1c([H])c([H])c2c(c1[H])C([H])([H])C([H])([H])C([H])([H])C2([H])N([H])C(=O)C1([H])N(C(=O)C([H])(N([H])C(=O)C([H])(N([H])C([H])([H])[H])C([H])([H])[H])C(C([H])([H])[H])(C([H])([H])[H])C([H])([H])[H])C([H])([H])c2c([H])c(OC(C([H])([H])[H])(C([H])([H])[H])C([H])([H])[N+]([H])([H])C([H])([H])C3([H])C([H])([H])C([H])([H])C([H])(N(C(=O)N4C([H])([H])C([H])([H])C([H])([H])C([H])(n5nc(-c6c([H])c([H])c(Oc7c([H])c([H])c(F)c([H])c7F)c([H])c6[H])c(C(=O)N([H])[H])c5N([H])[H])C4([H])[H])C([H])([H])[H])C([H])([H])C3([H])[H])c([H])c([H])c2C1([H])[H]

$$$$
1:0:0
     RDKit          3D

 90 98  0  0  1  0  0  0  0  0999 V2000
  -29.5570  -17.2340   18.8190 C   0  0  0  0  0  3  0  0  0  0  0  0
  -29.5470  -18.4390   20.9030 C   0  0  0  0  0  3  0  0  0  0  0  0
  -29.3270  -18.4720   18.1900 C   0  0  0  0  0  3  0  0  0  0  0  0
  -29.6930  -17.1630   20.2190 C   0  0  0  0  0  0  0  0  0  0  0  0
  -29.3280  -19.6800   20.1840 C   0  0  0  0  0  0  0  0  0  0  0  0
  -29.2230  -19.6510   18.8430 N   0  0  0  0  0  0  0  0  0  0  0  0
  -29.2210  -20.9980   20.7690 N   0  0  0  0  0  0  0  0  0  0  0  0
  -29.2540  -21.0540   21.7830 H   0  0  0  0  0  0  0  0  0  0  0  0
  -30.5710  -14.7320   20.4620 C   0  0  0  0  0  0  0  0  0  0  0  0
  -30.3940  -12.4530   19.4650 C   0  0  0  0  0  2  0  0  0  0  0  0
  -29.4840  -12.5550   18.2180 C   0  0  0  0  0  2  0  0  0  0  0  0
  -28.0040  -12.3950   18.6140 C   0  0  0  0  0  2  0  0  0  0  0  0
  -27.6150  -13.2790   19.8290 C   0  0  0  0  0  3  0  0  0  0  0  0
  -28.6460  -13.1640   20.9760 C   0  0  0  0  0  2  0  0  0  0  0  0
  -29.9640  -13.4990   20.4240 N   0  0  0  0  0  0  0  0  0  0  0  0
  -31.7330  -14.8550   20.0570 O   0  0  0  0  0  0  0  0  0  0  0  0
  -29.8220  -15.8300   20.8530 N   0  0  0  0  0  0  0  0  0  0  0  0
  -29.0410  -15.5880   21.4480 H   0  0  0  0  0  0  0  0  0  0  0  0
  -25.2170  -13.8870   20.5080 C   0  0  0  0  0  0  0  0  0  0  0  0
  -24.1420  -13.1210   20.8680 C   0  0  0  0  0  0  0  0  0  0  0  0
  -24.5990  -11.7680   20.8530 C   0  0  0  0  0  0  0  0  0  0  0  0
  -26.2590  -13.0010   20.2920 N   0  0  0  0  0  0  0  0  0  0  0  0
  -25.8930  -11.7220   20.5640 N   0  0  0  0  0  0  0  0  0  0  0  0
  -23.8660  -10.5090   21.0420 C   0  0  0  0  0  0  0  0  0  0  0  0
  -24.2850   -9.5420   21.9830 C   0  0  0  0  0  3  0  0  0  0  0  0
  -23.5500   -8.3480   22.1570 C   0  0  0  0  0  3  0  0  0  0  0  0
  -22.3830   -8.1130   21.3910 C   0  0  0  0  0  0  0  0  0  0  0  0
  -21.9850   -9.0690   20.4410 C   0  0  0  0  0  3  0  0  0  0  0  0
  -22.7180  -10.2540   20.2640 C   0  0  0  0  0  3  0  0  0  0  0  0
  -21.6210   -6.9730   21.4750 O   0  0  0  0  0  0  0  0  0  0  0  0
  -21.5570   -6.2350   22.6300 C   0  0  0  0  0  0  0  0  0  0  0  0
  -21.1240   -6.7950   23.8510 C   0  0  0  0  0  3  0  0  0  0  0  0
  -21.0070   -5.9830   24.9960 C   0  0  0  0  0  3  0  0  0  0  0  0
  -21.3130   -4.6100   24.9220 C   0  0  0  0  0  0  0  0  0  0  0  0
  -21.7400   -4.0500   23.7040 C   0  0  0  0  0  3  0  0  0  0  0  0
  -21.8590   -4.8600   22.5610 C   0  0  0  0  0  0  0  0  0  0  0  0
  -22.2500   -4.3100   21.3870 F   0  0  0  0  0  0  0  0  0  0  0  0
  -21.1930   -3.8270   26.0180 F   0  0  0  0  0  0  0  0  0  0  0  0
  -22.7430  -13.6060   21.1170 C   0  0  0  0  0  0  0  0  0  0  0  0
  -21.9970  -12.9160   21.9730 N   0  0  0  0  0  0  0  0  0  0  0  0
  -22.3190  -14.6320   20.5880 O   0  0  0  0  0  0  0  0  0  0  0  0
  -22.3520  -12.0850   22.4240 H   0  0  0  0  0  0  0  0  0  0  0  0
  -21.0590  -13.2270   22.1840 H   0  0  0  0  0  0  0  0  0  0  0  0
  -25.3910  -15.2570   20.3290 N   0  0  0  0  0  0  0  0  0  0  0  0
  -24.6280  -15.9180   20.4310 H   0  0  0  0  0  0  0  0  0  0  0  0
  -26.2470  -15.6880   20.0030 H   0  0  0  0  0  0  0  0  0  0  0  0
  -28.7380  -22.2300   20.0250 C   0  0  0  0  0  2  0  0  0  0  0  0
  -28.8820  -23.7050   20.6790 C   0  0  0  0  0  3  0  0  0  0  0  0
  -28.0570  -24.9210   20.0120 C   0  0  0  0  0  3  0  0  0  0  0  0
  -28.2980  -26.3760   20.3180 O   0  0  0  0  0  0  0  0  0  0  0  0
  -24.6310  -31.8950   23.2500 C   0  0  0  0  0  0  0  0  0  0  0  0
  -27.2220  -27.2900   20.2120 C   0  0  0  0  0  0  0  0  0  0  0  0
  -23.4310  -30.5050   21.6040 C   0  0  0  0  0  3  0  0  0  0  0  0
  -24.8810  -28.9540   20.1740 C   0  0  0  0  0  0  0  0  0  0  0  0
  -25.9750  -30.7990   21.4400 C   0  0  0  0  0  2  0  0  0  0  0  0
  -26.0500  -29.4180   20.7910 C   0  0  0  0  0  0  0  0  0  0  0  0
  -27.2210  -28.5950   20.8060 C   0  0  0  0  0  3  0  0  0  0  0  0
  -26.0400  -26.9150   19.5300 C   0  0  0  0  0  3  0  0  0  0  0  0
  -24.8810  -27.7100   19.5310 C   0  0  0  0  0  3  0  0  0  0  0  0
  -23.6500  -29.8370   20.2210 C   0  0  0  0  0  2  0  0  0  0  0  0
  -24.6980  -31.0840   22.1540 N   0  0  0  0  0  0  0  0  0  0  0  0
  -23.5460  -32.1770   23.7780 O   0  0  0  0  0  0  0  0  0  0  0  0
  -22.7600  -29.4860   22.5590 C   0  0  0  0  0  0  0  0  0  0  0  0
  -21.4330  -29.3180   22.4330 N   0  0  0  0  0  0  0  0  0  0  0  0
  -23.4350  -28.8520   23.3750 O   0  0  0  0  0  0  0  0  0  0  0  0
  -20.9470  -29.8820   21.7500 H   0  0  0  0  0  0  0  0  0  0  0  0
  -18.0500  -28.1380   22.9290 C   0  0  0  0  0  0  0  0  0  0  0  0
  -20.6100  -28.3810   23.2000 C   0  0  0  0  0  3  0  0  0  0  0  0
  -20.7030  -26.9510   22.6180 C   0  0  0  0  0  2  0  0  0  0  0  0
  -19.5990  -26.6390   21.6020 C   0  0  0  0  0  2  0  0  0  0  0  0
  -18.2180  -26.7910   22.2460 C   0  0  0  0  0  2  0  0  0  0  0  0
  -19.1730  -28.8930   23.3620 C   0  0  0  0  0  0  0  0  0  0  0  0
  -18.9600  -30.1530   23.9600 C   0  0  0  0  0  3  0  0  0  0  0  0
  -17.6570  -30.6600   24.1280 C   0  0  0  0  0  3  0  0  0  0  0  0
  -16.5490  -29.9010   23.7100 C   0  0  0  0  0  3  0  0  0  0  0  0
  -16.7470  -28.6440   23.1140 C   0  0  0  0  0  3  0  0  0  0  0  0
  -25.9120  -32.5240   23.8790 C   0  0  0  0  0  3  0  0  0  0  0  0
  -26.4150  -31.7560   25.1610 C   0  0  1  0  0  0  0  0  0  0  0  0
  -25.3140  -31.5290   26.2240 C   0  0  0  0  0  1  0  0  0  0  0  0
  -26.9930  -30.3740   24.7820 C   0  0  0  0  0  1  0  0  0  0  0  0
  -27.5640  -32.5460   25.8290 C   0  0  0  0  0  1  0  0  0  0  0  0
  -25.6040  -33.9250   24.2030 N   0  0  0  0  0  0  0  0  0  0  0  0
  -25.9370  -34.9750   23.4410 C   0  0  0  0  0  0  0  0  0  0  0  0
  -26.6080  -34.8680   22.4110 O   0  0  0  0  0  0  0  0  0  0  0  0
  -25.0110  -34.0820   25.0050 H   0  0  0  0  0  0  0  0  0  0  0  0
  -24.2160  -36.7740   23.0810 C   0  0  0  0  0  1  0  0  0  0  0  0
  -25.4530  -36.3650   23.8960 C   0  0  0  0  0  3  0  0  0  0  0  0
  -27.5900  -37.2500   24.7260 C   0  0  0  0  0  1  0  0  0  0  0  0
  -26.4900  -37.4150   23.7810 N   0  0  0  0  0  0  0  0  0  0  0  0
  -26.0850  -38.3370   23.9200 H   0  0  0  0  0  0  0  0  0  0  0  0
  1  4  1  0
  3  1  2  0
  3  6  1  0
  4 17  1  0
  4  2  2  0
  5  7  1  0
  5  2  1  0
  6  5  2  0
  7  8  1  0
  9 17  1  0
 10 15  1  0
 11 12  1  0
 11 10  1  0
 13 12  1  0
 13 22  1  0
 13 14  1  0
 15  9  1  0
 15 14  1  0
 16  9  2  0
 17 18  1  0
 19 20  2  0
 20 39  1  0
 21 20  1  0
 21 24  1  0
 22 19  1  0
 22 23  1  0
 23 21  2  0
 24 25  1  0
 25 26  2  0
 27 30  1  0
 27 26  1  0
 28 27  2  0
 29 28  1  0
 29 24  2  0
 30 31  1  0
 31 32  1  0
 32 33  2  0
 34 33  1  0
 34 38  1  0
 35 34  2  0
 36 31  2  0
 36 35  1  0
 37 36  1  0
 39 40  1  0
 40 43  1  0
 40 42  1  0
 41 39  2  0
 44 45  1  0
 44 19  1  0
 46 44  1  0
 47 48  1  0
 47  7  1  0
 49 50  1  0
 49 48  2  0
 51 62  2  0
 52 50  1  0
 52 57  1  0
 53 61  1  0
 53 63  1  0
 54 60  1  0
 54 56  1  0
 55 61  1  0
 56 57  2  0
 56 55  1  0
 58 59  1  0
 58 52  2  0
 59 54  2  0
 60 53  1  0
 61 51  1  0
 63 65  2  0
 64 63  1  0
 66 64  1  0
 67 76  2  0
 67 72  1  0
 68 64  1  0
 68 72  1  0
 69 68  1  0
 70 71  1  0
 70 69  1  0
 71 67  1  0
 72 73  2  0
 73 74  1  0
 75 74  2  0
 76 75  1  0
 77 51  1  0
 77 82  1  0
 77 78  1  0
 78 81  1  1
 78 79  1  0
 80 78  1  0
 82 85  1  0
 83 87  1  0
 83 82  1  0
 84 83  2  0
 87 86  1  0
 89 87  1  0
 89 90  1  0
 89 88  1  0
M  ISO  4   9 100  17 100  49 101  50 101
M  END
>  <TORSDO>  (2) 
F 19

>  <SCORE>  (2) 
-14.145

>  <name>  (2) 
1

>  <ligand_id>  (2) 
1

>  <original_smiles>  (2) 
[H]c1nc(N([H])C([H])([H])C([H])([H])C([H])([H])Oc2c([H])c([H])c3c(c2[H])C([H])([H])N(C(=O)C([H])(N([H])C(=O)C([H])(N([H])C([H])([H])[H])C([H])([H])[H])C(C([H])([H])[H])(C([H])([H])[H])C([H])([H])[H])C([H])(C(=O)N([H])C2([H])c4c([H])c([H])c([H])c([H])c4C([H])([H])C([H])([H])C2([H])[H])C3([H])[H])c([H])c(N([H])C(=O)N2C([H])([H])C([H])([H])C([H])([H])C([H])(n3nc(-c4c([H])c([H])c(Oc5c([H])c([H])c(F)c([H])c5F)c([H])c4[H])c(C(=O)N([H])[H])c3N([H])[H])C2([H])[H])c1[H]

>  <smiles>  (2) 
[H]c1nc(N([H])C([H])([H])C([H])([H])C([H])([H])Oc2c([H])c([H])c3c(c2[H])C([H])([H])N(C(=O)C([H])(N([H])C(=O)C([H])(N([H])C([H])([H])[H])C([H])([H])[H])C(C([H])([H])[H])(C([H])([H])[H])C([H])([H])[H])C([H])(C(=O)N([H])C2([H])c4c([H])c([H])c([H])c([H])c4C([H])([H])C([H])([H])C2([H])[H])C3([H])[H])c([H])c(N([H])C(=O)N2C([H])([H])C([H])([H])C([H])([H])C([H])(n3nc(-c4c([H])c([H])c(Oc5c([H])c([H])c(F)c([H])c5F)c([H])c4[H])c(C(=O)N([H])[H])c3N([H])[H])C2([H])[H])c1[H]

$$$$
2:0:0
     RDKit          3D

102111  0  0  1  0  0  0  0  0999 V2000
  -27.8540  -24.3660   17.9710 C   0  0  0  0  0  3  0  0  0  0  0  0
  -29.1030  -25.0360   17.8780 C   0  0  0  0  0  0  0  0  0  0  0  0
  -28.0610  -23.0370   18.2000 C   0  0  0  0  0  0  0  0  0  0  0  0
  -30.0630  -24.0750   18.0860 C   0  0  0  0  0  0  0  0  0  0  0  0
  -31.5570  -24.2110   18.0680 C   0  0  0  0  0  1  0  0  0  0  0  0
  -29.4390  -22.8390   18.3060 N   0  0  0  0  0  0  0  0  0  0  0  0
  -28.2100  -27.0530   16.6170 C   0  0  0  0  0  1  0  0  0  0  0  0
  -29.3040  -26.5160   17.5610 C   0  0  0  0  0  3  0  0  0  0  0  0
  -29.4910  -27.4040   18.8180 C   0  0  0  0  0  2  0  0  0  0  0  0
  -28.5760  -27.0860   19.8630 O   0  0  0  0  0  0  0  0  0  0  0  0
  -24.8560  -31.9690   23.4880 C   0  0  0  0  0  0  0  0  0  0  0  0
  -27.4440  -27.8550   19.9610 C   0  0  0  0  0  0  0  0  0  0  0  0
  -23.6100  -30.6990   21.7670 C   0  0  0  0  0  3  0  0  0  0  0  0
  -25.0300  -29.3020   20.1770 C   0  0  0  0  0  0  0  0  0  0  0  0
  -26.1180  -31.1140   21.5100 C   0  0  0  0  0  2  0  0  0  0  0  0
  -26.2000  -29.7990   20.7650 C   0  0  0  0  0  0  0  0  0  0  0  0
  -27.4160  -29.0830   20.6570 C   0  0  0  0  0  3  0  0  0  0  0  0
  -26.2520  -27.3490   19.4080 C   0  0  0  0  0  3  0  0  0  0  0  0
  -25.0490  -28.0740   19.4940 C   0  0  0  0  0  3  0  0  0  0  0  0
  -23.7790  -30.1380   20.3290 C   0  0  0  0  0  2  0  0  0  0  0  0
  -24.8830  -31.2690   22.3170 N   0  0  0  0  0  0  0  0  0  0  0  0
  -23.7900  -32.1790   24.0830 O   0  0  0  0  0  0  0  0  0  0  0  0
  -22.9950  -29.5950   22.6580 C   0  0  0  0  0  0  0  0  0  0  0  0
  -21.6770  -29.3770   22.5130 N   0  0  0  0  0  0  0  0  0  0  0  0
  -23.6980  -28.9410   23.4320 O   0  0  0  0  0  0  0  0  0  0  0  0
  -21.1700  -29.9650   21.8660 H   0  0  0  0  0  0  0  0  0  0  0  0
  -18.3560  -27.9950   22.8650 C   0  0  0  0  0  0  0  0  0  0  0  0
  -20.8910  -28.3620   23.2160 C   0  0  0  0  0  3  0  0  0  0  0  0
  -21.0790  -26.9690   22.5730 C   0  0  0  0  0  2  0  0  0  0  0  0
  -20.0180  -26.6450   21.5170 C   0  0  0  0  0  2  0  0  0  0  0  0
  -18.6160  -26.6910   22.1320 C   0  0  0  0  0  2  0  0  0  0  0  0
  -19.4260  -28.7860   23.3610 C   0  0  0  0  0  0  0  0  0  0  0  0
  -19.1310  -30.0080   24.0080 C   0  0  0  0  0  3  0  0  0  0  0  0
  -17.8010  -30.4390   24.1590 C   0  0  0  0  0  3  0  0  0  0  0  0
  -16.7450  -29.6430   23.6810 C   0  0  0  0  0  3  0  0  0  0  0  0
  -17.0230  -28.4220   23.0400 C   0  0  0  0  0  3  0  0  0  0  0  0
  -26.1580  -32.5540   24.1210 C   0  0  0  0  0  3  0  0  0  0  0  0
  -25.8470  -33.9060   24.6010 N   0  0  0  0  0  0  0  0  0  0  0  0
  -26.1680  -35.0360   23.9530 C   0  0  0  0  0  0  0  0  0  0  0  0
  -26.8350  -35.0430   22.9140 O   0  0  0  0  0  0  0  0  0  0  0  0
  -25.2490  -33.9740   25.4120 H   0  0  0  0  0  0  0  0  0  0  0  0
  -24.4430  -36.8600   23.7830 C   0  0  0  0  0  1  0  0  0  0  0  0
  -25.6790  -36.3670   24.5530 C   0  0  0  0  0  3  0  0  0  0  0  0
  -27.8070  -37.1570   25.4890 C   0  0  0  0  0  1  0  0  0  0  0  0
  -26.7120  -37.4260   24.5620 N   0  0  0  0  0  0  0  0  0  0  0  0
  -26.3050  -38.3250   24.8060 H   0  0  0  0  0  0  0  0  0  0  0  0
  -26.7330  -31.6620   25.2880 C   0  0  1  0  0  0  0  0  0  0  0  0
  -25.6870  -31.2930   26.3650 C   0  0  0  0  0  1  0  0  0  0  0  0
  -27.3130  -30.3450   24.7230 C   0  0  0  0  0  1  0  0  0  0  0  0
  -27.8980  -32.4000   25.9890 C   0  0  0  0  0  1  0  0  0  0  0  0
  -27.0080  -21.9670   18.2840 C   0  0  0  0  0  2  0  0  0  0  0  0
  -26.3620  -21.7680   16.9810 N   0  0  0  0  0  4  0  0  0  0  0  0
  -25.8860  -22.6120   16.7200 H   0  0  0  0  0  0  0  0  0  0  0  0
  -25.6910  -21.0220   17.0190 H   0  0  0  0  0  0  0  0  0  0  0  0
  -27.0470  -21.5520   16.2820 H   0  0  0  0  0  0  0  0  0  0  0  0
  -30.1490  -21.5610   18.5280 C   0  0  0  0  0  2  0  0  0  0  0  0
  -30.5900  -21.2950   19.9950 C   0  0  0  0  0  2  0  0  0  0  0  0
  -29.7580  -20.3100   20.7270 N   0  0  0  0  0  4  0  0  0  0  0  0
  -29.7610  -20.5740   21.7010 H   0  0  0  0  0  0  0  0  0  0  0  0
  -28.8100  -20.4040   20.4090 H   0  0  0  0  0  0  0  0  0  0  0  0
  -30.9930  -14.7770   20.9190 C   0  0  0  0  0  0  0  0  0  0  0  0
  -30.6370  -12.6530   19.7310 C   0  0  0  0  0  2  0  0  0  0  0  0
  -29.7620  -12.8430   18.4800 C   0  0  0  0  0  2  0  0  0  0  0  0
  -28.2860  -12.6350   18.8550 C   0  0  0  0  0  2  0  0  0  0  0  0
  -27.8610  -13.4970   20.0660 C   0  0  0  0  0  3  0  0  0  0  0  0
  -28.8720  -13.3690   21.2380 C   0  0  0  0  0  2  0  0  0  0  0  0
  -30.2190  -13.6650   20.7250 N   0  0  0  0  0  0  0  0  0  0  0  0
  -32.1910  -14.7510   20.6280 O   0  0  0  0  0  0  0  0  0  0  0  0
  -28.9360  -17.9830   20.6660 C   0  0  0  0  0  2  0  0  0  0  0  0
  -30.9880  -18.4670   21.8830 C   0  0  0  0  0  2  0  0  0  0  0  0
  -29.2200  -16.4680   20.6580 C   0  0  0  0  0  2  0  0  0  0  0  0
  -31.4120  -16.9810   21.8700 C   0  0  0  0  0  2  0  0  0  0  0  0
  -30.1680  -18.8820   20.6570 C   0  0  0  0  0  3  0  0  0  0  0  0
  -30.4490  -15.9720   21.3240 N   0  0  0  0  0  0  0  0  0  0  0  0
  -25.4250  -14.0840   20.6510 C   0  0  0  0  0  0  0  0  0  0  0  0
  -24.3470  -13.2980   20.9500 C   0  0  0  0  0  0  0  0  0  0  0  0
  -24.8270  -11.9540   20.9360 C   0  0  0  0  0  0  0  0  0  0  0  0
  -26.4930  -13.2120   20.4820 N   0  0  0  0  0  0  0  0  0  0  0  0
  -26.1320  -11.9280   20.7170 N   0  0  0  0  0  0  0  0  0  0  0  0
  -24.1080  -10.6830   21.0620 C   0  0  0  0  0  0  0  0  0  0  0  0
  -24.4800   -9.7180   22.0210 C   0  0  0  0  0  3  0  0  0  0  0  0
  -23.7640   -8.5100   22.1370 C   0  0  0  0  0  3  0  0  0  0  0  0
  -22.6600   -8.2580   21.2890 C   0  0  0  0  0  0  0  0  0  0  0  0
  -22.3120   -9.2080   20.3170 C   0  0  0  0  0  3  0  0  0  0  0  0
  -23.0300  -10.4090   20.2000 C   0  0  0  0  0  3  0  0  0  0  0  0
  -21.9130   -7.1040   21.3180 O   0  0  0  0  0  0  0  0  0  0  0  0
  -21.7610   -6.3720   22.4670 C   0  0  0  0  0  0  0  0  0  0  0  0
  -21.1780   -6.9210   23.6290 C   0  0  0  0  0  3  0  0  0  0  0  0
  -20.9750   -6.1100   24.7640 C   0  0  0  0  0  3  0  0  0  0  0  0
  -21.3450   -4.7540   24.7390 C   0  0  0  0  0  0  0  0  0  0  0  0
  -21.9200   -4.2040   23.5800 C   0  0  0  0  0  3  0  0  0  0  0  0
  -22.1240   -5.0090   22.4460 C   0  0  0  0  0  0  0  0  0  0  0  0
  -22.6570   -4.4690   21.3260 F   0  0  0  0  0  0  0  0  0  0  0  0
  -21.1420   -3.9780   25.8290 F   0  0  0  0  0  0  0  0  0  0  0  0
  -22.9280  -13.7520   21.1390 C   0  0  0  0  0  0  0  0  0  0  0  0
  -22.1530  -13.0350   21.9490 N   0  0  0  0  0  0  0  0  0  0  0  0
  -22.5080  -14.7760   20.6020 O   0  0  0  0  0  0  0  0  0  0  0  0
  -22.5030  -12.2070   22.4060 H   0  0  0  0  0  0  0  0  0  0  0  0
  -21.1970  -13.3170   22.1090 H   0  0  0  0  0  0  0  0  0  0  0  0
  -25.5730  -15.4570   20.4840 N   0  0  0  0  0  0  0  0  0  0  0  0
  -24.7730  -16.0790   20.5450 H   0  0  0  0  0  0  0  0  0  0  0  0
  -26.4270  -15.9380   20.2350 H   0  0  0  0  0  0  0  0  0  0  0  0
  1  3  2  0
  2  1  1  0
  2  4  2  0
  3 51  1  0
  3  6  1  0
  4  6  1  0
  5  4  1  0
  6 56  1  0
  8  7  1  0
  8  2  1  0
  8  9  1  0
  9 10  1  0
 10 12  1  0
 11 22  2  0
 12 17  1  0
 13 21  1  0
 13 23  1  0
 14 20  1  0
 14 16  1  0
 15 21  1  0
 16 15  1  0
 17 16  2  0
 18 19  1  0
 18 12  2  0
 19 14  2  0
 20 13  1  0
 21 11  1  0
 23 25  2  0
 24 23  1  0
 26 24  1  0
 27 36  2  0
 27 32  1  0
 28 24  1  0
 28 32  1  0
 29 28  1  0
 30 31  1  0
 30 29  1  0
 31 27  1  0
 32 33  2  0
 33 34  1  0
 35 34  2  0
 36 35  1  0
 37 11  1  0
 37 38  1  0
 37 47  1  0
 38 41  1  0
 39 43  1  0
 39 38  1  0
 40 39  2  0
 43 42  1  0
 43 45  1  0
 45 46  1  0
 45 44  1  0
 47 50  1  1
 47 48  1  0
 49 47  1  0
 52 54  1  0
 52 51  1  0
 53 52  1  0
 55 52  1  0
 56 57  1  0
 57 58  1  0
 58 59  1  0
 60 58  1  0
 61 74  1  0
 62 67  1  0
 63 64  1  0
 63 62  1  0
 65 64  1  0
 65 78  1  0
 65 66  1  0
 67 61  1  0
 67 66  1  0
 68 61  2  0
 71 69  1  0
 71 74  1  0
 72 70  1  0
 73 69  1  0
 73 58  1  0
 73 70  1  0
 74 72  1  0
 75 76  2  0
 76 95  1  0
 77 76  1  0
 77 80  1  0
 78 75  1  0
 78 79  1  0
 79 77  2  0
 80 81  1  0
 81 82  2  0
 83 86  1  0
 83 82  1  0
 84 83  2  0
 85 84  1  0
 85 80  2  0
 86 87  1  0
 87 88  1  0
 88 89  2  0
 90 89  1  0
 90 94  1  0
 91 90  2  0
 92 87  2  0
 92 91  1  0
 93 92  1  0
 95 96  1  0
 96 99  1  0
 96 98  1  0
 97 95  2  0
100101  1  0
100 75  1  0
102100  1  0
M  ISO  4   9 101  10 101  61 100  74 100
M  END
>  <TORSDO>  (3) 
F 23

>  <SCORE>  (3) 
-11.893

>  <name>  (3) 
2

>  <ligand_id>  (3) 
2

>  <original_smiles>  (3) 
[H]c1c([H])c([H])c2c(c1[H])C([H])([H])C([H])([H])C([H])([H])C2([H])N([H])C(=O)C1([H])N(C(=O)C([H])(N([H])C(=O)C([H])(N([H])C([H])([H])[H])C([H])([H])[H])C(C([H])([H])[H])(C([H])([H])[H])C([H])([H])[H])C([H])([H])c2c([H])c(OC([H])([H])C([H])(c3c([H])c(C([H])([H])[N+]([H])([H])[H])n(C([H])([H])C([H])([H])[N+]([H])([H])C4([H])C([H])([H])C([H])([H])N(C(=O)N5C([H])([H])C([H])([H])C([H])([H])C([H])(n6nc(-c7c([H])c([H])c(Oc8c([H])c([H])c(F)c([H])c8F)c([H])c7[H])c(C(=O)N([H])[H])c6N([H])[H])C5([H])[H])C([H])([H])C4([H])[H])c3C([H])([H])[H])C([H])([H])[H])c([H])c([H])c2C1([H])[H]

>  <smiles>  (3) 
[H]c1c([H])c([H])c2c(c1[H])C([H])([H])C([H])([H])C([H])([H])C2([H])N([H])C(=O)C1([H])N(C(=O)C([H])(N([H])C(=O)C([H])(N([H])C([H])([H])[H])C([H])([H])[H])C(C([H])([H])[H])(C([H])([H])[H])C([H])([H])[H])C([H])([H])c2c([H])c(OC([H])([H])C([H])(c3c([H])c(C([H])([H])[N+]([H])([H])[H])n(C([H])([H])C([H])([H])[N+]([H])([H])C4([H])C([H])([H])C([H])([H])N(C(=O)N5C([H])([H])C([H])([H])C([H])([H])C([H])(n6nc(-c7c([H])c([H])c(Oc8c([H])c([H])c(F)c([H])c8F)c([H])c7[H])c(C(=O)N([H])[H])c6N([H])[H])C5([H])[H])C([H])([H])C4([H])[H])c3C([H])([H])[H])C([H])([H])[H])c([H])c([H])c2C1([H])[H]

$$$$
3:0:0
     RDKit          3D

 90 98  0  0  1  0  0  0  0  0999 V2000
  -29.4590  -21.8360   19.5570 C   0  0  0  0  0  2  0  0  0  0  0  0
  -30.5900  -19.9910   22.5800 C   0  0  0  0  0  3  0  0  0  0  0  0
  -30.7740  -18.8830   21.7280 C   0  0  0  0  0  3  0  0  0  0  0  0
  -30.1550  -21.0250   21.8190 C   0  0  0  0  0  3  0  0  0  0  0  0
  -30.4380  -19.1980   20.4360 C   0  0  0  0  0  0  0  0  0  0  0  0
  -30.0220  -20.6630   20.4780 N   0  0  0  0  0  0  0  0  0  0  0  0
  -30.6190  -17.9620   19.3780 C   0  0  0  0  0  2  0  0  0  0  0  0
  -31.2770  -15.2560   19.6910 C   0  0  0  0  0  0  0  0  0  0  0  0
  -31.1470  -12.8240   18.9630 C   0  0  0  0  0  2  0  0  0  0  0  0
  -30.1570  -12.6830   17.7800 C   0  0  0  0  0  2  0  0  0  0  0  0
  -28.7150  -12.5100   18.2920 C   0  0  0  0  0  2  0  0  0  0  0  0
  -28.3620  -13.5200   19.4180 C   0  0  0  0  0  3  0  0  0  0  0  0
  -29.4700  -13.6130   20.4900 C   0  0  0  0  0  2  0  0  0  0  0  0
  -30.7060  -13.9850   19.7930 N   0  0  0  0  0  0  0  0  0  0  0  0
  -32.4500  -15.3090   19.3050 O   0  0  0  0  0  0  0  0  0  0  0  0
  -30.4800  -16.4340   19.8190 N   0  0  0  0  0  0  0  0  0  0  0  0
  -29.5520  -16.2230   20.1530 H   0  0  0  0  0  0  0  0  0  0  0  0
  -26.0790  -14.1770   20.3640 C   0  0  0  0  0  0  0  0  0  0  0  0
  -25.0050  -13.4380   20.7790 C   0  0  0  0  0  0  0  0  0  0  0  0
  -25.3890  -12.0700   20.6430 C   0  0  0  0  0  0  0  0  0  0  0  0
  -27.0500  -13.2620   20.0000 N   0  0  0  0  0  0  0  0  0  0  0  0
  -26.6500  -11.9840   20.2310 N   0  0  0  0  0  0  0  0  0  0  0  0
  -24.6070  -10.8390   20.8240 C   0  0  0  0  0  0  0  0  0  0  0  0
  -24.9420   -9.8910   21.8160 C   0  0  0  0  0  3  0  0  0  0  0  0
  -24.1630   -8.7260   21.9840 C   0  0  0  0  0  3  0  0  0  0  0  0
  -23.0350   -8.5010   21.1600 C   0  0  0  0  0  0  0  0  0  0  0  0
  -22.7190   -9.4370   20.1590 C   0  0  0  0  0  3  0  0  0  0  0  0
  -23.4970  -10.5940   19.9910 C   0  0  0  0  0  3  0  0  0  0  0  0
  -22.2370   -7.3850   21.2330 O   0  0  0  0  0  0  0  0  0  0  0  0
  -21.9320   -6.7960   22.4340 C   0  0  0  0  0  0  0  0  0  0  0  0
  -21.2730   -7.5020   23.4640 C   0  0  0  0  0  3  0  0  0  0  0  0
  -20.9170   -6.8400   24.6560 C   0  0  0  0  0  3  0  0  0  0  0  0
  -21.2090   -5.4720   24.8170 C   0  0  0  0  0  0  0  0  0  0  0  0
  -21.8610   -4.7660   23.7900 C   0  0  0  0  0  3  0  0  0  0  0  0
  -22.2170   -5.4250   22.6010 C   0  0  0  0  0  0  0  0  0  0  0  0
  -22.8270   -4.7360   21.6060 F   0  0  0  0  0  0  0  0  0  0  0  0
  -20.8600   -4.8330   25.9570 F   0  0  0  0  0  0  0  0  0  0  0  0
  -23.6610  -13.9740   21.1790 C   0  0  0  0  0  0  0  0  0  0  0  0
  -22.9740  -13.2920   22.0880 N   0  0  0  0  0  0  0  0  0  0  0  0
  -23.2340  -15.0330   20.7210 O   0  0  0  0  0  0  0  0  0  0  0  0
  -23.3350  -12.4360   22.4810 H   0  0  0  0  0  0  0  0  0  0  0  0
  -22.0740  -13.6330   22.3960 H   0  0  0  0  0  0  0  0  0  0  0  0
  -26.3020  -15.5450   20.2410 N   0  0  0  0  0  0  0  0  0  0  0  0
  -25.5700  -16.2230   20.4250 H   0  0  0  0  0  0  0  0  0  0  0  0
  -27.1240  -15.9590   19.8190 H   0  0  0  0  0  0  0  0  0  0  0  0
  -29.1060  -23.4250   20.1370 C   0  0  0  0  0  3  0  0  0  0  0  0
  -30.3190  -23.8880   20.7090 O   0  0  0  0  0  0  0  0  0  0  0  0
  -30.1570  -24.7750   21.0190 H   0  0  0  0  0  0  0  0  0  0  0  0
  -28.5120  -24.7680   19.2840 C   0  0  0  0  0  2  0  0  0  0  0  0
  -28.4520  -26.2740   19.7300 O   0  0  0  0  0  0  0  0  0  0  0  0
  -24.7330  -31.7240   22.9950 C   0  0  0  0  0  0  0  0  0  0  0  0
  -27.3430  -27.2040   19.6870 C   0  0  0  0  0  0  0  0  0  0  0  0
  -23.5150  -30.3520   21.3480 C   0  0  0  0  0  3  0  0  0  0  0  0
  -24.9560  -28.8790   19.8060 C   0  0  0  0  0  0  0  0  0  0  0  0
  -26.0490  -30.7080   21.0950 C   0  0  0  0  0  2  0  0  0  0  0  0
  -26.1420  -29.3410   20.3880 C   0  0  0  0  0  0  0  0  0  0  0  0
  -27.3290  -28.5180   20.3140 C   0  0  0  0  0  3  0  0  0  0  0  0
  -26.1250  -26.8470   19.0650 C   0  0  0  0  0  3  0  0  0  0  0  0
  -24.9620  -27.6490   19.1280 C   0  0  0  0  0  3  0  0  0  0  0  0
  -23.7030  -29.7320   19.9360 C   0  0  0  0  0  2  0  0  0  0  0  0
  -24.7880  -30.9490   21.8690 N   0  0  0  0  0  0  0  0  0  0  0  0
  -23.6600  -31.9530   23.5740 O   0  0  0  0  0  0  0  0  0  0  0  0
  -22.9040  -29.2910   22.2980 C   0  0  0  0  0  0  0  0  0  0  0  0
  -21.5810  -29.0710   22.2060 N   0  0  0  0  0  0  0  0  0  0  0  0
  -23.6250  -28.6670   23.0830 O   0  0  0  0  0  0  0  0  0  0  0  0
  -21.0500  -29.6320   21.5550 H   0  0  0  0  0  0  0  0  0  0  0  0
  -18.2740  -27.6940   22.7400 C   0  0  0  0  0  0  0  0  0  0  0  0
  -20.8200  -28.0750   22.9690 C   0  0  0  0  0  3  0  0  0  0  0  0
  -20.9810  -26.6630   22.3580 C   0  0  0  0  0  2  0  0  0  0  0  0
  -19.8780  -26.3110   21.3550 C   0  0  0  0  0  2  0  0  0  0  0  0
  -18.5040  -26.3710   22.0280 C   0  0  0  0  0  2  0  0  0  0  0  0
  -19.3600  -28.5010   23.1690 C   0  0  0  0  0  0  0  0  0  0  0  0
  -19.0890  -29.7350   23.7980 C   0  0  0  0  0  3  0  0  0  0  0  0
  -17.7630  -30.1620   24.0020 C   0  0  0  0  0  3  0  0  0  0  0  0
  -16.6910  -29.3520   23.5890 C   0  0  0  0  0  3  0  0  0  0  0  0
  -16.9480  -28.1200   22.9620 C   0  0  0  0  0  3  0  0  0  0  0  0
  -26.0140  -32.3790   23.6000 C   0  0  0  0  0  3  0  0  0  0  0  0
  -25.6510  -33.7240   24.0710 N   0  0  0  0  0  0  0  0  0  0  0  0
  -25.9060  -34.8620   23.4100 C   0  0  0  0  0  0  0  0  0  0  0  0
  -26.5380  -34.8880   22.3500 O   0  0  0  0  0  0  0  0  0  0  0  0
  -25.0800  -33.7720   24.9020 H   0  0  0  0  0  0  0  0  0  0  0  0
  -24.0890  -36.6010   23.2990 C   0  0  0  0  0  1  0  0  0  0  0  0
  -25.3790  -36.1750   24.0190 C   0  0  0  0  0  3  0  0  0  0  0  0
  -27.5030  -37.0820   24.8580 C   0  0  0  0  0  1  0  0  0  0  0  0
  -26.3600  -37.2820   23.9720 N   0  0  0  0  0  0  0  0  0  0  0  0
  -25.9180  -38.1640   24.2200 H   0  0  0  0  0  0  0  0  0  0  0  0
  -26.6430  -31.5370   24.7790 C   0  0  1  0  0  0  0  0  0  0  0  0
  -25.6260  -31.1420   25.8760 C   0  0  0  0  0  1  0  0  0  0  0  0
  -27.2810  -30.2350   24.2410 C   0  0  0  0  0  1  0  0  0  0  0  0
  -27.7820  -32.3410   25.4490 C   0  0  0  0  0  1  0  0  0  0  0  0
  1 46  1  0
  1  6  1  0
  3  2  1  0
  4  2  2  0
  5  6  1  0
  5  3  2  0
  6  4  1  0
  7 16  1  0
  7  5  1  0
  8 14  1  0
  8 16  1  0
  9 14  1  0
 10 11  1  0
 10  9  1  0
 12 11  1  0
 12 21  1  0
 12 13  1  0
 14 13  1  0
 15  8  2  0
 16 17  1  0
 18 19  2  0
 19 38  1  0
 20 19  1  0
 20 23  1  0
 21 22  1  0
 21 18  1  0
 22 20  2  0
 23 24  1  0
 24 25  2  0
 26 29  1  0
 26 25  1  0
 27 26  2  0
 28 27  1  0
 28 23  2  0
 29 30  1  0
 30 35  2  0
 30 31  1  0
 31 32  2  0
 32 33  1  0
 33 37  1  0
 34 33  2  0
 35 34  1  0
 36 35  1  0
 38 39  1  0
 39 42  1  0
 39 41  1  0
 40 38  2  0
 43 18  1  0
 43 44  1  0
 45 43  1  0
 46 49  1  0
 46 47  1  0
 47 48  1  0
 49 50  1  0
 51 62  2  0
 52 50  1  0
 52 57  1  0
 53 61  1  0
 53 63  1  0
 54 60  1  0
 54 56  1  0
 55 61  1  0
 56 55  1  0
 57 56  2  0
 58 59  1  0
 58 52  2  0
 59 54  2  0
 60 53  1  0
 61 51  1  0
 63 65  2  0
 64 63  1  0
 66 64  1  0
 67 76  2  0
 67 72  1  0
 68 64  1  0
 68 72  1  0
 69 68  1  0
 70 71  1  0
 70 69  1  0
 71 67  1  0
 72 73  2  0
 73 74  1  0
 75 74  2  0
 76 75  1  0
 77 51  1  0
 77 78  1  0
 77 87  1  0
 78 81  1  0
 79 83  1  0
 79 78  1  0
 80 79  2  0
 83 82  1  0
 85 83  1  0
 85 86  1  0
 85 84  1  0
 87 90  1  1
 87 88  1  0
 89 87  1  0
M  ISO  4   8 100  16 100  49 101  50 101
M  END
>  <TORSDO>  (4) 
F 21

>  <SCORE>  (4) 
-13.055

>  <name>  (4) 
3

>  <ligand_id>  (4) 
3

>  <original_smiles>  (4) 
[H]OC([H])(C([H])([H])Oc1c([H])c([H])c2c(c1[H])C([H])([H])N(C(=O)C([H])(N([H])C(=O)C([H])(N([H])C([H])([H])[H])C([H])([H])[H])C(C([H])([H])[H])(C([H])([H])[H])C([H])([H])[H])C([H])(C(=O)N([H])C1([H])c3c([H])c([H])c([H])c([H])c3C([H])([H])C([H])([H])C1([H])[H])C2([H])[H])C([H])([H])n1c([H])c([H])c([H])c1C([H])([H])N([H])C(=O)N1C([H])([H])C([H])([H])C([H])([H])C([H])(n2nc(-c3c([H])c([H])c(Oc4c([H])c([H])c(F)c([H])c4F)c([H])c3[H])c(C(=O)N([H])[H])c2N([H])[H])C1([H])[H]

>  <smiles>  (4) 
[H]OC([H])(C([H])([H])Oc1c([H])c([H])c2c(c1[H])C([H])([H])N(C(=O)C([H])(N([H])C(=O)C([H])(N([H])C([H])([H])[H])C([H])([H])[H])C(C([H])([H])[H])(C([H])([H])[H])C([H])([H])[H])C([H])(C(=O)N([H])C1([H])c3c([H])c([H])c([H])c([H])c3C([H])([H])C([H])([H])C1([H])[H])C2([H])[H])C([H])([H])n1c([H])c([H])c([H])c1C([H])([H])N([H])C(=O)N1C([H])([H])C([H])([H])C([H])([H])C([H])(n2nc(-c3c([H])c([H])c(Oc4c([H])c([H])c(F)c([H])c4F)c([H])c3[H])c(C(=O)N([H])[H])c2N([H])[H])C1([H])[H]

$$$$
4:0:0
     RDKit          3D

 91100  0  0  1  0  0  0  0  0999 V2000
  -28.0040  -19.8990   19.7010 C   0  0  0  0  0  3  0  0  0  0  0  0
  -27.2230  -20.9900   19.2510 C   0  0  0  0  0  0  0  0  0  0  0  0
  -27.5200  -22.3450   19.4940 C   0  0  0  0  0  0  0  0  0  0  0  0
  -29.1590  -20.1140   20.4770 C   0  0  0  0  0  0  0  0  0  0  0  0
  -28.6520  -22.7860   20.2110 C   0  0  0  0  0  0  0  0  0  0  0  0
  -25.9210  -20.8500   18.4980 C   0  0  0  0  0  2  0  0  0  0  0  0
  -26.4150  -23.2310   18.9730 C   0  0  0  0  0  2  0  0  0  0  0  0
  -25.5600  -22.2950   18.0990 C   0  0  0  0  0  2  0  0  0  0  0  0
  -29.4090  -21.5820   20.7090 N   0  0  0  0  0  0  0  0  0  0  0  0
  -30.2000  -24.8020   20.8870 C   0  0  0  0  0  1  0  0  0  0  0  0
  -28.7070  -24.5160   20.6720 C   0  0  0  0  0  3  0  0  0  0  0  0
  -28.3000  -26.0310   20.0430 O   0  0  0  0  0  0  0  0  0  0  0  0
  -24.6050  -31.9980   23.1890 C   0  0  0  0  0  0  0  0  0  0  0  0
  -27.2410  -27.0950   20.2050 C   0  0  0  0  0  0  0  0  0  0  0  0
  -23.4400  -30.5780   21.5550 C   0  0  0  0  0  3  0  0  0  0  0  0
  -24.9150  -28.9810   20.1480 C   0  0  0  0  0  0  0  0  0  0  0  0
  -26.0070  -30.8150   21.4150 C   0  0  0  0  0  2  0  0  0  0  0  0
  -26.1000  -29.3930   20.7760 C   0  0  0  0  0  0  0  0  0  0  0  0
  -27.2570  -28.4740   20.7750 C   0  0  0  0  0  3  0  0  0  0  0  0
  -26.0310  -26.8730   19.5090 C   0  0  0  0  0  3  0  0  0  0  0  0
  -24.9060  -27.7400   19.4970 C   0  0  0  0  0  3  0  0  0  0  0  0
  -23.6840  -29.8910   20.1840 C   0  0  0  0  0  2  0  0  0  0  0  0
  -24.7050  -31.1600   22.1050 N   0  0  0  0  0  0  0  0  0  0  0  0
  -23.5090  -32.2710   23.7070 O   0  0  0  0  0  0  0  0  0  0  0  0
  -22.7570  -29.5760   22.5220 C   0  0  0  0  0  0  0  0  0  0  0  0
  -21.4320  -29.3830   22.3930 N   0  0  0  0  0  0  0  0  0  0  0  0
  -23.4300  -28.9660   23.3590 O   0  0  0  0  0  0  0  0  0  0  0  0
  -20.9410  -29.9190   21.6900 H   0  0  0  0  0  0  0  0  0  0  0  0
  -18.0650  -28.1250   22.9200 C   0  0  0  0  0  0  0  0  0  0  0  0
  -20.6230  -28.4320   23.1640 C   0  0  0  0  0  3  0  0  0  0  0  0
  -20.7430  -27.0050   22.5820 C   0  0  0  0  0  2  0  0  0  0  0  0
  -19.6400  -26.6710   21.5740 C   0  0  0  0  0  2  0  0  0  0  0  0
  -18.2600  -26.7840   22.2290 C   0  0  0  0  0  2  0  0  0  0  0  0
  -19.1740  -28.9050   23.3430 C   0  0  0  0  0  0  0  0  0  0  0  0
  -18.9350  -30.1530   23.9550 C   0  0  0  0  0  3  0  0  0  0  0  0
  -17.6240  -30.6280   24.1410 C   0  0  0  0  0  3  0  0  0  0  0  0
  -16.5310  -29.8460   23.7310 C   0  0  0  0  0  3  0  0  0  0  0  0
  -16.7510  -28.5960   23.1280 C   0  0  0  0  0  3  0  0  0  0  0  0
  -25.8630  -32.6680   23.8220 C   0  0  0  0  0  3  0  0  0  0  0  0
  -25.5120  -34.0580   24.1650 N   0  0  0  0  0  0  0  0  0  0  0  0
  -25.8460  -35.1360   23.4410 C   0  0  0  0  0  0  0  0  0  0  0  0
  -26.5410  -35.0640   22.4250 O   0  0  0  0  0  0  0  0  0  0  0  0
  -24.8900  -34.1860   24.9490 H   0  0  0  0  0  0  0  0  0  0  0  0
  -24.0970  -36.9170   23.0980 C   0  0  0  0  0  1  0  0  0  0  0  0
  -25.3310  -36.5110   23.9190 C   0  0  0  0  0  3  0  0  0  0  0  0
  -27.4370  -37.4140   24.8060 C   0  0  0  0  0  1  0  0  0  0  0  0
  -26.3520  -37.5820   23.8420 N   0  0  0  0  0  0  0  0  0  0  0  0
  -25.9320  -38.4940   23.9950 H   0  0  0  0  0  0  0  0  0  0  0  0
  -26.3850  -31.9070   25.1030 C   0  0  1  0  0  0  0  0  0  0  0  0
  -25.2890  -31.6470   26.1630 C   0  0  0  0  0  1  0  0  0  0  0  0
  -27.0000  -30.5390   24.7270 C   0  0  0  0  0  1  0  0  0  0  0  0
  -27.5150  -32.7260   25.7720 C   0  0  0  0  0  1  0  0  0  0  0  0
  -30.0160  -18.6450   21.0070 C   0  0  0  0  0  2  0  0  0  0  0  0
  -30.4920  -15.6670   20.8720 C   0  0  0  0  0  0  0  0  0  0  0  0
  -30.5760  -13.2090   19.9590 C   0  0  0  0  0  2  0  0  0  0  0  0
  -29.7740  -12.9610   18.6550 C   0  0  0  0  0  2  0  0  0  0  0  0
  -28.2970  -12.6600   18.9680 C   0  0  0  0  0  2  0  0  0  0  0  0
  -27.7370  -13.6070   20.0570 C   0  0  0  0  0  3  0  0  0  0  0  0
  -28.6840  -13.7900   21.2630 C   0  0  0  0  0  2  0  0  0  0  0  0
  -29.9410  -14.3480   20.7350 N   0  0  0  0  0  0  0  0  0  0  0  0
  -31.7270  -15.6470   20.7640 O   0  0  0  0  0  0  0  0  0  0  0  0
  -29.7300  -16.9660   20.9410 N   0  0  0  0  0  0  0  0  0  0  0  0
  -28.7370  -16.7880   20.9590 H   0  0  0  0  0  0  0  0  0  0  0  0
  -25.3390  -14.1360   20.7190 C   0  0  0  0  0  0  0  0  0  0  0  0
  -24.2450  -13.3520   20.9480 C   0  0  0  0  0  0  0  0  0  0  0  0
  -24.6910  -12.0010   20.8170 C   0  0  0  0  0  0  0  0  0  0  0  0
  -26.3790  -13.2670   20.4570 N   0  0  0  0  0  0  0  0  0  0  0  0
  -25.9990  -11.9680   20.5850 N   0  0  0  0  0  0  0  0  0  0  0  0
  -23.9320  -10.7420   20.8390 C   0  0  0  0  0  0  0  0  0  0  0  0
  -24.3090   -9.6680   21.6720 C   0  0  0  0  0  3  0  0  0  0  0  0
  -23.5540   -8.4750   21.6930 C   0  0  0  0  0  3  0  0  0  0  0  0
  -22.4010   -8.3530   20.8800 C   0  0  0  0  0  0  0  0  0  0  0  0
  -22.0420   -9.4170   20.0350 C   0  0  0  0  0  3  0  0  0  0  0  0
  -22.7990  -10.6000   20.0130 C   0  0  0  0  0  3  0  0  0  0  0  0
  -21.6170   -7.2260   20.8190 O   0  0  0  0  0  0  0  0  0  0  0  0
  -21.5630   -6.3280   21.8530 C   0  0  0  0  0  0  0  0  0  0  0  0
  -21.1660   -6.7080   23.1540 C   0  0  0  0  0  3  0  0  0  0  0  0
  -21.0580   -5.7380   24.1710 C   0  0  0  0  0  3  0  0  0  0  0  0
  -21.3390   -4.3880   23.8900 C   0  0  0  0  0  0  0  0  0  0  0  0
  -21.7290   -4.0050   22.5950 C   0  0  0  0  0  3  0  0  0  0  0  0
  -21.8390   -4.9720   21.5790 C   0  0  0  0  0  0  0  0  0  0  0  0
  -22.1940   -4.5950   20.3280 F   0  0  0  0  0  0  0  0  0  0  0  0
  -21.2280   -3.4540   24.8640 F   0  0  0  0  0  0  0  0  0  0  0  0
  -22.8420  -13.8350   21.1690 C   0  0  0  0  0  0  0  0  0  0  0  0
  -22.0470  -13.0850   21.9240 N   0  0  0  0  0  0  0  0  0  0  0  0
  -22.4590  -14.9100   20.7130 O   0  0  0  0  0  0  0  0  0  0  0  0
  -22.3710  -12.2170   22.3200 H   0  0  0  0  0  0  0  0  0  0  0  0
  -21.1000  -13.3840   22.1100 H   0  0  0  0  0  0  0  0  0  0  0  0
  -25.5290  -15.5130   20.6820 N   0  0  0  0  0  0  0  0  0  0  0  0
  -24.7570  -16.1610   20.7970 H   0  0  0  0  0  0  0  0  0  0  0  0
  -26.3900  -15.9660   20.4040 H   0  0  0  0  0  0  0  0  0  0  0  0
  1  4  1  0
  2  3  1  0
  2  1  2  0
  3  5  2  0
  4  9  2  0
  4 53  1  0
  5 11  1  0
  5  9  1  0
  6  2  1  0
  7  3  1  0
  8  6  1  0
  8  7  1  0
 11 10  1  0
 12 14  1  0
 12 11  1  0
 13 24  2  0
 14 19  1  0
 15 23  1  0
 15 25  1  0
 16 22  1  0
 16 18  1  0
 17 23  1  0
 18 17  1  0
 19 18  2  0
 20 14  2  0
 21 20  1  0
 21 16  2  0
 22 15  1  0
 23 13  1  0
 25 27  2  0
 26 25  1  0
 28 26  1  0
 29 38  2  0
 29 34  1  0
 30 26  1  0
 30 34  1  0
 31 30  1  0
 32 33  1  0
 32 31  1  0
 33 29  1  0
 34 35  2  0
 35 36  1  0
 37 36  2  0
 38 37  1  0
 39 13  1  0
 39 40  1  0
 39 49  1  0
 40 43  1  0
 41 45  1  0
 41 40  1  0
 42 41  2  0
 45 44  1  0
 47 45  1  0
 47 48  1  0
 47 46  1  0
 49 52  1  1
 49 50  1  0
 51 49  1  0
 54 62  1  0
 55 60  1  0
 56 57  1  0
 56 55  1  0
 58 57  1  0
 58 67  1  0
 58 59  1  0
 60 54  1  0
 60 59  1  0
 61 54  2  0
 62 63  1  0
 62 53  1  0
 64 65  2  0
 65 84  1  0
 66 69  1  0
 66 65  1  0
 67 68  1  0
 67 64  1  0
 68 66  2  0
 69 70  1  0
 70 71  2  0
 72 71  1  0
 73 72  2  0
 74 73  1  0
 74 69  2  0
 75 72  1  0
 75 76  1  0
 76 77  1  0
 77 78  2  0
 79 78  1  0
 79 83  1  0
 80 79  2  0
 81 76  2  0
 81 80  1  0
 82 81  1  0
 84 85  1  0
 85 88  1  0
 85 87  1  0
 86 84  2  0
 89 64  1  0
 89 90  1  0
 91 89  1  0
M  ISO  4  11 101  12 101  54 100  62 100
M  END
>  <TORSDO>  (5) 
F 18

>  <SCORE>  (5) 
-16.038

>  <name>  (5) 
4

>  <ligand_id>  (5) 
4

>  <original_smiles>  (5) 
[H]c1c([H])c([H])c2c(c1[H])C([H])([H])C([H])([H])C([H])([H])C2([H])N([H])C(=O)C1([H])N(C(=O)C([H])(N([H])C(=O)C([H])(N([H])C([H])([H])[H])C([H])([H])[H])C(C([H])([H])[H])(C([H])([H])[H])C([H])([H])[H])C([H])([H])c2c([H])c(OC([H])(c3nc(C([H])([H])N([H])C(=O)N4C([H])([H])C([H])([H])C([H])([H])C([H])(n5nc(-c6c([H])c([H])c(Oc7c([H])c([H])c(F)c([H])c7F)c([H])c6[H])c(C(=O)N([H])[H])c5N([H])[H])C4([H])[H])c([H])c4c3C([H])([H])C([H])([H])C4([H])[H])C([H])([H])[H])c([H])c([H])c2C1([H])[H]

>  <smiles>  (5) 
[H]c1c([H])c([H])c2c(c1[H])C([H])([H])C([H])([H])C([H])([H])C2([H])N([H])C(=O)C1([H])N(C(=O)C([H])(N([H])C(=O)C([H])(N([H])C([H])([H])[H])C([H])([H])[H])C(C([H])([H])[H])(C([H])([H])[H])C([H])([H])[H])C([H])([H])c2c([H])c(OC([H])(c3nc(C([H])([H])N([H])C(=O)N4C([H])([H])C([H])([H])C([H])([H])C([H])(n5nc(-c6c([H])c([H])c(Oc7c([H])c([H])c(F)c([H])c7F)c([H])c6[H])c(C(=O)N([H])[H])c5N([H])[H])C4([H])[H])c([H])c4c3C([H])([H])C([H])([H])C4([H])[H])C([H])([H])[H])c([H])c([H])c2C1([H])[H]

$$$$
5:0:0
     RDKit          3D

 99 95  0  0  1  0  0  0  0  0999 V2000
  -23.5290  -24.2750   22.3950 C   0  0  0  0  0  1  0  0  0  0  0  0
  -21.2710  -29.5170   21.4880 C   0  0  0  0  0  1  0  0  0  0  0  0
  -20.0900  -29.2630   22.4130 C   0  0  0  0  0  1  0  0  0  0  0  0
  -22.4340  -27.8330   21.0270 C   0  0  0  0  0  1  0  0  0  0  0  0
  -20.1790  -26.6690   23.0500 C   0  0  0  0  0 15  0  0  0  0  0  0
  -22.5080  -26.4310   21.3780 C   0  0  0  0  0  2  0  0  0  0  0  0
  -21.7980  -25.7030   22.3910 C   0  0  0  0  0  1  0  0  0  0  0  0
  -25.2580  -22.8620   21.5950 C   0  0  0  0  0 15  0  0  0  0  0  0
  -26.9870  -21.8080   20.4200 C   0  0  0  0  0  1  0  0  0  0  0  0
  -26.3230  -21.5420   19.1300 N   0  0  0  0  0  4  0  0  0  0  0  0
  -25.7030  -20.7540   19.2240 H   0  0  0  0  0  0  0  0  0  0  0  0
  -27.0020  -21.3220   18.4210 H   0  0  0  0  0  0  0  0  0  0  0  0
  -25.7930  -22.3320   18.8090 H   0  0  0  0  0  0  0  0  0  0  0  0
  -28.7670  -20.3090   20.2540 C   0  0  0  0  0 15  0  0  0  0  0  0
  -30.9260  -17.2320   19.5070 C   0  0  0  0  0  0  0  0  0  0  0  0
  -31.8970  -14.6020   18.7250 C   0  0  0  0  0  2  0  0  0  0  0  0
  -31.1910  -13.6850   17.6330 C   0  0  0  0  0  2  0  0  0  0  0  0
  -29.8210  -13.1880   18.1240 C   0  0  0  0  0  2  0  0  0  0  0  0
  -29.2300  -14.3080   18.9920 C   0  0  0  0  0  3  0  0  0  0  0  0
  -30.1150  -14.7860   20.1390 C   0  0  0  0  0  2  0  0  0  0  0  0
  -30.9760  -15.7050   19.4510 N   0  0  0  0  0  0  0  0  0  0  0  0
  -32.1540  -17.3500   19.1230 O   0  0  0  0  0  0  0  0  0  0  0  0
  -29.7050  -18.4810   19.8320 N   0  0  0  0  0  2  0  0  0  0  0  0
  -30.3480  -19.0260   19.2690 H   0  0  0  0  0  0  0  0  0  0  0  0
  -27.0860  -15.0470   19.9650 C   0  0  0  0  0  0  0  0  0  0  0  0
  -26.0170  -14.3600   20.4400 C   0  0  0  0  0  0  0  0  0  0  0  0
  -26.3490  -12.9750   20.3180 C   0  0  0  0  0  0  0  0  0  0  0  0
  -27.9570  -14.0710   19.5470 N   0  0  0  0  0  0  0  0  0  0  0  0
  -27.5670  -12.8150   19.8340 N   0  0  0  0  0  0  0  0  0  0  0  0
  -25.5480  -11.7840   20.5610 C   0  0  0  0  0  0  0  0  0  0  0  0
  -25.9060  -10.8380   21.5440 C   0  0  0  0  0  3  0  0  0  0  0  0
  -25.0980   -9.7030   21.7580 C   0  0  0  0  0  3  0  0  0  0  0  0
  -23.9260   -9.5150   20.9850 C   0  0  0  0  0  0  0  0  0  0  0  0
  -23.5950  -10.4490   19.9890 C   0  0  0  0  0  3  0  0  0  0  0  0
  -24.4010  -11.5740   19.7740 C   0  0  0  0  0  3  0  0  0  0  0  0
  -23.0910   -8.4340   21.1060 O   0  0  0  0  0  0  0  0  0  0  0  0
  -22.6480   -8.0060   22.3300 C   0  0  0  0  0  0  0  0  0  0  0  0
  -21.9480   -8.8580   23.2100 C   0  0  0  0  0  3  0  0  0  0  0  0
  -21.4530   -8.3540   24.4290 C   0  0  0  0  0  3  0  0  0  0  0  0
  -21.6460   -7.0000   24.7620 C   0  0  0  0  0  0  0  0  0  0  0  0
  -22.3390   -6.1490   23.8820 C   0  0  0  0  0  3  0  0  0  0  0  0
  -22.8370   -6.6510   22.6680 C   0  0  0  0  0  0  0  0  0  0  0  0
  -23.4860   -5.8250   21.8130 F   0  0  0  0  0  0  0  0  0  0  0  0
  -21.1600   -6.5120   25.9280 F   0  0  0  0  0  0  0  0  0  0  0  0
  -24.7290  -14.9660   20.8870 C   0  0  0  0  0  0  0  0  0  0  0  0
  -24.0760  -14.3470   21.8600 N   0  0  0  0  0  0  0  0  0  0  0  0
  -24.3260  -16.0260   20.4070 O   0  0  0  0  0  0  0  0  0  0  0  0
  -24.4250  -13.4890   22.2580 H   0  0  0  0  0  0  0  0  0  0  0  0
  -23.2120  -14.7330   22.2140 H   0  0  0  0  0  0  0  0  0  0  0  0
  -27.3840  -16.4040   19.8410 N   0  0  0  0  0  0  0  0  0  0  0  0
  -26.7160  -17.1200   20.0940 H   0  0  0  0  0  0  0  0  0  0  0  0
  -28.2540  -16.7910   19.4990 H   0  0  0  0  0  0  0  0  0  0  0  0
  -24.5320  -24.8780   23.5310 C   0  0  0  0  0  2  0  0  0  0  0  0
  -25.9610  -25.3290   23.1620 N   0  0  0  0  0  4  0  0  0  0  0  0
  -25.9300  -25.4870   22.1680 H   0  0  0  0  0  0  0  0  0  0  0  0
  -26.1160  -26.2300   23.5870 H   0  0  0  0  0  0  0  0  0  0  0  0
  -27.2100  -24.4430   23.3940 C   0  0  0  0  0  2  0  0  0  0  0  0
  -28.4400  -24.8410   24.3780 C   0  0  0  0  0  2  0  0  0  0  0  0
  -29.8980  -24.9400   23.9870 O   0  0  0  0  0  0  0  0  0  0  0  0
  -26.1920  -30.5030   22.7120 C   0  0  0  0  0  0  0  0  0  0  0  0
  -30.0230  -25.9840   23.1350 C   0  0  0  0  0  0  0  0  0  0  0  0
  -27.1440  -29.3500   20.8120 C   0  0  0  0  0  3  0  0  0  0  0  0
  -29.0820  -27.7430   21.2080 C   0  0  0  0  0  0  0  0  0  0  0  0
  -28.4880  -29.4890   22.9240 C   0  0  0  0  0  2  0  0  0  0  0  0
  -29.0950  -28.1440   22.5530 C   0  0  0  0  0  0  0  0  0  0  0  0
  -29.6060  -27.2720   23.5290 C   0  0  0  0  0  3  0  0  0  0  0  0
  -30.1310  -25.6350   21.7830 C   0  0  0  0  0  3  0  0  0  0  0  0
  -29.6370  -26.5110   20.8090 C   0  0  0  0  0  3  0  0  0  0  0  0
  -28.4550  -28.7190   20.2550 C   0  0  0  0  0  2  0  0  0  0  0  0
  -27.2390  -29.8050   22.2000 N   0  0  0  0  0  0  0  0  0  0  0  0
  -25.1840  -30.7790   22.0320 O   0  0  0  0  0  0  0  0  0  0  0  0
  -26.0220  -28.3540   20.7170 C   0  0  0  0  0  0  0  0  0  0  0  0
  -25.9850  -27.8980   19.5060 N   0  0  0  0  0  0  0  0  0  0  0  0
  -25.3860  -27.8960   21.6820 O   0  0  0  0  0  0  0  0  0  0  0  0
  -26.4890  -28.3830   18.7760 H   0  0  0  0  0  0  0  0  0  0  0  0
  -24.6780  -24.1210   16.9880 C   0  0  0  0  0  2  0  0  0  0  0  0
  -26.0990  -26.5310   19.5620 C   0  0  0  0  0  2  0  0  0  0  0  0
  -27.8360  -25.8550   18.9160 C   0  0  0  0  0 15  0  0  0  0  0  0
  -28.0320  -24.4010   17.3860 C   0  0  0  0  0 15  0  0  0  0  0  0
  -26.3790  -23.5790   16.4710 C   0  0  0  0  0  1  0  0  0  0  0  0
  -24.6180  -26.0500   18.8860 C   0  0  0  0  0  2  0  0  0  0  0  0
  -23.4580  -27.2700   18.3340 C   0  0  0  0  0  2  0  0  0  0  0  0
  -22.6380  -27.1850   16.8630 C   0  0  0  0  0  3  0  0  0  0  0  0
  -22.7080  -25.9990   15.7070 C   0  0  0  0  0  3  0  0  0  0  0  0
  -23.5940  -24.5800   15.7210 C   0  0  0  0  0  2  0  0  0  0  0  0
  -26.2240  -31.0130   24.1680 C   0  0  0  0  0  3  0  0  0  0  0  0
  -24.9890  -30.5390   25.0180 C   0  0  1  0  0  0  0  0  0  0  0  0
  -23.6200  -30.8250   24.3590 C   0  0  0  0  0  1  0  0  0  0  0  0
  -25.0760  -29.0210   25.2990 C   0  0  0  0  0  1  0  0  0  0  0  0
  -25.0210  -31.2550   26.3880 C   0  0  0  0  0  1  0  0  0  0  0  0
  -26.2890  -32.4710   24.0840 N   0  0  0  0  0  0  0  0  0  0  0  0
  -27.4240  -33.1710   24.1730 C   0  0  0  0  0  0  0  0  0  0  0  0
  -28.5130  -32.6510   24.4290 O   0  0  0  0  0  0  0  0  0  0  0  0
  -25.4430  -32.9520   23.8190 H   0  0  0  0  0  0  0  0  0  0  0  0
  -27.6690  -35.0340   22.5020 C   0  0  0  0  0  1  0  0  0  0  0  0
  -27.3310  -34.6920   23.9610 C   0  0  0  0  0  3  0  0  0  0  0  0
  -27.8520  -35.2940   26.2810 C   0  0  0  0  0  1  0  0  0  0  0  0
  -28.2010  -35.4620   24.8720 N   0  0  0  0  0  0  0  0  0  0  0  0
  -28.1630  -36.4540   24.6540 H   0  0  0  0  0  0  0  0  0  0  0  0
  1 53  1  0
  2  3  1  0
  4  6  1  0
  6  7  1  0
 10 11  1  0
 10  9  1  0
 12 10  1  0
 13 10  1  0
 15 23  1  0
 16 21  1  0
 17 18  1  0
 17 16  1  0
 19 18  1  0
 19 28  1  0
 19 20  1  0
 21 15  1  0
 21 20  1  0
 22 15  2  0
 24 23  1  0
 25 26  2  0
 26 45  1  0
 27 26  1  0
 27 30  1  0
 28 29  1  0
 28 25  1  0
 29 27  2  0
 30 31  1  0
 31 32  2  0
 33 36  1  0
 33 32  1  0
 34 33  2  0
 35 34  1  0
 35 30  2  0
 36 37  1  0
 37 42  2  0
 37 38  1  0
 38 39  2  0
 39 40  1  0
 40 44  1  0
 41 40  2  0
 42 41  1  0
 43 42  1  0
 45 46  1  0
 46 49  1  0
 46 48  1  0
 47 45  2  0
 50 25  1  0
 50 51  1  0
 52 50  1  0
 54 57  1  0
 54 53  1  0
 54 56  1  0
 55 54  1  0
 57 58  1  0
 59 58  1  0
 61 66  1  0
 61 59  1  0
 62 72  1  0
 62 70  1  0
 63 65  1  0
 65 64  1  0
 65 66  2  0
 67 61  2  0
 68 63  2  0
 68 67  1  0
 69 62  1  0
 69 63  1  0
 70 60  1  0
 70 64  1  0
 71 60  2  0
 72 74  2  0
 73 77  1  0
 73 72  1  0
 75 73  1  0
 80 76  1  0
 81 77  1  0
 82 81  1  0
 83 82  1  0
 84 85  1  0
 84 83  2  0
 85 76  1  0
 86 60  1  0
 86 87  1  0
 87 89  1  1
 87 90  1  0
 88 87  1  0
 91 86  1  0
 91 92  1  0
 92 93  2  0
 94 91  1  0
 96 95  1  0
 96 92  1  0
 96 98  1  0
 98 97  1  0
 99 98  1  0
M  ISO  4  15 100  23 100  58 101  59 101
M  END
>  <TORSDO>  (6) 
F 25

>  <SCORE>  (6) 
-1.316

>  <name>  (6) 
5

>  <ligand_id>  (6) 
5

>  <original_smiles>  (6) 
[H]c1c([H])c([H])c(C([H])(C([H])([H])C([H])(C([H])([H])N([H])C(=O)N2C([H])([H])C([H])([H])C([H])([H])C([H])(n3nc(-c4c([H])c([H])c(Oc5c([H])c([H])c(F)c([H])c5F)c([H])c4[H])c(C(=O)N([H])[H])c3N([H])[H])C2([H])[H])[N+]([H])([H])[H])C([H])([H])[N+]([H])([H])C([H])([H])C([H])([H])Oc2c([H])c([H])c3c(c2[H])C([H])([H])N(C(=O)C([H])(N([H])C(=O)C([H])(N([H])C([H])([H])[H])C([H])([H])[H])C(C([H])([H])[H])(C([H])([H])[H])C([H])([H])[H])C([H])(C(=O)N([H])C2([H])c4c([H])c([H])c([H])c([H])c4C([H])([H])C([H])([H])C2([H])[H])C3([H])[H])c([H])c1[H]

>  <smiles>  (6) 
[H]c1c([H])c([H])c(C([H])(C([H])([H])C([H])(C([H])([H])N([H])C(=O)N2C([H])([H])C([H])([H])C([H])([H])C([H])(n3nc(-c4c([H])c([H])c(Oc5c([H])c([H])c(F)c([H])c5F)c([H])c4[H])c(C(=O)N([H])[H])c3N([H])[H])C2([H])[H])[N+]([H])([H])[H])C([H])([H])[N+]([H])([H])C([H])([H])C([H])([H])Oc2c([H])c([H])c3c(c2[H])C([H])([H])N(C(=O)C([H])(N([H])C(=O)C([H])(N([H])C([H])([H])[H])C([H])([H])[H])C(C([H])([H])[H])(C([H])([H])[H])C([H])([H])[H])C([H])(C(=O)N([H])C2([H])c4c([H])c([H])c([H])c([H])c4C([H])([H])C([H])([H])C2([H])[H])C3([H])[H])c([H])c1[H]

$$$$
6:0:0
     RDKit          3D

100108  0  0  1  0  0  0  0  0999 V2000
  -28.8940  -20.1520   21.5670 N   0  0  0  0  0  4  0  0  0  0  0  0
  -28.0430  -20.5840   21.2470 H   0  0  0  0  0  0  0  0  0  0  0  0
  -29.3970  -19.8350   20.7560 H   0  0  0  0  0  0  0  0  0  0  0  0
  -26.0990  -19.2020   22.5950 C   0  0  0  0  0  2  0  0  0  0  0  0
  -26.4360  -18.3840   21.3440 C   0  0  0  0  0  2  0  0  0  0  0  0
  -27.4080  -19.3110   23.3880 C   0  0  0  0  0  2  0  0  0  0  0  0
  -27.8800  -17.8690   21.5260 C   0  0  0  0  0  3  0  0  0  0  0  0
  -28.5330  -18.9700   22.3930 C   0  0  0  0  0  3  0  0  0  0  0  0
  -28.6070  -17.5420   20.1970 C   0  0  0  0  0  3  0  0  0  0  0  0
  -30.8330  -17.2070   19.0730 C   0  0  0  0  0  1  0  0  0  0  0  0
  -30.0130  -16.8990   20.3470 C   0  0  0  0  0  3  0  0  0  0  0  0
  -30.6790  -14.4410   20.4970 C   0  0  0  0  0  0  0  0  0  0  0  0
  -30.4190  -12.2640   19.4140 C   0  0  0  0  0  2  0  0  0  0  0  0
  -29.4920  -12.4840   18.1990 C   0  0  0  0  0  2  0  0  0  0  0  0
  -28.0080  -12.3580   18.6060 C   0  0  0  0  0  2  0  0  0  0  0  0
  -27.6600  -13.1820   19.8730 C   0  0  0  0  0  3  0  0  0  0  0  0
  -28.7080  -12.9670   20.9910 C   0  0  0  0  0  2  0  0  0  0  0  0
  -30.0380  -13.2500   20.4270 N   0  0  0  0  0  0  0  0  0  0  0  0
  -31.8620  -14.6020   20.1990 O   0  0  0  0  0  0  0  0  0  0  0  0
  -29.8340  -15.4710   20.6320 N   0  0  0  0  0  0  0  0  0  0  0  0
  -28.8670  -15.2060   20.7570 H   0  0  0  0  0  0  0  0  0  0  0  0
  -25.2640  -13.8030   20.5680 C   0  0  0  0  0  0  0  0  0  0  0  0
  -24.1860  -13.0380   20.9200 C   0  0  0  0  0  0  0  0  0  0  0  0
  -24.6380  -11.6850   20.8780 C   0  0  0  0  0  0  0  0  0  0  0  0
  -26.3020  -12.9150   20.3380 N   0  0  0  0  0  0  0  0  0  0  0  0
  -25.9300  -11.6350   20.5800 N   0  0  0  0  0  0  0  0  0  0  0  0
  -23.9040  -10.4270   21.0430 C   0  0  0  0  0  0  0  0  0  0  0  0
  -24.3600   -9.4180   21.9190 C   0  0  0  0  0  3  0  0  0  0  0  0
  -23.6270   -8.2230   22.0740 C   0  0  0  0  0  3  0  0  0  0  0  0
  -22.4250   -8.0290   21.3540 C   0  0  0  0  0  0  0  0  0  0  0  0
  -21.9900   -9.0270   20.4630 C   0  0  0  0  0  3  0  0  0  0  0  0
  -22.7240  -10.2130   20.3040 C   0  0  0  0  0  3  0  0  0  0  0  0
  -21.6620   -6.8890   21.4230 O   0  0  0  0  0  0  0  0  0  0  0  0
  -21.6850   -6.0750   22.5280 C   0  0  0  0  0  0  0  0  0  0  0  0
  -21.3990   -6.5640   23.8200 C   0  0  0  0  0  3  0  0  0  0  0  0
  -21.3640   -5.6790   24.9160 C   0  0  0  0  0  3  0  0  0  0  0  0
  -21.6020   -4.3060   24.7210 C   0  0  0  0  0  0  0  0  0  0  0  0
  -21.8850   -3.8160   23.4330 C   0  0  0  0  0  3  0  0  0  0  0  0
  -21.9200   -4.6990   22.3400 C   0  0  0  0  0  0  0  0  0  0  0  0
  -22.1670   -4.2180   21.0980 F   0  0  0  0  0  0  0  0  0  0  0  0
  -21.5610   -3.4540   25.7710 F   0  0  0  0  0  0  0  0  0  0  0  0
  -22.7880  -13.5240   21.1850 C   0  0  0  0  0  0  0  0  0  0  0  0
  -22.0450  -12.8210   22.0290 N   0  0  0  0  0  0  0  0  0  0  0  0
  -22.3650  -14.5620   20.6750 O   0  0  0  0  0  0  0  0  0  0  0  0
  -22.3970  -11.9780   22.4580 H   0  0  0  0  0  0  0  0  0  0  0  0
  -21.1030  -13.1210   22.2420 H   0  0  0  0  0  0  0  0  0  0  0  0
  -25.4450  -15.1670   20.4060 N   0  0  0  0  0  0  0  0  0  0  0  0
  -24.7100  -15.8370   20.5980 H   0  0  0  0  0  0  0  0  0  0  0  0
  -26.3080  -15.6180   20.0880 H   0  0  0  0  0  0  0  0  0  0  0  0
  -27.7940  -16.6750   19.4230 O   0  0  0  0  0  0  0  0  0  0  0  0
  -28.2150  -16.5640   18.5780 H   0  0  0  0  0  0  0  0  0  0  0  0
  -29.7350  -21.1840   22.1980 C   0  0  0  0  0  2  0  0  0  0  0  0
  -30.1410  -22.5520   20.0400 C   0  0  0  0  0  1  0  0  0  0  0  0
  -29.5460  -22.5280   21.4620 C   0  0  0  0  0  3  0  0  0  0  0  0
  -30.1320  -23.6040   22.2580 N   0  0  0  0  0  0  0  0  0  0  0  0
  -30.0430  -23.3700   23.2450 H   0  0  0  0  0  0  0  0  0  0  0  0
  -29.4460  -24.8730   22.0390 C   0  0  0  0  0  2  0  0  0  0  0  0
  -30.3080  -25.8470   21.2220 C   0  0  0  0  0  2  0  0  0  0  0  0
  -29.5190  -27.1120   20.8750 C   0  0  0  0  0  2  0  0  0  0  0  0
  -28.4150  -26.7390   20.0450 O   0  0  0  0  0  0  0  0  0  0  0  0
  -24.6080  -31.8710   23.2140 C   0  0  0  0  0  0  0  0  0  0  0  0
  -27.2690  -27.5000   20.0990 C   0  0  0  0  0  0  0  0  0  0  0  0
  -23.3950  -30.4910   21.5510 C   0  0  0  0  0  3  0  0  0  0  0  0
  -24.8480  -28.9600   20.1220 C   0  0  0  0  0  0  0  0  0  0  0  0
  -25.9150  -30.8620   21.3550 C   0  0  0  0  0  2  0  0  0  0  0  0
  -25.9990  -29.4980   20.7080 C   0  0  0  0  0  0  0  0  0  0  0  0
  -27.2090  -28.7840   20.6890 C   0  0  0  0  0  3  0  0  0  0  0  0
  -26.1000  -26.9630   19.5190 C   0  0  0  0  0  3  0  0  0  0  0  0
  -24.8890  -27.6860   19.5270 C   0  0  0  0  0  3  0  0  0  0  0  0
  -23.6050  -29.8170   20.1670 C   0  0  0  0  0  2  0  0  0  0  0  0
  -24.6560  -31.0880   22.0990 N   0  0  0  0  0  0  0  0  0  0  0  0
  -23.5290  -32.1410   23.7580 O   0  0  0  0  0  0  0  0  0  0  0  0
  -22.7380  -29.4670   22.5020 C   0  0  0  0  0  0  0  0  0  0  0  0
  -21.4120  -29.3040   22.3760 N   0  0  0  0  0  0  0  0  0  0  0  0
  -23.4190  -28.8200   23.3020 O   0  0  0  0  0  0  0  0  0  0  0  0
  -20.9270  -29.8800   21.7020 H   0  0  0  0  0  0  0  0  0  0  0  0
  -18.0260  -28.1410   22.8490 C   0  0  0  0  0  0  0  0  0  0  0  0
  -20.5850  -28.3670   23.1350 C   0  0  0  0  0  3  0  0  0  0  0  0
  -20.6750  -26.9410   22.5440 C   0  0  0  0  0  2  0  0  0  0  0  0
  -19.5730  -26.6400   21.5240 C   0  0  0  0  0  2  0  0  0  0  0  0
  -18.1900  -26.7970   22.1620 C   0  0  0  0  0  2  0  0  0  0  0  0
  -19.1510  -28.8860   23.2920 C   0  0  0  0  0  0  0  0  0  0  0  0
  -18.9450  -30.1460   23.8950 C   0  0  0  0  0  3  0  0  0  0  0  0
  -17.6450  -30.6610   24.0590 C   0  0  0  0  0  3  0  0  0  0  0  0
  -16.5340  -29.9130   23.6330 C   0  0  0  0  0  3  0  0  0  0  0  0
  -16.7260  -28.6550   23.0340 C   0  0  0  0  0  3  0  0  0  0  0  0
  -25.9000  -32.4840   23.8420 C   0  0  0  0  0  3  0  0  0  0  0  0
  -26.4470  -31.6610   25.0730 C   0  0  1  0  0  0  0  0  0  0  0  0
  -25.3750  -31.3700   26.1480 C   0  0  0  0  0  1  0  0  0  0  0  0
  -27.0300  -30.3070   24.6060 C   0  0  0  0  0  1  0  0  0  0  0  0
  -27.6050  -32.4320   25.7480 C   0  0  0  0  0  1  0  0  0  0  0  0
  -25.5870  -33.8630   24.2350 N   0  0  0  0  0  0  0  0  0  0  0  0
  -25.9020  -34.9470   23.5150 C   0  0  0  0  0  0  0  0  0  0  0  0
  -26.5580  -34.8920   22.4720 O   0  0  0  0  0  0  0  0  0  0  0  0
  -25.0020  -33.9800   25.0490 H   0  0  0  0  0  0  0  0  0  0  0  0
  -24.1480  -36.7310   23.2640 C   0  0  0  0  0  1  0  0  0  0  0  0
  -25.4100  -36.3110   24.0360 C   0  0  0  0  0  3  0  0  0  0  0  0
  -27.5590  -37.1790   24.8450 C   0  0  0  0  0  1  0  0  0  0  0  0
  -26.4280  -37.3800   23.9430 N   0  0  0  0  0  0  0  0  0  0  0  0
  -26.0170  -38.2870   24.1480 H   0  0  0  0  0  0  0  0  0  0  0  0
  1 52  1  0
  2  1  1  0
  3  1  1  0
  4  6  1  0
  5  7  1  0
  5  4  1  0
  7  9  1  0
  7  8  1  0
  8  1  1  0
  8  6  1  0
  9 50  1  0
  9 11  1  0
 11 10  1  0
 11 20  1  0
 12 20  1  0
 13 18  1  0
 14 15  1  0
 14 13  1  0
 16 15  1  0
 16 25  1  0
 16 17  1  0
 18 12  1  0
 18 17  1  0
 19 12  2  0
 20 21  1  0
 22 23  2  0
 23 42  1  0
 24 23  1  0
 24 27  1  0
 25 22  1  0
 25 26  1  0
 26 24  2  0
 27 28  1  0
 28 29  2  0
 30 33  1  0
 30 29  1  0
 31 30  2  0
 32 31  1  0
 32 27  2  0
 33 34  1  0
 34 35  1  0
 35 36  2  0
 37 36  1  0
 37 41  1  0
 38 37  2  0
 39 34  2  0
 39 38  1  0
 40 39  1  0
 42 43  1  0
 43 46  1  0
 43 45  1  0
 44 42  2  0
 47 22  1  0
 47 48  1  0
 49 47  1  0
 51 50  1  0
 54 53  1  0
 54 52  1  0
 54 55  1  0
 55 56  1  0
 57 55  1  0
 58 57  1  0
 59 58  1  0
 60 62  1  0
 60 59  1  0
 61 72  2  0
 62 67  1  0
 63 71  1  0
 63 73  1  0
 64 70  1  0
 64 66  1  0
 65 71  1  0
 66 65  1  0
 67 66  2  0
 68 69  1  0
 68 62  2  0
 69 64  2  0
 70 63  1  0
 71 61  1  0
 73 75  2  0
 74 73  1  0
 76 74  1  0
 77 86  2  0
 77 82  1  0
 78 74  1  0
 78 82  1  0
 79 78  1  0
 80 81  1  0
 80 79  1  0
 81 77  1  0
 82 83  2  0
 83 84  1  0
 85 84  2  0
 86 85  1  0
 87 61  1  0
 87 92  1  0
 87 88  1  0
 88 91  1  1
 88 89  1  0
 90 88  1  0
 92 95  1  0
 93 97  1  0
 93 92  1  0
 94 93  2  0
 97 96  1  0
 99 97  1  0
 99100  1  0
 99 98  1  0
M  ISO  4  12 100  20 100  59 101  60 101
M  END
>  <TORSDO>  (7) 
F 26

>  <SCORE>  (7) 
13.183

>  <name>  (7) 
6

>  <ligand_id>  (7) 
6

>  <original_smiles>  (7) 
[H]OC([H])(C([H])(N([H])C(=O)N1C([H])([H])C([H])([H])C([H])([H])C([H])(n2nc(-c3c([H])c([H])c(Oc4c([H])c([H])c(F)c([H])c4F)c([H])c3[H])c(C(=O)N([H])[H])c2N([H])[H])C1([H])[H])C([H])([H])[H])C1([H])C([H])([H])C([H])([H])C([H])([H])C1([H])[N+]([H])([H])C([H])([H])C([H])(N([H])C([H])([H])C([H])([H])C([H])([H])Oc1c([H])c([H])c2c(c1[H])C([H])([H])N(C(=O)C([H])(N([H])C(=O)C([H])(N([H])C([H])([H])[H])C([H])([H])[H])C(C([H])([H])[H])(C([H])([H])[H])C([H])([H])[H])C([H])(C(=O)N([H])C1([H])c3c([H])c([H])c([H])c([H])c3C([H])([H])C([H])([H])C1([H])[H])C2([H])[H])C([H])([H])[H]

>  <smiles>  (7) 
[H]OC([H])(C([H])(N([H])C(=O)N1C([H])([H])C([H])([H])C([H])([H])C([H])(n2nc(-c3c([H])c([H])c(Oc4c([H])c([H])c(F)c([H])c4F)c([H])c3[H])c(C(=O)N([H])[H])c2N([H])[H])C1([H])[H])C([H])([H])[H])C1([H])C([H])([H])C([H])([H])C([H])([H])C1([H])[N+]([H])([H])C([H])([H])C([H])(N([H])C([H])([H])C([H])([H])C([H])([H])Oc1c([H])c([H])c2c(c1[H])C([H])([H])N(C(=O)C([H])(N([H])C(=O)C([H])(N([H])C([H])([H])[H])C([H])([H])[H])C(C([H])([H])[H])(C([H])([H])[H])C([H])([H])[H])C([H])(C(=O)N([H])C1([H])c3c([H])c([H])c([H])c([H])c3C([H])([H])C([H])([H])C1([H])[H])C2([H])[H])C([H])([H])[H]

$$$$
7:0:0
     RDKit          3D

 91 99  0  0  1  0  0  0  0  0999 V2000
  -30.2520  -23.4300   20.0210 C   0  0  0  0  0  2  0  0  0  0  0  0
  -27.8390  -22.8180   19.9380 C   0  0  0  0  0  2  0  0  0  0  0  0
  -30.5600  -22.0650   20.7090 C   0  0  0  0  0  2  0  0  0  0  0  0
  -28.1610  -21.4430   20.6240 C   0  0  0  0  0  2  0  0  0  0  0  0
  -28.8220  -23.9850   20.2720 C   0  0  0  0  0  3  0  0  0  0  0  0
  -29.5910  -20.9080   20.3230 C   0  0  0  0  0  3  0  0  0  0  0  0
  -29.9700  -19.6270   21.0370 N   0  0  0  0  0  4  0  0  0  0  0  0
  -29.7220  -19.7080   22.0100 H   0  0  0  0  0  0  0  0  0  0  0  0
  -30.9760  -19.5890   21.0020 H   0  0  0  0  0  0  0  0  0  0  0  0
  -29.5080  -18.2800   20.5340 C   0  0  0  0  0  2  0  0  0  0  0  0
  -30.3250  -17.0670   21.1500 C   0  0  0  0  0  2  0  0  0  0  0  0
  -30.5980  -14.5980   20.4760 C   0  0  0  0  0  0  0  0  0  0  0  0
  -30.3490  -12.3910   19.3720 C   0  0  0  0  0  2  0  0  0  0  0  0
  -29.4130  -12.5380   18.1540 C   0  0  0  0  0  2  0  0  0  0  0  0
  -27.9390  -12.3850   18.5760 C   0  0  0  0  0  2  0  0  0  0  0  0
  -27.5780  -13.2440   19.8170 C   0  0  0  0  0  3  0  0  0  0  0  0
  -28.6300  -13.0800   20.9370 C   0  0  0  0  0  2  0  0  0  0  0  0
  -29.9440  -13.4050   20.3630 N   0  0  0  0  0  0  0  0  0  0  0  0
  -31.7610  -14.7400   20.0940 O   0  0  0  0  0  0  0  0  0  0  0  0
  -29.8560  -15.6710   20.8740 N   0  0  0  0  0  0  0  0  0  0  0  0
  -28.8960  -15.4670   21.1080 H   0  0  0  0  0  0  0  0  0  0  0  0
  -25.1790  -13.8460   20.5130 C   0  0  0  0  0  0  0  0  0  0  0  0
  -24.1100  -13.0730   20.8790 C   0  0  0  0  0  0  0  0  0  0  0  0
  -24.5750  -11.7220   20.8600 C   0  0  0  0  0  0  0  0  0  0  0  0
  -26.2260  -12.9650   20.2940 N   0  0  0  0  0  0  0  0  0  0  0  0
  -25.8670  -11.6840   20.5620 N   0  0  0  0  0  0  0  0  0  0  0  0
  -23.8490  -10.4600   21.0500 C   0  0  0  0  0  0  0  0  0  0  0  0
  -24.2890   -9.4870   21.9750 C   0  0  0  0  0  3  0  0  0  0  0  0
  -23.5640   -8.2890   22.1520 C   0  0  0  0  0  3  0  0  0  0  0  0
  -22.3840   -8.0560   21.4060 C   0  0  0  0  0  0  0  0  0  0  0  0
  -21.9640   -9.0170   20.4710 C   0  0  0  0  0  3  0  0  0  0  0  0
  -22.6890  -10.2060   20.2910 C   0  0  0  0  0  3  0  0  0  0  0  0
  -21.6300   -6.9120   21.4950 O   0  0  0  0  0  0  0  0  0  0  0  0
  -21.6040   -6.1520   22.6380 C   0  0  0  0  0  0  0  0  0  0  0  0
  -21.2200   -6.6950   23.8830 C   0  0  0  0  0  3  0  0  0  0  0  0
  -21.1410   -5.8630   25.0190 C   0  0  0  0  0  3  0  0  0  0  0  0
  -21.4350   -4.4900   24.9090 C   0  0  0  0  0  0  0  0  0  0  0  0
  -21.8130   -3.9490   23.6680 C   0  0  0  0  0  3  0  0  0  0  0  0
  -21.8940   -4.7770   22.5350 C   0  0  0  0  0  0  0  0  0  0  0  0
  -22.2380   -4.2450   21.3370 F   0  0  0  0  0  0  0  0  0  0  0  0
  -21.3520   -3.6900   25.9970 F   0  0  0  0  0  0  0  0  0  0  0  0
  -22.7100  -13.5490   21.1370 C   0  0  0  0  0  0  0  0  0  0  0  0
  -21.9770  -12.8570   22.0000 N   0  0  0  0  0  0  0  0  0  0  0  0
  -22.2750  -14.5710   20.6070 O   0  0  0  0  0  0  0  0  0  0  0  0
  -22.3410  -12.0310   22.4500 H   0  0  0  0  0  0  0  0  0  0  0  0
  -21.0360  -13.1580   22.2160 H   0  0  0  0  0  0  0  0  0  0  0  0
  -25.3420  -15.2150   20.3270 N   0  0  0  0  0  0  0  0  0  0  0  0
  -24.5670  -15.8640   20.4130 H   0  0  0  0  0  0  0  0  0  0  0  0
  -26.1810  -15.6480   19.9630 H   0  0  0  0  0  0  0  0  0  0  0  0
  -28.5420  -25.3240   19.4570 C   0  0  0  0  0  2  0  0  0  0  0  0
  -28.4010  -26.5930   20.1780 O   0  0  0  0  0  0  0  0  0  0  0  0
  -24.6300  -31.8840   23.2370 C   0  0  0  0  0  0  0  0  0  0  0  0
  -27.2320  -27.3610   20.1400 C   0  0  0  0  0  0  0  0  0  0  0  0
  -23.4110  -30.4830   21.6090 C   0  0  0  0  0  3  0  0  0  0  0  0
  -24.8480  -28.9370   20.1710 C   0  0  0  0  0  0  0  0  0  0  0  0
  -25.9440  -30.8150   21.3960 C   0  0  0  0  0  2  0  0  0  0  0  0
  -26.0190  -29.4400   20.7510 C   0  0  0  0  0  0  0  0  0  0  0  0
  -27.2090  -28.6600   20.7280 C   0  0  0  0  0  3  0  0  0  0  0  0
  -26.0240  -26.8900   19.5700 C   0  0  0  0  0  3  0  0  0  0  0  0
  -24.8500  -27.6660   19.5780 C   0  0  0  0  0  3  0  0  0  0  0  0
  -23.6100  -29.8060   20.2270 C   0  0  0  0  0  2  0  0  0  0  0  0
  -24.6810  -31.0780   22.1380 N   0  0  0  0  0  0  0  0  0  0  0  0
  -23.5520  -32.1590   23.7830 O   0  0  0  0  0  0  0  0  0  0  0  0
  -22.7620  -29.4660   22.5750 C   0  0  0  0  0  0  0  0  0  0  0  0
  -21.4360  -29.2830   22.4570 N   0  0  0  0  0  0  0  0  0  0  0  0
  -23.4490  -28.8410   23.3880 O   0  0  0  0  0  0  0  0  0  0  0  0
  -20.9410  -29.8390   21.7730 H   0  0  0  0  0  0  0  0  0  0  0  0
  -18.0670  -28.0740   22.9700 C   0  0  0  0  0  0  0  0  0  0  0  0
  -20.6240  -28.3460   23.2340 C   0  0  0  0  0  3  0  0  0  0  0  0
  -20.7320  -26.9120   22.6660 C   0  0  0  0  0  2  0  0  0  0  0  0
  -19.6300  -26.5790   21.6560 C   0  0  0  0  0  2  0  0  0  0  0  0
  -18.2480  -26.7220   22.3010 C   0  0  0  0  0  2  0  0  0  0  0  0
  -19.1820  -28.8440   23.3930 C   0  0  0  0  0  0  0  0  0  0  0  0
  -18.9590  -30.1100   23.9770 C   0  0  0  0  0  3  0  0  0  0  0  0
  -17.6530  -30.6060   24.1420 C   0  0  0  0  0  3  0  0  0  0  0  0
  -16.5510  -29.8340   23.7350 C   0  0  0  0  0  3  0  0  0  0  0  0
  -16.7590  -28.5690   23.1540 C   0  0  0  0  0  3  0  0  0  0  0  0
  -25.9200  -32.5160   23.8470 C   0  0  0  0  0  3  0  0  0  0  0  0
  -26.4530  -31.7410   25.1150 C   0  0  1  0  0  0  0  0  0  0  0  0
  -25.3740  -31.4970   26.1950 C   0  0  0  0  0  1  0  0  0  0  0  0
  -27.0330  -30.3660   24.7090 C   0  0  0  0  0  1  0  0  0  0  0  0
  -27.6110  -32.5340   25.7650 C   0  0  0  0  0  1  0  0  0  0  0  0
  -25.6110  -33.9120   24.1880 N   0  0  0  0  0  0  0  0  0  0  0  0
  -25.9290  -34.9690   23.4290 C   0  0  0  0  0  0  0  0  0  0  0  0
  -26.5850  -34.8720   22.3870 O   0  0  0  0  0  0  0  0  0  0  0  0
  -25.0260  -34.0610   24.9970 H   0  0  0  0  0  0  0  0  0  0  0  0
  -24.1880  -36.7560   23.1100 C   0  0  0  0  0  1  0  0  0  0  0  0
  -25.4440  -36.3540   23.8990 C   0  0  0  0  0  3  0  0  0  0  0  0
  -27.5900  -37.2430   24.6940 C   0  0  0  0  0  1  0  0  0  0  0  0
  -26.4700  -37.4110   23.7720 N   0  0  0  0  0  0  0  0  0  0  0  0
  -26.0630  -38.3300   23.9330 H   0  0  0  0  0  0  0  0  0  0  0  0
  1  5  1  0
  1  3  1  0
  2  5  1  0
  2  4  1  0
  5 50  1  0
  6  4  1  0
  6  3  1  0
  6  7  1  0
  7  8  1  0
  9  7  1  0
 10  7  1  0
 10 11  1  0
 12 20  1  0
 13 18  1  0
 14 15  1  0
 14 13  1  0
 16 15  1  0
 16 25  1  0
 16 17  1  0
 18 12  1  0
 18 17  1  0
 19 12  2  0
 20 21  1  0
 20 11  1  0
 22 23  2  0
 23 42  1  0
 24 23  1  0
 24 27  1  0
 25 22  1  0
 25 26  1  0
 26 24  2  0
 27 28  1  0
 28 29  2  0
 30 33  1  0
 30 29  1  0
 31 30  2  0
 32 31  1  0
 32 27  2  0
 33 34  1  0
 34 35  1  0
 35 36  2  0
 37 36  1  0
 37 41  1  0
 38 37  2  0
 39 34  2  0
 39 38  1  0
 40 39  1  0
 42 43  1  0
 43 46  1  0
 43 45  1  0
 44 42  2  0
 47 48  1  0
 47 22  1  0
 49 47  1  0
 50 51  1  0
 52 63  2  0
 53 51  1  0
 53 58  1  0
 54 62  1  0
 54 64  1  0
 55 61  1  0
 55 57  1  0
 56 62  1  0
 57 56  1  0
 58 57  2  0
 59 60  1  0
 59 53  2  0
 60 55  2  0
 61 54  1  0
 62 52  1  0
 64 66  2  0
 65 64  1  0
 67 65  1  0
 68 77  2  0
 68 73  1  0
 69 65  1  0
 69 73  1  0
 70 69  1  0
 71 72  1  0
 71 70  1  0
 72 68  1  0
 73 74  2  0
 74 75  1  0
 76 75  2  0
 77 76  1  0
 78 52  1  0
 78 83  1  0
 78 79  1  0
 79 82  1  1
 79 80  1  0
 81 79  1  0
 83 86  1  0
 84 88  1  0
 84 83  1  0
 85 84  2  0
 88 87  1  0
 90 88  1  0
 90 91  1  0
 90 89  1  0
M  ISO  4  12 100  20 100  50 101  51 101
M  END
>  <TORSDO>  (8) 
F 20

>  <SCORE>  (8) 
-13.890

>  <name>  (8) 
7

>  <ligand_id>  (8) 
7

>  <original_smiles>  (8) 
[H]c1c([H])c([H])c2c(c1[H])C([H])([H])C([H])([H])C([H])([H])C2([H])N([H])C(=O)C1([H])N(C(=O)C([H])(N([H])C(=O)C([H])(N([H])C([H])([H])[H])C([H])([H])[H])C(C([H])([H])[H])(C([H])([H])[H])C([H])([H])[H])C([H])([H])c2c([H])c(OC([H])([H])C3([H])C([H])([H])C([H])([H])C([H])([N+]([H])([H])C([H])([H])C([H])([H])N([H])C(=O)N4C([H])([H])C([H])([H])C([H])([H])C([H])(n5nc(-c6c([H])c([H])c(Oc7c([H])c([H])c(F)c([H])c7F)c([H])c6[H])c(C(=O)N([H])[H])c5N([H])[H])C4([H])[H])C([H])([H])C3([H])[H])c([H])c([H])c2C1([H])[H]

>  <smiles>  (8) 
[H]c1c([H])c([H])c2c(c1[H])C([H])([H])C([H])([H])C([H])([H])C2([H])N([H])C(=O)C1([H])N(C(=O)C([H])(N([H])C(=O)C([H])(N([H])C([H])([H])[H])C([H])([H])[H])C(C([H])([H])[H])(C([H])([H])[H])C([H])([H])[H])C([H])([H])c2c([H])c(OC([H])([H])C3([H])C([H])([H])C([H])([H])C([H])([N+]([H])([H])C([H])([H])C([H])([H])N([H])C(=O)N4C([H])([H])C([H])([H])C([H])([H])C([H])(n5nc(-c6c([H])c([H])c(Oc7c([H])c([H])c(F)c([H])c7F)c([H])c6[H])c(C(=O)N([H])[H])c5N([H])[H])C4([H])[H])C([H])([H])C3([H])[H])c([H])c([H])c2C1([H])[H]

$$$$
8:0:0
     RDKit          3D

 96104  0  0  1  0  0  0  0  0999 V2000
  -27.8130  -19.9980   20.2260 C   0  0  0  0  0  3  0  0  0  0  0  0
  -30.1470  -20.1370   20.7450 C   0  0  0  0  0  3  0  0  0  0  0  0
  -29.0520  -19.3340   20.3520 C   0  0  0  0  0  0  0  0  0  0  0  0
  -27.6980  -21.3800   20.5100 C   0  0  0  0  0  0  0  0  0  0  0  0
  -28.8540  -22.0830   20.9270 C   0  0  0  0  0  0  0  0  0  0  0  0
  -26.3210  -22.0320   20.3890 C   0  0  0  0  0  1  0  0  0  0  0  0
  -30.0470  -21.4640   21.0170 N   0  0  0  0  0  0  0  0  0  0  0  0
  -27.9840  -23.6840   22.5010 C   0  0  0  0  0  1  0  0  0  0  0  0
  -28.8380  -23.4330   21.3350 N   0  0  0  0  0  0  0  0  0  0  0  0
  -28.8280  -24.4090   20.2310 C   0  0  0  0  0  2  0  0  0  0  0  0
  -28.9250  -25.8860   20.6920 C   0  0  0  0  0  2  0  0  0  0  0  0
  -28.6760  -26.7910   19.6170 O   0  0  0  0  0  0  0  0  0  0  0  0
  -24.7060  -31.6430   23.0040 C   0  0  0  0  0  0  0  0  0  0  0  0
  -27.4810  -27.4630   19.7010 C   0  0  0  0  0  0  0  0  0  0  0  0
  -23.5300  -30.2710   21.3140 C   0  0  0  0  0  3  0  0  0  0  0  0
  -25.0250  -28.8490   19.8130 C   0  0  0  0  0  0  0  0  0  0  0  0
  -26.0340  -30.7370   21.1000 C   0  0  0  0  0  2  0  0  0  0  0  0
  -26.1670  -29.3970   20.4090 C   0  0  0  0  0  0  0  0  0  0  0  0
  -27.3990  -28.7100   20.3560 C   0  0  0  0  0  3  0  0  0  0  0  0
  -26.3260  -26.9150   19.1070 C   0  0  0  0  0  3  0  0  0  0  0  0
  -25.0960  -27.6020   19.1620 C   0  0  0  0  0  3  0  0  0  0  0  0
  -23.7480  -29.6530   19.9090 C   0  0  0  0  0  2  0  0  0  0  0  0
  -24.7760  -30.8960   21.8660 N   0  0  0  0  0  0  0  0  0  0  0  0
  -23.6250  -31.8470   23.5730 O   0  0  0  0  0  0  0  0  0  0  0  0
  -22.9270  -29.1890   22.2390 C   0  0  0  0  0  0  0  0  0  0  0  0
  -21.6060  -28.9770   22.1310 N   0  0  0  0  0  0  0  0  0  0  0  0
  -23.6450  -28.5340   23.0000 O   0  0  0  0  0  0  0  0  0  0  0  0
  -21.0810  -29.5540   21.4900 H   0  0  0  0  0  0  0  0  0  0  0  0
  -18.2710  -27.6880   22.6580 C   0  0  0  0  0  0  0  0  0  0  0  0
  -20.8320  -27.9810   22.8710 C   0  0  0  0  0  3  0  0  0  0  0  0
  -20.9450  -26.5870   22.2110 C   0  0  0  0  0  2  0  0  0  0  0  0
  -19.8210  -26.3020   21.2110 C   0  0  0  0  0  2  0  0  0  0  0  0
  -18.4560  -26.3840   21.9000 C   0  0  0  0  0  2  0  0  0  0  0  0
  -19.3890  -28.4450   23.1010 C   0  0  0  0  0  0  0  0  0  0  0  0
  -19.1660  -29.6700   23.7690 C   0  0  0  0  0  3  0  0  0  0  0  0
  -17.8610  -30.1380   23.9960 C   0  0  0  0  0  3  0  0  0  0  0  0
  -16.7570  -29.3760   23.5750 C   0  0  0  0  0  3  0  0  0  0  0  0
  -16.9650  -28.1520   22.9120 C   0  0  0  0  0  3  0  0  0  0  0  0
  -25.9770  -32.2940   23.6370 C   0  0  0  0  0  3  0  0  0  0  0  0
  -25.6140  -33.6510   24.0650 N   0  0  0  0  0  0  0  0  0  0  0  0
  -25.8860  -34.7640   23.3710 C   0  0  0  0  0  0  0  0  0  0  0  0
  -26.5470  -34.7570   22.3280 O   0  0  0  0  0  0  0  0  0  0  0  0
  -25.0300  -33.7230   24.8860 H   0  0  0  0  0  0  0  0  0  0  0  0
  -24.0800  -36.4990   23.1530 C   0  0  0  0  0  1  0  0  0  0  0  0
  -25.3470  -36.0970   23.9240 C   0  0  0  0  0  3  0  0  0  0  0  0
  -27.4510  -37.0180   24.7930 C   0  0  0  0  0  1  0  0  0  0  0  0
  -26.3330  -37.1990   23.8700 N   0  0  0  0  0  0  0  0  0  0  0  0
  -25.8910  -38.0890   24.0850 H   0  0  0  0  0  0  0  0  0  0  0  0
  -26.5590  -31.4650   24.8470 C   0  0  1  0  0  0  0  0  0  0  0  0
  -25.5080  -31.1120   25.9270 C   0  0  0  0  0  1  0  0  0  0  0  0
  -27.1840  -30.1420   24.3490 C   0  0  0  0  0  1  0  0  0  0  0  0
  -27.6940  -32.2610   25.5330 C   0  0  0  0  0  1  0  0  0  0  0  0
  -29.1390  -17.8010   20.1050 C   0  0  0  0  0  3  0  0  0  0  0  0
  -29.2870  -17.4560   18.6780 N   0  0  0  0  0  4  0  0  0  0  0  0
  -30.1330  -17.8380   18.2960 H   0  0  0  0  0  0  0  0  0  0  0  0
  -28.5070  -17.7820   18.1330 H   0  0  0  0  0  0  0  0  0  0  0  0
  -29.3370  -16.4580   18.5740 H   0  0  0  0  0  0  0  0  0  0  0  0
  -30.1810  -17.0010   20.9450 C   0  0  0  0  0  2  0  0  0  0  0  0
  -30.6710  -14.5430   20.3680 C   0  0  0  0  0  0  0  0  0  0  0  0
  -30.3800  -12.3700   19.2220 C   0  0  0  0  0  2  0  0  0  0  0  0
  -29.4210  -12.6060   18.0370 C   0  0  0  0  0  2  0  0  0  0  0  0
  -27.9500  -12.4730   18.4790 C   0  0  0  0  0  2  0  0  0  0  0  0
  -27.6350  -13.2700   19.7730 C   0  0  0  0  0  3  0  0  0  0  0  0
  -28.7140  -13.0350   20.8590 C   0  0  0  0  0  2  0  0  0  0  0  0
  -30.0260  -13.3470   20.2640 N   0  0  0  0  0  0  0  0  0  0  0  0
  -31.7780  -14.7610   19.8710 O   0  0  0  0  0  0  0  0  0  0  0  0
  -29.9220  -15.5420   20.8830 N   0  0  0  0  0  0  0  0  0  0  0  0
  -29.0420  -15.2360   21.2670 H   0  0  0  0  0  0  0  0  0  0  0  0
  -25.2480  -13.8710   20.5190 C   0  0  0  0  0  0  0  0  0  0  0  0
  -24.1850  -13.0950   20.9020 C   0  0  0  0  0  0  0  0  0  0  0  0
  -24.6430  -11.7460   20.8420 C   0  0  0  0  0  0  0  0  0  0  0  0
  -26.2870  -12.9900   20.2660 N   0  0  0  0  0  0  0  0  0  0  0  0
  -25.9270  -11.7060   20.5100 N   0  0  0  0  0  0  0  0  0  0  0  0
  -23.9140  -10.4840   21.0260 C   0  0  0  0  0  0  0  0  0  0  0  0
  -24.3630   -9.5000   21.9350 C   0  0  0  0  0  3  0  0  0  0  0  0
  -23.6360   -8.3020   22.1090 C   0  0  0  0  0  3  0  0  0  0  0  0
  -22.4470   -8.0790   21.3760 C   0  0  0  0  0  0  0  0  0  0  0  0
  -22.0180   -9.0500   20.4550 C   0  0  0  0  0  3  0  0  0  0  0  0
  -22.7440  -10.2400   20.2780 C   0  0  0  0  0  3  0  0  0  0  0  0
  -21.6930   -6.9320   21.4580 O   0  0  0  0  0  0  0  0  0  0  0  0
  -21.6690   -6.1680   22.5960 C   0  0  0  0  0  0  0  0  0  0  0  0
  -21.2700   -6.7020   23.8430 C   0  0  0  0  0  3  0  0  0  0  0  0
  -21.1940   -5.8670   24.9750 C   0  0  0  0  0  3  0  0  0  0  0  0
  -21.5050   -4.4980   24.8620 C   0  0  0  0  0  0  0  0  0  0  0  0
  -21.8930   -3.9630   23.6210 C   0  0  0  0  0  3  0  0  0  0  0  0
  -21.9720   -4.7960   22.4920 C   0  0  0  0  0  0  0  0  0  0  0  0
  -22.3300   -4.2730   21.2920 F   0  0  0  0  0  0  0  0  0  0  0  0
  -21.4230   -3.6930   25.9470 F   0  0  0  0  0  0  0  0  0  0  0  0
  -22.7940  -13.5720   21.2050 C   0  0  0  0  0  0  0  0  0  0  0  0
  -22.0800  -12.8680   22.0780 N   0  0  0  0  0  0  0  0  0  0  0  0
  -22.3490  -14.6020   20.7050 O   0  0  0  0  0  0  0  0  0  0  0  0
  -22.4560  -12.0350   22.5050 H   0  0  0  0  0  0  0  0  0  0  0  0
  -21.1470  -13.1640   22.3240 H   0  0  0  0  0  0  0  0  0  0  0  0
  -25.4050  -15.2410   20.3460 N   0  0  0  0  0  0  0  0  0  0  0  0
  -24.6230  -15.8790   20.4490 H   0  0  0  0  0  0  0  0  0  0  0  0
  -26.2060  -15.6750   19.9150 H   0  0  0  0  0  0  0  0  0  0  0  0
  1  3  2  0
  1  4  1  0
  2  7  2  0
  3  2  1  0
  4  5  2  0
  5  7  1  0
  5  9  1  0
  6  4  1  0
  9  8  1  0
 10 11  1  0
 10  9  1  0
 12 14  1  0
 12 11  1  0
 13 24  2  0
 14 19  1  0
 15 23  1  0
 15 25  1  0
 16 22  1  0
 16 18  1  0
 17 23  1  0
 18 17  1  0
 19 18  2  0
 20 21  1  0
 20 14  2  0
 21 16  2  0
 22 15  1  0
 23 13  1  0
 25 27  2  0
 26 25  1  0
 28 26  1  0
 29 38  2  0
 29 34  1  0
 30 26  1  0
 30 34  1  0
 31 30  1  0
 32 33  1  0
 32 31  1  0
 33 29  1  0
 34 35  2  0
 35 36  1  0
 37 36  2  0
 38 37  1  0
 39 13  1  0
 39 40  1  0
 39 49  1  0
 40 43  1  0
 41 45  1  0
 41 40  1  0
 42 41  2  0
 45 44  1  0
 47 45  1  0
 47 48  1  0
 47 46  1  0
 49 52  1  1
 49 50  1  0
 51 49  1  0
 53  3  1  0
 53 58  1  0
 54 53  1  0
 55 54  1  0
 56 54  1  0
 57 54  1  0
 59 67  1  0
 60 65  1  0
 61 62  1  0
 61 60  1  0
 63 62  1  0
 63 72  1  0
 63 64  1  0
 65 59  1  0
 65 64  1  0
 66 59  2  0
 67 58  1  0
 67 68  1  0
 69 70  2  0
 70 89  1  0
 71 70  1  0
 71 74  1  0
 72 73  1  0
 72 69  1  0
 73 71  2  0
 74 75  1  0
 75 76  2  0
 77 80  1  0
 77 76  1  0
 78 77  2  0
 79 78  1  0
 79 74  2  0
 80 81  1  0
 81 82  1  0
 82 83  2  0
 84 83  1  0
 84 88  1  0
 85 84  2  0
 86 81  2  0
 86 85  1  0
 87 86  1  0
 89 90  1  0
 90 93  1  0
 90 92  1  0
 91 89  2  0
 94 95  1  0
 94 69  1  0
 96 94  1  0
M  ISO  4  11 101  12 101  59 100  67 100
M  END
>  <TORSDO>  (9) 
F 22

>  <SCORE>  (9) 
-11.911

>  <name>  (9) 
8

>  <ligand_id>  (9) 
8

>  <original_smiles>  (9) 
[H]c1nc(N(C([H])([H])[H])C([H])([H])C([H])([H])Oc2c([H])c([H])c3c(c2[H])C([H])([H])N(C(=O)C([H])(N([H])C(=O)C([H])(N([H])C([H])([H])[H])C([H])([H])[H])C(C([H])([H])[H])(C([H])([H])[H])C([H])([H])[H])C([H])(C(=O)N([H])C2([H])c4c([H])c([H])c([H])c([H])c4C([H])([H])C([H])([H])C2([H])[H])C3([H])[H])c(C([H])([H])[H])c([H])c1C([H])(C([H])([H])N([H])C(=O)N1C([H])([H])C([H])([H])C([H])([H])C([H])(n2nc(-c3c([H])c([H])c(Oc4c([H])c([H])c(F)c([H])c4F)c([H])c3[H])c(C(=O)N([H])[H])c2N([H])[H])C1([H])[H])[N+]([H])([H])[H]

>  <smiles>  (9) 
[H]c1nc(N(C([H])([H])[H])C([H])([H])C([H])([H])Oc2c([H])c([H])c3c(c2[H])C([H])([H])N(C(=O)C([H])(N([H])C(=O)C([H])(N([H])C([H])([H])[H])C([H])([H])[H])C(C([H])([H])[H])(C([H])([H])[H])C([H])([H])[H])C([H])(C(=O)N([H])C2([H])c4c([H])c([H])c([H])c([H])c4C([H])([H])C([H])([H])C2([H])[H])C3([H])[H])c(C([H])([H])[H])c([H])c1C([H])(C([H])([H])N([H])C(=O)N1C([H])([H])C([H])([H])C([H])([H])C([H])(n2nc(-c3c([H])c([H])c(Oc4c([H])c([H])c(F)c([H])c4F)c([H])c3[H])c(C(=O)N([H])[H])c2N([H])[H])C1([H])[H])[N+]([H])([H])[H]

$$$$
9:0:0
     RDKit          3D

 95103  0  0  1  0  0  0  0  0999 V2000
  -29.1850  -20.4060   20.5630 C   0  0  0  0  0  3  0  0  0  0  0  0
  -30.3770  -19.8990   18.8030 C   0  0  0  0  0  0  0  0  0  0  0  0
  -29.8340  -19.2770   19.9890 C   0  0  0  0  0  0  0  0  0  0  0  0
  -30.3480  -21.3130   18.9440 C   0  0  0  0  0  0  0  0  0  0  0  0
  -29.4070  -21.7060   19.9400 N   0  0  0  0  0  0  0  0  0  0  0  0
  -31.0450  -19.1610   17.6770 C   0  0  0  0  0  0  0  0  0  0  0  0
  -30.8930  -19.6210   16.4420 N   0  0  0  0  0  0  0  0  0  0  0  0
  -31.6070  -18.0780   17.8420 O   0  0  0  0  0  0  0  0  0  0  0  0
  -30.4620  -20.5190   16.2740 H   0  0  0  0  0  0  0  0  0  0  0  0
  -31.2060  -19.0680   15.6530 H   0  0  0  0  0  0  0  0  0  0  0  0
  -31.2470  -22.7840   16.9310 C   0  0  0  0  0  1  0  0  0  0  0  0
  -32.7870  -21.9560   18.7290 C   0  0  0  0  0  1  0  0  0  0  0  0
  -31.3300  -22.3580   18.4100 C   0  0  0  0  0  3  0  0  0  0  0  0
  -30.1410  -17.7390   20.6120 C   0  0  0  0  0  2  0  0  0  0  0  0
  -30.5320  -15.0400   20.2660 C   0  0  0  0  0  0  0  0  0  0  0  0
  -30.3970  -12.6940   19.3260 C   0  0  0  0  0  2  0  0  0  0  0  0
  -29.4250  -12.5980   18.1290 C   0  0  0  0  0  2  0  0  0  0  0  0
  -27.9830  -12.3480   18.6080 C   0  0  0  0  0  2  0  0  0  0  0  0
  -27.5860  -13.2910   19.7770 C   0  0  0  0  0  3  0  0  0  0  0  0
  -28.6750  -13.3650   20.8690 C   0  0  0  0  0  2  0  0  0  0  0  0
  -29.9070  -13.7930   20.1960 N   0  0  0  0  0  0  0  0  0  0  0  0
  -31.7670  -15.0440   20.2000 O   0  0  0  0  0  0  0  0  0  0  0  0
  -29.8010  -16.2580   20.1670 N   0  0  0  0  0  0  0  0  0  0  0  0
  -28.8230  -16.1220   19.9590 H   0  0  0  0  0  0  0  0  0  0  0  0
  -25.2160  -13.8620   20.5550 C   0  0  0  0  0  0  0  0  0  0  0  0
  -24.1510  -13.0800   20.9200 C   0  0  0  0  0  0  0  0  0  0  0  0
  -24.6210  -11.7320   20.8860 C   0  0  0  0  0  0  0  0  0  0  0  0
  -26.2610  -12.9880   20.3070 N   0  0  0  0  0  0  0  0  0  0  0  0
  -25.9130  -11.7000   20.5750 N   0  0  0  0  0  0  0  0  0  0  0  0
  -23.8990  -10.4650   21.0770 C   0  0  0  0  0  0  0  0  0  0  0  0
  -24.3410   -9.4920   22.0030 C   0  0  0  0  0  3  0  0  0  0  0  0
  -23.6160   -8.2940   22.1820 C   0  0  0  0  0  3  0  0  0  0  0  0
  -22.4390   -8.0580   21.4340 C   0  0  0  0  0  0  0  0  0  0  0  0
  -22.0160   -9.0190   20.4980 C   0  0  0  0  0  3  0  0  0  0  0  0
  -22.7400  -10.2080   20.3180 C   0  0  0  0  0  3  0  0  0  0  0  0
  -21.6870   -6.9090   21.5180 O   0  0  0  0  0  0  0  0  0  0  0  0
  -21.6550   -6.1550   22.6640 C   0  0  0  0  0  0  0  0  0  0  0  0
  -21.2440   -6.7000   23.9000 C   0  0  0  0  0  3  0  0  0  0  0  0
  -21.1600   -5.8760   25.0390 C   0  0  0  0  0  3  0  0  0  0  0  0
  -21.4740   -4.5060   24.9420 C   0  0  0  0  0  0  0  0  0  0  0  0
  -21.8780   -3.9610   23.7110 C   0  0  0  0  0  3  0  0  0  0  0  0
  -21.9640   -4.7840   22.5730 C   0  0  0  0  0  0  0  0  0  0  0  0
  -22.3310   -4.2500   21.3830 F   0  0  0  0  0  0  0  0  0  0  0  0
  -21.3870   -3.7110   26.0340 F   0  0  0  0  0  0  0  0  0  0  0  0
  -22.7500  -13.5490   21.1850 C   0  0  0  0  0  0  0  0  0  0  0  0
  -22.0190  -12.8500   22.0490 N   0  0  0  0  0  0  0  0  0  0  0  0
  -22.3080  -14.5720   20.6610 O   0  0  0  0  0  0  0  0  0  0  0  0
  -22.3830  -12.0120   22.4810 H   0  0  0  0  0  0  0  0  0  0  0  0
  -21.0820  -13.1510   22.2740 H   0  0  0  0  0  0  0  0  0  0  0  0
  -25.3820  -15.2320   20.3840 N   0  0  0  0  0  0  0  0  0  0  0  0
  -24.6570  -15.9120   20.5750 H   0  0  0  0  0  0  0  0  0  0  0  0
  -26.2460  -15.6550   20.0730 H   0  0  0  0  0  0  0  0  0  0  0  0
  -28.9600  -23.1850   20.4980 C   0  0  0  0  0  3  0  0  0  0  0  0
  -28.5160  -24.6560   19.6920 C   0  0  0  0  0  3  0  0  0  0  0  0
  -28.3660  -26.1360   20.2870 O   0  0  0  0  0  0  0  0  0  0  0  0
  -24.6170  -31.8600   23.2110 C   0  0  0  0  0  0  0  0  0  0  0  0
  -27.2810  -27.1120   20.2010 C   0  0  0  0  0  0  0  0  0  0  0  0
  -23.4360  -30.4420   21.5650 C   0  0  0  0  0  3  0  0  0  0  0  0
  -24.9160  -28.8510   20.1730 C   0  0  0  0  0  0  0  0  0  0  0  0
  -25.9930  -30.7230   21.4190 C   0  0  0  0  0  2  0  0  0  0  0  0
  -26.0860  -29.3160   20.7790 C   0  0  0  0  0  0  0  0  0  0  0  0
  -27.2620  -28.4560   20.7820 C   0  0  0  0  0  3  0  0  0  0  0  0
  -26.0800  -26.7700   19.5490 C   0  0  0  0  0  3  0  0  0  0  0  0
  -24.9300  -27.5920   19.5420 C   0  0  0  0  0  3  0  0  0  0  0  0
  -23.6860  -29.7420   20.1990 C   0  0  0  0  0  2  0  0  0  0  0  0
  -24.6990  -31.0290   22.1250 N   0  0  0  0  0  0  0  0  0  0  0  0
  -23.5250  -32.1430   23.7320 O   0  0  0  0  0  0  0  0  0  0  0  0
  -22.7430  -29.4490   22.5420 C   0  0  0  0  0  0  0  0  0  0  0  0
  -21.4120  -29.3010   22.4310 N   0  0  0  0  0  0  0  0  0  0  0  0
  -23.4090  -28.8210   23.3650 O   0  0  0  0  0  0  0  0  0  0  0  0
  -20.9220  -29.8840   21.7680 H   0  0  0  0  0  0  0  0  0  0  0  0
  -18.0240  -28.1130   22.9520 C   0  0  0  0  0  0  0  0  0  0  0  0
  -20.5880  -28.3670   23.2100 C   0  0  0  0  0  3  0  0  0  0  0  0
  -20.6780  -26.9320   22.6420 C   0  0  0  0  0  2  0  0  0  0  0  0
  -19.5710  -26.6080   21.6340 C   0  0  0  0  0  2  0  0  0  0  0  0
  -18.1910  -26.7590   22.2810 C   0  0  0  0  0  2  0  0  0  0  0  0
  -19.1500  -28.8720   23.3770 C   0  0  0  0  0  0  0  0  0  0  0  0
  -18.9340  -30.1320   23.9750 C   0  0  0  0  0  3  0  0  0  0  0  0
  -17.6300  -30.6380   24.1470 C   0  0  0  0  0  3  0  0  0  0  0  0
  -16.5220  -29.8750   23.7420 C   0  0  0  0  0  3  0  0  0  0  0  0
  -16.7190  -28.6160   23.1490 C   0  0  0  0  0  3  0  0  0  0  0  0
  -25.8840  -32.5100   23.8410 C   0  0  0  0  0  3  0  0  0  0  0  0
  -25.5700  -33.9140   24.1630 N   0  0  0  0  0  0  0  0  0  0  0  0
  -25.9040  -34.9680   23.4080 C   0  0  0  0  0  0  0  0  0  0  0  0
  -26.5720  -34.8630   22.3770 O   0  0  0  0  0  0  0  0  0  0  0  0
  -24.9910  -34.0660   24.9740 H   0  0  0  0  0  0  0  0  0  0  0  0
  -24.1760  -36.7640   23.0640 C   0  0  0  0  0  1  0  0  0  0  0  0
  -25.4180  -36.3570   23.8700 C   0  0  0  0  0  3  0  0  0  0  0  0
  -27.5550  -37.2450   24.6920 C   0  0  0  0  0  1  0  0  0  0  0  0
  -26.4480  -37.4120   23.7570 N   0  0  0  0  0  0  0  0  0  0  0  0
  -26.0410  -38.3300   23.9100 H   0  0  0  0  0  0  0  0  0  0  0  0
  -26.3910  -31.7550   25.1310 C   0  0  1  0  0  0  0  0  0  0  0  0
  -25.2920  -31.5360   26.1960 C   0  0  0  0  0  1  0  0  0  0  0  0
  -26.9740  -30.3720   24.7530 C   0  0  0  0  0  1  0  0  0  0  0  0
  -27.5360  -32.5540   25.7980 C   0  0  0  0  0  1  0  0  0  0  0  0
  2  4  2  0
  2  3  1  0
  3  1  2  0
  3 14  1  0
  4  5  1  0
  5 53  1  0
  5  1  1  0
  6  8  2  0
  6  2  1  0
  7  6  1  0
  9  7  1  0
 10  7  1  0
 11 13  1  0
 13 12  1  0
 13  4  1  0
 16 21  1  0
 17 18  1  0
 17 16  1  0
 19 18  1  0
 19 28  1  0
 19 20  1  0
 21 15  1  0
 21 20  1  0
 22 15  2  0
 23 15  1  0
 23 14  1  0
 24 23  1  0
 25 26  2  0
 26 45  1  0
 27 26  1  0
 27 30  1  0
 28 25  1  0
 28 29  1  0
 29 27  2  0
 30 31  1  0
 31 32  2  0
 33 36  1  0
 33 32  1  0
 34 33  2  0
 35 34  1  0
 35 30  2  0
 36 37  1  0
 37 38  1  0
 38 39  2  0
 40 39  1  0
 40 44  1  0
 41 40  2  0
 42 37  2  0
 42 41  1  0
 43 42  1  0
 45 46  1  0
 46 49  1  0
 46 48  1  0
 47 45  2  0
 50 25  1  0
 50 51  1  0
 52 50  1  0
 54 55  1  0
 54 53  2  0
 56 67  2  0
 57 55  1  0
 57 62  1  0
 58 66  1  0
 58 68  1  0
 59 65  1  0
 59 61  1  0
 60 66  1  0
 61 62  2  0
 61 60  1  0
 63 57  2  0
 64 63  1  0
 64 59  2  0
 65 58  1  0
 66 56  1  0
 68 70  2  0
 69 68  1  0
 71 69  1  0
 72 81  2  0
 72 77  1  0
 73 69  1  0
 73 77  1  0
 74 73  1  0
 75 76  1  0
 75 74  1  0
 76 72  1  0
 77 78  2  0
 78 79  1  0
 80 79  2  0
 81 80  1  0
 82 56  1  0
 82 83  1  0
 82 92  1  0
 83 86  1  0
 84 88  1  0
 84 83  1  0
 85 84  2  0
 88 87  1  0
 90 88  1  0
 90 91  1  0
 90 89  1  0
 92 95  1  1
 92 93  1  0
 94 92  1  0
M  ISO  4  15 100  23 100  54 101  55 101
M  END
>  <TORSDO>  (10) 
F 21

>  <SCORE>  (10) 
-14.252

>  <name>  (10) 
9

>  <ligand_id>  (10) 
9

>  <original_smiles>  (10) 
[H]c1c([H])c([H])c2c(c1[H])C([H])([H])C([H])([H])C([H])([H])C2([H])N([H])C(=O)C1([H])N(C(=O)C([H])(N([H])C(=O)C([H])(N([H])C([H])([H])[H])C([H])([H])[H])C(C([H])([H])[H])(C([H])([H])[H])C([H])([H])[H])C([H])([H])c2c([H])c(OC([H])([H])C([H])([H])n3c([H])c(C([H])([H])N([H])C(=O)N4C([H])([H])C([H])([H])C([H])([H])C([H])(n5nc(-c6c([H])c([H])c(Oc7c([H])c([H])c(F)c([H])c7F)c([H])c6[H])c(C(=O)N([H])[H])c5N([H])[H])C4([H])[H])c(C(=O)N([H])[H])c3C([H])(C([H])([H])[H])C([H])([H])[H])c([H])c([H])c2C1([H])[H]

>  <smiles>  (10) 
[H]c1c([H])c([H])c2c(c1[H])C([H])([H])C([H])([H])C([H])([H])C2([H])N([H])C(=O)C1([H])N(C(=O)C([H])(N([H])C(=O)C([H])(N([H])C([H])([H])[H])C([H])([H])[H])C(C([H])([H])[H])(C([H])([H])[H])C([H])([H])[H])C([H])([H])c2c([H])c(OC([H])([H])C([H])([H])n3c([H])c(C([H])([H])N([H])C(=O)N4C([H])([H])C([H])([H])C([H])([H])C([H])(n5nc(-c6c([H])c([H])c(Oc7c([H])c([H])c(F)c([H])c7F)c([H])c6[H])c(C(=O)N([H])[H])c5N([H])[H])C4([H])[H])c(C(=O)N([H])[H])c3C([H])(C([H])([H])[H])C([H])([H])[H])c([H])c([H])c2C1([H])[H]

$$$$
10:0:0
     RDKit          3D

 91 99  0  0  1  0  0  0  0  0999 V2000
  -28.1440  -24.1860   20.2520 C   0  0  0  0  0  3  0  0  0  0  0  0
  -29.9090  -23.0980   18.5370 C   0  0  0  0  0  3  0  0  0  0  0  0
  -28.4670  -22.7320   20.2950 C   0  0  0  0  0  0  0  0  0  0  0  0
  -29.4130  -22.0380   19.4080 C   0  0  0  0  0  0  0  0  0  0  0  0
  -28.6750  -25.1530   19.3260 C   0  0  0  0  0  0  0  0  0  0  0  0
  -29.5960  -24.4890   18.5120 N   0  0  0  0  0  0  0  0  0  0  0  0
  -26.5800  -22.5230   22.0870 C   0  0  0  0  0  1  0  0  0  0  0  0
  -27.7570  -21.8670   21.3450 C   0  0  0  0  0  3  0  0  0  0  0  0
  -28.6660  -21.4070   22.3290 O   0  0  0  0  0  0  0  0  0  0  0  0
  -28.2020  -20.7840   22.8760 H   0  0  0  0  0  0  0  0  0  0  0  0
  -28.5300  -26.6770   19.2600 O   0  0  0  0  0  0  0  0  0  0  0  0
  -24.7200  -31.8560   23.2100 C   0  0  0  0  0  0  0  0  0  0  0  0
  -27.4040  -27.6240   19.4600 C   0  0  0  0  0  0  0  0  0  0  0  0
  -23.5260  -30.6170   21.4490 C   0  0  0  0  0  3  0  0  0  0  0  0
  -24.9910  -29.3110   19.7650 C   0  0  0  0  0  0  0  0  0  0  0  0
  -26.0600  -31.0200   21.2210 C   0  0  0  0  0  2  0  0  0  0  0  0
  -26.1790  -29.7170   20.3840 C   0  0  0  0  0  0  0  0  0  0  0  0
  -27.3770  -28.8950   20.2110 C   0  0  0  0  0  3  0  0  0  0  0  0
  -26.1760  -27.3610   18.8140 C   0  0  0  0  0  3  0  0  0  0  0  0
  -25.0090  -28.1560   18.9640 C   0  0  0  0  0  3  0  0  0  0  0  0
  -23.7240  -30.1350   19.9840 C   0  0  0  0  0  2  0  0  0  0  0  0
  -24.7910  -31.1860   22.0160 N   0  0  0  0  0  0  0  0  0  0  0  0
  -23.6440  -32.0010   23.8140 O   0  0  0  0  0  0  0  0  0  0  0  0
  -22.9450  -29.4570   22.2980 C   0  0  0  0  0  0  0  0  0  0  0  0
  -21.6330  -29.1850   22.1630 N   0  0  0  0  0  0  0  0  0  0  0  0
  -23.6800  -28.8060   23.0450 O   0  0  0  0  0  0  0  0  0  0  0  0
  -21.0890  -29.7660   21.5420 H   0  0  0  0  0  0  0  0  0  0  0  0
  -18.3970  -27.5870   22.5110 C   0  0  0  0  0  0  0  0  0  0  0  0
  -20.9140  -28.0930   22.8270 C   0  0  0  0  0  3  0  0  0  0  0  0
  -21.1660  -26.7450   22.1130 C   0  0  0  0  0  2  0  0  0  0  0  0
  -20.1040  -26.4130   21.0600 C   0  0  0  0  0  2  0  0  0  0  0  0
  -18.7150  -26.3420   21.7000 C   0  0  0  0  0  2  0  0  0  0  0  0
  -19.4280  -28.4170   23.0260 C   0  0  0  0  0  0  0  0  0  0  0  0
  -19.0740  -29.5780   23.7480 C   0  0  0  0  0  3  0  0  0  0  0  0
  -17.7230  -29.9140   23.9560 C   0  0  0  0  0  3  0  0  0  0  0  0
  -16.7060  -29.0830   23.4540 C   0  0  0  0  0  3  0  0  0  0  0  0
  -17.0440  -27.9200   22.7380 C   0  0  0  0  0  3  0  0  0  0  0  0
  -25.9830  -32.4890   23.8680 C   0  0  0  0  0  3  0  0  0  0  0  0
  -26.4550  -31.7220   25.1660 C   0  0  1  0  0  0  0  0  0  0  0  0
  -25.3220  -31.4670   26.1870 C   0  0  0  0  0  1  0  0  0  0  0  0
  -27.0720  -30.3520   24.8040 C   0  0  0  0  0  1  0  0  0  0  0  0
  -27.5670  -32.5290   25.8780 C   0  0  0  0  0  1  0  0  0  0  0  0
  -25.6690  -33.8900   24.1960 N   0  0  0  0  0  0  0  0  0  0  0  0
  -26.0120  -34.9500   23.4510 C   0  0  0  0  0  0  0  0  0  0  0  0
  -26.6910  -34.8480   22.4260 O   0  0  0  0  0  0  0  0  0  0  0  0
  -25.0650  -34.0430   24.9920 H   0  0  0  0  0  0  0  0  0  0  0  0
  -24.2860  -36.7510   23.1110 C   0  0  0  0  0  1  0  0  0  0  0  0
  -25.5310  -36.3410   23.9140 C   0  0  0  0  0  3  0  0  0  0  0  0
  -27.6680  -37.2270   24.7380 C   0  0  0  0  0  1  0  0  0  0  0  0
  -26.5640  -37.3920   23.7960 N   0  0  0  0  0  0  0  0  0  0  0  0
  -26.1590  -38.3140   23.9400 H   0  0  0  0  0  0  0  0  0  0  0  0
  -29.6090  -20.3000   19.2400 C   0  0  0  0  0  2  0  0  0  0  0  0
  -30.7650  -19.0250   19.7070 C   0  0  0  0  0  2  0  0  0  0  0  0
  -31.3760  -16.1520   19.9710 C   0  0  0  0  0  0  0  0  0  0  0  0
  -31.4630  -13.6140   19.4540 C   0  0  0  0  0  2  0  0  0  0  0  0
  -30.6080  -13.2090   18.2280 C   0  0  0  0  0  2  0  0  0  0  0  0
  -29.1450  -12.9610   18.6390 C   0  0  0  0  0  2  0  0  0  0  0  0
  -28.6160  -14.0620   19.5920 C   0  0  0  0  0  3  0  0  0  0  0  0
  -29.6040  -14.3970   20.7280 C   0  0  0  0  0  2  0  0  0  0  0  0
  -30.8490  -14.8380   20.0800 N   0  0  0  0  0  0  0  0  0  0  0  0
  -32.6060  -16.1760   19.8240 O   0  0  0  0  0  0  0  0  0  0  0  0
  -30.5610  -17.3780   19.8390 N   0  0  0  0  0  0  0  0  0  0  0  0
  -29.5810  -17.1400   19.8970 H   0  0  0  0  0  0  0  0  0  0  0  0
  -26.2530  -14.6790   20.3290 C   0  0  0  0  0  0  0  0  0  0  0  0
  -25.1670  -13.9280   20.6780 C   0  0  0  0  0  0  0  0  0  0  0  0
  -25.5970  -12.5660   20.6350 C   0  0  0  0  0  0  0  0  0  0  0  0
  -27.2740  -13.7790   20.0840 N   0  0  0  0  0  0  0  0  0  0  0  0
  -26.8910  -12.5000   20.3370 N   0  0  0  0  0  0  0  0  0  0  0  0
  -24.8330  -11.3220   20.8000 C   0  0  0  0  0  0  0  0  0  0  0  0
  -25.1730  -10.3710   21.7870 C   0  0  0  0  0  3  0  0  0  0  0  0
  -24.4090   -9.1940   21.9390 C   0  0  0  0  0  3  0  0  0  0  0  0
  -23.2910   -8.9590   21.1030 C   0  0  0  0  0  0  0  0  0  0  0  0
  -22.9720   -9.8970   20.1060 C   0  0  0  0  0  3  0  0  0  0  0  0
  -23.7370  -11.0660   19.9520 C   0  0  0  0  0  3  0  0  0  0  0  0
  -22.5070   -7.8320   21.1620 O   0  0  0  0  0  0  0  0  0  0  0  0
  -22.2090   -7.2240   22.3550 C   0  0  0  0  0  0  0  0  0  0  0  0
  -21.5370   -7.9060   23.3920 C   0  0  0  0  0  3  0  0  0  0  0  0
  -21.1890   -7.2230   24.5750 C   0  0  0  0  0  3  0  0  0  0  0  0
  -21.5050   -5.8580   24.7180 C   0  0  0  0  0  0  0  0  0  0  0  0
  -22.1690   -5.1760   23.6840 C   0  0  0  0  0  3  0  0  0  0  0  0
  -22.5180   -5.8560   22.5050 C   0  0  0  0  0  0  0  0  0  0  0  0
  -23.1390   -5.1890   21.5030 F   0  0  0  0  0  0  0  0  0  0  0  0
  -21.1620   -5.1990   25.8510 F   0  0  0  0  0  0  0  0  0  0  0  0
  -23.7800  -14.4400   20.9330 C   0  0  0  0  0  0  0  0  0  0  0  0
  -23.0330  -13.7750   21.8060 N   0  0  0  0  0  0  0  0  0  0  0  0
  -23.3700  -15.4670   20.3920 O   0  0  0  0  0  0  0  0  0  0  0  0
  -23.3780  -12.9450   22.2640 H   0  0  0  0  0  0  0  0  0  0  0  0
  -22.1010  -14.1020   22.0200 H   0  0  0  0  0  0  0  0  0  0  0  0
  -26.4520  -16.0480   20.1690 N   0  0  0  0  0  0  0  0  0  0  0  0
  -25.6930  -16.7120   20.2710 H   0  0  0  0  0  0  0  0  0  0  0  0
  -27.2970  -16.4670   19.8060 H   0  0  0  0  0  0  0  0  0  0  0  0
  1  3  2  0
  2  4  2  0
  3  8  1  0
  4  3  1  0
  5  1  1  0
  6  2  1  0
  6  5  2  0
  8  7  1  0
  8  9  1  0
  9 10  1  0
 11  5  1  0
 11 13  1  0
 12 23  2  0
 13 18  1  0
 14 22  1  0
 14 24  1  0
 15 21  1  0
 15 17  1  0
 16 22  1  0
 17 16  1  0
 18 17  2  0
 19 20  1  0
 19 13  2  0
 20 15  2  0
 21 14  1  0
 22 12  1  0
 24 26  2  0
 25 24  1  0
 27 25  1  0
 28 37  2  0
 28 33  1  0
 29 25  1  0
 29 33  1  0
 30 29  1  0
 31 32  1  0
 31 30  1  0
 32 28  1  0
 33 34  2  0
 34 35  1  0
 36 35  2  0
 37 36  1  0
 38 12  1  0
 38 43  1  0
 38 39  1  0
 39 42  1  1
 39 40  1  0
 41 39  1  0
 43 46  1  0
 44 48  1  0
 44 43  1  0
 45 44  2  0
 48 47  1  0
 50 48  1  0
 50 51  1  0
 50 49  1  0
 52  4  1  0
 52 53  1  0
 53 62  1  0
 54 60  1  0
 55 60  1  0
 56 57  1  0
 56 55  1  0
 58 57  1  0
 58 67  1  0
 58 59  1  0
 60 59  1  0
 61 54  2  0
 62 63  1  0
 62 54  1  0
 64 65  2  0
 65 84  1  0
 66 65  1  0
 66 69  1  0
 67 64  1  0
 67 68  1  0
 68 66  2  0
 69 70  1  0
 70 71  2  0
 72 75  1  0
 72 71  1  0
 73 72  2  0
 74 73  1  0
 74 69  2  0
 75 76  1  0
 76 81  2  0
 76 77  1  0
 77 78  2  0
 78 79  1  0
 79 83  1  0
 80 79  2  0
 81 80  1  0
 82 81  1  0
 84 85  1  0
 85 88  1  0
 85 87  1  0
 86 84  2  0
 89 90  1  0
 89 64  1  0
 91 89  1  0
M  ISO  4   5 101  11 101  54 100  62 100
M  END
>  <TORSDO>  (11) 
F 20

>  <SCORE>  (11) 
-11.173

>  <name>  (11) 
10

>  <ligand_id>  (11) 
10

>  <original_smiles>  (11) 
[H]OC([H])(c1c([H])c(Oc2c([H])c([H])c3c(c2[H])C([H])([H])N(C(=O)C([H])(N([H])C(=O)C([H])(N([H])C([H])([H])[H])C([H])([H])[H])C(C([H])([H])[H])(C([H])([H])[H])C([H])([H])[H])C([H])(C(=O)N([H])C2([H])c4c([H])c([H])c([H])c([H])c4C([H])([H])C([H])([H])C2([H])[H])C3([H])[H])nc([H])c1C([H])([H])C([H])([H])N([H])C(=O)N1C([H])([H])C([H])([H])C([H])([H])C([H])(n2nc(-c3c([H])c([H])c(Oc4c([H])c([H])c(F)c([H])c4F)c([H])c3[H])c(C(=O)N([H])[H])c2N([H])[H])C1([H])[H])C([H])([H])[H]

>  <smiles>  (11) 
[H]OC([H])(c1c([H])c(Oc2c([H])c([H])c3c(c2[H])C([H])([H])N(C(=O)C([H])(N([H])C(=O)C([H])(N([H])C([H])([H])[H])C([H])([H])[H])C(C([H])([H])[H])(C([H])([H])[H])C([H])([H])[H])C([H])(C(=O)N([H])C2([H])c4c([H])c([H])c([H])c([H])c4C([H])([H])C([H])([H])C2([H])[H])C3([H])[H])nc([H])c1C([H])([H])C([H])([H])N([H])C(=O)N1C([H])([H])C([H])([H])C([H])([H])C([H])(n2nc(-c3c([H])c([H])c(Oc4c([H])c([H])c(F)c([H])c4F)c([H])c3[H])c(C(=O)N([H])[H])c2N([H])[H])C1([H])[H])C([H])([H])[H]

$$$$
11:0:0
     RDKit          3D

 95103  0  0  1  0  0  0  0  0999 V2000
  -29.8290  -23.5160   21.5090 C   0  0  0  0  0  2  0  0  0  0  0  0
  -29.6110  -25.0290   21.2700 C   0  0  0  0  0  2  0  0  0  0  0  0
  -29.5650  -23.5560   18.9660 C   0  0  0  0  0  2  0  0  0  0  0  0
  -28.2930  -24.4300   19.1420 C   0  0  0  0  0  3  0  0  0  0  0  0
  -29.8430  -22.6670   20.2070 C   0  0  0  0  0  3  0  0  0  0  0  0
  -28.3610  -25.3400   20.4140 C   0  0  0  0  0  3  0  0  0  0  0  0
  -27.0430  -23.5160   19.1320 C   0  0  0  0  0  1  0  0  0  0  0  0
  -31.0910  -21.8740   20.0460 N   0  0  0  0  0  4  0  0  0  0  0  0
  -31.8710  -22.4680   20.2830 H   0  0  0  0  0  0  0  0  0  0  0  0
  -31.2040  -21.6340   19.0750 H   0  0  0  0  0  0  0  0  0  0  0  0
  -31.1880  -20.6170   20.8420 C   0  0  0  0  0  2  0  0  0  0  0  0
  -30.6560  -19.3680   20.0850 C   0  0  0  0  0  2  0  0  0  0  0  0
  -32.2630  -17.6330   21.1210 C   0  0  0  0  0  1  0  0  0  0  0  0
  -30.7970  -17.9880   20.8020 C   0  0  1  0  0  0  0  0  0  0  0  0
  -29.8970  -18.0620   22.3420 Cl  0  0  0  0  0  0  0  0  0  0  0  0
  -30.1390  -16.8940   19.9190 C   0  0  0  0  0  2  0  0  0  0  0  0
  -30.7560  -14.4970   20.0820 C   0  0  0  0  0  0  0  0  0  0  0  0
  -30.3700  -12.3660   18.9300 C   0  0  0  0  0  2  0  0  0  0  0  0
  -29.3790  -12.6350   17.7770 C   0  0  0  0  0  2  0  0  0  0  0  0
  -27.9250  -12.5030   18.2710 C   0  0  0  0  0  2  0  0  0  0  0  0
  -27.6600  -13.3110   19.5700 C   0  0  0  0  0  3  0  0  0  0  0  0
  -28.7620  -13.0470   20.6240 C   0  0  0  0  0  2  0  0  0  0  0  0
  -30.0690  -13.3260   20.0030 N   0  0  0  0  0  0  0  0  0  0  0  0
  -31.8660  -14.6620   19.5720 O   0  0  0  0  0  0  0  0  0  0  0  0
  -30.0380  -15.5470   20.5070 N   0  0  0  0  0  0  0  0  0  0  0  0
  -29.1740  -15.3350   20.9830 H   0  0  0  0  0  0  0  0  0  0  0  0
  -25.2920  -13.9290   20.3740 C   0  0  0  0  0  0  0  0  0  0  0  0
  -24.2360  -13.1610   20.7830 C   0  0  0  0  0  0  0  0  0  0  0  0
  -24.6880  -11.8070   20.7290 C   0  0  0  0  0  0  0  0  0  0  0  0
  -26.3230  -13.0440   20.1000 N   0  0  0  0  0  0  0  0  0  0  0  0
  -25.9650  -11.7620   20.3690 N   0  0  0  0  0  0  0  0  0  0  0  0
  -23.9620  -10.5470   20.9410 C   0  0  0  0  0  0  0  0  0  0  0  0
  -24.4180   -9.5780   21.8620 C   0  0  0  0  0  3  0  0  0  0  0  0
  -23.6940   -8.3840   22.0630 C   0  0  0  0  0  3  0  0  0  0  0  0
  -22.4990   -8.1480   21.3420 C   0  0  0  0  0  0  0  0  0  0  0  0
  -22.0620   -9.1050   20.4090 C   0  0  0  0  0  3  0  0  0  0  0  0
  -22.7870  -10.2910   20.2060 C   0  0  0  0  0  3  0  0  0  0  0  0
  -21.7430   -7.0060   21.4530 O   0  0  0  0  0  0  0  0  0  0  0  0
  -21.7160   -6.2710   22.6110 C   0  0  0  0  0  0  0  0  0  0  0  0
  -21.3320   -6.8380   23.8470 C   0  0  0  0  0  3  0  0  0  0  0  0
  -21.2520   -6.0300   24.9970 C   0  0  0  0  0  3  0  0  0  0  0  0
  -21.5440   -4.6550   24.9150 C   0  0  0  0  0  0  0  0  0  0  0  0
  -21.9210   -4.0870   23.6860 C   0  0  0  0  0  3  0  0  0  0  0  0
  -22.0030   -4.8930   22.5370 C   0  0  0  0  0  0  0  0  0  0  0  0
  -22.3470   -4.3380   21.3500 F   0  0  0  0  0  0  0  0  0  0  0  0
  -21.4590   -3.8760   26.0180 F   0  0  0  0  0  0  0  0  0  0  0  0
  -22.8520  -13.6430   21.1120 C   0  0  0  0  0  0  0  0  0  0  0  0
  -22.1550  -12.9510   22.0080 N   0  0  0  0  0  0  0  0  0  0  0  0
  -22.3950  -14.6700   20.6110 O   0  0  0  0  0  0  0  0  0  0  0  0
  -22.5370  -12.1210   22.4380 H   0  0  0  0  0  0  0  0  0  0  0  0
  -21.2290  -13.2570   22.2670 H   0  0  0  0  0  0  0  0  0  0  0  0
  -25.4580  -15.3000   20.1960 N   0  0  0  0  0  0  0  0  0  0  0  0
  -24.7000  -15.9570   20.3380 H   0  0  0  0  0  0  0  0  0  0  0  0
  -26.2980  -15.7350   19.8320 H   0  0  0  0  0  0  0  0  0  0  0  0
  -28.4210  -26.7490   20.1170 O   0  0  0  0  0  0  0  0  0  0  0  0
  -24.5300  -31.8710   23.2120 C   0  0  0  0  0  0  0  0  0  0  0  0
  -27.2360  -27.4610   20.1320 C   0  0  0  0  0  0  0  0  0  0  0  0
  -23.3470  -30.4670   21.5550 C   0  0  0  0  0  3  0  0  0  0  0  0
  -24.8240  -28.9450   20.1420 C   0  0  0  0  0  0  0  0  0  0  0  0
  -25.8740  -30.8430   21.3820 C   0  0  0  0  0  2  0  0  0  0  0  0
  -25.9740  -29.4740   20.7400 C   0  0  0  0  0  0  0  0  0  0  0  0
  -27.1820  -28.7390   20.7330 C   0  0  0  0  0  3  0  0  0  0  0  0
  -26.0690  -26.9590   19.5160 C   0  0  0  0  0  3  0  0  0  0  0  0
  -24.8650  -27.6830   19.5280 C   0  0  0  0  0  3  0  0  0  0  0  0
  -23.5750  -29.7950   20.1760 C   0  0  0  0  0  2  0  0  0  0  0  0
  -24.6020  -31.0760   22.1080 N   0  0  0  0  0  0  0  0  0  0  0  0
  -23.4420  -32.1300   23.7440 O   0  0  0  0  0  0  0  0  0  0  0  0
  -22.6970  -29.4360   22.5050 C   0  0  0  0  0  0  0  0  0  0  0  0
  -21.3770  -29.2360   22.3580 N   0  0  0  0  0  0  0  0  0  0  0  0
  -23.3770  -28.8190   23.3290 O   0  0  0  0  0  0  0  0  0  0  0  0
  -20.8890  -29.7880   21.6650 H   0  0  0  0  0  0  0  0  0  0  0  0
  -18.0140  -27.9790   22.7810 C   0  0  0  0  0  0  0  0  0  0  0  0
  -20.5600  -28.2880   23.1150 C   0  0  0  0  0  3  0  0  0  0  0  0
  -20.7040  -26.8550   22.5550 C   0  0  0  0  0  2  0  0  0  0  0  0
  -19.6340  -26.5040   21.5150 C   0  0  0  0  0  2  0  0  0  0  0  0
  -18.2350  -26.6280   22.1230 C   0  0  0  0  0  2  0  0  0  0  0  0
  -19.1080  -28.7660   23.2330 C   0  0  0  0  0  0  0  0  0  0  0  0
  -18.8500  -30.0310   23.8030 C   0  0  0  0  0  3  0  0  0  0  0  0
  -17.5330  -30.5090   23.9320 C   0  0  0  0  0  3  0  0  0  0  0  0
  -16.4530  -29.7200   23.4970 C   0  0  0  0  0  3  0  0  0  0  0  0
  -16.6960  -28.4570   22.9280 C   0  0  0  0  0  3  0  0  0  0  0  0
  -25.8060  -32.5080   23.8450 C   0  0  0  0  0  3  0  0  0  0  0  0
  -25.4850  -33.9020   24.1750 N   0  0  0  0  0  0  0  0  0  0  0  0
  -25.8230  -34.9590   23.4240 C   0  0  0  0  0  0  0  0  0  0  0  0
  -26.5100  -34.8620   22.4030 O   0  0  0  0  0  0  0  0  0  0  0  0
  -24.8790  -34.0510   24.9690 H   0  0  0  0  0  0  0  0  0  0  0  0
  -24.0890  -36.7410   23.0480 C   0  0  0  0  0  1  0  0  0  0  0  0
  -25.3210  -36.3430   23.8780 C   0  0  0  0  0  3  0  0  0  0  0  0
  -27.4390  -37.2330   24.7410 C   0  0  0  0  0  1  0  0  0  0  0  0
  -26.3480  -37.4030   23.7850 N   0  0  0  0  0  0  0  0  0  0  0  0
  -25.9350  -38.3190   23.9330 H   0  0  0  0  0  0  0  0  0  0  0  0
  -26.3200  -31.7350   25.1230 C   0  0  1  0  0  0  0  0  0  0  0  0
  -25.2230  -31.4850   26.1830 C   0  0  0  0  0  1  0  0  0  0  0  0
  -26.9160  -30.3640   24.7260 C   0  0  0  0  0  1  0  0  0  0  0  0
  -27.4610  -32.5350   25.7960 C   0  0  0  0  0  1  0  0  0  0  0  0
  2  1  1  0
  3  4  1  0
  3  5  1  0
  4  7  1  0
  4  6  1  0
  5  8  1  0
  5  1  1  0
  6 55  1  0
  6  2  1  0
  8  9  1  0
  8 11  1  0
 10  8  1  0
 12 14  1  0
 12 11  1  0
 14 13  1  1
 14 15  1  0
 16 25  1  0
 16 14  1  0
 17 25  1  0
 18 23  1  0
 19 20  1  0
 19 18  1  0
 21 20  1  0
 21 30  1  0
 21 22  1  0
 23 17  1  0
 23 22  1  0
 24 17  2  0
 25 26  1  0
 27 28  2  0
 28 47  1  0
 29 28  1  0
 29 32  1  0
 30 31  1  0
 30 27  1  0
 31 29  2  0
 32 33  1  0
 33 34  2  0
 35 38  1  0
 35 34  1  0
 36 35  2  0
 37 36  1  0
 37 32  2  0
 38 39  1  0
 39 40  1  0
 40 41  2  0
 42 41  1  0
 42 46  1  0
 43 42  2  0
 44 39  2  0
 44 43  1  0
 45 44  1  0
 47 48  1  0
 48 51  1  0
 48 50  1  0
 49 47  2  0
 52 53  1  0
 52 27  1  0
 54 52  1  0
 55 57  1  0
 56 67  2  0
 57 62  1  0
 58 66  1  0
 58 68  1  0
 59 65  1  0
 59 61  1  0
 60 66  1  0
 61 60  1  0
 62 61  2  0
 63 64  1  0
 63 57  2  0
 64 59  2  0
 65 58  1  0
 66 56  1  0
 68 70  2  0
 69 68  1  0
 71 69  1  0
 72 81  2  0
 72 77  1  0
 73 69  1  0
 73 77  1  0
 74 73  1  0
 75 76  1  0
 75 74  1  0
 76 72  1  0
 77 78  2  0
 78 79  1  0
 80 79  2  0
 81 80  1  0
 82 56  1  0
 82 83  1  0
 82 92  1  0
 83 86  1  0
 84 88  1  0
 84 83  1  0
 85 84  2  0
 88 87  1  0
 90 88  1  0
 90 91  1  0
 90 89  1  0
 92 95  1  1
 92 93  1  0
 94 92  1  0
M  ISO  4   6 101  17 100  25 100  55 101
M  END
>  <TORSDO>  (12) 
F 21

>  <SCORE>  (12) 
-12.748

>  <name>  (12) 
11

>  <ligand_id>  (12) 
11

>  <original_smiles>  (12) 
[H]c1c([H])c([H])c2c(c1[H])C([H])([H])C([H])([H])C([H])([H])C2([H])N([H])C(=O)C1([H])N(C(=O)C([H])(N([H])C(=O)C([H])(N([H])C([H])([H])[H])C([H])([H])[H])C(C([H])([H])[H])(C([H])([H])[H])C([H])([H])[H])C([H])([H])c2c([H])c(OC3([H])C([H])([H])C([H])([H])C([H])([N+]([H])([H])C([H])([H])C([H])([H])C(Cl)(C([H])([H])[H])C([H])([H])N([H])C(=O)N4C([H])([H])C([H])([H])C([H])([H])C([H])(n5nc(-c6c([H])c([H])c(Oc7c([H])c([H])c(F)c([H])c7F)c([H])c6[H])c(C(=O)N([H])[H])c5N([H])[H])C4([H])[H])C([H])([H])C3([H])C([H])([H])[H])c([H])c([H])c2C1([H])[H]

>  <smiles>  (12) 
[H]c1c([H])c([H])c2c(c1[H])C([H])([H])C([H])([H])C([H])([H])C2([H])N([H])C(=O)C1([H])N(C(=O)C([H])(N([H])C(=O)C([H])(N([H])C([H])([H])[H])C([H])([H])[H])C(C([H])([H])[H])(C([H])([H])[H])C([H])([H])[H])C([H])([H])c2c([H])c(OC3([H])C([H])([H])C([H])([H])C([H])([N+]([H])([H])C([H])([H])C([H])([H])C(Cl)(C([H])([H])[H])C([H])([H])N([H])C(=O)N4C([H])([H])C([H])([H])C([H])([H])C([H])(n5nc(-c6c([H])c([H])c(Oc7c([H])c([H])c(F)c([H])c7F)c([H])c6[H])c(C(=O)N([H])[H])c5N([H])[H])C4([H])[H])C([H])([H])C3([H])C([H])([H])[H])c([H])c([H])c2C1([H])[H]

$$$$
12:0:0
     RDKit          3D

 91100  0  0  1  0  0  0  0  0999 V2000
  -28.6280  -20.2380   19.3370 C   0  0  0  0  0  3  0  0  0  0  0  0
  -29.4610  -22.1980   21.0910 C   0  0  0  0  0  3  0  0  0  0  0  0
  -29.4640  -19.6490   20.3600 C   0  0  0  0  0  0  0  0  0  0  0  0
  -28.2300  -21.6630   19.2080 C   0  0  0  0  0  0  0  0  0  0  0  0
  -28.5890  -22.7790   20.0920 C   0  0  0  0  0  0  0  0  0  0  0  0
  -29.8720  -20.7670   21.2210 C   0  0  0  0  0  0  0  0  0  0  0  0
  -27.2950  -21.9720   18.0520 C   0  0  0  0  0  1  0  0  0  0  0  0
  -30.5830  -15.2010   19.9840 C   0  0  0  0  0  0  0  0  0  0  0  0
  -30.5330  -12.8190   18.9560 C   0  0  0  0  0  2  0  0  0  0  0  0
  -29.5130  -12.6770   17.7960 C   0  0  0  0  0  2  0  0  0  0  0  0
  -28.0960  -12.3850   18.3260 C   0  0  0  0  0  2  0  0  0  0  0  0
  -27.7360  -13.2830   19.5340 C   0  0  0  0  0  3  0  0  0  0  0  0
  -28.8670  -13.3190   20.5780 C   0  0  0  0  0  2  0  0  0  0  0  0
  -30.0490  -13.8860   19.9000 N   0  0  0  0  0  0  0  0  0  0  0  0
  -31.7430  -15.2990   19.5560 O   0  0  0  0  0  0  0  0  0  0  0  0
  -30.2160  -17.5570   22.1410 C   0  0  0  0  0  2  0  0  0  0  0  0
  -29.5630  -16.1940   21.8910 C   0  0  0  0  0  2  0  0  0  0  0  0
  -29.6220  -17.9820   20.8250 C   0  0  0  0  0  3  0  0  0  0  0  0
  -29.7870  -16.3620   20.4280 N   0  0  0  0  0  0  0  0  0  0  0  0
  -25.4230  -13.7960   20.4880 C   0  0  0  0  0  0  0  0  0  0  0  0
  -24.3960  -12.9930   20.9010 C   0  0  0  0  0  0  0  0  0  0  0  0
  -24.8660  -11.6500   20.7720 C   0  0  0  0  0  0  0  0  0  0  0  0
  -26.4480  -12.9400   20.1240 N   0  0  0  0  0  0  0  0  0  0  0  0
  -26.1290  -11.6400   20.3620 N   0  0  0  0  0  0  0  0  0  0  0  0
  -24.1630  -10.3740   20.9600 C   0  0  0  0  0  0  0  0  0  0  0  0
  -24.6260   -9.4020   21.8740 C   0  0  0  0  0  3  0  0  0  0  0  0
  -23.9190   -8.1910   22.0500 C   0  0  0  0  0  3  0  0  0  0  0  0
  -22.7380   -7.9440   21.3110 C   0  0  0  0  0  0  0  0  0  0  0  0
  -22.2960   -8.9060   20.3850 C   0  0  0  0  0  3  0  0  0  0  0  0
  -23.0020  -10.1070   20.2060 C   0  0  0  0  0  3  0  0  0  0  0  0
  -22.0020   -6.7870   21.3970 O   0  0  0  0  0  0  0  0  0  0  0  0
  -21.9140   -6.0760   22.5660 C   0  0  0  0  0  0  0  0  0  0  0  0
  -21.4290   -6.6560   23.7580 C   0  0  0  0  0  3  0  0  0  0  0  0
  -21.2900   -5.8700   24.9190 C   0  0  0  0  0  3  0  0  0  0  0  0
  -21.6260   -4.5040   24.8890 C   0  0  0  0  0  0  0  0  0  0  0  0
  -22.1060   -3.9220   23.7020 C   0  0  0  0  0  3  0  0  0  0  0  0
  -22.2460   -4.7060   22.5430 C   0  0  0  0  0  0  0  0  0  0  0  0
  -22.6880   -4.1350   21.3960 F   0  0  0  0  0  0  0  0  0  0  0  0
  -21.4860   -3.7460   26.0010 F   0  0  0  0  0  0  0  0  0  0  0  0
  -23.0200  -13.4450   21.2950 C   0  0  0  0  0  0  0  0  0  0  0  0
  -22.3720  -12.7180   22.1980 N   0  0  0  0  0  0  0  0  0  0  0  0
  -22.5310  -14.4780   20.8390 O   0  0  0  0  0  0  0  0  0  0  0  0
  -22.7820  -11.8810   22.5870 H   0  0  0  0  0  0  0  0  0  0  0  0
  -21.4520  -13.0010   22.5050 H   0  0  0  0  0  0  0  0  0  0  0  0
  -25.5650  -15.1750   20.3660 N   0  0  0  0  0  0  0  0  0  0  0  0
  -24.8070  -15.8170   20.5690 H   0  0  0  0  0  0  0  0  0  0  0  0
  -26.3920  -15.6370   20.0090 H   0  0  0  0  0  0  0  0  0  0  0  0
  -31.0880  -21.3280   23.2440 C   0  0  0  0  0  1  0  0  0  0  0  0
  -30.6810  -20.3750   22.2690 O   0  0  0  0  0  0  0  0  0  0  0  0
  -27.8320  -24.3410   20.0230 C   0  0  0  0  0  2  0  0  0  0  0  0
  -28.2060  -25.8840   20.3420 O   0  0  0  0  0  0  0  0  0  0  0  0
  -24.6570  -31.8380   23.2470 C   0  0  0  0  0  0  0  0  0  0  0  0
  -27.2130  -26.9810   20.2550 C   0  0  0  0  0  0  0  0  0  0  0  0
  -23.4640  -30.4430   21.6070 C   0  0  0  0  0  3  0  0  0  0  0  0
  -24.9150  -28.8400   20.1960 C   0  0  0  0  0  0  0  0  0  0  0  0
  -26.0310  -30.6550   21.4710 C   0  0  0  0  0  2  0  0  0  0  0  0
  -26.0990  -29.2480   20.8210 C   0  0  0  0  0  0  0  0  0  0  0  0
  -27.2450  -28.3380   20.8300 C   0  0  0  0  0  3  0  0  0  0  0  0
  -25.9970  -26.7190   19.5790 C   0  0  0  0  0  3  0  0  0  0  0  0
  -24.8850  -27.5930   19.5570 C   0  0  0  0  0  3  0  0  0  0  0  0
  -23.6960  -29.7590   20.2330 C   0  0  0  0  0  2  0  0  0  0  0  0
  -24.7390  -31.0040   22.1620 N   0  0  0  0  0  0  0  0  0  0  0  0
  -23.5670  -32.1340   23.7620 O   0  0  0  0  0  0  0  0  0  0  0  0
  -22.7630  -29.4500   22.5700 C   0  0  0  0  0  0  0  0  0  0  0  0
  -21.4340  -29.2910   22.4410 N   0  0  0  0  0  0  0  0  0  0  0  0
  -23.4230  -28.8220   23.4040 O   0  0  0  0  0  0  0  0  0  0  0  0
  -20.9550  -29.8480   21.7460 H   0  0  0  0  0  0  0  0  0  0  0  0
  -18.0420  -28.1050   22.9380 C   0  0  0  0  0  0  0  0  0  0  0  0
  -20.6020  -28.3600   23.2110 C   0  0  0  0  0  3  0  0  0  0  0  0
  -20.6980  -26.9240   22.6430 C   0  0  0  0  0  2  0  0  0  0  0  0
  -19.5990  -26.6030   21.6270 C   0  0  0  0  0  2  0  0  0  0  0  0
  -18.2150  -26.7540   22.2640 C   0  0  0  0  0  2  0  0  0  0  0  0
  -19.1620  -28.8660   23.3690 C   0  0  0  0  0  0  0  0  0  0  0  0
  -18.9440  -30.1280   23.9620 C   0  0  0  0  0  3  0  0  0  0  0  0
  -17.6410  -30.6310   24.1270 C   0  0  0  0  0  3  0  0  0  0  0  0
  -16.5340  -29.8700   23.7110 C   0  0  0  0  0  3  0  0  0  0  0  0
  -16.7360  -28.6070   23.1240 C   0  0  0  0  0  3  0  0  0  0  0  0
  -25.9300  -32.4760   23.8820 C   0  0  0  0  0  3  0  0  0  0  0  0
  -25.6130  -33.8750   24.2200 N   0  0  0  0  0  0  0  0  0  0  0  0
  -25.9270  -34.9360   23.4630 C   0  0  0  0  0  0  0  0  0  0  0  0
  -26.5770  -34.8400   22.4190 O   0  0  0  0  0  0  0  0  0  0  0  0
  -25.0370  -34.0240   25.0350 H   0  0  0  0  0  0  0  0  0  0  0  0
  -24.1760  -36.7220   23.1720 C   0  0  0  0  0  1  0  0  0  0  0  0
  -25.4460  -36.3220   23.9400 C   0  0  0  0  0  3  0  0  0  0  0  0
  -27.6010  -37.2240   24.7010 C   0  0  0  0  0  1  0  0  0  0  0  0
  -26.4680  -37.3840   23.7930 N   0  0  0  0  0  0  0  0  0  0  0  0
  -26.0590  -38.3000   23.9550 H   0  0  0  0  0  0  0  0  0  0  0  0
  -26.4300  -31.7080   25.1680 C   0  0  1  0  0  0  0  0  0  0  0  0
  -25.3260  -31.4760   26.2260 C   0  0  0  0  0  1  0  0  0  0  0  0
  -27.0180  -30.3290   24.7930 C   0  0  0  0  0  1  0  0  0  0  0  0
  -27.5750  -32.5040   25.8390 C   0  0  0  0  0  1  0  0  0  0  0  0
  1  3  1  0
  2  6  1  0
  3  6  2  0
  4  1  2  0
  4  5  1  0
  5  2  2  0
  6 49  1  0
  7  4  1  0
  8 19  1  0
  9 14  1  0
 10 11  1  0
 10  9  1  0
 12 11  1  0
 12 23  1  0
 12 13  1  0
 14  8  1  0
 14 13  1  0
 15  8  2  0
 17 16  1  0
 18  3  1  0
 18 16  1  0
 19 18  1  0
 19 17  1  0
 20 21  2  0
 21 40  1  0
 22 21  1  0
 22 25  1  0
 23 24  1  0
 23 20  1  0
 24 22  2  0
 25 26  1  0
 26 27  2  0
 28 31  1  0
 28 27  1  0
 29 28  2  0
 30 29  1  0
 30 25  2  0
 31 32  1  0
 32 33  1  0
 33 34  2  0
 35 34  1  0
 35 39  1  0
 36 35  2  0
 37 32  2  0
 37 36  1  0
 38 37  1  0
 40 41  1  0
 41 44  1  0
 41 43  1  0
 42 40  2  0
 45 20  1  0
 45 46  1  0
 47 45  1  0
 49 48  1  0
 50  5  1  0
 50 51  1  0
 52 63  2  0
 53 51  1  0
 53 58  1  0
 54 62  1  0
 54 64  1  0
 55 61  1  0
 55 57  1  0
 56 62  1  0
 57 58  2  0
 57 56  1  0
 59 53  2  0
 60 59  1  0
 60 55  2  0
 61 54  1  0
 62 52  1  0
 64 66  2  0
 65 64  1  0
 67 65  1  0
 68 77  2  0
 68 73  1  0
 69 65  1  0
 69 73  1  0
 70 69  1  0
 71 72  1  0
 71 70  1  0
 72 68  1  0
 73 74  2  0
 74 75  1  0
 76 75  2  0
 77 76  1  0
 78 52  1  0
 78 79  1  0
 78 88  1  0
 79 82  1  0
 80 84  1  0
 80 79  1  0
 81 80  2  0
 84 83  1  0
 86 84  1  0
 86 87  1  0
 86 85  1  0
 88 91  1  1
 88 89  1  0
 90 88  1  0
M  ISO  4   8 100  19 100  50 101  51 101
M  END
>  <TORSDO>  (13) 
F 18

>  <SCORE>  (13) 
-15.117

>  <name>  (13) 
12

>  <ligand_id>  (13) 
12

>  <original_smiles>  (13) 
[H]c1c([H])c([H])c2c(c1[H])C([H])([H])C([H])([H])C([H])([H])C2([H])N([H])C(=O)C1([H])N(C(=O)C([H])(N([H])C(=O)C([H])(N([H])C([H])([H])[H])C([H])([H])[H])C(C([H])([H])[H])(C([H])([H])[H])C([H])([H])[H])C([H])([H])c2c([H])c(OC([H])([H])c3c([H])c(OC([H])([H])[H])c(C4([H])N(C(=O)N5C([H])([H])C([H])([H])C([H])([H])C([H])(n6nc(-c7c([H])c([H])c(Oc8c([H])c([H])c(F)c([H])c8F)c([H])c7[H])c(C(=O)N([H])[H])c6N([H])[H])C5([H])[H])C([H])([H])C4([H])[H])c([H])c3C([H])([H])[H])c([H])c([H])c2C1([H])[H]

>  <smiles>  (13) 
[H]c1c([H])c([H])c2c(c1[H])C([H])([H])C([H])([H])C([H])([H])C2([H])N([H])C(=O)C1([H])N(C(=O)C([H])(N([H])C(=O)C([H])(N([H])C([H])([H])[H])C([H])([H])[H])C(C([H])([H])[H])(C([H])([H])[H])C([H])([H])[H])C([H])([H])c2c([H])c(OC([H])([H])c3c([H])c(OC([H])([H])[H])c(C4([H])N(C(=O)N5C([H])([H])C([H])([H])C([H])([H])C([H])(n6nc(-c7c([H])c([H])c(Oc8c([H])c([H])c(F)c([H])c8F)c([H])c7[H])c(C(=O)N([H])[H])c6N([H])[H])C5([H])[H])C([H])([H])C4([H])[H])c([H])c3C([H])([H])[H])c([H])c([H])c2C1([H])[H]

$$$$
13:0:0
     RDKit          3D

 89 97  0  0  1  0  0  0  0  0999 V2000
  -28.5260  -21.6880   20.1210 C   0  0  0  0  0  2  0  0  0  0  0  0
  -30.4850  -18.4220   19.1020 C   0  0  0  0  0  2  0  0  0  0  0  0
  -30.3380  -20.0030   19.1910 C   0  0  0  0  0  2  0  0  0  0  0  0
  -28.9140  -18.9870   20.7340 C   0  0  0  0  0  2  0  0  0  0  0  0
  -30.0060  -17.7910   20.4260 C   0  0  0  0  0  3  0  0  0  0  0  0
  -29.4540  -20.3940   20.3330 N   0  0  2  0  0  4  0  0  0  0  0  0
  -30.0720  -20.6370   21.0940 H   0  0  0  0  0  0  0  0  0  0  0  0
  -30.4910  -15.0390   20.3110 C   0  0  0  0  0  0  0  0  0  0  0  0
  -30.3780  -12.6830   19.3720 C   0  0  0  0  0  2  0  0  0  0  0  0
  -29.4360  -12.6320   18.1460 C   0  0  0  0  0  2  0  0  0  0  0  0
  -27.9750  -12.4150   18.5880 C   0  0  0  0  0  2  0  0  0  0  0  0
  -27.5750  -13.3310   19.7750 C   0  0  0  0  0  3  0  0  0  0  0  0
  -28.6410  -13.3550   20.8900 C   0  0  0  0  0  2  0  0  0  0  0  0
  -29.9010  -13.7750   20.2650 N   0  0  0  0  0  0  0  0  0  0  0  0
  -31.6940  -15.1040   20.0410 O   0  0  0  0  0  0  0  0  0  0  0  0
  -29.7020  -16.2220   20.4480 N   0  0  0  0  0  0  0  0  0  0  0  0
  -28.7280  -16.0090   20.6020 H   0  0  0  0  0  0  0  0  0  0  0  0
  -25.2090  -13.9010   20.5580 C   0  0  0  0  0  0  0  0  0  0  0  0
  -24.1490  -13.1220   20.9350 C   0  0  0  0  0  0  0  0  0  0  0  0
  -24.6130  -11.7720   20.8800 C   0  0  0  0  0  0  0  0  0  0  0  0
  -26.2470  -13.0250   20.2900 N   0  0  0  0  0  0  0  0  0  0  0  0
  -25.8990  -11.7390   20.5480 N   0  0  0  0  0  0  0  0  0  0  0  0
  -23.8870  -10.5080   21.0610 C   0  0  0  0  0  0  0  0  0  0  0  0
  -24.3190   -9.5350   21.9890 C   0  0  0  0  0  3  0  0  0  0  0  0
  -23.5930   -8.3360   22.1600 C   0  0  0  0  0  3  0  0  0  0  0  0
  -22.4210   -8.1020   21.4020 C   0  0  0  0  0  0  0  0  0  0  0  0
  -22.0090   -9.0640   20.4640 C   0  0  0  0  0  3  0  0  0  0  0  0
  -22.7340  -10.2540   20.2910 C   0  0  0  0  0  3  0  0  0  0  0  0
  -21.6650   -6.9570   21.4830 O   0  0  0  0  0  0  0  0  0  0  0  0
  -21.6010   -6.2160   22.6360 C   0  0  0  0  0  0  0  0  0  0  0  0
  -21.1290   -6.7630   23.8490 C   0  0  0  0  0  3  0  0  0  0  0  0
  -21.0160   -5.9470   24.9920 C   0  0  0  0  0  3  0  0  0  0  0  0
  -21.3640   -4.5840   24.9230 C   0  0  0  0  0  0  0  0  0  0  0  0
  -21.8300   -4.0370   23.7150 C   0  0  0  0  0  3  0  0  0  0  0  0
  -21.9450   -4.8510   22.5740 C   0  0  0  0  0  0  0  0  0  0  0  0
  -22.3750   -4.3130   21.4070 F   0  0  0  0  0  0  0  0  0  0  0  0
  -21.2490   -3.7990   26.0190 F   0  0  0  0  0  0  0  0  0  0  0  0
  -22.7570  -13.5960   21.2270 C   0  0  0  0  0  0  0  0  0  0  0  0
  -22.0410  -12.8940   22.0960 N   0  0  0  0  0  0  0  0  0  0  0  0
  -22.3140  -14.6260   20.7200 O   0  0  0  0  0  0  0  0  0  0  0  0
  -22.4140  -12.0620   22.5300 H   0  0  0  0  0  0  0  0  0  0  0  0
  -21.1040  -13.1890   22.3310 H   0  0  0  0  0  0  0  0  0  0  0  0
  -25.3700  -15.2740   20.3930 N   0  0  0  0  0  0  0  0  0  0  0  0
  -24.5950  -15.9200   20.4950 H   0  0  0  0  0  0  0  0  0  0  0  0
  -26.1890  -15.7070   19.9890 H   0  0  0  0  0  0  0  0  0  0  0  0
  -30.3010  -23.5620   19.5640 C   0  0  0  0  0  1  0  0  0  0  0  0
  -28.9900  -23.3180   20.3280 C   0  0  0  0  0  3  0  0  0  0  0  0
  -27.9760  -24.6580   20.0310 C   0  0  0  0  0  2  0  0  0  0  0  0
  -28.2330  -26.1890   20.2730 O   0  0  0  0  0  0  0  0  0  0  0  0
  -24.6180  -31.9180   23.2390 C   0  0  0  0  0  0  0  0  0  0  0  0
  -27.1820  -27.1840   20.2020 C   0  0  0  0  0  0  0  0  0  0  0  0
  -23.4150  -30.5300   21.5960 C   0  0  0  0  0  3  0  0  0  0  0  0
  -24.8570  -28.9460   20.1720 C   0  0  0  0  0  0  0  0  0  0  0  0
  -25.9710  -30.7800   21.4370 C   0  0  0  0  0  2  0  0  0  0  0  0
  -26.0390  -29.3860   20.7820 C   0  0  0  0  0  0  0  0  0  0  0  0
  -27.2000  -28.5210   20.7800 C   0  0  0  0  0  3  0  0  0  0  0  0
  -25.9730  -26.8530   19.5500 C   0  0  0  0  0  3  0  0  0  0  0  0
  -24.8390  -27.6940   19.5400 C   0  0  0  0  0  3  0  0  0  0  0  0
  -23.6350  -29.8520   20.2170 C   0  0  0  0  0  2  0  0  0  0  0  0
  -24.6880  -31.0980   22.1450 N   0  0  0  0  0  0  0  0  0  0  0  0
  -23.5320  -32.2050   23.7650 O   0  0  0  0  0  0  0  0  0  0  0  0
  -22.7300  -29.5250   22.5560 C   0  0  0  0  0  0  0  0  0  0  0  0
  -21.4010  -29.3620   22.4270 N   0  0  0  0  0  0  0  0  0  0  0  0
  -23.3970  -28.8950   23.3810 O   0  0  0  0  0  0  0  0  0  0  0  0
  -20.9210  -29.9220   21.7390 H   0  0  0  0  0  0  0  0  0  0  0  0
  -18.0110  -28.1890   22.9370 C   0  0  0  0  0  0  0  0  0  0  0  0
  -20.5740  -28.4280   23.1960 C   0  0  0  0  0  3  0  0  0  0  0  0
  -20.6590  -26.9970   22.6140 C   0  0  0  0  0  2  0  0  0  0  0  0
  -19.5500  -26.6900   21.6020 C   0  0  0  0  0  2  0  0  0  0  0  0
  -18.1720  -26.8420   22.2510 C   0  0  0  0  0  2  0  0  0  0  0  0
  -19.1370  -28.9400   23.3650 C   0  0  0  0  0  0  0  0  0  0  0  0
  -18.9290  -30.1990   23.9670 C   0  0  0  0  0  3  0  0  0  0  0  0
  -17.6280  -30.7060   24.1460 C   0  0  0  0  0  3  0  0  0  0  0  0
  -16.5170  -29.9530   23.7310 C   0  0  0  0  0  3  0  0  0  0  0  0
  -16.7090  -28.6960   23.1310 C   0  0  0  0  0  3  0  0  0  0  0  0
  -25.8970  -32.5480   23.8690 C   0  0  0  0  0  3  0  0  0  0  0  0
  -26.4020  -31.7720   25.1500 C   0  0  1  0  0  0  0  0  0  0  0  0
  -25.3010  -31.5360   26.2100 C   0  0  0  0  0  1  0  0  0  0  0  0
  -26.9830  -30.3930   24.7640 C   0  0  0  0  0  1  0  0  0  0  0  0
  -27.5470  -32.5640   25.8210 C   0  0  0  0  0  1  0  0  0  0  0  0
  -25.5870  -33.9450   24.2080 N   0  0  0  0  0  0  0  0  0  0  0  0
  -25.8950  -35.0050   23.4460 C   0  0  0  0  0  0  0  0  0  0  0  0
  -26.5360  -34.9060   22.3970 O   0  0  0  0  0  0  0  0  0  0  0  0
  -25.0150  -34.0930   25.0270 H   0  0  0  0  0  0  0  0  0  0  0  0
  -24.1410  -36.7900   23.1620 C   0  0  0  0  0  1  0  0  0  0  0  0
  -25.4180  -36.3920   23.9220 C   0  0  0  0  0  3  0  0  0  0  0  0
  -27.5750  -37.2990   24.6710 C   0  0  0  0  0  1  0  0  0  0  0  0
  -26.4380  -37.4520   23.7670 N   0  0  0  0  0  0  0  0  0  0  0  0
  -26.0310  -38.3710   23.9190 H   0  0  0  0  0  0  0  0  0  0  0  0
  1 47  1  0
  1  6  1  0
  2  3  1  0
  2  5  1  0
  3  6  1  0
  5 16  1  0
  5  4  1  0
  6  4  1  0
  6  7  1  1
  8 16  1  0
  9 14  1  0
 10 11  1  0
 10  9  1  0
 12 11  1  0
 12 21  1  0
 12 13  1  0
 14  8  1  0
 14 13  1  0
 15  8  2  0
 16 17  1  0
 18 19  2  0
 19 38  1  0
 20 19  1  0
 20 23  1  0
 21 22  1  0
 21 18  1  0
 22 20  2  0
 23 24  1  0
 24 25  2  0
 26 29  1  0
 26 25  1  0
 27 26  2  0
 28 27  1  0
 28 23  2  0
 29 30  1  0
 30 31  1  0
 31 32  2  0
 33 32  1  0
 33 37  1  0
 34 33  2  0
 35 30  2  0
 35 34  1  0
 36 35  1  0
 38 39  1  0
 39 42  1  0
 39 41  1  0
 40 38  2  0
 43 44  1  0
 43 18  1  0
 45 43  1  0
 47 46  1  0
 48 49  1  0
 48 47  1  0
 50 61  2  0
 51 49  1  0
 51 56  1  0
 52 60  1  0
 52 62  1  0
 53 59  1  0
 53 55  1  0
 54 60  1  0
 55 54  1  0
 56 55  2  0
 57 51  2  0
 58 57  1  0
 58 53  2  0
 59 52  1  0
 60 50  1  0
 62 64  2  0
 63 62  1  0
 65 63  1  0
 66 75  2  0
 66 71  1  0
 67 63  1  0
 67 71  1  0
 68 67  1  0
 69 70  1  0
 69 68  1  0
 70 66  1  0
 71 72  2  0
 72 73  1  0
 74 73  2  0
 75 74  1  0
 76 50  1  0
 76 81  1  0
 76 77  1  0
 77 80  1  1
 77 78  1  0
 79 77  1  0
 81 84  1  0
 82 86  1  0
 82 81  1  0
 83 82  2  0
 86 85  1  0
 88 89  1  0
 88 86  1  0
 88 87  1  0
M  ISO  4   8 100  16 100  48 101  49 101
M  END
>  <TORSDO>  (14) 
F 19

>  <SCORE>  (14) 
-15.301

>  <name>  (14) 
13

>  <ligand_id>  (14) 
13

>  <original_smiles>  (14) 
[H]c1c([H])c([H])c2c(c1[H])C([H])([H])C([H])([H])C([H])([H])C2([H])N([H])C(=O)C1([H])N(C(=O)C([H])(N([H])C(=O)C([H])(N([H])C([H])([H])[H])C([H])([H])[H])C(C([H])([H])[H])(C([H])([H])[H])C([H])([H])[H])C([H])([H])c2c([H])c(OC([H])([H])C([H])(C([H])([H])[H])C([H])([H])[N+]3([H])C([H])([H])C([H])([H])C([H])(N([H])C(=O)N4C([H])([H])C([H])([H])C([H])([H])C([H])(n5nc(-c6c([H])c([H])c(Oc7c([H])c([H])c(F)c([H])c7F)c([H])c6[H])c(C(=O)N([H])[H])c5N([H])[H])C4([H])[H])C3([H])[H])c([H])c([H])c2C1([H])[H]

>  <smiles>  (14) 
[H]c1c([H])c([H])c2c(c1[H])C([H])([H])C([H])([H])C([H])([H])C2([H])N([H])C(=O)C1([H])N(C(=O)C([H])(N([H])C(=O)C([H])(N([H])C([H])([H])[H])C([H])([H])[H])C(C([H])([H])[H])(C([H])([H])[H])C([H])([H])[H])C([H])([H])c2c([H])c(OC([H])([H])C([H])(C([H])([H])[H])C([H])([H])[N+]3([H])C([H])([H])C([H])([H])C([H])(N([H])C(=O)N4C([H])([H])C([H])([H])C([H])([H])C([H])(n5nc(-c6c([H])c([H])c(Oc7c([H])c([H])c(F)c([H])c7F)c([H])c6[H])c(C(=O)N([H])[H])c5N([H])[H])C4([H])[H])C3([H])[H])c([H])c([H])c2C1([H])[H]

$$$$
14:0:0
     RDKit          3D

 90 98  0  0  1  0  0  0  0  0999 V2000
  -29.2500  -21.3660   19.4200 C   0  0  0  0  0  3  0  0  0  0  0  0
  -30.0170  -22.4550   21.0730 C   0  0  0  0  0  3  0  0  0  0  0  0
  -29.2280  -22.8030   19.9890 C   0  0  0  0  0  0  0  0  0  0  0  0
  -29.9710  -20.2630   20.0740 C   0  0  0  0  0  0  0  0  0  0  0  0
  -30.4760  -21.0800   21.1150 N   0  0  0  0  0  0  0  0  0  0  0  0
  -30.5630  -20.2260   23.4140 C   0  0  0  0  0  1  0  0  0  0  0  0
  -32.5260  -21.5300   22.4760 C   0  0  0  0  0  1  0  0  0  0  0  0
  -31.3690  -20.5650   22.1560 C   0  0  0  0  0  3  0  0  0  0  0  0
  -28.8230  -24.5990   18.0650 C   0  0  0  0  0  1  0  0  0  0  0  0
  -28.4340  -24.3660   19.5360 C   0  0  0  0  0  3  0  0  0  0  0  0
  -28.4700  -25.9490   20.0740 O   0  0  0  0  0  0  0  0  0  0  0  0
  -24.7830  -31.7780   23.2650 C   0  0  0  0  0  0  0  0  0  0  0  0
  -27.4570  -27.0680   19.9940 C   0  0  0  0  0  0  0  0  0  0  0  0
  -23.6240  -30.4420   21.5560 C   0  0  0  0  0  3  0  0  0  0  0  0
  -25.1110  -28.9280   20.0540 C   0  0  0  0  0  0  0  0  0  0  0  0
  -26.1910  -30.6850   21.4420 C   0  0  0  0  0  2  0  0  0  0  0  0
  -26.2880  -29.3100   20.7100 C   0  0  0  0  0  0  0  0  0  0  0  0
  -27.4410  -28.3970   20.6680 C   0  0  0  0  0  3  0  0  0  0  0  0
  -26.2550  -26.8710   19.2700 C   0  0  0  0  0  3  0  0  0  0  0  0
  -25.1230  -27.7310   19.3170 C   0  0  0  0  0  3  0  0  0  0  0  0
  -23.8740  -29.8280   20.1480 C   0  0  0  0  0  2  0  0  0  0  0  0
  -24.8870  -30.9950   22.1410 N   0  0  0  0  0  0  0  0  0  0  0  0
  -23.6850  -32.0250   23.7900 O   0  0  0  0  0  0  0  0  0  0  0  0
  -22.9420  -29.3940   22.4750 C   0  0  0  0  0  0  0  0  0  0  0  0
  -21.6210  -29.1870   22.3190 N   0  0  0  0  0  0  0  0  0  0  0  0
  -23.6110  -28.7690   23.3010 O   0  0  0  0  0  0  0  0  0  0  0  0
  -21.1280  -29.7470   21.6350 H   0  0  0  0  0  0  0  0  0  0  0  0
  -18.2890  -27.7920   22.6680 C   0  0  0  0  0  0  0  0  0  0  0  0
  -20.8190  -28.1940   23.0410 C   0  0  0  0  0  3  0  0  0  0  0  0
  -21.0210  -26.7800   22.4470 C   0  0  0  0  0  2  0  0  0  0  0  0
  -19.9810  -26.4150   21.3830 C   0  0  0  0  0  2  0  0  0  0  0  0
  -18.5680  -26.4710   21.9710 C   0  0  0  0  0  2  0  0  0  0  0  0
  -19.3460  -28.6090   23.1540 C   0  0  0  0  0  0  0  0  0  0  0  0
  -19.0310  -29.8420   23.7650 C   0  0  0  0  0  3  0  0  0  0  0  0
  -17.6930  -30.2600   23.8940 C   0  0  0  0  0  3  0  0  0  0  0  0
  -16.6520  -29.4430   23.4200 C   0  0  0  0  0  3  0  0  0  0  0  0
  -16.9510  -28.2100   22.8120 C   0  0  0  0  0  3  0  0  0  0  0  0
  -26.0370  -32.4190   23.9320 C   0  0  0  0  0  3  0  0  0  0  0  0
  -26.5470  -31.6140   25.1910 C   0  0  1  0  0  0  0  0  0  0  0  0
  -25.4450  -31.3300   26.2390 C   0  0  0  0  0  1  0  0  0  0  0  0
  -27.1530  -30.2560   24.7720 C   0  0  0  0  0  1  0  0  0  0  0  0
  -27.6800  -32.4000   25.8920 C   0  0  0  0  0  1  0  0  0  0  0  0
  -25.6920  -33.8000   24.3220 N   0  0  0  0  0  0  0  0  0  0  0  0
  -26.0180  -34.9000   23.6310 C   0  0  0  0  0  0  0  0  0  0  0  0
  -26.7010  -34.8640   22.6050 O   0  0  0  0  0  0  0  0  0  0  0  0
  -25.0870  -33.9030   25.1230 H   0  0  0  0  0  0  0  0  0  0  0  0
  -24.2590  -36.6910   23.3750 C   0  0  0  0  0  1  0  0  0  0  0  0
  -25.5070  -36.2570   24.1620 C   0  0  0  0  0  3  0  0  0  0  0  0
  -27.6250  -37.1450   25.0390 C   0  0  0  0  0  1  0  0  0  0  0  0
  -26.5190  -37.3340   24.1030 N   0  0  0  0  0  0  0  0  0  0  0  0
  -26.0920  -38.2360   24.2930 H   0  0  0  0  0  0  0  0  0  0  0  0
  -30.4970  -18.5890   19.7110 C   0  0  0  0  0  2  0  0  0  0  0  0
  -30.8550  -15.6470   20.0850 C   0  0  0  0  0  0  0  0  0  0  0  0
  -30.8170  -13.1410   19.3390 C   0  0  0  0  0  2  0  0  0  0  0  0
  -29.9100  -12.8200   18.1230 C   0  0  0  0  0  2  0  0  0  0  0  0
  -28.4630  -12.5580   18.5700 C   0  0  0  0  0  2  0  0  0  0  0  0
  -27.9930  -13.5920   19.6200 C   0  0  0  0  0  3  0  0  0  0  0  0
  -29.0300  -13.8490   20.7380 C   0  0  0  0  0  2  0  0  0  0  0  0
  -30.2610  -14.3390   20.0880 N   0  0  0  0  0  0  0  0  0  0  0  0
  -32.0730  -15.5810   19.8550 O   0  0  0  0  0  0  0  0  0  0  0  0
  -30.1550  -16.9820   20.1320 N   0  0  0  0  0  0  0  0  0  0  0  0
  -29.1780  -16.8650   20.3630 H   0  0  0  0  0  0  0  0  0  0  0  0
  -25.6470  -14.2000   20.4100 C   0  0  0  0  0  0  0  0  0  0  0  0
  -24.5620  -13.4510   20.7590 C   0  0  0  0  0  0  0  0  0  0  0  0
  -24.9810  -12.0850   20.6840 C   0  0  0  0  0  0  0  0  0  0  0  0
  -26.6600  -13.3000   20.1340 N   0  0  0  0  0  0  0  0  0  0  0  0
  -26.2710  -12.0180   20.3680 N   0  0  0  0  0  0  0  0  0  0  0  0
  -24.2100  -10.8440   20.8370 C   0  0  0  0  0  0  0  0  0  0  0  0
  -24.5940   -9.8410   21.7530 C   0  0  0  0  0  3  0  0  0  0  0  0
  -23.8210   -8.6690   21.9010 C   0  0  0  0  0  3  0  0  0  0  0  0
  -22.6490   -8.4900   21.1280 C   0  0  0  0  0  0  0  0  0  0  0  0
  -22.2830   -9.4790   20.1990 C   0  0  0  0  0  3  0  0  0  0  0  0
  -23.0560  -10.6430   20.0500 C   0  0  0  0  0  3  0  0  0  0  0  0
  -21.8510   -7.3720   21.1830 O   0  0  0  0  0  0  0  0  0  0  0  0
  -21.7300   -6.6290   22.3300 C   0  0  0  0  0  0  0  0  0  0  0  0
  -21.2850   -7.1980   23.5440 C   0  0  0  0  0  3  0  0  0  0  0  0
  -21.1090   -6.3850   24.6810 C   0  0  0  0  0  3  0  0  0  0  0  0
  -21.3710   -5.0030   24.6060 C   0  0  0  0  0  0  0  0  0  0  0  0
  -21.8110   -4.4330   23.3970 C   0  0  0  0  0  3  0  0  0  0  0  0
  -21.9870   -5.2450   22.2630 C   0  0  0  0  0  0  0  0  0  0  0  0
  -22.3900   -4.6880   21.0960 F   0  0  0  0  0  0  0  0  0  0  0  0
  -21.1960   -4.2200   25.6950 F   0  0  0  0  0  0  0  0  0  0  0  0
  -23.1810  -13.9660   21.0430 C   0  0  0  0  0  0  0  0  0  0  0  0
  -22.4360  -13.2800   21.9020 N   0  0  0  0  0  0  0  0  0  0  0  0
  -22.7770  -15.0150   20.5410 O   0  0  0  0  0  0  0  0  0  0  0  0
  -22.7830  -12.4320   22.3270 H   0  0  0  0  0  0  0  0  0  0  0  0
  -21.5090  -13.6040   22.1380 H   0  0  0  0  0  0  0  0  0  0  0  0
  -25.8560  -15.5690   20.2710 N   0  0  0  0  0  0  0  0  0  0  0  0
  -25.1100  -16.2450   20.3950 H   0  0  0  0  0  0  0  0  0  0  0  0
  -26.7100  -15.9840   19.9220 H   0  0  0  0  0  0  0  0  0  0  0  0
  1  3  1  0
  1  4  2  0
  2  5  1  0
  3  2  2  0
  4  5  1  0
  5  8  1  0
  8  7  1  0
  8  6  1  0
 10  9  1  0
 10  3  1  0
 10 11  1  0
 12 23  2  0
 13 11  1  0
 13 18  1  0
 14 22  1  0
 14 24  1  0
 15 21  1  0
 15 17  1  0
 16 22  1  0
 17 16  1  0
 18 17  2  0
 19 20  1  0
 19 13  2  0
 20 15  2  0
 21 14  1  0
 22 12  1  0
 24 26  2  0
 25 24  1  0
 27 25  1  0
 28 37  2  0
 28 33  1  0
 29 25  1  0
 29 33  1  0
 30 29  1  0
 31 32  1  0
 31 30  1  0
 32 28  1  0
 33 34  2  0
 34 35  1  0
 36 35  2  0
 37 36  1  0
 38 12  1  0
 38 43  1  0
 38 39  1  0
 39 42  1  1
 39 40  1  0
 41 39  1  0
 43 46  1  0
 44 48  1  0
 44 43  1  0
 45 44  2  0
 48 47  1  0
 50 48  1  0
 50 51  1  0
 50 49  1  0
 52  4  1  0
 52 61  1  0
 53 59  1  0
 53 61  1  0
 54 59  1  0
 55 56  1  0
 55 54  1  0
 57 56  1  0
 57 66  1  0
 57 58  1  0
 59 58  1  0
 60 53  2  0
 61 62  1  0
 63 64  2  0
 64 83  1  0
 65 64  1  0
 65 68  1  0
 66 67  1  0
 66 63  1  0
 67 65  2  0
 68 69  1  0
 69 70  2  0
 71 74  1  0
 71 70  1  0
 72 71  2  0
 73 72  1  0
 73 68  2  0
 74 75  1  0
 75 76  1  0
 76 77  2  0
 78 77  1  0
 78 82  1  0
 79 78  2  0
 80 75  2  0
 80 79  1  0
 81 80  1  0
 83 84  1  0
 84 87  1  0
 84 86  1  0
 85 83  2  0
 88 89  1  0
 88 63  1  0
 90 88  1  0
M  ISO  4  10 101  11 101  53 100  61 100
M  END
>  <TORSDO>  (15) 
F 19

>  <SCORE>  (15) 
-14.932

>  <name>  (15) 
14

>  <ligand_id>  (15) 
14

>  <original_smiles>  (15) 
[H]c1c([H])c([H])c2c(c1[H])C([H])([H])C([H])([H])C([H])([H])C2([H])N([H])C(=O)C1([H])N(C(=O)C([H])(N([H])C(=O)C([H])(N([H])C([H])([H])[H])C([H])([H])[H])C(C([H])([H])[H])(C([H])([H])[H])C([H])([H])[H])C([H])([H])c2c([H])c(OC([H])(c3c([H])c(C([H])([H])N([H])C(=O)N4C([H])([H])C([H])([H])C([H])([H])C([H])(n5nc(-c6c([H])c([H])c(Oc7c([H])c([H])c(F)c([H])c7F)c([H])c6[H])c(C(=O)N([H])[H])c5N([H])[H])C4([H])[H])n(C([H])(C([H])([H])[H])C([H])([H])[H])c3[H])C([H])([H])[H])c([H])c([H])c2C1([H])[H]

>  <smiles>  (15) 
[H]c1c([H])c([H])c2c(c1[H])C([H])([H])C([H])([H])C([H])([H])C2([H])N([H])C(=O)C1([H])N(C(=O)C([H])(N([H])C(=O)C([H])(N([H])C([H])([H])[H])C([H])([H])[H])C(C([H])([H])[H])(C([H])([H])[H])C([H])([H])[H])C([H])([H])c2c([H])c(OC([H])(c3c([H])c(C([H])([H])N([H])C(=O)N4C([H])([H])C([H])([H])C([H])([H])C([H])(n5nc(-c6c([H])c([H])c(Oc7c([H])c([H])c(F)c([H])c7F)c([H])c6[H])c(C(=O)N([H])[H])c5N([H])[H])C4([H])[H])n(C([H])(C([H])([H])[H])C([H])([H])[H])c3[H])C([H])([H])[H])c([H])c([H])c2C1([H])[H]

$$$$
15:0:0
     RDKit          3D

 88 96  0  0  1  0  0  0  0  0999 V2000
  -29.0560  -20.5750   21.2920 C   0  0  0  0  0  3  0  0  0  0  0  0
  -28.6360  -21.9960   21.2980 C   0  0  0  0  0  3  0  0  0  0  0  0
  -29.5240  -19.8230   20.1390 C   0  0  0  0  0  0  0  0  0  0  0  0
  -28.6500  -22.9010   20.1630 C   0  0  0  0  0  0  0  0  0  0  0  0
  -29.4800  -20.7920   19.0440 C   0  0  0  0  0  0  0  0  0  0  0  0
  -29.9230  -20.3200   17.6730 C   0  0  0  0  0  1  0  0  0  0  0  0
  -29.0750  -22.1570   19.0590 N   0  0  0  0  0  0  0  0  0  0  0  0
  -30.2700  -18.2420   20.0830 C   0  0  0  0  0  2  0  0  0  0  0  0
  -30.5090  -15.3670   20.1060 C   0  0  0  0  0  0  0  0  0  0  0  0
  -30.4100  -12.9680   19.1260 C   0  0  0  0  0  2  0  0  0  0  0  0
  -29.4180  -12.7890   17.9470 C   0  0  0  0  0  2  0  0  0  0  0  0
  -27.9980  -12.4910   18.4560 C   0  0  0  0  0  2  0  0  0  0  0  0
  -27.6040  -13.4190   19.6290 C   0  0  0  0  0  3  0  0  0  0  0  0
  -28.7190  -13.5080   20.7000 C   0  0  0  0  0  2  0  0  0  0  0  0
  -29.9090  -14.0720   20.0250 N   0  0  0  0  0  0  0  0  0  0  0  0
  -31.7050  -15.3490   19.7740 O   0  0  0  0  0  0  0  0  0  0  0  0
  -28.5420  -16.6980   21.0090 C   0  0  0  0  0  1  0  0  0  0  0  0
  -29.8140  -16.6740   20.3060 N   0  0  0  0  0  0  0  0  0  0  0  0
  -25.2560  -13.9480   20.4980 C   0  0  0  0  0  0  0  0  0  0  0  0
  -24.2210  -13.1550   20.9030 C   0  0  0  0  0  0  0  0  0  0  0  0
  -24.6960  -11.8120   20.8120 C   0  0  0  0  0  0  0  0  0  0  0  0
  -26.2990  -13.0900   20.1910 N   0  0  0  0  0  0  0  0  0  0  0  0
  -25.9730  -11.7950   20.4450 N   0  0  0  0  0  0  0  0  0  0  0  0
  -23.9840  -10.5420   20.9950 C   0  0  0  0  0  0  0  0  0  0  0  0
  -24.4320   -9.5720   21.9190 C   0  0  0  0  0  3  0  0  0  0  0  0
  -23.7180   -8.3660   22.0930 C   0  0  0  0  0  3  0  0  0  0  0  0
  -22.5440   -8.1230   21.3420 C   0  0  0  0  0  0  0  0  0  0  0  0
  -22.1160   -9.0810   20.4060 C   0  0  0  0  0  3  0  0  0  0  0  0
  -22.8300  -10.2780   20.2300 C   0  0  0  0  0  3  0  0  0  0  0  0
  -21.8000   -6.9710   21.4270 O   0  0  0  0  0  0  0  0  0  0  0  0
  -21.7160   -6.2540   22.5940 C   0  0  0  0  0  0  0  0  0  0  0  0
  -21.2040   -6.8220   23.7810 C   0  0  0  0  0  3  0  0  0  0  0  0
  -21.0690   -6.0300   24.9390 C   0  0  0  0  0  3  0  0  0  0  0  0
  -21.4360   -4.6710   24.9090 C   0  0  0  0  0  0  0  0  0  0  0  0
  -21.9420   -4.1030   23.7260 C   0  0  0  0  0  3  0  0  0  0  0  0
  -22.0770   -4.8920   22.5710 C   0  0  0  0  0  0  0  0  0  0  0  0
  -22.5430   -4.3340   21.4280 F   0  0  0  0  0  0  0  0  0  0  0  0
  -21.3010   -3.9070   26.0190 F   0  0  0  0  0  0  0  0  0  0  0  0
  -22.8350  -13.6160   21.2480 C   0  0  0  0  0  0  0  0  0  0  0  0
  -22.1510  -12.8970   22.1320 N   0  0  0  0  0  0  0  0  0  0  0  0
  -22.3680  -14.6510   20.7720 O   0  0  0  0  0  0  0  0  0  0  0  0
  -22.5440  -12.0630   22.5440 H   0  0  0  0  0  0  0  0  0  0  0  0
  -21.2220  -13.1860   22.4020 H   0  0  0  0  0  0  0  0  0  0  0  0
  -25.3760  -15.3230   20.3330 N   0  0  0  0  0  0  0  0  0  0  0  0
  -24.5910  -15.9470   20.4810 H   0  0  0  0  0  0  0  0  0  0  0  0
  -26.1730  -15.7820   19.9120 H   0  0  0  0  0  0  0  0  0  0  0  0
  -27.8390  -24.4320   20.0110 C   0  0  0  0  0  2  0  0  0  0  0  0
  -28.1900  -25.9980   20.2780 O   0  0  0  0  0  0  0  0  0  0  0  0
  -24.6520  -31.9380   23.2450 C   0  0  0  0  0  0  0  0  0  0  0  0
  -27.1850  -27.0900   20.2100 C   0  0  0  0  0  0  0  0  0  0  0  0
  -23.4440  -30.5480   21.6120 C   0  0  0  0  0  3  0  0  0  0  0  0
  -24.8810  -28.9470   20.1820 C   0  0  0  0  0  0  0  0  0  0  0  0
  -26.0100  -30.7600   21.4520 C   0  0  0  0  0  2  0  0  0  0  0  0
  -26.0730  -29.3560   20.7950 C   0  0  0  0  0  0  0  0  0  0  0  0
  -27.2180  -28.4460   20.7880 C   0  0  0  0  0  3  0  0  0  0  0  0
  -25.9620  -26.8250   19.5500 C   0  0  0  0  0  3  0  0  0  0  0  0
  -24.8470  -27.7000   19.5420 C   0  0  0  0  0  3  0  0  0  0  0  0
  -23.6630  -29.8670   20.2340 C   0  0  0  0  0  2  0  0  0  0  0  0
  -24.7230  -31.1090   22.1560 N   0  0  0  0  0  0  0  0  0  0  0  0
  -23.5660  -32.2300   23.7720 O   0  0  0  0  0  0  0  0  0  0  0  0
  -22.7550  -29.5510   22.5800 C   0  0  0  0  0  0  0  0  0  0  0  0
  -21.4250  -29.3800   22.4540 N   0  0  0  0  0  0  0  0  0  0  0  0
  -23.4230  -28.9320   23.4130 O   0  0  0  0  0  0  0  0  0  0  0  0
  -20.9400  -29.9300   21.7590 H   0  0  0  0  0  0  0  0  0  0  0  0
  -18.0470  -28.1630   22.9620 C   0  0  0  0  0  0  0  0  0  0  0  0
  -20.6050  -28.4420   23.2290 C   0  0  0  0  0  3  0  0  0  0  0  0
  -20.7140  -27.0070   22.6610 C   0  0  0  0  0  2  0  0  0  0  0  0
  -19.6150  -26.6740   21.6470 C   0  0  0  0  0  2  0  0  0  0  0  0
  -18.2310  -26.8140   22.2880 C   0  0  0  0  0  2  0  0  0  0  0  0
  -19.1620  -28.9350   23.3890 C   0  0  0  0  0  0  0  0  0  0  0  0
  -18.9330  -30.1960   23.9790 C   0  0  0  0  0  3  0  0  0  0  0  0
  -17.6250  -30.6870   24.1480 C   0  0  0  0  0  3  0  0  0  0  0  0
  -16.5260  -29.9130   23.7360 C   0  0  0  0  0  3  0  0  0  0  0  0
  -16.7370  -28.6540   23.1490 C   0  0  0  0  0  3  0  0  0  0  0  0
  -25.9300  -32.5750   23.8710 C   0  0  0  0  0  3  0  0  0  0  0  0
  -25.6180  -33.9770   24.2010 N   0  0  0  0  0  0  0  0  0  0  0  0
  -25.9260  -35.0340   23.4390 C   0  0  0  0  0  0  0  0  0  0  0  0
  -26.5660  -34.9340   22.3900 O   0  0  0  0  0  0  0  0  0  0  0  0
  -25.0480  -34.1260   25.0210 H   0  0  0  0  0  0  0  0  0  0  0  0
  -24.1760  -36.8260   23.1570 C   0  0  0  0  0  1  0  0  0  0  0  0
  -25.4500  -36.4230   23.9160 C   0  0  0  0  0  3  0  0  0  0  0  0
  -27.6070  -37.3310   24.6630 C   0  0  0  0  0  1  0  0  0  0  0  0
  -26.4710  -37.4820   23.7590 N   0  0  0  0  0  0  0  0  0  0  0  0
  -26.0630  -38.3990   23.9130 H   0  0  0  0  0  0  0  0  0  0  0  0
  -26.4350  -31.8130   25.1580 C   0  0  1  0  0  0  0  0  0  0  0  0
  -25.3360  -31.5910   26.2240 C   0  0  0  0  0  1  0  0  0  0  0  0
  -27.0200  -30.4300   24.7910 C   0  0  0  0  0  1  0  0  0  0  0  0
  -27.5800  -32.6140   25.8220 C   0  0  0  0  0  1  0  0  0  0  0  0
  1  2  1  0
  3  1  2  0
  4  2  2  0
  5  7  2  0
  5  3  1  0
  6  5  1  0
  7  4  1  0
  8  3  1  0
  8 18  1  0
  9 18  1  0
 10 15  1  0
 11 12  1  0
 11 10  1  0
 13 12  1  0
 13 22  1  0
 13 14  1  0
 15  9  1  0
 15 14  1  0
 16  9  2  0
 18 17  1  0
 19 20  2  0
 20 39  1  0
 21 20  1  0
 21 24  1  0
 22 23  1  0
 22 19  1  0
 23 21  2  0
 24 25  1  0
 25 26  2  0
 27 30  1  0
 27 26  1  0
 28 27  2  0
 29 28  1  0
 29 24  2  0
 30 31  1  0
 31 32  1  0
 32 33  2  0
 34 33  1  0
 34 38  1  0
 35 34  2  0
 36 31  2  0
 36 35  1  0
 37 36  1  0
 39 40  1  0
 40 43  1  0
 40 42  1  0
 41 39  2  0
 44 45  1  0
 44 19  1  0
 46 44  1  0
 47  4  1  0
 47 48  1  0
 49 60  2  0
 50 48  1  0
 50 55  1  0
 51 59  1  0
 51 61  1  0
 52 58  1  0
 52 54  1  0
 53 59  1  0
 54 53  1  0
 55 54  2  0
 56 50  2  0
 57 56  1  0
 57 52  2  0
 58 51  1  0
 59 49  1  0
 61 63  2  0
 62 61  1  0
 64 62  1  0
 65 74  2  0
 65 70  1  0
 66 62  1  0
 66 70  1  0
 67 66  1  0
 68 69  1  0
 68 67  1  0
 69 65  1  0
 70 71  2  0
 71 72  1  0
 73 72  2  0
 74 73  1  0
 75 49  1  0
 75 76  1  0
 75 85  1  0
 76 79  1  0
 77 81  1  0
 77 76  1  0
 78 77  2  0
 81 80  1  0
 83 84  1  0
 83 81  1  0
 83 82  1  0
 85 88  1  1
 85 86  1  0
 87 85  1  0
M  ISO  4   9 100  18 100  47 101  48 101
M  END
>  <TORSDO>  (16) 
F 18

>  <SCORE>  (16) 
-15.748

>  <name>  (16) 
15

>  <ligand_id>  (16) 
15

>  <original_smiles>  (16) 
[H]c1c(C([H])([H])Oc2c([H])c([H])c3c(c2[H])C([H])([H])N(C(=O)C([H])(N([H])C(=O)C([H])(N([H])C([H])([H])[H])C([H])([H])[H])C(C([H])([H])[H])(C([H])([H])[H])C([H])([H])[H])C([H])(C(=O)N([H])C2([H])c4c([H])c([H])c([H])c([H])c4C([H])([H])C([H])([H])C2([H])[H])C3([H])[H])nc(C([H])([H])[H])c(C([H])([H])N(C(=O)N2C([H])([H])C([H])([H])C([H])([H])C([H])(n3nc(-c4c([H])c([H])c(Oc5c([H])c([H])c(F)c([H])c5F)c([H])c4[H])c(C(=O)N([H])[H])c3N([H])[H])C2([H])[H])C([H])([H])[H])c1[H]

>  <smiles>  (16) 
[H]c1c(C([H])([H])Oc2c([H])c([H])c3c(c2[H])C([H])([H])N(C(=O)C([H])(N([H])C(=O)C([H])(N([H])C([H])([H])[H])C([H])([H])[H])C(C([H])([H])[H])(C([H])([H])[H])C([H])([H])[H])C([H])(C(=O)N([H])C2([H])c4c([H])c([H])c([H])c([H])c4C([H])([H])C([H])([H])C2([H])[H])C3([H])[H])nc(C([H])([H])[H])c(C([H])([H])N(C(=O)N2C([H])([H])C([H])([H])C([H])([H])C([H])(n3nc(-c4c([H])c([H])c(Oc5c([H])c([H])c(F)c([H])c5F)c([H])c4[H])c(C(=O)N([H])[H])c3N([H])[H])C2([H])[H])C([H])([H])[H])c1[H]

$$$$
16:0:0
     RDKit          3D

 92100  0  0  1  0  0  0  0  0999 V2000
  -29.4430  -21.3370   19.1390 C   0  0  0  0  0  0  0  0  0  0  0  0
  -29.2930  -22.4120   19.9840 N   0  0  0  0  0  0  0  0  0  0  0  0
  -29.4590  -21.5090   17.9120 O   0  0  0  0  0  0  0  0  0  0  0  0
  -29.3210  -22.2510   20.9920 H   0  0  0  0  0  0  0  0  0  0  0  0
  -28.7370  -19.1090   20.3590 C   0  0  0  0  0  3  0  0  0  0  0  0
  -30.8140  -19.1570   19.2240 C   0  0  0  0  0  3  0  0  0  0  0  0
  -29.6690  -19.8820   19.6280 C   0  0  0  0  0  0  0  0  0  0  0  0
  -28.9990  -17.7230   20.6540 C   0  0  0  0  0  0  0  0  0  0  0  0
  -30.1750  -17.0640   20.1590 C   0  0  0  0  0  0  0  0  0  0  0  0
  -27.9760  -16.9610   21.4850 C   0  0  0  0  0  1  0  0  0  0  0  0
  -31.0550  -17.8320   19.4690 N   0  0  0  0  0  0  0  0  0  0  0  0
  -30.9760  -14.6490   19.6140 C   0  0  0  0  0  0  0  0  0  0  0  0
  -30.6450  -12.4430   18.4720 C   0  0  0  0  0  2  0  0  0  0  0  0
  -29.5300  -12.5910   17.4110 C   0  0  0  0  0  2  0  0  0  0  0  0
  -28.1470  -12.3670   18.0510 C   0  0  0  0  0  2  0  0  0  0  0  0
  -27.9660  -13.1920   19.3510 C   0  0  0  0  0  3  0  0  0  0  0  0
  -29.1740  -12.9990   20.2960 C   0  0  0  0  0  2  0  0  0  0  0  0
  -30.3790  -13.4070   19.5660 N   0  0  0  0  0  0  0  0  0  0  0  0
  -31.9990  -14.8620   18.9560 O   0  0  0  0  0  0  0  0  0  0  0  0
  -30.3560  -15.6200   20.3770 N   0  0  0  0  0  0  0  0  0  0  0  0
  -29.7780  -15.2440   21.1090 H   0  0  0  0  0  0  0  0  0  0  0  0
  -25.7400  -13.7380   20.5070 C   0  0  0  0  0  0  0  0  0  0  0  0
  -24.7290  -12.9400   20.9710 C   0  0  0  0  0  0  0  0  0  0  0  0
  -25.1440  -11.5950   20.7280 C   0  0  0  0  0  0  0  0  0  0  0  0
  -26.7060  -12.8750   20.0150 N   0  0  0  0  0  0  0  0  0  0  0  0
  -26.3630  -11.5760   20.2040 N   0  0  0  0  0  0  0  0  0  0  0  0
  -24.4310  -10.3250   20.9120 C   0  0  0  0  0  0  0  0  0  0  0  0
  -24.8810   -9.3500   21.8280 C   0  0  0  0  0  3  0  0  0  0  0  0
  -24.1660   -8.1450   21.9970 C   0  0  0  0  0  3  0  0  0  0  0  0
  -22.9880   -7.9070   21.2500 C   0  0  0  0  0  0  0  0  0  0  0  0
  -22.5590   -8.8720   20.3220 C   0  0  0  0  0  3  0  0  0  0  0  0
  -23.2740  -10.0690   20.1510 C   0  0  0  0  0  3  0  0  0  0  0  0
  -22.2420   -6.7570   21.3320 O   0  0  0  0  0  0  0  0  0  0  0  0
  -22.0670   -6.0950   22.5220 C   0  0  0  0  0  0  0  0  0  0  0  0
  -21.4620   -6.7120   23.6380 C   0  0  0  0  0  3  0  0  0  0  0  0
  -21.2440   -5.9740   24.8180 C   0  0  0  0  0  3  0  0  0  0  0  0
  -21.6230   -4.6190   24.8790 C   0  0  0  0  0  0  0  0  0  0  0  0
  -22.2210   -4.0020   23.7660 C   0  0  0  0  0  3  0  0  0  0  0  0
  -22.4440   -4.7390   22.5910 C   0  0  0  0  0  0  0  0  0  0  0  0
  -23.0020   -4.1360   21.5150 F   0  0  0  0  0  0  0  0  0  0  0  0
  -21.4050   -3.9040   26.0090 F   0  0  0  0  0  0  0  0  0  0  0  0
  -23.4120  -13.4000   21.5230 C   0  0  0  0  0  0  0  0  0  0  0  0
  -22.8380  -12.6430   22.4500 N   0  0  0  0  0  0  0  0  0  0  0  0
  -22.9060  -14.4620   21.1650 O   0  0  0  0  0  0  0  0  0  0  0  0
  -23.2570  -11.7760   22.7520 H   0  0  0  0  0  0  0  0  0  0  0  0
  -21.9650  -12.9340   22.8660 H   0  0  0  0  0  0  0  0  0  0  0  0
  -25.9100  -15.1170   20.4360 N   0  0  0  0  0  0  0  0  0  0  0  0
  -25.1850  -15.7630   20.7220 H   0  0  0  0  0  0  0  0  0  0  0  0
  -26.6990  -15.5720   19.9990 H   0  0  0  0  0  0  0  0  0  0  0  0
  -29.3650  -23.8780   19.5640 C   0  0  0  0  0  3  0  0  0  0  0  0
  -28.3610  -24.9360   20.2170 C   0  0  0  0  0  3  0  0  0  0  0  0
  -28.5900  -26.3890   19.9720 O   0  0  0  0  0  0  0  0  0  0  0  0
  -24.8180  -31.7160   23.1050 C   0  0  0  0  0  0  0  0  0  0  0  0
  -27.4830  -27.2560   19.9460 C   0  0  0  0  0  0  0  0  0  0  0  0
  -23.6590  -30.4050   21.3690 C   0  0  0  0  0  3  0  0  0  0  0  0
  -25.1340  -28.9020   19.9180 C   0  0  0  0  0  0  0  0  0  0  0  0
  -26.2040  -30.6950   21.2840 C   0  0  0  0  0  2  0  0  0  0  0  0
  -26.2870  -29.3490   20.5770 C   0  0  0  0  0  0  0  0  0  0  0  0
  -27.4620  -28.5400   20.5790 C   0  0  0  0  0  3  0  0  0  0  0  0
  -26.3130  -26.8700   19.2580 C   0  0  0  0  0  3  0  0  0  0  0  0
  -25.1510  -27.6690   19.2520 C   0  0  0  0  0  3  0  0  0  0  0  0
  -23.9080  -29.7880   19.9670 C   0  0  0  0  0  2  0  0  0  0  0  0
  -24.9130  -30.9570   21.9730 N   0  0  0  0  0  0  0  0  0  0  0  0
  -23.7200  -31.9810   23.6150 O   0  0  0  0  0  0  0  0  0  0  0  0
  -22.9530  -29.3540   22.2620 C   0  0  0  0  0  0  0  0  0  0  0  0
  -21.6200  -29.2380   22.1300 N   0  0  0  0  0  0  0  0  0  0  0  0
  -23.6050  -28.6400   23.0290 O   0  0  0  0  0  0  0  0  0  0  0  0
  -21.1500  -29.8700   21.4970 H   0  0  0  0  0  0  0  0  0  0  0  0
  -18.1860  -28.2200   22.6290 C   0  0  0  0  0  0  0  0  0  0  0  0
  -20.7630  -28.2840   22.8380 C   0  0  0  0  0  3  0  0  0  0  0  0
  -20.7480  -26.9100   22.1250 C   0  0  0  0  0  2  0  0  0  0  0  0
  -19.6010  -26.7560   21.1210 C   0  0  0  0  0  2  0  0  0  0  0  0
  -18.2530  -26.9290   21.8250 C   0  0  0  0  0  2  0  0  0  0  0  0
  -19.3640  -28.8610   23.0910 C   0  0  0  0  0  0  0  0  0  0  0  0
  -19.2480  -30.0790   23.7930 C   0  0  0  0  0  3  0  0  0  0  0  0
  -17.9850  -30.6450   24.0540 C   0  0  0  0  0  3  0  0  0  0  0  0
  -16.8190  -29.9930   23.6090 C   0  0  0  0  0  3  0  0  0  0  0  0
  -16.9240  -28.7830   22.9030 C   0  0  0  0  0  3  0  0  0  0  0  0
  -26.0850  -32.3080   23.7930 C   0  0  0  0  0  3  0  0  0  0  0  0
  -26.6130  -31.4190   24.9820 C   0  0  1  0  0  0  0  0  0  0  0  0
  -25.5210  -31.0350   26.0090 C   0  0  0  0  0  1  0  0  0  0  0  0
  -27.2440  -30.1140   24.4450 C   0  0  0  0  0  1  0  0  0  0  0  0
  -27.7340  -32.1700   25.7380 C   0  0  0  0  0  1  0  0  0  0  0  0
  -25.7500  -33.6550   24.2750 N   0  0  0  0  0  0  0  0  0  0  0  0
  -26.0580  -34.7890   23.6300 C   0  0  0  0  0  0  0  0  0  0  0  0
  -26.7240  -34.8130   22.5930 O   0  0  0  0  0  0  0  0  0  0  0  0
  -25.1630  -33.7100   25.0930 H   0  0  0  0  0  0  0  0  0  0  0  0
  -24.2970  -36.5740   23.4690 C   0  0  0  0  0  1  0  0  0  0  0  0
  -25.5430  -36.1080   24.2360 C   0  0  0  0  0  3  0  0  0  0  0  0
  -27.6570  -36.9480   25.1700 C   0  0  0  0  0  1  0  0  0  0  0  0
  -26.5560  -37.1860   24.2370 N   0  0  0  0  0  0  0  0  0  0  0  0
  -26.1300  -38.0780   24.4720 H   0  0  0  0  0  0  0  0  0  0  0  0
  1  7  1  0
  1  2  1  0
  2  4  1  0
  3  1  2  0
  5  8  1  0
  6 11  2  0
  6  7  1  0
  7  5  2  0
  8 10  1  0
  9 20  1  0
  9  8  2  0
 11  9  1  0
 12 20  1  0
 13 18  1  0
 14 15  1  0
 14 13  1  0
 16 15  1  0
 16 25  1  0
 16 17  1  0
 18 12  1  0
 18 17  1  0
 19 12  2  0
 20 21  1  0
 22 23  2  0
 23 42  1  0
 24 27  1  0
 24 23  1  0
 25 26  1  0
 25 22  1  0
 26 24  2  0
 27 28  1  0
 28 29  2  0
 30 33  1  0
 30 29  1  0
 31 30  2  0
 32 31  1  0
 32 27  2  0
 33 34  1  0
 34 39  2  0
 34 35  1  0
 35 36  2  0
 36 37  1  0
 37 41  1  0
 38 37  2  0
 39 38  1  0
 40 39  1  0
 42 43  1  0
 43 45  1  0
 43 46  1  0
 44 42  2  0
 47 22  1  0
 47 48  1  0
 49 47  1  0
 50  2  1  0
 50 51  2  0
 52 51  1  0
 53 64  2  0
 54 52  1  0
 54 59  1  0
 55 63  1  0
 55 65  1  0
 56 62  1  0
 56 58  1  0
 57 63  1  0
 58 59  2  0
 58 57  1  0
 60 54  2  0
 61 60  1  0
 61 56  2  0
 62 55  1  0
 63 53  1  0
 65 67  2  0
 66 65  1  0
 68 66  1  0
 69 78  2  0
 69 74  1  0
 70 66  1  0
 70 74  1  0
 71 70  1  0
 72 73  1  0
 72 71  1  0
 73 69  1  0
 74 75  2  0
 75 76  1  0
 77 76  2  0
 78 77  1  0
 79 53  1  0
 79 84  1  0
 79 80  1  0
 80 83  1  1
 80 81  1  0
 82 80  1  0
 84 87  1  0
 85 89  1  0
 85 84  1  0
 86 85  2  0
 89 88  1  0
 89 91  1  0
 91 92  1  0
 91 90  1  0
M  ISO  4  12 100  20 100  51 101  52 101
M  END
>  <TORSDO>  (17) 
F 19

>  <SCORE>  (17) 
-10.729

>  <name>  (17) 
16

>  <ligand_id>  (17) 
16

>  <original_smiles>  (17) 
[H]c1nc(N([H])C(=O)N2C([H])([H])C([H])([H])C([H])([H])C([H])(n3nc(-c4c([H])c([H])c(Oc5c([H])c([H])c(F)c([H])c5F)c([H])c4[H])c(C(=O)N([H])[H])c3N([H])[H])C2([H])[H])c(C([H])([H])[H])c([H])c1C(=O)N([H])C([H])([H])C([H])([H])Oc1c([H])c([H])c2c(c1[H])C([H])([H])N(C(=O)C([H])(N([H])C(=O)C([H])(N([H])C([H])([H])[H])C([H])([H])[H])C(C([H])([H])[H])(C([H])([H])[H])C([H])([H])[H])C([H])(C(=O)N([H])C1([H])c3c([H])c([H])c([H])c([H])c3C([H])([H])C([H])([H])C1([H])[H])C2([H])[H]

>  <smiles>  (17) 
[H]c1nc(N([H])C(=O)N2C([H])([H])C([H])([H])C([H])([H])C([H])(n3nc(-c4c([H])c([H])c(Oc5c([H])c([H])c(F)c([H])c5F)c([H])c4[H])c(C(=O)N([H])[H])c3N([H])[H])C2([H])[H])c(C([H])([H])[H])c([H])c1C(=O)N([H])C([H])([H])C([H])([H])Oc1c([H])c([H])c2c(c1[H])C([H])([H])N(C(=O)C([H])(N([H])C(=O)C([H])(N([H])C([H])([H])[H])C([H])([H])[H])C(C([H])([H])[H])(C([H])([H])[H])C([H])([H])[H])C([H])(C(=O)N([H])C1([H])c3c([H])c([H])c([H])c([H])c3C([H])([H])C([H])([H])C1([H])[H])C2([H])[H]

$$$$
17:0:0
     RDKit          3D

 94103  0  0  1  0  0  0  0  0999 V2000
  -29.4660  -21.4180   20.1510 C   0  0  0  0  0  3  0  0  0  0  0  0
  -28.3120  -21.5860   19.4220 C   0  0  0  0  0  0  0  0  0  0  0  0
  -28.8810  -19.3260   19.5150 C   0  0  0  0  0  3  0  0  0  0  0  0
  -29.7940  -20.0630   20.2030 N   0  0  0  0  0  0  0  0  0  0  0  0
  -27.9790  -20.2620   19.0860 N   0  0  0  0  0  0  0  0  0  0  0  0
  -27.1790  -20.0210   18.5140 H   0  0  0  0  0  0  0  0  0  0  0  0
  -32.3460  -18.7890   22.6910 C   0  0  0  0  0  2  0  0  0  0  0  0
  -32.8050  -20.2110   22.4030 C   0  0  0  0  0  2  0  0  0  0  0  0
  -30.9680  -18.7180   22.0450 C   0  0  0  0  0  2  0  0  0  0  0  0
  -32.1610  -20.5910   21.0580 C   0  0  0  0  0  2  0  0  0  0  0  0
  -31.0770  -19.5260   20.7450 C   0  0  0  0  0  3  0  0  0  0  0  0
  -27.5040  -22.8650   18.9780 C   0  0  0  0  0  2  0  0  0  0  0  0
  -28.0800  -24.3750   19.0960 C   0  0  0  0  0  3  0  0  0  0  0  0
  -27.0800  -25.5880   18.7070 C   0  0  0  0  0  3  0  0  0  0  0  0
  -27.4040  -27.0540   18.8470 O   0  0  0  0  0  0  0  0  0  0  0  0
  -24.6120  -31.9840   23.3890 C   0  0  0  0  0  0  0  0  0  0  0  0
  -26.3570  -27.9610   19.1460 C   0  0  0  0  0  0  0  0  0  0  0  0
  -23.0490  -30.8890   21.8260 C   0  0  0  0  0  3  0  0  0  0  0  0
  -24.1170  -29.6050   19.8880 C   0  0  0  0  0  0  0  0  0  0  0  0
  -25.5120  -31.2130   21.1770 C   0  0  0  0  0  2  0  0  0  0  0  0
  -25.4040  -29.9630   20.3050 C   0  0  0  0  0  0  0  0  0  0  0  0
  -26.5260  -29.1550   19.9260 C   0  0  0  0  0  3  0  0  0  0  0  0
  -25.0420  -27.6860   18.7080 C   0  0  0  0  0  3  0  0  0  0  0  0
  -23.9380  -28.4740   19.0790 C   0  0  0  0  0  3  0  0  0  0  0  0
  -22.9540  -30.4690   20.3370 C   0  0  0  0  0  2  0  0  0  0  0  0
  -24.4230  -31.3700   22.1840 N   0  0  0  0  0  0  0  0  0  0  0  0
  -23.6710  -32.1720   24.1740 O   0  0  0  0  0  0  0  0  0  0  0  0
  -22.5560  -29.7230   22.7190 C   0  0  0  0  0  0  0  0  0  0  0  0
  -21.2750  -29.3440   22.5720 N   0  0  0  0  0  0  0  0  0  0  0  0
  -23.3260  -29.1690   23.5080 O   0  0  0  0  0  0  0  0  0  0  0  0
  -20.7020  -29.8560   21.9160 H   0  0  0  0  0  0  0  0  0  0  0  0
  -18.2430  -27.3750   22.7360 C   0  0  0  0  0  0  0  0  0  0  0  0
  -20.6160  -28.2460   23.2820 C   0  0  0  0  0  3  0  0  0  0  0  0
  -21.1230  -26.8750   22.7780 C   0  0  0  0  0  2  0  0  0  0  0  0
  -20.2580  -26.2850   21.6590 C   0  0  0  0  0  2  0  0  0  0  0  0
  -18.8150  -26.1020   22.1370 C   0  0  0  0  0  2  0  0  0  0  0  0
  -19.0900  -28.3890   23.2590 C   0  0  0  0  0  0  0  0  0  0  0  0
  -18.5090  -29.5670   23.7740 C   0  0  0  0  0  3  0  0  0  0  0  0
  -17.1120  -29.7420   23.7730 C   0  0  0  0  0  3  0  0  0  0  0  0
  -16.2780  -28.7300   23.2680 C   0  0  0  0  0  3  0  0  0  0  0  0
  -16.8430  -27.5490   22.7570 C   0  0  0  0  0  3  0  0  0  0  0  0
  -26.0170  -32.5010   23.8270 C   0  0  0  0  0  3  0  0  0  0  0  0
  -25.8610  -33.8940   24.2720 N   0  0  0  0  0  0  0  0  0  0  0  0
  -26.1610  -34.9680   23.5310 C   0  0  0  0  0  0  0  0  0  0  0  0
  -26.6680  -34.8880   22.4090 O   0  0  0  0  0  0  0  0  0  0  0  0
  -25.4060  -34.0350   25.1620 H   0  0  0  0  0  0  0  0  0  0  0  0
  -24.5360  -36.8880   23.5320 C   0  0  0  0  0  1  0  0  0  0  0  0
  -25.8470  -36.3540   24.1290 C   0  0  0  0  0  3  0  0  0  0  0  0
  -28.1320  -37.0540   24.6930 C   0  0  0  0  0  1  0  0  0  0  0  0
  -26.9280  -37.3430   23.9200 N   0  0  0  0  0  0  0  0  0  0  0  0
  -26.6120  -38.2780   24.1640 H   0  0  0  0  0  0  0  0  0  0  0  0
  -26.6710  -31.6260   24.9650 C   0  0  1  0  0  0  0  0  0  0  0  0
  -25.7240  -31.3440   26.1550 C   0  0  0  0  0  1  0  0  0  0  0  0
  -27.1440  -30.2660   24.4050 C   0  0  0  0  0  1  0  0  0  0  0  0
  -27.9310  -32.3380   25.5130 C   0  0  0  0  0  1  0  0  0  0  0  0
  -28.9890  -17.8310   18.9940 C   0  0  0  0  0  2  0  0  0  0  0  0
  -29.8590  -15.5430   19.8030 C   0  0  0  0  0  0  0  0  0  0  0  0
  -29.9800  -13.1510   19.1480 C   0  0  0  0  0  2  0  0  0  0  0  0
  -29.0030  -12.9200   17.9760 C   0  0  0  0  0  2  0  0  0  0  0  0
  -27.6010  -12.5690   18.5060 C   0  0  0  0  0  2  0  0  0  0  0  0
  -27.1240  -13.5360   19.6240 C   0  0  0  0  0  3  0  0  0  0  0  0
  -28.2220  -13.7950   20.6820 C   0  0  0  0  0  2  0  0  0  0  0  0
  -29.4250  -14.2500   19.9740 N   0  0  0  0  0  0  0  0  0  0  0  0
  -30.9850  -15.7500   19.3450 O   0  0  0  0  0  0  0  0  0  0  0  0
  -28.9520  -16.5870   19.8840 N   0  0  0  0  0  0  0  0  0  0  0  0
  -28.0620  -16.3660   20.3020 H   0  0  0  0  0  0  0  0  0  0  0  0
  -24.7890  -13.8440   20.6390 C   0  0  0  0  0  0  0  0  0  0  0  0
  -23.8420  -12.9480   21.0580 C   0  0  0  0  0  0  0  0  0  0  0  0
  -24.4170  -11.6530   20.8780 C   0  0  0  0  0  0  0  0  0  0  0  0
  -25.8720  -13.0880   20.2290 N   0  0  0  0  0  0  0  0  0  0  0  0
  -25.6630  -11.7610   20.4340 N   0  0  0  0  0  0  0  0  0  0  0  0
  -23.8280  -10.3180   21.0440 C   0  0  0  0  0  0  0  0  0  0  0  0
  -24.3100   -9.4120   22.0140 C   0  0  0  0  0  3  0  0  0  0  0  0
  -23.7120   -8.1410   22.1680 C   0  0  0  0  0  3  0  0  0  0  0  0
  -22.6170   -7.7690   21.3520 C   0  0  0  0  0  0  0  0  0  0  0  0
  -22.1560   -8.6650   20.3720 C   0  0  0  0  0  3  0  0  0  0  0  0
  -22.7560   -9.9260   20.2160 C   0  0  0  0  0  3  0  0  0  0  0  0
  -21.9910   -6.5460   21.4140 O   0  0  0  0  0  0  0  0  0  0  0  0
  -21.8150   -5.8880   22.6030 C   0  0  0  0  0  0  0  0  0  0  0  0
  -21.0550   -6.4420   23.6570 C   0  0  0  0  0  3  0  0  0  0  0  0
  -20.8410   -5.7000   24.8360 C   0  0  0  0  0  3  0  0  0  0  0  0
  -21.3760   -4.4050   24.9610 C   0  0  0  0  0  0  0  0  0  0  0  0
  -22.1270   -3.8480   23.9100 C   0  0  0  0  0  3  0  0  0  0  0  0
  -22.3430   -4.5870   22.7350 C   0  0  0  0  0  0  0  0  0  0  0  0
  -23.0500   -4.0380   21.7160 F   0  0  0  0  0  0  0  0  0  0  0  0
  -21.1640   -3.6890   26.0900 F   0  0  0  0  0  0  0  0  0  0  0  0
  -22.4480  -13.2720   21.5100 C   0  0  0  0  0  0  0  0  0  0  0  0
  -21.8790  -12.4520   22.3860 N   0  0  0  0  0  0  0  0  0  0  0  0
  -21.8720  -14.2880   21.1210 O   0  0  0  0  0  0  0  0  0  0  0  0
  -22.3580  -11.6290   22.7210 H   0  0  0  0  0  0  0  0  0  0  0  0
  -20.9490  -12.6520   22.7280 H   0  0  0  0  0  0  0  0  0  0  0  0
  -24.8090  -15.2330   20.5500 N   0  0  0  0  0  0  0  0  0  0  0  0
  -23.9990  -15.7980   20.7800 H   0  0  0  0  0  0  0  0  0  0  0  0
  -25.5620  -15.7740   20.1450 H   0  0  0  0  0  0  0  0  0  0  0  0
  1  4  1  0
  2  1  2  0
  3 56  1  0
  3  4  1  0
  4 11  1  0
  5  2  1  0
  5  3  1  0
  6  5  1  0
  8  7  1  0
  9  7  1  0
 10  8  1  0
 11 10  1  0
 11  9  1  0
 12 13  1  0
 12  2  1  0
 14 15  1  0
 14 13  2  0
 15 17  1  0
 16 27  2  0
 17 22  1  0
 18 26  1  0
 18 28  1  0
 19 21  1  0
 19 25  1  0
 20 26  1  0
 21 20  1  0
 22 21  2  0
 23 24  1  0
 23 17  2  0
 24 19  2  0
 25 18  1  0
 26 16  1  0
 28 30  2  0
 29 28  1  0
 31 29  1  0
 32 41  2  0
 32 37  1  0
 33 29  1  0
 34 33  1  0
 35 36  1  0
 35 34  1  0
 36 32  1  0
 37 33  1  0
 37 38  2  0
 39 38  1  0
 40 39  2  0
 41 40  1  0
 42 16  1  0
 42 43  1  0
 42 52  1  0
 43 46  1  0
 44 48  1  0
 44 43  1  0
 45 44  2  0
 48 47  1  0
 50 48  1  0
 50 51  1  0
 50 49  1  0
 52 55  1  1
 52 53  1  0
 54 52  1  0
 56 65  1  0
 57 65  1  0
 57 63  1  0
 58 63  1  0
 59 60  1  0
 59 58  1  0
 61 60  1  0
 61 70  1  0
 61 62  1  0
 63 62  1  0
 64 57  2  0
 65 66  1  0
 67 68  2  0
 68 87  1  0
 69 72  1  0
 69 68  1  0
 70 71  1  0
 70 67  1  0
 71 69  2  0
 72 73  1  0
 73 74  2  0
 75 78  1  0
 75 74  1  0
 76 75  2  0
 77 76  1  0
 77 72  2  0
 78 79  1  0
 79 84  2  0
 79 80  1  0
 80 81  2  0
 81 82  1  0
 82 86  1  0
 83 82  2  0
 84 83  1  0
 85 84  1  0
 87 88  1  0
 88 90  1  0
 88 91  1  0
 89 87  2  0
 92 67  1  0
 92 93  1  0
 94 92  1  0
M  ISO  4  14 101  15 101  57 100  65 100
M  END
>  <TORSDO>  (18) 
F 21

>  <SCORE>  (18) 
-11.773

>  <name>  (18) 
17

>  <ligand_id>  (18) 
17

>  <original_smiles>  (18) 
[H]c1c([H])c([H])c2c(c1[H])C([H])([H])C([H])([H])C([H])([H])C2([H])N([H])C(=O)C1([H])N(C(=O)C([H])(N([H])C(=O)C([H])(N([H])C([H])([H])[H])C([H])([H])[H])C(C([H])([H])[H])(C([H])([H])[H])C([H])([H])[H])C([H])([H])c2c([H])c(OC([H])([H])C([H])([H])C([H])([H])c3c([H])n(C4([H])C([H])([H])C([H])([H])C([H])([H])C4([H])[H])c(C([H])([H])N([H])C(=O)N4C([H])([H])C([H])([H])C([H])([H])C([H])(n5nc(-c6c([H])c([H])c(Oc7c([H])c([H])c(F)c([H])c7F)c([H])c6[H])c(C(=O)N([H])[H])c5N([H])[H])C4([H])[H])[n+]3[H])c([H])c([H])c2C1([H])[H]

>  <smiles>  (18) 
[H]c1c([H])c([H])c2c(c1[H])C([H])([H])C([H])([H])C([H])([H])C2([H])N([H])C(=O)C1([H])N(C(=O)C([H])(N([H])C(=O)C([H])(N([H])C([H])([H])[H])C([H])([H])[H])C(C([H])([H])[H])(C([H])([H])[H])C([H])([H])[H])C([H])([H])c2c([H])c(OC([H])([H])C([H])([H])C([H])([H])c3c([H])n(C4([H])C([H])([H])C([H])([H])C([H])([H])C4([H])[H])c(C([H])([H])N([H])C(=O)N4C([H])([H])C([H])([H])C([H])([H])C([H])(n5nc(-c6c([H])c([H])c(Oc7c([H])c([H])c(F)c([H])c7F)c([H])c6[H])c(C(=O)N([H])[H])c5N([H])[H])C4([H])[H])[n+]3[H])c([H])c([H])c2C1([H])[H]

$$$$
18:0:0
     RDKit          3D

 95104  0  0  1  0  0  0  0  0999 V2000
  -29.2040  -22.0390   21.5480 C   0  0  0  0  0  2  0  0  0  0  0  0
  -30.9570  -21.8940   19.7990 C   0  0  0  0  0  2  0  0  0  0  0  0
  -28.8730  -20.5460   21.3100 C   0  0  0  0  0  2  0  0  0  0  0  0
  -30.5980  -20.4130   19.5530 C   0  0  0  0  0  2  0  0  0  0  0  0
  -29.7440  -22.7200   20.2760 C   0  0  0  0  0  3  0  0  0  0  0  0
  -30.0240  -19.7590   20.7660 N   0  0  2  0  0  4  0  0  0  0  0  0
  -30.7390  -19.7940   21.4770 H   0  0  0  0  0  0  0  0  0  0  0  0
  -30.8400  -14.9200   19.5450 C   0  0  0  0  0  0  0  0  0  0  0  0
  -30.5050  -12.7040   18.4850 C   0  0  0  0  0  2  0  0  0  0  0  0
  -29.4360  -12.7860   17.3770 C   0  0  0  0  0  2  0  0  0  0  0  0
  -28.0310  -12.5440   17.9630 C   0  0  0  0  0  2  0  0  0  0  0  0
  -27.7580  -13.4290   19.2020 C   0  0  0  0  0  3  0  0  0  0  0  0
  -28.9360  -13.3770   20.2100 C   0  0  0  0  0  2  0  0  0  0  0  0
  -30.1770  -13.7250   19.4960 N   0  0  0  0  0  0  0  0  0  0  0  0
  -31.9690  -15.0560   19.0630 O   0  0  0  0  0  0  0  0  0  0  0  0
  -28.9060  -17.9620   19.3460 C   0  0  0  0  0  2  0  0  0  0  0  0
  -28.9350  -16.4450   19.3770 C   0  0  0  0  0  2  0  0  0  0  0  0
  -29.6690  -18.3060   20.6100 C   0  0  0  0  0  3  0  0  0  0  0  0
  -30.8000  -17.2260   20.6140 C   0  0  0  0  0  3  0  0  0  0  0  0
  -30.1670  -16.0040   20.0440 N   0  0  0  0  0  0  0  0  0  0  0  0
  -25.4700  -14.0160   20.2210 C   0  0  0  0  0  0  0  0  0  0  0  0
  -24.4580  -13.2260   20.6870 C   0  0  0  0  0  0  0  0  0  0  0  0
  -24.9200  -11.8800   20.5580 C   0  0  0  0  0  0  0  0  0  0  0  0
  -26.4820  -13.1430   19.8360 N   0  0  0  0  0  0  0  0  0  0  0  0
  -26.1630  -11.8570   20.1030 N   0  0  0  0  0  0  0  0  0  0  0  0
  -24.2300  -10.6080   20.7810 C   0  0  0  0  0  0  0  0  0  0  0  0
  -24.6580   -9.7040   21.7780 C   0  0  0  0  0  3  0  0  0  0  0  0
  -23.9690   -8.4900   21.9830 C   0  0  0  0  0  3  0  0  0  0  0  0
  -22.8410   -8.1730   21.1900 C   0  0  0  0  0  0  0  0  0  0  0  0
  -22.4360   -9.0660   20.1830 C   0  0  0  0  0  3  0  0  0  0  0  0
  -23.1250  -10.2720   19.9760 C   0  0  0  0  0  3  0  0  0  0  0  0
  -22.1240   -7.0070   21.3040 O   0  0  0  0  0  0  0  0  0  0  0  0
  -21.9530   -6.3840   22.5120 C   0  0  0  0  0  0  0  0  0  0  0  0
  -21.3380   -7.0320   23.6050 C   0  0  0  0  0  3  0  0  0  0  0  0
  -21.1230   -6.3320   24.8080 C   0  0  0  0  0  3  0  0  0  0  0  0
  -21.5080   -4.9830   24.9180 C   0  0  0  0  0  0  0  0  0  0  0  0
  -22.1150   -4.3340   23.8290 C   0  0  0  0  0  3  0  0  0  0  0  0
  -22.3360   -5.0320   22.6290 C   0  0  0  0  0  0  0  0  0  0  0  0
  -22.9050   -4.3970   21.5760 F   0  0  0  0  0  0  0  0  0  0  0  0
  -21.2900   -4.3070   26.0720 F   0  0  0  0  0  0  0  0  0  0  0  0
  -23.0990  -13.6820   21.1290 C   0  0  0  0  0  0  0  0  0  0  0  0
  -22.4990  -12.9810   22.0860 N   0  0  0  0  0  0  0  0  0  0  0  0
  -22.5800  -14.6930   20.6610 O   0  0  0  0  0  0  0  0  0  0  0  0
  -22.9350  -12.1650   22.4870 H   0  0  0  0  0  0  0  0  0  0  0  0
  -21.5930  -13.2710   22.4260 H   0  0  0  0  0  0  0  0  0  0  0  0
  -25.5960  -15.3930   20.0660 N   0  0  0  0  0  0  0  0  0  0  0  0
  -24.8220  -16.0160   20.2620 H   0  0  0  0  0  0  0  0  0  0  0  0
  -26.3620  -15.8520   19.5910 H   0  0  0  0  0  0  0  0  0  0  0  0
  -31.9370  -18.2000   22.7150 C   0  0  0  0  0  1  0  0  0  0  0  0
  -30.5780  -16.0720   22.9340 C   0  0  0  0  0  1  0  0  0  0  0  0
  -31.4510  -16.9300   21.9970 C   0  0  0  0  0  3  0  0  0  0  0  0
  -30.1480  -24.2030   20.4770 C   0  0  0  0  0  2  0  0  0  0  0  0
  -29.0220  -25.2480   20.6650 C   0  0  0  0  0  2  0  0  0  0  0  0
  -28.1580  -25.5660   19.4220 C   0  0  0  0  0  2  0  0  0  0  0  0
  -28.0880  -26.9920   19.2430 O   0  0  0  0  0  0  0  0  0  0  0  0
  -24.5710  -31.8140   23.1120 C   0  0  0  0  0  0  0  0  0  0  0  0
  -26.8900  -27.6520   19.4350 C   0  0  0  0  0  0  0  0  0  0  0  0
  -23.1970  -30.5140   21.5150 C   0  0  0  0  0  3  0  0  0  0  0  0
  -24.4920  -29.1070   19.8270 C   0  0  0  0  0  0  0  0  0  0  0  0
  -25.6790  -30.9300   21.0600 C   0  0  0  0  0  2  0  0  0  0  0  0
  -25.7030  -29.6110   20.3150 C   0  0  0  0  0  0  0  0  0  0  0  0
  -26.9020  -28.8930   20.1110 C   0  0  0  0  0  3  0  0  0  0  0  0
  -25.6600  -27.1630   18.9380 C   0  0  0  0  0  3  0  0  0  0  0  0
  -24.4640  -27.8830   19.1350 C   0  0  0  0  0  3  0  0  0  0  0  0
  -23.2540  -29.9400   20.0740 C   0  0  0  0  0  2  0  0  0  0  0  0
  -24.5070  -31.0950   21.9530 N   0  0  0  0  0  0  0  0  0  0  0  0
  -23.5550  -32.0260   23.7880 O   0  0  0  0  0  0  0  0  0  0  0  0
  -22.6670  -29.4160   22.4660 C   0  0  0  0  0  0  0  0  0  0  0  0
  -21.3580  -29.1280   22.3770 N   0  0  0  0  0  0  0  0  0  0  0  0
  -23.4300  -28.8260   23.2330 O   0  0  0  0  0  0  0  0  0  0  0  0
  -20.7970  -29.6650   21.7290 H   0  0  0  0  0  0  0  0  0  0  0  0
  -18.1370  -27.5620   22.8640 C   0  0  0  0  0  0  0  0  0  0  0  0
  -20.6490  -28.1030   23.1420 C   0  0  0  0  0  3  0  0  0  0  0  0
  -20.9130  -26.6940   22.5640 C   0  0  0  0  0  2  0  0  0  0  0  0
  -19.8570  -26.2530   21.5450 C   0  0  0  0  0  2  0  0  0  0  0  0
  -18.4660  -26.2420   22.1860 C   0  0  0  0  0  2  0  0  0  0  0  0
  -19.1620  -28.4430   23.2980 C   0  0  0  0  0  0  0  0  0  0  0  0
  -18.8050  -29.6750   23.8870 C   0  0  0  0  0  3  0  0  0  0  0  0
  -17.4520  -30.0270   24.0520 C   0  0  0  0  0  3  0  0  0  0  0  0
  -16.4410  -29.1440   23.6350 C   0  0  0  0  0  3  0  0  0  0  0  0
  -16.7840  -27.9140   23.0460 C   0  0  0  0  0  3  0  0  0  0  0  0
  -25.9130  -32.4200   23.6260 C   0  0  0  0  0  3  0  0  0  0  0  0
  -26.5640  -31.5840   24.7980 C   0  0  1  0  0  0  0  0  0  0  0  0
  -25.5770  -31.2240   25.9320 C   0  0  0  0  0  1  0  0  0  0  0  0
  -27.1590  -30.2640   24.2580 C   0  0  0  0  0  1  0  0  0  0  0  0
  -27.7400  -32.3750   25.4170 C   0  0  0  0  0  1  0  0  0  0  0  0
  -25.6420  -33.7970   24.0610 N   0  0  0  0  0  0  0  0  0  0  0  0
  -25.9040  -34.8910   23.3320 C   0  0  0  0  0  0  0  0  0  0  0  0
  -26.4760  -34.8460   22.2400 O   0  0  0  0  0  0  0  0  0  0  0  0
  -25.1340  -33.9070   24.9260 H   0  0  0  0  0  0  0  0  0  0  0  0
  -24.1680  -36.7040   23.2150 C   0  0  0  0  0  1  0  0  0  0  0  0
  -25.4630  -36.2510   23.9070 C   0  0  0  0  0  3  0  0  0  0  0  0
  -27.6550  -37.0790   24.6370 C   0  0  0  0  0  1  0  0  0  0  0  0
  -26.4920  -37.3060   23.7830 N   0  0  0  0  0  0  0  0  0  0  0  0
  -26.1030  -38.2170   24.0140 H   0  0  0  0  0  0  0  0  0  0  0  0
  2  5  1  0
  3  1  1  0
  4  2  1  0
  4  6  1  0
  5 52  1  0
  5  1  1  0
  6  3  1  0
  6  7  1  1
  8 20  1  0
  9 14  1  0
 10 11  1  0
 10  9  1  0
 12 11  1  0
 12 24  1  0
 12 13  1  0
 14  8  1  0
 14 13  1  0
 15  8  2  0
 16 17  1  0
 17 20  1  0
 18 16  1  0
 18 19  1  0
 18  6  1  0
 19 51  1  0
 20 19  1  0
 21 22  2  0
 22 41  1  0
 23 22  1  0
 23 26  1  0
 24 25  1  0
 24 21  1  0
 25 23  2  0
 26 27  1  0
 27 28  2  0
 29 32  1  0
 29 28  1  0
 30 29  2  0
 31 30  1  0
 31 26  2  0
 32 33  1  0
 33 38  2  0
 33 34  1  0
 34 35  2  0
 35 36  1  0
 36 40  1  0
 37 36  2  0
 38 37  1  0
 39 38  1  0
 41 42  1  0
 42 45  1  0
 42 44  1  0
 43 41  2  0
 46 21  1  0
 46 47  1  0
 48 46  1  0
 51 49  1  0
 51 50  1  0
 52 53  1  0
 54 53  1  0
 55 54  1  0
 55 57  1  0
 56 67  2  0
 57 62  1  0
 58 66  1  0
 58 68  1  0
 59 65  1  0
 59 61  1  0
 60 66  1  0
 61 60  1  0
 62 61  2  0
 63 64  1  0
 63 57  2  0
 64 59  2  0
 65 58  1  0
 66 56  1  0
 68 70  2  0
 69 68  1  0
 71 69  1  0
 72 81  2  0
 72 77  1  0
 73 69  1  0
 73 77  1  0
 74 73  1  0
 75 76  1  0
 75 74  1  0
 76 72  1  0
 77 78  2  0
 78 79  1  0
 80 79  2  0
 81 80  1  0
 82 56  1  0
 82 87  1  0
 82 83  1  0
 83 86  1  1
 83 84  1  0
 85 83  1  0
 87 90  1  0
 88 92  1  0
 88 87  1  0
 89 88  2  0
 92 91  1  0
 94 92  1  0
 94 95  1  0
 94 93  1  0
M  ISO  4   8 100  20 100  54 101  55 101
M  END
>  <TORSDO>  (19) 
F 20

>  <SCORE>  (19) 
-10.289

>  <name>  (19) 
18

>  <ligand_id>  (19) 
18

>  <original_smiles>  (19) 
[H]c1c([H])c([H])c2c(c1[H])C([H])([H])C([H])([H])C([H])([H])C2([H])N([H])C(=O)C1([H])N(C(=O)C([H])(N([H])C(=O)C([H])(N([H])C([H])([H])[H])C([H])([H])[H])C(C([H])([H])[H])(C([H])([H])[H])C([H])([H])[H])C([H])([H])c2c([H])c(OC([H])([H])C([H])([H])C([H])([H])C3([H])C([H])([H])C([H])([H])[N+]([H])(C4([H])C([H])([H])C([H])([H])N(C(=O)N5C([H])([H])C([H])([H])C([H])([H])C([H])(n6nc(-c7c([H])c([H])c(Oc8c([H])c([H])c(F)c([H])c8F)c([H])c7[H])c(C(=O)N([H])[H])c6N([H])[H])C5([H])[H])C4([H])C([H])(C([H])([H])[H])C([H])([H])[H])C([H])([H])C3([H])[H])c([H])c([H])c2C1([H])[H]

>  <smiles>  (19) 
[H]c1c([H])c([H])c2c(c1[H])C([H])([H])C([H])([H])C([H])([H])C2([H])N([H])C(=O)C1([H])N(C(=O)C([H])(N([H])C(=O)C([H])(N([H])C([H])([H])[H])C([H])([H])[H])C(C([H])([H])[H])(C([H])([H])[H])C([H])([H])[H])C([H])([H])c2c([H])c(OC([H])([H])C([H])([H])C([H])([H])C3([H])C([H])([H])C([H])([H])[N+]([H])(C4([H])C([H])([H])C([H])([H])N(C(=O)N5C([H])([H])C([H])([H])C([H])([H])C([H])(n6nc(-c7c([H])c([H])c(Oc8c([H])c([H])c(F)c([H])c8F)c([H])c7[H])c(C(=O)N([H])[H])c6N([H])[H])C5([H])[H])C4([H])C([H])(C([H])([H])[H])C([H])([H])[H])C([H])([H])C3([H])[H])c([H])c([H])c2C1([H])[H]

$$$$
19:0:0
     RDKit          3D

 96104  0  0  1  0  0  0  0  0999 V2000
  -30.5150  -15.0450   20.4220 C   0  0  0  0  0  0  0  0  0  0  0  0
  -30.4160  -12.6930   19.4660 C   0  0  0  0  0  2  0  0  0  0  0  0
  -29.5150  -12.6470   18.2160 C   0  0  0  0  0  2  0  0  0  0  0  0
  -28.0430  -12.4350   18.6190 C   0  0  0  0  0  2  0  0  0  0  0  0
  -27.6080  -13.3510   19.7950 C   0  0  0  0  0  3  0  0  0  0  0  0
  -28.6390  -13.3670   20.9370 C   0  0  0  0  0  2  0  0  0  0  0  0
  -29.8990  -13.7980   20.3290 N   0  0  0  0  0  0  0  0  0  0  0  0
  -31.7430  -15.0360   20.2590 O   0  0  0  0  0  0  0  0  0  0  0  0
  -29.6170  -19.0730   20.4270 C   0  0  0  0  0  0  0  0  0  0  0  0
  -28.8540  -20.2890   20.5090 C   0  0  0  0  0  3  0  0  0  0  0  0
  -29.2640  -17.5330   20.9120 C   0  0  0  0  0  2  0  0  0  0  0  0
  -30.9800  -17.9790   18.6230 C   0  0  0  0  0  2  0  0  0  0  0  0
  -29.9880  -16.7800   18.7480 C   0  0  0  0  0  2  0  0  0  0  0  0
  -31.0250  -18.9570   19.8340 C   0  0  0  0  0  3  0  0  0  0  0  0
  -29.8040  -16.2680   20.1180 N   0  0  0  0  0  0  0  0  0  0  0  0
  -25.2170  -13.9230   20.4880 C   0  0  0  0  0  0  0  0  0  0  0  0
  -24.1530  -13.1450   20.8460 C   0  0  0  0  0  0  0  0  0  0  0  0
  -24.6270  -11.7940   20.8330 C   0  0  0  0  0  0  0  0  0  0  0  0
  -26.2680  -13.0470   20.2700 N   0  0  0  0  0  0  0  0  0  0  0  0
  -25.9230  -11.7630   20.5440 N   0  0  0  0  0  0  0  0  0  0  0  0
  -23.9040  -10.5300   21.0200 C   0  0  0  0  0  0  0  0  0  0  0  0
  -24.3210   -9.5670   21.9680 C   0  0  0  0  0  3  0  0  0  0  0  0
  -23.5920   -8.3700   22.1380 C   0  0  0  0  0  3  0  0  0  0  0  0
  -22.4320   -8.1300   21.3650 C   0  0  0  0  0  0  0  0  0  0  0  0
  -22.0380   -9.0800   20.4050 C   0  0  0  0  0  3  0  0  0  0  0  0
  -22.7670  -10.2660   20.2320 C   0  0  0  0  0  3  0  0  0  0  0  0
  -21.6750   -6.9860   21.4470 O   0  0  0  0  0  0  0  0  0  0  0  0
  -21.5960   -6.2540   22.6050 C   0  0  0  0  0  0  0  0  0  0  0  0
  -21.1310   -6.8150   23.8140 C   0  0  0  0  0  3  0  0  0  0  0  0
  -21.0030   -6.0090   24.9630 C   0  0  0  0  0  3  0  0  0  0  0  0
  -21.3320   -4.6420   24.9030 C   0  0  0  0  0  0  0  0  0  0  0  0
  -21.7890   -4.0790   23.6990 C   0  0  0  0  0  3  0  0  0  0  0  0
  -21.9180   -4.8820   22.5530 C   0  0  0  0  0  0  0  0  0  0  0  0
  -22.3410   -4.3290   21.3920 F   0  0  0  0  0  0  0  0  0  0  0  0
  -21.2000   -3.8650   26.0050 F   0  0  0  0  0  0  0  0  0  0  0  0
  -22.7480  -13.6130   21.0880 C   0  0  0  0  0  0  0  0  0  0  0  0
  -22.0060  -12.9230   21.9470 N   0  0  0  0  0  0  0  0  0  0  0  0
  -22.3140  -14.6310   20.5500 O   0  0  0  0  0  0  0  0  0  0  0  0
  -22.3700  -12.1030   22.4110 H   0  0  0  0  0  0  0  0  0  0  0  0
  -21.0590  -13.2160   22.1390 H   0  0  0  0  0  0  0  0  0  0  0  0
  -25.3790  -15.2960   20.3030 N   0  0  0  0  0  0  0  0  0  0  0  0
  -24.6120  -15.9470   20.4150 H   0  0  0  0  0  0  0  0  0  0  0  0
  -26.2340  -15.7450   19.9910 H   0  0  0  0  0  0  0  0  0  0  0  0
  -32.0540  -18.4740   20.9100 C   0  0  0  0  0  2  0  0  0  0  0  0
  -33.4640  -18.6020   20.5000 N   0  0  0  0  0  4  0  0  0  0  0  0
  -33.5680  -18.4720   19.5110 H   0  0  0  0  0  0  0  0  0  0  0  0
  -34.0200  -17.9090   20.9690 H   0  0  0  0  0  0  0  0  0  0  0  0
  -33.8280  -19.4980   20.7760 H   0  0  0  0  0  0  0  0  0  0  0  0
  -28.9920  -21.8630   19.9440 C   0  0  0  0  0  3  0  0  0  0  0  0
  -30.3920  -22.9630   18.1930 C   0  0  0  0  0  1  0  0  0  0  0  0
  -30.3510  -22.2340   19.4840 N   0  0  0  0  0  4  0  0  0  0  0  0
  -30.8280  -22.7770   20.1860 H   0  0  0  0  0  0  0  0  0  0  0  0
  -30.8870  -21.3930   19.3540 H   0  0  0  0  0  0  0  0  0  0  0  0
  -28.0070  -23.2380   20.2410 C   0  0  0  0  0  2  0  0  0  0  0  0
  -28.3430  -24.8010   20.8190 C   0  0  0  0  0  2  0  0  0  0  0  0
  -28.3140  -26.2410   20.2110 O   0  0  0  0  0  0  0  0  0  0  0  0
  -24.6050  -31.9090   23.2390 C   0  0  0  0  0  0  0  0  0  0  0  0
  -27.2240  -27.1790   20.2690 C   0  0  0  0  0  0  0  0  0  0  0  0
  -23.4260  -30.4970   21.6000 C   0  0  0  0  0  3  0  0  0  0  0  0
  -24.8910  -28.9080   20.2060 C   0  0  0  0  0  0  0  0  0  0  0  0
  -25.9770  -30.7700   21.4510 C   0  0  0  0  0  2  0  0  0  0  0  0
  -26.0620  -29.3690   20.8180 C   0  0  0  0  0  0  0  0  0  0  0  0
  -27.2320  -28.5200   20.8300 C   0  0  0  0  0  3  0  0  0  0  0  0
  -26.0260  -26.8110   19.6270 C   0  0  0  0  0  3  0  0  0  0  0  0
  -24.8880  -27.6450   19.5950 C   0  0  0  0  0  3  0  0  0  0  0  0
  -23.6620  -29.8060   20.2300 C   0  0  0  0  0  2  0  0  0  0  0  0
  -24.6890  -31.0830   22.1530 N   0  0  0  0  0  0  0  0  0  0  0  0
  -23.5130  -32.1870   23.7580 O   0  0  0  0  0  0  0  0  0  0  0  0
  -22.7480  -29.4920   22.5660 C   0  0  0  0  0  0  0  0  0  0  0  0
  -21.4190  -29.3180   22.4330 N   0  0  0  0  0  0  0  0  0  0  0  0
  -23.4160  -28.8700   23.3930 O   0  0  0  0  0  0  0  0  0  0  0  0
  -20.9360  -29.8750   21.7440 H   0  0  0  0  0  0  0  0  0  0  0  0
  -18.0370  -28.1240   22.9360 C   0  0  0  0  0  0  0  0  0  0  0  0
  -20.5960  -28.3800   23.2020 C   0  0  0  0  0  3  0  0  0  0  0  0
  -20.6950  -26.9480   22.6250 C   0  0  0  0  0  2  0  0  0  0  0  0
  -19.5920  -26.6310   21.6100 C   0  0  0  0  0  2  0  0  0  0  0  0
  -18.2120  -26.7760   22.2580 C   0  0  0  0  0  2  0  0  0  0  0  0
  -19.1560  -28.8850   23.3660 C   0  0  0  0  0  0  0  0  0  0  0  0
  -18.9410  -30.1470   23.9620 C   0  0  0  0  0  3  0  0  0  0  0  0
  -17.6350  -30.6460   24.1340 C   0  0  0  0  0  3  0  0  0  0  0  0
  -16.5300  -29.8810   23.7210 C   0  0  0  0  0  3  0  0  0  0  0  0
  -16.7310  -28.6230   23.1270 C   0  0  0  0  0  3  0  0  0  0  0  0
  -25.8740  -32.5570   23.8740 C   0  0  0  0  0  3  0  0  0  0  0  0
  -25.5540  -33.9600   24.1860 N   0  0  0  0  0  0  0  0  0  0  0  0
  -25.9000  -35.0080   23.4280 C   0  0  0  0  0  0  0  0  0  0  0  0
  -26.5850  -34.8970   22.4080 O   0  0  0  0  0  0  0  0  0  0  0  0
  -24.9450  -34.1220   24.9760 H   0  0  0  0  0  0  0  0  0  0  0  0
  -24.1870  -36.8110   23.0290 C   0  0  0  0  0  1  0  0  0  0  0  0
  -25.4100  -36.4030   23.8670 C   0  0  0  0  0  3  0  0  0  0  0  0
  -27.5280  -37.2920   24.7380 C   0  0  0  0  0  1  0  0  0  0  0  0
  -26.4470  -37.4540   23.7680 N   0  0  0  0  0  0  0  0  0  0  0  0
  -26.0420  -38.3780   23.8930 H   0  0  0  0  0  0  0  0  0  0  0  0
  -26.3730  -31.8040   25.1680 C   0  0  1  0  0  0  0  0  0  0  0  0
  -25.2660  -31.5780   26.2260 C   0  0  0  0  0  1  0  0  0  0  0  0
  -26.9600  -30.4210   24.8090 C   0  0  0  0  0  1  0  0  0  0  0  0
  -27.5140  -32.6090   25.8330 C   0  0  0  0  0  1  0  0  0  0  0  0
  2  7  1  0
  3  4  1  0
  3  2  1  0
  5  4  1  0
  5 19  1  0
  5  6  1  0
  7  1  1  0
  7  6  1  0
  8  1  2  0
  9 10  2  0
  9 11  1  0
 12 13  1  0
 12 14  1  0
 13 15  1  0
 14  9  1  0
 14 44  1  0
 15  1  1  0
 15 11  1  0
 16 17  2  0
 17 36  1  0
 18 17  1  0
 18 21  1  0
 19 16  1  0
 19 20  1  0
 20 18  2  0
 21 22  1  0
 22 23  2  0
 24 27  1  0
 24 23  1  0
 25 24  2  0
 26 25  1  0
 26 21  2  0
 27 28  1  0
 28 29  1  0
 29 30  2  0
 31 30  1  0
 31 35  1  0
 32 31  2  0
 33 28  2  0
 33 32  1  0
 34 33  1  0
 36 37  1  0
 37 40  1  0
 37 39  1  0
 38 36  2  0
 41 42  1  0
 41 16  1  0
 43 41  1  0
 45 48  1  0
 45 44  1  0
 45 47  1  0
 46 45  1  0
 49 54  1  0
 49 10  1  0
 50 51  1  0
 51 49  1  0
 51 52  1  0
 53 51  1  0
 54 55  1  0
 56 58  1  0
 56 55  1  0
 57 68  2  0
 58 63  1  0
 59 67  1  0
 59 69  1  0
 60 66  1  0
 60 62  1  0
 61 67  1  0
 62 63  2  0
 62 61  1  0
 64 58  2  0
 65 64  1  0
 65 60  2  0
 66 59  1  0
 67 57  1  0
 69 71  2  0
 70 69  1  0
 72 70  1  0
 73 82  2  0
 73 78  1  0
 74 70  1  0
 74 78  1  0
 75 74  1  0
 76 77  1  0
 76 75  1  0
 77 73  1  0
 78 79  2  0
 79 80  1  0
 81 80  2  0
 82 81  1  0
 83 57  1  0
 83 84  1  0
 83 93  1  0
 84 87  1  0
 85 89  1  0
 85 84  1  0
 86 85  2  0
 89 88  1  0
 91 89  1  0
 91 92  1  0
 91 90  1  0
 93 96  1  1
 93 94  1  0
 95 93  1  0
M  ISO  4   1 100  15 100  55 101  56 101
M  END
>  <TORSDO>  (20) 
F 21

>  <SCORE>  (20) 
-14.730

>  <name>  (20) 
19

>  <ligand_id>  (20) 
19

>  <original_smiles>  (20) 
[H]C(=C1C([H])([H])N(C(=O)N2C([H])([H])C([H])([H])C([H])([H])C([H])(n3nc(-c4c([H])c([H])c(Oc5c([H])c([H])c(F)c([H])c5F)c([H])c4[H])c(C(=O)N([H])[H])c3N([H])[H])C2([H])[H])C([H])([H])C([H])([H])C1([H])C([H])([H])[N+]([H])([H])[H])C([H])(C([H])([H])C([H])([H])Oc1c([H])c([H])c2c(c1[H])C([H])([H])N(C(=O)C([H])(N([H])C(=O)C([H])(N([H])C([H])([H])[H])C([H])([H])[H])C(C([H])([H])[H])(C([H])([H])[H])C([H])([H])[H])C([H])(C(=O)N([H])C1([H])c3c([H])c([H])c([H])c([H])c3C([H])([H])C([H])([H])C1([H])[H])C2([H])[H])[N+]([H])([H])C([H])([H])[H]

>  <smiles>  (20) 
[H]C(=C1C([H])([H])N(C(=O)N2C([H])([H])C([H])([H])C([H])([H])C([H])(n3nc(-c4c([H])c([H])c(Oc5c([H])c([H])c(F)c([H])c5F)c([H])c4[H])c(C(=O)N([H])[H])c3N([H])[H])C2([H])[H])C([H])([H])C([H])([H])C1([H])C([H])([H])[N+]([H])([H])[H])C([H])(C([H])([H])C([H])([H])Oc1c([H])c([H])c2c(c1[H])C([H])([H])N(C(=O)C([H])(N([H])C(=O)C([H])(N([H])C([H])([H])[H])C([H])([H])[H])C(C([H])([H])[H])(C([H])([H])[H])C([H])([H])[H])C([H])(C(=O)N([H])C1([H])c3c([H])c([H])c([H])c([H])c3C([H])([H])C([H])([H])C1([H])[H])C2([H])[H])[N+]([H])([H])C([H])([H])[H]

$$$$
20:0:0
     RDKit          3D

 96104  0  0  1  0  0  0  0  0999 V2000
  -29.2390  -19.1380   20.7670 C   0  0  0  0  0  3  0  0  0  0  0  0
  -29.6070  -20.3120   20.1350 C   0  0  0  0  0  0  0  0  0  0  0  0
  -30.9850  -20.1250   19.7910 C   0  0  0  0  0  0  0  0  0  0  0  0
  -31.3810  -18.8590   20.1790 C   0  0  0  0  0  0  0  0  0  0  0  0
  -31.8470  -21.1770   19.1250 C   0  0  0  0  0  1  0  0  0  0  0  0
  -30.3100  -18.2370   20.8200 N   0  0  0  0  0  0  0  0  0  0  0  0
  -33.8370  -18.9490   20.7790 C   0  0  0  0  0  1  0  0  0  0  0  0
  -33.0940  -17.8580   18.5900 C   0  0  0  0  0  1  0  0  0  0  0  0
  -32.7260  -18.1810   20.0480 C   0  0  0  0  0  3  0  0  0  0  0  0
  -27.2430  -21.2000   19.7260 C   0  0  0  0  0  1  0  0  0  0  0  0
  -28.7360  -21.5600   19.7720 C   0  0  0  0  0  3  0  0  0  0  0  0
  -28.9590  -22.8010   20.5930 N   0  0  0  0  0  4  0  0  0  0  0  0
  -28.3930  -22.7200   21.4240 H   0  0  0  0  0  0  0  0  0  0  0  0
  -29.9190  -22.7910   20.8980 H   0  0  0  0  0  0  0  0  0  0  0  0
  -28.6970  -24.1310   19.9090 C   0  0  0  0  0  3  0  0  0  0  0  0
  -28.3840  -25.3480   20.8590 C   0  0  0  0  0  3  0  0  0  0  0  0
  -28.4590  -26.6870   20.2730 O   0  0  0  0  0  0  0  0  0  0  0  0
  -24.5450  -31.9350   23.2210 C   0  0  0  0  0  0  0  0  0  0  0  0
  -27.2980  -27.4490   20.2530 C   0  0  0  0  0  0  0  0  0  0  0  0
  -23.3940  -30.5090   21.5610 C   0  0  0  0  0  3  0  0  0  0  0  0
  -24.8970  -28.9680   20.1840 C   0  0  0  0  0  0  0  0  0  0  0  0
  -25.9240  -30.8810   21.4210 C   0  0  0  0  0  2  0  0  0  0  0  0
  -26.0390  -29.5000   20.7950 C   0  0  0  0  0  0  0  0  0  0  0  0
  -27.2460  -28.7520   20.8190 C   0  0  0  0  0  3  0  0  0  0  0  0
  -26.1380  -26.9440   19.6300 C   0  0  0  0  0  3  0  0  0  0  0  0
  -24.9440  -27.6930   19.5930 C   0  0  0  0  0  3  0  0  0  0  0  0
  -23.6460  -29.8210   20.1920 C   0  0  0  0  0  2  0  0  0  0  0  0
  -24.6380  -31.1250   22.1260 N   0  0  0  0  0  0  0  0  0  0  0  0
  -23.4470  -32.1990   23.7330 O   0  0  0  0  0  0  0  0  0  0  0  0
  -22.7280  -29.4910   22.5140 C   0  0  0  0  0  0  0  0  0  0  0  0
  -21.4030  -29.3160   22.3780 N   0  0  0  0  0  0  0  0  0  0  0  0
  -23.4020  -28.8590   23.3330 O   0  0  0  0  0  0  0  0  0  0  0  0
  -20.9200  -29.8770   21.6900 H   0  0  0  0  0  0  0  0  0  0  0  0
  -18.0120  -28.1700   22.8860 C   0  0  0  0  0  0  0  0  0  0  0  0
  -20.5760  -28.3780   23.1380 C   0  0  0  0  0  3  0  0  0  0  0  0
  -20.6480  -26.9570   22.5330 C   0  0  0  0  0  2  0  0  0  0  0  0
  -19.5310  -26.6740   21.5220 C   0  0  0  0  0  2  0  0  0  0  0  0
  -18.1580  -26.8320   22.1830 C   0  0  0  0  0  2  0  0  0  0  0  0
  -19.1480  -28.9030   23.3210 C   0  0  0  0  0  0  0  0  0  0  0  0
  -18.9580  -30.1580   23.9390 C   0  0  0  0  0  3  0  0  0  0  0  0
  -17.6650  -30.6810   24.1240 C   0  0  0  0  0  3  0  0  0  0  0  0
  -16.5430  -29.9440   23.7070 C   0  0  0  0  0  3  0  0  0  0  0  0
  -16.7170  -28.6900   23.0950 C   0  0  0  0  0  3  0  0  0  0  0  0
  -25.8080  -32.5840   23.8670 C   0  0  0  0  0  3  0  0  0  0  0  0
  -25.4840  -33.9840   24.1700 N   0  0  0  0  0  0  0  0  0  0  0  0
  -25.8250  -35.0290   23.4030 C   0  0  0  0  0  0  0  0  0  0  0  0
  -26.5200  -34.9150   22.3900 O   0  0  0  0  0  0  0  0  0  0  0  0
  -24.8700  -34.1450   24.9550 H   0  0  0  0  0  0  0  0  0  0  0  0
  -24.1010  -36.8090   22.9700 C   0  0  0  0  0  1  0  0  0  0  0  0
  -25.3160  -36.4190   23.8280 C   0  0  0  0  0  3  0  0  0  0  0  0
  -27.4130  -37.3310   24.7240 C   0  0  0  0  0  1  0  0  0  0  0  0
  -26.3470  -37.4760   23.7360 N   0  0  0  0  0  0  0  0  0  0  0  0
  -25.9330  -38.3970   23.8490 H   0  0  0  0  0  0  0  0  0  0  0  0
  -26.2980  -31.8320   25.1660 C   0  0  1  0  0  0  0  0  0  0  0  0
  -25.1790  -31.5950   26.2060 C   0  0  0  0  0  1  0  0  0  0  0  0
  -26.9050  -30.4560   24.8040 C   0  0  0  0  0  1  0  0  0  0  0  0
  -27.4240  -32.6440   25.8500 C   0  0  0  0  0  1  0  0  0  0  0  0
  -30.3350  -16.9370   21.5620 C   0  0  0  0  0  2  0  0  0  0  0  0
  -30.6600  -14.6860   20.3690 C   0  0  0  0  0  0  0  0  0  0  0  0
  -30.4030  -12.5240   19.1690 C   0  0  0  0  0  2  0  0  0  0  0  0
  -29.4320  -12.7060   17.9830 C   0  0  0  0  0  2  0  0  0  0  0  0
  -27.9670  -12.5330   18.4360 C   0  0  0  0  0  2  0  0  0  0  0  0
  -27.6370  -13.3430   19.7190 C   0  0  0  0  0  3  0  0  0  0  0  0
  -28.7170  -13.1350   20.8020 C   0  0  0  0  0  2  0  0  0  0  0  0
  -30.0130  -13.4940   20.2060 N   0  0  0  0  0  0  0  0  0  0  0  0
  -31.8170  -14.8550   19.9840 O   0  0  0  0  0  0  0  0  0  0  0  0
  -29.9040  -15.7050   20.8530 N   0  0  0  0  0  0  0  0  0  0  0  0
  -28.9400  -15.4590   21.0060 H   0  0  0  0  0  0  0  0  0  0  0  0
  -25.2460  -13.9100   20.4760 C   0  0  0  0  0  0  0  0  0  0  0  0
  -24.1940  -13.1210   20.8550 C   0  0  0  0  0  0  0  0  0  0  0  0
  -24.6730  -11.7760   20.8090 C   0  0  0  0  0  0  0  0  0  0  0  0
  -26.2980  -13.0440   20.2210 N   0  0  0  0  0  0  0  0  0  0  0  0
  -25.9590  -11.7550   20.4810 N   0  0  0  0  0  0  0  0  0  0  0  0
  -23.9670  -10.5030   21.0010 C   0  0  0  0  0  0  0  0  0  0  0  0
  -24.4030   -9.5510   21.9480 C   0  0  0  0  0  3  0  0  0  0  0  0
  -23.6960   -8.3420   22.1270 C   0  0  0  0  0  3  0  0  0  0  0  0
  -22.5390   -8.0760   21.3580 C   0  0  0  0  0  0  0  0  0  0  0  0
  -22.1230   -9.0160   20.3980 C   0  0  0  0  0  3  0  0  0  0  0  0
  -22.8300  -10.2170   20.2180 C   0  0  0  0  0  3  0  0  0  0  0  0
  -21.8050   -6.9190   21.4430 O   0  0  0  0  0  0  0  0  0  0  0  0
  -21.7250   -6.2020   22.6090 C   0  0  0  0  0  0  0  0  0  0  0  0
  -21.2120   -6.7660   23.7990 C   0  0  0  0  0  3  0  0  0  0  0  0
  -21.0870   -5.9740   24.9570 C   0  0  0  0  0  3  0  0  0  0  0  0
  -21.4630   -4.6170   24.9250 C   0  0  0  0  0  0  0  0  0  0  0  0
  -21.9660   -4.0520   23.7400 C   0  0  0  0  0  3  0  0  0  0  0  0
  -22.0940   -4.8420   22.5850 C   0  0  0  0  0  0  0  0  0  0  0  0
  -22.5610   -4.2870   21.4400 F   0  0  0  0  0  0  0  0  0  0  0  0
  -21.3340   -3.8510   26.0340 F   0  0  0  0  0  0  0  0  0  0  0  0
  -22.7940  -13.5770   21.1480 C   0  0  0  0  0  0  0  0  0  0  0  0
  -22.0820  -12.8590   22.0090 N   0  0  0  0  0  0  0  0  0  0  0  0
  -22.3400  -14.6050   20.6470 O   0  0  0  0  0  0  0  0  0  0  0  0
  -22.4620  -12.0270   22.4360 H   0  0  0  0  0  0  0  0  0  0  0  0
  -21.1430  -13.1470   22.2460 H   0  0  0  0  0  0  0  0  0  0  0  0
  -25.3890  -15.2840   20.3070 N   0  0  0  0  0  0  0  0  0  0  0  0
  -24.6130  -15.9240   20.4320 H   0  0  0  0  0  0  0  0  0  0  0  0
  -26.2190  -15.7400   19.9470 H   0  0  0  0  0  0  0  0  0  0  0  0
  1  6  1  0
  2  1  2  0
  3  2  1  0
  3  4  2  0
  4  6  1  0
  5  3  1  0
  6 58  1  0
  8  9  1  0
  9  4  1  0
  9  7  1  0
 11 10  1  0
 11  2  1  0
 11 12  1  0
 12 14  1  0
 12 13  1  0
 15 12  1  0
 15 16  2  0
 17 16  1  0
 18 29  2  0
 19 17  1  0
 19 24  1  0
 20 28  1  0
 20 30  1  0
 21 27  1  0
 21 23  1  0
 22 28  1  0
 23 24  2  0
 23 22  1  0
 25 19  2  0
 26 25  1  0
 26 21  2  0
 27 20  1  0
 28 18  1  0
 30 32  2  0
 31 30  1  0
 33 31  1  0
 34 43  2  0
 34 39  1  0
 35 31  1  0
 35 39  1  0
 36 35  1  0
 37 38  1  0
 37 36  1  0
 38 34  1  0
 39 40  2  0
 40 41  1  0
 42 41  2  0
 43 42  1  0
 44 18  1  0
 44 45  1  0
 44 54  1  0
 45 48  1  0
 46 50  1  0
 46 45  1  0
 47 46  2  0
 50 49  1  0
 52 50  1  0
 52 53  1  0
 52 51  1  0
 54 57  1  1
 54 55  1  0
 56 54  1  0
 59 67  1  0
 60 65  1  0
 61 62  1  0
 61 60  1  0
 63 62  1  0
 63 72  1  0
 63 64  1  0
 65 59  1  0
 65 64  1  0
 66 59  2  0
 67 68  1  0
 67 58  1  0
 69 70  2  0
 70 89  1  0
 71 70  1  0
 71 74  1  0
 72 69  1  0
 72 73  1  0
 73 71  2  0
 74 75  1  0
 75 76  2  0
 77 80  1  0
 77 76  1  0
 78 77  2  0
 79 78  1  0
 79 74  2  0
 80 81  1  0
 81 82  1  0
 82 83  2  0
 84 83  1  0
 84 88  1  0
 85 84  2  0
 86 81  2  0
 86 85  1  0
 87 86  1  0
 89 90  1  0
 90 93  1  0
 90 92  1  0
 91 89  2  0
 94 95  1  0
 94 69  1  0
 96 94  1  0
M  ISO  4  16 101  17 101  59 100  67 100
M  END
>  <TORSDO>  (21) 
F 22

>  <SCORE>  (21) 
-13.250

>  <name>  (21) 
20

>  <ligand_id>  (21) 
20

>  <original_smiles>  (21) 
[H]c1c([H])c([H])c2c(c1[H])C([H])([H])C([H])([H])C([H])([H])C2([H])N([H])C(=O)C1([H])N(C(=O)C([H])(N([H])C(=O)C([H])(N([H])C([H])([H])[H])C([H])([H])[H])C(C([H])([H])[H])(C([H])([H])[H])C([H])([H])[H])C([H])([H])c2c([H])c(OC([H])([H])C([H])([H])[N+]([H])([H])C([H])(c3c(C([H])([H])[H])c(C([H])(C([H])([H])[H])C([H])([H])[H])n(C([H])([H])N([H])C(=O)N4C([H])([H])C([H])([H])C([H])([H])C([H])(n5nc(-c6c([H])c([H])c(Oc7c([H])c([H])c(F)c([H])c7F)c([H])c6[H])c(C(=O)N([H])[H])c5N([H])[H])C4([H])[H])c3[H])C([H])([H])[H])c([H])c([H])c2C1([H])[H]

>  <smiles>  (21) 
[H]c1c([H])c([H])c2c(c1[H])C([H])([H])C([H])([H])C([H])([H])C2([H])N([H])C(=O)C1([H])N(C(=O)C([H])(N([H])C(=O)C([H])(N([H])C([H])([H])[H])C([H])([H])[H])C(C([H])([H])[H])(C([H])([H])[H])C([H])([H])[H])C([H])([H])c2c([H])c(OC([H])([H])C([H])([H])[N+]([H])([H])C([H])(c3c(C([H])([H])[H])c(C([H])(C([H])([H])[H])C([H])([H])[H])n(C([H])([H])N([H])C(=O)N4C([H])([H])C([H])([H])C([H])([H])C([H])(n5nc(-c6c([H])c([H])c(Oc7c([H])c([H])c(F)c([H])c7F)c([H])c6[H])c(C(=O)N([H])[H])c5N([H])[H])C4([H])[H])c3[H])C([H])([H])[H])c([H])c([H])c2C1([H])[H]

$$$$
21:0:0
     RDKit          3D

 93101  0  0  1  0  0  0  0  0999 V2000
  -30.7080  -20.1320   20.0290 C   0  0  0  0  0  2  0  0  0  0  0  0
  -28.0780  -20.9120   20.6610 C   0  0  0  0  0  2  0  0  0  0  0  0
  -29.1980  -22.0360   20.6980 C   0  0  0  0  0  3  0  0  0  0  0  0
  -29.6550  -18.9420   20.1080 C   0  0  0  0  0  3  0  0  0  0  0  0
  -30.2320  -21.5400   19.7360 N   0  0  0  0  0  0  0  0  0  0  0  0
  -28.5670  -19.4990   20.9890 N   0  0  0  0  0  4  0  0  0  0  0  0
  -27.7740  -18.8840   20.9600 H   0  0  0  0  0  0  0  0  0  0  0  0
  -28.8950  -19.5070   21.9400 H   0  0  0  0  0  0  0  0  0  0  0  0
  -31.9880  -22.2950   18.1460 C   0  0  0  0  0  1  0  0  0  0  0  0
  -32.4420  -22.4280   20.6480 C   0  0  0  0  0  1  0  0  0  0  0  0
  -31.3610  -22.4760   19.5420 C   0  0  0  0  0  3  0  0  0  0  0  0
  -28.8290  -23.6650   20.8820 C   0  0  0  0  0  3  0  0  0  0  0  0
  -28.3220  -24.8390   19.8410 C   0  0  0  0  0  3  0  0  0  0  0  0
  -28.3360  -26.3310   20.2230 O   0  0  0  0  0  0  0  0  0  0  0  0
  -24.6150  -31.8550   23.2030 C   0  0  0  0  0  0  0  0  0  0  0  0
  -27.2340  -27.2360   20.1300 C   0  0  0  0  0  0  0  0  0  0  0  0
  -23.4260  -30.4710   21.5460 C   0  0  0  0  0  3  0  0  0  0  0  0
  -24.8840  -28.9280   20.1000 C   0  0  0  0  0  0  0  0  0  0  0  0
  -25.9680  -30.7720   21.3760 C   0  0  0  0  0  2  0  0  0  0  0  0
  -26.0520  -29.3900   20.7200 C   0  0  0  0  0  0  0  0  0  0  0  0
  -27.2220  -28.5550   20.7220 C   0  0  0  0  0  3  0  0  0  0  0  0
  -26.0420  -26.8670   19.4630 C   0  0  0  0  0  3  0  0  0  0  0  0
  -24.8890  -27.6820   19.4580 C   0  0  0  0  0  3  0  0  0  0  0  0
  -23.6470  -29.8100   20.1580 C   0  0  0  0  0  2  0  0  0  0  0  0
  -24.6910  -31.0550   22.0980 N   0  0  0  0  0  0  0  0  0  0  0  0
  -23.5300  -32.1220   23.7410 O   0  0  0  0  0  0  0  0  0  0  0  0
  -22.7580  -29.4480   22.4980 C   0  0  0  0  0  0  0  0  0  0  0  0
  -21.4270  -29.2790   22.3800 N   0  0  0  0  0  0  0  0  0  0  0  0
  -23.4370  -28.8060   23.3020 O   0  0  0  0  0  0  0  0  0  0  0  0
  -20.9360  -29.8560   21.7110 H   0  0  0  0  0  0  0  0  0  0  0  0
  -18.0480  -28.0930   22.9020 C   0  0  0  0  0  0  0  0  0  0  0  0
  -20.6110  -28.3330   23.1430 C   0  0  0  0  0  3  0  0  0  0  0  0
  -20.6940  -26.9110   22.5410 C   0  0  0  0  0  2  0  0  0  0  0  0
  -19.5830  -26.6150   21.5300 C   0  0  0  0  0  2  0  0  0  0  0  0
  -18.2080  -26.7580   22.1920 C   0  0  0  0  0  2  0  0  0  0  0  0
  -19.1750  -28.8390   23.3330 C   0  0  0  0  0  0  0  0  0  0  0  0
  -18.9720  -30.0900   23.9530 C   0  0  0  0  0  3  0  0  0  0  0  0
  -17.6720  -30.5950   24.1450 C   0  0  0  0  0  3  0  0  0  0  0  0
  -16.5560  -29.8460   23.7280 C   0  0  0  0  0  3  0  0  0  0  0  0
  -16.7470  -28.5970   23.1110 C   0  0  0  0  0  3  0  0  0  0  0  0
  -25.8910  -32.4920   23.8370 C   0  0  0  0  0  3  0  0  0  0  0  0
  -26.3950  -31.7220   25.1200 C   0  0  1  0  0  0  0  0  0  0  0  0
  -25.2950  -31.4820   26.1810 C   0  0  0  0  0  1  0  0  0  0  0  0
  -26.9800  -30.3450   24.7310 C   0  0  0  0  0  1  0  0  0  0  0  0
  -27.5530  -32.5070   25.7850 C   0  0  0  0  0  1  0  0  0  0  0  0
  -25.5850  -33.8930   24.1690 N   0  0  0  0  0  0  0  0  0  0  0  0
  -25.9170  -34.9460   23.4130 C   0  0  0  0  0  0  0  0  0  0  0  0
  -26.5860  -34.8450   22.3810 O   0  0  0  0  0  0  0  0  0  0  0  0
  -25.0010  -34.0450   24.9760 H   0  0  0  0  0  0  0  0  0  0  0  0
  -24.1920  -36.7410   23.0580 C   0  0  0  0  0  1  0  0  0  0  0  0
  -25.4280  -36.3340   23.8730 C   0  0  0  0  0  3  0  0  0  0  0  0
  -27.5580  -37.2190   24.7160 C   0  0  0  0  0  1  0  0  0  0  0  0
  -26.4610  -37.3860   23.7670 N   0  0  0  0  0  0  0  0  0  0  0  0
  -26.0520  -38.3050   23.9110 H   0  0  0  0  0  0  0  0  0  0  0  0
  -30.3830  -17.5060   20.5490 C   0  0  0  0  0  2  0  0  0  0  0  0
  -30.5810  -14.8780   20.1740 C   0  0  0  0  0  0  0  0  0  0  0  0
  -30.3610  -12.5980   19.1280 C   0  0  0  0  0  2  0  0  0  0  0  0
  -29.3810  -12.6360   17.9340 C   0  0  0  0  0  2  0  0  0  0  0  0
  -27.9330  -12.4360   18.4160 C   0  0  0  0  0  2  0  0  0  0  0  0
  -27.5840  -13.3240   19.6380 C   0  0  0  0  0  3  0  0  0  0  0  0
  -28.6800  -13.2690   20.7260 C   0  0  0  0  0  2  0  0  0  0  0  0
  -29.9410  -13.6560   20.0840 N   0  0  0  0  0  0  0  0  0  0  0  0
  -31.7730  -14.9430   19.8630 O   0  0  0  0  0  0  0  0  0  0  0  0
  -29.8480  -16.0540   20.4070 N   0  0  0  0  0  0  0  0  0  0  0  0
  -28.8590  -15.9180   20.5540 H   0  0  0  0  0  0  0  0  0  0  0  0
  -25.2160  -13.8930   20.4310 C   0  0  0  0  0  0  0  0  0  0  0  0
  -24.1660  -13.1090   20.8230 C   0  0  0  0  0  0  0  0  0  0  0  0
  -24.6380  -11.7620   20.7740 C   0  0  0  0  0  0  0  0  0  0  0  0
  -26.2590  -13.0210   20.1670 N   0  0  0  0  0  0  0  0  0  0  0  0
  -25.9220  -11.7350   20.4400 N   0  0  0  0  0  0  0  0  0  0  0  0
  -23.9260  -10.4930   20.9710 C   0  0  0  0  0  0  0  0  0  0  0  0
  -24.3720   -9.5340   21.9050 C   0  0  0  0  0  3  0  0  0  0  0  0
  -23.6610   -8.3290   22.0910 C   0  0  0  0  0  3  0  0  0  0  0  0
  -22.4870   -8.0750   21.3430 C   0  0  0  0  0  0  0  0  0  0  0  0
  -22.0600   -9.0220   20.3960 C   0  0  0  0  0  3  0  0  0  0  0  0
  -22.7730  -10.2180   20.2080 C   0  0  0  0  0  3  0  0  0  0  0  0
  -21.7460   -6.9240   21.4380 O   0  0  0  0  0  0  0  0  0  0  0  0
  -21.6960   -6.1930   22.5990 C   0  0  0  0  0  0  0  0  0  0  0  0
  -21.2410   -6.7530   23.8130 C   0  0  0  0  0  3  0  0  0  0  0  0
  -21.1440   -5.9490   24.9660 C   0  0  0  0  0  3  0  0  0  0  0  0
  -21.4860   -4.5850   24.9050 C   0  0  0  0  0  0  0  0  0  0  0  0
  -21.9320   -4.0240   23.6950 C   0  0  0  0  0  3  0  0  0  0  0  0
  -22.0330   -4.8260   22.5460 C   0  0  0  0  0  0  0  0  0  0  0  0
  -22.4440   -4.2750   21.3760 F   0  0  0  0  0  0  0  0  0  0  0  0
  -21.3840   -3.8110   26.0090 F   0  0  0  0  0  0  0  0  0  0  0  0
  -22.7720  -13.5730   21.1270 C   0  0  0  0  0  0  0  0  0  0  0  0
  -22.0640  -12.8560   21.9930 N   0  0  0  0  0  0  0  0  0  0  0  0
  -22.3210  -14.6050   20.6320 O   0  0  0  0  0  0  0  0  0  0  0  0
  -22.4440  -12.0150   22.4020 H   0  0  0  0  0  0  0  0  0  0  0  0
  -21.1290  -13.1460   22.2430 H   0  0  0  0  0  0  0  0  0  0  0  0
  -25.3680  -15.2650   20.2500 N   0  0  0  0  0  0  0  0  0  0  0  0
  -24.5890  -15.9070   20.3460 H   0  0  0  0  0  0  0  0  0  0  0  0
  -26.1750  -15.6870   19.8080 H   0  0  0  0  0  0  0  0  0  0  0  0
  1  4  1  0
  2  3  1  0
  2  6  1  0
  3 12  1  0
  4 55  1  0
  4  6  1  0
  5  1  1  0
  5  3  1  0
  6  8  1  0
  7  6  1  0
  9 11  1  0
 11  5  1  0
 11 10  1  0
 13 14  1  0
 13 12  2  0
 15 26  2  0
 16 14  1  0
 16 21  1  0
 17 25  1  0
 17 27  1  0
 18 24  1  0
 18 20  1  0
 19 25  1  0
 20 21  2  0
 20 19  1  0
 22 16  2  0
 23 22  1  0
 23 18  2  0
 24 17  1  0
 25 15  1  0
 27 29  2  0
 28 27  1  0
 30 28  1  0
 31 40  2  0
 31 36  1  0
 32 28  1  0
 32 36  1  0
 33 32  1  0
 34 35  1  0
 34 33  1  0
 35 31  1  0
 36 37  2  0
 37 38  1  0
 39 38  2  0
 40 39  1  0
 41 15  1  0
 41 46  1  0
 41 42  1  0
 42 45  1  1
 42 43  1  0
 44 42  1  0
 46 49  1  0
 47 51  1  0
 47 46  1  0
 48 47  2  0
 51 50  1  0
 53 51  1  0
 53 54  1  0
 53 52  1  0
 56 64  1  0
 57 62  1  0
 58 59  1  0
 58 57  1  0
 60 59  1  0
 60 69  1  0
 60 61  1  0
 62 56  1  0
 62 61  1  0
 63 56  2  0
 64 55  1  0
 64 65  1  0
 66 67  2  0
 67 86  1  0
 68 67  1  0
 68 71  1  0
 69 66  1  0
 69 70  1  0
 70 68  2  0
 71 72  1  0
 72 73  2  0
 74 77  1  0
 74 73  1  0
 75 74  2  0
 76 75  1  0
 76 71  2  0
 77 78  1  0
 78 79  1  0
 79 80  2  0
 81 80  1  0
 81 85  1  0
 82 81  2  0
 83 78  2  0
 83 82  1  0
 84 83  1  0
 86 87  1  0
 87 90  1  0
 87 89  1  0
 88 86  2  0
 91 92  1  0
 91 66  1  0
 93 91  1  0
M  ISO  4  13 101  14 101  56 100  64 100
M  END
>  <TORSDO>  (22) 
F 20

>  <SCORE>  (22) 
-13.723

>  <name>  (22) 
21

>  <ligand_id>  (22) 
21

>  <original_smiles>  (22) 
[H]c1c([H])c([H])c2c(c1[H])C([H])([H])C([H])([H])C([H])([H])C2([H])N([H])C(=O)C1([H])N(C(=O)C([H])(N([H])C(=O)C([H])(N([H])C([H])([H])[H])C([H])([H])[H])C(C([H])([H])[H])(C([H])([H])[H])C([H])([H])[H])C([H])([H])c2c([H])c(OC([H])([H])C([H])([H])C3([H])N(C([H])(C([H])([H])[H])C([H])([H])[H])C([H])([H])C([H])(C([H])([H])N([H])C(=O)N4C([H])([H])C([H])([H])C([H])([H])C([H])(n5nc(-c6c([H])c([H])c(Oc7c([H])c([H])c(F)c([H])c7F)c([H])c6[H])c(C(=O)N([H])[H])c5N([H])[H])C4([H])[H])[N+]([H])([H])C3([H])[H])c([H])c([H])c2C1([H])[H]

>  <smiles>  (22) 
[H]c1c([H])c([H])c2c(c1[H])C([H])([H])C([H])([H])C([H])([H])C2([H])N([H])C(=O)C1([H])N(C(=O)C([H])(N([H])C(=O)C([H])(N([H])C([H])([H])[H])C([H])([H])[H])C(C([H])([H])[H])(C([H])([H])[H])C([H])([H])[H])C([H])([H])c2c([H])c(OC([H])([H])C([H])([H])C3([H])N(C([H])(C([H])([H])[H])C([H])([H])[H])C([H])([H])C([H])(C([H])([H])N([H])C(=O)N4C([H])([H])C([H])([H])C([H])([H])C([H])(n5nc(-c6c([H])c([H])c(Oc7c([H])c([H])c(F)c([H])c7F)c([H])c6[H])c(C(=O)N([H])[H])c5N([H])[H])C4([H])[H])[N+]([H])([H])C3([H])[H])c([H])c([H])c2C1([H])[H]

$$$$
22:0:0
     RDKit          3D

 89 97  0  0  1  0  0  0  0  0999 V2000
  -29.6930  -23.6680   20.3890 C   0  0  0  0  0  2  0  0  0  0  0  0
  -27.3700  -23.3090   20.1520 C   0  0  0  0  0  2  0  0  0  0  0  0
  -29.6960  -22.0700   20.8720 C   0  0  0  0  0  2  0  0  0  0  0  0
  -27.6820  -21.7430   19.6720 C   0  0  0  0  0  2  0  0  0  0  0  0
  -28.3980  -24.5030   19.8460 C   0  0  2  0  0  0  0  0  0  0  0  0
  -28.5500  -24.6390   18.3180 C   0  0  0  0  0  1  0  0  0  0  0  0
  -28.9960  -21.0050   20.0250 N   0  0  2  0  0  4  0  0  0  0  0  0
  -29.5100  -20.9880   19.1570 H   0  0  0  0  0  0  0  0  0  0  0  0
  -28.2730  -26.0590   20.2840 O   0  0  0  0  0  0  0  0  0  0  0  0
  -24.6210  -31.8600   23.1970 C   0  0  0  0  0  0  0  0  0  0  0  0
  -27.2130  -27.0720   20.1580 C   0  0  0  0  0  0  0  0  0  0  0  0
  -23.4300  -30.4660   21.5500 C   0  0  0  0  0  3  0  0  0  0  0  0
  -24.8860  -28.8800   20.1200 C   0  0  0  0  0  0  0  0  0  0  0  0
  -25.9900  -30.7100   21.3990 C   0  0  0  0  0  2  0  0  0  0  0  0
  -26.0670  -29.3110   20.7380 C   0  0  0  0  0  0  0  0  0  0  0  0
  -27.2210  -28.4240   20.7360 C   0  0  0  0  0  3  0  0  0  0  0  0
  -26.0000  -26.7660   19.5030 C   0  0  0  0  0  3  0  0  0  0  0  0
  -24.8730  -27.6270   19.4850 C   0  0  0  0  0  3  0  0  0  0  0  0
  -23.6600  -29.7870   20.1710 C   0  0  0  0  0  2  0  0  0  0  0  0
  -24.7020  -31.0380   22.1030 N   0  0  0  0  0  0  0  0  0  0  0  0
  -23.5310  -32.1430   23.7210 O   0  0  0  0  0  0  0  0  0  0  0  0
  -22.7450  -29.4620   22.5110 C   0  0  0  0  0  0  0  0  0  0  0  0
  -21.4160  -29.2930   22.3850 N   0  0  0  0  0  0  0  0  0  0  0  0
  -23.4140  -28.8360   23.3380 O   0  0  0  0  0  0  0  0  0  0  0  0
  -20.9300  -29.8500   21.6960 H   0  0  0  0  0  0  0  0  0  0  0  0
  -18.0360  -28.0800   22.8850 C   0  0  0  0  0  0  0  0  0  0  0  0
  -20.5950  -28.3500   23.1530 C   0  0  0  0  0  3  0  0  0  0  0  0
  -20.7010  -26.9210   22.5720 C   0  0  0  0  0  2  0  0  0  0  0  0
  -19.6000  -26.6000   21.5560 C   0  0  0  0  0  2  0  0  0  0  0  0
  -18.2180  -26.7350   22.2000 C   0  0  0  0  0  2  0  0  0  0  0  0
  -19.1520  -28.8450   23.3180 C   0  0  0  0  0  0  0  0  0  0  0  0
  -18.9270  -30.1010   23.9200 C   0  0  0  0  0  3  0  0  0  0  0  0
  -17.6190  -30.5930   24.0930 C   0  0  0  0  0  3  0  0  0  0  0  0
  -16.5180  -29.8270   23.6750 C   0  0  0  0  0  3  0  0  0  0  0  0
  -16.7280  -28.5720   23.0770 C   0  0  0  0  0  3  0  0  0  0  0  0
  -25.8920  -32.5010   23.8310 C   0  0  0  0  0  3  0  0  0  0  0  0
  -25.5700  -33.8980   24.1750 N   0  0  0  0  0  0  0  0  0  0  0  0
  -25.8780  -34.9630   23.4240 C   0  0  0  0  0  0  0  0  0  0  0  0
  -26.5260  -34.8750   22.3780 O   0  0  0  0  0  0  0  0  0  0  0  0
  -24.9910  -34.0380   24.9900 H   0  0  0  0  0  0  0  0  0  0  0  0
  -24.1180  -36.7450   23.1430 C   0  0  0  0  0  1  0  0  0  0  0  0
  -25.3910  -36.3450   23.9070 C   0  0  0  0  0  3  0  0  0  0  0  0
  -27.5390  -37.2560   24.6750 C   0  0  0  0  0  1  0  0  0  0  0  0
  -26.4060  -37.4120   23.7670 N   0  0  0  0  0  0  0  0  0  0  0  0
  -25.9930  -38.3250   23.9300 H   0  0  0  0  0  0  0  0  0  0  0  0
  -26.4010  -31.7310   25.1120 C   0  0  1  0  0  0  0  0  0  0  0  0
  -25.3020  -31.4900   26.1740 C   0  0  0  0  0  1  0  0  0  0  0  0
  -26.9910  -30.3550   24.7280 C   0  0  0  0  0  1  0  0  0  0  0  0
  -27.5450  -32.5270   25.7830 C   0  0  0  0  0  1  0  0  0  0  0  0
  -28.9050  -19.4100   20.4480 C   0  0  0  0  0  3  0  0  0  0  0  0
  -29.9370  -18.0400   20.0650 C   0  0  0  0  0  3  0  0  0  0  0  0
  -30.4410  -15.1980   20.1680 C   0  0  0  0  0  0  0  0  0  0  0  0
  -30.3480  -12.7920   19.2650 C   0  0  0  0  0  2  0  0  0  0  0  0
  -29.3940  -12.6660   18.0500 C   0  0  0  0  0  2  0  0  0  0  0  0
  -27.9480  -12.4250   18.5190 C   0  0  0  0  0  2  0  0  0  0  0  0
  -27.5460  -13.3660   19.6820 C   0  0  0  0  0  3  0  0  0  0  0  0
  -28.6230  -13.4490   20.7850 C   0  0  0  0  0  2  0  0  0  0  0  0
  -29.8580  -13.9130   20.1370 N   0  0  0  0  0  0  0  0  0  0  0  0
  -31.6430  -15.2220   19.8740 O   0  0  0  0  0  0  0  0  0  0  0  0
  -29.6810  -16.4360   20.3190 N   0  0  0  0  0  0  0  0  0  0  0  0
  -28.7170  -16.2400   20.5470 H   0  0  0  0  0  0  0  0  0  0  0  0
  -25.1950  -13.9320   20.4990 C   0  0  0  0  0  0  0  0  0  0  0  0
  -24.1380  -13.1550   20.8840 C   0  0  0  0  0  0  0  0  0  0  0  0
  -24.5980  -11.8040   20.8230 C   0  0  0  0  0  0  0  0  0  0  0  0
  -26.2270  -13.0550   20.2170 N   0  0  0  0  0  0  0  0  0  0  0  0
  -25.8810  -11.7680   20.4810 N   0  0  0  0  0  0  0  0  0  0  0  0
  -23.8680  -10.5420   21.0110 C   0  0  0  0  0  0  0  0  0  0  0  0
  -24.3030   -9.5680   21.9370 C   0  0  0  0  0  3  0  0  0  0  0  0
  -23.5720   -8.3730   22.1150 C   0  0  0  0  0  3  0  0  0  0  0  0
  -22.3920   -8.1460   21.3680 C   0  0  0  0  0  0  0  0  0  0  0  0
  -21.9760   -9.1090   20.4310 C   0  0  0  0  0  3  0  0  0  0  0  0
  -22.7080  -10.2940   20.2510 C   0  0  0  0  0  3  0  0  0  0  0  0
  -21.6320   -7.0050   21.4550 O   0  0  0  0  0  0  0  0  0  0  0  0
  -21.5720   -6.2650   22.6100 C   0  0  0  0  0  0  0  0  0  0  0  0
  -21.1240   -6.8210   23.8290 C   0  0  0  0  0  3  0  0  0  0  0  0
  -21.0140   -6.0090   24.9740 C   0  0  0  0  0  3  0  0  0  0  0  0
  -21.3420   -4.6410   24.9030 C   0  0  0  0  0  0  0  0  0  0  0  0
  -21.7840   -4.0850   23.6890 C   0  0  0  0  0  3  0  0  0  0  0  0
  -21.8950   -4.8950   22.5450 C   0  0  0  0  0  0  0  0  0  0  0  0
  -22.3010   -4.3500   21.3730 F   0  0  0  0  0  0  0  0  0  0  0  0
  -21.2290   -3.8580   26.0010 F   0  0  0  0  0  0  0  0  0  0  0  0
  -22.7500  -13.6360   21.1900 C   0  0  0  0  0  0  0  0  0  0  0  0
  -22.0360  -12.9310   22.0600 N   0  0  0  0  0  0  0  0  0  0  0  0
  -22.3090  -14.6720   20.6950 O   0  0  0  0  0  0  0  0  0  0  0  0
  -22.4070  -12.0920   22.4810 H   0  0  0  0  0  0  0  0  0  0  0  0
  -21.1050  -13.2330   22.3080 H   0  0  0  0  0  0  0  0  0  0  0  0
  -25.3570  -15.3050   20.3360 N   0  0  0  0  0  0  0  0  0  0  0  0
  -24.5890  -15.9540   20.4670 H   0  0  0  0  0  0  0  0  0  0  0  0
  -26.1810  -15.7440   19.9460 H   0  0  0  0  0  0  0  0  0  0  0  0
  1  3  1  0
  4  7  1  0
  4  2  1  0
  5  6  1  6
  5  2  1  0
  5  9  1  0
  5  1  1  0
  7 50  1  0
  7  3  1  0
  7  8  1  6
 10 21  2  0
 11  9  1  0
 11 16  1  0
 12 20  1  0
 12 22  1  0
 13 19  1  0
 13 15  1  0
 14 20  1  0
 15 14  1  0
 16 15  2  0
 17 11  2  0
 18 17  1  0
 18 13  2  0
 19 12  1  0
 20 10  1  0
 22 24  2  0
 23 22  1  0
 25 23  1  0
 26 35  2  0
 26 31  1  0
 27 23  1  0
 27 31  1  0
 28 27  1  0
 29 30  1  0
 29 28  1  0
 30 26  1  0
 31 32  2  0
 32 33  1  0
 34 33  2  0
 35 34  1  0
 36 10  1  0
 36 37  1  0
 36 46  1  0
 37 40  1  0
 38 42  1  0
 38 37  1  0
 39 38  2  0
 42 41  1  0
 44 42  1  0
 44 45  1  0
 44 43  1  0
 46 49  1  1
 46 47  1  0
 48 46  1  0
 51 60  1  0
 51 50  2  0
 52 60  1  0
 53 58  1  0
 54 55  1  0
 54 53  1  0
 56 55  1  0
 56 65  1  0
 56 57  1  0
 58 52  1  0
 58 57  1  0
 59 52  2  0
 60 61  1  0
 62 63  2  0
 63 82  1  0
 64 63  1  0
 64 67  1  0
 65 66  1  0
 65 62  1  0
 66 64  2  0
 67 68  1  0
 68 69  2  0
 70 73  1  0
 70 69  1  0
 71 70  2  0
 72 71  1  0
 72 67  2  0
 73 74  1  0
 74 75  1  0
 75 76  2  0
 77 76  1  0
 77 81  1  0
 78 77  2  0
 79 74  2  0
 79 78  1  0
 80 79  1  0
 82 83  1  0
 83 86  1  0
 83 85  1  0
 84 82  2  0
 87 88  1  0
 87 62  1  0
 89 87  1  0
M  ISO  4   5 101   9 101  52 100  60 100
M  END
>  <TORSDO>  (23) 
F 18

>  <SCORE>  (23) 
-15.380

>  <name>  (23) 
22

>  <ligand_id>  (23) 
22

>  <original_smiles>  (23) 
[H]c1c([H])c([H])c2c(c1[H])C([H])([H])C([H])([H])C([H])([H])C2([H])N([H])C(=O)C1([H])N(C(=O)C([H])(N([H])C(=O)C([H])(N([H])C([H])([H])[H])C([H])([H])[H])C(C([H])([H])[H])(C([H])([H])[H])C([H])([H])[H])C([H])([H])c2c([H])c(OC3(C([H])([H])[H])C([H])([H])C([H])([H])[N+]([H])(C([H])([H])C([H])([H])N([H])C(=O)N4C([H])([H])C([H])([H])C([H])([H])C([H])(n5nc(-c6c([H])c([H])c(Oc7c([H])c([H])c(F)c([H])c7F)c([H])c6[H])c(C(=O)N([H])[H])c5N([H])[H])C4([H])[H])C([H])([H])C3([H])[H])c([H])c([H])c2C1([H])[H]

>  <smiles>  (23) 
[H]c1c([H])c([H])c2c(c1[H])C([H])([H])C([H])([H])C([H])([H])C2([H])N([H])C(=O)C1([H])N(C(=O)C([H])(N([H])C(=O)C([H])(N([H])C([H])([H])[H])C([H])([H])[H])C(C([H])([H])[H])(C([H])([H])[H])C([H])([H])[H])C([H])([H])c2c([H])c(OC3(C([H])([H])[H])C([H])([H])C([H])([H])[N+]([H])(C([H])([H])C([H])([H])N([H])C(=O)N4C([H])([H])C([H])([H])C([H])([H])C([H])(n5nc(-c6c([H])c([H])c(Oc7c([H])c([H])c(F)c([H])c7F)c([H])c6[H])c(C(=O)N([H])[H])c5N([H])[H])C4([H])[H])C([H])([H])C3([H])[H])c([H])c([H])c2C1([H])[H]

$$$$
23:0:0
     RDKit          3D

 91 99  0  0  1  0  0  0  0  0999 V2000
  -29.0720  -20.3570   19.0430 C   0  0  0  0  0  3  0  0  0  0  0  0
  -29.3030  -18.8890   19.0290 C   0  0  0  0  0  0  0  0  0  0  0  0
  -29.8410  -18.1000   20.1320 C   0  0  0  0  0  0  0  0  0  0  0  0
  -29.3010  -21.2460   20.1620 C   0  0  0  0  0  0  0  0  0  0  0  0
  -30.0480  -19.0700   21.2070 C   0  0  0  0  0  0  0  0  0  0  0  0
  -28.9320  -18.1350   17.7670 C   0  0  0  0  0  1  0  0  0  0  0  0
  -30.5610  -18.5670   22.5420 C   0  0  0  0  0  1  0  0  0  0  0  0
  -29.8260  -20.4790   21.2070 N   0  0  0  0  0  0  0  0  0  0  0  0
  -30.7200  -15.3070   20.0670 C   0  0  0  0  0  0  0  0  0  0  0  0
  -30.7340  -12.8640   19.2180 C   0  0  0  0  0  2  0  0  0  0  0  0
  -29.7720  -12.6690   18.0180 C   0  0  0  0  0  2  0  0  0  0  0  0
  -28.3380  -12.3880   18.5030 C   0  0  0  0  0  2  0  0  0  0  0  0
  -27.9160  -13.3350   19.6540 C   0  0  0  0  0  3  0  0  0  0  0  0
  -29.0030  -13.4710   20.7420 C   0  0  0  0  0  2  0  0  0  0  0  0
  -30.2090  -13.9840   20.0740 N   0  0  0  0  0  0  0  0  0  0  0  0
  -31.9160  -15.3830   19.7530 O   0  0  0  0  0  0  0  0  0  0  0  0
  -29.8670  -16.4930   20.2500 N   0  0  0  0  0  0  0  0  0  0  0  0
  -28.9580  -16.1560   20.5290 H   0  0  0  0  0  0  0  0  0  0  0  0
  -25.5780  -13.8610   20.5340 C   0  0  0  0  0  0  0  0  0  0  0  0
  -24.5350  -13.0690   20.9230 C   0  0  0  0  0  0  0  0  0  0  0  0
  -25.0010  -11.7210   20.8160 C   0  0  0  0  0  0  0  0  0  0  0  0
  -26.6100  -12.9990   20.2060 N   0  0  0  0  0  0  0  0  0  0  0  0
  -26.2770  -11.7030   20.4420 N   0  0  0  0  0  0  0  0  0  0  0  0
  -24.2830  -10.4510   20.9870 C   0  0  0  0  0  0  0  0  0  0  0  0
  -24.6910   -9.4920   21.9390 C   0  0  0  0  0  3  0  0  0  0  0  0
  -23.9700   -8.2890   22.0990 C   0  0  0  0  0  3  0  0  0  0  0  0
  -22.8260   -8.0360   21.3070 C   0  0  0  0  0  0  0  0  0  0  0  0
  -22.4360   -8.9840   20.3440 C   0  0  0  0  0  3  0  0  0  0  0  0
  -23.1580  -10.1780   20.1810 C   0  0  0  0  0  3  0  0  0  0  0  0
  -22.0780   -6.8840   21.3750 O   0  0  0  0  0  0  0  0  0  0  0  0
  -21.8950   -6.2140   22.5580 C   0  0  0  0  0  0  0  0  0  0  0  0
  -21.2920   -6.8290   23.6770 C   0  0  0  0  0  3  0  0  0  0  0  0
  -21.0590   -6.0840   24.8490 C   0  0  0  0  0  3  0  0  0  0  0  0
  -21.4190   -4.7240   24.9040 C   0  0  0  0  0  0  0  0  0  0  0  0
  -22.0160   -4.1090   23.7890 C   0  0  0  0  0  3  0  0  0  0  0  0
  -22.2500   -4.8520   22.6190 C   0  0  0  0  0  0  0  0  0  0  0  0
  -22.8040   -4.2480   21.5390 F   0  0  0  0  0  0  0  0  0  0  0  0
  -21.1910   -4.0050   26.0280 F   0  0  0  0  0  0  0  0  0  0  0  0
  -23.1510  -13.5310   21.2720 C   0  0  0  0  0  0  0  0  0  0  0  0
  -22.4660  -12.8110   22.1510 N   0  0  0  0  0  0  0  0  0  0  0  0
  -22.6870  -14.5700   20.8010 O   0  0  0  0  0  0  0  0  0  0  0  0
  -22.8540  -11.9720   22.5560 H   0  0  0  0  0  0  0  0  0  0  0  0
  -21.5380  -13.1020   22.4250 H   0  0  0  0  0  0  0  0  0  0  0  0
  -25.7280  -15.2390   20.4010 N   0  0  0  0  0  0  0  0  0  0  0  0
  -24.9560  -15.8770   20.5650 H   0  0  0  0  0  0  0  0  0  0  0  0
  -26.5340  -15.6950   19.9950 H   0  0  0  0  0  0  0  0  0  0  0  0
  -29.3770  -22.9840   20.2400 C   0  0  0  0  0  3  0  0  0  0  0  0
  -29.9940  -23.1990   21.4930 O   0  0  0  0  0  0  0  0  0  0  0  0
  -30.1560  -22.2990   21.7910 H   0  0  0  0  0  0  0  0  0  0  0  0
  -28.2500  -24.3660   20.1660 C   0  0  0  0  0  2  0  0  0  0  0  0
  -28.4910  -25.9850   20.2620 O   0  0  0  0  0  0  0  0  0  0  0  0
  -24.8890  -31.8270   23.3460 C   0  0  0  0  0  0  0  0  0  0  0  0
  -27.4690  -27.0580   20.2250 C   0  0  0  0  0  0  0  0  0  0  0  0
  -23.7110  -30.4890   21.6480 C   0  0  0  0  0  3  0  0  0  0  0  0
  -25.1720  -28.9220   20.2000 C   0  0  0  0  0  0  0  0  0  0  0  0
  -26.2780  -30.6990   21.5430 C   0  0  0  0  0  2  0  0  0  0  0  0
  -26.3520  -29.3120   20.8460 C   0  0  0  0  0  0  0  0  0  0  0  0
  -27.4960  -28.4020   20.8330 C   0  0  0  0  0  3  0  0  0  0  0  0
  -26.2590  -26.8080   19.5390 C   0  0  0  0  0  3  0  0  0  0  0  0
  -25.1480  -27.6890   19.5280 C   0  0  0  0  0  3  0  0  0  0  0  0
  -23.9560  -29.8440   20.2550 C   0  0  0  0  0  2  0  0  0  0  0  0
  -24.9800  -31.0290   22.2340 N   0  0  0  0  0  0  0  0  0  0  0  0
  -23.7940  -32.1080   23.8600 O   0  0  0  0  0  0  0  0  0  0  0  0
  -22.9990  -29.4670   22.5720 C   0  0  0  0  0  0  0  0  0  0  0  0
  -21.6700  -29.3110   22.4190 N   0  0  0  0  0  0  0  0  0  0  0  0
  -23.6470  -28.8170   23.3950 O   0  0  0  0  0  0  0  0  0  0  0  0
  -21.2010  -29.8860   21.7320 H   0  0  0  0  0  0  0  0  0  0  0  0
  -18.2710  -28.1220   22.8460 C   0  0  0  0  0  0  0  0  0  0  0  0
  -20.8300  -28.3570   23.1490 C   0  0  0  0  0  3  0  0  0  0  0  0
  -20.9270  -26.9440   22.5280 C   0  0  0  0  0  2  0  0  0  0  0  0
  -19.8350  -26.6640   21.4910 C   0  0  0  0  0  2  0  0  0  0  0  0
  -18.4470  -26.7960   22.1240 C   0  0  0  0  0  2  0  0  0  0  0  0
  -19.3910  -28.8610   23.3140 C   0  0  0  0  0  0  0  0  0  0  0  0
  -19.1710  -30.1010   23.9520 C   0  0  0  0  0  3  0  0  0  0  0  0
  -17.8670  -30.6010   24.1270 C   0  0  0  0  0  3  0  0  0  0  0  0
  -16.7620  -29.8590   23.6750 C   0  0  0  0  0  3  0  0  0  0  0  0
  -16.9660  -28.6200   23.0390 C   0  0  0  0  0  3  0  0  0  0  0  0
  -26.1560  -32.4400   24.0180 C   0  0  0  0  0  3  0  0  0  0  0  0
  -26.6310  -31.6370   25.2910 C   0  0  1  0  0  0  0  0  0  0  0  0
  -25.5080  -31.3850   26.3250 C   0  0  0  0  0  1  0  0  0  0  0  0
  -27.2150  -30.2630   24.8920 C   0  0  0  0  0  1  0  0  0  0  0  0
  -27.7710  -32.4070   25.9990 C   0  0  0  0  0  1  0  0  0  0  0  0
  -25.8450  -33.8320   24.3840 N   0  0  0  0  0  0  0  0  0  0  0  0
  -26.1620  -34.9080   23.6510 C   0  0  0  0  0  0  0  0  0  0  0  0
  -26.8100  -34.8320   22.6040 O   0  0  0  0  0  0  0  0  0  0  0  0
  -25.2640  -33.9650   25.1990 H   0  0  0  0  0  0  0  0  0  0  0  0
  -24.4100  -36.7020   23.4070 C   0  0  0  0  0  1  0  0  0  0  0  0
  -25.6870  -36.2860   24.1560 C   0  0  0  0  0  3  0  0  0  0  0  0
  -27.8460  -37.1770   24.9200 C   0  0  0  0  0  1  0  0  0  0  0  0
  -26.7080  -37.3500   24.0200 N   0  0  0  0  0  0  0  0  0  0  0  0
  -26.3020  -38.2650   24.1940 H   0  0  0  0  0  0  0  0  0  0  0  0
  1  4  1  0
  2  1  2  0
  2  3  1  0
  3 17  1  0
  3  5  2  0
  4 47  1  0
  4  8  2  0
  5  7  1  0
  6  2  1  0
  8  5  1  0
  9 15  1  0
  9 17  1  0
 10 15  1  0
 11 12  1  0
 11 10  1  0
 13 12  1  0
 13 22  1  0
 13 14  1  0
 15 14  1  0
 16  9  2  0
 17 18  1  0
 19 20  2  0
 20 39  1  0
 21 20  1  0
 21 24  1  0
 22 23  1  0
 22 19  1  0
 23 21  2  0
 24 25  1  0
 25 26  2  0
 27 30  1  0
 27 26  1  0
 28 27  2  0
 29 28  1  0
 29 24  2  0
 30 31  1  0
 31 36  2  0
 31 32  1  0
 32 33  2  0
 33 34  1  0
 34 38  1  0
 35 34  2  0
 36 35  1  0
 37 36  1  0
 39 40  1  0
 40 43  1  0
 40 42  1  0
 41 39  2  0
 44 19  1  0
 44 45  1  0
 46 44  1  0
 47 50  1  0
 47 48  1  0
 48 49  1  0
 50 51  1  0
 52 63  2  0
 53 51  1  0
 53 58  1  0
 54 62  1  0
 54 64  1  0
 55 61  1  0
 55 57  1  0
 56 62  1  0
 57 56  1  0
 58 57  2  0
 59 53  2  0
 60 59  1  0
 60 55  2  0
 61 54  1  0
 62 52  1  0
 64 66  2  0
 65 64  1  0
 67 65  1  0
 68 77  2  0
 68 73  1  0
 69 65  1  0
 69 73  1  0
 70 69  1  0
 71 72  1  0
 71 70  1  0
 72 68  1  0
 73 74  2  0
 74 75  1  0
 76 75  2  0
 77 76  1  0
 78 52  1  0
 78 83  1  0
 78 79  1  0
 79 82  1  1
 79 80  1  0
 81 79  1  0
 83 86  1  0
 84 88  1  0
 84 83  1  0
 85 84  2  0
 88 87  1  0
 90 88  1  0
 90 91  1  0
 90 89  1  0
M  ISO  4   9 100  17 100  50 101  51 101
M  END
>  <TORSDO>  (24) 
F 19

>  <SCORE>  (24) 
-14.699

>  <name>  (24) 
23

>  <ligand_id>  (24) 
23

>  <original_smiles>  (24) 
[H]OC([H])(c1nc(C([H])([H])[H])c(N([H])C(=O)N2C([H])([H])C([H])([H])C([H])([H])C([H])(n3nc(-c4c([H])c([H])c(Oc5c([H])c([H])c(F)c([H])c5F)c([H])c4[H])c(C(=O)N([H])[H])c3N([H])[H])C2([H])[H])c(C([H])([H])[H])c1[H])C([H])([H])Oc1c([H])c([H])c2c(c1[H])C([H])([H])N(C(=O)C([H])(N([H])C(=O)C([H])(N([H])C([H])([H])[H])C([H])([H])[H])C(C([H])([H])[H])(C([H])([H])[H])C([H])([H])[H])C([H])(C(=O)N([H])C1([H])c3c([H])c([H])c([H])c([H])c3C([H])([H])C([H])([H])C1([H])[H])C2([H])[H]

>  <smiles>  (24) 
[H]OC([H])(c1nc(C([H])([H])[H])c(N([H])C(=O)N2C([H])([H])C([H])([H])C([H])([H])C([H])(n3nc(-c4c([H])c([H])c(Oc5c([H])c([H])c(F)c([H])c5F)c([H])c4[H])c(C(=O)N([H])[H])c3N([H])[H])C2([H])[H])c(C([H])([H])[H])c1[H])C([H])([H])Oc1c([H])c([H])c2c(c1[H])C([H])([H])N(C(=O)C([H])(N([H])C(=O)C([H])(N([H])C([H])([H])[H])C([H])([H])[H])C(C([H])([H])[H])(C([H])([H])[H])C([H])([H])[H])C([H])(C(=O)N([H])C1([H])c3c([H])c([H])c([H])c([H])c3C([H])([H])C([H])([H])C1([H])[H])C2([H])[H]

$$$$
24:0:0
     RDKit          3D

 92100  0  0  1  0  0  0  0  0999 V2000
  -29.1370  -22.2000   20.5530 C   0  0  0  0  0  2  0  0  0  0  0  0
  -27.6440  -22.3670   18.6120 C   0  0  0  0  0  2  0  0  0  0  0  0
  -28.7040  -23.6890   21.0260 C   0  0  0  0  0  2  0  0  0  0  0  0
  -28.0160  -23.9270   18.6750 C   0  0  0  0  0  2  0  0  0  0  0  0
  -28.1040  -21.3280   19.7380 C   0  0  0  0  0  3  0  0  0  0  0  0
  -27.9070  -24.6650   20.0530 C   0  0  0  0  0  3  0  0  0  0  0  0
  -27.4610  -19.3570   18.0950 C   0  0  0  0  0  1  0  0  0  0  0  0
  -28.4800  -19.7680   19.1900 C   0  0  0  0  0  3  0  0  0  0  0  0
  -28.5920  -18.5150   20.1240 N   0  0  0  0  0  4  0  0  0  0  0  0
  -29.0910  -18.8230   20.9450 H   0  0  0  0  0  0  0  0  0  0  0  0
  -27.6660  -18.2910   20.4490 H   0  0  0  0  0  0  0  0  0  0  0  0
  -29.3180  -17.1890   19.6590 C   0  0  0  0  0  3  0  0  0  0  0  0
  -28.7380  -15.6360   19.9260 C   0  0  0  0  0  3  0  0  0  0  0  0
  -29.3170  -11.5350   20.0270 C   0  0  0  0  0 15  0  0  0  0  0  0
  -29.6830  -14.1760   19.8080 C   0  0  0  0  0  3  0  0  0  0  0  0
  -30.7510  -14.4800   20.7740 C   0  0  0  0  0  3  0  0  0  0  0  0
  -31.1910  -12.6650   19.2400 C   0  0  0  0  0  2  0  0  0  0  0  0
  -29.8760  -12.6250   17.9200 C   0  0  0  0  0  3  0  0  0  0  0  0
  -28.1220  -12.9360   18.3500 C   0  0  0  0  0  3  0  0  0  0  0  0
  -27.5210  -13.1250   20.0590 C   0  0  0  0  0  3  0  0  0  0  0  0
  -28.7170  -13.2140   21.5130 C   0  0  0  0  0  2  0  0  0  0  0  0
  -30.4330  -13.2700   20.8210 N   0  0  2  0  0  4  0  0  0  0  0  0
  -31.7990  -15.0080   20.3910 O   0  0  0  0  0  1  0  0  0  0  0  0
  -25.1740  -13.8060   20.6180 C   0  0  0  0  0  0  0  0  0  0  0  0
  -24.1050  -13.0320   20.9570 C   0  0  0  0  0  0  0  0  0  0  0  0
  -24.5620  -11.6800   21.0070 C   0  0  0  0  0  0  0  0  0  0  0  0
  -26.1920  -12.9140   20.4900 N   0  0  0  0  0  0  0  0  0  0  0  0
  -25.8460  -11.6490   20.8690 N   0  0  0  0  0  0  0  0  0  0  0  0
  -23.8910  -10.3970   21.1450 C   0  0  0  0  0  0  0  0  0  0  0  0
  -24.3560   -9.4230   22.0580 C   0  0  0  0  0  3  0  0  0  0  0  0
  -23.6650   -8.2030   22.2000 C   0  0  0  0  0  3  0  0  0  0  0  0
  -22.5070   -7.9570   21.4260 C   0  0  0  0  0  0  0  0  0  0  0  0
  -22.0890   -8.9090   20.4780 C   0  0  0  0  0  3  0  0  0  0  0  0
  -22.7780  -10.1180   20.3330 C   0  0  0  0  0  3  0  0  0  0  0  0
  -21.7690   -6.8060   21.5010 O   0  0  0  0  0  0  0  0  0  0  0  0
  -21.7190   -6.0620   22.6520 C   0  0  0  0  0  0  0  0  0  0  0  0
  -21.2880   -6.6090   23.8780 C   0  0  0  0  0  3  0  0  0  0  0  0
  -21.1850   -5.7850   25.0170 C   0  0  0  0  0  3  0  0  0  0  0  0
  -21.5030   -4.4160   24.9250 C   0  0  0  0  0  0  0  0  0  0  0  0
  -21.9310   -3.8710   23.7010 C   0  0  0  0  0  3  0  0  0  0  0  0
  -22.0370   -4.6920   22.5670 C   0  0  0  0  0  0  0  0  0  0  0  0
  -22.4260   -4.1580   21.3850 F   0  0  0  0  0  0  0  0  0  0  0  0
  -21.4020   -3.6220   26.0160 F   0  0  0  0  0  0  0  0  0  0  0  0
  -22.7080  -13.4960   21.1440 C   0  0  0  0  0  0  0  0  0  0  0  0
  -21.9560  -12.7960   21.9860 N   0  0  0  0  0  0  0  0  0  0  0  0
  -22.3000  -14.5130   20.5930 O   0  0  0  0  0  0  0  0  0  0  0  0
  -22.3150  -11.9760   22.4480 H   0  0  0  0  0  0  0  0  0  0  0  0
  -21.0100  -13.0900   22.1710 H   0  0  0  0  0  0  0  0  0  0  0  0
  -25.3860  -15.1660   20.4060 N   0  0  0  0  0  0  0  0  0  0  0  0
  -24.6720  -15.8630   20.5840 H   0  0  0  0  0  0  0  0  0  0  0  0
  -26.2890  -15.5590   20.1930 H   0  0  0  0  0  0  0  0  0  0  0  0
  -28.2090  -26.1810   20.1110 O   0  0  0  0  0  0  0  0  0  0  0  0
  -24.6550  -31.8340   23.1960 C   0  0  0  0  0  0  0  0  0  0  0  0
  -27.1650  -27.1590   20.0860 C   0  0  0  0  0  0  0  0  0  0  0  0
  -23.4370  -30.4510   21.5640 C   0  0  0  0  0  3  0  0  0  0  0  0
  -24.8550  -28.8870   20.1220 C   0  0  0  0  0  0  0  0  0  0  0  0
  -25.9900  -30.7200   21.3690 C   0  0  0  0  0  2  0  0  0  0  0  0
  -26.0500  -29.3380   20.6980 C   0  0  0  0  0  0  0  0  0  0  0  0
  -27.2140  -28.4890   20.6580 C   0  0  0  0  0  3  0  0  0  0  0  0
  -25.9440  -26.8020   19.4790 C   0  0  0  0  0  3  0  0  0  0  0  0
  -24.8080  -27.6280   19.5100 C   0  0  0  0  0  3  0  0  0  0  0  0
  -23.6410  -29.7890   20.1790 C   0  0  0  0  0  2  0  0  0  0  0  0
  -24.7140  -31.0210   22.0990 N   0  0  0  0  0  0  0  0  0  0  0  0
  -23.5750  -32.1170   23.7370 O   0  0  0  0  0  0  0  0  0  0  0  0
  -22.7700  -29.4350   22.5250 C   0  0  0  0  0  0  0  0  0  0  0  0
  -21.4400  -29.2680   22.4110 N   0  0  0  0  0  0  0  0  0  0  0  0
  -23.4480  -28.8030   23.3370 O   0  0  0  0  0  0  0  0  0  0  0  0
  -20.9480  -29.8330   21.7320 H   0  0  0  0  0  0  0  0  0  0  0  0
  -18.0640  -28.0740   22.9400 C   0  0  0  0  0  0  0  0  0  0  0  0
  -20.6250  -28.3320   23.1870 C   0  0  0  0  0  3  0  0  0  0  0  0
  -20.7200  -26.9020   22.6080 C   0  0  0  0  0  2  0  0  0  0  0  0
  -19.6100  -26.5800   21.6030 C   0  0  0  0  0  2  0  0  0  0  0  0
  -18.2330  -26.7270   22.2600 C   0  0  0  0  0  2  0  0  0  0  0  0
  -19.1890  -28.8340   23.3620 C   0  0  0  0  0  0  0  0  0  0  0  0
  -18.9790  -30.0940   23.9630 C   0  0  0  0  0  3  0  0  0  0  0  0
  -17.6780  -30.5980   24.1430 C   0  0  0  0  0  3  0  0  0  0  0  0
  -16.5680  -29.8360   23.7400 C   0  0  0  0  0  3  0  0  0  0  0  0
  -16.7600  -28.5760   23.1450 C   0  0  0  0  0  3  0  0  0  0  0  0
  -25.9410  -32.4680   23.8080 C   0  0  0  0  0  3  0  0  0  0  0  0
  -25.6300  -33.8650   24.1540 N   0  0  0  0  0  0  0  0  0  0  0  0
  -25.9480  -34.9280   23.4050 C   0  0  0  0  0  0  0  0  0  0  0  0
  -26.6030  -34.8370   22.3640 O   0  0  0  0  0  0  0  0  0  0  0  0
  -25.0450  -34.0090   24.9650 H   0  0  0  0  0  0  0  0  0  0  0  0
  -24.2100  -36.7280   23.1010 C   0  0  0  0  0  1  0  0  0  0  0  0
  -25.4650  -36.3110   23.8870 C   0  0  0  0  0  3  0  0  0  0  0  0
  -27.6090  -37.1960   24.6990 C   0  0  0  0  0  1  0  0  0  0  0  0
  -26.4930  -37.3670   23.7730 N   0  0  0  0  0  0  0  0  0  0  0  0
  -26.0870  -38.2840   23.9350 H   0  0  0  0  0  0  0  0  0  0  0  0
  -26.4690  -31.6950   25.0790 C   0  0  1  0  0  0  0  0  0  0  0  0
  -25.3890  -31.4580   26.1580 C   0  0  0  0  0  1  0  0  0  0  0  0
  -27.0470  -30.3150   24.6910 C   0  0  0  0  0  1  0  0  0  0  0  0
  -27.6190  -32.4920   25.7390 C   0  0  0  0  0  1  0  0  0  0  0  0
  1  3  1  0
  2  4  1  0
  2  5  1  0
  4  6  1  0
  5  8  1  0
  5  1  1  0
  6 52  1  0
  6  3  1  0
  8  7  1  0
  8  9  1  0
  9 11  1  0
  9 10  1  0
 12 13  2  0
 12  9  1  0
 15 13  1  0
 15 16  1  0
 15 22  1  0
 16 23  1  0
 16 22  1  0
 18 19  2  0
 18 17  1  0
 20 19  1  0
 20 27  1  0
 20 21  1  0
 22 17  1  6
 22 21  1  0
 24 25  2  0
 25 26  1  0
 25 44  1  0
 26 29  1  0
 27 24  1  0
 27 28  1  0
 28 26  2  0
 29 30  1  0
 30 31  2  0
 32 35  1  0
 32 31  1  0
 33 32  2  0
 34 33  1  0
 34 29  2  0
 35 36  1  0
 36 37  1  0
 37 38  2  0
 39 38  1  0
 39 43  1  0
 40 39  2  0
 41 36  2  0
 41 40  1  0
 42 41  1  0
 44 45  1  0
 45 48  1  0
 45 47  1  0
 46 44  2  0
 49 50  1  0
 49 24  1  0
 51 49  1  0
 53 64  2  0
 54 52  1  0
 54 59  1  0
 55 63  1  0
 55 65  1  0
 56 62  1  0
 56 58  1  0
 57 63  1  0
 58 57  1  0
 59 58  2  0
 60 61  1  0
 60 54  2  0
 61 56  2  0
 62 55  1  0
 63 53  1  0
 65 67  2  0
 66 65  1  0
 68 66  1  0
 69 78  2  0
 69 74  1  0
 70 66  1  0
 70 74  1  0
 71 70  1  0
 72 73  1  0
 72 71  1  0
 73 69  1  0
 74 75  2  0
 75 76  1  0
 77 76  2  0
 78 77  1  0
 79 53  1  0
 79 80  1  0
 79 89  1  0
 80 83  1  0
 81 85  1  0
 81 80  1  0
 82 81  2  0
 85 84  1  0
 87 85  1  0
 87 88  1  0
 87 86  1  0
 89 92  1  1
 89 90  1  0
 91 89  1  0
M  ISO  4   6 101  15 100  16 100  52 101
M  END
>  <TORSDO>  (25) 
F 21

>  <SCORE>  (25) 
-14.988

>  <name>  (25) 
24

>  <ligand_id>  (25) 
24

>  <original_smiles>  (25) 
[H]c1c([H])c([H])c2c(c1[H])C([H])([H])C([H])([H])C([H])([H])C2([H])N([H])C(=O)C1([H])N(C(=O)C([H])(N([H])C(=O)C([H])(N([H])C([H])([H])[H])C([H])([H])[H])C(C([H])([H])[H])(C([H])([H])[H])C([H])([H])[H])C([H])([H])c2c([H])c(OC3([H])C([H])([H])C([H])([H])C([H])(C([H])(C([H])([H])[H])[N+]([H])([H])C([H])([H])C([H])([H])C([H])(C(=O)N4C([H])([H])C([H])([H])C([H])([H])C([H])(n5nc(-c6c([H])c([H])c(Oc7c([H])c([H])c(F)c([H])c7F)c([H])c6[H])c(C(=O)N([H])[H])c5N([H])[H])C4([H])[H])C([H])([H])[H])C([H])([H])C3([H])[H])c([H])c([H])c2C1([H])[H]

>  <smiles>  (25) 
[H]c1c([H])c([H])c2c(c1[H])C([H])([H])C([H])([H])C([H])([H])C2([H])N([H])C(=O)C1([H])N(C(=O)C([H])(N([H])C(=O)C([H])(N([H])C([H])([H])[H])C([H])([H])[H])C(C([H])([H])[H])(C([H])([H])[H])C([H])([H])[H])C([H])([H])c2c([H])c(OC3([H])C([H])([H])C([H])([H])C([H])(C([H])(C([H])([H])[H])[N+]([H])([H])C([H])([H])C([H])([H])C([H])(C(=O)N4C([H])([H])C([H])([H])C([H])([H])C([H])(n5nc(-c6c([H])c([H])c(Oc7c([H])c([H])c(F)c([H])c7F)c([H])c6[H])c(C(=O)N([H])[H])c5N([H])[H])C4([H])[H])C([H])([H])[H])C([H])([H])C3([H])[H])c([H])c([H])c2C1([H])[H]

$$$$
25:0:0
     RDKit          3D

101110  0  0  1  0  0  0  0  0999 V2000
  -29.9990  -19.0860   23.2500 C   0  0  0  0  0  2  0  0  0  0  0  0
  -29.8410  -19.9880   22.0340 C   0  0  0  0  0  2  0  0  0  0  0  0
  -32.0100  -20.3410   22.8360 C   0  0  0  0  0  2  0  0  0  0  0  0
  -31.5210  -19.0170   23.4680 C   0  0  0  0  0  3  0  0  0  0  0  0
  -30.8190  -21.0280   22.3310 N   0  0  0  0  0  0  0  0  0  0  0  0
  -32.1770  -17.8690   22.7960 N   0  0  0  0  0  4  0  0  0  0  0  0
  -33.0680  -17.7190   23.2450 H   0  0  0  0  0  0  0  0  0  0  0  0
  -32.3700  -18.1230   21.8420 H   0  0  0  0  0  0  0  0  0  0  0  0
  -31.4570  -16.5750   22.7920 C   0  0  0  0  0  2  0  0  0  0  0  0
  -33.1700  -15.0920   21.6080 C   0  0  0  0  0  1  0  0  0  0  0  0
  -31.7800  -15.7460   21.5230 C   0  0  0  0  0  3  0  0  0  0  0  0
  -31.6230  -16.5350   20.1960 C   0  0  0  0  0  2  0  0  0  0  0  0
  -30.1820  -16.6710   19.6590 C   0  0  0  0  0  2  0  0  0  0  0  0
  -29.5740  -14.6150   18.4410 C   0  0  0  0  0  0  0  0  0  0  0  0
  -29.1750  -12.3520   17.5690 C   0  0  0  0  0  2  0  0  0  0  0  0
  -27.9270  -12.2830   16.6750 C   0  0  0  0  0  2  0  0  0  0  0  0
  -26.6680  -12.0300   17.5230 C   0  0  0  0  0  2  0  0  0  0  0  0
  -26.5540  -13.0120   18.7190 C   0  0  0  0  0  3  0  0  0  0  0  0
  -27.8820  -13.0800   19.5060 C   0  0  0  0  0  2  0  0  0  0  0  0
  -28.9750  -13.4080   18.5700 N   0  0  0  0  0  0  0  0  0  0  0  0
  -30.2320  -14.9540   17.4530 O   0  0  0  0  0  0  0  0  0  0  0  0
  -29.5200  -15.3830   19.5310 N   0  0  0  0  0  0  0  0  0  0  0  0
  -28.9940  -15.0270   20.3140 H   0  0  0  0  0  0  0  0  0  0  0  0
  -24.4950  -13.4820   20.1960 C   0  0  0  0  0  0  0  0  0  0  0  0
  -23.6180  -12.6460   20.8340 C   0  0  0  0  0  0  0  0  0  0  0  0
  -24.0710  -11.3190   20.5650 C   0  0  0  0  0  0  0  0  0  0  0  0
  -25.4300  -12.6600   19.5860 N   0  0  0  0  0  0  0  0  0  0  0  0
  -25.1940  -11.3500   19.8580 N   0  0  0  0  0  0  0  0  0  0  0  0
  -23.4720  -10.0170   20.8920 C   0  0  0  0  0  0  0  0  0  0  0  0
  -24.0110   -9.1890   21.9010 C   0  0  0  0  0  3  0  0  0  0  0  0
  -23.4070   -7.9520   22.2090 C   0  0  0  0  0  3  0  0  0  0  0  0
  -22.2510   -7.5320   21.5080 C   0  0  0  0  0  0  0  0  0  0  0  0
  -21.7330   -8.3500   20.4880 C   0  0  0  0  0  3  0  0  0  0  0  0
  -22.3390   -9.5790   20.1790 C   0  0  0  0  0  3  0  0  0  0  0  0
  -21.6120   -6.3340   21.7200 O   0  0  0  0  0  0  0  0  0  0  0  0
  -21.4410   -5.8250   22.9820 C   0  0  0  0  0  0  0  0  0  0  0  0
  -20.7160   -6.5200   23.9750 C   0  0  0  0  0  3  0  0  0  0  0  0
  -20.5050   -5.9280   25.2370 C   0  0  0  0  0  3  0  0  0  0  0  0
  -21.0070   -4.6410   25.5040 C   0  0  0  0  0  0  0  0  0  0  0  0
  -21.7250   -3.9450   24.5150 C   0  0  0  0  0  3  0  0  0  0  0  0
  -21.9380   -4.5340   23.2570 C   0  0  0  0  0  0  0  0  0  0  0  0
  -22.6110   -3.8510   22.3000 F   0  0  0  0  0  0  0  0  0  0  0  0
  -20.7990   -4.0690   26.7130 F   0  0  0  0  0  0  0  0  0  0  0  0
  -22.3750  -13.0470   21.5730 C   0  0  0  0  0  0  0  0  0  0  0  0
  -21.9860  -12.2770   22.5850 N   0  0  0  0  0  0  0  0  0  0  0  0
  -21.7650  -14.0780   21.2900 O   0  0  0  0  0  0  0  0  0  0  0  0
  -22.4970  -11.4420   22.8310 H   0  0  0  0  0  0  0  0  0  0  0  0
  -21.1670  -12.5260   23.1190 H   0  0  0  0  0  0  0  0  0  0  0  0
  -24.5650  -14.8670   20.0680 N   0  0  0  0  0  0  0  0  0  0  0  0
  -23.8640  -15.4850   20.4630 H   0  0  0  0  0  0  0  0  0  0  0  0
  -25.2690  -15.3570   19.5300 H   0  0  0  0  0  0  0  0  0  0  0  0
  -31.0840  -21.9300   21.2040 C   0  0  0  0  0  2  0  0  0  0  0  0
  -30.0360  -23.6590   19.6610 C   0  0  0  0  0  3  0  0  0  0  0  0
  -28.6360  -22.6820   21.3950 C   0  0  0  0  0  3  0  0  0  0  0  0
  -28.9980  -24.5560   19.3230 C   0  0  0  0  0  3  0  0  0  0  0  0
  -27.5970  -23.5570   21.0450 C   0  0  0  0  0  3  0  0  0  0  0  0
  -29.8790  -22.7410   20.7280 C   0  0  0  0  0  0  0  0  0  0  0  0
  -27.7830  -24.5290   20.0400 C   0  0  0  0  0  0  0  0  0  0  0  0
  -26.9150  -26.5140   21.2320 C   0  0  0  0  0  1  0  0  0  0  0  0
  -26.7560  -25.6460   19.9590 C   0  0  0  0  0  3  0  0  0  0  0  0
  -26.7310  -26.4130   18.7260 O   0  0  0  0  0  0  0  0  0  0  0  0
  -24.3070  -31.3520   23.0410 C   0  0  0  0  0  0  0  0  0  0  0  0
  -25.7420  -27.3610   18.8290 C   0  0  0  0  0  0  0  0  0  0  0  0
  -22.6410  -30.3980   21.4770 C   0  0  0  0  0  3  0  0  0  0  0  0
  -23.5920  -29.0330   19.5370 C   0  0  0  0  0  0  0  0  0  0  0  0
  -25.1030  -30.5730   20.8150 C   0  0  0  0  0  2  0  0  0  0  0  0
  -24.8930  -29.3600   19.9350 C   0  0  0  0  0  0  0  0  0  0  0  0
  -25.9760  -28.5510   19.5480 C   0  0  0  0  0  3  0  0  0  0  0  0
  -24.4360  -27.0530   18.4000 C   0  0  0  0  0  3  0  0  0  0  0  0
  -23.3560  -27.8890   18.7500 C   0  0  0  0  0  3  0  0  0  0  0  0
  -22.4920  -29.9640   19.9910 C   0  0  0  0  0  2  0  0  0  0  0  0
  -24.0480  -30.7720   21.8340 N   0  0  0  0  0  0  0  0  0  0  0  0
  -23.3930  -31.6200   23.8320 O   0  0  0  0  0  0  0  0  0  0  0  0
  -22.0530  -29.2890   22.3780 C   0  0  0  0  0  0  0  0  0  0  0  0
  -20.7230  -29.1110   22.3160 N   0  0  0  0  0  0  0  0  0  0  0  0
  -22.7880  -28.5960   23.0870 O   0  0  0  0  0  0  0  0  0  0  0  0
  -20.1880  -29.7250   21.7170 H   0  0  0  0  0  0  0  0  0  0  0  0
  -17.4500  -27.6240   22.6360 C   0  0  0  0  0  0  0  0  0  0  0  0
  -19.9580  -28.0990   23.0410 C   0  0  0  0  0  3  0  0  0  0  0  0
  -20.2130  -26.6870   22.4660 C   0  0  0  0  0  2  0  0  0  0  0  0
  -19.1960  -26.2780   21.3960 C   0  0  0  0  0  2  0  0  0  0  0  0
  -17.7750  -26.2990   21.9690 C   0  0  0  0  0  2  0  0  0  0  0  0
  -18.4740  -28.4770   23.1260 C   0  0  0  0  0  0  0  0  0  0  0  0
  -18.1190  -29.7130   23.7080 C   0  0  0  0  0  3  0  0  0  0  0  0
  -16.7690  -30.0980   23.8100 C   0  0  0  0  0  3  0  0  0  0  0  0
  -15.7570  -29.2450   23.3380 C   0  0  0  0  0  3  0  0  0  0  0  0
  -16.0990  -28.0100   22.7550 C   0  0  0  0  0  3  0  0  0  0  0  0
  -25.7600  -31.7280   23.4750 C   0  0  0  0  0  3  0  0  0  0  0  0
  -25.7130  -33.0760   24.0540 N   0  0  0  0  0  0  0  0  0  0  0  0
  -26.1360  -34.1870   23.4330 C   0  0  0  0  0  0  0  0  0  0  0  0
  -26.6780  -34.1700   22.3240 O   0  0  0  0  0  0  0  0  0  0  0  0
  -25.2280  -33.1740   24.9330 H   0  0  0  0  0  0  0  0  0  0  0  0
  -24.7120  -36.2560   23.5530 C   0  0  0  0  0  1  0  0  0  0  0  0
  -25.9210  -35.5280   24.1590 C   0  0  0  0  0  3  0  0  0  0  0  0
  -28.2260  -35.9220   24.9090 C   0  0  0  0  0  1  0  0  0  0  0  0
  -27.1030  -36.4160   24.1160 N   0  0  0  0  0  0  0  0  0  0  0  0
  -26.8650  -37.3450   24.4500 H   0  0  0  0  0  0  0  0  0  0  0  0
  -26.3930  -30.7030   24.4940 C   0  0  1  0  0  0  0  0  0  0  0  0
  -25.5020  -30.4220   25.7240 C   0  0  0  0  0  1  0  0  0  0  0  0
  -26.6800  -29.3520   23.7970 C   0  0  0  0  0  1  0  0  0  0  0  0
  -27.7540  -31.2400   25.0010 C   0  0  0  0  0  1  0  0  0  0  0  0
  1  4  1  0
  2  5  1  0
  2  1  1  0
  3  4  1  0
  4  6  1  0
  5  3  1  0
  6  7  1  0
  8  6  1  0
  9  6  1  0
 11 10  1  0
 11  9  1  0
 12 11  1  0
 13 12  1  0
 14 20  1  0
 14 22  1  0
 15 20  1  0
 16 17  1  0
 16 15  1  0
 18 17  1  0
 18 19  1  0
 18 27  1  0
 20 19  1  0
 21 14  2  0
 22 13  1  0
 22 23  1  0
 24 25  2  0
 25 44  1  0
 26 25  1  0
 26 29  1  0
 27 28  1  0
 27 24  1  0
 28 26  2  0
 29 30  1  0
 30 31  2  0
 32 35  1  0
 32 31  1  0
 33 32  2  0
 34 33  1  0
 34 29  2  0
 35 36  1  0
 36 41  2  0
 36 37  1  0
 37 38  2  0
 38 39  1  0
 39 43  1  0
 40 39  2  0
 41 40  1  0
 42 41  1  0
 44 45  1  0
 45 47  1  0
 45 48  1  0
 46 44  2  0
 49 24  1  0
 49 50  1  0
 51 49  1  0
 52  5  1  0
 53 57  1  0
 55 53  2  0
 55 58  1  0
 56 54  1  0
 57 52  1  0
 57 54  2  0
 58 56  2  0
 60 58  1  0
 60 59  1  0
 61 63  1  0
 61 60  1  0
 62 73  2  0
 63 68  1  0
 64 72  1  0
 64 74  1  0
 65 67  1  0
 65 71  1  0
 66 72  1  0
 67 66  1  0
 68 67  2  0
 69 70  1  0
 69 63  2  0
 70 65  2  0
 71 64  1  0
 72 62  1  0
 74 76  2  0
 75 74  1  0
 77 75  1  0
 78 87  2  0
 78 83  1  0
 79 75  1  0
 79 83  1  0
 80 79  1  0
 81 82  1  0
 81 80  1  0
 82 78  1  0
 83 84  2  0
 84 85  1  0
 86 85  2  0
 87 86  1  0
 88 62  1  0
 88 89  1  0
 88 98  1  0
 89 92  1  0
 90 89  1  0
 90 94  1  0
 91 90  2  0
 94 93  1  0
 96 94  1  0
 96 97  1  0
 96 95  1  0
 98101  1  1
 98 99  1  0
100 98  1  0
M  ISO  4  14 100  22 100  60 101  61 101
M  END
>  <TORSDO>  (26) 
F 24

>  <SCORE>  (26) 
2.469

>  <name>  (26) 
25

>  <ligand_id>  (26) 
25

>  <original_smiles>  (26) 
[H]c1c([H])c([H])c2c(c1[H])C([H])([H])C([H])([H])C([H])([H])C2([H])N([H])C(=O)C1([H])N(C(=O)C([H])(N([H])C(=O)C([H])(N([H])C([H])([H])[H])C([H])([H])[H])C(C([H])([H])[H])(C([H])([H])[H])C([H])([H])[H])C([H])([H])c2c([H])c(OC([H])(c3c([H])c([H])c(C([H])([H])N4C([H])([H])C([H])([H])C([H])([N+]([H])([H])C([H])([H])C([H])(C([H])([H])[H])C([H])([H])C([H])([H])N([H])C(=O)N5C([H])([H])C([H])([H])C([H])([H])C([H])(n6nc(-c7c([H])c([H])c(Oc8c([H])c([H])c(F)c([H])c8F)c([H])c7[H])c(C(=O)N([H])[H])c6N([H])[H])C5([H])[H])C4([H])[H])c([H])c3[H])C([H])([H])[H])c([H])c([H])c2C1([H])[H]

>  <smiles>  (26) 
[H]c1c([H])c([H])c2c(c1[H])C([H])([H])C([H])([H])C([H])([H])C2([H])N([H])C(=O)C1([H])N(C(=O)C([H])(N([H])C(=O)C([H])(N([H])C([H])([H])[H])C([H])([H])[H])C(C([H])([H])[H])(C([H])([H])[H])C([H])([H])[H])C([H])([H])c2c([H])c(OC([H])(c3c([H])c([H])c(C([H])([H])N4C([H])([H])C([H])([H])C([H])([N+]([H])([H])C([H])([H])C([H])(C([H])([H])[H])C([H])([H])C([H])([H])N([H])C(=O)N5C([H])([H])C([H])([H])C([H])([H])C([H])(n6nc(-c7c([H])c([H])c(Oc8c([H])c([H])c(F)c([H])c8F)c([H])c7[H])c(C(=O)N([H])[H])c6N([H])[H])C5([H])[H])C4([H])[H])c([H])c3[H])C([H])([H])[H])c([H])c([H])c2C1([H])[H]

$$$$
26:0:0
     RDKit          3D

 96104  0  0  1  0  0  0  0  0999 V2000
  -30.1260  -24.0600   19.1250 C   0  0  0  0  0  3  0  0  0  0  0  0
  -28.3110  -23.2830   20.4660 C   0  0  0  0  0  3  0  0  0  0  0  0
  -29.0410  -24.3860   19.9640 C   0  0  0  0  0  0  0  0  0  0  0  0
  -30.4750  -22.7030   18.8410 C   0  0  0  0  0  0  0  0  0  0  0  0
  -28.6350  -21.9180   20.2080 C   0  0  0  0  0  0  0  0  0  0  0  0
  -29.7800  -21.5820   19.4070 C   0  0  0  0  0  0  0  0  0  0  0  0
  -31.6330  -22.4790   17.8810 C   0  0  0  0  0  1  0  0  0  0  0  0
  -26.3260  -20.8030   20.2000 C   0  0  0  0  0  1  0  0  0  0  0  0
  -27.7010  -20.9130   20.8860 C   0  0  0  0  0  2  0  0  0  0  0  0
  -30.3480  -20.2820   19.1370 N   0  0  0  0  0  0  0  0  0  0  0  0
  -31.1870  -20.3260   18.5720 H   0  0  0  0  0  0  0  0  0  0  0  0
  -28.7800  -18.5610   18.3220 C   0  0  0  0  0  1  0  0  0  0  0  0
  -29.8950  -18.8700   19.3330 C   0  0  0  0  0  3  0  0  0  0  0  0
  -32.2270  -18.3270   20.1570 C   0  0  0  0  0  1  0  0  0  0  0  0
  -31.5910  -17.6930   17.8060 C   0  0  0  0  0  1  0  0  0  0  0  0
  -31.0830  -17.7850   19.2670 C   0  0  2  0  0  0  0  0  0  0  0  0
  -31.4750  -15.2440   19.7370 C   0  0  0  0  0  0  0  0  0  0  0  0
  -31.2480  -12.8920   19.0080 C   0  0  0  0  0  2  0  0  0  0  0  0
  -30.3010  -12.8610   17.7930 C   0  0  0  0  0  2  0  0  0  0  0  0
  -28.8440  -12.7160   18.2610 C   0  0  0  0  0  2  0  0  0  0  0  0
  -28.4710  -13.7220   19.3820 C   0  0  0  0  0  3  0  0  0  0  0  0
  -29.5450  -13.7770   20.4900 C   0  0  0  0  0  2  0  0  0  0  0  0
  -30.8360  -14.0410   19.8420 N   0  0  0  0  0  0  0  0  0  0  0  0
  -32.6630  -15.2830   19.4150 O   0  0  0  0  0  0  0  0  0  0  0  0
  -30.7110  -16.3870   19.7380 N   0  0  0  0  0  0  0  0  0  0  0  0
  -29.7390  -16.2550   19.9750 H   0  0  0  0  0  0  0  0  0  0  0  0
  -26.1190  -14.3430   20.2020 C   0  0  0  0  0  0  0  0  0  0  0  0
  -25.0600  -13.5800   20.6120 C   0  0  0  0  0  0  0  0  0  0  0  0
  -25.5050  -12.2250   20.5590 C   0  0  0  0  0  0  0  0  0  0  0  0
  -27.1410  -13.4530   19.9250 N   0  0  0  0  0  0  0  0  0  0  0  0
  -26.7820  -12.1730   20.2030 N   0  0  0  0  0  0  0  0  0  0  0  0
  -24.7720  -10.9690   20.7690 C   0  0  0  0  0  0  0  0  0  0  0  0
  -25.0930  -10.0960   21.8320 C   0  0  0  0  0  3  0  0  0  0  0  0
  -24.3600   -8.9050   22.0250 C   0  0  0  0  0  3  0  0  0  0  0  0
  -23.2900   -8.5790   21.1570 C   0  0  0  0  0  0  0  0  0  0  0  0
  -22.9910   -9.4420   20.0870 C   0  0  0  0  0  3  0  0  0  0  0  0
  -23.7250  -10.6230   19.8910 C   0  0  0  0  0  3  0  0  0  0  0  0
  -22.5400   -7.4330   21.2520 O   0  0  0  0  0  0  0  0  0  0  0  0
  -22.1730   -6.9130   22.4680 C   0  0  0  0  0  0  0  0  0  0  0  0
  -21.3850   -7.6440   23.3840 C   0  0  0  0  0  3  0  0  0  0  0  0
  -20.9730   -7.0470   24.5920 C   0  0  0  0  0  3  0  0  0  0  0  0
  -21.3370   -5.7180   24.8820 C   0  0  0  0  0  0  0  0  0  0  0  0
  -22.1180   -4.9880   23.9690 C   0  0  0  0  0  3  0  0  0  0  0  0
  -22.5300   -5.5830   22.7640 C   0  0  0  0  0  0  0  0  0  0  0  0
  -23.2650   -4.8660   21.8780 F   0  0  0  0  0  0  0  0  0  0  0  0
  -20.9350   -5.1400   26.0380 F   0  0  0  0  0  0  0  0  0  0  0  0
  -23.6790  -14.0710   20.9410 C   0  0  0  0  0  0  0  0  0  0  0  0
  -22.9860  -13.3860   21.8430 N   0  0  0  0  0  0  0  0  0  0  0  0
  -23.2270  -15.0930   20.4260 O   0  0  0  0  0  0  0  0  0  0  0  0
  -23.3670  -12.5560   22.2740 H   0  0  0  0  0  0  0  0  0  0  0  0
  -22.0630  -13.6940   22.1100 H   0  0  0  0  0  0  0  0  0  0  0  0
  -26.2880  -15.7110   20.0180 N   0  0  0  0  0  0  0  0  0  0  0  0
  -25.5240  -16.3680   20.1470 H   0  0  0  0  0  0  0  0  0  0  0  0
  -27.1050  -16.1350   19.6010 H   0  0  0  0  0  0  0  0  0  0  0  0
  -28.6710  -25.8260   20.4620 C   0  0  0  0  0  2  0  0  0  0  0  0
  -28.7450  -27.0010   19.5890 O   0  0  0  0  0  0  0  0  0  0  0  0
  -24.7190  -31.7990   23.1540 C   0  0  0  0  0  0  0  0  0  0  0  0
  -27.6080  -27.8020   19.6400 C   0  0  0  0  0  0  0  0  0  0  0  0
  -23.6060  -30.5210   21.3580 C   0  0  0  0  0  3  0  0  0  0  0  0
  -25.1500  -29.2260   19.7830 C   0  0  0  0  0  0  0  0  0  0  0  0
  -26.1180  -31.0140   21.2340 C   0  0  0  0  0  2  0  0  0  0  0  0
  -26.2830  -29.7270   20.4400 C   0  0  0  0  0  0  0  0  0  0  0  0
  -27.5210  -29.0230   20.3650 C   0  0  0  0  0  3  0  0  0  0  0  0
  -26.4590  -27.3420   18.9680 C   0  0  0  0  0  3  0  0  0  0  0  0
  -25.2370  -28.0380   19.0390 C   0  0  0  0  0  3  0  0  0  0  0  0
  -23.8600  -30.0110   19.9150 C   0  0  0  0  0  2  0  0  0  0  0  0
  -24.8320  -31.1220   21.9740 N   0  0  0  0  0  0  0  0  0  0  0  0
  -23.6210  -31.9520   23.7070 O   0  0  0  0  0  0  0  0  0  0  0  0
  -23.0040  -29.3700   22.1950 C   0  0  0  0  0  0  0  0  0  0  0  0
  -21.6830  -29.1590   22.0670 N   0  0  0  0  0  0  0  0  0  0  0  0
  -23.7210  -28.6760   22.9210 O   0  0  0  0  0  0  0  0  0  0  0  0
  -21.1640  -29.7750   21.4580 H   0  0  0  0  0  0  0  0  0  0  0  0
  -18.3550  -27.8240   22.5170 C   0  0  0  0  0  0  0  0  0  0  0  0
  -20.9150  -28.1030   22.7260 C   0  0  0  0  0  3  0  0  0  0  0  0
  -21.0140  -26.7760   21.9410 C   0  0  0  0  0  2  0  0  0  0  0  0
  -19.8820  -26.6060   20.9230 C   0  0  0  0  0  2  0  0  0  0  0  0
  -18.5320  -26.5950   21.6400 C   0  0  0  0  0  2  0  0  0  0  0  0
  -19.4760  -28.5430   23.0090 C   0  0  0  0  0  0  0  0  0  0  0  0
  -19.2600  -29.7090   23.7750 C   0  0  0  0  0  3  0  0  0  0  0  0
  -17.9550  -30.1520   24.0600 C   0  0  0  0  0  3  0  0  0  0  0  0
  -16.8480  -29.4230   23.5880 C   0  0  0  0  0  3  0  0  0  0  0  0
  -17.0490  -28.2620   22.8200 C   0  0  0  0  0  3  0  0  0  0  0  0
  -25.9630  -32.4320   23.8520 C   0  0  0  0  0  3  0  0  0  0  0  0
  -25.5870  -33.7840   24.2840 N   0  0  0  0  0  0  0  0  0  0  0  0
  -25.8880  -34.9070   23.6180 C   0  0  0  0  0  0  0  0  0  0  0  0
  -26.5830  -34.9140   22.5980 O   0  0  0  0  0  0  0  0  0  0  0  0
  -24.9720  -33.8500   25.0820 H   0  0  0  0  0  0  0  0  0  0  0  0
  -24.0940  -36.6480   23.3650 C   0  0  0  0  0  1  0  0  0  0  0  0
  -25.3360  -36.2350   24.1700 C   0  0  0  0  0  3  0  0  0  0  0  0
  -27.4090  -37.1460   25.1190 C   0  0  0  0  0  1  0  0  0  0  0  0
  -26.3240  -37.3340   24.1600 N   0  0  0  0  0  0  0  0  0  0  0  0
  -25.8770  -38.2260   24.3540 H   0  0  0  0  0  0  0  0  0  0  0  0
  -26.4860  -31.5820   25.0740 C   0  0  1  0  0  0  0  0  0  0  0  0
  -25.3830  -31.2050   26.0920 C   0  0  0  0  0  1  0  0  0  0  0  0
  -27.1410  -30.2670   24.5890 C   0  0  0  0  0  1  0  0  0  0  0  0
  -27.5830  -32.3700   25.8280 C   0  0  0  0  0  1  0  0  0  0  0  0
  1  3  1  0
  3 55  1  0
  3  2  2  0
  4  1  2  0
  4  6  1  0
  5  2  1  0
  5  9  1  0
  6  5  2  0
  7  4  1  0
  8  9  1  0
 10 13  1  0
 10  6  1  0
 11 10  1  0
 13 12  1  0
 16 15  1  6
 16 13  1  0
 16 25  1  0
 16 14  1  0
 17 25  1  0
 17 23  1  0
 18 23  1  0
 19 20  1  0
 19 18  1  0
 21 20  1  0
 21 30  1  0
 21 22  1  0
 23 22  1  0
 24 17  2  0
 25 26  1  0
 27 28  2  0
 28 47  1  0
 29 28  1  0
 29 32  1  0
 30 27  1  0
 30 31  1  0
 31 29  2  0
 32 33  1  0
 33 34  2  0
 35 38  1  0
 35 34  1  0
 36 35  2  0
 37 36  1  0
 37 32  2  0
 38 39  1  0
 39 44  2  0
 39 40  1  0
 40 41  2  0
 41 42  1  0
 42 46  1  0
 43 42  2  0
 44 43  1  0
 45 44  1  0
 47 48  1  0
 48 51  1  0
 48 50  1  0
 49 47  2  0
 52 53  1  0
 52 27  1  0
 54 52  1  0
 56 58  1  0
 56 55  1  0
 57 68  2  0
 58 63  1  0
 59 67  1  0
 59 69  1  0
 60 66  1  0
 60 62  1  0
 61 67  1  0
 62 61  1  0
 63 62  2  0
 64 65  1  0
 64 58  2  0
 65 60  2  0
 66 59  1  0
 67 57  1  0
 69 71  2  0
 70 69  1  0
 72 70  1  0
 73 82  2  0
 73 78  1  0
 74 70  1  0
 74 78  1  0
 75 74  1  0
 76 77  1  0
 76 75  1  0
 77 73  1  0
 78 79  2  0
 79 80  1  0
 81 80  2  0
 82 81  1  0
 83 57  1  0
 83 84  1  0
 83 93  1  0
 84 87  1  0
 85 89  1  0
 85 84  1  0
 86 85  2  0
 89 88  1  0
 91 89  1  0
 91 92  1  0
 91 90  1  0
 93 96  1  1
 93 94  1  0
 95 93  1  0
M  ISO  4  17 100  25 100  55 101  56 101
M  END
>  <TORSDO>  (27) 
F 21

>  <SCORE>  (27) 
-9.510

>  <name>  (27) 
26

>  <ligand_id>  (27) 
26

>  <original_smiles>  (27) 
[H]c1c([H])c([H])c2c(c1[H])C([H])([H])C([H])([H])C([H])([H])C2([H])N([H])C(=O)C1([H])N(C(=O)C([H])(N([H])C(=O)C([H])(N([H])C([H])([H])[H])C([H])([H])[H])C(C([H])([H])[H])(C([H])([H])[H])C([H])([H])[H])C([H])([H])c2c([H])c(OC([H])([H])c3c([H])c(C([H])([H])[H])c(N([H])C([H])(C([H])([H])[H])C(N([H])C(=O)N4C([H])([H])C([H])([H])C([H])([H])C([H])(n5nc(-c6c([H])c([H])c(Oc7c([H])c([H])c(F)c([H])c7F)c([H])c6[H])c(C(=O)N([H])[H])c5N([H])[H])C4([H])[H])(C([H])([H])[H])C([H])([H])[H])c(C([H])([H])C([H])([H])[H])c3[H])c([H])c([H])c2C1([H])[H]

>  <smiles>  (27) 
[H]c1c([H])c([H])c2c(c1[H])C([H])([H])C([H])([H])C([H])([H])C2([H])N([H])C(=O)C1([H])N(C(=O)C([H])(N([H])C(=O)C([H])(N([H])C([H])([H])[H])C([H])([H])[H])C(C([H])([H])[H])(C([H])([H])[H])C([H])([H])[H])C([H])([H])c2c([H])c(OC([H])([H])c3c([H])c(C([H])([H])[H])c(N([H])C([H])(C([H])([H])[H])C(N([H])C(=O)N4C([H])([H])C([H])([H])C([H])([H])C([H])(n5nc(-c6c([H])c([H])c(Oc7c([H])c([H])c(F)c([H])c7F)c([H])c6[H])c(C(=O)N([H])[H])c5N([H])[H])C4([H])[H])(C([H])([H])[H])C([H])([H])[H])c(C([H])([H])C([H])([H])[H])c3[H])c([H])c([H])c2C1([H])[H]

$$$$
27:0:0
     RDKit          3D

 86 90  0  0  1  0  0  0  0  0999 V2000
  -28.7360  -21.3650   19.9400 C   0  0  0  0  0  1  0  0  0  0  0  0
  -29.5130  -21.6060   18.7090 N   0  0  0  0  0  4  0  0  0  0  0  0
  -30.4470  -21.9030   18.9300 H   0  0  0  0  0  0  0  0  0  0  0  0
  -29.0830  -22.3320   18.1620 H   0  0  0  0  0  0  0  0  0  0  0  0
  -29.5640  -20.7800   18.1410 H   0  0  0  0  0  0  0  0  0  0  0  0
  -29.3210  -19.4270   20.5260 C   0  0  0  0  0  1  0  0  0  0  0  0
  -30.1120  -16.0780   20.1440 C   0  0  0  0  0  0  0  0  0  0  0  0
  -30.3100  -13.4590   19.2970 C   0  0  0  0  0  2  0  0  0  0  0  0
  -29.4410  -12.8620   18.1430 C   0  0  0  0  0  2  0  0  0  0  0  0
  -28.0560  -12.4260   18.6400 C   0  0  0  0  0  2  0  0  0  0  0  0
  -27.5080  -13.4440   19.6590 C   0  0  0  0  0  3  0  0  0  0  0  0
  -28.5350  -13.9040   20.7280 C   0  0  0  0  0  2  0  0  0  0  0  0
  -29.6190  -14.6570   20.0160 N   0  0  0  0  0  0  0  0  0  0  0  0
  -31.3580  -15.9390   20.0810 O   0  0  0  0  0  0  0  0  0  0  0  0
  -29.3650  -17.5490   20.1570 N   0  0  0  0  0  0  0  0  0  0  0  0
  -28.3980  -17.2990   19.9960 H   0  0  0  0  0  0  0  0  0  0  0  0
  -25.1640  -13.9350   20.4780 C   0  0  0  0  0  0  0  0  0  0  0  0
  -24.1160  -13.1460   20.8500 C   0  0  0  0  0  0  0  0  0  0  0  0
  -24.5920  -11.8010   20.7990 C   0  0  0  0  0  0  0  0  0  0  0  0
  -26.2100  -13.0760   20.2090 N   0  0  0  0  0  0  0  0  0  0  0  0
  -25.8820  -11.7800   20.4660 N   0  0  0  0  0  0  0  0  0  0  0  0
  -23.8680  -10.5350   20.9860 C   0  0  0  0  0  0  0  0  0  0  0  0
  -24.3050   -9.5610   21.9110 C   0  0  0  0  0  3  0  0  0  0  0  0
  -23.5750   -8.3650   22.0910 C   0  0  0  0  0  3  0  0  0  0  0  0
  -22.3940   -8.1340   21.3460 C   0  0  0  0  0  0  0  0  0  0  0  0
  -21.9750   -9.0960   20.4110 C   0  0  0  0  0  3  0  0  0  0  0  0
  -22.7050  -10.2830   20.2280 C   0  0  0  0  0  3  0  0  0  0  0  0
  -21.6360   -6.9910   21.4370 O   0  0  0  0  0  0  0  0  0  0  0  0
  -21.5940   -6.2430   22.5870 C   0  0  0  0  0  0  0  0  0  0  0  0
  -21.1630   -6.7910   23.8150 C   0  0  0  0  0  3  0  0  0  0  0  0
  -21.0670   -5.9690   24.9570 C   0  0  0  0  0  3  0  0  0  0  0  0
  -21.3920   -4.6030   24.8720 C   0  0  0  0  0  0  0  0  0  0  0  0
  -21.8150   -4.0540   23.6490 C   0  0  0  0  0  3  0  0  0  0  0  0
  -21.9130   -4.8720   22.5090 C   0  0  0  0  0  0  0  0  0  0  0  0
  -22.3000   -4.3340   21.3270 F   0  0  0  0  0  0  0  0  0  0  0  0
  -21.2940   -3.8120   25.9660 F   0  0  0  0  0  0  0  0  0  0  0  0
  -22.7200  -13.6160   21.1340 C   0  0  0  0  0  0  0  0  0  0  0  0
  -22.0010  -12.9130   22.0020 N   0  0  0  0  0  0  0  0  0  0  0  0
  -22.2760  -14.6420   20.6220 O   0  0  0  0  0  0  0  0  0  0  0  0
  -22.3770  -12.0870   22.4450 H   0  0  0  0  0  0  0  0  0  0  0  0
  -21.0620  -13.2070   22.2300 H   0  0  0  0  0  0  0  0  0  0  0  0
  -25.3110  -15.3100   20.3060 N   0  0  0  0  0  0  0  0  0  0  0  0
  -24.5370  -15.9530   20.4260 H   0  0  0  0  0  0  0  0  0  0  0  0
  -26.1500  -15.7560   19.9590 H   0  0  0  0  0  0  0  0  0  0  0  0
  -28.1780  -23.3170   20.5180 C   0  0  0  0  0 15  0  0  0  0  0  0
  -28.1790  -25.2030   20.2700 O   0  0  0  0  0  1  0  0  0  0  0  0
  -24.6510  -31.8300   23.1560 C   0  0  0  0  0  0  0  0  0  0  0  0
  -27.2110  -26.5110   20.2880 C   0  0  0  0  0  0  0  0  0  0  0  0
  -23.4930  -30.4010   21.5310 C   0  0  0  0  0  3  0  0  0  0  0  0
  -24.9600  -28.6920   20.1730 C   0  0  0  0  0  0  0  0  0  0  0  0
  -26.0840  -30.4830   21.4570 C   0  0  0  0  0  2  0  0  0  0  0  0
  -26.1570  -29.0150   20.8240 C   0  0  0  0  0  0  0  0  0  0  0  0
  -27.2580  -27.9630   20.8320 C   0  0  0  0  0  3  0  0  0  0  0  0
  -25.9730  -26.4630   19.5760 C   0  0  0  0  0  3  0  0  0  0  0  0
  -24.9230  -27.4450   19.5220 C   0  0  0  0  0  3  0  0  0  0  0  0
  -23.7610  -29.6690   20.1810 C   0  0  0  0  0  2  0  0  0  0  0  0
  -24.7700  -30.9450   22.0990 N   0  0  0  0  0  0  0  0  0  0  0  0
  -23.5470  -32.1400   23.6400 O   0  0  0  0  0  0  0  0  0  0  0  0
  -22.7490  -29.4550   22.5140 C   0  0  0  0  0  0  0  0  0  0  0  0
  -21.4140  -29.3180   22.3890 N   0  0  0  0  0  0  0  0  0  0  0  0
  -23.3920  -28.8340   23.3640 O   0  0  0  0  0  0  0  0  0  0  0  0
  -20.9420  -29.8680   21.6850 H   0  0  0  0  0  0  0  0  0  0  0  0
  -18.0140  -28.1310   22.9270 C   0  0  0  0  0  0  0  0  0  0  0  0
  -20.5790  -28.3910   23.1690 C   0  0  0  0  0  3  0  0  0  0  0  0
  -20.6670  -26.9550   22.6030 C   0  0  0  0  0  2  0  0  0  0  0  0
  -19.5590  -26.6350   21.5940 C   0  0  0  0  0  2  0  0  0  0  0  0
  -18.1820  -26.7830   22.2450 C   0  0  0  0  0  2  0  0  0  0  0  0
  -19.1380  -28.8940   23.3460 C   0  0  0  0  0  0  0  0  0  0  0  0
  -18.9220  -30.1510   23.9510 C   0  0  0  0  0  3  0  0  0  0  0  0
  -17.6170  -30.6470   24.1370 C   0  0  0  0  0  3  0  0  0  0  0  0
  -16.5090  -29.8830   23.7290 C   0  0  0  0  0  3  0  0  0  0  0  0
  -16.7080  -28.6280   23.1300 C   0  0  0  0  0  3  0  0  0  0  0  0
  -25.8940  -32.5080   23.8100 C   0  0  0  0  0  3  0  0  0  0  0  0
  -26.3760  -31.7720   25.1230 C   0  0  1  0  0  0  0  0  0  0  0  0
  -25.2550  -31.5610   26.1690 C   0  0  0  0  0  1  0  0  0  0  0  0
  -26.9730  -30.3860   24.7980 C   0  0  0  0  0  1  0  0  0  0  0  0
  -27.5070  -32.5880   25.7950 C   0  0  0  0  0  1  0  0  0  0  0  0
  -25.5490  -33.9100   24.1310 N   0  0  0  0  0  0  0  0  0  0  0  0
  -25.8860  -34.9810   23.3980 C   0  0  0  0  0  0  0  0  0  0  0  0
  -26.5700  -34.8930   22.3770 O   0  0  0  0  0  0  0  0  0  0  0  0
  -24.9390  -34.0510   24.9230 H   0  0  0  0  0  0  0  0  0  0  0  0
  -24.1580  -36.7880   23.0560 C   0  0  0  0  0  1  0  0  0  0  0  0
  -25.3930  -36.3680   23.8690 C   0  0  0  0  0  3  0  0  0  0  0  0
  -27.5150  -37.2630   24.7290 C   0  0  0  0  0  1  0  0  0  0  0  0
  -26.4230  -37.4280   23.7740 N   0  0  0  0  0  0  0  0  0  0  0  0
  -26.0090  -38.3450   23.9210 H   0  0  0  0  0  0  0  0  0  0  0  0
  2  3  1  0
  2  1  1  0
  4  2  1  0
  5  2  1  0
  7 15  1  0
  8 13  1  0
  9 10  1  0
  9  8  1  0
 11 10  1  0
 11 20  1  0
 11 12  1  0
 13  7  1  0
 13 12  1  0
 14  7  2  0
 15  6  1  0
 16 15  1  0
 17 18  2  0
 18 37  1  0
 19 18  1  0
 19 22  1  0
 20 21  1  0
 20 17  1  0
 21 19  2  0
 22 23  1  0
 23 24  2  0
 25 28  1  0
 25 24  1  0
 26 25  2  0
 27 26  1  0
 27 22  2  0
 28 29  1  0
 29 30  1  0
 30 31  2  0
 32 31  1  0
 32 36  1  0
 33 32  2  0
 34 29  2  0
 34 33  1  0
 35 34  1  0
 37 38  1  0
 38 41  1  0
 38 40  1  0
 39 37  2  0
 42 43  1  0
 42 17  1  0
 44 42  1  0
 46 48  1  0
 47 58  2  0
 48 53  1  0
 49 57  1  0
 49 59  1  0
 50 56  1  0
 50 52  1  0
 51 57  1  0
 52 53  2  0
 52 51  1  0
 54 48  2  0
 55 54  1  0
 55 50  2  0
 56 49  1  0
 57 47  1  0
 59 61  2  0
 60 59  1  0
 62 60  1  0
 63 72  2  0
 63 68  1  0
 64 60  1  0
 64 68  1  0
 65 64  1  0
 66 67  1  0
 66 65  1  0
 67 63  1  0
 68 69  2  0
 69 70  1  0
 71 70  2  0
 72 71  1  0
 73 47  1  0
 73 78  1  0
 73 74  1  0
 74 77  1  1
 74 75  1  0
 76 74  1  0
 78 81  1  0
 79 83  1  0
 79 78  1  0
 80 79  2  0
 83 82  1  0
 85 83  1  0
 85 86  1  0
 85 84  1  0
M  ISO  4   7 100  15 100  45 101  46 101
M  END
>  <TORSDO>  (28) 
F 19

>  <SCORE>  (28) 
-16.156

>  <name>  (28) 
27

>  <ligand_id>  (28) 
27

>  <original_smiles>  (28) 
[H]c1c([H])c([H])c2c(c1[H])C([H])([H])C([H])([H])C([H])([H])C2([H])N([H])C(=O)C1([H])N(C(=O)C([H])(N([H])C(=O)C([H])(N([H])C([H])([H])[H])C([H])([H])[H])C(C([H])([H])[H])(C([H])([H])[H])C([H])([H])[H])C([H])([H])c2c([H])c(OC([H])([H])C([H])(C([H])([H])N([H])C(=O)N3C([H])([H])C([H])([H])C([H])([H])C([H])(n4nc(-c5c([H])c([H])c(Oc6c([H])c([H])c(F)c([H])c6F)c([H])c5[H])c(C(=O)N([H])[H])c4N([H])[H])C3([H])[H])[N+]([H])([H])[H])c([H])c([H])c2C1([H])[H]

>  <smiles>  (28) 
[H]c1c([H])c([H])c2c(c1[H])C([H])([H])C([H])([H])C([H])([H])C2([H])N([H])C(=O)C1([H])N(C(=O)C([H])(N([H])C(=O)C([H])(N([H])C([H])([H])[H])C([H])([H])[H])C(C([H])([H])[H])(C([H])([H])[H])C([H])([H])[H])C([H])([H])c2c([H])c(OC([H])([H])C([H])(C([H])([H])N([H])C(=O)N3C([H])([H])C([H])([H])C([H])([H])C([H])(n4nc(-c5c([H])c([H])c(Oc6c([H])c([H])c(F)c([H])c6F)c([H])c5[H])c(C(=O)N([H])[H])c4N([H])[H])C3([H])[H])[N+]([H])([H])[H])c([H])c([H])c2C1([H])[H]

$$$$
28:0:0
     RDKit          3D

 92100  0  0  1  0  0  0  0  0999 V2000
  -29.9130  -18.5440   19.1100 C   0  0  0  0  0  2  0  0  0  0  0  0
  -30.0970  -20.1470   19.1400 C   0  0  0  0  0  2  0  0  0  0  0  0
  -30.5690  -20.0080   21.5170 C   0  0  0  0  0  2  0  0  0  0  0  0
  -30.7220  -17.6650   20.1600 C   0  0  0  0  0  3  0  0  0  0  0  0
  -29.7260  -20.8740   20.4920 C   0  0  0  0  0  3  0  0  0  0  0  0
  -30.4420  -18.4150   21.5210 C   0  0  0  0  0  3  0  0  0  0  0  0
  -31.2090  -14.9790   20.1320 C   0  0  0  0  0  0  0  0  0  0  0  0
  -31.0590  -12.5840   19.3610 C   0  0  0  0  0  2  0  0  0  0  0  0
  -30.1360  -12.4900   18.1240 C   0  0  0  0  0  2  0  0  0  0  0  0
  -28.6610  -12.3440   18.5490 C   0  0  0  0  0  2  0  0  0  0  0  0
  -28.2600  -13.3520   19.6580 C   0  0  0  0  0  3  0  0  0  0  0  0
  -29.3060  -13.4050   20.7930 C   0  0  0  0  0  2  0  0  0  0  0  0
  -30.5970  -13.7370   20.1770 N   0  0  0  0  0  0  0  0  0  0  0  0
  -32.4020  -15.0460   19.8290 O   0  0  0  0  0  0  0  0  0  0  0  0
  -30.4260  -16.1360   20.2260 N   0  0  0  0  0  0  0  0  0  0  0  0
  -29.4590  -15.9280   20.4180 H   0  0  0  0  0  0  0  0  0  0  0  0
  -25.8980  -14.0190   20.3990 C   0  0  0  0  0  0  0  0  0  0  0  0
  -24.8100  -13.2800   20.7750 C   0  0  0  0  0  0  0  0  0  0  0  0
  -25.2260  -11.9140   20.7410 C   0  0  0  0  0  0  0  0  0  0  0  0
  -26.9100  -13.1050   20.1560 N   0  0  0  0  0  0  0  0  0  0  0  0
  -26.5140  -11.8330   20.4260 N   0  0  0  0  0  0  0  0  0  0  0  0
  -24.4570  -10.6780   20.9310 C   0  0  0  0  0  0  0  0  0  0  0  0
  -24.8310   -9.7160   21.8940 C   0  0  0  0  0  3  0  0  0  0  0  0
  -24.0620   -8.5450   22.0760 C   0  0  0  0  0  3  0  0  0  0  0  0
  -22.9050   -8.3290   21.2880 C   0  0  0  0  0  0  0  0  0  0  0  0
  -22.5490   -9.2790   20.3140 C   0  0  0  0  0  3  0  0  0  0  0  0
  -23.3180  -10.4410   20.1340 C   0  0  0  0  0  3  0  0  0  0  0  0
  -22.1120   -7.2090   21.3720 O   0  0  0  0  0  0  0  0  0  0  0  0
  -21.9510   -6.5280   22.5530 C   0  0  0  0  0  0  0  0  0  0  0  0
  -21.4470   -7.1570   23.7130 C   0  0  0  0  0  3  0  0  0  0  0  0
  -21.2330   -6.4050   24.8850 C   0  0  0  0  0  3  0  0  0  0  0  0
  -21.5150   -5.0250   24.8990 C   0  0  0  0  0  0  0  0  0  0  0  0
  -22.0160   -4.3970   23.7450 C   0  0  0  0  0  3  0  0  0  0  0  0
  -22.2320   -5.1470   22.5740 C   0  0  0  0  0  0  0  0  0  0  0  0
  -22.6930   -4.5320   21.4590 F   0  0  0  0  0  0  0  0  0  0  0  0
  -21.3040   -4.3010   26.0230 F   0  0  0  0  0  0  0  0  0  0  0  0
  -23.4310  -13.8050   21.0540 C   0  0  0  0  0  0  0  0  0  0  0  0
  -22.6920  -13.1480   21.9410 N   0  0  0  0  0  0  0  0  0  0  0  0
  -23.0200  -14.8340   20.5220 O   0  0  0  0  0  0  0  0  0  0  0  0
  -23.0340  -12.3120   22.3900 H   0  0  0  0  0  0  0  0  0  0  0  0
  -21.7690  -13.4880   22.1770 H   0  0  0  0  0  0  0  0  0  0  0  0
  -26.1040  -15.3850   20.2150 N   0  0  0  0  0  0  0  0  0  0  0  0
  -25.3420  -16.0500   20.2950 H   0  0  0  0  0  0  0  0  0  0  0  0
  -26.9400  -15.7850   19.8090 H   0  0  0  0  0  0  0  0  0  0  0  0
  -29.9540  -22.4230   20.6650 N   0  0  0  0  0  4  0  0  0  0  0  0
  -30.9450  -22.6030   20.6190 H   0  0  0  0  0  0  0  0  0  0  0  0
  -29.7030  -22.5690   21.6320 H   0  0  0  0  0  0  0  0  0  0  0  0
  -29.2310  -23.5990   19.9230 C   0  0  0  0  0  2  0  0  0  0  0  0
  -28.9220  -25.0140   20.7400 C   0  0  0  0  0  2  0  0  0  0  0  0
  -28.8980  -26.4430   20.1850 O   0  0  0  0  0  0  0  0  0  0  0  0
  -24.5900  -31.5870   23.1430 C   0  0  0  0  0  0  0  0  0  0  0  0
  -27.7180  -27.2410   20.1710 C   0  0  0  0  0  0  0  0  0  0  0  0
  -23.5900  -30.1250   21.4240 C   0  0  0  0  0  3  0  0  0  0  0  0
  -25.2370  -28.7150   20.0480 C   0  0  0  0  0  0  0  0  0  0  0  0
  -26.1060  -30.6380   21.3740 C   0  0  0  0  0  2  0  0  0  0  0  0
  -26.3370  -29.2750   20.7120 C   0  0  0  0  0  0  0  0  0  0  0  0
  -27.5820  -28.5560   20.7510 C   0  0  0  0  0  3  0  0  0  0  0  0
  -26.5900  -26.7520   19.4840 C   0  0  0  0  0  3  0  0  0  0  0  0
  -25.3730  -27.4660   19.4180 C   0  0  0  0  0  3  0  0  0  0  0  0
  -23.9320  -29.4960   20.0470 C   0  0  0  0  0  2  0  0  0  0  0  0
  -24.7760  -30.8030   22.0380 N   0  0  0  0  0  0  0  0  0  0  0  0
  -23.4600  -31.7610   23.6260 O   0  0  0  0  0  0  0  0  0  0  0  0
  -22.9610  -29.0400   22.3340 C   0  0  0  0  0  0  0  0  0  0  0  0
  -21.6610  -28.7640   22.1410 N   0  0  0  0  0  0  0  0  0  0  0  0
  -23.6470  -28.4520   23.1740 O   0  0  0  0  0  0  0  0  0  0  0  0
  -21.1610  -29.2960   21.4420 H   0  0  0  0  0  0  0  0  0  0  0  0
  -18.3690  -27.2800   22.4580 C   0  0  0  0  0  0  0  0  0  0  0  0
  -20.8840  -27.7460   22.8510 C   0  0  0  0  0  3  0  0  0  0  0  0
  -21.1300  -26.3390   22.2550 C   0  0  0  0  0  2  0  0  0  0  0  0
  -20.1070  -25.9510   21.1820 C   0  0  0  0  0  2  0  0  0  0  0  0
  -18.6890  -25.9670   21.7620 C   0  0  0  0  0  2  0  0  0  0  0  0
  -19.4020  -28.1230   22.9520 C   0  0  0  0  0  0  0  0  0  0  0  0
  -19.0520  -29.3480   23.5610 C   0  0  0  0  0  3  0  0  0  0  0  0
  -17.7040  -29.7370   23.6740 C   0  0  0  0  0  3  0  0  0  0  0  0
  -16.6860  -28.8910   23.1970 C   0  0  0  0  0  3  0  0  0  0  0  0
  -17.0190  -27.6660   22.5920 C   0  0  0  0  0  3  0  0  0  0  0  0
  -25.7800  -32.3120   23.8430 C   0  0  0  0  0  3  0  0  0  0  0  0
  -26.2610  -31.5850   25.1580 C   0  0  1  0  0  0  0  0  0  0  0  0
  -25.1190  -31.2800   26.1570 C   0  0  0  0  0  1  0  0  0  0  0  0
  -26.9590  -30.2470   24.8210 C   0  0  0  0  0  1  0  0  0  0  0  0
  -27.3120  -32.4580   25.8840 C   0  0  0  0  0  1  0  0  0  0  0  0
  -25.3470  -33.6850   24.1420 N   0  0  0  0  0  0  0  0  0  0  0  0
  -25.6370  -34.7570   23.3940 C   0  0  0  0  0  0  0  0  0  0  0  0
  -26.3620  -34.7000   22.3990 O   0  0  0  0  0  0  0  0  0  0  0  0
  -24.7070  -33.7940   24.9150 H   0  0  0  0  0  0  0  0  0  0  0  0
  -23.7910  -36.4110   22.9600 C   0  0  0  0  0  1  0  0  0  0  0  0
  -25.0290  -36.1100   23.8190 C   0  0  0  0  0  3  0  0  0  0  0  0
  -27.0540  -37.1670   24.7170 C   0  0  0  0  0  1  0  0  0  0  0  0
  -25.9800  -37.2370   23.7320 N   0  0  0  0  0  0  0  0  0  0  0  0
  -25.4980  -38.1230   23.8530 H   0  0  0  0  0  0  0  0  0  0  0  0
  -30.9300  -16.9880   23.4110 C   0  0  0  0  0  1  0  0  0  0  0  0
  -31.3990  -17.9550   22.4760 O   0  0  0  0  0  0  0  0  0  0  0  0
  1  2  1  0
  1  4  1  0
  2  5  1  0
  3  6  1  0
  4 15  1  0
  4  6  1  0
  5 45  1  0
  5  3  1  0
  6 92  1  0
  7 13  1  0
  7 15  1  0
  8 13  1  0
  9 10  1  0
  9  8  1  0
 11 10  1  0
 11 20  1  0
 11 12  1  0
 13 12  1  0
 14  7  2  0
 15 16  1  0
 17 18  2  0
 18 37  1  0
 19 18  1  0
 19 22  1  0
 20 17  1  0
 20 21  1  0
 21 19  2  0
 22 23  1  0
 23 24  2  0
 25 28  1  0
 25 24  1  0
 26 25  2  0
 27 26  1  0
 27 22  2  0
 28 29  1  0
 29 34  2  0
 29 30  1  0
 30 31  2  0
 31 32  1  0
 32 36  1  0
 33 32  2  0
 34 33  1  0
 35 34  1  0
 37 38  1  0
 38 41  1  0
 38 40  1  0
 39 37  2  0
 42 43  1  0
 42 17  1  0
 44 42  1  0
 45 47  1  0
 46 45  1  0
 48 45  1  0
 48 49  1  0
 50 49  1  0
 51 62  2  0
 52 50  1  0
 52 57  1  0
 53 61  1  0
 53 63  1  0
 54 56  1  0
 55 61  1  0
 56 57  2  0
 56 55  1  0
 58 52  2  0
 59 58  1  0
 59 54  2  0
 60 54  1  0
 60 53  1  0
 61 51  1  0
 63 65  2  0
 64 63  1  0
 66 64  1  0
 67 76  2  0
 67 72  1  0
 68 64  1  0
 68 72  1  0
 69 68  1  0
 70 71  1  0
 70 69  1  0
 71 67  1  0
 72 73  2  0
 73 74  1  0
 75 74  2  0
 76 75  1  0
 77 51  1  0
 77 82  1  0
 77 78  1  0
 78 81  1  1
 78 79  1  0
 80 78  1  0
 82 85  1  0
 83 87  1  0
 83 82  1  0
 84 83  2  0
 87 86  1  0
 89 87  1  0
 89 90  1  0
 89 88  1  0
 92 91  1  0
M  ISO  4   7 100  15 100  49 101  50 101
M  END
>  <TORSDO>  (29) 
F 20

>  <SCORE>  (29) 
-11.765

>  <name>  (29) 
28

>  <ligand_id>  (29) 
28

>  <original_smiles>  (29) 
[H]c1c([H])c([H])c2c(c1[H])C([H])([H])C([H])([H])C([H])([H])C2([H])N([H])C(=O)C1([H])N(C(=O)C([H])(N([H])C(=O)C([H])(N([H])C([H])([H])[H])C([H])([H])[H])C(C([H])([H])[H])(C([H])([H])[H])C([H])([H])[H])C([H])([H])c2c([H])c(OC([H])([H])C([H])([H])[N+]([H])([H])C3([H])C([H])([H])C([H])([H])C([H])(N([H])C(=O)N4C([H])([H])C([H])([H])C([H])([H])C([H])(n5nc(-c6c([H])c([H])c(Oc7c([H])c([H])c(F)c([H])c7F)c([H])c6[H])c(C(=O)N([H])[H])c5N([H])[H])C4([H])[H])C([H])(OC([H])([H])[H])C3([H])[H])c([H])c([H])c2C1([H])[H]

>  <smiles>  (29) 
[H]c1c([H])c([H])c2c(c1[H])C([H])([H])C([H])([H])C([H])([H])C2([H])N([H])C(=O)C1([H])N(C(=O)C([H])(N([H])C(=O)C([H])(N([H])C([H])([H])[H])C([H])([H])[H])C(C([H])([H])[H])(C([H])([H])[H])C([H])([H])[H])C([H])([H])c2c([H])c(OC([H])([H])C([H])([H])[N+]([H])([H])C3([H])C([H])([H])C([H])([H])C([H])(N([H])C(=O)N4C([H])([H])C([H])([H])C([H])([H])C([H])(n5nc(-c6c([H])c([H])c(Oc7c([H])c([H])c(F)c([H])c7F)c([H])c6[H])c(C(=O)N([H])[H])c5N([H])[H])C4([H])[H])C([H])(OC([H])([H])[H])C3([H])[H])c([H])c([H])c2C1([H])[H]

$$$$
29:0:0
     RDKit          3D

 93101  0  0  1  0  0  0  0  0999 V2000
  -29.0730  -19.7670   18.2830 C   0  0  0  0  0  3  0  0  0  0  0  0
  -28.3390  -20.7680   17.6100 C   0  0  0  0  0  3  0  0  0  0  0  0
  -29.3540  -20.2110   19.5420 C   0  0  0  0  0  0  0  0  0  0  0  0
  -28.1730  -21.8250   18.4610 C   0  0  0  0  0  0  0  0  0  0  0  0
  -28.9120  -21.5610   19.6300 N   0  0  0  0  0  0  0  0  0  0  0  0
  -25.8470  -22.6800   17.9710 C   0  0  0  0  0  1  0  0  0  0  0  0
  -27.8440  -23.8840   17.0260 C   0  0  0  0  0  1  0  0  0  0  0  0
  -27.3210  -23.0470   18.2080 C   0  0  0  0  0  3  0  0  0  0  0  0
  -30.0190  -19.3910   20.6390 C   0  0  0  0  0  2  0  0  0  0  0  0
  -29.6490  -17.8550   20.7080 C   0  0  0  0  0  2  0  0  0  0  0  0
  -30.7020  -16.7990   20.2220 C   0  0  0  0  0  2  0  0  0  0  0  0
  -31.0260  -14.2770   20.1130 C   0  0  0  0  0  0  0  0  0  0  0  0
  -30.6460  -12.1090   18.9960 C   0  0  0  0  0  2  0  0  0  0  0  0
  -29.6850  -12.3570   17.8140 C   0  0  0  0  0  2  0  0  0  0  0  0
  -28.2170  -12.2730   18.2760 C   0  0  0  0  0  2  0  0  0  0  0  0
  -27.9420  -13.1060   19.5580 C   0  0  0  0  0  3  0  0  0  0  0  0
  -29.0180  -12.8500   20.6380 C   0  0  0  0  0  2  0  0  0  0  0  0
  -30.3310  -13.1080   20.0300 N   0  0  0  0  0  0  0  0  0  0  0  0
  -32.1900  -14.3820   19.7180 O   0  0  0  0  0  0  0  0  0  0  0  0
  -30.2950  -15.3800   20.4200 N   0  0  0  0  0  0  0  0  0  0  0  0
  -29.3340  -15.2110   20.6780 H   0  0  0  0  0  0  0  0  0  0  0  0
  -25.5780  -13.7980   20.2950 C   0  0  0  0  0  0  0  0  0  0  0  0
  -24.4970  -13.0640   20.7050 C   0  0  0  0  0  0  0  0  0  0  0  0
  -24.9240  -11.7010   20.7080 C   0  0  0  0  0  0  0  0  0  0  0  0
  -26.5940  -12.8820   20.0710 N   0  0  0  0  0  0  0  0  0  0  0  0
  -26.2060  -11.6190   20.3810 N   0  0  0  0  0  0  0  0  0  0  0  0
  -24.1690  -10.4650   20.9480 C   0  0  0  0  0  0  0  0  0  0  0  0
  -24.5550   -9.5470   21.9490 C   0  0  0  0  0  3  0  0  0  0  0  0
  -23.8020   -8.3730   22.1720 C   0  0  0  0  0  3  0  0  0  0  0  0
  -22.6500   -8.1110   21.3950 C   0  0  0  0  0  0  0  0  0  0  0  0
  -22.2850   -9.0170   20.3830 C   0  0  0  0  0  3  0  0  0  0  0  0
  -23.0370  -10.1810   20.1580 C   0  0  0  0  0  3  0  0  0  0  0  0
  -21.8720   -6.9850   21.5240 O   0  0  0  0  0  0  0  0  0  0  0  0
  -21.7350   -6.3400   22.7250 C   0  0  0  0  0  0  0  0  0  0  0  0
  -21.2190   -6.9920   23.8670 C   0  0  0  0  0  3  0  0  0  0  0  0
  -21.0280   -6.2710   25.0630 C   0  0  0  0  0  3  0  0  0  0  0  0
  -21.3450   -4.9000   25.1180 C   0  0  0  0  0  0  0  0  0  0  0  0
  -21.8540   -4.2490   23.9810 C   0  0  0  0  0  3  0  0  0  0  0  0
  -22.0450   -4.9660   22.7870 C   0  0  0  0  0  0  0  0  0  0  0  0
  -22.5170   -4.3290   21.6880 F   0  0  0  0  0  0  0  0  0  0  0  0
  -21.1550   -4.2050   26.2640 F   0  0  0  0  0  0  0  0  0  0  0  0
  -23.1170  -13.5860   20.9840 C   0  0  0  0  0  0  0  0  0  0  0  0
  -22.3920  -12.9380   21.8880 N   0  0  0  0  0  0  0  0  0  0  0  0
  -22.6940  -14.6020   20.4340 O   0  0  0  0  0  0  0  0  0  0  0  0
  -22.7490  -12.1140   22.3500 H   0  0  0  0  0  0  0  0  0  0  0  0
  -21.4670  -13.2700   22.1230 H   0  0  0  0  0  0  0  0  0  0  0  0
  -25.7730  -15.1580   20.0770 N   0  0  0  0  0  0  0  0  0  0  0  0
  -25.0200  -15.8280   20.1870 H   0  0  0  0  0  0  0  0  0  0  0  0
  -26.6200  -15.5750   19.7130 H   0  0  0  0  0  0  0  0  0  0  0  0
  -29.0510  -22.4880   20.7930 C   0  0  0  0  0  2  0  0  0  0  0  0
  -29.5740  -23.9530   20.5170 C   0  0  0  0  0  2  0  0  0  0  0  0
  -29.0320  -25.0350   21.5060 C   0  0  0  0  0  2  0  0  0  0  0  0
  -29.2220  -26.4270   21.1090 O   0  0  0  0  0  0  0  0  0  0  0  0
  -24.8990  -31.6890   23.3320 C   0  0  0  0  0  0  0  0  0  0  0  0
  -28.0660  -27.1650   20.8940 C   0  0  0  0  0  0  0  0  0  0  0  0
  -23.9620  -30.1370   21.6530 C   0  0  0  0  0  3  0  0  0  0  0  0
  -25.6420  -28.5930   20.5040 C   0  0  0  0  0  0  0  0  0  0  0  0
  -26.4790  -30.5960   21.7390 C   0  0  0  0  0  2  0  0  0  0  0  0
  -26.7000  -29.1930   21.2000 C   0  0  0  0  0  0  0  0  0  0  0  0
  -27.9180  -28.4880   21.3890 C   0  0  0  0  0  3  0  0  0  0  0  0
  -26.9950  -26.5990   20.1670 C   0  0  0  0  0  3  0  0  0  0  0  0
  -25.7880  -27.2980   19.9780 C   0  0  0  0  0  3  0  0  0  0  0  0
  -24.3670  -29.3930   20.3520 C   0  0  0  0  0  2  0  0  0  0  0  0
  -25.1240  -30.8260   22.3000 N   0  0  0  0  0  0  0  0  0  0  0  0
  -23.7490  -31.9410   23.7180 O   0  0  0  0  0  0  0  0  0  0  0  0
  -23.2390  -29.1430   22.5930 C   0  0  0  0  0  0  0  0  0  0  0  0
  -21.9320  -28.9350   22.3610 N   0  0  0  0  0  0  0  0  0  0  0  0
  -23.8550  -28.5620   23.4910 O   0  0  0  0  0  0  0  0  0  0  0  0
  -21.4940  -29.4540   21.6130 H   0  0  0  0  0  0  0  0  0  0  0  0
  -18.5280  -27.7660   22.6770 C   0  0  0  0  0  0  0  0  0  0  0  0
  -21.0660  -28.0140   23.0970 C   0  0  0  0  0  3  0  0  0  0  0  0
  -21.1950  -26.5740   22.5510 C   0  0  0  0  0  2  0  0  0  0  0  0
  -20.1550  -26.2400   21.4770 C   0  0  0  0  0  2  0  0  0  0  0  0
  -18.7380  -26.4050   22.0340 C   0  0  0  0  0  2  0  0  0  0  0  0
  -19.6230  -28.5280   23.1620 C   0  0  0  0  0  0  0  0  0  0  0  0
  -19.3790  -29.8010   23.7210 C   0  0  0  0  0  3  0  0  0  0  0  0
  -18.0710  -30.3160   23.7950 C   0  0  0  0  0  3  0  0  0  0  0  0
  -16.9880  -29.5500   23.3300 C   0  0  0  0  0  3  0  0  0  0  0  0
  -17.2160  -28.2760   22.7780 C   0  0  0  0  0  3  0  0  0  0  0  0
  -26.0730  -32.4210   24.0540 C   0  0  0  0  0  3  0  0  0  0  0  0
  -25.6480  -33.8070   24.2950 N   0  0  0  0  0  0  0  0  0  0  0  0
  -25.9820  -34.8500   23.5200 C   0  0  0  0  0  0  0  0  0  0  0  0
  -26.7470  -34.7520   22.5570 O   0  0  0  0  0  0  0  0  0  0  0  0
  -24.9750  -33.9530   25.0330 H   0  0  0  0  0  0  0  0  0  0  0  0
  -24.1780  -36.5030   22.9480 C   0  0  0  0  0  1  0  0  0  0  0  0
  -25.3710  -36.2180   23.8720 C   0  0  0  0  0  3  0  0  0  0  0  0
  -27.3640  -37.2840   24.8320 C   0  0  0  0  0  1  0  0  0  0  0  0
  -26.3390  -37.3330   23.7930 N   0  0  0  0  0  0  0  0  0  0  0  0
  -25.8610  -38.2280   23.8630 H   0  0  0  0  0  0  0  0  0  0  0  0
  -26.5010  -31.7270   25.4050 C   0  0  1  0  0  0  0  0  0  0  0  0
  -25.3150  -31.4370   26.3550 C   0  0  0  0  0  1  0  0  0  0  0  0
  -27.2220  -30.3870   25.1270 C   0  0  0  0  0  1  0  0  0  0  0  0
  -27.5140  -32.6220   26.1560 C   0  0  0  0  0  1  0  0  0  0  0  0
  1  3  2  0
  2  1  1  0
  2  4  2  0
  3  5  1  0
  3  9  1  0
  4  5  1  0
  5 50  1  0
  6  8  1  0
  7  8  1  0
  8  4  1  0
  9 10  1  0
 11 20  1  0
 11 10  1  0
 12 20  1  0
 13 18  1  0
 14 15  1  0
 14 13  1  0
 16 15  1  0
 16 25  1  0
 16 17  1  0
 18 12  1  0
 18 17  1  0
 19 12  2  0
 20 21  1  0
 22 23  2  0
 23 24  1  0
 23 42  1  0
 24 27  1  0
 25 22  1  0
 25 26  1  0
 26 24  2  0
 27 28  1  0
 28 29  2  0
 30 33  1  0
 30 29  1  0
 31 30  2  0
 32 31  1  0
 32 27  2  0
 33 34  1  0
 34 39  2  0
 34 35  1  0
 35 36  2  0
 36 37  1  0
 37 41  1  0
 38 37  2  0
 39 38  1  0
 40 39  1  0
 42 43  1  0
 43 46  1  0
 43 45  1  0
 44 42  2  0
 47 48  1  0
 47 22  1  0
 49 47  1  0
 51 50  1  0
 51 52  1  0
 53 52  1  0
 54 65  2  0
 55 53  1  0
 55 60  1  0
 56 64  1  0
 56 66  1  0
 57 59  1  0
 58 64  1  0
 59 60  2  0
 59 58  1  0
 61 55  2  0
 62 61  1  0
 62 57  2  0
 63 57  1  0
 63 56  1  0
 64 54  1  0
 66 68  2  0
 67 66  1  0
 69 67  1  0
 70 79  2  0
 70 75  1  0
 71 67  1  0
 71 75  1  0
 72 71  1  0
 73 74  1  0
 73 72  1  0
 74 70  1  0
 75 76  2  0
 76 77  1  0
 78 77  2  0
 79 78  1  0
 80 54  1  0
 80 81  1  0
 80 90  1  0
 81 84  1  0
 82 86  1  0
 82 81  1  0
 83 82  2  0
 86 85  1  0
 88 89  1  0
 88 86  1  0
 88 87  1  0
 90 93  1  1
 90 91  1  0
 92 90  1  0
M  ISO  4  12 100  20 100  52 101  53 101
M  END
>  <TORSDO>  (30) 
F 23

>  <SCORE>  (30) 
-11.925

>  <name>  (30) 
29

>  <ligand_id>  (30) 
29

>  <original_smiles>  (30) 
[H]c1c([H])c([H])c2c(c1[H])C([H])([H])C([H])([H])C([H])([H])C2([H])N([H])C(=O)C1([H])N(C(=O)C([H])(N([H])C(=O)C([H])(N([H])C([H])([H])[H])C([H])([H])[H])C(C([H])([H])[H])(C([H])([H])[H])C([H])([H])[H])C([H])([H])c2c([H])c(OC([H])([H])C([H])([H])C([H])([H])n3c(C([H])([H])C([H])([H])C([H])([H])N([H])C(=O)N4C([H])([H])C([H])([H])C([H])([H])C([H])(n5nc(-c6c([H])c([H])c(Oc7c([H])c([H])c(F)c([H])c7F)c([H])c6[H])c(C(=O)N([H])[H])c5N([H])[H])C4([H])[H])c([H])c([H])c3C([H])(C([H])([H])[H])C([H])([H])[H])c([H])c([H])c2C1([H])[H]

>  <smiles>  (30) 
[H]c1c([H])c([H])c2c(c1[H])C([H])([H])C([H])([H])C([H])([H])C2([H])N([H])C(=O)C1([H])N(C(=O)C([H])(N([H])C(=O)C([H])(N([H])C([H])([H])[H])C([H])([H])[H])C(C([H])([H])[H])(C([H])([H])[H])C([H])([H])[H])C([H])([H])c2c([H])c(OC([H])([H])C([H])([H])C([H])([H])n3c(C([H])([H])C([H])([H])C([H])([H])N([H])C(=O)N4C([H])([H])C([H])([H])C([H])([H])C([H])(n5nc(-c6c([H])c([H])c(Oc7c([H])c([H])c(F)c([H])c7F)c([H])c6[H])c(C(=O)N([H])[H])c5N([H])[H])C4([H])[H])c([H])c([H])c3C([H])(C([H])([H])[H])C([H])([H])[H])c([H])c([H])c2C1([H])[H]

$$$$
30:0:0
     RDKit          3D

 89 97  0  0  1  0  0  0  0  0999 V2000
  -29.0020  -22.0300   19.5010 C   0  0  0  0  0  2  0  0  0  0  0  0
  -27.3670  -19.3390   20.1410 C   0  0  0  0  0  2  0  0  0  0  0  0
  -28.2930  -20.1170   21.0880 C   0  0  0  0  0  2  0  0  0  0  0  0
  -28.2750  -18.8170   19.0140 C   0  0  0  0  0  2  0  0  0  0  0  0
  -29.4510  -20.5610   20.1830 C   0  0  0  0  0  3  0  0  0  0  0  0
  -29.6590  -19.2580   19.3170 N   0  0  1  0  0  4  0  0  0  0  0  0
  -30.0650  -19.5350   18.4360 H   0  0  0  0  0  0  0  0  0  0  0  0
  -30.5730  -18.0530   19.7990 C   0  0  0  0  0  2  0  0  0  0  0  0
  -30.0660  -16.4560   19.7340 C   0  0  0  0  0  2  0  0  0  0  0  0
  -30.9740  -15.0850   19.6550 C   0  0  0  0  0  0  0  0  0  0  0  0
  -30.8260  -12.6680   18.9220 C   0  0  0  0  0  2  0  0  0  0  0  0
  -29.8320  -12.5670   17.7370 C   0  0  0  0  0  2  0  0  0  0  0  0
  -28.3790  -12.4500   18.2370 C   0  0  0  0  0  2  0  0  0  0  0  0
  -28.0430  -13.4680   19.3590 C   0  0  0  0  0  3  0  0  0  0  0  0
  -29.1460  -13.4950   20.4350 C   0  0  0  0  0  2  0  0  0  0  0  0
  -30.4140  -13.8190   19.7680 N   0  0  0  0  0  0  0  0  0  0  0  0
  -32.1560  -15.1540   19.2930 O   0  0  0  0  0  0  0  0  0  0  0  0
  -25.7330  -14.1590   20.2380 C   0  0  0  0  0  0  0  0  0  0  0  0
  -24.6500  -13.4310   20.6600 C   0  0  0  0  0  0  0  0  0  0  0  0
  -25.0460  -12.0620   20.5870 C   0  0  0  0  0  0  0  0  0  0  0  0
  -26.7180  -13.2360   19.9320 N   0  0  0  0  0  0  0  0  0  0  0  0
  -26.3140  -11.9690   20.2060 N   0  0  0  0  0  0  0  0  0  0  0  0
  -24.2680  -10.8370   20.8000 C   0  0  0  0  0  0  0  0  0  0  0  0
  -24.6460   -9.8690   21.7560 C   0  0  0  0  0  3  0  0  0  0  0  0
  -23.8600   -8.7120   21.9550 C   0  0  0  0  0  3  0  0  0  0  0  0
  -22.6850   -8.5110   21.1920 C   0  0  0  0  0  0  0  0  0  0  0  0
  -22.3250   -9.4670   20.2230 C   0  0  0  0  0  3  0  0  0  0  0  0
  -23.1130  -10.6130   20.0260 C   0  0  0  0  0  3  0  0  0  0  0  0
  -21.8730   -7.4070   21.2980 O   0  0  0  0  0  0  0  0  0  0  0  0
  -21.7130   -6.7430   22.4880 C   0  0  0  0  0  0  0  0  0  0  0  0
  -21.1960   -7.3880   23.6310 C   0  0  0  0  0  3  0  0  0  0  0  0
  -20.9830   -6.6570   24.8160 C   0  0  0  0  0  3  0  0  0  0  0  0
  -21.2760   -5.2810   24.8570 C   0  0  0  0  0  0  0  0  0  0  0  0
  -21.7840   -4.6340   23.7180 C   0  0  0  0  0  3  0  0  0  0  0  0
  -22.0030   -5.3630   22.5350 C   0  0  0  0  0  0  0  0  0  0  0  0
  -22.4740   -4.7290   21.4340 F   0  0  0  0  0  0  0  0  0  0  0  0
  -21.0590   -4.5790   25.9940 F   0  0  0  0  0  0  0  0  0  0  0  0
  -23.2980  -13.9760   21.0130 C   0  0  0  0  0  0  0  0  0  0  0  0
  -22.5830  -13.3170   21.9190 N   0  0  0  0  0  0  0  0  0  0  0  0
  -22.8840  -15.0250   20.5250 O   0  0  0  0  0  0  0  0  0  0  0  0
  -22.9270  -12.4630   22.3280 H   0  0  0  0  0  0  0  0  0  0  0  0
  -21.6840  -13.6730   22.2090 H   0  0  0  0  0  0  0  0  0  0  0  0
  -25.9460  -15.5220   20.0590 N   0  0  0  0  0  0  0  0  0  0  0  0
  -25.2000  -16.1950   20.1950 H   0  0  0  0  0  0  0  0  0  0  0  0
  -26.7520  -15.9110   19.5870 H   0  0  0  0  0  0  0  0  0  0  0  0
  -30.3040  -23.8940   20.8870 C   0  0  0  0  0  1  0  0  0  0  0  0
  -28.9360  -23.5160   20.2910 C   0  0  0  0  0  3  0  0  0  0  0  0
  -28.3210  -24.8910   19.5830 C   0  0  0  0  0  2  0  0  0  0  0  0
  -28.3200  -26.2950   20.2260 O   0  0  0  0  0  0  0  0  0  0  0  0
  -24.4890  -31.7590   23.2600 C   0  0  0  0  0  0  0  0  0  0  0  0
  -27.2350  -27.2260   20.1340 C   0  0  0  0  0  0  0  0  0  0  0  0
  -23.3590  -30.3850   21.5550 C   0  0  0  0  0  3  0  0  0  0  0  0
  -24.8710  -28.9040   20.1100 C   0  0  0  0  0  0  0  0  0  0  0  0
  -25.9050  -30.7220   21.4520 C   0  0  0  0  0  2  0  0  0  0  0  0
  -26.0230  -29.3580   20.7620 C   0  0  0  0  0  0  0  0  0  0  0  0
  -27.2080  -28.5330   20.7630 C   0  0  0  0  0  3  0  0  0  0  0  0
  -26.0570  -26.8770   19.4340 C   0  0  0  0  0  3  0  0  0  0  0  0
  -24.9000  -27.6820   19.4330 C   0  0  0  0  0  3  0  0  0  0  0  0
  -23.6230  -29.7670   20.1590 C   0  0  0  0  0  2  0  0  0  0  0  0
  -24.6030  -30.9750   22.1450 N   0  0  0  0  0  0  0  0  0  0  0  0
  -23.3860  -31.9990   23.7720 O   0  0  0  0  0  0  0  0  0  0  0  0
  -22.6890  -29.3280   22.4680 C   0  0  0  0  0  0  0  0  0  0  0  0
  -21.3720  -29.1190   22.2970 N   0  0  0  0  0  0  0  0  0  0  0  0
  -23.3560  -28.7000   23.2940 O   0  0  0  0  0  0  0  0  0  0  0  0
  -20.8920  -29.6900   21.6140 H   0  0  0  0  0  0  0  0  0  0  0  0
  -18.0120  -27.8200   22.6870 C   0  0  0  0  0  0  0  0  0  0  0  0
  -20.5560  -28.1410   23.0210 C   0  0  0  0  0  3  0  0  0  0  0  0
  -20.7070  -26.7260   22.4140 C   0  0  0  0  0  2  0  0  0  0  0  0
  -19.6390  -26.4050   21.3630 C   0  0  0  0  0  2  0  0  0  0  0  0
  -18.2410  -26.4930   21.9800 C   0  0  0  0  0  2  0  0  0  0  0  0
  -19.0990  -28.6010   23.1600 C   0  0  0  0  0  0  0  0  0  0  0  0
  -18.8340  -29.8400   23.7820 C   0  0  0  0  0  3  0  0  0  0  0  0
  -17.5130  -30.3010   23.9350 C   0  0  0  0  0  3  0  0  0  0  0  0
  -16.4390  -29.5200   23.4730 C   0  0  0  0  0  3  0  0  0  0  0  0
  -16.6880  -28.2820   22.8540 C   0  0  0  0  0  3  0  0  0  0  0  0
  -25.7390  -32.4080   23.9280 C   0  0  0  0  0  3  0  0  0  0  0  0
  -25.4190  -33.8230   24.1880 N   0  0  0  0  0  0  0  0  0  0  0  0
  -25.7700  -34.8450   23.3940 C   0  0  0  0  0  0  0  0  0  0  0  0
  -26.4640  -34.6980   22.3850 O   0  0  0  0  0  0  0  0  0  0  0  0
  -24.8040  -34.0100   24.9660 H   0  0  0  0  0  0  0  0  0  0  0  0
  -24.0450  -36.6250   22.9380 C   0  0  0  0  0  1  0  0  0  0  0  0
  -25.2760  -36.2530   23.7800 C   0  0  0  0  0  3  0  0  0  0  0  0
  -27.3960  -37.1900   24.6040 C   0  0  0  0  0  1  0  0  0  0  0  0
  -26.3080  -37.3030   23.6320 N   0  0  0  0  0  0  0  0  0  0  0  0
  -25.8960  -38.2260   23.7320 H   0  0  0  0  0  0  0  0  0  0  0  0
  -26.1800  -31.6830   25.2600 C   0  0  1  0  0  0  0  0  0  0  0  0
  -25.0310  -31.4750   26.2760 C   0  0  0  0  0  1  0  0  0  0  0  0
  -26.7840  -30.2920   24.9560 C   0  0  0  0  0  1  0  0  0  0  0  0
  -27.2900  -32.5030   25.9610 C   0  0  0  0  0  1  0  0  0  0  0  0
  1 47  1  0
  2  3  1  0
  4  6  1  0
  4  2  1  0
  5  1  1  0
  5  3  1  0
  6  8  1  0
  6  5  1  0
  6  7  1  6
  9  8  1  0
 10  9  1  0
 10 16  1  0
 11 16  1  0
 12 13  1  0
 12 11  1  0
 14 13  1  0
 14 21  1  0
 14 15  1  0
 16 15  1  0
 17 10  2  0
 18 19  2  0
 19 38  1  0
 20 19  1  0
 20 23  1  0
 21 22  1  0
 21 18  1  0
 22 20  2  0
 23 24  1  0
 24 25  2  0
 26 29  1  0
 26 25  1  0
 27 26  2  0
 28 27  1  0
 28 23  2  0
 29 30  1  0
 30 35  2  0
 30 31  1  0
 31 32  2  0
 32 33  1  0
 33 37  1  0
 34 33  2  0
 35 34  1  0
 36 35  1  0
 38 39  1  0
 39 42  1  0
 39 41  1  0
 40 38  2  0
 43 44  1  0
 43 18  1  0
 45 43  1  0
 47 46  1  0
 48 49  1  0
 48 47  1  0
 50 61  2  0
 51 49  1  0
 51 56  1  0
 52 60  1  0
 52 62  1  0
 53 59  1  0
 53 55  1  0
 54 60  1  0
 55 56  2  0
 55 54  1  0
 57 51  2  0
 58 57  1  0
 58 53  2  0
 59 52  1  0
 60 50  1  0
 62 64  2  0
 63 62  1  0
 65 63  1  0
 66 75  2  0
 66 71  1  0
 67 63  1  0
 67 71  1  0
 68 67  1  0
 69 70  1  0
 69 68  1  0
 70 66  1  0
 71 72  2  0
 72 73  1  0
 74 73  2  0
 75 74  1  0
 76 50  1  0
 76 77  1  0
 76 86  1  0
 77 80  1  0
 78 82  1  0
 78 77  1  0
 79 78  2  0
 82 81  1  0
 84 85  1  0
 84 82  1  0
 84 83  1  0
 86 89  1  1
 86 87  1  0
 88 86  1  0
M  ISO  4   9 100  10 100  48 101  49 101
M  END
>  <TORSDO>  (31) 
F 21

>  <SCORE>  (31) 
-12.260

>  <name>  (31) 
30

>  <ligand_id>  (31) 
30

>  <original_smiles>  (31) 
[H]c1c([H])c([H])c2c(c1[H])C([H])([H])C([H])([H])C([H])([H])C2([H])N([H])C(=O)C1([H])N(C(=O)C([H])(N([H])C(=O)C([H])(N([H])C([H])([H])[H])C([H])([H])[H])C(C([H])([H])[H])(C([H])([H])[H])C([H])([H])[H])C([H])([H])c2c([H])c(OC([H])([H])C([H])(C([H])([H])[H])C([H])([H])C3([H])C([H])([H])C([H])([H])C([H])([H])[N+]3([H])C([H])([H])C([H])([H])C(=O)N3C([H])([H])C([H])([H])C([H])([H])C([H])(n4nc(-c5c([H])c([H])c(Oc6c([H])c([H])c(F)c([H])c6F)c([H])c5[H])c(C(=O)N([H])[H])c4N([H])[H])C3([H])[H])c([H])c([H])c2C1([H])[H]

>  <smiles>  (31) 
[H]c1c([H])c([H])c2c(c1[H])C([H])([H])C([H])([H])C([H])([H])C2([H])N([H])C(=O)C1([H])N(C(=O)C([H])(N([H])C(=O)C([H])(N([H])C([H])([H])[H])C([H])([H])[H])C(C([H])([H])[H])(C([H])([H])[H])C([H])([H])[H])C([H])([H])c2c([H])c(OC([H])([H])C([H])(C([H])([H])[H])C([H])([H])C3([H])C([H])([H])C([H])([H])C([H])([H])[N+]3([H])C([H])([H])C([H])([H])C(=O)N3C([H])([H])C([H])([H])C([H])([H])C([H])(n4nc(-c5c([H])c([H])c(Oc6c([H])c([H])c(F)c([H])c6F)c([H])c5[H])c(C(=O)N([H])[H])c4N([H])[H])C3([H])[H])c([H])c([H])c2C1([H])[H]

$$$$
31:0:0
     RDKit          3D

 97 95  0  0  1  0  0  0  0  0999 V2000
  -18.7650  -29.4150   22.2010 C   0  0  0  0  0  1  0  0  0  0  0  0
  -18.1300  -27.9200   24.1890 C   0  0  0  0  0  1  0  0  0  0  0  0
  -20.0060  -28.8750   21.2140 C   0  0  0  0  0  2  0  0  0  0  0  0
  -19.0000  -26.4780   24.3420 C   0  0  0  0  0  3  0  0  0  0  0  0
  -20.8400  -27.4650   21.5500 C   0  0  0  0  0  1  0  0  0  0  0  0
  -20.2130  -26.0670   23.2480 C   0  0  0  0  0  1  0  0  0  0  0  0
  -18.7010  -25.5650   25.5110 C   0  0  0  0  0  1  0  0  0  0  0  0
  -21.0150  -24.2160   23.5500 C   0  0  0  0  0  1  0  0  0  0  0  0
  -22.3720  -23.1870   22.8160 N   0  0  0  0  0  4  0  0  0  0  0  0
  -23.1230  -23.8540   22.7600 H   0  0  0  0  0  0  0  0  0  0  0  0
  -22.0170  -23.0920   21.8800 H   0  0  0  0  0  0  0  0  0  0  0  0
  -23.2970  -21.6140   22.9770 C   0  0  0  0  0  1  0  0  0  0  0  0
  -24.0660  -20.3530   20.6370 C   0  0  0  0  0  1  0  0  0  0  0  0
  -24.7310  -20.5390   22.0130 C   0  0  0  0  0  2  0  0  0  0  0  0
  -25.8430  -18.9380   22.1600 C   0  0  0  0  0  0  0  0  0  0  0  0
  -25.4810  -18.2650   23.1320 O   0  0  0  0  0  0  0  0  0  0  0  0
  -27.3360  -18.0490   21.2810 C   0  0  0  0  0  2  0  0  0  0  0  0
  -29.4690  -15.5060   20.7530 C   0  0  0  0  0  0  0  0  0  0  0  0
  -30.2920  -13.1220   19.6800 C   0  0  0  0  0  2  0  0  0  0  0  0
  -29.5150  -12.6800   18.3870 C   0  0  0  0  0  2  0  0  0  0  0  0
  -28.0730  -12.2610   18.7180 C   0  0  0  0  0  2  0  0  0  0  0  0
  -27.5020  -13.1990   19.8010 C   0  0  0  0  0  3  0  0  0  0  0  0
  -28.3840  -13.2580   21.0380 C   0  0  0  0  0  2  0  0  0  0  0  0
  -29.4620  -14.0690   20.5810 N   0  0  0  0  0  0  0  0  0  0  0  0
  -30.6470  -15.8340   20.4120 O   0  0  0  0  0  0  0  0  0  0  0  0
  -28.2030  -16.4140   21.1780 N   0  0  0  0  0  0  0  0  0  0  0  0
  -27.4870  -15.7420   21.4250 H   0  0  0  0  0  0  0  0  0  0  0  0
  -25.1850  -13.8020   20.5300 C   0  0  0  0  0  0  0  0  0  0  0  0
  -24.1300  -13.0360   20.9230 C   0  0  0  0  0  0  0  0  0  0  0  0
  -24.5860  -11.6810   20.8740 C   0  0  0  0  0  0  0  0  0  0  0  0
  -26.1840  -12.8990   20.2420 N   0  0  0  0  0  0  0  0  0  0  0  0
  -25.8590  -11.6240   20.5270 N   0  0  0  0  0  0  0  0  0  0  0  0
  -23.8690  -10.4230   21.0530 C   0  0  0  0  0  0  0  0  0  0  0  0
  -24.3400   -9.4200   21.9260 C   0  0  0  0  0  3  0  0  0  0  0  0
  -23.6160   -8.2190   22.0780 C   0  0  0  0  0  3  0  0  0  0  0  0
  -22.4160   -8.0190   21.3570 C   0  0  0  0  0  0  0  0  0  0  0  0
  -21.9720   -9.0120   20.4700 C   0  0  0  0  0  3  0  0  0  0  0  0
  -22.6930  -10.2040   20.3130 C   0  0  0  0  0  3  0  0  0  0  0  0
  -21.6590   -6.8770   21.4240 O   0  0  0  0  0  0  0  0  0  0  0  0
  -21.6830   -6.0680   22.5290 C   0  0  0  0  0  0  0  0  0  0  0  0
  -21.3980   -6.5620   23.8200 C   0  0  0  0  0  3  0  0  0  0  0  0
  -21.3630   -5.6790   24.9180 C   0  0  0  0  0  3  0  0  0  0  0  0
  -21.6040   -4.3050   24.7260 C   0  0  0  0  0  0  0  0  0  0  0  0
  -21.8820   -3.8120   23.4390 C   0  0  0  0  0  3  0  0  0  0  0  0
  -21.9180   -4.6920   22.3430 C   0  0  0  0  0  0  0  0  0  0  0  0
  -22.1660   -4.2110   21.1000 F   0  0  0  0  0  0  0  0  0  0  0  0
  -21.5630   -3.4520   25.7760 F   0  0  0  0  0  0  0  0  0  0  0  0
  -22.7460  -13.5300   21.2000 C   0  0  0  0  0  0  0  0  0  0  0  0
  -22.0040  -12.8360   22.0540 N   0  0  0  0  0  0  0  0  0  0  0  0
  -22.3320  -14.5710   20.6920 O   0  0  0  0  0  0  0  0  0  0  0  0
  -22.3550  -12.0000   22.4960 H   0  0  0  0  0  0  0  0  0  0  0  0
  -21.0690  -13.1540   22.2720 H   0  0  0  0  0  0  0  0  0  0  0  0
  -25.3760  -15.1710   20.3540 N   0  0  0  0  0  0  0  0  0  0  0  0
  -24.5450  -15.7490   20.3810 H   0  0  0  0  0  0  0  0  0  0  0  0
  -25.9610  -15.4350   19.5710 H   0  0  0  0  0  0  0  0  0  0  0  0
  -22.6660  -27.3890   20.5890 C   0  0  0  0  0 15  0  0  0  0  0  0
  -24.5120  -27.0760   20.9860 O   0  0  0  0  0  1  0  0  0  0  0  0
  -24.6780  -31.9620   23.2270 C   0  0  0  0  0  0  0  0  0  0  0  0
  -25.8920  -27.2270   20.4470 C   0  0  0  0  0  3  0  0  0  0  0  0
  -23.4970  -30.6340   21.5790 C   0  0  0  0  0  3  0  0  0  0  0  0
  -24.8390  -29.4010   19.7560 C   0  0  0  0  0  3  0  0  0  0  0  0
  -26.0190  -30.8420   21.4270 C   0  0  0  0  0  2  0  0  0  0  0  0
  -25.9120  -29.5460   20.6440 C   0  0  0  0  0  3  0  0  0  0  0  0
  -26.6390  -28.3730   20.8960 C   0  0  0  0  0  2  0  0  0  0  0  0
  -25.7300  -27.2240   19.0930 C   0  0  0  0  0  2  0  0  0  0  0  0
  -24.8450  -28.2900   18.8500 C   0  0  0  0  0  2  0  0  0  0  0  0
  -23.6740  -30.3150   20.0450 C   0  0  0  0  0  2  0  0  0  0  0  0
  -24.7470  -31.2310   22.0860 N   0  0  0  0  0  0  0  0  0  0  0  0
  -23.5920  -32.2180   23.7730 O   0  0  0  0  0  0  0  0  0  0  0  0
  -23.2390  -29.4780   22.5850 C   0  0  0  0  0  0  0  0  0  0  0  0
  -22.0640  -29.2180   23.0230 N   0  0  0  0  0  0  0  0  0  0  0  0
  -24.1230  -28.8400   23.1320 O   0  0  0  0  0  0  0  0  0  0  0  0
  -21.2630  -29.7540   22.7170 H   0  0  0  0  0  0  0  0  0  0  0  0
  -18.5110  -27.2440   22.1330 C   0  0  0  0  0  3  0  0  0  0  0  0
  -21.7880  -27.9130   23.6560 C   0  0  0  0  0  2  0  0  0  0  0  0
  -22.4030  -26.1810   22.6770 C   0  0  0  0  0 15  0  0  0  0  0  0
  -20.9170  -25.2140   21.2060 C   0  0  0  0  0 15  0  0  0  0  0  0
  -19.0090  -25.8510   21.1840 C   0  0  0  0  0  1  0  0  0  0  0  0
  -20.1660  -28.4190   23.5720 C   0  0  0  0  0  3  0  0  0  0  0  0
  -19.4610  -29.8500   24.3820 C   0  0  0  0  0  3  0  0  0  0  0  0
  -17.7910  -30.3020   24.1910 C   0  0  0  0  0  3  0  0  0  0  0  0
  -16.6070  -29.4830   23.2290 C   0  0  0  0  0  3  0  0  0  0  0  0
  -16.8740  -28.0450   22.2420 C   0  0  0  0  0  3  0  0  0  0  0  0
  -25.9670  -32.5180   23.8690 C   0  0  0  0  0  3  0  0  0  0  0  0
  -25.6520  -33.8920   24.2620 N   0  0  0  0  0  0  0  0  0  0  0  0
  -25.9200  -34.9660   23.5140 C   0  0  0  0  0  0  0  0  0  0  0  0
  -26.5500  -34.9040   22.4550 O   0  0  0  0  0  0  0  0  0  0  0  0
  -25.0900  -34.0080   25.0910 H   0  0  0  0  0  0  0  0  0  0  0  0
  -24.1520  -36.7340   23.2590 C   0  0  0  0  0  1  0  0  0  0  0  0
  -25.4150  -36.3230   24.0310 C   0  0  0  0  0  3  0  0  0  0  0  0
  -27.5610  -37.1880   24.8450 C   0  0  0  0  0  1  0  0  0  0  0  0
  -26.4310  -37.3920   23.9420 N   0  0  0  0  0  0  0  0  0  0  0  0
  -26.0190  -38.2970   24.1490 H   0  0  0  0  0  0  0  0  0  0  0  0
  -26.4640  -31.6760   25.1040 C   0  0  1  0  0  0  0  0  0  0  0  0
  -25.3650  -31.3940   26.1540 C   0  0  0  0  0  1  0  0  0  0  0  0
  -27.0490  -30.3160   24.6620 C   0  0  0  0  0  1  0  0  0  0  0  0
  -27.6120  -32.4360   25.8000 C   0  0  0  0  0  1  0  0  0  0  0  0
  2  4  1  0
  3  5  1  0
  3  1  1  0
  4  7  1  0
  6  4  1  0
  9 12  1  0
  9  8  1  0
 10  9  1  0
 11  9  1  0
 13 14  1  0
 14 15  1  0
 15 16  2  0
 17 15  1  0
 18 26  1  0
 19 24  1  0
 20 21  1  0
 20 19  1  0
 22 21  1  0
 22 31  1  0
 22 23  1  0
 24 18  1  0
 24 23  1  0
 25 18  2  0
 26 17  1  0
 26 27  1  0
 28 29  2  0
 29 48  1  0
 30 29  1  0
 30 33  1  0
 31 32  1  0
 31 28  1  0
 32 30  2  0
 33 34  1  0
 34 35  2  0
 36 39  1  0
 36 35  1  0
 37 36  2  0
 38 37  1  0
 38 33  2  0
 39 40  1  0
 40 41  1  0
 41 42  2  0
 43 42  1  0
 43 47  1  0
 44 43  2  0
 45 40  2  0
 45 44  1  0
 46 45  1  0
 48 49  1  0
 49 52  1  0
 49 51  1  0
 50 48  2  0
 53 54  1  0
 53 28  1  0
 55 53  1  0
 58 69  2  0
 59 64  1  0
 59 57  1  0
 60 68  1  0
 60 70  1  0
 61 66  1  0
 61 67  1  0
 61 63  1  0
 62 68  1  0
 63 64  1  0
 63 62  1  0
 65 59  1  0
 66 65  1  0
 67 60  1  0
 68 58  1  0
 70 71  1  0
 70 72  2  0
 71 75  1  0
 73 71  1  0
 74 83  2  0
 78 74  1  0
 79 75  1  0
 79 80  2  0
 81 80  1  0
 82 81  2  0
 83 82  1  0
 84 58  1  0
 84 85  1  0
 84 94  1  0
 85 88  1  0
 86 90  1  0
 86 85  1  0
 87 86  2  0
 90 89  1  0
 92 90  1  0
 92 93  1  0
 92 91  1  0
 94 97  1  1
 94 95  1  0
 96 94  1  0
M  ISO  4  18 100  26 100  56 101  57 101
M  END
>  <TORSDO>  (32) 
F 23

>  <SCORE>  (32) 
54.229

>  <name>  (32) 
31

>  <ligand_id>  (32) 
31

>  <original_smiles>  (32) 
[H]c1c([H])c(C([H])([H])[H])c(C([H])([H])[N+]([H])([H])C([H])([H])C([H])(C(=O)C([H])([H])N([H])C(=O)N2C([H])([H])C([H])([H])C([H])([H])C([H])(n3nc(-c4c([H])c([H])c(Oc5c([H])c([H])c(F)c([H])c5F)c([H])c4[H])c(C(=O)N([H])[H])c3N([H])[H])C2([H])[H])C([H])([H])[H])c(C([H])([H])Oc2c([H])c([H])c3c(c2[H])C([H])([H])N(C(=O)C([H])(N([H])C(=O)C([H])(N([H])C([H])([H])[H])C([H])([H])[H])C(C([H])([H])[H])(C([H])([H])[H])C([H])([H])[H])C([H])(C(=O)N([H])C2([H])c4c([H])c([H])c([H])c([H])c4C([H])([H])C([H])([H])C2([H])[H])C3([H])[H])c1[H]

>  <smiles>  (32) 
[H]c1c([H])c(C([H])([H])[H])c(C([H])([H])[N+]([H])([H])C([H])([H])C([H])(C(=O)C([H])([H])N([H])C(=O)N2C([H])([H])C([H])([H])C([H])([H])C([H])(n3nc(-c4c([H])c([H])c(Oc5c([H])c([H])c(F)c([H])c5F)c([H])c4[H])c(C(=O)N([H])[H])c3N([H])[H])C2([H])[H])C([H])([H])[H])c(C([H])([H])Oc2c([H])c([H])c3c(c2[H])C([H])([H])N(C(=O)C([H])(N([H])C(=O)C([H])(N([H])C([H])([H])[H])C([H])([H])[H])C(C([H])([H])[H])(C([H])([H])[H])C([H])([H])[H])C([H])(C(=O)N([H])C2([H])c4c([H])c([H])c([H])c([H])c4C([H])([H])C([H])([H])C2([H])[H])C3([H])[H])c1[H]

$$$$
32:0:0
     RDKit          3D

 93102  0  0  1  0  0  0  0  0999 V2000
  -31.1130  -14.4290   18.7580 C   0  0  0  0  0  0  0  0  0  0  0  0
  -31.1680  -11.8080   18.5080 C   0  0  0  0  0  2  0  0  0  0  0  0
  -30.1710  -11.2390   17.4600 C   0  0  0  0  0  2  0  0  0  0  0  0
  -28.7580  -11.0740   18.0500 C   0  0  0  0  0  2  0  0  0  0  0  0
  -28.3560  -12.2830   18.9300 C   0  0  0  0  0  3  0  0  0  0  0  0
  -29.4830  -12.6880   19.9060 C   0  0  0  0  0  2  0  0  0  0  0  0
  -30.6240  -13.1090   19.0660 N   0  0  0  0  0  0  0  0  0  0  0  0
  -32.3200  -14.4020   18.4610 O   0  0  0  0  0  0  0  0  0  0  0  0
  -28.8260  -19.2950   18.6370 C   0  0  0  0  0  3  0  0  0  0  0  0
  -29.6590  -19.6900   17.6090 C   0  0  0  0  0  0  0  0  0  0  0  0
  -30.0000  -17.2820   18.3940 C   0  0  0  0  0  3  0  0  0  0  0  0
  -29.0520  -17.9780   19.1210 N   0  0  0  0  0  0  0  0  0  0  0  0
  -30.3750  -18.3590   17.4980 N   0  0  0  0  0  0  0  0  0  0  0  0
  -30.2280  -15.6370   18.5850 N   0  0  0  0  0  0  0  0  0  0  0  0
  -31.0890  -18.2120   16.7930 H   0  0  0  0  0  0  0  0  0  0  0  0
  -29.3310  -15.2740   18.8610 H   0  0  0  0  0  0  0  0  0  0  0  0
  -26.1140  -13.0700   19.8560 C   0  0  0  0  0  0  0  0  0  0  0  0
  -25.0470  -12.4070   20.3920 C   0  0  0  0  0  0  0  0  0  0  0  0
  -25.4060  -11.0250   20.4030 C   0  0  0  0  0  0  0  0  0  0  0  0
  -27.0650  -12.1020   19.5820 N   0  0  0  0  0  0  0  0  0  0  0  0
  -26.6540  -10.8680   19.9730 N   0  0  0  0  0  0  0  0  0  0  0  0
  -24.6050   -9.8400   20.7400 C   0  0  0  0  0  0  0  0  0  0  0  0
  -24.9750   -8.9720   21.7910 C   0  0  0  0  0  3  0  0  0  0  0  0
  -24.1760   -7.8520   22.1100 C   0  0  0  0  0  3  0  0  0  0  0  0
  -22.9910   -7.5940   21.3800 C   0  0  0  0  0  0  0  0  0  0  0  0
  -22.6390   -8.4490   20.3200 C   0  0  0  0  0  3  0  0  0  0  0  0
  -23.4370   -9.5590   20.0000 C   0  0  0  0  0  3  0  0  0  0  0  0
  -22.1690   -6.5160   21.6020 O   0  0  0  0  0  0  0  0  0  0  0  0
  -21.5560   -6.3150   22.8130 C   0  0  0  0  0  0  0  0  0  0  0  0
  -20.7620   -7.3130   23.4190 C   0  0  0  0  0  3  0  0  0  0  0  0
  -20.0930   -7.0420   24.6290 C   0  0  0  0  0  3  0  0  0  0  0  0
  -20.2090   -5.7740   25.2300 C   0  0  0  0  0  0  0  0  0  0  0  0
  -20.9960   -4.7770   24.6260 C   0  0  0  0  0  3  0  0  0  0  0  0
  -21.6650   -5.0470   23.4180 C   0  0  0  0  0  0  0  0  0  0  0  0
  -22.4040   -4.0770   22.8290 F   0  0  0  0  0  0  0  0  0  0  0  0
  -19.5620   -5.5100   26.3900 F   0  0  0  0  0  0  0  0  0  0  0  0
  -23.7250  -13.0140   20.7570 C   0  0  0  0  0  0  0  0  0  0  0  0
  -23.0400  -12.4420   21.7410 N   0  0  0  0  0  0  0  0  0  0  0  0
  -23.3130  -14.0330   20.2030 O   0  0  0  0  0  0  0  0  0  0  0  0
  -23.3870  -11.6190   22.2070 H   0  0  0  0  0  0  0  0  0  0  0  0
  -22.1560  -12.8360   22.0310 H   0  0  0  0  0  0  0  0  0  0  0  0
  -26.3360  -14.4050   19.5380 N   0  0  0  0  0  0  0  0  0  0  0  0
  -25.5590  -15.0560   19.5890 H   0  0  0  0  0  0  0  0  0  0  0  0
  -27.0170  -14.6700   18.8410 H   0  0  0  0  0  0  0  0  0  0  0  0
  -26.6850  -17.6970   20.1500 C   0  0  0  0  0  1  0  0  0  0  0  0
  -28.2000  -17.4900   20.2690 C   0  0  0  0  0  3  0  0  0  0  0  0
  -28.5530  -14.4260   22.0860 C   0  0  0  0  0  2  0  0  0  0  0  0
  -27.4170  -15.2330   21.4630 C   0  0  0  0  0  2  0  0  0  0  0  0
  -29.4830  -15.5730   21.6940 C   0  0  0  0  0  2  0  0  0  0  0  0
  -28.4590  -16.0040   20.6240 C   0  0  0  0  0  3  0  0  0  0  0  0
  -29.7630  -21.3010   16.8330 C   0  0  0  0  0  2  0  0  0  0  0  0
  -28.8950  -22.9340   16.9540 C   0  0  0  0  0  2  0  0  0  0  0  0
  -29.3090  -24.5750   17.0170 O   0  0  0  0  0  0  0  0  0  0  0  0
  -27.5560  -29.1530   22.8770 C   0  0  0  0  0  0  0  0  0  0  0  0
  -28.6040  -25.7530   17.6510 C   0  0  0  0  0  0  0  0  0  0  0  0
  -25.9540  -28.9290   21.0210 C   0  0  0  0  0  3  0  0  0  0  0  0
  -26.8630  -27.8910   18.8240 C   0  0  0  0  0  0  0  0  0  0  0  0
  -28.4780  -28.6560   20.5500 C   0  0  0  0  0  2  0  0  0  0  0  0
  -28.1500  -27.7140   19.3450 C   0  0  0  0  0  0  0  0  0  0  0  0
  -29.0180  -26.6850   18.7420 C   0  0  0  0  0  3  0  0  0  0  0  0
  -27.3220  -26.1050   17.1680 C   0  0  0  0  0  3  0  0  0  0  0  0
  -26.4810  -27.1100   17.7200 C   0  0  0  0  0  3  0  0  0  0  0  0
  -25.9260  -28.9180   19.4670 C   0  0  0  0  0  2  0  0  0  0  0  0
  -27.3610  -28.9090   21.5380 N   0  0  0  0  0  0  0  0  0  0  0  0
  -26.6070  -29.3820   23.6450 O   0  0  0  0  0  0  0  0  0  0  0  0
  -25.0860  -27.7650   21.5690 C   0  0  0  0  0  0  0  0  0  0  0  0
  -23.7520  -27.8540   21.4190 N   0  0  0  0  0  0  0  0  0  0  0  0
  -25.6250  -26.7900   22.0990 O   0  0  0  0  0  0  0  0  0  0  0  0
  -23.3770  -28.6900   20.9930 H   0  0  0  0  0  0  0  0  0  0  0  0
  -20.2270  -26.9840   21.3940 C   0  0  0  0  0  0  0  0  0  0  0  0
  -22.7780  -26.8250   21.8030 C   0  0  0  0  0  3  0  0  0  0  0  0
  -22.7620  -25.6630   20.7830 C   0  0  0  0  0  2  0  0  0  0  0  0
  -21.7030  -25.8310   19.6880 C   0  0  0  0  0  2  0  0  0  0  0  0
  -20.3030  -25.9280   20.3020 C   0  0  0  0  0  2  0  0  0  0  0  0
  -21.3900  -27.4170   22.0860 C   0  0  0  0  0  0  0  0  0  0  0  0
  -21.2640  -28.4210   23.0700 C   0  0  0  0  0  3  0  0  0  0  0  0
  -20.0100  -28.9910   23.3620 C   0  0  0  0  0  3  0  0  0  0  0  0
  -18.8620  -28.5530   22.6800 C   0  0  0  0  0  3  0  0  0  0  0  0
  -18.9700  -27.5480   21.7020 C   0  0  0  0  0  3  0  0  0  0  0  0
  -28.9800  -29.1700   23.5060 C   0  0  0  0  0  3  0  0  0  0  0  0
  -29.3840  -27.7910   24.1630 C   0  0  1  0  0  0  0  0  0  0  0  0
  -28.3390  -27.2500   25.1680 C   0  0  0  0  0  1  0  0  0  0  0  0
  -29.5960  -26.7040   23.0830 C   0  0  0  0  0  1  0  0  0  0  0  0
  -30.7320  -27.9380   24.9070 C   0  0  0  0  0  1  0  0  0  0  0  0
  -29.0200  -30.2400   24.5200 N   0  0  0  0  0  0  0  0  0  0  0  0
  -29.6130  -31.4300   24.3600 C   0  0  0  0  0  0  0  0  0  0  0  0
  -30.2440  -31.7270   23.3430 O   0  0  0  0  0  0  0  0  0  0  0  0
  -28.4720  -30.0870   25.3540 H   0  0  0  0  0  0  0  0  0  0  0  0
  -28.4280  -33.5100   25.1490 C   0  0  0  0  0  1  0  0  0  0  0  0
  -29.4900  -32.4570   25.5060 C   0  0  0  0  0  3  0  0  0  0  0  0
  -31.7330  -32.2560   26.4900 C   0  0  0  0  0  1  0  0  0  0  0  0
  -30.7650  -33.1310   25.8350 N   0  0  0  0  0  0  0  0  0  0  0  0
  -30.6040  -33.9340   26.4380 H   0  0  0  0  0  0  0  0  0  0  0  0
  1  7  1  0
  2  7  1  0
  3  4  1  0
  3  2  1  0
  5  4  1  0
  5 20  1  0
  5  6  1  0
  7  6  1  0
  8  1  2  0
  9 12  1  0
 10  9  2  0
 11 14  1  0
 11 12  1  0
 12 46  1  0
 13 10  1  0
 13 11  1  0
 14  1  1  0
 14 16  1  0
 15 13  1  0
 17 18  2  0
 18 19  1  0
 18 37  1  0
 19 22  1  0
 20 17  1  0
 20 21  1  0
 21 19  2  0
 22 23  1  0
 23 24  2  0
 25 28  1  0
 25 24  1  0
 26 25  2  0
 27 26  1  0
 27 22  2  0
 28 29  1  0
 29 34  2  0
 29 30  1  0
 30 31  2  0
 31 32  1  0
 32 36  1  0
 33 32  2  0
 34 33  1  0
 35 34  1  0
 37 38  1  0
 38 41  1  0
 38 40  1  0
 39 37  2  0
 42 43  1  0
 42 17  1  0
 44 42  1  0
 46 45  1  0
 46 50  1  0
 48 47  1  0
 49 47  1  0
 50 48  1  0
 50 49  1  0
 51 52  1  0
 51 10  1  0
 52 53  1  0
 53 55  1  0
 54 65  2  0
 55 60  1  0
 56 64  1  0
 56 66  1  0
 57 59  1  0
 57 63  1  0
 58 64  1  0
 59 58  1  0
 60 59  2  0
 61 55  2  0
 61 62  1  0
 62 57  2  0
 63 56  1  0
 64 54  1  0
 66 68  2  0
 67 66  1  0
 69 67  1  0
 70 79  2  0
 70 75  1  0
 71 67  1  0
 71 75  1  0
 72 71  1  0
 73 74  1  0
 73 72  1  0
 74 70  1  0
 75 76  2  0
 76 77  1  0
 78 77  2  0
 79 78  1  0
 80 54  1  0
 80 81  1  0
 80 85  1  0
 81 84  1  1
 81 82  1  0
 83 81  1  0
 85 88  1  0
 86 85  1  0
 86 90  1  0
 87 86  2  0
 90 89  1  0
 90 92  1  0
 92 93  1  0
 92 91  1  0
M  ISO  4   1 100  14 100  52 101  53 101
M  END
>  <TORSDO>  (33) 
F 19

>  <SCORE>  (33) 
-4.814

>  <name>  (33) 
32

>  <ligand_id>  (33) 
32

>  <original_smiles>  (33) 
[H]c1c([H])c([H])c2c(c1[H])C([H])([H])C([H])([H])C([H])([H])C2([H])N([H])C(=O)C1([H])N(C(=O)C([H])(N([H])C(=O)C([H])(N([H])C([H])([H])[H])C([H])([H])[H])C(C([H])([H])[H])(C([H])([H])[H])C([H])([H])[H])C([H])([H])c2c([H])c(OC([H])([H])C([H])([H])c3c([H])n(C([H])(C([H])([H])[H])C4([H])C([H])([H])C([H])([H])C4([H])[H])c(N([H])C(=O)N4C([H])([H])C([H])([H])C([H])([H])C([H])(n5nc(-c6c([H])c([H])c(Oc7c([H])c([H])c(F)c([H])c7F)c([H])c6[H])c(C(=O)N([H])[H])c5N([H])[H])C4([H])[H])[n+]3[H])c([H])c([H])c2C1([H])[H]

>  <smiles>  (33) 
[H]c1c([H])c([H])c2c(c1[H])C([H])([H])C([H])([H])C([H])([H])C2([H])N([H])C(=O)C1([H])N(C(=O)C([H])(N([H])C(=O)C([H])(N([H])C([H])([H])[H])C([H])([H])[H])C(C([H])([H])[H])(C([H])([H])[H])C([H])([H])[H])C([H])([H])c2c([H])c(OC([H])([H])C([H])([H])c3c([H])n(C([H])(C([H])([H])[H])C4([H])C([H])([H])C([H])([H])C4([H])[H])c(N([H])C(=O)N4C([H])([H])C([H])([H])C([H])([H])C([H])(n5nc(-c6c([H])c([H])c(Oc7c([H])c([H])c(F)c([H])c7F)c([H])c6[H])c(C(=O)N([H])[H])c5N([H])[H])C4([H])[H])[n+]3[H])c([H])c([H])c2C1([H])[H]

$$$$
33:0:0
     RDKit          3D

 93101  0  0  1  0  0  0  0  0999 V2000
  -30.1910  -21.2590   20.9310 C   0  0  0  0  0  2  0  0  0  0  0  0
  -31.1190  -20.2070   20.2880 C   0  0  0  0  0  2  0  0  0  0  0  0
  -30.8630  -17.6860   20.6560 C   0  0  0  0  0  3  0  0  0  0  0  0
  -31.7560  -19.0380   22.4510 C   0  0  0  0  0  3  0  0  0  0  0  0
  -31.2500  -18.9510   21.1410 C   0  0  0  0  0  0  0  0  0  0  0  0
  -30.9570  -16.5710   21.5210 C   0  0  0  0  0  0  0  0  0  0  0  0
  -31.4360  -16.7760   22.8320 C   0  0  0  0  0  0  0  0  0  0  0  0
  -31.5250  -15.6370   23.8330 C   0  0  0  0  0  1  0  0  0  0  0  0
  -31.8430  -17.9800   23.2820 N   0  0  0  0  0  0  0  0  0  0  0  0
  -30.8200  -14.6160   20.0100 C   0  0  0  0  0  0  0  0  0  0  0  0
  -30.4040  -12.5520   18.7150 C   0  0  0  0  0  2  0  0  0  0  0  0
  -29.3650  -12.7740   17.6000 C   0  0  0  0  0  2  0  0  0  0  0  0
  -27.9330  -12.6000   18.1390 C   0  0  0  0  0  2  0  0  0  0  0  0
  -27.6880  -13.4120   19.4380 C   0  0  0  0  0  3  0  0  0  0  0  0
  -28.8160  -13.1560   20.4590 C   0  0  0  0  0  2  0  0  0  0  0  0
  -30.1110  -13.4720   19.8240 N   0  0  0  0  0  0  0  0  0  0  0  0
  -31.7430  -14.9760   19.2720 O   0  0  0  0  0  0  0  0  0  0  0  0
  -30.5050  -15.2840   21.1290 N   0  0  0  0  0  0  0  0  0  0  0  0
  -29.8880  -14.7980   21.7630 H   0  0  0  0  0  0  0  0  0  0  0  0
  -25.3490  -13.9920   20.3530 C   0  0  0  0  0  0  0  0  0  0  0  0
  -24.3100  -13.2030   20.7730 C   0  0  0  0  0  0  0  0  0  0  0  0
  -24.7630  -11.8540   20.6480 C   0  0  0  0  0  0  0  0  0  0  0  0
  -26.3710  -13.1210   20.0060 N   0  0  0  0  0  0  0  0  0  0  0  0
  -26.0250  -11.8290   20.2370 N   0  0  0  0  0  0  0  0  0  0  0  0
  -24.0520  -10.5840   20.8420 C   0  0  0  0  0  0  0  0  0  0  0  0
  -24.4800   -9.6360   21.7970 C   0  0  0  0  0  3  0  0  0  0  0  0
  -23.7690   -8.4300   21.9760 C   0  0  0  0  0  3  0  0  0  0  0  0
  -22.6150   -8.1640   21.2000 C   0  0  0  0  0  0  0  0  0  0  0  0
  -22.2070   -9.1020   20.2350 C   0  0  0  0  0  3  0  0  0  0  0  0
  -22.9190  -10.2990   20.0530 C   0  0  0  0  0  3  0  0  0  0  0  0
  -21.8770   -7.0090   21.2870 O   0  0  0  0  0  0  0  0  0  0  0  0
  -21.7190   -6.3430   22.4760 C   0  0  0  0  0  0  0  0  0  0  0  0
  -21.1440   -6.9640   23.6060 C   0  0  0  0  0  3  0  0  0  0  0  0
  -20.9360   -6.2230   24.7880 C   0  0  0  0  0  3  0  0  0  0  0  0
  -21.2930   -4.8620   24.8360 C   0  0  0  0  0  0  0  0  0  0  0  0
  -21.8610   -4.2410   23.7100 C   0  0  0  0  0  3  0  0  0  0  0  0
  -22.0700   -4.9800   22.5320 C   0  0  0  0  0  0  0  0  0  0  0  0
  -22.5980   -4.3710   21.4430 F   0  0  0  0  0  0  0  0  0  0  0  0
  -21.0870   -4.1480   25.9670 F   0  0  0  0  0  0  0  0  0  0  0  0
  -22.9400  -13.6670   21.1760 C   0  0  0  0  0  0  0  0  0  0  0  0
  -22.2820  -12.9340   22.0680 N   0  0  0  0  0  0  0  0  0  0  0  0
  -22.4630  -14.7140   20.7390 O   0  0  0  0  0  0  0  0  0  0  0  0
  -22.6810  -12.0850   22.4420 H   0  0  0  0  0  0  0  0  0  0  0  0
  -21.3680  -13.2250   22.3820 H   0  0  0  0  0  0  0  0  0  0  0  0
  -25.5060  -15.3680   20.2220 N   0  0  0  0  0  0  0  0  0  0  0  0
  -24.7610  -16.0250   20.4210 H   0  0  0  0  0  0  0  0  0  0  0  0
  -26.3450  -15.8140   19.8680 H   0  0  0  0  0  0  0  0  0  0  0  0
  -30.1140  -22.5840   20.1510 C   0  0  0  0  0  2  0  0  0  0  0  0
  -29.2000  -23.6190   20.8360 C   0  0  0  0  0  2  0  0  0  0  0  0
  -29.0900  -24.9360   20.0530 C   0  0  0  0  0  2  0  0  0  0  0  0
  -28.2610  -25.8880   20.7780 N   0  0  0  0  0  0  0  0  0  0  0  0
  -27.2880  -25.5970   20.7430 H   0  0  0  0  0  0  0  0  0  0  0  0
  -28.3230  -27.0980   20.0010 O   0  0  0  0  0  0  0  0  0  0  0  0
  -24.5450  -32.0600   23.4450 C   0  0  0  0  0  0  0  0  0  0  0  0
  -27.1490  -27.7970   20.1120 C   0  0  0  0  0  0  0  0  0  0  0  0
  -23.3200  -30.7570   21.7340 C   0  0  0  0  0  3  0  0  0  0  0  0
  -24.7550  -29.2830   20.2280 C   0  0  0  0  0  0  0  0  0  0  0  0
  -25.8430  -31.1120   21.5430 C   0  0  0  0  0  2  0  0  0  0  0  0
  -25.9160  -29.7750   20.8390 C   0  0  0  0  0  0  0  0  0  0  0  0
  -27.1160  -29.0350   20.7850 C   0  0  0  0  0  3  0  0  0  0  0  0
  -25.9770  -27.3060   19.5020 C   0  0  0  0  0  3  0  0  0  0  0  0
  -24.7770  -28.0430   19.5610 C   0  0  0  0  0  3  0  0  0  0  0  0
  -23.5170  -30.1450   20.3210 C   0  0  0  0  0  2  0  0  0  0  0  0
  -24.5880  -31.3210   22.3000 N   0  0  0  0  0  0  0  0  0  0  0  0
  -23.4690  -32.3110   24.0050 O   0  0  0  0  0  0  0  0  0  0  0  0
  -22.6660  -29.6910   22.6430 C   0  0  0  0  0  0  0  0  0  0  0  0
  -21.3510  -29.4830   22.4700 N   0  0  0  0  0  0  0  0  0  0  0  0
  -23.3400  -29.0560   23.4590 O   0  0  0  0  0  0  0  0  0  0  0  0
  -20.8680  -30.0490   21.7860 H   0  0  0  0  0  0  0  0  0  0  0  0
  -18.0100  -28.1440   22.7660 C   0  0  0  0  0  0  0  0  0  0  0  0
  -20.5350  -28.5020   23.1840 C   0  0  0  0  0  3  0  0  0  0  0  0
  -20.7300  -27.0840   22.6010 C   0  0  0  0  0  2  0  0  0  0  0  0
  -19.7010  -26.7280   21.5230 C   0  0  0  0  0  2  0  0  0  0  0  0
  -18.2790  -26.8100   22.0900 C   0  0  0  0  0  2  0  0  0  0  0  0
  -19.0700  -28.9450   23.2660 C   0  0  0  0  0  0  0  0  0  0  0  0
  -18.7670  -30.1930   23.8540 C   0  0  0  0  0  3  0  0  0  0  0  0
  -17.4360  -30.6400   23.9480 C   0  0  0  0  0  3  0  0  0  0  0  0
  -16.3890  -29.8360   23.4650 C   0  0  0  0  0  3  0  0  0  0  0  0
  -16.6760  -28.5900   22.8800 C   0  0  0  0  0  3  0  0  0  0  0  0
  -25.8410  -32.6450   24.0880 C   0  0  0  0  0  3  0  0  0  0  0  0
  -25.5720  -34.0470   24.4290 N   0  0  0  0  0  0  0  0  0  0  0  0
  -25.9480  -35.0970   23.6860 C   0  0  0  0  0  0  0  0  0  0  0  0
  -26.6300  -34.9840   22.6640 O   0  0  0  0  0  0  0  0  0  0  0  0
  -24.9710  -34.2120   25.2240 H   0  0  0  0  0  0  0  0  0  0  0  0
  -24.2740  -36.9360   23.3270 C   0  0  0  0  0  1  0  0  0  0  0  0
  -25.4930  -36.4930   24.1510 C   0  0  0  0  0  3  0  0  0  0  0  0
  -27.6410  -37.3110   25.0150 C   0  0  0  0  0  1  0  0  0  0  0  0
  -26.5560  -37.5180   24.0600 N   0  0  0  0  0  0  0  0  0  0  0  0
  -26.1740  -38.4480   24.2120 H   0  0  0  0  0  0  0  0  0  0  0  0
  -26.3220  -31.8440   25.3610 C   0  0  1  0  0  0  0  0  0  0  0  0
  -25.2020  -31.5950   26.3970 C   0  0  0  0  0  1  0  0  0  0  0  0
  -26.9020  -30.4700   24.9500 C   0  0  0  0  0  1  0  0  0  0  0  0
  -27.4630  -32.6140   26.0670 C   0  0  0  0  0  1  0  0  0  0  0  0
  2  1  1  0
  2  5  1  0
  3  5  2  0
  3  6  1  0
  4  9  2  0
  5  4  1  0
  6  7  2  0
  7  9  1  0
  7  8  1  0
 10 18  1  0
 11 16  1  0
 12 13  1  0
 12 11  1  0
 14 13  1  0
 14 23  1  0
 14 15  1  0
 16 10  1  0
 16 15  1  0
 17 10  2  0
 18  6  1  0
 18 19  1  0
 20 21  2  0
 21 40  1  0
 22 21  1  0
 22 25  1  0
 23 24  1  0
 23 20  1  0
 24 22  2  0
 25 26  1  0
 26 27  2  0
 28 31  1  0
 28 27  1  0
 29 28  2  0
 30 29  1  0
 30 25  2  0
 31 32  1  0
 32 37  2  0
 32 33  1  0
 33 34  2  0
 34 35  1  0
 35 39  1  0
 36 35  2  0
 37 36  1  0
 38 37  1  0
 40 41  1  0
 41 44  1  0
 41 43  1  0
 42 40  2  0
 45 20  1  0
 45 46  1  0
 47 45  1  0
 48 49  1  0
 48  1  1  0
 50 51  1  0
 50 49  1  0
 52 51  1  0
 53 55  1  0
 53 51  1  0
 54 65  2  0
 55 60  1  0
 56 64  1  0
 56 66  1  0
 57 63  1  0
 57 59  1  0
 58 64  1  0
 59 58  1  0
 60 59  2  0
 61 62  1  0
 61 55  2  0
 62 57  2  0
 63 56  1  0
 64 54  1  0
 66 68  2  0
 67 66  1  0
 69 67  1  0
 70 79  2  0
 70 75  1  0
 71 67  1  0
 71 75  1  0
 72 71  1  0
 73 74  1  0
 73 72  1  0
 74 70  1  0
 75 76  2  0
 76 77  1  0
 78 77  2  0
 79 78  1  0
 80 54  1  0
 80 81  1  0
 80 90  1  0
 81 84  1  0
 82 86  1  0
 82 81  1  0
 83 82  2  0
 86 85  1  0
 88 86  1  0
 88 89  1  0
 88 87  1  0
 90 93  1  1
 90 91  1  0
 92 90  1  0
M  ISO  4  10 100  18 100  51 101  53 101
M  END
>  <TORSDO>  (34) 
F 22

>  <SCORE>  (34) 
-7.527

>  <name>  (34) 
33

>  <ligand_id>  (34) 
33

>  <original_smiles>  (34) 
[H]c1nc(C([H])([H])[H])c(N([H])C(=O)N2C([H])([H])C([H])([H])C([H])([H])C([H])(n3nc(-c4c([H])c([H])c(Oc5c([H])c([H])c(F)c([H])c5F)c([H])c4[H])c(C(=O)N([H])[H])c3N([H])[H])C2([H])[H])c([H])c1C([H])([H])C([H])([H])C([H])([H])C([H])([H])C([H])([H])N([H])Oc1c([H])c([H])c2c(c1[H])C([H])([H])N(C(=O)C([H])(N([H])C(=O)C([H])(N([H])C([H])([H])[H])C([H])([H])[H])C(C([H])([H])[H])(C([H])([H])[H])C([H])([H])[H])C([H])(C(=O)N([H])C1([H])c3c([H])c([H])c([H])c([H])c3C([H])([H])C([H])([H])C1([H])[H])C2([H])[H]

>  <smiles>  (34) 
[H]c1nc(C([H])([H])[H])c(N([H])C(=O)N2C([H])([H])C([H])([H])C([H])([H])C([H])(n3nc(-c4c([H])c([H])c(Oc5c([H])c([H])c(F)c([H])c5F)c([H])c4[H])c(C(=O)N([H])[H])c3N([H])[H])C2([H])[H])c([H])c1C([H])([H])C([H])([H])C([H])([H])C([H])([H])C([H])([H])N([H])Oc1c([H])c([H])c2c(c1[H])C([H])([H])N(C(=O)C([H])(N([H])C(=O)C([H])(N([H])C([H])([H])[H])C([H])([H])[H])C(C([H])([H])[H])(C([H])([H])[H])C([H])([H])[H])C([H])(C(=O)N([H])C1([H])c3c([H])c([H])c([H])c([H])c3C([H])([H])C([H])([H])C1([H])[H])C2([H])[H]

$$$$
34:0:0
     RDKit          3D

 87 95  0  0  1  0  0  0  0  0999 V2000
  -31.2040  -20.9140   20.5440 C   0  0  0  0  0  3  0  0  0  0  0  0
  -30.3220  -22.0360   20.4480 C   0  0  0  0  0  3  0  0  0  0  0  0
  -30.8420  -19.5300   20.4600 C   0  0  0  0  0  3  0  0  0  0  0  0
  -28.9330  -21.9210   20.2510 C   0  0  0  0  0  0  0  0  0  0  0  0
  -29.5260  -19.0600   20.2670 C   0  0  0  0  0  0  0  0  0  0  0  0
  -28.6420  -20.3690   20.1670 N   0  0  0  0  0  0  0  0  0  0  0  0
  -30.1740  -15.8870   20.2070 C   0  0  0  0  0  0  0  0  0  0  0  0
  -30.3290  -13.3020   19.3910 C   0  0  0  0  0  2  0  0  0  0  0  0
  -29.4600  -12.8020   18.1960 C   0  0  0  0  0  2  0  0  0  0  0  0
  -28.0520  -12.4080   18.6600 C   0  0  0  0  0  2  0  0  0  0  0  0
  -27.5080  -13.4230   19.6870 C   0  0  0  0  0  3  0  0  0  0  0  0
  -28.5250  -13.8110   20.7910 C   0  0  0  0  0  2  0  0  0  0  0  0
  -29.6660  -14.4930   20.1190 N   0  0  0  0  0  0  0  0  0  0  0  0
  -31.4140  -15.7830   20.0830 O   0  0  0  0  0  0  0  0  0  0  0  0
  -29.4050  -17.2920   20.2320 N   0  0  0  0  0  0  0  0  0  0  0  0
  -28.4260  -17.0510   20.2250 H   0  0  0  0  0  0  0  0  0  0  0  0
  -25.1400  -13.9250   20.4350 C   0  0  0  0  0  0  0  0  0  0  0  0
  -24.0860  -13.1370   20.7990 C   0  0  0  0  0  0  0  0  0  0  0  0
  -24.5720  -11.7930   20.7830 C   0  0  0  0  0  0  0  0  0  0  0  0
  -26.1960  -13.0660   20.2070 N   0  0  0  0  0  0  0  0  0  0  0  0
  -25.8690  -11.7750   20.4830 N   0  0  0  0  0  0  0  0  0  0  0  0
  -23.8550  -10.5240   20.9750 C   0  0  0  0  0  0  0  0  0  0  0  0
  -24.2750   -9.5730   21.9310 C   0  0  0  0  0  3  0  0  0  0  0  0
  -23.5530   -8.3740   22.1140 C   0  0  0  0  0  3  0  0  0  0  0  0
  -22.3980   -8.1150   21.3400 C   0  0  0  0  0  0  0  0  0  0  0  0
  -21.9960   -9.0540   20.3740 C   0  0  0  0  0  3  0  0  0  0  0  0
  -22.7190  -10.2450   20.1890 C   0  0  0  0  0  3  0  0  0  0  0  0
  -21.6490   -6.9660   21.4310 O   0  0  0  0  0  0  0  0  0  0  0  0
  -21.5760   -6.2450   22.5950 C   0  0  0  0  0  0  0  0  0  0  0  0
  -21.0880   -6.8110   23.7940 C   0  0  0  0  0  3  0  0  0  0  0  0
  -20.9640   -6.0140   24.9490 C   0  0  0  0  0  3  0  0  0  0  0  0
  -21.3190   -4.6530   24.9090 C   0  0  0  0  0  0  0  0  0  0  0  0
  -21.8000   -4.0850   23.7160 C   0  0  0  0  0  3  0  0  0  0  0  0
  -21.9250   -4.8790   22.5620 C   0  0  0  0  0  0  0  0  0  0  0  0
  -22.3690   -4.3230   21.4090 F   0  0  0  0  0  0  0  0  0  0  0  0
  -21.1940   -3.8850   26.0170 F   0  0  0  0  0  0  0  0  0  0  0  0
  -22.6800  -13.6000   21.0430 C   0  0  0  0  0  0  0  0  0  0  0  0
  -21.9500  -12.9110   21.9120 N   0  0  0  0  0  0  0  0  0  0  0  0
  -22.2390  -14.6110   20.4980 O   0  0  0  0  0  0  0  0  0  0  0  0
  -22.3210  -12.0950   22.3750 H   0  0  0  0  0  0  0  0  0  0  0  0
  -21.0060  -13.2060   22.1180 H   0  0  0  0  0  0  0  0  0  0  0  0
  -25.2820  -15.2970   20.2430 N   0  0  0  0  0  0  0  0  0  0  0  0
  -24.5010  -15.9370   20.3320 H   0  0  0  0  0  0  0  0  0  0  0  0
  -26.1170  -15.7370   19.8810 H   0  0  0  0  0  0  0  0  0  0  0  0
  -27.7970  -23.5890   18.4770 C   0  0  0  0  0  1  0  0  0  0  0  0
  -27.9870  -23.5820   20.0000 C   0  0  0  0  0  3  0  0  0  0  0  0
  -28.1480  -25.3800   20.3010 O   0  0  0  0  0  0  0  0  0  0  0  0
  -24.7180  -31.8640   23.2350 C   0  0  0  0  0  0  0  0  0  0  0  0
  -27.2030  -26.6640   20.2440 C   0  0  0  0  0  0  0  0  0  0  0  0
  -23.5250  -30.4730   21.6030 C   0  0  0  0  0  3  0  0  0  0  0  0
  -24.9590  -28.7960   20.1960 C   0  0  0  0  0  0  0  0  0  0  0  0
  -26.1110  -30.5630   21.4900 C   0  0  0  0  0  2  0  0  0  0  0  0
  -26.1640  -29.1170   20.8320 C   0  0  0  0  0  0  0  0  0  0  0  0
  -27.2640  -28.0850   20.8180 C   0  0  0  0  0  3  0  0  0  0  0  0
  -25.9520  -26.5850   19.5660 C   0  0  0  0  0  3  0  0  0  0  0  0
  -24.9010  -27.5550   19.5410 C   0  0  0  0  0  3  0  0  0  0  0  0
  -23.7640  -29.7680   20.2350 C   0  0  0  0  0  2  0  0  0  0  0  0
  -24.8110  -31.0020   22.1620 N   0  0  0  0  0  0  0  0  0  0  0  0
  -23.6250  -32.1750   23.7400 O   0  0  0  0  0  0  0  0  0  0  0  0
  -22.7910  -29.5100   22.5780 C   0  0  0  0  0  0  0  0  0  0  0  0
  -21.4590  -29.3600   22.4470 N   0  0  0  0  0  0  0  0  0  0  0  0
  -23.4380  -28.8930   23.4270 O   0  0  0  0  0  0  0  0  0  0  0  0
  -20.9850  -29.9090   21.7430 H   0  0  0  0  0  0  0  0  0  0  0  0
  -18.0670  -28.1440   22.9450 C   0  0  0  0  0  0  0  0  0  0  0  0
  -20.6250  -28.4300   23.2200 C   0  0  0  0  0  3  0  0  0  0  0  0
  -20.7360  -26.9910   22.6630 C   0  0  0  0  0  2  0  0  0  0  0  0
  -19.6440  -26.6540   21.6420 C   0  0  0  0  0  2  0  0  0  0  0  0
  -18.2570  -26.7930   22.2760 C   0  0  0  0  0  2  0  0  0  0  0  0
  -19.1780  -28.9190   23.3740 C   0  0  0  0  0  0  0  0  0  0  0  0
  -18.9430  -30.1780   23.9670 C   0  0  0  0  0  3  0  0  0  0  0  0
  -17.6330  -30.6660   24.1300 C   0  0  0  0  0  3  0  0  0  0  0  0
  -16.5370  -29.8900   23.7150 C   0  0  0  0  0  3  0  0  0  0  0  0
  -16.7540  -28.6310   23.1270 C   0  0  0  0  0  3  0  0  0  0  0  0
  -25.9800  -32.5140   23.8790 C   0  0  0  0  0  3  0  0  0  0  0  0
  -25.6640  -33.9200   24.2050 N   0  0  0  0  0  0  0  0  0  0  0  0
  -25.9850  -34.9810   23.4500 C   0  0  0  0  0  0  0  0  0  0  0  0
  -26.6300  -34.8790   22.4050 O   0  0  0  0  0  0  0  0  0  0  0  0
  -25.0870  -34.0710   25.0180 H   0  0  0  0  0  0  0  0  0  0  0  0
  -24.2420  -36.7830   23.1760 C   0  0  0  0  0  1  0  0  0  0  0  0
  -25.5200  -36.3750   23.9270 C   0  0  0  0  0  3  0  0  0  0  0  0
  -27.6860  -37.2770   24.6590 C   0  0  0  0  0  1  0  0  0  0  0  0
  -26.5450  -37.4300   23.7600 N   0  0  0  0  0  0  0  0  0  0  0  0
  -26.1420  -38.3510   23.9130 H   0  0  0  0  0  0  0  0  0  0  0  0
  -26.4600  -31.7640   25.1850 C   0  0  1  0  0  0  0  0  0  0  0  0
  -25.3430  -31.5660   26.2370 C   0  0  0  0  0  1  0  0  0  0  0  0
  -27.0340  -30.3700   24.8470 C   0  0  0  0  0  1  0  0  0  0  0  0
  -27.6090  -32.5580   25.8510 C   0  0  0  0  0  1  0  0  0  0  0  0
  2  1  2  0
  3  1  1  0
  4  2  1  0
  5  3  2  0
  6  4  2  0
  6  5  1  0
  7 15  1  0
  8 13  1  0
  9 10  1  0
  9  8  1  0
 11 10  1  0
 11 20  1  0
 11 12  1  0
 13  7  1  0
 13 12  1  0
 14  7  2  0
 15  5  1  0
 16 15  1  0
 17 18  2  0
 18 37  1  0
 19 18  1  0
 19 22  1  0
 20 17  1  0
 20 21  1  0
 21 19  2  0
 22 23  1  0
 23 24  2  0
 25 28  1  0
 25 24  1  0
 26 25  2  0
 27 26  1  0
 27 22  2  0
 28 29  1  0
 29 30  1  0
 30 31  2  0
 32 31  1  0
 32 36  1  0
 33 32  2  0
 34 29  2  0
 34 33  1  0
 35 34  1  0
 37 38  1  0
 38 41  1  0
 38 40  1  0
 39 37  2  0
 42 43  1  0
 42 17  1  0
 44 42  1  0
 46 45  1  0
 46  4  1  0
 46 47  1  0
 48 59  2  0
 49 47  1  0
 49 54  1  0
 50 58  1  0
 50 60  1  0
 51 57  1  0
 51 53  1  0
 52 58  1  0
 53 52  1  0
 54 53  2  0
 55 49  2  0
 56 55  1  0
 56 51  2  0
 57 50  1  0
 58 48  1  0
 60 62  2  0
 61 60  1  0
 63 61  1  0
 64 73  2  0
 64 69  1  0
 65 61  1  0
 65 69  1  0
 66 65  1  0
 67 68  1  0
 67 66  1  0
 68 64  1  0
 69 70  2  0
 70 71  1  0
 72 71  2  0
 73 72  1  0
 74 48  1  0
 74 75  1  0
 74 84  1  0
 75 78  1  0
 76 80  1  0
 76 75  1  0
 77 76  2  0
 80 79  1  0
 82 83  1  0
 82 80  1  0
 82 81  1  0
 84 87  1  1
 84 85  1  0
 86 84  1  0
M  ISO  4   7 100  15 100  46 101  47 101
M  END
>  <TORSDO>  (35) 
F 17

>  <SCORE>  (35) 
-16.458

>  <name>  (35) 
34

>  <ligand_id>  (35) 
34

>  <original_smiles>  (35) 
[H]c1c(N([H])C(=O)N2C([H])([H])C([H])([H])C([H])([H])C([H])(n3nc(-c4c([H])c([H])c(Oc5c([H])c([H])c(F)c([H])c5F)c([H])c4[H])c(C(=O)N([H])[H])c3N([H])[H])C2([H])[H])nc(C([H])(Oc2c([H])c([H])c3c(c2[H])C([H])([H])N(C(=O)C([H])(N([H])C(=O)C([H])(N([H])C([H])([H])[H])C([H])([H])[H])C(C([H])([H])[H])(C([H])([H])[H])C([H])([H])[H])C([H])(C(=O)N([H])C2([H])c4c([H])c([H])c([H])c([H])c4C([H])([H])C([H])([H])C2([H])[H])C3([H])[H])C([H])([H])[H])c([H])c1[H]

>  <smiles>  (35) 
[H]c1c(N([H])C(=O)N2C([H])([H])C([H])([H])C([H])([H])C([H])(n3nc(-c4c([H])c([H])c(Oc5c([H])c([H])c(F)c([H])c5F)c([H])c4[H])c(C(=O)N([H])[H])c3N([H])[H])C2([H])[H])nc(C([H])(Oc2c([H])c([H])c3c(c2[H])C([H])([H])N(C(=O)C([H])(N([H])C(=O)C([H])(N([H])C([H])([H])[H])C([H])([H])[H])C(C([H])([H])[H])(C([H])([H])[H])C([H])([H])[H])C([H])(C(=O)N([H])C2([H])c4c([H])c([H])c([H])c([H])c4C([H])([H])C([H])([H])C2([H])[H])C3([H])[H])C([H])([H])[H])c([H])c1[H]

$$$$
35:0:0
     RDKit          3D

 92100  0  0  1  0  0  0  0  0999 V2000
  -30.6160  -14.7740   20.4340 C   0  0  0  0  0  0  0  0  0  0  0  0
  -30.4240  -12.4710   19.4760 C   0  0  0  0  0  2  0  0  0  0  0  0
  -29.5110  -12.5030   18.2320 C   0  0  0  0  0  2  0  0  0  0  0  0
  -28.0350  -12.3330   18.6410 C   0  0  0  0  0  2  0  0  0  0  0  0
  -27.6330  -13.2370   19.8370 C   0  0  0  0  0  3  0  0  0  0  0  0
  -28.6760  -13.2140   20.9700 C   0  0  0  0  0  2  0  0  0  0  0  0
  -29.9650  -13.5590   20.3680 N   0  0  0  0  0  0  0  0  0  0  0  0
  -31.8380  -14.8000   20.2670 O   0  0  0  0  0  0  0  0  0  0  0  0
  -29.3190  -18.4260   20.2760 C   0  0  0  0  0  3  0  0  0  0  0  0
  -28.0150  -17.8330   22.5470 C   0  0  0  0  0  3  0  0  0  0  0  0
  -27.8110  -19.1340   22.0140 C   0  0  0  0  0  0  0  0  0  0  0  0
  -28.5840  -19.5350   20.8770 C   0  0  0  0  0  0  0  0  0  0  0  0
  -29.3670  -17.0720   20.8200 C   0  0  0  0  0  0  0  0  0  0  0  0
  -28.7590  -16.8550   21.9940 N   0  0  0  0  0  0  0  0  0  0  0  0
  -29.9190  -15.9230   20.0740 N   0  0  0  0  0  0  0  0  0  0  0  0
  -30.2900  -16.2440   19.1930 H   0  0  0  0  0  0  0  0  0  0  0  0
  -25.2530  -13.8170   20.5700 C   0  0  0  0  0  0  0  0  0  0  0  0
  -24.1800  -13.0430   20.9170 C   0  0  0  0  0  0  0  0  0  0  0  0
  -24.6380  -11.6900   20.8750 C   0  0  0  0  0  0  0  0  0  0  0  0
  -26.2900  -12.9380   20.3200 N   0  0  0  0  0  0  0  0  0  0  0  0
  -25.9310  -11.6500   20.5650 N   0  0  0  0  0  0  0  0  0  0  0  0
  -23.9090  -10.4250   21.0480 C   0  0  0  0  0  0  0  0  0  0  0  0
  -24.3630   -9.4150   21.9240 C   0  0  0  0  0  3  0  0  0  0  0  0
  -23.6290   -8.2190   22.0800 C   0  0  0  0  0  3  0  0  0  0  0  0
  -22.4280   -8.0250   21.3570 C   0  0  0  0  0  0  0  0  0  0  0  0
  -21.9930   -9.0230   20.4660 C   0  0  0  0  0  3  0  0  0  0  0  0
  -22.7290  -10.2100   20.3110 C   0  0  0  0  0  3  0  0  0  0  0  0
  -21.6610   -6.8880   21.4260 O   0  0  0  0  0  0  0  0  0  0  0  0
  -21.6840   -6.0740   22.5280 C   0  0  0  0  0  0  0  0  0  0  0  0
  -21.4030   -6.5640   23.8220 C   0  0  0  0  0  3  0  0  0  0  0  0
  -21.3680   -5.6780   24.9160 C   0  0  0  0  0  3  0  0  0  0  0  0
  -21.6060   -4.3060   24.7210 C   0  0  0  0  0  0  0  0  0  0  0  0
  -21.8820   -3.8150   23.4330 C   0  0  0  0  0  3  0  0  0  0  0  0
  -21.9180   -4.6970   22.3380 C   0  0  0  0  0  0  0  0  0  0  0  0
  -22.1610   -4.2150   21.0950 F   0  0  0  0  0  0  0  0  0  0  0  0
  -21.5660   -3.4540   25.7730 F   0  0  0  0  0  0  0  0  0  0  0  0
  -22.7820  -13.5280   21.1800 C   0  0  0  0  0  0  0  0  0  0  0  0
  -22.0400  -12.8320   22.0310 N   0  0  0  0  0  0  0  0  0  0  0  0
  -22.3540  -14.5630   20.6720 O   0  0  0  0  0  0  0  0  0  0  0  0
  -22.3840  -11.9900   22.4680 H   0  0  0  0  0  0  0  0  0  0  0  0
  -21.1010  -13.1440   22.2360 H   0  0  0  0  0  0  0  0  0  0  0  0
  -25.4320  -15.1880   20.4200 N   0  0  0  0  0  0  0  0  0  0  0  0
  -24.6950  -15.8660   20.5780 H   0  0  0  0  0  0  0  0  0  0  0  0
  -26.3110  -15.6100   20.1490 H   0  0  0  0  0  0  0  0  0  0  0  0
  -26.3310  -19.7130   24.0660 C   0  0  0  0  0  1  0  0  0  0  0  0
  -25.3680  -19.6170   21.7270 C   0  0  0  0  0  1  0  0  0  0  0  0
  -26.6180  -19.9340   22.5620 C   0  0  0  0  0  3  0  0  0  0  0  0
  -28.4940  -20.8230   20.2270 O   0  0  0  0  0  0  0  0  0  0  0  0
  -28.6260  -22.1910   20.8600 C   0  0  0  0  0  2  0  0  0  0  0  0
  -28.2650  -23.5620   20.0360 C   0  0  0  0  0  3  0  0  0  0  0  0
  -28.2300  -25.0100   20.7920 C   0  0  0  0  0  3  0  0  0  0  0  0
  -28.3060  -26.3650   20.1330 O   0  0  0  0  0  0  0  0  0  0  0  0
  -24.6330  -31.8540   23.1950 C   0  0  0  0  0  0  0  0  0  0  0  0
  -27.2060  -27.2470   20.1520 C   0  0  0  0  0  0  0  0  0  0  0  0
  -23.4270  -30.4760   21.5390 C   0  0  0  0  0  3  0  0  0  0  0  0
  -24.8720  -28.9130   20.1150 C   0  0  0  0  0  0  0  0  0  0  0  0
  -25.9730  -30.7650   21.3740 C   0  0  0  0  0  2  0  0  0  0  0  0
  -26.0450  -29.3850   20.7190 C   0  0  0  0  0  0  0  0  0  0  0  0
  -27.2190  -28.5660   20.7190 C   0  0  0  0  0  3  0  0  0  0  0  0
  -26.0150  -26.8330   19.5260 C   0  0  0  0  0  3  0  0  0  0  0  0
  -24.8640  -27.6470   19.5030 C   0  0  0  0  0  3  0  0  0  0  0  0
  -23.6440  -29.8050   20.1580 C   0  0  0  0  0  2  0  0  0  0  0  0
  -24.6960  -31.0490   22.0930 N   0  0  0  0  0  0  0  0  0  0  0  0
  -23.5470  -32.1380   23.7230 O   0  0  0  0  0  0  0  0  0  0  0  0
  -22.7500  -29.4600   22.4910 C   0  0  0  0  0  0  0  0  0  0  0  0
  -21.4210  -29.3040   22.3650 N   0  0  0  0  0  0  0  0  0  0  0  0
  -23.4220  -28.8160   23.3000 O   0  0  0  0  0  0  0  0  0  0  0  0
  -20.9400  -29.8730   21.6830 H   0  0  0  0  0  0  0  0  0  0  0  0
  -18.0290  -28.1390   22.8490 C   0  0  0  0  0  0  0  0  0  0  0  0
  -20.5900  -28.3690   23.1280 C   0  0  0  0  0  3  0  0  0  0  0  0
  -20.6780  -26.9420   22.5410 C   0  0  0  0  0  2  0  0  0  0  0  0
  -19.5760  -26.6380   21.5210 C   0  0  0  0  0  2  0  0  0  0  0  0
  -18.1940  -26.7930   22.1630 C   0  0  0  0  0  2  0  0  0  0  0  0
  -19.1540  -28.8860   23.2880 C   0  0  0  0  0  0  0  0  0  0  0  0
  -18.9470  -30.1470   23.8890 C   0  0  0  0  0  3  0  0  0  0  0  0
  -17.6470  -30.6590   24.0570 C   0  0  0  0  0  3  0  0  0  0  0  0
  -16.5360  -29.9090   23.6340 C   0  0  0  0  0  3  0  0  0  0  0  0
  -16.7280  -28.6500   23.0360 C   0  0  0  0  0  3  0  0  0  0  0  0
  -25.9150  -32.4740   23.8310 C   0  0  0  0  0  3  0  0  0  0  0  0
  -26.4510  -31.6590   25.0710 C   0  0  1  0  0  0  0  0  0  0  0  0
  -25.3720  -31.3760   26.1430 C   0  0  0  0  0  1  0  0  0  0  0  0
  -27.0380  -30.3000   24.6220 C   0  0  0  0  0  1  0  0  0  0  0  0
  -27.6040  -32.4340   25.7510 C   0  0  0  0  0  1  0  0  0  0  0  0
  -25.5940  -33.8540   24.2230 N   0  0  0  0  0  0  0  0  0  0  0  0
  -25.9070  -34.9430   23.5080 C   0  0  0  0  0  0  0  0  0  0  0  0
  -26.5640  -34.8920   22.4640 O   0  0  0  0  0  0  0  0  0  0  0  0
  -25.0070  -33.9680   25.0370 H   0  0  0  0  0  0  0  0  0  0  0  0
  -24.1490  -36.7270   23.2650 C   0  0  0  0  0  1  0  0  0  0  0  0
  -25.4120  -36.3050   24.0310 C   0  0  0  0  0  3  0  0  0  0  0  0
  -27.5560  -37.1790   24.8460 C   0  0  0  0  0  1  0  0  0  0  0  0
  -26.4280  -37.3750   23.9400 N   0  0  0  0  0  0  0  0  0  0  0  0
  -26.0150  -38.2810   24.1410 H   0  0  0  0  0  0  0  0  0  0  0  0
  2  7  1  0
  3  4  1  0
  3  2  1  0
  5  4  1  0
  5 20  1  0
  5  6  1  0
  7  1  1  0
  7  6  1  0
  8  1  2  0
  9 13  2  0
  9 12  1  0
 11 10  1  0
 11 47  1  0
 12 11  2  0
 13 14  1  0
 14 10  2  0
 15  1  1  0
 15 13  1  0
 16 15  1  0
 17 18  2  0
 18 37  1  0
 19 18  1  0
 19 22  1  0
 20 21  1  0
 20 17  1  0
 21 19  2  0
 22 23  1  0
 23 24  2  0
 25 28  1  0
 25 24  1  0
 26 25  2  0
 27 26  1  0
 27 22  2  0
 28 29  1  0
 29 30  1  0
 30 31  2  0
 32 31  1  0
 32 36  1  0
 33 32  2  0
 34 29  2  0
 34 33  1  0
 35 34  1  0
 37 38  1  0
 38 41  1  0
 38 40  1  0
 39 37  2  0
 42 17  1  0
 42 43  1  0
 44 42  1  0
 46 47  1  0
 47 45  1  0
 48 49  1  0
 48 12  1  0
 50 51  2  0
 50 49  1  0
 52 54  1  0
 52 51  1  0
 53 64  2  0
 54 59  1  0
 55 63  1  0
 55 65  1  0
 56 62  1  0
 56 58  1  0
 57 63  1  0
 58 59  2  0
 58 57  1  0
 60 54  2  0
 61 60  1  0
 61 56  2  0
 62 55  1  0
 63 53  1  0
 65 67  2  0
 66 65  1  0
 68 66  1  0
 69 78  2  0
 69 74  1  0
 70 66  1  0
 70 74  1  0
 71 70  1  0
 72 73  1  0
 72 71  1  0
 73 69  1  0
 74 75  2  0
 75 76  1  0
 77 76  2  0
 78 77  1  0
 79 53  1  0
 79 84  1  0
 79 80  1  0
 80 83  1  1
 80 81  1  0
 82 80  1  0
 84 87  1  0
 85 89  1  0
 85 84  1  0
 86 85  2  0
 89 88  1  0
 91 89  1  0
 91 92  1  0
 91 90  1  0
M  ISO  4   1 100  15 100  51 101  52 101
M  END
>  <TORSDO>  (36) 
F 20

>  <SCORE>  (36) 
26.814

>  <name>  (36) 
35

>  <ligand_id>  (36) 
35

>  <original_smiles>  (36) 
[H]c1nc(N([H])C(=O)N2C([H])([H])C([H])([H])C([H])([H])C([H])(n3nc(-c4c([H])c([H])c(Oc5c([H])c([H])c(F)c([H])c5F)c([H])c4[H])c(C(=O)N([H])[H])c3N([H])[H])C2([H])[H])c([H])c(OC([H])([H])C([H])([H])C([H])([H])Oc2c([H])c([H])c3c(c2[H])C([H])([H])N(C(=O)C([H])(N([H])C(=O)C([H])(N([H])C([H])([H])[H])C([H])([H])[H])C(C([H])([H])[H])(C([H])([H])[H])C([H])([H])[H])C([H])(C(=O)N([H])C2([H])c4c([H])c([H])c([H])c([H])c4C([H])([H])C([H])([H])C2([H])[H])C3([H])[H])c1C([H])(C([H])([H])[H])C([H])([H])[H]

>  <smiles>  (36) 
[H]c1nc(N([H])C(=O)N2C([H])([H])C([H])([H])C([H])([H])C([H])(n3nc(-c4c([H])c([H])c(Oc5c([H])c([H])c(F)c([H])c5F)c([H])c4[H])c(C(=O)N([H])[H])c3N([H])[H])C2([H])[H])c([H])c(OC([H])([H])C([H])([H])C([H])([H])Oc2c([H])c([H])c3c(c2[H])C([H])([H])N(C(=O)C([H])(N([H])C(=O)C([H])(N([H])C([H])([H])[H])C([H])([H])[H])C(C([H])([H])[H])(C([H])([H])[H])C([H])([H])[H])C([H])(C(=O)N([H])C2([H])c4c([H])c([H])c([H])c([H])c4C([H])([H])C([H])([H])C2([H])[H])C3([H])[H])c1C([H])(C([H])([H])[H])C([H])([H])[H]

$$$$
36:0:0
     RDKit          3D

 97105  0  0  1  0  0  0  0  0999 V2000
  -29.5200  -25.1800   21.4210 C   0  0  0  0  0  3  0  0  0  0  0  0
  -29.3560  -23.8060   21.7040 C   0  0  0  0  0  0  0  0  0  0  0  0
  -28.4920  -23.0290   20.8850 C   0  0  0  0  0  0  0  0  0  0  0  0
  -27.8690  -23.6920   19.7930 C   0  0  0  0  0  0  0  0  0  0  0  0
  -28.8170  -25.7550   20.3490 C   0  0  0  0  0  0  0  0  0  0  0  0
  -30.0630  -23.2260   22.9160 C   0  0  0  0  0  1  0  0  0  0  0  0
  -26.8990  -23.0190   18.8320 C   0  0  0  0  0  1  0  0  0  0  0  0
  -28.0560  -24.9960   19.5320 N   0  0  0  0  0  0  0  0  0  0  0  0
  -28.8560  -27.1230   20.1080 O   0  0  0  0  0  0  0  0  0  0  0  0
  -24.6430  -31.8910   23.3290 C   0  0  0  0  0  0  0  0  0  0  0  0
  -27.6660  -27.8280   20.0790 C   0  0  0  0  0  0  0  0  0  0  0  0
  -23.5860  -30.5200   21.5640 C   0  0  0  0  0  3  0  0  0  0  0  0
  -25.1850  -29.1870   20.0910 C   0  0  0  0  0  0  0  0  0  0  0  0
  -26.0890  -31.0480   21.4850 C   0  0  0  0  0  2  0  0  0  0  0  0
  -26.2840  -29.7320   20.7650 C   0  0  0  0  0  0  0  0  0  0  0  0
  -27.5270  -29.0540   20.7700 C   0  0  0  0  0  3  0  0  0  0  0  0
  -26.5600  -27.3320   19.3540 C   0  0  0  0  0  3  0  0  0  0  0  0
  -25.3160  -27.9830   19.3830 C   0  0  0  0  0  3  0  0  0  0  0  0
  -23.8820  -29.9520   20.1520 C   0  0  0  0  0  2  0  0  0  0  0  0
  -24.7880  -31.1670   22.1850 N   0  0  0  0  0  0  0  0  0  0  0  0
  -23.5300  -32.0570   23.8470 O   0  0  0  0  0  0  0  0  0  0  0  0
  -22.9800  -29.3950   22.4330 C   0  0  0  0  0  0  0  0  0  0  0  0
  -21.6710  -29.1490   22.2670 N   0  0  0  0  0  0  0  0  0  0  0  0
  -23.6850  -28.7500   23.2140 O   0  0  0  0  0  0  0  0  0  0  0  0
  -21.1590  -29.7260   21.6140 H   0  0  0  0  0  0  0  0  0  0  0  0
  -18.3610  -27.7440   22.6130 C   0  0  0  0  0  0  0  0  0  0  0  0
  -20.8960  -28.1160   22.9540 C   0  0  0  0  0  3  0  0  0  0  0  0
  -21.0850  -26.7370   22.2810 C   0  0  0  0  0  2  0  0  0  0  0  0
  -20.0190  -26.4300   21.2250 C   0  0  0  0  0  2  0  0  0  0  0  0
  -18.6220  -26.4560   21.8500 C   0  0  0  0  0  2  0  0  0  0  0  0
  -19.4300  -28.5320   23.1180 C   0  0  0  0  0  0  0  0  0  0  0  0
  -19.1310  -29.7390   23.7870 C   0  0  0  0  0  3  0  0  0  0  0  0
  -17.7980  -30.1560   23.9620 C   0  0  0  0  0  3  0  0  0  0  0  0
  -16.7450  -29.3640   23.4740 C   0  0  0  0  0  3  0  0  0  0  0  0
  -17.0270  -28.1600   22.8030 C   0  0  0  0  0  3  0  0  0  0  0  0
  -25.8650  -32.5620   24.0290 C   0  0  0  0  0  3  0  0  0  0  0  0
  -25.5040  -33.9590   24.3020 N   0  0  0  0  0  0  0  0  0  0  0  0
  -25.8580  -34.9980   23.5340 C   0  0  0  0  0  0  0  0  0  0  0  0
  -26.5960  -34.8840   22.5520 O   0  0  0  0  0  0  0  0  0  0  0  0
  -24.8560  -34.1190   25.0590 H   0  0  0  0  0  0  0  0  0  0  0  0
  -24.1040  -36.7250   23.0270 C   0  0  0  0  0  1  0  0  0  0  0  0
  -25.3060  -36.3850   23.9200 C   0  0  0  0  0  3  0  0  0  0  0  0
  -27.3730  -37.3480   24.8330 C   0  0  0  0  0  1  0  0  0  0  0  0
  -26.3140  -37.4640   23.8330 N   0  0  0  0  0  0  0  0  0  0  0  0
  -25.8770  -38.3750   23.9380 H   0  0  0  0  0  0  0  0  0  0  0  0
  -26.3020  -31.8300   25.3570 C   0  0  1  0  0  0  0  0  0  0  0  0
  -25.1370  -31.5870   26.3430 C   0  0  0  0  0  1  0  0  0  0  0  0
  -26.9480  -30.4600   25.0400 C   0  0  0  0  0  1  0  0  0  0  0  0
  -27.3800  -32.6670   26.0860 C   0  0  0  0  0  1  0  0  0  0  0  0
  -28.1210  -21.5770   21.2390 C   0  0  0  0  0  2  0  0  0  0  0  0
  -27.5420  -19.3700   20.1220 C   0  0  0  0  0  1  0  0  0  0  0  0
  -28.6110  -20.4730   20.2620 C   0  0  0  0  0  3  0  0  0  0  0  0
  -29.9410  -19.9270   20.6390 N   0  0  0  0  0  4  0  0  0  0  0  0
  -30.6340  -20.5890   20.3260 H   0  0  0  0  0  0  0  0  0  0  0  0
  -30.0160  -19.8570   21.6420 H   0  0  0  0  0  0  0  0  0  0  0  0
  -30.2680  -18.6120   20.0260 C   0  0  0  0  0  2  0  0  0  0  0  0
  -32.7090  -19.2010   19.5880 C   0  0  0  0  0  1  0  0  0  0  0  0
  -31.7400  -18.1760   20.2220 C   0  0  0  0  0  3  0  0  0  0  0  0
  -32.0060  -16.7780   19.6010 C   0  0  0  0  0  2  0  0  0  0  0  0
  -32.1820  -14.4190   20.3200 C   0  0  0  0  0  0  0  0  0  0  0  0
  -31.7030  -12.1140   19.6380 C   0  0  0  0  0  2  0  0  0  0  0  0
  -30.8660  -12.1700   18.3420 C   0  0  0  0  0  2  0  0  0  0  0  0
  -29.3630  -12.2540   18.6750 C   0  0  0  0  0  2  0  0  0  0  0  0
  -29.0410  -13.3440   19.7340 C   0  0  0  0  0  3  0  0  0  0  0  0
  -30.0140  -13.2780   20.9350 C   0  0  0  0  0  2  0  0  0  0  0  0
  -31.3880  -13.3200   20.4130 N   0  0  0  0  0  0  0  0  0  0  0  0
  -33.3580  -14.3590   19.9540 O   0  0  0  0  0  0  0  0  0  0  0  0
  -31.5540  -15.6080   20.3800 N   0  0  0  0  0  0  0  0  0  0  0  0
  -30.5920  -15.5920   20.6860 H   0  0  0  0  0  0  0  0  0  0  0  0
  -26.7470  -14.3100   20.3840 C   0  0  0  0  0  0  0  0  0  0  0  0
  -25.5570  -13.7130   20.7030 C   0  0  0  0  0  0  0  0  0  0  0  0
  -25.7980  -12.3050   20.6590 C   0  0  0  0  0  0  0  0  0  0  0  0
  -27.6450  -13.2780   20.1640 N   0  0  0  0  0  0  0  0  0  0  0  0
  -27.0760  -12.0650   20.3840 N   0  0  0  0  0  0  0  0  0  0  0  0
  -24.8740  -11.1730   20.8020 C   0  0  0  0  0  0  0  0  0  0  0  0
  -25.1330  -10.1160   21.7030 C   0  0  0  0  0  3  0  0  0  0  0  0
  -24.2210   -9.0480   21.8350 C   0  0  0  0  0  3  0  0  0  0  0  0
  -23.0340   -9.0290   21.0630 C   0  0  0  0  0  0  0  0  0  0  0  0
  -22.7930  -10.0710   20.1490 C   0  0  0  0  0  3  0  0  0  0  0  0
  -23.7040  -11.1300   20.0170 C   0  0  0  0  0  3  0  0  0  0  0  0
  -22.1020   -8.0190   21.1060 O   0  0  0  0  0  0  0  0  0  0  0  0
  -21.9170   -7.2560   22.2320 C   0  0  0  0  0  0  0  0  0  0  0  0
  -21.5960   -7.8350   23.4790 C   0  0  0  0  0  3  0  0  0  0  0  0
  -21.3450   -7.0100   24.5930 C   0  0  0  0  0  3  0  0  0  0  0  0
  -21.4080   -5.6100   24.4620 C   0  0  0  0  0  0  0  0  0  0  0  0
  -21.7230   -5.0320   23.2200 C   0  0  0  0  0  3  0  0  0  0  0  0
  -21.9740   -5.8540   22.1070 C   0  0  0  0  0  0  0  0  0  0  0  0
  -22.2560   -5.2910   20.9080 F   0  0  0  0  0  0  0  0  0  0  0  0
  -21.1600   -4.8180   25.5310 F   0  0  0  0  0  0  0  0  0  0  0  0
  -24.2460  -14.4040   20.9420 C   0  0  0  0  0  0  0  0  0  0  0  0
  -23.3950  -13.8310   21.7880 N   0  0  0  0  0  0  0  0  0  0  0  0
  -23.9870  -15.4850   20.4150 O   0  0  0  0  0  0  0  0  0  0  0  0
  -23.6160  -12.9590   22.2430 H   0  0  0  0  0  0  0  0  0  0  0  0
  -22.5080  -14.2730   21.9820 H   0  0  0  0  0  0  0  0  0  0  0  0
  -27.1360  -15.6390   20.2430 N   0  0  0  0  0  0  0  0  0  0  0  0
  -26.4810  -16.4080   20.3300 H   0  0  0  0  0  0  0  0  0  0  0  0
  -28.0430  -15.9320   19.9050 H   0  0  0  0  0  0  0  0  0  0  0  0
  1  2  2  0
  2  6  1  0
  3 50  1  0
  3  2  1  0
  4  3  2  0
  5  1  1  0
  7  4  1  0
  8  4  1  0
  8  5  2  0
  9  5  1  0
 10 21  2  0
 11  9  1  0
 11 16  1  0
 12 20  1  0
 12 22  1  0
 13 19  1  0
 13 15  1  0
 14 20  1  0
 15 16  2  0
 15 14  1  0
 17 18  1  0
 17 11  2  0
 18 13  2  0
 19 12  1  0
 20 10  1  0
 22 24  2  0
 23 22  1  0
 25 23  1  0
 26 35  2  0
 26 31  1  0
 27 23  1  0
 27 31  1  0
 28 27  1  0
 29 30  1  0
 29 28  1  0
 30 26  1  0
 31 32  2  0
 32 33  1  0
 34 33  2  0
 35 34  1  0
 36 10  1  0
 36 37  1  0
 36 46  1  0
 37 40  1  0
 38 42  1  0
 38 37  1  0
 39 38  2  0
 42 41  1  0
 44 42  1  0
 44 45  1  0
 44 43  1  0
 46 49  1  1
 46 47  1  0
 48 46  1  0
 52 51  1  0
 52 53  1  0
 52 50  1  0
 53 55  1  0
 54 53  1  0
 56 58  1  0
 56 53  1  0
 58 57  1  0
 59 58  1  0
 59 68  1  0
 60 68  1  0
 60 66  1  0
 61 66  1  0
 62 63  1  0
 62 61  1  0
 64 63  1  0
 64 73  1  0
 64 65  1  0
 66 65  1  0
 67 60  2  0
 68 69  1  0
 70 71  2  0
 71 90  1  0
 72 71  1  0
 72 75  1  0
 73 70  1  0
 73 74  1  0
 74 72  2  0
 75 76  1  0
 76 77  2  0
 78 81  1  0
 78 77  1  0
 79 78  2  0
 80 79  1  0
 80 75  2  0
 81 82  1  0
 82 83  1  0
 83 84  2  0
 85 84  1  0
 85 89  1  0
 86 85  2  0
 87 82  2  0
 87 86  1  0
 88 87  1  0
 90 91  1  0
 91 94  1  0
 91 93  1  0
 92 90  2  0
 95 96  1  0
 95 70  1  0
 97 95  1  0
M  ISO  4   5 101   9 101  60 100  68 100
M  END
>  <TORSDO>  (37) 
F 22

>  <SCORE>  (37) 
-11.844

>  <name>  (37) 
36

>  <ligand_id>  (37) 
36

>  <original_smiles>  (37) 
[H]c1c([H])c([H])c2c(c1[H])C([H])([H])C([H])([H])C([H])([H])C2([H])N([H])C(=O)C1([H])N(C(=O)C([H])(N([H])C(=O)C([H])(N([H])C([H])([H])[H])C([H])([H])[H])C(C([H])([H])[H])(C([H])([H])[H])C([H])([H])[H])C([H])([H])c2c([H])c(Oc3nc(C([H])([H])[H])c(C([H])([H])C([H])(C([H])([H])[H])[N+]([H])([H])C([H])([H])C([H])(C([H])([H])[H])C([H])([H])N([H])C(=O)N4C([H])([H])C([H])([H])C([H])([H])C([H])(n5nc(-c6c([H])c([H])c(Oc7c([H])c([H])c(F)c([H])c7F)c([H])c6[H])c(C(=O)N([H])[H])c5N([H])[H])C4([H])[H])c(C([H])([H])[H])c3[H])c([H])c([H])c2C1([H])[H]

>  <smiles>  (37) 
[H]c1c([H])c([H])c2c(c1[H])C([H])([H])C([H])([H])C([H])([H])C2([H])N([H])C(=O)C1([H])N(C(=O)C([H])(N([H])C(=O)C([H])(N([H])C([H])([H])[H])C([H])([H])[H])C(C([H])([H])[H])(C([H])([H])[H])C([H])([H])[H])C([H])([H])c2c([H])c(Oc3nc(C([H])([H])[H])c(C([H])([H])C([H])(C([H])([H])[H])[N+]([H])([H])C([H])([H])C([H])(C([H])([H])[H])C([H])([H])N([H])C(=O)N4C([H])([H])C([H])([H])C([H])([H])C([H])(n5nc(-c6c([H])c([H])c(Oc7c([H])c([H])c(F)c([H])c7F)c([H])c6[H])c(C(=O)N([H])[H])c5N([H])[H])C4([H])[H])c(C([H])([H])[H])c3[H])c([H])c([H])c2C1([H])[H]

$$$$
37:0:0
     RDKit          3D

 93101  0  0  1  0  0  0  0  0999 V2000
  -30.1940  -22.7970   19.8880 C   0  0  0  0  0  2  0  0  0  0  0  0
  -30.4680  -21.2970   19.3870 C   0  0  0  0  0  2  0  0  0  0  0  0
  -27.8210  -22.6020   19.2800 C   0  0  0  0  0  2  0  0  0  0  0  0
  -29.0440  -23.5580   19.1400 C   0  0  0  0  0  3  0  0  0  0  0  0
  -29.2720  -20.2700   19.4320 C   0  0  0  0  0  3  0  0  0  0  0  0
  -28.0660  -21.0950   18.7870 C   0  0  0  0  0  3  0  0  0  0  0  0
  -26.7290  -20.3400   18.8880 C   0  0  0  0  0  1  0  0  0  0  0  0
  -29.4940  -18.7350   18.8170 C   0  0  0  0  0  2  0  0  0  0  0  0
  -30.6940  -17.6600   19.1610 C   0  0  0  0  0  3  0  0  0  0  0  0
  -31.0880  -14.9870   19.1640 C   0  0  0  0  0  0  0  0  0  0  0  0
  -30.8260  -12.5710   18.5340 C   0  0  0  0  0  2  0  0  0  0  0  0
  -29.7570  -12.4320   17.4260 C   0  0  0  0  0  2  0  0  0  0  0  0
  -28.3470  -12.3250   18.0390 C   0  0  0  0  0  2  0  0  0  0  0  0
  -28.0920  -13.3930   19.1350 C   0  0  0  0  0  3  0  0  0  0  0  0
  -29.2670  -13.4900   20.1310 C   0  0  0  0  0  2  0  0  0  0  0  0
  -30.4770  -13.7620   19.3470 N   0  0  0  0  0  0  0  0  0  0  0  0
  -32.2240  -15.0250   18.6890 O   0  0  0  0  0  0  0  0  0  0  0  0
  -30.3420  -16.1580   19.3490 N   0  0  0  0  0  0  0  0  0  0  0  0
  -29.3990  -15.9850   19.6630 H   0  0  0  0  0  0  0  0  0  0  0  0
  -25.9140  -14.1390   20.2620 C   0  0  0  0  0  0  0  0  0  0  0  0
  -24.8430  -13.4390   20.7480 C   0  0  0  0  0  0  0  0  0  0  0  0
  -25.1560  -12.0580   20.5590 C   0  0  0  0  0  0  0  0  0  0  0  0
  -26.8140  -13.1890   19.8100 N   0  0  0  0  0  0  0  0  0  0  0  0
  -26.3750  -11.9270   20.0510 N   0  0  0  0  0  0  0  0  0  0  0  0
  -24.3390  -10.8570   20.7820 C   0  0  0  0  0  0  0  0  0  0  0  0
  -24.7410   -9.8450   21.6820 C   0  0  0  0  0  3  0  0  0  0  0  0
  -23.9290   -8.7100   21.8930 C   0  0  0  0  0  3  0  0  0  0  0  0
  -22.7000   -8.5790   21.2040 C   0  0  0  0  0  0  0  0  0  0  0  0
  -22.3150   -9.5780   20.2920 C   0  0  0  0  0  3  0  0  0  0  0  0
  -23.1270  -10.7050   20.0790 C   0  0  0  0  0  3  0  0  0  0  0  0
  -21.8590   -7.4990   21.3260 O   0  0  0  0  0  0  0  0  0  0  0  0
  -21.7300   -6.8180   22.5080 C   0  0  0  0  0  0  0  0  0  0  0  0
  -21.2750   -7.4480   23.6880 C   0  0  0  0  0  3  0  0  0  0  0  0
  -21.0900   -6.6950   24.8630 C   0  0  0  0  0  3  0  0  0  0  0  0
  -21.3480   -5.3110   24.8620 C   0  0  0  0  0  0  0  0  0  0  0  0
  -21.7970   -4.6800   23.6890 C   0  0  0  0  0  3  0  0  0  0  0  0
  -21.9840   -5.4310   22.5150 C   0  0  0  0  0  0  0  0  0  0  0  0
  -22.3960   -4.8130   21.3810 F   0  0  0  0  0  0  0  0  0  0  0  0
  -21.1630   -4.5850   25.9900 F   0  0  0  0  0  0  0  0  0  0  0  0
  -23.5580  -14.0220   21.2610 C   0  0  0  0  0  0  0  0  0  0  0  0
  -22.9050  -13.3400   22.1960 N   0  0  0  0  0  0  0  0  0  0  0  0
  -23.1510  -15.1160   20.8710 O   0  0  0  0  0  0  0  0  0  0  0  0
  -23.2490  -12.4540   22.5340 H   0  0  0  0  0  0  0  0  0  0  0  0
  -22.0490  -13.7150   22.5800 H   0  0  0  0  0  0  0  0  0  0  0  0
  -26.1850  -15.4980   20.1450 N   0  0  0  0  0  0  0  0  0  0  0  0
  -25.4940  -16.1990   20.3900 H   0  0  0  0  0  0  0  0  0  0  0  0
  -26.9770  -15.8830   19.6490 H   0  0  0  0  0  0  0  0  0  0  0  0
  -32.9110  -17.6000   20.5370 C   0  0  0  0  0  1  0  0  0  0  0  0
  -31.4830  -18.1490   20.4010 C   0  0  0  0  0  3  0  0  0  0  0  0
  -30.7560  -17.7810   21.5570 O   0  0  0  0  0  0  0  0  0  0  0  0
  -30.5490  -16.8570   21.4670 H   0  0  0  0  0  0  0  0  0  0  0  0
  -28.9300  -25.2210   19.0660 C   0  0  0  0  0  2  0  0  0  0  0  0
  -28.6400  -26.3310   20.0620 O   0  0  0  0  0  0  0  0  0  0  0  0
  -24.8040  -31.7410   23.1050 C   0  0  0  0  0  0  0  0  0  0  0  0
  -27.5410  -27.2390   19.9610 C   0  0  0  0  0  0  0  0  0  0  0  0
  -23.6660  -30.3890   21.3850 C   0  0  0  0  0  3  0  0  0  0  0  0
  -25.1720  -28.9010   19.9390 C   0  0  0  0  0  0  0  0  0  0  0  0
  -26.2130  -30.7160   21.2910 C   0  0  0  0  0  2  0  0  0  0  0  0
  -26.3240  -29.3570   20.5920 C   0  0  0  0  0  0  0  0  0  0  0  0
  -27.5060  -28.5370   20.5940 C   0  0  0  0  0  3  0  0  0  0  0  0
  -26.3520  -26.8590   19.2970 C   0  0  0  0  0  3  0  0  0  0  0  0
  -25.1950  -27.6640   19.2820 C   0  0  0  0  0  3  0  0  0  0  0  0
  -23.9290  -29.7700   19.9870 C   0  0  0  0  0  2  0  0  0  0  0  0
  -24.9120  -30.9670   21.9840 N   0  0  0  0  0  0  0  0  0  0  0  0
  -23.7020  -31.9880   23.6160 O   0  0  0  0  0  0  0  0  0  0  0  0
  -22.9840  -29.3330   22.2910 C   0  0  0  0  0  0  0  0  0  0  0  0
  -21.6530  -29.1930   22.1680 N   0  0  0  0  0  0  0  0  0  0  0  0
  -23.6550  -28.6460   23.0670 O   0  0  0  0  0  0  0  0  0  0  0  0
  -21.1700  -29.8000   21.5210 H   0  0  0  0  0  0  0  0  0  0  0  0
  -18.2440  -28.0980   22.7100 C   0  0  0  0  0  0  0  0  0  0  0  0
  -20.8210  -28.2270   22.8910 C   0  0  0  0  0  3  0  0  0  0  0  0
  -20.8320  -26.8470   22.1920 C   0  0  0  0  0  2  0  0  0  0  0  0
  -19.6780  -26.6600   21.2020 C   0  0  0  0  0  2  0  0  0  0  0  0
  -18.3320  -26.8070   21.9150 C   0  0  0  0  0  2  0  0  0  0  0  0
  -19.4110  -28.7730   23.1540 C   0  0  0  0  0  0  0  0  0  0  0  0
  -19.2730  -29.9860   23.8640 C   0  0  0  0  0  3  0  0  0  0  0  0
  -18.0000  -30.5250   24.1270 C   0  0  0  0  0  3  0  0  0  0  0  0
  -16.8460  -29.8450   23.6980 C   0  0  0  0  0  3  0  0  0  0  0  0
  -16.9700  -28.6330   22.9950 C   0  0  0  0  0  3  0  0  0  0  0  0
  -26.0570  -32.3700   23.7870 C   0  0  0  0  0  3  0  0  0  0  0  0
  -25.7220  -33.7570   24.1450 N   0  0  0  0  0  0  0  0  0  0  0  0
  -26.0570  -34.8350   23.4240 C   0  0  0  0  0  0  0  0  0  0  0  0
  -26.7520  -34.7660   22.4060 O   0  0  0  0  0  0  0  0  0  0  0  0
  -25.1080  -33.8820   24.9380 H   0  0  0  0  0  0  0  0  0  0  0  0
  -24.3160  -36.6180   23.0850 C   0  0  0  0  0  1  0  0  0  0  0  0
  -25.5470  -36.2060   23.9080 C   0  0  0  0  0  3  0  0  0  0  0  0
  -27.6490  -37.1020   24.8110 C   0  0  0  0  0  1  0  0  0  0  0  0
  -26.5700  -37.2730   23.8400 N   0  0  0  0  0  0  0  0  0  0  0  0
  -26.1490  -38.1860   23.9910 H   0  0  0  0  0  0  0  0  0  0  0  0
  -26.5360  -31.5710   25.0610 C   0  0  1  0  0  0  0  0  0  0  0  0
  -25.4070  -31.2890   26.0820 C   0  0  0  0  0  1  0  0  0  0  0  0
  -27.1540  -30.2130   24.6570 C   0  0  0  0  0  1  0  0  0  0  0  0
  -27.6490  -32.3640   25.7870 C   0  0  0  0  0  1  0  0  0  0  0  0
  2  5  1  0
  2  1  1  0
  4 52  1  0
  4  3  1  0
  4  1  1  0
  5  8  1  0
  6  7  1  0
  6  3  1  0
  6  5  1  0
  9  8  1  0
  9 18  1  0
  9 49  1  0
 10 16  1  0
 10 18  1  0
 11 16  1  0
 12 13  1  0
 12 11  1  0
 14 13  1  0
 14 23  1  0
 14 15  1  0
 16 15  1  0
 17 10  2  0
 18 19  1  0
 20 21  2  0
 21 40  1  0
 22 21  1  0
 22 25  1  0
 23 24  1  0
 23 20  1  0
 24 22  2  0
 25 26  1  0
 26 27  2  0
 28 31  1  0
 28 27  1  0
 29 28  2  0
 30 29  1  0
 30 25  2  0
 31 32  1  0
 32 37  2  0
 32 33  1  0
 33 34  2  0
 35 34  1  0
 35 39  1  0
 36 35  2  0
 37 36  1  0
 38 37  1  0
 40 41  1  0
 41 43  1  0
 41 44  1  0
 42 40  2  0
 45 20  1  0
 45 46  1  0
 47 45  1  0
 49 48  1  0
 49 50  1  0
 51 50  1  0
 52 53  1  0
 54 65  2  0
 55 53  1  0
 55 60  1  0
 56 64  1  0
 56 66  1  0
 57 63  1  0
 57 59  1  0
 58 64  1  0
 59 60  2  0
 59 58  1  0
 61 55  2  0
 62 61  1  0
 62 57  2  0
 63 56  1  0
 64 54  1  0
 66 68  2  0
 67 66  1  0
 69 67  1  0
 70 79  2  0
 70 75  1  0
 71 67  1  0
 71 75  1  0
 72 71  1  0
 73 74  1  0
 73 72  1  0
 74 70  1  0
 75 76  2  0
 76 77  1  0
 78 77  2  0
 79 78  1  0
 80 54  1  0
 80 81  1  0
 80 90  1  0
 81 84  1  0
 82 86  1  0
 82 81  1  0
 83 82  2  0
 86 85  1  0
 88 86  1  0
 88 89  1  0
 88 87  1  0
 90 93  1  1
 90 91  1  0
 92 90  1  0
M  ISO  4  10 100  18 100  52 101  53 101
M  END
>  <TORSDO>  (38) 
F 21

>  <SCORE>  (38) 
-12.194

>  <name>  (38) 
37

>  <ligand_id>  (38) 
37

>  <original_smiles>  (38) 
[H]OC([H])(C([H])([H])[H])C([H])(N([H])C(=O)N1C([H])([H])C([H])([H])C([H])([H])C([H])(n2nc(-c3c([H])c([H])c(Oc4c([H])c([H])c(F)c([H])c4F)c([H])c3[H])c(C(=O)N([H])[H])c2N([H])[H])C1([H])[H])C([H])([H])C1([H])C([H])([H])C([H])([H])C([H])(C([H])([H])Oc2c([H])c([H])c3c(c2[H])C([H])([H])N(C(=O)C([H])(N([H])C(=O)C([H])(N([H])C([H])([H])[H])C([H])([H])[H])C(C([H])([H])[H])(C([H])([H])[H])C([H])([H])[H])C([H])(C(=O)N([H])C2([H])c4c([H])c([H])c([H])c([H])c4C([H])([H])C([H])([H])C2([H])[H])C3([H])[H])C([H])([H])C1([H])C([H])([H])[H]

>  <smiles>  (38) 
[H]OC([H])(C([H])([H])[H])C([H])(N([H])C(=O)N1C([H])([H])C([H])([H])C([H])([H])C([H])(n2nc(-c3c([H])c([H])c(Oc4c([H])c([H])c(F)c([H])c4F)c([H])c3[H])c(C(=O)N([H])[H])c2N([H])[H])C1([H])[H])C([H])([H])C1([H])C([H])([H])C([H])([H])C([H])(C([H])([H])Oc2c([H])c([H])c3c(c2[H])C([H])([H])N(C(=O)C([H])(N([H])C(=O)C([H])(N([H])C([H])([H])[H])C([H])([H])[H])C(C([H])([H])[H])(C([H])([H])[H])C([H])([H])[H])C([H])(C(=O)N([H])C2([H])c4c([H])c([H])c([H])c([H])c4C([H])([H])C([H])([H])C2([H])[H])C3([H])[H])C([H])([H])C1([H])C([H])([H])[H]

$$$$
38:0:0
     RDKit          3D

 92101  0  0  1  0  0  0  0  0999 V2000
  -28.1840  -19.2170   20.3870 C   0  0  0  0  0  2  0  0  0  0  0  0
  -29.8670  -18.2080   19.2580 C   0  0  0  0  0  0  0  0  0  0  0  0
  -28.4840  -18.6080   19.1900 C   0  0  0  0  0  0  0  0  0  0  0  0
  -30.2050  -18.3110   20.5810 C   0  0  0  0  0  3  0  0  0  0  0  0
  -27.5110  -18.4070   18.0650 C   0  0  0  0  0  1  0  0  0  0  0  0
  -29.4120  -19.6520   20.7970 N   0  0  0  0  0  0  0  0  0  0  0  0
  -30.8220  -15.5830   20.9890 C   0  0  0  0  0  0  0  0  0  0  0  0
  -30.8330  -13.1330   20.1260 C   0  0  0  0  0  2  0  0  0  0  0  0
  -30.0400  -12.9390   18.8080 C   0  0  0  0  0  2  0  0  0  0  0  0
  -28.5380  -12.7260   19.0650 C   0  0  0  0  0  2  0  0  0  0  0  0
  -27.9960  -13.6380   20.1940 C   0  0  0  0  0  3  0  0  0  0  0  0
  -28.9380  -13.7690   21.4080 C   0  0  0  0  0  2  0  0  0  0  0  0
  -30.2330  -14.2780   20.9100 N   0  0  0  0  0  0  0  0  0  0  0  0
  -32.0560  -15.5360   20.8550 O   0  0  0  0  0  0  0  0  0  0  0  0
  -30.0970  -16.8890   21.1010 N   0  0  0  0  0  0  0  0  0  0  0  0
  -29.1400  -16.6840   21.3460 H   0  0  0  0  0  0  0  0  0  0  0  0
  -25.5680  -14.1840   20.7300 C   0  0  0  0  0  0  0  0  0  0  0  0
  -24.4700  -13.4040   20.9820 C   0  0  0  0  0  0  0  0  0  0  0  0
  -24.9400  -12.0570   20.9900 C   0  0  0  0  0  0  0  0  0  0  0  0
  -26.6280  -13.3070   20.5790 N   0  0  0  0  0  0  0  0  0  0  0  0
  -26.2550  -12.0190   20.8050 N   0  0  0  0  0  0  0  0  0  0  0  0
  -24.1900  -10.7960   21.1030 C   0  0  0  0  0  0  0  0  0  0  0  0
  -24.5330   -9.8140   22.0580 C   0  0  0  0  0  3  0  0  0  0  0  0
  -23.7840   -8.6200   22.1600 C   0  0  0  0  0  3  0  0  0  0  0  0
  -22.6740   -8.4030   21.3080 C   0  0  0  0  0  0  0  0  0  0  0  0
  -22.3440   -9.3790   20.3480 C   0  0  0  0  0  3  0  0  0  0  0  0
  -23.0960  -10.5610   20.2460 C   0  0  0  0  0  3  0  0  0  0  0  0
  -21.9040   -7.2650   21.3220 O   0  0  0  0  0  0  0  0  0  0  0  0
  -21.7600   -6.5030   22.4560 C   0  0  0  0  0  0  0  0  0  0  0  0
  -21.2600   -7.0500   23.6590 C   0  0  0  0  0  3  0  0  0  0  0  0
  -21.0530   -6.2190   24.7780 C   0  0  0  0  0  3  0  0  0  0  0  0
  -21.3490   -4.8450   24.6990 C   0  0  0  0  0  0  0  0  0  0  0  0
  -21.8460   -4.2980   23.5050 C   0  0  0  0  0  3  0  0  0  0  0  0
  -22.0470   -5.1240   22.3850 C   0  0  0  0  0  0  0  0  0  0  0  0
  -22.5000   -4.5900   21.2250 F   0  0  0  0  0  0  0  0  0  0  0  0
  -21.1480   -4.0460   25.7730 F   0  0  0  0  0  0  0  0  0  0  0  0
  -23.0570  -13.8890   21.1110 C   0  0  0  0  0  0  0  0  0  0  0  0
  -22.2550  -13.2230   21.9390 N   0  0  0  0  0  0  0  0  0  0  0  0
  -22.6650  -14.8920   20.5210 O   0  0  0  0  0  0  0  0  0  0  0  0
  -22.5960  -12.4280   22.4550 H   0  0  0  0  0  0  0  0  0  0  0  0
  -21.2960  -13.5170   22.0640 H   0  0  0  0  0  0  0  0  0  0  0  0
  -25.7480  -15.5540   20.5850 N   0  0  0  0  0  0  0  0  0  0  0  0
  -24.9640  -16.1950   20.6380 H   0  0  0  0  0  0  0  0  0  0  0  0
  -26.6250  -16.0060   20.3650 H   0  0  0  0  0  0  0  0  0  0  0  0
  -32.0190  -17.3240   17.9100 C   0  0  0  0  0  2  0  0  0  0  0  0
  -31.0210  -17.7650   16.8650 C   0  0  0  0  0  2  0  0  0  0  0  0
  -30.5340  -17.3060   18.2240 C   0  0  0  0  0  3  0  0  0  0  0  0
  -29.5950  -21.2970   20.4200 C   0  0  0  0  0  2  0  0  0  0  0  0
  -28.7820  -22.8500   20.9190 C   0  0  0  0  0  2  0  0  0  0  0  0
  -28.7840  -24.4600   18.6670 C   0  0  0  0  0  1  0  0  0  0  0  0
  -28.2620  -24.4090   20.1200 C   0  0  0  0  0  3  0  0  0  0  0  0
  -28.3230  -26.0070   20.5520 O   0  0  0  0  0  0  0  0  0  0  0  0
  -24.6860  -32.0440   23.3390 C   0  0  0  0  0  0  0  0  0  0  0  0
  -27.3110  -27.1010   20.4230 C   0  0  0  0  0  0  0  0  0  0  0  0
  -23.5240  -30.5830   21.7400 C   0  0  0  0  0  3  0  0  0  0  0  0
  -24.9940  -28.9560   20.3600 C   0  0  0  0  0  0  0  0  0  0  0  0
  -26.0940  -30.8030   21.6150 C   0  0  0  0  0  2  0  0  0  0  0  0
  -26.1720  -29.3780   20.9910 C   0  0  0  0  0  0  0  0  0  0  0  0
  -27.3190  -28.4630   21.0070 C   0  0  0  0  0  3  0  0  0  0  0  0
  -26.1180  -26.8530   19.7100 C   0  0  0  0  0  3  0  0  0  0  0  0
  -24.9910  -27.7170   19.6990 C   0  0  0  0  0  3  0  0  0  0  0  0
  -23.7730  -29.8740   20.3820 C   0  0  0  0  0  2  0  0  0  0  0  0
  -24.7890  -31.1750   22.2810 N   0  0  0  0  0  0  0  0  0  0  0  0
  -23.5870  -32.3430   23.8350 O   0  0  0  0  0  0  0  0  0  0  0  0
  -22.8290  -29.6090   22.7290 C   0  0  0  0  0  0  0  0  0  0  0  0
  -21.5220  -29.3510   22.5350 N   0  0  0  0  0  0  0  0  0  0  0  0
  -23.4750  -29.0840   23.6390 O   0  0  0  0  0  0  0  0  0  0  0  0
  -21.0530  -29.8340   21.7820 H   0  0  0  0  0  0  0  0  0  0  0  0
  -18.2010  -27.9180   22.8510 C   0  0  0  0  0  0  0  0  0  0  0  0
  -20.6980  -28.4160   23.3110 C   0  0  0  0  0  3  0  0  0  0  0  0
  -20.9620  -26.9560   22.8750 C   0  0  0  0  0  2  0  0  0  0  0  0
  -19.9860  -26.4610   21.8030 C   0  0  0  0  0  2  0  0  0  0  0  0
  -18.5430  -26.5390   22.3120 C   0  0  0  0  0  2  0  0  0  0  0  0
  -19.2150  -28.8060   23.3010 C   0  0  0  0  0  0  0  0  0  0  0  0
  -18.8420  -30.0900   23.7570 C   0  0  0  0  0  3  0  0  0  0  0  0
  -17.4920  -30.4870   23.7710 C   0  0  0  0  0  3  0  0  0  0  0  0
  -16.4910  -29.5960   23.3420 C   0  0  0  0  0  3  0  0  0  0  0  0
  -16.8470  -28.3140   22.8880 C   0  0  0  0  0  3  0  0  0  0  0  0
  -25.9430  -32.7200   23.9650 C   0  0  0  0  0  3  0  0  0  0  0  0
  -26.4380  -32.0020   25.2820 C   0  0  1  0  0  0  0  0  0  0  0  0
  -25.3180  -31.7210   26.3140 C   0  0  0  0  0  1  0  0  0  0  0  0
  -27.1010  -30.6480   24.9500 C   0  0  0  0  0  1  0  0  0  0  0  0
  -27.5250  -32.8630   25.9680 C   0  0  0  0  0  1  0  0  0  0  0  0
  -25.6130  -34.1280   24.2490 N   0  0  0  0  0  0  0  0  0  0  0  0
  -25.9620  -35.1660   23.4790 C   0  0  0  0  0  0  0  0  0  0  0  0
  -26.6530  -35.0380   22.4640 O   0  0  0  0  0  0  0  0  0  0  0  0
  -25.0060  -34.3050   25.0370 H   0  0  0  0  0  0  0  0  0  0  0  0
  -24.2330  -36.9470   23.0560 C   0  0  0  0  0  1  0  0  0  0  0  0
  -25.4640  -36.5670   23.8940 C   0  0  0  0  0  3  0  0  0  0  0  0
  -27.5840  -37.4780   24.7370 C   0  0  0  0  0  1  0  0  0  0  0  0
  -26.4950  -37.6200   23.7740 N   0  0  0  0  0  0  0  0  0  0  0  0
  -26.0860  -38.5430   23.8910 H   0  0  0  0  0  0  0  0  0  0  0  0
  1  6  1  0
  2  4  1  0
  3  2  2  0
  3  1  1  0
  4  6  1  0
  4 15  1  0
  5  3  1  0
  7 15  1  0
  8 13  1  0
  9 10  1  0
  9  8  1  0
 11 10  1  0
 11 20  1  0
 11 12  1  0
 13  7  1  0
 13 12  1  0
 14  7  2  0
 15 16  1  0
 17 18  2  0
 18 19  1  0
 18 37  1  0
 19 22  1  0
 20 17  1  0
 20 21  1  0
 21 19  2  0
 22 23  1  0
 23 24  2  0
 25 28  1  0
 25 24  1  0
 26 25  2  0
 27 26  1  0
 27 22  2  0
 28 29  1  0
 29 30  1  0
 30 31  2  0
 32 31  1  0
 32 36  1  0
 33 32  2  0
 34 29  2  0
 34 33  1  0
 35 34  1  0
 37 38  1  0
 38 41  1  0
 38 40  1  0
 39 37  2  0
 42 43  1  0
 42 17  1  0
 44 42  1  0
 45 47  1  0
 46 45  1  0
 46 47  1  0
 47  2  1  0
 48  6  1  0
 48 49  1  0
 51 50  1  0
 51 52  1  0
 51 49  1  0
 53 64  2  0
 54 52  1  0
 54 59  1  0
 55 63  1  0
 55 65  1  0
 56 62  1  0
 56 58  1  0
 57 63  1  0
 58 59  2  0
 58 57  1  0
 60 54  2  0
 61 60  1  0
 61 56  2  0
 62 55  1  0
 63 53  1  0
 65 67  2  0
 66 65  1  0
 68 66  1  0
 69 78  2  0
 69 74  1  0
 70 66  1  0
 71 70  1  0
 72 73  1  0
 72 71  1  0
 73 69  1  0
 74 70  1  0
 74 75  2  0
 75 76  1  0
 77 76  2  0
 78 77  1  0
 79 53  1  0
 79 84  1  0
 79 80  1  0
 80 83  1  1
 80 81  1  0
 82 80  1  0
 84 87  1  0
 85 89  1  0
 85 84  1  0
 86 85  2  0
 89 88  1  0
 91 92  1  0
 91 89  1  0
 91 90  1  0
M  ISO  4   7 100  15 100  51 101  52 101
M  END
>  <TORSDO>  (39) 
F 20

>  <SCORE>  (39) 
-15.018

>  <name>  (39) 
38

>  <ligand_id>  (39) 
38

>  <original_smiles>  (39) 
[H]c1c([H])c([H])c2c(c1[H])C([H])([H])C([H])([H])C([H])([H])C2([H])N([H])C(=O)C1([H])N(C(=O)C([H])(N([H])C(=O)C([H])(N([H])C([H])([H])[H])C([H])([H])[H])C(C([H])([H])[H])(C([H])([H])[H])C([H])([H])[H])C([H])([H])c2c([H])c(OC([H])(C([H])([H])[H])C([H])([H])C([H])([H])n3c([H])c(C([H])([H])[H])c(C4([H])C([H])([H])C4([H])[H])c3N([H])C(=O)N3C([H])([H])C([H])([H])C([H])([H])C([H])(n4nc(-c5c([H])c([H])c(Oc6c([H])c([H])c(F)c([H])c6F)c([H])c5[H])c(C(=O)N([H])[H])c4N([H])[H])C3([H])[H])c([H])c([H])c2C1([H])[H]

>  <smiles>  (39) 
[H]c1c([H])c([H])c2c(c1[H])C([H])([H])C([H])([H])C([H])([H])C2([H])N([H])C(=O)C1([H])N(C(=O)C([H])(N([H])C(=O)C([H])(N([H])C([H])([H])[H])C([H])([H])[H])C(C([H])([H])[H])(C([H])([H])[H])C([H])([H])[H])C([H])([H])c2c([H])c(OC([H])(C([H])([H])[H])C([H])([H])C([H])([H])n3c([H])c(C([H])([H])[H])c(C4([H])C([H])([H])C4([H])[H])c3N([H])C(=O)N3C([H])([H])C([H])([H])C([H])([H])C([H])(n4nc(-c5c([H])c([H])c(Oc6c([H])c([H])c(F)c([H])c6F)c([H])c5[H])c(C(=O)N([H])[H])c4N([H])[H])C3([H])[H])c([H])c([H])c2C1([H])[H]

$$$$
39:0:0
     RDKit          3D

 91 99  0  0  1  0  0  0  0  0999 V2000
  -28.2870  -22.4440   21.3710 C   0  0  0  0  0  2  0  0  0  0  0  0
  -29.6650  -22.6420   19.3190 C   0  0  0  0  0  2  0  0  0  0  0  0
  -27.5930  -23.8700   21.0610 C   0  0  0  0  0  2  0  0  0  0  0  0
  -29.6300  -24.1960   19.7160 C   0  0  0  0  0  2  0  0  0  0  0  0
  -28.8620  -21.5760   20.1770 C   0  0  0  0  0  3  0  0  0  0  0  0
  -28.2390  -24.8600   20.0070 C   0  0  0  0  0  3  0  0  0  0  0  0
  -29.6700  -20.2790   20.5380 N   0  0  0  0  0  4  0  0  0  0  0  0
  -29.9740  -20.3770   21.4940 H   0  0  0  0  0  0  0  0  0  0  0  0
  -30.5080  -20.3330   19.9820 H   0  0  0  0  0  0  0  0  0  0  0  0
  -29.1710  -18.8070   20.3580 C   0  0  0  0  0  2  0  0  0  0  0  0
  -30.7500  -17.7060   22.1130 C   0  0  0  0  0  1  0  0  0  0  0  0
  -30.2010  -17.5390   20.6830 C   0  0  0  0  0  3  0  0  0  0  0  0
  -30.5420  -14.8800   20.3450 C   0  0  0  0  0  0  0  0  0  0  0  0
  -30.3690  -12.5700   19.3670 C   0  0  0  0  0  2  0  0  0  0  0  0
  -29.4180  -12.5740   18.1480 C   0  0  0  0  0  2  0  0  0  0  0  0
  -27.9570  -12.3850   18.5950 C   0  0  0  0  0  2  0  0  0  0  0  0
  -27.5760  -13.3010   19.7890 C   0  0  0  0  0  3  0  0  0  0  0  0
  -28.6430  -13.2700   20.9040 C   0  0  0  0  0  2  0  0  0  0  0  0
  -29.9210  -13.6460   20.2870 N   0  0  0  0  0  0  0  0  0  0  0  0
  -31.7370  -14.9550   20.0470 O   0  0  0  0  0  0  0  0  0  0  0  0
  -29.7800  -16.0420   20.5500 N   0  0  0  0  0  0  0  0  0  0  0  0
  -28.7970  -15.8630   20.6960 H   0  0  0  0  0  0  0  0  0  0  0  0
  -25.2030  -13.8950   20.5520 C   0  0  0  0  0  0  0  0  0  0  0  0
  -24.1380  -13.1240   20.9280 C   0  0  0  0  0  0  0  0  0  0  0  0
  -24.5940  -11.7700   20.8800 C   0  0  0  0  0  0  0  0  0  0  0  0
  -26.2400  -13.0120   20.2960 N   0  0  0  0  0  0  0  0  0  0  0  0
  -25.8820  -11.7290   20.5590 N   0  0  0  0  0  0  0  0  0  0  0  0
  -23.8630  -10.5100   21.0650 C   0  0  0  0  0  0  0  0  0  0  0  0
  -24.2950   -9.5330   21.9880 C   0  0  0  0  0  3  0  0  0  0  0  0
  -23.5620   -8.3370   22.1620 C   0  0  0  0  0  3  0  0  0  0  0  0
  -22.3840   -8.1140   21.4110 C   0  0  0  0  0  0  0  0  0  0  0  0
  -21.9700   -9.0800   20.4770 C   0  0  0  0  0  3  0  0  0  0  0  0
  -22.7030  -10.2660   20.3010 C   0  0  0  0  0  3  0  0  0  0  0  0
  -21.6220   -6.9730   21.4950 O   0  0  0  0  0  0  0  0  0  0  0  0
  -21.5690   -6.2260   22.6440 C   0  0  0  0  0  0  0  0  0  0  0  0
  -21.1190   -6.7690   23.8670 C   0  0  0  0  0  3  0  0  0  0  0  0
  -21.0150   -5.9480   25.0060 C   0  0  0  0  0  3  0  0  0  0  0  0
  -21.3500   -4.5830   24.9240 C   0  0  0  0  0  0  0  0  0  0  0  0
  -21.7930   -4.0380   23.7060 C   0  0  0  0  0  3  0  0  0  0  0  0
  -21.8990   -4.8580   22.5680 C   0  0  0  0  0  0  0  0  0  0  0  0
  -22.3050   -4.3230   21.3910 F   0  0  0  0  0  0  0  0  0  0  0  0
  -21.2440   -3.7900   26.0160 F   0  0  0  0  0  0  0  0  0  0  0  0
  -22.7450  -13.6060   21.2140 C   0  0  0  0  0  0  0  0  0  0  0  0
  -22.0220  -12.9070   22.0810 N   0  0  0  0  0  0  0  0  0  0  0  0
  -22.3080  -14.6360   20.7010 O   0  0  0  0  0  0  0  0  0  0  0  0
  -22.3900  -12.0750   22.5170 H   0  0  0  0  0  0  0  0  0  0  0  0
  -21.0870  -13.2110   22.3150 H   0  0  0  0  0  0  0  0  0  0  0  0
  -25.3720  -15.2670   20.3820 N   0  0  0  0  0  0  0  0  0  0  0  0
  -24.6000  -15.9170   20.4880 H   0  0  0  0  0  0  0  0  0  0  0  0
  -26.2000  -15.7000   19.9940 H   0  0  0  0  0  0  0  0  0  0  0  0
  -28.2920  -26.3610   20.3070 O   0  0  0  0  0  0  0  0  0  0  0  0
  -24.6180  -31.9330   23.2570 C   0  0  0  0  0  0  0  0  0  0  0  0
  -27.1840  -27.2570   20.2360 C   0  0  0  0  0  0  0  0  0  0  0  0
  -23.4070  -30.5420   21.6170 C   0  0  0  0  0  3  0  0  0  0  0  0
  -24.8460  -28.9590   20.2000 C   0  0  0  0  0  0  0  0  0  0  0  0
  -25.9570  -30.8110   21.4460 C   0  0  0  0  0  2  0  0  0  0  0  0
  -26.0230  -29.4220   20.8010 C   0  0  0  0  0  0  0  0  0  0  0  0
  -27.1910  -28.5870   20.8000 C   0  0  0  0  0  3  0  0  0  0  0  0
  -25.9790  -26.8680   19.6140 C   0  0  0  0  0  3  0  0  0  0  0  0
  -24.8320  -27.6920   19.5950 C   0  0  0  0  0  3  0  0  0  0  0  0
  -23.6220  -29.8560   20.2420 C   0  0  0  0  0  2  0  0  0  0  0  0
  -24.6810  -31.1160   22.1630 N   0  0  0  0  0  0  0  0  0  0  0  0
  -23.5340  -32.2240   23.7860 O   0  0  0  0  0  0  0  0  0  0  0  0
  -22.7260  -29.5410   22.5830 C   0  0  0  0  0  0  0  0  0  0  0  0
  -21.3990  -29.3770   22.4540 N   0  0  0  0  0  0  0  0  0  0  0  0
  -23.3960  -28.9110   23.4060 O   0  0  0  0  0  0  0  0  0  0  0  0
  -20.9170  -29.9380   21.7650 H   0  0  0  0  0  0  0  0  0  0  0  0
  -18.0090  -28.2070   22.9560 C   0  0  0  0  0  0  0  0  0  0  0  0
  -20.5700  -28.4480   23.2250 C   0  0  0  0  0  3  0  0  0  0  0  0
  -20.6600  -27.0140   22.6510 C   0  0  0  0  0  2  0  0  0  0  0  0
  -19.5550  -26.7030   21.6360 C   0  0  0  0  0  2  0  0  0  0  0  0
  -18.1770  -26.8540   22.2840 C   0  0  0  0  0  2  0  0  0  0  0  0
  -19.1340  -28.9610   23.3840 C   0  0  0  0  0  0  0  0  0  0  0  0
  -18.9250  -30.2250   23.9770 C   0  0  0  0  0  3  0  0  0  0  0  0
  -17.6250  -30.7360   24.1460 C   0  0  0  0  0  3  0  0  0  0  0  0
  -16.5140  -29.9800   23.7300 C   0  0  0  0  0  3  0  0  0  0  0  0
  -16.7070  -28.7180   23.1420 C   0  0  0  0  0  3  0  0  0  0  0  0
  -25.9000  -32.5600   23.8830 C   0  0  0  0  0  3  0  0  0  0  0  0
  -26.4080  -31.7880   25.1630 C   0  0  1  0  0  0  0  0  0  0  0  0
  -25.3100  -31.5570   26.2270 C   0  0  0  0  0  1  0  0  0  0  0  0
  -26.9860  -30.4060   24.7760 C   0  0  0  0  0  1  0  0  0  0  0  0
  -27.5600  -32.5780   25.8270 C   0  0  0  0  0  1  0  0  0  0  0  0
  -25.5960  -33.9600   24.2170 N   0  0  0  0  0  0  0  0  0  0  0  0
  -25.9110  -35.0140   23.4520 C   0  0  0  0  0  0  0  0  0  0  0  0
  -26.5570  -34.9100   22.4060 O   0  0  0  0  0  0  0  0  0  0  0  0
  -25.0160  -34.1140   25.0290 H   0  0  0  0  0  0  0  0  0  0  0  0
  -24.1700  -36.8080   23.1510 C   0  0  0  0  0  1  0  0  0  0  0  0
  -25.4380  -36.4040   23.9210 C   0  0  0  0  0  3  0  0  0  0  0  0
  -27.5940  -37.3000   24.6840 C   0  0  0  0  0  1  0  0  0  0  0  0
  -26.4650  -37.4590   23.7720 N   0  0  0  0  0  0  0  0  0  0  0  0
  -26.0610  -38.3790   23.9240 H   0  0  0  0  0  0  0  0  0  0  0  0
  2  4  1  0
  2  5  1  0
  3  1  1  0
  4  6  1  0
  5  7  1  0
  5  1  1  0
  6 51  1  0
  6  3  1  0
  7  8  1  0
  9  7  1  0
 10  7  1  0
 10 12  1  0
 12 11  1  0
 13 21  1  0
 14 19  1  0
 15 16  1  0
 15 14  1  0
 17 16  1  0
 17 26  1  0
 17 18  1  0
 19 13  1  0
 19 18  1  0
 20 13  2  0
 21 12  1  0
 21 22  1  0
 23 24  2  0
 24 43  1  0
 25 24  1  0
 25 28  1  0
 26 23  1  0
 26 27  1  0
 27 25  2  0
 28 29  1  0
 29 30  2  0
 31 34  1  0
 31 30  1  0
 32 31  2  0
 33 32  1  0
 33 28  2  0
 34 35  1  0
 35 36  1  0
 36 37  2  0
 38 37  1  0
 38 42  1  0
 39 38  2  0
 40 35  2  0
 40 39  1  0
 41 40  1  0
 43 44  1  0
 44 47  1  0
 44 46  1  0
 45 43  2  0
 48 49  1  0
 48 23  1  0
 50 48  1  0
 52 63  2  0
 53 51  1  0
 53 58  1  0
 54 62  1  0
 54 64  1  0
 55 61  1  0
 55 57  1  0
 56 62  1  0
 57 56  1  0
 58 57  2  0
 59 53  2  0
 60 59  1  0
 60 55  2  0
 61 54  1  0
 62 52  1  0
 64 66  2  0
 65 64  1  0
 67 65  1  0
 68 77  2  0
 68 73  1  0
 69 65  1  0
 69 73  1  0
 70 69  1  0
 71 72  1  0
 71 70  1  0
 72 68  1  0
 73 74  2  0
 74 75  1  0
 76 75  2  0
 77 76  1  0
 78 52  1  0
 78 83  1  0
 78 79  1  0
 79 82  1  1
 79 80  1  0
 81 79  1  0
 83 86  1  0
 84 88  1  0
 84 83  1  0
 85 84  2  0
 88 87  1  0
 90 88  1  0
 90 91  1  0
 90 89  1  0
M  ISO  4   6 101  13 100  21 100  51 101
M  END
>  <TORSDO>  (40) 
F 19

>  <SCORE>  (40) 
-14.228

>  <name>  (40) 
39

>  <ligand_id>  (40) 
39

>  <original_smiles>  (40) 
[H]c1c([H])c([H])c2c(c1[H])C([H])([H])C([H])([H])C([H])([H])C2([H])N([H])C(=O)C1([H])N(C(=O)C([H])(N([H])C(=O)C([H])(N([H])C([H])([H])[H])C([H])([H])[H])C(C([H])([H])[H])(C([H])([H])[H])C([H])([H])[H])C([H])([H])c2c([H])c(OC3([H])C([H])([H])C([H])([H])C([H])([N+]([H])([H])C([H])([H])C([H])(N([H])C(=O)N4C([H])([H])C([H])([H])C([H])([H])C([H])(n5nc(-c6c([H])c([H])c(Oc7c([H])c([H])c(F)c([H])c7F)c([H])c6[H])c(C(=O)N([H])[H])c5N([H])[H])C4([H])[H])C([H])([H])[H])C([H])([H])C3([H])[H])c([H])c([H])c2C1([H])[H]

>  <smiles>  (40) 
[H]c1c([H])c([H])c2c(c1[H])C([H])([H])C([H])([H])C([H])([H])C2([H])N([H])C(=O)C1([H])N(C(=O)C([H])(N([H])C(=O)C([H])(N([H])C([H])([H])[H])C([H])([H])[H])C(C([H])([H])[H])(C([H])([H])[H])C([H])([H])[H])C([H])([H])c2c([H])c(OC3([H])C([H])([H])C([H])([H])C([H])([N+]([H])([H])C([H])([H])C([H])(N([H])C(=O)N4C([H])([H])C([H])([H])C([H])([H])C([H])(n5nc(-c6c([H])c([H])c(Oc7c([H])c([H])c(F)c([H])c7F)c([H])c6[H])c(C(=O)N([H])[H])c5N([H])[H])C4([H])[H])C([H])([H])[H])C([H])([H])C3([H])[H])c([H])c([H])c2C1([H])[H]

$$$$
40:0:0
     RDKit          3D

 91 99  0  0  1  0  0  0  0  0999 V2000
  -30.2260  -22.3130   21.6150 C   0  0  0  0  0  1  0  0  0  0  0  0
  -28.9370  -22.1570   20.7870 C   0  0  0  0  0  3  0  0  0  0  0  0
  -29.0070  -20.8310   19.9660 N   0  0  0  0  0  4  0  0  0  0  0  0
  -28.1010  -20.7470   19.5300 H   0  0  0  0  0  0  0  0  0  0  0  0
  -29.6570  -20.9640   19.2080 H   0  0  0  0  0  0  0  0  0  0  0  0
  -30.6740  -14.9270   20.2530 C   0  0  0  0  0  0  0  0  0  0  0  0
  -30.3900  -12.6370   19.2490 C   0  0  0  0  0  2  0  0  0  0  0  0
  -29.4470  -12.6190   18.0280 C   0  0  0  0  0  2  0  0  0  0  0  0
  -27.9980  -12.3950   18.4880 C   0  0  0  0  0  2  0  0  0  0  0  0
  -27.6070  -13.3230   19.6650 C   0  0  0  0  0  3  0  0  0  0  0  0
  -28.6810  -13.3680   20.7780 C   0  0  0  0  0  2  0  0  0  0  0  0
  -29.9490  -13.7460   20.1440 N   0  0  0  0  0  0  0  0  0  0  0  0
  -31.8730  -14.8540   19.9700 O   0  0  0  0  0  0  0  0  0  0  0  0
  -30.7240  -18.8360   20.3330 C   0  0  0  0  0  2  0  0  0  0  0  0
  -28.4230  -18.2230   20.0630 C   0  0  0  0  0  2  0  0  0  0  0  0
  -31.0260  -17.3760   20.9020 C   0  0  0  0  0  2  0  0  0  0  0  0
  -28.7320  -16.7390   20.6000 C   0  0  0  0  0  2  0  0  0  0  0  0
  -29.2980  -19.4250   20.5960 C   0  0  0  0  0  3  0  0  0  0  0  0
  -30.1340  -16.2230   20.5110 N   0  0  0  0  0  0  0  0  0  0  0  0
  -25.2380  -13.9030   20.4390 C   0  0  0  0  0  0  0  0  0  0  0  0
  -24.1840  -13.1220   20.8230 C   0  0  0  0  0  0  0  0  0  0  0  0
  -24.6570  -11.7750   20.7940 C   0  0  0  0  0  0  0  0  0  0  0  0
  -26.2820  -13.0280   20.1890 N   0  0  0  0  0  0  0  0  0  0  0  0
  -25.9450  -11.7450   20.4730 N   0  0  0  0  0  0  0  0  0  0  0  0
  -23.9430  -10.5090   20.9920 C   0  0  0  0  0  0  0  0  0  0  0  0
  -24.3840   -9.5520   21.9330 C   0  0  0  0  0  3  0  0  0  0  0  0
  -23.6680   -8.3500   22.1180 C   0  0  0  0  0  3  0  0  0  0  0  0
  -22.4980   -8.0970   21.3630 C   0  0  0  0  0  0  0  0  0  0  0  0
  -22.0780   -9.0430   20.4110 C   0  0  0  0  0  3  0  0  0  0  0  0
  -22.7940  -10.2360   20.2230 C   0  0  0  0  0  3  0  0  0  0  0  0
  -21.7530   -6.9460   21.4590 O   0  0  0  0  0  0  0  0  0  0  0  0
  -21.7040   -6.2170   22.6190 C   0  0  0  0  0  0  0  0  0  0  0  0
  -21.2510   -6.7780   23.8330 C   0  0  0  0  0  3  0  0  0  0  0  0
  -21.1500   -5.9740   24.9850 C   0  0  0  0  0  3  0  0  0  0  0  0
  -21.4890   -4.6090   24.9250 C   0  0  0  0  0  0  0  0  0  0  0  0
  -21.9350   -4.0480   23.7150 C   0  0  0  0  0  3  0  0  0  0  0  0
  -22.0380   -4.8490   22.5650 C   0  0  0  0  0  0  0  0  0  0  0  0
  -22.4480   -4.2980   21.3970 F   0  0  0  0  0  0  0  0  0  0  0  0
  -21.3850   -3.8350   26.0290 F   0  0  0  0  0  0  0  0  0  0  0  0
  -22.7850  -13.5910   21.1010 C   0  0  0  0  0  0  0  0  0  0  0  0
  -22.0670  -12.8910   21.9720 N   0  0  0  0  0  0  0  0  0  0  0  0
  -22.3380  -14.6130   20.5810 O   0  0  0  0  0  0  0  0  0  0  0  0
  -22.4410  -12.0650   22.4130 H   0  0  0  0  0  0  0  0  0  0  0  0
  -21.1290  -13.1870   22.2000 H   0  0  0  0  0  0  0  0  0  0  0  0
  -25.3850  -15.2740   20.2520 N   0  0  0  0  0  0  0  0  0  0  0  0
  -24.6090  -15.9160   20.3680 H   0  0  0  0  0  0  0  0  0  0  0  0
  -26.2170  -15.7190   19.8890 H   0  0  0  0  0  0  0  0  0  0  0  0
  -28.6030  -23.5940   20.0190 C   0  0  0  0  0  2  0  0  0  0  0  0
  -27.1160  -24.8410   21.7800 C   0  0  0  0  0  1  0  0  0  0  0  0
  -28.3190  -25.0040   20.8320 C   0  0  0  0  0  3  0  0  0  0  0  0
  -28.3610  -26.4060   20.2180 O   0  0  0  0  0  0  0  0  0  0  0  0
  -24.6150  -31.9050   23.2380 C   0  0  0  0  0  0  0  0  0  0  0  0
  -27.2560  -27.3000   20.2080 C   0  0  0  0  0  0  0  0  0  0  0  0
  -23.4290  -30.5010   21.5900 C   0  0  0  0  0  3  0  0  0  0  0  0
  -24.8960  -28.9500   20.1680 C   0  0  0  0  0  0  0  0  0  0  0  0
  -25.9730  -30.8180   21.4240 C   0  0  0  0  0  2  0  0  0  0  0  0
  -26.0630  -29.4330   20.7770 C   0  0  0  0  0  0  0  0  0  0  0  0
  -27.2470  -28.6210   20.7800 C   0  0  0  0  0  3  0  0  0  0  0  0
  -26.0720  -26.8940   19.5600 C   0  0  0  0  0  3  0  0  0  0  0  0
  -24.9070  -27.6910   19.5480 C   0  0  0  0  0  3  0  0  0  0  0  0
  -23.6570  -29.8270   20.2110 C   0  0  0  0  0  2  0  0  0  0  0  0
  -24.6910  -31.0950   22.1410 N   0  0  0  0  0  0  0  0  0  0  0  0
  -23.5260  -32.1760   23.7680 O   0  0  0  0  0  0  0  0  0  0  0  0
  -22.7650  -29.4830   22.5490 C   0  0  0  0  0  0  0  0  0  0  0  0
  -21.4390  -29.3020   22.4190 N   0  0  0  0  0  0  0  0  0  0  0  0
  -23.4410  -28.8590   23.3690 O   0  0  0  0  0  0  0  0  0  0  0  0
  -20.9490  -29.8570   21.7300 H   0  0  0  0  0  0  0  0  0  0  0  0
  -18.0650  -28.0920   22.9170 C   0  0  0  0  0  0  0  0  0  0  0  0
  -20.6220  -28.3570   23.1850 C   0  0  0  0  0  3  0  0  0  0  0  0
  -20.7270  -26.9300   22.5990 C   0  0  0  0  0  2  0  0  0  0  0  0
  -19.6250  -26.6110   21.5850 C   0  0  0  0  0  2  0  0  0  0  0  0
  -18.2430  -26.7480   22.2310 C   0  0  0  0  0  2  0  0  0  0  0  0
  -19.1810  -28.8540   23.3510 C   0  0  0  0  0  0  0  0  0  0  0  0
  -18.9590  -30.1120   23.9530 C   0  0  0  0  0  3  0  0  0  0  0  0
  -17.6530  -30.6070   24.1260 C   0  0  0  0  0  3  0  0  0  0  0  0
  -16.5510  -29.8420   23.7090 C   0  0  0  0  0  3  0  0  0  0  0  0
  -16.7570  -28.5860   23.1090 C   0  0  0  0  0  3  0  0  0  0  0  0
  -25.8890  -32.5470   23.8700 C   0  0  0  0  0  3  0  0  0  0  0  0
  -26.3930  -31.7880   25.1590 C   0  0  1  0  0  0  0  0  0  0  0  0
  -25.2880  -31.5580   26.2160 C   0  0  0  0  0  1  0  0  0  0  0  0
  -26.9820  -30.4080   24.7870 C   0  0  0  0  0  1  0  0  0  0  0  0
  -27.5340  -32.5900   25.8260 C   0  0  0  0  0  1  0  0  0  0  0  0
  -25.5710  -33.9470   24.1880 N   0  0  0  0  0  0  0  0  0  0  0  0
  -25.9110  -34.9990   23.4300 C   0  0  0  0  0  0  0  0  0  0  0  0
  -26.5920  -34.8910   22.4050 O   0  0  0  0  0  0  0  0  0  0  0  0
  -24.9680  -34.1050   24.9810 H   0  0  0  0  0  0  0  0  0  0  0  0
  -24.1870  -36.7910   23.0490 C   0  0  0  0  0  1  0  0  0  0  0  0
  -25.4180  -36.3880   23.8760 C   0  0  0  0  0  3  0  0  0  0  0  0
  -27.5410  -37.2800   24.7320 C   0  0  0  0  0  1  0  0  0  0  0  0
  -26.4520  -37.4420   23.7720 N   0  0  0  0  0  0  0  0  0  0  0  0
  -26.0430  -38.3630   23.9080 H   0  0  0  0  0  0  0  0  0  0  0  0
  2  1  1  0
  3  2  1  0
  4  3  1  0
  5  3  1  0
  6 19  1  0
  7 12  1  0
  8  9  1  0
  8  7  1  0
 10  9  1  0
 10 23  1  0
 10 11  1  0
 12  6  1  0
 12 11  1  0
 13  6  2  0
 14 18  1  0
 14 16  1  0
 15 18  1  0
 15 17  1  0
 18  3  1  0
 19 17  1  0
 19 16  1  0
 20 21  2  0
 21 40  1  0
 22 21  1  0
 22 25  1  0
 23 20  1  0
 23 24  1  0
 24 22  2  0
 25 26  1  0
 26 27  2  0
 28 31  1  0
 28 27  1  0
 29 28  2  0
 30 29  1  0
 30 25  2  0
 31 32  1  0
 32 33  1  0
 33 34  2  0
 35 34  1  0
 35 39  1  0
 36 35  2  0
 37 32  2  0
 37 36  1  0
 38 37  1  0
 40 41  1  0
 41 44  1  0
 41 43  1  0
 42 40  2  0
 45 46  1  0
 45 20  1  0
 47 45  1  0
 48  2  1  0
 48 50  1  0
 50 49  1  0
 51 50  1  0
 52 63  2  0
 53 51  1  0
 53 58  1  0
 54 62  1  0
 54 64  1  0
 55 61  1  0
 55 57  1  0
 56 62  1  0
 57 58  2  0
 57 56  1  0
 59 53  2  0
 60 59  1  0
 60 55  2  0
 61 54  1  0
 62 52  1  0
 64 66  2  0
 65 64  1  0
 67 65  1  0
 68 77  2  0
 68 73  1  0
 69 65  1  0
 69 73  1  0
 70 69  1  0
 71 72  1  0
 71 70  1  0
 72 68  1  0
 73 74  2  0
 74 75  1  0
 76 75  2  0
 77 76  1  0
 78 52  1  0
 78 83  1  0
 78 79  1  0
 79 82  1  1
 79 80  1  0
 81 79  1  0
 83 86  1  0
 84 88  1  0
 84 83  1  0
 85 84  2  0
 88 87  1  0
 90 88  1  0
 90 91  1  0
 90 89  1  0
M  ISO  4   6 100  19 100  50 101  51 101
M  END
>  <TORSDO>  (41) 
F 19

>  <SCORE>  (41) 
-14.434

>  <name>  (41) 
40

>  <ligand_id>  (41) 
40

>  <original_smiles>  (41) 
[H]c1c([H])c([H])c2c(c1[H])C([H])([H])C([H])([H])C([H])([H])C2([H])N([H])C(=O)C1([H])N(C(=O)C([H])(N([H])C(=O)C([H])(N([H])C([H])([H])[H])C([H])([H])[H])C(C([H])([H])[H])(C([H])([H])[H])C([H])([H])[H])C([H])([H])c2c([H])c(OC([H])(C([H])([H])[H])C([H])([H])C([H])(C([H])([H])[H])[N+]([H])([H])C3([H])C([H])([H])C([H])([H])N(C(=O)N4C([H])([H])C([H])([H])C([H])([H])C([H])(n5nc(-c6c([H])c([H])c(Oc7c([H])c([H])c(F)c([H])c7F)c([H])c6[H])c(C(=O)N([H])[H])c5N([H])[H])C4([H])[H])C([H])([H])C3([H])[H])c([H])c([H])c2C1([H])[H]

>  <smiles>  (41) 
[H]c1c([H])c([H])c2c(c1[H])C([H])([H])C([H])([H])C([H])([H])C2([H])N([H])C(=O)C1([H])N(C(=O)C([H])(N([H])C(=O)C([H])(N([H])C([H])([H])[H])C([H])([H])[H])C(C([H])([H])[H])(C([H])([H])[H])C([H])([H])[H])C([H])([H])c2c([H])c(OC([H])(C([H])([H])[H])C([H])([H])C([H])(C([H])([H])[H])[N+]([H])([H])C3([H])C([H])([H])C([H])([H])N(C(=O)N4C([H])([H])C([H])([H])C([H])([H])C([H])(n5nc(-c6c([H])c([H])c(Oc7c([H])c([H])c(F)c([H])c7F)c([H])c6[H])c(C(=O)N([H])[H])c5N([H])[H])C4([H])[H])C([H])([H])C3([H])[H])c([H])c([H])c2C1([H])[H]

$$$$
41:0:0
     RDKit          3D

 97106  0  0  1  0  0  0  0  0999 V2000
  -30.1460  -22.3120   20.1590 C   0  0  0  0  0  2  0  0  0  0  0  0
  -27.7010  -21.8960   19.7310 C   0  0  0  0  0  2  0  0  0  0  0  0
  -29.9700  -20.9540   20.9090 C   0  0  0  0  0  2  0  0  0  0  0  0
  -27.9930  -20.3940   19.5140 C   0  0  0  0  0  2  0  0  0  0  0  0
  -28.9060  -22.7560   19.3350 C   0  0  0  0  0  3  0  0  0  0  0  0
  -29.2970  -19.9130   20.0750 N   0  0  2  0  0  4  0  0  0  0  0  0
  -29.9130  -19.7860   19.2840 H   0  0  0  0  0  0  0  0  0  0  0  0
  -30.7580  -14.5020   20.2350 C   0  0  0  0  0  0  0  0  0  0  0  0
  -30.4020  -12.3470   19.1070 C   0  0  0  0  0  2  0  0  0  0  0  0
  -29.4250  -12.5480   17.9320 C   0  0  0  0  0  2  0  0  0  0  0  0
  -27.9630  -12.4220   18.4100 C   0  0  0  0  0  2  0  0  0  0  0  0
  -27.6600  -13.2630   19.6800 C   0  0  0  0  0  3  0  0  0  0  0  0
  -28.7540  -13.0630   20.7540 C   0  0  0  0  0  2  0  0  0  0  0  0
  -30.0580  -13.3430   20.1320 N   0  0  0  0  0  0  0  0  0  0  0  0
  -31.9210  -14.6270   19.8420 O   0  0  0  0  0  0  0  0  0  0  0  0
  -30.4680  -17.9820   21.3330 C   0  0  0  0  0  2  0  0  0  0  0  0
  -28.5950  -17.4970   19.6920 C   0  0  0  0  0  2  0  0  0  0  0  0
  -30.3810  -16.4630   21.6550 C   0  0  0  0  0  2  0  0  0  0  0  0
  -29.5870  -16.3810   19.3180 C   0  0  0  0  0  2  0  0  0  0  0  0
  -29.1700  -18.5420   20.6900 C   0  0  0  0  0  3  0  0  0  0  0  0
  -30.0260  -15.6130   20.4980 N   0  0  0  0  0  0  0  0  0  0  0  0
  -25.2880  -13.8820   20.4640 C   0  0  0  0  0  0  0  0  0  0  0  0
  -24.2190  -13.1170   20.8460 C   0  0  0  0  0  0  0  0  0  0  0  0
  -24.6700  -11.7630   20.7920 C   0  0  0  0  0  0  0  0  0  0  0  0
  -26.3200  -12.9950   20.1960 N   0  0  0  0  0  0  0  0  0  0  0  0
  -25.9520  -11.7140   20.4550 N   0  0  0  0  0  0  0  0  0  0  0  0
  -23.9400  -10.5030   20.9870 C   0  0  0  0  0  0  0  0  0  0  0  0
  -24.3750   -9.5380   21.9250 C   0  0  0  0  0  3  0  0  0  0  0  0
  -23.6490   -8.3410   22.1050 C   0  0  0  0  0  3  0  0  0  0  0  0
  -22.4770   -8.1000   21.3480 C   0  0  0  0  0  0  0  0  0  0  0  0
  -22.0620   -9.0560   20.4040 C   0  0  0  0  0  3  0  0  0  0  0  0
  -22.7880  -10.2450   20.2230 C   0  0  0  0  0  3  0  0  0  0  0  0
  -21.7210   -6.9570   21.4370 O   0  0  0  0  0  0  0  0  0  0  0  0
  -21.6560   -6.2290   22.5980 C   0  0  0  0  0  0  0  0  0  0  0  0
  -21.1760   -6.7880   23.8020 C   0  0  0  0  0  3  0  0  0  0  0  0
  -21.0620   -5.9850   24.9540 C   0  0  0  0  0  3  0  0  0  0  0  0
  -21.4150   -4.6230   24.9010 C   0  0  0  0  0  0  0  0  0  0  0  0
  -21.8870   -4.0630   23.7010 C   0  0  0  0  0  3  0  0  0  0  0  0
  -22.0050   -4.8640   22.5530 C   0  0  0  0  0  0  0  0  0  0  0  0
  -22.4440   -4.3160   21.3930 F   0  0  0  0  0  0  0  0  0  0  0  0
  -21.2990   -3.8500   26.0060 F   0  0  0  0  0  0  0  0  0  0  0  0
  -22.8320  -13.6030   21.1530 C   0  0  0  0  0  0  0  0  0  0  0  0
  -22.1130  -12.9030   22.0240 N   0  0  0  0  0  0  0  0  0  0  0  0
  -22.3940  -14.6410   20.6630 O   0  0  0  0  0  0  0  0  0  0  0  0
  -22.4770  -12.0630   22.4470 H   0  0  0  0  0  0  0  0  0  0  0  0
  -21.1890  -13.2230   22.2780 H   0  0  0  0  0  0  0  0  0  0  0  0
  -25.4560  -15.2530   20.2950 N   0  0  0  0  0  0  0  0  0  0  0  0
  -24.6870  -15.9000   20.4110 H   0  0  0  0  0  0  0  0  0  0  0  0
  -26.2940  -15.6820   19.9250 H   0  0  0  0  0  0  0  0  0  0  0  0
  -28.5890  -24.2160   19.4290 N   0  0  0  0  0  4  0  0  0  0  0  0
  -28.6220  -24.5080   20.3980 H   0  0  0  0  0  0  0  0  0  0  0  0
  -27.6330  -24.3370   19.1360 H   0  0  0  0  0  0  0  0  0  0  0  0
  -29.2090  -24.9830   17.1140 C   0  0  0  0  0  1  0  0  0  0  0  0
  -29.4210  -25.1690   18.6330 C   0  0  0  0  0  3  0  0  0  0  0  0
  -30.3880  -27.4940   19.2020 C   0  0  0  0  0  1  0  0  0  0  0  0
  -29.1190  -26.6550   19.0010 C   0  0  0  0  0  3  0  0  0  0  0  0
  -28.3860  -26.7430   20.2150 O   0  0  0  0  0  0  0  0  0  0  0  0
  -24.5360  -31.8850   23.2110 C   0  0  0  0  0  0  0  0  0  0  0  0
  -27.2280  -27.4810   20.1600 C   0  0  0  0  0  0  0  0  0  0  0  0
  -23.3490  -30.4770   21.5570 C   0  0  0  0  0  3  0  0  0  0  0  0
  -24.8240  -28.9540   20.1380 C   0  0  0  0  0  0  0  0  0  0  0  0
  -25.8690  -30.8590   21.3760 C   0  0  0  0  0  2  0  0  0  0  0  0
  -25.9670  -29.4890   20.7440 C   0  0  0  0  0  0  0  0  0  0  0  0
  -27.1720  -28.7540   20.7650 C   0  0  0  0  0  3  0  0  0  0  0  0
  -26.0730  -26.9530   19.5440 C   0  0  0  0  0  3  0  0  0  0  0  0
  -24.8690  -27.6830   19.5360 C   0  0  0  0  0  3  0  0  0  0  0  0
  -23.5710  -29.8000   20.1780 C   0  0  0  0  0  2  0  0  0  0  0  0
  -24.6020  -31.0870   22.1070 N   0  0  0  0  0  0  0  0  0  0  0  0
  -23.4530  -32.1500   23.7470 O   0  0  0  0  0  0  0  0  0  0  0  0
  -22.6990  -29.4500   22.5130 C   0  0  0  0  0  0  0  0  0  0  0  0
  -21.3740  -29.2750   22.3890 N   0  0  0  0  0  0  0  0  0  0  0  0
  -23.3840  -28.8140   23.3200 O   0  0  0  0  0  0  0  0  0  0  0  0
  -20.8850  -29.8400   21.7090 H   0  0  0  0  0  0  0  0  0  0  0  0
  -17.9880  -28.1280   22.9160 C   0  0  0  0  0  0  0  0  0  0  0  0
  -20.5540  -28.3370   23.1540 C   0  0  0  0  0  3  0  0  0  0  0  0
  -20.6240  -26.9160   22.5500 C   0  0  0  0  0  2  0  0  0  0  0  0
  -19.5020  -26.6320   21.5470 C   0  0  0  0  0  2  0  0  0  0  0  0
  -18.1320  -26.7880   22.2140 C   0  0  0  0  0  2  0  0  0  0  0  0
  -19.1260  -28.8630   23.3420 C   0  0  0  0  0  0  0  0  0  0  0  0
  -18.9390  -30.1180   23.9580 C   0  0  0  0  0  3  0  0  0  0  0  0
  -17.6450  -30.6400   24.1530 C   0  0  0  0  0  3  0  0  0  0  0  0
  -16.5220  -29.9010   23.7430 C   0  0  0  0  0  3  0  0  0  0  0  0
  -16.6950  -28.6480   23.1290 C   0  0  0  0  0  3  0  0  0  0  0  0
  -25.8190  -32.5190   23.8380 C   0  0  0  0  0  3  0  0  0  0  0  0
  -26.3350  -31.7490   25.1150 C   0  0  1  0  0  0  0  0  0  0  0  0
  -25.2390  -31.5000   26.1770 C   0  0  0  0  0  1  0  0  0  0  0  0
  -26.9310  -30.3760   24.7210 C   0  0  0  0  0  1  0  0  0  0  0  0
  -27.4780  -32.5480   25.7840 C   0  0  0  0  0  1  0  0  0  0  0  0
  -25.5070  -33.9170   24.1630 N   0  0  0  0  0  0  0  0  0  0  0  0
  -25.8510  -34.9680   23.4070 C   0  0  0  0  0  0  0  0  0  0  0  0
  -26.5380  -34.8630   22.3870 O   0  0  0  0  0  0  0  0  0  0  0  0
  -24.9030  -34.0730   24.9570 H   0  0  0  0  0  0  0  0  0  0  0  0
  -24.1440  -36.7680   22.9990 C   0  0  0  0  0  1  0  0  0  0  0  0
  -25.3540  -36.3550   23.8530 C   0  0  0  0  0  3  0  0  0  0  0  0
  -27.4590  -37.2280   24.7660 C   0  0  0  0  0  1  0  0  0  0  0  0
  -26.3950  -37.4050   23.7830 N   0  0  0  0  0  0  0  0  0  0  0  0
  -25.9870  -38.3250   23.9180 H   0  0  0  0  0  0  0  0  0  0  0  0
  1  3  1  0
  4  2  1  0
  4  6  1  0
  5 50  1  0
  5  2  1  0
  5  1  1  0
  6  7  1  6
  6 20  1  0
  6  3  1  0
  8 21  1  0
  9 14  1  0
 10 11  1  0
 10  9  1  0
 12 11  1  0
 12 25  1  0
 12 13  1  0
 14  8  1  0
 14 13  1  0
 15  8  2  0
 16 18  1  0
 19 17  1  0
 19 21  1  0
 20 17  1  0
 20 16  1  0
 21 18  1  0
 22 23  2  0
 23 42  1  0
 24 23  1  0
 24 27  1  0
 25 26  1  0
 25 22  1  0
 26 24  2  0
 27 28  1  0
 28 29  2  0
 30 33  1  0
 30 29  1  0
 31 30  2  0
 32 31  1  0
 32 27  2  0
 33 34  1  0
 34 35  1  0
 35 36  2  0
 37 36  1  0
 37 41  1  0
 38 37  2  0
 39 34  2  0
 39 38  1  0
 40 39  1  0
 42 43  1  0
 43 46  1  0
 43 45  1  0
 44 42  2  0
 47 48  1  0
 47 22  1  0
 49 47  1  0
 50 51  1  0
 52 50  1  0
 54 53  1  0
 54 56  1  0
 54 50  1  0
 56 55  1  0
 56 57  1  0
 58 69  2  0
 59 57  1  0
 59 64  1  0
 60 68  1  0
 60 70  1  0
 61 67  1  0
 61 63  1  0
 62 68  1  0
 63 64  2  0
 63 62  1  0
 65 59  2  0
 66 65  1  0
 66 61  2  0
 67 60  1  0
 68 58  1  0
 70 72  2  0
 71 70  1  0
 73 71  1  0
 74 83  2  0
 74 79  1  0
 75 71  1  0
 75 79  1  0
 76 75  1  0
 77 78  1  0
 77 76  1  0
 78 74  1  0
 79 80  2  0
 80 81  1  0
 82 81  2  0
 83 82  1  0
 84 58  1  0
 84 89  1  0
 84 85  1  0
 85 88  1  1
 85 86  1  0
 87 85  1  0
 89 92  1  0
 90 94  1  0
 90 89  1  0
 91 90  2  0
 94 93  1  0
 96 94  1  0
 96 97  1  0
 96 95  1  0
M  ISO  4   8 100  21 100  56 101  57 101
M  END
>  <TORSDO>  (42) 
F 19

>  <SCORE>  (42) 
-14.690

>  <name>  (42) 
41

>  <ligand_id>  (42) 
41

>  <original_smiles>  (42) 
[H]c1c([H])c([H])c2c(c1[H])C([H])([H])C([H])([H])C([H])([H])C2([H])N([H])C(=O)C1([H])N(C(=O)C([H])(N([H])C(=O)C([H])(N([H])C([H])([H])[H])C([H])([H])[H])C(C([H])([H])[H])(C([H])([H])[H])C([H])([H])[H])C([H])([H])c2c([H])c(OC([H])(C([H])([H])[H])C([H])(C([H])([H])[H])[N+]([H])([H])C3([H])C([H])([H])C([H])([H])[N+]([H])(C4([H])C([H])([H])C([H])([H])N(C(=O)N5C([H])([H])C([H])([H])C([H])([H])C([H])(n6nc(-c7c([H])c([H])c(Oc8c([H])c([H])c(F)c([H])c8F)c([H])c7[H])c(C(=O)N([H])[H])c6N([H])[H])C5([H])[H])C([H])([H])C4([H])[H])C([H])([H])C3([H])[H])c([H])c([H])c2C1([H])[H]

>  <smiles>  (42) 
[H]c1c([H])c([H])c2c(c1[H])C([H])([H])C([H])([H])C([H])([H])C2([H])N([H])C(=O)C1([H])N(C(=O)C([H])(N([H])C(=O)C([H])(N([H])C([H])([H])[H])C([H])([H])[H])C(C([H])([H])[H])(C([H])([H])[H])C([H])([H])[H])C([H])([H])c2c([H])c(OC([H])(C([H])([H])[H])C([H])(C([H])([H])[H])[N+]([H])([H])C3([H])C([H])([H])C([H])([H])[N+]([H])(C4([H])C([H])([H])C([H])([H])N(C(=O)N5C([H])([H])C([H])([H])C([H])([H])C([H])(n6nc(-c7c([H])c([H])c(Oc8c([H])c([H])c(F)c([H])c8F)c([H])c7[H])c(C(=O)N([H])[H])c6N([H])[H])C5([H])[H])C([H])([H])C4([H])[H])C([H])([H])C3([H])[H])c([H])c([H])c2C1([H])[H]

$$$$
42:0:0
     RDKit          3D

 91 99  0  0  1  0  0  0  0  0999 V2000
  -28.0070  -23.0670   20.4410 C   0  0  0  0  0  3  0  0  0  0  0  0
  -29.2750  -21.0220   18.8880 C   0  0  0  0  0  3  0  0  0  0  0  0
  -28.5700  -20.2410   20.7350 C   0  0  0  0  0  3  0  0  0  0  0  0
  -28.6210  -21.5140   20.0720 C   0  0  0  0  0  0  0  0  0  0  0  0
  -29.5390  -19.6880   18.8600 N   0  0  0  0  0  0  0  0  0  0  0  0
  -29.1250  -19.0990   20.0220 N   0  0  0  0  0  0  0  0  0  0  0  0
  -29.0330  -17.4830   20.1820 C   0  0  0  0  0  2  0  0  0  0  0  0
  -30.6820  -15.1100   20.2200 C   0  0  0  0  0  0  0  0  0  0  0  0
  -30.4390  -12.6900   19.4760 C   0  0  0  0  0  2  0  0  0  0  0  0
  -29.6320  -12.5900   18.1550 C   0  0  0  0  0  2  0  0  0  0  0  0
  -28.1050  -12.8590   18.3890 C   0  0  0  0  0  2  0  0  0  0  0  0
  -27.7640  -12.8710   19.8920 C   0  0  0  0  0  3  0  0  0  0  0  0
  -28.6780  -13.6410   20.8520 C   0  0  0  0  0  2  0  0  0  0  0  0
  -29.9580  -13.9210   20.2020 N   0  0  0  0  0  0  0  0  0  0  0  0
  -31.8850  -14.9740   20.0090 O   0  0  0  0  0  0  0  0  0  0  0  0
  -30.2430  -16.4790   20.3500 N   0  0  0  0  0  0  0  0  0  0  0  0
  -31.0770  -17.0320   20.4730 H   0  0  0  0  0  0  0  0  0  0  0  0
  -25.3440  -13.8090   20.4000 C   0  0  0  0  0  0  0  0  0  0  0  0
  -24.2440  -13.0850   20.7870 C   0  0  0  0  0  0  0  0  0  0  0  0
  -24.6620  -11.7210   20.8260 C   0  0  0  0  0  0  0  0  0  0  0  0
  -26.3550  -12.8630   20.2510 N   0  0  0  0  0  0  0  0  0  0  0  0
  -25.9230  -11.6200   20.5310 N   0  0  0  0  0  0  0  0  0  0  0  0
  -23.9560  -10.4690   21.0280 C   0  0  0  0  0  0  0  0  0  0  0  0
  -24.4020   -9.5090   21.9700 C   0  0  0  0  0  3  0  0  0  0  0  0
  -23.6850   -8.3070   22.1430 C   0  0  0  0  0  3  0  0  0  0  0  0
  -22.5340   -8.0570   21.3580 C   0  0  0  0  0  0  0  0  0  0  0  0
  -22.1200   -9.0040   20.4010 C   0  0  0  0  0  3  0  0  0  0  0  0
  -22.8340  -10.1930   20.2280 C   0  0  0  0  0  3  0  0  0  0  0  0
  -21.7910   -6.9020   21.4420 O   0  0  0  0  0  0  0  0  0  0  0  0
  -21.7060   -6.1890   22.6040 C   0  0  0  0  0  0  0  0  0  0  0  0
  -21.2320   -6.7620   23.8050 C   0  0  0  0  0  3  0  0  0  0  0  0
  -21.1060   -5.9660   24.9610 C   0  0  0  0  0  3  0  0  0  0  0  0
  -21.4520   -4.6030   24.9190 C   0  0  0  0  0  0  0  0  0  0  0  0
  -21.9240   -4.0310   23.7250 C   0  0  0  0  0  3  0  0  0  0  0  0
  -22.0570   -4.8220   22.5680 C   0  0  0  0  0  0  0  0  0  0  0  0
  -22.4890   -4.2610   21.4150 F   0  0  0  0  0  0  0  0  0  0  0  0
  -21.3210   -3.8400   26.0260 F   0  0  0  0  0  0  0  0  0  0  0  0
  -22.8530  -13.5930   21.0390 C   0  0  0  0  0  0  0  0  0  0  0  0
  -22.1080  -12.9220   21.9040 N   0  0  0  0  0  0  0  0  0  0  0  0
  -22.4330  -14.6170   20.5090 O   0  0  0  0  0  0  0  0  0  0  0  0
  -22.4540  -12.0760   22.3370 H   0  0  0  0  0  0  0  0  0  0  0  0
  -21.1770  -13.2410   22.1300 H   0  0  0  0  0  0  0  0  0  0  0  0
  -25.5410  -15.1740   20.1790 N   0  0  0  0  0  0  0  0  0  0  0  0
  -24.7570  -15.8190   20.2330 H   0  0  0  0  0  0  0  0  0  0  0  0
  -26.4000  -15.5990   19.8560 H   0  0  0  0  0  0  0  0  0  0  0  0
  -27.8220  -23.1650   21.8990 N   0  0  0  0  0  4  0  0  0  0  0  0
  -28.7010  -23.1830   22.3890 H   0  0  0  0  0  0  0  0  0  0  0  0
  -27.3070  -23.9950   22.1250 H   0  0  0  0  0  0  0  0  0  0  0  0
  -27.2780  -22.3880   22.2310 H   0  0  0  0  0  0  0  0  0  0  0  0
  -28.3980  -24.6220   19.7960 C   0  0  0  0  0  2  0  0  0  0  0  0
  -28.2280  -26.1210   20.3180 O   0  0  0  0  0  0  0  0  0  0  0  0
  -24.6110  -31.8810   23.2390 C   0  0  0  0  0  0  0  0  0  0  0  0
  -27.1690  -27.1100   20.1880 C   0  0  0  0  0  0  0  0  0  0  0  0
  -23.4100  -30.4830   21.6080 C   0  0  0  0  0  3  0  0  0  0  0  0
  -24.8500  -28.9030   20.1580 C   0  0  0  0  0  0  0  0  0  0  0  0
  -25.9650  -30.7300   21.4310 C   0  0  0  0  0  2  0  0  0  0  0  0
  -26.0320  -29.3340   20.7700 C   0  0  0  0  0  0  0  0  0  0  0  0
  -27.1830  -28.4550   20.7690 C   0  0  0  0  0  3  0  0  0  0  0  0
  -25.9630  -26.7930   19.5260 C   0  0  0  0  0  3  0  0  0  0  0  0
  -24.8340  -27.6520   19.5160 C   0  0  0  0  0  3  0  0  0  0  0  0
  -23.6230  -29.8120   20.2240 C   0  0  0  0  0  2  0  0  0  0  0  0
  -24.6850  -31.0520   22.1480 N   0  0  0  0  0  0  0  0  0  0  0  0
  -23.5260  -32.1620   23.7700 O   0  0  0  0  0  0  0  0  0  0  0  0
  -22.7370  -29.4700   22.5680 C   0  0  0  0  0  0  0  0  0  0  0  0
  -21.4110  -29.2900   22.4390 N   0  0  0  0  0  0  0  0  0  0  0  0
  -23.4150  -28.8460   23.3910 O   0  0  0  0  0  0  0  0  0  0  0  0
  -20.9200  -29.8440   21.7520 H   0  0  0  0  0  0  0  0  0  0  0  0
  -18.0380  -28.0690   22.9440 C   0  0  0  0  0  0  0  0  0  0  0  0
  -20.5940  -28.3510   23.2130 C   0  0  0  0  0  3  0  0  0  0  0  0
  -20.7070  -26.9170   22.6430 C   0  0  0  0  0  2  0  0  0  0  0  0
  -19.6100  -26.5840   21.6270 C   0  0  0  0  0  2  0  0  0  0  0  0
  -18.2240  -26.7200   22.2690 C   0  0  0  0  0  2  0  0  0  0  0  0
  -19.1510  -28.8420   23.3720 C   0  0  0  0  0  0  0  0  0  0  0  0
  -18.9210  -30.1020   23.9640 C   0  0  0  0  0  3  0  0  0  0  0  0
  -17.6120  -30.5920   24.1300 C   0  0  0  0  0  3  0  0  0  0  0  0
  -16.5140  -29.8170   23.7160 C   0  0  0  0  0  3  0  0  0  0  0  0
  -16.7280  -28.5570   23.1300 C   0  0  0  0  0  3  0  0  0  0  0  0
  -25.8840  -32.5230   23.8610 C   0  0  0  0  0  3  0  0  0  0  0  0
  -26.3920  -31.7640   25.1510 C   0  0  1  0  0  0  0  0  0  0  0  0
  -25.2900  -31.5350   26.2150 C   0  0  0  0  0  1  0  0  0  0  0  0
  -26.9750  -30.3830   24.7770 C   0  0  0  0  0  1  0  0  0  0  0  0
  -27.5440  -32.5630   25.8080 C   0  0  0  0  0  1  0  0  0  0  0  0
  -25.5720  -33.9250   24.1860 N   0  0  0  0  0  0  0  0  0  0  0  0
  -25.9100  -34.9790   23.4290 C   0  0  0  0  0  0  0  0  0  0  0  0
  -26.5830  -34.8740   22.4020 O   0  0  0  0  0  0  0  0  0  0  0  0
  -24.9750  -34.0810   24.9840 H   0  0  0  0  0  0  0  0  0  0  0  0
  -24.1910  -36.7790   23.0600 C   0  0  0  0  0  1  0  0  0  0  0  0
  -25.4250  -36.3720   23.8840 C   0  0  0  0  0  3  0  0  0  0  0  0
  -27.5550  -37.2490   24.7330 C   0  0  0  0  0  1  0  0  0  0  0  0
  -26.4660  -37.4220   23.7750 N   0  0  0  0  0  0  0  0  0  0  0  0
  -26.0650  -38.3470   23.9170 H   0  0  0  0  0  0  0  0  0  0  0  0
  1 50  1  0
  1 46  1  0
  2  4  1  0
  4  1  1  0
  4  3  2  0
  5  2  2  0
  5  6  1  0
  6  7  1  0
  6  3  1  0
  7 16  1  0
  8 16  1  0
  9 14  1  0
 10 11  1  0
 10  9  1  0
 12 11  1  0
 12 21  1  0
 12 13  1  0
 14  8  1  0
 14 13  1  0
 15  8  2  0
 16 17  1  0
 18 19  2  0
 19 20  1  0
 19 38  1  0
 20 23  1  0
 21 18  1  0
 21 22  1  0
 22 20  2  0
 23 24  1  0
 24 25  2  0
 26 29  1  0
 26 25  1  0
 27 26  2  0
 28 27  1  0
 28 23  2  0
 29 30  1  0
 30 31  1  0
 31 32  2  0
 33 32  1  0
 33 37  1  0
 34 33  2  0
 35 30  2  0
 35 34  1  0
 36 35  1  0
 38 39  1  0
 39 42  1  0
 39 41  1  0
 40 38  2  0
 43 44  1  0
 43 18  1  0
 45 43  1  0
 46 48  1  0
 46 49  1  0
 46 47  1  0
 50 51  1  0
 52 63  2  0
 53 51  1  0
 53 58  1  0
 54 62  1  0
 54 64  1  0
 55 61  1  0
 55 57  1  0
 56 62  1  0
 57 56  1  0
 58 57  2  0
 59 53  2  0
 60 59  1  0
 60 55  2  0
 61 54  1  0
 62 52  1  0
 64 66  2  0
 65 64  1  0
 67 65  1  0
 68 77  2  0
 68 73  1  0
 69 65  1  0
 69 73  1  0
 70 69  1  0
 71 72  1  0
 71 70  1  0
 72 68  1  0
 73 74  2  0
 74 75  1  0
 76 75  2  0
 77 76  1  0
 78 52  1  0
 78 83  1  0
 78 79  1  0
 79 82  1  1
 79 80  1  0
 81 79  1  0
 83 86  1  0
 84 88  1  0
 84 83  1  0
 85 84  2  0
 88 87  1  0
 90 88  1  0
 90 91  1  0
 90 89  1  0
M  ISO  4   8 100  16 100  50 101  51 101
M  END
>  <TORSDO>  (43) 
F 20

>  <SCORE>  (43) 
-15.311

>  <name>  (43) 
42

>  <ligand_id>  (43) 
42

>  <original_smiles>  (43) 
[H]c1nn(C([H])([H])N([H])C(=O)N2C([H])([H])C([H])([H])C([H])([H])C([H])(n3nc(-c4c([H])c([H])c(Oc5c([H])c([H])c(F)c([H])c5F)c([H])c4[H])c(C(=O)N([H])[H])c3N([H])[H])C2([H])[H])c([H])c1C([H])(C([H])([H])Oc1c([H])c([H])c2c(c1[H])C([H])([H])N(C(=O)C([H])(N([H])C(=O)C([H])(N([H])C([H])([H])[H])C([H])([H])[H])C(C([H])([H])[H])(C([H])([H])[H])C([H])([H])[H])C([H])(C(=O)N([H])C1([H])c3c([H])c([H])c([H])c([H])c3C([H])([H])C([H])([H])C1([H])[H])C2([H])[H])[N+]([H])([H])[H]

>  <smiles>  (43) 
[H]c1nn(C([H])([H])N([H])C(=O)N2C([H])([H])C([H])([H])C([H])([H])C([H])(n3nc(-c4c([H])c([H])c(Oc5c([H])c([H])c(F)c([H])c5F)c([H])c4[H])c(C(=O)N([H])[H])c3N([H])[H])C2([H])[H])c([H])c1C([H])(C([H])([H])Oc1c([H])c([H])c2c(c1[H])C([H])([H])N(C(=O)C([H])(N([H])C(=O)C([H])(N([H])C([H])([H])[H])C([H])([H])[H])C(C([H])([H])[H])(C([H])([H])[H])C([H])([H])[H])C([H])(C(=O)N([H])C1([H])c3c([H])c([H])c([H])c([H])c3C([H])([H])C([H])([H])C1([H])[H])C2([H])[H])[N+]([H])([H])[H]

$$$$
43:0:0
     RDKit          3D

 88 96  0  0  1  0  0  0  0  0999 V2000
  -30.4080  -19.3550   19.0900 C   0  0  0  0  0  2  0  0  0  0  0  0
  -28.5480  -20.3050   20.4860 C   0  0  0  0  0  2  0  0  0  0  0  0
  -30.8820  -20.8730   19.2100 C   0  0  0  0  0  2  0  0  0  0  0  0
  -29.6450  -18.7980   20.3270 C   0  0  0  0  0  3  0  0  0  0  0  0
  -28.9050  -22.1330   20.2550 C   0  0  0  0  0  3  0  0  0  0  0  0
  -29.8520  -21.9850   19.1060 N   0  0  0  0  0  4  0  0  0  0  0  0
  -29.3310  -21.8680   18.2510 H   0  0  0  0  0  0  0  0  0  0  0  0
  -30.3580  -22.8530   19.0120 H   0  0  0  0  0  0  0  0  0  0  0  0
  -30.2420  -15.6640   20.3010 C   0  0  0  0  0  0  0  0  0  0  0  0
  -30.3500  -13.1220   19.4970 C   0  0  0  0  0  2  0  0  0  0  0  0
  -29.4750  -12.7200   18.2760 C   0  0  0  0  0  2  0  0  0  0  0  0
  -28.0440  -12.3730   18.7130 C   0  0  0  0  0  2  0  0  0  0  0  0
  -27.5190  -13.3770   19.7640 C   0  0  0  0  0  3  0  0  0  0  0  0
  -28.5350  -13.6910   20.8890 C   0  0  0  0  0  2  0  0  0  0  0  0
  -29.7170  -14.3030   20.2390 N   0  0  0  0  0  0  0  0  0  0  0  0
  -31.4770  -15.6050   20.1530 O   0  0  0  0  0  0  0  0  0  0  0  0
  -29.4820  -17.0230   20.3430 N   0  0  0  0  0  0  0  0  0  0  0  0
  -28.5000  -16.7950   20.4140 H   0  0  0  0  0  0  0  0  0  0  0  0
  -25.1440  -13.8990   20.4940 C   0  0  0  0  0  0  0  0  0  0  0  0
  -24.0850  -13.1140   20.8510 C   0  0  0  0  0  0  0  0  0  0  0  0
  -24.5660  -11.7680   20.8350 C   0  0  0  0  0  0  0  0  0  0  0  0
  -26.1980  -13.0340   20.2690 N   0  0  0  0  0  0  0  0  0  0  0  0
  -25.8640  -11.7450   20.5420 N   0  0  0  0  0  0  0  0  0  0  0  0
  -23.8450  -10.5010   21.0200 C   0  0  0  0  0  0  0  0  0  0  0  0
  -24.2610   -9.5430   21.9710 C   0  0  0  0  0  3  0  0  0  0  0  0
  -23.5350   -8.3460   22.1460 C   0  0  0  0  0  3  0  0  0  0  0  0
  -22.3790   -8.0960   21.3700 C   0  0  0  0  0  0  0  0  0  0  0  0
  -21.9820   -9.0410   20.4070 C   0  0  0  0  0  3  0  0  0  0  0  0
  -22.7090  -10.2300   20.2310 C   0  0  0  0  0  3  0  0  0  0  0  0
  -21.6270   -6.9490   21.4530 O   0  0  0  0  0  0  0  0  0  0  0  0
  -21.5480   -6.2220   22.6140 C   0  0  0  0  0  0  0  0  0  0  0  0
  -21.0700   -6.7870   23.8160 C   0  0  0  0  0  3  0  0  0  0  0  0
  -20.9400   -5.9860   24.9680 C   0  0  0  0  0  3  0  0  0  0  0  0
  -21.2770   -4.6210   24.9190 C   0  0  0  0  0  0  0  0  0  0  0  0
  -21.7490   -4.0550   23.7210 C   0  0  0  0  0  3  0  0  0  0  0  0
  -21.8800   -4.8530   22.5720 C   0  0  0  0  0  0  0  0  0  0  0  0
  -22.3140   -4.2960   21.4150 F   0  0  0  0  0  0  0  0  0  0  0  0
  -21.1460   -3.8500   26.0240 F   0  0  0  0  0  0  0  0  0  0  0  0
  -22.6810  -13.5820   21.0890 C   0  0  0  0  0  0  0  0  0  0  0  0
  -21.9440  -12.8940   21.9540 N   0  0  0  0  0  0  0  0  0  0  0  0
  -22.2440  -14.5940   20.5440 O   0  0  0  0  0  0  0  0  0  0  0  0
  -22.3110  -12.0750   22.4170 H   0  0  0  0  0  0  0  0  0  0  0  0
  -21.0000  -13.1910   22.1580 H   0  0  0  0  0  0  0  0  0  0  0  0
  -25.2940  -15.2700   20.3090 N   0  0  0  0  0  0  0  0  0  0  0  0
  -24.5150  -15.9130   20.3980 H   0  0  0  0  0  0  0  0  0  0  0  0
  -26.1320  -15.7120   19.9530 H   0  0  0  0  0  0  0  0  0  0  0  0
  -27.9460  -23.8250   20.1560 C   0  0  0  0  0  2  0  0  0  0  0  0
  -28.1450  -25.5740   20.2400 O   0  0  0  0  0  0  0  0  0  0  0  0
  -24.6760  -31.8650   23.1810 C   0  0  0  0  0  0  0  0  0  0  0  0
  -27.1710  -26.7800   20.1930 C   0  0  0  0  0  0  0  0  0  0  0  0
  -23.4770  -30.4720   21.5490 C   0  0  0  0  0  3  0  0  0  0  0  0
  -24.9110  -28.8160   20.1370 C   0  0  0  0  0  0  0  0  0  0  0  0
  -26.0550  -30.6040   21.4200 C   0  0  0  0  0  2  0  0  0  0  0  0
  -26.1090  -29.1720   20.7650 C   0  0  0  0  0  0  0  0  0  0  0  0
  -27.2250  -28.1820   20.7590 C   0  0  0  0  0  3  0  0  0  0  0  0
  -25.9370  -26.6320   19.5090 C   0  0  0  0  0  3  0  0  0  0  0  0
  -24.8620  -27.5720   19.4840 C   0  0  0  0  0  3  0  0  0  0  0  0
  -23.7090  -29.7720   20.1790 C   0  0  0  0  0  2  0  0  0  0  0  0
  -24.7600  -31.0130   22.1020 N   0  0  0  0  0  0  0  0  0  0  0  0
  -23.5860  -32.1710   23.6940 O   0  0  0  0  0  0  0  0  0  0  0  0
  -22.7580  -29.4990   22.5230 C   0  0  0  0  0  0  0  0  0  0  0  0
  -21.4240  -29.3570   22.4060 N   0  0  0  0  0  0  0  0  0  0  0  0
  -23.4130  -28.8700   23.3570 O   0  0  0  0  0  0  0  0  0  0  0  0
  -20.9450  -29.9150   21.7130 H   0  0  0  0  0  0  0  0  0  0  0  0
  -18.0270  -28.1810   22.9440 C   0  0  0  0  0  0  0  0  0  0  0  0
  -20.5920  -28.4280   23.1830 C   0  0  0  0  0  3  0  0  0  0  0  0
  -20.6750  -26.9950   22.6080 C   0  0  0  0  0  2  0  0  0  0  0  0
  -19.5630  -26.6830   21.6020 C   0  0  0  0  0  2  0  0  0  0  0  0
  -18.1880  -26.8350   22.2580 C   0  0  0  0  0  2  0  0  0  0  0  0
  -19.1550  -28.9360   23.3640 C   0  0  0  0  0  0  0  0  0  0  0  0
  -18.9470  -30.1940   23.9710 C   0  0  0  0  0  3  0  0  0  0  0  0
  -17.6460  -30.6970   24.1580 C   0  0  0  0  0  3  0  0  0  0  0  0
  -16.5340  -29.9420   23.7510 C   0  0  0  0  0  3  0  0  0  0  0  0
  -16.7260  -28.6850   23.1500 C   0  0  0  0  0  3  0  0  0  0  0  0
  -25.9450  -32.5100   23.8170 C   0  0  0  0  0  3  0  0  0  0  0  0
  -25.6240  -33.9080   24.1690 N   0  0  0  0  0  0  0  0  0  0  0  0
  -25.9350  -34.9810   23.4300 C   0  0  0  0  0  0  0  0  0  0  0  0
  -26.5780  -34.8990   22.3810 O   0  0  0  0  0  0  0  0  0  0  0  0
  -25.0460  -34.0420   24.9860 H   0  0  0  0  0  0  0  0  0  0  0  0
  -24.1840  -36.7770   23.1790 C   0  0  0  0  0  1  0  0  0  0  0  0
  -25.4610  -36.3630   23.9290 C   0  0  0  0  0  3  0  0  0  0  0  0
  -27.6200  -37.2570   24.6860 C   0  0  0  0  0  1  0  0  0  0  0  0
  -26.4810  -37.4250   23.7890 N   0  0  0  0  0  0  0  0  0  0  0  0
  -26.0750  -38.3400   23.9610 H   0  0  0  0  0  0  0  0  0  0  0  0
  -26.4510  -31.7390   25.0990 C   0  0  1  0  0  0  0  0  0  0  0  0
  -25.3540  -31.5120   26.1670 C   0  0  0  0  0  1  0  0  0  0  0  0
  -27.0280  -30.3550   24.7250 C   0  0  0  0  0  1  0  0  0  0  0  0
  -27.6060  -32.5280   25.7620 C   0  0  0  0  0  1  0  0  0  0  0  0
  1  3  1  0
  1  4  1  0
  4 17  1  0
  4  2  1  0
  5 47  1  0
  5  2  1  0
  6  3  1  0
  6  5  1  0
  7  6  1  0
  8  6  1  0
  9 17  1  0
 10 15  1  0
 11 12  1  0
 11 10  1  0
 13 12  1  0
 13 22  1  0
 13 14  1  0
 15  9  1  0
 15 14  1  0
 16  9  2  0
 17 18  1  0
 19 20  2  0
 20 39  1  0
 21 20  1  0
 21 24  1  0
 22 19  1  0
 22 23  1  0
 23 21  2  0
 24 25  1  0
 25 26  2  0
 27 30  1  0
 27 26  1  0
 28 27  2  0
 29 28  1  0
 29 24  2  0
 30 31  1  0
 31 32  1  0
 32 33  2  0
 34 33  1  0
 34 38  1  0
 35 34  2  0
 36 31  2  0
 36 35  1  0
 37 36  1  0
 39 40  1  0
 40 43  1  0
 40 42  1  0
 41 39  2  0
 44 45  1  0
 44 19  1  0
 46 44  1  0
 47 48  1  0
 49 60  2  0
 50 48  1  0
 50 55  1  0
 51 59  1  0
 51 61  1  0
 52 58  1  0
 52 54  1  0
 53 59  1  0
 54 53  1  0
 55 54  2  0
 56 50  2  0
 57 56  1  0
 57 52  2  0
 58 51  1  0
 59 49  1  0
 61 63  2  0
 62 61  1  0
 64 62  1  0
 65 74  2  0
 65 70  1  0
 66 62  1  0
 66 70  1  0
 67 66  1  0
 68 69  1  0
 68 67  1  0
 69 65  1  0
 70 71  2  0
 71 72  1  0
 73 72  2  0
 74 73  1  0
 75 49  1  0
 75 76  1  0
 75 85  1  0
 76 79  1  0
 77 81  1  0
 77 76  1  0
 78 77  2  0
 81 80  1  0
 83 81  1  0
 83 84  1  0
 83 82  1  0
 85 88  1  1
 85 86  1  0
 87 85  1  0
M  ISO  4   9 100  17 100  47 101  48 101
M  END
>  <TORSDO>  (44) 
F 17

>  <SCORE>  (44) 
-16.403

>  <name>  (44) 
43

>  <ligand_id>  (44) 
43

>  <original_smiles>  (44) 
[H]c1c([H])c([H])c2c(c1[H])C([H])([H])C([H])([H])C([H])([H])C2([H])N([H])C(=O)C1([H])N(C(=O)C([H])(N([H])C(=O)C([H])(N([H])C([H])([H])[H])C([H])([H])[H])C(C([H])([H])[H])(C([H])([H])[H])C([H])([H])[H])C([H])([H])c2c([H])c(OC([H])([H])C3([H])C([H])([H])C([H])(N([H])C(=O)N4C([H])([H])C([H])([H])C([H])([H])C([H])(n5nc(-c6c([H])c([H])c(Oc7c([H])c([H])c(F)c([H])c7F)c([H])c6[H])c(C(=O)N([H])[H])c5N([H])[H])C4([H])[H])C([H])([H])C([H])([H])[N+]3([H])[H])c([H])c([H])c2C1([H])[H]

>  <smiles>  (44) 
[H]c1c([H])c([H])c2c(c1[H])C([H])([H])C([H])([H])C([H])([H])C2([H])N([H])C(=O)C1([H])N(C(=O)C([H])(N([H])C(=O)C([H])(N([H])C([H])([H])[H])C([H])([H])[H])C(C([H])([H])[H])(C([H])([H])[H])C([H])([H])[H])C([H])([H])c2c([H])c(OC([H])([H])C3([H])C([H])([H])C([H])(N([H])C(=O)N4C([H])([H])C([H])([H])C([H])([H])C([H])(n5nc(-c6c([H])c([H])c(Oc7c([H])c([H])c(F)c([H])c7F)c([H])c6[H])c(C(=O)N([H])[H])c5N([H])[H])C4([H])[H])C([H])([H])C([H])([H])[N+]3([H])[H])c([H])c([H])c2C1([H])[H]

$$$$
44:0:0
     RDKit          3D

 99104  0  0  1  0  0  0  0  0999 V2000
  -32.0490  -12.3820   16.9350 C   0  0  0  0  0  3  0  0  0  0  0  0
  -31.1620  -11.6800   17.7660 C   0  0  0  0  0  3  0  0  0  0  0  0
  -31.9720  -13.7620   16.7970 C   0  0  0  0  0  3  0  0  0  0  0  0
  -29.8040  -13.7080   18.3100 C   0  0  0  0  0  3  0  0  0  0  0  0
  -30.0830  -12.2440   18.5060 C   0  0  0  0  0  0  0  0  0  0  0  0
  -30.9690  -14.4610   17.4570 C   0  0  0  0  0  0  0  0  0  0  0  0
  -28.1830  -15.9100   19.2620 C   0  0  0  0  0  2  0  0  0  0  0  0
  -30.1600  -17.4490   17.8620 C   0  0  0  0  0  2  0  0  0  0  0  0
  -28.8080  -17.9660   18.9710 C   0  0  0  0  0  1  0  0  0  0  0  0
  -31.0120  -16.0420   17.3200 O   0  0  0  0  0  0  0  0  0  0  0  0
  -29.4640  -11.0760   19.3980 C   0  0  0  0  0  2  0  0  0  0  0  0
  -29.9470  -10.1380   23.0160 C   0  0  0  0  0  2  0  0  0  0  0  0
  -32.2960  -10.4260   22.0710 C   0  0  0  0  0  2  0  0  0  0  0  0
  -29.6610   -9.6110   21.5770 C   0  0  0  0  0  2  0  0  0  0  0  0
  -31.7530  -10.3540   20.5920 C   0  0  0  0  0  2  0  0  0  0  0  0
  -31.2330  -11.0170   23.0510 C   0  0  0  0  0  3  0  0  0  0  0  0
  -30.2680  -10.5730   20.5940 N   0  0  1  0  0  4  0  0  0  0  0  0
  -30.2460  -11.4080   21.1660 H   0  0  0  0  0  0  0  0  0  0  0  0
  -30.7880  -13.2460   21.7870 C   0  0  0  0  0  0  0  0  0  0  0  0
  -29.7780  -15.2480   20.9150 C   0  0  0  0  0  1  0  0  0  0  0  0
  -27.5620  -15.5580   19.2140 C   0  0  0  0  0  3  0  0  0  0  0  0
  -26.5890  -14.0350   19.3200 C   0  0  0  0  0  2  0  0  0  0  0  0
  -26.8560  -13.0190   20.6500 C   0  0  0  0  0  0  0  0  0  0  0  0
  -28.2330  -12.8230   21.6740 C   0  0  0  0  0  3  0  0  0  0  0  0
  -29.5820  -13.7460   21.6760 N   0  0  0  0  0  0  0  0  0  0  0  0
  -31.6960  -13.5960   21.0410 O   0  0  0  0  0  0  0  0  0  0  0  0
  -30.9750  -12.4720   22.8900 N   0  0  0  0  0  0  0  0  0  0  0  0
  -31.5830  -12.9640   23.5280 H   0  0  0  0  0  0  0  0  0  0  0  0
  -24.4610  -13.0380   21.4280 C   0  0  0  0  0  0  0  0  0  0  0  0
  -23.5090  -12.1050   21.5400 C   0  0  0  0  0  0  0  0  0  0  0  0
  -24.0720  -10.8990   21.0490 C   0  0  0  0  0  0  0  0  0  0  0  0
  -25.5880  -12.3740   20.9420 N   0  0  0  0  0  0  0  0  0  0  0  0
  -25.3610  -11.0620   20.7250 N   0  0  0  0  0  0  0  0  0  0  0  0
  -23.4110   -9.6080   20.8400 C   0  0  0  0  0  0  0  0  0  0  0  0
  -23.9650   -8.4060   21.3190 C   0  0  0  0  0  3  0  0  0  0  0  0
  -23.2780   -7.1880   21.1440 C   0  0  0  0  0  3  0  0  0  0  0  0
  -22.0230   -7.1650   20.5000 C   0  0  0  0  0  0  0  0  0  0  0  0
  -21.4910   -8.3640   20.0010 C   0  0  0  0  0  3  0  0  0  0  0  0
  -22.1750   -9.5790   20.1680 C   0  0  0  0  0  3  0  0  0  0  0  0
  -21.3010   -6.0200   20.2730 O   0  0  0  0  0  0  0  0  0  0  0  0
  -21.5240   -4.8730   20.9900 C   0  0  0  0  0  0  0  0  0  0  0  0
  -21.3600   -4.8320   22.3910 C   0  0  0  0  0  3  0  0  0  0  0  0
  -21.5200   -3.6180   23.0840 C   0  0  0  0  0  3  0  0  0  0  0  0
  -21.8270   -2.4370   22.3800 C   0  0  0  0  0  0  0  0  0  0  0  0
  -21.9790   -2.4730   20.9840 C   0  0  0  0  0  3  0  0  0  0  0  0
  -21.8280   -3.6870   20.2900 C   0  0  0  0  0  0  0  0  0  0  0  0
  -21.9530   -3.7130   18.9410 F   0  0  0  0  0  0  0  0  0  0  0  0
  -21.9810   -1.2690   23.0400 F   0  0  0  0  0  0  0  0  0  0  0  0
  -22.1040  -12.3710   22.0100 C   0  0  0  0  0  0  0  0  0  0  0  0
  -21.4830  -11.4170   22.6770 N   0  0  0  0  0  0  0  0  0  0  0  0
  -21.5910  -13.4810   21.8660 O   0  0  0  0  0  0  0  0  0  0  0  0
  -21.9110  -10.5210   22.8470 H   0  0  0  0  0  0  0  0  0  0  0  0
  -20.5410  -11.5980   23.0190 H   0  0  0  0  0  0  0  0  0  0  0  0
  -24.4080  -14.4070   21.7020 N   0  0  0  0  0  0  0  0  0  0  0  0
  -23.5070  -14.7720   22.0050 H   0  0  0  0  0  0  0  0  0  0  0  0
  -25.0850  -15.1450   21.5460 H   0  0  0  0  0  0  0  0  0  0  0  0
  -28.5960  -20.2540   19.4940 C   0  0  0  0  0 15  0  0  0  0  0  0
  -27.8000  -22.4310   19.6490 C   0  0  0  0  0 15  0  0  0  0  0  0
  -27.9690  -24.4680   20.0500 O   0  0  0  0  0  1  0  0  0  0  0  0
  -24.9110  -31.6840   23.1420 C   0  0  0  0  0  0  0  0  0  0  0  0
  -27.1770  -26.0050   20.1280 C   0  0  0  0  0  0  0  0  0  0  0  0
  -23.7080  -30.2920   21.5390 C   0  0  0  0  0  3  0  0  0  0  0  0
  -25.0850  -28.4880   20.1530 C   0  0  0  0  0  0  0  0  0  0  0  0
  -26.3110  -30.1780   21.4740 C   0  0  0  0  0  2  0  0  0  0  0  0
  -26.3090  -28.6820   20.7990 C   0  0  0  0  0  0  0  0  0  0  0  0
  -27.3180  -27.4870   20.7460 C   0  0  0  0  0  3  0  0  0  0  0  0
  -25.9300  -26.1800   19.4500 C   0  0  0  0  0  3  0  0  0  0  0  0
  -24.9690  -27.2680   19.4660 C   0  0  0  0  0  3  0  0  0  0  0  0
  -23.9420  -29.5420   20.1890 C   0  0  0  0  0  2  0  0  0  0  0  0
  -25.0120  -30.7660   22.1040 N   0  0  0  0  0  0  0  0  0  0  0  0
  -23.8180  -32.0430   23.6180 O   0  0  0  0  0  0  0  0  0  0  0  0
  -22.9220  -29.3850   22.5270 C   0  0  0  0  0  0  0  0  0  0  0  0
  -21.5810  -29.2940   22.4090 N   0  0  0  0  0  0  0  0  0  0  0  0
  -23.5390  -28.7560   23.3860 O   0  0  0  0  0  0  0  0  0  0  0  0
  -21.1220  -29.8530   21.6970 H   0  0  0  0  0  0  0  0  0  0  0  0
  -18.1470  -28.2030   22.9570 C   0  0  0  0  0  0  0  0  0  0  0  0
  -20.7190  -28.3930   23.1880 C   0  0  0  0  0  3  0  0  0  0  0  0
  -20.7630  -26.9520   22.6240 C   0  0  0  0  0  2  0  0  0  0  0  0
  -19.6430  -26.6690   21.6180 C   0  0  0  0  0  2  0  0  0  0  0  0
  -18.2710  -26.8550   22.2730 C   0  0  0  0  0  2  0  0  0  0  0  0
  -19.2900  -28.9360   23.3750 C   0  0  0  0  0  0  0  0  0  0  0  0
  -19.1130  -30.1970   23.9860 C   0  0  0  0  0  3  0  0  0  0  0  0
  -17.8240  -30.7270   24.1740 C   0  0  0  0  0  3  0  0  0  0  0  0
  -16.6950  -29.9950   23.7690 C   0  0  0  0  0  3  0  0  0  0  0  0
  -16.8580  -28.7340   23.1720 C   0  0  0  0  0  3  0  0  0  0  0  0
  -26.1640  -32.3450   23.8060 C   0  0  0  0  0  3  0  0  0  0  0  0
  -26.6170  -31.6000   25.1230 C   0  0  1  0  0  0  0  0  0  0  0  0
  -25.4880  -31.4090   26.1630 C   0  0  0  0  0  1  0  0  0  0  0  0
  -27.1920  -30.2030   24.8080 C   0  0  0  0  0  1  0  0  0  0  0  0
  -27.7640  -32.3920   25.8060 C   0  0  0  0  0  1  0  0  0  0  0  0
  -25.8480  -33.7570   24.1360 N   0  0  0  0  0  0  0  0  0  0  0  0
  -26.1970  -34.8280   23.4080 C   0  0  0  0  0  0  0  0  0  0  0  0
  -26.8610  -34.7310   22.3720 O   0  0  0  0  0  0  0  0  0  0  0  0
  -25.2530  -33.9050   24.9340 H   0  0  0  0  0  0  0  0  0  0  0  0
  -24.4900  -36.6660   23.1310 C   0  0  0  0  0  1  0  0  0  0  0  0
  -25.7470  -36.2240   23.8950 C   0  0  0  0  0  3  0  0  0  0  0  0
  -27.9150  -37.0870   24.6740 C   0  0  0  0  0  1  0  0  0  0  0  0
  -26.7900  -37.2650   23.7600 N   0  0  0  0  0  0  0  0  0  0  0  0
  -26.4000  -38.1890   23.9140 H   0  0  0  0  0  0  0  0  0  0  0  0
  1  2  1  0
  2  5  2  0
  3  1  2  0
  3  6  1  0
  4  5  1  0
  5 11  1  0
  6  4  2  0
  8  9  1  0
 10  6  1  0
 10  8  1  0
 11 17  1  0
 12 16  1  0
 13 16  1  0
 14 12  1  0
 15 17  1  0
 15 13  1  0
 16 27  1  0
 17 18  1  1
 17 14  1  0
 19 27  1  0
 20 25  1  0
 21  7  2  0
 21 22  1  0
 22 23  1  0
 23 32  1  0
 23 24  2  0
 24 25  1  0
 25 19  1  0
 26 19  2  0
 27 28  1  0
 29 30  2  0
 29 54  1  0
 30 49  1  0
 31 30  1  0
 32 29  1  0
 33 32  1  0
 33 31  2  0
 34 31  1  0
 34 35  1  0
 36 35  2  0
 37 36  1  0
 38 39  1  0
 38 37  2  0
 39 34  2  0
 40 37  1  0
 40 41  1  0
 41 42  1  0
 42 43  2  0
 44 48  1  0
 44 43  1  0
 45 44  2  0
 46 45  1  0
 46 41  2  0
 47 46  1  0
 49 50  1  0
 50 52  1  0
 50 53  1  0
 51 49  2  0
 54 55  1  0
 56 54  1  0
 59 61  1  0
 60 71  2  0
 61 66  1  0
 62 70  1  0
 62 72  1  0
 63 69  1  0
 63 65  1  0
 64 70  1  0
 65 64  1  0
 66 65  2  0
 67 68  1  0
 67 61  2  0
 68 63  2  0
 69 62  1  0
 70 60  1  0
 72 74  2  0
 73 72  1  0
 75 73  1  0
 76 85  2  0
 76 81  1  0
 77 73  1  0
 77 81  1  0
 78 77  1  0
 79 80  1  0
 79 78  1  0
 80 76  1  0
 81 82  2  0
 82 83  1  0
 84 83  2  0
 85 84  1  0
 86 60  1  0
 86 91  1  0
 86 87  1  0
 87 90  1  1
 87 88  1  0
 89 87  1  0
 91 94  1  0
 92 96  1  0
 92 91  1  0
 93 92  2  0
 96 95  1  0
 98 96  1  0
 98 99  1  0
 98 97  1  0
M  ISO  4  19 100  27 100  58 101  59 101
M  END
>  <TORSDO>  (45) 
F 20

>  <SCORE>  (45) 
-7.679

>  <name>  (45) 
44

>  <ligand_id>  (45) 
44

>  <original_smiles>  (45) 
[H]c1c([H])c([H])c2c(c1[H])C([H])([H])C([H])([H])C([H])([H])C2([H])N([H])C(=O)C1([H])N(C(=O)C([H])(N([H])C(=O)C([H])(N([H])C([H])([H])[H])C([H])([H])[H])C(C([H])([H])[H])(C([H])([H])[H])C([H])([H])[H])C([H])([H])c2c([H])c(OC([H])([H])C([H])([H])C3([H])C([H])([H])Oc4c([H])c([H])c([H])c(C([H])([H])[N+]5([H])C([H])([H])C([H])([H])C([H])(N([H])C(=O)N6C([H])([H])C([H])([H])C([H])([H])C([H])(n7nc(-c8c([H])c([H])c(Oc9c([H])c([H])c(F)c([H])c9F)c([H])c8[H])c(C(=O)N([H])[H])c7N([H])[H])C6([H])[H])C([H])([H])C5([H])[H])c4C3([H])[H])c([H])c([H])c2C1([H])[H]

>  <smiles>  (45) 
[H]c1c([H])c([H])c2c(c1[H])C([H])([H])C([H])([H])C([H])([H])C2([H])N([H])C(=O)C1([H])N(C(=O)C([H])(N([H])C(=O)C([H])(N([H])C([H])([H])[H])C([H])([H])[H])C(C([H])([H])[H])(C([H])([H])[H])C([H])([H])[H])C([H])([H])c2c([H])c(OC([H])([H])C([H])([H])C3([H])C([H])([H])Oc4c([H])c([H])c([H])c(C([H])([H])[N+]5([H])C([H])([H])C([H])([H])C([H])(N([H])C(=O)N6C([H])([H])C([H])([H])C([H])([H])C([H])(n7nc(-c8c([H])c([H])c(Oc9c([H])c([H])c(F)c([H])c9F)c([H])c8[H])c(C(=O)N([H])[H])c7N([H])[H])C6([H])[H])C([H])([H])C5([H])[H])c4C3([H])[H])c([H])c([H])c2C1([H])[H]

$$$$
45:0:0
     RDKit          3D

 93101  0  0  1  0  0  0  0  0999 V2000
  -27.8540  -21.7460   21.0280 C   0  0  0  0  0  0  0  0  0  0  0  0
  -27.5240  -22.9870   20.5860 N   0  0  0  0  0  0  0  0  0  0  0  0
  -27.7060  -21.4210   22.2160 O   0  0  0  0  0  0  0  0  0  0  0  0
  -27.7610  -23.2840   19.6610 H   0  0  0  0  0  0  0  0  0  0  0  0
  -27.2420  -19.2640   18.7390 C   0  0  0  0  0  2  0  0  0  0  0  0
  -27.7570  -20.6660   18.6780 C   0  0  0  0  0  2  0  0  0  0  0  0
  -28.5110  -20.7330   20.0280 C   0  0  0  0  0  3  0  0  0  0  0  0
  -27.7230  -18.5710   19.7040 N   0  0  0  0  0  2  0  0  0  0  0  0
  -28.6000  -19.2910   20.4530 N   0  0  0  0  0  0  0  0  0  0  0  0
  -29.8940  -18.5810   20.6750 C   0  0  0  0  0  2  0  0  0  0  0  0
  -29.9770  -17.0040   20.9160 C   0  0  0  0  0  2  0  0  0  0  0  0
  -30.9810  -16.7200   18.5600 C   0  0  0  0  0  1  0  0  0  0  0  0
  -31.1480  -16.3690   20.0620 C   0  0  0  0  0  3  0  0  0  0  0  0
  -31.7690  -14.9130   20.3080 C   0  0  0  0  0  0  0  0  0  0  0  0
  -31.4350  -12.6110   19.5190 C   0  0  0  0  0  2  0  0  0  0  0  0
  -30.6180  -12.7080   18.2220 C   0  0  0  0  0  2  0  0  0  0  0  0
  -29.1240  -12.5690   18.5710 C   0  0  0  0  0  2  0  0  0  0  0  0
  -28.7040  -13.5940   19.6630 C   0  0  0  0  0  3  0  0  0  0  0  0
  -29.6560  -13.6210   20.8630 C   0  0  0  0  0  2  0  0  0  0  0  0
  -31.0360  -13.7620   20.3560 N   0  0  0  0  0  0  0  0  0  0  0  0
  -32.9840  -14.8420   20.1240 O   0  0  0  0  0  0  0  0  0  0  0  0
  -26.3490  -14.3800   20.2570 C   0  0  0  0  0  0  0  0  0  0  0  0
  -25.2100  -13.6840   20.6010 C   0  0  0  0  0  0  0  0  0  0  0  0
  -25.5740  -12.3130   20.6180 C   0  0  0  0  0  0  0  0  0  0  0  0
  -27.3270  -13.4140   20.0830 N   0  0  0  0  0  0  0  0  0  0  0  0
  -26.8640  -12.1640   20.3620 N   0  0  0  0  0  0  0  0  0  0  0  0
  -24.7470  -11.1110   20.8000 C   0  0  0  0  0  0  0  0  0  0  0  0
  -25.0500  -10.1510   21.7890 C   0  0  0  0  0  3  0  0  0  0  0  0
  -24.2240   -9.0170   21.9600 C   0  0  0  0  0  3  0  0  0  0  0  0
  -23.0840   -8.8400   21.1360 C   0  0  0  0  0  0  0  0  0  0  0  0
  -22.8040   -9.7880   20.1320 C   0  0  0  0  0  3  0  0  0  0  0  0
  -23.6320  -10.9110   19.9620 C   0  0  0  0  0  3  0  0  0  0  0  0
  -22.2470   -7.7560   21.2050 O   0  0  0  0  0  0  0  0  0  0  0  0
  -22.0230   -7.0980   22.3840 C   0  0  0  0  0  0  0  0  0  0  0  0
  -21.5260   -7.7620   23.5320 C   0  0  0  0  0  3  0  0  0  0  0  0
  -21.2340   -7.0300   24.7010 C   0  0  0  0  0  3  0  0  0  0  0  0
  -21.4330   -5.6380   24.7300 C   0  0  0  0  0  0  0  0  0  0  0  0
  -21.9280   -4.9720   23.5940 C   0  0  0  0  0  3  0  0  0  0  0  0
  -22.2160   -5.6990   22.4240 C   0  0  0  0  0  0  0  0  0  0  0  0
  -22.6650   -5.0530   21.3250 F   0  0  0  0  0  0  0  0  0  0  0  0
  -21.1570   -4.9320   25.8550 F   0  0  0  0  0  0  0  0  0  0  0  0
  -23.8530  -14.2820   20.8100 C   0  0  0  0  0  0  0  0  0  0  0  0
  -23.0540  -13.6690   21.6820 N   0  0  0  0  0  0  0  0  0  0  0  0
  -23.5020  -15.3110   20.2450 O   0  0  0  0  0  0  0  0  0  0  0  0
  -23.3580  -12.8340   22.1630 H   0  0  0  0  0  0  0  0  0  0  0  0
  -22.1340  -14.0320   21.8650 H   0  0  0  0  0  0  0  0  0  0  0  0
  -26.6020  -15.7290   20.0700 N   0  0  0  0  0  0  0  0  0  0  0  0
  -25.8590  -16.4220   20.1510 H   0  0  0  0  0  0  0  0  0  0  0  0
  -27.5070  -16.1500   19.8640 H   0  0  0  0  0  0  0  0  0  0  0  0
  -26.7070  -24.0210   21.3010 C   0  0  0  0  0  2  0  0  0  0  0  0
  -25.7640  -25.0270   19.1750 C   0  0  0  0  0  1  0  0  0  0  0  0
  -26.6160  -25.3650   20.4840 C   0  0  0  0  0  3  0  0  0  0  0  0
  -27.7760  -26.3610   20.3480 O   0  0  0  0  0  0  0  0  0  0  0  0
  -24.5560  -31.8250   23.2890 C   0  0  0  0  0  0  0  0  0  0  0  0
  -27.2490  -27.5990   19.9850 C   0  0  0  0  0  0  0  0  0  0  0  0
  -23.3660  -30.4880   21.5500 C   0  0  0  0  0  3  0  0  0  0  0  0
  -24.9150  -29.1630   19.9660 C   0  0  0  0  0  0  0  0  0  0  0  0
  -25.9120  -30.8840   21.4680 C   0  0  0  0  0  2  0  0  0  0  0  0
  -26.0270  -29.5970   20.7120 C   0  0  0  0  0  0  0  0  0  0  0  0
  -27.1770  -28.7620   20.7980 C   0  0  0  0  0  3  0  0  0  0  0  0
  -26.3530  -27.5360   18.9280 C   0  0  0  0  0  3  0  0  0  0  0  0
  -25.1060  -28.1700   18.9870 C   0  0  0  0  0  3  0  0  0  0  0  0
  -23.6190  -29.8860   20.1350 C   0  0  0  0  0  2  0  0  0  0  0  0
  -24.6140  -31.0880   22.1490 N   0  0  0  0  0  0  0  0  0  0  0  0
  -23.4550  -32.0470   23.8030 O   0  0  0  0  0  0  0  0  0  0  0  0
  -22.7150  -29.4270   22.4580 C   0  0  0  0  0  0  0  0  0  0  0  0
  -21.4000  -29.2340   22.2820 N   0  0  0  0  0  0  0  0  0  0  0  0
  -23.3650  -28.7400   23.2410 O   0  0  0  0  0  0  0  0  0  0  0  0
  -21.0330  -29.7280   21.4740 H   0  0  0  0  0  0  0  0  0  0  0  0
  -17.9970  -28.0630   22.7510 C   0  0  0  0  0  0  0  0  0  0  0  0
  -20.6040  -28.1740   22.8830 C   0  0  0  0  0  0  0  0  0  0  0  0
  -20.6600  -26.9490   21.9450 C   0  0  0  0  0  3  0  0  0  0  0  0
  -19.3770  -26.1950   21.5860 C   0  0  0  0  0  3  0  0  0  0  0  0
  -18.0280  -26.8300   21.8560 C   0  0  0  0  0  3  0  0  0  0  0  0
  -19.1720  -28.7070   23.1810 C   0  0  0  0  0  0  0  0  0  0  0  0
  -19.0320  -29.9380   23.8590 C   0  0  0  0  0  3  0  0  0  0  0  0
  -17.7850  -30.5360   24.1010 C   0  0  0  0  0  3  0  0  0  0  0  0
  -16.6340  -29.8560   23.7010 C   0  0  0  0  0  3  0  0  0  0  0  0
  -16.7550  -28.6420   23.0140 C   0  0  0  0  0  3  0  0  0  0  0  0
  -25.8310  -32.4460   23.9290 C   0  0  0  0  0  3  0  0  0  0  0  0
  -25.5280  -33.8460   24.2270 N   0  0  0  0  0  0  0  0  0  0  0  0
  -25.9030  -34.8930   23.4710 C   0  0  0  0  0  0  0  0  0  0  0  0
  -26.6120  -34.7500   22.4670 O   0  0  0  0  0  0  0  0  0  0  0  0
  -24.8900  -34.0450   24.9910 H   0  0  0  0  0  0  0  0  0  0  0  0
  -24.2260  -36.7030   23.0380 C   0  0  0  0  0  1  0  0  0  0  0  0
  -25.4350  -36.2960   23.8910 C   0  0  0  0  0  3  0  0  0  0  0  0
  -27.5690  -37.1340   24.7630 C   0  0  0  0  0  1  0  0  0  0  0  0
  -26.4900  -37.3300   23.7980 N   0  0  0  0  0  0  0  0  0  0  0  0
  -26.1030  -38.2570   23.9360 H   0  0  0  0  0  0  0  0  0  0  0  0
  -26.3100  -31.6710   25.2160 C   0  0  1  0  0  0  0  0  0  0  0  0
  -25.1890  -31.4220   26.2500 C   0  0  0  0  0  1  0  0  0  0  0  0
  -26.9080  -30.2880   24.8730 C   0  0  0  0  0  1  0  0  0  0  0  0
  -27.4420  -32.4670   25.8990 C   0  0  0  0  0  1  0  0  0  0  0  0
  1  3  2  0
  2  1  1  0
  2 50  1  0
  4  2  1  0
  5  8  1  0
  6  5  1  0
  6  7  1  0
  7  9  1  0
  7  1  1  0
  8  9  1  0
  9 10  1  0
 10 11  1  0
 13 12  1  0
 13 14  1  0
 13 11  1  0
 14 20  1  0
 15 20  1  0
 16 17  1  0
 16 15  1  0
 18 17  1  0
 18 25  1  0
 18 19  1  0
 20 19  1  0
 21 14  2  0
 22 23  2  0
 23 24  1  0
 23 42  1  0
 24 27  1  0
 25 22  1  0
 25 26  1  0
 26 24  2  0
 27 28  1  0
 28 29  2  0
 30 33  1  0
 30 29  1  0
 31 30  2  0
 32 31  1  0
 32 27  2  0
 33 34  1  0
 34 39  2  0
 34 35  1  0
 35 36  2  0
 36 37  1  0
 37 41  1  0
 38 37  2  0
 39 38  1  0
 40 39  1  0
 42 43  1  0
 43 46  1  0
 43 45  1  0
 44 42  2  0
 47 48  1  0
 47 22  1  0
 49 47  1  0
 52 51  1  0
 52 50  1  0
 53 52  1  0
 54 65  2  0
 55 53  1  0
 55 60  1  0
 56 64  1  0
 56 66  1  0
 57 63  1  0
 57 59  1  0
 58 64  1  0
 59 60  2  0
 59 58  1  0
 61 62  1  0
 61 55  2  0
 62 57  2  0
 63 56  1  0
 64 54  1  0
 66 68  2  0
 67 66  1  0
 67 71  1  0
 69 67  1  0
 70 79  2  0
 70 75  1  0
 71 75  1  0
 72 71  2  0
 73 74  2  0
 73 72  1  0
 74 70  1  0
 75 76  2  0
 76 77  1  0
 78 77  2  0
 79 78  1  0
 80 54  1  0
 80 81  1  0
 80 90  1  0
 81 84  1  0
 82 86  1  0
 82 81  1  0
 83 82  2  0
 86 85  1  0
 88 86  1  0
 88 89  1  0
 88 87  1  0
 90 93  1  1
 90 91  1  0
 92 90  1  0
M  ISO  4  13 100  14 100  52 101  53 101
M  END
>  <TORSDO>  (46) 
F 22

>  <SCORE>  (46) 
-11.878

>  <name>  (46) 
45

>  <ligand_id>  (46) 
45

>  <original_smiles>  (46) 
[H]C1=NN(C([H])([H])C([H])([H])C([H])(C(=O)N2C([H])([H])C([H])([H])C([H])([H])C([H])(n3nc(-c4c([H])c([H])c(Oc5c([H])c([H])c(F)c([H])c5F)c([H])c4[H])c(C(=O)N([H])[H])c3N([H])[H])C2([H])[H])C([H])([H])[H])C([H])(C(=O)N([H])C([H])([H])C([H])(Oc2c([H])c([H])c3c(c2[H])C([H])([H])N(C(=O)C([H])(N([H])C(=O)C([H])(N([H])C([H])([H])[H])C([H])([H])[H])C(C([H])([H])[H])(C([H])([H])[H])C([H])([H])[H])C([H])(C(=O)N([H])C2([H])c4c([H])c([H])c([H])c([H])c4C([H])([H])C([H])([H])C2([H])[H])C3([H])[H])C([H])([H])[H])C1([H])[H]

>  <smiles>  (46) 
[H]C1=NN(C([H])([H])C([H])([H])C([H])(C(=O)N2C([H])([H])C([H])([H])C([H])([H])C([H])(n3nc(-c4c([H])c([H])c(Oc5c([H])c([H])c(F)c([H])c5F)c([H])c4[H])c(C(=O)N([H])[H])c3N([H])[H])C2([H])[H])C([H])([H])[H])C([H])(C(=O)N([H])C([H])([H])C([H])(Oc2c([H])c([H])c3c(c2[H])C([H])([H])N(C(=O)C([H])(N([H])C(=O)C([H])(N([H])C([H])([H])[H])C([H])([H])[H])C(C([H])([H])[H])(C([H])([H])[H])C([H])([H])[H])C([H])(C(=O)N([H])C2([H])c4c([H])c([H])c([H])c([H])c4C([H])([H])C([H])([H])C2([H])[H])C3([H])[H])C([H])([H])[H])C1([H])[H]

$$$$
46:0:0
     RDKit          3D

 89 97  0  0  1  0  0  0  0  0999 V2000
  -27.8970  -23.7650   19.3020 C   0  0  0  0  0  2  0  0  0  0  0  0
  -29.5010  -24.2050   21.0670 C   0  0  0  0  0  2  0  0  0  0  0  0
  -27.9010  -22.1950   19.6790 C   0  0  0  0  0  2  0  0  0  0  0  0
  -29.5320  -22.6470   21.4230 C   0  0  0  0  0  2  0  0  0  0  0  0
  -28.1810  -24.8100   20.4620 C   0  0  0  0  0  3  0  0  0  0  0  0
  -29.2320  -21.5970   20.2860 C   0  0  0  0  0  3  0  0  0  0  0  0
  -28.3000  -26.3190   20.1990 O   0  0  0  0  0  0  0  0  0  0  0  0
  -24.6110  -31.8710   23.2320 C   0  0  0  0  0  0  0  0  0  0  0  0
  -27.1940  -27.2170   20.1920 C   0  0  0  0  0  0  0  0  0  0  0  0
  -23.4030  -30.4700   21.5980 C   0  0  0  0  0  3  0  0  0  0  0  0
  -24.8470  -28.9030   20.1710 C   0  0  0  0  0  0  0  0  0  0  0  0
  -25.9480  -30.7660   21.4080 C   0  0  0  0  0  2  0  0  0  0  0  0
  -26.0260  -29.3760   20.7630 C   0  0  0  0  0  0  0  0  0  0  0  0
  -27.2030  -28.5500   20.7510 C   0  0  0  0  0  3  0  0  0  0  0  0
  -25.9880  -26.8210   19.5790 C   0  0  0  0  0  3  0  0  0  0  0  0
  -24.8370  -27.6360   19.5640 C   0  0  0  0  0  3  0  0  0  0  0  0
  -23.6150  -29.7900   20.2210 C   0  0  0  0  0  2  0  0  0  0  0  0
  -24.6750  -31.0550   22.1360 N   0  0  0  0  0  0  0  0  0  0  0  0
  -23.5280  -32.1510   23.7670 O   0  0  0  0  0  0  0  0  0  0  0  0
  -22.7360  -29.4600   22.5650 C   0  0  0  0  0  0  0  0  0  0  0  0
  -21.4100  -29.2860   22.4450 N   0  0  0  0  0  0  0  0  0  0  0  0
  -23.4160  -28.8350   23.3850 O   0  0  0  0  0  0  0  0  0  0  0  0
  -20.9190  -29.8430   21.7590 H   0  0  0  0  0  0  0  0  0  0  0  0
  -18.0350  -28.0760   22.9550 C   0  0  0  0  0  0  0  0  0  0  0  0
  -20.5920  -28.3470   23.2200 C   0  0  0  0  0  3  0  0  0  0  0  0
  -20.6990  -26.9140   22.6510 C   0  0  0  0  0  2  0  0  0  0  0  0
  -19.5970  -26.5850   21.6380 C   0  0  0  0  0  2  0  0  0  0  0  0
  -18.2150  -26.7260   22.2820 C   0  0  0  0  0  2  0  0  0  0  0  0
  -19.1520  -28.8440   23.3800 C   0  0  0  0  0  0  0  0  0  0  0  0
  -18.9280  -30.1080   23.9700 C   0  0  0  0  0  3  0  0  0  0  0  0
  -17.6210  -30.6030   24.1370 C   0  0  0  0  0  3  0  0  0  0  0  0
  -16.5190  -29.8320   23.7280 C   0  0  0  0  0  3  0  0  0  0  0  0
  -16.7270  -28.5710   23.1420 C   0  0  0  0  0  3  0  0  0  0  0  0
  -25.8940  -32.5070   23.8500 C   0  0  0  0  0  3  0  0  0  0  0  0
  -26.4110  -31.7380   25.1290 C   0  0  1  0  0  0  0  0  0  0  0  0
  -25.3200  -31.5040   26.2010 C   0  0  0  0  0  1  0  0  0  0  0  0
  -26.9920  -30.3580   24.7420 C   0  0  0  0  0  1  0  0  0  0  0  0
  -27.5660  -32.5330   25.7850 C   0  0  0  0  0  1  0  0  0  0  0  0
  -25.5820  -33.9050   24.1830 N   0  0  0  0  0  0  0  0  0  0  0  0
  -25.9100  -34.9600   23.4260 C   0  0  0  0  0  0  0  0  0  0  0  0
  -26.5730  -34.8590   22.3910 O   0  0  0  0  0  0  0  0  0  0  0  0
  -24.9900  -34.0560   24.9860 H   0  0  0  0  0  0  0  0  0  0  0  0
  -24.1800  -36.7570   23.0910 C   0  0  0  0  0  1  0  0  0  0  0  0
  -25.4270  -36.3490   23.8900 C   0  0  0  0  0  3  0  0  0  0  0  0
  -27.5690  -37.2330   24.7040 C   0  0  0  0  0  1  0  0  0  0  0  0
  -26.4590  -37.4020   23.7700 N   0  0  0  0  0  0  0  0  0  0  0  0
  -26.0530  -38.3210   23.9230 H   0  0  0  0  0  0  0  0  0  0  0  0
  -29.3320  -20.1680   20.8280 O   0  0  0  0  0  0  0  0  0  0  0  0
  -29.5580  -19.0060   18.6360 C   0  0  0  0  0  1  0  0  0  0  0  0
  -29.2730  -18.8180   20.1280 C   0  0  0  0  0  3  0  0  0  0  0  0
  -30.1370  -17.5310   20.7260 C   0  0  0  0  0  2  0  0  0  0  0  0
  -30.5540  -14.8800   20.3350 C   0  0  0  0  0  0  0  0  0  0  0  0
  -30.3970  -12.5650   19.3500 C   0  0  0  0  0  2  0  0  0  0  0  0
  -29.4500  -12.5610   18.1280 C   0  0  0  0  0  2  0  0  0  0  0  0
  -27.9880  -12.3700   18.5730 C   0  0  0  0  0  2  0  0  0  0  0  0
  -27.6000  -13.2860   19.7630 C   0  0  0  0  0  3  0  0  0  0  0  0
  -28.6640  -13.2610   20.8810 C   0  0  0  0  0  2  0  0  0  0  0  0
  -29.9400  -13.6410   20.2640 N   0  0  0  0  0  0  0  0  0  0  0  0
  -31.7580  -14.9610   20.0790 O   0  0  0  0  0  0  0  0  0  0  0  0
  -29.7700  -16.0340   20.4950 N   0  0  0  0  0  0  0  0  0  0  0  0
  -28.7850  -15.8410   20.5810 H   0  0  0  0  0  0  0  0  0  0  0  0
  -25.2170  -13.8720   20.5020 C   0  0  0  0  0  0  0  0  0  0  0  0
  -24.1560  -13.0950   20.8770 C   0  0  0  0  0  0  0  0  0  0  0  0
  -24.6230  -11.7440   20.8510 C   0  0  0  0  0  0  0  0  0  0  0  0
  -26.2620  -12.9930   20.2660 N   0  0  0  0  0  0  0  0  0  0  0  0
  -25.9130  -11.7100   20.5410 N   0  0  0  0  0  0  0  0  0  0  0  0
  -23.8990  -10.4810   21.0440 C   0  0  0  0  0  0  0  0  0  0  0  0
  -24.3390   -9.5100   21.9710 C   0  0  0  0  0  3  0  0  0  0  0  0
  -23.6120   -8.3140   22.1530 C   0  0  0  0  0  3  0  0  0  0  0  0
  -22.4320   -8.0790   21.4080 C   0  0  0  0  0  0  0  0  0  0  0  0
  -22.0120   -9.0380   20.4700 C   0  0  0  0  0  3  0  0  0  0  0  0
  -22.7390  -10.2270   20.2850 C   0  0  0  0  0  3  0  0  0  0  0  0
  -21.6770   -6.9350   21.5000 O   0  0  0  0  0  0  0  0  0  0  0  0
  -21.6470   -6.1840   22.6470 C   0  0  0  0  0  0  0  0  0  0  0  0
  -21.2450   -6.7300   23.8860 C   0  0  0  0  0  3  0  0  0  0  0  0
  -21.1620   -5.9060   25.0260 C   0  0  0  0  0  3  0  0  0  0  0  0
  -21.4680   -4.5350   24.9280 C   0  0  0  0  0  0  0  0  0  0  0  0
  -21.8620   -3.9880   23.6930 C   0  0  0  0  0  3  0  0  0  0  0  0
  -21.9480   -4.8090   22.5560 C   0  0  0  0  0  0  0  0  0  0  0  0
  -22.3070   -4.2730   21.3650 F   0  0  0  0  0  0  0  0  0  0  0  0
  -21.3810   -3.7400   26.0200 F   0  0  0  0  0  0  0  0  0  0  0  0
  -22.7570  -13.5700   21.1440 C   0  0  0  0  0  0  0  0  0  0  0  0
  -22.0310  -12.8750   22.0140 N   0  0  0  0  0  0  0  0  0  0  0  0
  -22.3170  -14.5910   20.6180 O   0  0  0  0  0  0  0  0  0  0  0  0
  -22.4010  -12.0460   22.4560 H   0  0  0  0  0  0  0  0  0  0  0  0
  -21.0930  -13.1740   22.2390 H   0  0  0  0  0  0  0  0  0  0  0  0
  -25.3750  -15.2420   20.3190 N   0  0  0  0  0  0  0  0  0  0  0  0
  -24.6000  -15.8870   20.4270 H   0  0  0  0  0  0  0  0  0  0  0  0
  -26.2080  -15.6850   19.9540 H   0  0  0  0  0  0  0  0  0  0  0  0
  1  3  1  0
  1  5  1  0
  2  4  1  0
  3  6  1  0
  5  7  1  0
  5  2  1  0
  6 48  1  0
  6  4  1  0
  8 19  2  0
  9  7  1  0
  9 14  1  0
 10 18  1  0
 10 20  1  0
 11 17  1  0
 11 13  1  0
 12 18  1  0
 13 12  1  0
 14 13  2  0
 15  9  2  0
 16 15  1  0
 16 11  2  0
 17 10  1  0
 18  8  1  0
 20 22  2  0
 21 20  1  0
 23 21  1  0
 24 33  2  0
 24 29  1  0
 25 21  1  0
 25 29  1  0
 26 25  1  0
 27 28  1  0
 27 26  1  0
 28 24  1  0
 29 30  2  0
 30 31  1  0
 32 31  2  0
 33 32  1  0
 34  8  1  0
 34 39  1  0
 34 35  1  0
 35 38  1  1
 35 36  1  0
 37 35  1  0
 39 42  1  0
 40 44  1  0
 40 39  1  0
 41 40  2  0
 44 43  1  0
 46 44  1  0
 46 47  1  0
 46 45  1  0
 50 49  1  0
 50 51  1  0
 50 48  1  0
 52 60  1  0
 53 58  1  0
 54 55  1  0
 54 53  1  0
 56 55  1  0
 56 65  1  0
 56 57  1  0
 58 52  1  0
 58 57  1  0
 59 52  2  0
 60 61  1  0
 60 51  1  0
 62 63  2  0
 63 82  1  0
 64 63  1  0
 64 67  1  0
 65 62  1  0
 65 66  1  0
 66 64  2  0
 67 68  1  0
 68 69  2  0
 70 73  1  0
 70 69  1  0
 71 70  2  0
 72 71  1  0
 72 67  2  0
 73 74  1  0
 74 75  1  0
 75 76  2  0
 77 76  1  0
 77 81  1  0
 78 77  2  0
 79 74  2  0
 79 78  1  0
 80 79  1  0
 82 83  1  0
 83 86  1  0
 83 85  1  0
 84 82  2  0
 87 88  1  0
 87 62  1  0
 89 87  1  0
M  ISO  4   5 101   7 101  52 100  60 100
M  END
>  <TORSDO>  (47) 
F 19

>  <SCORE>  (47) 
-14.191

>  <name>  (47) 
46

>  <ligand_id>  (47) 
46

>  <original_smiles>  (47) 
[H]c1c([H])c([H])c2c(c1[H])C([H])([H])C([H])([H])C([H])([H])C2([H])N([H])C(=O)C1([H])N(C(=O)C([H])(N([H])C(=O)C([H])(N([H])C([H])([H])[H])C([H])([H])[H])C(C([H])([H])[H])(C([H])([H])[H])C([H])([H])[H])C([H])([H])c2c([H])c(OC3([H])C([H])([H])C([H])([H])C([H])(OC([H])(C([H])([H])[H])C([H])([H])N([H])C(=O)N4C([H])([H])C([H])([H])C([H])([H])C([H])(n5nc(-c6c([H])c([H])c(Oc7c([H])c([H])c(F)c([H])c7F)c([H])c6[H])c(C(=O)N([H])[H])c5N([H])[H])C4([H])[H])C([H])([H])C3([H])[H])c([H])c([H])c2C1([H])[H]

>  <smiles>  (47) 
[H]c1c([H])c([H])c2c(c1[H])C([H])([H])C([H])([H])C([H])([H])C2([H])N([H])C(=O)C1([H])N(C(=O)C([H])(N([H])C(=O)C([H])(N([H])C([H])([H])[H])C([H])([H])[H])C(C([H])([H])[H])(C([H])([H])[H])C([H])([H])[H])C([H])([H])c2c([H])c(OC3([H])C([H])([H])C([H])([H])C([H])(OC([H])(C([H])([H])[H])C([H])([H])N([H])C(=O)N4C([H])([H])C([H])([H])C([H])([H])C([H])(n5nc(-c6c([H])c([H])c(Oc7c([H])c([H])c(F)c([H])c7F)c([H])c6[H])c(C(=O)N([H])[H])c5N([H])[H])C4([H])[H])C([H])([H])C3([H])[H])c([H])c([H])c2C1([H])[H]

$$$$
47:0:0
     RDKit          3D

 95103  0  0  1  0  0  0  0  0999 V2000
  -29.0390  -23.3810   18.5720 C   0  0  0  0  0  2  0  0  0  0  0  0
  -30.8360  -20.5510   20.5410 C   0  0  0  0  0  2  0  0  0  0  0  0
  -28.6110  -19.7370   19.8790 C   0  0  0  0  0  2  0  0  0  0  0  0
  -30.6600  -21.7790   19.6260 C   0  0  0  0  0  2  0  0  0  0  0  0
  -28.4120  -21.0120   19.0130 C   0  0  0  0  0  2  0  0  0  0  0  0
  -30.0960  -19.3310   19.9700 C   0  0  0  0  0  3  0  0  0  0  0  0
  -29.2400  -22.1810   19.4600 N   0  0  2  0  0  4  0  0  0  0  0  0
  -28.8950  -22.4350   20.3740 H   0  0  0  0  0  0  0  0  0  0  0  0
  -30.3720  -18.0340   20.7820 C   0  0  0  0  0  2  0  0  0  0  0  0
  -30.0640  -16.7100   20.0160 C   0  0  0  0  0  2  0  0  0  0  0  0
  -31.0790  -14.4430   20.0920 C   0  0  0  0  0  0  0  0  0  0  0  0
  -30.6920  -12.3110   18.8920 C   0  0  0  0  0  2  0  0  0  0  0  0
  -29.6950  -12.5340   17.7350 C   0  0  0  0  0  2  0  0  0  0  0  0
  -28.2400  -12.4240   18.2300 C   0  0  0  0  0  2  0  0  0  0  0  0
  -27.9850  -13.2640   19.5080 C   0  0  0  0  0  3  0  0  0  0  0  0
  -29.0720  -12.9810   20.5630 C   0  0  0  0  0  2  0  0  0  0  0  0
  -30.3820  -13.2770   19.9570 N   0  0  0  0  0  0  0  0  0  0  0  0
  -32.1430  -14.6450   19.4910 O   0  0  0  0  0  0  0  0  0  0  0  0
  -30.4270  -15.5100   22.1890 C   0  0  0  0  0  1  0  0  0  0  0  0
  -30.4200  -15.4500   20.7220 N   0  0  0  0  0  0  0  0  0  0  0  0
  -25.6520  -13.9560   20.3500 C   0  0  0  0  0  0  0  0  0  0  0  0
  -24.5750  -13.2200   20.7640 C   0  0  0  0  0  0  0  0  0  0  0  0
  -24.9820  -11.8510   20.6890 C   0  0  0  0  0  0  0  0  0  0  0  0
  -26.6480  -13.0380   20.0530 N   0  0  0  0  0  0  0  0  0  0  0  0
  -26.2500  -11.7670   20.3110 N   0  0  0  0  0  0  0  0  0  0  0  0
  -24.2210  -10.6140   20.8950 C   0  0  0  0  0  0  0  0  0  0  0  0
  -24.6380   -9.6410   21.8300 C   0  0  0  0  0  3  0  0  0  0  0  0
  -23.8840   -8.4640   22.0260 C   0  0  0  0  0  3  0  0  0  0  0  0
  -22.6980   -8.2540   21.2860 C   0  0  0  0  0  0  0  0  0  0  0  0
  -22.2970   -9.2160   20.3420 C   0  0  0  0  0  3  0  0  0  0  0  0
  -23.0510  -10.3820   20.1450 C   0  0  0  0  0  3  0  0  0  0  0  0
  -21.9160   -7.1280   21.3900 O   0  0  0  0  0  0  0  0  0  0  0  0
  -21.8190   -6.4230   22.5620 C   0  0  0  0  0  0  0  0  0  0  0  0
  -21.3800   -7.0250   23.7610 C   0  0  0  0  0  3  0  0  0  0  0  0
  -21.2300   -6.2480   24.9270 C   0  0  0  0  0  3  0  0  0  0  0  0
  -21.5050   -4.8690   24.8930 C   0  0  0  0  0  0  0  0  0  0  0  0
  -21.9350   -4.2640   23.6990 C   0  0  0  0  0  3  0  0  0  0  0  0
  -22.0890   -5.0390   22.5360 C   0  0  0  0  0  0  0  0  0  0  0  0
  -22.4840   -4.4470   21.3820 F   0  0  0  0  0  0  0  0  0  0  0  0
  -21.3520   -4.1190   26.0110 F   0  0  0  0  0  0  0  0  0  0  0  0
  -23.2120  -13.7450   21.1120 C   0  0  0  0  0  0  0  0  0  0  0  0
  -22.5010  -13.0730   22.0120 N   0  0  0  0  0  0  0  0  0  0  0  0
  -22.7880  -14.7900   20.6230 O   0  0  0  0  0  0  0  0  0  0  0  0
  -22.8540  -12.2240   22.4290 H   0  0  0  0  0  0  0  0  0  0  0  0
  -21.5910  -13.4140   22.2850 H   0  0  0  0  0  0  0  0  0  0  0  0
  -25.8650  -15.3210   20.1820 N   0  0  0  0  0  0  0  0  0  0  0  0
  -25.1430  -16.0100   20.3570 H   0  0  0  0  0  0  0  0  0  0  0  0
  -26.7190  -15.7270   19.8210 H   0  0  0  0  0  0  0  0  0  0  0  0
  -29.6220  -24.7720   19.0470 C   0  0  0  0  0  3  0  0  0  0  0  0
  -30.8980  -25.2190   18.2600 C   0  0  0  0  0  2  0  0  0  0  0  0
  -33.2660  -24.9100   17.4150 C   0  0  0  0  0  1  0  0  0  0  0  0
  -32.8330  -24.7860   19.8840 C   0  0  0  0  0  1  0  0  0  0  0  0
  -32.2440  -24.4990   18.4900 C   0  0  0  0  0  3  0  0  0  0  0  0
  -28.5810  -25.9290   18.8440 C   0  0  0  0  0  2  0  0  0  0  0  0
  -28.3000  -26.6820   20.0400 O   0  0  0  0  0  0  0  0  0  0  0  0
  -24.5390  -31.8800   23.2070 C   0  0  0  0  0  0  0  0  0  0  0  0
  -27.1270  -27.4150   20.0760 C   0  0  0  0  0  0  0  0  0  0  0  0
  -23.3100  -30.4830   21.5830 C   0  0  0  0  0  3  0  0  0  0  0  0
  -24.7380  -28.9390   20.1460 C   0  0  0  0  0  0  0  0  0  0  0  0
  -25.8400  -30.8230   21.3580 C   0  0  0  0  0  2  0  0  0  0  0  0
  -25.9090  -29.4510   20.7180 C   0  0  0  0  0  0  0  0  0  0  0  0
  -27.1050  -28.6930   20.6860 C   0  0  0  0  0  3  0  0  0  0  0  0
  -25.9170  -26.9050   19.5450 C   0  0  0  0  0  3  0  0  0  0  0  0
  -24.7340  -27.6630   19.5660 C   0  0  0  0  0  3  0  0  0  0  0  0
  -23.5010  -29.8050   20.2020 C   0  0  0  0  0  2  0  0  0  0  0  0
  -24.5830  -31.0770   22.1060 N   0  0  0  0  0  0  0  0  0  0  0  0
  -23.4640  -32.1570   23.7570 O   0  0  0  0  0  0  0  0  0  0  0  0
  -22.6670  -29.4610   22.5490 C   0  0  0  0  0  0  0  0  0  0  0  0
  -21.3420  -29.2790   22.4310 N   0  0  0  0  0  0  0  0  0  0  0  0
  -23.3570  -28.8370   23.3600 O   0  0  0  0  0  0  0  0  0  0  0  0
  -20.8480  -29.8340   21.7470 H   0  0  0  0  0  0  0  0  0  0  0  0
  -17.9690  -28.0860   22.9510 C   0  0  0  0  0  0  0  0  0  0  0  0
  -20.5280  -28.3460   23.2110 C   0  0  0  0  0  3  0  0  0  0  0  0
  -20.6280  -26.9110   22.6440 C   0  0  0  0  0  2  0  0  0  0  0  0
  -19.5230  -26.5820   21.6360 C   0  0  0  0  0  2  0  0  0  0  0  0
  -18.1440  -26.7330   22.2830 C   0  0  0  0  0  2  0  0  0  0  0  0
  -19.0900  -28.8520   23.3720 C   0  0  0  0  0  0  0  0  0  0  0  0
  -18.8740  -30.1190   23.9540 C   0  0  0  0  0  3  0  0  0  0  0  0
  -17.5700  -30.6210   24.1210 C   0  0  0  0  0  3  0  0  0  0  0  0
  -16.4640  -29.8540   23.7170 C   0  0  0  0  0  3  0  0  0  0  0  0
  -16.6650  -28.5880   23.1380 C   0  0  0  0  0  3  0  0  0  0  0  0
  -25.8320  -32.5090   23.8120 C   0  0  0  0  0  3  0  0  0  0  0  0
  -25.5300  -33.9080   24.1430 N   0  0  0  0  0  0  0  0  0  0  0  0
  -25.8580  -34.9580   23.3790 C   0  0  0  0  0  0  0  0  0  0  0  0
  -26.5180  -34.8510   22.3420 O   0  0  0  0  0  0  0  0  0  0  0  0
  -24.9420  -34.0630   24.9480 H   0  0  0  0  0  0  0  0  0  0  0  0
  -24.1310  -36.7540   23.0320 C   0  0  0  0  0  1  0  0  0  0  0  0
  -25.3750  -36.3480   23.8380 C   0  0  0  0  0  3  0  0  0  0  0  0
  -27.5190  -37.2230   24.6560 C   0  0  0  0  0  1  0  0  0  0  0  0
  -26.4100  -37.3970   23.7210 N   0  0  0  0  0  0  0  0  0  0  0  0
  -26.0080  -38.3190   23.8740 H   0  0  0  0  0  0  0  0  0  0  0  0
  -26.3640  -31.7360   25.0810 C   0  0  1  0  0  0  0  0  0  0  0  0
  -25.2840  -31.5000   26.1640 C   0  0  0  0  0  1  0  0  0  0  0  0
  -26.9390  -30.3580   24.6790 C   0  0  0  0  0  1  0  0  0  0  0  0
  -27.5250  -32.5270   25.7260 C   0  0  0  0  0  1  0  0  0  0  0  0
  1 49  1  0
  1  7  1  0
  3  6  1  0
  4  2  1  0
  5  7  1  0
  5  3  1  0
  6  2  1  0
  6  9  1  0
  7  4  1  0
  7  8  1  1
 10 20  1  0
 10  9  1  0
 11 20  1  0
 12 17  1  0
 13 14  1  0
 13 12  1  0
 15 14  1  0
 15 24  1  0
 15 16  1  0
 17 11  1  0
 17 16  1  0
 18 11  2  0
 20 19  1  0
 21 22  2  0
 22 41  1  0
 23 22  1  0
 23 26  1  0
 24 25  1  0
 24 21  1  0
 25 23  2  0
 26 27  1  0
 27 28  2  0
 29 32  1  0
 29 28  1  0
 30 29  2  0
 31 30  1  0
 31 26  2  0
 32 33  1  0
 33 34  1  0
 34 35  2  0
 36 35  1  0
 36 40  1  0
 37 36  2  0
 38 33  2  0
 38 37  1  0
 39 38  1  0
 41 42  1  0
 42 45  1  0
 42 44  1  0
 43 41  2  0
 46 21  1  0
 46 47  1  0
 48 46  1  0
 49 50  1  0
 50 53  1  0
 51 53  1  0
 53 52  1  0
 54 49  1  0
 54 55  1  0
 55 57  1  0
 56 67  2  0
 57 62  1  0
 58 66  1  0
 58 68  1  0
 59 65  1  0
 59 61  1  0
 60 66  1  0
 61 60  1  0
 62 61  2  0
 63 64  1  0
 63 57  2  0
 64 59  2  0
 65 58  1  0
 66 56  1  0
 68 70  2  0
 69 68  1  0
 71 69  1  0
 72 81  2  0
 72 77  1  0
 73 69  1  0
 73 77  1  0
 74 73  1  0
 75 76  1  0
 75 74  1  0
 76 72  1  0
 77 78  2  0
 78 79  1  0
 80 79  2  0
 81 80  1  0
 82 56  1  0
 82 83  1  0
 82 92  1  0
 83 86  1  0
 84 88  1  0
 84 83  1  0
 85 84  2  0
 88 87  1  0
 90 88  1  0
 90 91  1  0
 90 89  1  0
 92 95  1  1
 92 93  1  0
 94 92  1  0
M  ISO  4  11 100  20 100  54 101  55 101
M  END
>  <TORSDO>  (48) 
F 23

>  <SCORE>  (48) 
-12.206

>  <name>  (48) 
47

>  <ligand_id>  (48) 
47

>  <original_smiles>  (48) 
[H]c1c([H])c([H])c2c(c1[H])C([H])([H])C([H])([H])C([H])([H])C2([H])N([H])C(=O)C1([H])N(C(=O)C([H])(N([H])C(=O)C([H])(N([H])C([H])([H])[H])C([H])([H])[H])C(C([H])([H])[H])(C([H])([H])[H])C([H])([H])[H])C([H])([H])c2c([H])c(OC([H])([H])C([H])(C([H])([H])C([H])(C([H])([H])[H])C([H])([H])[H])C([H])([H])[N+]3([H])C([H])([H])C([H])([H])C([H])(C([H])([H])C([H])([H])N(C(=O)N4C([H])([H])C([H])([H])C([H])([H])C([H])(n5nc(-c6c([H])c([H])c(Oc7c([H])c([H])c(F)c([H])c7F)c([H])c6[H])c(C(=O)N([H])[H])c5N([H])[H])C4([H])[H])C([H])([H])[H])C([H])([H])C3([H])[H])c([H])c([H])c2C1([H])[H]

>  <smiles>  (48) 
[H]c1c([H])c([H])c2c(c1[H])C([H])([H])C([H])([H])C([H])([H])C2([H])N([H])C(=O)C1([H])N(C(=O)C([H])(N([H])C(=O)C([H])(N([H])C([H])([H])[H])C([H])([H])[H])C(C([H])([H])[H])(C([H])([H])[H])C([H])([H])[H])C([H])([H])c2c([H])c(OC([H])([H])C([H])(C([H])([H])C([H])(C([H])([H])[H])C([H])([H])[H])C([H])([H])[N+]3([H])C([H])([H])C([H])([H])C([H])(C([H])([H])C([H])([H])N(C(=O)N4C([H])([H])C([H])([H])C([H])([H])C([H])(n5nc(-c6c([H])c([H])c(Oc7c([H])c([H])c(F)c([H])c7F)c([H])c6[H])c(C(=O)N([H])[H])c5N([H])[H])C4([H])[H])C([H])([H])[H])C([H])([H])C3([H])[H])c([H])c([H])c2C1([H])[H]

$$$$
48:0:0
     RDKit          3D

 88 95  0  0  1  0  0  0  0  0999 V2000
  -29.7870  -23.0760   21.6920 C   0  0  0  0  0  1  0  0  0  0  0  0
  -27.3760  -22.4430   21.4320 C   0  0  0  0  0  1  0  0  0  0  0  0
  -28.6770  -22.7560   20.6720 C   0  0  2  0  0  0  0  0  0  0  0  0
  -29.1920  -21.1720   19.9640 C   0  0  0  0  0  2  0  0  0  0  0  0
  -29.1610  -19.6330   20.6090 N   0  0  0  0  0  4  0  0  0  0  0  0
  -29.4440  -19.7470   21.5700 H   0  0  0  0  0  0  0  0  0  0  0  0
  -28.1780  -19.4180   20.6450 H   0  0  0  0  0  0  0  0  0  0  0  0
  -29.9030  -18.2160   20.1160 C   0  0  0  0  0  2  0  0  0  0  0  0
  -30.4510  -15.3120   20.2620 C   0  0  0  0  0  0  0  0  0  0  0  0
  -30.4240  -12.8720   19.3730 C   0  0  0  0  0  2  0  0  0  0  0  0
  -29.5030  -12.6790   18.1400 C   0  0  0  0  0  2  0  0  0  0  0  0
  -28.0560  -12.4000   18.5860 C   0  0  0  0  0  2  0  0  0  0  0  0
  -27.6050  -13.3610   19.7130 C   0  0  0  0  0  3  0  0  0  0  0  0
  -28.6520  -13.4930   20.8410 C   0  0  0  0  0  2  0  0  0  0  0  0
  -29.8860  -14.0040   20.2210 N   0  0  0  0  0  0  0  0  0  0  0  0
  -31.6580  -15.3170   19.9760 O   0  0  0  0  0  0  0  0  0  0  0  0
  -29.6970  -16.5770   20.4250 N   0  0  0  0  0  0  0  0  0  0  0  0
  -28.7490  -16.3770   20.7080 H   0  0  0  0  0  0  0  0  0  0  0  0
  -25.2230  -13.9160   20.4400 C   0  0  0  0  0  0  0  0  0  0  0  0
  -24.1640  -13.1370   20.8140 C   0  0  0  0  0  0  0  0  0  0  0  0
  -24.6390  -11.7890   20.8010 C   0  0  0  0  0  0  0  0  0  0  0  0
  -26.2740  -13.0460   20.2150 N   0  0  0  0  0  0  0  0  0  0  0  0
  -25.9330  -11.7600   20.4970 N   0  0  0  0  0  0  0  0  0  0  0  0
  -23.9160  -10.5260   20.9990 C   0  0  0  0  0  0  0  0  0  0  0  0
  -24.3540   -9.5660   21.9380 C   0  0  0  0  0  3  0  0  0  0  0  0
  -23.6320   -8.3680   22.1260 C   0  0  0  0  0  3  0  0  0  0  0  0
  -22.4570   -8.1220   21.3730 C   0  0  0  0  0  0  0  0  0  0  0  0
  -22.0410   -9.0690   20.4220 C   0  0  0  0  0  3  0  0  0  0  0  0
  -22.7630  -10.2590   20.2330 C   0  0  0  0  0  3  0  0  0  0  0  0
  -21.7050   -6.9750   21.4700 O   0  0  0  0  0  0  0  0  0  0  0  0
  -21.6680   -6.2330   22.6240 C   0  0  0  0  0  0  0  0  0  0  0  0
  -21.2630   -6.7900   23.8570 C   0  0  0  0  0  3  0  0  0  0  0  0
  -21.1750   -5.9740   25.0030 C   0  0  0  0  0  3  0  0  0  0  0  0
  -21.4820   -4.6020   24.9170 C   0  0  0  0  0  0  0  0  0  0  0  0
  -21.8820   -4.0450   23.6890 C   0  0  0  0  0  3  0  0  0  0  0  0
  -21.9720   -4.8590   22.5460 C   0  0  0  0  0  0  0  0  0  0  0  0
  -22.3350   -4.3110   21.3610 F   0  0  0  0  0  0  0  0  0  0  0  0
  -21.3910   -3.8180   26.0150 F   0  0  0  0  0  0  0  0  0  0  0  0
  -22.7630  -13.6090   21.0700 C   0  0  0  0  0  0  0  0  0  0  0  0
  -22.0330  -12.9200   21.9410 N   0  0  0  0  0  0  0  0  0  0  0  0
  -22.3220  -14.6220   20.5300 O   0  0  0  0  0  0  0  0  0  0  0  0
  -22.4040  -12.1040   22.4040 H   0  0  0  0  0  0  0  0  0  0  0  0
  -21.0890  -13.2160   22.1470 H   0  0  0  0  0  0  0  0  0  0  0  0
  -25.3780  -15.2850   20.2440 N   0  0  0  0  0  0  0  0  0  0  0  0
  -24.5990  -15.9310   20.3130 H   0  0  0  0  0  0  0  0  0  0  0  0
  -26.2060  -15.7080   19.8430 H   0  0  0  0  0  0  0  0  0  0  0  0
  -28.3190  -24.3440   19.8900 C   0  0  0  0  0  2  0  0  0  0  0  0
  -28.2630  -25.9250   20.3600 O   0  0  0  0  0  0  0  0  0  0  0  0
  -24.6270  -31.8640   23.1920 C   0  0  0  0  0  0  0  0  0  0  0  0
  -27.2280  -26.9900   20.2200 C   0  0  0  0  0  0  0  0  0  0  0  0
  -23.4450  -30.4530   21.5550 C   0  0  0  0  0  3  0  0  0  0  0  0
  -24.9070  -28.8460   20.1460 C   0  0  0  0  0  0  0  0  0  0  0  0
  -26.0080  -30.6790   21.4180 C   0  0  0  0  0  2  0  0  0  0  0  0
  -26.0860  -29.2660   20.7730 C   0  0  0  0  0  0  0  0  0  0  0  0
  -27.2330  -28.3560   20.7920 C   0  0  0  0  0  3  0  0  0  0  0  0
  -26.0220  -26.7210   19.5330 C   0  0  0  0  0  3  0  0  0  0  0  0
  -24.9020  -27.5960   19.5030 C   0  0  0  0  0  3  0  0  0  0  0  0
  -23.6810  -29.7580   20.1840 C   0  0  0  0  0  2  0  0  0  0  0  0
  -24.7150  -31.0250   22.1090 N   0  0  0  0  0  0  0  0  0  0  0  0
  -23.5350  -32.1510   23.7090 O   0  0  0  0  0  0  0  0  0  0  0  0
  -22.7520  -29.4610   22.5260 C   0  0  0  0  0  0  0  0  0  0  0  0
  -21.4210  -29.2980   22.4050 N   0  0  0  0  0  0  0  0  0  0  0  0
  -23.4170  -28.8410   23.3590 O   0  0  0  0  0  0  0  0  0  0  0  0
  -20.9350  -29.8540   21.7150 H   0  0  0  0  0  0  0  0  0  0  0  0
  -18.0400  -28.0830   22.9120 C   0  0  0  0  0  0  0  0  0  0  0  0
  -20.5990  -28.3610   23.1800 C   0  0  0  0  0  3  0  0  0  0  0  0
  -20.7070  -26.9250   22.6150 C   0  0  0  0  0  2  0  0  0  0  0  0
  -19.6080  -26.5920   21.6010 C   0  0  0  0  0  2  0  0  0  0  0  0
  -18.2240  -26.7330   22.2410 C   0  0  0  0  0  2  0  0  0  0  0  0
  -19.1540  -28.8540   23.3390 C   0  0  0  0  0  0  0  0  0  0  0  0
  -18.9240  -30.1160   23.9280 C   0  0  0  0  0  3  0  0  0  0  0  0
  -17.6150  -30.6040   24.1000 C   0  0  0  0  0  3  0  0  0  0  0  0
  -16.5160  -29.8310   23.6880 C   0  0  0  0  0  3  0  0  0  0  0  0
  -16.7300  -28.5740   23.0960 C   0  0  0  0  0  3  0  0  0  0  0  0
  -25.8930  -32.5160   23.8270 C   0  0  0  0  0  3  0  0  0  0  0  0
  -26.4000  -31.7600   25.1180 C   0  0  1  0  0  0  0  0  0  0  0  0
  -25.3000  -31.5310   26.1810 C   0  0  0  0  0  1  0  0  0  0  0  0
  -26.9900  -30.3790   24.7510 C   0  0  0  0  0  1  0  0  0  0  0  0
  -27.5430  -32.5650   25.7810 C   0  0  0  0  0  1  0  0  0  0  0  0
  -25.5650  -33.9150   24.1580 N   0  0  0  0  0  0  0  0  0  0  0  0
  -25.8930  -34.9780   23.4120 C   0  0  0  0  0  0  0  0  0  0  0  0
  -26.5650  -34.8870   22.3810 O   0  0  0  0  0  0  0  0  0  0  0  0
  -24.9670  -34.0580   24.9570 H   0  0  0  0  0  0  0  0  0  0  0  0
  -24.1510  -36.7710   23.0820 C   0  0  0  0  0  1  0  0  0  0  0  0
  -25.4010  -36.3630   23.8810 C   0  0  0  0  0  3  0  0  0  0  0  0
  -27.5350  -37.2600   24.7050 C   0  0  0  0  0  1  0  0  0  0  0  0
  -26.4250  -37.4250   23.7690 N   0  0  0  0  0  0  0  0  0  0  0  0
  -26.0140  -38.3430   23.9260 H   0  0  0  0  0  0  0  0  0  0  0  0
  3  2  1  1
  3  1  1  0
  4  5  1  0
  4  3  1  0
  5  7  1  0
  5  6  1  0
  8 17  1  0
  8  5  1  0
  9 17  1  0
 10 15  1  0
 11 12  1  0
 11 10  1  0
 13 12  1  0
 13 22  1  0
 13 14  1  0
 15  9  1  0
 15 14  1  0
 16  9  2  0
 17 18  1  0
 19 20  2  0
 20 39  1  0
 21 20  1  0
 21 24  1  0
 22 19  1  0
 22 23  1  0
 23 21  2  0
 24 25  1  0
 25 26  2  0
 27 30  1  0
 27 26  1  0
 28 27  2  0
 29 28  1  0
 29 24  2  0
 30 31  1  0
 31 32  1  0
 32 33  2  0
 34 33  1  0
 34 38  1  0
 35 34  2  0
 36 31  2  0
 36 35  1  0
 37 36  1  0
 39 40  1  0
 40 43  1  0
 40 42  1  0
 41 39  2  0
 44 45  1  0
 44 19  1  0
 46 44  1  0
 47 48  1  0
 47  3  1  0
 49 60  2  0
 50 48  1  0
 50 55  1  0
 51 59  1  0
 51 61  1  0
 52 58  1  0
 52 54  1  0
 53 59  1  0
 54 55  2  0
 54 53  1  0
 56 50  2  0
 57 56  1  0
 57 52  2  0
 58 51  1  0
 59 49  1  0
 61 63  2  0
 62 61  1  0
 64 62  1  0
 65 74  2  0
 65 70  1  0
 66 62  1  0
 66 70  1  0
 67 66  1  0
 68 69  1  0
 68 67  1  0
 69 65  1  0
 70 71  2  0
 71 72  1  0
 73 72  2  0
 74 73  1  0
 75 49  1  0
 75 80  1  0
 75 76  1  0
 76 79  1  1
 76 77  1  0
 78 76  1  0
 80 83  1  0
 81 85  1  0
 81 80  1  0
 82 81  2  0
 85 84  1  0
 87 85  1  0
 87 88  1  0
 87 86  1  0
M  ISO  4   9 100  17 100  47 101  48 101
M  END
>  <TORSDO>  (49) 
F 20

>  <SCORE>  (49) 
-16.588

>  <name>  (49) 
48

>  <ligand_id>  (49) 
48

>  <original_smiles>  (49) 
[H]c1c([H])c([H])c2c(c1[H])C([H])([H])C([H])([H])C([H])([H])C2([H])N([H])C(=O)C1([H])N(C(=O)C([H])(N([H])C(=O)C([H])(N([H])C([H])([H])[H])C([H])([H])[H])C(C([H])([H])[H])(C([H])([H])[H])C([H])([H])[H])C([H])([H])c2c([H])c(OC([H])([H])C(C([H])([H])[H])(C([H])([H])[H])C([H])([H])[N+]([H])([H])C([H])([H])N([H])C(=O)N3C([H])([H])C([H])([H])C([H])([H])C([H])(n4nc(-c5c([H])c([H])c(Oc6c([H])c([H])c(F)c([H])c6F)c([H])c5[H])c(C(=O)N([H])[H])c4N([H])[H])C3([H])[H])c([H])c([H])c2C1([H])[H]

>  <smiles>  (49) 
[H]c1c([H])c([H])c2c(c1[H])C([H])([H])C([H])([H])C([H])([H])C2([H])N([H])C(=O)C1([H])N(C(=O)C([H])(N([H])C(=O)C([H])(N([H])C([H])([H])[H])C([H])([H])[H])C(C([H])([H])[H])(C([H])([H])[H])C([H])([H])[H])C([H])([H])c2c([H])c(OC([H])([H])C(C([H])([H])[H])(C([H])([H])[H])C([H])([H])[N+]([H])([H])C([H])([H])N([H])C(=O)N3C([H])([H])C([H])([H])C([H])([H])C([H])(n4nc(-c5c([H])c([H])c(Oc6c([H])c([H])c(F)c([H])c6F)c([H])c5[H])c(C(=O)N([H])[H])c4N([H])[H])C3([H])[H])c([H])c([H])c2C1([H])[H]

$$$$
49:0:0
     RDKit          3D

 91 99  0  0  1  0  0  0  0  0999 V2000
  -30.0270  -22.7080   19.7640 C   0  0  0  0  0  2  0  0  0  0  0  0
  -27.6350  -22.2190   19.9840 C   0  0  0  0  0  2  0  0  0  0  0  0
  -29.7500  -24.2060   20.2280 C   0  0  0  0  0  2  0  0  0  0  0  0
  -27.3960  -23.7330   20.4790 C   0  0  0  0  0  2  0  0  0  0  0  0
  -29.0470  -21.5500   20.2490 C   0  0  0  0  0  3  0  0  0  0  0  0
  -28.3540  -24.8420   19.8840 C   0  0  0  0  0  3  0  0  0  0  0  0
  -30.1630  -20.1370   18.4320 C   0  0  0  0  0  1  0  0  0  0  0  0
  -29.2730  -20.1070   19.6250 N   0  0  1  0  0  4  0  0  0  0  0  0
  -28.3800  -19.9390   19.1860 H   0  0  0  0  0  0  0  0  0  0  0  0
  -30.2270  -18.9910   21.7530 C   0  0  0  0  0  1  0  0  0  0  0  0
  -29.4270  -18.7720   20.4570 C   0  0  0  0  0  3  0  0  0  0  0  0
  -29.9630  -17.3800   19.7160 C   0  0  0  0  0  2  0  0  0  0  0  0
  -30.6020  -14.8010   20.0390 C   0  0  0  0  0  0  0  0  0  0  0  0
  -30.3630  -12.5150   19.0330 C   0  0  0  0  0  2  0  0  0  0  0  0
  -29.3780  -12.6110   17.8460 C   0  0  0  0  0  2  0  0  0  0  0  0
  -27.9280  -12.4330   18.3330 C   0  0  0  0  0  2  0  0  0  0  0  0
  -27.6130  -13.3020   19.5800 C   0  0  0  0  0  3  0  0  0  0  0  0
  -28.7160  -13.1990   20.6580 C   0  0  0  0  0  2  0  0  0  0  0  0
  -29.9870  -13.5630   20.0190 N   0  0  0  0  0  0  0  0  0  0  0  0
  -31.7600  -14.8970   19.6190 O   0  0  0  0  0  0  0  0  0  0  0  0
  -29.8370  -15.9460   20.2990 N   0  0  0  0  0  0  0  0  0  0  0  0
  -28.9390  -15.7440   20.7100 H   0  0  0  0  0  0  0  0  0  0  0  0
  -25.2710  -13.9070   20.4210 C   0  0  0  0  0  0  0  0  0  0  0  0
  -24.2140  -13.1410   20.8290 C   0  0  0  0  0  0  0  0  0  0  0  0
  -24.6610  -11.7850   20.7660 C   0  0  0  0  0  0  0  0  0  0  0  0
  -26.2910  -13.0180   20.1270 N   0  0  0  0  0  0  0  0  0  0  0  0
  -25.9360  -11.7370   20.3990 N   0  0  0  0  0  0  0  0  0  0  0  0
  -23.9280  -10.5310   20.9790 C   0  0  0  0  0  0  0  0  0  0  0  0
  -24.3830   -9.5540   21.8900 C   0  0  0  0  0  3  0  0  0  0  0  0
  -23.6510   -8.3630   22.0890 C   0  0  0  0  0  3  0  0  0  0  0  0
  -22.4510   -8.1410   21.3730 C   0  0  0  0  0  0  0  0  0  0  0  0
  -22.0150   -9.1060   20.4470 C   0  0  0  0  0  3  0  0  0  0  0  0
  -22.7460  -10.2880   20.2480 C   0  0  0  0  0  3  0  0  0  0  0  0
  -21.6870   -7.0040   21.4820 O   0  0  0  0  0  0  0  0  0  0  0  0
  -21.6630   -6.2590   22.6340 C   0  0  0  0  0  0  0  0  0  0  0  0
  -21.2840   -6.8170   23.8740 C   0  0  0  0  0  3  0  0  0  0  0  0
  -21.2070   -6.0010   25.0200 C   0  0  0  0  0  3  0  0  0  0  0  0
  -21.5000   -4.6270   24.9250 C   0  0  0  0  0  0  0  0  0  0  0  0
  -21.8760   -4.0690   23.6910 C   0  0  0  0  0  3  0  0  0  0  0  0
  -21.9540   -4.8820   22.5470 C   0  0  0  0  0  0  0  0  0  0  0  0
  -22.2940   -4.3360   21.3550 F   0  0  0  0  0  0  0  0  0  0  0  0
  -21.4190   -3.8390   26.0230 F   0  0  0  0  0  0  0  0  0  0  0  0
  -22.8370  -13.6320   21.1650 C   0  0  0  0  0  0  0  0  0  0  0  0
  -22.1390  -12.9340   22.0530 N   0  0  0  0  0  0  0  0  0  0  0  0
  -22.3880  -14.6650   20.6720 O   0  0  0  0  0  0  0  0  0  0  0  0
  -22.5190  -12.0980   22.4710 H   0  0  0  0  0  0  0  0  0  0  0  0
  -21.2130  -13.2390   22.3180 H   0  0  0  0  0  0  0  0  0  0  0  0
  -25.4440  -15.2770   20.2500 N   0  0  0  0  0  0  0  0  0  0  0  0
  -24.6850  -15.9360   20.3880 H   0  0  0  0  0  0  0  0  0  0  0  0
  -26.2660  -15.7010   19.8410 H   0  0  0  0  0  0  0  0  0  0  0  0
  -28.3000  -26.3070   20.3080 O   0  0  0  0  0  0  0  0  0  0  0  0
  -24.6080  -31.8470   23.2260 C   0  0  0  0  0  0  0  0  0  0  0  0
  -27.1930  -27.1920   20.1980 C   0  0  0  0  0  0  0  0  0  0  0  0
  -23.4020  -30.4440   21.5920 C   0  0  0  0  0  3  0  0  0  0  0  0
  -24.8450  -28.8690   20.1690 C   0  0  0  0  0  0  0  0  0  0  0  0
  -25.9470  -30.7290   21.4150 C   0  0  0  0  0  2  0  0  0  0  0  0
  -26.0180  -29.3420   20.7680 C   0  0  0  0  0  0  0  0  0  0  0  0
  -27.1920  -28.5170   20.7670 C   0  0  0  0  0  3  0  0  0  0  0  0
  -26.0020  -26.7950   19.5590 C   0  0  0  0  0  3  0  0  0  0  0  0
  -24.8440  -27.6060   19.5510 C   0  0  0  0  0  3  0  0  0  0  0  0
  -23.6120  -29.7560   20.2180 C   0  0  0  0  0  2  0  0  0  0  0  0
  -24.6720  -31.0290   22.1330 N   0  0  0  0  0  0  0  0  0  0  0  0
  -23.5250  -32.1330   23.7580 O   0  0  0  0  0  0  0  0  0  0  0  0
  -22.7290  -29.4400   22.5600 C   0  0  0  0  0  0  0  0  0  0  0  0
  -21.4010  -29.2740   22.4380 N   0  0  0  0  0  0  0  0  0  0  0  0
  -23.4040  -28.8150   23.3830 O   0  0  0  0  0  0  0  0  0  0  0  0
  -20.9160  -29.8290   21.7460 H   0  0  0  0  0  0  0  0  0  0  0  0
  -18.0160  -28.0960   22.9590 C   0  0  0  0  0  0  0  0  0  0  0  0
  -20.5780  -28.3440   23.2150 C   0  0  0  0  0  3  0  0  0  0  0  0
  -20.6680  -26.9100   22.6420 C   0  0  0  0  0  2  0  0  0  0  0  0
  -19.5590  -26.5910   21.6340 C   0  0  0  0  0  2  0  0  0  0  0  0
  -18.1810  -26.7460   22.2840 C   0  0  0  0  0  2  0  0  0  0  0  0
  -19.1420  -28.8530   23.3820 C   0  0  0  0  0  0  0  0  0  0  0  0
  -18.9320  -30.1190   23.9740 C   0  0  0  0  0  3  0  0  0  0  0  0
  -17.6300  -30.6250   24.1480 C   0  0  0  0  0  3  0  0  0  0  0  0
  -16.5200  -29.8660   23.7410 C   0  0  0  0  0  3  0  0  0  0  0  0
  -16.7140  -28.6010   23.1530 C   0  0  0  0  0  3  0  0  0  0  0  0
  -25.8890  -32.4810   23.8490 C   0  0  0  0  0  3  0  0  0  0  0  0
  -26.4080  -31.7100   25.1260 C   0  0  1  0  0  0  0  0  0  0  0  0
  -25.3150  -31.4690   26.1940 C   0  0  0  0  0  1  0  0  0  0  0  0
  -26.9920  -30.3320   24.7370 C   0  0  0  0  0  1  0  0  0  0  0  0
  -27.5600  -32.5050   25.7850 C   0  0  0  0  0  1  0  0  0  0  0  0
  -25.5790  -33.8790   24.1850 N   0  0  0  0  0  0  0  0  0  0  0  0
  -25.9050  -34.9380   23.4310 C   0  0  0  0  0  0  0  0  0  0  0  0
  -26.5690  -34.8390   22.3950 O   0  0  0  0  0  0  0  0  0  0  0  0
  -24.9920  -34.0290   24.9910 H   0  0  0  0  0  0  0  0  0  0  0  0
  -24.1690  -36.7280   23.1020 C   0  0  0  0  0  1  0  0  0  0  0  0
  -25.4200  -36.3240   23.8980 C   0  0  0  0  0  3  0  0  0  0  0  0
  -27.5610  -37.2090   24.7100 C   0  0  0  0  0  1  0  0  0  0  0  0
  -26.4490  -37.3810   23.7790 N   0  0  0  0  0  0  0  0  0  0  0  0
  -26.0430  -38.2990   23.9350 H   0  0  0  0  0  0  0  0  0  0  0  0
  1  3  1  0
  1  5  1  0
  2  5  1  0
  2  4  1  0
  5  8  1  0
  6  3  1  0
  6 51  1  0
  6  4  1  0
  7  8  1  0
  8 11  1  0
  8  9  1  6
 11 10  1  0
 12 21  1  0
 12 11  1  0
 13 21  1  0
 14 19  1  0
 15 16  1  0
 15 14  1  0
 17 16  1  0
 17 26  1  0
 17 18  1  0
 19 13  1  0
 19 18  1  0
 20 13  2  0
 21 22  1  0
 23 24  2  0
 24 43  1  0
 25 24  1  0
 25 28  1  0
 26 27  1  0
 26 23  1  0
 27 25  2  0
 28 29  1  0
 29 30  2  0
 31 34  1  0
 31 30  1  0
 32 31  2  0
 33 32  1  0
 33 28  2  0
 34 35  1  0
 35 36  1  0
 36 37  2  0
 38 37  1  0
 38 42  1  0
 39 38  2  0
 40 35  2  0
 40 39  1  0
 41 40  1  0
 43 44  1  0
 44 47  1  0
 44 46  1  0
 45 43  2  0
 48 49  1  0
 48 23  1  0
 50 48  1  0
 52 63  2  0
 53 51  1  0
 53 58  1  0
 54 62  1  0
 54 64  1  0
 55 61  1  0
 55 57  1  0
 56 62  1  0
 57 56  1  0
 58 57  2  0
 59 53  2  0
 60 59  1  0
 60 55  2  0
 61 54  1  0
 62 52  1  0
 64 66  2  0
 65 64  1  0
 67 65  1  0
 68 77  2  0
 68 73  1  0
 69 65  1  0
 69 73  1  0
 70 69  1  0
 71 72  1  0
 71 70  1  0
 72 68  1  0
 73 74  2  0
 74 75  1  0
 76 75  2  0
 77 76  1  0
 78 52  1  0
 78 83  1  0
 78 79  1  0
 79 82  1  1
 79 80  1  0
 81 79  1  0
 83 86  1  0
 84 88  1  0
 84 83  1  0
 85 84  2  0
 88 87  1  0
 90 88  1  0
 90 91  1  0
 90 89  1  0
M  ISO  4   6 101  13 100  21 100  51 101
M  END
>  <TORSDO>  (50) 
F 19

>  <SCORE>  (50) 
-13.917

>  <name>  (50) 
49

>  <ligand_id>  (50) 
49

>  <original_smiles>  (50) 
[H]c1c([H])c([H])c2c(c1[H])C([H])([H])C([H])([H])C([H])([H])C2([H])N([H])C(=O)C1([H])N(C(=O)C([H])(N([H])C(=O)C([H])(N([H])C([H])([H])[H])C([H])([H])[H])C(C([H])([H])[H])(C([H])([H])[H])C([H])([H])[H])C([H])([H])c2c([H])c(OC3([H])C([H])([H])C([H])([H])C([H])([N+]([H])(C([H])([H])[H])C([H])(C([H])([H])[H])C([H])([H])N([H])C(=O)N4C([H])([H])C([H])([H])C([H])([H])C([H])(n5nc(-c6c([H])c([H])c(Oc7c([H])c([H])c(F)c([H])c7F)c([H])c6[H])c(C(=O)N([H])[H])c5N([H])[H])C4([H])[H])C([H])([H])C3([H])[H])c([H])c([H])c2C1([H])[H]

>  <smiles>  (50) 
[H]c1c([H])c([H])c2c(c1[H])C([H])([H])C([H])([H])C([H])([H])C2([H])N([H])C(=O)C1([H])N(C(=O)C([H])(N([H])C(=O)C([H])(N([H])C([H])([H])[H])C([H])([H])[H])C(C([H])([H])[H])(C([H])([H])[H])C([H])([H])[H])C([H])([H])c2c([H])c(OC3([H])C([H])([H])C([H])([H])C([H])([N+]([H])(C([H])([H])[H])C([H])(C([H])([H])[H])C([H])([H])N([H])C(=O)N4C([H])([H])C([H])([H])C([H])([H])C([H])(n5nc(-c6c([H])c([H])c(Oc7c([H])c([H])c(F)c([H])c7F)c([H])c6[H])c(C(=O)N([H])[H])c5N([H])[H])C4([H])[H])C([H])([H])C3([H])[H])c([H])c([H])c2C1([H])[H]

$$$$
50:0:0
     RDKit          3D

 89 97  0  0  1  0  0  0  0  0999 V2000
  -29.0320  -21.9950   19.1530 C   0  0  0  0  0  2  0  0  0  0  0  0
  -28.1210  -21.9590   21.3440 C   0  0  0  0  0  2  0  0  0  0  0  0
  -29.1220  -23.6440   19.2440 C   0  0  0  0  0  2  0  0  0  0  0  0
  -28.2170  -23.5990   21.4320 C   0  0  0  0  0  2  0  0  0  0  0  0
  -29.1370  -21.0610   20.4640 C   0  0  0  0  0  3  0  0  0  0  0  0
  -28.0870  -24.5170   20.1220 C   0  0  0  0  0  3  0  0  0  0  0  0
  -27.6730  -18.9990   19.6300 C   0  0  0  0  0  1  0  0  0  0  0  0
  -28.9240  -19.3160   20.4610 C   0  0  0  0  0  3  0  0  0  0  0  0
  -30.7040  -18.2080   18.8780 C   0  0  0  0  0  1  0  0  0  0  0  0
  -30.0430  -18.0010   20.2510 C   0  0  0  0  0  3  0  0  0  0  0  0
  -30.4980  -15.1820   20.2580 C   0  0  0  0  0  0  0  0  0  0  0  0
  -30.4020  -12.8040   19.3170 C   0  0  0  0  0  2  0  0  0  0  0  0
  -29.4530  -12.7140   18.0990 C   0  0  0  0  0  2  0  0  0  0  0  0
  -28.0050  -12.4640   18.5590 C   0  0  0  0  0  2  0  0  0  0  0  0
  -27.5980  -13.3840   19.7400 C   0  0  0  0  0  3  0  0  0  0  0  0
  -28.6720  -13.4420   20.8460 C   0  0  0  0  0  2  0  0  0  0  0  0
  -29.9110  -13.9050   20.2080 N   0  0  0  0  0  0  0  0  0  0  0  0
  -31.7030  -15.2120   19.9790 O   0  0  0  0  0  0  0  0  0  0  0  0
  -29.7360  -16.4100   20.4080 N   0  0  0  0  0  0  0  0  0  0  0  0
  -28.7710  -16.2210   20.6330 H   0  0  0  0  0  0  0  0  0  0  0  0
  -25.2350  -13.9270   20.5460 C   0  0  0  0  0  0  0  0  0  0  0  0
  -24.1840  -13.1390   20.9240 C   0  0  0  0  0  0  0  0  0  0  0  0
  -24.6550  -11.7920   20.8590 C   0  0  0  0  0  0  0  0  0  0  0  0
  -26.2770  -13.0600   20.2670 N   0  0  0  0  0  0  0  0  0  0  0  0
  -25.9400  -11.7690   20.5220 N   0  0  0  0  0  0  0  0  0  0  0  0
  -23.9380  -10.5230   21.0400 C   0  0  0  0  0  0  0  0  0  0  0  0
  -24.3710   -9.5540   21.9720 C   0  0  0  0  0  3  0  0  0  0  0  0
  -23.6500   -8.3520   22.1420 C   0  0  0  0  0  3  0  0  0  0  0  0
  -22.4830   -8.1090   21.3790 C   0  0  0  0  0  0  0  0  0  0  0  0
  -22.0700   -9.0670   20.4350 C   0  0  0  0  0  3  0  0  0  0  0  0
  -22.7910  -10.2590   20.2630 C   0  0  0  0  0  3  0  0  0  0  0  0
  -21.7350   -6.9590   21.4580 O   0  0  0  0  0  0  0  0  0  0  0  0
  -21.6520   -6.2330   22.6190 C   0  0  0  0  0  0  0  0  0  0  0  0
  -21.1300   -6.7860   23.8090 C   0  0  0  0  0  3  0  0  0  0  0  0
  -20.9990   -5.9830   24.9590 C   0  0  0  0  0  3  0  0  0  0  0  0
  -21.3780   -4.6280   24.9210 C   0  0  0  0  0  0  0  0  0  0  0  0
  -21.8920   -4.0740   23.7350 C   0  0  0  0  0  3  0  0  0  0  0  0
  -22.0250   -4.8740   22.5870 C   0  0  0  0  0  0  0  0  0  0  0  0
  -22.5010   -4.3300   21.4410 F   0  0  0  0  0  0  0  0  0  0  0  0
  -21.2450   -3.8550   26.0230 F   0  0  0  0  0  0  0  0  0  0  0  0
  -22.7910  -13.6060   21.2270 C   0  0  0  0  0  0  0  0  0  0  0  0
  -22.0810  -12.8930   22.0940 N   0  0  0  0  0  0  0  0  0  0  0  0
  -22.3400  -14.6360   20.7290 O   0  0  0  0  0  0  0  0  0  0  0  0
  -22.4590  -12.0600   22.5190 H   0  0  0  0  0  0  0  0  0  0  0  0
  -21.1440  -13.1860   22.3350 H   0  0  0  0  0  0  0  0  0  0  0  0
  -25.3860  -15.3010   20.3880 N   0  0  0  0  0  0  0  0  0  0  0  0
  -24.6120  -15.9430   20.5170 H   0  0  0  0  0  0  0  0  0  0  0  0
  -26.2100  -15.7460   20.0060 H   0  0  0  0  0  0  0  0  0  0  0  0
  -28.2320  -26.1150   20.2210 O   0  0  0  0  0  0  0  0  0  0  0  0
  -24.6230  -31.8960   23.2450 C   0  0  0  0  0  0  0  0  0  0  0  0
  -27.1720  -27.1250   20.1810 C   0  0  0  0  0  0  0  0  0  0  0  0
  -23.4170  -30.5120   21.6030 C   0  0  0  0  0  3  0  0  0  0  0  0
  -24.8550  -28.9300   20.1640 C   0  0  0  0  0  0  0  0  0  0  0  0
  -25.9740  -30.7530   21.4340 C   0  0  0  0  0  2  0  0  0  0  0  0
  -26.0420  -29.3560   20.7730 C   0  0  0  0  0  0  0  0  0  0  0  0
  -27.1970  -28.4720   20.7600 C   0  0  0  0  0  3  0  0  0  0  0  0
  -25.9560  -26.8240   19.5270 C   0  0  0  0  0  3  0  0  0  0  0  0
  -24.8300  -27.6810   19.5240 C   0  0  0  0  0  3  0  0  0  0  0  0
  -23.6340  -29.8390   20.2210 C   0  0  0  0  0  2  0  0  0  0  0  0
  -24.6940  -31.0780   22.1480 N   0  0  0  0  0  0  0  0  0  0  0  0
  -23.5390  -32.1800   23.7780 O   0  0  0  0  0  0  0  0  0  0  0  0
  -22.7360  -29.5040   22.5660 C   0  0  0  0  0  0  0  0  0  0  0  0
  -21.4080  -29.3290   22.4390 N   0  0  0  0  0  0  0  0  0  0  0  0
  -23.4080  -28.8810   23.3910 O   0  0  0  0  0  0  0  0  0  0  0  0
  -20.9200  -29.8830   21.7490 H   0  0  0  0  0  0  0  0  0  0  0  0
  -18.0330  -28.1070   22.9440 C   0  0  0  0  0  0  0  0  0  0  0  0
  -20.5920  -28.3850   23.2080 C   0  0  0  0  0  3  0  0  0  0  0  0
  -20.7000  -26.9550   22.6310 C   0  0  0  0  0  2  0  0  0  0  0  0
  -19.6000  -26.6280   21.6180 C   0  0  0  0  0  2  0  0  0  0  0  0
  -18.2170  -26.7620   22.2620 C   0  0  0  0  0  2  0  0  0  0  0  0
  -19.1480  -28.8760   23.3740 C   0  0  0  0  0  0  0  0  0  0  0  0
  -18.9190  -30.1330   23.9740 C   0  0  0  0  0  3  0  0  0  0  0  0
  -17.6100  -30.6240   24.1460 C   0  0  0  0  0  3  0  0  0  0  0  0
  -16.5110  -29.8540   23.7300 C   0  0  0  0  0  3  0  0  0  0  0  0
  -16.7230  -28.5960   23.1360 C   0  0  0  0  0  3  0  0  0  0  0  0
  -25.9020  -32.5320   23.8710 C   0  0  0  0  0  3  0  0  0  0  0  0
  -25.5920  -33.9310   24.2070 N   0  0  0  0  0  0  0  0  0  0  0  0
  -25.8980  -34.9890   23.4440 C   0  0  0  0  0  0  0  0  0  0  0  0
  -26.5350  -34.8880   22.3920 O   0  0  0  0  0  0  0  0  0  0  0  0
  -25.0220  -34.0830   25.0270 H   0  0  0  0  0  0  0  0  0  0  0  0
  -24.1480  -36.7760   23.1580 C   0  0  0  0  0  1  0  0  0  0  0  0
  -25.4230  -36.3770   23.9190 C   0  0  0  0  0  3  0  0  0  0  0  0
  -27.5790  -37.2850   24.6690 C   0  0  0  0  0  1  0  0  0  0  0  0
  -26.4450  -37.4360   23.7610 N   0  0  0  0  0  0  0  0  0  0  0  0
  -26.0390  -38.3550   23.9130 H   0  0  0  0  0  0  0  0  0  0  0  0
  -26.4100  -31.7640   25.1540 C   0  0  1  0  0  0  0  0  0  0  0  0
  -25.3130  -31.5320   26.2180 C   0  0  0  0  0  1  0  0  0  0  0  0
  -26.9930  -30.3840   24.7730 C   0  0  0  0  0  1  0  0  0  0  0  0
  -27.5590  -32.5580   25.8190 C   0  0  0  0  0  1  0  0  0  0  0  0
  1  3  1  0
  1  5  1  0
  2  4  1  0
  3  6  1  0
  5  8  1  0
  5  2  1  0
  6 49  1  0
  6  4  1  0
  8  7  1  0
 10  9  1  0
 10 19  1  0
 10  8  1  0
 11 19  1  0
 12 17  1  0
 13 14  1  0
 13 12  1  0
 15 14  1  0
 15 24  1  0
 15 16  1  0
 17 11  1  0
 17 16  1  0
 18 11  2  0
 19 20  1  0
 21 22  2  0
 22 41  1  0
 23 22  1  0
 23 26  1  0
 24 25  1  0
 24 21  1  0
 25 23  2  0
 26 27  1  0
 27 28  2  0
 29 32  1  0
 29 28  1  0
 30 29  2  0
 31 30  1  0
 31 26  2  0
 32 33  1  0
 33 34  1  0
 34 35  2  0
 36 35  1  0
 36 40  1  0
 37 36  2  0
 38 33  2  0
 38 37  1  0
 39 38  1  0
 41 42  1  0
 42 45  1  0
 42 44  1  0
 43 41  2  0
 46 47  1  0
 46 21  1  0
 48 46  1  0
 50 61  2  0
 51 49  1  0
 51 56  1  0
 52 60  1  0
 52 62  1  0
 53 59  1  0
 53 55  1  0
 54 60  1  0
 55 54  1  0
 56 55  2  0
 57 51  2  0
 58 57  1  0
 58 53  2  0
 59 52  1  0
 60 50  1  0
 62 64  2  0
 63 62  1  0
 65 63  1  0
 66 75  2  0
 66 71  1  0
 67 63  1  0
 67 71  1  0
 68 67  1  0
 69 70  1  0
 69 68  1  0
 70 66  1  0
 71 72  2  0
 72 73  1  0
 74 73  2  0
 75 74  1  0
 76 50  1  0
 76 77  1  0
 76 86  1  0
 77 80  1  0
 78 82  1  0
 78 77  1  0
 79 78  2  0
 82 81  1  0
 84 85  1  0
 84 82  1  0
 84 83  1  0
 86 89  1  1
 86 87  1  0
 88 86  1  0
M  ISO  4   6 101  11 100  19 100  49 101
M  END
>  <TORSDO>  (51) 
F 18

>  <SCORE>  (51) 
-15.670

>  <name>  (51) 
50

>  <ligand_id>  (51) 
50

>  <original_smiles>  (51) 
[H]c1c([H])c([H])c2c(c1[H])C([H])([H])C([H])([H])C([H])([H])C2([H])N([H])C(=O)C1([H])N(C(=O)C([H])(N([H])C(=O)C([H])(N([H])C([H])([H])[H])C([H])([H])[H])C(C([H])([H])[H])(C([H])([H])[H])C([H])([H])[H])C([H])([H])c2c([H])c(OC3([H])C([H])([H])C([H])([H])C([H])(C([H])(C([H])([H])[H])C([H])(N([H])C(=O)N4C([H])([H])C([H])([H])C([H])([H])C([H])(n5nc(-c6c([H])c([H])c(Oc7c([H])c([H])c(F)c([H])c7F)c([H])c6[H])c(C(=O)N([H])[H])c5N([H])[H])C4([H])[H])C([H])([H])[H])C([H])([H])C3([H])[H])c([H])c([H])c2C1([H])[H]

>  <smiles>  (51) 
[H]c1c([H])c([H])c2c(c1[H])C([H])([H])C([H])([H])C([H])([H])C2([H])N([H])C(=O)C1([H])N(C(=O)C([H])(N([H])C(=O)C([H])(N([H])C([H])([H])[H])C([H])([H])[H])C(C([H])([H])[H])(C([H])([H])[H])C([H])([H])[H])C([H])([H])c2c([H])c(OC3([H])C([H])([H])C([H])([H])C([H])(C([H])(C([H])([H])[H])C([H])(N([H])C(=O)N4C([H])([H])C([H])([H])C([H])([H])C([H])(n5nc(-c6c([H])c([H])c(Oc7c([H])c([H])c(F)c([H])c7F)c([H])c6[H])c(C(=O)N([H])[H])c5N([H])[H])C4([H])[H])C([H])([H])[H])C([H])([H])C3([H])[H])c([H])c([H])c2C1([H])[H]

$$$$
51:0:0
     RDKit          3D

 85 89  0  0  1  0  0  0  0  0999 V2000
  -28.2920  -23.3160   18.5200 C   0  0  0  0  0  1  0  0  0  0  0  0
  -26.6620  -23.0290   20.4090 C   0  0  0  0  0  1  0  0  0  0  0  0
  -28.1310  -23.2840   20.0440 C   0  0  0  0  0  2  0  0  0  0  0  0
  -28.1310  -25.1610   20.3390 O   0  0  0  0  0  1  0  0  0  0  0  0
  -24.6300  -31.8020   23.1220 C   0  0  0  0  0  0  0  0  0  0  0  0
  -27.1920  -26.4930   20.2200 C   0  0  0  0  0  0  0  0  0  0  0  0
  -23.4650  -30.3680   21.5040 C   0  0  0  0  0  3  0  0  0  0  0  0
  -24.9320  -28.6710   20.1240 C   0  0  0  0  0  0  0  0  0  0  0  0
  -26.0540  -30.4560   21.4170 C   0  0  0  0  0  2  0  0  0  0  0  0
  -26.1250  -28.9900   20.7810 C   0  0  0  0  0  0  0  0  0  0  0  0
  -27.2220  -27.9350   20.7970 C   0  0  0  0  0  3  0  0  0  0  0  0
  -25.9720  -26.4650   19.4740 C   0  0  0  0  0  3  0  0  0  0  0  0
  -24.9110  -27.4390   19.4440 C   0  0  0  0  0  3  0  0  0  0  0  0
  -23.7270  -29.6410   20.1490 C   0  0  0  0  0  2  0  0  0  0  0  0
  -24.7430  -30.9170   22.0660 N   0  0  0  0  0  0  0  0  0  0  0  0
  -23.5290  -32.1110   23.6130 O   0  0  0  0  0  0  0  0  0  0  0  0
  -22.7320  -29.4200   22.4930 C   0  0  0  0  0  0  0  0  0  0  0  0
  -21.3950  -29.2830   22.3840 N   0  0  0  0  0  0  0  0  0  0  0  0
  -23.3830  -28.8010   23.3370 O   0  0  0  0  0  0  0  0  0  0  0  0
  -20.9150  -29.8320   21.6840 H   0  0  0  0  0  0  0  0  0  0  0  0
  -18.0010  -28.0960   22.9520 C   0  0  0  0  0  0  0  0  0  0  0  0
  -20.5680  -28.3560   23.1700 C   0  0  0  0  0  3  0  0  0  0  0  0
  -20.6510  -26.9210   22.6010 C   0  0  0  0  0  2  0  0  0  0  0  0
  -19.5340  -26.6020   21.6030 C   0  0  0  0  0  2  0  0  0  0  0  0
  -18.1620  -26.7500   22.2680 C   0  0  0  0  0  2  0  0  0  0  0  0
  -19.1290  -28.8580   23.3610 C   0  0  0  0  0  0  0  0  0  0  0  0
  -18.9180  -30.1140   23.9700 C   0  0  0  0  0  3  0  0  0  0  0  0
  -17.6160  -30.6100   24.1690 C   0  0  0  0  0  3  0  0  0  0  0  0
  -16.5050  -29.8470   23.7700 C   0  0  0  0  0  3  0  0  0  0  0  0
  -16.6980  -28.5910   23.1680 C   0  0  0  0  0  3  0  0  0  0  0  0
  -25.8750  -32.4850   23.7660 C   0  0  0  0  0  3  0  0  0  0  0  0
  -25.5260  -33.8820   24.1020 N   0  0  0  0  0  0  0  0  0  0  0  0
  -25.8460  -34.9610   23.3750 C   0  0  0  0  0  0  0  0  0  0  0  0
  -26.5180  -34.8880   22.3440 O   0  0  0  0  0  0  0  0  0  0  0  0
  -24.9270  -34.0120   24.9030 H   0  0  0  0  0  0  0  0  0  0  0  0
  -24.0960  -36.7540   23.0720 C   0  0  0  0  0  1  0  0  0  0  0  0
  -25.3480  -36.3400   23.8630 C   0  0  0  0  0  3  0  0  0  0  0  0
  -27.4760  -37.2480   24.6950 C   0  0  0  0  0  1  0  0  0  0  0  0
  -26.3660  -37.4110   23.7610 N   0  0  0  0  0  0  0  0  0  0  0  0
  -25.9480  -38.3230   23.9230 H   0  0  0  0  0  0  0  0  0  0  0  0
  -26.3810  -31.7420   25.0660 C   0  0  1  0  0  0  0  0  0  0  0  0
  -25.2760  -31.5120   26.1250 C   0  0  0  0  0  1  0  0  0  0  0  0
  -26.9820  -30.3620   24.7210 C   0  0  0  0  0  1  0  0  0  0  0  0
  -27.5150  -32.5570   25.7300 C   0  0  0  0  0  1  0  0  0  0  0  0
  -28.9050  -21.3820   20.5410 C   0  0  0  0  0 15  0  0  0  0  0  0
  -30.6250  -19.6230   19.1180 C   0  0  0  0  0  1  0  0  0  0  0  0
  -29.3530  -19.4100   19.9460 C   0  0  0  0  0  2  0  0  0  0  0  0
  -30.1910  -16.0760   20.2870 C   0  0  0  0  0  0  0  0  0  0  0  0
  -30.4010  -13.4240   19.5580 C   0  0  0  0  0  2  0  0  0  0  0  0
  -29.5870  -12.8520   18.3510 C   0  0  0  0  0  2  0  0  0  0  0  0
  -28.1800  -12.4220   18.7810 C   0  0  0  0  0  2  0  0  0  0  0  0
  -27.5930  -13.4450   19.7740 C   0  0  0  0  0  3  0  0  0  0  0  0
  -28.5690  -13.9160   20.8930 C   0  0  0  0  0  2  0  0  0  0  0  0
  -29.7070  -14.6430   20.2470 N   0  0  0  0  0  0  0  0  0  0  0  0
  -31.4230  -15.9470   20.0870 O   0  0  0  0  0  0  0  0  0  0  0  0
  -29.4530  -17.5470   20.3780 N   0  0  0  0  0  0  0  0  0  0  0  0
  -28.5210  -17.3040   20.6860 H   0  0  0  0  0  0  0  0  0  0  0  0
  -25.2130  -13.9310   20.4770 C   0  0  0  0  0  0  0  0  0  0  0  0
  -24.1540  -13.1430   20.8250 C   0  0  0  0  0  0  0  0  0  0  0  0
  -24.6420  -11.7990   20.8220 C   0  0  0  0  0  0  0  0  0  0  0  0
  -26.2760  -13.0740   20.2710 N   0  0  0  0  0  0  0  0  0  0  0  0
  -25.9450  -11.7820   20.5430 N   0  0  0  0  0  0  0  0  0  0  0  0
  -23.9170  -10.5320   21.0070 C   0  0  0  0  0  0  0  0  0  0  0  0
  -24.3310   -9.5750   21.9600 C   0  0  0  0  0  3  0  0  0  0  0  0
  -23.6020   -8.3790   22.1400 C   0  0  0  0  0  3  0  0  0  0  0  0
  -22.4420   -8.1310   21.3660 C   0  0  0  0  0  0  0  0  0  0  0  0
  -22.0450   -9.0770   20.4050 C   0  0  0  0  0  3  0  0  0  0  0  0
  -22.7760  -10.2630   20.2240 C   0  0  0  0  0  3  0  0  0  0  0  0
  -21.6870   -6.9860   21.4540 O   0  0  0  0  0  0  0  0  0  0  0  0
  -21.6240   -6.2500   22.6100 C   0  0  0  0  0  0  0  0  0  0  0  0
  -21.1850   -6.8130   23.8280 C   0  0  0  0  0  3  0  0  0  0  0  0
  -21.0680   -6.0030   24.9760 C   0  0  0  0  0  3  0  0  0  0  0  0
  -21.3820   -4.6330   24.9060 C   0  0  0  0  0  0  0  0  0  0  0  0
  -21.8150   -4.0700   23.6930 C   0  0  0  0  0  3  0  0  0  0  0  0
  -21.9330   -4.8760   22.5470 C   0  0  0  0  0  0  0  0  0  0  0  0
  -22.3290   -4.3230   21.3760 F   0  0  0  0  0  0  0  0  0  0  0  0
  -21.2640   -3.8530   26.0070 F   0  0  0  0  0  0  0  0  0  0  0  0
  -22.7470  -13.6090   21.0430 C   0  0  0  0  0  0  0  0  0  0  0  0
  -22.0000  -12.9250   21.9000 N   0  0  0  0  0  0  0  0  0  0  0  0
  -22.3170  -14.6210   20.4880 O   0  0  0  0  0  0  0  0  0  0  0  0
  -22.3610  -12.1090   22.3720 H   0  0  0  0  0  0  0  0  0  0  0  0
  -21.0530  -13.2210   22.0900 H   0  0  0  0  0  0  0  0  0  0  0  0
  -25.3600  -15.3020   20.2810 N   0  0  0  0  0  0  0  0  0  0  0  0
  -24.5830  -15.9470   20.3760 H   0  0  0  0  0  0  0  0  0  0  0  0
  -26.2070  -15.7490   19.9550 H   0  0  0  0  0  0  0  0  0  0  0  0
  1  3  1  0
  3  2  1  0
  5 16  2  0
  6  4  1  0
  6 11  1  0
  7 15  1  0
  7 17  1  0
  8 14  1  0
  8 10  1  0
  9 15  1  0
 10 11  2  0
 10  9  1  0
 12  6  2  0
 13 12  1  0
 13  8  2  0
 14  7  1  0
 15  5  1  0
 17 19  2  0
 18 17  1  0
 20 18  1  0
 21 30  2  0
 21 26  1  0
 22 18  1  0
 22 26  1  0
 23 22  1  0
 24 25  1  0
 24 23  1  0
 25 21  1  0
 26 27  2  0
 27 28  1  0
 29 28  2  0
 30 29  1  0
 31  5  1  0
 31 32  1  0
 31 41  1  0
 32 35  1  0
 33 37  1  0
 33 32  1  0
 34 33  2  0
 37 36  1  0
 39 37  1  0
 39 40  1  0
 39 38  1  0
 41 44  1  1
 41 42  1  0
 43 41  1  0
 46 47  1  0
 47 56  1  0
 48 56  1  0
 49 54  1  0
 50 51  1  0
 50 49  1  0
 52 51  1  0
 52 61  1  0
 52 53  1  0
 54 48  1  0
 54 53  1  0
 55 48  2  0
 56 57  1  0
 58 59  2  0
 59 78  1  0
 60 59  1  0
 60 63  1  0
 61 58  1  0
 61 62  1  0
 62 60  2  0
 63 64  1  0
 64 65  2  0
 66 69  1  0
 66 65  1  0
 67 66  2  0
 68 67  1  0
 68 63  2  0
 69 70  1  0
 70 71  1  0
 71 72  2  0
 73 72  1  0
 73 77  1  0
 74 73  2  0
 75 70  2  0
 75 74  1  0
 76 75  1  0
 78 79  1  0
 79 82  1  0
 79 81  1  0
 80 78  2  0
 83 84  1  0
 83 58  1  0
 85 83  1  0
M  ISO  4   3 101   4 101  48 100  56 100
M  END
>  <TORSDO>  (52) 
F 18

>  <SCORE>  (52) 
-16.219

>  <name>  (52) 
51

>  <ligand_id>  (52) 
51

>  <original_smiles>  (52) 
[H]c1c([H])c([H])c2c(c1[H])C([H])([H])C([H])([H])C([H])([H])C2([H])N([H])C(=O)C1([H])N(C(=O)C([H])(N([H])C(=O)C([H])(N([H])C([H])([H])[H])C([H])([H])[H])C(C([H])([H])[H])(C([H])([H])[H])C([H])([H])[H])C([H])([H])c2c([H])c(OC(C([H])([H])[H])(C([H])([H])[H])C([H])([H])C([H])(N([H])C(=O)N3C([H])([H])C([H])([H])C([H])([H])C([H])(n4nc(-c5c([H])c([H])c(Oc6c([H])c([H])c(F)c([H])c6F)c([H])c5[H])c(C(=O)N([H])[H])c4N([H])[H])C3([H])[H])C([H])([H])[H])c([H])c([H])c2C1([H])[H]

>  <smiles>  (52) 
[H]c1c([H])c([H])c2c(c1[H])C([H])([H])C([H])([H])C([H])([H])C2([H])N([H])C(=O)C1([H])N(C(=O)C([H])(N([H])C(=O)C([H])(N([H])C([H])([H])[H])C([H])([H])[H])C(C([H])([H])[H])(C([H])([H])[H])C([H])([H])[H])C([H])([H])c2c([H])c(OC(C([H])([H])[H])(C([H])([H])[H])C([H])([H])C([H])(N([H])C(=O)N3C([H])([H])C([H])([H])C([H])([H])C([H])(n4nc(-c5c([H])c([H])c(Oc6c([H])c([H])c(F)c([H])c6F)c([H])c5[H])c(C(=O)N([H])[H])c4N([H])[H])C3([H])[H])C([H])([H])[H])c([H])c([H])c2C1([H])[H]

$$$$
52:0:0
     RDKit          3D

 91 99  0  0  1  0  0  0  0  0999 V2000
  -28.9980  -23.2470   20.3960 C   0  0  0  0  0  3  0  0  0  0  0  0
  -28.2840  -24.6900   18.3020 C   0  0  0  0  0  1  0  0  0  0  0  0
  -28.1240  -24.6270   19.8360 C   0  0  0  0  0  3  0  0  0  0  0  0
  -28.2430  -26.1400   20.2790 O   0  0  0  0  0  0  0  0  0  0  0  0
  -24.6210  -31.8870   23.2430 C   0  0  0  0  0  0  0  0  0  0  0  0
  -27.1860  -27.1410   20.1970 C   0  0  0  0  0  0  0  0  0  0  0  0
  -23.4180  -30.4950   21.6050 C   0  0  0  0  0  3  0  0  0  0  0  0
  -24.8610  -28.9200   20.1730 C   0  0  0  0  0  0  0  0  0  0  0  0
  -25.9740  -30.7490   21.4370 C   0  0  0  0  0  2  0  0  0  0  0  0
  -26.0460  -29.3540   20.7820 C   0  0  0  0  0  0  0  0  0  0  0  0
  -27.2050  -28.4820   20.7750 C   0  0  0  0  0  3  0  0  0  0  0  0
  -25.9660  -26.8190   19.5600 C   0  0  0  0  0  3  0  0  0  0  0  0
  -24.8390  -27.6670   19.5440 C   0  0  0  0  0  3  0  0  0  0  0  0
  -23.6360  -29.8200   20.2240 C   0  0  0  0  0  2  0  0  0  0  0  0
  -24.6920  -31.0670   22.1500 N   0  0  0  0  0  0  0  0  0  0  0  0
  -23.5360  -32.1720   23.7730 O   0  0  0  0  0  0  0  0  0  0  0  0
  -22.7380  -29.4880   22.5670 C   0  0  0  0  0  0  0  0  0  0  0  0
  -21.4110  -29.3110   22.4360 N   0  0  0  0  0  0  0  0  0  0  0  0
  -23.4090  -28.8660   23.3960 O   0  0  0  0  0  0  0  0  0  0  0  0
  -20.9260  -29.8630   21.7420 H   0  0  0  0  0  0  0  0  0  0  0  0
  -18.0340  -28.0940   22.9300 C   0  0  0  0  0  0  0  0  0  0  0  0
  -20.5910  -28.3730   23.2070 C   0  0  0  0  0  3  0  0  0  0  0  0
  -20.7030  -26.9390   22.6390 C   0  0  0  0  0  2  0  0  0  0  0  0
  -19.6070  -26.6060   21.6190 C   0  0  0  0  0  2  0  0  0  0  0  0
  -18.2220  -26.7450   22.2570 C   0  0  0  0  0  2  0  0  0  0  0  0
  -19.1460  -28.8650   23.3620 C   0  0  0  0  0  0  0  0  0  0  0  0
  -18.9140  -30.1260   23.9530 C   0  0  0  0  0  3  0  0  0  0  0  0
  -17.6040  -30.6170   24.1130 C   0  0  0  0  0  3  0  0  0  0  0  0
  -16.5080  -29.8440   23.6970 C   0  0  0  0  0  3  0  0  0  0  0  0
  -16.7240  -28.5830   23.1110 C   0  0  0  0  0  3  0  0  0  0  0  0
  -25.9000  -32.5220   23.8710 C   0  0  0  0  0  3  0  0  0  0  0  0
  -26.4050  -31.7560   25.1560 C   0  0  1  0  0  0  0  0  0  0  0  0
  -25.3040  -31.5280   26.2190 C   0  0  0  0  0  1  0  0  0  0  0  0
  -26.9840  -30.3730   24.7790 C   0  0  0  0  0  1  0  0  0  0  0  0
  -27.5560  -32.5490   25.8190 C   0  0  0  0  0  1  0  0  0  0  0  0
  -25.5890  -33.9220   24.2020 N   0  0  0  0  0  0  0  0  0  0  0  0
  -25.9110  -34.9770   23.4410 C   0  0  0  0  0  0  0  0  0  0  0  0
  -26.5670  -34.8740   22.4020 O   0  0  0  0  0  0  0  0  0  0  0  0
  -25.0060  -34.0750   25.0120 H   0  0  0  0  0  0  0  0  0  0  0  0
  -24.1770  -36.7730   23.1180 C   0  0  0  0  0  1  0  0  0  0  0  0
  -25.4320  -36.3670   23.9070 C   0  0  0  0  0  3  0  0  0  0  0  0
  -27.5780  -37.2590   24.7010 C   0  0  0  0  0  1  0  0  0  0  0  0
  -26.4620  -37.4200   23.7730 N   0  0  0  0  0  0  0  0  0  0  0  0
  -26.0570  -38.3410   23.9190 H   0  0  0  0  0  0  0  0  0  0  0  0
  -30.3250  -23.5140   19.9760 O   0  0  0  0  0  0  0  0  0  0  0  0
  -30.2870  -23.7250   19.0490 H   0  0  0  0  0  0  0  0  0  0  0  0
  -28.6490  -21.6020   19.9930 C   0  0  0  0  0  2  0  0  0  0  0  0
  -30.9710  -18.5400   20.7890 C   0  0  0  0  0  3  0  0  0  0  0  0
  -28.8930  -18.8340   20.1320 C   0  0  0  0  0  3  0  0  0  0  0  0
  -29.8190  -17.7870   20.4110 C   0  0  0  0  0  0  0  0  0  0  0  0
  -30.7170  -19.9130   20.7400 C   0  0  0  0  0  0  0  0  0  0  0  0
  -31.6800  -20.9950   21.0900 C   0  0  0  0  0  1  0  0  0  0  0  0
  -29.4010  -20.1960   20.3090 N   0  0  0  0  0  0  0  0  0  0  0  0
  -30.4910  -15.0750   20.3360 C   0  0  0  0  0  0  0  0  0  0  0  0
  -30.4240  -12.7070   19.3950 C   0  0  0  0  0  2  0  0  0  0  0  0
  -29.4930  -12.6350   18.1610 C   0  0  0  0  0  2  0  0  0  0  0  0
  -28.0270  -12.4080   18.5880 C   0  0  0  0  0  2  0  0  0  0  0  0
  -27.6040  -13.3220   19.7690 C   0  0  0  0  0  3  0  0  0  0  0  0
  -28.6590  -13.3550   20.8930 C   0  0  0  0  0  2  0  0  0  0  0  0
  -29.9200  -13.7980   20.2800 N   0  0  0  0  0  0  0  0  0  0  0  0
  -31.7050  -15.1450   20.1140 O   0  0  0  0  0  0  0  0  0  0  0  0
  -29.6540  -16.2430   20.3890 N   0  0  0  0  0  0  0  0  0  0  0  0
  -28.6850  -15.9630   20.3930 H   0  0  0  0  0  0  0  0  0  0  0  0
  -25.2160  -13.8730   20.5020 C   0  0  0  0  0  0  0  0  0  0  0  0
  -24.1590  -13.0880   20.8700 C   0  0  0  0  0  0  0  0  0  0  0  0
  -24.6400  -11.7420   20.8480 C   0  0  0  0  0  0  0  0  0  0  0  0
  -26.2700  -13.0060   20.2680 N   0  0  0  0  0  0  0  0  0  0  0  0
  -25.9340  -11.7190   20.5440 N   0  0  0  0  0  0  0  0  0  0  0  0
  -23.9230  -10.4730   21.0400 C   0  0  0  0  0  0  0  0  0  0  0  0
  -24.3600   -9.5120   21.9790 C   0  0  0  0  0  3  0  0  0  0  0  0
  -23.6440   -8.3100   22.1570 C   0  0  0  0  0  3  0  0  0  0  0  0
  -22.4750   -8.0600   21.3970 C   0  0  0  0  0  0  0  0  0  0  0  0
  -22.0580   -9.0110   20.4500 C   0  0  0  0  0  3  0  0  0  0  0  0
  -22.7750  -10.2040   20.2680 C   0  0  0  0  0  3  0  0  0  0  0  0
  -21.7300   -6.9090   21.4860 O   0  0  0  0  0  0  0  0  0  0  0  0
  -21.6860   -6.1660   22.6390 C   0  0  0  0  0  0  0  0  0  0  0  0
  -21.2360   -6.7130   23.8610 C   0  0  0  0  0  3  0  0  0  0  0  0
  -21.1390   -5.8960   25.0050 C   0  0  0  0  0  3  0  0  0  0  0  0
  -21.4830   -4.5330   24.9290 C   0  0  0  0  0  0  0  0  0  0  0  0
  -21.9260   -3.9850   23.7120 C   0  0  0  0  0  3  0  0  0  0  0  0
  -22.0230   -4.7990   22.5690 C   0  0  0  0  0  0  0  0  0  0  0  0
  -22.4300   -4.2620   21.3930 F   0  0  0  0  0  0  0  0  0  0  0  0
  -21.3840   -3.7450   26.0250 F   0  0  0  0  0  0  0  0  0  0  0  0
  -22.7550  -13.5510   21.1280 C   0  0  0  0  0  0  0  0  0  0  0  0
  -22.0270  -12.8540   21.9920 N   0  0  0  0  0  0  0  0  0  0  0  0
  -22.3120  -14.5700   20.5980 O   0  0  0  0  0  0  0  0  0  0  0  0
  -22.3980  -12.0340   22.4470 H   0  0  0  0  0  0  0  0  0  0  0  0
  -21.0840  -13.1460   22.2030 H   0  0  0  0  0  0  0  0  0  0  0  0
  -25.3600  -15.2450   20.3170 N   0  0  0  0  0  0  0  0  0  0  0  0
  -24.5730  -15.8790   20.4110 H   0  0  0  0  0  0  0  0  0  0  0  0
  -26.1870  -15.6940   19.9440 H   0  0  0  0  0  0  0  0  0  0  0  0
  1 47  1  0
  3  2  1  0
  3  4  1  0
  3  1  1  0
  5 16  2  0
  6  4  1  0
  6 11  1  0
  7 15  1  0
  7 17  1  0
  8 14  1  0
  8 10  1  0
  9 15  1  0
 10  9  1  0
 11 10  2  0
 12  6  2  0
 13 12  1  0
 13  8  2  0
 14  7  1  0
 15  5  1  0
 17 19  2  0
 18 17  1  0
 20 18  1  0
 21 30  2  0
 21 26  1  0
 22 18  1  0
 22 26  1  0
 23 22  1  0
 24 25  1  0
 24 23  1  0
 25 21  1  0
 26 27  2  0
 27 28  1  0
 29 28  2  0
 30 29  1  0
 31  5  1  0
 31 36  1  0
 31 32  1  0
 32 35  1  1
 32 33  1  0
 34 32  1  0
 36 39  1  0
 37 41  1  0
 37 36  1  0
 38 37  2  0
 41 40  1  0
 43 41  1  0
 43 44  1  0
 43 42  1  0
 45  1  1  0
 46 45  1  0
 47 53  1  0
 49 53  1  0
 49 50  2  0
 50 48  1  0
 51 48  2  0
 51 52  1  0
 53 51  1  0
 54 62  1  0
 55 60  1  0
 56 57  1  0
 56 55  1  0
 58 57  1  0
 58 67  1  0
 58 59  1  0
 60 54  1  0
 60 59  1  0
 61 54  2  0
 62 63  1  0
 62 50  1  0
 64 65  2  0
 65 84  1  0
 66 65  1  0
 66 69  1  0
 67 64  1  0
 67 68  1  0
 68 66  2  0
 69 70  1  0
 70 71  2  0
 72 75  1  0
 72 71  1  0
 73 72  2  0
 74 73  1  0
 74 69  2  0
 75 76  1  0
 76 77  1  0
 77 78  2  0
 79 78  1  0
 79 83  1  0
 80 79  2  0
 81 76  2  0
 81 80  1  0
 82 81  1  0
 84 85  1  0
 85 88  1  0
 85 87  1  0
 86 84  2  0
 89 90  1  0
 89 64  1  0
 91 89  1  0
M  ISO  4   3 101   4 101  54 100  62 100
M  END
>  <TORSDO>  (53) 
F 20

>  <SCORE>  (53) 
-15.420

>  <name>  (53) 
52

>  <ligand_id>  (53) 
52

>  <original_smiles>  (53) 
[H]OC([H])(C([H])([H])n1c([H])c(N([H])C(=O)N2C([H])([H])C([H])([H])C([H])([H])C([H])(n3nc(-c4c([H])c([H])c(Oc5c([H])c([H])c(F)c([H])c5F)c([H])c4[H])c(C(=O)N([H])[H])c3N([H])[H])C2([H])[H])c([H])c1C([H])([H])[H])C([H])(Oc1c([H])c([H])c2c(c1[H])C([H])([H])N(C(=O)C([H])(N([H])C(=O)C([H])(N([H])C([H])([H])[H])C([H])([H])[H])C(C([H])([H])[H])(C([H])([H])[H])C([H])([H])[H])C([H])(C(=O)N([H])C1([H])c3c([H])c([H])c([H])c([H])c3C([H])([H])C([H])([H])C1([H])[H])C2([H])[H])C([H])([H])[H]

>  <smiles>  (53) 
[H]OC([H])(C([H])([H])n1c([H])c(N([H])C(=O)N2C([H])([H])C([H])([H])C([H])([H])C([H])(n3nc(-c4c([H])c([H])c(Oc5c([H])c([H])c(F)c([H])c5F)c([H])c4[H])c(C(=O)N([H])[H])c3N([H])[H])C2([H])[H])c([H])c1C([H])([H])[H])C([H])(Oc1c([H])c([H])c2c(c1[H])C([H])([H])N(C(=O)C([H])(N([H])C(=O)C([H])(N([H])C([H])([H])[H])C([H])([H])[H])C(C([H])([H])[H])(C([H])([H])[H])C([H])([H])[H])C([H])(C(=O)N([H])C1([H])c3c([H])c([H])c([H])c([H])c3C([H])([H])C([H])([H])C1([H])[H])C2([H])[H])C([H])([H])[H]

$$$$
53:0:0
     RDKit          3D

 96104  0  0  1  0  0  0  0  0999 V2000
  -27.1370  -23.6030   20.5510 C   0  0  0  0  0  3  0  0  0  0  0  0
  -29.2280  -22.4310   20.5770 C   0  0  0  0  0  3  0  0  0  0  0  0
  -28.5170  -23.6890   20.7520 C   0  0  0  0  0  0  0  0  0  0  0  0
  -26.5140  -22.4060   20.1200 C   0  0  0  0  0  0  0  0  0  0  0  0
  -27.2560  -21.2370   19.6990 C   0  0  0  0  0  0  0  0  0  0  0  0
  -28.6580  -21.1680   20.1100 C   0  0  0  0  0  0  0  0  0  0  0  0
  -24.9920  -22.4310   20.2530 C   0  0  0  0  0  1  0  0  0  0  0  0
  -25.3680  -20.8060   17.8970 C   0  0  0  0  0  1  0  0  0  0  0  0
  -25.9640  -18.9730   19.3870 C   0  0  0  0  0  1  0  0  0  0  0  0
  -27.5320  -19.8160   17.5370 C   0  0  0  0  0  1  0  0  0  0  0  0
  -26.5740  -20.2120   18.6910 C   0  0  2  0  0  0  0  0  0  0  0  0
  -29.0400  -24.6500   23.0500 C   0  0  0  0  0  1  0  0  0  0  0  0
  -29.1080  -24.9480   21.5490 C   0  0  0  0  0  3  0  0  0  0  0  0
  -28.8770  -26.4420   21.3730 O   0  0  0  0  0  0  0  0  0  0  0  0
  -24.7800  -32.0720   23.6610 C   0  0  0  0  0  0  0  0  0  0  0  0
  -27.7110  -27.2340   21.3580 C   0  0  0  0  0  0  0  0  0  0  0  0
  -23.7780  -30.5270   22.0150 C   0  0  0  0  0  3  0  0  0  0  0  0
  -25.3840  -28.8670   20.9180 C   0  0  0  0  0  0  0  0  0  0  0  0
  -26.3270  -30.8480   22.1000 C   0  0  0  0  0  2  0  0  0  0  0  0
  -26.4830  -29.4100   21.5950 C   0  0  0  0  0  0  0  0  0  0  0  0
  -27.6560  -28.6060   21.7920 C   0  0  0  0  0  3  0  0  0  0  0  0
  -26.5910  -26.7520   20.6590 C   0  0  0  0  0  3  0  0  0  0  0  0
  -25.4460  -27.5460   20.4380 C   0  0  0  0  0  3  0  0  0  0  0  0
  -24.1570  -29.7400   20.7340 C   0  0  0  0  0  2  0  0  0  0  0  0
  -24.9730  -31.1720   22.6460 N   0  0  0  0  0  0  0  0  0  0  0  0
  -23.6400  -32.3730   24.0450 O   0  0  0  0  0  0  0  0  0  0  0  0
  -23.0150  -29.5830   22.9770 C   0  0  0  0  0  0  0  0  0  0  0  0
  -21.7500  -29.2710   22.6490 N   0  0  0  0  0  0  0  0  0  0  0  0
  -23.5740  -29.1360   23.9820 O   0  0  0  0  0  0  0  0  0  0  0  0
  -21.3550  -29.6940   21.8200 H   0  0  0  0  0  0  0  0  0  0  0  0
  -18.4270  -27.8470   22.7200 C   0  0  0  0  0  0  0  0  0  0  0  0
  -20.8710  -28.3640   23.3910 C   0  0  0  0  0  3  0  0  0  0  0  0
  -21.1680  -26.8840   23.0460 C   0  0  0  0  0  2  0  0  0  0  0  0
  -20.2970  -26.3460   21.9080 C   0  0  0  0  0  2  0  0  0  0  0  0
  -18.8140  -26.4480   22.2720 C   0  0  0  0  0  2  0  0  0  0  0  0
  -19.3960  -28.7500   23.2330 C   0  0  0  0  0  0  0  0  0  0  0  0
  -18.9900  -30.0480   23.6050 C   0  0  0  0  0  3  0  0  0  0  0  0
  -17.6470  -30.4490   23.4740 C   0  0  0  0  0  3  0  0  0  0  0  0
  -16.6880  -29.5440   22.9900 C   0  0  0  0  0  3  0  0  0  0  0  0
  -17.0780  -28.2460   22.6130 C   0  0  0  0  0  3  0  0  0  0  0  0
  -25.9760  -32.7760   24.3680 C   0  0  0  0  0  3  0  0  0  0  0  0
  -25.6020  -34.1830   24.5810 N   0  0  0  0  0  0  0  0  0  0  0  0
  -25.9520  -35.1980   23.7820 C   0  0  0  0  0  0  0  0  0  0  0  0
  -26.6890  -35.0500   22.8030 O   0  0  0  0  0  0  0  0  0  0  0  0
  -24.9560  -34.3720   25.3350 H   0  0  0  0  0  0  0  0  0  0  0  0
  -24.1770  -36.8950   23.2320 C   0  0  0  0  0  1  0  0  0  0  0  0
  -25.3980  -36.5970   24.1180 C   0  0  0  0  0  3  0  0  0  0  0  0
  -27.4730  -37.6140   24.9440 C   0  0  0  0  0  1  0  0  0  0  0  0
  -26.3930  -37.6790   23.9640 N   0  0  0  0  0  0  0  0  0  0  0  0
  -25.9490  -38.5910   24.0420 H   0  0  0  0  0  0  0  0  0  0  0  0
  -26.3740  -32.1030   25.7390 C   0  0  1  0  0  0  0  0  0  0  0  0
  -25.1660  -31.8270   26.6660 C   0  0  0  0  0  1  0  0  0  0  0  0
  -27.1030  -30.7620   25.4970 C   0  0  0  0  0  1  0  0  0  0  0  0
  -27.3650  -33.0120   26.5040 C   0  0  0  0  0  1  0  0  0  0  0  0
  -29.5370  -19.9890   20.0710 N   0  0  0  0  0  0  0  0  0  0  0  0
  -30.4970  -20.1940   19.8050 H   0  0  0  0  0  0  0  0  0  0  0  0
  -29.3510  -18.5510   20.5710 C   0  0  0  0  0  3  0  0  0  0  0  0
  -30.4870  -17.4150   20.2410 C   0  0  0  0  0  3  0  0  0  0  0  0
  -31.0890  -14.8130   20.5310 C   0  0  0  0  0  0  0  0  0  0  0  0
  -30.9570  -12.4770   19.6230 C   0  0  0  0  0  2  0  0  0  0  0  0
  -30.1150  -12.5150   18.3280 C   0  0  0  0  0  2  0  0  0  0  0  0
  -28.6080  -12.4200   18.6440 C   0  0  0  0  0  2  0  0  0  0  0  0
  -28.1780  -13.3700   19.7900 C   0  0  0  0  0  3  0  0  0  0  0  0
  -29.1370  -13.2820   20.9970 C   0  0  0  0  0  2  0  0  0  0  0  0
  -30.4820  -13.5750   20.4990 N   0  0  0  0  0  0  0  0  0  0  0  0
  -32.2940  -14.9010   20.2770 O   0  0  0  0  0  0  0  0  0  0  0  0
  -30.2610  -15.9360   20.6200 N   0  0  0  0  0  0  0  0  0  0  0  0
  -29.2980  -15.7020   20.8070 H   0  0  0  0  0  0  0  0  0  0  0  0
  -25.7720  -14.0900   20.2930 C   0  0  0  0  0  0  0  0  0  0  0  0
  -24.6520  -13.3770   20.6200 C   0  0  0  0  0  0  0  0  0  0  0  0
  -25.0630  -12.0090   20.6960 C   0  0  0  0  0  0  0  0  0  0  0  0
  -26.7940  -13.1600   20.1860 N   0  0  0  0  0  0  0  0  0  0  0  0
  -26.3690  -11.9080   20.4970 N   0  0  0  0  0  0  0  0  0  0  0  0
  -24.2740  -10.7870   20.8950 C   0  0  0  0  0  0  0  0  0  0  0  0
  -24.5750   -9.8720   21.9280 C   0  0  0  0  0  3  0  0  0  0  0  0
  -23.7900   -8.7130   22.1090 C   0  0  0  0  0  3  0  0  0  0  0  0
  -22.6920   -8.4580   21.2560 C   0  0  0  0  0  0  0  0  0  0  0  0
  -22.4120   -9.3580   20.2120 C   0  0  0  0  0  3  0  0  0  0  0  0
  -23.1960  -10.5100   20.0310 C   0  0  0  0  0  3  0  0  0  0  0  0
  -21.8910   -7.3460   21.3380 O   0  0  0  0  0  0  0  0  0  0  0  0
  -21.6420   -6.7260   22.5350 C   0  0  0  0  0  0  0  0  0  0  0  0
  -21.0950   -7.4220   23.6350 C   0  0  0  0  0  3  0  0  0  0  0  0
  -20.7900   -6.7300   24.8250 C   0  0  0  0  0  3  0  0  0  0  0  0
  -21.0230   -5.3450   24.9150 C   0  0  0  0  0  0  0  0  0  0  0  0
  -21.5640   -4.6500   23.8200 C   0  0  0  0  0  3  0  0  0  0  0  0
  -21.8710   -5.3380   22.6330 C   0  0  0  0  0  0  0  0  0  0  0  0
  -22.3690   -4.6600   21.5720 F   0  0  0  0  0  0  0  0  0  0  0  0
  -20.7240   -4.6790   26.0550 F   0  0  0  0  0  0  0  0  0  0  0  0
  -23.2600  -13.9150   20.7540 C   0  0  0  0  0  0  0  0  0  0  0  0
  -22.4530  -13.3140   21.6210 N   0  0  0  0  0  0  0  0  0  0  0  0
  -22.8960  -14.9080   20.1240 O   0  0  0  0  0  0  0  0  0  0  0  0
  -22.7640  -12.5130   22.1500 H   0  0  0  0  0  0  0  0  0  0  0  0
  -21.5130  -13.6560   21.7560 H   0  0  0  0  0  0  0  0  0  0  0  0
  -26.0050  -15.4430   20.0530 N   0  0  0  0  0  0  0  0  0  0  0  0
  -25.2480  -16.1170   20.0350 H   0  0  0  0  0  0  0  0  0  0  0  0
  -26.8780  -15.8200   19.7070 H   0  0  0  0  0  0  0  0  0  0  0  0
  1  3  1  0
  2  3  2  0
  3 13  1  0
  4  7  1  0
  4  1  2  0
  5  6  2  0
  5  4  1  0
  6  2  1  0
 11  8  1  6
 10 11  1  0
 11  9  1  0
 11  5  1  0
 13 12  1  0
 14 13  1  0
 15 26  2  0
 16 14  1  0
 16 21  1  0
 17 25  1  0
 17 27  1  0
 18 20  1  0
 19 25  1  0
 20 21  2  0
 20 19  1  0
 22 16  2  0
 23 22  1  0
 23 18  2  0
 24 18  1  0
 24 17  1  0
 25 15  1  0
 27 29  2  0
 28 27  1  0
 30 28  1  0
 31 36  1  0
 32 28  1  0
 33 32  1  0
 34 35  1  0
 34 33  1  0
 35 31  1  0
 36 32  1  0
 36 37  2  0
 38 37  1  0
 39 38  2  0
 40 31  2  0
 40 39  1  0
 41 15  1  0
 41 42  1  0
 41 51  1  0
 42 45  1  0
 43 47  1  0
 43 42  1  0
 44 43  2  0
 47 46  1  0
 49 50  1  0
 49 47  1  0
 49 48  1  0
 51 54  1  1
 51 52  1  0
 53 51  1  0
 55  6  1  0
 55 57  1  0
 56 55  1  0
 58 57  2  0
 58 67  1  0
 59 67  1  0
 60 65  1  0
 61 62  1  0
 61 60  1  0
 63 62  1  0
 63 72  1  0
 63 64  1  0
 65 59  1  0
 65 64  1  0
 66 59  2  0
 67 68  1  0
 69 70  2  0
 70 71  1  0
 70 89  1  0
 71 74  1  0
 72 69  1  0
 72 73  1  0
 73 71  2  0
 74 75  1  0
 75 76  2  0
 77 80  1  0
 77 76  1  0
 78 77  2  0
 79 78  1  0
 79 74  2  0
 80 81  1  0
 81 86  2  0
 81 82  1  0
 82 83  2  0
 83 84  1  0
 84 88  1  0
 85 84  2  0
 86 85  1  0
 87 86  1  0
 89 90  1  0
 90 93  1  0
 90 92  1  0
 91 89  2  0
 94 69  1  0
 95 94  1  0
 96 94  1  0
M  ISO  4  13 101  14 101  59 100  67 100
M  END
>  <TORSDO>  (54) 
F 21

>  <SCORE>  (54) 
-10.174

>  <name>  (54) 
53

>  <ligand_id>  (54) 
53

>  <original_smiles>  (54) 
[H]c1c([H])c([H])c2c(c1[H])C([H])([H])C([H])([H])C([H])([H])C2([H])N([H])C(=O)C1([H])N(C(=O)C([H])(N([H])C(=O)C([H])(N([H])C([H])([H])[H])C([H])([H])[H])C(C([H])([H])[H])(C([H])([H])[H])C([H])([H])[H])C([H])([H])c2c([H])c(OC([H])(c3c([H])c(N([H])C([H])([H])C([H])([H])N([H])C(=O)N4C([H])([H])C([H])([H])C([H])([H])C([H])(n5nc(-c6c([H])c([H])c(Oc7c([H])c([H])c(F)c([H])c7F)c([H])c6[H])c(C(=O)N([H])[H])c5N([H])[H])C4([H])[H])c(C(C([H])([H])[H])(C([H])([H])[H])C([H])([H])[H])c(C([H])([H])[H])c3[H])C([H])([H])[H])c([H])c([H])c2C1([H])[H]

>  <smiles>  (54) 
[H]c1c([H])c([H])c2c(c1[H])C([H])([H])C([H])([H])C([H])([H])C2([H])N([H])C(=O)C1([H])N(C(=O)C([H])(N([H])C(=O)C([H])(N([H])C([H])([H])[H])C([H])([H])[H])C(C([H])([H])[H])(C([H])([H])[H])C([H])([H])[H])C([H])([H])c2c([H])c(OC([H])(c3c([H])c(N([H])C([H])([H])C([H])([H])N([H])C(=O)N4C([H])([H])C([H])([H])C([H])([H])C([H])(n5nc(-c6c([H])c([H])c(Oc7c([H])c([H])c(F)c([H])c7F)c([H])c6[H])c(C(=O)N([H])[H])c5N([H])[H])C4([H])[H])c(C(C([H])([H])[H])(C([H])([H])[H])C([H])([H])[H])c(C([H])([H])[H])c3[H])C([H])([H])[H])c([H])c([H])c2C1([H])[H]

$$$$
54:0:0
     RDKit          3D

 91 99  0  0  1  0  0  0  0  0999 V2000
  -30.0140  -21.6640   20.6600 C   0  0  0  0  0  0  0  0  0  0  0  0
  -29.0920  -22.6030   20.2780 N   0  0  0  0  0  0  0  0  0  0  0  0
  -31.0820  -22.0440   21.1430 O   0  0  0  0  0  0  0  0  0  0  0  0
  -28.2320  -22.2930   19.8440 H   0  0  0  0  0  0  0  0  0  0  0  0
  -30.5830  -14.7400   20.1760 C   0  0  0  0  0  0  0  0  0  0  0  0
  -30.3800  -12.5090   19.0840 C   0  0  0  0  0  2  0  0  0  0  0  0
  -29.4090  -12.6690   17.8920 C   0  0  0  0  0  2  0  0  0  0  0  0
  -27.9430  -12.5030   18.3470 C   0  0  0  0  0  2  0  0  0  0  0  0
  -27.6170  -13.3240   19.6260 C   0  0  0  0  0  3  0  0  0  0  0  0
  -28.7030  -13.1340   20.7070 C   0  0  0  0  0  2  0  0  0  0  0  0
  -29.9920  -13.5020   20.1050 N   0  0  0  0  0  0  0  0  0  0  0  0
  -31.7370  -14.9050   19.7620 O   0  0  0  0  0  0  0  0  0  0  0  0
  -28.6770  -19.4140   20.8790 C   0  0  0  0  0  3  0  0  0  0  0  0
  -28.6880  -17.9820   20.8760 C   0  0  0  0  0  3  0  0  0  0  0  0
  -30.9230  -19.3150   20.1120 C   0  0  0  0  0  3  0  0  0  0  0  0
  -29.8300  -20.1380   20.4960 C   0  0  0  0  0  0  0  0  0  0  0  0
  -29.8400  -17.2340   20.4940 C   0  0  0  0  0  0  0  0  0  0  0  0
  -30.9290  -17.9440   20.1010 N   0  0  0  0  0  0  0  0  0  0  0  0
  -29.7550  -15.7720   20.5610 N   0  0  0  0  0  0  0  0  0  0  0  0
  -28.8610  -15.4350   20.8800 H   0  0  0  0  0  0  0  0  0  0  0  0
  -25.2430  -13.9150   20.4110 C   0  0  0  0  0  0  0  0  0  0  0  0
  -24.1860  -13.1400   20.8020 C   0  0  0  0  0  0  0  0  0  0  0  0
  -24.6460  -11.7880   20.7430 C   0  0  0  0  0  0  0  0  0  0  0  0
  -26.2800  -13.0370   20.1380 N   0  0  0  0  0  0  0  0  0  0  0  0
  -25.9280  -11.7520   20.3970 N   0  0  0  0  0  0  0  0  0  0  0  0
  -23.9240  -10.5250   20.9420 C   0  0  0  0  0  0  0  0  0  0  0  0
  -24.3570   -9.5680   21.8830 C   0  0  0  0  0  3  0  0  0  0  0  0
  -23.6390   -8.3670   22.0680 C   0  0  0  0  0  3  0  0  0  0  0  0
  -22.4700   -8.1180   21.3120 C   0  0  0  0  0  0  0  0  0  0  0  0
  -22.0560   -9.0640   20.3590 C   0  0  0  0  0  3  0  0  0  0  0  0
  -22.7740  -10.2560   20.1720 C   0  0  0  0  0  3  0  0  0  0  0  0
  -21.7220   -6.9690   21.4040 O   0  0  0  0  0  0  0  0  0  0  0  0
  -21.6360   -6.2580   22.5730 C   0  0  0  0  0  0  0  0  0  0  0  0
  -21.1210   -6.8300   23.7580 C   0  0  0  0  0  3  0  0  0  0  0  0
  -20.9850   -6.0420   24.9190 C   0  0  0  0  0  3  0  0  0  0  0  0
  -21.3570   -4.6850   24.8960 C   0  0  0  0  0  0  0  0  0  0  0  0
  -21.8630   -4.1120   23.7170 C   0  0  0  0  0  3  0  0  0  0  0  0
  -22.0000   -4.8970   22.5580 C   0  0  0  0  0  0  0  0  0  0  0  0
  -22.4700   -4.3350   21.4180 F   0  0  0  0  0  0  0  0  0  0  0  0
  -21.2210   -3.9260   26.0080 F   0  0  0  0  0  0  0  0  0  0  0  0
  -22.7960  -13.6160   21.1120 C   0  0  0  0  0  0  0  0  0  0  0  0
  -22.0910  -12.9200   21.9970 N   0  0  0  0  0  0  0  0  0  0  0  0
  -22.3420  -14.6400   20.6020 O   0  0  0  0  0  0  0  0  0  0  0  0
  -22.4710  -12.0930   22.4340 H   0  0  0  0  0  0  0  0  0  0  0  0
  -21.1600  -13.2230   22.2420 H   0  0  0  0  0  0  0  0  0  0  0  0
  -25.4020  -15.2870   20.2390 N   0  0  0  0  0  0  0  0  0  0  0  0
  -24.6250  -15.9300   20.3540 H   0  0  0  0  0  0  0  0  0  0  0  0
  -26.2110  -15.7230   19.8140 H   0  0  0  0  0  0  0  0  0  0  0  0
  -29.3170  -24.0960   20.4200 C   0  0  0  0  0  3  0  0  0  0  0  0
  -28.2040  -25.1110   19.9180 C   0  0  0  0  0  3  0  0  0  0  0  0
  -28.3780  -26.5530   20.2260 O   0  0  0  0  0  0  0  0  0  0  0  0
  -24.6240  -31.8940   23.3020 C   0  0  0  0  0  0  0  0  0  0  0  0
  -27.2520  -27.3930   20.1770 C   0  0  0  0  0  0  0  0  0  0  0  0
  -23.4250  -30.5190   21.6380 C   0  0  0  0  0  3  0  0  0  0  0  0
  -24.8800  -28.9940   20.1910 C   0  0  0  0  0  0  0  0  0  0  0  0
  -25.9630  -30.8450   21.4630 C   0  0  0  0  0  2  0  0  0  0  0  0
  -26.0460  -29.4770   20.7980 C   0  0  0  0  0  0  0  0  0  0  0  0
  -27.2340  -28.6870   20.7860 C   0  0  0  0  0  3  0  0  0  0  0  0
  -26.0630  -26.9690   19.5410 C   0  0  0  0  0  3  0  0  0  0  0  0
  -24.8910  -27.7450   19.5570 C   0  0  0  0  0  3  0  0  0  0  0  0
  -23.6400  -29.8620   20.2490 C   0  0  0  0  0  2  0  0  0  0  0  0
  -24.6900  -31.1020   22.1910 N   0  0  0  0  0  0  0  0  0  0  0  0
  -23.5380  -32.1620   23.8370 O   0  0  0  0  0  0  0  0  0  0  0  0
  -22.7630  -29.4850   22.5810 C   0  0  0  0  0  0  0  0  0  0  0  0
  -21.4420  -29.2940   22.4340 N   0  0  0  0  0  0  0  0  0  0  0  0
  -23.4380  -28.8600   23.4020 O   0  0  0  0  0  0  0  0  0  0  0  0
  -20.9560  -29.8510   21.7460 H   0  0  0  0  0  0  0  0  0  0  0  0
  -18.0700  -28.0650   22.8840 C   0  0  0  0  0  0  0  0  0  0  0  0
  -20.6230  -28.3410   23.1850 C   0  0  0  0  0  3  0  0  0  0  0  0
  -20.7420  -26.9170   22.5950 C   0  0  0  0  0  2  0  0  0  0  0  0
  -19.6530  -26.5970   21.5650 C   0  0  0  0  0  2  0  0  0  0  0  0
  -18.2640  -26.7240   22.1960 C   0  0  0  0  0  2  0  0  0  0  0  0
  -19.1780  -28.8300   23.3340 C   0  0  0  0  0  0  0  0  0  0  0  0
  -18.9440  -30.0860   23.9360 C   0  0  0  0  0  3  0  0  0  0  0  0
  -17.6330  -30.5750   24.0960 C   0  0  0  0  0  3  0  0  0  0  0  0
  -16.5390  -29.8050   23.6620 C   0  0  0  0  0  3  0  0  0  0  0  0
  -16.7580  -28.5530   23.0620 C   0  0  0  0  0  3  0  0  0  0  0  0
  -25.9040  -32.5170   23.9380 C   0  0  0  0  0  3  0  0  0  0  0  0
  -25.6020  -33.9180   24.2610 N   0  0  0  0  0  0  0  0  0  0  0  0
  -25.9140  -34.9640   23.4850 C   0  0  0  0  0  0  0  0  0  0  0  0
  -26.5580  -34.8520   22.4390 O   0  0  0  0  0  0  0  0  0  0  0  0
  -25.0290  -34.0800   25.0770 H   0  0  0  0  0  0  0  0  0  0  0  0
  -24.1620  -36.7430   23.1750 C   0  0  0  0  0  1  0  0  0  0  0  0
  -25.4370  -36.3570   23.9420 C   0  0  0  0  0  3  0  0  0  0  0  0
  -27.5920  -37.2720   24.6820 C   0  0  0  0  0  1  0  0  0  0  0  0
  -26.4570  -37.4130   23.7730 N   0  0  0  0  0  0  0  0  0  0  0  0
  -26.0500  -38.3340   23.9150 H   0  0  0  0  0  0  0  0  0  0  0  0
  -26.3990  -31.7450   25.2220 C   0  0  1  0  0  0  0  0  0  0  0  0
  -25.2890  -31.5140   26.2750 C   0  0  0  0  0  1  0  0  0  0  0  0
  -26.9830  -30.3650   24.8390 C   0  0  0  0  0  1  0  0  0  0  0  0
  -27.5430  -32.5340   25.9000 C   0  0  0  0  0  1  0  0  0  0  0  0
  1  3  2  0
  2 49  1  0
  2  1  1  0
  4  2  1  0
  5 19  1  0
  6 11  1  0
  7  8  1  0
  7  6  1  0
  9  8  1  0
  9 24  1  0
  9 10  1  0
 11  5  1  0
 11 10  1  0
 12  5  2  0
 14 13  1  0
 15 16  1  0
 16  1  1  0
 16 13  2  0
 17 19  1  0
 17 14  2  0
 18 15  2  0
 18 17  1  0
 19 20  1  0
 21 22  2  0
 22 41  1  0
 23 22  1  0
 23 26  1  0
 24 25  1  0
 24 21  1  0
 25 23  2  0
 26 27  1  0
 27 28  2  0
 29 32  1  0
 29 28  1  0
 30 29  2  0
 31 30  1  0
 31 26  2  0
 32 33  1  0
 33 34  1  0
 34 35  2  0
 36 35  1  0
 36 40  1  0
 37 36  2  0
 38 33  2  0
 38 37  1  0
 39 38  1  0
 41 42  1  0
 42 45  1  0
 42 44  1  0
 43 41  2  0
 46 47  1  0
 46 21  1  0
 48 46  1  0
 50 51  1  0
 50 49  2  0
 52 63  2  0
 53 51  1  0
 53 58  1  0
 54 62  1  0
 54 64  1  0
 55 61  1  0
 55 57  1  0
 56 62  1  0
 57 56  1  0
 58 57  2  0
 59 60  1  0
 59 53  2  0
 60 55  2  0
 61 54  1  0
 62 52  1  0
 64 66  2  0
 65 64  1  0
 67 65  1  0
 68 77  2  0
 68 73  1  0
 69 65  1  0
 69 73  1  0
 70 69  1  0
 71 72  1  0
 71 70  1  0
 72 68  1  0
 73 74  2  0
 74 75  1  0
 76 75  2  0
 77 76  1  0
 78 52  1  0
 78 79  1  0
 78 88  1  0
 79 82  1  0
 80 84  1  0
 80 79  1  0
 81 80  2  0
 84 83  1  0
 86 87  1  0
 86 84  1  0
 86 85  1  0
 88 91  1  1
 88 89  1  0
 90 88  1  0
M  ISO  4   5 100  19 100  50 101  51 101
M  END
>  <TORSDO>  (55) 
F 18

>  <SCORE>  (55) 
-14.329

>  <name>  (55) 
54

>  <ligand_id>  (55) 
54

>  <original_smiles>  (55) 
[H]c1nc(N([H])C(=O)N2C([H])([H])C([H])([H])C([H])([H])C([H])(n3nc(-c4c([H])c([H])c(Oc5c([H])c([H])c(F)c([H])c5F)c([H])c4[H])c(C(=O)N([H])[H])c3N([H])[H])C2([H])[H])c([H])c([H])c1C(=O)N([H])C([H])([H])C([H])([H])Oc1c([H])c([H])c2c(c1[H])C([H])([H])N(C(=O)C([H])(N([H])C(=O)C([H])(N([H])C([H])([H])[H])C([H])([H])[H])C(C([H])([H])[H])(C([H])([H])[H])C([H])([H])[H])C([H])(C(=O)N([H])C1([H])c3c([H])c([H])c([H])c([H])c3C([H])([H])C([H])([H])C1([H])[H])C2([H])[H]

>  <smiles>  (55) 
[H]c1nc(N([H])C(=O)N2C([H])([H])C([H])([H])C([H])([H])C([H])(n3nc(-c4c([H])c([H])c(Oc5c([H])c([H])c(F)c([H])c5F)c([H])c4[H])c(C(=O)N([H])[H])c3N([H])[H])C2([H])[H])c([H])c([H])c1C(=O)N([H])C([H])([H])C([H])([H])Oc1c([H])c([H])c2c(c1[H])C([H])([H])N(C(=O)C([H])(N([H])C(=O)C([H])(N([H])C([H])([H])[H])C([H])([H])[H])C(C([H])([H])[H])(C([H])([H])[H])C([H])([H])[H])C([H])(C(=O)N([H])C1([H])c3c([H])c([H])c([H])c([H])c3C([H])([H])C([H])([H])C1([H])[H])C2([H])[H]

$$$$
55:0:0
     RDKit          3D

 89 98  0  0  1  0  0  0  0  0999 V2000
  -30.1010  -20.5420   19.0000 C   0  0  0  0  0  3  0  0  0  0  0  0
  -28.8710  -21.4930   20.7900 C   0  0  0  0  0  3  0  0  0  0  0  0
  -29.4970  -21.9420   19.6110 C   0  0  0  0  0  0  0  0  0  0  0  0
  -30.1110  -18.9860   19.5210 C   0  0  0  0  0  0  0  0  0  0  0  0
  -29.4610  -19.1070   20.7830 C   0  0  0  0  0  0  0  0  0  0  0  0
  -28.8770  -20.2290   21.3130 N   0  0  0  0  0  0  0  0  0  0  0  0
  -31.0900  -15.8850   19.1280 C   0  0  0  0  0  0  0  0  0  0  0  0
  -31.0070  -13.3050   18.3060 C   0  0  0  0  0  2  0  0  0  0  0  0
  -29.8990  -12.8090   17.3280 C   0  0  0  0  0  2  0  0  0  0  0  0
  -28.5980  -12.4710   18.0730 C   0  0  0  0  0  2  0  0  0  0  0  0
  -28.3030  -13.5150   19.1700 C   0  0  0  0  0  3  0  0  0  0  0  0
  -29.5340  -13.8830   20.0300 C   0  0  0  0  0  2  0  0  0  0  0  0
  -30.5240  -14.5200   19.1180 N   0  0  0  0  0  0  0  0  0  0  0  0
  -32.3020  -15.7590   18.8520 O   0  0  0  0  0  0  0  0  0  0  0  0
  -30.3440  -17.2880   19.0620 N   0  0  0  0  0  0  0  0  0  0  0  0
  -29.4090  -16.9500   18.8840 H   0  0  0  0  0  0  0  0  0  0  0  0
  -26.3510  -14.1050   20.6790 C   0  0  0  0  0  0  0  0  0  0  0  0
  -25.2820  -13.3970   21.1440 C   0  0  0  0  0  0  0  0  0  0  0  0
  -25.4550  -12.0600   20.6700 C   0  0  0  0  0  0  0  0  0  0  0  0
  -27.1160  -13.2100   19.9560 N   0  0  0  0  0  0  0  0  0  0  0  0
  -26.6050  -11.9510   20.0070 N   0  0  0  0  0  0  0  0  0  0  0  0
  -24.5570  -10.9010   20.7570 C   0  0  0  0  0  0  0  0  0  0  0  0
  -24.9100   -9.7430   21.4850 C   0  0  0  0  0  3  0  0  0  0  0  0
  -24.0180   -8.6530   21.5740 C   0  0  0  0  0  3  0  0  0  0  0  0
  -22.7560   -8.7150   20.9360 C   0  0  0  0  0  0  0  0  0  0  0  0
  -22.4180   -9.8610   20.1940 C   0  0  0  0  0  3  0  0  0  0  0  0
  -23.3100  -10.9410   20.1020 C   0  0  0  0  0  3  0  0  0  0  0  0
  -21.8350   -7.6940   20.9470 O   0  0  0  0  0  0  0  0  0  0  0  0
  -21.5960   -6.9520   22.0760 C   0  0  0  0  0  0  0  0  0  0  0  0
  -21.2100   -7.5530   23.2940 C   0  0  0  0  0  3  0  0  0  0  0  0
  -20.9060   -6.7500   24.4110 C   0  0  0  0  0  3  0  0  0  0  0  0
  -20.9780   -5.3480   24.3100 C   0  0  0  0  0  0  0  0  0  0  0  0
  -21.3570   -4.7470   23.0970 C   0  0  0  0  0  3  0  0  0  0  0  0
  -21.6620   -5.5480   21.9820 C   0  0  0  0  0  0  0  0  0  0  0  0
  -22.0050   -4.9630   20.8100 F   0  0  0  0  0  0  0  0  0  0  0  0
  -20.6800   -4.5750   25.3800 F   0  0  0  0  0  0  0  0  0  0  0  0
  -24.1090  -13.9610   21.8910 C   0  0  0  0  0  0  0  0  0  0  0  0
  -23.4950  -13.1650   22.7590 N   0  0  0  0  0  0  0  0  0  0  0  0
  -23.7640  -15.1330   21.7440 O   0  0  0  0  0  0  0  0  0  0  0  0
  -23.7940  -12.2110   22.8930 H   0  0  0  0  0  0  0  0  0  0  0  0
  -22.7160  -13.5160   23.2960 H   0  0  0  0  0  0  0  0  0  0  0  0
  -26.7180  -15.4430   20.7720 N   0  0  0  0  0  0  0  0  0  0  0  0
  -26.1020  -16.1280   21.1960 H   0  0  0  0  0  0  0  0  0  0  0  0
  -27.4550  -15.8590   20.2200 H   0  0  0  0  0  0  0  0  0  0  0  0
  -30.2990  -17.6790   22.8310 C   0  0  0  0  0  2  0  0  0  0  0  0
  -30.3180  -16.7800   21.6280 C   0  0  0  0  0  2  0  0  0  0  0  0
  -29.3200  -17.9200   21.6960 C   0  0  0  0  0  3  0  0  0  0  0  0
  -29.6450  -23.8510   19.5520 C   0  0  0  0  0  2  0  0  0  0  0  0
  -28.9670  -25.4910   19.1640 O   0  0  0  0  0  0  0  0  0  0  0  0
  -24.9690  -31.2710   22.8460 C   0  0  0  0  0  0  0  0  0  0  0  0
  -27.8630  -26.5800   19.4660 C   0  0  0  0  0  0  0  0  0  0  0  0
  -23.8610  -29.8640   21.1660 C   0  0  0  0  0  3  0  0  0  0  0  0
  -25.4060  -28.4350   19.6200 C   0  0  0  0  0  0  0  0  0  0  0  0
  -26.4150  -30.2460   20.9720 C   0  0  0  0  0  2  0  0  0  0  0  0
  -26.5940  -28.8540   20.2340 C   0  0  0  0  0  0  0  0  0  0  0  0
  -27.8020  -27.9620   20.1160 C   0  0  0  0  0  3  0  0  0  0  0  0
  -26.6130  -26.3990   18.8150 C   0  0  0  0  0  3  0  0  0  0  0  0
  -25.4550  -27.2380   18.8870 C   0  0  0  0  0  3  0  0  0  0  0  0
  -24.1200  -29.2720   19.7510 C   0  0  0  0  0  2  0  0  0  0  0  0
  -25.1060  -30.4950   21.7140 N   0  0  0  0  0  0  0  0  0  0  0  0
  -23.8700  -31.4300   23.4080 O   0  0  0  0  0  0  0  0  0  0  0  0
  -23.2770  -28.7660   22.0970 C   0  0  0  0  0  0  0  0  0  0  0  0
  -21.9780  -28.4370   21.9580 N   0  0  0  0  0  0  0  0  0  0  0  0
  -24.0080  -28.2080   22.9200 O   0  0  0  0  0  0  0  0  0  0  0  0
  -21.4290  -28.9430   21.2780 H   0  0  0  0  0  0  0  0  0  0  0  0
  -18.7990  -26.7210   22.3770 C   0  0  0  0  0  0  0  0  0  0  0  0
  -21.2860  -27.3670   22.6900 C   0  0  0  0  0  3  0  0  0  0  0  0
  -21.6100  -25.9810   22.0830 C   0  0  0  0  0  2  0  0  0  0  0  0
  -20.5840  -25.5250   21.0410 C   0  0  0  0  0  2  0  0  0  0  0  0
  -19.1880  -25.4380   21.6620 C   0  0  0  0  0  2  0  0  0  0  0  0
  -19.7820  -27.6350   22.8440 C   0  0  0  0  0  0  0  0  0  0  0  0
  -19.3610  -28.8250   23.4750 C   0  0  0  0  0  3  0  0  0  0  0  0
  -17.9930  -29.1080   23.6410 C   0  0  0  0  0  3  0  0  0  0  0  0
  -17.0250  -28.1950   23.1850 C   0  0  0  0  0  3  0  0  0  0  0  0
  -17.4290  -27.0030   22.5590 C   0  0  0  0  0  3  0  0  0  0  0  0
  -26.1820  -32.0090   23.4880 C   0  0  0  0  0  3  0  0  0  0  0  0
  -25.7300  -33.3410   23.9400 N   0  0  0  0  0  0  0  0  0  0  0  0
  -25.8880  -34.4850   23.2590 C   0  0  0  0  0  0  0  0  0  0  0  0
  -26.4860  -34.5350   22.1820 O   0  0  0  0  0  0  0  0  0  0  0  0
  -25.1820  -33.3640   24.7870 H   0  0  0  0  0  0  0  0  0  0  0  0
  -23.9440  -36.0880   23.2030 C   0  0  0  0  0  1  0  0  0  0  0  0
  -25.2960  -35.7750   23.8650 C   0  0  0  0  0  3  0  0  0  0  0  0
  -27.3820  -36.8630   24.5770 C   0  0  0  0  0  1  0  0  0  0  0  0
  -26.1870  -36.9520   23.7420 N   0  0  0  0  0  0  0  0  0  0  0  0
  -25.6920  -37.8050   23.9870 H   0  0  0  0  0  0  0  0  0  0  0  0
  -26.8090  -31.2200   24.7050 C   0  0  1  0  0  0  0  0  0  0  0  0
  -25.7770  -30.8080   25.7810 C   0  0  0  0  0  1  0  0  0  0  0  0
  -27.5200  -29.9330   24.2280 C   0  0  0  0  0  1  0  0  0  0  0  0
  -27.8910  -32.0870   25.3890 C   0  0  0  0  0  1  0  0  0  0  0  0
  1  4  2  0
  1  3  1  0
  2  6  1  0
  3  2  2  0
  4  5  1  0
  5  6  2  0
  5 47  1  0
  8 13  1  0
  9 10  1  0
  9  8  1  0
 11 10  1  0
 11 20  1  0
 11 12  1  0
 13  7  1  0
 13 12  1  0
 14  7  2  0
 15  7  1  0
 15  4  1  0
 16 15  1  0
 17 42  1  0
 17 18  2  0
 18 37  1  0
 19 22  1  0
 19 18  1  0
 20 21  1  0
 20 17  1  0
 21 19  2  0
 22 23  1  0
 23 24  2  0
 25 28  1  0
 25 24  1  0
 26 25  2  0
 27 26  1  0
 27 22  2  0
 28 29  1  0
 29 30  1  0
 30 31  2  0
 32 31  1  0
 32 36  1  0
 33 32  2  0
 34 29  2  0
 34 33  1  0
 35 34  1  0
 37 38  1  0
 38 40  1  0
 38 41  1  0
 39 37  2  0
 42 43  1  0
 44 42  1  0
 46 47  1  0
 46 45  1  0
 47 45  1  0
 48  3  1  0
 49 51  1  0
 49 48  1  0
 50 61  2  0
 51 56  1  0
 52 60  1  0
 52 62  1  0
 53 59  1  0
 53 55  1  0
 54 60  1  0
 55 54  1  0
 56 55  2  0
 57 58  1  0
 57 51  2  0
 58 53  2  0
 59 52  1  0
 60 50  1  0
 62 64  2  0
 63 62  1  0
 65 63  1  0
 66 75  2  0
 66 71  1  0
 67 63  1  0
 67 71  1  0
 68 67  1  0
 69 70  1  0
 69 68  1  0
 70 66  1  0
 71 72  2  0
 72 73  1  0
 74 73  2  0
 75 74  1  0
 76 50  1  0
 76 77  1  0
 76 86  1  0
 77 80  1  0
 78 82  1  0
 78 77  1  0
 79 78  2  0
 82 81  1  0
 84 82  1  0
 84 85  1  0
 84 83  1  0
 86 89  1  1
 86 87  1  0
 88 86  1  0
M  ISO  4   7 100  15 100  48 101  49 101
M  END
>  <TORSDO>  (56) 
F 18

>  <SCORE>  (56) 
-9.237

>  <name>  (56) 
55

>  <ligand_id>  (56) 
55

>  <original_smiles>  (56) 
[H]c1nc(C2([H])C([H])([H])C2([H])[H])c(N([H])C(=O)N2C([H])([H])C([H])([H])C([H])([H])C([H])(n3nc(-c4c([H])c([H])c(Oc5c([H])c([H])c(F)c([H])c5F)c([H])c4[H])c(C(=O)N([H])[H])c3N([H])[H])C2([H])[H])c([H])c1C([H])([H])Oc1c([H])c([H])c2c(c1[H])C([H])([H])N(C(=O)C([H])(N([H])C(=O)C([H])(N([H])C([H])([H])[H])C([H])([H])[H])C(C([H])([H])[H])(C([H])([H])[H])C([H])([H])[H])C([H])(C(=O)N([H])C1([H])c3c([H])c([H])c([H])c([H])c3C([H])([H])C([H])([H])C1([H])[H])C2([H])[H]

>  <smiles>  (56) 
[H]c1nc(C2([H])C([H])([H])C2([H])[H])c(N([H])C(=O)N2C([H])([H])C([H])([H])C([H])([H])C([H])(n3nc(-c4c([H])c([H])c(Oc5c([H])c([H])c(F)c([H])c5F)c([H])c4[H])c(C(=O)N([H])[H])c3N([H])[H])C2([H])[H])c([H])c1C([H])([H])Oc1c([H])c([H])c2c(c1[H])C([H])([H])N(C(=O)C([H])(N([H])C(=O)C([H])(N([H])C([H])([H])[H])C([H])([H])[H])C(C([H])([H])[H])(C([H])([H])[H])C([H])([H])[H])C([H])(C(=O)N([H])C1([H])c3c([H])c([H])c([H])c([H])c3C([H])([H])C([H])([H])C1([H])[H])C2([H])[H]

$$$$
56:0:0
     RDKit          3D

 99108  0  0  1  0  0  0  0  0999 V2000
  -30.3350  -17.9260   20.1720 C   0  0  0  0  0  3  0  0  0  0  0  0
  -28.6050  -19.8640   19.1740 C   0  0  0  0  0  3  0  0  0  0  0  0
  -30.7770  -19.2580   20.1290 C   0  0  0  0  0  0  0  0  0  0  0  0
  -28.1380  -18.5250   19.1880 C   0  0  0  0  0  0  0  0  0  0  0  0
  -29.8810  -20.2170   19.6270 C   0  0  0  0  0  0  0  0  0  0  0  0
  -29.0630  -17.4740   19.7140 C   0  0  0  0  0  0  0  0  0  0  0  0
  -31.9630  -19.9750   20.4970 C   0  0  0  0  0  0  0  0  0  0  0  0
  -30.1320  -22.7490   19.3930 C   0  0  0  0  0  1  0  0  0  0  0  0
  -31.8230  -21.2590   20.2590 N   0  0  0  0  0  0  0  0  0  0  0  0
  -30.5750  -21.4140   19.7410 N   0  0  0  0  0  0  0  0  0  0  0  0
  -29.7970  -15.1300   20.5770 C   0  0  0  0  0  0  0  0  0  0  0  0
  -30.2270  -12.7310   21.1740 C   0  0  0  0  0  2  0  0  0  0  0  0
  -29.7140  -11.7840   20.0700 C   0  0  0  0  0  2  0  0  0  0  0  0
  -28.2310  -11.4450   20.3050 C   0  0  0  0  0  2  0  0  0  0  0  0
  -27.3730  -12.7020   20.6090 C   0  0  0  0  0  3  0  0  0  0  0  0
  -28.0360  -13.6280   21.6500 C   0  0  0  0  0  2  0  0  0  0  0  0
  -29.3750  -13.9460   21.1470 N   0  0  0  0  0  0  0  0  0  0  0  0
  -31.0110  -15.3230   20.4670 O   0  0  0  0  0  0  0  0  0  0  0  0
  -28.8960  -16.0040   19.9430 N   0  0  0  0  0  0  0  0  0  0  0  0
  -27.9700  -15.6370   19.7830 H   0  0  0  0  0  0  0  0  0  0  0  0
  -24.9110  -13.1810   21.1300 C   0  0  0  0  0  0  0  0  0  0  0  0
  -23.8520  -12.3570   21.3960 C   0  0  0  0  0  0  0  0  0  0  0  0
  -24.3760  -11.0280   21.4010 C   0  0  0  0  0  0  0  0  0  0  0  0
  -26.0090  -12.3490   20.9820 N   0  0  0  0  0  0  0  0  0  0  0  0
  -25.6890  -11.0490   21.2110 N   0  0  0  0  0  0  0  0  0  0  0  0
  -23.6910   -9.7340   21.5140 C   0  0  0  0  0  0  0  0  0  0  0  0
  -23.8240   -8.9240   22.6640 C   0  0  0  0  0  3  0  0  0  0  0  0
  -23.1380   -7.6940   22.7570 C   0  0  0  0  0  3  0  0  0  0  0  0
  -22.3060   -7.2630   21.6960 C   0  0  0  0  0  0  0  0  0  0  0  0
  -22.1950   -8.0610   20.5450 C   0  0  0  0  0  3  0  0  0  0  0  0
  -22.8830   -9.2830   20.4520 C   0  0  0  0  0  3  0  0  0  0  0  0
  -21.6210   -6.0720   21.6880 O   0  0  0  0  0  0  0  0  0  0  0  0
  -20.8920   -5.6540   22.7720 C   0  0  0  0  0  0  0  0  0  0  0  0
  -19.7680   -6.3710   23.2350 C   0  0  0  0  0  3  0  0  0  0  0  0
  -19.0050   -5.8700   24.3090 C   0  0  0  0  0  3  0  0  0  0  0  0
  -19.3580   -4.6470   24.9130 C   0  0  0  0  0  0  0  0  0  0  0  0
  -20.4730   -3.9280   24.4480 C   0  0  0  0  0  3  0  0  0  0  0  0
  -21.2350   -4.4290   23.3790 C   0  0  0  0  0  0  0  0  0  0  0  0
  -22.2970   -3.7210   22.9210 F   0  0  0  0  0  0  0  0  0  0  0  0
  -18.6210   -4.1590   25.9380 F   0  0  0  0  0  0  0  0  0  0  0  0
  -22.4180  -12.7710   21.5400 C   0  0  0  0  0  0  0  0  0  0  0  0
  -21.6450  -12.0410   22.3370 N   0  0  0  0  0  0  0  0  0  0  0  0
  -21.9850  -13.7780   20.9800 O   0  0  0  0  0  0  0  0  0  0  0  0
  -22.0070  -11.2270   22.8110 H   0  0  0  0  0  0  0  0  0  0  0  0
  -20.6790  -12.3000   22.4750 H   0  0  0  0  0  0  0  0  0  0  0  0
  -25.0300  -14.5580   20.9760 N   0  0  0  0  0  0  0  0  0  0  0  0
  -24.2230  -15.1720   21.0120 H   0  0  0  0  0  0  0  0  0  0  0  0
  -25.8780  -15.0390   20.7060 H   0  0  0  0  0  0  0  0  0  0  0  0
  -32.9130  -18.5380   22.3330 C   0  0  0  0  0  1  0  0  0  0  0  0
  -33.2110  -19.4100   21.1070 C   0  0  0  0  0  2  0  0  0  0  0  0
  -26.6500  -18.4470   18.6430 C   0  0  0  0  0  2  0  0  0  0  0  0
  -25.7950  -19.7880   18.1830 C   0  0  0  0  0  2  0  0  0  0  0  0
  -25.5120  -21.0100   19.0930 N   0  0  0  0  0  4  0  0  0  0  0  0
  -26.2970  -21.1240   19.7140 H   0  0  0  0  0  0  0  0  0  0  0  0
  -24.7220  -20.7660   19.6700 H   0  0  0  0  0  0  0  0  0  0  0  0
  -25.2040  -22.3970   18.4470 C   0  0  0  0  0  2  0  0  0  0  0  0
  -24.7250  -23.8600   20.5590 C   0  0  0  0  0  1  0  0  0  0  0  0
  -25.5410  -23.7820   19.2530 C   0  0  0  0  0  3  0  0  0  0  0  0
  -25.6740  -25.1350   18.5600 O   0  0  0  0  0  0  0  0  0  0  0  0
  -25.2960  -30.1070   23.8670 C   0  0  0  0  0  0  0  0  0  0  0  0
  -25.1150  -26.3310   19.0770 C   0  0  0  0  0  0  0  0  0  0  0  0
  -23.4050  -30.0060   22.2830 C   0  0  0  0  0  3  0  0  0  0  0  0
  -23.8040  -28.6570   20.1410 C   0  0  0  0  0  0  0  0  0  0  0  0
  -25.7640  -29.3360   21.5240 C   0  0  0  0  0  2  0  0  0  0  0  0
  -25.1240  -28.3790   20.5180 C   0  0  0  0  0  0  0  0  0  0  0  0
  -25.7880  -27.2310   19.9750 C   0  0  0  0  0  3  0  0  0  0  0  0
  -23.8130  -26.6960   18.6820 C   0  0  0  0  0  3  0  0  0  0  0  0
  -23.1570  -27.8260   19.2110 C   0  0  0  0  0  3  0  0  0  0  0  0
  -23.1260  -29.8640   20.7630 C   0  0  0  0  0  2  0  0  0  0  0  0
  -24.8540  -29.8050   22.6100 N   0  0  0  0  0  0  0  0  0  0  0  0
  -24.5300  -30.5700   24.7260 O   0  0  0  0  0  0  0  0  0  0  0  0
  -22.4640  -29.0550   23.0610 C   0  0  0  0  0  0  0  0  0  0  0  0
  -21.1430  -29.2370   22.8950 N   0  0  0  0  0  0  0  0  0  0  0  0
  -22.9250  -28.1630   23.7770 O   0  0  0  0  0  0  0  0  0  0  0  0
  -20.8420  -29.9980   22.3020 H   0  0  0  0  0  0  0  0  0  0  0  0
  -17.5850  -28.5820   22.8420 C   0  0  0  0  0  0  0  0  0  0  0  0
  -20.0810  -28.4270   23.4970 C   0  0  0  0  0  3  0  0  0  0  0  0
  -20.0490  -27.0090   22.8800 C   0  0  0  0  0  2  0  0  0  0  0  0
  -19.0770  -26.8860   21.7030 C   0  0  0  0  0  2  0  0  0  0  0  0
  -17.6520  -27.2350   22.1410 C   0  0  0  0  0  2  0  0  0  0  0  0
  -18.7280  -29.1480   23.4650 C   0  0  0  0  0  0  0  0  0  0  0  0
  -18.6180  -30.4170   24.0730 C   0  0  0  0  0  3  0  0  0  0  0  0
  -17.3950  -31.1130   24.0710 C   0  0  0  0  0  3  0  0  0  0  0  0
  -16.2620  -30.5420   23.4670 C   0  0  0  0  0  3  0  0  0  0  0  0
  -16.3580  -29.2780   22.8580 C   0  0  0  0  0  3  0  0  0  0  0  0
  -26.7860  -29.9090   24.2780 C   0  0  0  0  0  3  0  0  0  0  0  0
  -27.1890  -31.0800   25.0710 N   0  0  0  0  0  0  0  0  0  0  0  0
  -27.9960  -32.0560   24.6360 C   0  0  0  0  0  0  0  0  0  0  0  0
  -28.5420  -32.0280   23.5310 O   0  0  0  0  0  0  0  0  0  0  0  0
  -26.7360  -31.1950   25.9660 H   0  0  0  0  0  0  0  0  0  0  0  0
  -27.4000  -34.4540   25.1140 C   0  0  0  0  0  1  0  0  0  0  0  0
  -28.2380  -33.2510   25.5780 C   0  0  0  0  0  3  0  0  0  0  0  0
  -30.4840  -32.6700   26.3810 C   0  0  0  0  0  1  0  0  0  0  0  0
  -29.6590  -33.6470   25.6760 N   0  0  0  0  0  0  0  0  0  0  0  0
  -29.7520  -34.5410   26.1510 H   0  0  0  0  0  0  0  0  0  0  0  0
  -27.0350  -28.5780   25.0900 C   0  0  1  0  0  0  0  0  0  0  0  0
  -26.0890  -28.4030   26.3010 C   0  0  0  0  0  1  0  0  0  0  0  0
  -26.8700  -27.3400   24.1790 C   0  0  0  0  0  1  0  0  0  0  0  0
  -28.4920  -28.5500   25.6130 C   0  0  0  0  0  1  0  0  0  0  0  0
  2  4  2  0
  2  5  1  0
  3  1  1  0
  3  7  1  0
  4  6  1  0
  5 10  1  0
  5  3  2  0
  6 19  1  0
  6  1  2  0
  7 50  1  0
  8 10  1  0
  9  7  2  0
 10  9  1  0
 11 17  1  0
 13 14  1  0
 13 12  1  0
 15 14  1  0
 15 24  1  0
 15 16  1  0
 17 12  1  0
 17 16  1  0
 18 11  2  0
 19 11  1  0
 20 19  1  0
 21 22  2  0
 22 23  1  0
 22 41  1  0
 23 26  1  0
 24 21  1  0
 24 25  1  0
 25 23  2  0
 26 27  1  0
 27 28  2  0
 29 28  1  0
 30 29  2  0
 31 30  1  0
 31 26  2  0
 32 29  1  0
 32 33  1  0
 33 34  2  0
 33 38  1  0
 34 35  1  0
 35 36  2  0
 36 40  1  0
 37 36  1  0
 38 37  2  0
 39 38  1  0
 41 42  1  0
 42 45  1  0
 42 44  1  0
 43 41  2  0
 46 47  1  0
 46 21  1  0
 48 46  1  0
 50 49  1  0
 51  4  1  0
 52 51  1  0
 52 53  1  0
 53 55  1  0
 53 54  1  0
 56 53  1  0
 56 58  1  0
 58 57  1  0
 59 61  1  0
 59 58  1  0
 60 71  2  0
 61 66  1  0
 62 70  1  0
 62 72  1  0
 63 65  1  0
 63 69  1  0
 64 70  1  0
 65 64  1  0
 66 65  2  0
 67 61  2  0
 67 68  1  0
 68 63  2  0
 69 62  1  0
 70 60  1  0
 72 74  2  0
 73 72  1  0
 75 73  1  0
 76 85  2  0
 76 81  1  0
 77 73  1  0
 78 77  1  0
 79 80  1  0
 79 78  1  0
 80 76  1  0
 81 77  1  0
 81 82  2  0
 83 82  1  0
 84 83  2  0
 85 84  1  0
 86 60  1  0
 86 87  1  0
 86 96  1  0
 87 90  1  0
 88 87  1  0
 88 92  1  0
 89 88  2  0
 92 91  1  0
 92 94  1  0
 94 95  1  0
 94 93  1  0
 96 99  1  1
 96 97  1  0
 98 96  1  0
M  ISO  4  11 100  19 100  58 101  59 101
M  END
>  <TORSDO>  (57) 
F 22

>  <SCORE>  (57) 
-7.788

>  <name>  (57) 
56

>  <ligand_id>  (57) 
56

>  <original_smiles>  (57) 
[H]c1c([H])c([H])c2c(c1[H])C([H])([H])C([H])([H])C([H])([H])C2([H])N([H])C(=O)C1([H])N(C(=O)C([H])(N([H])C(=O)C([H])(N([H])C([H])([H])[H])C([H])([H])[H])C(C([H])([H])[H])(C([H])([H])[H])C([H])([H])[H])C([H])([H])c2c([H])c(OC([H])(C([H])([H])[H])C([H])([H])[N+]([H])([H])C([H])([H])C([H])([H])c3c(N([H])C(=O)N4C([H])([H])C([H])([H])C([H])([H])C([H])(n5nc(-c6c([H])c([H])c(Oc7c([H])c([H])c(F)c([H])c7F)c([H])c6[H])c(C(=O)N([H])[H])c5N([H])[H])C4([H])[H])c([H])c4c(C([H])([H])C([H])([H])[H])nn(C([H])([H])[H])c4c3[H])c([H])c([H])c2C1([H])[H]

>  <smiles>  (57) 
[H]c1c([H])c([H])c2c(c1[H])C([H])([H])C([H])([H])C([H])([H])C2([H])N([H])C(=O)C1([H])N(C(=O)C([H])(N([H])C(=O)C([H])(N([H])C([H])([H])[H])C([H])([H])[H])C(C([H])([H])[H])(C([H])([H])[H])C([H])([H])[H])C([H])([H])c2c([H])c(OC([H])(C([H])([H])[H])C([H])([H])[N+]([H])([H])C([H])([H])C([H])([H])c3c(N([H])C(=O)N4C([H])([H])C([H])([H])C([H])([H])C([H])(n5nc(-c6c([H])c([H])c(Oc7c([H])c([H])c(F)c([H])c7F)c([H])c6[H])c(C(=O)N([H])[H])c5N([H])[H])C4([H])[H])c([H])c4c(C([H])([H])C([H])([H])[H])nn(C([H])([H])[H])c4c3[H])c([H])c([H])c2C1([H])[H]

$$$$
57:0:0
     RDKit          3D

100108  0  0  1  0  0  0  0  0999 V2000
  -29.2330  -19.8760   16.7740 C   0  0  0  0  0  1  0  0  0  0  0  0
  -27.8020  -18.7770   18.4370 C   0  0  0  0  0  1  0  0  0  0  0  0
  -28.8040  -19.9530   18.2620 C   0  0  1  0  0  0  0  0  0  0  0  0
  -32.2760  -20.4250   19.8350 C   0  0  0  0  0  3  0  0  0  0  0  0
  -31.1540  -20.6130   19.0210 C   0  0  0  0  0  3  0  0  0  0  0  0
  -32.2790  -19.3900   20.7920 C   0  0  0  0  0  0  0  0  0  0  0  0
  -30.0490  -19.7520   19.1590 C   0  0  0  0  0  0  0  0  0  0  0  0
  -31.1330  -18.5590   20.8650 C   0  0  0  0  0  0  0  0  0  0  0  0
  -30.0500  -18.7450   20.0720 N   0  0  0  0  0  0  0  0  0  0  0  0
  -33.2820  -20.0110   23.0240 C   0  0  0  0  0  1  0  0  0  0  0  0
  -34.8320  -19.5820   21.0770 C   0  0  0  0  0  1  0  0  0  0  0  0
  -33.4830  -19.2130   21.7220 C   0  0  0  0  0  3  0  0  0  0  0  0
  -30.9910  -17.4520   21.9120 C   0  0  0  0  0  2  0  0  0  0  0  0
  -31.3120  -15.2170   20.7740 C   0  0  0  0  0  0  0  0  0  0  0  0
  -31.1630  -12.9850   19.7190 C   0  0  0  0  0  2  0  0  0  0  0  0
  -30.2890  -13.0100   18.4470 C   0  0  0  0  0  2  0  0  0  0  0  0
  -28.8010  -12.8430   18.8100 C   0  0  0  0  0  2  0  0  0  0  0  0
  -28.3490  -13.8190   19.9260 C   0  0  0  0  0  3  0  0  0  0  0  0
  -29.3120  -13.7270   21.1250 C   0  0  0  0  0  2  0  0  0  0  0  0
  -30.6720  -14.0270   20.6300 N   0  0  0  0  0  0  0  0  0  0  0  0
  -32.4410  -15.4370   20.3290 O   0  0  0  0  0  0  0  0  0  0  0  0
  -30.5860  -16.1450   21.4060 N   0  0  0  0  0  0  0  0  0  0  0  0
  -29.6470  -15.8760   21.6440 H   0  0  0  0  0  0  0  0  0  0  0  0
  -25.9310  -14.4710   20.5480 C   0  0  0  0  0  0  0  0  0  0  0  0
  -24.8290  -13.7120   20.8360 C   0  0  0  0  0  0  0  0  0  0  0  0
  -25.2600  -12.3510   20.7800 C   0  0  0  0  0  0  0  0  0  0  0  0
  -26.9650  -13.5720   20.3300 N   0  0  0  0  0  0  0  0  0  0  0  0
  -26.5590  -12.2920   20.5280 N   0  0  0  0  0  0  0  0  0  0  0  0
  -24.5020  -11.1010   20.8940 C   0  0  0  0  0  0  0  0  0  0  0  0
  -24.8660  -10.0900   21.8120 C   0  0  0  0  0  3  0  0  0  0  0  0
  -24.1050   -8.9060   21.9090 C   0  0  0  0  0  3  0  0  0  0  0  0
  -22.9660   -8.7220   21.0890 C   0  0  0  0  0  0  0  0  0  0  0  0
  -22.6220   -9.7230   20.1600 C   0  0  0  0  0  3  0  0  0  0  0  0
  -23.3850  -10.8980   20.0610 C   0  0  0  0  0  3  0  0  0  0  0  0
  -22.1860   -7.5930   21.0970 O   0  0  0  0  0  0  0  0  0  0  0  0
  -22.0160   -6.8410   22.2350 C   0  0  0  0  0  0  0  0  0  0  0  0
  -21.5020   -7.4030   23.4220 C   0  0  0  0  0  3  0  0  0  0  0  0
  -21.2740   -6.5830   24.5470 C   0  0  0  0  0  3  0  0  0  0  0  0
  -21.5540   -5.2050   24.4800 C   0  0  0  0  0  0  0  0  0  0  0  0
  -22.0590   -4.6420   23.2960 C   0  0  0  0  0  3  0  0  0  0  0  0
  -22.2870   -5.4610   22.1740 C   0  0  0  0  0  0  0  0  0  0  0  0
  -22.7560   -4.9100   21.0270 F   0  0  0  0  0  0  0  0  0  0  0  0
  -21.3280   -4.4150   25.5580 F   0  0  0  0  0  0  0  0  0  0  0  0
  -23.4330  -14.2160   21.0610 C   0  0  0  0  0  0  0  0  0  0  0  0
  -22.6520  -13.5230   21.8830 N   0  0  0  0  0  0  0  0  0  0  0  0
  -23.0420  -15.2670   20.5530 O   0  0  0  0  0  0  0  0  0  0  0  0
  -22.9840  -12.6770   22.3250 H   0  0  0  0  0  0  0  0  0  0  0  0
  -21.7160  -13.8510   22.0770 H   0  0  0  0  0  0  0  0  0  0  0  0
  -26.1250  -15.8440   20.4350 N   0  0  0  0  0  0  0  0  0  0  0  0
  -25.3540  -16.4930   20.5350 H   0  0  0  0  0  0  0  0  0  0  0  0
  -26.9940  -16.2980   20.1860 H   0  0  0  0  0  0  0  0  0  0  0  0
  -28.0550  -21.3020   18.5780 C   0  0  0  0  0  3  0  0  0  0  0  0
  -27.6380  -21.3370   19.8480 F   0  0  0  0  0  0  0  0  0  0  0  0
  -28.7180  -22.6690   18.2120 C   0  0  0  0  0  2  0  0  0  0  0  0
  -29.2100  -23.4170   19.4030 N   0  0  0  0  0  4  0  0  0  0  0  0
  -28.5750  -23.1910   20.1560 H   0  0  0  0  0  0  0  0  0  0  0  0
  -30.1060  -23.0310   19.6630 H   0  0  0  0  0  0  0  0  0  0  0  0
  -29.3600  -24.9010   19.2840 C   0  0  0  0  0  2  0  0  0  0  0  0
  -28.0130  -25.6510   19.1610 C   0  0  0  0  0  2  0  0  0  0  0  0
  -28.1110  -27.0340   19.5470 O   0  0  0  0  0  0  0  0  0  0  0  0
  -24.4810  -31.9930   23.1790 C   0  0  0  0  0  0  0  0  0  0  0  0
  -26.9350  -27.7620   19.6450 C   0  0  0  0  0  0  0  0  0  0  0  0
  -23.1870  -30.7060   21.5180 C   0  0  0  0  0  3  0  0  0  0  0  0
  -24.5490  -29.2760   19.9090 C   0  0  0  0  0  0  0  0  0  0  0  0
  -25.7010  -31.0680   21.2120 C   0  0  0  0  0  2  0  0  0  0  0  0
  -25.7400  -29.7470   20.4720 C   0  0  0  0  0  0  0  0  0  0  0  0
  -26.9310  -28.9940   20.3420 C   0  0  0  0  0  3  0  0  0  0  0  0
  -25.7210  -27.3200   19.0640 C   0  0  0  0  0  3  0  0  0  0  0  0
  -24.5350  -28.0610   19.2050 C   0  0  0  0  0  3  0  0  0  0  0  0
  -23.3130  -30.1270   20.0870 C   0  0  0  0  0  2  0  0  0  0  0  0
  -24.4790  -31.2670   22.0280 N   0  0  0  0  0  0  0  0  0  0  0  0
  -23.4310  -32.2260   23.7950 O   0  0  0  0  0  0  0  0  0  0  0  0
  -22.5830  -29.6220   22.4420 C   0  0  0  0  0  0  0  0  0  0  0  0
  -21.2630  -29.4020   22.3290 N   0  0  0  0  0  0  0  0  0  0  0  0
  -23.2990  -28.9800   23.2150 O   0  0  0  0  0  0  0  0  0  0  0  0
  -20.7440  -29.9720   21.6760 H   0  0  0  0  0  0  0  0  0  0  0  0
  -17.9530  -28.0200   22.7770 C   0  0  0  0  0  0  0  0  0  0  0  0
  -20.4910  -28.4030   23.0710 C   0  0  0  0  0  3  0  0  0  0  0  0
  -20.6680  -26.9940   22.4590 C   0  0  0  0  0  2  0  0  0  0  0  0
  -19.5930  -26.6400   21.4280 C   0  0  0  0  0  2  0  0  0  0  0  0
  -18.2020  -26.7010   22.0670 C   0  0  0  0  0  2  0  0  0  0  0  0
  -19.0280  -28.8270   23.2340 C   0  0  0  0  0  0  0  0  0  0  0  0
  -18.7410  -30.0620   23.8560 C   0  0  0  0  0  3  0  0  0  0  0  0
  -17.4120  -30.4920   24.0230 C   0  0  0  0  0  3  0  0  0  0  0  0
  -16.3510  -29.6840   23.5800 C   0  0  0  0  0  3  0  0  0  0  0  0
  -16.6230  -28.4500   22.9630 C   0  0  0  0  0  3  0  0  0  0  0  0
  -25.8000  -32.5810   23.7700 C   0  0  0  0  0  3  0  0  0  0  0  0
  -25.5380  -33.9820   24.1270 N   0  0  0  0  0  0  0  0  0  0  0  0
  -25.9010  -35.0340   23.3830 C   0  0  0  0  0  0  0  0  0  0  0  0
  -26.5620  -34.9260   22.3480 O   0  0  0  0  0  0  0  0  0  0  0  0
  -24.9500  -34.1400   24.9320 H   0  0  0  0  0  0  0  0  0  0  0  0
  -24.2350  -36.8850   23.0520 C   0  0  0  0  0  1  0  0  0  0  0  0
  -25.4610  -36.4330   23.8610 C   0  0  0  0  0  3  0  0  0  0  0  0
  -27.6300  -37.2240   24.6960 C   0  0  0  0  0  1  0  0  0  0  0  0
  -26.5330  -37.4470   23.7580 N   0  0  0  0  0  0  0  0  0  0  0  0
  -26.1690  -38.3830   23.9090 H   0  0  0  0  0  0  0  0  0  0  0  0
  -26.3290  -31.7780   25.0210 C   0  0  1  0  0  0  0  0  0  0  0  0
  -25.2560  -31.5650   26.1150 C   0  0  0  0  0  1  0  0  0  0  0  0
  -26.8540  -30.3870   24.5980 C   0  0  0  0  0  1  0  0  0  0  0  0
  -27.5290  -32.5210   25.6500 C   0  0  0  0  0  1  0  0  0  0  0  0
  3  1  1  6
  3  2  1  0
  3 52  1  0
  3  7  1  0
  4  6  1  0
  5  7  1  0
  5  4  2  0
  6  8  2  0
  6 12  1  0
  7  9  2  0
  8 13  1  0
  9  8  1  0
 11 12  1  0
 12 10  1  0
 14 22  1  0
 15 20  1  0
 16 17  1  0
 16 15  1  0
 18 17  1  0
 18 27  1  0
 18 19  1  0
 20 14  1  0
 20 19  1  0
 21 14  2  0
 22 23  1  0
 22 13  1  0
 24 25  2  0
 25 44  1  0
 26 25  1  0
 26 29  1  0
 27 28  1  0
 27 24  1  0
 28 26  2  0
 29 30  1  0
 30 31  2  0
 32 35  1  0
 32 31  1  0
 33 32  2  0
 34 33  1  0
 34 29  2  0
 35 36  1  0
 36 37  1  0
 37 38  2  0
 39 38  1  0
 39 43  1  0
 40 39  2  0
 41 36  2  0
 41 40  1  0
 42 41  1  0
 44 45  1  0
 45 48  1  0
 45 47  1  0
 46 44  2  0
 49 50  1  0
 49 24  1  0
 51 49  1  0
 52 53  1  0
 54 52  1  0
 54 55  1  0
 55 57  1  0
 55 56  1  0
 58 55  1  0
 59 58  1  0
 59 60  1  0
 60 62  1  0
 61 72  2  0
 62 67  1  0
 63 71  1  0
 63 73  1  0
 64 70  1  0
 64 66  1  0
 65 71  1  0
 66 65  1  0
 67 66  2  0
 68 69  1  0
 68 62  2  0
 69 64  2  0
 70 63  1  0
 71 61  1  0
 73 75  2  0
 74 73  1  0
 76 74  1  0
 77 86  2  0
 77 82  1  0
 78 74  1  0
 78 82  1  0
 79 78  1  0
 80 81  1  0
 80 79  1  0
 81 77  1  0
 82 83  2  0
 83 84  1  0
 85 84  2  0
 86 85  1  0
 87 61  1  0
 87 88  1  0
 87 97  1  0
 88 91  1  0
 89 93  1  0
 89 88  1  0
 90 89  2  0
 93 92  1  0
 95 93  1  0
 95 96  1  0
 95 94  1  0
 97100  1  1
 97 98  1  0
 99 97  1  0
M  ISO  4  14 100  22 100  59 101  60 101
M  END
>  <TORSDO>  (58) 
F 24

>  <SCORE>  (58) 
-11.569

>  <name>  (58) 
57

>  <ligand_id>  (58) 
57

>  <original_smiles>  (58) 
[H]c1c(C(C([H])([H])[H])(C([H])([H])[H])C([H])(F)C([H])([H])[N+]([H])([H])C([H])([H])C([H])([H])Oc2c([H])c([H])c3c(c2[H])C([H])([H])N(C(=O)C([H])(N([H])C(=O)C([H])(N([H])C([H])([H])[H])C([H])([H])[H])C(C([H])([H])[H])(C([H])([H])[H])C([H])([H])[H])C([H])(C(=O)N([H])C2([H])c4c([H])c([H])c([H])c([H])c4C([H])([H])C([H])([H])C2([H])[H])C3([H])[H])nc(C([H])([H])N([H])C(=O)N2C([H])([H])C([H])([H])C([H])([H])C([H])(n3nc(-c4c([H])c([H])c(Oc5c([H])c([H])c(F)c([H])c5F)c([H])c4[H])c(C(=O)N([H])[H])c3N([H])[H])C2([H])[H])c(C([H])(C([H])([H])[H])C([H])([H])[H])c1[H]

>  <smiles>  (58) 
[H]c1c(C(C([H])([H])[H])(C([H])([H])[H])C([H])(F)C([H])([H])[N+]([H])([H])C([H])([H])C([H])([H])Oc2c([H])c([H])c3c(c2[H])C([H])([H])N(C(=O)C([H])(N([H])C(=O)C([H])(N([H])C([H])([H])[H])C([H])([H])[H])C(C([H])([H])[H])(C([H])([H])[H])C([H])([H])[H])C([H])(C(=O)N([H])C2([H])c4c([H])c([H])c([H])c([H])c4C([H])([H])C([H])([H])C2([H])[H])C3([H])[H])nc(C([H])([H])N([H])C(=O)N2C([H])([H])C([H])([H])C([H])([H])C([H])(n3nc(-c4c([H])c([H])c(Oc5c([H])c([H])c(F)c([H])c5F)c([H])c4[H])c(C(=O)N([H])[H])c3N([H])[H])C2([H])[H])c(C([H])(C([H])([H])[H])C([H])([H])[H])c1[H]

$$$$
58:0:0
     RDKit          3D

 98107  0  0  1  0  0  0  0  0999 V2000
  -29.6340  -24.0110   21.3450 C   0  0  0  0  0  3  0  0  0  0  0  0
  -28.6380  -22.8030   19.5100 C   0  0  0  0  0  3  0  0  0  0  0  0
  -30.1490  -22.7990   21.8560 C   0  0  0  0  0  0  0  0  0  0  0  0
  -28.8330  -24.0250   20.1860 C   0  0  0  0  0  0  0  0  0  0  0  0
  -29.8560  -21.5350   21.2500 C   0  0  0  0  0  0  0  0  0  0  0  0
  -29.1570  -21.5680   20.0000 C   0  0  0  0  0  0  0  0  0  0  0  0
  -31.0510  -22.9150   23.0730 C   0  0  0  0  0  2  0  0  0  0  0  0
  -31.8220  -21.6270   23.3340 C   0  0  0  0  0  2  0  0  0  0  0  0
  -30.8920  -20.4190   23.2250 C   0  0  0  0  0  3  0  0  0  0  0  0
  -29.8300  -20.4040   24.3430 C   0  0  0  0  0  1  0  0  0  0  0  0
  -30.2900  -20.3220   21.8900 N   0  0  0  0  0  0  0  0  0  0  0  0
  -28.3750  -20.4220   18.0110 C   0  0  0  0  0  1  0  0  0  0  0  0
  -29.0270  -20.3990   19.2740 O   0  0  0  0  0  0  0  0  0  0  0  0
  -28.1610  -25.3000   19.6400 C   0  0  0  0  0  2  0  0  0  0  0  0
  -28.2190  -26.6040   20.2620 O   0  0  0  0  0  0  0  0  0  0  0  0
  -24.6130  -31.9610   23.3000 C   0  0  0  0  0  0  0  0  0  0  0  0
  -27.0780  -27.3980   20.2190 C   0  0  0  0  0  0  0  0  0  0  0  0
  -23.3420  -30.5810   21.6890 C   0  0  0  0  0  3  0  0  0  0  0  0
  -24.7280  -28.9950   20.2540 C   0  0  0  0  0  0  0  0  0  0  0  0
  -25.8780  -30.8580   21.4560 C   0  0  0  0  0  2  0  0  0  0  0  0
  -25.9130  -29.4800   20.8220 C   0  0  0  0  0  0  0  0  0  0  0  0
  -27.0880  -28.6880   20.8060 C   0  0  0  0  0  3  0  0  0  0  0  0
  -25.8710  -26.9410   19.6340 C   0  0  0  0  0  3  0  0  0  0  0  0
  -24.7040  -27.7240   19.6580 C   0  0  0  0  0  3  0  0  0  0  0  0
  -23.5110  -29.8900   20.3110 C   0  0  0  0  0  2  0  0  0  0  0  0
  -24.6310  -31.1480   22.2050 N   0  0  0  0  0  0  0  0  0  0  0  0
  -23.5470  -32.2690   23.8530 O   0  0  0  0  0  0  0  0  0  0  0  0
  -22.6760  -29.5850   22.6670 C   0  0  0  0  0  0  0  0  0  0  0  0
  -21.3520  -29.4040   22.5280 N   0  0  0  0  0  0  0  0  0  0  0  0
  -23.3460  -28.9770   23.5060 O   0  0  0  0  0  0  0  0  0  0  0  0
  -20.8730  -29.9480   21.8230 H   0  0  0  0  0  0  0  0  0  0  0  0
  -17.9770  -28.1870   22.9730 C   0  0  0  0  0  0  0  0  0  0  0  0
  -20.5220  -28.4900   23.3110 C   0  0  0  0  0  3  0  0  0  0  0  0
  -20.6600  -27.0370   22.8030 C   0  0  0  0  0  2  0  0  0  0  0  0
  -19.5940  -26.6550   21.7700 C   0  0  0  0  0  2  0  0  0  0  0  0
  -18.1890  -26.8120   22.3620 C   0  0  0  0  0  2  0  0  0  0  0  0
  -19.0740  -28.9810   23.4040 C   0  0  0  0  0  0  0  0  0  0  0  0
  -18.8230  -30.2650   23.9320 C   0  0  0  0  0  3  0  0  0  0  0  0
  -17.5090  -30.7600   24.0330 C   0  0  0  0  0  3  0  0  0  0  0  0
  -16.4270  -29.9640   23.6220 C   0  0  0  0  0  3  0  0  0  0  0  0
  -16.6610  -28.6790   23.0980 C   0  0  0  0  0  3  0  0  0  0  0  0
  -25.9260  -32.5590   23.8940 C   0  0  0  0  0  3  0  0  0  0  0  0
  -25.6530  -33.9590   24.2470 N   0  0  0  0  0  0  0  0  0  0  0  0
  -25.9840  -35.0110   23.4860 C   0  0  0  0  0  0  0  0  0  0  0  0
  -26.6230  -34.9050   22.4360 O   0  0  0  0  0  0  0  0  0  0  0  0
  -25.0880  -34.1190   25.0670 H   0  0  0  0  0  0  0  0  0  0  0  0
  -24.2770  -36.8340   23.1920 C   0  0  0  0  0  1  0  0  0  0  0  0
  -25.5320  -36.4030   23.9680 C   0  0  0  0  0  3  0  0  0  0  0  0
  -27.7010  -37.2410   24.7530 C   0  0  0  0  0  1  0  0  0  0  0  0
  -26.5800  -37.4380   23.8370 N   0  0  0  0  0  0  0  0  0  0  0  0
  -26.1930  -38.3640   24.0010 H   0  0  0  0  0  0  0  0  0  0  0  0
  -26.4610  -31.7630   25.1480 C   0  0  1  0  0  0  0  0  0  0  0  0
  -25.3910  -31.5300   26.2410 C   0  0  0  0  0  1  0  0  0  0  0  0
  -27.0110  -30.3800   24.7260 C   0  0  0  0  0  1  0  0  0  0  0  0
  -27.6420  -32.5290   25.7910 C   0  0  0  0  0  1  0  0  0  0  0  0
  -29.7970  -18.9690   21.5420 C   0  0  0  0  0  2  0  0  0  0  0  0
  -30.8760  -18.0540   20.8900 C   0  0  0  0  0  3  0  0  0  0  0  0
  -31.6560  -17.4500   21.9030 O   0  0  0  0  0  0  0  0  0  0  0  0
  -31.3530  -16.5460   21.9220 H   0  0  0  0  0  0  0  0  0  0  0  0
  -30.2960  -16.8970   20.0260 C   0  0  0  0  0  2  0  0  0  0  0  0
  -31.0260  -14.5140   20.2240 C   0  0  0  0  0  0  0  0  0  0  0  0
  -30.7130  -12.3310   19.1290 C   0  0  0  0  0  2  0  0  0  0  0  0
  -29.7640  -12.5410   17.9290 C   0  0  0  0  0  2  0  0  0  0  0  0
  -28.2890  -12.4420   18.3650 C   0  0  0  0  0  2  0  0  0  0  0  0
  -27.9780  -13.2970   19.6220 C   0  0  0  0  0  3  0  0  0  0  0  0
  -29.0360  -13.0580   20.7270 C   0  0  0  0  0  2  0  0  0  0  0  0
  -30.3640  -13.3290   20.1540 N   0  0  0  0  0  0  0  0  0  0  0  0
  -32.1440  -14.6950   19.7360 O   0  0  0  0  0  0  0  0  0  0  0  0
  -30.2790  -15.5520   20.6500 N   0  0  0  0  0  0  0  0  0  0  0  0
  -29.3980  -15.2810   21.0640 H   0  0  0  0  0  0  0  0  0  0  0  0
  -25.6000  -13.9730   20.3410 C   0  0  0  0  0  0  0  0  0  0  0  0
  -24.5150  -13.2320   20.7220 C   0  0  0  0  0  0  0  0  0  0  0  0
  -24.9420  -11.8680   20.6970 C   0  0  0  0  0  0  0  0  0  0  0  0
  -26.6210  -13.0640   20.1100 N   0  0  0  0  0  0  0  0  0  0  0  0
  -26.2270  -11.7940   20.3810 N   0  0  0  0  0  0  0  0  0  0  0  0
  -24.1850  -10.6260   20.9030 C   0  0  0  0  0  0  0  0  0  0  0  0
  -24.5860   -9.6660   21.8580 C   0  0  0  0  0  3  0  0  0  0  0  0
  -23.8330   -8.4880   22.0500 C   0  0  0  0  0  3  0  0  0  0  0  0
  -22.6650   -8.2620   21.2860 C   0  0  0  0  0  0  0  0  0  0  0  0
  -22.2820   -9.2100   20.3200 C   0  0  0  0  0  3  0  0  0  0  0  0
  -23.0350  -10.3790   20.1270 C   0  0  0  0  0  3  0  0  0  0  0  0
  -21.8840   -7.1360   21.3840 O   0  0  0  0  0  0  0  0  0  0  0  0
  -21.7770   -6.4350   22.5590 C   0  0  0  0  0  0  0  0  0  0  0  0
  -21.3190   -7.0430   23.7490 C   0  0  0  0  0  3  0  0  0  0  0  0
  -21.1590   -6.2710   24.9160 C   0  0  0  0  0  3  0  0  0  0  0  0
  -21.4440   -4.8920   24.8950 C   0  0  0  0  0  0  0  0  0  0  0  0
  -21.8950   -4.2860   23.7090 C   0  0  0  0  0  3  0  0  0  0  0  0
  -22.0570   -5.0540   22.5440 C   0  0  0  0  0  0  0  0  0  0  0  0
  -22.4710   -4.4610   21.3990 F   0  0  0  0  0  0  0  0  0  0  0  0
  -21.2840   -4.1480   26.0140 F   0  0  0  0  0  0  0  0  0  0  0  0
  -23.1330  -13.7460   21.0020 C   0  0  0  0  0  0  0  0  0  0  0  0
  -22.4010  -13.0820   21.8910 N   0  0  0  0  0  0  0  0  0  0  0  0
  -22.7100  -14.7690   20.4690 O   0  0  0  0  0  0  0  0  0  0  0  0
  -22.7560  -12.2520   22.3420 H   0  0  0  0  0  0  0  0  0  0  0  0
  -21.4730  -13.4080   22.1220 H   0  0  0  0  0  0  0  0  0  0  0  0
  -25.7970  -15.3380   20.1520 N   0  0  0  0  0  0  0  0  0  0  0  0
  -25.0470  -16.0110   20.2640 H   0  0  0  0  0  0  0  0  0  0  0  0
  -26.6490  -15.7540   19.8010 H   0  0  0  0  0  0  0  0  0  0  0  0
  1  3  1  0
  2  6  2  0
  2  4  1  0
  3  7  1  0
  4  1  2  0
  5  3  2  0
  5 11  1  0
  6  5  1  0
  7  8  1  0
  9  8  1  0
  9 10  1  0
 11  9  1  0
 12 13  1  0
 13  6  1  0
 14  4  1  0
 14 15  1  0
 16 27  2  0
 17 15  1  0
 17 22  1  0
 18 26  1  0
 18 28  1  0
 19 25  1  0
 19 21  1  0
 20 26  1  0
 21 20  1  0
 22 21  2  0
 23 24  1  0
 23 17  2  0
 24 19  2  0
 25 18  1  0
 26 16  1  0
 28 30  2  0
 29 28  1  0
 31 29  1  0
 32 41  2  0
 32 37  1  0
 33 29  1  0
 33 37  1  0
 34 33  1  0
 35 36  1  0
 35 34  1  0
 36 32  1  0
 37 38  2  0
 38 39  1  0
 40 39  2  0
 41 40  1  0
 42 16  1  0
 42 43  1  0
 42 52  1  0
 43 46  1  0
 44 48  1  0
 44 43  1  0
 45 44  2  0
 48 47  1  0
 50 48  1  0
 50 51  1  0
 50 49  1  0
 52 55  1  1
 52 53  1  0
 54 52  1  0
 56 11  1  0
 57 60  1  0
 57 56  1  0
 57 58  1  0
 58 59  1  0
 60 69  1  0
 61 69  1  0
 62 67  1  0
 63 64  1  0
 63 62  1  0
 65 64  1  0
 65 74  1  0
 65 66  1  0
 67 61  1  0
 67 66  1  0
 68 61  2  0
 69 70  1  0
 71 72  2  0
 72 91  1  0
 73 72  1  0
 73 76  1  0
 74 71  1  0
 74 75  1  0
 75 73  2  0
 76 77  1  0
 77 78  2  0
 79 82  1  0
 79 78  1  0
 80 79  2  0
 81 80  1  0
 81 76  2  0
 82 83  1  0
 83 84  1  0
 84 85  2  0
 86 85  1  0
 86 90  1  0
 87 86  2  0
 88 83  2  0
 88 87  1  0
 89 88  1  0
 91 92  1  0
 92 95  1  0
 92 94  1  0
 93 91  2  0
 96 97  1  0
 96 71  1  0
 98 96  1  0
M  ISO  4  14 101  15 101  61 100  69 100
M  END
>  <TORSDO>  (59) 
F 22

>  <SCORE>  (59) 
-11.532

>  <name>  (59) 
58

>  <ligand_id>  (59) 
58

>  <original_smiles>  (59) 
[H]OC([H])(C([H])([H])N([H])C(=O)N1C([H])([H])C([H])([H])C([H])([H])C([H])(n2nc(-c3c([H])c([H])c(Oc4c([H])c([H])c(F)c([H])c4F)c([H])c3[H])c(C(=O)N([H])[H])c2N([H])[H])C1([H])[H])C([H])([H])N1c2c(OC([H])([H])[H])c([H])c(C([H])([H])Oc3c([H])c([H])c4c(c3[H])C([H])([H])N(C(=O)C([H])(N([H])C(=O)C([H])(N([H])C([H])([H])[H])C([H])([H])[H])C(C([H])([H])[H])(C([H])([H])[H])C([H])([H])[H])C([H])(C(=O)N([H])C3([H])c5c([H])c([H])c([H])c([H])c5C([H])([H])C([H])([H])C3([H])[H])C4([H])[H])c([H])c2C([H])([H])C([H])([H])C1([H])C([H])([H])[H]

>  <smiles>  (59) 
[H]OC([H])(C([H])([H])N([H])C(=O)N1C([H])([H])C([H])([H])C([H])([H])C([H])(n2nc(-c3c([H])c([H])c(Oc4c([H])c([H])c(F)c([H])c4F)c([H])c3[H])c(C(=O)N([H])[H])c2N([H])[H])C1([H])[H])C([H])([H])N1c2c(OC([H])([H])[H])c([H])c(C([H])([H])Oc3c([H])c([H])c4c(c3[H])C([H])([H])N(C(=O)C([H])(N([H])C(=O)C([H])(N([H])C([H])([H])[H])C([H])([H])[H])C(C([H])([H])[H])(C([H])([H])[H])C([H])([H])[H])C([H])(C(=O)N([H])C3([H])c5c([H])c([H])c([H])c([H])c5C([H])([H])C([H])([H])C3([H])[H])C4([H])[H])c([H])c2C([H])([H])C([H])([H])C1([H])C([H])([H])[H]

$$$$
59:0:0
     RDKit          3D

 94102  0  0  1  0  0  0  0  0999 V2000
  -29.4920  -22.4730   19.0770 C   0  0  0  0  0  3  0  0  0  0  0  0
  -30.0390  -22.0940   21.4110 C   0  0  0  0  0  3  0  0  0  0  0  0
  -28.9770  -23.7530   19.4030 C   0  0  0  0  0  3  0  0  0  0  0  0
  -29.5200  -23.3660   21.7360 C   0  0  0  0  0  3  0  0  0  0  0  0
  -30.0370  -21.6290   20.0770 C   0  0  0  0  0  0  0  0  0  0  0  0
  -28.9910  -24.2170   20.7380 C   0  0  0  0  0  0  0  0  0  0  0  0
  -30.6490  -20.2610   19.7270 C   0  0  0  0  0  2  0  0  0  0  0  0
  -29.7870  -19.1260   20.1320 N   0  0  0  0  0  4  0  0  0  0  0  0
  -28.8860  -19.2680   19.7040 H   0  0  0  0  0  0  0  0  0  0  0  0
  -29.6460  -19.1660   21.1270 H   0  0  0  0  0  0  0  0  0  0  0  0
  -30.2370  -17.7450   19.7820 C   0  0  0  0  0  2  0  0  0  0  0  0
  -31.9190  -17.1020   21.6050 C   0  0  0  0  0  1  0  0  0  0  0  0
  -29.4670  -17.1460   22.1380 C   0  0  0  0  0  1  0  0  0  0  0  0
  -30.5080  -16.8460   21.0360 C   0  0  1  0  0  0  0  0  0  0  0  0
  -31.0490  -14.4670   20.0790 C   0  0  0  0  0  0  0  0  0  0  0  0
  -30.7080  -12.3270   18.8780 C   0  0  0  0  0  2  0  0  0  0  0  0
  -29.7140  -12.5650   17.7200 C   0  0  0  0  0  2  0  0  0  0  0  0
  -28.2530  -12.4530   18.2060 C   0  0  0  0  0  2  0  0  0  0  0  0
  -27.9880  -13.2720   19.4980 C   0  0  0  0  0  3  0  0  0  0  0  0
  -29.0780  -12.9730   20.5530 C   0  0  0  0  0  2  0  0  0  0  0  0
  -30.3860  -13.2830   19.9470 N   0  0  0  0  0  0  0  0  0  0  0  0
  -32.1370  -14.6970   19.5440 O   0  0  0  0  0  0  0  0  0  0  0  0
  -30.3360  -15.4050   20.7400 N   0  0  0  0  0  0  0  0  0  0  0  0
  -29.4630  -15.0320   21.0800 H   0  0  0  0  0  0  0  0  0  0  0  0
  -25.6390  -13.9530   20.3060 C   0  0  0  0  0  0  0  0  0  0  0  0
  -24.5620  -13.2120   20.7100 C   0  0  0  0  0  0  0  0  0  0  0  0
  -24.9770  -11.8470   20.6460 C   0  0  0  0  0  0  0  0  0  0  0  0
  -26.6450  -13.0400   20.0240 N   0  0  0  0  0  0  0  0  0  0  0  0
  -26.2520  -11.7680   20.2830 N   0  0  0  0  0  0  0  0  0  0  0  0
  -24.2190  -10.6060   20.8510 C   0  0  0  0  0  0  0  0  0  0  0  0
  -24.6140   -9.6500   21.8130 C   0  0  0  0  0  3  0  0  0  0  0  0
  -23.8590   -8.4730   22.0040 C   0  0  0  0  0  3  0  0  0  0  0  0
  -22.6930   -8.2450   21.2350 C   0  0  0  0  0  0  0  0  0  0  0  0
  -22.3170   -9.1890   20.2630 C   0  0  0  0  0  3  0  0  0  0  0  0
  -23.0720  -10.3580   20.0710 C   0  0  0  0  0  3  0  0  0  0  0  0
  -21.9130   -7.1190   21.3350 O   0  0  0  0  0  0  0  0  0  0  0  0
  -21.7760   -6.4400   22.5190 C   0  0  0  0  0  0  0  0  0  0  0  0
  -21.2720   -7.0630   23.6810 C   0  0  0  0  0  3  0  0  0  0  0  0
  -21.0850   -6.3100   24.8580 C   0  0  0  0  0  3  0  0  0  0  0  0
  -21.3870   -4.9360   24.8700 C   0  0  0  0  0  0  0  0  0  0  0  0
  -21.8830   -4.3140   23.7110 C   0  0  0  0  0  3  0  0  0  0  0  0
  -22.0740   -5.0630   22.5380 C   0  0  0  0  0  0  0  0  0  0  0  0
  -22.5310   -4.4530   21.4180 F   0  0  0  0  0  0  0  0  0  0  0  0
  -21.1980   -4.2110   25.9980 F   0  0  0  0  0  0  0  0  0  0  0  0
  -23.1930  -13.7320   21.0450 C   0  0  0  0  0  0  0  0  0  0  0  0
  -22.4800  -13.0500   21.9340 N   0  0  0  0  0  0  0  0  0  0  0  0
  -22.7670  -14.7750   20.5510 O   0  0  0  0  0  0  0  0  0  0  0  0
  -22.8380  -12.2060   22.3550 H   0  0  0  0  0  0  0  0  0  0  0  0
  -21.5620  -13.3800   22.1990 H   0  0  0  0  0  0  0  0  0  0  0  0
  -25.8440  -15.3190   20.1360 N   0  0  0  0  0  0  0  0  0  0  0  0
  -25.1020  -15.9940   20.2810 H   0  0  0  0  0  0  0  0  0  0  0  0
  -26.6820  -15.7300   19.7480 H   0  0  0  0  0  0  0  0  0  0  0  0
  -28.3860  -25.5650   21.1590 C   0  0  0  0  0  2  0  0  0  0  0  0
  -28.4060  -26.6090   20.1720 O   0  0  0  0  0  0  0  0  0  0  0  0
  -24.6060  -31.8350   23.2400 C   0  0  0  0  0  0  0  0  0  0  0  0
  -27.2700  -27.3870   20.1770 C   0  0  0  0  0  0  0  0  0  0  0  0
  -23.4170  -30.4460   21.5750 C   0  0  0  0  0  3  0  0  0  0  0  0
  -24.8840  -28.9030   20.1660 C   0  0  0  0  0  0  0  0  0  0  0  0
  -25.9470  -30.7900   21.4160 C   0  0  0  0  0  2  0  0  0  0  0  0
  -26.0360  -29.4190   20.7730 C   0  0  0  0  0  0  0  0  0  0  0  0
  -27.2360  -28.6670   20.7790 C   0  0  0  0  0  3  0  0  0  0  0  0
  -26.1040  -26.8830   19.5680 C   0  0  0  0  0  3  0  0  0  0  0  0
  -24.9120  -27.6320   19.5640 C   0  0  0  0  0  3  0  0  0  0  0  0
  -23.6440  -29.7680   20.1970 C   0  0  0  0  0  2  0  0  0  0  0  0
  -24.6750  -31.0390   22.1360 N   0  0  0  0  0  0  0  0  0  0  0  0
  -23.5190  -32.1110   23.7660 O   0  0  0  0  0  0  0  0  0  0  0  0
  -22.7450  -29.4250   22.5220 C   0  0  0  0  0  0  0  0  0  0  0  0
  -21.4250  -29.2390   22.3640 N   0  0  0  0  0  0  0  0  0  0  0  0
  -23.4100  -28.8030   23.3540 O   0  0  0  0  0  0  0  0  0  0  0  0
  -20.9520  -29.7920   21.6630 H   0  0  0  0  0  0  0  0  0  0  0  0
  -18.0520  -28.0030   22.7490 C   0  0  0  0  0  0  0  0  0  0  0  0
  -20.5930  -28.3010   23.1170 C   0  0  0  0  0  3  0  0  0  0  0  0
  -20.7370  -26.8650   22.5630 C   0  0  0  0  0  2  0  0  0  0  0  0
  -19.6810  -26.5120   21.5130 C   0  0  0  0  0  2  0  0  0  0  0  0
  -18.2730  -26.6470   22.1000 C   0  0  0  0  0  2  0  0  0  0  0  0
  -19.1420  -28.7870   23.2110 C   0  0  0  0  0  0  0  0  0  0  0  0
  -18.8840  -30.0550   23.7750 C   0  0  0  0  0  3  0  0  0  0  0  0
  -17.5680  -30.5410   23.8810 C   0  0  0  0  0  3  0  0  0  0  0  0
  -16.4900  -29.7550   23.4380 C   0  0  0  0  0  3  0  0  0  0  0  0
  -16.7330  -28.4890   22.8770 C   0  0  0  0  0  3  0  0  0  0  0  0
  -25.8860  -32.4570   23.8810 C   0  0  0  0  0  3  0  0  0  0  0  0
  -25.5860  -33.8580   24.2000 N   0  0  0  0  0  0  0  0  0  0  0  0
  -25.9470  -34.9050   23.4450 C   0  0  0  0  0  0  0  0  0  0  0  0
  -26.6350  -34.7900   22.4270 O   0  0  0  0  0  0  0  0  0  0  0  0
  -24.9770  -34.0210   24.9880 H   0  0  0  0  0  0  0  0  0  0  0  0
  -24.2450  -36.7130   23.0440 C   0  0  0  0  0  1  0  0  0  0  0  0
  -25.4630  -36.2990   23.8860 C   0  0  0  0  0  3  0  0  0  0  0  0
  -27.5840  -37.1640   24.7680 C   0  0  0  0  0  1  0  0  0  0  0  0
  -26.5090  -37.3410   23.7950 N   0  0  0  0  0  0  0  0  0  0  0  0
  -26.1100  -38.2670   23.9280 H   0  0  0  0  0  0  0  0  0  0  0  0
  -26.3770  -31.6820   25.1640 C   0  0  1  0  0  0  0  0  0  0  0  0
  -25.2650  -31.4510   26.2130 C   0  0  0  0  0  1  0  0  0  0  0  0
  -26.9580  -30.3020   24.7780 C   0  0  0  0  0  1  0  0  0  0  0  0
  -27.5220  -32.4680   25.8450 C   0  0  0  0  0  1  0  0  0  0  0  0
  1  3  2  0
  1  5  1  0
  2  4  1  0
  3  6  1  0
  5  2  2  0
  6 53  1  0
  6  4  2  0
  7  5  1  0
  7  8  1  0
  8 10  1  0
  9  8  1  0
 11  8  1  0
 11 14  1  0
 14 12  1  1
 14 13  1  0
 15 23  1  0
 16 21  1  0
 17 18  1  0
 17 16  1  0
 19 18  1  0
 19 28  1  0
 19 20  1  0
 21 15  1  0
 21 20  1  0
 22 15  2  0
 23 14  1  0
 23 24  1  0
 25 26  2  0
 26 45  1  0
 27 26  1  0
 27 30  1  0
 28 29  1  0
 28 25  1  0
 29 27  2  0
 30 31  1  0
 31 32  2  0
 33 36  1  0
 33 32  1  0
 34 33  2  0
 35 34  1  0
 35 30  2  0
 36 37  1  0
 37 42  2  0
 37 38  1  0
 38 39  2  0
 39 40  1  0
 40 44  1  0
 41 40  2  0
 42 41  1  0
 43 42  1  0
 45 46  1  0
 46 49  1  0
 46 48  1  0
 47 45  2  0
 50 51  1  0
 50 25  1  0
 52 50  1  0
 54 56  1  0
 54 53  1  0
 55 66  2  0
 56 61  1  0
 57 65  1  0
 57 67  1  0
 58 64  1  0
 58 60  1  0
 59 65  1  0
 60 61  2  0
 60 59  1  0
 62 56  2  0
 63 62  1  0
 63 58  2  0
 64 57  1  0
 65 55  1  0
 67 69  2  0
 68 67  1  0
 70 68  1  0
 71 80  2  0
 71 76  1  0
 72 68  1  0
 72 76  1  0
 73 72  1  0
 74 75  1  0
 74 73  1  0
 75 71  1  0
 76 77  2  0
 77 78  1  0
 79 78  2  0
 80 79  1  0
 81 55  1  0
 81 82  1  0
 81 91  1  0
 82 85  1  0
 83 87  1  0
 83 82  1  0
 84 83  2  0
 87 86  1  0
 89 87  1  0
 89 90  1  0
 89 88  1  0
 91 94  1  1
 91 92  1  0
 93 91  1  0
M  ISO  4  15 100  23 100  53 101  54 101
M  END
>  <TORSDO>  (60) 
F 21

>  <SCORE>  (60) 
-12.050

>  <name>  (60) 
59

>  <ligand_id>  (60) 
59

>  <original_smiles>  (60) 
[H]c1c([H])c([H])c2c(c1[H])C([H])([H])C([H])([H])C([H])([H])C2([H])N([H])C(=O)C1([H])N(C(=O)C([H])(N([H])C(=O)C([H])(N([H])C([H])([H])[H])C([H])([H])[H])C(C([H])([H])[H])(C([H])([H])[H])C([H])([H])[H])C([H])([H])c2c([H])c(OC([H])([H])c3c([H])c([H])c(C([H])([H])[N+]([H])([H])C([H])([H])C(N([H])C(=O)N4C([H])([H])C([H])([H])C([H])([H])C([H])(n5nc(-c6c([H])c([H])c(Oc7c([H])c([H])c(F)c([H])c7F)c([H])c6[H])c(C(=O)N([H])[H])c5N([H])[H])C4([H])[H])(C([H])([H])[H])C([H])([H])[H])c([H])c3[H])c([H])c([H])c2C1([H])[H]

>  <smiles>  (60) 
[H]c1c([H])c([H])c2c(c1[H])C([H])([H])C([H])([H])C([H])([H])C2([H])N([H])C(=O)C1([H])N(C(=O)C([H])(N([H])C(=O)C([H])(N([H])C([H])([H])[H])C([H])([H])[H])C(C([H])([H])[H])(C([H])([H])[H])C([H])([H])[H])C([H])([H])c2c([H])c(OC([H])([H])c3c([H])c([H])c(C([H])([H])[N+]([H])([H])C([H])([H])C(N([H])C(=O)N4C([H])([H])C([H])([H])C([H])([H])C([H])(n5nc(-c6c([H])c([H])c(Oc7c([H])c([H])c(F)c([H])c7F)c([H])c6[H])c(C(=O)N([H])[H])c5N([H])[H])C4([H])[H])(C([H])([H])[H])C([H])([H])[H])c([H])c3[H])c([H])c([H])c2C1([H])[H]

$$$$
60:0:0
     RDKit          3D

 95103  0  0  1  0  0  0  0  0999 V2000
  -30.7900  -21.7580   22.3730 N   0  0  0  0  0  4  0  0  0  0  0  0
  -30.5480  -22.4200   23.0900 H   0  0  0  0  0  0  0  0  0  0  0  0
  -29.9440  -21.3170   22.0580 H   0  0  0  0  0  0  0  0  0  0  0  0
  -31.6390  -20.7170   22.9940 C   0  0  0  0  0  2  0  0  0  0  0  0
  -30.5240  -18.4300   23.1720 C   0  0  0  0  0  3  0  0  0  0  0  0
  -31.9400  -18.8610   21.2460 C   0  0  0  0  0  3  0  0  0  0  0  0
  -30.3060  -17.1160   22.7130 C   0  0  0  0  0  3  0  0  0  0  0  0
  -31.7100  -17.5490   20.7770 C   0  0  0  0  0  3  0  0  0  0  0  0
  -31.3540  -19.3130   22.4490 C   0  0  0  0  0  0  0  0  0  0  0  0
  -30.9040  -16.6530   21.5210 C   0  0  0  0  0  0  0  0  0  0  0  0
  -31.1710  -14.4960   20.2170 C   0  0  0  0  0  0  0  0  0  0  0  0
  -30.8000  -12.4050   18.9440 C   0  0  0  0  0  2  0  0  0  0  0  0
  -29.8200  -12.6580   17.7810 C   0  0  0  0  0  2  0  0  0  0  0  0
  -28.3560  -12.5270   18.2500 C   0  0  0  0  0  2  0  0  0  0  0  0
  -28.0740  -13.3310   19.5480 C   0  0  0  0  0  3  0  0  0  0  0  0
  -29.1530  -13.0330   20.6110 C   0  0  0  0  0  2  0  0  0  0  0  0
  -30.4750  -13.3410   20.0300 N   0  0  0  0  0  0  0  0  0  0  0  0
  -32.1990  -14.7670   19.5880 O   0  0  0  0  0  0  0  0  0  0  0  0
  -30.6360  -15.3020   21.1550 N   0  0  0  0  0  0  0  0  0  0  0  0
  -29.8540  -14.8770   21.6310 H   0  0  0  0  0  0  0  0  0  0  0  0
  -25.7070  -13.9680   20.3380 C   0  0  0  0  0  0  0  0  0  0  0  0
  -24.6380  -13.2080   20.7310 C   0  0  0  0  0  0  0  0  0  0  0  0
  -25.0750  -11.8490   20.6680 C   0  0  0  0  0  0  0  0  0  0  0  0
  -26.7300  -13.0730   20.0610 N   0  0  0  0  0  0  0  0  0  0  0  0
  -26.3530  -11.7930   20.3140 N   0  0  0  0  0  0  0  0  0  0  0  0
  -24.3370  -10.5960   20.8670 C   0  0  0  0  0  0  0  0  0  0  0  0
  -24.7260   -9.6570   21.8480 C   0  0  0  0  0  3  0  0  0  0  0  0
  -23.9900   -8.4680   22.0330 C   0  0  0  0  0  3  0  0  0  0  0  0
  -22.8500   -8.2080   21.2360 C   0  0  0  0  0  0  0  0  0  0  0  0
  -22.4800   -9.1360   20.2470 C   0  0  0  0  0  3  0  0  0  0  0  0
  -23.2160  -10.3170   20.0600 C   0  0  0  0  0  3  0  0  0  0  0  0
  -22.0880   -7.0680   21.3270 O   0  0  0  0  0  0  0  0  0  0  0  0
  -21.8940   -6.4260   22.5230 C   0  0  0  0  0  0  0  0  0  0  0  0
  -21.3140   -7.0780   23.6340 C   0  0  0  0  0  3  0  0  0  0  0  0
  -21.0680   -6.3610   24.8220 C   0  0  0  0  0  3  0  0  0  0  0  0
  -21.3900   -4.9920   24.8980 C   0  0  0  0  0  0  0  0  0  0  0  0
  -21.9620   -4.3410   23.7920 C   0  0  0  0  0  3  0  0  0  0  0  0
  -22.2100   -5.0550   22.6070 C   0  0  0  0  0  0  0  0  0  0  0  0
  -22.7410   -4.4170   21.5370 F   0  0  0  0  0  0  0  0  0  0  0  0
  -21.1450   -4.3020   26.0370 F   0  0  0  0  0  0  0  0  0  0  0  0
  -23.2580  -13.7030   21.0590 C   0  0  0  0  0  0  0  0  0  0  0  0
  -22.5560  -13.0180   21.9550 N   0  0  0  0  0  0  0  0  0  0  0  0
  -22.8130  -14.7340   20.5550 O   0  0  0  0  0  0  0  0  0  0  0  0
  -22.9300  -12.1860   22.3850 H   0  0  0  0  0  0  0  0  0  0  0  0
  -21.6320  -13.3320   22.2130 H   0  0  0  0  0  0  0  0  0  0  0  0
  -25.8890  -15.3380   20.1760 N   0  0  0  0  0  0  0  0  0  0  0  0
  -25.1380  -16.0060   20.3150 H   0  0  0  0  0  0  0  0  0  0  0  0
  -26.7470  -15.7680   19.8560 H   0  0  0  0  0  0  0  0  0  0  0  0
  -31.4300  -22.4990   21.2640 C   0  0  0  0  0  2  0  0  0  0  0  0
  -30.4240  -23.0580   20.2310 C   0  0  0  0  0  2  0  0  0  0  0  0
  -29.9570  -24.9150   18.8440 C   0  0  0  0  0  1  0  0  0  0  0  0
  -30.2770  -24.5240   20.2210 N   0  0  0  0  0  0  0  0  0  0  0  0
  -29.2440  -24.9780   21.1720 C   0  0  0  0  0  2  0  0  0  0  0  0
  -28.9110  -26.4940   21.1380 C   0  0  0  0  0  2  0  0  0  0  0  0
  -28.1130  -26.7540   19.9850 O   0  0  0  0  0  0  0  0  0  0  0  0
  -24.4750  -31.9590   23.3100 C   0  0  0  0  0  0  0  0  0  0  0  0
  -26.9790  -27.5160   20.1300 C   0  0  0  0  0  0  0  0  0  0  0  0
  -23.2020  -30.5850   21.6920 C   0  0  0  0  0  3  0  0  0  0  0  0
  -24.5970  -29.0300   20.2260 C   0  0  0  0  0  0  0  0  0  0  0  0
  -25.7230  -30.9110   21.4270 C   0  0  0  0  0  2  0  0  0  0  0  0
  -25.7750  -29.5380   20.7920 C   0  0  0  0  0  0  0  0  0  0  0  0
  -26.9690  -28.7820   20.7570 C   0  0  0  0  0  3  0  0  0  0  0  0
  -25.7910  -27.0230   19.5550 C   0  0  0  0  0  3  0  0  0  0  0  0
  -24.5960  -27.7670   19.6110 C   0  0  0  0  0  3  0  0  0  0  0  0
  -23.3650  -29.9060   20.3050 C   0  0  0  0  0  2  0  0  0  0  0  0
  -24.4870  -31.1650   22.2030 N   0  0  0  0  0  0  0  0  0  0  0  0
  -23.4150  -32.2450   23.8820 O   0  0  0  0  0  0  0  0  0  0  0  0
  -22.5630  -29.5670   22.6640 C   0  0  0  0  0  0  0  0  0  0  0  0
  -21.2470  -29.3440   22.5150 N   0  0  0  0  0  0  0  0  0  0  0  0
  -23.2480  -28.9790   23.5060 O   0  0  0  0  0  0  0  0  0  0  0  0
  -20.7570  -29.8710   21.8070 H   0  0  0  0  0  0  0  0  0  0  0  0
  -17.9140  -28.0100   22.9190 C   0  0  0  0  0  0  0  0  0  0  0  0
  -20.4420  -28.4020   23.2920 C   0  0  0  0  0  3  0  0  0  0  0  0
  -20.6380  -26.9550   22.7850 C   0  0  0  0  0  2  0  0  0  0  0  0
  -19.6000  -26.5360   21.7390 C   0  0  0  0  0  2  0  0  0  0  0  0
  -18.1850  -26.6420   22.3140 C   0  0  0  0  0  2  0  0  0  0  0  0
  -18.9750  -28.8420   23.3640 C   0  0  0  0  0  0  0  0  0  0  0  0
  -18.6730  -30.1200   23.8860 C   0  0  0  0  0  3  0  0  0  0  0  0
  -17.3400  -30.5660   23.9660 C   0  0  0  0  0  3  0  0  0  0  0  0
  -16.2930  -29.7320   23.5410 C   0  0  0  0  0  3  0  0  0  0  0  0
  -16.5800  -28.4540   23.0250 C   0  0  0  0  0  3  0  0  0  0  0  0
  -25.7890  -32.5650   23.8950 C   0  0  0  0  0  3  0  0  0  0  0  0
  -25.5210  -33.9730   24.2120 N   0  0  0  0  0  0  0  0  0  0  0  0
  -25.8890  -35.0080   23.4440 C   0  0  0  0  0  0  0  0  0  0  0  0
  -26.5600  -34.8740   22.4170 O   0  0  0  0  0  0  0  0  0  0  0  0
  -24.9250  -34.1540   25.0070 H   0  0  0  0  0  0  0  0  0  0  0  0
  -24.2290  -36.8560   23.0480 C   0  0  0  0  0  1  0  0  0  0  0  0
  -25.4400  -36.4150   23.8850 C   0  0  0  0  0  3  0  0  0  0  0  0
  -27.5880  -37.2310   24.7500 C   0  0  0  0  0  1  0  0  0  0  0  0
  -26.5090  -37.4340   23.7860 N   0  0  0  0  0  0  0  0  0  0  0  0
  -26.1310  -38.3670   23.9240 H   0  0  0  0  0  0  0  0  0  0  0  0
  -26.3150  -31.7930   25.1670 C   0  0  1  0  0  0  0  0  0  0  0  0
  -25.2380  -31.5770   26.2540 C   0  0  0  0  0  1  0  0  0  0  0  0
  -26.8690  -30.4040   24.7730 C   0  0  0  0  0  1  0  0  0  0  0  0
  -27.4910  -32.5710   25.8040 C   0  0  0  0  0  1  0  0  0  0  0  0
  1  4  1  0
  1  2  1  0
  3  1  1  0
  6  9  1  0
  7  5  1  0
  8  6  2  0
  8 10  1  0
  9  4  1  0
  9  5  2  0
 10  7  2  0
 11 19  1  0
 12 17  1  0
 13 14  1  0
 13 12  1  0
 15 14  1  0
 15 24  1  0
 15 16  1  0
 17 11  1  0
 17 16  1  0
 18 11  2  0
 19 10  1  0
 19 20  1  0
 21 22  2  0
 22 41  1  0
 23 22  1  0
 23 26  1  0
 24 25  1  0
 24 21  1  0
 25 23  2  0
 26 27  1  0
 27 28  2  0
 29 32  1  0
 29 28  1  0
 30 29  2  0
 31 30  1  0
 31 26  2  0
 32 33  1  0
 33 38  2  0
 33 34  1  0
 34 35  2  0
 35 36  1  0
 36 40  1  0
 37 36  2  0
 38 37  1  0
 39 38  1  0
 41 42  1  0
 42 45  1  0
 42 44  1  0
 43 41  2  0
 46 47  1  0
 46 21  1  0
 48 46  1  0
 49  1  1  0
 50 49  1  0
 51 52  1  0
 52 50  1  0
 52 53  1  0
 54 53  1  0
 55 57  1  0
 55 54  1  0
 56 67  2  0
 57 62  1  0
 58 66  1  0
 58 68  1  0
 59 65  1  0
 59 61  1  0
 60 66  1  0
 61 60  1  0
 62 61  2  0
 63 64  1  0
 63 57  2  0
 64 59  2  0
 65 58  1  0
 66 56  1  0
 68 70  2  0
 69 68  1  0
 71 69  1  0
 72 81  2  0
 72 77  1  0
 73 69  1  0
 73 77  1  0
 74 73  1  0
 75 76  1  0
 75 74  1  0
 76 72  1  0
 77 78  2  0
 78 79  1  0
 80 79  2  0
 81 80  1  0
 82 56  1  0
 82 83  1  0
 82 92  1  0
 83 86  1  0
 84 88  1  0
 84 83  1  0
 85 84  2  0
 88 87  1  0
 90 88  1  0
 90 91  1  0
 90 89  1  0
 92 95  1  1
 92 93  1  0
 94 92  1  0
M  ISO  4  11 100  19 100  54 101  55 101
M  END
>  <TORSDO>  (61) 
F 23

>  <SCORE>  (61) 
-11.937

>  <name>  (61) 
60

>  <ligand_id>  (61) 
60

>  <original_smiles>  (61) 
[H]c1c([H])c([H])c2c(c1[H])C([H])([H])C([H])([H])C([H])([H])C2([H])N([H])C(=O)C1([H])N(C(=O)C([H])(N([H])C(=O)C([H])(N([H])C([H])([H])[H])C([H])([H])[H])C(C([H])([H])[H])(C([H])([H])[H])C([H])([H])[H])C([H])([H])c2c([H])c(OC([H])([H])C([H])([H])N(C([H])([H])[H])C([H])([H])C([H])([H])[N+]([H])([H])C([H])([H])c3c([H])c([H])c(N([H])C(=O)N4C([H])([H])C([H])([H])C([H])([H])C([H])(n5nc(-c6c([H])c([H])c(Oc7c([H])c([H])c(F)c([H])c7F)c([H])c6[H])c(C(=O)N([H])[H])c5N([H])[H])C4([H])[H])c([H])c3[H])c([H])c([H])c2C1([H])[H]

>  <smiles>  (61) 
[H]c1c([H])c([H])c2c(c1[H])C([H])([H])C([H])([H])C([H])([H])C2([H])N([H])C(=O)C1([H])N(C(=O)C([H])(N([H])C(=O)C([H])(N([H])C([H])([H])[H])C([H])([H])[H])C(C([H])([H])[H])(C([H])([H])[H])C([H])([H])[H])C([H])([H])c2c([H])c(OC([H])([H])C([H])([H])N(C([H])([H])[H])C([H])([H])C([H])([H])[N+]([H])([H])C([H])([H])c3c([H])c([H])c(N([H])C(=O)N4C([H])([H])C([H])([H])C([H])([H])C([H])(n5nc(-c6c([H])c([H])c(Oc7c([H])c([H])c(F)c([H])c7F)c([H])c6[H])c(C(=O)N([H])[H])c5N([H])[H])C4([H])[H])c([H])c3[H])c([H])c([H])c2C1([H])[H]

$$$$
61:0:0
     RDKit          3D

 95103  0  0  1  0  0  0  0  0999 V2000
  -27.9830  -21.9540   20.0270 C   0  0  0  0  0  2  0  0  0  0  0  0
  -27.7030  -19.3700   20.4390 C   0  0  0  0  0  3  0  0  0  0  0  0
  -28.5410  -18.3210   20.6950 C   0  0  0  0  0  3  0  0  0  0  0  0
  -29.7810  -20.1720   20.5520 C   0  0  0  0  0  3  0  0  0  0  0  0
  -28.4830  -20.5550   20.3340 C   0  0  0  0  0  0  0  0  0  0  0  0
  -29.8360  -18.8030   20.8050 N   0  0  0  0  0  0  0  0  0  0  0  0
  -32.3000  -18.8890   21.0790 C   0  0  0  0  0  1  0  0  0  0  0  0
  -30.9540  -17.3240   22.4470 C   0  0  0  0  0  1  0  0  0  0  0  0
  -31.0460  -17.9870   21.0510 C   0  0  1  0  0  0  0  0  0  0  0  0
  -31.2210  -16.9440   19.8980 C   0  0  0  0  0  2  0  0  0  0  0  0
  -31.4650  -14.4740   19.7980 C   0  0  0  0  0  0  0  0  0  0  0  0
  -31.0750  -12.1850   18.9880 C   0  0  0  0  0  2  0  0  0  0  0  0
  -30.1180  -12.2500   17.7790 C   0  0  0  0  0  2  0  0  0  0  0  0
  -28.6490  -12.2330   18.2460 C   0  0  0  0  0  2  0  0  0  0  0  0
  -28.3650  -13.2570   19.3790 C   0  0  0  0  0  3  0  0  0  0  0  0
  -29.4330  -13.1540   20.4930 C   0  0  0  0  0  2  0  0  0  0  0  0
  -30.7580  -13.3170   19.8710 N   0  0  0  0  0  0  0  0  0  0  0  0
  -32.5610  -14.5580   19.2380 O   0  0  0  0  0  0  0  0  0  0  0  0
  -30.8260  -15.5680   20.2310 N   0  0  0  0  0  0  0  0  0  0  0  0
  -29.9390  -15.4360   20.6940 H   0  0  0  0  0  0  0  0  0  0  0  0
  -26.0520  -14.0680   20.1650 C   0  0  0  0  0  0  0  0  0  0  0  0
  -24.9370  -13.3880   20.5770 C   0  0  0  0  0  0  0  0  0  0  0  0
  -25.2820  -12.0020   20.5420 C   0  0  0  0  0  0  0  0  0  0  0  0
  -27.0100  -13.1000   19.9060 N   0  0  0  0  0  0  0  0  0  0  0  0
  -26.5520  -11.8540   20.1870 N   0  0  0  0  0  0  0  0  0  0  0  0
  -24.4610  -10.8060   20.7680 C   0  0  0  0  0  0  0  0  0  0  0  0
  -24.8130   -9.8440   21.7400 C   0  0  0  0  0  3  0  0  0  0  0  0
  -23.9990   -8.7090   21.9530 C   0  0  0  0  0  3  0  0  0  0  0  0
  -22.8170   -8.5320   21.1950 C   0  0  0  0  0  0  0  0  0  0  0  0
  -22.4820   -9.4830   20.2130 C   0  0  0  0  0  3  0  0  0  0  0  0
  -23.2970  -10.6080   20.0000 C   0  0  0  0  0  3  0  0  0  0  0  0
  -21.9760   -7.4520   21.3160 O   0  0  0  0  0  0  0  0  0  0  0  0
  -21.8220   -6.7930   22.5080 C   0  0  0  0  0  0  0  0  0  0  0  0
  -21.3950   -7.4580   23.6800 C   0  0  0  0  0  3  0  0  0  0  0  0
  -21.1790   -6.7280   24.8650 C   0  0  0  0  0  3  0  0  0  0  0  0
  -21.3840   -5.3350   24.8830 C   0  0  0  0  0  0  0  0  0  0  0  0
  -21.8020   -4.6700   23.7170 C   0  0  0  0  0  3  0  0  0  0  0  0
  -22.0190   -5.3970   22.5330 C   0  0  0  0  0  0  0  0  0  0  0  0
  -22.4030   -4.7470   21.4090 F   0  0  0  0  0  0  0  0  0  0  0  0
  -21.1680   -4.6340   26.0210 F   0  0  0  0  0  0  0  0  0  0  0  0
  -23.5950  -13.9820   20.8970 C   0  0  0  0  0  0  0  0  0  0  0  0
  -22.8570  -13.3690   21.8170 N   0  0  0  0  0  0  0  0  0  0  0  0
  -23.2120  -15.0220   20.3630 O   0  0  0  0  0  0  0  0  0  0  0  0
  -23.1810  -12.5280   22.2710 H   0  0  0  0  0  0  0  0  0  0  0  0
  -21.9570  -13.7480   22.0720 H   0  0  0  0  0  0  0  0  0  0  0  0
  -26.3200  -15.4180   19.9640 N   0  0  0  0  0  0  0  0  0  0  0  0
  -25.6030  -16.1280   20.0840 H   0  0  0  0  0  0  0  0  0  0  0  0
  -27.1700  -15.7790   19.5540 H   0  0  0  0  0  0  0  0  0  0  0  0
  -28.1400  -22.9110   21.2290 C   0  0  0  0  0  2  0  0  0  0  0  0
  -27.8050  -24.4200   21.0270 C   0  0  0  0  0  3  0  0  0  0  0  0
  -27.9690  -24.9930   22.3100 O   0  0  0  0  0  0  0  0  0  0  0  0
  -28.0440  -25.9350   22.1530 H   0  0  0  0  0  0  0  0  0  0  0  0
  -28.7970  -24.9740   18.6280 C   0  0  0  0  0  1  0  0  0  0  0  0
  -28.7560  -25.2750   20.1330 C   0  0  0  0  0  3  0  0  0  0  0  0
  -28.6260  -26.7000   20.3370 O   0  0  0  0  0  0  0  0  0  0  0  0
  -24.7290  -31.8070   23.3290 C   0  0  0  0  0  0  0  0  0  0  0  0
  -27.4270  -27.3870   20.2630 C   0  0  0  0  0  0  0  0  0  0  0  0
  -23.5520  -30.4290   21.6430 C   0  0  0  0  0  3  0  0  0  0  0  0
  -25.0310  -28.9000   20.2350 C   0  0  0  0  0  0  0  0  0  0  0  0
  -26.0830  -30.7800   21.5080 C   0  0  0  0  0  2  0  0  0  0  0  0
  -26.1750  -29.4160   20.8530 C   0  0  0  0  0  0  0  0  0  0  0  0
  -27.3710  -28.6660   20.8630 C   0  0  0  0  0  3  0  0  0  0  0  0
  -26.2620  -26.8870   19.6340 C   0  0  0  0  0  3  0  0  0  0  0  0
  -25.0700  -27.6380   19.6180 C   0  0  0  0  0  3  0  0  0  0  0  0
  -23.7870  -29.7600   20.2630 C   0  0  0  0  0  2  0  0  0  0  0  0
  -24.8030  -31.0210   22.2160 N   0  0  0  0  0  0  0  0  0  0  0  0
  -23.6370  -32.0800   23.8470 O   0  0  0  0  0  0  0  0  0  0  0  0
  -22.8740  -29.4030   22.5800 C   0  0  0  0  0  0  0  0  0  0  0  0
  -21.5490  -29.2460   22.4360 N   0  0  0  0  0  0  0  0  0  0  0  0
  -23.5390  -28.7500   23.3890 O   0  0  0  0  0  0  0  0  0  0  0  0
  -21.0750  -29.8240   21.7570 H   0  0  0  0  0  0  0  0  0  0  0  0
  -18.1450  -28.1260   22.8970 C   0  0  0  0  0  0  0  0  0  0  0  0
  -20.7090  -28.3090   23.1810 C   0  0  0  0  0  3  0  0  0  0  0  0
  -20.7750  -26.8930   22.5670 C   0  0  0  0  0  2  0  0  0  0  0  0
  -19.6670  -26.6270   21.5410 C   0  0  0  0  0  2  0  0  0  0  0  0
  -18.2870  -26.7910   22.1860 C   0  0  0  0  0  2  0  0  0  0  0  0
  -19.2820  -28.8460   23.3500 C   0  0  0  0  0  0  0  0  0  0  0  0
  -19.0940  -30.0990   23.9730 C   0  0  0  0  0  3  0  0  0  0  0  0
  -17.8020  -30.6310   24.1450 C   0  0  0  0  0  3  0  0  0  0  0  0
  -16.6800  -29.9060   23.7100 C   0  0  0  0  0  3  0  0  0  0  0  0
  -16.8520  -28.6550   23.0910 C   0  0  0  0  0  3  0  0  0  0  0  0
  -26.0040  -32.4260   23.9830 C   0  0  0  0  0  3  0  0  0  0  0  0
  -25.6990  -33.8240   24.3160 N   0  0  0  0  0  0  0  0  0  0  0  0
  -26.0610  -34.8780   23.5740 C   0  0  0  0  0  0  0  0  0  0  0  0
  -26.7610  -34.7740   22.5630 O   0  0  0  0  0  0  0  0  0  0  0  0
  -25.0800  -33.9790   25.1000 H   0  0  0  0  0  0  0  0  0  0  0  0
  -24.3550  -36.6780   23.1830 C   0  0  0  0  0  1  0  0  0  0  0  0
  -25.5710  -36.2660   24.0270 C   0  0  0  0  0  3  0  0  0  0  0  0
  -27.6900  -37.1230   24.9170 C   0  0  0  0  0  1  0  0  0  0  0  0
  -26.6140  -37.3120   23.9490 N   0  0  0  0  0  0  0  0  0  0  0  0
  -26.2120  -38.2340   24.0950 H   0  0  0  0  0  0  0  0  0  0  0  0
  -26.4870  -31.6420   25.2650 C   0  0  1  0  0  0  0  0  0  0  0  0
  -25.3670  -31.3960   26.3020 C   0  0  0  0  0  1  0  0  0  0  0  0
  -27.0730  -30.2660   24.8740 C   0  0  0  0  0  1  0  0  0  0  0  0
  -27.6260  -32.4220   25.9630 C   0  0  0  0  0  1  0  0  0  0  0  0
  1  5  1  0
  1 49  1  0
  2  3  2  0
  3  6  1  0
  4  6  1  0
  5  2  1  0
  5  4  2  0
  6  9  1  0
  9  7  1  1
  9  8  1  0
 10 19  1  0
 10  9  1  0
 11 17  1  0
 11 19  1  0
 12 17  1  0
 13 14  1  0
 13 12  1  0
 15 14  1  0
 15 24  1  0
 15 16  1  0
 17 16  1  0
 18 11  2  0
 19 20  1  0
 21 22  2  0
 22 41  1  0
 23 22  1  0
 23 26  1  0
 24 21  1  0
 24 25  1  0
 25 23  2  0
 26 27  1  0
 27 28  2  0
 29 32  1  0
 29 28  1  0
 30 29  2  0
 31 30  1  0
 31 26  2  0
 32 33  1  0
 33 38  2  0
 33 34  1  0
 34 35  2  0
 35 36  1  0
 36 40  1  0
 37 36  2  0
 38 37  1  0
 39 38  1  0
 41 42  1  0
 42 45  1  0
 42 44  1  0
 43 41  2  0
 46 47  1  0
 46 21  1  0
 48 46  1  0
 50 49  1  0
 50 51  1  0
 52 51  1  0
 54 53  1  0
 54 55  1  0
 54 50  1  0
 56 67  2  0
 57 55  1  0
 57 62  1  0
 58 66  1  0
 58 68  1  0
 59 65  1  0
 59 61  1  0
 60 66  1  0
 61 62  2  0
 61 60  1  0
 63 57  2  0
 64 63  1  0
 64 59  2  0
 65 58  1  0
 66 56  1  0
 68 70  2  0
 69 68  1  0
 71 69  1  0
 72 81  2  0
 72 77  1  0
 73 69  1  0
 73 77  1  0
 74 73  1  0
 75 76  1  0
 75 74  1  0
 76 72  1  0
 77 78  2  0
 78 79  1  0
 80 79  2  0
 81 80  1  0
 82 56  1  0
 82 83  1  0
 82 92  1  0
 83 86  1  0
 84 88  1  0
 84 83  1  0
 85 84  2  0
 88 87  1  0
 90 88  1  0
 90 91  1  0
 90 89  1  0
 92 95  1  1
 92 93  1  0
 94 92  1  0
M  ISO  4  11 100  19 100  54 101  55 101
M  END
>  <TORSDO>  (62) 
F 23

>  <SCORE>  (62) 
-12.394

>  <name>  (62) 
61

>  <ligand_id>  (62) 
61

>  <original_smiles>  (62) 
[H]OC([H])(C([H])([H])C([H])([H])c1c([H])c([H])n(C(C([H])([H])[H])(C([H])([H])[H])C([H])([H])N([H])C(=O)N2C([H])([H])C([H])([H])C([H])([H])C([H])(n3nc(-c4c([H])c([H])c(Oc5c([H])c([H])c(F)c([H])c5F)c([H])c4[H])c(C(=O)N([H])[H])c3N([H])[H])C2([H])[H])c1[H])C([H])(Oc1c([H])c([H])c2c(c1[H])C([H])([H])N(C(=O)C([H])(N([H])C(=O)C([H])(N([H])C([H])([H])[H])C([H])([H])[H])C(C([H])([H])[H])(C([H])([H])[H])C([H])([H])[H])C([H])(C(=O)N([H])C1([H])c3c([H])c([H])c([H])c([H])c3C([H])([H])C([H])([H])C1([H])[H])C2([H])[H])C([H])([H])[H]

>  <smiles>  (62) 
[H]OC([H])(C([H])([H])C([H])([H])c1c([H])c([H])n(C(C([H])([H])[H])(C([H])([H])[H])C([H])([H])N([H])C(=O)N2C([H])([H])C([H])([H])C([H])([H])C([H])(n3nc(-c4c([H])c([H])c(Oc5c([H])c([H])c(F)c([H])c5F)c([H])c4[H])c(C(=O)N([H])[H])c3N([H])[H])C2([H])[H])c1[H])C([H])(Oc1c([H])c([H])c2c(c1[H])C([H])([H])N(C(=O)C([H])(N([H])C(=O)C([H])(N([H])C([H])([H])[H])C([H])([H])[H])C(C([H])([H])[H])(C([H])([H])[H])C([H])([H])[H])C([H])(C(=O)N([H])C1([H])c3c([H])c([H])c([H])c([H])c3C([H])([H])C([H])([H])C1([H])[H])C2([H])[H])C([H])([H])[H]

$$$$
62:0:0
     RDKit          3D

 92100  0  0  1  0  0  0  0  0999 V2000
  -28.2060  -21.2610   19.5570 C   0  0  0  0  0  1  0  0  0  0  0  0
  -29.2610  -21.2010   20.5800 N   0  0  0  0  0  0  0  0  0  0  0  0
  -30.0830  -22.5040   22.5570 C   0  0  0  0  0  1  0  0  0  0  0  0
  -29.0960  -22.4970   21.3700 C   0  0  0  0  0  3  0  0  0  0  0  0
  -29.2380  -23.9200   20.5820 C   0  0  0  0  0  3  0  0  0  0  0  0
  -28.1520  -25.0850   20.8030 C   0  0  0  0  0  3  0  0  0  0  0  0
  -28.3900  -26.4640   20.2770 O   0  0  0  0  0  0  0  0  0  0  0  0
  -24.6510  -31.8780   23.2060 C   0  0  0  0  0  0  0  0  0  0  0  0
  -27.2830  -27.3280   20.1900 C   0  0  0  0  0  0  0  0  0  0  0  0
  -23.4500  -30.4770   21.5620 C   0  0  0  0  0  3  0  0  0  0  0  0
  -24.9160  -28.9410   20.1210 C   0  0  0  0  0  0  0  0  0  0  0  0
  -25.9860  -30.8100   21.3730 C   0  0  0  0  0  2  0  0  0  0  0  0
  -26.0740  -29.4300   20.7400 C   0  0  0  0  0  0  0  0  0  0  0  0
  -27.2570  -28.6320   20.7670 C   0  0  0  0  0  3  0  0  0  0  0  0
  -26.1160  -26.9050   19.5130 C   0  0  0  0  0  3  0  0  0  0  0  0
  -24.9450  -27.6880   19.4860 C   0  0  0  0  0  3  0  0  0  0  0  0
  -23.6610  -29.7940   20.1830 C   0  0  0  0  0  2  0  0  0  0  0  0
  -24.7150  -31.0730   22.1060 N   0  0  0  0  0  0  0  0  0  0  0  0
  -23.5650  -32.1510   23.7390 O   0  0  0  0  0  0  0  0  0  0  0  0
  -22.7950  -29.4580   22.5240 C   0  0  0  0  0  0  0  0  0  0  0  0
  -21.4670  -29.2890   22.4070 N   0  0  0  0  0  0  0  0  0  0  0  0
  -23.4800  -28.8230   23.3310 O   0  0  0  0  0  0  0  0  0  0  0  0
  -20.9760  -29.8600   21.7330 H   0  0  0  0  0  0  0  0  0  0  0  0
  -18.0870  -28.1030   22.9240 C   0  0  0  0  0  0  0  0  0  0  0  0
  -20.6500  -28.3450   23.1710 C   0  0  0  0  0  3  0  0  0  0  0  0
  -20.7390  -26.9210   22.5780 C   0  0  0  0  0  2  0  0  0  0  0  0
  -19.6230  -26.6150   21.5730 C   0  0  0  0  0  2  0  0  0  0  0  0
  -18.2480  -26.7620   22.2290 C   0  0  0  0  0  2  0  0  0  0  0  0
  -19.2150  -28.8540   23.3510 C   0  0  0  0  0  0  0  0  0  0  0  0
  -19.0080  -30.1110   23.9570 C   0  0  0  0  0  3  0  0  0  0  0  0
  -17.7070  -30.6170   24.1450 C   0  0  0  0  0  3  0  0  0  0  0  0
  -16.5950  -29.8640   23.7340 C   0  0  0  0  0  3  0  0  0  0  0  0
  -16.7870  -28.6090   23.1290 C   0  0  0  0  0  3  0  0  0  0  0  0
  -25.9320  -32.5090   23.8350 C   0  0  0  0  0  3  0  0  0  0  0  0
  -26.4350  -31.7390   25.1140 C   0  0  1  0  0  0  0  0  0  0  0  0
  -25.3300  -31.5090   26.1720 C   0  0  0  0  0  1  0  0  0  0  0  0
  -27.0200  -30.3610   24.7270 C   0  0  0  0  0  1  0  0  0  0  0  0
  -27.5810  -32.5380   25.7820 C   0  0  0  0  0  1  0  0  0  0  0  0
  -25.6200  -33.9060   24.1670 N   0  0  0  0  0  0  0  0  0  0  0  0
  -25.9500  -34.9610   23.4120 C   0  0  0  0  0  0  0  0  0  0  0  0
  -26.6200  -34.8610   22.3810 O   0  0  0  0  0  0  0  0  0  0  0  0
  -25.0350  -34.0580   24.9750 H   0  0  0  0  0  0  0  0  0  0  0  0
  -24.2250  -36.7640   23.0580 C   0  0  0  0  0  1  0  0  0  0  0  0
  -25.4620  -36.3500   23.8710 C   0  0  0  0  0  3  0  0  0  0  0  0
  -27.5920  -37.2340   24.7140 C   0  0  0  0  0  1  0  0  0  0  0  0
  -26.4950  -37.4030   23.7660 N   0  0  0  0  0  0  0  0  0  0  0  0
  -26.0870  -38.3230   23.9110 H   0  0  0  0  0  0  0  0  0  0  0  0
  -29.2200  -19.8340   21.2750 C   0  0  0  0  0  2  0  0  0  0  0  0
  -30.7000  -14.7200   20.3020 C   0  0  0  0  0  0  0  0  0  0  0  0
  -30.3990  -12.5100   19.1830 C   0  0  0  0  0  2  0  0  0  0  0  0
  -29.4460  -12.6080   17.9720 C   0  0  0  0  0  2  0  0  0  0  0  0
  -27.9860  -12.4370   18.4240 C   0  0  0  0  0  2  0  0  0  0  0  0
  -27.6420  -13.3120   19.6580 C   0  0  0  0  0  3  0  0  0  0  0  0
  -28.7110  -13.2240   20.7650 C   0  0  0  0  0  2  0  0  0  0  0  0
  -29.9950  -13.5520   20.1520 N   0  0  0  0  0  0  0  0  0  0  0  0
  -31.9130  -14.7210   20.0710 O   0  0  0  0  0  0  0  0  0  0  0  0
  -30.4370  -16.5300   18.7510 C   0  0  0  0  0  2  0  0  0  0  0  0
  -29.4160  -16.9790   20.9240 C   0  0  0  0  0  2  0  0  0  0  0  0
  -31.4700  -17.6830   18.9630 C   0  0  0  0  0  2  0  0  0  0  0  0
  -29.7010  -18.5120   20.4540 C   0  0  0  0  0  3  0  0  0  0  0  0
  -30.0200  -15.9010   20.0190 N   0  0  0  0  0  0  0  0  0  0  0  0
  -31.1440  -18.5270   20.1500 N   0  0  0  0  0  4  0  0  0  0  0  0
  -31.4760  -19.4740   20.0420 H   0  0  0  0  0  0  0  0  0  0  0  0
  -31.6180  -18.1450   20.9530 H   0  0  0  0  0  0  0  0  0  0  0  0
  -25.2730  -13.9080   20.4270 C   0  0  0  0  0  0  0  0  0  0  0  0
  -24.2150  -13.1400   20.8150 C   0  0  0  0  0  0  0  0  0  0  0  0
  -24.6730  -11.7840   20.7770 C   0  0  0  0  0  0  0  0  0  0  0  0
  -26.3090  -13.0250   20.1720 N   0  0  0  0  0  0  0  0  0  0  0  0
  -25.9570  -11.7430   20.4460 N   0  0  0  0  0  0  0  0  0  0  0  0
  -23.9480  -10.5250   20.9830 C   0  0  0  0  0  0  0  0  0  0  0  0
  -24.3940   -9.5620   21.9160 C   0  0  0  0  0  3  0  0  0  0  0  0
  -23.6730   -8.3650   22.1100 C   0  0  0  0  0  3  0  0  0  0  0  0
  -22.4900   -8.1210   21.3740 C   0  0  0  0  0  0  0  0  0  0  0  0
  -22.0590   -9.0750   20.4360 C   0  0  0  0  0  3  0  0  0  0  0  0
  -22.7810  -10.2630   20.2400 C   0  0  0  0  0  3  0  0  0  0  0  0
  -21.7420   -6.9730   21.4720 O   0  0  0  0  0  0  0  0  0  0  0  0
  -21.7050   -6.2350   22.6260 C   0  0  0  0  0  0  0  0  0  0  0  0
  -21.2880   -6.7950   23.8550 C   0  0  0  0  0  3  0  0  0  0  0  0
  -21.2010   -5.9820   25.0030 C   0  0  0  0  0  3  0  0  0  0  0  0
  -21.5190   -4.6130   24.9220 C   0  0  0  0  0  0  0  0  0  0  0  0
  -21.9260   -4.0550   23.6990 C   0  0  0  0  0  3  0  0  0  0  0  0
  -22.0160   -4.8630   22.5540 C   0  0  0  0  0  0  0  0  0  0  0  0
  -22.3890   -4.3140   21.3710 F   0  0  0  0  0  0  0  0  0  0  0  0
  -21.4270   -3.8330   26.0250 F   0  0  0  0  0  0  0  0  0  0  0  0
  -22.8240  -13.6170   21.1140 C   0  0  0  0  0  0  0  0  0  0  0  0
  -22.1170  -12.9210   21.9930 N   0  0  0  0  0  0  0  0  0  0  0  0
  -22.3790  -14.6470   20.6070 O   0  0  0  0  0  0  0  0  0  0  0  0
  -22.4960  -12.0810   22.4070 H   0  0  0  0  0  0  0  0  0  0  0  0
  -21.1890  -13.2260   22.2540 H   0  0  0  0  0  0  0  0  0  0  0  0
  -25.4490  -15.2750   20.2380 N   0  0  0  0  0  0  0  0  0  0  0  0
  -24.6870  -15.9400   20.2940 H   0  0  0  0  0  0  0  0  0  0  0  0
  -26.2990  -15.6750   19.8590 H   0  0  0  0  0  0  0  0  0  0  0  0
  1  2  1  0
  2 48  1  0
  2  4  1  0
  4  3  1  0
  5  6  2  0
  5  4  1  0
  7  6  1  0
  8 19  2  0
  9  7  1  0
  9 14  1  0
 10 18  1  0
 10 20  1  0
 11 17  1  0
 11 13  1  0
 12 18  1  0
 13 14  2  0
 13 12  1  0
 15  9  2  0
 16 15  1  0
 16 11  2  0
 17 10  1  0
 18  8  1  0
 20 22  2  0
 21 20  1  0
 23 21  1  0
 24 33  2  0
 24 29  1  0
 25 21  1  0
 25 29  1  0
 26 25  1  0
 27 28  1  0
 27 26  1  0
 28 24  1  0
 29 30  2  0
 30 31  1  0
 32 31  2  0
 33 32  1  0
 34  8  1  0
 34 39  1  0
 34 35  1  0
 35 38  1  1
 35 36  1  0
 37 35  1  0
 39 42  1  0
 40 44  1  0
 40 39  1  0
 41 40  2  0
 44 43  1  0
 46 44  1  0
 46 47  1  0
 46 45  1  0
 50 55  1  0
 51 52  1  0
 51 50  1  0
 53 52  1  0
 53 68  1  0
 53 54  1  0
 55 49  1  0
 55 54  1  0
 56 49  2  0
 57 59  1  0
 57 61  1  0
 59 62  1  0
 60 58  1  0
 60 48  1  0
 61 49  1  0
 61 58  1  0
 62 60  1  0
 62 64  1  0
 63 62  1  0
 65 66  2  0
 66 85  1  0
 67 66  1  0
 67 70  1  0
 68 65  1  0
 68 69  1  0
 69 67  2  0
 70 71  1  0
 71 72  2  0
 73 76  1  0
 73 72  1  0
 74 73  2  0
 75 74  1  0
 75 70  2  0
 76 77  1  0
 77 78  1  0
 78 79  2  0
 80 79  1  0
 80 84  1  0
 81 80  2  0
 82 77  2  0
 82 81  1  0
 83 82  1  0
 85 86  1  0
 86 89  1  0
 86 88  1  0
 87 85  2  0
 90 91  1  0
 90 65  1  0
 92 90  1  0
M  ISO  4   6 101   7 101  49 100  61 100
M  END
>  <TORSDO>  (63) 
F 20

>  <SCORE>  (63) 
-13.797

>  <name>  (63) 
62

>  <ligand_id>  (63) 
62

>  <original_smiles>  (63) 
[H]c1c([H])c([H])c2c(c1[H])C([H])([H])C([H])([H])C([H])([H])C2([H])N([H])C(=O)C1([H])N(C(=O)C([H])(N([H])C(=O)C([H])(N([H])C([H])([H])[H])C([H])([H])[H])C(C([H])([H])[H])(C([H])([H])[H])C([H])([H])[H])C([H])([H])c2c([H])c(OC([H])([H])C([H])([H])C([H])(N(C([H])([H])[H])C([H])([H])C3([H])C([H])([H])N(C(=O)N4C([H])([H])C([H])([H])C([H])([H])C([H])(n5nc(-c6c([H])c([H])c(Oc7c([H])c([H])c(F)c([H])c7F)c([H])c6[H])c(C(=O)N([H])[H])c5N([H])[H])C4([H])[H])C([H])([H])C([H])([H])[N+]3([H])[H])C([H])([H])[H])c([H])c([H])c2C1([H])[H]

>  <smiles>  (63) 
[H]c1c([H])c([H])c2c(c1[H])C([H])([H])C([H])([H])C([H])([H])C2([H])N([H])C(=O)C1([H])N(C(=O)C([H])(N([H])C(=O)C([H])(N([H])C([H])([H])[H])C([H])([H])[H])C(C([H])([H])[H])(C([H])([H])[H])C([H])([H])[H])C([H])([H])c2c([H])c(OC([H])([H])C([H])([H])C([H])(N(C([H])([H])[H])C([H])([H])C3([H])C([H])([H])N(C(=O)N4C([H])([H])C([H])([H])C([H])([H])C([H])(n5nc(-c6c([H])c([H])c(Oc7c([H])c([H])c(F)c([H])c7F)c([H])c6[H])c(C(=O)N([H])[H])c5N([H])[H])C4([H])[H])C([H])([H])C([H])([H])[N+]3([H])[H])C([H])([H])[H])c([H])c([H])c2C1([H])[H]

$$$$
63:0:0
     RDKit          3D

 91100  0  0  1  0  0  0  0  0999 V2000
  -29.7560  -21.5210   19.8850 C   0  0  0  0  0  2  0  0  0  0  0  0
  -29.6650  -17.6900   19.0770 C   0  0  0  0  0  2  0  0  0  0  0  0
  -29.7250  -17.9450   21.5320 C   0  0  0  0  0  2  0  0  0  0  0  0
  -29.9240  -19.2200   18.9250 C   0  0  0  0  0  2  0  0  0  0  0  0
  -29.9820  -19.4820   21.3600 C   0  0  0  0  0  2  0  0  0  0  0  0
  -30.2810  -17.0890   20.3630 C   0  0  0  0  0  3  0  0  0  0  0  0
  -29.4530  -20.0480   20.0800 N   0  0  1  0  0  4  0  0  0  0  0  0
  -28.4480  -19.9610   20.0970 H   0  0  0  0  0  0  0  0  0  0  0  0
  -30.7360  -14.5780   20.0580 C   0  0  0  0  0  0  0  0  0  0  0  0
  -30.4170  -12.4020   18.9270 C   0  0  0  0  0  2  0  0  0  0  0  0
  -29.4050  -12.6030   17.7790 C   0  0  0  0  0  2  0  0  0  0  0  0
  -27.9590  -12.4440   18.2910 C   0  0  0  0  0  2  0  0  0  0  0  0
  -27.6880  -13.2610   19.5820 C   0  0  0  0  0  3  0  0  0  0  0  0
  -28.8090  -13.0490   20.6240 C   0  0  0  0  0  2  0  0  0  0  0  0
  -30.0890  -13.3780   19.9800 N   0  0  0  0  0  0  0  0  0  0  0  0
  -31.8570  -14.7510   19.5750 O   0  0  0  0  0  0  0  0  0  0  0  0
  -29.9910  -15.6270   20.5030 N   0  0  0  0  0  0  0  0  0  0  0  0
  -29.0880  -15.3780   20.8790 H   0  0  0  0  0  0  0  0  0  0  0  0
  -25.3470  -13.8510   20.4660 C   0  0  0  0  0  0  0  0  0  0  0  0
  -24.2990  -13.0710   20.8760 C   0  0  0  0  0  0  0  0  0  0  0  0
  -24.7470  -11.7200   20.7700 C   0  0  0  0  0  0  0  0  0  0  0  0
  -26.3680  -12.9730   20.1370 N   0  0  0  0  0  0  0  0  0  0  0  0
  -26.0150  -11.6850   20.3780 N   0  0  0  0  0  0  0  0  0  0  0  0
  -24.0260  -10.4550   20.9630 C   0  0  0  0  0  0  0  0  0  0  0  0
  -24.4690   -9.4870   21.8900 C   0  0  0  0  0  3  0  0  0  0  0  0
  -23.7490   -8.2870   22.0740 C   0  0  0  0  0  3  0  0  0  0  0  0
  -22.5710   -8.0470   21.3270 C   0  0  0  0  0  0  0  0  0  0  0  0
  -22.1460   -9.0040   20.3890 C   0  0  0  0  0  3  0  0  0  0  0  0
  -22.8660  -10.1950   20.2050 C   0  0  0  0  0  3  0  0  0  0  0  0
  -21.8220   -6.8980   21.4170 O   0  0  0  0  0  0  0  0  0  0  0  0
  -21.7350   -6.1850   22.5860 C   0  0  0  0  0  0  0  0  0  0  0  0
  -21.2350   -6.7610   23.7740 C   0  0  0  0  0  3  0  0  0  0  0  0
  -21.0990   -5.9740   24.9350 C   0  0  0  0  0  3  0  0  0  0  0  0
  -21.4490   -4.6120   24.9070 C   0  0  0  0  0  0  0  0  0  0  0  0
  -21.9400   -4.0340   23.7230 C   0  0  0  0  0  3  0  0  0  0  0  0
  -22.0800   -4.8190   22.5650 C   0  0  0  0  0  0  0  0  0  0  0  0
  -22.5340   -4.2520   21.4210 F   0  0  0  0  0  0  0  0  0  0  0  0
  -21.3100   -3.8530   26.0200 F   0  0  0  0  0  0  0  0  0  0  0  0
  -22.9250  -13.5460   21.2490 C   0  0  0  0  0  0  0  0  0  0  0  0
  -22.2470  -12.8240   22.1370 N   0  0  0  0  0  0  0  0  0  0  0  0
  -22.4600  -14.5890   20.7920 O   0  0  0  0  0  0  0  0  0  0  0  0
  -22.6380  -11.9810   22.5310 H   0  0  0  0  0  0  0  0  0  0  0  0
  -21.3260  -13.1190   22.4260 H   0  0  0  0  0  0  0  0  0  0  0  0
  -25.5100  -15.2270   20.3220 N   0  0  0  0  0  0  0  0  0  0  0  0
  -24.7520  -15.8800   20.4920 H   0  0  0  0  0  0  0  0  0  0  0  0
  -26.3330  -15.6690   19.9340 H   0  0  0  0  0  0  0  0  0  0  0  0
  -28.6730  -22.5550   20.3690 C   0  0  0  0  0  2  0  0  0  0  0  0
  -29.6310  -24.8310   21.2950 C   0  0  0  0  0  2  0  0  0  0  0  0
  -29.0440  -24.0520   20.1420 C   0  0  0  0  0  3  0  0  0  0  0  0
  -28.2900  -25.2630   20.7480 C   0  0  0  0  0  3  0  0  0  0  0  0
  -28.4650  -26.6170   20.2410 O   0  0  0  0  0  0  0  0  0  0  0  0
  -24.6210  -31.8750   23.2260 C   0  0  0  0  0  0  0  0  0  0  0  0
  -27.3190  -27.3960   20.2100 C   0  0  0  0  0  0  0  0  0  0  0  0
  -23.4450  -30.4570   21.5770 C   0  0  0  0  0  3  0  0  0  0  0  0
  -24.9240  -28.9200   20.1740 C   0  0  0  0  0  0  0  0  0  0  0  0
  -25.9720  -30.8240   21.4060 C   0  0  0  0  0  2  0  0  0  0  0  0
  -26.0760  -29.4480   20.7710 C   0  0  0  0  0  0  0  0  0  0  0  0
  -27.2810  -28.6980   20.7760 C   0  0  0  0  0  3  0  0  0  0  0  0
  -26.1500  -26.8930   19.6050 C   0  0  0  0  0  3  0  0  0  0  0  0
  -24.9580  -27.6450   19.5830 C   0  0  0  0  0  3  0  0  0  0  0  0
  -23.6740  -29.7730   20.2030 C   0  0  0  0  0  2  0  0  0  0  0  0
  -24.6980  -31.0690   22.1280 N   0  0  0  0  0  0  0  0  0  0  0  0
  -23.5320  -32.1410   23.7540 O   0  0  0  0  0  0  0  0  0  0  0  0
  -22.7870  -29.4370   22.5370 C   0  0  0  0  0  0  0  0  0  0  0  0
  -21.4620  -29.2590   22.4090 N   0  0  0  0  0  0  0  0  0  0  0  0
  -23.4680  -28.8070   23.3510 O   0  0  0  0  0  0  0  0  0  0  0  0
  -20.9740  -29.8170   21.7220 H   0  0  0  0  0  0  0  0  0  0  0  0
  -18.0800  -28.0930   22.9240 C   0  0  0  0  0  0  0  0  0  0  0  0
  -20.6420  -28.3210   23.1750 C   0  0  0  0  0  3  0  0  0  0  0  0
  -20.7240  -26.8950   22.5820 C   0  0  0  0  0  2  0  0  0  0  0  0
  -19.6100  -26.5970   21.5730 C   0  0  0  0  0  2  0  0  0  0  0  0
  -18.2360  -26.7500   22.2310 C   0  0  0  0  0  2  0  0  0  0  0  0
  -19.2100  -28.8370   23.3540 C   0  0  0  0  0  0  0  0  0  0  0  0
  -19.0100  -30.0950   23.9610 C   0  0  0  0  0  3  0  0  0  0  0  0
  -17.7130  -30.6110   24.1420 C   0  0  0  0  0  3  0  0  0  0  0  0
  -16.5970  -29.8620   23.7300 C   0  0  0  0  0  3  0  0  0  0  0  0
  -16.7810  -28.6050   23.1270 C   0  0  0  0  0  3  0  0  0  0  0  0
  -25.8950  -32.5180   23.8580 C   0  0  0  0  0  3  0  0  0  0  0  0
  -26.4020  -31.7560   25.1440 C   0  0  1  0  0  0  0  0  0  0  0  0
  -25.2970  -31.5120   26.1980 C   0  0  0  0  0  1  0  0  0  0  0  0
  -27.0030  -30.3840   24.7610 C   0  0  0  0  0  1  0  0  0  0  0  0
  -27.5360  -32.5640   25.8170 C   0  0  0  0  0  1  0  0  0  0  0  0
  -25.5710  -33.9150   24.1780 N   0  0  0  0  0  0  0  0  0  0  0  0
  -25.9100  -34.9670   23.4190 C   0  0  0  0  0  0  0  0  0  0  0  0
  -26.5960  -34.8620   22.3980 O   0  0  0  0  0  0  0  0  0  0  0  0
  -24.9640  -34.0700   24.9690 H   0  0  0  0  0  0  0  0  0  0  0  0
  -24.1850  -36.7530   23.0200 C   0  0  0  0  0  1  0  0  0  0  0  0
  -25.4070  -36.3540   23.8620 C   0  0  0  0  0  3  0  0  0  0  0  0
  -27.5150  -37.2490   24.7460 C   0  0  0  0  0  1  0  0  0  0  0  0
  -26.4380  -37.4100   23.7730 N   0  0  0  0  0  0  0  0  0  0  0  0
  -26.0270  -38.3310   23.9050 H   0  0  0  0  0  0  0  0  0  0  0  0
  1  7  1  0
  1 47  1  0
  2  6  1  0
  4  2  1  0
  4  7  1  0
  5  3  1  0
  6 17  1  0
  6  3  1  0
  7  8  1  1
  7  5  1  0
  9 17  1  0
 10 15  1  0
 11 12  1  0
 11 10  1  0
 13 12  1  0
 13 22  1  0
 13 14  1  0
 15  9  1  0
 15 14  1  0
 16  9  2  0
 17 18  1  0
 19 20  2  0
 20 39  1  0
 21 20  1  0
 21 24  1  0
 22 23  1  0
 22 19  1  0
 23 21  2  0
 24 25  1  0
 25 26  2  0
 27 30  1  0
 27 26  1  0
 28 27  2  0
 29 28  1  0
 29 24  2  0
 30 31  1  0
 31 32  1  0
 32 33  2  0
 34 33  1  0
 34 38  1  0
 35 34  2  0
 36 31  2  0
 36 35  1  0
 37 36  1  0
 39 40  1  0
 40 43  1  0
 40 42  1  0
 41 39  2  0
 44 19  1  0
 44 45  1  0
 46 44  1  0
 49 47  1  0
 49 50  1  0
 49 48  1  0
 50 51  1  0
 50 48  1  0
 52 63  2  0
 53 51  1  0
 53 58  1  0
 54 62  1  0
 54 64  1  0
 55 61  1  0
 55 57  1  0
 56 62  1  0
 57 58  2  0
 57 56  1  0
 59 53  2  0
 60 59  1  0
 60 55  2  0
 61 54  1  0
 62 52  1  0
 64 66  2  0
 65 64  1  0
 67 65  1  0
 68 77  2  0
 68 73  1  0
 69 65  1  0
 69 73  1  0
 70 69  1  0
 71 72  1  0
 71 70  1  0
 72 68  1  0
 73 74  2  0
 74 75  1  0
 76 75  2  0
 77 76  1  0
 78 52  1  0
 78 83  1  0
 78 79  1  0
 79 82  1  1
 79 80  1  0
 81 79  1  0
 83 86  1  0
 84 88  1  0
 84 83  1  0
 85 84  2  0
 88 87  1  0
 90 88  1  0
 90 91  1  0
 90 89  1  0
M  ISO  4   9 100  17 100  50 101  51 101
M  END
>  <TORSDO>  (64) 
F 19

>  <SCORE>  (64) 
-13.739

>  <name>  (64) 
63

>  <ligand_id>  (64) 
63

>  <original_smiles>  (64) 
[H]c1c([H])c([H])c2c(c1[H])C([H])([H])C([H])([H])C([H])([H])C2([H])N([H])C(=O)C1([H])N(C(=O)C([H])(N([H])C(=O)C([H])(N([H])C([H])([H])[H])C([H])([H])[H])C(C([H])([H])[H])(C([H])([H])[H])C([H])([H])[H])C([H])([H])c2c([H])c(OC3([H])C([H])([H])C3([H])C([H])([H])C([H])([H])[N+]3([H])C([H])([H])C([H])([H])C([H])(N([H])C(=O)N4C([H])([H])C([H])([H])C([H])([H])C([H])(n5nc(-c6c([H])c([H])c(Oc7c([H])c([H])c(F)c([H])c7F)c([H])c6[H])c(C(=O)N([H])[H])c5N([H])[H])C4([H])[H])C([H])([H])C3([H])[H])c([H])c([H])c2C1([H])[H]

>  <smiles>  (64) 
[H]c1c([H])c([H])c2c(c1[H])C([H])([H])C([H])([H])C([H])([H])C2([H])N([H])C(=O)C1([H])N(C(=O)C([H])(N([H])C(=O)C([H])(N([H])C([H])([H])[H])C([H])([H])[H])C(C([H])([H])[H])(C([H])([H])[H])C([H])([H])[H])C([H])([H])c2c([H])c(OC3([H])C([H])([H])C3([H])C([H])([H])C([H])([H])[N+]3([H])C([H])([H])C([H])([H])C([H])(N([H])C(=O)N4C([H])([H])C([H])([H])C([H])([H])C([H])(n5nc(-c6c([H])c([H])c(Oc7c([H])c([H])c(F)c([H])c7F)c([H])c6[H])c(C(=O)N([H])[H])c5N([H])[H])C4([H])[H])C([H])([H])C3([H])[H])c([H])c([H])c2C1([H])[H]

$$$$
64:0:0
     RDKit          3D

 86 94  0  0  1  0  0  0  0  0999 V2000
  -29.5210  -21.4930   18.9640 C   0  0  0  0  0  2  0  0  0  0  0  0
  -28.4490  -21.2130   21.0010 C   0  0  0  0  0  2  0  0  0  0  0  0
  -29.4300  -19.7710   18.8980 C   0  0  0  0  0  2  0  0  0  0  0  0
  -29.2480  -19.7090   21.2250 C   0  0  0  0  0  2  0  0  0  0  0  0
  -28.9860  -22.5390   20.1570 C   0  0  0  0  0  3  0  0  0  0  0  0
  -29.8940  -18.6940   20.0730 C   0  0  0  0  0  3  0  0  0  0  0  0
  -30.5320  -15.6620   19.9540 C   0  0  0  0  0  0  0  0  0  0  0  0
  -30.5500  -13.1700   19.1040 C   0  0  0  0  0  2  0  0  0  0  0  0
  -29.5940  -12.8630   17.9210 C   0  0  0  0  0  2  0  0  0  0  0  0
  -28.1780  -12.5430   18.4280 C   0  0  0  0  0  2  0  0  0  0  0  0
  -27.7370  -13.5170   19.5480 C   0  0  0  0  0  3  0  0  0  0  0  0
  -28.8250  -13.7550   20.6180 C   0  0  0  0  0  2  0  0  0  0  0  0
  -29.9930  -14.3250   19.9180 N   0  0  0  0  0  0  0  0  0  0  0  0
  -31.7510  -15.6430   19.7200 O   0  0  0  0  0  0  0  0  0  0  0  0
  -29.7550  -16.9670   20.0580 N   0  0  0  0  0  0  0  0  0  0  0  0
  -28.7830  -16.7160   20.1710 H   0  0  0  0  0  0  0  0  0  0  0  0
  -25.4100  -14.0320   20.4400 C   0  0  0  0  0  0  0  0  0  0  0  0
  -24.3730  -13.2400   20.8420 C   0  0  0  0  0  0  0  0  0  0  0  0
  -24.8430  -11.8940   20.7550 C   0  0  0  0  0  0  0  0  0  0  0  0
  -26.4430  -13.1710   20.1220 N   0  0  0  0  0  0  0  0  0  0  0  0
  -26.1190  -11.8750   20.3790 N   0  0  0  0  0  0  0  0  0  0  0  0
  -24.1300  -10.6230   20.9480 C   0  0  0  0  0  0  0  0  0  0  0  0
  -24.5690   -9.6630   21.8860 C   0  0  0  0  0  3  0  0  0  0  0  0
  -23.8510   -8.4610   22.0680 C   0  0  0  0  0  3  0  0  0  0  0  0
  -22.6810   -8.2110   21.3140 C   0  0  0  0  0  0  0  0  0  0  0  0
  -22.2610   -9.1600   20.3660 C   0  0  0  0  0  3  0  0  0  0  0  0
  -22.9790  -10.3530   20.1810 C   0  0  0  0  0  3  0  0  0  0  0  0
  -21.9340   -7.0610   21.4060 O   0  0  0  0  0  0  0  0  0  0  0  0
  -21.8340   -6.3600   22.5810 C   0  0  0  0  0  0  0  0  0  0  0  0
  -21.2680   -6.9290   23.7420 C   0  0  0  0  0  3  0  0  0  0  0  0
  -21.1200   -6.1510   24.9080 C   0  0  0  0  0  3  0  0  0  0  0  0
  -21.5290   -4.8040   24.9120 C   0  0  0  0  0  0  0  0  0  0  0  0
  -22.0870   -4.2340   23.7550 C   0  0  0  0  0  3  0  0  0  0  0  0
  -22.2350   -5.0090   22.5920 C   0  0  0  0  0  0  0  0  0  0  0  0
  -22.7540   -4.4480   21.4730 F   0  0  0  0  0  0  0  0  0  0  0  0
  -21.3800   -4.0540   26.0300 F   0  0  0  0  0  0  0  0  0  0  0  0
  -22.9870  -13.7050   21.1850 C   0  0  0  0  0  0  0  0  0  0  0  0
  -22.3080  -12.9990   22.0820 N   0  0  0  0  0  0  0  0  0  0  0  0
  -22.5180  -14.7300   20.6930 O   0  0  0  0  0  0  0  0  0  0  0  0
  -22.7010  -12.1710   22.5050 H   0  0  0  0  0  0  0  0  0  0  0  0
  -21.3790  -13.2920   22.3510 H   0  0  0  0  0  0  0  0  0  0  0  0
  -25.5540  -15.4080   20.2860 N   0  0  0  0  0  0  0  0  0  0  0  0
  -24.7820  -16.0470   20.4410 H   0  0  0  0  0  0  0  0  0  0  0  0
  -26.3630  -15.8600   19.8810 H   0  0  0  0  0  0  0  0  0  0  0  0
  -28.1050  -24.1980   19.9630 C   0  0  0  0  0  2  0  0  0  0  0  0
  -28.3060  -25.8750   20.2080 O   0  0  0  0  0  0  0  0  0  0  0  0
  -24.6680  -31.8780   23.2810 C   0  0  0  0  0  0  0  0  0  0  0  0
  -27.3040  -27.0230   20.1640 C   0  0  0  0  0  0  0  0  0  0  0  0
  -23.5170  -30.5300   21.5750 C   0  0  0  0  0  3  0  0  0  0  0  0
  -25.0030  -28.9590   20.1330 C   0  0  0  0  0  0  0  0  0  0  0  0
  -26.0900  -30.7280   21.4970 C   0  0  0  0  0  2  0  0  0  0  0  0
  -26.1800  -29.3290   20.7950 C   0  0  0  0  0  0  0  0  0  0  0  0
  -27.3200  -28.3860   20.7820 C   0  0  0  0  0  3  0  0  0  0  0  0
  -26.0930  -26.8330   19.4580 C   0  0  0  0  0  3  0  0  0  0  0  0
  -24.9910  -27.7350   19.4440 C   0  0  0  0  0  3  0  0  0  0  0  0
  -23.7820  -29.8840   20.1850 C   0  0  0  0  0  2  0  0  0  0  0  0
  -24.7790  -31.0740   22.1710 N   0  0  0  0  0  0  0  0  0  0  0  0
  -23.5650  -32.1500   23.7850 O   0  0  0  0  0  0  0  0  0  0  0  0
  -22.7990  -29.5090   22.4980 C   0  0  0  0  0  0  0  0  0  0  0  0
  -21.4720  -29.3430   22.3390 N   0  0  0  0  0  0  0  0  0  0  0  0
  -23.4460  -28.8650   23.3270 O   0  0  0  0  0  0  0  0  0  0  0  0
  -21.0010  -29.9130   21.6510 H   0  0  0  0  0  0  0  0  0  0  0  0
  -18.0810  -28.1160   22.7680 C   0  0  0  0  0  0  0  0  0  0  0  0
  -20.6380  -28.3760   23.0640 C   0  0  0  0  0  3  0  0  0  0  0  0
  -20.7470  -26.9670   22.4360 C   0  0  0  0  0  2  0  0  0  0  0  0
  -19.6550  -26.6840   21.3970 C   0  0  0  0  0  2  0  0  0  0  0  0
  -18.2670  -26.7980   22.0340 C   0  0  0  0  0  2  0  0  0  0  0  0
  -19.1930  -28.8650   23.2370 C   0  0  0  0  0  0  0  0  0  0  0  0
  -18.9630  -30.0950   23.8880 C   0  0  0  0  0  3  0  0  0  0  0  0
  -17.6530  -30.5810   24.0690 C   0  0  0  0  0  3  0  0  0  0  0  0
  -16.5560  -29.8310   23.6130 C   0  0  0  0  0  3  0  0  0  0  0  0
  -16.7700  -28.5990   22.9690 C   0  0  0  0  0  3  0  0  0  0  0  0
  -25.9180  -32.5110   23.9630 C   0  0  0  0  0  3  0  0  0  0  0  0
  -25.6120  -33.9230   24.2610 N   0  0  0  0  0  0  0  0  0  0  0  0
  -25.9600  -34.9660   23.4940 C   0  0  0  0  0  0  0  0  0  0  0  0
  -26.6300  -34.8380   22.4670 O   0  0  0  0  0  0  0  0  0  0  0  0
  -25.0140  -34.0940   25.0560 H   0  0  0  0  0  0  0  0  0  0  0  0
  -24.2410  -36.7730   23.1340 C   0  0  0  0  0  1  0  0  0  0  0  0
  -25.4910  -36.3700   23.9320 C   0  0  0  0  0  3  0  0  0  0  0  0
  -27.6360  -37.2710   24.7220 C   0  0  0  0  0  1  0  0  0  0  0  0
  -26.5300  -37.4130   23.7790 N   0  0  0  0  0  0  0  0  0  0  0  0
  -26.1310  -38.3400   23.8970 H   0  0  0  0  0  0  0  0  0  0  0  0
  -26.3440  -31.7620   25.2880 C   0  0  1  0  0  0  0  0  0  0  0  0
  -25.1870  -31.5680   26.2960 C   0  0  0  0  0  1  0  0  0  0  0  0
  -26.9270  -30.3660   24.9740 C   0  0  0  0  0  1  0  0  0  0  0  0
  -27.4680  -32.5550   25.9980 C   0  0  0  0  0  1  0  0  0  0  0  0
  1  5  1  0
  2  4  1  0
  3  1  1  0
  3  6  1  0
  5 45  1  0
  5  2  1  0
  6 15  1  0
  6  4  1  0
  7 15  1  0
  8 13  1  0
  9 10  1  0
  9  8  1  0
 11 10  1  0
 11 20  1  0
 11 12  1  0
 13  7  1  0
 13 12  1  0
 14  7  2  0
 15 16  1  0
 17 18  2  0
 18 37  1  0
 19 18  1  0
 19 22  1  0
 20 21  1  0
 20 17  1  0
 21 19  2  0
 22 23  1  0
 23 24  2  0
 25 28  1  0
 25 24  1  0
 26 25  2  0
 27 26  1  0
 27 22  2  0
 28 29  1  0
 29 34  2  0
 29 30  1  0
 30 31  2  0
 31 32  1  0
 32 36  1  0
 33 32  2  0
 34 33  1  0
 35 34  1  0
 37 38  1  0
 38 41  1  0
 38 40  1  0
 39 37  2  0
 42 17  1  0
 42 43  1  0
 44 42  1  0
 45 46  1  0
 47 58  2  0
 48 46  1  0
 48 53  1  0
 49 57  1  0
 49 59  1  0
 50 56  1  0
 50 52  1  0
 51 57  1  0
 52 51  1  0
 53 52  2  0
 54 48  2  0
 55 54  1  0
 55 50  2  0
 56 49  1  0
 57 47  1  0
 59 61  2  0
 60 59  1  0
 62 60  1  0
 63 72  2  0
 63 68  1  0
 64 60  1  0
 64 68  1  0
 65 64  1  0
 66 67  1  0
 66 65  1  0
 67 63  1  0
 68 69  2  0
 69 70  1  0
 71 70  2  0
 72 71  1  0
 73 47  1  0
 73 74  1  0
 73 83  1  0
 74 77  1  0
 75 79  1  0
 75 74  1  0
 76 75  2  0
 79 78  1  0
 81 82  1  0
 81 79  1  0
 81 80  1  0
 83 86  1  1
 83 84  1  0
 85 83  1  0
M  ISO  4   7 100  15 100  45 101  46 101
M  END
>  <TORSDO>  (65) 
F 17

>  <SCORE>  (65) 
-16.151

>  <name>  (65) 
64

>  <ligand_id>  (65) 
64

>  <original_smiles>  (65) 
[H]c1c([H])c([H])c2c(c1[H])C([H])([H])C([H])([H])C([H])([H])C2([H])N([H])C(=O)C1([H])N(C(=O)C([H])(N([H])C(=O)C([H])(N([H])C([H])([H])[H])C([H])([H])[H])C(C([H])([H])[H])(C([H])([H])[H])C([H])([H])[H])C([H])([H])c2c([H])c(OC([H])([H])C3([H])C([H])([H])C([H])([H])C([H])(N([H])C(=O)N4C([H])([H])C([H])([H])C([H])([H])C([H])(n5nc(-c6c([H])c([H])c(Oc7c([H])c([H])c(F)c([H])c7F)c([H])c6[H])c(C(=O)N([H])[H])c5N([H])[H])C4([H])[H])C([H])([H])C3([H])[H])c([H])c([H])c2C1([H])[H]

>  <smiles>  (65) 
[H]c1c([H])c([H])c2c(c1[H])C([H])([H])C([H])([H])C([H])([H])C2([H])N([H])C(=O)C1([H])N(C(=O)C([H])(N([H])C(=O)C([H])(N([H])C([H])([H])[H])C([H])([H])[H])C(C([H])([H])[H])(C([H])([H])[H])C([H])([H])[H])C([H])([H])c2c([H])c(OC([H])([H])C3([H])C([H])([H])C([H])([H])C([H])(N([H])C(=O)N4C([H])([H])C([H])([H])C([H])([H])C([H])(n5nc(-c6c([H])c([H])c(Oc7c([H])c([H])c(F)c([H])c7F)c([H])c6[H])c(C(=O)N([H])[H])c5N([H])[H])C4([H])[H])C([H])([H])C3([H])[H])c([H])c([H])c2C1([H])[H]

$$$$
65:0:0
     RDKit          3D

 98102  0  0  1  0  0  0  0  0999 V2000
  -24.0020  -22.0920   20.1710 C   0  0  0  0  0  3  0  0  0  0  0  0
  -23.6450  -23.3050   20.9100 C   0  0  0  0  0  3  0  0  0  0  0  0
  -25.2240  -21.3140   20.0100 C   0  0  0  0  0  3  0  0  0  0  0  0
  -24.4310  -24.1600   21.7550 C   0  0  0  0  0  3  0  0  0  0  0  0
  -26.5280  -21.5580   20.5380 C   0  0  0  0  0  3  0  0  0  0  0  0
  -25.9790  -23.1400   21.4180 C   0  0  0  0  0  0  0  0  0  0  0  0
  -22.3350  -28.7900   21.9020 C   0  0  0  0  0  1  0  0  0  0  0  0
  -23.5220  -26.1300   24.5360 C   0  0  0  0  0  3  0  0  0  0  0  0
  -22.7890  -30.0460   23.3080 C   0  0  0  0  0  2  0  0  0  0  0  0
  -23.8660  -27.8220   25.3850 C   0  0  0  0  0  3  0  0  0  0  0  0
  -23.1130  -25.8640   22.7060 C   0  0  0  0  0  1  0  0  0  0  0  0
  -23.6220  -29.4780   24.7880 N   0  0  0  0  0  4  0  0  0  0  0  0
  -23.2420  -30.0180   25.5490 H   0  0  0  0  0  0  0  0  0  0  0  0
  -24.5750  -29.8030   24.7020 H   0  0  0  0  0  0  0  0  0  0  0  0
  -28.0820  -19.9510   19.9150 C   0  0  0  0  0 15  0  0  0  0  0  0
  -30.1350  -16.5890   19.2080 C   0  0  0  0  0  0  0  0  0  0  0  0
  -31.0830  -13.9100   18.3110 C   0  0  0  0  0  2  0  0  0  0  0  0
  -30.3280  -12.8760   17.3490 C   0  0  0  0  0  2  0  0  0  0  0  0
  -29.0810  -12.2920   18.0090 C   0  0  0  0  0  2  0  0  0  0  0  0
  -28.5430  -13.3860   18.9330 C   0  0  0  0  0  3  0  0  0  0  0  0
  -29.5320  -13.9940   19.9310 C   0  0  0  0  0  2  0  0  0  0  0  0
  -30.1960  -15.0130   19.1210 N   0  0  0  0  0  0  0  0  0  0  0  0
  -31.3590  -16.6330   18.7710 O   0  0  0  0  0  0  0  0  0  0  0  0
  -28.9140  -17.9270   19.6080 N   0  0  0  0  0  2  0  0  0  0  0  0
  -28.1240  -17.3420   19.8500 H   0  0  0  0  0  0  0  0  0  0  0  0
  -26.6200  -14.0630   20.2970 C   0  0  0  0  0  0  0  0  0  0  0  0
  -25.5850  -13.3670   20.8330 C   0  0  0  0  0  0  0  0  0  0  0  0
  -25.7940  -12.0000   20.4730 C   0  0  0  0  0  0  0  0  0  0  0  0
  -27.3590  -13.1100   19.6380 N   0  0  0  0  0  0  0  0  0  0  0  0
  -26.9270  -11.8500   19.8060 N   0  0  0  0  0  0  0  0  0  0  0  0
  -24.9400  -10.8340   20.6540 C   0  0  0  0  0  0  0  0  0  0  0  0
  -25.2900   -9.7900   21.5360 C   0  0  0  0  0  3  0  0  0  0  0  0
  -24.4300   -8.6850   21.6980 C   0  0  0  0  0  3  0  0  0  0  0  0
  -23.2140   -8.6230   20.9790 C   0  0  0  0  0  0  0  0  0  0  0  0
  -22.8900   -9.6530   20.0780 C   0  0  0  0  0  3  0  0  0  0  0  0
  -23.7480  -10.7490   19.9110 C   0  0  0  0  0  3  0  0  0  0  0  0
  -22.3230   -7.5820   21.0590 O   0  0  0  0  0  0  0  0  0  0  0  0
  -22.1240   -6.9000   22.2310 C   0  0  0  0  0  0  0  0  0  0  0  0
  -21.5710   -7.5220   23.3720 C   0  0  0  0  0  3  0  0  0  0  0  0
  -21.3200   -6.7620   24.5320 C   0  0  0  0  0  3  0  0  0  0  0  0
  -21.6100   -5.3850   24.5500 C   0  0  0  0  0  0  0  0  0  0  0  0
  -22.1560   -4.7650   23.4130 C   0  0  0  0  0  3  0  0  0  0  0  0
  -22.4100   -5.5220   22.2560 C   0  0  0  0  0  0  0  0  0  0  0  0
  -22.9170   -4.9170   21.1530 F   0  0  0  0  0  0  0  0  0  0  0  0
  -21.3600   -4.6530   25.6610 F   0  0  0  0  0  0  0  0  0  0  0  0
  -24.4150  -13.9710   21.5310 C   0  0  0  0  0  0  0  0  0  0  0  0
  -23.8240  -13.2390   22.4650 N   0  0  0  0  0  0  0  0  0  0  0  0
  -24.0550  -15.1210   21.2780 O   0  0  0  0  0  0  0  0  0  0  0  0
  -24.1450  -12.3070   22.6760 H   0  0  0  0  0  0  0  0  0  0  0  0
  -23.0380  -13.6130   22.9780 H   0  0  0  0  0  0  0  0  0  0  0  0
  -26.9920  -15.4130   20.2750 N   0  0  0  0  0  0  0  0  0  0  0  0
  -26.2890  -16.0840   20.5670 H   0  0  0  0  0  0  0  0  0  0  0  0
  -27.4760  -15.7190   19.4420 H   0  0  0  0  0  0  0  0  0  0  0  0
  -27.0150  -23.9020   22.0320 O   0  0  0  0  0  0  0  0  0  0  0  0
  -28.0910  -23.4450   22.9440 C   0  0  0  0  0  2  0  0  0  0  0  0
  -29.7400  -21.4540   23.4400 C   0  0  0  0  0  1  0  0  0  0  0  0
  -29.1980  -22.4180   22.3620 C   0  0  0  0  0  3  0  0  0  0  0  0
  -30.3880  -22.7410   21.4380 O   0  0  0  0  0  0  0  0  0  0  0  0
  -27.1510  -29.0310   20.8320 C   0  0  0  0  0  0  0  0  0  0  0  0
  -30.2130  -23.8360   20.5940 C   0  0  0  0  0  0  0  0  0  0  0  0
  -27.3180  -27.5150   18.9550 C   0  0  0  0  0  3  0  0  0  0  0  0
  -29.0950  -25.7620   18.8780 C   0  0  0  0  0  0  0  0  0  0  0  0
  -29.2240  -27.6010   20.5750 C   0  0  0  0  0  2  0  0  0  0  0  0
  -29.4960  -26.1490   20.1670 C   0  0  0  0  0  0  0  0  0  0  0  0
  -30.0570  -25.1820   21.0410 C   0  0  0  0  0  3  0  0  0  0  0  0
  -30.0020  -23.5680   19.2300 C   0  0  0  0  0  3  0  0  0  0  0  0
  -29.3430  -24.4740   18.4040 C   0  0  0  0  0  3  0  0  0  0  0  0
  -28.3570  -26.7960   18.0640 C   0  0  0  0  0  2  0  0  0  0  0  0
  -27.9070  -28.1300   20.1430 N   0  0  0  0  0  0  0  0  0  0  0  0
  -26.0180  -29.3720   20.4460 O   0  0  0  0  0  0  0  0  0  0  0  0
  -26.4010  -26.4540   19.4960 C   0  0  0  0  0  0  0  0  0  0  0  0
  -25.6020  -26.0000   18.6090 N   0  0  0  0  0  0  0  0  0  0  0  0
  -26.2910  -26.1010   20.6600 O   0  0  0  0  0  0  0  0  0  0  0  0
  -25.7910  -26.2350   17.6420 H   0  0  0  0  0  0  0  0  0  0  0  0
  -21.0930  -25.9700   18.1340 C   0  0  0  0  0  3  0  0  0  0  0  0
  -24.4050  -25.2230   18.8660 C   0  0  0  0  0  2  0  0  0  0  0  0
  -24.5560  -24.4080   17.1590 C   0  0  0  0  0  2  0  0  0  0  0  0
  -22.9120  -24.2960   16.2640 C   0  0  0  0  0  2  0  0  0  0  0  0
  -21.3330  -24.9110   16.8810 C   0  0  0  0  0  2  0  0  0  0  0  0
  -22.1400  -25.9640   19.2350 C   0  0  0  0  0  2  0  0  0  0  0  0
  -21.6050  -27.1740   20.0530 C   0  0  0  0  0  2  0  0  0  0  0  0
  -20.9700  -28.4110   19.6670 C   0  0  0  0  0  2  0  0  0  0  0  0
  -20.2730  -28.4100   18.4750 C   0  0  0  0  0  2  0  0  0  0  0  0
  -20.2730  -27.1590   17.8030 C   0  0  0  0  0  2  0  0  0  0  0  0
  -27.6890  -29.6390   22.1460 C   0  0  0  0  0  3  0  0  0  0  0  0
  -26.5420  -30.2480   22.8190 N   0  0  0  0  0  0  0  0  0  0  0  0
  -26.1910  -31.5310   22.6750 C   0  0  0  0  0  0  0  0  0  0  0  0
  -26.8560  -32.3350   22.0170 O   0  0  0  0  0  0  0  0  0  0  0  0
  -25.9250  -29.6270   23.3210 H   0  0  0  0  0  0  0  0  0  0  0  0
  -24.1520  -32.9800   22.4650 C   0  0  0  0  0  1  0  0  0  0  0  0
  -24.9050  -31.9980   23.3750 C   0  0  0  0  0  3  0  0  0  0  0  0
  -25.5360  -31.6500   25.7210 C   0  0  0  0  0  1  0  0  0  0  0  0
  -25.1550  -32.6180   24.6940 N   0  0  0  0  0  0  0  0  0  0  0  0
  -24.3320  -33.1170   25.0210 H   0  0  0  0  0  0  0  0  0  0  0  0
  -28.4020  -28.5890   23.0820 C   0  0  1  0  0  0  0  0  0  0  0  0
  -27.5430  -27.3410   23.4020 C   0  0  0  0  0  1  0  0  0  0  0  0
  -29.7260  -28.0950   22.4580 C   0  0  0  0  0  1  0  0  0  0  0  0
  -28.7790  -29.2800   24.4110 C   0  0  0  0  0  1  0  0  0  0  0  0
  1  2  1  0
  2  4  2  0
  3  1  2  0
  3  5  1  0
  5  6  2  0
  6  4  1  0
  6 54  1  0
  7  9  1  0
  8 10  2  0
  9 12  1  0
 11  8  1  0
 12 10  1  0
 12 13  1  0
 14 12  1  0
 16 24  1  0
 17 22  1  0
 18 19  1  0
 18 17  1  0
 20 19  1  0
 20 29  1  0
 20 21  1  0
 22 16  1  0
 22 21  1  0
 23 16  2  0
 24 25  1  0
 26 27  2  0
 27 46  1  0
 28 31  1  0
 28 27  1  0
 29 30  1  0
 29 26  1  0
 30 28  2  0
 31 32  1  0
 32 33  2  0
 34 37  1  0
 34 33  1  0
 35 34  2  0
 36 35  1  0
 36 31  2  0
 37 38  1  0
 38 43  2  0
 38 39  1  0
 39 40  2  0
 40 41  1  0
 41 45  1  0
 42 41  2  0
 43 42  1  0
 44 43  1  0
 46 47  1  0
 47 49  1  0
 47 50  1  0
 48 46  2  0
 51 26  1  0
 51 52  1  0
 53 51  1  0
 54 55  1  0
 57 55  1  0
 57 56  1  0
 58 57  1  0
 60 65  1  0
 60 58  1  0
 61 71  1  0
 61 69  1  0
 62 64  1  0
 64 63  1  0
 64 65  2  0
 66 60  2  0
 67 62  2  0
 67 66  1  0
 68 62  1  0
 68 61  1  0
 69 63  1  0
 69 59  1  0
 70 59  2  0
 71 73  2  0
 72 76  1  0
 72 71  1  0
 74 72  1  0
 75 80  1  0
 77 76  1  0
 78 79  1  0
 78 77  1  0
 79 75  1  0
 80 81  1  0
 82 81  1  0
 83 82  1  0
 84 75  1  0
 84 83  1  0
 85 59  1  0
 85 86  1  0
 85 95  1  0
 86 89  1  0
 87 86  1  0
 87 91  1  0
 88 87  2  0
 91 90  1  0
 91 93  1  0
 93 94  1  0
 93 92  1  0
 95 96  1  1
 95 98  1  0
 97 95  1  0
M  ISO  4  16 100  24 100  57 101  58 101
M  END
>  <TORSDO>  (66) 
F 21

>  <SCORE>  (66) 
-2.259

>  <name>  (66) 
65

>  <ligand_id>  (66) 
65

>  <original_smiles>  (66) 
[H]c1c([H])c([H])c2c(c1[H])C([H])([H])C([H])([H])C([H])([H])C2([H])N([H])C(=O)C1([H])N(C(=O)C([H])(N([H])C(=O)C([H])(N([H])C([H])([H])[H])C([H])([H])[H])C(C([H])([H])[H])(C([H])([H])[H])C([H])([H])[H])C([H])([H])c2c([H])c(OC([H])(C([H])([H])[H])C([H])([H])Oc3c(C([H])([H])N([H])C(=O)N4C([H])([H])C([H])([H])C([H])([H])C([H])(n5nc(-c6c([H])c([H])c(Oc7c([H])c([H])c(F)c([H])c7F)c([H])c6[H])c(C(=O)N([H])[H])c5N([H])[H])C4([H])[H])c([H])c([H])c([H])c3C3([H])C([H])([H])C([H])([H])[N+]([H])([H])C([H])([H])C3([H])[H])c([H])c([H])c2C1([H])[H]

>  <smiles>  (66) 
[H]c1c([H])c([H])c2c(c1[H])C([H])([H])C([H])([H])C([H])([H])C2([H])N([H])C(=O)C1([H])N(C(=O)C([H])(N([H])C(=O)C([H])(N([H])C([H])([H])[H])C([H])([H])[H])C(C([H])([H])[H])(C([H])([H])[H])C([H])([H])[H])C([H])([H])c2c([H])c(OC([H])(C([H])([H])[H])C([H])([H])Oc3c(C([H])([H])N([H])C(=O)N4C([H])([H])C([H])([H])C([H])([H])C([H])(n5nc(-c6c([H])c([H])c(Oc7c([H])c([H])c(F)c([H])c7F)c([H])c6[H])c(C(=O)N([H])[H])c5N([H])[H])C4([H])[H])c([H])c([H])c([H])c3C3([H])C([H])([H])C([H])([H])[N+]([H])([H])C([H])([H])C3([H])[H])c([H])c([H])c2C1([H])[H]

$$$$
66:0:0
     RDKit          3D

 95103  0  0  1  0  0  0  0  0999 V2000
  -28.1990  -22.2660   19.3080 C   0  0  0  0  0  3  0  0  0  0  0  0
  -28.4350  -20.9220   19.2710 C   0  0  0  0  0  3  0  0  0  0  0  0
  -29.2610  -22.9020   20.0160 C   0  0  0  0  0  0  0  0  0  0  0  0
  -30.0750  -21.8850   20.4650 C   0  0  0  0  0  0  0  0  0  0  0  0
  -31.3340  -21.9720   21.2720 C   0  0  0  0  0  1  0  0  0  0  0  0
  -29.6020  -20.6640   19.9700 N   0  0  0  0  0  0  0  0  0  0  0  0
  -30.6360  -24.8630   19.2670 C   0  0  0  0  0  1  0  0  0  0  0  0
  -29.4850  -24.4140   20.1820 C   0  0  0  0  0  3  0  0  0  0  0  0
  -28.2130  -25.2560   19.9010 C   0  0  0  0  0  2  0  0  0  0  0  0
  -28.3450  -26.6690   20.1750 O   0  0  0  0  0  0  0  0  0  0  0  0
  -24.5710  -31.8930   23.2460 C   0  0  0  0  0  0  0  0  0  0  0  0
  -27.1800  -27.4200   20.1550 C   0  0  0  0  0  0  0  0  0  0  0  0
  -23.3530  -30.4970   21.6100 C   0  0  0  0  0  3  0  0  0  0  0  0
  -24.7930  -28.9570   20.1810 C   0  0  0  0  0  0  0  0  0  0  0  0
  -25.8840  -30.8400   21.4040 C   0  0  0  0  0  2  0  0  0  0  0  0
  -25.9610  -29.4700   20.7600 C   0  0  0  0  0  0  0  0  0  0  0  0
  -27.1560  -28.7110   20.7410 C   0  0  0  0  0  3  0  0  0  0  0  0
  -25.9840  -26.9310   19.5720 C   0  0  0  0  0  3  0  0  0  0  0  0
  -24.8000  -27.6870   19.5880 C   0  0  0  0  0  3  0  0  0  0  0  0
  -23.5550  -29.8210   20.2300 C   0  0  0  0  0  2  0  0  0  0  0  0
  -24.6220  -31.0900   22.1450 N   0  0  0  0  0  0  0  0  0  0  0  0
  -23.4920  -32.1680   23.7890 O   0  0  0  0  0  0  0  0  0  0  0  0
  -22.7020  -29.4750   22.5710 C   0  0  0  0  0  0  0  0  0  0  0  0
  -21.3770  -29.2920   22.4440 N   0  0  0  0  0  0  0  0  0  0  0  0
  -23.3860  -28.8510   23.3870 O   0  0  0  0  0  0  0  0  0  0  0  0
  -20.8860  -29.8500   21.7590 H   0  0  0  0  0  0  0  0  0  0  0  0
  -18.0040  -28.0930   22.9410 C   0  0  0  0  0  0  0  0  0  0  0  0
  -20.5610  -28.3560   23.2170 C   0  0  0  0  0  3  0  0  0  0  0  0
  -20.6660  -26.9220   22.6480 C   0  0  0  0  0  2  0  0  0  0  0  0
  -19.5670  -26.5930   21.6320 C   0  0  0  0  0  2  0  0  0  0  0  0
  -18.1840  -26.7400   22.2730 C   0  0  0  0  0  2  0  0  0  0  0  0
  -19.1210  -28.8580   23.3700 C   0  0  0  0  0  0  0  0  0  0  0  0
  -18.9000  -30.1240   23.9540 C   0  0  0  0  0  3  0  0  0  0  0  0
  -17.5940  -30.6260   24.1110 C   0  0  0  0  0  3  0  0  0  0  0  0
  -16.4920  -29.8580   23.6980 C   0  0  0  0  0  3  0  0  0  0  0  0
  -16.6980  -28.5930   23.1200 C   0  0  0  0  0  3  0  0  0  0  0  0
  -25.8610  -32.5190   23.8610 C   0  0  0  0  0  3  0  0  0  0  0  0
  -25.5560  -33.9160   24.1960 N   0  0  0  0  0  0  0  0  0  0  0  0
  -25.8810  -34.9690   23.4340 C   0  0  0  0  0  0  0  0  0  0  0  0
  -26.5410  -34.8660   22.3960 O   0  0  0  0  0  0  0  0  0  0  0  0
  -24.9700  -34.0700   25.0030 H   0  0  0  0  0  0  0  0  0  0  0  0
  -24.1490  -36.7600   23.0960 C   0  0  0  0  0  1  0  0  0  0  0  0
  -25.3980  -36.3570   23.8970 C   0  0  0  0  0  3  0  0  0  0  0  0
  -27.5400  -37.2400   24.7100 C   0  0  0  0  0  1  0  0  0  0  0  0
  -26.4310  -37.4090   23.7740 N   0  0  0  0  0  0  0  0  0  0  0  0
  -26.0270  -38.3290   23.9220 H   0  0  0  0  0  0  0  0  0  0  0  0
  -26.3850  -31.7420   25.1300 C   0  0  1  0  0  0  0  0  0  0  0  0
  -25.2990  -31.5030   26.2050 C   0  0  0  0  0  1  0  0  0  0  0  0
  -26.9640  -30.3650   24.7290 C   0  0  0  0  0  1  0  0  0  0  0  0
  -27.5410  -32.5330   25.7870 C   0  0  0  0  0  1  0  0  0  0  0  0
  -30.2910  -19.3580   20.0160 C   0  0  0  0  0  2  0  0  0  0  0  0
  -29.6270  -18.1860   20.8100 C   0  0  0  0  0  3  0  0  0  0  0  0
  -28.2680  -17.8820   20.3200 N   0  0  0  0  0  4  0  0  0  0  0  0
  -28.2910  -17.4990   19.3920 H   0  0  0  0  0  0  0  0  0  0  0  0
  -27.7300  -18.7320   20.3050 H   0  0  0  0  0  0  0  0  0  0  0  0
  -27.7980  -17.2460   20.9400 H   0  0  0  0  0  0  0  0  0  0  0  0
  -30.5750  -16.9430   20.7590 C   0  0  0  0  0  2  0  0  0  0  0  0
  -30.6840  -14.4910   20.4950 C   0  0  0  0  0  0  0  0  0  0  0  0
  -30.3480  -12.3370   19.3610 C   0  0  0  0  0  2  0  0  0  0  0  0
  -29.4210  -12.5540   18.1470 C   0  0  0  0  0  2  0  0  0  0  0  0
  -27.9450  -12.4260   18.5690 C   0  0  0  0  0  2  0  0  0  0  0  0
  -27.6050  -13.2600   19.8320 C   0  0  0  0  0  3  0  0  0  0  0  0
  -28.6550  -13.0540   20.9480 C   0  0  0  0  0  2  0  0  0  0  0  0
  -29.9830  -13.3330   20.3800 N   0  0  0  0  0  0  0  0  0  0  0  0
  -31.8290  -14.6160   20.0530 O   0  0  0  0  0  0  0  0  0  0  0  0
  -30.0080  -15.5800   20.9180 N   0  0  0  0  0  0  0  0  0  0  0  0
  -29.0950  -15.4420   21.3220 H   0  0  0  0  0  0  0  0  0  0  0  0
  -25.2020  -13.8700   20.5240 C   0  0  0  0  0  0  0  0  0  0  0  0
  -24.1320  -13.1000   20.8930 C   0  0  0  0  0  0  0  0  0  0  0  0
  -24.5910  -11.7480   20.8650 C   0  0  0  0  0  0  0  0  0  0  0  0
  -26.2490  -12.9870   20.3020 N   0  0  0  0  0  0  0  0  0  0  0  0
  -25.8830  -11.7070   20.5650 N   0  0  0  0  0  0  0  0  0  0  0  0
  -23.8600  -10.4870   21.0510 C   0  0  0  0  0  0  0  0  0  0  0  0
  -24.2860   -9.5220   21.9910 C   0  0  0  0  0  3  0  0  0  0  0  0
  -23.5610   -8.3250   22.1670 C   0  0  0  0  0  3  0  0  0  0  0  0
  -22.3950   -8.0850   21.4030 C   0  0  0  0  0  0  0  0  0  0  0  0
  -21.9870   -9.0390   20.4540 C   0  0  0  0  0  3  0  0  0  0  0  0
  -22.7130  -10.2270   20.2760 C   0  0  0  0  0  3  0  0  0  0  0  0
  -21.6400   -6.9410   21.4860 O   0  0  0  0  0  0  0  0  0  0  0  0
  -21.5830   -6.1990   22.6390 C   0  0  0  0  0  0  0  0  0  0  0  0
  -21.1460   -6.7550   23.8600 C   0  0  0  0  0  3  0  0  0  0  0  0
  -21.0360   -5.9390   25.0040 C   0  0  0  0  0  3  0  0  0  0  0  0
  -21.3530   -4.5700   24.9280 C   0  0  0  0  0  0  0  0  0  0  0  0
  -21.7830   -4.0130   23.7100 C   0  0  0  0  0  3  0  0  0  0  0  0
  -21.8940   -4.8260   22.5670 C   0  0  0  0  0  0  0  0  0  0  0  0
  -22.2890   -4.2810   21.3920 F   0  0  0  0  0  0  0  0  0  0  0  0
  -21.2390   -3.7850   26.0240 F   0  0  0  0  0  0  0  0  0  0  0  0
  -22.7320  -13.5810   21.1520 C   0  0  0  0  0  0  0  0  0  0  0  0
  -21.9940  -12.8880   22.0140 N   0  0  0  0  0  0  0  0  0  0  0  0
  -22.3020  -14.6040   20.6220 O   0  0  0  0  0  0  0  0  0  0  0  0
  -22.3570  -12.0610   22.4650 H   0  0  0  0  0  0  0  0  0  0  0  0
  -21.0550  -13.1910   22.2270 H   0  0  0  0  0  0  0  0  0  0  0  0
  -25.3700  -15.2380   20.3260 N   0  0  0  0  0  0  0  0  0  0  0  0
  -24.5210  -15.7930   20.2940 H   0  0  0  0  0  0  0  0  0  0  0  0
  -26.0360  -15.5250   19.6210 H   0  0  0  0  0  0  0  0  0  0  0  0
  1  3  1  0
  2  1  2  0
  2  6  1  0
  3  8  1  0
  3  4  2  0
  4  5  1  0
  6 51  1  0
  6  4  1  0
  8  7  1  0
  9 10  1  0
  9  8  1  0
 11 22  2  0
 12 10  1  0
 12 17  1  0
 13 21  1  0
 13 23  1  0
 14 20  1  0
 14 16  1  0
 15 21  1  0
 16 15  1  0
 17 16  2  0
 18 19  1  0
 18 12  2  0
 19 14  2  0
 20 13  1  0
 21 11  1  0
 23 25  2  0
 24 23  1  0
 26 24  1  0
 27 36  2  0
 27 32  1  0
 28 24  1  0
 28 32  1  0
 29 28  1  0
 30 31  1  0
 30 29  1  0
 31 27  1  0
 32 33  2  0
 33 34  1  0
 35 34  2  0
 36 35  1  0
 37 11  1  0
 37 38  1  0
 37 47  1  0
 38 41  1  0
 39 43  1  0
 39 38  1  0
 40 39  2  0
 43 42  1  0
 45 43  1  0
 45 46  1  0
 45 44  1  0
 47 50  1  1
 47 48  1  0
 49 47  1  0
 52 51  1  0
 53 52  1  0
 53 56  1  0
 54 53  1  0
 55 53  1  0
 57 52  1  0
 57 66  1  0
 58 66  1  0
 59 64  1  0
 60 61  1  0
 60 59  1  0
 62 61  1  0
 62 71  1  0
 62 63  1  0
 64 58  1  0
 64 63  1  0
 65 58  2  0
 66 67  1  0
 68 69  2  0
 69 88  1  0
 70 69  1  0
 70 73  1  0
 71 68  1  0
 71 72  1  0
 72 70  2  0
 73 74  1  0
 74 75  2  0
 76 79  1  0
 76 75  1  0
 77 76  2  0
 78 77  1  0
 78 73  2  0
 79 80  1  0
 80 81  1  0
 81 82  2  0
 83 82  1  0
 83 87  1  0
 84 83  2  0
 85 80  2  0
 85 84  1  0
 86 85  1  0
 88 89  1  0
 89 92  1  0
 89 91  1  0
 90 88  2  0
 93 68  1  0
 94 93  1  0
 95 93  1  0
M  ISO  4   9 101  10 101  58 100  66 100
M  END
>  <TORSDO>  (67) 
F 22

>  <SCORE>  (67) 
-13.457

>  <name>  (67) 
66

>  <ligand_id>  (67) 
66

>  <original_smiles>  (67) 
[H]c1c([H])c([H])c2c(c1[H])C([H])([H])C([H])([H])C([H])([H])C2([H])N([H])C(=O)C1([H])N(C(=O)C([H])(N([H])C(=O)C([H])(N([H])C([H])([H])[H])C([H])([H])[H])C(C([H])([H])[H])(C([H])([H])[H])C([H])([H])[H])C([H])([H])c2c([H])c(OC([H])([H])C([H])(c3c([H])c([H])n(C([H])([H])C([H])(C([H])([H])N([H])C(=O)N4C([H])([H])C([H])([H])C([H])([H])C([H])(n5nc(-c6c([H])c([H])c(Oc7c([H])c([H])c(F)c([H])c7F)c([H])c6[H])c(C(=O)N([H])[H])c5N([H])[H])C4([H])[H])[N+]([H])([H])[H])c3C([H])([H])[H])C([H])([H])[H])c([H])c([H])c2C1([H])[H]

>  <smiles>  (67) 
[H]c1c([H])c([H])c2c(c1[H])C([H])([H])C([H])([H])C([H])([H])C2([H])N([H])C(=O)C1([H])N(C(=O)C([H])(N([H])C(=O)C([H])(N([H])C([H])([H])[H])C([H])([H])[H])C(C([H])([H])[H])(C([H])([H])[H])C([H])([H])[H])C([H])([H])c2c([H])c(OC([H])([H])C([H])(c3c([H])c([H])n(C([H])([H])C([H])(C([H])([H])N([H])C(=O)N4C([H])([H])C([H])([H])C([H])([H])C([H])(n5nc(-c6c([H])c([H])c(Oc7c([H])c([H])c(F)c([H])c7F)c([H])c6[H])c(C(=O)N([H])[H])c5N([H])[H])C4([H])[H])[N+]([H])([H])[H])c3C([H])([H])[H])C([H])([H])[H])c([H])c([H])c2C1([H])[H]

$$$$
67:0:0
     RDKit          3D

104113  0  0  1  0  0  0  0  0999 V2000
  -30.8870  -14.6780   20.0140 C   0  0  0  0  0  0  0  0  0  0  0  0
  -31.3200  -12.1400   20.4190 C   0  0  0  0  0  2  0  0  0  0  0  0
  -30.7790  -11.2580   19.2490 C   0  0  0  0  0  2  0  0  0  0  0  0
  -29.2480  -11.0420   19.3110 C   0  0  0  0  0  2  0  0  0  0  0  0
  -28.4900  -12.3120   19.7620 C   0  0  0  0  0  3  0  0  0  0  0  0
  -29.1830  -12.9030   21.0090 C   0  0  0  0  0  2  0  0  0  0  0  0
  -30.4920  -13.4040   20.5350 N   0  0  0  0  0  0  0  0  0  0  0  0
  -32.1250  -14.7980   19.9220 O   0  0  0  0  0  0  0  0  0  0  0  0
  -28.5870  -15.8630   19.9790 C   0  0  0  0  0  2  0  0  0  0  0  0
  -27.9750  -17.0770   20.0700 C   0  0  0  0  0  3  0  0  0  0  0  0
  -28.8950  -18.0370   19.5860 C   0  0  0  0  0  3  0  0  0  0  0  0
  -29.8240  -17.3660   18.8190 C   0  0  0  0  0  3  0  0  0  0  0  0
  -28.7360  -19.5470   19.7880 C   0  0  0  0  0  2  0  0  0  0  0  0
  -31.5100  -19.3310   18.2520 C   0  0  0  0  0  2  0  0  0  0  0  0
  -31.2920  -19.6740   19.7400 C   0  0  0  0  0  2  0  0  0  0  0  0
  -30.4340  -18.4240   17.6160 C   0  0  0  0  0  3  0  0  0  0  0  0
  -29.9200  -15.9730   19.5540 N   0  0  0  0  0  0  0  0  0  0  0  0
  -29.9850  -20.3120   20.0330 N   0  0  0  0  0  4  0  0  0  0  0  0
  -29.9880  -20.5180   21.0170 H   0  0  0  0  0  0  0  0  0  0  0  0
  -29.9250  -21.2010   19.5670 H   0  0  0  0  0  0  0  0  0  0  0  0
  -26.0110  -12.9210   19.6490 C   0  0  0  0  0  0  0  0  0  0  0  0
  -24.8730  -12.2180   19.9240 C   0  0  0  0  0  0  0  0  0  0  0  0
  -25.3020  -10.9350   20.3800 C   0  0  0  0  0  0  0  0  0  0  0  0
  -27.0640  -12.0740   19.9480 N   0  0  0  0  0  0  0  0  0  0  0  0
  -26.6290  -10.8900   20.4500 N   0  0  0  0  0  0  0  0  0  0  0  0
  -24.5190   -9.7340   20.7060 C   0  0  0  0  0  0  0  0  0  0  0  0
  -24.8640   -8.9020   21.7940 C   0  0  0  0  0  3  0  0  0  0  0  0
  -24.0900   -7.7620   22.0950 C   0  0  0  0  0  3  0  0  0  0  0  0
  -22.9530   -7.4520   21.3130 C   0  0  0  0  0  0  0  0  0  0  0  0
  -22.6240   -8.2730   20.2220 C   0  0  0  0  0  3  0  0  0  0  0  0
  -23.3990   -9.4020   19.9180 C   0  0  0  0  0  3  0  0  0  0  0  0
  -22.1490   -6.3590   21.5220 O   0  0  0  0  0  0  0  0  0  0  0  0
  -22.0450   -5.7640   22.7520 C   0  0  0  0  0  0  0  0  0  0  0  0
  -21.6290   -6.4820   23.8960 C   0  0  0  0  0  3  0  0  0  0  0  0
  -21.4680   -5.8140   25.1270 C   0  0  0  0  0  3  0  0  0  0  0  0
  -21.7200   -4.4340   25.2180 C   0  0  0  0  0  0  0  0  0  0  0  0
  -22.1360   -3.7170   24.0810 C   0  0  0  0  0  3  0  0  0  0  0  0
  -22.2920   -4.3800   22.8510 C   0  0  0  0  0  0  0  0  0  0  0  0
  -22.6700   -3.6820   21.7540 F   0  0  0  0  0  0  0  0  0  0  0  0
  -21.5630   -3.7910   26.3980 F   0  0  0  0  0  0  0  0  0  0  0  0
  -23.4680  -12.6760   19.6810 C   0  0  0  0  0  0  0  0  0  0  0  0
  -22.5270  -12.2080   20.4920 N   0  0  0  0  0  0  0  0  0  0  0  0
  -23.2060  -13.5060   18.8110 O   0  0  0  0  0  0  0  0  0  0  0  0
  -22.7260  -11.4960   21.1800 H   0  0  0  0  0  0  0  0  0  0  0  0
  -21.5710  -12.5040   20.3570 H   0  0  0  0  0  0  0  0  0  0  0  0
  -26.2370  -14.2030   19.1590 N   0  0  0  0  0  0  0  0  0  0  0  0
  -25.4760  -14.7670   18.7930 H   0  0  0  0  0  0  0  0  0  0  0  0
  -27.1470  -14.5490   18.8790 H   0  0  0  0  0  0  0  0  0  0  0  0
  -26.5690  -17.3550   20.5070 C   0  0  0  0  0  0  0  0  0  0  0  0
  -25.8180  -16.5220   21.2400 N   0  0  0  0  0  0  0  0  0  0  0  0
  -26.1040  -18.4710   20.2840 O   0  0  0  0  0  0  0  0  0  0  0  0
  -25.0240  -16.9960   21.6450 H   0  0  0  0  0  0  0  0  0  0  0  0
  -25.9230  -15.0990   21.5510 C   0  0  0  0  0  2  0  0  0  0  0  0
  -24.5220  -15.2020   23.6860 C   0  0  0  0  0  1  0  0  0  0  0  0
  -24.6730  -13.0510   22.3860 C   0  0  0  0  0  1  0  0  0  0  0  0
  -24.6330  -14.5900   22.2690 C   0  0  2  0  0  0  0  0  0  0  0  0
  -23.4290  -14.9730   21.4930 N   0  0  0  0  0  4  0  0  0  0  0  0
  -22.5950  -14.6250   21.9340 H   0  0  0  0  0  0  0  0  0  0  0  0
  -23.4710  -14.5950   20.5630 H   0  0  0  0  0  0  0  0  0  0  0  0
  -23.3330  -15.9710   21.4100 H   0  0  0  0  0  0  0  0  0  0  0  0
  -29.4800  -19.5220   16.5600 C   0  0  0  0  0  2  0  0  0  0  0  0
  -29.7300  -21.1700   15.9250 C   0  0  0  0  0  2  0  0  0  0  0  0
  -28.7170  -22.6370   15.8960 C   0  0  0  0  0  2  0  0  0  0  0  0
  -29.0300  -24.2370   15.8420 O   0  0  0  0  0  0  0  0  0  0  0  0
  -26.7370  -28.3020   21.7280 C   0  0  0  0  0  0  0  0  0  0  0  0
  -28.2170  -25.3220   16.4400 C   0  0  0  0  0  0  0  0  0  0  0  0
  -25.2370  -28.1160   19.7840 C   0  0  0  0  0  3  0  0  0  0  0  0
  -26.3020  -27.2550   17.5940 C   0  0  0  0  0  0  0  0  0  0  0  0
  -27.7900  -28.0080   19.4380 C   0  0  0  0  0  2  0  0  0  0  0  0
  -27.5690  -27.1290   18.1760 C   0  0  0  0  0  0  0  0  0  0  0  0
  -28.5260  -26.1930   17.5890 C   0  0  0  0  0  3  0  0  0  0  0  0
  -26.9450  -25.5880   15.8910 C   0  0  0  0  0  3  0  0  0  0  0  0
  -26.0130  -26.5060   16.4400 C   0  0  0  0  0  3  0  0  0  0  0  0
  -25.2800  -28.1900   18.2340 C   0  0  0  0  0  2  0  0  0  0  0  0
  -26.6150  -28.1360   20.3730 N   0  0  0  0  0  0  0  0  0  0  0  0
  -25.7440  -28.4490   22.4600 O   0  0  0  0  0  0  0  0  0  0  0  0
  -24.4020  -26.8840   20.2190 C   0  0  0  0  0  0  0  0  0  0  0  0
  -23.0790  -26.9130   19.9710 N   0  0  0  0  0  0  0  0  0  0  0  0
  -24.9540  -25.9170   20.7490 O   0  0  0  0  0  0  0  0  0  0  0  0
  -22.6930  -27.7450   19.5440 H   0  0  0  0  0  0  0  0  0  0  0  0
  -19.6710  -25.7840   19.4520 C   0  0  0  0  0  0  0  0  0  0  0  0
  -22.1340  -25.8260   20.2470 C   0  0  0  0  0  3  0  0  0  0  0  0
  -22.3540  -24.6380   19.2830 C   0  0  0  0  0  2  0  0  0  0  0  0
  -21.4680  -24.6990   18.0350 C   0  0  0  0  0  2  0  0  0  0  0  0
  -19.9880  -24.7040   18.4290 C   0  0  0  0  0  2  0  0  0  0  0  0
  -20.6830  -26.3230   20.2930 C   0  0  0  0  0  0  0  0  0  0  0  0
  -20.3400  -27.3450   21.2050 C   0  0  0  0  0  3  0  0  0  0  0  0
  -19.0220  -27.8300   21.2840 C   0  0  0  0  0  3  0  0  0  0  0  0
  -18.0230  -27.2850   20.4600 C   0  0  0  0  0  3  0  0  0  0  0  0
  -18.3470  -26.2610   19.5510 C   0  0  0  0  0  3  0  0  0  0  0  0
  -28.1330  -28.3430   22.4240 C   0  0  0  0  0  3  0  0  0  0  0  0
  -28.0040  -29.1520   23.6490 N   0  0  0  0  0  0  0  0  0  0  0  0
  -28.5740  -30.3490   23.8410 C   0  0  0  0  0  0  0  0  0  0  0  0
  -29.3210  -30.8730   23.0110 O   0  0  0  0  0  0  0  0  0  0  0  0
  -27.3600  -28.8110   24.3470 H   0  0  0  0  0  0  0  0  0  0  0  0
  -27.2740  -32.2300   24.8980 C   0  0  0  0  0  1  0  0  0  0  0  0
  -28.2670  -31.0860   25.1620 C   0  0  0  0  0  3  0  0  0  0  0  0
  -30.3420  -30.5770   26.3720 C   0  0  0  0  0  1  0  0  0  0  0  0
  -29.4710  -31.6200   25.8360 N   0  0  0  0  0  0  0  0  0  0  0  0
  -29.2100  -32.2380   26.5990 H   0  0  0  0  0  0  0  0  0  0  0  0
  -28.6890  -26.9080   22.7760 C   0  0  1  0  0  0  0  0  0  0  0  0
  -27.6880  -26.0210   23.5540 C   0  0  0  0  0  1  0  0  0  0  0  0
  -29.0900  -26.1430   21.4950 C   0  0  0  0  0  1  0  0  0  0  0  0
  -29.9730  -27.0380   23.6290 C   0  0  0  0  0  1  0  0  0  0  0  0
  1  7  1  0
  2  7  1  0
  3  4  1  0
  3  2  1  0
  5  4  1  0
  5 24  1  0
  5  6  1  0
  7  6  1  0
  8  1  2  0
  9 10  1  0
 10 49  1  0
 11 13  1  0
 11 10  1  0
 12 17  1  0
 12 11  1  0
 13 18  1  0
 14 15  1  0
 15 18  1  0
 16 61  1  0
 16 14  1  0
 16 12  1  0
 17  9  1  0
 17  1  1  0
 18 19  1  0
 20 18  1  0
 21 22  2  0
 21 24  1  0
 22 23  1  0
 23 25  2  0
 23 26  1  0
 24 25  1  0
 26 27  1  0
 27 28  2  0
 29 32  1  0
 29 28  1  0
 30 29  2  0
 31 30  1  0
 31 26  2  0
 32 33  1  0
 33 38  2  0
 33 34  1  0
 34 35  2  0
 35 36  1  0
 36 40  1  0
 37 36  2  0
 38 37  1  0
 39 38  1  0
 41 22  1  0
 41 42  1  0
 42 44  1  0
 43 41  2  0
 45 42  1  0
 46 21  1  0
 47 46  1  0
 48 46  1  0
 49 50  1  0
 50 53  1  0
 50 52  1  0
 51 49  2  0
 53 56  1  0
 56 55  1  1
 56 54  1  0
 57 58  1  0
 57 56  1  0
 59 57  1  0
 60 57  1  0
 62 61  1  0
 63 62  1  0
 64 63  1  0
 64 66  1  0
 65 76  2  0
 66 71  1  0
 67 77  1  0
 67 75  1  0
 68 70  1  0
 68 74  1  0
 69 75  1  0
 70 69  1  0
 71 70  2  0
 72 73  1  0
 72 66  2  0
 73 68  2  0
 74 67  1  0
 75 65  1  0
 77 79  2  0
 78 77  1  0
 80 78  1  0
 81 90  2  0
 81 86  1  0
 82 78  1  0
 82 86  1  0
 83 82  1  0
 84 85  1  0
 84 83  1  0
 85 81  1  0
 86 87  2  0
 87 88  1  0
 89 88  2  0
 90 89  1  0
 91 65  1  0
 91101  1  0
 91 92  1  0
 92 93  1  0
 92 95  1  0
 93 97  1  0
 94 93  2  0
 97 96  1  0
 97 99  1  0
 99 98  1  0
 99100  1  0
101102  1  1
101104  1  0
103101  1  0
M  ISO  4   1 100  17 100  63 101  64 101
M  END
>  <TORSDO>  (68) 
F 22

>  <SCORE>  (68) 
-0.361

>  <name>  (68) 
67

>  <ligand_id>  (68) 
67

>  <original_smiles>  (68) 
[H]c1c([H])c([H])c2c(c1[H])C([H])([H])C([H])([H])C([H])([H])C2([H])N([H])C(=O)C1([H])N(C(=O)C([H])(N([H])C(=O)C([H])(N([H])C([H])([H])[H])C([H])([H])[H])C(C([H])([H])[H])(C([H])([H])[H])C([H])([H])[H])C([H])([H])c2c([H])c(OC([H])([H])C([H])([H])C([H])([H])C3([H])c4c(c(C(=O)N([H])C([H])([H])C(C([H])([H])[H])(C([H])([H])[H])[N+]([H])([H])[H])c([H])n4C(=O)N4C([H])([H])C([H])([H])C([H])([H])C([H])(n5nc(-c6c([H])c([H])c(Oc7c([H])c([H])c(F)c([H])c7F)c([H])c6[H])c(C(=O)N([H])[H])c5N([H])[H])C4([H])[H])C([H])([H])[N+]([H])([H])C([H])([H])C3([H])[H])c([H])c([H])c2C1([H])[H]

>  <smiles>  (68) 
[H]c1c([H])c([H])c2c(c1[H])C([H])([H])C([H])([H])C([H])([H])C2([H])N([H])C(=O)C1([H])N(C(=O)C([H])(N([H])C(=O)C([H])(N([H])C([H])([H])[H])C([H])([H])[H])C(C([H])([H])[H])(C([H])([H])[H])C([H])([H])[H])C([H])([H])c2c([H])c(OC([H])([H])C([H])([H])C([H])([H])C3([H])c4c(c(C(=O)N([H])C([H])([H])C(C([H])([H])[H])(C([H])([H])[H])[N+]([H])([H])[H])c([H])n4C(=O)N4C([H])([H])C([H])([H])C([H])([H])C([H])(n5nc(-c6c([H])c([H])c(Oc7c([H])c([H])c(F)c([H])c7F)c([H])c6[H])c(C(=O)N([H])[H])c5N([H])[H])C4([H])[H])C([H])([H])[N+]([H])([H])C([H])([H])C3([H])[H])c([H])c([H])c2C1([H])[H]

$$$$
68:0:0
     RDKit          3D

 97105  0  0  1  0  0  0  0  0999 V2000
  -29.2120  -23.9850   20.3530 C   0  0  0  0  0  3  0  0  0  0  0  0
  -28.9530  -21.7060   18.8810 C   0  0  0  0  0  3  0  0  0  0  0  0
  -29.1870  -20.3540   19.0250 C   0  0  0  0  0  3  0  0  0  0  0  0
  -29.1920  -22.3930   20.1110 C   0  0  0  0  0  0  0  0  0  0  0  0
  -29.5220  -21.3430   20.9820 C   0  0  0  0  0  0  0  0  0  0  0  0
  -29.8340  -21.4640   22.4410 C   0  0  0  0  0  1  0  0  0  0  0  0
  -29.5780  -20.0680   20.3250 N   0  0  0  0  0  0  0  0  0  0  0  0
  -31.3500  -18.7130   21.5300 C   0  0  0  0  0  1  0  0  0  0  0  0
  -29.9480  -18.6760   20.8930 C   0  0  0  0  0  3  0  0  0  0  0  0
  -29.9260  -17.3640   19.9420 C   0  0  0  0  0  2  0  0  0  0  0  0
  -30.6290  -14.8380   20.3280 C   0  0  0  0  0  0  0  0  0  0  0  0
  -30.4430  -12.5370   19.3820 C   0  0  0  0  0  2  0  0  0  0  0  0
  -29.5200  -12.6100   18.1450 C   0  0  0  0  0  2  0  0  0  0  0  0
  -28.0390  -12.4660   18.5510 C   0  0  0  0  0  2  0  0  0  0  0  0
  -27.6610  -13.3540   19.7660 C   0  0  0  0  0  3  0  0  0  0  0  0
  -28.7120  -13.2620   20.8980 C   0  0  0  0  0  2  0  0  0  0  0  0
  -30.0180  -13.6020   20.3190 N   0  0  0  0  0  0  0  0  0  0  0  0
  -31.7930  -14.9560   19.9380 O   0  0  0  0  0  0  0  0  0  0  0  0
  -29.8380  -15.9530   20.5430 N   0  0  0  0  0  0  0  0  0  0  0  0
  -28.9360  -15.7330   20.9360 H   0  0  0  0  0  0  0  0  0  0  0  0
  -25.2680  -13.9620   20.4730 C   0  0  0  0  0  0  0  0  0  0  0  0
  -24.1970  -13.1980   20.8470 C   0  0  0  0  0  0  0  0  0  0  0  0
  -24.6530  -11.8440   20.8290 C   0  0  0  0  0  0  0  0  0  0  0  0
  -26.3100  -13.0760   20.2490 N   0  0  0  0  0  0  0  0  0  0  0  0
  -25.9450  -11.7960   20.5240 N   0  0  0  0  0  0  0  0  0  0  0  0
  -23.9180  -10.5870   21.0240 C   0  0  0  0  0  0  0  0  0  0  0  0
  -24.3530   -9.6140   21.9490 C   0  0  0  0  0  3  0  0  0  0  0  0
  -23.6190   -8.4220   22.1350 C   0  0  0  0  0  3  0  0  0  0  0  0
  -22.4350   -8.1950   21.3950 C   0  0  0  0  0  0  0  0  0  0  0  0
  -22.0170   -9.1590   20.4600 C   0  0  0  0  0  3  0  0  0  0  0  0
  -22.7520  -10.3410   20.2720 C   0  0  0  0  0  3  0  0  0  0  0  0
  -21.6720   -7.0560   21.4910 O   0  0  0  0  0  0  0  0  0  0  0  0
  -21.6420   -6.3020   22.6370 C   0  0  0  0  0  0  0  0  0  0  0  0
  -21.2610   -6.8510   23.8810 C   0  0  0  0  0  3  0  0  0  0  0  0
  -21.1780   -6.0250   25.0200 C   0  0  0  0  0  3  0  0  0  0  0  0
  -21.4640   -4.6510   24.9150 C   0  0  0  0  0  0  0  0  0  0  0  0
  -21.8370   -4.1010   23.6770 C   0  0  0  0  0  3  0  0  0  0  0  0
  -21.9220   -4.9240   22.5400 C   0  0  0  0  0  0  0  0  0  0  0  0
  -22.2620   -4.3830   21.3460 F   0  0  0  0  0  0  0  0  0  0  0  0
  -21.3760   -3.8560   26.0070 F   0  0  0  0  0  0  0  0  0  0  0  0
  -22.8000  -13.6860   21.1060 C   0  0  0  0  0  0  0  0  0  0  0  0
  -22.0630  -13.0100   21.9800 N   0  0  0  0  0  0  0  0  0  0  0  0
  -22.3690  -14.7030   20.5660 O   0  0  0  0  0  0  0  0  0  0  0  0
  -22.4210  -12.1890   22.4470 H   0  0  0  0  0  0  0  0  0  0  0  0
  -21.1240  -13.3190   22.1870 H   0  0  0  0  0  0  0  0  0  0  0  0
  -25.4380  -15.3320   20.2830 N   0  0  0  0  0  0  0  0  0  0  0  0
  -24.6660  -15.9830   20.3790 H   0  0  0  0  0  0  0  0  0  0  0  0
  -26.2780  -15.7670   19.9230 H   0  0  0  0  0  0  0  0  0  0  0  0
  -30.4230  -24.5180   19.6950 N   0  0  0  0  0  4  0  0  0  0  0  0
  -30.7020  -23.8500   18.9940 H   0  0  0  0  0  0  0  0  0  0  0  0
  -30.1810  -25.3720   19.2160 H   0  0  0  0  0  0  0  0  0  0  0  0
  -31.5830  -24.8000   20.5660 C   0  0  0  0  0  2  0  0  0  0  0  0
  -31.8210  -27.2450   19.7990 C   0  0  0  0  0  1  0  0  0  0  0  0
  -30.5610  -26.7440   21.9480 C   0  0  0  0  0  1  0  0  0  0  0  0
  -31.6790  -26.2850   20.9960 C   0  0  0  0  0  3  0  0  0  0  0  0
  -28.0030  -24.9680   19.9480 C   0  0  0  0  0  2  0  0  0  0  0  0
  -28.2180  -26.4540   20.0880 O   0  0  0  0  0  0  0  0  0  0  0  0
  -24.6030  -31.9340   23.1860 C   0  0  0  0  0  0  0  0  0  0  0  0
  -27.1130  -27.3360   20.0580 C   0  0  0  0  0  0  0  0  0  0  0  0
  -23.3550  -30.5420   21.5760 C   0  0  0  0  0  3  0  0  0  0  0  0
  -24.7650  -28.9880   20.1100 C   0  0  0  0  0  0  0  0  0  0  0  0
  -25.8950  -30.8420   21.3320 C   0  0  0  0  0  2  0  0  0  0  0  0
  -25.9530  -29.4610   20.6790 C   0  0  0  0  0  0  0  0  0  0  0  0
  -27.1310  -28.6490   20.6410 C   0  0  0  0  0  3  0  0  0  0  0  0
  -25.9000  -26.9300   19.4590 C   0  0  0  0  0  3  0  0  0  0  0  0
  -24.7420  -27.7300   19.4900 C   0  0  0  0  0  3  0  0  0  0  0  0
  -23.5340  -29.8690   20.1900 C   0  0  0  0  0  2  0  0  0  0  0  0
  -24.6380  -31.1250   22.0860 N   0  0  0  0  0  0  0  0  0  0  0  0
  -23.5340  -32.2140   23.7470 O   0  0  0  0  0  0  0  0  0  0  0  0
  -22.7130  -29.5270   22.5510 C   0  0  0  0  0  0  0  0  0  0  0  0
  -21.3870  -29.3410   22.4480 N   0  0  0  0  0  0  0  0  0  0  0  0
  -23.4080  -28.9070   23.3610 O   0  0  0  0  0  0  0  0  0  0  0  0
  -20.8830  -29.8930   21.7670 H   0  0  0  0  0  0  0  0  0  0  0  0
  -18.0280  -28.1050   22.9880 C   0  0  0  0  0  0  0  0  0  0  0  0
  -20.5840  -28.4030   23.2370 C   0  0  0  0  0  3  0  0  0  0  0  0
  -20.7010  -26.9660   22.6800 C   0  0  0  0  0  2  0  0  0  0  0  0
  -19.5980  -26.6140   21.6770 C   0  0  0  0  0  2  0  0  0  0  0  0
  -18.2180  -26.7500   22.3290 C   0  0  0  0  0  2  0  0  0  0  0  0
  -19.1390  -28.8880   23.4010 C   0  0  0  0  0  0  0  0  0  0  0  0
  -18.9060  -30.1550   23.9770 C   0  0  0  0  0  3  0  0  0  0  0  0
  -17.5950  -30.6400   24.1480 C   0  0  0  0  0  3  0  0  0  0  0  0
  -16.4990  -29.8540   23.7510 C   0  0  0  0  0  3  0  0  0  0  0  0
  -16.7160  -28.5890   23.1770 C   0  0  0  0  0  3  0  0  0  0  0  0
  -25.9010  -32.5630   23.7780 C   0  0  0  0  0  3  0  0  0  0  0  0
  -25.5960  -33.9560   24.1390 N   0  0  0  0  0  0  0  0  0  0  0  0
  -25.9130  -35.0230   23.3940 C   0  0  0  0  0  0  0  0  0  0  0  0
  -26.5650  -34.9390   22.3490 O   0  0  0  0  0  0  0  0  0  0  0  0
  -25.0150  -34.0950   24.9530 H   0  0  0  0  0  0  0  0  0  0  0  0
  -24.1790  -36.8240   23.1080 C   0  0  0  0  0  1  0  0  0  0  0  0
  -25.4340  -36.4030   23.8870 C   0  0  0  0  0  3  0  0  0  0  0  0
  -27.5860  -37.2730   24.6920 C   0  0  0  0  0  1  0  0  0  0  0  0
  -26.4640  -37.4580   23.7740 N   0  0  0  0  0  0  0  0  0  0  0  0
  -26.0620  -38.3740   23.9490 H   0  0  0  0  0  0  0  0  0  0  0  0
  -26.4580  -31.7770   25.0290 C   0  0  1  0  0  0  0  0  0  0  0  0
  -25.3980  -31.5260   26.1270 C   0  0  0  0  0  1  0  0  0  0  0  0
  -27.0310  -30.4050   24.6040 C   0  0  0  0  0  1  0  0  0  0  0  0
  -27.6260  -32.5650   25.6640 C   0  0  0  0  0  1  0  0  0  0  0  0
  1 56  1  0
  2  3  2  0
  2  4  1  0
  3  7  1  0
  4  1  1  0
  4  5  2  0
  5  6  1  0
  7  9  1  0
  7  5  1  0
  9  8  1  0
 10 19  1  0
 10  9  1  0
 11 19  1  0
 12 17  1  0
 13 14  1  0
 13 12  1  0
 15 14  1  0
 15 24  1  0
 15 16  1  0
 17 11  1  0
 17 16  1  0
 18 11  2  0
 19 20  1  0
 21 22  2  0
 22 41  1  0
 23 22  1  0
 23 26  1  0
 24 21  1  0
 24 25  1  0
 25 23  2  0
 26 27  1  0
 27 28  2  0
 29 32  1  0
 29 28  1  0
 30 29  2  0
 31 30  1  0
 31 26  2  0
 32 33  1  0
 33 34  1  0
 34 35  2  0
 36 35  1  0
 36 40  1  0
 37 36  2  0
 38 33  2  0
 38 37  1  0
 39 38  1  0
 41 42  1  0
 42 45  1  0
 42 44  1  0
 43 41  2  0
 46 47  1  0
 46 21  1  0
 48 46  1  0
 49  1  1  0
 49 52  1  0
 50 49  1  0
 51 49  1  0
 52 55  1  0
 53 55  1  0
 55 54  1  0
 56 57  1  0
 58 69  2  0
 59 57  1  0
 59 64  1  0
 60 68  1  0
 60 70  1  0
 61 67  1  0
 61 63  1  0
 62 68  1  0
 63 62  1  0
 64 63  2  0
 65 66  1  0
 65 59  2  0
 66 61  2  0
 67 60  1  0
 68 58  1  0
 70 72  2  0
 71 70  1  0
 73 71  1  0
 74 83  2  0
 74 79  1  0
 75 71  1  0
 75 79  1  0
 76 75  1  0
 77 78  1  0
 77 76  1  0
 78 74  1  0
 79 80  2  0
 80 81  1  0
 82 81  2  0
 83 82  1  0
 84 58  1  0
 84 85  1  0
 84 94  1  0
 85 88  1  0
 86 90  1  0
 86 85  1  0
 87 86  2  0
 90 89  1  0
 92 90  1  0
 92 93  1  0
 92 91  1  0
 94 97  1  1
 94 95  1  0
 96 94  1  0
M  ISO  4  11 100  19 100  56 101  57 101
M  END
>  <TORSDO>  (69) 
F 23

>  <SCORE>  (69) 
-13.147

>  <name>  (69) 
68

>  <ligand_id>  (69) 
68

>  <original_smiles>  (69) 
[H]c1c([H])c([H])c2c(c1[H])C([H])([H])C([H])([H])C([H])([H])C2([H])N([H])C(=O)C1([H])N(C(=O)C([H])(N([H])C(=O)C([H])(N([H])C([H])([H])[H])C([H])([H])[H])C(C([H])([H])[H])(C([H])([H])[H])C([H])([H])[H])C([H])([H])c2c([H])c(OC([H])([H])C([H])(c3c([H])c([H])n(C([H])(C([H])([H])[H])C([H])([H])N([H])C(=O)N4C([H])([H])C([H])([H])C([H])([H])C([H])(n5nc(-c6c([H])c([H])c(Oc7c([H])c([H])c(F)c([H])c7F)c([H])c6[H])c(C(=O)N([H])[H])c5N([H])[H])C4([H])[H])c3C([H])([H])[H])[N+]([H])([H])C([H])([H])C([H])(C([H])([H])[H])C([H])([H])[H])c([H])c([H])c2C1([H])[H]

>  <smiles>  (69) 
[H]c1c([H])c([H])c2c(c1[H])C([H])([H])C([H])([H])C([H])([H])C2([H])N([H])C(=O)C1([H])N(C(=O)C([H])(N([H])C(=O)C([H])(N([H])C([H])([H])[H])C([H])([H])[H])C(C([H])([H])[H])(C([H])([H])[H])C([H])([H])[H])C([H])([H])c2c([H])c(OC([H])([H])C([H])(c3c([H])c([H])n(C([H])(C([H])([H])[H])C([H])([H])N([H])C(=O)N4C([H])([H])C([H])([H])C([H])([H])C([H])(n5nc(-c6c([H])c([H])c(Oc7c([H])c([H])c(F)c([H])c7F)c([H])c6[H])c(C(=O)N([H])[H])c5N([H])[H])C4([H])[H])c3C([H])([H])[H])[N+]([H])([H])C([H])([H])C([H])(C([H])([H])[H])C([H])([H])[H])c([H])c([H])c2C1([H])[H]

$$$$
69:0:0
     RDKit          3D

 94102  0  0  1  0  0  0  0  0999 V2000
  -29.5650  -22.1090   21.3580 C   0  0  0  0  0  3  0  0  0  0  0  0
  -28.2590  -20.2990   19.7750 C   0  0  0  0  0  3  0  0  0  0  0  0
  -29.9800  -20.6840   21.2620 C   0  0  0  0  0  0  0  0  0  0  0  0
  -27.8340  -21.7220   19.8770 C   0  0  0  0  0  0  0  0  0  0  0  0
  -29.3540  -19.6310   20.4580 C   0  0  0  0  0  0  0  0  0  0  0  0
  -28.4720  -22.7790   20.6710 C   0  0  0  0  0  0  0  0  0  0  0  0
  -31.1980  -20.2980   22.0800 C   0  0  0  0  0  1  0  0  0  0  0  0
  -26.5680  -22.0840   19.1070 C   0  0  0  0  0  2  0  0  0  0  0  0
  -26.7230  -23.3370   18.2190 C   0  0  0  0  0  2  0  0  0  0  0  0
  -24.7590  -22.9250   16.6600 C   0  0  0  0  0  1  0  0  0  0  0  0
  -25.7450  -25.2110   16.8750 C   0  0  0  0  0  1  0  0  0  0  0  0
  -24.4000  -24.2660   18.7590 C   0  0  0  0  0  1  0  0  0  0  0  0
  -25.4060  -23.9190   17.6430 C   0  0  2  0  0  0  0  0  0  0  0  0
  -30.0150  -18.0520   20.1430 C   0  0  0  0  0  2  0  0  0  0  0  0
  -30.3710  -15.2140   20.2980 C   0  0  0  0  0  0  0  0  0  0  0  0
  -30.3490  -12.7680   19.4780 C   0  0  0  0  0  2  0  0  0  0  0  0
  -29.4280  -12.5400   18.2550 C   0  0  0  0  0  2  0  0  0  0  0  0
  -27.9840  -12.2660   18.7090 C   0  0  0  0  0  2  0  0  0  0  0  0
  -27.5240  -13.2490   19.8150 C   0  0  0  0  0  3  0  0  0  0  0  0
  -28.5750  -13.4280   20.9320 C   0  0  0  0  0  2  0  0  0  0  0  0
  -29.8030  -13.9150   20.2860 N   0  0  0  0  0  0  0  0  0  0  0  0
  -31.5830  -15.2250   20.0530 O   0  0  0  0  0  0  0  0  0  0  0  0
  -29.6160  -16.4740   20.3750 N   0  0  0  0  0  0  0  0  0  0  0  0
  -28.6310  -16.3320   20.5420 H   0  0  0  0  0  0  0  0  0  0  0  0
  -25.1620  -13.7850   20.6110 C   0  0  0  0  0  0  0  0  0  0  0  0
  -24.1080  -12.9970   20.9780 C   0  0  0  0  0  0  0  0  0  0  0  0
  -24.5790  -11.6510   20.9160 C   0  0  0  0  0  0  0  0  0  0  0  0
  -26.2040  -12.9200   20.3370 N   0  0  0  0  0  0  0  0  0  0  0  0
  -25.8670  -11.6280   20.5890 N   0  0  0  0  0  0  0  0  0  0  0  0
  -23.8610  -10.3800   21.0900 C   0  0  0  0  0  0  0  0  0  0  0  0
  -24.2820   -9.4140   22.0280 C   0  0  0  0  0  3  0  0  0  0  0  0
  -23.5600   -8.2120   22.1920 C   0  0  0  0  0  3  0  0  0  0  0  0
  -22.4010   -7.9690   21.4170 C   0  0  0  0  0  0  0  0  0  0  0  0
  -21.9990   -8.9250   20.4680 C   0  0  0  0  0  3  0  0  0  0  0  0
  -22.7220  -10.1170   20.3030 C   0  0  0  0  0  3  0  0  0  0  0  0
  -21.6520   -6.8200   21.4890 O   0  0  0  0  0  0  0  0  0  0  0  0
  -21.5750   -6.0820   22.6440 C   0  0  0  0  0  0  0  0  0  0  0  0
  -21.0980   -6.6370   23.8510 C   0  0  0  0  0  3  0  0  0  0  0  0
  -20.9690   -5.8260   24.9960 C   0  0  0  0  0  3  0  0  0  0  0  0
  -21.3070   -4.4610   24.9350 C   0  0  0  0  0  0  0  0  0  0  0  0
  -21.7760   -3.9050   23.7310 C   0  0  0  0  0  3  0  0  0  0  0  0
  -21.9070   -4.7140   22.5890 C   0  0  0  0  0  0  0  0  0  0  0  0
  -22.3390   -4.1690   21.4270 F   0  0  0  0  0  0  0  0  0  0  0  0
  -21.1750   -3.6800   26.0330 F   0  0  0  0  0  0  0  0  0  0  0  0
  -22.7120  -13.4640   21.2720 C   0  0  0  0  0  0  0  0  0  0  0  0
  -22.0010  -12.7570   22.1400 N   0  0  0  0  0  0  0  0  0  0  0  0
  -22.2630  -14.4910   20.7650 O   0  0  0  0  0  0  0  0  0  0  0  0
  -22.3790  -11.9260   22.5710 H   0  0  0  0  0  0  0  0  0  0  0  0
  -21.0640  -13.0500   22.3810 H   0  0  0  0  0  0  0  0  0  0  0  0
  -25.3140  -15.1610   20.4550 N   0  0  0  0  0  0  0  0  0  0  0  0
  -24.5400  -15.8050   20.5830 H   0  0  0  0  0  0  0  0  0  0  0  0
  -26.1430  -15.6070   20.0850 H   0  0  0  0  0  0  0  0  0  0  0  0
  -27.8070  -24.3460   21.0280 C   0  0  0  0  0  2  0  0  0  0  0  0
  -28.2290  -25.9010   20.8170 O   0  0  0  0  0  0  0  0  0  0  0  0
  -24.6300  -31.9990   23.3770 C   0  0  0  0  0  0  0  0  0  0  0  0
  -27.2370  -26.9950   20.6950 C   0  0  0  0  0  0  0  0  0  0  0  0
  -23.4680  -30.5170   21.7920 C   0  0  0  0  0  3  0  0  0  0  0  0
  -24.9440  -28.8480   20.4890 C   0  0  0  0  0  0  0  0  0  0  0  0
  -26.0340  -30.7310   21.6850 C   0  0  0  0  0  2  0  0  0  0  0  0
  -26.1170  -29.2900   21.1150 C   0  0  0  0  0  0  0  0  0  0  0  0
  -27.2630  -28.3830   21.1960 C   0  0  0  0  0  3  0  0  0  0  0  0
  -26.0450  -26.7050   19.9950 C   0  0  0  0  0  3  0  0  0  0  0  0
  -24.9330  -27.5740   19.9040 C   0  0  0  0  0  3  0  0  0  0  0  0
  -23.7230  -29.7630   20.4600 C   0  0  0  0  0  2  0  0  0  0  0  0
  -24.7310  -31.1110   22.3370 N   0  0  0  0  0  0  0  0  0  0  0  0
  -23.5310  -32.3160   23.8590 O   0  0  0  0  0  0  0  0  0  0  0  0
  -22.7530  -29.5720   22.7940 C   0  0  0  0  0  0  0  0  0  0  0  0
  -21.4410  -29.3420   22.6030 N   0  0  0  0  0  0  0  0  0  0  0  0
  -23.3880  -29.0440   23.7110 O   0  0  0  0  0  0  0  0  0  0  0  0
  -20.9810  -29.8200   21.8400 H   0  0  0  0  0  0  0  0  0  0  0  0
  -18.1050  -27.9590   22.9370 C   0  0  0  0  0  0  0  0  0  0  0  0
  -20.6060  -28.4380   23.4000 C   0  0  0  0  0  3  0  0  0  0  0  0
  -20.8520  -26.9620   23.0070 C   0  0  0  0  0  2  0  0  0  0  0  0
  -19.8770  -26.4510   21.9420 C   0  0  0  0  0  2  0  0  0  0  0  0
  -18.4320  -26.5620   22.4390 C   0  0  0  0  0  2  0  0  0  0  0  0
  -19.1270  -28.8450   23.3740 C   0  0  0  0  0  0  0  0  0  0  0  0
  -18.7690  -30.1420   23.8000 C   0  0  0  0  0  3  0  0  0  0  0  0
  -17.4240  -30.5580   23.7950 C   0  0  0  0  0  3  0  0  0  0  0  0
  -16.4170  -29.6730   23.3740 C   0  0  0  0  0  3  0  0  0  0  0  0
  -16.7570  -28.3760   22.9510 C   0  0  0  0  0  3  0  0  0  0  0  0
  -25.8900  -32.6720   24.0000 C   0  0  0  0  0  3  0  0  0  0  0  0
  -25.5620  -34.0820   24.2710 N   0  0  0  0  0  0  0  0  0  0  0  0
  -25.9060  -35.1140   23.4890 C   0  0  0  0  0  0  0  0  0  0  0  0
  -26.5960  -34.9790   22.4750 O   0  0  0  0  0  0  0  0  0  0  0  0
  -24.9510  -34.2600   25.0550 H   0  0  0  0  0  0  0  0  0  0  0  0
  -24.1780  -36.8930   23.0520 C   0  0  0  0  0  1  0  0  0  0  0  0
  -25.4080  -36.5170   23.8930 C   0  0  0  0  0  3  0  0  0  0  0  0
  -27.5350  -37.4340   24.7110 C   0  0  0  0  0  1  0  0  0  0  0  0
  -26.4380  -37.5710   23.7570 N   0  0  0  0  0  0  0  0  0  0  0  0
  -26.0280  -38.4930   23.8740 H   0  0  0  0  0  0  0  0  0  0  0  0
  -26.3800  -31.9630   25.3220 C   0  0  1  0  0  0  0  0  0  0  0  0
  -25.2520  -31.7170   26.3530 C   0  0  0  0  0  1  0  0  0  0  0  0
  -27.0300  -30.5960   25.0070 C   0  0  0  0  0  1  0  0  0  0  0  0
  -27.4730  -32.8220   26.0040 C   0  0  0  0  0  1  0  0  0  0  0  0
  2  4  2  0
  2  5  1  0
  3  1  1  0
  3  7  1  0
  4  6  1  0
  5  3  2  0
  6 53  1  0
  6  1  2  0
  8  4  1  0
  9  8  1  0
 13 10  1  6
 11 13  1  0
 13  9  1  0
 13 12  1  0
 14 23  1  0
 14  5  1  0
 15 23  1  0
 16 21  1  0
 17 18  1  0
 17 16  1  0
 19 18  1  0
 19 28  1  0
 19 20  1  0
 21 15  1  0
 21 20  1  0
 22 15  2  0
 23 24  1  0
 25 26  2  0
 26 45  1  0
 27 26  1  0
 27 30  1  0
 28 29  1  0
 28 25  1  0
 29 27  2  0
 30 31  1  0
 31 32  2  0
 33 36  1  0
 33 32  1  0
 34 33  2  0
 35 34  1  0
 35 30  2  0
 36 37  1  0
 37 38  1  0
 38 39  2  0
 40 39  1  0
 40 44  1  0
 41 40  2  0
 42 37  2  0
 42 41  1  0
 43 42  1  0
 45 46  1  0
 46 49  1  0
 46 48  1  0
 47 45  2  0
 50 51  1  0
 50 25  1  0
 52 50  1  0
 54 53  1  0
 55 66  2  0
 56 54  1  0
 56 61  1  0
 57 65  1  0
 57 67  1  0
 58 60  1  0
 59 65  1  0
 60 61  2  0
 60 59  1  0
 62 56  2  0
 63 62  1  0
 63 58  2  0
 64 58  1  0
 64 57  1  0
 65 55  1  0
 67 69  2  0
 68 67  1  0
 70 68  1  0
 71 80  2  0
 71 76  1  0
 72 68  1  0
 73 72  1  0
 74 75  1  0
 74 73  1  0
 75 71  1  0
 76 72  1  0
 76 77  2  0
 78 77  1  0
 79 78  2  0
 80 79  1  0
 81 55  1  0
 81 82  1  0
 81 91  1  0
 82 85  1  0
 83 87  1  0
 83 82  1  0
 84 83  2  0
 87 86  1  0
 89 90  1  0
 89 87  1  0
 89 88  1  0
 91 94  1  1
 91 92  1  0
 93 91  1  0
M  ISO  4  15 100  23 100  53 101  54 101
M  END
>  <TORSDO>  (70) 
F 21

>  <SCORE>  (70) 
-14.346

>  <name>  (70) 
69

>  <ligand_id>  (70) 
69

>  <original_smiles>  (70) 
[H]c1c([H])c([H])c2c(c1[H])C([H])([H])C([H])([H])C([H])([H])C2([H])N([H])C(=O)C1([H])N(C(=O)C([H])(N([H])C(=O)C([H])(N([H])C([H])([H])[H])C([H])([H])[H])C(C([H])([H])[H])(C([H])([H])[H])C([H])([H])[H])C([H])([H])c2c([H])c(OC([H])([H])c3c([H])c(C([H])([H])[H])c(C([H])([H])N([H])C(=O)N4C([H])([H])C([H])([H])C([H])([H])C([H])(n5nc(-c6c([H])c([H])c(Oc7c([H])c([H])c(F)c([H])c7F)c([H])c6[H])c(C(=O)N([H])[H])c5N([H])[H])C4([H])[H])c([H])c3C([H])([H])C([H])([H])C(C([H])([H])[H])(C([H])([H])[H])C([H])([H])[H])c([H])c([H])c2C1([H])[H]

>  <smiles>  (70) 
[H]c1c([H])c([H])c2c(c1[H])C([H])([H])C([H])([H])C([H])([H])C2([H])N([H])C(=O)C1([H])N(C(=O)C([H])(N([H])C(=O)C([H])(N([H])C([H])([H])[H])C([H])([H])[H])C(C([H])([H])[H])(C([H])([H])[H])C([H])([H])[H])C([H])([H])c2c([H])c(OC([H])([H])c3c([H])c(C([H])([H])[H])c(C([H])([H])N([H])C(=O)N4C([H])([H])C([H])([H])C([H])([H])C([H])(n5nc(-c6c([H])c([H])c(Oc7c([H])c([H])c(F)c([H])c7F)c([H])c6[H])c(C(=O)N([H])[H])c5N([H])[H])C4([H])[H])c([H])c3C([H])([H])C([H])([H])C(C([H])([H])[H])(C([H])([H])[H])C([H])([H])[H])c([H])c([H])c2C1([H])[H]

$$$$
70:0:0
     RDKit          3D

 93101  0  0  1  0  0  0  0  0999 V2000
  -29.5230  -23.3990   19.3340 N   0  0  0  0  0  4  0  0  0  0  0  0
  -29.9060  -23.1400   18.4370 H   0  0  0  0  0  0  0  0  0  0  0  0
  -30.1900  -24.0460   19.7270 H   0  0  0  0  0  0  0  0  0  0  0  0
  -27.3430  -23.4490   18.1200 C   0  0  0  0  0  1  0  0  0  0  0  0
  -28.2340  -24.1540   19.1830 C   0  0  0  0  0  3  0  0  0  0  0  0
  -28.4640  -25.6760   18.8510 C   0  0  0  0  0  2  0  0  0  0  0  0
  -28.3370  -26.6140   19.9660 O   0  0  0  0  0  0  0  0  0  0  0  0
  -24.5930  -31.8710   23.2230 C   0  0  0  0  0  0  0  0  0  0  0  0
  -27.1700  -27.3660   20.0660 C   0  0  0  0  0  0  0  0  0  0  0  0
  -23.3720  -30.4800   21.5900 C   0  0  0  0  0  3  0  0  0  0  0  0
  -24.7980  -28.9200   20.1780 C   0  0  0  0  0  0  0  0  0  0  0  0
  -25.9160  -30.7810   21.4040 C   0  0  0  0  0  2  0  0  0  0  0  0
  -25.9750  -29.4140   20.7510 C   0  0  0  0  0  0  0  0  0  0  0  0
  -27.1680  -28.6430   20.6900 C   0  0  0  0  0  3  0  0  0  0  0  0
  -25.9500  -26.8780   19.5500 C   0  0  0  0  0  3  0  0  0  0  0  0
  -24.7760  -27.6470   19.5940 C   0  0  0  0  0  3  0  0  0  0  0  0
  -23.5760  -29.8040   20.2140 C   0  0  0  0  0  2  0  0  0  0  0  0
  -24.6430  -31.0700   22.1220 N   0  0  0  0  0  0  0  0  0  0  0  0
  -23.5140  -32.1540   23.7640 O   0  0  0  0  0  0  0  0  0  0  0  0
  -22.7170  -29.4600   22.5510 C   0  0  0  0  0  0  0  0  0  0  0  0
  -21.3920  -29.2780   22.4190 N   0  0  0  0  0  0  0  0  0  0  0  0
  -23.3970  -28.8410   23.3740 O   0  0  0  0  0  0  0  0  0  0  0  0
  -20.9030  -29.8190   21.7200 H   0  0  0  0  0  0  0  0  0  0  0  0
  -18.0270  -28.0680   22.9040 C   0  0  0  0  0  0  0  0  0  0  0  0
  -20.5800  -28.3450   23.1970 C   0  0  0  0  0  3  0  0  0  0  0  0
  -20.6980  -26.9090   22.6290 C   0  0  0  0  0  2  0  0  0  0  0  0
  -19.6040  -26.5780   21.6110 C   0  0  0  0  0  2  0  0  0  0  0  0
  -18.2200  -26.7130   22.2520 C   0  0  0  0  0  2  0  0  0  0  0  0
  -19.1340  -28.8420   23.3410 C   0  0  0  0  0  0  0  0  0  0  0  0
  -18.8930  -30.1070   23.9170 C   0  0  0  0  0  3  0  0  0  0  0  0
  -17.5810  -30.5990   24.0650 C   0  0  0  0  0  3  0  0  0  0  0  0
  -16.4890  -29.8220   23.6410 C   0  0  0  0  0  3  0  0  0  0  0  0
  -16.7140  -28.5590   23.0680 C   0  0  0  0  0  3  0  0  0  0  0  0
  -25.8820  -32.4950   23.8350 C   0  0  0  0  0  3  0  0  0  0  0  0
  -25.5790  -33.8900   24.1740 N   0  0  0  0  0  0  0  0  0  0  0  0
  -25.9050  -34.9420   23.4130 C   0  0  0  0  0  0  0  0  0  0  0  0
  -26.5680  -34.8400   22.3750 O   0  0  0  0  0  0  0  0  0  0  0  0
  -25.0110  -34.0480   24.9940 H   0  0  0  0  0  0  0  0  0  0  0  0
  -24.1810  -36.7370   23.0710 C   0  0  0  0  0  1  0  0  0  0  0  0
  -25.4260  -36.3290   23.8780 C   0  0  0  0  0  3  0  0  0  0  0  0
  -27.5620  -37.2060   24.7080 C   0  0  0  0  0  1  0  0  0  0  0  0
  -26.4620  -37.3790   23.7670 N   0  0  0  0  0  0  0  0  0  0  0  0
  -26.0560  -38.2970   23.9290 H   0  0  0  0  0  0  0  0  0  0  0  0
  -26.4110  -31.7200   25.1060 C   0  0  1  0  0  0  0  0  0  0  0  0
  -25.3220  -31.4830   26.1780 C   0  0  0  0  0  1  0  0  0  0  0  0
  -26.9970  -30.3450   24.7120 C   0  0  0  0  0  1  0  0  0  0  0  0
  -27.5700  -32.5120   25.7570 C   0  0  0  0  0  1  0  0  0  0  0  0
  -29.5390  -22.2350   20.2730 C   0  0  0  0  0  2  0  0  0  0  0  0
  -30.1390  -20.8960   19.7090 C   0  0  0  0  0  2  0  0  0  0  0  0
  -31.7430  -18.9480   20.4870 C   0  0  0  0  0  2  0  0  0  0  0  0
  -29.3820  -19.1100   21.5160 C   0  0  0  0  0  2  0  0  0  0  0  0
  -31.3700  -17.5500   19.9580 C   0  0  0  0  0  2  0  0  0  0  0  0
  -29.1050  -17.6900   20.9640 C   0  0  0  0  0  2  0  0  0  0  0  0
  -30.5500  -19.8810   20.8300 C   0  0  0  0  0  3  0  0  0  0  0  0
  -30.3920  -16.8410   20.9200 C   0  0  0  0  0  3  0  0  0  0  0  0
  -30.8050  -14.4260   20.1150 C   0  0  0  0  0  0  0  0  0  0  0  0
  -30.4580  -12.2940   18.9540 C   0  0  0  0  0  2  0  0  0  0  0  0
  -29.4950  -12.5640   17.7820 C   0  0  0  0  0  2  0  0  0  0  0  0
  -28.0330  -12.4420   18.2570 C   0  0  0  0  0  2  0  0  0  0  0  0
  -27.7460  -13.2480   19.5540 C   0  0  0  0  0  3  0  0  0  0  0  0
  -28.8220  -12.9590   20.6190 C   0  0  0  0  0  2  0  0  0  0  0  0
  -30.1350  -13.2550   20.0140 N   0  0  0  0  0  0  0  0  0  0  0  0
  -31.9320  -14.5930   19.6370 O   0  0  0  0  0  0  0  0  0  0  0  0
  -30.0780  -15.4250   20.6470 N   0  0  0  0  0  0  0  0  0  0  0  0
  -29.1700  -15.1200   20.9720 H   0  0  0  0  0  0  0  0  0  0  0  0
  -25.3780  -13.8880   20.3370 C   0  0  0  0  0  0  0  0  0  0  0  0
  -24.3100  -13.1290   20.7270 C   0  0  0  0  0  0  0  0  0  0  0  0
  -24.7510  -11.7730   20.6840 C   0  0  0  0  0  0  0  0  0  0  0  0
  -26.4030  -12.9920   20.0660 N   0  0  0  0  0  0  0  0  0  0  0  0
  -26.0300  -11.7140   20.3290 N   0  0  0  0  0  0  0  0  0  0  0  0
  -24.0190  -10.5220   20.9010 C   0  0  0  0  0  0  0  0  0  0  0  0
  -24.4590   -9.5590   21.8380 C   0  0  0  0  0  3  0  0  0  0  0  0
  -23.7290   -8.3670   22.0400 C   0  0  0  0  0  3  0  0  0  0  0  0
  -22.5410   -8.1340   21.3060 C   0  0  0  0  0  0  0  0  0  0  0  0
  -22.1180   -9.0860   20.3580 C   0  0  0  0  0  3  0  0  0  0  0  0
  -22.8530  -10.2680   20.1570 C   0  0  0  0  0  3  0  0  0  0  0  0
  -21.7790   -6.9960   21.4180 O   0  0  0  0  0  0  0  0  0  0  0  0
  -21.7250   -6.2740   22.5830 C   0  0  0  0  0  0  0  0  0  0  0  0
  -21.3190   -6.8580   23.8030 C   0  0  0  0  0  3  0  0  0  0  0  0
  -21.2180   -6.0660   24.9630 C   0  0  0  0  0  3  0  0  0  0  0  0
  -21.5090   -4.6900   24.9040 C   0  0  0  0  0  0  0  0  0  0  0  0
  -21.9070   -4.1040   23.6900 C   0  0  0  0  0  3  0  0  0  0  0  0
  -22.0140   -4.8940   22.5320 C   0  0  0  0  0  0  0  0  0  0  0  0
  -22.3810   -4.3220   21.3600 F   0  0  0  0  0  0  0  0  0  0  0  0
  -21.4060   -3.9260   26.0170 F   0  0  0  0  0  0  0  0  0  0  0  0
  -22.9280  -13.6300   21.0470 C   0  0  0  0  0  0  0  0  0  0  0  0
  -22.2170  -12.9530   21.9370 N   0  0  0  0  0  0  0  0  0  0  0  0
  -22.4910  -14.6610   20.5370 O   0  0  0  0  0  0  0  0  0  0  0  0
  -22.5660  -12.1030   22.3550 H   0  0  0  0  0  0  0  0  0  0  0  0
  -21.2980  -13.2860   22.1960 H   0  0  0  0  0  0  0  0  0  0  0  0
  -25.5570  -15.2610   20.1780 N   0  0  0  0  0  0  0  0  0  0  0  0
  -24.8110  -15.9220   20.3760 H   0  0  0  0  0  0  0  0  0  0  0  0
  -26.4370  -15.7110   19.9610 H   0  0  0  0  0  0  0  0  0  0  0  0
  1  3  1  0
  1 48  1  0
  2  1  1  0
  5  4  1  0
  5  1  1  0
  6  5  1  0
  6  7  1  0
  7  9  1  0
  8 19  2  0
  9 14  1  0
 10 18  1  0
 10 20  1  0
 11 17  1  0
 11 13  1  0
 12 18  1  0
 13 12  1  0
 14 13  2  0
 15 16  1  0
 15  9  2  0
 16 11  2  0
 17 10  1  0
 18  8  1  0
 20 22  2  0
 21 20  1  0
 23 21  1  0
 24 33  2  0
 24 29  1  0
 25 21  1  0
 25 29  1  0
 26 25  1  0
 27 28  1  0
 27 26  1  0
 28 24  1  0
 29 30  2  0
 30 31  1  0
 32 31  2  0
 33 32  1  0
 34  8  1  0
 34 35  1  0
 34 44  1  0
 35 38  1  0
 36 40  1  0
 36 35  1  0
 37 36  2  0
 40 39  1  0
 42 40  1  0
 42 43  1  0
 42 41  1  0
 44 47  1  1
 44 45  1  0
 46 44  1  0
 49 48  1  0
 50 54  1  0
 52 50  1  0
 52 55  1  0
 53 51  1  0
 54 49  1  0
 54 51  1  0
 55 64  1  0
 55 53  1  0
 56 64  1  0
 57 62  1  0
 58 59  1  0
 58 57  1  0
 60 59  1  0
 60 69  1  0
 60 61  1  0
 62 56  1  0
 62 61  1  0
 63 56  2  0
 64 65  1  0
 66 67  2  0
 67 86  1  0
 68 67  1  0
 68 71  1  0
 69 70  1  0
 69 66  1  0
 70 68  2  0
 71 72  1  0
 72 73  2  0
 74 77  1  0
 74 73  1  0
 75 74  2  0
 76 75  1  0
 76 71  2  0
 77 78  1  0
 78 79  1  0
 79 80  2  0
 81 80  1  0
 81 85  1  0
 82 81  2  0
 83 78  2  0
 83 82  1  0
 84 83  1  0
 86 87  1  0
 87 90  1  0
 87 89  1  0
 88 86  2  0
 91 66  1  0
 91 92  1  0
 93 91  1  0
M  ISO  4   6 101   7 101  56 100  64 100
M  END
>  <TORSDO>  (71) 
F 21

>  <SCORE>  (71) 
-12.828

>  <name>  (71) 
70

>  <ligand_id>  (71) 
70

>  <original_smiles>  (71) 
[H]c1c([H])c([H])c2c(c1[H])C([H])([H])C([H])([H])C([H])([H])C2([H])N([H])C(=O)C1([H])N(C(=O)C([H])(N([H])C(=O)C([H])(N([H])C([H])([H])[H])C([H])([H])[H])C(C([H])([H])[H])(C([H])([H])[H])C([H])([H])[H])C([H])([H])c2c([H])c(OC([H])([H])C([H])(C([H])([H])[H])[N+]([H])([H])C([H])([H])C([H])([H])C3([H])C([H])([H])C([H])([H])C([H])(N([H])C(=O)N4C([H])([H])C([H])([H])C([H])([H])C([H])(n5nc(-c6c([H])c([H])c(Oc7c([H])c([H])c(F)c([H])c7F)c([H])c6[H])c(C(=O)N([H])[H])c5N([H])[H])C4([H])[H])C([H])([H])C3([H])[H])c([H])c([H])c2C1([H])[H]

>  <smiles>  (71) 
[H]c1c([H])c([H])c2c(c1[H])C([H])([H])C([H])([H])C([H])([H])C2([H])N([H])C(=O)C1([H])N(C(=O)C([H])(N([H])C(=O)C([H])(N([H])C([H])([H])[H])C([H])([H])[H])C(C([H])([H])[H])(C([H])([H])[H])C([H])([H])[H])C([H])([H])c2c([H])c(OC([H])([H])C([H])(C([H])([H])[H])[N+]([H])([H])C([H])([H])C([H])([H])C3([H])C([H])([H])C([H])([H])C([H])(N([H])C(=O)N4C([H])([H])C([H])([H])C([H])([H])C([H])(n5nc(-c6c([H])c([H])c(Oc7c([H])c([H])c(F)c([H])c7F)c([H])c6[H])c(C(=O)N([H])[H])c5N([H])[H])C4([H])[H])C([H])([H])C3([H])[H])c([H])c([H])c2C1([H])[H]

$$$$
71:0:0
     RDKit          3D

 97106  0  0  1  0  0  0  0  0999 V2000
  -29.0530  -21.4610   18.9120 C   0  0  0  0  0  3  0  0  0  0  0  0
  -29.5600  -20.9610   20.1610 C   0  0  0  0  0  0  0  0  0  0  0  0
  -28.5450  -22.8190   18.7370 C   0  0  0  0  0  0  0  0  0  0  0  0
  -29.5420  -22.0250   21.1440 C   0  0  0  0  0  0  0  0  0  0  0  0
  -28.5440  -23.8030   19.7910 C   0  0  0  0  0  0  0  0  0  0  0  0
  -27.9420  -23.1760   17.3800 C   0  0  0  0  0  1  0  0  0  0  0  0
  -30.0600  -21.7920   22.5650 C   0  0  0  0  0  1  0  0  0  0  0  0
  -29.0690  -23.3220   20.9680 N   0  0  0  0  0  0  0  0  0  0  0  0
  -30.5910  -15.3970   19.5430 C   0  0  0  0  0  0  0  0  0  0  0  0
  -30.2970  -13.0520   18.6590 C   0  0  0  0  0  2  0  0  0  0  0  0
  -29.2480  -13.0570   17.5220 C   0  0  0  0  0  2  0  0  0  0  0  0
  -27.8370  -12.8390   18.0960 C   0  0  0  0  0  2  0  0  0  0  0  0
  -27.5540  -13.7310   19.3300 C   0  0  0  0  0  3  0  0  0  0  0  0
  -28.7270  -13.7850   20.3400 C   0  0  0  0  0  2  0  0  0  0  0  0
  -29.9540  -14.1530   19.6100 N   0  0  0  0  0  0  0  0  0  0  0  0
  -31.5870  -15.4760   18.8160 O   0  0  0  0  0  0  0  0  0  0  0  0
  -32.3110  -17.2010   21.4090 C   0  0  0  0  0  2  0  0  0  0  0  0
  -31.7250  -19.5800   20.5990 C   0  0  0  0  0  2  0  0  0  0  0  0
  -30.8580  -16.6600   21.5480 C   0  0  0  0  0  2  0  0  0  0  0  0
  -29.8300  -17.9980   19.6810 C   0  0  0  0  0  2  0  0  0  0  0  0
  -30.1700  -19.4390   20.4800 C   0  0  0  0  0  3  0  0  0  0  0  0
  -32.4770  -18.7160   21.6570 C   0  0  0  0  0  3  0  0  0  0  0  0
  -30.1780  -16.5590   20.2440 N   0  0  0  0  0  0  0  0  0  0  0  0
  -25.2930  -14.2400   20.4080 C   0  0  0  0  0  0  0  0  0  0  0  0
  -24.2800  -13.4370   20.8580 C   0  0  0  0  0  0  0  0  0  0  0  0
  -24.7280  -12.0920   20.6750 C   0  0  0  0  0  0  0  0  0  0  0  0
  -26.2860  -13.3880   19.9680 N   0  0  0  0  0  0  0  0  0  0  0  0
  -25.9660  -12.0860   20.1910 N   0  0  0  0  0  0  0  0  0  0  0  0
  -24.0270  -10.8170   20.8730 C   0  0  0  0  0  0  0  0  0  0  0  0
  -24.5090   -9.8360   21.7680 C   0  0  0  0  0  3  0  0  0  0  0  0
  -23.8010   -8.6310   21.9640 C   0  0  0  0  0  3  0  0  0  0  0  0
  -22.5960   -8.3900   21.2640 C   0  0  0  0  0  0  0  0  0  0  0  0
  -22.1340   -9.3590   20.3500 C   0  0  0  0  0  3  0  0  0  0  0  0
  -22.8450  -10.5550   20.1570 C   0  0  0  0  0  3  0  0  0  0  0  0
  -21.8650   -7.2310   21.3620 O   0  0  0  0  0  0  0  0  0  0  0  0
  -21.8080   -6.5090   22.5270 C   0  0  0  0  0  0  0  0  0  0  0  0
  -21.3000   -7.0650   23.7210 C   0  0  0  0  0  3  0  0  0  0  0  0
  -21.1990   -6.2680   24.8790 C   0  0  0  0  0  3  0  0  0  0  0  0
  -21.6000   -4.9180   24.8420 C   0  0  0  0  0  0  0  0  0  0  0  0
  -22.1000   -4.3660   23.6500 C   0  0  0  0  0  3  0  0  0  0  0  0
  -22.2080   -5.1600   22.4980 C   0  0  0  0  0  0  0  0  0  0  0  0
  -22.6750   -4.6130   21.3510 F   0  0  0  0  0  0  0  0  0  0  0  0
  -21.4960   -4.1490   25.9540 F   0  0  0  0  0  0  0  0  0  0  0  0
  -22.9410  -13.8840   21.3550 C   0  0  0  0  0  0  0  0  0  0  0  0
  -22.3370  -13.1250   22.2610 N   0  0  0  0  0  0  0  0  0  0  0  0
  -22.4330  -14.9350   20.9620 O   0  0  0  0  0  0  0  0  0  0  0  0
  -22.7590  -12.2620   22.5830 H   0  0  0  0  0  0  0  0  0  0  0  0
  -21.4330  -13.3940   22.6270 H   0  0  0  0  0  0  0  0  0  0  0  0
  -25.4450  -15.6200   20.3060 N   0  0  0  0  0  0  0  0  0  0  0  0
  -24.7200  -16.2840   20.5610 H   0  0  0  0  0  0  0  0  0  0  0  0
  -26.2640  -16.0640   19.9050 H   0  0  0  0  0  0  0  0  0  0  0  0
  -33.9220  -19.0680   21.6900 N   0  0  0  0  0  4  0  0  0  0  0  0
  -34.3540  -19.0450   20.7790 H   0  0  0  0  0  0  0  0  0  0  0  0
  -34.4340  -18.4390   22.2850 H   0  0  0  0  0  0  0  0  0  0  0  0
  -34.0670  -19.9870   22.0640 H   0  0  0  0  0  0  0  0  0  0  0  0
  -27.5990  -25.1660   19.8310 C   0  0  0  0  0  2  0  0  0  0  0  0
  -27.9290  -26.6650   19.6190 O   0  0  0  0  0  0  0  0  0  0  0  0
  -24.4760  -32.0400   23.2920 C   0  0  0  0  0  0  0  0  0  0  0  0
  -26.8520  -27.6240   19.7180 C   0  0  0  0  0  0  0  0  0  0  0  0
  -23.1480  -30.7360   21.6770 C   0  0  0  0  0  3  0  0  0  0  0  0
  -24.4880  -29.3000   20.0130 C   0  0  0  0  0  0  0  0  0  0  0  0
  -25.6730  -31.0750   21.2960 C   0  0  0  0  0  2  0  0  0  0  0  0
  -25.7120  -29.7350   20.5410 C   0  0  0  0  0  0  0  0  0  0  0  0
  -26.8920  -28.9180   20.3720 C   0  0  0  0  0  3  0  0  0  0  0  0
  -25.5940  -27.3030   19.1440 C   0  0  0  0  0  3  0  0  0  0  0  0
  -24.4380  -28.0980   19.2930 C   0  0  0  0  0  3  0  0  0  0  0  0
  -23.2510  -30.1550   20.2400 C   0  0  0  0  0  2  0  0  0  0  0  0
  -24.4600  -31.3000   22.1440 N   0  0  0  0  0  0  0  0  0  0  0  0
  -23.4370  -32.2640   23.9300 O   0  0  0  0  0  0  0  0  0  0  0  0
  -22.5760  -29.6510   22.6200 C   0  0  0  0  0  0  0  0  0  0  0  0
  -21.2750  -29.3400   22.4760 N   0  0  0  0  0  0  0  0  0  0  0  0
  -23.3020  -29.0920   23.4430 O   0  0  0  0  0  0  0  0  0  0  0  0
  -20.7420  -29.8500   21.7850 H   0  0  0  0  0  0  0  0  0  0  0  0
  -18.0830  -27.6550   22.7910 C   0  0  0  0  0  0  0  0  0  0  0  0
  -20.5460  -28.3130   23.2230 C   0  0  0  0  0  3  0  0  0  0  0  0
  -20.9060  -26.8960   22.7150 C   0  0  0  0  0  2  0  0  0  0  0  0
  -19.9420  -26.3770   21.6440 C   0  0  0  0  0  2  0  0  0  0  0  0
  -18.5080  -26.3290   22.1870 C   0  0  0  0  0  2  0  0  0  0  0  0
  -19.0390  -28.5950   23.2620 C   0  0  0  0  0  0  0  0  0  0  0  0
  -18.5890  -29.8260   23.7840 C   0  0  0  0  0  3  0  0  0  0  0  0
  -17.2130  -30.1240   23.8460 C   0  0  0  0  0  3  0  0  0  0  0  0
  -16.2690  -29.1840   23.3940 C   0  0  0  0  0  3  0  0  0  0  0  0
  -16.7040  -27.9520   22.8750 C   0  0  0  0  0  3  0  0  0  0  0  0
  -25.8000  -32.6540   23.8460 C   0  0  0  0  0  3  0  0  0  0  0  0
  -26.3850  -31.8540   25.0740 C   0  0  1  0  0  0  0  0  0  0  0  0
  -25.3410  -31.5530   26.1760 C   0  0  0  0  0  1  0  0  0  0  0  0
  -26.9960  -30.5090   24.6200 C   0  0  0  0  0  1  0  0  0  0  0  0
  -27.5410  -32.6610   25.7180 C   0  0  0  0  0  1  0  0  0  0  0  0
  -25.5260  -34.0460   24.2230 N   0  0  0  0  0  0  0  0  0  0  0  0
  -25.8480  -35.1170   23.4850 C   0  0  0  0  0  0  0  0  0  0  0  0
  -26.4780  -35.0350   22.4270 O   0  0  0  0  0  0  0  0  0  0  0  0
  -24.9740  -34.1870   25.0560 H   0  0  0  0  0  0  0  0  0  0  0  0
  -24.1460  -36.9520   23.2450 C   0  0  0  0  0  1  0  0  0  0  0  0
  -25.4060  -36.5000   24.0000 C   0  0  0  0  0  3  0  0  0  0  0  0
  -27.5860  -37.3190   24.7850 C   0  0  0  0  0  1  0  0  0  0  0  0
  -26.4540  -37.5410   23.8860 N   0  0  0  0  0  0  0  0  0  0  0  0
  -26.0730  -38.4620   24.0810 H   0  0  0  0  0  0  0  0  0  0  0  0
  1  2  1  0
  2  4  2  0
  3  1  2  0
  3  5  1  0
  4  7  1  0
  5 56  1  0
  5  8  2  0
  6  3  1  0
  8  4  1  0
  9 15  1  0
  9 23  1  0
 10 15  1  0
 11 12  1  0
 11 10  1  0
 13 12  1  0
 13 27  1  0
 13 14  1  0
 15 14  1  0
 16  9  2  0
 17 19  1  0
 17 22  1  0
 18 22  1  0
 20 23  1  0
 20 21  1  0
 21  2  1  0
 21 18  1  0
 22 52  1  0
 23 19  1  0
 24 25  2  0
 25 44  1  0
 26 25  1  0
 26 29  1  0
 27 28  1  0
 27 24  1  0
 28 26  2  0
 29 30  1  0
 30 31  2  0
 32 35  1  0
 32 31  1  0
 33 32  2  0
 34 33  1  0
 34 29  2  0
 35 36  1  0
 36 37  1  0
 37 38  2  0
 39 38  1  0
 39 43  1  0
 40 39  2  0
 41 36  2  0
 41 40  1  0
 42 41  1  0
 44 45  1  0
 45 47  1  0
 45 48  1  0
 46 44  2  0
 49 24  1  0
 49 50  1  0
 51 49  1  0
 52 55  1  0
 52 54  1  0
 53 52  1  0
 57 59  1  0
 57 56  1  0
 58 69  2  0
 59 64  1  0
 60 68  1  0
 60 70  1  0
 61 67  1  0
 61 63  1  0
 62 68  1  0
 63 62  1  0
 64 63  2  0
 65 66  1  0
 65 59  2  0
 66 61  2  0
 67 60  1  0
 68 58  1  0
 70 72  2  0
 71 70  1  0
 73 71  1  0
 74 83  2  0
 74 79  1  0
 75 71  1  0
 75 79  1  0
 76 75  1  0
 77 78  1  0
 77 76  1  0
 78 74  1  0
 79 80  2  0
 80 81  1  0
 82 81  2  0
 83 82  1  0
 84 58  1  0
 84 89  1  0
 84 85  1  0
 85 88  1  1
 85 86  1  0
 87 85  1  0
 89 92  1  0
 90 94  1  0
 90 89  1  0
 91 90  2  0
 94 93  1  0
 96 94  1  0
 96 97  1  0
 96 95  1  0
M  ISO  4   9 100  23 100  56 101  57 101
M  END
>  <TORSDO>  (72) 
F 18

>  <SCORE>  (72) 
-12.424

>  <name>  (72) 
71

>  <ligand_id>  (72) 
71

>  <original_smiles>  (72) 
[H]c1c([H])c([H])c2c(c1[H])C([H])([H])C([H])([H])C([H])([H])C2([H])N([H])C(=O)C1([H])N(C(=O)C([H])(N([H])C(=O)C([H])(N([H])C([H])([H])[H])C([H])([H])[H])C(C([H])([H])[H])(C([H])([H])[H])C([H])([H])[H])C([H])([H])c2c([H])c(OC([H])([H])c3nc(C([H])([H])[H])c(C4([H])C([H])([H])N(C(=O)N5C([H])([H])C([H])([H])C([H])([H])C([H])(n6nc(-c7c([H])c([H])c(Oc8c([H])c([H])c(F)c([H])c8F)c([H])c7[H])c(C(=O)N([H])[H])c6N([H])[H])C5([H])[H])C([H])([H])C([H])([H])C([H])([N+]([H])([H])[H])C4([H])[H])c([H])c3C([H])([H])[H])c([H])c([H])c2C1([H])[H]

>  <smiles>  (72) 
[H]c1c([H])c([H])c2c(c1[H])C([H])([H])C([H])([H])C([H])([H])C2([H])N([H])C(=O)C1([H])N(C(=O)C([H])(N([H])C(=O)C([H])(N([H])C([H])([H])[H])C([H])([H])[H])C(C([H])([H])[H])(C([H])([H])[H])C([H])([H])[H])C([H])([H])c2c([H])c(OC([H])([H])c3nc(C([H])([H])[H])c(C4([H])C([H])([H])N(C(=O)N5C([H])([H])C([H])([H])C([H])([H])C([H])(n6nc(-c7c([H])c([H])c(Oc8c([H])c([H])c(F)c([H])c8F)c([H])c7[H])c(C(=O)N([H])[H])c6N([H])[H])C5([H])[H])C([H])([H])C([H])([H])C([H])([N+]([H])([H])[H])C4([H])[H])c([H])c3C([H])([H])[H])c([H])c([H])c2C1([H])[H]

$$$$
72:0:0
     RDKit          3D

101109  0  0  1  0  0  0  0  0999 V2000
  -28.5800  -22.9160   17.7040 C   0  0  0  0  0  1  0  0  0  0  0  0
  -28.6070  -22.6680   19.2420 C   0  0  1  0  0  0  0  0  0  0  0  0
  -29.2090  -23.9790   19.9660 C   0  0  0  0  0  2  0  0  0  0  0  0
  -30.1800  -25.9720   18.6270 C   0  0  0  0  0  1  0  0  0  0  0  0
  -28.9340  -25.4370   19.3530 C   0  0  0  0  0  3  0  0  0  0  0  0
  -28.6260  -26.5410   20.2760 O   0  0  0  0  0  0  0  0  0  0  0  0
  -24.5950  -31.7350   23.2130 C   0  0  0  0  0  0  0  0  0  0  0  0
  -27.4580  -27.3120   20.1760 C   0  0  0  0  0  0  0  0  0  0  0  0
  -23.5000  -30.3380   21.4950 C   0  0  0  0  0  3  0  0  0  0  0  0
  -25.0490  -28.8490   20.1130 C   0  0  0  0  0  0  0  0  0  0  0  0
  -26.0360  -30.7190   21.4350 C   0  0  0  0  0  2  0  0  0  0  0  0
  -26.1750  -29.3560   20.7710 C   0  0  0  0  0  0  0  0  0  0  0  0
  -27.3770  -28.5920   20.8010 C   0  0  0  0  0  3  0  0  0  0  0  0
  -26.2920  -26.8400   19.5270 C   0  0  0  0  0  3  0  0  0  0  0  0
  -25.1050  -27.5950   19.4910 C   0  0  0  0  0  3  0  0  0  0  0  0
  -23.7900  -29.6900   20.1170 C   0  0  0  0  0  2  0  0  0  0  0  0
  -24.7260  -30.9490   22.1050 N   0  0  0  0  0  0  0  0  0  0  0  0
  -23.4830  -31.9770   23.7020 O   0  0  0  0  0  0  0  0  0  0  0  0
  -22.8240  -29.2870   22.4090 C   0  0  0  0  0  0  0  0  0  0  0  0
  -21.5040  -29.1040   22.2400 N   0  0  0  0  0  0  0  0  0  0  0  0
  -23.4870  -28.6400   23.2230 O   0  0  0  0  0  0  0  0  0  0  0  0
  -21.0290  -29.6800   21.5610 H   0  0  0  0  0  0  0  0  0  0  0  0
  -18.1140  -27.9170   22.6570 C   0  0  0  0  0  0  0  0  0  0  0  0
  -20.6700  -28.1400   22.9620 C   0  0  0  0  0  3  0  0  0  0  0  0
  -20.7650  -26.7360   22.3230 C   0  0  0  0  0  2  0  0  0  0  0  0
  -19.6710  -26.4690   21.2830 C   0  0  0  0  0  2  0  0  0  0  0  0
  -18.2840  -26.5990   21.9210 C   0  0  0  0  0  2  0  0  0  0  0  0
  -19.2350  -28.6480   23.1310 C   0  0  0  0  0  0  0  0  0  0  0  0
  -19.0220  -29.8850   23.7760 C   0  0  0  0  0  3  0  0  0  0  0  0
  -17.7220  -30.3920   23.9530 C   0  0  0  0  0  3  0  0  0  0  0  0
  -16.6140  -29.6570   23.4980 C   0  0  0  0  0  3  0  0  0  0  0  0
  -16.8110  -28.4210   22.8560 C   0  0  0  0  0  3  0  0  0  0  0  0
  -25.8340  -32.3860   23.9030 C   0  0  0  0  0  3  0  0  0  0  0  0
  -26.2780  -31.6350   25.2180 C   0  0  1  0  0  0  0  0  0  0  0  0
  -25.1240  -31.4020   26.2220 C   0  0  0  0  0  1  0  0  0  0  0  0
  -26.8950  -30.2580   24.8810 C   0  0  0  0  0  1  0  0  0  0  0  0
  -27.3780  -32.4480   25.9400 C   0  0  0  0  0  1  0  0  0  0  0  0
  -25.4930  -33.7850   24.1960 N   0  0  0  0  0  0  0  0  0  0  0  0
  -25.8460  -34.8300   23.4380 C   0  0  0  0  0  0  0  0  0  0  0  0
  -26.5630  -34.7210   22.4390 O   0  0  0  0  0  0  0  0  0  0  0  0
  -24.8610  -33.9410   24.9680 H   0  0  0  0  0  0  0  0  0  0  0  0
  -24.1070  -36.5920   22.9850 C   0  0  0  0  0  1  0  0  0  0  0  0
  -25.3200  -36.2190   23.8520 C   0  0  0  0  0  3  0  0  0  0  0  0
  -27.4060  -37.1520   24.7540 C   0  0  0  0  0  1  0  0  0  0  0  0
  -26.3400  -37.2860   23.7650 N   0  0  0  0  0  0  0  0  0  0  0  0
  -25.9130  -38.2020   23.8810 H   0  0  0  0  0  0  0  0  0  0  0  0
  -27.1360  -22.5690   19.7430 C   0  0  0  0  0  2  0  0  0  0  0  0
  -26.1870  -22.2300   18.6860 N   0  0  0  0  0  0  0  0  0  0  0  0
  -26.0360  -21.2310   18.6540 H   0  0  0  0  0  0  0  0  0  0  0  0
  -24.8960  -22.8760   18.9070 C   0  0  0  0  0  2  0  0  0  0  0  0
  -23.8760  -22.3810   16.7080 C   0  0  0  0  0  1  0  0  0  0  0  0
  -23.4490  -24.5380   17.8160 C   0  0  0  0  0  1  0  0  0  0  0  0
  -24.4000  -23.4210   17.6240 N   0  0  1  0  0  4  0  0  0  0  0  0
  -25.2040  -23.8280   17.1710 H   0  0  0  0  0  0  0  0  0  0  0  0
  -29.4040  -21.2620   19.4260 C   0  0  0  0  0  3  0  0  0  0  0  0
  -30.7980  -21.4800   19.5500 O   0  0  0  0  0  0  0  0  0  0  0  0
  -31.0660  -22.0550   18.8410 H   0  0  0  0  0  0  0  0  0  0  0  0
  -28.9930  -20.1490   20.4770 C   0  0  0  0  0  2  0  0  0  0  0  0
  -30.8220  -14.6040   20.0540 C   0  0  0  0  0  0  0  0  0  0  0  0
  -30.4830  -12.3880   19.0140 C   0  0  0  0  0  2  0  0  0  0  0  0
  -29.4910  -12.5420   17.8440 C   0  0  0  0  0  2  0  0  0  0  0  0
  -28.0440  -12.3840   18.3500 C   0  0  0  0  0  2  0  0  0  0  0  0
  -27.7470  -13.2600   19.5970 C   0  0  0  0  0  3  0  0  0  0  0  0
  -28.8580  -13.1250   20.6600 C   0  0  0  0  0  2  0  0  0  0  0  0
  -30.1370  -13.4220   20.0040 N   0  0  0  0  0  0  0  0  0  0  0  0
  -31.9880  -14.6850   19.6580 O   0  0  0  0  0  0  0  0  0  0  0  0
  -29.8430  -16.5710   19.0560 C   0  0  0  0  0  2  0  0  0  0  0  0
  -30.5440  -16.6260   21.3910 C   0  0  0  0  0  2  0  0  0  0  0  0
  -29.0620  -17.9080   19.2620 C   0  0  0  0  0  2  0  0  0  0  0  0
  -29.8290  -18.0150   21.5490 C   0  0  0  0  0  2  0  0  0  0  0  0
  -30.1060  -15.7570   20.2710 N   0  0  0  0  0  0  0  0  0  0  0  0
  -29.6730  -18.7980   20.2870 N   0  0  2  0  0  4  0  0  0  0  0  0
  -30.6050  -19.0300   19.9730 H   0  0  0  0  0  0  0  0  0  0  0  0
  -25.4080  -13.8680   20.4620 C   0  0  0  0  0  0  0  0  0  0  0  0
  -24.3520  -13.0960   20.8670 C   0  0  0  0  0  0  0  0  0  0  0  0
  -24.7930  -11.7410   20.7740 C   0  0  0  0  0  0  0  0  0  0  0  0
  -26.4240  -12.9800   20.1460 N   0  0  0  0  0  0  0  0  0  0  0  0
  -26.0630  -11.6960   20.3950 N   0  0  0  0  0  0  0  0  0  0  0  0
  -24.0630  -10.4830   20.9740 C   0  0  0  0  0  0  0  0  0  0  0  0
  -24.5080   -9.5080   21.8940 C   0  0  0  0  0  3  0  0  0  0  0  0
  -23.7800   -8.3130   22.0780 C   0  0  0  0  0  3  0  0  0  0  0  0
  -22.5930   -8.0850   21.3430 C   0  0  0  0  0  0  0  0  0  0  0  0
  -22.1690   -9.0480   20.4120 C   0  0  0  0  0  3  0  0  0  0  0  0
  -22.8960  -10.2340   20.2250 C   0  0  0  0  0  3  0  0  0  0  0  0
  -21.8340   -6.9430   21.4390 O   0  0  0  0  0  0  0  0  0  0  0  0
  -21.7660   -6.2180   22.6020 C   0  0  0  0  0  0  0  0  0  0  0  0
  -21.2920   -6.7830   23.8060 C   0  0  0  0  0  3  0  0  0  0  0  0
  -21.1720   -5.9820   24.9590 C   0  0  0  0  0  3  0  0  0  0  0  0
  -21.5150   -4.6190   24.9100 C   0  0  0  0  0  0  0  0  0  0  0  0
  -21.9820   -4.0530   23.7090 C   0  0  0  0  0  3  0  0  0  0  0  0
  -22.1030   -4.8520   22.5580 C   0  0  0  0  0  0  0  0  0  0  0  0
  -22.5330   -4.2950   21.4000 F   0  0  0  0  0  0  0  0  0  0  0  0
  -21.3930   -3.8480   26.0160 F   0  0  0  0  0  0  0  0  0  0  0  0
  -22.9780  -13.5820   21.2270 C   0  0  0  0  0  0  0  0  0  0  0  0
  -22.2870  -12.8700   22.1100 N   0  0  0  0  0  0  0  0  0  0  0  0
  -22.5270  -14.6280   20.7610 O   0  0  0  0  0  0  0  0  0  0  0  0
  -22.6630  -12.0220   22.5050 H   0  0  0  0  0  0  0  0  0  0  0  0
  -21.3690  -13.1800   22.3930 H   0  0  0  0  0  0  0  0  0  0  0  0
  -25.5850  -15.2390   20.3120 N   0  0  0  0  0  0  0  0  0  0  0  0
  -24.8490  -15.9100   20.5050 H   0  0  0  0  0  0  0  0  0  0  0  0
  -26.4310  -15.6680   19.9620 H   0  0  0  0  0  0  0  0  0  0  0  0
  2  1  1  6
  2 55  1  0
  2 47  1  0
  2  3  1  0
  5  4  1  0
  5  3  1  0
  5  6  1  0
  7 18  2  0
  8  6  1  0
  8 13  1  0
  9 17  1  0
  9 19  1  0
 10 16  1  0
 10 12  1  0
 11 17  1  0
 12 13  2  0
 12 11  1  0
 14  8  2  0
 15 14  1  0
 15 10  2  0
 16  9  1  0
 17  7  1  0
 19 21  2  0
 20 19  1  0
 22 20  1  0
 23 32  2  0
 23 28  1  0
 24 20  1  0
 24 28  1  0
 25 24  1  0
 26 27  1  0
 26 25  1  0
 27 23  1  0
 28 29  2  0
 29 30  1  0
 31 30  2  0
 32 31  1  0
 33  7  1  0
 33 38  1  0
 33 34  1  0
 34 37  1  1
 34 35  1  0
 36 34  1  0
 38 41  1  0
 39 43  1  0
 39 38  1  0
 40 39  2  0
 43 42  1  0
 45 43  1  0
 45 46  1  0
 45 44  1  0
 48 50  1  0
 48 47  1  0
 49 48  1  0
 51 53  1  0
 53 52  1  0
 53 50  1  0
 53 54  1  6
 55 56  1  0
 55 58  1  0
 57 56  1  0
 59 71  1  0
 60 65  1  0
 61 62  1  0
 61 60  1  0
 63 62  1  0
 63 77  1  0
 63 64  1  0
 65 59  1  0
 65 64  1  0
 66 59  2  0
 67 69  1  0
 67 71  1  0
 68 70  1  0
 69 72  1  0
 71 68  1  0
 72 58  1  0
 72 70  1  0
 72 73  1  6
 74 75  2  0
 75 94  1  0
 76 75  1  0
 76 79  1  0
 77 78  1  0
 77 74  1  0
 78 76  2  0
 79 80  1  0
 80 81  2  0
 82 85  1  0
 82 81  1  0
 83 82  2  0
 84 83  1  0
 84 79  2  0
 85 86  1  0
 86 87  1  0
 87 88  2  0
 89 88  1  0
 89 93  1  0
 90 89  2  0
 91 86  2  0
 91 90  1  0
 92 91  1  0
 94 95  1  0
 95 98  1  0
 95 97  1  0
 96 94  2  0
 99 74  1  0
 99100  1  0
101 99  1  0
M  ISO  4   5 101   6 101  59 100  71 100
M  END
>  <TORSDO>  (73) 
F 25

>  <SCORE>  (73) 
-12.518

>  <name>  (73) 
72

>  <ligand_id>  (73) 
72

>  <original_smiles>  (73) 
[H]OC([H])(C(C([H])([H])[H])(C([H])([H])N([H])C([H])([H])[N+]([H])(C([H])([H])[H])C([H])([H])[H])C([H])([H])C([H])(Oc1c([H])c([H])c2c(c1[H])C([H])([H])N(C(=O)C([H])(N([H])C(=O)C([H])(N([H])C([H])([H])[H])C([H])([H])[H])C(C([H])([H])[H])(C([H])([H])[H])C([H])([H])[H])C([H])(C(=O)N([H])C1([H])c3c([H])c([H])c([H])c([H])c3C([H])([H])C([H])([H])C1([H])[H])C2([H])[H])C([H])([H])[H])C([H])([H])[N+]1([H])C([H])([H])C([H])([H])N(C(=O)N2C([H])([H])C([H])([H])C([H])([H])C([H])(n3nc(-c4c([H])c([H])c(Oc5c([H])c([H])c(F)c([H])c5F)c([H])c4[H])c(C(=O)N([H])[H])c3N([H])[H])C2([H])[H])C([H])([H])C1([H])[H]

>  <smiles>  (73) 
[H]OC([H])(C(C([H])([H])[H])(C([H])([H])N([H])C([H])([H])[N+]([H])(C([H])([H])[H])C([H])([H])[H])C([H])([H])C([H])(Oc1c([H])c([H])c2c(c1[H])C([H])([H])N(C(=O)C([H])(N([H])C(=O)C([H])(N([H])C([H])([H])[H])C([H])([H])[H])C(C([H])([H])[H])(C([H])([H])[H])C([H])([H])[H])C([H])(C(=O)N([H])C1([H])c3c([H])c([H])c([H])c([H])c3C([H])([H])C([H])([H])C1([H])[H])C2([H])[H])C([H])([H])[H])C([H])([H])[N+]1([H])C([H])([H])C([H])([H])N(C(=O)N2C([H])([H])C([H])([H])C([H])([H])C([H])(n3nc(-c4c([H])c([H])c(Oc5c([H])c([H])c(F)c([H])c5F)c([H])c4[H])c(C(=O)N([H])[H])c3N([H])[H])C2([H])[H])C([H])([H])C1([H])[H]

$$$$
73:0:0
     RDKit          3D

 96 95  0  0  1  0  0  0  0  0999 V2000
  -30.8790  -11.1790   20.7340 C   0  0  0  0  0  3  0  0  0  0  0  0
  -29.0980  -13.0950   22.0300 C   0  0  0  0  0  2  0  0  0  0  0  0
  -30.0930  -11.7810   22.0370 C   0  0  0  0  0  0  0  0  0  0  0  0
  -30.7470  -11.7800   19.2400 C   0  0  0  0  0  3  0  0  0  0  0  0
  -28.8400  -13.9710   20.6730 C   0  0  0  0  0  1  0  0  0  0  0  0
  -29.7750  -12.9600   19.0470 N   0  0  0  0  0  1  0  0  0  0  0  0
  -30.3090   -9.4790   22.9950 C   0  0  0  0  0  1  0  0  0  0  0  0
  -29.2390  -11.2560   24.4120 C   0  0  0  0  0  1  0  0  0  0  0  0
  -30.2850  -10.9820   23.3220 C   0  0  0  0  0  3  0  0  0  0  0  0
  -30.0530  -16.4420   21.8470 C   0  0  0  0  0  1  0  0  0  0  0  0
  -28.7810  -16.1850   21.0160 C   0  0  0  0  0  1  0  0  0  0  0  0
  -28.3690  -18.0920   20.4270 N   0  0  0  0  0  2  0  0  0  0  0  0
  -28.5850  -18.0320   19.4450 H   0  0  0  0  0  0  0  0  0  0  0  0
  -27.3630  -18.0220   20.4490 H   0  0  0  0  0  0  0  0  0  0  0  0
  -28.5660  -20.0960   20.7380 C   0  0  0  0  0 15  0  0  0  0  0  0
  -27.9430  -22.2810   20.3380 C   0  0  0  0  0 15  0  0  0  0  0  0
  -28.1370  -24.3420   20.4920 O   0  0  0  0  0  1  0  0  0  0  0  0
  -24.9110  -31.4520   23.1650 C   0  0  0  0  0  0  0  0  0  0  0  0
  -27.3910  -25.8830   20.3400 C   0  0  0  0  0  0  0  0  0  0  0  0
  -23.8340  -30.0720   21.4550 C   0  0  0  0  0  3  0  0  0  0  0  0
  -25.3350  -28.3540   20.1050 C   0  0  0  0  0  0  0  0  0  0  0  0
  -26.4270  -30.0350   21.5420 C   0  0  0  0  0  2  0  0  0  0  0  0
  -26.4890  -28.5530   20.8670 C   0  0  0  0  0  0  0  0  0  0  0  0
  -27.4880  -27.3640   20.9320 C   0  0  0  0  0  3  0  0  0  0  0  0
  -26.2670  -26.0700   19.4630 C   0  0  0  0  0  3  0  0  0  0  0  0
  -25.3100  -27.1560   19.3670 C   0  0  0  0  0  3  0  0  0  0  0  0
  -24.1690  -29.3820   20.0930 C   0  0  0  0  0  2  0  0  0  0  0  0
  -25.0880  -30.5670   22.1060 N   0  0  0  0  0  0  0  0  0  0  0  0
  -23.7820  -31.7590   23.5950 O   0  0  0  0  0  0  0  0  0  0  0  0
  -23.0390  -29.1040   22.3770 C   0  0  0  0  0  0  0  0  0  0  0  0
  -21.7070  -28.9900   22.2100 N   0  0  0  0  0  0  0  0  0  0  0  0
  -23.6420  -28.4500   23.2290 O   0  0  0  0  0  0  0  0  0  0  0  0
  -21.2630  -29.5630   21.5080 H   0  0  0  0  0  0  0  0  0  0  0  0
  -18.2820  -27.8140   22.6190 C   0  0  0  0  0  0  0  0  0  0  0  0
  -20.8440  -28.0400   22.9290 C   0  0  0  0  0  3  0  0  0  0  0  0
  -20.9300  -26.6290   22.2980 C   0  0  0  0  0  2  0  0  0  0  0  0
  -19.8420  -26.3690   21.2510 C   0  0  0  0  0  2  0  0  0  0  0  0
  -18.4510  -26.5010   21.8760 C   0  0  0  0  0  2  0  0  0  0  0  0
  -19.4030  -28.5450   23.1000 C   0  0  0  0  0  0  0  0  0  0  0  0
  -19.1840  -29.7730   23.7610 C   0  0  0  0  0  3  0  0  0  0  0  0
  -17.8790  -30.2710   23.9450 C   0  0  0  0  0  3  0  0  0  0  0  0
  -16.7740  -29.5380   23.4750 C   0  0  0  0  0  3  0  0  0  0  0  0
  -16.9770  -28.3130   22.8190 C   0  0  0  0  0  3  0  0  0  0  0  0
  -26.1090  -32.1310   23.8970 C   0  0  0  0  0  3  0  0  0  0  0  0
  -25.7570  -33.5440   24.1820 N   0  0  0  0  0  0  0  0  0  0  0  0
  -26.1380  -34.6080   23.4620 C   0  0  0  0  0  0  0  0  0  0  0  0
  -26.8690  -34.5060   22.4740 O   0  0  0  0  0  0  0  0  0  0  0  0
  -25.1040  -33.6930   24.9360 H   0  0  0  0  0  0  0  0  0  0  0  0
  -24.4180  -36.4160   23.0610 C   0  0  0  0  0  1  0  0  0  0  0  0
  -25.6400  -36.0050   23.9000 C   0  0  0  0  0  3  0  0  0  0  0  0
  -27.7440  -36.9230   24.7840 C   0  0  0  0  0  1  0  0  0  0  0  0
  -26.6710  -37.0630   23.8040 N   0  0  0  0  0  0  0  0  0  0  0  0
  -26.2540  -37.9830   23.9180 H   0  0  0  0  0  0  0  0  0  0  0  0
  -26.4840  -31.4140   25.2550 C   0  0  1  0  0  0  0  0  0  0  0  0
  -25.2930  -31.2440   26.2270 C   0  0  0  0  0  1  0  0  0  0  0  0
  -27.0700  -30.0080   25.0100 C   0  0  0  0  0  1  0  0  0  0  0  0
  -27.5850  -32.2190   25.9840 C   0  0  0  0  0  1  0  0  0  0  0  0
  -31.9530  -12.1830   18.3390 C   0  0  0  0  0  2  0  0  0  0  0  0
  -31.6450  -14.6300   18.5930 C   0  0  0  0  0  0  0  0  0  0  0  0
  -30.8590  -13.8730   20.4400 C   0  0  0  0  0  1  0  0  0  0  0  0
  -28.6130  -11.6060   20.2950 C   0  0  0  0  0  1  0  0  0  0  0  0
  -27.7460  -11.5910   18.7130 C   0  0  0  0  0  2  0  0  0  0  0  0
  -27.3270  -13.2030   18.4470 C   0  0  0  0  0  2  0  0  0  0  0  0
  -28.7380  -14.7360   18.1470 C   0  0  0  0  0 15  0  0  0  0  0  0
  -30.4400  -14.9500   19.0870 N   0  0  0  0  0  2  0  0  0  0  0  0
  -32.6740  -15.0210   19.0870 O   0  0  0  0  0  0  0  0  0  0  0  0
  -31.6990  -13.5600   17.7580 N   0  0  0  0  0  0  0  0  0  0  0  0
  -30.7520  -13.4860   17.4060 H   0  0  0  0  0  0  0  0  0  0  0  0
  -25.3500  -13.8800   20.1360 C   0  0  0  0  0  0  0  0  0  0  0  0
  -24.3100  -13.1790   20.7230 C   0  0  0  0  0  0  0  0  0  0  0  0
  -24.6150  -11.7990   20.7170 C   0  0  0  0  0  0  0  0  0  0  0  0
  -26.2310  -12.9930   19.6090 N   0  0  0  0  0  0  0  0  0  0  0  0
  -25.7580  -11.7420   20.1190 N   0  0  0  0  0  0  0  0  0  0  0  0
  -23.8510  -10.5480   21.0310 C   0  0  0  0  0  0  0  0  0  0  0  0
  -24.3230   -9.5290   21.8990 C   0  0  0  0  0  3  0  0  0  0  0  0
  -23.5230   -8.3940   22.2040 C   0  0  0  0  0  3  0  0  0  0  0  0
  -22.2300   -8.2560   21.6390 C   0  0  0  0  0  0  0  0  0  0  0  0
  -21.7850   -9.2460   20.7430 C   0  0  0  0  0  3  0  0  0  0  0  0
  -22.5800  -10.3690   20.4430 C   0  0  0  0  0  3  0  0  0  0  0  0
  -21.3830   -7.1890   21.8550 O   0  0  0  0  0  0  0  0  0  0  0  0
  -21.4540   -6.4110   22.9880 C   0  0  0  0  0  0  0  0  0  0  0  0
  -21.3330   -6.9580   24.2850 C   0  0  0  0  0  3  0  0  0  0  0  0
  -21.3380   -6.1130   25.4120 C   0  0  0  0  0  3  0  0  0  0  0  0
  -21.4630   -4.7190   25.2510 C   0  0  0  0  0  0  0  0  0  0  0  0
  -21.5730   -4.1690   23.9610 C   0  0  0  0  0  3  0  0  0  0  0  0
  -21.5660   -5.0130   22.8350 C   0  0  0  0  0  0  0  0  0  0  0  0
  -21.6450   -4.4750   21.5950 F   0  0  0  0  0  0  0  0  0  0  0  0
  -21.4740   -3.9040   26.3330 F   0  0  0  0  0  0  0  0  0  0  0  0
  -22.9850  -13.7420   21.0730 C   0  0  0  0  0  0  0  0  0  0  0  0
  -22.2930  -13.1270   22.0250 N   0  0  0  0  0  0  0  0  0  0  0  0
  -22.5660  -14.7410   20.4980 O   0  0  0  0  0  0  0  0  0  0  0  0
  -22.6580  -12.3100   22.4880 H   0  0  0  0  0  0  0  0  0  0  0  0
  -21.3880  -13.4860   22.2910 H   0  0  0  0  0  0  0  0  0  0  0  0
  -25.5990  -15.2100   19.8730 N   0  0  0  0  0  0  0  0  0  0  0  0
  -26.0230  -15.3850   18.9720 H   0  0  0  0  0  0  0  0  0  0  0  0
  -24.8120  -15.8280   20.0310 H   0  0  0  0  0  0  0  0  0  0  0  0
  1  3  2  0
  2  3  1  0
  3  9  1  0
  4  6  1  0
  4  1  1  0
  5  2  1  0
  7  9  1  0
  9  8  1  0
 11 10  1  0
 12 14  1  0
 13 12  1  0
 18 29  2  0
 19 17  1  0
 19 24  1  0
 20 28  1  0
 20 30  1  0
 21 23  1  0
 22 28  1  0
 23 24  2  0
 23 22  1  0
 25 19  2  0
 26 25  1  0
 26 21  2  0
 27 21  1  0
 27 20  1  0
 28 18  1  0
 30 32  2  0
 31 30  1  0
 33 31  1  0
 34 43  2  0
 34 39  1  0
 35 31  1  0
 35 39  1  0
 36 35  1  0
 37 38  1  0
 37 36  1  0
 38 34  1  0
 39 40  2  0
 40 41  1  0
 42 41  2  0
 43 42  1  0
 44 18  1  0
 44 45  1  0
 44 54  1  0
 45 48  1  0
 46 50  1  0
 46 45  1  0
 47 46  2  0
 50 49  1  0
 52 50  1  0
 52 53  1  0
 52 51  1  0
 54 57  1  1
 54 55  1  0
 56 54  1  0
 58  4  1  0
 59 66  2  0
 59 65  1  0
 62 61  1  0
 63 62  1  0
 63 72  1  0
 65 60  1  0
 67 58  1  0
 67 59  1  0
 68 67  1  0
 69 70  2  0
 70 89  1  0
 71 70  1  0
 71 74  1  0
 72 73  1  0
 72 69  1  0
 73 71  2  0
 74 75  1  0
 75 76  2  0
 77 80  1  0
 77 76  1  0
 78 77  2  0
 79 78  1  0
 79 74  2  0
 80 81  1  0
 81 82  1  0
 82 83  2  0
 84 83  1  0
 84 88  1  0
 85 84  2  0
 86 81  2  0
 86 85  1  0
 87 86  1  0
 89 90  1  0
 90 93  1  0
 90 92  1  0
 91 89  2  0
 94 96  1  0
 94 69  1  0
 95 94  1  0
M  ISO  4  16 101  17 101  59 100  67 100
M  END
>  <TORSDO>  (74) 
F 22

>  <SCORE>  (74) 
-10.622

>  <name>  (74) 
73

>  <ligand_id>  (74) 
73

>  <original_smiles>  (74) 
[H]c1c([H])c([H])c2c(c1[H])C([H])([H])C([H])([H])C([H])([H])C2([H])N([H])C(=O)C1([H])N(C(=O)C([H])(N([H])C(=O)C([H])(N([H])C([H])([H])[H])C([H])([H])[H])C(C([H])([H])[H])(C([H])([H])[H])C([H])([H])[H])C([H])([H])c2c([H])c(OC([H])([H])C([H])([H])[N+]([H])([H])C([H])(c3nc(C([H])([H])N([H])C(=O)N4C([H])([H])C([H])([H])C([H])([H])C([H])(n5nc(-c6c([H])c([H])c(Oc7c([H])c([H])c(F)c([H])c7F)c([H])c6[H])c(C(=O)N([H])[H])c5N([H])[H])C4([H])[H])c([H])c(C([H])(C([H])([H])[H])C([H])([H])[H])c3[H])C([H])([H])[H])c([H])c([H])c2C1([H])[H]

>  <smiles>  (74) 
[H]c1c([H])c([H])c2c(c1[H])C([H])([H])C([H])([H])C([H])([H])C2([H])N([H])C(=O)C1([H])N(C(=O)C([H])(N([H])C(=O)C([H])(N([H])C([H])([H])[H])C([H])([H])[H])C(C([H])([H])[H])(C([H])([H])[H])C([H])([H])[H])C([H])([H])c2c([H])c(OC([H])([H])C([H])([H])[N+]([H])([H])C([H])(c3nc(C([H])([H])N([H])C(=O)N4C([H])([H])C([H])([H])C([H])([H])C([H])(n5nc(-c6c([H])c([H])c(Oc7c([H])c([H])c(F)c([H])c7F)c([H])c6[H])c(C(=O)N([H])[H])c5N([H])[H])C4([H])[H])c([H])c(C([H])(C([H])([H])[H])C([H])([H])[H])c3[H])C([H])([H])[H])c([H])c([H])c2C1([H])[H]

$$$$
74:0:0
     RDKit          3D

 91 99  0  0  1  0  0  0  0  0999 V2000
  -29.0670  -23.0270   20.5440 C   0  0  0  0  0  2  0  0  0  0  0  0
  -28.7910  -21.3990   20.3290 N   0  0  0  0  0  4  0  0  0  0  0  0
  -27.8240  -21.2630   20.5740 H   0  0  0  0  0  0  0  0  0  0  0  0
  -28.8250  -21.2840   19.3290 H   0  0  0  0  0  0  0  0  0  0  0  0
  -29.5380  -20.0350   20.9320 C   0  0  0  0  0  2  0  0  0  0  0  0
  -30.5060  -15.5600   20.8640 C   0  0  0  0  0  0  0  0  0  0  0  0
  -30.6940  -13.0430   20.2100 C   0  0  0  0  0  2  0  0  0  0  0  0
  -29.9150  -12.6570   18.9240 C   0  0  0  0  0  2  0  0  0  0  0  0
  -28.4260  -12.3820   19.2240 C   0  0  0  0  0  2  0  0  0  0  0  0
  -27.8180  -13.3920   20.2280 C   0  0  0  0  0  3  0  0  0  0  0  0
  -28.7500  -13.6940   21.4240 C   0  0  0  0  0  2  0  0  0  0  0  0
  -30.0150  -14.2150   20.8700 N   0  0  0  0  0  0  0  0  0  0  0  0
  -31.7440  -15.6170   20.9500 O   0  0  0  0  0  0  0  0  0  0  0  0
  -29.4850  -17.3190   18.0790 C   0  0  0  0  0  2  0  0  0  0  0  0
  -29.8240  -18.6170   18.7650 C   0  0  0  0  0  2  0  0  0  0  0  0
  -29.0200  -16.3750   19.1860 C   0  0  0  0  0  2  0  0  0  0  0  0
  -29.4100  -18.4120   20.2200 C   0  0  0  0  0  3  0  0  0  0  0  0
  -29.6600  -16.7420   20.4780 N   0  0  0  0  0  0  0  0  0  0  0  0
  -25.3800  -13.9390   20.7290 C   0  0  0  0  0  0  0  0  0  0  0  0
  -24.2980  -13.1500   20.9970 C   0  0  0  0  0  0  0  0  0  0  0  0
  -24.7930  -11.8110   21.0500 C   0  0  0  0  0  0  0  0  0  0  0  0
  -26.4580  -13.0750   20.6230 N   0  0  0  0  0  0  0  0  0  0  0  0
  -26.1100  -11.7930   20.8840 N   0  0  0  0  0  0  0  0  0  0  0  0
  -24.0810  -10.5380   21.1900 C   0  0  0  0  0  0  0  0  0  0  0  0
  -24.4430   -9.5980   22.1780 C   0  0  0  0  0  3  0  0  0  0  0  0
  -23.7310   -8.3870   22.3070 C   0  0  0  0  0  3  0  0  0  0  0  0
  -22.6420   -8.1100   21.4460 C   0  0  0  0  0  0  0  0  0  0  0  0
  -22.3030   -9.0400   20.4470 C   0  0  0  0  0  3  0  0  0  0  0  0
  -23.0170  -10.2410   20.3160 C   0  0  0  0  0  3  0  0  0  0  0  0
  -21.9070   -6.9500   21.4840 O   0  0  0  0  0  0  0  0  0  0  0  0
  -21.7640   -6.2260   22.6400 C   0  0  0  0  0  0  0  0  0  0  0  0
  -21.1800   -6.7800   23.8000 C   0  0  0  0  0  3  0  0  0  0  0  0
  -20.9880   -5.9790   24.9430 C   0  0  0  0  0  3  0  0  0  0  0  0
  -21.3710   -4.6250   24.9270 C   0  0  0  0  0  0  0  0  0  0  0  0
  -21.9490   -4.0690   23.7710 C   0  0  0  0  0  3  0  0  0  0  0  0
  -22.1420   -4.8680   22.6300 C   0  0  0  0  0  0  0  0  0  0  0  0
  -22.6780   -4.3220   21.5110 F   0  0  0  0  0  0  0  0  0  0  0  0
  -21.1810   -3.8540   26.0220 F   0  0  0  0  0  0  0  0  0  0  0  0
  -22.8710  -13.6020   21.0980 C   0  0  0  0  0  0  0  0  0  0  0  0
  -22.0640  -12.9150   21.8990 N   0  0  0  0  0  0  0  0  0  0  0  0
  -22.4730  -14.6030   20.5010 O   0  0  0  0  0  0  0  0  0  0  0  0
  -22.3930  -12.1100   22.4100 H   0  0  0  0  0  0  0  0  0  0  0  0
  -21.1010  -13.1990   22.0030 H   0  0  0  0  0  0  0  0  0  0  0  0
  -25.5310  -15.3110   20.5390 N   0  0  0  0  0  0  0  0  0  0  0  0
  -24.7470  -15.9540   20.5810 H   0  0  0  0  0  0  0  0  0  0  0  0
  -26.4120  -15.7730   20.3620 H   0  0  0  0  0  0  0  0  0  0  0  0
  -27.9460  -24.4050   20.2760 C   0  0  0  0  0  3  0  0  0  0  0  0
  -25.3880  -23.8470   20.6570 C   0  0  0  0  0  1  0  0  0  0  0  0
  -26.7300  -25.0140   22.5060 C   0  0  0  0  0  1  0  0  0  0  0  0
  -26.7800  -24.0900   21.2790 C   0  0  0  0  0  3  0  0  0  0  0  0
  -28.1760  -26.0460   20.2390 O   0  0  0  0  0  0  0  0  0  0  0  0
  -24.5540  -31.9280   23.2220 C   0  0  0  0  0  0  0  0  0  0  0  0
  -27.1700  -27.1410   20.1420 C   0  0  0  0  0  0  0  0  0  0  0  0
  -23.3770  -30.5500   21.5540 C   0  0  0  0  0  3  0  0  0  0  0  0
  -24.8530  -28.9920   20.1040 C   0  0  0  0  0  0  0  0  0  0  0  0
  -25.9430  -30.7880   21.4310 C   0  0  0  0  0  2  0  0  0  0  0  0
  -26.0290  -29.3950   20.7490 C   0  0  0  0  0  0  0  0  0  0  0  0
  -27.1780  -28.4870   20.7510 C   0  0  0  0  0  3  0  0  0  0  0  0
  -25.9850  -26.9130   19.4060 C   0  0  0  0  0  3  0  0  0  0  0  0
  -24.8560  -27.7710   19.4130 C   0  0  0  0  0  3  0  0  0  0  0  0
  -23.6200  -29.8940   20.1660 C   0  0  0  0  0  2  0  0  0  0  0  0
  -24.6440  -31.1160   22.1230 N   0  0  0  0  0  0  0  0  0  0  0  0
  -23.4590  -32.2000   23.7410 O   0  0  0  0  0  0  0  0  0  0  0  0
  -22.6890  -29.5290   22.4980 C   0  0  0  0  0  0  0  0  0  0  0  0
  -21.3610  -29.3550   22.3640 N   0  0  0  0  0  0  0  0  0  0  0  0
  -23.3570  -28.8970   23.3200 O   0  0  0  0  0  0  0  0  0  0  0  0
  -20.8760  -29.9180   21.6780 H   0  0  0  0  0  0  0  0  0  0  0  0
  -17.9780  -28.1530   22.8850 C   0  0  0  0  0  0  0  0  0  0  0  0
  -20.5440  -28.3990   23.1190 C   0  0  0  0  0  3  0  0  0  0  0  0
  -20.6300  -26.9840   22.5010 C   0  0  0  0  0  2  0  0  0  0  0  0
  -19.5120  -26.6980   21.4940 C   0  0  0  0  0  2  0  0  0  0  0  0
  -18.1400  -26.8280   22.1600 C   0  0  0  0  0  2  0  0  0  0  0  0
  -19.1070  -28.9000   23.3210 C   0  0  0  0  0  0  0  0  0  0  0  0
  -18.8990  -30.1400   23.9610 C   0  0  0  0  0  3  0  0  0  0  0  0
  -17.5970  -30.6350   24.1680 C   0  0  0  0  0  3  0  0  0  0  0  0
  -16.4850  -29.8860   23.7450 C   0  0  0  0  0  3  0  0  0  0  0  0
  -16.6770  -28.6480   23.1090 C   0  0  0  0  0  3  0  0  0  0  0  0
  -25.8160  -32.5700   23.8710 C   0  0  0  0  0  3  0  0  0  0  0  0
  -26.3000  -31.8110   25.1670 C   0  0  1  0  0  0  0  0  0  0  0  0
  -25.1810  -31.5820   26.2090 C   0  0  0  0  0  1  0  0  0  0  0  0
  -26.8990  -30.4300   24.8140 C   0  0  0  0  0  1  0  0  0  0  0  0
  -27.4300  -32.6150   25.8540 C   0  0  0  0  0  1  0  0  0  0  0  0
  -25.4960  -33.9720   24.1960 N   0  0  0  0  0  0  0  0  0  0  0  0
  -25.8620  -35.0330   23.4670 C   0  0  0  0  0  0  0  0  0  0  0  0
  -26.5700  -34.9360   22.4600 O   0  0  0  0  0  0  0  0  0  0  0  0
  -24.8750  -34.1220   24.9790 H   0  0  0  0  0  0  0  0  0  0  0  0
  -24.1810  -36.8600   23.0490 C   0  0  0  0  0  1  0  0  0  0  0  0
  -25.3690  -36.4210   23.9220 C   0  0  0  0  0  3  0  0  0  0  0  0
  -27.4590  -37.2650   24.8980 C   0  0  0  0  0  1  0  0  0  0  0  0
  -26.4200  -37.4610   23.8890 N   0  0  0  0  0  0  0  0  0  0  0  0
  -26.0190  -38.3860   24.0240 H   0  0  0  0  0  0  0  0  0  0  0  0
  2  1  1  0
  2  3  1  0
  2  5  1  0
  4  2  1  0
  6 12  1  0
  6 13  2  0
  7 12  1  0
  8  9  1  0
  8  7  1  0
 10  9  1  0
 10 22  1  0
 10 11  1  0
 12 11  1  0
 14 15  1  0
 14 16  1  0
 15 17  1  0
 16 18  1  0
 17 18  1  0
 17  5  1  0
 18  6  1  0
 19 20  2  0
 20 21  1  0
 20 39  1  0
 21 24  1  0
 22 19  1  0
 22 23  1  0
 23 21  2  0
 24 25  1  0
 25 26  2  0
 27 30  1  0
 27 26  1  0
 28 27  2  0
 29 28  1  0
 29 24  2  0
 30 31  1  0
 31 32  1  0
 32 33  2  0
 34 33  1  0
 34 38  1  0
 35 34  2  0
 36 31  2  0
 36 35  1  0
 37 36  1  0
 39 40  1  0
 40 43  1  0
 40 42  1  0
 41 39  2  0
 44 45  1  0
 44 19  1  0
 46 44  1  0
 47  1  1  0
 47 50  1  0
 48 50  1  0
 50 49  1  0
 51 47  1  0
 52 63  2  0
 53 51  1  0
 53 58  1  0
 54 62  1  0
 54 64  1  0
 55 61  1  0
 55 57  1  0
 56 62  1  0
 57 58  2  0
 57 56  1  0
 59 60  1  0
 59 53  2  0
 60 55  2  0
 61 54  1  0
 62 52  1  0
 64 66  2  0
 65 64  1  0
 67 65  1  0
 68 77  2  0
 68 73  1  0
 69 65  1  0
 69 73  1  0
 70 69  1  0
 71 72  1  0
 71 70  1  0
 72 68  1  0
 73 74  2  0
 74 75  1  0
 76 75  2  0
 77 76  1  0
 78 52  1  0
 78 83  1  0
 78 79  1  0
 79 82  1  1
 79 80  1  0
 81 79  1  0
 83 86  1  0
 84 88  1  0
 84 83  1  0
 85 84  2  0
 88 87  1  0
 90 88  1  0
 90 91  1  0
 90 89  1  0
M  ISO  4   6 100  18 100  47 101  51 101
M  END
>  <TORSDO>  (75) 
F 20

>  <SCORE>  (75) 
-15.313

>  <name>  (75) 
74

>  <ligand_id>  (75) 
74

>  <original_smiles>  (75) 
[H]c1c([H])c([H])c2c(c1[H])C([H])([H])C([H])([H])C([H])([H])C2([H])N([H])C(=O)C1([H])N(C(=O)C([H])(N([H])C(=O)C([H])(N([H])C([H])([H])[H])C([H])([H])[H])C(C([H])([H])[H])(C([H])([H])[H])C([H])([H])[H])C([H])([H])c2c([H])c(OC([H])(C([H])(C([H])([H])[H])C([H])([H])[H])C([H])([H])[N+]([H])([H])C([H])([H])C3([H])N(C(=O)N4C([H])([H])C([H])([H])C([H])([H])C([H])(n5nc(-c6c([H])c([H])c(Oc7c([H])c([H])c(F)c([H])c7F)c([H])c6[H])c(C(=O)N([H])[H])c5N([H])[H])C4([H])[H])C([H])([H])C([H])([H])C3([H])[H])c([H])c([H])c2C1([H])[H]

>  <smiles>  (75) 
[H]c1c([H])c([H])c2c(c1[H])C([H])([H])C([H])([H])C([H])([H])C2([H])N([H])C(=O)C1([H])N(C(=O)C([H])(N([H])C(=O)C([H])(N([H])C([H])([H])[H])C([H])([H])[H])C(C([H])([H])[H])(C([H])([H])[H])C([H])([H])[H])C([H])([H])c2c([H])c(OC([H])(C([H])(C([H])([H])[H])C([H])([H])[H])C([H])([H])[N+]([H])([H])C([H])([H])C3([H])N(C(=O)N4C([H])([H])C([H])([H])C([H])([H])C([H])(n5nc(-c6c([H])c([H])c(Oc7c([H])c([H])c(F)c([H])c7F)c([H])c6[H])c(C(=O)N([H])[H])c5N([H])[H])C4([H])[H])C([H])([H])C([H])([H])C3([H])[H])c([H])c([H])c2C1([H])[H]

$$$$
75:0:0
     RDKit          3D

 91 99  0  0  1  0  0  0  0  0999 V2000
  -30.5810  -14.9410   20.3680 C   0  0  0  0  0  0  0  0  0  0  0  0
  -30.4250  -12.5660   19.5530 C   0  0  0  0  0  2  0  0  0  0  0  0
  -29.5270  -12.4750   18.3020 C   0  0  0  0  0  2  0  0  0  0  0  0
  -28.0530  -12.3000   18.7110 C   0  0  0  0  0  2  0  0  0  0  0  0
  -27.6200  -13.2900   19.8240 C   0  0  0  0  0  3  0  0  0  0  0  0
  -28.6480  -13.3720   20.9710 C   0  0  0  0  0  2  0  0  0  0  0  0
  -29.9430  -13.7110   20.3700 N   0  0  0  0  0  0  0  0  0  0  0  0
  -31.7860  -14.9650   20.0940 O   0  0  0  0  0  0  0  0  0  0  0  0
  -29.7740  -20.8210   19.9230 C   0  0  0  0  0  0  0  0  0  0  0  0
  -28.7060  -18.4420   19.7340 C   0  0  0  0  0  2  0  0  0  0  0  0
  -29.2990  -16.9680   19.4090 C   0  0  0  0  0  2  0  0  0  0  0  0
  -30.3340  -17.1840   21.5220 C   0  0  0  0  0  2  0  0  0  0  0  0
  -30.7430  -18.6590   21.0050 C   0  0  0  0  0  3  0  0  0  0  0  0
  -29.6570  -19.4510   20.2960 N   0  0  0  0  0  0  0  0  0  0  0  0
  -29.8790  -16.1590   20.5360 N   0  0  0  0  0  0  0  0  0  0  0  0
  -30.9060  -21.2830   19.7640 O   0  0  0  0  0  0  0  0  0  0  0  0
  -25.2390  -13.9030   20.5330 C   0  0  0  0  0  0  0  0  0  0  0  0
  -24.1580  -13.1410   20.8860 C   0  0  0  0  0  0  0  0  0  0  0  0
  -24.6070  -11.7850   20.8620 C   0  0  0  0  0  0  0  0  0  0  0  0
  -26.2740  -13.0120   20.3070 N   0  0  0  0  0  0  0  0  0  0  0  0
  -25.9020  -11.7320   20.5710 N   0  0  0  0  0  0  0  0  0  0  0  0
  -23.8620  -10.5310   21.0400 C   0  0  0  0  0  0  0  0  0  0  0  0
  -24.2630   -9.5610   21.9860 C   0  0  0  0  0  3  0  0  0  0  0  0
  -23.5170   -8.3730   22.1520 C   0  0  0  0  0  3  0  0  0  0  0  0
  -22.3590   -8.1470   21.3730 C   0  0  0  0  0  0  0  0  0  0  0  0
  -21.9770   -9.1050   20.4160 C   0  0  0  0  0  3  0  0  0  0  0  0
  -22.7230  -10.2840   20.2480 C   0  0  0  0  0  3  0  0  0  0  0  0
  -21.5880   -7.0130   21.4490 O   0  0  0  0  0  0  0  0  0  0  0  0
  -21.4950   -6.2810   22.6060 C   0  0  0  0  0  0  0  0  0  0  0  0
  -21.0480   -6.8570   23.8160 C   0  0  0  0  0  3  0  0  0  0  0  0
  -20.9010   -6.0540   24.9650 C   0  0  0  0  0  3  0  0  0  0  0  0
  -21.1890   -4.6770   24.9040 C   0  0  0  0  0  0  0  0  0  0  0  0
  -21.6270   -4.1020   23.6980 C   0  0  0  0  0  3  0  0  0  0  0  0
  -21.7760   -4.9020   22.5520 C   0  0  0  0  0  0  0  0  0  0  0  0
  -22.1780   -4.3380   21.3880 F   0  0  0  0  0  0  0  0  0  0  0  0
  -21.0390   -3.9040   26.0050 F   0  0  0  0  0  0  0  0  0  0  0  0
  -22.7650  -13.6360   21.1370 C   0  0  0  0  0  0  0  0  0  0  0  0
  -22.0180  -12.9520   21.9970 N   0  0  0  0  0  0  0  0  0  0  0  0
  -22.3460  -14.6630   20.6050 O   0  0  0  0  0  0  0  0  0  0  0  0
  -22.3690  -12.1200   22.4460 H   0  0  0  0  0  0  0  0  0  0  0  0
  -21.0820  -13.2660   22.2100 H   0  0  0  0  0  0  0  0  0  0  0  0
  -25.4240  -15.2710   20.3610 N   0  0  0  0  0  0  0  0  0  0  0  0
  -24.6710  -15.9400   20.4720 H   0  0  0  0  0  0  0  0  0  0  0  0
  -26.2970  -15.6990   20.0770 H   0  0  0  0  0  0  0  0  0  0  0  0
  -30.4340  -19.7370   23.3450 C   0  0  0  0  0  1  0  0  0  0  0  0
  -32.7110  -18.8320   22.6980 C   0  0  0  0  0  1  0  0  0  0  0  0
  -31.4020  -19.4590   22.1810 C   0  0  0  0  0  3  0  0  0  0  0  0
  -28.6070  -21.9370   19.7360 C   0  0  0  0  0  2  0  0  0  0  0  0
  -28.9680  -23.5670   19.7910 C   0  0  0  0  0  3  0  0  0  0  0  0
  -27.8780  -24.7880   19.5470 C   0  0  0  0  0  3  0  0  0  0  0  0
  -28.1400  -26.2930   19.7120 O   0  0  0  0  0  0  0  0  0  0  0  0
  -24.5030  -31.7160   23.0480 C   0  0  0  0  0  0  0  0  0  0  0  0
  -27.0500  -27.2210   19.7290 C   0  0  0  0  0  0  0  0  0  0  0  0
  -23.2640  -30.3630   21.4020 C   0  0  0  0  0  3  0  0  0  0  0  0
  -24.6820  -28.8830   19.8620 C   0  0  0  0  0  0  0  0  0  0  0  0
  -25.8010  -30.6980   21.1460 C   0  0  0  0  0  2  0  0  0  0  0  0
  -25.8740  -29.3390   20.4380 C   0  0  0  0  0  0  0  0  0  0  0  0
  -27.0590  -28.5250   20.3560 C   0  0  0  0  0  3  0  0  0  0  0  0
  -25.8260  -26.8530   19.1240 C   0  0  0  0  0  3  0  0  0  0  0  0
  -24.6680  -27.6520   19.1910 C   0  0  0  0  0  3  0  0  0  0  0  0
  -23.4400  -29.7470   19.9900 C   0  0  0  0  0  2  0  0  0  0  0  0
  -24.5450  -30.9440   21.9200 N   0  0  0  0  0  0  0  0  0  0  0  0
  -23.4340  -31.9560   23.6290 O   0  0  0  0  0  0  0  0  0  0  0  0
  -22.6460  -29.3020   22.3470 C   0  0  0  0  0  0  0  0  0  0  0  0
  -21.3170  -29.1120   22.2660 N   0  0  0  0  0  0  0  0  0  0  0  0
  -23.3620  -28.6540   23.1150 O   0  0  0  0  0  0  0  0  0  0  0  0
  -20.7950  -29.6880   21.6190 H   0  0  0  0  0  0  0  0  0  0  0  0
  -17.9770  -27.8400   22.8500 C   0  0  0  0  0  0  0  0  0  0  0  0
  -20.5410  -28.1340   23.0310 C   0  0  0  0  0  3  0  0  0  0  0  0
  -20.6440  -26.7260   22.3990 C   0  0  0  0  0  2  0  0  0  0  0  0
  -19.5080  -26.4230   21.4160 C   0  0  0  0  0  2  0  0  0  0  0  0
  -18.1490  -26.5210   22.1150 C   0  0  0  0  0  2  0  0  0  0  0  0
  -19.1000  -28.6050   23.2650 C   0  0  0  0  0  0  0  0  0  0  0  0
  -18.8830  -29.8400   23.9140 C   0  0  0  0  0  3  0  0  0  0  0  0
  -17.5770  -30.3100   24.1490 C   0  0  0  0  0  3  0  0  0  0  0  0
  -16.4700  -29.5420   23.7480 C   0  0  0  0  0  3  0  0  0  0  0  0
  -16.6720  -28.3090   23.1030 C   0  0  0  0  0  3  0  0  0  0  0  0
  -25.7940  -32.3500   23.6490 C   0  0  0  0  0  3  0  0  0  0  0  0
  -26.3750  -31.5330   24.8700 C   0  0  1  0  0  0  0  0  0  0  0  0
  -25.3320  -31.2310   25.9700 C   0  0  0  0  0  1  0  0  0  0  0  0
  -26.9620  -30.1830   24.3970 C   0  0  0  0  0  1  0  0  0  0  0  0
  -27.5410  -32.3180   25.5160 C   0  0  0  0  0  1  0  0  0  0  0  0
  -25.4680  -33.7230   24.0600 N   0  0  0  0  0  0  0  0  0  0  0  0
  -25.7480  -34.8220   23.3460 C   0  0  0  0  0  0  0  0  0  0  0  0
  -26.3770  -34.7850   22.2840 O   0  0  0  0  0  0  0  0  0  0  0  0
  -24.9050  -33.8250   24.8920 H   0  0  0  0  0  0  0  0  0  0  0  0
  -23.9690  -36.5910   23.1590 C   0  0  0  0  0  1  0  0  0  0  0  0
  -25.2540  -36.1750   23.8930 C   0  0  0  0  0  3  0  0  0  0  0  0
  -27.4060  -37.0670   24.6690 C   0  0  0  0  0  1  0  0  0  0  0  0
  -26.2570  -37.2560   23.7860 N   0  0  0  0  0  0  0  0  0  0  0  0
  -25.8400  -38.1580   24.0000 H   0  0  0  0  0  0  0  0  0  0  0  0
  1  7  1  0
  1 15  1  0
  2  7  1  0
  3  4  1  0
  3  2  1  0
  5  4  1  0
  5 20  1  0
  5  6  1  0
  7  6  1  0
  8  1  2  0
  9 14  1  0
 10 14  1  0
 11 10  1  0
 11 15  1  0
 13 12  1  0
 13 47  1  0
 14 13  1  0
 15 12  1  0
 16  9  2  0
 17 18  2  0
 18 37  1  0
 19 18  1  0
 19 22  1  0
 20 17  1  0
 20 21  1  0
 21 19  2  0
 22 23  1  0
 23 24  2  0
 25 28  1  0
 25 24  1  0
 26 25  2  0
 27 26  1  0
 27 22  2  0
 28 29  1  0
 29 30  1  0
 30 31  2  0
 32 31  1  0
 32 36  1  0
 33 32  2  0
 34 29  2  0
 34 33  1  0
 35 34  1  0
 37 38  1  0
 38 41  1  0
 38 40  1  0
 39 37  2  0
 42 43  1  0
 42 17  1  0
 44 42  1  0
 47 46  1  0
 47 45  1  0
 48 49  1  0
 48  9  1  0
 50 51  1  0
 50 49  2  0
 51 53  1  0
 52 63  2  0
 53 58  1  0
 54 62  1  0
 54 64  1  0
 55 61  1  0
 55 57  1  0
 56 62  1  0
 57 56  1  0
 58 57  2  0
 59 60  1  0
 59 53  2  0
 60 55  2  0
 61 54  1  0
 62 52  1  0
 64 66  2  0
 65 64  1  0
 67 65  1  0
 68 77  2  0
 68 73  1  0
 69 65  1  0
 69 73  1  0
 70 69  1  0
 71 72  1  0
 71 70  1  0
 72 68  1  0
 73 74  2  0
 74 75  1  0
 76 75  2  0
 77 76  1  0
 78 52  1  0
 78 83  1  0
 78 79  1  0
 79 82  1  1
 79 80  1  0
 81 79  1  0
 83 86  1  0
 84 88  1  0
 84 83  1  0
 85 84  2  0
 88 87  1  0
 90 88  1  0
 90 91  1  0
 90 89  1  0
M  ISO  4   1 100  15 100  50 101  51 101
M  END
>  <TORSDO>  (76) 
F 19

>  <SCORE>  (76) 
-12.703

>  <name>  (76) 
75

>  <ligand_id>  (76) 
75

>  <original_smiles>  (76) 
[H]c1c([H])c([H])c2c(c1[H])C([H])([H])C([H])([H])C([H])([H])C2([H])N([H])C(=O)C1([H])N(C(=O)C([H])(N([H])C(=O)C([H])(N([H])C([H])([H])[H])C([H])([H])[H])C(C([H])([H])[H])(C([H])([H])[H])C([H])([H])[H])C([H])([H])c2c([H])c(OC([H])([H])C([H])([H])C([H])([H])C(=O)N3C([H])([H])C([H])([H])N(C(=O)N4C([H])([H])C([H])([H])C([H])([H])C([H])(n5nc(-c6c([H])c([H])c(Oc7c([H])c([H])c(F)c([H])c7F)c([H])c6[H])c(C(=O)N([H])[H])c5N([H])[H])C4([H])[H])C([H])([H])C3([H])C([H])(C([H])([H])[H])C([H])([H])[H])c([H])c([H])c2C1([H])[H]

>  <smiles>  (76) 
[H]c1c([H])c([H])c2c(c1[H])C([H])([H])C([H])([H])C([H])([H])C2([H])N([H])C(=O)C1([H])N(C(=O)C([H])(N([H])C(=O)C([H])(N([H])C([H])([H])[H])C([H])([H])[H])C(C([H])([H])[H])(C([H])([H])[H])C([H])([H])[H])C([H])([H])c2c([H])c(OC([H])([H])C([H])([H])C([H])([H])C(=O)N3C([H])([H])C([H])([H])N(C(=O)N4C([H])([H])C([H])([H])C([H])([H])C([H])(n5nc(-c6c([H])c([H])c(Oc7c([H])c([H])c(F)c([H])c7F)c([H])c6[H])c(C(=O)N([H])[H])c5N([H])[H])C4([H])[H])C([H])([H])C3([H])C([H])(C([H])([H])[H])C([H])([H])[H])c([H])c([H])c2C1([H])[H]

$$$$
76:0:0
     RDKit          3D

 91 99  0  0  1  0  0  0  0  0999 V2000
  -29.4210  -22.6040   21.1690 C   0  0  0  0  0  2  0  0  0  0  0  0
  -28.3880  -22.4710   18.8980 C   0  0  0  0  0  2  0  0  0  0  0  0
  -29.5930  -24.1260   20.7070 C   0  0  0  0  0  2  0  0  0  0  0  0
  -27.7020  -23.9180   19.1520 C   0  0  0  0  0  2  0  0  0  0  0  0
  -28.8080  -21.5620   20.1340 C   0  0  0  0  0  3  0  0  0  0  0  0
  -28.2570  -24.8540   20.3020 C   0  0  0  0  0  3  0  0  0  0  0  0
  -29.6250  -20.2580   19.7800 N   0  0  1  0  0  4  0  0  0  0  0  0
  -29.3020  -20.0900   18.8400 H   0  0  0  0  0  0  0  0  0  0  0  0
  -31.5250  -20.2110   18.1350 C   0  0  0  0  0  1  0  0  0  0  0  0
  -31.0780  -20.5310   19.5710 C   0  0  0  0  0  2  0  0  0  0  0  0
  -29.3350  -18.8520   20.4390 C   0  0  0  0  0  3  0  0  0  0  0  0
  -30.1460  -17.4870   19.9380 C   0  0  0  0  0  3  0  0  0  0  0  0
  -30.5530  -14.8510   20.2490 C   0  0  0  0  0  0  0  0  0  0  0  0
  -30.3520  -12.5360   19.2900 C   0  0  0  0  0  2  0  0  0  0  0  0
  -29.4080  -12.5740   18.0660 C   0  0  0  0  0  2  0  0  0  0  0  0
  -27.9470  -12.3970   18.5220 C   0  0  0  0  0  2  0  0  0  0  0  0
  -27.5780  -13.3020   19.7250 C   0  0  0  0  0  3  0  0  0  0  0  0
  -28.6500  -13.2420   20.8360 C   0  0  0  0  0  2  0  0  0  0  0  0
  -29.9250  -13.6160   20.2150 N   0  0  0  0  0  0  0  0  0  0  0  0
  -31.7470  -14.9130   19.9530 O   0  0  0  0  0  0  0  0  0  0  0  0
  -29.7910  -16.0270   20.3570 N   0  0  0  0  0  0  0  0  0  0  0  0
  -28.8100  -15.8710   20.5350 H   0  0  0  0  0  0  0  0  0  0  0  0
  -25.1930  -13.8890   20.4620 C   0  0  0  0  0  0  0  0  0  0  0  0
  -24.1310  -13.1100   20.8370 C   0  0  0  0  0  0  0  0  0  0  0  0
  -24.5990  -11.7610   20.8130 C   0  0  0  0  0  0  0  0  0  0  0  0
  -26.2390  -13.0090   20.2260 N   0  0  0  0  0  0  0  0  0  0  0  0
  -25.8880  -11.7270   20.5050 N   0  0  0  0  0  0  0  0  0  0  0  0
  -23.8760  -10.4980   21.0050 C   0  0  0  0  0  0  0  0  0  0  0  0
  -24.3080   -9.5330   21.9420 C   0  0  0  0  0  3  0  0  0  0  0  0
  -23.5830   -8.3370   22.1230 C   0  0  0  0  0  3  0  0  0  0  0  0
  -22.4090   -8.0960   21.3700 C   0  0  0  0  0  0  0  0  0  0  0  0
  -21.9970   -9.0490   20.4230 C   0  0  0  0  0  3  0  0  0  0  0  0
  -22.7220  -10.2360   20.2370 C   0  0  0  0  0  3  0  0  0  0  0  0
  -21.6530   -6.9520   21.4650 O   0  0  0  0  0  0  0  0  0  0  0  0
  -21.6060   -6.2150   22.6240 C   0  0  0  0  0  0  0  0  0  0  0  0
  -21.1810   -6.7760   23.8460 C   0  0  0  0  0  3  0  0  0  0  0  0
  -21.0790   -5.9650   24.9970 C   0  0  0  0  0  3  0  0  0  0  0  0
  -21.3930   -4.5960   24.9210 C   0  0  0  0  0  0  0  0  0  0  0  0
  -21.8150   -4.0330   23.7040 C   0  0  0  0  0  3  0  0  0  0  0  0
  -21.9170   -4.8430   22.5550 C   0  0  0  0  0  0  0  0  0  0  0  0
  -22.3000   -4.2910   21.3800 F   0  0  0  0  0  0  0  0  0  0  0  0
  -21.2890   -3.8150   26.0220 F   0  0  0  0  0  0  0  0  0  0  0  0
  -22.7340  -13.5840   21.1040 C   0  0  0  0  0  0  0  0  0  0  0  0
  -22.0070  -12.8890   21.9760 N   0  0  0  0  0  0  0  0  0  0  0  0
  -22.2950  -14.6070   20.5810 O   0  0  0  0  0  0  0  0  0  0  0  0
  -22.3690  -12.0530   22.4100 H   0  0  0  0  0  0  0  0  0  0  0  0
  -21.0720  -13.1920   22.2090 H   0  0  0  0  0  0  0  0  0  0  0  0
  -25.3440  -15.2590   20.2730 N   0  0  0  0  0  0  0  0  0  0  0  0
  -24.5570  -15.8920   20.3780 H   0  0  0  0  0  0  0  0  0  0  0  0
  -26.1630  -15.7040   19.8820 H   0  0  0  0  0  0  0  0  0  0  0  0
  -28.3380  -26.3750   20.1470 O   0  0  0  0  0  0  0  0  0  0  0  0
  -24.6270  -31.8880   23.2320 C   0  0  0  0  0  0  0  0  0  0  0  0
  -27.2110  -27.2500   20.1710 C   0  0  0  0  0  0  0  0  0  0  0  0
  -23.4100  -30.4880   21.6050 C   0  0  0  0  0  3  0  0  0  0  0  0
  -24.8480  -28.9220   20.1680 C   0  0  0  0  0  0  0  0  0  0  0  0
  -25.9550  -30.7870   21.4070 C   0  0  0  0  0  2  0  0  0  0  0  0
  -26.0290  -29.4030   20.7500 C   0  0  0  0  0  0  0  0  0  0  0  0
  -27.2120  -28.5850   20.7240 C   0  0  0  0  0  3  0  0  0  0  0  0
  -25.9990  -26.8420   19.5760 C   0  0  0  0  0  3  0  0  0  0  0  0
  -24.8450  -27.6530   19.5630 C   0  0  0  0  0  3  0  0  0  0  0  0
  -23.6170  -29.8110   20.2240 C   0  0  0  0  0  2  0  0  0  0  0  0
  -24.6840  -31.0720   22.1380 N   0  0  0  0  0  0  0  0  0  0  0  0
  -23.5480  -32.1700   23.7730 O   0  0  0  0  0  0  0  0  0  0  0  0
  -22.7480  -29.4820   22.5760 C   0  0  0  0  0  0  0  0  0  0  0  0
  -21.4200  -29.3060   22.4580 N   0  0  0  0  0  0  0  0  0  0  0  0
  -23.4270  -28.8590   23.3990 O   0  0  0  0  0  0  0  0  0  0  0  0
  -20.9250  -29.8640   21.7750 H   0  0  0  0  0  0  0  0  0  0  0  0
  -18.0450  -28.1020   22.9590 C   0  0  0  0  0  0  0  0  0  0  0  0
  -20.6020  -28.3730   23.2340 C   0  0  0  0  0  3  0  0  0  0  0  0
  -20.7120  -26.9380   22.6690 C   0  0  0  0  0  2  0  0  0  0  0  0
  -19.6130  -26.6030   21.6560 C   0  0  0  0  0  2  0  0  0  0  0  0
  -18.2290  -26.7480   22.2970 C   0  0  0  0  0  2  0  0  0  0  0  0
  -19.1590  -28.8720   23.3860 C   0  0  0  0  0  0  0  0  0  0  0  0
  -18.9360  -30.1400   23.9650 C   0  0  0  0  0  3  0  0  0  0  0  0
  -17.6270  -30.6310   24.1370 C   0  0  0  0  0  3  0  0  0  0  0  0
  -16.5260  -29.8590   23.7290 C   0  0  0  0  0  3  0  0  0  0  0  0
  -16.7370  -28.6000   23.1380 C   0  0  0  0  0  3  0  0  0  0  0  0
  -25.9160  -32.5200   23.8450 C   0  0  0  0  0  3  0  0  0  0  0  0
  -26.4410  -31.7480   25.1180 C   0  0  1  0  0  0  0  0  0  0  0  0
  -25.3550  -31.5120   26.1910 C   0  0  0  0  0  1  0  0  0  0  0  0
  -27.0160  -30.3630   24.7340 C   0  0  0  0  0  1  0  0  0  0  0  0
  -27.5980  -32.5390   25.7700 C   0  0  0  0  0  1  0  0  0  0  0  0
  -25.6090  -33.9210   24.1790 N   0  0  0  0  0  0  0  0  0  0  0  0
  -25.9350  -34.9790   23.4230 C   0  0  0  0  0  0  0  0  0  0  0  0
  -26.5920  -34.8790   22.3830 O   0  0  0  0  0  0  0  0  0  0  0  0
  -25.0260  -34.0730   24.9880 H   0  0  0  0  0  0  0  0  0  0  0  0
  -24.2000  -36.7760   23.0990 C   0  0  0  0  0  1  0  0  0  0  0  0
  -25.4530  -36.3680   23.8920 C   0  0  0  0  0  3  0  0  0  0  0  0
  -27.5990  -37.2510   24.6960 C   0  0  0  0  0  1  0  0  0  0  0  0
  -26.4830  -37.4220   23.7680 N   0  0  0  0  0  0  0  0  0  0  0  0
  -26.0780  -38.3420   23.9230 H   0  0  0  0  0  0  0  0  0  0  0  0
  2  4  1  0
  2  5  1  0
  3  1  1  0
  4  6  1  0
  5  7  1  0
  5  1  1  0
  6 51  1  0
  6  3  1  0
  7 11  1  0
  7  8  1  6
  9 10  1  0
 10  7  1  0
 12 21  1  0
 12 11  2  0
 13 21  1  0
 14 19  1  0
 15 16  1  0
 15 14  1  0
 17 16  1  0
 17 26  1  0
 17 18  1  0
 19 13  1  0
 19 18  1  0
 20 13  2  0
 21 22  1  0
 23 24  2  0
 24 43  1  0
 25 24  1  0
 25 28  1  0
 26 23  1  0
 26 27  1  0
 27 25  2  0
 28 29  1  0
 29 30  2  0
 31 34  1  0
 31 30  1  0
 32 31  2  0
 33 32  1  0
 33 28  2  0
 34 35  1  0
 35 36  1  0
 36 37  2  0
 38 37  1  0
 38 42  1  0
 39 38  2  0
 40 35  2  0
 40 39  1  0
 41 40  1  0
 43 44  1  0
 44 47  1  0
 44 46  1  0
 45 43  2  0
 48 49  1  0
 48 23  1  0
 50 48  1  0
 51 53  1  0
 52 63  2  0
 53 58  1  0
 54 62  1  0
 54 64  1  0
 55 61  1  0
 55 57  1  0
 56 62  1  0
 57 56  1  0
 58 57  2  0
 59 53  2  0
 60 59  1  0
 60 55  2  0
 61 54  1  0
 62 52  1  0
 64 66  2  0
 65 64  1  0
 67 65  1  0
 68 77  2  0
 68 73  1  0
 69 65  1  0
 69 73  1  0
 70 69  1  0
 71 72  1  0
 71 70  1  0
 72 68  1  0
 73 74  2  0
 74 75  1  0
 76 75  2  0
 77 76  1  0
 78 52  1  0
 78 83  1  0
 78 79  1  0
 79 82  1  1
 79 80  1  0
 81 79  1  0
 83 86  1  0
 84 88  1  0
 84 83  1  0
 85 84  2  0
 88 87  1  0
 90 88  1  0
 90 91  1  0
 90 89  1  0
M  ISO  4   6 101  13 100  21 100  51 101
M  END
>  <TORSDO>  (77) 
F 20

>  <SCORE>  (77) 
-13.749

>  <name>  (77) 
76

>  <ligand_id>  (77) 
76

>  <original_smiles>  (77) 
[H]c1c([H])c([H])c2c(c1[H])C([H])([H])C([H])([H])C([H])([H])C2([H])N([H])C(=O)C1([H])N(C(=O)C([H])(N([H])C(=O)C([H])(N([H])C([H])([H])[H])C([H])([H])[H])C(C([H])([H])[H])(C([H])([H])[H])C([H])([H])[H])C([H])([H])c2c([H])c(OC3([H])C([H])([H])C([H])([H])C([H])([N+]([H])(C([H])([H])C([H])([H])[H])C([H])([H])C([H])([H])N([H])C(=O)N4C([H])([H])C([H])([H])C([H])([H])C([H])(n5nc(-c6c([H])c([H])c(Oc7c([H])c([H])c(F)c([H])c7F)c([H])c6[H])c(C(=O)N([H])[H])c5N([H])[H])C4([H])[H])C([H])([H])C3([H])[H])c([H])c([H])c2C1([H])[H]

>  <smiles>  (77) 
[H]c1c([H])c([H])c2c(c1[H])C([H])([H])C([H])([H])C([H])([H])C2([H])N([H])C(=O)C1([H])N(C(=O)C([H])(N([H])C(=O)C([H])(N([H])C([H])([H])[H])C([H])([H])[H])C(C([H])([H])[H])(C([H])([H])[H])C([H])([H])[H])C([H])([H])c2c([H])c(OC3([H])C([H])([H])C([H])([H])C([H])([N+]([H])(C([H])([H])C([H])([H])[H])C([H])([H])C([H])([H])N([H])C(=O)N4C([H])([H])C([H])([H])C([H])([H])C([H])(n5nc(-c6c([H])c([H])c(Oc7c([H])c([H])c(F)c([H])c7F)c([H])c6[H])c(C(=O)N([H])[H])c5N([H])[H])C4([H])[H])C([H])([H])C3([H])[H])c([H])c([H])c2C1([H])[H]

$$$$
77:0:0
     RDKit          3D

 94102  0  0  1  0  0  0  0  0999 V2000
  -27.4910  -20.1240   19.1420 C   0  0  0  0  0  3  0  0  0  0  0  0
  -26.9030  -22.7820   19.0780 C   0  0  0  0  0  3  0  0  0  0  0  0
  -28.4740  -20.9930   19.6750 C   0  0  0  0  0  0  0  0  0  0  0  0
  -28.1450  -22.4350   19.6580 C   0  0  0  0  0  0  0  0  0  0  0  0
  -26.2870  -20.6150   18.6220 C   0  0  0  0  0  0  0  0  0  0  0  0
  -25.2580  -19.6800   18.0230 C   0  0  0  0  0  1  0  0  0  0  0  0
  -25.9970  -21.9200   18.5870 N   0  0  0  0  0  0  0  0  0  0  0  0
  -28.9810  -23.7140   20.0910 C   0  0  0  0  0  2  0  0  0  0  0  0
  -28.1980  -25.0300   20.6630 C   0  0  0  0  0  2  0  0  0  0  0  0
  -28.4150  -26.4310   20.1700 O   0  0  0  0  0  0  0  0  0  0  0  0
  -24.6480  -31.8610   23.1960 C   0  0  0  0  0  0  0  0  0  0  0  0
  -27.3080  -27.3070   20.1490 C   0  0  0  0  0  0  0  0  0  0  0  0
  -23.4690  -30.4670   21.5360 C   0  0  0  0  0  3  0  0  0  0  0  0
  -24.9410  -28.9270   20.1170 C   0  0  0  0  0  0  0  0  0  0  0  0
  -26.0110  -30.7900   21.3830 C   0  0  0  0  0  2  0  0  0  0  0  0
  -26.1040  -29.4130   20.7280 C   0  0  0  0  0  0  0  0  0  0  0  0
  -27.2940  -28.6170   20.7300 C   0  0  0  0  0  3  0  0  0  0  0  0
  -26.1260  -26.8840   19.5060 C   0  0  0  0  0  3  0  0  0  0  0  0
  -24.9560  -27.6700   19.4940 C   0  0  0  0  0  3  0  0  0  0  0  0
  -23.7010  -29.7980   20.1560 C   0  0  0  0  0  2  0  0  0  0  0  0
  -24.7270  -31.0580   22.0950 N   0  0  0  0  0  0  0  0  0  0  0  0
  -23.5590  -32.1310   23.7220 O   0  0  0  0  0  0  0  0  0  0  0  0
  -22.7980  -29.4440   22.4840 C   0  0  0  0  0  0  0  0  0  0  0  0
  -21.4700  -29.2780   22.3580 N   0  0  0  0  0  0  0  0  0  0  0  0
  -23.4720  -28.8020   23.2940 O   0  0  0  0  0  0  0  0  0  0  0  0
  -20.9860  -29.8470   21.6760 H   0  0  0  0  0  0  0  0  0  0  0  0
  -18.0820  -28.1150   22.8640 C   0  0  0  0  0  0  0  0  0  0  0  0
  -20.6450  -28.3380   23.1170 C   0  0  0  0  0  3  0  0  0  0  0  0
  -20.7240  -26.9150   22.5160 C   0  0  0  0  0  2  0  0  0  0  0  0
  -19.6110  -26.6250   21.5040 C   0  0  0  0  0  2  0  0  0  0  0  0
  -18.2360  -26.7760   22.1620 C   0  0  0  0  0  2  0  0  0  0  0  0
  -19.2130  -28.8550   23.2990 C   0  0  0  0  0  0  0  0  0  0  0  0
  -19.0140  -30.1080   23.9170 C   0  0  0  0  0  3  0  0  0  0  0  0
  -17.7160  -30.6210   24.1030 C   0  0  0  0  0  3  0  0  0  0  0  0
  -16.6000  -29.8780   23.6840 C   0  0  0  0  0  3  0  0  0  0  0  0
  -16.7830  -28.6260   23.0700 C   0  0  0  0  0  3  0  0  0  0  0  0
  -25.9210  -32.4960   23.8370 C   0  0  0  0  0  3  0  0  0  0  0  0
  -25.5960  -33.8860   24.1870 N   0  0  0  0  0  0  0  0  0  0  0  0
  -25.9210  -34.9540   23.4480 C   0  0  0  0  0  0  0  0  0  0  0  0
  -26.5940  -34.8740   22.4170 O   0  0  0  0  0  0  0  0  0  0  0  0
  -24.9940  -34.0210   24.9870 H   0  0  0  0  0  0  0  0  0  0  0  0
  -24.1770  -36.7380   23.1200 C   0  0  0  0  0  1  0  0  0  0  0  0
  -25.4210  -36.3310   23.9270 C   0  0  0  0  0  3  0  0  0  0  0  0
  -27.5460  -37.2240   24.7740 C   0  0  0  0  0  1  0  0  0  0  0  0
  -26.4440  -37.3950   23.8320 N   0  0  0  0  0  0  0  0  0  0  0  0
  -26.0290  -38.3100   23.9900 H   0  0  0  0  0  0  0  0  0  0  0  0
  -26.4360  -31.7090   25.1060 C   0  0  1  0  0  0  0  0  0  0  0  0
  -25.3380  -31.4480   26.1640 C   0  0  0  0  0  1  0  0  0  0  0  0
  -27.0310  -30.3420   24.7000 C   0  0  0  0  0  1  0  0  0  0  0  0
  -27.5770  -32.5030   25.7840 C   0  0  0  0  0  1  0  0  0  0  0  0
  -29.7860  -20.2250   20.1040 C   0  0  0  0  0  2  0  0  0  0  0  0
  -29.6200  -18.8140   20.6940 N   0  0  0  0  0  4  0  0  0  0  0  0
  -28.6400  -18.7250   20.9060 H   0  0  0  0  0  0  0  0  0  0  0  0
  -30.0980  -18.8640   21.5780 H   0  0  0  0  0  0  0  0  0  0  0  0
  -30.1060  -17.5230   19.9950 C   0  0  0  0  0  2  0  0  0  0  0  0
  -28.7500  -16.0290   21.5720 C   0  0  0  0  0  1  0  0  0  0  0  0
  -31.1660  -16.3410   21.9840 C   0  0  0  0  0  1  0  0  0  0  0  0
  -30.1170  -16.1330   20.8630 C   0  0  2  0  0  0  0  0  0  0  0  0
  -30.5990  -14.7620   20.1000 C   0  0  0  0  0  0  0  0  0  0  0  0
  -30.3190  -12.5350   18.9520 C   0  0  0  0  0  2  0  0  0  0  0  0
  -29.3050  -12.6440   17.7890 C   0  0  0  0  0  2  0  0  0  0  0  0
  -27.8590  -12.4570   18.2880 C   0  0  0  0  0  2  0  0  0  0  0  0
  -27.5700  -13.2820   19.5680 C   0  0  0  0  0  3  0  0  0  0  0  0
  -28.6920  -13.0740   20.6070 C   0  0  0  0  0  2  0  0  0  0  0  0
  -29.9500  -13.5350   19.9970 N   0  0  0  0  0  0  0  0  0  0  0  0
  -31.6900  -14.8550   19.5270 O   0  0  0  0  0  0  0  0  0  0  0  0
  -25.2220  -13.8690   20.4320 C   0  0  0  0  0  0  0  0  0  0  0  0
  -24.1790  -13.0900   20.8520 C   0  0  0  0  0  0  0  0  0  0  0  0
  -24.6360  -11.7400   20.7650 C   0  0  0  0  0  0  0  0  0  0  0  0
  -26.2510  -12.9920   20.1220 N   0  0  0  0  0  0  0  0  0  0  0  0
  -25.9040  -11.7060   20.3810 N   0  0  0  0  0  0  0  0  0  0  0  0
  -23.9160  -10.4760   20.9690 C   0  0  0  0  0  0  0  0  0  0  0  0
  -24.3710   -9.5090   21.8940 C   0  0  0  0  0  3  0  0  0  0  0  0
  -23.6520   -8.3090   22.0840 C   0  0  0  0  0  3  0  0  0  0  0  0
  -22.4630   -8.0700   21.3540 C   0  0  0  0  0  0  0  0  0  0  0  0
  -22.0290   -9.0260   20.4180 C   0  0  0  0  0  3  0  0  0  0  0  0
  -22.7480  -10.2160   20.2250 C   0  0  0  0  0  3  0  0  0  0  0  0
  -21.7130   -6.9230   21.4550 O   0  0  0  0  0  0  0  0  0  0  0  0
  -21.6570   -6.2010   22.6180 C   0  0  0  0  0  0  0  0  0  0  0  0
  -21.2260   -6.7770   23.8330 C   0  0  0  0  0  3  0  0  0  0  0  0
  -21.1180   -5.9810   24.9900 C   0  0  0  0  0  3  0  0  0  0  0  0
  -21.4300   -4.6090   24.9350 C   0  0  0  0  0  0  0  0  0  0  0  0
  -21.8550   -4.0310   23.7250 C   0  0  0  0  0  3  0  0  0  0  0  0
  -21.9640   -4.8250   22.5700 C   0  0  0  0  0  0  0  0  0  0  0  0
  -22.3530   -4.2600   21.4010 F   0  0  0  0  0  0  0  0  0  0  0  0
  -21.3190   -3.8430   26.0450 F   0  0  0  0  0  0  0  0  0  0  0  0
  -22.8020  -13.5650   21.2140 C   0  0  0  0  0  0  0  0  0  0  0  0
  -22.1250  -12.8530   22.1080 N   0  0  0  0  0  0  0  0  0  0  0  0
  -22.3370  -14.6010   20.7400 O   0  0  0  0  0  0  0  0  0  0  0  0
  -22.5160  -12.0120   22.5080 H   0  0  0  0  0  0  0  0  0  0  0  0
  -21.2060  -13.1510   22.3990 H   0  0  0  0  0  0  0  0  0  0  0  0
  -25.3720  -15.2420   20.2630 N   0  0  0  0  0  0  0  0  0  0  0  0
  -24.6050  -15.8900   20.4110 H   0  0  0  0  0  0  0  0  0  0  0  0
  -26.1810  -15.6770   19.8400 H   0  0  0  0  0  0  0  0  0  0  0  0
  1  3  1  0
  2  4  1  0
  3 51  1  0
  4  3  2  0
  4  8  1  0
  5  1  2  0
  6  5  1  0
  7  5  1  0
  7  2  2  0
  8  9  1  0
 10  9  1  0
 11 22  2  0
 12 10  1  0
 12 17  1  0
 13 21  1  0
 13 23  1  0
 14 20  1  0
 14 16  1  0
 15 21  1  0
 16 17  2  0
 16 15  1  0
 18 12  2  0
 19 18  1  0
 19 14  2  0
 20 13  1  0
 21 11  1  0
 23 25  2  0
 24 23  1  0
 26 24  1  0
 27 36  2  0
 27 32  1  0
 28 24  1  0
 28 32  1  0
 29 28  1  0
 30 31  1  0
 30 29  1  0
 31 27  1  0
 32 33  2  0
 33 34  1  0
 35 34  2  0
 36 35  1  0
 37 11  1  0
 37 38  1  0
 37 47  1  0
 38 41  1  0
 39 43  1  0
 39 38  1  0
 40 39  2  0
 43 42  1  0
 45 43  1  0
 45 46  1  0
 45 44  1  0
 47 50  1  1
 47 48  1  0
 49 47  1  0
 51 52  1  0
 52 53  1  0
 52 54  1  0
 55 52  1  0
 55 58  1  0
 58 56  1  1
 58 57  1  0
 59 58  1  0
 60 65  1  0
 61 62  1  0
 61 60  1  0
 63 62  1  0
 63 70  1  0
 63 64  1  0
 65 59  1  0
 65 64  1  0
 66 59  2  0
 67 68  2  0
 68 87  1  0
 69 68  1  0
 69 72  1  0
 70 71  1  0
 70 67  1  0
 71 69  2  0
 72 73  1  0
 73 74  2  0
 75 78  1  0
 75 74  1  0
 76 75  2  0
 77 76  1  0
 77 72  2  0
 78 79  1  0
 79 80  1  0
 80 81  2  0
 82 81  1  0
 82 86  1  0
 83 82  2  0
 84 79  2  0
 84 83  1  0
 85 84  1  0
 87 88  1  0
 88 91  1  0
 88 90  1  0
 89 87  2  0
 92 93  1  0
 92 67  1  0
 94 92  1  0
M  ISO  4   9 101  10 101  58 100  59 100
M  END
>  <TORSDO>  (78) 
F 22

>  <SCORE>  (78) 
-12.084

>  <name>  (78) 
77

>  <ligand_id>  (78) 
77

>  <original_smiles>  (78) 
[H]c1nc(C([H])([H])[H])c([H])c(C([H])([H])[N+]([H])([H])C([H])([H])C(C(=O)N2C([H])([H])C([H])([H])C([H])([H])C([H])(n3nc(-c4c([H])c([H])c(Oc5c([H])c([H])c(F)c([H])c5F)c([H])c4[H])c(C(=O)N([H])[H])c3N([H])[H])C2([H])[H])(C([H])([H])[H])C([H])([H])[H])c1C([H])([H])C([H])([H])Oc1c([H])c([H])c2c(c1[H])C([H])([H])N(C(=O)C([H])(N([H])C(=O)C([H])(N([H])C([H])([H])[H])C([H])([H])[H])C(C([H])([H])[H])(C([H])([H])[H])C([H])([H])[H])C([H])(C(=O)N([H])C1([H])c3c([H])c([H])c([H])c([H])c3C([H])([H])C([H])([H])C1([H])[H])C2([H])[H]

>  <smiles>  (78) 
[H]c1nc(C([H])([H])[H])c([H])c(C([H])([H])[N+]([H])([H])C([H])([H])C(C(=O)N2C([H])([H])C([H])([H])C([H])([H])C([H])(n3nc(-c4c([H])c([H])c(Oc5c([H])c([H])c(F)c([H])c5F)c([H])c4[H])c(C(=O)N([H])[H])c3N([H])[H])C2([H])[H])(C([H])([H])[H])C([H])([H])[H])c1C([H])([H])C([H])([H])Oc1c([H])c([H])c2c(c1[H])C([H])([H])N(C(=O)C([H])(N([H])C(=O)C([H])(N([H])C([H])([H])[H])C([H])([H])[H])C(C([H])([H])[H])(C([H])([H])[H])C([H])([H])[H])C([H])(C(=O)N([H])C1([H])c3c([H])c([H])c([H])c([H])c3C([H])([H])C([H])([H])C1([H])[H])C2([H])[H]

$$$$
78:0:0
     RDKit          3D

 96104  0  0  1  0  0  0  0  0999 V2000
  -27.3470  -20.8270   22.7080 C   0  0  0  0  0  1  0  0  0  0  0  0
  -28.7260  -21.5180   22.6250 C   0  0  0  0  0  3  0  0  0  0  0  0
  -28.5700  -22.8700   22.0330 N   0  0  0  0  0  4  0  0  0  0  0  0
  -28.3390  -22.7600   21.0580 H   0  0  0  0  0  0  0  0  0  0  0  0
  -27.7810  -23.3120   22.4770 H   0  0  0  0  0  0  0  0  0  0  0  0
  -29.7360  -23.7830   22.1360 C   0  0  0  0  0  2  0  0  0  0  0  0
  -29.6590  -24.9480   21.1210 C   0  0  0  0  0  2  0  0  0  0  0  0
  -28.6720  -26.7660   22.6180 C   0  0  0  0  0  1  0  0  0  0  0  0
  -28.4900  -25.9300   21.3310 C   0  0  0  0  0  3  0  0  0  0  0  0
  -28.3980  -26.7550   20.1630 O   0  0  0  0  0  0  0  0  0  0  0  0
  -24.6070  -31.8730   23.2080 C   0  0  0  0  0  0  0  0  0  0  0  0
  -27.2420  -27.4910   20.1070 C   0  0  0  0  0  0  0  0  0  0  0  0
  -23.3920  -30.4940   21.5500 C   0  0  0  0  0  3  0  0  0  0  0  0
  -24.8420  -28.9640   20.1110 C   0  0  0  0  0  0  0  0  0  0  0  0
  -25.9130  -30.8620   21.3470 C   0  0  0  0  0  2  0  0  0  0  0  0
  -25.9960  -29.5010   20.6930 C   0  0  0  0  0  0  0  0  0  0  0  0
  -27.2020  -28.7790   20.6740 C   0  0  0  0  0  3  0  0  0  0  0  0
  -26.0810  -26.9540   19.5130 C   0  0  0  0  0  3  0  0  0  0  0  0
  -24.8780  -27.6900   19.5110 C   0  0  0  0  0  3  0  0  0  0  0  0
  -23.5960  -29.8170   20.1660 C   0  0  0  0  0  2  0  0  0  0  0  0
  -24.6570  -31.0880   22.0950 N   0  0  0  0  0  0  0  0  0  0  0  0
  -23.5290  -32.1450   23.7510 O   0  0  0  0  0  0  0  0  0  0  0  0
  -22.7370  -29.4680   22.5020 C   0  0  0  0  0  0  0  0  0  0  0  0
  -21.4110  -29.3030   22.3760 N   0  0  0  0  0  0  0  0  0  0  0  0
  -23.4190  -28.8240   23.3040 O   0  0  0  0  0  0  0  0  0  0  0  0
  -20.9250  -29.8740   21.6980 H   0  0  0  0  0  0  0  0  0  0  0  0
  -18.0260  -28.1370   22.8510 C   0  0  0  0  0  0  0  0  0  0  0  0
  -20.5850  -28.3650   23.1350 C   0  0  0  0  0  3  0  0  0  0  0  0
  -20.6760  -26.9400   22.5440 C   0  0  0  0  0  2  0  0  0  0  0  0
  -19.5740  -26.6400   21.5220 C   0  0  0  0  0  2  0  0  0  0  0  0
  -18.1920  -26.7920   22.1630 C   0  0  0  0  0  2  0  0  0  0  0  0
  -19.1510  -28.8830   23.2930 C   0  0  0  0  0  0  0  0  0  0  0  0
  -18.9450  -30.1440   23.8930 C   0  0  0  0  0  3  0  0  0  0  0  0
  -17.6450  -30.6590   24.0580 C   0  0  0  0  0  3  0  0  0  0  0  0
  -16.5350  -29.9100   23.6320 C   0  0  0  0  0  3  0  0  0  0  0  0
  -16.7250  -28.6510   23.0350 C   0  0  0  0  0  3  0  0  0  0  0  0
  -25.8990  -32.4840   23.8370 C   0  0  0  0  0  3  0  0  0  0  0  0
  -25.5860  -33.8630   24.2320 N   0  0  0  0  0  0  0  0  0  0  0  0
  -25.9020  -34.9480   23.5140 C   0  0  0  0  0  0  0  0  0  0  0  0
  -26.5600  -34.8920   22.4710 O   0  0  0  0  0  0  0  0  0  0  0  0
  -24.9980  -33.9780   25.0450 H   0  0  0  0  0  0  0  0  0  0  0  0
  -24.1480  -36.7340   23.2640 C   0  0  0  0  0  1  0  0  0  0  0  0
  -25.4110  -36.3130   24.0330 C   0  0  0  0  0  3  0  0  0  0  0  0
  -27.5600  -37.1820   24.8450 C   0  0  0  0  0  1  0  0  0  0  0  0
  -26.4320  -37.3800   23.9380 N   0  0  0  0  0  0  0  0  0  0  0  0
  -26.0220  -38.2900   24.1340 H   0  0  0  0  0  0  0  0  0  0  0  0
  -26.4430  -31.6570   25.0660 C   0  0  1  0  0  0  0  0  0  0  0  0
  -25.3720  -31.3670   26.1420 C   0  0  0  0  0  1  0  0  0  0  0  0
  -27.0230  -30.3020   24.5970 C   0  0  0  0  0  1  0  0  0  0  0  0
  -27.6040  -32.4240   25.7410 C   0  0  0  0  0  1  0  0  0  0  0  0
  -29.8470  -20.7240   21.8940 C   0  0  0  0  0  2  0  0  0  0  0  0
  -28.7370  -18.9410   20.5010 C   0  0  0  0  0  3  0  0  0  0  0  0
  -30.3760  -17.0840   21.6690 C   0  0  0  0  0  3  0  0  0  0  0  0
  -28.7300  -17.6410   19.9770 C   0  0  0  0  0  0  0  0  0  0  0  0
  -29.6540  -16.6990   20.5090 C   0  0  0  0  0  0  0  0  0  0  0  0
  -29.6020  -19.2620   21.5570 C   0  0  0  0  0  0  0  0  0  0  0  0
  -27.7810  -17.3650   18.8210 C   0  0  0  0  0  1  0  0  0  0  0  0
  -30.3560  -18.3350   22.1820 N   0  0  0  0  0  0  0  0  0  0  0  0
  -30.6940  -14.4830   20.3750 C   0  0  0  0  0  0  0  0  0  0  0  0
  -30.4240  -12.2450   19.4490 C   0  0  0  0  0  2  0  0  0  0  0  0
  -29.4990  -12.3420   18.2150 C   0  0  0  0  0  2  0  0  0  0  0  0
  -28.0110  -12.3000   18.6240 C   0  0  0  0  0  2  0  0  0  0  0  0
  -27.6530  -13.1940   19.8460 C   0  0  0  0  0  3  0  0  0  0  0  0
  -28.7050  -13.0720   20.9700 C   0  0  0  0  0  2  0  0  0  0  0  0
  -30.0280  -13.3040   20.3800 N   0  0  0  0  0  0  0  0  0  0  0  0
  -31.9210  -14.5700   20.2980 O   0  0  0  0  0  0  0  0  0  0  0  0
  -30.2300  -15.6690   18.3640 C   0  0  0  0  0  1  0  0  0  0  0  0
  -29.9740  -15.4870   19.8110 N   0  0  0  0  0  0  0  0  0  0  0  0
  -25.2600  -13.8120   20.5740 C   0  0  0  0  0  0  0  0  0  0  0  0
  -24.1820  -13.0430   20.9170 C   0  0  0  0  0  0  0  0  0  0  0  0
  -24.6360  -11.6890   20.8750 C   0  0  0  0  0  0  0  0  0  0  0  0
  -26.3000  -12.9280   20.3310 N   0  0  0  0  0  0  0  0  0  0  0  0
  -25.9290  -11.6460   20.5790 N   0  0  0  0  0  0  0  0  0  0  0  0
  -23.9040  -10.4290   21.0420 C   0  0  0  0  0  0  0  0  0  0  0  0
  -24.3590   -9.4200   21.9190 C   0  0  0  0  0  3  0  0  0  0  0  0
  -23.6270   -8.2230   22.0750 C   0  0  0  0  0  3  0  0  0  0  0  0
  -22.4260   -8.0270   21.3540 C   0  0  0  0  0  0  0  0  0  0  0  0
  -21.9890   -9.0250   20.4650 C   0  0  0  0  0  3  0  0  0  0  0  0
  -22.7210  -10.2130   20.3060 C   0  0  0  0  0  3  0  0  0  0  0  0
  -21.6630   -6.8860   21.4240 O   0  0  0  0  0  0  0  0  0  0  0  0
  -21.6850   -6.0720   22.5280 C   0  0  0  0  0  0  0  0  0  0  0  0
  -21.4020   -6.5630   23.8210 C   0  0  0  0  0  3  0  0  0  0  0  0
  -21.3660   -5.6780   24.9180 C   0  0  0  0  0  3  0  0  0  0  0  0
  -21.6040   -4.3050   24.7230 C   0  0  0  0  0  0  0  0  0  0  0  0
  -21.8820   -3.8130   23.4360 C   0  0  0  0  0  3  0  0  0  0  0  0
  -21.9190   -4.6950   22.3410 C   0  0  0  0  0  0  0  0  0  0  0  0
  -22.1650   -4.2130   21.0990 F   0  0  0  0  0  0  0  0  0  0  0  0
  -21.5630   -3.4530   25.7740 F   0  0  0  0  0  0  0  0  0  0  0  0
  -22.7850  -13.5260   21.1810 C   0  0  0  0  0  0  0  0  0  0  0  0
  -22.0450  -12.8290   22.0370 N   0  0  0  0  0  0  0  0  0  0  0  0
  -22.3550  -14.5570   20.6650 O   0  0  0  0  0  0  0  0  0  0  0  0
  -22.4050  -11.9980   22.4830 H   0  0  0  0  0  0  0  0  0  0  0  0
  -21.1050  -13.1320   22.2510 H   0  0  0  0  0  0  0  0  0  0  0  0
  -25.4360  -15.1850   20.4310 N   0  0  0  0  0  0  0  0  0  0  0  0
  -24.6850  -15.8440   20.5990 H   0  0  0  0  0  0  0  0  0  0  0  0
  -26.3220  -15.6290   20.2360 H   0  0  0  0  0  0  0  0  0  0  0  0
  2  1  1  0
  3  6  1  0
  3  5  1  0
  3  2  1  0
  4  3  1  0
  7  9  1  0
  7  6  1  0
  9  8  1  0
 10  9  1  0
 11 22  2  0
 12 10  1  0
 12 17  1  0
 13 21  1  0
 13 23  1  0
 14 20  1  0
 14 16  1  0
 15 21  1  0
 16 15  1  0
 17 16  2  0
 18 12  2  0
 19 18  1  0
 19 14  2  0
 20 13  1  0
 21 11  1  0
 23 25  2  0
 24 23  1  0
 26 24  1  0
 27 36  2  0
 27 32  1  0
 28 24  1  0
 28 32  1  0
 29 28  1  0
 30 31  1  0
 30 29  1  0
 31 27  1  0
 32 33  2  0
 33 34  1  0
 35 34  2  0
 36 35  1  0
 37 11  1  0
 37 38  1  0
 37 47  1  0
 38 41  1  0
 39 43  1  0
 39 38  1  0
 40 39  2  0
 43 42  1  0
 45 43  1  0
 45 46  1  0
 45 44  1  0
 47 50  1  1
 47 48  1  0
 49 47  1  0
 51  2  1  0
 52 56  1  0
 53 58  1  0
 54 52  2  0
 54 55  1  0
 55 53  2  0
 56 51  1  0
 56 58  2  0
 57 54  1  0
 59 65  1  0
 60 65  1  0
 61 62  1  0
 61 60  1  0
 63 62  1  0
 63 72  1  0
 63 64  1  0
 65 64  1  0
 66 59  2  0
 67 68  1  0
 68 59  1  0
 68 55  1  0
 69 70  2  0
 70 89  1  0
 71 70  1  0
 71 74  1  0
 72 69  1  0
 72 73  1  0
 73 71  2  0
 74 75  1  0
 75 76  2  0
 77 80  1  0
 77 76  1  0
 78 77  2  0
 79 78  1  0
 79 74  2  0
 80 81  1  0
 81 82  1  0
 82 83  2  0
 84 83  1  0
 84 88  1  0
 85 84  2  0
 86 81  2  0
 86 85  1  0
 87 86  1  0
 89 90  1  0
 90 93  1  0
 90 92  1  0
 91 89  2  0
 94 69  1  0
 94 95  1  0
 96 94  1  0
M  ISO  4   9 101  10 101  59 100  68 100
M  END
>  <TORSDO>  (79) 
F 22

>  <SCORE>  (79) 
-7.441

>  <name>  (79) 
78

>  <ligand_id>  (79) 
78

>  <original_smiles>  (79) 
[H]c1nc(C([H])([H])C([H])(C([H])([H])[H])[N+]([H])([H])C([H])([H])C([H])([H])C([H])(Oc2c([H])c([H])c3c(c2[H])C([H])([H])N(C(=O)C([H])(N([H])C(=O)C([H])(N([H])C([H])([H])[H])C([H])([H])[H])C(C([H])([H])[H])(C([H])([H])[H])C([H])([H])[H])C([H])(C(=O)N([H])C2([H])c4c([H])c([H])c([H])c([H])c4C([H])([H])C([H])([H])C2([H])[H])C3([H])[H])C([H])([H])[H])c([H])c(C([H])([H])[H])c1N(C(=O)N1C([H])([H])C([H])([H])C([H])([H])C([H])(n2nc(-c3c([H])c([H])c(Oc4c([H])c([H])c(F)c([H])c4F)c([H])c3[H])c(C(=O)N([H])[H])c2N([H])[H])C1([H])[H])C([H])([H])[H]

>  <smiles>  (79) 
[H]c1nc(C([H])([H])C([H])(C([H])([H])[H])[N+]([H])([H])C([H])([H])C([H])([H])C([H])(Oc2c([H])c([H])c3c(c2[H])C([H])([H])N(C(=O)C([H])(N([H])C(=O)C([H])(N([H])C([H])([H])[H])C([H])([H])[H])C(C([H])([H])[H])(C([H])([H])[H])C([H])([H])[H])C([H])(C(=O)N([H])C2([H])c4c([H])c([H])c([H])c([H])c4C([H])([H])C([H])([H])C2([H])[H])C3([H])[H])C([H])([H])[H])c([H])c(C([H])([H])[H])c1N(C(=O)N1C([H])([H])C([H])([H])C([H])([H])C([H])(n2nc(-c3c([H])c([H])c(Oc4c([H])c([H])c(F)c([H])c4F)c([H])c3[H])c(C(=O)N([H])[H])c2N([H])[H])C1([H])[H])C([H])([H])[H]

$$$$
79:0:0
     RDKit          3D

 94103  0  0  1  0  0  0  0  0999 V2000
  -28.6650  -21.4320   20.9870 C   0  0  0  0  0  3  0  0  0  0  0  0
  -30.2090  -22.2350   19.2940 C   0  0  0  0  0  3  0  0  0  0  0  0
  -28.7080  -22.7030   21.6080 C   0  0  0  0  0  3  0  0  0  0  0  0
  -30.2400  -23.5050   19.9040 C   0  0  0  0  0  3  0  0  0  0  0  0
  -29.4170  -21.1860   19.8170 C   0  0  0  0  0  0  0  0  0  0  0  0
  -29.4840  -23.7600   21.0710 C   0  0  0  0  0  0  0  0  0  0  0  0
  -30.8810  -25.8550   21.6320 C   0  0  0  0  0  1  0  0  0  0  0  0
  -29.5430  -25.1170   21.7930 C   0  0  0  0  0  3  0  0  0  0  0  0
  -28.3380  -26.0610   21.5450 C   0  0  0  0  0  2  0  0  0  0  0  0
  -28.2660  -26.7230   20.2660 O   0  0  0  0  0  0  0  0  0  0  0  0
  -24.5290  -31.9670   23.2600 C   0  0  0  0  0  0  0  0  0  0  0  0
  -27.1450  -27.5190   20.1910 C   0  0  0  0  0  0  0  0  0  0  0  0
  -23.3060  -30.5650   21.6280 C   0  0  0  0  0  3  0  0  0  0  0  0
  -24.7510  -29.0220   20.1860 C   0  0  0  0  0  0  0  0  0  0  0  0
  -25.8260  -30.9240   21.4070 C   0  0  0  0  0  2  0  0  0  0  0  0
  -25.9080  -29.5510   20.7720 C   0  0  0  0  0  0  0  0  0  0  0  0
  -27.1100  -28.8050   20.7760 C   0  0  0  0  0  3  0  0  0  0  0  0
  -25.9800  -27.0060   19.5900 C   0  0  0  0  0  3  0  0  0  0  0  0
  -24.7820  -27.7490   19.5890 C   0  0  0  0  0  3  0  0  0  0  0  0
  -23.5030  -29.8780   20.2480 C   0  0  0  0  0  2  0  0  0  0  0  0
  -24.5720  -31.1680   22.1560 N   0  0  0  0  0  0  0  0  0  0  0  0
  -23.4530  -32.2430   23.8090 O   0  0  0  0  0  0  0  0  0  0  0  0
  -22.6590  -29.5490   22.5970 C   0  0  0  0  0  0  0  0  0  0  0  0
  -21.3350  -29.3600   22.4710 N   0  0  0  0  0  0  0  0  0  0  0  0
  -23.3450  -28.9310   23.4140 O   0  0  0  0  0  0  0  0  0  0  0  0
  -20.8430  -29.9130   21.7830 H   0  0  0  0  0  0  0  0  0  0  0  0
  -17.9660  -28.1520   22.9710 C   0  0  0  0  0  0  0  0  0  0  0  0
  -20.5220  -28.4250   23.2480 C   0  0  0  0  0  3  0  0  0  0  0  0
  -20.6340  -26.9890   22.6840 C   0  0  0  0  0  2  0  0  0  0  0  0
  -19.5350  -26.6540   21.6690 C   0  0  0  0  0  2  0  0  0  0  0  0
  -18.1500  -26.7980   22.3070 C   0  0  0  0  0  2  0  0  0  0  0  0
  -19.0800  -28.9230   23.3980 C   0  0  0  0  0  0  0  0  0  0  0  0
  -18.8530  -30.1910   23.9760 C   0  0  0  0  0  3  0  0  0  0  0  0
  -17.5470  -30.6870   24.1350 C   0  0  0  0  0  3  0  0  0  0  0  0
  -16.4470  -29.9130   23.7230 C   0  0  0  0  0  3  0  0  0  0  0  0
  -16.6580  -28.6480   23.1480 C   0  0  0  0  0  3  0  0  0  0  0  0
  -25.8230  -32.5930   23.8690 C   0  0  0  0  0  3  0  0  0  0  0  0
  -26.3450  -31.8260   25.1460 C   0  0  1  0  0  0  0  0  0  0  0  0
  -25.2570  -31.6020   26.2220 C   0  0  0  0  0  1  0  0  0  0  0  0
  -26.9170  -30.4440   24.7530 C   0  0  0  0  0  1  0  0  0  0  0  0
  -27.5030  -32.6200   25.7950 C   0  0  0  0  0  1  0  0  0  0  0  0
  -25.5280  -33.9960   24.1910 N   0  0  0  0  0  0  0  0  0  0  0  0
  -25.8720  -35.0390   23.4260 C   0  0  0  0  0  0  0  0  0  0  0  0
  -26.5450  -34.9240   22.3970 O   0  0  0  0  0  0  0  0  0  0  0  0
  -24.9380  -34.1610   24.9930 H   0  0  0  0  0  0  0  0  0  0  0  0
  -24.1700  -36.8480   23.0360 C   0  0  0  0  0  1  0  0  0  0  0  0
  -25.3940  -36.4350   23.8700 C   0  0  0  0  0  3  0  0  0  0  0  0
  -27.5250  -37.2950   24.7320 C   0  0  0  0  0  1  0  0  0  0  0  0
  -26.4410  -37.4760   23.7710 N   0  0  0  0  0  0  0  0  0  0  0  0
  -26.0420  -38.4000   23.9110 H   0  0  0  0  0  0  0  0  0  0  0  0
  -29.2230  -19.9210   18.9740 C   0  0  0  0  0  2  0  0  0  0  0  0
  -30.6870  -14.6500   20.5510 C   0  0  0  0  0  0  0  0  0  0  0  0
  -30.4440  -12.4170   19.5520 C   0  0  0  0  0  2  0  0  0  0  0  0
  -29.5460  -12.5390   18.3010 C   0  0  0  0  0  2  0  0  0  0  0  0
  -28.0530  -12.4410   18.6860 C   0  0  0  0  0  2  0  0  0  0  0  0
  -27.6580  -13.3210   19.9060 C   0  0  0  0  0  3  0  0  0  0  0  0
  -28.6890  -13.1960   21.0510 C   0  0  0  0  0  2  0  0  0  0  0  0
  -30.0210  -13.4650   20.4900 N   0  0  0  0  0  0  0  0  0  0  0  0
  -31.9000  -14.7440   20.3620 O   0  0  0  0  0  0  0  0  0  0  0  0
  -29.3430  -17.5470   18.5730 C   0  0  0  0  0  0  0  0  0  0  0  0
  -29.7820  -16.1260   18.9180 C   0  0  0  0  0  2  0  0  0  0  0  0
  -30.1710  -18.2640   20.7530 C   0  0  0  0  0  2  0  0  0  0  0  0
  -29.8450  -16.8470   21.3270 C   0  0  0  0  0  2  0  0  0  0  0  0
  -29.5190  -18.5470   19.4660 N   0  0  0  0  0  0  0  0  0  0  0  0
  -29.9120  -15.7480   20.3410 N   0  0  0  0  0  0  0  0  0  0  0  0
  -28.8420  -17.7310   17.4580 O   0  0  0  0  0  0  0  0  0  0  0  0
  -25.2420  -13.9350   20.5390 C   0  0  0  0  0  0  0  0  0  0  0  0
  -24.1610  -13.1670   20.8770 C   0  0  0  0  0  0  0  0  0  0  0  0
  -24.6260  -11.8150   20.8830 C   0  0  0  0  0  0  0  0  0  0  0  0
  -26.2940  -13.0510   20.3540 N   0  0  0  0  0  0  0  0  0  0  0  0
  -25.9260  -11.7720   20.6240 N   0  0  0  0  0  0  0  0  0  0  0  0
  -23.8960  -10.5540   21.0620 C   0  0  0  0  0  0  0  0  0  0  0  0
  -24.3040   -9.5950   22.0140 C   0  0  0  0  0  3  0  0  0  0  0  0
  -23.5740   -8.3970   22.1790 C   0  0  0  0  0  3  0  0  0  0  0  0
  -22.4250   -8.1520   21.3910 C   0  0  0  0  0  0  0  0  0  0  0  0
  -22.0390   -9.1000   20.4280 C   0  0  0  0  0  3  0  0  0  0  0  0
  -22.7690  -10.2890   20.2600 C   0  0  0  0  0  3  0  0  0  0  0  0
  -21.6710   -7.0070   21.4670 O   0  0  0  0  0  0  0  0  0  0  0  0
  -21.5950   -6.2690   22.6220 C   0  0  0  0  0  0  0  0  0  0  0  0
  -21.1340   -6.8310   23.8340 C   0  0  0  0  0  3  0  0  0  0  0  0
  -21.0050   -6.0210   24.9800 C   0  0  0  0  0  3  0  0  0  0  0  0
  -21.3260   -4.6520   24.9170 C   0  0  0  0  0  0  0  0  0  0  0  0
  -21.7800   -4.0910   23.7100 C   0  0  0  0  0  3  0  0  0  0  0  0
  -21.9120   -4.8970   22.5650 C   0  0  0  0  0  0  0  0  0  0  0  0
  -22.3290   -4.3470   21.4000 F   0  0  0  0  0  0  0  0  0  0  0  0
  -21.1950   -3.8720   26.0160 F   0  0  0  0  0  0  0  0  0  0  0  0
  -22.7550  -13.6440   21.0930 C   0  0  0  0  0  0  0  0  0  0  0  0
  -21.9970  -12.9600   21.9410 N   0  0  0  0  0  0  0  0  0  0  0  0
  -22.3380  -14.6630   20.5440 O   0  0  0  0  0  0  0  0  0  0  0  0
  -22.3490  -12.1380   22.4110 H   0  0  0  0  0  0  0  0  0  0  0  0
  -21.0490  -13.2600   22.1270 H   0  0  0  0  0  0  0  0  0  0  0  0
  -25.4110  -15.3040   20.3510 N   0  0  0  0  0  0  0  0  0  0  0  0
  -24.6420  -15.9620   20.4310 H   0  0  0  0  0  0  0  0  0  0  0  0
  -26.2790  -15.7450   20.0780 H   0  0  0  0  0  0  0  0  0  0  0  0
  1  3  1  0
  2  5  1  0
  2  4  2  0
  4  6  1  0
  5  1  2  0
  6  3  2  0
  6  8  1  0
  8  7  1  0
  9  8  1  0
 10  9  1  0
 11 22  2  0
 12 10  1  0
 12 17  1  0
 13 21  1  0
 13 23  1  0
 14 20  1  0
 14 16  1  0
 15 21  1  0
 16 17  2  0
 16 15  1  0
 18 12  2  0
 19 18  1  0
 19 14  2  0
 20 13  1  0
 21 11  1  0
 23 25  2  0
 24 23  1  0
 26 24  1  0
 27 36  2  0
 27 32  1  0
 28 24  1  0
 28 32  1  0
 29 28  1  0
 30 31  1  0
 30 29  1  0
 31 27  1  0
 32 33  2  0
 33 34  1  0
 35 34  2  0
 36 35  1  0
 37 11  1  0
 37 42  1  0
 37 38  1  0
 38 41  1  1
 38 39  1  0
 40 38  1  0
 42 45  1  0
 43 47  1  0
 43 42  1  0
 44 43  2  0
 47 46  1  0
 49 47  1  0
 49 50  1  0
 49 48  1  0
 51 64  1  0
 51  5  1  0
 53 58  1  0
 54 55  1  0
 54 53  1  0
 56 55  1  0
 56 70  1  0
 56 57  1  0
 58 52  1  0
 58 57  1  0
 59 52  2  0
 60 61  1  0
 60 64  1  0
 61 65  1  0
 62 63  1  0
 64 62  1  0
 65 52  1  0
 65 63  1  0
 66 60  2  0
 67 68  2  0
 68 69  1  0
 68 87  1  0
 69 72  1  0
 70 67  1  0
 70 71  1  0
 71 69  2  0
 72 73  1  0
 73 74  2  0
 75 78  1  0
 75 74  1  0
 76 75  2  0
 77 76  1  0
 77 72  2  0
 78 79  1  0
 79 80  1  0
 80 81  2  0
 82 81  1  0
 82 86  1  0
 83 82  2  0
 84 79  2  0
 84 83  1  0
 85 84  1  0
 87 88  1  0
 88 91  1  0
 88 90  1  0
 89 87  2  0
 92 93  1  0
 92 67  1  0
 94 92  1  0
M  ISO  4   9 101  10 101  52 100  65 100
M  END
>  <TORSDO>  (80) 
F 19

>  <SCORE>  (80) 
-14.225

>  <name>  (80) 
79

>  <ligand_id>  (80) 
79

>  <original_smiles>  (80) 
[H]c1c([H])c([H])c2c(c1[H])C([H])([H])C([H])([H])C([H])([H])C2([H])N([H])C(=O)C1([H])N(C(=O)C([H])(N([H])C(=O)C([H])(N([H])C([H])([H])[H])C([H])([H])[H])C(C([H])([H])[H])(C([H])([H])[H])C([H])([H])[H])C([H])([H])c2c([H])c(OC([H])([H])C([H])(c3c([H])c([H])c(C([H])([H])N4C(=O)C([H])([H])N(C(=O)N5C([H])([H])C([H])([H])C([H])([H])C([H])(n6nc(-c7c([H])c([H])c(Oc8c([H])c([H])c(F)c([H])c8F)c([H])c7[H])c(C(=O)N([H])[H])c6N([H])[H])C5([H])[H])C([H])([H])C4([H])[H])c([H])c3[H])C([H])([H])[H])c([H])c([H])c2C1([H])[H]

>  <smiles>  (80) 
[H]c1c([H])c([H])c2c(c1[H])C([H])([H])C([H])([H])C([H])([H])C2([H])N([H])C(=O)C1([H])N(C(=O)C([H])(N([H])C(=O)C([H])(N([H])C([H])([H])[H])C([H])([H])[H])C(C([H])([H])[H])(C([H])([H])[H])C([H])([H])[H])C([H])([H])c2c([H])c(OC([H])([H])C([H])(c3c([H])c([H])c(C([H])([H])N4C(=O)C([H])([H])N(C(=O)N5C([H])([H])C([H])([H])C([H])([H])C([H])(n6nc(-c7c([H])c([H])c(Oc8c([H])c([H])c(F)c([H])c8F)c([H])c7[H])c(C(=O)N([H])[H])c6N([H])[H])C5([H])[H])C([H])([H])C4([H])[H])c([H])c3[H])C([H])([H])[H])c([H])c([H])c2C1([H])[H]

$$$$
80:0:0
     RDKit          3D

 92101  0  0  1  0  0  0  0  0999 V2000
  -28.1620  -21.7800   20.5760 C   0  0  0  0  0  3  0  0  0  0  0  0
  -28.9150  -20.5150   20.7110 C   0  0  0  0  0  0  0  0  0  0  0  0
  -30.2910  -20.5730   20.6320 C   0  0  0  0  0  0  0  0  0  0  0  0
  -28.7850  -23.1100   20.3780 C   0  0  0  0  0  0  0  0  0  0  0  0
  -30.8680  -21.8730   20.4430 C   0  0  0  0  0  0  0  0  0  0  0  0
  -28.5230  -18.9780   20.9010 C   0  0  0  0  0  2  0  0  0  0  0  0
  -30.9530  -19.1380   20.7260 C   0  0  0  0  0  2  0  0  0  0  0  0
  -29.8500  -18.0170   21.1000 C   0  0  0  0  0  3  0  0  0  0  0  0
  -32.3740  -22.0050   20.3340 C   0  0  0  0  0  1  0  0  0  0  0  0
  -30.1560  -23.0620   20.3250 N   0  0  0  0  0  0  0  0  0  0  0  0
  -30.6110  -15.2680   21.0010 C   0  0  0  0  0  0  0  0  0  0  0  0
  -30.6810  -12.8060   20.3040 C   0  0  0  0  0  2  0  0  0  0  0  0
  -29.9170  -12.5210   18.9910 C   0  0  0  0  0  2  0  0  0  0  0  0
  -28.4130  -12.3060   19.2620 C   0  0  0  0  0  2  0  0  0  0  0  0
  -27.8260  -13.2970   20.3050 C   0  0  0  0  0  3  0  0  0  0  0  0
  -28.7450  -13.5310   21.5140 C   0  0  0  0  0  2  0  0  0  0  0  0
  -30.0330  -13.9830   20.9610 N   0  0  0  0  0  0  0  0  0  0  0  0
  -31.8410  -15.2650   21.1440 O   0  0  0  0  0  0  0  0  0  0  0  0
  -29.9280  -16.4910   20.5430 N   0  0  0  0  0  0  0  0  0  0  0  0
  -25.3910  -13.8900   20.7680 C   0  0  0  0  0  0  0  0  0  0  0  0
  -24.2890  -13.1200   21.0010 C   0  0  0  0  0  0  0  0  0  0  0  0
  -24.7510  -11.7680   21.0300 C   0  0  0  0  0  0  0  0  0  0  0  0
  -26.4500  -13.0050   20.6610 N   0  0  0  0  0  0  0  0  0  0  0  0
  -26.0690  -11.7250   20.8870 N   0  0  0  0  0  0  0  0  0  0  0  0
  -24.0050  -10.5110   21.1300 C   0  0  0  0  0  0  0  0  0  0  0  0
  -24.3590   -9.5240   22.0740 C   0  0  0  0  0  3  0  0  0  0  0  0
  -23.6170   -8.3290   22.1690 C   0  0  0  0  0  3  0  0  0  0  0  0
  -22.5040   -8.1160   21.3210 C   0  0  0  0  0  0  0  0  0  0  0  0
  -22.1700   -9.0940   20.3680 C   0  0  0  0  0  3  0  0  0  0  0  0
  -22.9130  -10.2800   20.2690 C   0  0  0  0  0  3  0  0  0  0  0  0
  -21.7360   -6.9770   21.3270 O   0  0  0  0  0  0  0  0  0  0  0  0
  -21.6280   -6.1890   22.4440 C   0  0  0  0  0  0  0  0  0  0  0  0
  -21.1610   -6.6980   23.6750 C   0  0  0  0  0  3  0  0  0  0  0  0
  -21.0000   -5.8360   24.7780 C   0  0  0  0  0  3  0  0  0  0  0  0
  -21.2970   -4.4660   24.6500 C   0  0  0  0  0  0  0  0  0  0  0  0
  -21.7590   -3.9560   23.4230 C   0  0  0  0  0  3  0  0  0  0  0  0
  -21.9220   -4.8160   22.3230 C   0  0  0  0  0  0  0  0  0  0  0  0
  -22.3480   -4.3150   21.1380 F   0  0  0  0  0  0  0  0  0  0  0  0
  -21.1340   -3.6350   25.7070 F   0  0  0  0  0  0  0  0  0  0  0  0
  -22.8730  -13.6080   21.0970 C   0  0  0  0  0  0  0  0  0  0  0  0
  -22.0460  -12.9320   21.8850 N   0  0  0  0  0  0  0  0  0  0  0  0
  -22.5080  -14.6260   20.5120 O   0  0  0  0  0  0  0  0  0  0  0  0
  -22.3560  -12.1120   22.3860 H   0  0  0  0  0  0  0  0  0  0  0  0
  -21.0920  -13.2470   21.9960 H   0  0  0  0  0  0  0  0  0  0  0  0
  -25.5780  -15.2620   20.6140 N   0  0  0  0  0  0  0  0  0  0  0  0
  -24.8030  -15.9150   20.6270 H   0  0  0  0  0  0  0  0  0  0  0  0
  -26.4730  -15.7010   20.4430 H   0  0  0  0  0  0  0  0  0  0  0  0
  -31.0930  -16.3110   18.2620 C   0  0  0  0  0  1  0  0  0  0  0  0
  -28.5780  -16.1730   18.3670 C   0  0  0  0  0  1  0  0  0  0  0  0
  -29.8380  -16.7120   19.0540 C   0  0  0  0  0  3  0  0  0  0  0  0
  -27.9380  -24.5400   20.0440 C   0  0  0  0  0  2  0  0  0  0  0  0
  -28.3020  -26.0850   20.1530 O   0  0  0  0  0  0  0  0  0  0  0  0
  -24.6320  -31.8670   23.0880 C   0  0  0  0  0  0  0  0  0  0  0  0
  -27.2640  -27.1170   20.0780 C   0  0  0  0  0  0  0  0  0  0  0  0
  -23.4500  -30.4480   21.4600 C   0  0  0  0  0  3  0  0  0  0  0  0
  -24.9170  -28.8820   20.0380 C   0  0  0  0  0  0  0  0  0  0  0  0
  -26.0040  -30.7290   21.2950 C   0  0  0  0  0  2  0  0  0  0  0  0
  -26.0960  -29.3290   20.6450 C   0  0  0  0  0  0  0  0  0  0  0  0
  -27.2680  -28.4670   20.6460 C   0  0  0  0  0  3  0  0  0  0  0  0
  -26.0540  -26.7990   19.4180 C   0  0  0  0  0  3  0  0  0  0  0  0
  -24.9140  -27.6320   19.4060 C   0  0  0  0  0  3  0  0  0  0  0  0
  -23.6780  -29.7650   20.0850 C   0  0  0  0  0  2  0  0  0  0  0  0
  -24.7150  -31.0380   22.0020 N   0  0  0  0  0  0  0  0  0  0  0  0
  -23.5420  -32.1400   23.6170 O   0  0  0  0  0  0  0  0  0  0  0  0
  -22.7810  -29.4400   22.4290 C   0  0  0  0  0  0  0  0  0  0  0  0
  -21.4510  -29.2760   22.3250 N   0  0  0  0  0  0  0  0  0  0  0  0
  -23.4660  -28.8080   23.2360 O   0  0  0  0  0  0  0  0  0  0  0  0
  -20.9550  -29.8340   21.6430 H   0  0  0  0  0  0  0  0  0  0  0  0
  -18.0720  -28.0960   22.9060 C   0  0  0  0  0  0  0  0  0  0  0  0
  -20.6400  -28.3380   23.1070 C   0  0  0  0  0  3  0  0  0  0  0  0
  -20.7150  -26.9120   22.5140 C   0  0  0  0  0  2  0  0  0  0  0  0
  -19.5850  -26.6080   21.5250 C   0  0  0  0  0  2  0  0  0  0  0  0
  -18.2220  -26.7560   22.2060 C   0  0  0  0  0  2  0  0  0  0  0  0
  -19.2080  -28.8450   23.3140 C   0  0  0  0  0  0  0  0  0  0  0  0
  -19.0140  -30.1000   23.9320 C   0  0  0  0  0  3  0  0  0  0  0  0
  -17.7170  -30.6040   24.1460 C   0  0  0  0  0  3  0  0  0  0  0  0
  -16.5970  -29.8520   23.7540 C   0  0  0  0  0  3  0  0  0  0  0  0
  -16.7760  -28.6000   23.1390 C   0  0  0  0  0  3  0  0  0  0  0  0
  -25.9020  -32.5280   23.7090 C   0  0  0  0  0  3  0  0  0  0  0  0
  -25.5580  -33.9110   24.0720 N   0  0  0  0  0  0  0  0  0  0  0  0
  -25.8780  -34.9960   23.3520 C   0  0  0  0  0  0  0  0  0  0  0  0
  -26.5650  -34.9380   22.3290 O   0  0  0  0  0  0  0  0  0  0  0  0
  -24.9510  -34.0280   24.8690 H   0  0  0  0  0  0  0  0  0  0  0  0
  -24.1290  -36.7770   23.0240 C   0  0  0  0  0  1  0  0  0  0  0  0
  -25.3580  -36.3600   23.8480 C   0  0  0  0  0  3  0  0  0  0  0  0
  -27.4630  -37.2480   24.7510 C   0  0  0  0  0  1  0  0  0  0  0  0
  -26.3740  -37.4350   23.7960 N   0  0  0  0  0  0  0  0  0  0  0  0
  -25.9470  -38.3390   23.9780 H   0  0  0  0  0  0  0  0  0  0  0  0
  -26.4470  -31.7520   24.9710 C   0  0  1  0  0  0  0  0  0  0  0  0
  -25.3720  -31.4860   26.0490 C   0  0  0  0  0  1  0  0  0  0  0  0
  -27.0510  -30.3880   24.5660 C   0  0  0  0  0  1  0  0  0  0  0  0
  -27.5930  -32.5580   25.6270 C   0  0  0  0  0  1  0  0  0  0  0  0
  1  2  1  0
  2  6  1  0
  3  2  2  0
  3  7  1  0
  4  1  2  0
  5  3  1  0
  6  8  1  0
  7  8  1  0
  8 19  1  0
  9  5  1  0
 10  4  1  0
 10  5  2  0
 11 18  2  0
 12 17  1  0
 13 14  1  0
 13 12  1  0
 15 14  1  0
 15 23  1  0
 15 16  1  0
 17 11  1  0
 17 16  1  0
 19 11  1  0
 20 21  2  0
 21 22  1  0
 21 40  1  0
 22 25  1  0
 23 20  1  0
 23 24  1  0
 24 22  2  0
 25 26  1  0
 26 27  2  0
 28 31  1  0
 28 27  1  0
 29 28  2  0
 30 29  1  0
 30 25  2  0
 31 32  1  0
 32 33  1  0
 33 34  2  0
 35 34  1  0
 35 39  1  0
 36 35  2  0
 37 32  2  0
 37 36  1  0
 38 37  1  0
 40 41  1  0
 41 44  1  0
 41 43  1  0
 42 40  2  0
 45 46  1  0
 45 20  1  0
 47 45  1  0
 48 50  1  0
 49 50  1  0
 50 19  1  0
 51 52  1  0
 51  4  1  0
 53 64  2  0
 54 52  1  0
 54 59  1  0
 55 63  1  0
 55 65  1  0
 56 62  1  0
 56 58  1  0
 57 63  1  0
 58 59  2  0
 58 57  1  0
 60 54  2  0
 61 60  1  0
 61 56  2  0
 62 55  1  0
 63 53  1  0
 65 67  2  0
 66 65  1  0
 68 66  1  0
 69 78  2  0
 69 74  1  0
 70 66  1  0
 70 74  1  0
 71 70  1  0
 72 73  1  0
 72 71  1  0
 73 69  1  0
 74 75  2  0
 75 76  1  0
 77 76  2  0
 78 77  1  0
 79 53  1  0
 79 80  1  0
 79 89  1  0
 80 83  1  0
 81 85  1  0
 81 80  1  0
 82 81  2  0
 85 84  1  0
 87 85  1  0
 87 88  1  0
 87 86  1  0
 89 92  1  1
 89 90  1  0
 91 89  1  0
M  ISO  4  11 100  19 100  51 101  52 101
M  END
>  <TORSDO>  (81) 
F 18

>  <SCORE>  (81) 
-13.978

>  <name>  (81) 
80

>  <ligand_id>  (81) 
80

>  <original_smiles>  (81) 
[H]c1c([H])c([H])c2c(c1[H])C([H])([H])C([H])([H])C([H])([H])C2([H])N([H])C(=O)C1([H])N(C(=O)C([H])(N([H])C(=O)C([H])(N([H])C([H])([H])[H])C([H])([H])[H])C(C([H])([H])[H])(C([H])([H])[H])C([H])([H])[H])C([H])([H])c2c([H])c(OC([H])([H])c3nc(C([H])([H])[H])c4c(c3[H])C([H])([H])C([H])(N(C(=O)N3C([H])([H])C([H])([H])C([H])([H])C([H])(n5nc(-c6c([H])c([H])c(Oc7c([H])c([H])c(F)c([H])c7F)c([H])c6[H])c(C(=O)N([H])[H])c5N([H])[H])C3([H])[H])C([H])(C([H])([H])[H])C([H])([H])[H])C4([H])[H])c([H])c([H])c2C1([H])[H]

>  <smiles>  (81) 
[H]c1c([H])c([H])c2c(c1[H])C([H])([H])C([H])([H])C([H])([H])C2([H])N([H])C(=O)C1([H])N(C(=O)C([H])(N([H])C(=O)C([H])(N([H])C([H])([H])[H])C([H])([H])[H])C(C([H])([H])[H])(C([H])([H])[H])C([H])([H])[H])C([H])([H])c2c([H])c(OC([H])([H])c3nc(C([H])([H])[H])c4c(c3[H])C([H])([H])C([H])(N(C(=O)N3C([H])([H])C([H])([H])C([H])([H])C([H])(n5nc(-c6c([H])c([H])c(Oc7c([H])c([H])c(F)c([H])c7F)c([H])c6[H])c(C(=O)N([H])[H])c5N([H])[H])C3([H])[H])C([H])(C([H])([H])[H])C([H])([H])[H])C4([H])[H])c([H])c([H])c2C1([H])[H]

$$$$
81:0:0
     RDKit          3D

 90 98  0  0  1  0  0  0  0  0999 V2000
  -28.1930  -20.2290   20.4740 C   0  0  0  0  0  3  0  0  0  0  0  0
  -27.7580  -21.6480   20.4250 C   0  0  0  0  0  3  0  0  0  0  0  0
  -30.3150  -21.0150   20.1600 C   0  0  0  0  0  3  0  0  0  0  0  0
  -29.5570  -19.7640   20.3210 C   0  0  0  0  0  0  0  0  0  0  0  0
  -28.5990  -22.8260   20.2410 C   0  0  0  0  0  0  0  0  0  0  0  0
  -29.9040  -22.3770   20.1070 N   0  0  0  0  0  0  0  0  0  0  0  0
  -31.3010  -18.2770   21.4920 C   0  0  0  0  0  1  0  0  0  0  0  0
  -31.1160  -18.2110   18.9880 C   0  0  0  0  0  1  0  0  0  0  0  0
  -30.3110  -18.1790   20.3100 C   0  0  2  0  0  0  0  0  0  0  0  0
  -30.4930  -15.2790   20.2780 C   0  0  0  0  0  0  0  0  0  0  0  0
  -30.3870  -12.8670   19.3600 C   0  0  0  0  0  2  0  0  0  0  0  0
  -29.4570  -12.6970   18.1360 C   0  0  0  0  0  2  0  0  0  0  0  0
  -28.0130  -12.4290   18.5920 C   0  0  0  0  0  2  0  0  0  0  0  0
  -27.5790  -13.3850   19.7320 C   0  0  0  0  0  3  0  0  0  0  0  0
  -28.6400  -13.5200   20.8470 C   0  0  0  0  0  2  0  0  0  0  0  0
  -29.8700  -14.0050   20.2030 N   0  0  0  0  0  0  0  0  0  0  0  0
  -31.7100  -15.2160   20.0580 O   0  0  0  0  0  0  0  0  0  0  0  0
  -29.8100  -16.5930   20.3900 N   0  0  0  0  0  0  0  0  0  0  0  0
  -28.8150  -16.4940   20.5270 H   0  0  0  0  0  0  0  0  0  0  0  0
  -25.2110  -13.9320   20.5080 C   0  0  0  0  0  0  0  0  0  0  0  0
  -24.1560  -13.1480   20.8820 C   0  0  0  0  0  0  0  0  0  0  0  0
  -24.6270  -11.8000   20.8410 C   0  0  0  0  0  0  0  0  0  0  0  0
  -26.2560  -13.0620   20.2530 N   0  0  0  0  0  0  0  0  0  0  0  0
  -25.9170  -11.7730   20.5220 N   0  0  0  0  0  0  0  0  0  0  0  0
  -23.9060  -10.5330   21.0290 C   0  0  0  0  0  0  0  0  0  0  0  0
  -24.3420   -9.5650   21.9600 C   0  0  0  0  0  3  0  0  0  0  0  0
  -23.6190   -8.3650   22.1380 C   0  0  0  0  0  3  0  0  0  0  0  0
  -22.4450   -8.1270   21.3850 C   0  0  0  0  0  0  0  0  0  0  0  0
  -22.0270   -9.0840   20.4430 C   0  0  0  0  0  3  0  0  0  0  0  0
  -22.7510  -10.2740   20.2630 C   0  0  0  0  0  3  0  0  0  0  0  0
  -21.6910   -6.9800   21.4730 O   0  0  0  0  0  0  0  0  0  0  0  0
  -21.6380   -6.2400   22.6260 C   0  0  0  0  0  0  0  0  0  0  0  0
  -21.1860   -6.7920   23.8450 C   0  0  0  0  0  3  0  0  0  0  0  0
  -21.0800   -5.9780   24.9910 C   0  0  0  0  0  3  0  0  0  0  0  0
  -21.4180   -4.6130   24.9190 C   0  0  0  0  0  0  0  0  0  0  0  0
  -21.8630   -4.0610   23.7050 C   0  0  0  0  0  3  0  0  0  0  0  0
  -21.9700   -4.8720   22.5620 C   0  0  0  0  0  0  0  0  0  0  0  0
  -22.3790   -4.3290   21.3900 F   0  0  0  0  0  0  0  0  0  0  0  0
  -21.3100   -3.8300   26.0160 F   0  0  0  0  0  0  0  0  0  0  0  0
  -22.7570  -13.6190   21.1580 C   0  0  0  0  0  0  0  0  0  0  0  0
  -22.0360  -12.9210   22.0270 N   0  0  0  0  0  0  0  0  0  0  0  0
  -22.3140  -14.6420   20.6370 O   0  0  0  0  0  0  0  0  0  0  0  0
  -22.4070  -12.0950   22.4720 H   0  0  0  0  0  0  0  0  0  0  0  0
  -21.0980  -13.2190   22.2540 H   0  0  0  0  0  0  0  0  0  0  0  0
  -25.3650  -15.3040   20.3340 N   0  0  0  0  0  0  0  0  0  0  0  0
  -24.5920  -15.9520   20.4470 H   0  0  0  0  0  0  0  0  0  0  0  0
  -26.2000  -15.7450   19.9710 H   0  0  0  0  0  0  0  0  0  0  0  0
  -28.2590  -24.5150   18.2970 C   0  0  0  0  0  1  0  0  0  0  0  0
  -28.0050  -24.4070   19.8090 C   0  0  0  0  0  3  0  0  0  0  0  0
  -28.2230  -25.9400   20.3240 O   0  0  0  0  0  0  0  0  0  0  0  0
  -24.6430  -31.8790   23.2410 C   0  0  0  0  0  0  0  0  0  0  0  0
  -27.2230  -27.0390   20.2200 C   0  0  0  0  0  0  0  0  0  0  0  0
  -23.4590  -30.4850   21.5980 C   0  0  0  0  0  3  0  0  0  0  0  0
  -24.9170  -28.8990   20.1740 C   0  0  0  0  0  0  0  0  0  0  0  0
  -26.0250  -30.7100   21.4600 C   0  0  0  0  0  2  0  0  0  0  0  0
  -26.1010  -29.3060   20.8010 C   0  0  0  0  0  0  0  0  0  0  0  0
  -27.2480  -28.3950   20.8050 C   0  0  0  0  0  3  0  0  0  0  0  0
  -26.0050  -26.7840   19.5460 C   0  0  0  0  0  3  0  0  0  0  0  0
  -24.8920  -27.6550   19.5290 C   0  0  0  0  0  3  0  0  0  0  0  0
  -23.6950  -29.8110   20.2190 C   0  0  0  0  0  2  0  0  0  0  0  0
  -24.7310  -31.0510   22.1530 N   0  0  0  0  0  0  0  0  0  0  0  0
  -23.5520  -32.1650   23.7590 O   0  0  0  0  0  0  0  0  0  0  0  0
  -22.7670  -29.4810   22.5570 C   0  0  0  0  0  0  0  0  0  0  0  0
  -21.4380  -29.3110   22.4270 N   0  0  0  0  0  0  0  0  0  0  0  0
  -23.4320  -28.8570   23.3870 O   0  0  0  0  0  0  0  0  0  0  0  0
  -20.9540  -29.8670   21.7350 H   0  0  0  0  0  0  0  0  0  0  0  0
  -18.0570  -28.0880   22.9200 C   0  0  0  0  0  0  0  0  0  0  0  0
  -20.6150  -28.3710   23.1950 C   0  0  0  0  0  3  0  0  0  0  0  0
  -20.7270  -26.9380   22.6240 C   0  0  0  0  0  2  0  0  0  0  0  0
  -19.6310  -26.6070   21.6060 C   0  0  0  0  0  2  0  0  0  0  0  0
  -18.2450  -26.7420   22.2430 C   0  0  0  0  0  2  0  0  0  0  0  0
  -19.1700  -28.8610   23.3530 C   0  0  0  0  0  0  0  0  0  0  0  0
  -18.9360  -30.1190   23.9500 C   0  0  0  0  0  3  0  0  0  0  0  0
  -17.6270  -30.6080   24.1130 C   0  0  0  0  0  3  0  0  0  0  0  0
  -16.5300  -29.8350   23.6940 C   0  0  0  0  0  3  0  0  0  0  0  0
  -16.7460  -28.5760   23.1040 C   0  0  0  0  0  3  0  0  0  0  0  0
  -25.9120  -32.5250   23.8790 C   0  0  0  0  0  3  0  0  0  0  0  0
  -25.5920  -33.9250   24.2050 N   0  0  0  0  0  0  0  0  0  0  0  0
  -25.9110  -34.9820   23.4470 C   0  0  0  0  0  0  0  0  0  0  0  0
  -26.5700  -34.8820   22.4090 O   0  0  0  0  0  0  0  0  0  0  0  0
  -25.0020  -34.0760   25.0110 H   0  0  0  0  0  0  0  0  0  0  0  0
  -24.1670  -36.7710   23.1260 C   0  0  0  0  0  1  0  0  0  0  0  0
  -25.4270  -36.3720   23.9120 C   0  0  0  0  0  3  0  0  0  0  0  0
  -27.5690  -37.2760   24.7020 C   0  0  0  0  0  1  0  0  0  0  0  0
  -26.4510  -37.4300   23.7740 N   0  0  0  0  0  0  0  0  0  0  0  0
  -26.0430  -38.3490   23.9200 H   0  0  0  0  0  0  0  0  0  0  0  0
  -26.4090  -31.7660   25.1710 C   0  0  1  0  0  0  0  0  0  0  0  0
  -25.3010  -31.5400   26.2270 C   0  0  0  0  0  1  0  0  0  0  0  0
  -26.9970  -30.3830   24.8090 C   0  0  0  0  0  1  0  0  0  0  0  0
  -27.5520  -32.5660   25.8400 C   0  0  0  0  0  1  0  0  0  0  0  0
  2  1  1  0
  3  4  1  0
  4  1  2  0
  5  2  2  0
  6  3  2  0
  6  5  1  0
  9  8  1  6
  9  4  1  0
  9 18  1  0
  9  7  1  0
 10 18  1  0
 11 16  1  0
 12 13  1  0
 12 11  1  0
 14 13  1  0
 14 23  1  0
 14 15  1  0
 16 10  1  0
 16 15  1  0
 17 10  2  0
 18 19  1  0
 20 21  2  0
 21 40  1  0
 22 21  1  0
 22 25  1  0
 23 20  1  0
 23 24  1  0
 24 22  2  0
 25 26  1  0
 26 27  2  0
 28 31  1  0
 28 27  1  0
 29 28  2  0
 30 29  1  0
 30 25  2  0
 31 32  1  0
 32 33  1  0
 33 34  2  0
 35 34  1  0
 35 39  1  0
 36 35  2  0
 37 32  2  0
 37 36  1  0
 38 37  1  0
 40 41  1  0
 41 44  1  0
 41 43  1  0
 42 40  2  0
 45 46  1  0
 45 20  1  0
 47 45  1  0
 49 48  1  0
 49  5  1  0
 49 50  1  0
 51 62  2  0
 52 50  1  0
 52 57  1  0
 53 61  1  0
 53 63  1  0
 54 60  1  0
 54 56  1  0
 55 61  1  0
 56 57  2  0
 56 55  1  0
 58 52  2  0
 59 58  1  0
 59 54  2  0
 60 53  1  0
 61 51  1  0
 63 65  2  0
 64 63  1  0
 66 64  1  0
 67 76  2  0
 67 72  1  0
 68 64  1  0
 68 72  1  0
 69 68  1  0
 70 71  1  0
 70 69  1  0
 71 67  1  0
 72 73  2  0
 73 74  1  0
 75 74  2  0
 76 75  1  0
 77 51  1  0
 77 78  1  0
 77 87  1  0
 78 81  1  0
 79 83  1  0
 79 78  1  0
 80 79  2  0
 83 82  1  0
 85 83  1  0
 85 86  1  0
 85 84  1  0
 87 90  1  1
 87 88  1  0
 89 87  1  0
M  ISO  4  10 100  18 100  49 101  50 101
M  END
>  <TORSDO>  (82) 
F 18

>  <SCORE>  (82) 
-15.624

>  <name>  (82) 
81

>  <ligand_id>  (82) 
81

>  <original_smiles>  (82) 
[H]c1nc(C([H])(Oc2c([H])c([H])c3c(c2[H])C([H])([H])N(C(=O)C([H])(N([H])C(=O)C([H])(N([H])C([H])([H])[H])C([H])([H])[H])C(C([H])([H])[H])(C([H])([H])[H])C([H])([H])[H])C([H])(C(=O)N([H])C2([H])c4c([H])c([H])c([H])c([H])c4C([H])([H])C([H])([H])C2([H])[H])C3([H])[H])C([H])([H])[H])c([H])c([H])c1C(N([H])C(=O)N1C([H])([H])C([H])([H])C([H])([H])C([H])(n2nc(-c3c([H])c([H])c(Oc4c([H])c([H])c(F)c([H])c4F)c([H])c3[H])c(C(=O)N([H])[H])c2N([H])[H])C1([H])[H])(C([H])([H])[H])C([H])([H])[H]

>  <smiles>  (82) 
[H]c1nc(C([H])(Oc2c([H])c([H])c3c(c2[H])C([H])([H])N(C(=O)C([H])(N([H])C(=O)C([H])(N([H])C([H])([H])[H])C([H])([H])[H])C(C([H])([H])[H])(C([H])([H])[H])C([H])([H])[H])C([H])(C(=O)N([H])C2([H])c4c([H])c([H])c([H])c([H])c4C([H])([H])C([H])([H])C2([H])[H])C3([H])[H])C([H])([H])[H])c([H])c([H])c1C(N([H])C(=O)N1C([H])([H])C([H])([H])C([H])([H])C([H])(n2nc(-c3c([H])c([H])c(Oc4c([H])c([H])c(F)c([H])c4F)c([H])c3[H])c(C(=O)N([H])[H])c2N([H])[H])C1([H])[H])(C([H])([H])[H])C([H])([H])[H]

$$$$
82:0:0
     RDKit          3D

 83 91  0  0  1  0  0  0  0  0999 V2000
  -27.9650  -23.8620   20.2020 C   0  0  0  0  0  3  0  0  0  0  0  0
  -28.1660  -25.5980   20.2770 O   0  0  0  0  0  0  0  0  0  0  0  0
  -24.6710  -31.8590   23.2010 C   0  0  0  0  0  0  0  0  0  0  0  0
  -27.1870  -26.7920   20.2250 C   0  0  0  0  0  0  0  0  0  0  0  0
  -23.4790  -30.4610   21.5670 C   0  0  0  0  0  3  0  0  0  0  0  0
  -24.9210  -28.8090   20.1600 C   0  0  0  0  0  0  0  0  0  0  0  0
  -26.0570  -30.6050   21.4430 C   0  0  0  0  0  2  0  0  0  0  0  0
  -26.1170  -29.1730   20.7910 C   0  0  0  0  0  0  0  0  0  0  0  0
  -27.2360  -28.1920   20.7890 C   0  0  0  0  0  3  0  0  0  0  0  0
  -25.9560  -26.6290   19.5420 C   0  0  0  0  0  3  0  0  0  0  0  0
  -24.8770  -27.5630   19.5120 C   0  0  0  0  0  3  0  0  0  0  0  0
  -23.7150  -29.7610   20.1980 C   0  0  0  0  0  2  0  0  0  0  0  0
  -24.7590  -31.0070   22.1220 N   0  0  0  0  0  0  0  0  0  0  0  0
  -23.5800  -32.1630   23.7110 O   0  0  0  0  0  0  0  0  0  0  0  0
  -22.7610  -29.4870   22.5390 C   0  0  0  0  0  0  0  0  0  0  0  0
  -21.4270  -29.3390   22.4160 N   0  0  0  0  0  0  0  0  0  0  0  0
  -23.4150  -28.8610   23.3760 O   0  0  0  0  0  0  0  0  0  0  0  0
  -20.9500  -29.8950   21.7200 H   0  0  0  0  0  0  0  0  0  0  0  0
  -18.0340  -28.1520   22.9380 C   0  0  0  0  0  0  0  0  0  0  0  0
  -20.5960  -28.4100   23.1920 C   0  0  0  0  0  3  0  0  0  0  0  0
  -20.6880  -26.9750   22.6210 C   0  0  0  0  0  2  0  0  0  0  0  0
  -19.5820  -26.6560   21.6100 C   0  0  0  0  0  2  0  0  0  0  0  0
  -18.2030  -26.8050   22.2570 C   0  0  0  0  0  2  0  0  0  0  0  0
  -19.1560  -28.9130   23.3620 C   0  0  0  0  0  0  0  0  0  0  0  0
  -18.9400  -30.1720   23.9640 C   0  0  0  0  0  3  0  0  0  0  0  0
  -17.6360  -30.6710   24.1420 C   0  0  0  0  0  3  0  0  0  0  0  0
  -16.5290  -29.9100   23.7310 C   0  0  0  0  0  3  0  0  0  0  0  0
  -16.7290  -28.6510   23.1350 C   0  0  0  0  0  3  0  0  0  0  0  0
  -25.9380  -32.5050   23.8390 C   0  0  0  0  0  3  0  0  0  0  0  0
  -25.6140  -33.9020   24.1870 N   0  0  0  0  0  0  0  0  0  0  0  0
  -25.9160  -34.9730   23.4400 C   0  0  0  0  0  0  0  0  0  0  0  0
  -26.5540  -34.8890   22.3870 O   0  0  0  0  0  0  0  0  0  0  0  0
  -25.0420  -34.0410   25.0070 H   0  0  0  0  0  0  0  0  0  0  0  0
  -24.1510  -36.7570   23.1970 C   0  0  0  0  0  1  0  0  0  0  0  0
  -25.4390  -36.3560   23.9340 C   0  0  0  0  0  3  0  0  0  0  0  0
  -27.6030  -37.2700   24.6580 C   0  0  0  0  0  1  0  0  0  0  0  0
  -26.4520  -37.4240   23.7730 N   0  0  0  0  0  0  0  0  0  0  0  0
  -26.0420  -38.3380   23.9420 H   0  0  0  0  0  0  0  0  0  0  0  0
  -26.4400  -31.7380   25.1250 C   0  0  1  0  0  0  0  0  0  0  0  0
  -25.3390  -31.5080   26.1870 C   0  0  0  0  0  1  0  0  0  0  0  0
  -27.0220  -30.3560   24.7550 C   0  0  0  0  0  1  0  0  0  0  0  0
  -27.5900  -32.5310   25.7920 C   0  0  0  0  0  1  0  0  0  0  0  0
  -28.9600  -22.2070   20.2500 C   0  0  0  0  0  3  0  0  0  0  0  0
  -28.6980  -20.2960   20.2610 C   0  0  0  0  0  2  0  0  0  0  0  0
  -30.3160  -15.6330   20.1880 C   0  0  0  0  0  0  0  0  0  0  0  0
  -30.3830  -13.1120   19.3290 C   0  0  0  0  0  2  0  0  0  0  0  0
  -29.4680  -12.7350   18.1310 C   0  0  0  0  0  2  0  0  0  0  0  0
  -28.0520  -12.3850   18.6120 C   0  0  0  0  0  2  0  0  0  0  0  0
  -27.5650  -13.3730   19.6970 C   0  0  0  0  0  3  0  0  0  0  0  0
  -28.6170  -13.6670   20.7910 C   0  0  0  0  0  2  0  0  0  0  0  0
  -29.7780  -14.2800   20.1080 N   0  0  0  0  0  0  0  0  0  0  0  0
  -31.5440  -15.5700   19.9890 O   0  0  0  0  0  0  0  0  0  0  0  0
  -30.0520  -17.9100   21.3640 C   0  0  0  0  0  2  0  0  0  0  0  0
  -29.7300  -18.7080   20.1420 C   0  0  0  0  0  3  0  0  0  0  0  0
  -29.5760  -16.9940   20.3460 N   0  0  0  0  0  0  0  0  0  0  0  0
  -25.2190  -13.8830   20.5250 C   0  0  0  0  0  0  0  0  0  0  0  0
  -24.1710  -13.0900   20.8980 C   0  0  0  0  0  0  0  0  0  0  0  0
  -24.6480  -11.7440   20.8340 C   0  0  0  0  0  0  0  0  0  0  0  0
  -26.2610  -13.0210   20.2420 N   0  0  0  0  0  0  0  0  0  0  0  0
  -25.9340  -11.7270   20.4960 N   0  0  0  0  0  0  0  0  0  0  0  0
  -23.9320  -10.4740   21.0160 C   0  0  0  0  0  0  0  0  0  0  0  0
  -24.3590   -9.5090   21.9550 C   0  0  0  0  0  3  0  0  0  0  0  0
  -23.6380   -8.3080   22.1260 C   0  0  0  0  0  3  0  0  0  0  0  0
  -22.4750   -8.0610   21.3580 C   0  0  0  0  0  0  0  0  0  0  0  0
  -22.0670   -9.0140   20.4080 C   0  0  0  0  0  3  0  0  0  0  0  0
  -22.7890  -10.2060   20.2350 C   0  0  0  0  0  3  0  0  0  0  0  0
  -21.7270   -6.9120   21.4380 O   0  0  0  0  0  0  0  0  0  0  0  0
  -21.6320   -6.1940   22.6040 C   0  0  0  0  0  0  0  0  0  0  0  0
  -21.1350   -6.7680   23.7940 C   0  0  0  0  0  3  0  0  0  0  0  0
  -20.9900   -5.9760   24.9510 C   0  0  0  0  0  3  0  0  0  0  0  0
  -21.3300   -4.6110   24.9170 C   0  0  0  0  0  0  0  0  0  0  0  0
  -21.8210   -4.0360   23.7310 C   0  0  0  0  0  3  0  0  0  0  0  0
  -21.9670   -4.8250   22.5770 C   0  0  0  0  0  0  0  0  0  0  0  0
  -22.4190   -4.2610   21.4320 F   0  0  0  0  0  0  0  0  0  0  0  0
  -21.1840   -3.8470   26.0260 F   0  0  0  0  0  0  0  0  0  0  0  0
  -22.7760  -13.5530   21.1990 C   0  0  0  0  0  0  0  0  0  0  0  0
  -22.0690  -12.8430   22.0690 N   0  0  0  0  0  0  0  0  0  0  0  0
  -22.3240  -14.5820   20.6960 O   0  0  0  0  0  0  0  0  0  0  0  0
  -22.4490  -12.0110   22.4960 H   0  0  0  0  0  0  0  0  0  0  0  0
  -21.1320  -13.1350   22.3130 H   0  0  0  0  0  0  0  0  0  0  0  0
  -25.3690  -15.2580   20.3710 N   0  0  0  0  0  0  0  0  0  0  0  0
  -24.6060  -15.9080   20.5220 H   0  0  0  0  0  0  0  0  0  0  0  0
  -26.2210  -15.7110   20.0630 H   0  0  0  0  0  0  0  0  0  0  0  0
  1 43  2  0
  1  2  1  0
  3 14  2  0
  4  2  1  0
  4  9  1  0
  5 13  1  0
  5 15  1  0
  6 12  1  0
  6  8  1  0
  7 13  1  0
  8  7  1  0
  9  8  2  0
 10  4  2  0
 11 10  1  0
 11  6  2  0
 12  5  1  0
 13  3  1  0
 15 17  2  0
 16 15  1  0
 18 16  1  0
 19 28  2  0
 19 24  1  0
 20 16  1  0
 20 24  1  0
 21 20  1  0
 22 23  1  0
 22 21  1  0
 23 19  1  0
 24 25  2  0
 25 26  1  0
 27 26  2  0
 28 27  1  0
 29  3  1  0
 29 30  1  0
 29 39  1  0
 30 33  1  0
 31 35  1  0
 31 30  1  0
 32 31  2  0
 35 34  1  0
 37 35  1  0
 37 38  1  0
 37 36  1  0
 39 42  1  1
 39 40  1  0
 41 39  1  0
 43 44  1  0
 45 55  1  0
 46 51  1  0
 47 48  1  0
 47 46  1  0
 49 48  1  0
 49 59  1  0
 49 50  1  0
 51 45  1  0
 51 50  1  0
 52 45  2  0
 54 44  1  0
 54 55  1  0
 54 53  1  0
 55 53  1  0
 56 57  2  0
 57 76  1  0
 58 57  1  0
 58 61  1  0
 59 60  1  0
 59 56  1  0
 60 58  2  0
 61 62  1  0
 62 63  2  0
 64 67  1  0
 64 63  1  0
 65 64  2  0
 66 65  1  0
 66 61  2  0
 67 68  1  0
 68 69  1  0
 69 70  2  0
 71 70  1  0
 71 75  1  0
 72 71  2  0
 73 68  2  0
 73 72  1  0
 74 73  1  0
 76 77  1  0
 77 80  1  0
 77 79  1  0
 78 76  2  0
 81 82  1  0
 81 56  1  0
 83 81  1  0
M  ISO  4   1 101   2 101  45 100  55 100
M  END
>  <TORSDO>  (83) 
F 18

>  <SCORE>  (83) 
-16.298

>  <name>  (83) 
82

>  <ligand_id>  (83) 
82

>  <original_smiles>  (83) 
[H]c1c([H])c([H])c2c(c1[H])C([H])([H])C([H])([H])C([H])([H])C2([H])N([H])C(=O)C1([H])N(C(=O)C([H])(N([H])C(=O)C([H])(N([H])C([H])([H])[H])C([H])([H])[H])C(C([H])([H])[H])(C([H])([H])[H])C([H])([H])[H])C([H])([H])c2c([H])c(OC([H])([H])C([H])([H])C([H])([H])C3([H])N(C(=O)N4C([H])([H])C([H])([H])C([H])([H])C([H])(n5nc(-c6c([H])c([H])c(Oc7c([H])c([H])c(F)c([H])c7F)c([H])c6[H])c(C(=O)N([H])[H])c5N([H])[H])C4([H])[H])C3([H])[H])c([H])c([H])c2C1([H])[H]

>  <smiles>  (83) 
[H]c1c([H])c([H])c2c(c1[H])C([H])([H])C([H])([H])C([H])([H])C2([H])N([H])C(=O)C1([H])N(C(=O)C([H])(N([H])C(=O)C([H])(N([H])C([H])([H])[H])C([H])([H])[H])C(C([H])([H])[H])(C([H])([H])[H])C([H])([H])[H])C([H])([H])c2c([H])c(OC([H])([H])C([H])([H])C([H])([H])C3([H])N(C(=O)N4C([H])([H])C([H])([H])C([H])([H])C([H])(n5nc(-c6c([H])c([H])c(Oc7c([H])c([H])c(F)c([H])c7F)c([H])c6[H])c(C(=O)N([H])[H])c5N([H])[H])C4([H])[H])C3([H])[H])c([H])c([H])c2C1([H])[H]

$$$$
83:0:0
     RDKit          3D

 97106  0  0  1  0  0  0  0  0999 V2000
  -29.0730  -20.5630   18.3710 C   0  0  0  0  0  2  0  0  0  0  0  0
  -28.6910  -17.5410   20.7100 C   0  0  0  0  0  2  0  0  0  0  0  0
  -31.0090  -17.5510   19.8710 C   0  0  0  0  0  2  0  0  0  0  0  0
  -28.3360  -18.6860   19.7480 C   0  0  0  0  0  2  0  0  0  0  0  0
  -29.7680  -16.6620   20.0720 C   0  0  0  0  0  3  0  0  0  0  0  0
  -30.7100  -18.7350   18.9100 C   0  0  0  0  0  3  0  0  0  0  0  0
  -29.5060  -19.5230   19.3470 N   0  0  1  0  0  4  0  0  0  0  0  0
  -29.7870  -20.0360   20.1700 H   0  0  0  0  0  0  0  0  0  0  0  0
  -30.6910  -14.3810   20.3820 C   0  0  0  0  0  0  0  0  0  0  0  0
  -30.3450  -12.2500   19.2270 C   0  0  0  0  0  2  0  0  0  0  0  0
  -29.4000  -12.5250   18.0370 C   0  0  0  0  0  2  0  0  0  0  0  0
  -27.9260  -12.4140   18.4740 C   0  0  0  0  0  2  0  0  0  0  0  0
  -27.6190  -13.2210   19.7650 C   0  0  0  0  0  3  0  0  0  0  0  0
  -28.6790  -12.9420   20.8580 C   0  0  0  0  0  2  0  0  0  0  0  0
  -30.0120  -13.2110   20.2890 N   0  0  0  0  0  0  0  0  0  0  0  0
  -31.8050  -14.5570   19.8860 O   0  0  0  0  0  0  0  0  0  0  0  0
  -29.9510  -15.4100   20.8230 N   0  0  0  0  0  0  0  0  0  0  0  0
  -29.1400  -15.1160   21.3480 H   0  0  0  0  0  0  0  0  0  0  0  0
  -25.2270  -13.8540   20.4780 C   0  0  0  0  0  0  0  0  0  0  0  0
  -24.1540  -13.0920   20.8580 C   0  0  0  0  0  0  0  0  0  0  0  0
  -24.6020  -11.7370   20.8240 C   0  0  0  0  0  0  0  0  0  0  0  0
  -26.2640  -12.9630   20.2460 N   0  0  0  0  0  0  0  0  0  0  0  0
  -25.8900  -11.6850   20.5080 N   0  0  0  0  0  0  0  0  0  0  0  0
  -23.8670  -10.4810   21.0180 C   0  0  0  0  0  0  0  0  0  0  0  0
  -24.2930   -9.5140   21.9560 C   0  0  0  0  0  3  0  0  0  0  0  0
  -23.5600   -8.3220   22.1380 C   0  0  0  0  0  3  0  0  0  0  0  0
  -22.3860   -8.0890   21.3830 C   0  0  0  0  0  0  0  0  0  0  0  0
  -21.9800   -9.0440   20.4350 C   0  0  0  0  0  3  0  0  0  0  0  0
  -22.7130  -10.2270   20.2510 C   0  0  0  0  0  3  0  0  0  0  0  0
  -21.6230   -6.9490   21.4750 O   0  0  0  0  0  0  0  0  0  0  0  0
  -21.5690   -6.2110   22.6300 C   0  0  0  0  0  0  0  0  0  0  0  0
  -21.1340   -6.7690   23.8520 C   0  0  0  0  0  3  0  0  0  0  0  0
  -21.0280   -5.9570   24.9990 C   0  0  0  0  0  3  0  0  0  0  0  0
  -21.3460   -4.5870   24.9250 C   0  0  0  0  0  0  0  0  0  0  0  0
  -21.7740   -4.0290   23.7080 C   0  0  0  0  0  3  0  0  0  0  0  0
  -21.8820   -4.8380   22.5630 C   0  0  0  0  0  0  0  0  0  0  0  0
  -22.2750   -4.2900   21.3880 F   0  0  0  0  0  0  0  0  0  0  0  0
  -21.2370   -3.8050   26.0240 F   0  0  0  0  0  0  0  0  0  0  0  0
  -22.7630  -13.5810   21.1410 C   0  0  0  0  0  0  0  0  0  0  0  0
  -22.0350  -12.8920   22.0120 N   0  0  0  0  0  0  0  0  0  0  0  0
  -22.3300  -14.6110   20.6240 O   0  0  0  0  0  0  0  0  0  0  0  0
  -22.3970  -12.0590   22.4520 H   0  0  0  0  0  0  0  0  0  0  0  0
  -21.1020  -13.2020   22.2430 H   0  0  0  0  0  0  0  0  0  0  0  0
  -25.4010  -15.2210   20.2930 N   0  0  0  0  0  0  0  0  0  0  0  0
  -24.6310  -15.8750   20.3830 H   0  0  0  0  0  0  0  0  0  0  0  0
  -26.2340  -15.6400   19.9040 H   0  0  0  0  0  0  0  0  0  0  0  0
  -31.9820  -19.6220   18.7650 C   0  0  0  0  0  2  0  0  0  0  0  0
  -34.3210  -19.8870   17.7670 C   0  0  0  0  0  1  0  0  0  0  0  0
  -33.1710  -18.9210   18.0800 C   0  0  0  0  0  2  0  0  0  0  0  0
  -27.6890  -22.2700   19.6470 C   0  0  0  0  0  3  0  0  0  0  0  0
  -30.0160  -22.7950   19.1280 C   0  0  0  0  0  3  0  0  0  0  0  0
  -27.5570  -23.5060   20.3070 C   0  0  0  0  0  3  0  0  0  0  0  0
  -29.8810  -24.0320   19.7850 C   0  0  0  0  0  3  0  0  0  0  0  0
  -28.9220  -21.9050   19.0630 C   0  0  0  0  0  0  0  0  0  0  0  0
  -28.6550  -24.3860   20.3820 C   0  0  0  0  0  0  0  0  0  0  0  0
  -28.5280  -25.7140   21.0960 C   0  0  0  0  0  2  0  0  0  0  0  0
  -28.4580  -26.7890   20.1700 O   0  0  0  0  0  0  0  0  0  0  0  0
  -24.5780  -31.8690   23.2380 C   0  0  0  0  0  0  0  0  0  0  0  0
  -27.2720  -27.4690   20.1890 C   0  0  0  0  0  0  0  0  0  0  0  0
  -23.3860  -30.4560   21.5910 C   0  0  0  0  0  3  0  0  0  0  0  0
  -24.8580  -28.9170   20.1870 C   0  0  0  0  0  0  0  0  0  0  0  0
  -25.9050  -30.8380   21.4020 C   0  0  0  0  0  2  0  0  0  0  0  0
  -26.0050  -29.4660   20.7750 C   0  0  0  0  0  0  0  0  0  0  0  0
  -27.2160  -28.7490   20.7720 C   0  0  0  0  0  3  0  0  0  0  0  0
  -26.1140  -26.9130   19.6070 C   0  0  0  0  0  3  0  0  0  0  0  0
  -24.9050  -27.6370   19.6020 C   0  0  0  0  0  3  0  0  0  0  0  0
  -23.6060  -29.7630   20.2170 C   0  0  0  0  0  2  0  0  0  0  0  0
  -24.6420  -31.0680   22.1360 N   0  0  0  0  0  0  0  0  0  0  0  0
  -23.4940  -32.1380   23.7720 O   0  0  0  0  0  0  0  0  0  0  0  0
  -22.7340  -29.4380   22.5520 C   0  0  0  0  0  0  0  0  0  0  0  0
  -21.4090  -29.2620   22.4240 N   0  0  0  0  0  0  0  0  0  0  0  0
  -23.4160  -28.8080   23.3650 O   0  0  0  0  0  0  0  0  0  0  0  0
  -20.9220  -29.8240   21.7400 H   0  0  0  0  0  0  0  0  0  0  0  0
  -18.0240  -28.1140   22.9400 C   0  0  0  0  0  0  0  0  0  0  0  0
  -20.5870  -28.3290   23.1920 C   0  0  0  0  0  3  0  0  0  0  0  0
  -20.6630  -26.9020   22.6000 C   0  0  0  0  0  2  0  0  0  0  0  0
  -19.5480  -26.6080   21.5930 C   0  0  0  0  0  2  0  0  0  0  0  0
  -18.1740  -26.7680   22.2500 C   0  0  0  0  0  2  0  0  0  0  0  0
  -19.1580  -28.8530   23.3680 C   0  0  0  0  0  0  0  0  0  0  0  0
  -18.9650  -30.1150   23.9720 C   0  0  0  0  0  3  0  0  0  0  0  0
  -17.6700  -30.6360   24.1540 C   0  0  0  0  0  3  0  0  0  0  0  0
  -16.5510  -29.8910   23.7430 C   0  0  0  0  0  3  0  0  0  0  0  0
  -16.7280  -28.6330   23.1410 C   0  0  0  0  0  3  0  0  0  0  0  0
  -25.8610  -32.5030   23.8640 C   0  0  0  0  0  3  0  0  0  0  0  0
  -25.5500  -33.9020   24.1850 N   0  0  0  0  0  0  0  0  0  0  0  0
  -25.8920  -34.9500   23.4240 C   0  0  0  0  0  0  0  0  0  0  0  0
  -26.5740  -34.8420   22.4010 O   0  0  0  0  0  0  0  0  0  0  0  0
  -24.9490  -34.0610   24.9790 H   0  0  0  0  0  0  0  0  0  0  0  0
  -24.1730  -36.7440   23.0310 C   0  0  0  0  0  1  0  0  0  0  0  0
  -25.3980  -36.3400   23.8670 C   0  0  0  0  0  3  0  0  0  0  0  0
  -27.5170  -37.2250   24.7380 C   0  0  0  0  0  1  0  0  0  0  0  0
  -26.4330  -37.3910   23.7730 N   0  0  0  0  0  0  0  0  0  0  0  0
  -26.0260  -38.3130   23.9100 H   0  0  0  0  0  0  0  0  0  0  0  0
  -26.3750  -31.7360   25.1440 C   0  0  1  0  0  0  0  0  0  0  0  0
  -25.2780  -31.4970   26.2080 C   0  0  0  0  0  1  0  0  0  0  0  0
  -26.9620  -30.3590   24.7530 C   0  0  0  0  0  1  0  0  0  0  0  0
  -27.5190  -32.5350   25.8100 C   0  0  0  0  0  1  0  0  0  0  0  0
  1 54  1  0
  1  7  1  0
  3  5  1  0
  4  2  1  0
  5  2  1  0
  5 17  1  0
  6 47  1  0
  6  7  1  0
  6  3  1  0
  7  4  1  0
  7  8  1  1
  9 17  1  0
 10 15  1  0
 11 12  1  0
 11 10  1  0
 13 12  1  0
 13 22  1  0
 13 14  1  0
 15  9  1  0
 15 14  1  0
 16  9  2  0
 17 18  1  0
 19 20  2  0
 20 39  1  0
 21 20  1  0
 21 24  1  0
 22 19  1  0
 22 23  1  0
 23 21  2  0
 24 25  1  0
 25 26  2  0
 27 30  1  0
 27 26  1  0
 28 27  2  0
 29 28  1  0
 29 24  2  0
 30 31  1  0
 31 32  1  0
 32 33  2  0
 34 33  1  0
 34 38  1  0
 35 34  2  0
 36 31  2  0
 36 35  1  0
 37 36  1  0
 39 40  1  0
 40 43  1  0
 40 42  1  0
 41 39  2  0
 44 45  1  0
 44 19  1  0
 46 44  1  0
 48 49  1  0
 49 47  1  0
 50 52  1  0
 51 53  2  0
 52 55  2  0
 53 55  1  0
 54 51  1  0
 54 50  2  0
 55 56  1  0
 57 59  1  0
 57 56  1  0
 58 69  2  0
 59 64  1  0
 60 68  1  0
 60 70  1  0
 61 67  1  0
 61 63  1  0
 62 68  1  0
 63 62  1  0
 64 63  2  0
 65 59  2  0
 66 65  1  0
 66 61  2  0
 67 60  1  0
 68 58  1  0
 70 72  2  0
 71 70  1  0
 73 71  1  0
 74 83  2  0
 74 79  1  0
 75 71  1  0
 75 79  1  0
 76 75  1  0
 77 78  1  0
 77 76  1  0
 78 74  1  0
 79 80  2  0
 80 81  1  0
 82 81  2  0
 83 82  1  0
 84 58  1  0
 84 85  1  0
 84 94  1  0
 85 88  1  0
 86 90  1  0
 86 85  1  0
 87 86  2  0
 90 89  1  0
 92 90  1  0
 92 93  1  0
 92 91  1  0
 94 97  1  1
 94 95  1  0
 96 94  1  0
M  ISO  4   9 100  17 100  56 101  57 101
M  END
>  <TORSDO>  (84) 
F 21

>  <SCORE>  (84) 
-13.692

>  <name>  (84) 
83

>  <ligand_id>  (84) 
83

>  <original_smiles>  (84) 
[H]c1c([H])c([H])c2c(c1[H])C([H])([H])C([H])([H])C([H])([H])C2([H])N([H])C(=O)C1([H])N(C(=O)C([H])(N([H])C(=O)C([H])(N([H])C([H])([H])[H])C([H])([H])[H])C(C([H])([H])[H])(C([H])([H])[H])C([H])([H])[H])C([H])([H])c2c([H])c(OC([H])([H])c3c([H])c([H])c(C([H])([H])[N+]4([H])C([H])([H])C([H])([H])C([H])(N([H])C(=O)N5C([H])([H])C([H])([H])C([H])([H])C([H])(n6nc(-c7c([H])c([H])c(Oc8c([H])c([H])c(F)c([H])c8F)c([H])c7[H])c(C(=O)N([H])[H])c6N([H])[H])C5([H])[H])C([H])([H])C4([H])C([H])([H])C([H])([H])C([H])([H])[H])c([H])c3[H])c([H])c([H])c2C1([H])[H]

>  <smiles>  (84) 
[H]c1c([H])c([H])c2c(c1[H])C([H])([H])C([H])([H])C([H])([H])C2([H])N([H])C(=O)C1([H])N(C(=O)C([H])(N([H])C(=O)C([H])(N([H])C([H])([H])[H])C([H])([H])[H])C(C([H])([H])[H])(C([H])([H])[H])C([H])([H])[H])C([H])([H])c2c([H])c(OC([H])([H])c3c([H])c([H])c(C([H])([H])[N+]4([H])C([H])([H])C([H])([H])C([H])(N([H])C(=O)N5C([H])([H])C([H])([H])C([H])([H])C([H])(n6nc(-c7c([H])c([H])c(Oc8c([H])c([H])c(F)c([H])c8F)c([H])c7[H])c(C(=O)N([H])[H])c6N([H])[H])C5([H])[H])C([H])([H])C4([H])C([H])([H])C([H])([H])C([H])([H])[H])c([H])c3[H])c([H])c([H])c2C1([H])[H]

$$$$
84:0:0
     RDKit          3D

 89 97  0  0  1  0  0  0  0  0999 V2000
  -29.0870  -23.4960   22.0860 C   0  0  0  0  0  1  0  0  0  0  0  0
  -28.9200  -23.1200   20.6020 C   0  0  0  0  0  3  0  0  0  0  0  0
  -29.8690  -20.4660   21.3170 C   0  0  0  0  0  2  0  0  0  0  0  0
  -28.4340  -20.3710   19.3630 C   0  0  0  0  0  2  0  0  0  0  0  0
  -30.3940  -18.9930   20.7990 C   0  0  0  0  0  2  0  0  0  0  0  0
  -28.2860  -18.7320   19.5940 C   0  0  0  0  0  2  0  0  0  0  0  0
  -28.7190  -21.3650   20.5930 C   0  0  0  0  0  3  0  0  0  0  0  0
  -29.3080  -17.8800   20.5150 C   0  0  0  0  0  3  0  0  0  0  0  0
  -30.3820  -15.1360   20.2090 C   0  0  0  0  0  0  0  0  0  0  0  0
  -30.3590  -12.7520   19.2670 C   0  0  0  0  0  2  0  0  0  0  0  0
  -29.4030  -12.6750   18.0540 C   0  0  0  0  0  2  0  0  0  0  0  0
  -27.9490  -12.4380   18.5070 C   0  0  0  0  0  2  0  0  0  0  0  0
  -27.5510  -13.3430   19.7000 C   0  0  0  0  0  3  0  0  0  0  0  0
  -28.6250  -13.3590   20.8030 C   0  0  0  0  0  2  0  0  0  0  0  0
  -29.8610  -13.8330   20.1730 N   0  0  0  0  0  0  0  0  0  0  0  0
  -31.5800  -15.2510   19.9210 O   0  0  0  0  0  0  0  0  0  0  0  0
  -29.4940  -16.2620   20.3900 N   0  0  0  0  0  0  0  0  0  0  0  0
  -28.5900  -15.8440   20.5570 H   0  0  0  0  0  0  0  0  0  0  0  0
  -25.1910  -13.9040   20.4950 C   0  0  0  0  0  0  0  0  0  0  0  0
  -24.1360  -13.1230   20.8800 C   0  0  0  0  0  0  0  0  0  0  0  0
  -24.6020  -11.7720   20.8230 C   0  0  0  0  0  0  0  0  0  0  0  0
  -26.2290  -13.0300   20.2240 N   0  0  0  0  0  0  0  0  0  0  0  0
  -25.8860  -11.7410   20.4840 N   0  0  0  0  0  0  0  0  0  0  0  0
  -23.8800  -10.5080   21.0140 C   0  0  0  0  0  0  0  0  0  0  0  0
  -24.3190   -9.5390   21.9420 C   0  0  0  0  0  3  0  0  0  0  0  0
  -23.5960   -8.3400   22.1200 C   0  0  0  0  0  3  0  0  0  0  0  0
  -22.4200   -8.1020   21.3730 C   0  0  0  0  0  0  0  0  0  0  0  0
  -21.9990   -9.0600   20.4330 C   0  0  0  0  0  3  0  0  0  0  0  0
  -22.7230  -10.2500   20.2530 C   0  0  0  0  0  3  0  0  0  0  0  0
  -21.6680   -6.9550   21.4600 O   0  0  0  0  0  0  0  0  0  0  0  0
  -21.6090   -6.2200   22.6170 C   0  0  0  0  0  0  0  0  0  0  0  0
  -21.1630   -6.7790   23.8340 C   0  0  0  0  0  3  0  0  0  0  0  0
  -21.0550   -5.9690   24.9810 C   0  0  0  0  0  3  0  0  0  0  0  0
  -21.3830   -4.6030   24.9150 C   0  0  0  0  0  0  0  0  0  0  0  0
  -21.8210   -4.0430   23.7020 C   0  0  0  0  0  3  0  0  0  0  0  0
  -21.9320   -4.8490   22.5570 C   0  0  0  0  0  0  0  0  0  0  0  0
  -22.3350   -4.3010   21.3850 F   0  0  0  0  0  0  0  0  0  0  0  0
  -21.2710   -3.8220   26.0160 F   0  0  0  0  0  0  0  0  0  0  0  0
  -22.7460  -13.5970   21.1830 C   0  0  0  0  0  0  0  0  0  0  0  0
  -22.0350  -12.8900   22.0550 N   0  0  0  0  0  0  0  0  0  0  0  0
  -22.2990  -14.6280   20.6800 O   0  0  0  0  0  0  0  0  0  0  0  0
  -22.4090  -12.0570   22.4840 H   0  0  0  0  0  0  0  0  0  0  0  0
  -21.1010  -13.1880   22.2990 H   0  0  0  0  0  0  0  0  0  0  0  0
  -25.3460  -15.2760   20.3200 N   0  0  0  0  0  0  0  0  0  0  0  0
  -24.5710  -15.9200   20.4430 H   0  0  0  0  0  0  0  0  0  0  0  0
  -26.1540  -15.7110   19.8960 H   0  0  0  0  0  0  0  0  0  0  0  0
  -28.0910  -24.3470   18.4720 C   0  0  0  0  0  1  0  0  0  0  0  0
  -27.9950  -24.4660   20.0000 C   0  0  0  0  0  3  0  0  0  0  0  0
  -28.1960  -26.0370   20.2930 O   0  0  0  0  0  0  0  0  0  0  0  0
  -24.6390  -31.9000   23.2300 C   0  0  0  0  0  0  0  0  0  0  0  0
  -27.1690  -27.0850   20.2110 C   0  0  0  0  0  0  0  0  0  0  0  0
  -23.4360  -30.5080   21.5950 C   0  0  0  0  0  3  0  0  0  0  0  0
  -24.8730  -28.9160   20.1720 C   0  0  0  0  0  0  0  0  0  0  0  0
  -26.0010  -30.7360   21.4350 C   0  0  0  0  0  2  0  0  0  0  0  0
  -26.0640  -29.3370   20.7770 C   0  0  0  0  0  0  0  0  0  0  0  0
  -27.2130  -28.4430   20.7700 C   0  0  0  0  0  3  0  0  0  0  0  0
  -25.9430  -26.7880   19.5800 C   0  0  0  0  0  3  0  0  0  0  0  0
  -24.8300  -27.6580   19.5560 C   0  0  0  0  0  3  0  0  0  0  0  0
  -23.6580  -29.8310   20.2170 C   0  0  0  0  0  2  0  0  0  0  0  0
  -24.7140  -31.0730   22.1410 N   0  0  0  0  0  0  0  0  0  0  0  0
  -23.5500  -32.1880   23.7550 O   0  0  0  0  0  0  0  0  0  0  0  0
  -22.7480  -29.5070   22.5580 C   0  0  0  0  0  0  0  0  0  0  0  0
  -21.4180  -29.3380   22.4290 N   0  0  0  0  0  0  0  0  0  0  0  0
  -23.4140  -28.8840   23.3890 O   0  0  0  0  0  0  0  0  0  0  0  0
  -20.9330  -29.8980   21.7410 H   0  0  0  0  0  0  0  0  0  0  0  0
  -18.0390  -28.1210   22.9260 C   0  0  0  0  0  0  0  0  0  0  0  0
  -20.5950  -28.4020   23.2010 C   0  0  0  0  0  3  0  0  0  0  0  0
  -20.7070  -26.9660   22.6400 C   0  0  0  0  0  2  0  0  0  0  0  0
  -19.6140  -26.6290   21.6210 C   0  0  0  0  0  2  0  0  0  0  0  0
  -18.2270  -26.7700   22.2560 C   0  0  0  0  0  2  0  0  0  0  0  0
  -19.1510  -28.8950   23.3540 C   0  0  0  0  0  0  0  0  0  0  0  0
  -18.9180  -30.1580   23.9430 C   0  0  0  0  0  3  0  0  0  0  0  0
  -17.6090  -30.6490   24.1020 C   0  0  0  0  0  3  0  0  0  0  0  0
  -16.5120  -29.8740   23.6870 C   0  0  0  0  0  3  0  0  0  0  0  0
  -16.7280  -28.6120   23.1050 C   0  0  0  0  0  3  0  0  0  0  0  0
  -25.9150  -32.5370   23.8610 C   0  0  0  0  0  3  0  0  0  0  0  0
  -25.6000  -33.9360   24.1960 N   0  0  0  0  0  0  0  0  0  0  0  0
  -25.9140  -34.9960   23.4380 C   0  0  0  0  0  0  0  0  0  0  0  0
  -26.5630  -34.8990   22.3940 O   0  0  0  0  0  0  0  0  0  0  0  0
  -25.0210  -34.0860   25.0080 H   0  0  0  0  0  0  0  0  0  0  0  0
  -24.1640  -36.7850   23.1470 C   0  0  0  0  0  1  0  0  0  0  0  0
  -25.4340  -36.3820   23.9150 C   0  0  0  0  0  3  0  0  0  0  0  0
  -27.5890  -37.2820   24.6760 C   0  0  0  0  0  1  0  0  0  0  0  0
  -26.4540  -37.4450   23.7710 N   0  0  0  0  0  0  0  0  0  0  0  0
  -26.0450  -38.3590   23.9400 H   0  0  0  0  0  0  0  0  0  0  0  0
  -26.4210  -31.7720   25.1460 C   0  0  1  0  0  0  0  0  0  0  0  0
  -25.3220  -31.5430   26.2090 C   0  0  0  0  0  1  0  0  0  0  0  0
  -27.0030  -30.3900   24.7710 C   0  0  0  0  0  1  0  0  0  0  0  0
  -27.5700  -32.5670   25.8110 C   0  0  0  0  0  1  0  0  0  0  0  0
  2  1  1  0
  4  6  1  0
  4  7  1  0
  5  3  1  0
  6  8  1  0
  7  2  1  0
  7  3  1  0
  8 17  1  0
  8  5  1  0
  9 17  1  0
 10 15  1  0
 11 12  1  0
 11 10  1  0
 13 12  1  0
 13 22  1  0
 13 14  1  0
 15  9  1  0
 15 14  1  0
 16  9  2  0
 17 18  1  0
 19 20  2  0
 20 39  1  0
 21 20  1  0
 21 24  1  0
 22 23  1  0
 22 19  1  0
 23 21  2  0
 24 25  1  0
 25 26  2  0
 27 30  1  0
 27 26  1  0
 28 27  2  0
 29 28  1  0
 29 24  2  0
 30 31  1  0
 31 32  1  0
 32 33  2  0
 34 33  1  0
 34 38  1  0
 35 34  2  0
 36 31  2  0
 36 35  1  0
 37 36  1  0
 39 40  1  0
 40 43  1  0
 40 42  1  0
 41 39  2  0
 44 45  1  0
 44 19  1  0
 46 44  1  0
 48 47  1  0
 48 49  1  0
 48  2  1  0
 50 61  2  0
 51 49  1  0
 51 56  1  0
 52 60  1  0
 52 62  1  0
 53 59  1  0
 53 55  1  0
 54 60  1  0
 55 54  1  0
 56 55  2  0
 57 51  2  0
 58 57  1  0
 58 53  2  0
 59 52  1  0
 60 50  1  0
 62 64  2  0
 63 62  1  0
 65 63  1  0
 66 75  2  0
 66 71  1  0
 67 63  1  0
 67 71  1  0
 68 67  1  0
 69 70  1  0
 69 68  1  0
 70 66  1  0
 71 72  2  0
 72 73  1  0
 74 73  2  0
 75 74  1  0
 76 50  1  0
 76 77  1  0
 76 86  1  0
 77 80  1  0
 78 82  1  0
 78 77  1  0
 79 78  2  0
 82 81  1  0
 84 82  1  0
 84 85  1  0
 84 83  1  0
 86 89  1  1
 86 87  1  0
 88 86  1  0
M  ISO  4   9 100  17 100  48 101  49 101
M  END
>  <TORSDO>  (85) 
F 18

>  <SCORE>  (85) 
-15.684

>  <name>  (85) 
84

>  <ligand_id>  (85) 
84

>  <original_smiles>  (85) 
[H]c1c([H])c([H])c2c(c1[H])C([H])([H])C([H])([H])C([H])([H])C2([H])N([H])C(=O)C1([H])N(C(=O)C([H])(N([H])C(=O)C([H])(N([H])C([H])([H])[H])C([H])([H])[H])C(C([H])([H])[H])(C([H])([H])[H])C([H])([H])[H])C([H])([H])c2c([H])c(OC([H])(C([H])([H])[H])C([H])(C([H])([H])[H])C3([H])C([H])([H])C([H])([H])C([H])(N([H])C(=O)N4C([H])([H])C([H])([H])C([H])([H])C([H])(n5nc(-c6c([H])c([H])c(Oc7c([H])c([H])c(F)c([H])c7F)c([H])c6[H])c(C(=O)N([H])[H])c5N([H])[H])C4([H])[H])C([H])([H])C3([H])[H])c([H])c([H])c2C1([H])[H]

>  <smiles>  (85) 
[H]c1c([H])c([H])c2c(c1[H])C([H])([H])C([H])([H])C([H])([H])C2([H])N([H])C(=O)C1([H])N(C(=O)C([H])(N([H])C(=O)C([H])(N([H])C([H])([H])[H])C([H])([H])[H])C(C([H])([H])[H])(C([H])([H])[H])C([H])([H])[H])C([H])([H])c2c([H])c(OC([H])(C([H])([H])[H])C([H])(C([H])([H])[H])C3([H])C([H])([H])C([H])([H])C([H])(N([H])C(=O)N4C([H])([H])C([H])([H])C([H])([H])C([H])(n5nc(-c6c([H])c([H])c(Oc7c([H])c([H])c(F)c([H])c7F)c([H])c6[H])c(C(=O)N([H])[H])c5N([H])[H])C4([H])[H])C([H])([H])C3([H])[H])c([H])c([H])c2C1([H])[H]

$$$$
85:0:0
     RDKit          3D

 90 98  0  0  1  0  0  0  0  0999 V2000
  -31.3100  -17.6120   19.3310 C   0  0  0  0  0  3  0  0  0  0  0  0
  -30.9670  -20.0440   19.4680 C   0  0  0  0  0  3  0  0  0  0  0  0
  -29.5840  -18.5220   20.7690 C   0  0  0  0  0  3  0  0  0  0  0  0
  -31.6610  -18.9290   18.9550 C   0  0  0  0  0  0  0  0  0  0  0  0
  -30.2760  -17.3450   20.2640 C   0  0  0  0  0  0  0  0  0  0  0  0
  -29.8930  -19.8920   20.3720 C   0  0  0  0  0  0  0  0  0  0  0  0
  -32.8160  -19.1520   17.9930 C   0  0  0  0  0  1  0  0  0  0  0  0
  -30.6310  -14.7490   20.4120 C   0  0  0  0  0  0  0  0  0  0  0  0
  -30.3600  -12.4780   19.4220 C   0  0  0  0  0  2  0  0  0  0  0  0
  -29.4370  -12.5630   18.1870 C   0  0  0  0  0  2  0  0  0  0  0  0
  -27.9640  -12.4060   18.6090 C   0  0  0  0  0  2  0  0  0  0  0  0
  -27.5910  -13.3010   19.8200 C   0  0  0  0  0  3  0  0  0  0  0  0
  -28.6450  -13.2270   20.9480 C   0  0  0  0  0  2  0  0  0  0  0  0
  -29.9510  -13.5510   20.3580 N   0  0  0  0  0  0  0  0  0  0  0  0
  -31.8260  -14.7650   20.1120 O   0  0  0  0  0  0  0  0  0  0  0  0
  -29.9310  -15.9330   20.6230 N   0  0  0  0  0  0  0  0  0  0  0  0
  -28.9980  -15.8020   20.9840 H   0  0  0  0  0  0  0  0  0  0  0  0
  -25.1980  -13.8990   20.5190 C   0  0  0  0  0  0  0  0  0  0  0  0
  -24.1250  -13.1320   20.8810 C   0  0  0  0  0  0  0  0  0  0  0  0
  -24.5850  -11.7780   20.8650 C   0  0  0  0  0  0  0  0  0  0  0  0
  -26.2430  -13.0170   20.3010 N   0  0  0  0  0  0  0  0  0  0  0  0
  -25.8790  -11.7350   20.5730 N   0  0  0  0  0  0  0  0  0  0  0  0
  -23.8500  -10.5200   21.0520 C   0  0  0  0  0  0  0  0  0  0  0  0
  -24.2720   -9.5500   21.9880 C   0  0  0  0  0  3  0  0  0  0  0  0
  -23.5370   -8.3580   22.1670 C   0  0  0  0  0  3  0  0  0  0  0  0
  -22.3640   -8.1280   21.4090 C   0  0  0  0  0  0  0  0  0  0  0  0
  -21.9610   -9.0860   20.4620 C   0  0  0  0  0  3  0  0  0  0  0  0
  -22.6970  -10.2690   20.2820 C   0  0  0  0  0  3  0  0  0  0  0  0
  -21.6020   -6.9870   21.4960 O   0  0  0  0  0  0  0  0  0  0  0  0
  -21.5510   -6.2410   22.6460 C   0  0  0  0  0  0  0  0  0  0  0  0
  -21.1390   -6.7990   23.8770 C   0  0  0  0  0  3  0  0  0  0  0  0
  -21.0340   -5.9810   25.0210 C   0  0  0  0  0  3  0  0  0  0  0  0
  -21.3280   -4.6070   24.9340 C   0  0  0  0  0  0  0  0  0  0  0  0
  -21.7340   -4.0500   23.7080 C   0  0  0  0  0  3  0  0  0  0  0  0
  -21.8400   -4.8640   22.5680 C   0  0  0  0  0  0  0  0  0  0  0  0
  -22.2090   -4.3180   21.3840 F   0  0  0  0  0  0  0  0  0  0  0  0
  -21.2200   -3.8200   26.0300 F   0  0  0  0  0  0  0  0  0  0  0  0
  -22.7270  -13.6150   21.1350 C   0  0  0  0  0  0  0  0  0  0  0  0
  -21.9880  -12.9230   21.9950 N   0  0  0  0  0  0  0  0  0  0  0  0
  -22.3000  -14.6400   20.6050 O   0  0  0  0  0  0  0  0  0  0  0  0
  -22.3480  -12.0930   22.4410 H   0  0  0  0  0  0  0  0  0  0  0  0
  -21.0500  -13.2290   22.2130 H   0  0  0  0  0  0  0  0  0  0  0  0
  -25.3660  -15.2690   20.3340 N   0  0  0  0  0  0  0  0  0  0  0  0
  -24.5960  -15.9230   20.4250 H   0  0  0  0  0  0  0  0  0  0  0  0
  -26.2160  -15.7030   19.9950 H   0  0  0  0  0  0  0  0  0  0  0  0
  -29.2440  -21.0460   20.9030 O   0  0  0  0  0  0  0  0  0  0  0  0
  -28.9430  -22.2670   20.0920 C   0  0  0  0  0  3  0  0  0  0  0  0
  -28.9590  -23.7530   20.7390 C   0  0  0  0  0  3  0  0  0  0  0  0
  -28.1880  -24.9440   19.9640 C   0  0  0  0  0  2  0  0  0  0  0  0
  -28.3240  -26.4030   20.3150 O   0  0  0  0  0  0  0  0  0  0  0  0
  -24.6100  -31.8800   23.2500 C   0  0  0  0  0  0  0  0  0  0  0  0
  -27.2220  -27.2870   20.2040 C   0  0  0  0  0  0  0  0  0  0  0  0
  -23.4100  -30.4800   21.6090 C   0  0  0  0  0  3  0  0  0  0  0  0
  -24.8650  -28.9380   20.1730 C   0  0  0  0  0  0  0  0  0  0  0  0
  -25.9520  -30.7900   21.4350 C   0  0  0  0  0  2  0  0  0  0  0  0
  -26.0330  -29.4100   20.7850 C   0  0  0  0  0  0  0  0  0  0  0  0
  -27.2090  -28.5950   20.7950 C   0  0  0  0  0  3  0  0  0  0  0  0
  -26.0380  -26.8960   19.5340 C   0  0  0  0  0  3  0  0  0  0  0  0
  -24.8730  -27.6900   19.5330 C   0  0  0  0  0  3  0  0  0  0  0  0
  -23.6280  -29.8160   20.2240 C   0  0  0  0  0  2  0  0  0  0  0  0
  -24.6750  -31.0690   22.1550 N   0  0  0  0  0  0  0  0  0  0  0  0
  -23.5270  -32.1560   23.7850 O   0  0  0  0  0  0  0  0  0  0  0  0
  -22.7470  -29.4600   22.5670 C   0  0  0  0  0  0  0  0  0  0  0  0
  -21.4190  -29.2850   22.4430 N   0  0  0  0  0  0  0  0  0  0  0  0
  -23.4270  -28.8320   23.3830 O   0  0  0  0  0  0  0  0  0  0  0  0
  -20.9310  -29.8460   21.7580 H   0  0  0  0  0  0  0  0  0  0  0  0
  -18.0410  -28.0910   22.9450 C   0  0  0  0  0  0  0  0  0  0  0  0
  -20.5990  -28.3490   23.2130 C   0  0  0  0  0  3  0  0  0  0  0  0
  -20.7000  -26.9170   22.6390 C   0  0  0  0  0  2  0  0  0  0  0  0
  -19.5970  -26.5950   21.6260 C   0  0  0  0  0  2  0  0  0  0  0  0
  -18.2150  -26.7420   22.2690 C   0  0  0  0  0  2  0  0  0  0  0  0
  -19.1600  -28.8520   23.3740 C   0  0  0  0  0  0  0  0  0  0  0  0
  -18.9430  -30.1140   23.9690 C   0  0  0  0  0  3  0  0  0  0  0  0
  -17.6390  -30.6160   24.1370 C   0  0  0  0  0  3  0  0  0  0  0  0
  -16.5330  -29.8520   23.7250 C   0  0  0  0  0  3  0  0  0  0  0  0
  -16.7360  -28.5920   23.1350 C   0  0  0  0  0  3  0  0  0  0  0  0
  -25.8920  -32.5160   23.8700 C   0  0  0  0  0  3  0  0  0  0  0  0
  -26.4060  -31.7500   25.1520 C   0  0  1  0  0  0  0  0  0  0  0  0
  -25.3110  -31.5170   26.2190 C   0  0  0  0  0  1  0  0  0  0  0  0
  -26.9880  -30.3690   24.7690 C   0  0  0  0  0  1  0  0  0  0  0  0
  -27.5590  -32.5440   25.8100 C   0  0  0  0  0  1  0  0  0  0  0  0
  -25.5840  -33.9150   24.1970 N   0  0  0  0  0  0  0  0  0  0  0  0
  -25.9110  -34.9650   23.4320 C   0  0  0  0  0  0  0  0  0  0  0  0
  -26.5760  -34.8580   22.3990 O   0  0  0  0  0  0  0  0  0  0  0  0
  -24.9940  -34.0690   25.0020 H   0  0  0  0  0  0  0  0  0  0  0  0
  -24.1820  -36.7550   23.0780 C   0  0  0  0  0  1  0  0  0  0  0  0
  -25.4260  -36.3550   23.8860 C   0  0  0  0  0  3  0  0  0  0  0  0
  -27.5630  -37.2430   24.7030 C   0  0  0  0  0  1  0  0  0  0  0  0
  -26.4580  -37.4090   23.7640 N   0  0  0  0  0  0  0  0  0  0  0  0
  -26.0520  -38.3290   23.9140 H   0  0  0  0  0  0  0  0  0  0  0  0
  1  5  1  0
  2  6  2  0
  4  1  2  0
  4  2  1  0
  5 16  1  0
  5  3  2  0
  6  3  1  0
  6 46  1  0
  7  4  1  0
  8 16  1  0
  9 14  1  0
 10 11  1  0
 10  9  1  0
 12 11  1  0
 12 21  1  0
 12 13  1  0
 14  8  1  0
 14 13  1  0
 15  8  2  0
 16 17  1  0
 18 19  2  0
 19 38  1  0
 20 19  1  0
 20 23  1  0
 21 18  1  0
 21 22  1  0
 22 20  2  0
 23 24  1  0
 24 25  2  0
 26 29  1  0
 26 25  1  0
 27 26  2  0
 28 27  1  0
 28 23  2  0
 29 30  1  0
 30 31  1  0
 31 32  2  0
 33 32  1  0
 33 37  1  0
 34 33  2  0
 35 30  2  0
 35 34  1  0
 36 35  1  0
 38 39  1  0
 39 42  1  0
 39 41  1  0
 40 38  2  0
 43 44  1  0
 43 18  1  0
 45 43  1  0
 47 48  2  0
 47 46  1  0
 49 50  1  0
 49 48  1  0
 51 62  2  0
 52 50  1  0
 52 57  1  0
 53 61  1  0
 53 63  1  0
 54 60  1  0
 54 56  1  0
 55 61  1  0
 56 57  2  0
 56 55  1  0
 58 52  2  0
 59 58  1  0
 59 54  2  0
 60 53  1  0
 61 51  1  0
 63 65  2  0
 64 63  1  0
 66 64  1  0
 67 76  2  0
 67 72  1  0
 68 64  1  0
 68 72  1  0
 69 68  1  0
 70 71  1  0
 70 69  1  0
 71 67  1  0
 72 73  2  0
 73 74  1  0
 75 74  2  0
 76 75  1  0
 77 51  1  0
 77 82  1  0
 77 78  1  0
 78 81  1  1
 78 79  1  0
 80 78  1  0
 82 85  1  0
 83 87  1  0
 83 82  1  0
 84 83  2  0
 87 86  1  0
 89 87  1  0
 89 90  1  0
 89 88  1  0
M  ISO  4   8 100  16 100  49 101  50 101
M  END
>  <TORSDO>  (86) 
F 20

>  <SCORE>  (86) 
-13.759

>  <name>  (86) 
85

>  <ligand_id>  (86) 
85

>  <original_smiles>  (86) 
[H]c1c([H])c([H])c2c(c1[H])C([H])([H])C([H])([H])C([H])([H])C2([H])N([H])C(=O)C1([H])N(C(=O)C([H])(N([H])C(=O)C([H])(N([H])C([H])([H])[H])C([H])([H])[H])C(C([H])([H])[H])(C([H])([H])[H])C([H])([H])[H])C([H])([H])c2c([H])c(OC([H])([H])C([H])([H])C([H])([H])Oc3c([H])c(N([H])C(=O)N4C([H])([H])C([H])([H])C([H])([H])C([H])(n5nc(-c6c([H])c([H])c(Oc7c([H])c([H])c(F)c([H])c7F)c([H])c6[H])c(C(=O)N([H])[H])c5N([H])[H])C4([H])[H])c([H])c(C([H])([H])[H])c3[H])c([H])c([H])c2C1([H])[H]

>  <smiles>  (86) 
[H]c1c([H])c([H])c2c(c1[H])C([H])([H])C([H])([H])C([H])([H])C2([H])N([H])C(=O)C1([H])N(C(=O)C([H])(N([H])C(=O)C([H])(N([H])C([H])([H])[H])C([H])([H])[H])C(C([H])([H])[H])(C([H])([H])[H])C([H])([H])[H])C([H])([H])c2c([H])c(OC([H])([H])C([H])([H])C([H])([H])Oc3c([H])c(N([H])C(=O)N4C([H])([H])C([H])([H])C([H])([H])C([H])(n5nc(-c6c([H])c([H])c(Oc7c([H])c([H])c(F)c([H])c7F)c([H])c6[H])c(C(=O)N([H])[H])c5N([H])[H])C4([H])[H])c([H])c(C([H])([H])[H])c3[H])c([H])c([H])c2C1([H])[H]

$$$$
86:0:0
     RDKit          3D

 95103  0  0  1  0  0  0  0  0999 V2000
  -28.6240  -18.6190   19.4240 C   0  0  0  0  0  0  0  0  0  0  0  0
  -29.6430  -20.9570   19.6840 C   0  0  0  0  0  2  0  0  0  0  0  0
  -27.3630  -20.6560   18.7320 C   0  0  0  0  0  2  0  0  0  0  0  0
  -29.6560  -22.3830   19.0260 C   0  0  0  0  0  2  0  0  0  0  0  0
  -27.4710  -22.0860   18.0950 C   0  0  0  0  0  2  0  0  0  0  0  0
  -28.6080  -19.9980   19.2320 N   0  0  0  0  0  0  0  0  0  0  0  0
  -28.3190  -23.0310   18.8660 N   0  0  2  0  0  4  0  0  0  0  0  0
  -27.6290  -17.9500   19.1190 O   0  0  0  0  0  0  0  0  0  0  0  0
  -27.9200  -23.0960   19.7920 H   0  0  0  0  0  0  0  0  0  0  0  0
  -28.4060  -24.4650   18.3310 C   0  0  0  0  0  2  0  0  0  0  0  0
  -27.1530  -25.4210   18.4990 C   0  0  0  0  0  2  0  0  0  0  0  0
  -27.3810  -26.8850   18.4850 O   0  0  0  0  0  0  0  0  0  0  0  0
  -24.4690  -31.6550   23.0470 C   0  0  0  0  0  0  0  0  0  0  0  0
  -26.2980  -27.7210   18.8010 C   0  0  0  0  0  0  0  0  0  0  0  0
  -22.9320  -30.5900   21.4360 C   0  0  0  0  0  3  0  0  0  0  0  0
  -24.0350  -29.3170   19.5160 C   0  0  0  0  0  0  0  0  0  0  0  0
  -25.4070  -30.9200   20.8460 C   0  0  0  0  0  2  0  0  0  0  0  0
  -25.3120  -29.6830   19.9610 C   0  0  0  0  0  0  0  0  0  0  0  0
  -26.4450  -28.9000   19.5940 C   0  0  0  0  0  3  0  0  0  0  0  0
  -24.9930  -27.4080   18.3510 C   0  0  0  0  0  3  0  0  0  0  0  0
  -23.8770  -28.1850   18.7040 C   0  0  0  0  0  3  0  0  0  0  0  0
  -22.8650  -30.1770   19.9430 C   0  0  0  0  0  2  0  0  0  0  0  0
  -24.2990  -31.0610   21.8310 N   0  0  0  0  0  0  0  0  0  0  0  0
  -23.5120  -31.8390   23.8130 O   0  0  0  0  0  0  0  0  0  0  0  0
  -22.4120  -29.4190   22.3040 C   0  0  0  0  0  0  0  0  0  0  0  0
  -21.0950  -29.1580   22.2390 N   0  0  0  0  0  0  0  0  0  0  0  0
  -23.1880  -28.7550   22.9950 O   0  0  0  0  0  0  0  0  0  0  0  0
  -20.5220  -29.7540   21.6580 H   0  0  0  0  0  0  0  0  0  0  0  0
  -17.8940  -27.5190   22.6210 C   0  0  0  0  0  0  0  0  0  0  0  0
  -20.3980  -28.0790   22.9410 C   0  0  0  0  0  3  0  0  0  0  0  0
  -20.6820  -26.7100   22.2810 C   0  0  0  0  0  2  0  0  0  0  0  0
  -19.6350  -26.3150   21.2340 C   0  0  0  0  0  2  0  0  0  0  0  0
  -18.2420  -26.2470   21.8680 C   0  0  0  0  0  2  0  0  0  0  0  0
  -18.9050  -28.3870   23.1110 C   0  0  0  0  0  0  0  0  0  0  0  0
  -18.5250  -29.5740   23.7750 C   0  0  0  0  0  3  0  0  0  0  0  0
  -17.1670  -29.8960   23.9540 C   0  0  0  0  0  3  0  0  0  0  0  0
  -16.1700  -29.0260   23.4790 C   0  0  0  0  0  3  0  0  0  0  0  0
  -16.5340  -27.8390   22.8180 C   0  0  0  0  0  3  0  0  0  0  0  0
  -25.8690  -32.1510   23.5240 C   0  0  0  0  0  3  0  0  0  0  0  0
  -25.7020  -33.5140   24.0470 N   0  0  0  0  0  0  0  0  0  0  0  0
  -26.0400  -34.6300   23.3860 C   0  0  0  0  0  0  0  0  0  0  0  0
  -26.5960  -34.6130   22.2850 O   0  0  0  0  0  0  0  0  0  0  0  0
  -25.2010  -33.6060   24.9180 H   0  0  0  0  0  0  0  0  0  0  0  0
  -24.4380  -36.5700   23.4180 C   0  0  0  0  0  1  0  0  0  0  0  0
  -25.7070  -35.9790   24.0520 C   0  0  0  0  0  3  0  0  0  0  0  0
  -27.9630  -36.6080   24.7910 C   0  0  0  0  0  1  0  0  0  0  0  0
  -26.8080  -36.9630   23.9690 N   0  0  0  0  0  0  0  0  0  0  0  0
  -26.4890  -37.8850   24.2530 H   0  0  0  0  0  0  0  0  0  0  0  0
  -26.5210  -31.2150   24.6130 C   0  0  1  0  0  0  0  0  0  0  0  0
  -25.5900  -30.9080   25.8090 C   0  0  0  0  0  1  0  0  0  0  0  0
  -26.9490  -29.8660   23.9910 C   0  0  0  0  0  1  0  0  0  0  0  0
  -27.8070  -31.8720   25.1670 C   0  0  0  0  0  1  0  0  0  0  0  0
  -29.8230  -17.7800   20.0340 C   0  0  0  0  0  3  0  0  0  0  0  0
  -30.4440  -15.2570   19.6910 C   0  0  0  0  0  0  0  0  0  0  0  0
  -30.3730  -12.9010   18.8970 C   0  0  0  0  0  2  0  0  0  0  0  0
  -29.3930  -12.8000   17.7090 C   0  0  0  0  0  2  0  0  0  0  0  0
  -27.9480  -12.5900   18.2030 C   0  0  0  0  0  2  0  0  0  0  0  0
  -27.5510  -13.5790   19.3320 C   0  0  0  0  0  3  0  0  0  0  0  0
  -28.6420  -13.6450   20.4230 C   0  0  0  0  0  2  0  0  0  0  0  0
  -29.9050  -14.0020   19.7610 N   0  0  0  0  0  0  0  0  0  0  0  0
  -31.5840  -15.4500   19.2600 O   0  0  0  0  0  0  0  0  0  0  0  0
  -29.5980  -16.2900   19.9660 N   0  0  0  0  0  0  0  0  0  0  0  0
  -28.6500  -16.0140   20.1700 H   0  0  0  0  0  0  0  0  0  0  0  0
  -25.1830  -14.1190   20.1710 C   0  0  0  0  0  0  0  0  0  0  0  0
  -24.1600  -13.3200   20.6020 C   0  0  0  0  0  0  0  0  0  0  0  0
  -24.6570  -11.9820   20.5570 C   0  0  0  0  0  0  0  0  0  0  0  0
  -26.2390  -13.2660   19.8890 N   0  0  0  0  0  0  0  0  0  0  0  0
  -25.9300  -11.9760   20.1810 N   0  0  0  0  0  0  0  0  0  0  0  0
  -23.9780  -10.7010   20.7930 C   0  0  0  0  0  0  0  0  0  0  0  0
  -24.4320   -9.7930   21.7750 C   0  0  0  0  0  3  0  0  0  0  0  0
  -23.7510   -8.5770   21.9960 C   0  0  0  0  0  3  0  0  0  0  0  0
  -22.6010   -8.2590   21.2350 C   0  0  0  0  0  0  0  0  0  0  0  0
  -22.1670   -9.1550   20.2440 C   0  0  0  0  0  3  0  0  0  0  0  0
  -22.8480  -10.3620   20.0200 C   0  0  0  0  0  3  0  0  0  0  0  0
  -21.8910   -7.0900   21.3630 O   0  0  0  0  0  0  0  0  0  0  0  0
  -21.8110   -6.4230   22.5600 C   0  0  0  0  0  0  0  0  0  0  0  0
  -21.2350   -7.0150   23.7050 C   0  0  0  0  0  3  0  0  0  0  0  0
  -21.1110   -6.2700   24.8940 C   0  0  0  0  0  3  0  0  0  0  0  0
  -21.5510   -4.9330   24.9390 C   0  0  0  0  0  0  0  0  0  0  0  0
  -22.1200   -4.3400   23.7970 C   0  0  0  0  0  3  0  0  0  0  0  0
  -22.2460   -5.0830   22.6110 C   0  0  0  0  0  0  0  0  0  0  0  0
  -22.7750   -4.5010   21.5080 F   0  0  0  0  0  0  0  0  0  0  0  0
  -21.4240   -4.2150   26.0780 F   0  0  0  0  0  0  0  0  0  0  0  0
  -22.7650  -13.7600   20.9440 C   0  0  0  0  0  0  0  0  0  0  0  0
  -22.1080  -13.0590   21.8620 N   0  0  0  0  0  0  0  0  0  0  0  0
  -22.2670  -14.7610   20.4310 O   0  0  0  0  0  0  0  0  0  0  0  0
  -22.5250  -12.2490   22.2970 H   0  0  0  0  0  0  0  0  0  0  0  0
  -21.1760  -13.3360   22.1330 H   0  0  0  0  0  0  0  0  0  0  0  0
  -25.2990  -15.4930   19.9760 N   0  0  0  0  0  0  0  0  0  0  0  0
  -24.5160  -16.1220   20.1180 H   0  0  0  0  0  0  0  0  0  0  0  0
  -26.1110  -15.9610   19.5900 H   0  0  0  0  0  0  0  0  0  0  0  0
  -30.1100  -18.1320   21.5230 C   0  0  0  0  0  2  0  0  0  0  0  0
  -31.7400  -19.0320   23.2400 C   0  0  0  0  0  1  0  0  0  0  0  0
  -32.4740  -18.8370   20.8360 C   0  0  0  0  0  1  0  0  0  0  0  0
  -31.5970  -18.2240   21.9410 C   0  0  0  0  0  3  0  0  0  0  0  0
  1 53  1  0
  3  6  1  0
  4  2  1  0
  5  3  1  0
  5  7  1  0
  6  1  1  0
  6  2  1  0
  7  4  1  0
  7  9  1  1
  8  1  2  0
 10 11  1  0
 10  7  1  0
 12 11  1  0
 12 14  1  0
 13 24  2  0
 14 19  1  0
 15 23  1  0
 15 25  1  0
 16 22  1  0
 16 18  1  0
 17 23  1  0
 18 17  1  0
 19 18  2  0
 20 21  1  0
 20 14  2  0
 21 16  2  0
 22 15  1  0
 23 13  1  0
 25 27  2  0
 26 25  1  0
 28 26  1  0
 29 38  2  0
 29 34  1  0
 30 26  1  0
 30 34  1  0
 31 30  1  0
 32 33  1  0
 32 31  1  0
 33 29  1  0
 34 35  2  0
 35 36  1  0
 37 36  2  0
 38 37  1  0
 39 13  1  0
 39 40  1  0
 39 49  1  0
 40 43  1  0
 41 40  1  0
 41 45  1  0
 42 41  2  0
 45 44  1  0
 47 45  1  0
 47 48  1  0
 47 46  1  0
 49 52  1  1
 49 50  1  0
 51 49  1  0
 53 92  1  0
 54 60  1  0
 54 62  1  0
 55 60  1  0
 56 57  1  0
 56 55  1  0
 58 57  1  0
 58 67  1  0
 58 59  1  0
 60 59  1  0
 61 54  2  0
 62 53  1  0
 62 63  1  0
 64 65  2  0
 65 84  1  0
 66 65  1  0
 66 69  1  0
 67 64  1  0
 67 68  1  0
 68 66  2  0
 69 70  1  0
 70 71  2  0
 72 75  1  0
 72 71  1  0
 73 72  2  0
 74 73  1  0
 74 69  2  0
 75 76  1  0
 76 81  2  0
 76 77  1  0
 77 78  2  0
 78 79  1  0
 79 83  1  0
 80 79  2  0
 81 80  1  0
 82 81  1  0
 84 85  1  0
 85 88  1  0
 85 87  1  0
 86 84  2  0
 89 90  1  0
 89 64  1  0
 91 89  1  0
 92 95  1  0
 94 95  1  0
 95 93  1  0
M  ISO  4  11 101  12 101  54 100  62 100
M  END
>  <TORSDO>  (87) 
F 21

>  <SCORE>  (87) 
-11.583

>  <name>  (87) 
86

>  <ligand_id>  (87) 
86

>  <original_smiles>  (87) 
[H]c1c([H])c([H])c2c(c1[H])C([H])([H])C([H])([H])C([H])([H])C2([H])N([H])C(=O)C1([H])N(C(=O)C([H])(N([H])C(=O)C([H])(N([H])C([H])([H])[H])C([H])([H])[H])C(C([H])([H])[H])(C([H])([H])[H])C([H])([H])[H])C([H])([H])c2c([H])c(OC([H])([H])C([H])([H])[N+]3([H])C([H])([H])C([H])([H])N(C(=O)C([H])(N([H])C(=O)N4C([H])([H])C([H])([H])C([H])([H])C([H])(n5nc(-c6c([H])c([H])c(Oc7c([H])c([H])c(F)c([H])c7F)c([H])c6[H])c(C(=O)N([H])[H])c5N([H])[H])C4([H])[H])C([H])([H])C([H])(C([H])([H])[H])C([H])([H])[H])C([H])([H])C3([H])[H])c([H])c([H])c2C1([H])[H]

>  <smiles>  (87) 
[H]c1c([H])c([H])c2c(c1[H])C([H])([H])C([H])([H])C([H])([H])C2([H])N([H])C(=O)C1([H])N(C(=O)C([H])(N([H])C(=O)C([H])(N([H])C([H])([H])[H])C([H])([H])[H])C(C([H])([H])[H])(C([H])([H])[H])C([H])([H])[H])C([H])([H])c2c([H])c(OC([H])([H])C([H])([H])[N+]3([H])C([H])([H])C([H])([H])N(C(=O)C([H])(N([H])C(=O)N4C([H])([H])C([H])([H])C([H])([H])C([H])(n5nc(-c6c([H])c([H])c(Oc7c([H])c([H])c(F)c([H])c7F)c([H])c6[H])c(C(=O)N([H])[H])c5N([H])[H])C4([H])[H])C([H])([H])C([H])(C([H])([H])[H])C([H])([H])[H])C([H])([H])C3([H])[H])c([H])c([H])c2C1([H])[H]

$$$$
87:0:0
     RDKit          3D

 94102  0  0  1  0  0  0  0  0999 V2000
  -30.4670  -22.8200   21.0490 C   0  0  0  0  0  2  0  0  0  0  0  0
  -29.5890  -23.9960   20.9500 N   0  0  0  0  0  0  0  0  0  0  0  0
  -28.8490  -23.9160   21.6450 H   0  0  0  0  0  0  0  0  0  0  0  0
  -31.3840  -25.5280   20.1450 C   0  0  0  0  0  1  0  0  0  0  0  0
  -30.3010  -25.2600   21.2050 C   0  0  0  0  0  3  0  0  0  0  0  0
  -29.3240  -26.4620   21.3310 C   0  0  0  0  0  2  0  0  0  0  0  0
  -28.7440  -26.7980   20.0700 O   0  0  0  0  0  0  0  0  0  0  0  0
  -24.6990  -31.7390   23.3040 C   0  0  0  0  0  0  0  0  0  0  0  0
  -27.5830  -27.5360   20.1200 C   0  0  0  0  0  0  0  0  0  0  0  0
  -23.5870  -30.3710   21.5680 C   0  0  0  0  0  3  0  0  0  0  0  0
  -25.1350  -28.9460   20.1210 C   0  0  0  0  0  0  0  0  0  0  0  0
  -26.1020  -30.8250   21.4590 C   0  0  0  0  0  2  0  0  0  0  0  0
  -26.2530  -29.4840   20.7730 C   0  0  0  0  0  0  0  0  0  0  0  0
  -27.4800  -28.7810   20.7830 C   0  0  0  0  0  3  0  0  0  0  0  0
  -26.4570  -27.0190   19.4520 C   0  0  0  0  0  3  0  0  0  0  0  0
  -25.2300  -27.7100   19.4600 C   0  0  0  0  0  3  0  0  0  0  0  0
  -23.8590  -29.7570   20.1670 C   0  0  0  0  0  2  0  0  0  0  0  0
  -24.8110  -30.9910   22.1700 N   0  0  0  0  0  0  0  0  0  0  0  0
  -23.5960  -31.9510   23.8250 O   0  0  0  0  0  0  0  0  0  0  0  0
  -22.9470  -29.2880   22.4650 C   0  0  0  0  0  0  0  0  0  0  0  0
  -21.6270  -29.0900   22.3140 N   0  0  0  0  0  0  0  0  0  0  0  0
  -23.6330  -28.6310   23.2520 O   0  0  0  0  0  0  0  0  0  0  0  0
  -21.1340  -29.6740   21.6530 H   0  0  0  0  0  0  0  0  0  0  0  0
  -18.2550  -27.8810   22.7820 C   0  0  0  0  0  0  0  0  0  0  0  0
  -20.8190  -28.0980   23.0220 C   0  0  0  0  0  3  0  0  0  0  0  0
  -20.8980  -26.7180   22.3280 C   0  0  0  0  0  2  0  0  0  0  0  0
  -19.7730  -26.4870   21.3150 C   0  0  0  0  0  2  0  0  0  0  0  0
  -18.4050  -26.5890   21.9970 C   0  0  0  0  0  2  0  0  0  0  0  0
  -19.3880  -28.5970   23.2510 C   0  0  0  0  0  0  0  0  0  0  0  0
  -19.1930  -29.8100   23.9460 C   0  0  0  0  0  3  0  0  0  0  0  0
  -17.8960  -30.3060   24.1780 C   0  0  0  0  0  3  0  0  0  0  0  0
  -16.7770  -29.5850   23.7270 C   0  0  0  0  0  3  0  0  0  0  0  0
  -16.9570  -28.3730   23.0350 C   0  0  0  0  0  3  0  0  0  0  0  0
  -25.9470  -32.3820   23.9860 C   0  0  0  0  0  3  0  0  0  0  0  0
  -25.6100  -33.7760   24.3020 N   0  0  0  0  0  0  0  0  0  0  0  0
  -25.9650  -34.8310   23.5550 C   0  0  0  0  0  0  0  0  0  0  0  0
  -26.6820  -34.7340   22.5570 O   0  0  0  0  0  0  0  0  0  0  0  0
  -24.9780  -33.9270   25.0750 H   0  0  0  0  0  0  0  0  0  0  0  0
  -24.2500  -36.6130   23.1020 C   0  0  0  0  0  1  0  0  0  0  0  0
  -25.4410  -36.2140   23.9870 C   0  0  0  0  0  3  0  0  0  0  0  0
  -27.5080  -37.1140   24.9600 C   0  0  0  0  0  1  0  0  0  0  0  0
  -26.4720  -37.2750   23.9430 N   0  0  0  0  0  0  0  0  0  0  0  0
  -26.0500  -38.1920   24.0630 H   0  0  0  0  0  0  0  0  0  0  0  0
  -26.4140  -31.6130   25.2820 C   0  0  1  0  0  0  0  0  0  0  0  0
  -25.2740  -31.3490   26.2920 C   0  0  0  0  0  1  0  0  0  0  0  0
  -27.0410  -30.2490   24.9110 C   0  0  0  0  0  1  0  0  0  0  0  0
  -27.5170  -32.4230   26.0040 C   0  0  0  0  0  1  0  0  0  0  0  0
  -29.6960  -21.4700   21.0900 C   0  0  0  0  0  2  0  0  0  0  0  0
  -30.5140  -20.3380   20.5800 N   0  0  0  0  0  4  0  0  0  0  0  0
  -30.5610  -20.4470   19.5810 H   0  0  0  0  0  0  0  0  0  0  0  0
  -31.4530  -20.4230   20.9330 H   0  0  0  0  0  0  0  0  0  0  0  0
  -30.9880  -14.5920   19.8670 C   0  0  0  0  0  0  0  0  0  0  0  0
  -30.5740  -12.4860   18.6440 C   0  0  0  0  0  2  0  0  0  0  0  0
  -29.4980  -12.7230   17.5660 C   0  0  0  0  0  2  0  0  0  0  0  0
  -28.0860  -12.5350   18.1530 C   0  0  0  0  0  2  0  0  0  0  0  0
  -27.8800  -13.3170   19.4780 C   0  0  0  0  0  3  0  0  0  0  0  0
  -29.0560  -13.0720   20.4500 C   0  0  0  0  0  2  0  0  0  0  0  0
  -30.3060  -13.4180   19.7510 N   0  0  0  0  0  0  0  0  0  0  0  0
  -32.0270  -14.8290   19.2430 O   0  0  0  0  0  0  0  0  0  0  0  0
  -30.0640  -17.0420   22.6350 C   0  0  0  0  0  2  0  0  0  0  0  0
  -30.5630  -18.4430   22.2160 C   0  0  0  0  0  2  0  0  0  0  0  0
  -30.3470  -17.9940   19.7180 C   0  0  0  0  0  2  0  0  0  0  0  0
  -30.7640  -15.8510   21.9360 C   0  0  0  0  0  2  0  0  0  0  0  0
  -29.6260  -16.6250   19.8060 C   0  0  0  0  0  2  0  0  0  0  0  0
  -30.0060  -18.9670   20.8730 C   0  0  0  0  0  3  0  0  0  0  0  0
  -30.3560  -15.5800   20.5490 N   0  0  0  0  0  0  0  0  0  0  0  0
  -25.5850  -13.8590   20.5080 C   0  0  0  0  0  0  0  0  0  0  0  0
  -24.5660  -13.0570   20.9450 C   0  0  0  0  0  0  0  0  0  0  0  0
  -25.0160  -11.7130   20.7610 C   0  0  0  0  0  0  0  0  0  0  0  0
  -26.5930  -13.0020   20.0930 N   0  0  0  0  0  0  0  0  0  0  0  0
  -26.2610  -11.7030   20.3000 N   0  0  0  0  0  0  0  0  0  0  0  0
  -24.3150  -10.4360   20.9440 C   0  0  0  0  0  0  0  0  0  0  0  0
  -24.7440   -9.4880   21.8990 C   0  0  0  0  0  3  0  0  0  0  0  0
  -24.0420   -8.2750   22.0690 C   0  0  0  0  0  3  0  0  0  0  0  0
  -22.8970   -8.0020   21.2840 C   0  0  0  0  0  0  0  0  0  0  0  0
  -22.4880   -8.9390   20.3190 C   0  0  0  0  0  3  0  0  0  0  0  0
  -23.1900  -10.1430   20.1470 C   0  0  0  0  0  3  0  0  0  0  0  0
  -22.1680   -6.8410   21.3610 O   0  0  0  0  0  0  0  0  0  0  0  0
  -22.0000   -6.1740   22.5490 C   0  0  0  0  0  0  0  0  0  0  0  0
  -21.4120   -6.7920   23.6740 C   0  0  0  0  0  3  0  0  0  0  0  0
  -21.1950   -6.0490   24.8520 C   0  0  0  0  0  3  0  0  0  0  0  0
  -21.5570   -4.6890   24.9050 C   0  0  0  0  0  0  0  0  0  0  0  0
  -22.1380   -4.0720   23.7830 C   0  0  0  0  0  3  0  0  0  0  0  0
  -22.3560   -4.8110   22.6080 C   0  0  0  0  0  0  0  0  0  0  0  0
  -22.8960   -4.2050   21.5230 F   0  0  0  0  0  0  0  0  0  0  0  0
  -21.3420   -3.9740   26.0330 F   0  0  0  0  0  0  0  0  0  0  0  0
  -23.2130  -13.5050   21.4170 C   0  0  0  0  0  0  0  0  0  0  0  0
  -22.6240  -12.7830   22.3650 N   0  0  0  0  0  0  0  0  0  0  0  0
  -22.6900  -14.5290   20.9810 O   0  0  0  0  0  0  0  0  0  0  0  0
  -23.0620  -11.9530   22.7370 H   0  0  0  0  0  0  0  0  0  0  0  0
  -21.7220  -13.0650   22.7230 H   0  0  0  0  0  0  0  0  0  0  0  0
  -25.7320  -15.2400   20.4100 N   0  0  0  0  0  0  0  0  0  0  0  0
  -24.9900  -15.8840   20.6580 H   0  0  0  0  0  0  0  0  0  0  0  0
  -26.5460  -15.7020   20.0250 H   0  0  0  0  0  0  0  0  0  0  0  0
  1 48  1  0
  2  1  1  0
  2  5  1  0
  2  3  1  0
  5  4  1  0
  5  6  1  0
  7  9  1  0
  7  6  1  0
  8 19  2  0
  9 14  1  0
 10 18  1  0
 10 20  1  0
 11 17  1  0
 11 13  1  0
 12 18  1  0
 13 14  2  0
 13 12  1  0
 15 16  1  0
 15  9  2  0
 16 11  2  0
 17 10  1  0
 18  8  1  0
 20 22  2  0
 21 20  1  0
 23 21  1  0
 24 33  2  0
 24 29  1  0
 25 21  1  0
 25 29  1  0
 26 25  1  0
 27 28  1  0
 27 26  1  0
 28 24  1  0
 29 30  2  0
 30 31  1  0
 32 31  2  0
 33 32  1  0
 34  8  1  0
 34 35  1  0
 34 44  1  0
 35 38  1  0
 36 40  1  0
 36 35  1  0
 37 36  2  0
 40 39  1  0
 42 40  1  0
 42 43  1  0
 42 41  1  0
 44 47  1  1
 44 45  1  0
 46 44  1  0
 49 51  1  0
 49 48  1  0
 50 49  1  0
 52 66  1  0
 53 58  1  0
 54 55  1  0
 54 53  1  0
 56 55  1  0
 56 70  1  0
 56 57  1  0
 58 52  1  0
 58 57  1  0
 59 52  2  0
 61 60  1  0
 62 64  1  0
 62 65  1  0
 63 60  1  0
 64 66  1  0
 65 49  1  0
 65 61  1  0
 66 63  1  0
 67 68  2  0
 68 87  1  0
 69 72  1  0
 69 68  1  0
 70 71  1  0
 70 67  1  0
 71 69  2  0
 72 73  1  0
 73 74  2  0
 75 78  1  0
 75 74  1  0
 76 75  2  0
 77 76  1  0
 77 72  2  0
 78 79  1  0
 79 84  2  0
 79 80  1  0
 80 81  2  0
 81 82  1  0
 82 86  1  0
 83 82  2  0
 84 83  1  0
 85 84  1  0
 87 88  1  0
 88 91  1  0
 88 90  1  0
 89 87  2  0
 92 67  1  0
 92 93  1  0
 94 92  1  0
M  ISO  4   6 101   7 101  52 100  66 100
M  END
>  <TORSDO>  (88) 
F 21

>  <SCORE>  (88) 
-11.842

>  <name>  (88) 
87

>  <ligand_id>  (88) 
87

>  <original_smiles>  (88) 
[H]c1c([H])c([H])c2c(c1[H])C([H])([H])C([H])([H])C([H])([H])C2([H])N([H])C(=O)C1([H])N(C(=O)C([H])(N([H])C(=O)C([H])(N([H])C([H])([H])[H])C([H])([H])[H])C(C([H])([H])[H])(C([H])([H])[H])C([H])([H])[H])C([H])([H])c2c([H])c(OC([H])([H])C([H])(N([H])C([H])([H])C([H])([H])[N+]([H])([H])C3([H])C([H])([H])C([H])([H])N(C(=O)N4C([H])([H])C([H])([H])C([H])([H])C([H])(n5nc(-c6c([H])c([H])c(Oc7c([H])c([H])c(F)c([H])c7F)c([H])c6[H])c(C(=O)N([H])[H])c5N([H])[H])C4([H])[H])C([H])([H])C([H])([H])C3([H])[H])C([H])([H])[H])c([H])c([H])c2C1([H])[H]

>  <smiles>  (88) 
[H]c1c([H])c([H])c2c(c1[H])C([H])([H])C([H])([H])C([H])([H])C2([H])N([H])C(=O)C1([H])N(C(=O)C([H])(N([H])C(=O)C([H])(N([H])C([H])([H])[H])C([H])([H])[H])C(C([H])([H])[H])(C([H])([H])[H])C([H])([H])[H])C([H])([H])c2c([H])c(OC([H])([H])C([H])(N([H])C([H])([H])C([H])([H])[N+]([H])([H])C3([H])C([H])([H])C([H])([H])N(C(=O)N4C([H])([H])C([H])([H])C([H])([H])C([H])(n5nc(-c6c([H])c([H])c(Oc7c([H])c([H])c(F)c([H])c7F)c([H])c6[H])c(C(=O)N([H])[H])c5N([H])[H])C4([H])[H])C([H])([H])C([H])([H])C3([H])[H])C([H])([H])[H])c([H])c([H])c2C1([H])[H]

$$$$
88:0:0
     RDKit          3D

 90 98  0  0  1  0  0  0  0  0999 V2000
  -29.8630  -20.6090   20.6750 C   0  0  0  0  0  3  0  0  0  0  0  0
  -29.0130  -21.6760   20.2490 C   0  0  0  0  0  0  0  0  0  0  0  0
  -28.0920  -20.8250   19.5340 C   0  0  0  0  0  0  0  0  0  0  0  0
  -26.8840  -21.2920   18.7760 C   0  0  0  0  0  1  0  0  0  0  0  0
  -28.3790  -19.4820   19.5350 N   0  0  0  0  0  0  0  0  0  0  0  0
  -29.5060  -19.2590   20.2710 N   0  0  0  0  0  0  0  0  0  0  0  0
  -30.4820  -23.7580   19.9260 C   0  0  0  0  0  1  0  0  0  0  0  0
  -29.1690  -23.5120   22.0350 C   0  0  0  0  0  1  0  0  0  0  0  0
  -29.1180  -23.3540   20.5070 C   0  0  2  0  0  0  0  0  0  0  0  0
  -28.0700  -24.6220   20.0130 C   0  0  0  0  0  2  0  0  0  0  0  0
  -28.2740  -26.1730   20.2770 O   0  0  0  0  0  0  0  0  0  0  0  0
  -24.6540  -31.9220   23.2490 C   0  0  0  0  0  0  0  0  0  0  0  0
  -27.2230  -27.1770   20.2060 C   0  0  0  0  0  0  0  0  0  0  0  0
  -23.4510  -30.5220   21.6170 C   0  0  0  0  0  3  0  0  0  0  0  0
  -24.8950  -28.9450   20.1810 C   0  0  0  0  0  0  0  0  0  0  0  0
  -26.0050  -30.7840   21.4410 C   0  0  0  0  0  2  0  0  0  0  0  0
  -26.0790  -29.3880   20.7860 C   0  0  0  0  0  0  0  0  0  0  0  0
  -27.2410  -28.5200   20.7790 C   0  0  0  0  0  3  0  0  0  0  0  0
  -26.0140  -26.8480   19.5580 C   0  0  0  0  0  3  0  0  0  0  0  0
  -24.8790  -27.6910   19.5490 C   0  0  0  0  0  3  0  0  0  0  0  0
  -23.6680  -29.8430   20.2370 C   0  0  0  0  0  2  0  0  0  0  0  0
  -24.7240  -31.0990   22.1560 N   0  0  0  0  0  0  0  0  0  0  0  0
  -23.5690  -32.2050   23.7810 O   0  0  0  0  0  0  0  0  0  0  0  0
  -22.7770  -29.5160   22.5840 C   0  0  0  0  0  0  0  0  0  0  0  0
  -21.4490  -29.3350   22.4570 N   0  0  0  0  0  0  0  0  0  0  0  0
  -23.4520  -28.8990   23.4130 O   0  0  0  0  0  0  0  0  0  0  0  0
  -20.9600  -29.8830   21.7650 H   0  0  0  0  0  0  0  0  0  0  0  0
  -18.0810  -28.0950   22.9560 C   0  0  0  0  0  0  0  0  0  0  0  0
  -20.6360  -28.3940   23.2330 C   0  0  0  0  0  3  0  0  0  0  0  0
  -20.7580  -26.9580   22.6710 C   0  0  0  0  0  2  0  0  0  0  0  0
  -19.6650  -26.6120   21.6540 C   0  0  0  0  0  2  0  0  0  0  0  0
  -18.2790  -26.7430   22.2900 C   0  0  0  0  0  2  0  0  0  0  0  0
  -19.1870  -28.8760   23.3850 C   0  0  0  0  0  0  0  0  0  0  0  0
  -18.9460  -30.1390   23.9680 C   0  0  0  0  0  3  0  0  0  0  0  0
  -17.6340  -30.6200   24.1290 C   0  0  0  0  0  3  0  0  0  0  0  0
  -16.5420  -29.8360   23.7150 C   0  0  0  0  0  3  0  0  0  0  0  0
  -16.7670  -28.5750   23.1340 C   0  0  0  0  0  3  0  0  0  0  0  0
  -25.9310  -32.5640   23.8710 C   0  0  0  0  0  3  0  0  0  0  0  0
  -26.4510  -31.7950   25.1480 C   0  0  1  0  0  0  0  0  0  0  0  0
  -25.3570  -31.5490   26.2150 C   0  0  0  0  0  1  0  0  0  0  0  0
  -27.0430  -30.4200   24.7620 C   0  0  0  0  0  1  0  0  0  0  0  0
  -27.5960  -32.5950   25.8110 C   0  0  0  0  0  1  0  0  0  0  0  0
  -25.6140  -33.9610   24.2100 N   0  0  0  0  0  0  0  0  0  0  0  0
  -25.9120  -35.0210   23.4460 C   0  0  0  0  0  0  0  0  0  0  0  0
  -26.5480  -34.9240   22.3930 O   0  0  0  0  0  0  0  0  0  0  0  0
  -25.0450  -34.1070   25.0310 H   0  0  0  0  0  0  0  0  0  0  0  0
  -24.1500  -36.7960   23.1650 C   0  0  0  0  0  1  0  0  0  0  0  0
  -25.4300  -36.4050   23.9230 C   0  0  0  0  0  3  0  0  0  0  0  0
  -27.5800  -37.3250   24.6730 C   0  0  0  0  0  1  0  0  0  0  0  0
  -26.4460  -37.4700   23.7640 N   0  0  0  0  0  0  0  0  0  0  0  0
  -26.0330  -38.3870   23.9160 H   0  0  0  0  0  0  0  0  0  0  0  0
  -30.3120  -17.8650   20.3570 C   0  0  0  0  0  2  0  0  0  0  0  0
  -30.5130  -15.1210   20.2750 C   0  0  0  0  0  0  0  0  0  0  0  0
  -30.3720  -12.7640   19.3150 C   0  0  0  0  0  2  0  0  0  0  0  0
  -29.4320  -12.7140   18.0890 C   0  0  0  0  0  2  0  0  0  0  0  0
  -27.9760  -12.4890   18.5340 C   0  0  0  0  0  2  0  0  0  0  0  0
  -27.5760  -13.4030   19.7220 C   0  0  0  0  0  3  0  0  0  0  0  0
  -28.6420  -13.4310   20.8360 C   0  0  0  0  0  2  0  0  0  0  0  0
  -29.8960  -13.8650   20.2090 N   0  0  0  0  0  0  0  0  0  0  0  0
  -31.7230  -15.1390   20.0150 O   0  0  0  0  0  0  0  0  0  0  0  0
  -29.7890  -16.3560   20.4150 N   0  0  0  0  0  0  0  0  0  0  0  0
  -28.7950  -16.2610   20.5570 H   0  0  0  0  0  0  0  0  0  0  0  0
  -25.2060  -13.9680   20.4860 C   0  0  0  0  0  0  0  0  0  0  0  0
  -24.1470  -13.1890   20.8600 C   0  0  0  0  0  0  0  0  0  0  0  0
  -24.6140  -11.8380   20.8190 C   0  0  0  0  0  0  0  0  0  0  0  0
  -26.2470  -13.0940   20.2320 N   0  0  0  0  0  0  0  0  0  0  0  0
  -25.9030  -11.8070   20.5010 N   0  0  0  0  0  0  0  0  0  0  0  0
  -23.8900  -10.5740   21.0070 C   0  0  0  0  0  0  0  0  0  0  0  0
  -24.3130   -9.6120   21.9500 C   0  0  0  0  0  3  0  0  0  0  0  0
  -23.5870   -8.4140   22.1250 C   0  0  0  0  0  3  0  0  0  0  0  0
  -22.4240   -8.1700   21.3570 C   0  0  0  0  0  0  0  0  0  0  0  0
  -22.0210   -9.1190   20.4020 C   0  0  0  0  0  3  0  0  0  0  0  0
  -22.7480  -10.3080   20.2250 C   0  0  0  0  0  3  0  0  0  0  0  0
  -21.6720   -7.0240   21.4410 O   0  0  0  0  0  0  0  0  0  0  0  0
  -21.5910   -6.2970   22.6020 C   0  0  0  0  0  0  0  0  0  0  0  0
  -21.0880   -6.8560   23.7980 C   0  0  0  0  0  3  0  0  0  0  0  0
  -20.9600   -6.0540   24.9490 C   0  0  0  0  0  3  0  0  0  0  0  0
  -21.3240   -4.6950   24.9070 C   0  0  0  0  0  0  0  0  0  0  0  0
  -21.8190   -4.1350   23.7160 C   0  0  0  0  0  3  0  0  0  0  0  0
  -21.9500   -4.9350   22.5660 C   0  0  0  0  0  0  0  0  0  0  0  0
  -22.4080   -4.3850   21.4160 F   0  0  0  0  0  0  0  0  0  0  0  0
  -21.1920   -3.9240   26.0110 F   0  0  0  0  0  0  0  0  0  0  0  0
  -22.7500  -13.6610   21.1390 C   0  0  0  0  0  0  0  0  0  0  0  0
  -22.0240  -12.9560   21.9990 N   0  0  0  0  0  0  0  0  0  0  0  0
  -22.3110  -14.6910   20.6270 O   0  0  0  0  0  0  0  0  0  0  0  0
  -22.3920  -12.1250   22.4360 H   0  0  0  0  0  0  0  0  0  0  0  0
  -21.0870  -13.2550   22.2270 H   0  0  0  0  0  0  0  0  0  0  0  0
  -25.3630  -15.3400   20.3140 N   0  0  0  0  0  0  0  0  0  0  0  0
  -24.5930  -15.9890   20.4310 H   0  0  0  0  0  0  0  0  0  0  0  0
  -26.1970  -15.7820   19.9470 H   0  0  0  0  0  0  0  0  0  0  0  0
  2  9  1  0
  2  1  2  0
  3  5  2  0
  3  2  1  0
  4  3  1  0
  5  6  1  0
  6 52  1  0
  6  1  1  0
  9  7  1  6
  9  8  1  0
 10 11  1  0
 10  9  1  0
 12 23  2  0
 13 11  1  0
 13 18  1  0
 14 22  1  0
 14 24  1  0
 15 21  1  0
 15 17  1  0
 16 22  1  0
 17 16  1  0
 18 17  2  0
 19 13  2  0
 20 19  1  0
 20 15  2  0
 21 14  1  0
 22 12  1  0
 24 26  2  0
 25 24  1  0
 27 25  1  0
 28 37  2  0
 28 33  1  0
 29 25  1  0
 29 33  1  0
 30 29  1  0
 31 32  1  0
 31 30  1  0
 32 28  1  0
 33 34  2  0
 34 35  1  0
 36 35  2  0
 37 36  1  0
 38 12  1  0
 38 43  1  0
 38 39  1  0
 39 42  1  1
 39 40  1  0
 41 39  1  0
 43 46  1  0
 44 48  1  0
 44 43  1  0
 45 44  2  0
 48 47  1  0
 50 51  1  0
 50 48  1  0
 50 49  1  0
 52 61  1  0
 53 61  1  0
 54 59  1  0
 55 56  1  0
 55 54  1  0
 57 56  1  0
 57 66  1  0
 57 58  1  0
 59 53  1  0
 59 58  1  0
 60 53  2  0
 61 62  1  0
 63 64  2  0
 64 83  1  0
 65 64  1  0
 65 68  1  0
 66 63  1  0
 66 67  1  0
 67 65  2  0
 68 69  1  0
 69 70  2  0
 71 74  1  0
 71 70  1  0
 72 71  2  0
 73 72  1  0
 73 68  2  0
 74 75  1  0
 75 76  1  0
 76 77  2  0
 78 77  1  0
 78 82  1  0
 79 78  2  0
 80 75  2  0
 80 79  1  0
 81 80  1  0
 83 84  1  0
 84 87  1  0
 84 86  1  0
 85 83  2  0
 88 89  1  0
 88 63  1  0
 90 88  1  0
M  ISO  4  10 101  11 101  53 100  61 100
M  END
>  <TORSDO>  (89) 
F 19

>  <SCORE>  (89) 
-15.387

>  <name>  (89) 
88

>  <ligand_id>  (89) 
88

>  <original_smiles>  (89) 
[H]c1c([H])c([H])c2c(c1[H])C([H])([H])C([H])([H])C([H])([H])C2([H])N([H])C(=O)C1([H])N(C(=O)C([H])(N([H])C(=O)C([H])(N([H])C([H])([H])[H])C([H])([H])[H])C(C([H])([H])[H])(C([H])([H])[H])C([H])([H])[H])C([H])([H])c2c([H])c(OC([H])([H])C(c3c(C([H])([H])[H])nn(C([H])([H])N([H])C(=O)N4C([H])([H])C([H])([H])C([H])([H])C([H])(n5nc(-c6c([H])c([H])c(Oc7c([H])c([H])c(F)c([H])c7F)c([H])c6[H])c(C(=O)N([H])[H])c5N([H])[H])C4([H])[H])c3[H])(C([H])([H])[H])C([H])([H])[H])c([H])c([H])c2C1([H])[H]

>  <smiles>  (89) 
[H]c1c([H])c([H])c2c(c1[H])C([H])([H])C([H])([H])C([H])([H])C2([H])N([H])C(=O)C1([H])N(C(=O)C([H])(N([H])C(=O)C([H])(N([H])C([H])([H])[H])C([H])([H])[H])C(C([H])([H])[H])(C([H])([H])[H])C([H])([H])[H])C([H])([H])c2c([H])c(OC([H])([H])C(c3c(C([H])([H])[H])nn(C([H])([H])N([H])C(=O)N4C([H])([H])C([H])([H])C([H])([H])C([H])(n5nc(-c6c([H])c([H])c(Oc7c([H])c([H])c(F)c([H])c7F)c([H])c6[H])c(C(=O)N([H])[H])c5N([H])[H])C4([H])[H])c3[H])(C([H])([H])[H])C([H])([H])[H])c([H])c([H])c2C1([H])[H]

$$$$
89:0:0
     RDKit          3D

 93101  0  0  1  0  0  0  0  0999 V2000
  -31.2360  -18.9450   20.7810 C   0  0  0  0  0  3  0  0  0  0  0  0
  -30.8980  -21.3580   20.6840 C   0  0  0  0  0  3  0  0  0  0  0  0
  -31.7670  -20.2530   20.8770 C   0  0  0  0  0  0  0  0  0  0  0  0
  -29.9040  -18.7400   20.4030 C   0  0  0  0  0  0  0  0  0  0  0  0
  -29.5460  -21.1600   20.3590 C   0  0  0  0  0  0  0  0  0  0  0  0
  -29.0760  -19.8530   20.2080 N   0  0  0  0  0  0  0  0  0  0  0  0
  -34.0450  -19.4650   20.1750 C   0  0  0  0  0  1  0  0  0  0  0  0
  -33.6320  -20.1350   22.5670 C   0  0  0  0  0  1  0  0  0  0  0  0
  -33.7720  -21.8590   20.7630 C   0  0  0  0  0  1  0  0  0  0  0  0
  -33.2800  -20.4340   21.0990 C   0  0  2  0  0  0  0  0  0  0  0  0
  -29.4680  -17.2650   19.9680 C   0  0  0  0  0  2  0  0  0  0  0  0
  -30.4940  -14.8800   20.5500 C   0  0  0  0  0  0  0  0  0  0  0  0
  -30.4230  -12.5480   19.6450 C   0  0  0  0  0  2  0  0  0  0  0  0
  -29.5330  -12.5650   18.3800 C   0  0  0  0  0  2  0  0  0  0  0  0
  -28.0490  -12.3740   18.7530 C   0  0  0  0  0  2  0  0  0  0  0  0
  -27.6090  -13.2740   19.9390 C   0  0  0  0  0  3  0  0  0  0  0  0
  -28.6270  -13.2360   21.1010 C   0  0  0  0  0  2  0  0  0  0  0  0
  -29.9370  -13.6170   20.5550 N   0  0  0  0  0  0  0  0  0  0  0  0
  -31.6560  -15.0300   20.1630 O   0  0  0  0  0  0  0  0  0  0  0  0
  -29.6640  -15.9710   20.7740 N   0  0  0  0  0  0  0  0  0  0  0  0
  -28.8270  -15.7180   21.2750 H   0  0  0  0  0  0  0  0  0  0  0  0
  -25.1850  -13.8200   20.5800 C   0  0  0  0  0  0  0  0  0  0  0  0
  -24.1230  -13.0290   20.9180 C   0  0  0  0  0  0  0  0  0  0  0  0
  -24.6110  -11.6860   20.9070 C   0  0  0  0  0  0  0  0  0  0  0  0
  -26.2550  -12.9600   20.3830 N   0  0  0  0  0  0  0  0  0  0  0  0
  -25.9120  -11.6710   20.6410 N   0  0  0  0  0  0  0  0  0  0  0  0
  -23.9000  -10.4120   21.0790 C   0  0  0  0  0  0  0  0  0  0  0  0
  -24.3100   -9.4590   22.0390 C   0  0  0  0  0  3  0  0  0  0  0  0
  -23.5980   -8.2510   22.1990 C   0  0  0  0  0  3  0  0  0  0  0  0
  -22.4600   -7.9860   21.4000 C   0  0  0  0  0  0  0  0  0  0  0  0
  -22.0690   -8.9270   20.4310 C   0  0  0  0  0  3  0  0  0  0  0  0
  -22.7830  -10.1260   20.2690 C   0  0  0  0  0  3  0  0  0  0  0  0
  -21.7240   -6.8280   21.4680 O   0  0  0  0  0  0  0  0  0  0  0  0
  -21.6320   -6.1010   22.6260 C   0  0  0  0  0  0  0  0  0  0  0  0
  -21.0990   -6.6510   23.8130 C   0  0  0  0  0  3  0  0  0  0  0  0
  -20.9590   -5.8460   24.9630 C   0  0  0  0  0  3  0  0  0  0  0  0
  -21.3430   -4.4920   24.9250 C   0  0  0  0  0  0  0  0  0  0  0  0
  -21.8680   -3.9420   23.7420 C   0  0  0  0  0  3  0  0  0  0  0  0
  -22.0080   -4.7430   22.5960 C   0  0  0  0  0  0  0  0  0  0  0  0
  -22.4970   -4.2020   21.4540 F   0  0  0  0  0  0  0  0  0  0  0  0
  -21.2010   -3.7180   26.0250 F   0  0  0  0  0  0  0  0  0  0  0  0
  -22.7100  -13.4830   21.1430 C   0  0  0  0  0  0  0  0  0  0  0  0
  -21.9640  -12.7740   21.9820 N   0  0  0  0  0  0  0  0  0  0  0  0
  -22.2710  -14.5020   20.6100 O   0  0  0  0  0  0  0  0  0  0  0  0
  -22.3310  -11.9490   22.4330 H   0  0  0  0  0  0  0  0  0  0  0  0
  -21.0150  -13.0580   22.1760 H   0  0  0  0  0  0  0  0  0  0  0  0
  -25.3300  -15.1930   20.3990 N   0  0  0  0  0  0  0  0  0  0  0  0
  -24.5410  -15.8270   20.4750 H   0  0  0  0  0  0  0  0  0  0  0  0
  -26.1660  -15.6450   20.0570 H   0  0  0  0  0  0  0  0  0  0  0  0
  -28.6550  -22.2660   20.1520 O   0  0  0  0  0  0  0  0  0  0  0  0
  -29.0720  -23.7120   20.2850 C   0  0  0  0  0  3  0  0  0  0  0  0
  -27.9880  -24.9140   20.0510 C   0  0  0  0  0  3  0  0  0  0  0  0
  -28.2390  -26.3940   20.3020 O   0  0  0  0  0  0  0  0  0  0  0  0
  -24.5890  -31.9560   23.3300 C   0  0  0  0  0  0  0  0  0  0  0  0
  -27.1510  -27.3130   20.2600 C   0  0  0  0  0  0  0  0  0  0  0  0
  -23.3760  -30.5730   21.6870 C   0  0  0  0  0  3  0  0  0  0  0  0
  -24.8110  -29.0010   20.2630 C   0  0  0  0  0  0  0  0  0  0  0  0
  -25.9260  -30.8440   21.5160 C   0  0  0  0  0  2  0  0  0  0  0  0
  -25.9920  -29.4600   20.8620 C   0  0  0  0  0  0  0  0  0  0  0  0
  -27.1620  -28.6290   20.8500 C   0  0  0  0  0  3  0  0  0  0  0  0
  -25.9410  -26.9310   19.6390 C   0  0  0  0  0  3  0  0  0  0  0  0
  -24.7910  -27.7420   19.6480 C   0  0  0  0  0  3  0  0  0  0  0  0
  -23.5880  -29.8960   20.3090 C   0  0  0  0  0  2  0  0  0  0  0  0
  -24.6500  -31.1420   22.2340 N   0  0  0  0  0  0  0  0  0  0  0  0
  -23.5050  -32.2470   23.8610 O   0  0  0  0  0  0  0  0  0  0  0  0
  -22.6940  -29.5660   22.6460 C   0  0  0  0  0  0  0  0  0  0  0  0
  -21.3700  -29.3830   22.4980 N   0  0  0  0  0  0  0  0  0  0  0  0
  -23.3580  -28.9510   23.4840 O   0  0  0  0  0  0  0  0  0  0  0  0
  -20.8910  -29.9290   21.7950 H   0  0  0  0  0  0  0  0  0  0  0  0
  -17.9910  -28.1680   22.9590 C   0  0  0  0  0  0  0  0  0  0  0  0
  -20.5450  -28.4510   23.2680 C   0  0  0  0  0  3  0  0  0  0  0  0
  -20.6640  -27.0110   22.7150 C   0  0  0  0  0  2  0  0  0  0  0  0
  -19.5830  -26.6680   21.6850 C   0  0  0  0  0  2  0  0  0  0  0  0
  -18.1880  -26.8120   22.3030 C   0  0  0  0  0  2  0  0  0  0  0  0
  -19.0980  -28.9430   23.3980 C   0  0  0  0  0  0  0  0  0  0  0  0
  -18.8600  -30.2080   23.9740 C   0  0  0  0  0  3  0  0  0  0  0  0
  -17.5490  -30.7040   24.1100 C   0  0  0  0  0  3  0  0  0  0  0  0
  -16.4570  -29.9270   23.6870 C   0  0  0  0  0  3  0  0  0  0  0  0
  -16.6790  -28.6610   23.1180 C   0  0  0  0  0  3  0  0  0  0  0  0
  -25.8750  -32.5780   23.9540 C   0  0  0  0  0  3  0  0  0  0  0  0
  -25.5890  -33.9910   24.2510 N   0  0  0  0  0  0  0  0  0  0  0  0
  -25.9420  -35.0210   23.4690 C   0  0  0  0  0  0  0  0  0  0  0  0
  -26.6100  -34.8800   22.4420 O   0  0  0  0  0  0  0  0  0  0  0  0
  -24.9990  -34.1760   25.0480 H   0  0  0  0  0  0  0  0  0  0  0  0
  -24.2540  -36.8400   23.0680 C   0  0  0  0  0  1  0  0  0  0  0  0
  -25.4830  -36.4290   23.8960 C   0  0  0  0  0  3  0  0  0  0  0  0
  -27.6250  -37.2930   24.7250 C   0  0  0  0  0  1  0  0  0  0  0  0
  -26.5370  -37.4570   23.7640 N   0  0  0  0  0  0  0  0  0  0  0  0
  -26.1480  -38.3890   23.8820 H   0  0  0  0  0  0  0  0  0  0  0  0
  -26.3590  -31.8270   25.2560 C   0  0  1  0  0  0  0  0  0  0  0  0
  -25.2450  -31.6320   26.3110 C   0  0  0  0  0  1  0  0  0  0  0  0
  -26.9240  -30.4320   24.9080 C   0  0  0  0  0  1  0  0  0  0  0  0
  -27.5150  -32.6150   25.9140 C   0  0  0  0  0  1  0  0  0  0  0  0
  1  3  1  0
  2  3  2  0
  3 10  1  0
  4  1  2  0
  5  2  1  0
  6  5  2  0
  6  4  1  0
 10  7  1  6
  9 10  1  0
 10  8  1  0
 11  4  1  0
 11 20  1  0
 12 18  1  0
 12 20  1  0
 13 18  1  0
 14 15  1  0
 14 13  1  0
 16 15  1  0
 16 25  1  0
 16 17  1  0
 18 17  1  0
 19 12  2  0
 20 21  1  0
 22 23  2  0
 23 42  1  0
 24 23  1  0
 24 27  1  0
 25 22  1  0
 25 26  1  0
 26 24  2  0
 27 28  1  0
 28 29  2  0
 30 33  1  0
 30 29  1  0
 31 30  2  0
 32 31  1  0
 32 27  2  0
 33 34  1  0
 34 35  1  0
 35 36  2  0
 37 36  1  0
 37 41  1  0
 38 37  2  0
 39 34  2  0
 39 38  1  0
 40 39  1  0
 42 43  1  0
 43 46  1  0
 43 45  1  0
 44 42  2  0
 47 48  1  0
 47 22  1  0
 49 47  1  0
 50 51  1  0
 50  5  1  0
 52 51  2  0
 52 53  1  0
 54 65  2  0
 55 53  1  0
 55 60  1  0
 56 64  1  0
 56 66  1  0
 57 63  1  0
 57 59  1  0
 58 64  1  0
 59 58  1  0
 60 59  2  0
 61 62  1  0
 61 55  2  0
 62 57  2  0
 63 56  1  0
 64 54  1  0
 66 68  2  0
 67 66  1  0
 69 67  1  0
 70 79  2  0
 70 75  1  0
 71 67  1  0
 71 75  1  0
 72 71  1  0
 73 74  1  0
 73 72  1  0
 74 70  1  0
 75 76  2  0
 76 77  1  0
 78 77  2  0
 79 78  1  0
 80 54  1  0
 80 81  1  0
 80 90  1  0
 81 84  1  0
 82 86  1  0
 82 81  1  0
 83 82  2  0
 86 85  1  0
 88 89  1  0
 88 86  1  0
 88 87  1  0
 90 93  1  1
 90 91  1  0
 92 90  1  0
M  ISO  4  12 100  20 100  52 101  53 101
M  END
>  <TORSDO>  (90) 
F 21

>  <SCORE>  (90) 
-13.512

>  <name>  (90) 
89

>  <ligand_id>  (90) 
89

>  <original_smiles>  (90) 
[H]c1c([H])c([H])c2c(c1[H])C([H])([H])C([H])([H])C([H])([H])C2([H])N([H])C(=O)C1([H])N(C(=O)C([H])(N([H])C(=O)C([H])(N([H])C([H])([H])[H])C([H])([H])[H])C(C([H])([H])[H])(C([H])([H])[H])C([H])([H])[H])C([H])([H])c2c([H])c(OC([H])([H])C([H])([H])Oc3nc(C([H])([H])N([H])C(=O)N4C([H])([H])C([H])([H])C([H])([H])C([H])(n5nc(-c6c([H])c([H])c(Oc7c([H])c([H])c(F)c([H])c7F)c([H])c6[H])c(C(=O)N([H])[H])c5N([H])[H])C4([H])[H])c([H])c(C(C([H])([H])[H])(C([H])([H])[H])C([H])([H])[H])c3[H])c([H])c([H])c2C1([H])[H]

>  <smiles>  (90) 
[H]c1c([H])c([H])c2c(c1[H])C([H])([H])C([H])([H])C([H])([H])C2([H])N([H])C(=O)C1([H])N(C(=O)C([H])(N([H])C(=O)C([H])(N([H])C([H])([H])[H])C([H])([H])[H])C(C([H])([H])[H])(C([H])([H])[H])C([H])([H])[H])C([H])([H])c2c([H])c(OC([H])([H])C([H])([H])Oc3nc(C([H])([H])N([H])C(=O)N4C([H])([H])C([H])([H])C([H])([H])C([H])(n5nc(-c6c([H])c([H])c(Oc7c([H])c([H])c(F)c([H])c7F)c([H])c6[H])c(C(=O)N([H])[H])c5N([H])[H])C4([H])[H])c([H])c(C(C([H])([H])[H])(C([H])([H])[H])C([H])([H])[H])c3[H])c([H])c([H])c2C1([H])[H]

$$$$
90:0:0
     RDKit          3D

 98107  0  0  1  0  0  0  0  0999 V2000
  -31.8210  -23.1190   19.4390 C   0  0  0  0  0  3  0  0  0  0  0  0
  -31.2680  -24.3460   19.0010 C   0  0  0  0  0  3  0  0  0  0  0  0
  -29.0780  -23.6420   19.7680 C   0  0  0  0  0  3  0  0  0  0  0  0
  -31.0110  -22.1320   20.0420 C   0  0  0  0  0  0  0  0  0  0  0  0
  -29.6340  -22.4140   20.2170 C   0  0  0  0  0  0  0  0  0  0  0  0
  -29.8880  -24.6200   19.1460 C   0  0  0  0  0  0  0  0  0  0  0  0
  -28.7670  -21.3830   20.9170 C   0  0  0  0  0  2  0  0  0  0  0  0
  -31.6330  -20.8000   20.5410 C   0  0  0  0  0  2  0  0  0  0  0  0
  -29.5880  -20.5510   21.9340 C   0  0  0  0  0  3  0  0  0  0  0  0
  -30.6460  -19.8390   21.1310 N   0  0  2  0  0  4  0  0  0  0  0  0
  -30.1180  -19.5450   20.3230 H   0  0  0  0  0  0  0  0  0  0  0  0
  -29.0670  -22.4140   23.6750 C   0  0  0  0  0  1  0  0  0  0  0  0
  -30.6950  -20.6510   24.3220 C   0  0  0  0  0  1  0  0  0  0  0  0
  -30.1290  -21.4380   23.1250 C   0  0  0  0  0  3  0  0  0  0  0  0
  -30.1900  -17.7050   22.4970 C   0  0  0  0  0  1  0  0  0  0  0  0
  -31.1990  -18.5110   21.6330 C   0  0  0  0  0  3  0  0  0  0  0  0
  -31.0670  -17.8100   19.1390 C   0  0  0  0  0  1  0  0  0  0  0  0
  -31.7810  -17.5850   20.4900 C   0  0  0  0  0  3  0  0  0  0  0  0
  -32.4010  -15.1000   20.3440 C   0  0  0  0  0  0  0  0  0  0  0  0
  -32.0040  -12.9460   19.2020 C   0  0  0  0  0  2  0  0  0  0  0  0
  -31.0590  -13.2070   18.0090 C   0  0  0  0  0  2  0  0  0  0  0  0
  -29.5830  -13.1550   18.4510 C   0  0  0  0  0  2  0  0  0  0  0  0
  -29.3080  -14.0050   19.7200 C   0  0  0  0  0  3  0  0  0  0  0  0
  -30.3560  -13.7020   20.8170 C   0  0  0  0  0  2  0  0  0  0  0  0
  -31.6950  -13.9380   20.2460 N   0  0  0  0  0  0  0  0  0  0  0  0
  -33.5220  -15.2520   19.8510 O   0  0  0  0  0  0  0  0  0  0  0  0
  -31.6860  -16.1410   20.8260 N   0  0  0  0  0  0  0  0  0  0  0  0
  -30.8210  -15.8620   21.2620 H   0  0  0  0  0  0  0  0  0  0  0  0
  -26.9780  -14.7720   20.5060 C   0  0  0  0  0  0  0  0  0  0  0  0
  -25.8540  -14.0740   20.8550 C   0  0  0  0  0  0  0  0  0  0  0  0
  -26.1960  -12.6930   20.7300 C   0  0  0  0  0  0  0  0  0  0  0  0
  -27.9420  -13.8210   20.2050 N   0  0  0  0  0  0  0  0  0  0  0  0
  -27.4730  -12.5610   20.3940 N   0  0  0  0  0  0  0  0  0  0  0  0
  -25.3650  -11.4890   20.8560 C   0  0  0  0  0  0  0  0  0  0  0  0
  -25.6290  -10.5090   21.8380 C   0  0  0  0  0  3  0  0  0  0  0  0
  -24.8060   -9.3680   21.9500 C   0  0  0  0  0  3  0  0  0  0  0  0
  -23.7030   -9.2010   21.0790 C   0  0  0  0  0  0  0  0  0  0  0  0
  -23.4580  -10.1680   20.0880 C   0  0  0  0  0  3  0  0  0  0  0  0
  -24.2820  -11.3000   19.9740 C   0  0  0  0  0  3  0  0  0  0  0  0
  -22.8650   -8.1130   21.0980 O   0  0  0  0  0  0  0  0  0  0  0  0
  -22.4710   -7.5270   22.2750 C   0  0  0  0  0  0  0  0  0  0  0  0
  -21.8040   -8.2570   23.2840 C   0  0  0  0  0  3  0  0  0  0  0  0
  -21.3580   -7.6000   24.4480 C   0  0  0  0  0  3  0  0  0  0  0  0
  -21.5680   -6.2170   24.6020 C   0  0  0  0  0  0  0  0  0  0  0  0
  -22.2260   -5.4890   23.5950 C   0  0  0  0  0  3  0  0  0  0  0  0
  -22.6740   -6.1420   22.4340 C   0  0  0  0  0  0  0  0  0  0  0  0
  -23.2900   -5.4320   21.4580 F   0  0  0  0  0  0  0  0  0  0  0  0
  -21.1310   -5.5840   25.7150 F   0  0  0  0  0  0  0  0  0  0  0  0
  -24.5090  -14.6530   21.1870 C   0  0  0  0  0  0  0  0  0  0  0  0
  -23.7640  -14.0010   22.0730 N   0  0  0  0  0  0  0  0  0  0  0  0
  -24.1320  -15.7160   20.6970 O   0  0  0  0  0  0  0  0  0  0  0  0
  -24.0830  -13.1390   22.4890 H   0  0  0  0  0  0  0  0  0  0  0  0
  -22.8630  -14.3710   22.3400 H   0  0  0  0  0  0  0  0  0  0  0  0
  -27.2510  -16.1300   20.3920 N   0  0  0  0  0  0  0  0  0  0  0  0
  -26.5220  -16.8250   20.5130 H   0  0  0  0  0  0  0  0  0  0  0  0
  -28.0840  -16.4970   19.9530 H   0  0  0  0  0  0  0  0  0  0  0  0
  -29.2800  -25.9000   18.5420 C   0  0  0  0  0  2  0  0  0  0  0  0
  -29.0610  -26.9910   19.4630 O   0  0  0  0  0  0  0  0  0  0  0  0
  -25.0030  -31.5610   23.1420 C   0  0  0  0  0  0  0  0  0  0  0  0
  -27.8320  -27.6330   19.5290 C   0  0  0  0  0  0  0  0  0  0  0  0
  -23.8400  -30.2690   21.3830 C   0  0  0  0  0  3  0  0  0  0  0  0
  -25.3440  -28.9860   19.7680 C   0  0  0  0  0  0  0  0  0  0  0  0
  -26.3350  -30.8010   21.1730 C   0  0  0  0  0  2  0  0  0  0  0  0
  -26.4850  -29.5120   20.3840 C   0  0  0  0  0  0  0  0  0  0  0  0
  -27.7260  -28.8410   20.2680 C   0  0  0  0  0  3  0  0  0  0  0  0
  -26.6600  -27.1160   18.9290 C   0  0  0  0  0  3  0  0  0  0  0  0
  -25.4280  -27.7870   19.0410 C   0  0  0  0  0  3  0  0  0  0  0  0
  -24.0520  -29.7550   19.9330 C   0  0  0  0  0  2  0  0  0  0  0  0
  -25.0790  -30.8870   21.9580 N   0  0  0  0  0  0  0  0  0  0  0  0
  -23.9210  -31.7050   23.7300 O   0  0  0  0  0  0  0  0  0  0  0  0
  -23.2760  -29.1130   22.2410 C   0  0  0  0  0  0  0  0  0  0  0  0
  -21.9700  -28.8370   22.0930 N   0  0  0  0  0  0  0  0  0  0  0  0
  -24.0110  -28.4710   22.9950 O   0  0  0  0  0  0  0  0  0  0  0  0
  -21.4330  -29.4140   21.4610 H   0  0  0  0  0  0  0  0  0  0  0  0
  -18.7190  -27.2910   22.4190 C   0  0  0  0  0  0  0  0  0  0  0  0
  -21.2370  -27.7660   22.7670 C   0  0  0  0  0  3  0  0  0  0  0  0
  -21.4830  -26.4020   22.0820 C   0  0  0  0  0  2  0  0  0  0  0  0
  -20.4330  -26.0610   21.0210 C   0  0  0  0  0  2  0  0  0  0  0  0
  -19.0340  -26.0240   21.6420 C   0  0  0  0  0  2  0  0  0  0  0  0
  -19.7530  -28.1190   22.9330 C   0  0  0  0  0  0  0  0  0  0  0  0
  -19.4060  -29.3040   23.6160 C   0  0  0  0  0  3  0  0  0  0  0  0
  -18.0570  -29.6660   23.7910 C   0  0  0  0  0  3  0  0  0  0  0  0
  -17.0370  -28.8360   23.2920 C   0  0  0  0  0  3  0  0  0  0  0  0
  -17.3690  -27.6510   22.6130 C   0  0  0  0  0  3  0  0  0  0  0  0
  -26.2630  -32.2030   23.8000 C   0  0  0  0  0  3  0  0  0  0  0  0
  -26.8860  -31.3170   24.9480 C   0  0  1  0  0  0  0  0  0  0  0  0
  -25.8590  -30.8630   26.0110 C   0  0  0  0  0  1  0  0  0  0  0  0
  -27.5460  -30.0480   24.3590 C   0  0  0  0  0  1  0  0  0  0  0  0
  -28.0070  -32.1020   25.6700 C   0  0  0  0  0  1  0  0  0  0  0  0
  -25.8710  -33.5210   24.3170 N   0  0  0  0  0  0  0  0  0  0  0  0
  -26.1350  -34.6860   23.7100 C   0  0  0  0  0  0  0  0  0  0  0  0
  -26.8070  -34.7660   22.6780 O   0  0  0  0  0  0  0  0  0  0  0  0
  -25.2720  -33.5280   25.1300 H   0  0  0  0  0  0  0  0  0  0  0  0
  -24.3040  -36.4060   23.5880 C   0  0  0  0  0  1  0  0  0  0  0  0
  -25.5640  -35.9650   24.3500 C   0  0  0  0  0  3  0  0  0  0  0  0
  -27.6360  -36.8490   25.3280 C   0  0  0  0  0  1  0  0  0  0  0  0
  -26.5320  -37.0820   24.4000 N   0  0  0  0  0  0  0  0  0  0  0  0
  -26.0710  -37.9470   24.6690 H   0  0  0  0  0  0  0  0  0  0  0  0
  1  4  1  0
  2  6  1  0
  2  1  2  0
  3  5  1  0
  4  5  2  0
  4  8  1  0
  5  7  1  0
  6  3  2  0
  7  9  1  0
  8 10  1  0
  9 14  1  0
 10 16  1  0
 10  9  1  0
 10 11  1  6
 14 12  1  0
 14 13  1  0
 16 15  1  0
 18 17  1  0
 18 27  1  0
 18 16  1  0
 19 27  1  0
 20 25  1  0
 21 22  1  0
 21 20  1  0
 23 22  1  0
 23 32  1  0
 23 24  1  0
 25 19  1  0
 25 24  1  0
 26 19  2  0
 27 28  1  0
 29 30  2  0
 30 49  1  0
 31 30  1  0
 31 34  1  0
 32 33  1  0
 32 29  1  0
 33 31  2  0
 34 35  1  0
 35 36  2  0
 37 40  1  0
 37 36  1  0
 38 37  2  0
 39 38  1  0
 39 34  2  0
 40 41  1  0
 41 46  2  0
 41 42  1  0
 42 43  2  0
 43 44  1  0
 44 48  1  0
 45 44  2  0
 46 45  1  0
 47 46  1  0
 49 50  1  0
 50 53  1  0
 50 52  1  0
 51 49  2  0
 54 29  1  0
 54 55  1  0
 56 54  1  0
 57  6  1  0
 57 58  1  0
 58 60  1  0
 59 70  2  0
 60 65  1  0
 61 69  1  0
 61 71  1  0
 62 68  1  0
 62 64  1  0
 63 69  1  0
 64 63  1  0
 65 64  2  0
 66 67  1  0
 66 60  2  0
 67 62  2  0
 68 61  1  0
 69 59  1  0
 71 73  2  0
 72 71  1  0
 74 72  1  0
 75 84  2  0
 75 80  1  0
 76 72  1  0
 76 80  1  0
 77 76  1  0
 78 79  1  0
 78 77  1  0
 79 75  1  0
 80 81  2  0
 81 82  1  0
 83 82  2  0
 84 83  1  0
 85 59  1  0
 85 90  1  0
 85 86  1  0
 86 89  1  1
 86 87  1  0
 88 86  1  0
 90 93  1  0
 91 90  1  0
 91 95  1  0
 92 91  2  0
 95 94  1  0
 95 97  1  0
 97 98  1  0
 97 96  1  0
M  ISO  4  19 100  27 100  57 101  58 101
M  END
>  <TORSDO>  (91) 
F 20

>  <SCORE>  (91) 
-8.719

>  <name>  (91) 
90

>  <ligand_id>  (91) 
90

>  <original_smiles>  (91) 
[H]c1c([H])c([H])c2c(c1[H])C([H])([H])C([H])([H])C([H])([H])C2([H])N([H])C(=O)C1([H])N(C(=O)C([H])(N([H])C(=O)C([H])(N([H])C([H])([H])[H])C([H])([H])[H])C(C([H])([H])[H])(C([H])([H])[H])C([H])([H])[H])C([H])([H])c2c([H])c(OC([H])([H])c3c([H])c([H])c4c(c3[H])C([H])([H])C([H])(C([H])(C([H])([H])[H])C([H])([H])[H])[N+]([H])(C([H])(C([H])([H])[H])C([H])(N([H])C(=O)N3C([H])([H])C([H])([H])C([H])([H])C([H])(n5nc(-c6c([H])c([H])c(Oc7c([H])c([H])c(F)c([H])c7F)c([H])c6[H])c(C(=O)N([H])[H])c5N([H])[H])C3([H])[H])C([H])([H])[H])C4([H])[H])c([H])c([H])c2C1([H])[H]

>  <smiles>  (91) 
[H]c1c([H])c([H])c2c(c1[H])C([H])([H])C([H])([H])C([H])([H])C2([H])N([H])C(=O)C1([H])N(C(=O)C([H])(N([H])C(=O)C([H])(N([H])C([H])([H])[H])C([H])([H])[H])C(C([H])([H])[H])(C([H])([H])[H])C([H])([H])[H])C([H])([H])c2c([H])c(OC([H])([H])c3c([H])c([H])c4c(c3[H])C([H])([H])C([H])(C([H])(C([H])([H])[H])C([H])([H])[H])[N+]([H])(C([H])(C([H])([H])[H])C([H])(N([H])C(=O)N3C([H])([H])C([H])([H])C([H])([H])C([H])(n5nc(-c6c([H])c([H])c(Oc7c([H])c([H])c(F)c([H])c7F)c([H])c6[H])c(C(=O)N([H])[H])c5N([H])[H])C3([H])[H])C([H])([H])[H])C4([H])[H])c([H])c([H])c2C1([H])[H]

$$$$
91:0:0
     RDKit          3D

 96105  0  0  1  0  0  0  0  0999 V2000
  -29.6490  -19.5140   20.7740 C   0  0  0  0  0  3  0  0  0  0  0  0
  -31.9180  -19.5720   19.6510 C   0  0  0  0  0  3  0  0  0  0  0  0
  -33.3090  -19.7800   19.6130 C   0  0  0  0  0  3  0  0  0  0  0  0
  -33.2630  -20.3980   21.9590 C   0  0  0  0  0  3  0  0  0  0  0  0
  -31.1710  -19.7610   20.8400 C   0  0  0  0  0  0  0  0  0  0  0  0
  -31.8620  -20.1940   22.0100 C   0  0  0  0  0  0  0  0  0  0  0  0
  -33.9830  -20.1960   20.7710 C   0  0  0  0  0  0  0  0  0  0  0  0
  -31.1540  -20.4640   23.3290 C   0  0  0  0  0  1  0  0  0  0  0  0
  -35.3220  -20.4110   20.7380 F   0  0  0  0  0  0  0  0  0  0  0  0
  -28.5310  -23.4730   21.5610 C   0  0  0  0  0  2  0  0  0  0  0  0
  -28.6930  -23.4440   19.1870 C   0  0  0  0  0  2  0  0  0  0  0  0
  -28.2650  -21.8350   21.4760 C   0  0  0  0  0  2  0  0  0  0  0  0
  -29.5420  -22.0380   19.4950 C   0  0  0  0  0  2  0  0  0  0  0  0
  -28.1080  -24.4340   20.3420 C   0  0  0  0  0  3  0  0  0  0  0  0
  -28.9110  -20.9510   20.3810 N   0  0  1  0  0  4  0  0  0  0  0  0
  -28.1140  -20.6280   19.8530 H   0  0  0  0  0  0  0  0  0  0  0  0
  -28.2710  -26.0450   20.3690 O   0  0  0  0  0  0  0  0  0  0  0  0
  -24.6530  -31.9110   23.2720 C   0  0  0  0  0  0  0  0  0  0  0  0
  -27.2170  -27.0720   20.3070 C   0  0  0  0  0  0  0  0  0  0  0  0
  -23.4550  -30.5050   21.6430 C   0  0  0  0  0  3  0  0  0  0  0  0
  -24.9020  -28.8970   20.2380 C   0  0  0  0  0  0  0  0  0  0  0  0
  -26.0190  -30.7310   21.4940 C   0  0  0  0  0  2  0  0  0  0  0  0
  -26.0870  -29.3260   20.8470 C   0  0  0  0  0  0  0  0  0  0  0  0
  -27.2420  -28.4360   20.8530 C   0  0  0  0  0  3  0  0  0  0  0  0
  -25.9970  -26.7650   19.6620 C   0  0  0  0  0  3  0  0  0  0  0  0
  -24.8740  -27.6300   19.6320 C   0  0  0  0  0  3  0  0  0  0  0  0
  -23.6850  -29.8170   20.2690 C   0  0  0  0  0  2  0  0  0  0  0  0
  -24.7290  -31.0730   22.1910 N   0  0  0  0  0  0  0  0  0  0  0  0
  -23.5640  -32.2100   23.7880 O   0  0  0  0  0  0  0  0  0  0  0  0
  -22.7580  -29.5150   22.6110 C   0  0  0  0  0  0  0  0  0  0  0  0
  -21.4280  -29.3500   22.4780 N   0  0  0  0  0  0  0  0  0  0  0  0
  -23.4160  -28.8950   23.4490 O   0  0  0  0  0  0  0  0  0  0  0  0
  -20.9480  -29.9120   21.7890 H   0  0  0  0  0  0  0  0  0  0  0  0
  -18.0400  -28.1520   22.9670 C   0  0  0  0  0  0  0  0  0  0  0  0
  -20.5980  -28.4190   23.2520 C   0  0  0  0  0  3  0  0  0  0  0  0
  -20.7010  -26.9780   22.6960 C   0  0  0  0  0  2  0  0  0  0  0  0
  -19.6090  -26.6450   21.6740 C   0  0  0  0  0  2  0  0  0  0  0  0
  -18.2230  -26.7960   22.3030 C   0  0  0  0  0  2  0  0  0  0  0  0
  -19.1560  -28.9200   23.3960 C   0  0  0  0  0  0  0  0  0  0  0  0
  -18.9300  -30.1860   23.9770 C   0  0  0  0  0  3  0  0  0  0  0  0
  -17.6240  -30.6860   24.1330 C   0  0  0  0  0  3  0  0  0  0  0  0
  -16.5240  -29.9170   23.7200 C   0  0  0  0  0  3  0  0  0  0  0  0
  -16.7330  -28.6500   23.1430 C   0  0  0  0  0  3  0  0  0  0  0  0
  -25.9290  -32.5500   23.9000 C   0  0  0  0  0  3  0  0  0  0  0  0
  -26.4240  -31.7950   25.1960 C   0  0  1  0  0  0  0  0  0  0  0  0
  -25.3180  -31.5810   26.2570 C   0  0  0  0  0  1  0  0  0  0  0  0
  -27.0070  -30.4100   24.8390 C   0  0  0  0  0  1  0  0  0  0  0  0
  -27.5720  -32.5940   25.8560 C   0  0  0  0  0  1  0  0  0  0  0  0
  -25.6200  -33.9540   24.2230 N   0  0  0  0  0  0  0  0  0  0  0  0
  -25.9360  -35.0070   23.4570 C   0  0  0  0  0  0  0  0  0  0  0  0
  -26.5850  -34.8970   22.4140 O   0  0  0  0  0  0  0  0  0  0  0  0
  -25.0500  -34.1100   25.0430 H   0  0  0  0  0  0  0  0  0  0  0  0
  -24.1950  -36.7940   23.1380 C   0  0  0  0  0  1  0  0  0  0  0  0
  -25.4600  -36.4000   23.9180 C   0  0  0  0  0  3  0  0  0  0  0  0
  -27.6120  -37.3000   24.6820 C   0  0  0  0  0  1  0  0  0  0  0  0
  -26.4850  -37.4570   23.7670 N   0  0  0  0  0  0  0  0  0  0  0  0
  -26.0800  -38.3780   23.9160 H   0  0  0  0  0  0  0  0  0  0  0  0
  -29.3920  -17.9260   20.0470 C   0  0  0  0  0  2  0  0  0  0  0  0
  -30.4270  -15.1880   20.2990 C   0  0  0  0  0  0  0  0  0  0  0  0
  -30.3870  -12.7770   19.4130 C   0  0  0  0  0  2  0  0  0  0  0  0
  -29.4760  -12.6790   18.1620 C   0  0  0  0  0  2  0  0  0  0  0  0
  -28.0030  -12.4640   18.5610 C   0  0  0  0  0  2  0  0  0  0  0  0
  -27.5830  -13.3590   19.7560 C   0  0  0  0  0  3  0  0  0  0  0  0
  -28.6290  -13.4070   20.8950 C   0  0  0  0  0  2  0  0  0  0  0  0
  -29.8860  -13.8830   20.2980 N   0  0  0  0  0  0  0  0  0  0  0  0
  -31.5970  -15.2600   19.9070 O   0  0  0  0  0  0  0  0  0  0  0  0
  -29.6300  -16.3800   20.5690 N   0  0  0  0  0  0  0  0  0  0  0  0
  -28.7900  -16.0660   21.0360 H   0  0  0  0  0  0  0  0  0  0  0  0
  -25.1950  -13.9130   20.4650 C   0  0  0  0  0  0  0  0  0  0  0  0
  -24.1340  -13.1340   20.8360 C   0  0  0  0  0  0  0  0  0  0  0  0
  -24.6090  -11.7850   20.8200 C   0  0  0  0  0  0  0  0  0  0  0  0
  -26.2450  -13.0410   20.2410 N   0  0  0  0  0  0  0  0  0  0  0  0
  -25.9040  -11.7550   20.5200 N   0  0  0  0  0  0  0  0  0  0  0  0
  -23.8830  -10.5220   21.0130 C   0  0  0  0  0  0  0  0  0  0  0  0
  -24.3040   -9.5590   21.9570 C   0  0  0  0  0  3  0  0  0  0  0  0
  -23.5780   -8.3620   22.1370 C   0  0  0  0  0  3  0  0  0  0  0  0
  -22.4120   -8.1200   21.3730 C   0  0  0  0  0  0  0  0  0  0  0  0
  -22.0070   -9.0700   20.4170 C   0  0  0  0  0  3  0  0  0  0  0  0
  -22.7370  -10.2560   20.2370 C   0  0  0  0  0  3  0  0  0  0  0  0
  -21.6510   -6.9810   21.4680 O   0  0  0  0  0  0  0  0  0  0  0  0
  -21.5910   -6.2480   22.6260 C   0  0  0  0  0  0  0  0  0  0  0  0
  -21.1520   -6.8120   23.8450 C   0  0  0  0  0  3  0  0  0  0  0  0
  -21.0460   -6.0070   24.9960 C   0  0  0  0  0  3  0  0  0  0  0  0
  -21.3710   -4.6390   24.9290 C   0  0  0  0  0  0  0  0  0  0  0  0
  -21.8030   -4.0740   23.7160 C   0  0  0  0  0  3  0  0  0  0  0  0
  -21.9130   -4.8770   22.5680 C   0  0  0  0  0  0  0  0  0  0  0  0
  -22.3100   -4.3230   21.3970 F   0  0  0  0  0  0  0  0  0  0  0  0
  -21.2590   -3.8630   26.0320 F   0  0  0  0  0  0  0  0  0  0  0  0
  -22.7320  -13.6060   21.0870 C   0  0  0  0  0  0  0  0  0  0  0  0
  -21.9910  -12.9170   21.9480 N   0  0  0  0  0  0  0  0  0  0  0  0
  -22.2970  -14.6260   20.5530 O   0  0  0  0  0  0  0  0  0  0  0  0
  -22.3470  -12.0910   22.4070 H   0  0  0  0  0  0  0  0  0  0  0  0
  -21.0520  -13.2220   22.1570 H   0  0  0  0  0  0  0  0  0  0  0  0
  -25.3510  -15.2840   20.2850 N   0  0  0  0  0  0  0  0  0  0  0  0
  -24.5920  -15.9390   20.4340 H   0  0  0  0  0  0  0  0  0  0  0  0
  -26.1930  -15.7200   19.9330 H   0  0  0  0  0  0  0  0  0  0  0  0
  1 58  1  0
  1  5  1  0
  2  5  1  0
  3  2  2  0
  3  7  1  0
  4  6  1  0
  5  6  2  0
  6  8  1  0
  7  4  2  0
  9  7  1  0
 11 13  1  0
 11 14  1  0
 12 10  1  0
 13 15  1  0
 14 17  1  0
 14 10  1  0
 15  1  1  0
 15 12  1  0
 15 16  1  6
 18 29  2  0
 19 17  1  0
 19 24  1  0
 20 28  1  0
 20 30  1  0
 21 27  1  0
 21 23  1  0
 22 28  1  0
 23 24  2  0
 23 22  1  0
 25 19  2  0
 26 25  1  0
 26 21  2  0
 27 20  1  0
 28 18  1  0
 30 32  2  0
 31 30  1  0
 33 31  1  0
 34 43  2  0
 34 39  1  0
 35 31  1  0
 35 39  1  0
 36 35  1  0
 37 38  1  0
 37 36  1  0
 38 34  1  0
 39 40  2  0
 40 41  1  0
 42 41  2  0
 43 42  1  0
 44 18  1  0
 44 49  1  0
 44 45  1  0
 45 48  1  1
 45 46  1  0
 47 45  1  0
 49 52  1  0
 50 54  1  0
 50 49  1  0
 51 50  2  0
 54 53  1  0
 56 57  1  0
 56 54  1  0
 56 55  1  0
 58 67  1  0
 59 67  1  0
 60 65  1  0
 61 62  1  0
 61 60  1  0
 63 62  1  0
 63 72  1  0
 63 64  1  0
 65 59  1  0
 65 64  1  0
 66 59  2  0
 67 68  1  0
 69 70  2  0
 70 89  1  0
 71 70  1  0
 71 74  1  0
 72 69  1  0
 72 73  1  0
 73 71  2  0
 74 75  1  0
 75 76  2  0
 77 80  1  0
 77 76  1  0
 78 77  2  0
 79 78  1  0
 79 74  2  0
 80 81  1  0
 81 82  1  0
 82 83  2  0
 84 83  1  0
 84 88  1  0
 85 84  2  0
 86 81  2  0
 86 85  1  0
 87 86  1  0
 89 90  1  0
 90 93  1  0
 90 92  1  0
 91 89  2  0
 94 95  1  0
 94 69  1  0
 96 94  1  0
M  ISO  4  14 101  17 101  59 100  67 100
M  END
>  <TORSDO>  (92) 
F 19

>  <SCORE>  (92) 
-15.464

>  <name>  (92) 
91

>  <ligand_id>  (92) 
91

>  <original_smiles>  (92) 
[H]c1c([H])c([H])c2c(c1[H])C([H])([H])C([H])([H])C([H])([H])C2([H])N([H])C(=O)C1([H])N(C(=O)C([H])(N([H])C(=O)C([H])(N([H])C([H])([H])[H])C([H])([H])[H])C(C([H])([H])[H])(C([H])([H])[H])C([H])([H])[H])C([H])([H])c2c([H])c(OC3([H])C([H])([H])C([H])([H])[N+]([H])(C([H])(c4c([H])c([H])c(F)c([H])c4C([H])([H])[H])C([H])([H])N([H])C(=O)N4C([H])([H])C([H])([H])C([H])([H])C([H])(n5nc(-c6c([H])c([H])c(Oc7c([H])c([H])c(F)c([H])c7F)c([H])c6[H])c(C(=O)N([H])[H])c5N([H])[H])C4([H])[H])C([H])([H])C3([H])[H])c([H])c([H])c2C1([H])[H]

>  <smiles>  (92) 
[H]c1c([H])c([H])c2c(c1[H])C([H])([H])C([H])([H])C([H])([H])C2([H])N([H])C(=O)C1([H])N(C(=O)C([H])(N([H])C(=O)C([H])(N([H])C([H])([H])[H])C([H])([H])[H])C(C([H])([H])[H])(C([H])([H])[H])C([H])([H])[H])C([H])([H])c2c([H])c(OC3([H])C([H])([H])C([H])([H])[N+]([H])(C([H])(c4c([H])c([H])c(F)c([H])c4C([H])([H])[H])C([H])([H])N([H])C(=O)N4C([H])([H])C([H])([H])C([H])([H])C([H])(n5nc(-c6c([H])c([H])c(Oc7c([H])c([H])c(F)c([H])c7F)c([H])c6[H])c(C(=O)N([H])[H])c5N([H])[H])C4([H])[H])C([H])([H])C3([H])[H])c([H])c([H])c2C1([H])[H]

$$$$
92:0:0
     RDKit          3D

101110  0  0  1  0  0  0  0  0999 V2000
  -28.4960  -22.9250   19.7650 C   0  0  0  0  0  3  0  0  0  0  0  0
  -30.0320  -24.3060   20.5970 C   0  0  0  0  0  3  0  0  0  0  0  0
  -28.9120  -24.2920   19.8200 C   0  0  0  0  0  0  0  0  0  0  0  0
  -29.3760  -22.1440   20.4800 C   0  0  0  0  0  0  0  0  0  0  0  0
  -31.4820  -22.6810   21.8000 C   0  0  0  0  0  2  0  0  0  0  0  0
  -31.0730  -21.9890   23.0970 C   0  0  0  0  0  2  0  0  0  0  0  0
  -29.5380  -20.2070   22.1960 C   0  0  0  0  0  2  0  0  0  0  0  0
  -29.3910  -20.6350   20.6950 C   0  0  0  0  0  3  0  0  0  0  0  0
  -30.3310  -23.0150   20.9900 N   0  0  0  0  0  0  0  0  0  0  0  0
  -30.8100  -20.5320   22.9290 N   0  0  2  0  0  4  0  0  0  0  0  0
  -31.5830  -20.1990   22.3770 H   0  0  0  0  0  0  0  0  0  0  0  0
  -31.1330  -18.3030   24.1070 C   0  0  0  0  0  1  0  0  0  0  0  0
  -29.8270  -20.1690   25.2490 C   0  0  0  0  0  1  0  0  0  0  0  0
  -30.9490  -19.8250   24.2470 C   0  0  0  0  0  3  0  0  0  0  0  0
  -28.3190  -25.4980   19.1080 C   0  0  0  0  0  2  0  0  0  0  0  0
  -28.2640  -26.6760   19.9320 O   0  0  0  0  0  0  0  0  0  0  0  0
  -24.8550  -31.5920   23.8040 C   0  0  0  0  0  0  0  0  0  0  0  0
  -27.1090  -27.4300   20.0590 C   0  0  0  0  0  0  0  0  0  0  0  0
  -23.5340  -30.5500   21.9910 C   0  0  0  0  0  3  0  0  0  0  0  0
  -24.8430  -29.1150   20.3430 C   0  0  0  0  0  0  0  0  0  0  0  0
  -26.0850  -30.7100   21.8190 C   0  0  0  0  0  2  0  0  0  0  0  0
  -26.0460  -29.4490   20.9770 C   0  0  0  0  0  0  0  0  0  0  0  0
  -27.1790  -28.6200   20.8260 C   0  0  0  0  0  3  0  0  0  0  0  0
  -25.8740  -27.0970   19.4550 C   0  0  0  0  0  3  0  0  0  0  0  0
  -24.7510  -27.9360   19.5860 C   0  0  0  0  0  3  0  0  0  0  0  0
  -23.6810  -30.0640   20.5260 C   0  0  0  0  0  2  0  0  0  0  0  0
  -24.8440  -30.9590   22.5950 N   0  0  0  0  0  0  0  0  0  0  0  0
  -23.8010  -31.8720   24.3910 O   0  0  0  0  0  0  0  0  0  0  0  0
  -22.8000  -29.4590   22.8040 C   0  0  0  0  0  0  0  0  0  0  0  0
  -21.4850  -29.3200   22.5670 N   0  0  0  0  0  0  0  0  0  0  0  0
  -23.4120  -28.7440   23.6010 O   0  0  0  0  0  0  0  0  0  0  0  0
  -21.0590  -29.9450   21.8980 H   0  0  0  0  0  0  0  0  0  0  0  0
  -18.0970  -28.0610   22.5900 C   0  0  0  0  0  0  0  0  0  0  0  0
  -20.5980  -28.3330   23.1820 C   0  0  0  0  0  3  0  0  0  0  0  0
  -20.7970  -26.9370   22.5500 C   0  0  0  0  0  2  0  0  0  0  0  0
  -19.8300  -26.6550   21.3950 C   0  0  0  0  0  2  0  0  0  0  0  0
  -18.3780  -26.7520   21.8720 C   0  0  0  0  0  2  0  0  0  0  0  0
  -19.1420  -28.8120   23.1900 C   0  0  0  0  0  0  0  0  0  0  0  0
  -18.8310  -30.0420   23.8110 C   0  0  0  0  0  3  0  0  0  0  0  0
  -17.5060  -30.5170   23.8420 C   0  0  0  0  0  3  0  0  0  0  0  0
  -16.4750  -29.7610   23.2600 C   0  0  0  0  0  3  0  0  0  0  0  0
  -16.7700  -28.5350   22.6390 C   0  0  0  0  0  3  0  0  0  0  0  0
  -26.1900  -32.0140   24.4930 C   0  0  0  0  0  3  0  0  0  0  0  0
  -26.0180  -33.3880   24.9850 N   0  0  0  0  0  0  0  0  0  0  0  0
  -26.4510  -34.4840   24.3480 C   0  0  0  0  0  0  0  0  0  0  0  0
  -27.1110  -34.4360   23.3060 O   0  0  0  0  0  0  0  0  0  0  0  0
  -25.4470  -33.5040   25.8090 H   0  0  0  0  0  0  0  0  0  0  0  0
  -24.9050  -36.4610   24.2160 C   0  0  0  0  0  1  0  0  0  0  0  0
  -26.0980  -35.8500   24.9670 C   0  0  0  0  0  3  0  0  0  0  0  0
  -28.3010  -36.4250   25.8890 C   0  0  0  0  0  1  0  0  0  0  0  0
  -27.2280  -36.8050   24.9720 N   0  0  0  0  0  0  0  0  0  0  0  0
  -26.9100  -37.7360   25.2230 H   0  0  0  0  0  0  0  0  0  0  0  0
  -26.6180  -31.0530   25.6710 C   0  0  1  0  0  0  0  0  0  0  0  0
  -25.4980  -30.8040   26.7080 C   0  0  0  0  0  1  0  0  0  0  0  0
  -27.0630  -29.6770   25.1200 C   0  0  0  0  0  1  0  0  0  0  0  0
  -27.8380  -31.6470   26.4170 C   0  0  0  0  0  1  0  0  0  0  0  0
  -30.2640  -19.8830   19.6300 C   0  0  0  0  0  2  0  0  0  0  0  0
  -30.3070  -18.3790   19.6770 N   0  0  0  0  0  4  0  0  0  0  0  0
  -30.8550  -18.1190   18.8700 H   0  0  0  0  0  0  0  0  0  0  0  0
  -29.3930  -17.9920   19.5020 H   0  0  0  0  0  0  0  0  0  0  0  0
  -31.9950  -18.5320   21.5700 C   0  0  0  0  0  1  0  0  0  0  0  0
  -30.9500  -17.6680   20.8280 C   0  0  0  0  0  3  0  0  0  0  0  0
  -31.6640  -16.3540   20.3870 C   0  0  0  0  0  2  0  0  0  0  0  0
  -31.2980  -14.0860   19.4560 C   0  0  0  0  0  0  0  0  0  0  0  0
  -30.9310  -11.7030   18.9110 C   0  0  0  0  0  2  0  0  0  0  0  0
  -29.9450  -11.5390   17.7380 C   0  0  0  0  0  2  0  0  0  0  0  0
  -28.4930  -11.5170   18.2530 C   0  0  0  0  0  2  0  0  0  0  0  0
  -28.1860  -12.6870   19.2250 C   0  0  0  0  0  3  0  0  0  0  0  0
  -29.2820  -12.8140   20.3070 C   0  0  0  0  0  2  0  0  0  0  0  0
  -30.5830  -12.9400   19.6290 N   0  0  0  0  0  0  0  0  0  0  0  0
  -32.3420  -14.1250   18.8020 O   0  0  0  0  0  0  0  0  0  0  0  0
  -30.8190  -15.1960   20.0500 N   0  0  0  0  0  0  0  0  0  0  0  0
  -29.9410  -15.0930   20.5390 H   0  0  0  0  0  0  0  0  0  0  0  0
  -25.9220  -13.5400   20.1040 C   0  0  0  0  0  0  0  0  0  0  0  0
  -24.8180  -12.8810   20.5750 C   0  0  0  0  0  0  0  0  0  0  0  0
  -25.1420  -11.4910   20.5400 C   0  0  0  0  0  0  0  0  0  0  0  0
  -26.8550  -12.5560   19.8150 N   0  0  0  0  0  0  0  0  0  0  0  0
  -26.3930  -11.3200   20.1350 N   0  0  0  0  0  0  0  0  0  0  0  0
  -24.3140  -10.3090   20.8160 C   0  0  0  0  0  0  0  0  0  0  0  0
  -24.6460   -9.3990   21.8440 C   0  0  0  0  0  3  0  0  0  0  0  0
  -23.8250   -8.2810   22.1020 C   0  0  0  0  0  3  0  0  0  0  0  0
  -22.6560   -8.0650   21.3340 C   0  0  0  0  0  0  0  0  0  0  0  0
  -22.3430   -8.9620   20.2960 C   0  0  0  0  0  3  0  0  0  0  0  0
  -23.1640  -10.0720   20.0370 C   0  0  0  0  0  3  0  0  0  0  0  0
  -21.8140   -6.9940   21.4970 O   0  0  0  0  0  0  0  0  0  0  0  0
  -21.5570   -6.4620   22.7360 C   0  0  0  0  0  0  0  0  0  0  0  0
  -21.0140   -7.2390   23.7820 C   0  0  0  0  0  3  0  0  0  0  0  0
  -20.6990   -6.6370   25.0170 C   0  0  0  0  0  3  0  0  0  0  0  0
  -20.9180   -5.2590   25.2040 C   0  0  0  0  0  0  0  0  0  0  0  0
  -21.4520   -4.4820   24.1620 C   0  0  0  0  0  3  0  0  0  0  0  0
  -21.7670   -5.0820   22.9300 C   0  0  0  0  0  0  0  0  0  0  0  0
  -22.2620   -4.3250   21.9210 F   0  0  0  0  0  0  0  0  0  0  0  0
  -20.6090   -4.6770   26.3880 F   0  0  0  0  0  0  0  0  0  0  0  0
  -23.4990  -13.4990   20.9420 C   0  0  0  0  0  0  0  0  0  0  0  0
  -22.7880  -12.9050   21.8940 N   0  0  0  0  0  0  0  0  0  0  0  0
  -23.1110  -14.5420   20.4150 O   0  0  0  0  0  0  0  0  0  0  0  0
  -23.1150  -12.0610   22.3390 H   0  0  0  0  0  0  0  0  0  0  0  0
  -21.9040  -13.3010   22.1810 H   0  0  0  0  0  0  0  0  0  0  0  0
  -26.2050  -14.8840   19.8800 N   0  0  0  0  0  0  0  0  0  0  0  0
  -25.5160  -15.6120   20.0270 H   0  0  0  0  0  0  0  0  0  0  0  0
  -27.0570  -15.2250   19.4510 H   0  0  0  0  0  0  0  0  0  0  0  0
  1  3  1  0
  1  4  2  0
  2  9  1  0
  3  2  2  0
  4  8  1  0
  4  9  1  0
  5  6  1  0
  7 10  1  0
  8 57  1  0
  8  7  1  0
  9  5  1  0
 10  6  1  0
 10 14  1  0
 10 11  1  6
 12 14  1  0
 14 13  1  0
 15  3  1  0
 15 16  1  0
 16 18  1  0
 17 28  2  0
 18 23  1  0
 19 27  1  0
 19 29  1  0
 20 26  1  0
 20 22  1  0
 21 27  1  0
 22 21  1  0
 23 22  2  0
 24 25  1  0
 24 18  2  0
 25 20  2  0
 26 19  1  0
 27 17  1  0
 29 31  2  0
 30 29  1  0
 32 30  1  0
 33 42  2  0
 33 38  1  0
 34 30  1  0
 34 38  1  0
 35 34  1  0
 36 37  1  0
 36 35  1  0
 37 33  1  0
 38 39  2  0
 39 40  1  0
 41 40  2  0
 42 41  1  0
 43 17  1  0
 43 44  1  0
 43 53  1  0
 44 47  1  0
 45 49  1  0
 45 44  1  0
 46 45  2  0
 49 48  1  0
 49 51  1  0
 51 52  1  0
 51 50  1  0
 53 56  1  1
 53 54  1  0
 55 53  1  0
 57 58  1  0
 58 62  1  0
 59 58  1  0
 60 58  1  0
 62 61  1  0
 63 62  1  0
 64 70  1  0
 64 72  1  0
 65 70  1  0
 66 67  1  0
 66 65  1  0
 68 67  1  0
 68 77  1  0
 68 69  1  0
 70 69  1  0
 71 64  2  0
 72 63  1  0
 72 73  1  0
 74 75  2  0
 75 94  1  0
 76 75  1  0
 76 79  1  0
 77 74  1  0
 77 78  1  0
 78 76  2  0
 79 80  1  0
 80 81  2  0
 82 85  1  0
 82 81  1  0
 83 82  2  0
 84 83  1  0
 84 79  2  0
 85 86  1  0
 86 91  2  0
 86 87  1  0
 87 88  2  0
 88 89  1  0
 89 93  1  0
 90 89  2  0
 91 90  1  0
 92 91  1  0
 94 95  1  0
 95 98  1  0
 95 97  1  0
 96 94  2  0
 99100  1  0
 99 74  1  0
101 99  1  0
M  ISO  4  15 101  16 101  64 100  72 100
M  END
>  <TORSDO>  (93) 
F 22

>  <SCORE>  (93) 
-8.253

>  <name>  (93) 
92

>  <ligand_id>  (93) 
92

>  <original_smiles>  (93) 
[H]c1c([H])c([H])c2c(c1[H])C([H])([H])C([H])([H])C([H])([H])C2([H])N([H])C(=O)C1([H])N(C(=O)C([H])(N([H])C(=O)C([H])(N([H])C([H])([H])[H])C([H])([H])[H])C(C([H])([H])[H])(C([H])([H])[H])C([H])([H])[H])C([H])([H])c2c([H])c(OC([H])([H])c3c([H])c4n(c3[H])C([H])([H])C([H])([H])[N+]([H])(C([H])(C([H])([H])[H])C([H])([H])[H])C([H])([H])C4([H])C([H])([H])[N+]([H])([H])C([H])(C([H])([H])[H])C([H])([H])N([H])C(=O)N3C([H])([H])C([H])([H])C([H])([H])C([H])(n4nc(-c5c([H])c([H])c(Oc6c([H])c([H])c(F)c([H])c6F)c([H])c5[H])c(C(=O)N([H])[H])c4N([H])[H])C3([H])[H])c([H])c([H])c2C1([H])[H]

>  <smiles>  (93) 
[H]c1c([H])c([H])c2c(c1[H])C([H])([H])C([H])([H])C([H])([H])C2([H])N([H])C(=O)C1([H])N(C(=O)C([H])(N([H])C(=O)C([H])(N([H])C([H])([H])[H])C([H])([H])[H])C(C([H])([H])[H])(C([H])([H])[H])C([H])([H])[H])C([H])([H])c2c([H])c(OC([H])([H])c3c([H])c4n(c3[H])C([H])([H])C([H])([H])[N+]([H])(C([H])(C([H])([H])[H])C([H])([H])[H])C([H])([H])C4([H])C([H])([H])[N+]([H])([H])C([H])(C([H])([H])[H])C([H])([H])N([H])C(=O)N3C([H])([H])C([H])([H])C([H])([H])C([H])(n4nc(-c5c([H])c([H])c(Oc6c([H])c([H])c(F)c([H])c6F)c([H])c5[H])c(C(=O)N([H])[H])c4N([H])[H])C3([H])[H])c([H])c([H])c2C1([H])[H]

$$$$
93:0:0
     RDKit          3D

 89 97  0  0  1  0  0  0  0  0999 V2000
  -29.1820  -23.0760   18.4860 C   0  0  0  0  0  1  0  0  0  0  0  0
  -28.5620  -22.7200   19.8400 C   0  0  0  0  0  3  0  0  0  0  0  0
  -30.4500  -15.3520   20.2680 C   0  0  0  0  0  0  0  0  0  0  0  0
  -30.4890  -12.9030   19.3760 C   0  0  0  0  0  2  0  0  0  0  0  0
  -29.5730  -12.6710   18.1450 C   0  0  0  0  0  2  0  0  0  0  0  0
  -28.1220  -12.3930   18.5780 C   0  0  0  0  0  2  0  0  0  0  0  0
  -27.6600  -13.3500   19.7040 C   0  0  0  0  0  3  0  0  0  0  0  0
  -28.7030  -13.4920   20.8330 C   0  0  0  0  0  2  0  0  0  0  0  0
  -29.9230  -14.0290   20.2060 N   0  0  0  0  0  0  0  0  0  0  0  0
  -31.6740  -15.3810   20.0540 O   0  0  0  0  0  0  0  0  0  0  0  0
  -30.3720  -20.5460   20.5420 C   0  0  0  0  0  0  0  0  0  0  0  0
  -29.0940  -21.0880   20.2590 C   0  0  0  0  0  0  0  0  0  0  0  0
  -29.6030  -18.1990   20.3310 C   0  0  0  0  0  0  0  0  0  0  0  0
  -31.5870  -21.3960   20.7500 C   0  0  0  0  0  1  0  0  0  0  0  0
  -30.6160  -19.0820   20.5840 N   0  0  0  0  0  0  0  0  0  0  0  0
  -29.6050  -16.5720   20.3570 N   0  0  0  0  0  0  0  0  0  0  0  0
  -28.1930  -19.4480   20.0440 S   0  0  0  0  0  0  0  0  0  0  0  0
  -28.6540  -16.2540   20.4440 H   0  0  0  0  0  0  0  0  0  0  0  0
  -25.2760  -13.8890   20.4260 C   0  0  0  0  0  0  0  0  0  0  0  0
  -24.2200  -13.1010   20.7920 C   0  0  0  0  0  0  0  0  0  0  0  0
  -24.7040  -11.7580   20.7800 C   0  0  0  0  0  0  0  0  0  0  0  0
  -26.3320  -13.0230   20.2050 N   0  0  0  0  0  0  0  0  0  0  0  0
  -26.0000  -11.7370   20.4850 N   0  0  0  0  0  0  0  0  0  0  0  0
  -23.9900  -10.4880   20.9720 C   0  0  0  0  0  0  0  0  0  0  0  0
  -24.4100   -9.5380   21.9280 C   0  0  0  0  0  3  0  0  0  0  0  0
  -23.6910   -8.3370   22.1080 C   0  0  0  0  0  3  0  0  0  0  0  0
  -22.5390   -8.0750   21.3300 C   0  0  0  0  0  0  0  0  0  0  0  0
  -22.1390   -9.0130   20.3610 C   0  0  0  0  0  3  0  0  0  0  0  0
  -22.8590  -10.2060   20.1800 C   0  0  0  0  0  3  0  0  0  0  0  0
  -21.7940   -6.9240   21.4170 O   0  0  0  0  0  0  0  0  0  0  0  0
  -21.7120   -6.2060   22.5830 C   0  0  0  0  0  0  0  0  0  0  0  0
  -21.2180   -6.7750   23.7760 C   0  0  0  0  0  3  0  0  0  0  0  0
  -21.0890   -5.9820   24.9340 C   0  0  0  0  0  3  0  0  0  0  0  0
  -21.4420   -4.6200   24.8990 C   0  0  0  0  0  0  0  0  0  0  0  0
  -21.9320   -4.0500   23.7110 C   0  0  0  0  0  3  0  0  0  0  0  0
  -22.0650   -4.8410   22.5560 C   0  0  0  0  0  0  0  0  0  0  0  0
  -22.5150   -4.2820   21.4060 F   0  0  0  0  0  0  0  0  0  0  0  0
  -21.3120   -3.8570   26.0090 F   0  0  0  0  0  0  0  0  0  0  0  0
  -22.8150  -13.5650   21.0370 C   0  0  0  0  0  0  0  0  0  0  0  0
  -22.0830  -12.8670   21.8970 N   0  0  0  0  0  0  0  0  0  0  0  0
  -22.3770  -14.5820   20.5030 O   0  0  0  0  0  0  0  0  0  0  0  0
  -22.4530  -12.0450   22.3500 H   0  0  0  0  0  0  0  0  0  0  0  0
  -21.1390  -13.1580   22.1050 H   0  0  0  0  0  0  0  0  0  0  0  0
  -25.4170  -15.2580   20.2290 N   0  0  0  0  0  0  0  0  0  0  0  0
  -24.6120  -15.8750   20.2570 H   0  0  0  0  0  0  0  0  0  0  0  0
  -26.2340  -15.6980   19.8280 H   0  0  0  0  0  0  0  0  0  0  0  0
  -28.7850  -24.2510   22.0660 C   0  0  0  0  0  1  0  0  0  0  0  0
  -28.2030  -24.3010   20.6470 C   0  0  0  0  0  3  0  0  0  0  0  0
  -28.3090  -25.8990   20.2240 O   0  0  0  0  0  0  0  0  0  0  0  0
  -24.6930  -31.8600   23.1930 C   0  0  0  0  0  0  0  0  0  0  0  0
  -27.2690  -26.9690   20.2290 C   0  0  0  0  0  0  0  0  0  0  0  0
  -23.5090  -30.4500   21.5590 C   0  0  0  0  0  3  0  0  0  0  0  0
  -24.9650  -28.8430   20.1450 C   0  0  0  0  0  0  0  0  0  0  0  0
  -26.0720  -30.6760   21.4070 C   0  0  0  0  0  2  0  0  0  0  0  0
  -26.1510  -29.2580   20.7660 C   0  0  0  0  0  0  0  0  0  0  0  0
  -27.2980  -28.3460   20.7730 C   0  0  0  0  0  3  0  0  0  0  0  0
  -26.0490  -26.6970   19.5700 C   0  0  0  0  0  3  0  0  0  0  0  0
  -24.9400  -27.5820   19.5260 C   0  0  0  0  0  3  0  0  0  0  0  0
  -23.7430  -29.7630   20.1850 C   0  0  0  0  0  2  0  0  0  0  0  0
  -24.7810  -31.0210   22.1090 N   0  0  0  0  0  0  0  0  0  0  0  0
  -23.6000  -32.1460   23.7100 O   0  0  0  0  0  0  0  0  0  0  0  0
  -22.8200  -29.4500   22.5250 C   0  0  0  0  0  0  0  0  0  0  0  0
  -21.4880  -29.2860   22.4080 N   0  0  0  0  0  0  0  0  0  0  0  0
  -23.4910  -28.8220   23.3480 O   0  0  0  0  0  0  0  0  0  0  0  0
  -20.9990  -29.8490   21.7280 H   0  0  0  0  0  0  0  0  0  0  0  0
  -18.1090  -28.0700   22.9260 C   0  0  0  0  0  0  0  0  0  0  0  0
  -20.6690  -28.3450   23.1810 C   0  0  0  0  0  3  0  0  0  0  0  0
  -20.7720  -26.9120   22.6050 C   0  0  0  0  0  2  0  0  0  0  0  0
  -19.6690  -26.5900   21.5920 C   0  0  0  0  0  2  0  0  0  0  0  0
  -18.2870  -26.7250   22.2410 C   0  0  0  0  0  2  0  0  0  0  0  0
  -19.2260  -28.8380   23.3500 C   0  0  0  0  0  0  0  0  0  0  0  0
  -19.0010  -30.0960   23.9480 C   0  0  0  0  0  3  0  0  0  0  0  0
  -17.6930  -30.5870   24.1260 C   0  0  0  0  0  3  0  0  0  0  0  0
  -16.5920  -29.8170   23.7160 C   0  0  0  0  0  3  0  0  0  0  0  0
  -16.8010  -28.5620   23.1190 C   0  0  0  0  0  3  0  0  0  0  0  0
  -25.9580  -32.5130   23.8260 C   0  0  0  0  0  3  0  0  0  0  0  0
  -25.6330  -33.9130   24.1510 N   0  0  0  0  0  0  0  0  0  0  0  0
  -25.9670  -34.9730   23.4040 C   0  0  0  0  0  0  0  0  0  0  0  0
  -26.6480  -34.8760   22.3800 O   0  0  0  0  0  0  0  0  0  0  0  0
  -25.0260  -34.0610   24.9450 H   0  0  0  0  0  0  0  0  0  0  0  0
  -24.2430  -36.7720   23.0420 C   0  0  0  0  0  1  0  0  0  0  0  0
  -25.4730  -36.3600   23.8650 C   0  0  0  0  0  3  0  0  0  0  0  0
  -27.5960  -37.2430   24.7300 C   0  0  0  0  0  1  0  0  0  0  0  0
  -26.5070  -37.4160   23.7740 N   0  0  0  0  0  0  0  0  0  0  0  0
  -26.0970  -38.3330   23.9220 H   0  0  0  0  0  0  0  0  0  0  0  0
  -26.4570  -31.7590   25.1200 C   0  0  1  0  0  0  0  0  0  0  0  0
  -25.3500  -31.5390   26.1790 C   0  0  0  0  0  1  0  0  0  0  0  0
  -27.0450  -30.3750   24.7590 C   0  0  0  0  0  1  0  0  0  0  0  0
  -27.6000  -32.5620   25.7840 C   0  0  0  0  0  1  0  0  0  0  0  0
  2  1  1  0
  2 12  1  0
  2 48  1  0
  3 16  1  0
  4  9  1  0
  5  6  1  0
  5  4  1  0
  7  6  1  0
  7 22  1  0
  7  8  1  0
  9  3  1  0
  9  8  1  0
 10  3  2  0
 11 15  1  0
 11 14  1  0
 12 11  2  0
 13 16  1  0
 13 15  2  0
 16 18  1  0
 17 12  1  0
 17 13  1  0
 19 20  2  0
 20 39  1  0
 21 20  1  0
 21 24  1  0
 22 19  1  0
 22 23  1  0
 23 21  2  0
 24 25  1  0
 25 26  2  0
 27 30  1  0
 27 26  1  0
 28 27  2  0
 29 28  1  0
 29 24  2  0
 30 31  1  0
 31 32  1  0
 32 33  2  0
 34 33  1  0
 34 38  1  0
 35 34  2  0
 36 31  2  0
 36 35  1  0
 37 36  1  0
 39 40  1  0
 40 43  1  0
 40 42  1  0
 41 39  2  0
 44 45  1  0
 44 19  1  0
 46 44  1  0
 48 47  1  0
 49 51  1  0
 49 48  1  0
 50 61  2  0
 51 56  1  0
 52 60  1  0
 52 62  1  0
 53 59  1  0
 53 55  1  0
 54 60  1  0
 55 56  2  0
 55 54  1  0
 57 51  2  0
 58 57  1  0
 58 53  2  0
 59 52  1  0
 60 50  1  0
 62 64  2  0
 63 62  1  0
 65 63  1  0
 66 75  2  0
 66 71  1  0
 67 63  1  0
 67 71  1  0
 68 67  1  0
 69 70  1  0
 69 68  1  0
 70 66  1  0
 71 72  2  0
 72 73  1  0
 74 73  2  0
 75 74  1  0
 76 50  1  0
 76 77  1  0
 76 86  1  0
 77 80  1  0
 78 82  1  0
 78 77  1  0
 79 78  2  0
 82 81  1  0
 84 82  1  0
 84 85  1  0
 84 83  1  0
 86 89  1  1
 86 87  1  0
 88 86  1  0
M  ISO  4   3 100  16 100  48 101  49 101
M  END
>  <TORSDO>  (94) 
F 17

>  <SCORE>  (94) 
-16.747

>  <name>  (94) 
93

>  <ligand_id>  (94) 
93

>  <original_smiles>  (94) 
[H]c1c([H])c([H])c2c(c1[H])C([H])([H])C([H])([H])C([H])([H])C2([H])N([H])C(=O)C1([H])N(C(=O)C([H])(N([H])C(=O)C([H])(N([H])C([H])([H])[H])C([H])([H])[H])C(C([H])([H])[H])(C([H])([H])[H])C([H])([H])[H])C([H])([H])c2c([H])c(OC([H])(C([H])([H])[H])C([H])(c3sc(N([H])C(=O)N4C([H])([H])C([H])([H])C([H])([H])C([H])(n5nc(-c6c([H])c([H])c(Oc7c([H])c([H])c(F)c([H])c7F)c([H])c6[H])c(C(=O)N([H])[H])c5N([H])[H])C4([H])[H])nc3C([H])([H])[H])C([H])([H])[H])c([H])c([H])c2C1([H])[H]

>  <smiles>  (94) 
[H]c1c([H])c([H])c2c(c1[H])C([H])([H])C([H])([H])C([H])([H])C2([H])N([H])C(=O)C1([H])N(C(=O)C([H])(N([H])C(=O)C([H])(N([H])C([H])([H])[H])C([H])([H])[H])C(C([H])([H])[H])(C([H])([H])[H])C([H])([H])[H])C([H])([H])c2c([H])c(OC([H])(C([H])([H])[H])C([H])(c3sc(N([H])C(=O)N4C([H])([H])C([H])([H])C([H])([H])C([H])(n5nc(-c6c([H])c([H])c(Oc7c([H])c([H])c(F)c([H])c7F)c([H])c6[H])c(C(=O)N([H])[H])c5N([H])[H])C4([H])[H])nc3C([H])([H])[H])C([H])([H])[H])c([H])c([H])c2C1([H])[H]

$$$$
