0:0:0
     RDKit          3D

 96105  0  0  1  0  0  0  0  0999 V2000
  -28.9960  -22.3130   23.1300 C   0  0  0  0  0  2  0  0  0  0  0  0
  -28.8660  -21.0250   22.3180 C   0  0  0  0  0  2  0  0  0  0  0  0
  -30.2210  -22.9560   22.4830 C   0  0  0  0  0  2  0  0  0  0  0  0
  -29.4360  -21.3490   20.9140 C   0  0  0  0  0  3  0  0  0  0  0  0
  -30.0280  -22.7830   21.0230 N   0  0  1  0  0  4  0  0  0  0  0  0
  -30.9480  -22.6970   20.6180 H   0  0  0  0  0  0  0  0  0  0  0  0
  -30.3450  -20.0980   18.8690 C   0  0  0  0  0  3  0  0  0  0  0  0
  -31.2310  -17.8380   18.9030 C   0  0  0  0  0  3  0  0  0  0  0  0
  -30.8000  -18.9640   18.1750 C   0  0  0  0  0  0  0  0  0  0  0  0
  -30.2330  -20.0960   20.2700 C   0  0  0  0  0  0  0  0  0  0  0  0
  -31.1030  -17.7830   20.3090 C   0  0  0  0  0  0  0  0  0  0  0  0
  -30.5940  -18.9220   20.9560 N   0  0  0  0  0  0  0  0  0  0  0  0
  -31.9670  -15.3080   20.4350 C   0  0  0  0  0  0  0  0  0  0  0  0
  -31.6680  -13.0790   19.3280 C   0  0  0  0  0  2  0  0  0  0  0  0
  -30.7940  -13.2870   18.0730 C   0  0  0  0  0  2  0  0  0  0  0  0
  -29.3020  -13.2010   18.4410 C   0  0  0  0  0  2  0  0  0  0  0  0
  -28.9490  -14.0750   19.6730 C   0  0  0  0  0  3  0  0  0  0  0  0
  -29.9390  -13.8250   20.8340 C   0  0  0  0  0  2  0  0  0  0  0  0
  -31.2880  -14.1110   20.3290 N   0  0  0  0  0  0  0  0  0  0  0  0
  -33.1400  -15.3700   20.0510 O   0  0  0  0  0  0  0  0  0  0  0  0
  -31.2850  -16.4310   20.8990 N   0  0  0  0  0  0  0  0  0  0  0  0
  -30.5180  -16.1780   21.5000 H   0  0  0  0  0  0  0  0  0  0  0  0
  -26.5800  -14.8350   20.2910 C   0  0  0  0  0  0  0  0  0  0  0  0
  -25.4490  -14.1360   20.6110 C   0  0  0  0  0  0  0  0  0  0  0  0
  -25.8190  -12.7570   20.6040 C   0  0  0  0  0  0  0  0  0  0  0  0
  -27.5690  -13.8840   20.0960 N   0  0  0  0  0  0  0  0  0  0  0  0
  -27.1160  -12.6300   20.3510 N   0  0  0  0  0  0  0  0  0  0  0  0
  -25.0010  -11.5460   20.7630 C   0  0  0  0  0  0  0  0  0  0  0  0
  -25.3120  -10.5670   21.7330 C   0  0  0  0  0  3  0  0  0  0  0  0
  -24.4980   -9.4250   21.8800 C   0  0  0  0  0  3  0  0  0  0  0  0
  -23.3600   -9.2530   21.0570 C   0  0  0  0  0  0  0  0  0  0  0  0
  -23.0680  -10.2180   20.0790 C   0  0  0  0  0  3  0  0  0  0  0  0
  -23.8810  -11.3540   19.9300 C   0  0  0  0  0  3  0  0  0  0  0  0
  -22.5250   -8.1650   21.1110 O   0  0  0  0  0  0  0  0  0  0  0  0
  -22.3030   -7.4860   22.2820 C   0  0  0  0  0  0  0  0  0  0  0  0
  -21.8250   -8.1340   23.4410 C   0  0  0  0  0  3  0  0  0  0  0  0
  -21.5490   -7.3860   24.6030 C   0  0  0  0  0  3  0  0  0  0  0  0
  -21.7370   -5.9890   24.6030 C   0  0  0  0  0  0  0  0  0  0  0  0
  -22.2070   -5.3430   23.4460 C   0  0  0  0  0  3  0  0  0  0  0  0
  -22.4870   -6.0890   22.2890 C   0  0  0  0  0  0  0  0  0  0  0  0
  -22.9220   -5.4570   21.1720 F   0  0  0  0  0  0  0  0  0  0  0  0
  -21.4610   -5.2680   25.7140 F   0  0  0  0  0  0  0  0  0  0  0  0
  -24.0780  -14.7100   20.8170 C   0  0  0  0  0  0  0  0  0  0  0  0
  -23.2740  -14.0890   21.6740 N   0  0  0  0  0  0  0  0  0  0  0  0
  -23.7280  -15.7460   20.2530 O   0  0  0  0  0  0  0  0  0  0  0  0
  -23.5700  -13.2510   22.1520 H   0  0  0  0  0  0  0  0  0  0  0  0
  -22.3510  -14.4570   21.8540 H   0  0  0  0  0  0  0  0  0  0  0  0
  -26.8410  -16.1900   20.1230 N   0  0  0  0  0  0  0  0  0  0  0  0
  -26.1010  -16.8820   20.1840 H   0  0  0  0  0  0  0  0  0  0  0  0
  -27.7210  -16.5720   19.8000 H   0  0  0  0  0  0  0  0  0  0  0  0
  -30.2010  -17.6030   16.0910 C   0  0  0  0  0  1  0  0  0  0  0  0
  -31.9910  -19.4320   15.9770 C   0  0  0  0  0  1  0  0  0  0  0  0
  -30.7010  -18.9480   16.6490 C   0  0  0  0  0  3  0  0  0  0  0  0
  -29.3710  -24.0200   20.2990 C   0  0  0  0  0  2  0  0  0  0  0  0
  -29.0910  -25.4800   21.0220 C   0  0  0  0  0  2  0  0  0  0  0  0
  -28.9970  -26.8390   20.3480 O   0  0  0  0  0  0  0  0  0  0  0  0
  -24.6080  -31.9280   23.2200 C   0  0  0  0  0  0  0  0  0  0  0  0
  -27.8120  -27.6110   20.3270 C   0  0  0  0  0  0  0  0  0  0  0  0
  -23.6470  -30.4470   21.4930 C   0  0  0  0  0  3  0  0  0  0  0  0
  -25.3250  -29.0400   20.1610 C   0  0  0  0  0  0  0  0  0  0  0  0
  -26.1600  -30.9880   21.4800 C   0  0  0  0  0  2  0  0  0  0  0  0
  -26.4070  -29.6220   20.8330 C   0  0  0  0  0  0  0  0  0  0  0  0
  -27.6600  -28.9250   20.8910 C   0  0  0  0  0  3  0  0  0  0  0  0
  -26.7030  -27.0910   19.6330 C   0  0  0  0  0  3  0  0  0  0  0  0
  -25.4800  -27.7880   19.5420 C   0  0  0  0  0  3  0  0  0  0  0  0
  -24.0180  -29.8090   20.1260 C   0  0  0  0  0  2  0  0  0  0  0  0
  -24.8180  -31.1430   22.1200 N   0  0  0  0  0  0  0  0  0  0  0  0
  -23.4710  -32.0970   23.6840 O   0  0  0  0  0  0  0  0  0  0  0  0
  -23.0180  -29.3660   22.4050 C   0  0  0  0  0  0  0  0  0  0  0  0
  -21.7150  -29.0890   22.2120 N   0  0  0  0  0  0  0  0  0  0  0  0
  -23.7020  -28.7750   23.2440 O   0  0  0  0  0  0  0  0  0  0  0  0
  -21.2200  -29.6100   21.5030 H   0  0  0  0  0  0  0  0  0  0  0  0
  -18.4140  -27.6590   22.5870 C   0  0  0  0  0  0  0  0  0  0  0  0
  -20.9400  -28.0740   22.9300 C   0  0  0  0  0  3  0  0  0  0  0  0
  -21.1490  -26.6740   22.3090 C   0  0  0  0  0  2  0  0  0  0  0  0
  -20.0990  -26.3150   21.2570 C   0  0  0  0  0  2  0  0  0  0  0  0
  -18.6950  -26.3500   21.8710 C   0  0  0  0  0  2  0  0  0  0  0  0
  -19.4700  -28.4770   23.0740 C   0  0  0  0  0  0  0  0  0  0  0  0
  -19.1530  -29.6970   23.7120 C   0  0  0  0  0  3  0  0  0  0  0  0
  -17.8120  -30.0980   23.8670 C   0  0  0  0  0  3  0  0  0  0  0  0
  -16.7710  -29.2810   23.3960 C   0  0  0  0  0  3  0  0  0  0  0  0
  -17.0740  -28.0640   22.7610 C   0  0  0  0  0  3  0  0  0  0  0  0
  -25.7820  -32.6690   23.9310 C   0  0  0  0  0  3  0  0  0  0  0  0
  -26.2380  -31.9700   25.2720 C   0  0  1  0  0  0  0  0  0  0  0  0
  -25.0700  -31.6510   26.2330 C   0  0  0  0  0  1  0  0  0  0  0  0
  -26.9780  -30.6460   24.9760 C   0  0  0  0  0  1  0  0  0  0  0  0
  -27.2440  -32.8770   26.0190 C   0  0  0  0  0  1  0  0  0  0  0  0
  -25.3440  -34.0480   24.1950 N   0  0  0  0  0  0  0  0  0  0  0  0
  -25.6720  -35.1080   23.4460 C   0  0  0  0  0  0  0  0  0  0  0  0
  -26.4400  -35.0340   22.4840 O   0  0  0  0  0  0  0  0  0  0  0  0
  -24.6680  -34.1750   24.9340 H   0  0  0  0  0  0  0  0  0  0  0  0
  -23.8700  -36.7720   22.8850 C   0  0  0  0  0  1  0  0  0  0  0  0
  -25.0500  -36.4680   23.8220 C   0  0  0  0  0  3  0  0  0  0  0  0
  -27.0330  -37.5090   24.8290 C   0  0  0  0  0  1  0  0  0  0  0  0
  -26.0160  -37.5890   23.7830 N   0  0  0  0  0  0  0  0  0  0  0  0
  -25.5380  -38.4810   23.8700 H   0  0  0  0  0  0  0  0  0  0  0  0
  2  1  1  0
  3  1  1  0
  4 10  1  0
  4  5  1  0
  4  2  1  0
  5  3  1  0
  5  6  1  6
  7 10  1  0
  8 11  2  0
  9  7  2  0
  9  8  1  0
 10 12  2  0
 11 21  1  0
 11 12  1  0
 13 21  1  0
 14 19  1  0
 15 16  1  0
 15 14  1  0
 17 16  1  0
 17 26  1  0
 17 18  1  0
 19 13  1  0
 19 18  1  0
 20 13  2  0
 21 22  1  0
 23 24  2  0
 24 43  1  0
 25 24  1  0
 25 28  1  0
 26 23  1  0
 26 27  1  0
 27 25  2  0
 28 29  1  0
 29 30  2  0
 31 34  1  0
 31 30  1  0
 32 31  2  0
 33 32  1  0
 33 28  2  0
 34 35  1  0
 35 40  2  0
 35 36  1  0
 36 37  2  0
 37 38  1  0
 38 42  1  0
 39 38  2  0
 40 39  1  0
 41 40  1  0
 43 44  1  0
 44 47  1  0
 44 46  1  0
 45 43  2  0
 48 49  1  0
 48 23  1  0
 50 48  1  0
 51 53  1  0
 52 53  1  0
 53  9  1  0
 54 55  1  0
 54  5  1  0
 56 55  1  0
 57 68  2  0
 58 56  1  0
 58 63  1  0
 59 67  1  0
 59 69  1  0
 60 62  1  0
 61 67  1  0
 62 63  2  0
 62 61  1  0
 64 58  2  0
 65 64  1  0
 65 60  2  0
 66 60  1  0
 66 59  1  0
 67 57  1  0
 69 71  2  0
 70 69  1  0
 72 70  1  0
 73 82  2  0
 73 78  1  0
 74 70  1  0
 74 78  1  0
 75 74  1  0
 76 77  1  0
 76 75  1  0
 77 73  1  0
 78 79  2  0
 79 80  1  0
 81 80  2  0
 82 81  1  0
 83 57  1  0
 83 88  1  0
 83 84  1  0
 84 87  1  1
 84 85  1  0
 86 84  1  0
 88 91  1  0
 89 93  1  0
 89 88  1  0
 90 89  2  0
 93 92  1  0
 95 93  1  0
 95 96  1  0
 95 94  1  0
M  ISO  4  13 100  21 100  55 101  56 101
M  END
>  <TORSDO>  (1) 
F 20

>  <SCORE>  (1) 
-9.921

>  <name>  (1) 
0

>  <ligand_id>  (1) 
0

>  <original_smiles>  (1) 
[H]c1c([H])c([H])c2c(c1[H])C([H])([H])C([H])([H])C([H])([H])C2([H])N([H])C(=O)C1([H])N(C(=O)C([H])(N([H])C(=O)C([H])(N([H])C([H])([H])[H])C([H])([H])[H])C(C([H])([H])[H])(C([H])([H])[H])C([H])([H])[H])C([H])([H])c2c([H])c(OC([H])([H])C([H])([H])[N+]3([H])C([H])([H])C([H])([H])C([H])([H])C3([H])c3nc(N([H])C(=O)N4C([H])([H])C([H])([H])C([H])([H])C([H])(n5nc(-c6c([H])c([H])c(Oc7c([H])c([H])c(F)c([H])c7F)c([H])c6[H])c(C(=O)N([H])[H])c5N([H])[H])C4([H])[H])c([H])c(C([H])(C([H])([H])[H])C([H])([H])[H])c3[H])c([H])c([H])c2C1([H])[H]

>  <smiles>  (1) 
[H]c1c([H])c([H])c2c(c1[H])C([H])([H])C([H])([H])C([H])([H])C2([H])N([H])C(=O)C1([H])N(C(=O)C([H])(N([H])C(=O)C([H])(N([H])C([H])([H])[H])C([H])([H])[H])C(C([H])([H])[H])(C([H])([H])[H])C([H])([H])[H])C([H])([H])c2c([H])c(OC([H])([H])C([H])([H])[N+]3([H])C([H])([H])C([H])([H])C([H])([H])C3([H])c3nc(N([H])C(=O)N4C([H])([H])C([H])([H])C([H])([H])C([H])(n5nc(-c6c([H])c([H])c(Oc7c([H])c([H])c(F)c([H])c7F)c([H])c6[H])c(C(=O)N([H])[H])c5N([H])[H])C4([H])[H])c([H])c(C([H])(C([H])([H])[H])C([H])([H])[H])c3[H])c([H])c([H])c2C1([H])[H]

$$$$
1:0:0
     RDKit          3D

 98108  0  0  1  0  0  0  0  0999 V2000
  -29.0180  -22.1690   22.9410 C   0  0  0  0  0  3  0  0  0  0  0  0
  -28.7670  -20.8900   22.4200 C   0  0  0  0  0  3  0  0  0  0  0  0
  -29.8620  -22.7970   20.7630 C   0  0  0  0  0  3  0  0  0  0  0  0
  -29.5710  -23.1510   22.0950 C   0  0  0  0  0  0  0  0  0  0  0  0
  -29.0660  -20.6390   21.0690 C   0  0  0  0  0  0  0  0  0  0  0  0
  -29.6200  -21.5680   20.2600 N   0  0  0  0  0  0  0  0  0  0  0  0
  -29.8650  -24.5420   22.6430 C   0  0  0  0  0  2  0  0  0  0  0  0
  -29.2230  -25.7140   21.8710 C   0  0  0  0  0  2  0  0  0  0  0  0
  -29.9700  -26.1440   20.5860 C   0  0  0  0  0  2  0  0  0  0  0  0
  -29.7780  -27.5330   20.3160 O   0  0  0  0  0  0  0  0  0  0  0  0
  -24.8180  -31.5130   23.4480 C   0  0  0  0  0  0  0  0  0  0  0  0
  -28.4800  -27.9780   20.2630 C   0  0  0  0  0  0  0  0  0  0  0  0
  -24.0170  -30.0340   21.6360 C   0  0  0  0  0  3  0  0  0  0  0  0
  -25.8280  -28.9380   20.2180 C   0  0  0  0  0  0  0  0  0  0  0  0
  -26.4190  -30.9130   21.6360 C   0  0  0  0  0  2  0  0  0  0  0  0
  -26.8170  -29.6450   20.9140 C   0  0  0  0  0  0  0  0  0  0  0  0
  -28.1450  -29.1730   20.9330 C   0  0  0  0  0  3  0  0  0  0  0  0
  -27.4730  -27.2700   19.5660 C   0  0  0  0  0  3  0  0  0  0  0  0
  -26.1520  -27.7490   19.5400 C   0  0  0  0  0  3  0  0  0  0  0  0
  -24.4350  -29.5240   20.2310 C   0  0  0  0  0  2  0  0  0  0  0  0
  -25.0960  -30.8320   22.3010 N   0  0  0  0  0  0  0  0  0  0  0  0
  -23.6780  -31.5160   23.9300 O   0  0  0  0  0  0  0  0  0  0  0  0
  -23.5360  -28.8290   22.4750 C   0  0  0  0  0  0  0  0  0  0  0  0
  -22.3110  -28.3530   22.1950 N   0  0  0  0  0  0  0  0  0  0  0  0
  -24.2660  -28.3280   23.3340 O   0  0  0  0  0  0  0  0  0  0  0  0
  -21.7710  -28.8260   21.4840 H   0  0  0  0  0  0  0  0  0  0  0  0
  -19.3120  -26.3400   22.2170 C   0  0  0  0  0  0  0  0  0  0  0  0
  -21.6710  -27.2020   22.8330 C   0  0  0  0  0  3  0  0  0  0  0  0
  -22.2020  -25.8720   22.2440 C   0  0  0  0  0  2  0  0  0  0  0  0
  -21.3450  -25.3430   21.0900 C   0  0  0  0  0  2  0  0  0  0  0  0
  -19.9010  -25.1120   21.5450 C   0  0  0  0  0  2  0  0  0  0  0  0
  -20.1430  -27.3280   22.8080 C   0  0  0  0  0  0  0  0  0  0  0  0
  -19.5450  -28.4690   23.3830 C   0  0  0  0  0  3  0  0  0  0  0  0
  -18.1460  -28.6300   23.3740 C   0  0  0  0  0  3  0  0  0  0  0  0
  -17.3300  -27.6430   22.8000 C   0  0  0  0  0  3  0  0  0  0  0  0
  -17.9110  -26.4960   22.2300 C   0  0  0  0  0  3  0  0  0  0  0  0
  -25.9120  -32.3360   24.1980 C   0  0  0  0  0  3  0  0  0  0  0  0
  -25.4120  -33.7080   24.3390 N   0  0  0  0  0  0  0  0  0  0  0  0
  -25.7620  -34.7300   23.5460 C   0  0  0  0  0  0  0  0  0  0  0  0
  -26.6080  -34.6250   22.6530 O   0  0  0  0  0  0  0  0  0  0  0  0
  -24.6750  -33.8550   25.0130 H   0  0  0  0  0  0  0  0  0  0  0  0
  -23.9650  -36.2880   22.7310 C   0  0  0  0  0  1  0  0  0  0  0  0
  -25.0650  -36.0830   23.7840 C   0  0  0  0  0  3  0  0  0  0  0  0
  -26.9430  -37.2320   24.8710 C   0  0  0  0  0  1  0  0  0  0  0  0
  -25.9920  -37.2360   23.7640 N   0  0  0  0  0  0  0  0  0  0  0  0
  -25.4790  -38.1120   23.7870 H   0  0  0  0  0  0  0  0  0  0  0  0
  -26.2920  -31.7290   25.6050 C   0  0  1  0  0  0  0  0  0  0  0  0
  -25.0670  -31.3600   26.4750 C   0  0  0  0  0  1  0  0  0  0  0  0
  -27.1490  -30.4530   25.4340 C   0  0  0  0  0  1  0  0  0  0  0  0
  -27.1550  -32.7390   26.3970 C   0  0  0  0  0  1  0  0  0  0  0  0
  -28.7890  -19.2750   20.4620 C   0  0  0  0  0  2  0  0  0  0  0  0
  -32.1430  -14.7830   20.1090 C   0  0  0  0  0  0  0  0  0  0  0  0
  -31.7370  -12.4340   19.4790 C   0  0  0  0  0  2  0  0  0  0  0  0
  -30.8540  -12.3360   18.2190 C   0  0  0  0  0  2  0  0  0  0  0  0
  -29.3620  -12.3360   18.5990 C   0  0  0  0  0  2  0  0  0  0  0  0
  -29.0040  -13.4790   19.5790 C   0  0  0  0  0  3  0  0  0  0  0  0
  -30.0020  -13.5360   20.7560 C   0  0  0  0  0  2  0  0  0  0  0  0
  -31.3650  -13.6630   20.2070 N   0  0  0  0  0  0  0  0  0  0  0  0
  -33.2590  -14.7460   19.5840 O   0  0  0  0  0  0  0  0  0  0  0  0
  -31.1480  -16.4730   21.6330 C   0  0  0  0  0  2  0  0  0  0  0  0
  -29.8550  -17.2990   21.5080 C   0  0  0  0  0  2  0  0  0  0  0  0
  -30.5830  -18.0260   19.2030 C   0  0  0  0  0  3  0  0  0  0  0  0
  -31.8300  -17.1220   19.3830 C   0  0  0  0  0  3  0  0  0  0  0  0
  -33.0900  -17.9480   19.7320 C   0  0  0  0  0  1  0  0  0  0  0  0
  -31.5580  -15.9960   20.3110 N   0  0  0  0  0  0  0  0  0  0  0  0
  -29.9980  -18.4140   20.5300 N   0  0  1  0  0  4  0  0  0  0  0  0
  -30.6780  -19.0330   20.9460 H   0  0  0  0  0  0  0  0  0  0  0  0
  -26.6970  -14.3710   20.3080 C   0  0  0  0  0  0  0  0  0  0  0  0
  -25.5420  -13.7320   20.6590 C   0  0  0  0  0  0  0  0  0  0  0  0
  -25.8290  -12.3340   20.5960 C   0  0  0  0  0  0  0  0  0  0  0  0
  -27.6230  -13.3720   20.0490 N   0  0  0  0  0  0  0  0  0  0  0  0
  -27.1040  -12.1410   20.2840 N   0  0  0  0  0  0  0  0  0  0  0  0
  -24.9450  -11.1730   20.7520 C   0  0  0  0  0  0  0  0  0  0  0  0
  -25.2490  -10.1310   21.6560 C   0  0  0  0  0  3  0  0  0  0  0  0
  -24.3790   -9.0300   21.7980 C   0  0  0  0  0  3  0  0  0  0  0  0
  -23.1870   -8.9670   21.0370 C   0  0  0  0  0  0  0  0  0  0  0  0
  -22.9000   -9.9960   20.1230 C   0  0  0  0  0  3  0  0  0  0  0  0
  -23.7710  -11.0890   19.9790 C   0  0  0  0  0  3  0  0  0  0  0  0
  -22.2920   -7.9270   21.0920 O   0  0  0  0  0  0  0  0  0  0  0  0
  -22.0470   -7.2520   22.2620 C   0  0  0  0  0  0  0  0  0  0  0  0
  -21.6310   -7.9230   23.4330 C   0  0  0  0  0  3  0  0  0  0  0  0
  -21.3240   -7.1860   24.5930 C   0  0  0  0  0  3  0  0  0  0  0  0
  -21.4180   -5.7820   24.5820 C   0  0  0  0  0  0  0  0  0  0  0  0
  -21.8230   -5.1120   23.4140 C   0  0  0  0  0  3  0  0  0  0  0  0
  -22.1350   -5.8470   22.2550 C   0  0  0  0  0  0  0  0  0  0  0  0
  -22.5050   -5.1960   21.1270 F   0  0  0  0  0  0  0  0  0  0  0  0
  -21.1150   -5.0730   25.6940 F   0  0  0  0  0  0  0  0  0  0  0  0
  -24.2140  -14.3780   20.9390 C   0  0  0  0  0  0  0  0  0  0  0  0
  -23.4250  -13.7920   21.8330 N   0  0  0  0  0  0  0  0  0  0  0  0
  -23.8940  -15.4340   20.3970 O   0  0  0  0  0  0  0  0  0  0  0  0
  -23.7060  -12.9370   22.2900 H   0  0  0  0  0  0  0  0  0  0  0  0
  -22.5300  -14.2010   22.0660 H   0  0  0  0  0  0  0  0  0  0  0  0
  -27.0180  -15.7160   20.1610 N   0  0  0  0  0  0  0  0  0  0  0  0
  -26.2550  -16.3840   20.1670 H   0  0  0  0  0  0  0  0  0  0  0  0
  -27.7650  -15.9910   19.5430 H   0  0  0  0  0  0  0  0  0  0  0  0
  -28.7380  -18.1280   17.2820 C   0  0  0  0  0  2  0  0  0  0  0  0
  -29.8370  -17.2230   16.7910 C   0  0  0  0  0  2  0  0  0  0  0  0
  -29.5770  -17.3480   18.2780 C   0  0  0  0  0  3  0  0  0  0  0  0
  2  1  1  0
  3  4  1  0
  4  7  1  0
  4  1  2  0
  5  2  2  0
  6  3  2  0
  6  5  1  0
  8  7  1  0
  9  8  1  0
 10  9  1  0
 11 22  2  0
 12 10  1  0
 12 17  1  0
 13 21  1  0
 13 23  1  0
 14 20  1  0
 14 16  1  0
 15 21  1  0
 16 17  2  0
 16 15  1  0
 18 12  2  0
 19 18  1  0
 19 14  2  0
 20 13  1  0
 21 11  1  0
 23 25  2  0
 24 23  1  0
 26 24  1  0
 27 36  2  0
 27 32  1  0
 28 24  1  0
 29 28  1  0
 30 31  1  0
 30 29  1  0
 31 27  1  0
 32 28  1  0
 32 33  2  0
 34 33  1  0
 35 34  2  0
 36 35  1  0
 37 11  1  0
 37 38  1  0
 37 47  1  0
 38 41  1  0
 39 43  1  0
 39 38  1  0
 40 39  2  0
 43 42  1  0
 45 43  1  0
 45 46  1  0
 45 44  1  0
 47 50  1  1
 47 48  1  0
 49 47  1  0
 51 66  1  0
 51  5  1  0
 52 58  1  0
 52 65  1  0
 53 58  1  0
 54 55  1  0
 54 53  1  0
 56 55  1  0
 56 71  1  0
 56 57  1  0
 58 57  1  0
 59 52  2  0
 61 60  1  0
 62 98  1  0
 62 63  1  0
 62 66  1  0
 63 64  1  0
 63 65  1  0
 65 60  1  0
 66 67  1  1
 66 61  1  0
 68 69  2  0
 69 88  1  0
 70 69  1  0
 70 73  1  0
 71 72  1  0
 71 68  1  0
 72 70  2  0
 73 74  1  0
 74 75  2  0
 76 79  1  0
 76 75  1  0
 77 76  2  0
 78 77  1  0
 78 73  2  0
 79 80  1  0
 80 81  1  0
 81 82  2  0
 83 82  1  0
 83 87  1  0
 84 83  2  0
 85 80  2  0
 85 84  1  0
 86 85  1  0
 88 89  1  0
 89 92  1  0
 89 91  1  0
 90 88  2  0
 93 94  1  0
 93 68  1  0
 95 93  1  0
 96 98  1  0
 97 96  1  0
 97 98  1  0
M  ISO  4   9 101  10 101  52 100  65 100
M  END
>  <TORSDO>  (2) 
F 21

>  <SCORE>  (2) 
-8.197

>  <name>  (2) 
1

>  <ligand_id>  (2) 
1

>  <original_smiles>  (2) 
[H]c1nc(C([H])([H])[N+]2([H])C([H])([H])C([H])([H])N(C(=O)N3C([H])([H])C([H])([H])C([H])([H])C([H])(n4nc(-c5c([H])c([H])c(Oc6c([H])c([H])c(F)c([H])c6F)c([H])c5[H])c(C(=O)N([H])[H])c4N([H])[H])C3([H])[H])C([H])(C([H])([H])[H])C2([H])C2([H])C([H])([H])C2([H])[H])c([H])c([H])c1C([H])([H])C([H])([H])C([H])([H])Oc1c([H])c([H])c2c(c1[H])C([H])([H])N(C(=O)C([H])(N([H])C(=O)C([H])(N([H])C([H])([H])[H])C([H])([H])[H])C(C([H])([H])[H])(C([H])([H])[H])C([H])([H])[H])C([H])(C(=O)N([H])C1([H])c3c([H])c([H])c([H])c([H])c3C([H])([H])C([H])([H])C1([H])[H])C2([H])[H]

>  <smiles>  (2) 
[H]c1nc(C([H])([H])[N+]2([H])C([H])([H])C([H])([H])N(C(=O)N3C([H])([H])C([H])([H])C([H])([H])C([H])(n4nc(-c5c([H])c([H])c(Oc6c([H])c([H])c(F)c([H])c6F)c([H])c5[H])c(C(=O)N([H])[H])c4N([H])[H])C3([H])[H])C([H])(C([H])([H])[H])C2([H])C2([H])C([H])([H])C2([H])[H])c([H])c([H])c1C([H])([H])C([H])([H])C([H])([H])Oc1c([H])c([H])c2c(c1[H])C([H])([H])N(C(=O)C([H])(N([H])C(=O)C([H])(N([H])C([H])([H])[H])C([H])([H])[H])C(C([H])([H])[H])(C([H])([H])[H])C([H])([H])[H])C([H])(C(=O)N([H])C1([H])c3c([H])c([H])c([H])c([H])c3C([H])([H])C([H])([H])C1([H])[H])C2([H])[H]

$$$$
2:0:0
     RDKit          3D

 98107  0  0  1  0  0  0  0  0999 V2000
  -29.2510  -20.3460   20.3540 C   0  0  0  0  0  2  0  0  0  0  0  0
  -31.4810  -19.6780   19.5010 C   0  0  0  0  0  0  0  0  0  0  0  0
  -31.7050  -17.7090   21.5530 C   0  0  0  0  0  2  0  0  0  0  0  0
  -32.7070  -18.7250   19.5020 C   0  0  0  0  0  3  0  0  0  0  0  0
  -30.3160  -18.1220   21.0360 C   0  0  0  0  0  3  0  0  0  0  0  0
  -33.0490  -18.2680   18.0690 C   0  0  0  0  0  1  0  0  0  0  0  0
  -30.4220  -19.4240   20.3120 N   0  0  0  0  0  0  0  0  0  0  0  0
  -32.6230  -17.5510   20.4090 N   0  0  0  0  0  4  0  0  0  0  0  0
  -31.5160  -20.6680   18.7620 O   0  0  0  0  0  0  0  0  0  0  0  0
  -32.3120  -16.7450   19.8790 H   0  0  0  0  0  0  0  0  0  0  0  0
  -33.5430  -17.3330   20.7540 H   0  0  0  0  0  0  0  0  0  0  0  0
  -29.6820  -17.0180   20.1170 C   0  0  0  0  0  2  0  0  0  0  0  0
  -30.5100  -14.6300   20.1010 C   0  0  0  0  0  0  0  0  0  0  0  0
  -30.3000  -12.4470   18.9710 C   0  0  0  0  0  2  0  0  0  0  0  0
  -29.2800  -12.5740   17.8160 C   0  0  0  0  0  2  0  0  0  0  0  0
  -27.8400  -12.3680   18.3300 C   0  0  0  0  0  2  0  0  0  0  0  0
  -27.5250  -13.2210   19.5880 C   0  0  0  0  0  3  0  0  0  0  0  0
  -28.6370  -13.0450   20.6480 C   0  0  0  0  0  2  0  0  0  0  0  0
  -29.9200  -13.4070   20.0210 N   0  0  0  0  0  0  0  0  0  0  0  0
  -31.6000  -14.9070   19.5890 O   0  0  0  0  0  0  0  0  0  0  0  0
  -29.7230  -15.6150   20.5940 N   0  0  0  0  0  0  0  0  0  0  0  0
  -28.8800  -15.2860   21.0420 H   0  0  0  0  0  0  0  0  0  0  0  0
  -25.1640  -13.7690   20.4640 C   0  0  0  0  0  0  0  0  0  0  0  0
  -24.1320  -12.9670   20.8770 C   0  0  0  0  0  0  0  0  0  0  0  0
  -24.6150  -11.6250   20.7790 C   0  0  0  0  0  0  0  0  0  0  0  0
  -26.2060  -12.9140   20.1390 N   0  0  0  0  0  0  0  0  0  0  0  0
  -25.8830  -11.6170   20.3860 N   0  0  0  0  0  0  0  0  0  0  0  0
  -23.9240  -10.3450   20.9770 C   0  0  0  0  0  0  0  0  0  0  0  0
  -24.3640   -9.4080   21.9400 C   0  0  0  0  0  3  0  0  0  0  0  0
  -23.6710   -8.1930   22.1240 C   0  0  0  0  0  3  0  0  0  0  0  0
  -22.5250   -7.9040   21.3460 C   0  0  0  0  0  0  0  0  0  0  0  0
  -22.1040   -8.8310   20.3750 C   0  0  0  0  0  3  0  0  0  0  0  0
  -22.7970  -10.0370   20.1880 C   0  0  0  0  0  3  0  0  0  0  0  0
  -21.8050   -6.7370   21.4370 O   0  0  0  0  0  0  0  0  0  0  0  0
  -21.6820   -6.0590   22.6230 C   0  0  0  0  0  0  0  0  0  0  0  0
  -21.0770   -6.6450   23.7560 C   0  0  0  0  0  3  0  0  0  0  0  0
  -20.9050   -5.8870   24.9310 C   0  0  0  0  0  3  0  0  0  0  0  0
  -21.3300   -4.5460   24.9760 C   0  0  0  0  0  0  0  0  0  0  0  0
  -21.9290   -3.9600   23.8470 C   0  0  0  0  0  3  0  0  0  0  0  0
  -22.1020   -4.7140   22.6730 C   0  0  0  0  0  0  0  0  0  0  0  0
  -22.6590   -4.1380   21.5800 F   0  0  0  0  0  0  0  0  0  0  0  0
  -21.1600   -3.8160   26.1050 F   0  0  0  0  0  0  0  0  0  0  0  0
  -22.7460  -13.4110   21.2480 C   0  0  0  0  0  0  0  0  0  0  0  0
  -22.0760  -12.6740   22.1250 N   0  0  0  0  0  0  0  0  0  0  0  0
  -22.2670  -14.4500   20.7990 O   0  0  0  0  0  0  0  0  0  0  0  0
  -22.4730  -11.8360   22.5200 H   0  0  0  0  0  0  0  0  0  0  0  0
  -21.1500  -12.9600   22.4130 H   0  0  0  0  0  0  0  0  0  0  0  0
  -25.2920  -15.1460   20.3210 N   0  0  0  0  0  0  0  0  0  0  0  0
  -24.5140  -15.7750   20.4950 H   0  0  0  0  0  0  0  0  0  0  0  0
  -26.1050  -15.6190   19.9500 H   0  0  0  0  0  0  0  0  0  0  0  0
  -30.3110  -22.2810   21.7320 C   0  0  0  0  0  3  0  0  0  0  0  0
  -28.7480  -22.8540   20.0010 C   0  0  0  0  0  3  0  0  0  0  0  0
  -30.4130  -23.6620   22.0060 C   0  0  0  0  0  3  0  0  0  0  0  0
  -29.4630  -21.8440   20.6950 C   0  0  0  0  0  0  0  0  0  0  0  0
  -28.8860  -24.2210   20.3530 C   0  0  0  0  0  0  0  0  0  0  0  0
  -29.7180  -24.6160   21.3440 N   0  0  0  0  0  0  0  0  0  0  0  0
  -28.0090  -25.2810   19.6550 C   0  0  0  0  0  2  0  0  0  0  0  0
  -28.1420  -26.6730   20.0700 O   0  0  0  0  0  0  0  0  0  0  0  0
  -24.5180  -31.9730   23.2190 C   0  0  0  0  0  0  0  0  0  0  0  0
  -27.0000  -27.4710   20.0380 C   0  0  0  0  0  0  0  0  0  0  0  0
  -23.2440  -30.5910   21.6170 C   0  0  0  0  0  3  0  0  0  0  0  0
  -24.6310  -29.0500   20.1260 C   0  0  0  0  0  0  0  0  0  0  0  0
  -25.7690  -30.9090   21.3370 C   0  0  0  0  0  2  0  0  0  0  0  0
  -25.8160  -29.5360   20.6920 C   0  0  0  0  0  0  0  0  0  0  0  0
  -26.9980  -28.7530   20.6490 C   0  0  0  0  0  3  0  0  0  0  0  0
  -25.7970  -27.0400   19.4230 C   0  0  0  0  0  3  0  0  0  0  0  0
  -24.6200  -27.8050   19.4840 C   0  0  0  0  0  3  0  0  0  0  0  0
  -23.4000  -29.9240   20.2250 C   0  0  0  0  0  2  0  0  0  0  0  0
  -24.5320  -31.1720   22.1150 N   0  0  0  0  0  0  0  0  0  0  0  0
  -23.4590  -32.2530   23.7960 O   0  0  0  0  0  0  0  0  0  0  0  0
  -22.6140  -29.5690   22.5910 C   0  0  0  0  0  0  0  0  0  0  0  0
  -21.2980  -29.3390   22.4530 N   0  0  0  0  0  0  0  0  0  0  0  0
  -23.3070  -28.9870   23.4300 O   0  0  0  0  0  0  0  0  0  0  0  0
  -20.7980  -29.8660   21.7520 H   0  0  0  0  0  0  0  0  0  0  0  0
  -17.9680  -28.0050   22.9020 C   0  0  0  0  0  0  0  0  0  0  0  0
  -20.5010  -28.3950   23.2370 C   0  0  0  0  0  3  0  0  0  0  0  0
  -20.6860  -26.9470   22.7250 C   0  0  0  0  0  2  0  0  0  0  0  0
  -19.6330  -26.5340   21.6900 C   0  0  0  0  0  2  0  0  0  0  0  0
  -18.2260  -26.6400   22.2840 C   0  0  0  0  0  2  0  0  0  0  0  0
  -19.0360  -28.8350   23.3350 C   0  0  0  0  0  0  0  0  0  0  0  0
  -18.7420  -30.1080   23.8690 C   0  0  0  0  0  3  0  0  0  0  0  0
  -17.4110  -30.5550   23.9740 C   0  0  0  0  0  3  0  0  0  0  0  0
  -16.3570  -29.7240   23.5590 C   0  0  0  0  0  3  0  0  0  0  0  0
  -16.6350  -28.4510   23.0300 C   0  0  0  0  0  3  0  0  0  0  0  0
  -25.8300  -32.5890   23.7970 C   0  0  0  0  0  3  0  0  0  0  0  0
  -26.3930  -31.7990   25.0410 C   0  0  1  0  0  0  0  0  0  0  0  0
  -25.3390  -31.5310   26.1420 C   0  0  0  0  0  1  0  0  0  0  0  0
  -26.9710  -30.4340   24.5980 C   0  0  0  0  0  1  0  0  0  0  0  0
  -27.5610  -32.5880   25.6750 C   0  0  0  0  0  1  0  0  0  0  0  0
  -25.5450  -33.9850   24.1540 N   0  0  0  0  0  0  0  0  0  0  0  0
  -25.8640  -35.0440   23.3970 C   0  0  0  0  0  0  0  0  0  0  0  0
  -26.5030  -34.9460   22.3460 O   0  0  0  0  0  0  0  0  0  0  0  0
  -24.9800  -34.1350   24.9770 H   0  0  0  0  0  0  0  0  0  0  0  0
  -24.1600  -36.8660   23.0910 C   0  0  0  0  0  1  0  0  0  0  0  0
  -25.4040  -36.4320   23.8820 C   0  0  0  0  0  3  0  0  0  0  0  0
  -27.5560  -37.2760   24.7100 C   0  0  0  0  0  1  0  0  0  0  0  0
  -26.4520  -37.4710   23.7730 N   0  0  0  0  0  0  0  0  0  0  0  0
  -26.0620  -38.3970   23.9300 H   0  0  0  0  0  0  0  0  0  0  0  0
  1 54  1  0
  2  4  1  0
  2  7  1  0
  4  6  1  0
  4  8  1  0
  5 12  1  0
  5  3  1  0
  7  1  1  0
  7  5  1  0
  8 11  1  0
  8  3  1  0
  9  2  2  0
 10  8  1  0
 12 21  1  0
 13 21  1  0
 14 19  1  0
 15 16  1  0
 15 14  1  0
 17 16  1  0
 17 26  1  0
 17 18  1  0
 19 13  1  0
 19 18  1  0
 20 13  2  0
 21 22  1  0
 23 24  2  0
 24 43  1  0
 25 24  1  0
 25 28  1  0
 26 27  1  0
 26 23  1  0
 27 25  2  0
 28 29  1  0
 29 30  2  0
 31 34  1  0
 31 30  1  0
 32 31  2  0
 33 32  1  0
 33 28  2  0
 34 35  1  0
 35 40  2  0
 35 36  1  0
 36 37  2  0
 37 38  1  0
 38 42  1  0
 39 38  2  0
 40 39  1  0
 41 40  1  0
 43 44  1  0
 44 47  1  0
 44 46  1  0
 45 43  2  0
 48 23  1  0
 48 49  1  0
 50 48  1  0
 51 53  1  0
 52 55  2  0
 52 54  1  0
 54 51  2  0
 55 56  1  0
 56 53  2  0
 57 58  1  0
 57 55  1  0
 59 70  2  0
 60 58  1  0
 60 65  1  0
 61 69  1  0
 61 71  1  0
 62 68  1  0
 62 64  1  0
 63 69  1  0
 64 63  1  0
 65 64  2  0
 66 67  1  0
 66 60  2  0
 67 62  2  0
 68 61  1  0
 69 59  1  0
 71 73  2  0
 72 71  1  0
 74 72  1  0
 75 84  2  0
 75 80  1  0
 76 72  1  0
 76 80  1  0
 77 76  1  0
 78 79  1  0
 78 77  1  0
 79 75  1  0
 80 81  2  0
 81 82  1  0
 83 82  2  0
 84 83  1  0
 85 59  1  0
 85 90  1  0
 85 86  1  0
 86 89  1  1
 86 87  1  0
 88 86  1  0
 90 93  1  0
 91 95  1  0
 91 90  1  0
 92 91  2  0
 95 94  1  0
 97 95  1  0
 97 98  1  0
 97 96  1  0
M  ISO  4  13 100  21 100  57 101  58 101
M  END
>  <TORSDO>  (3) 
F 20

>  <SCORE>  (3) 
-13.815

>  <name>  (3) 
2

>  <ligand_id>  (3) 
2

>  <original_smiles>  (3) 
[H]c1nc(C([H])([H])Oc2c([H])c([H])c3c(c2[H])C([H])([H])N(C(=O)C([H])(N([H])C(=O)C([H])(N([H])C([H])([H])[H])C([H])([H])[H])C(C([H])([H])[H])(C([H])([H])[H])C([H])([H])[H])C([H])(C(=O)N([H])C2([H])c4c([H])c([H])c([H])c([H])c4C([H])([H])C([H])([H])C2([H])[H])C3([H])[H])c([H])c(C([H])([H])N2C(=O)C([H])(C([H])([H])[H])[N+]([H])([H])C([H])([H])C2([H])C([H])([H])N([H])C(=O)N2C([H])([H])C([H])([H])C([H])([H])C([H])(n3nc(-c4c([H])c([H])c(Oc5c([H])c([H])c(F)c([H])c5F)c([H])c4[H])c(C(=O)N([H])[H])c3N([H])[H])C2([H])[H])c1[H]

>  <smiles>  (3) 
[H]c1nc(C([H])([H])Oc2c([H])c([H])c3c(c2[H])C([H])([H])N(C(=O)C([H])(N([H])C(=O)C([H])(N([H])C([H])([H])[H])C([H])([H])[H])C(C([H])([H])[H])(C([H])([H])[H])C([H])([H])[H])C([H])(C(=O)N([H])C2([H])c4c([H])c([H])c([H])c([H])c4C([H])([H])C([H])([H])C2([H])[H])C3([H])[H])c([H])c(C([H])([H])N2C(=O)C([H])(C([H])([H])[H])[N+]([H])([H])C([H])([H])C2([H])C([H])([H])N([H])C(=O)N2C([H])([H])C([H])([H])C([H])([H])C([H])(n3nc(-c4c([H])c([H])c(Oc5c([H])c([H])c(F)c([H])c5F)c([H])c4[H])c(C(=O)N([H])[H])c3N([H])[H])C2([H])[H])c1[H]

$$$$
3:0:0
     RDKit          3D

 95104  0  0  1  0  0  0  0  0999 V2000
  -28.9390  -22.7820   21.4080 C   0  0  0  0  0  3  0  0  0  0  0  0
  -29.6150  -22.2460   19.1370 C   0  0  0  0  0  3  0  0  0  0  0  0
  -29.1480  -24.1550   21.1520 C   0  0  0  0  0  3  0  0  0  0  0  0
  -29.8330  -23.6180   18.8840 C   0  0  0  0  0  3  0  0  0  0  0  0
  -29.1740  -21.8110   20.4070 C   0  0  0  0  0  0  0  0  0  0  0  0
  -29.6000  -24.5850   19.8840 C   0  0  0  0  0  0  0  0  0  0  0  0
  -30.0700  -19.3630   20.3400 C   0  0  0  0  0  2  0  0  0  0  0  0
  -27.5940  -19.8530   20.0700 C   0  0  0  0  0  2  0  0  0  0  0  0
  -28.3770  -17.5120   20.0100 C   0  0  0  0  0  2  0  0  0  0  0  0
  -28.9140  -20.3300   20.7150 C   0  0  0  0  0  3  0  0  0  0  0  0
  -29.7230  -17.8850   20.6710 C   0  0  0  0  0  3  0  0  0  0  0  0
  -27.3080  -18.4470   20.4220 N   0  0  0  0  0  4  0  0  0  0  0  0
  -26.4440  -18.1660   19.9870 H   0  0  0  0  0  0  0  0  0  0  0  0
  -27.1700  -18.3820   21.4180 H   0  0  0  0  0  0  0  0  0  0  0  0
  -30.8940  -16.9360   20.2780 C   0  0  0  0  0  2  0  0  0  0  0  0
  -31.3710  -14.5770   20.0480 C   0  0  0  0  0  0  0  0  0  0  0  0
  -30.9080  -12.4410   18.9030 C   0  0  0  0  0  2  0  0  0  0  0  0
  -29.9400  -12.6650   17.7240 C   0  0  0  0  0  2  0  0  0  0  0  0
  -28.4800  -12.5720   18.2050 C   0  0  0  0  0  2  0  0  0  0  0  0
  -28.2100  -13.4530   19.4530 C   0  0  0  0  0  3  0  0  0  0  0  0
  -29.2880  -13.2300   20.5380 C   0  0  0  0  0  2  0  0  0  0  0  0
  -30.6120  -13.4520   19.9320 N   0  0  0  0  0  0  0  0  0  0  0  0
  -32.3980  -14.7570   19.3830 O   0  0  0  0  0  0  0  0  0  0  0  0
  -31.3100  -15.4710   22.2520 C   0  0  0  0  0  1  0  0  0  0  0  0
  -30.8930  -15.5650   20.8460 N   0  0  0  0  0  0  0  0  0  0  0  0
  -25.8670  -14.1560   20.2530 C   0  0  0  0  0  0  0  0  0  0  0  0
  -24.7810  -13.4250   20.6580 C   0  0  0  0  0  0  0  0  0  0  0  0
  -25.1840  -12.0560   20.5990 C   0  0  0  0  0  0  0  0  0  0  0  0
  -26.8640  -13.2320   19.9770 N   0  0  0  0  0  0  0  0  0  0  0  0
  -26.4580  -11.9640   20.2410 N   0  0  0  0  0  0  0  0  0  0  0  0
  -24.4120  -10.8240   20.8070 C   0  0  0  0  0  0  0  0  0  0  0  0
  -24.8010   -9.8620   21.7660 C   0  0  0  0  0  3  0  0  0  0  0  0
  -24.0330   -8.6930   21.9600 C   0  0  0  0  0  3  0  0  0  0  0  0
  -22.8640   -8.4770   21.1940 C   0  0  0  0  0  0  0  0  0  0  0  0
  -22.4950   -9.4250   20.2230 C   0  0  0  0  0  3  0  0  0  0  0  0
  -23.2630  -10.5850   20.0270 C   0  0  0  0  0  3  0  0  0  0  0  0
  -22.0710   -7.3610   21.2970 O   0  0  0  0  0  0  0  0  0  0  0  0
  -21.9160   -6.6940   22.4850 C   0  0  0  0  0  0  0  0  0  0  0  0
  -21.4660   -7.3480   23.6530 C   0  0  0  0  0  3  0  0  0  0  0  0
  -21.2550   -6.6100   24.8350 C   0  0  0  0  0  3  0  0  0  0  0  0
  -21.4850   -5.2210   24.8490 C   0  0  0  0  0  0  0  0  0  0  0  0
  -21.9300   -4.5690   23.6860 C   0  0  0  0  0  3  0  0  0  0  0  0
  -22.1430   -5.3030   22.5070 C   0  0  0  0  0  0  0  0  0  0  0  0
  -22.5510   -4.6660   21.3820 F   0  0  0  0  0  0  0  0  0  0  0  0
  -21.2750   -4.5100   25.9810 F   0  0  0  0  0  0  0  0  0  0  0  0
  -23.4170  -13.9590   20.9840 C   0  0  0  0  0  0  0  0  0  0  0  0
  -22.7120  -13.3110   21.9030 N   0  0  0  0  0  0  0  0  0  0  0  0
  -22.9880  -14.9850   20.4580 O   0  0  0  0  0  0  0  0  0  0  0  0
  -23.0730  -12.4770   22.3410 H   0  0  0  0  0  0  0  0  0  0  0  0
  -21.7990  -13.6520   22.1670 H   0  0  0  0  0  0  0  0  0  0  0  0
  -26.0860  -15.5190   20.0790 N   0  0  0  0  0  0  0  0  0  0  0  0
  -25.3210  -16.1820   20.1440 H   0  0  0  0  0  0  0  0  0  0  0  0
  -26.8820  -15.8790   19.5670 H   0  0  0  0  0  0  0  0  0  0  0  0
  -29.9410  -26.0470   19.6050 C   0  0  0  0  0  2  0  0  0  0  0  0
  -29.4740  -26.9810   20.5840 O   0  0  0  0  0  0  0  0  0  0  0  0
  -24.9590  -31.6800   23.3790 C   0  0  0  0  0  0  0  0  0  0  0  0
  -28.2190  -27.5430   20.4740 C   0  0  0  0  0  0  0  0  0  0  0  0
  -24.0120  -30.2200   21.6170 C   0  0  0  0  0  3  0  0  0  0  0  0
  -25.7030  -28.8340   20.3010 C   0  0  0  0  0  0  0  0  0  0  0  0
  -26.5020  -30.7920   21.6360 C   0  0  0  0  0  2  0  0  0  0  0  0
  -26.7550  -29.4420   20.9950 C   0  0  0  0  0  0  0  0  0  0  0  0
  -28.0080  -28.8010   21.0860 C   0  0  0  0  0  3  0  0  0  0  0  0
  -27.1390  -26.9300   19.7970 C   0  0  0  0  0  3  0  0  0  0  0  0
  -25.8880  -27.5750   19.7030 C   0  0  0  0  0  3  0  0  0  0  0  0
  -24.3910  -29.5860   20.2500 C   0  0  0  0  0  2  0  0  0  0  0  0
  -25.1700  -30.9110   22.2720 N   0  0  0  0  0  0  0  0  0  0  0  0
  -23.8180  -31.8490   23.8320 O   0  0  0  0  0  0  0  0  0  0  0  0
  -23.3740  -29.1280   22.5060 C   0  0  0  0  0  0  0  0  0  0  0  0
  -22.0870  -28.8310   22.2570 N   0  0  0  0  0  0  0  0  0  0  0  0
  -24.0350  -28.5510   23.3740 O   0  0  0  0  0  0  0  0  0  0  0  0
  -21.6120  -29.3520   21.5330 H   0  0  0  0  0  0  0  0  0  0  0  0
  -18.8020  -27.3460   22.4430 C   0  0  0  0  0  0  0  0  0  0  0  0
  -21.2950  -27.8110   22.9430 C   0  0  0  0  0  3  0  0  0  0  0  0
  -21.5700  -26.4080   22.3560 C   0  0  0  0  0  2  0  0  0  0  0  0
  -20.5910  -26.0170   21.2450 C   0  0  0  0  0  2  0  0  0  0  0  0
  -19.1500  -26.0290   21.7670 C   0  0  0  0  0  2  0  0  0  0  0  0
  -19.8090  -28.1890   22.9800 C   0  0  0  0  0  0  0  0  0  0  0  0
  -19.4340  -29.4190   23.5640 C   0  0  0  0  0  3  0  0  0  0  0  0
  -18.0820  -29.8060   23.6180 C   0  0  0  0  0  3  0  0  0  0  0  0
  -17.0880  -28.9590   23.1010 C   0  0  0  0  0  3  0  0  0  0  0  0
  -17.4480  -27.7310   22.5180 C   0  0  0  0  0  3  0  0  0  0  0  0
  -26.1340  -32.3980   24.1140 C   0  0  0  0  0  3  0  0  0  0  0  0
  -26.5910  -31.6580   25.4300 C   0  0  1  0  0  0  0  0  0  0  0  0
  -25.4270  -31.3090   26.3850 C   0  0  0  0  0  1  0  0  0  0  0  0
  -27.3320  -30.3430   25.0880 C   0  0  0  0  0  1  0  0  0  0  0  0
  -27.5970  -32.5410   26.2070 C   0  0  0  0  0  1  0  0  0  0  0  0
  -25.7000  -33.7710   24.4090 N   0  0  0  0  0  0  0  0  0  0  0  0
  -26.0080  -34.8420   23.6660 C   0  0  0  0  0  0  0  0  0  0  0  0
  -26.7600  -34.7870   22.6890 O   0  0  0  0  0  0  0  0  0  0  0  0
  -25.0410  -33.8810   25.1670 H   0  0  0  0  0  0  0  0  0  0  0  0
  -24.1720  -36.4870   23.1760 C   0  0  0  0  0  1  0  0  0  0  0  0
  -25.3840  -36.1910   24.0730 C   0  0  0  0  0  3  0  0  0  0  0  0
  -27.3880  -37.2430   25.0220 C   0  0  0  0  0  1  0  0  0  0  0  0
  -26.3360  -37.3210   24.0120 N   0  0  0  0  0  0  0  0  0  0  0  0
  -25.8500  -38.2070   24.1280 H   0  0  0  0  0  0  0  0  0  0  0  0
  2  5  1  0
  3  1  1  0
  4  2  2  0
  4  6  1  0
  5  1  2  0
  6  3  2  0
  7 11  1  0
  7 10  1  0
  8 12  1  0
  8 10  1  0
  9 12  1  0
  9 11  1  0
 10  5  1  0
 11 15  1  0
 12 14  1  0
 13 12  1  0
 15 25  1  0
 16 25  1  0
 17 22  1  0
 18 19  1  0
 18 17  1  0
 20 19  1  0
 20 29  1  0
 20 21  1  0
 22 16  1  0
 22 21  1  0
 23 16  2  0
 25 24  1  0
 26 27  2  0
 27 46  1  0
 28 27  1  0
 28 31  1  0
 29 30  1  0
 29 26  1  0
 30 28  2  0
 31 32  1  0
 32 33  2  0
 34 37  1  0
 34 33  1  0
 35 34  2  0
 36 35  1  0
 36 31  2  0
 37 38  1  0
 38 43  2  0
 38 39  1  0
 39 40  2  0
 40 41  1  0
 41 45  1  0
 42 41  2  0
 43 42  1  0
 44 43  1  0
 46 47  1  0
 47 50  1  0
 47 49  1  0
 48 46  2  0
 51 52  1  0
 51 26  1  0
 53 51  1  0
 54  6  1  0
 54 55  1  0
 56 67  2  0
 57 55  1  0
 57 62  1  0
 58 66  1  0
 58 68  1  0
 59 61  1  0
 60 66  1  0
 61 62  2  0
 61 60  1  0
 63 57  2  0
 64 63  1  0
 64 59  2  0
 65 59  1  0
 65 58  1  0
 66 56  1  0
 68 70  2  0
 69 68  1  0
 71 69  1  0
 72 81  2  0
 72 77  1  0
 73 69  1  0
 73 77  1  0
 74 73  1  0
 75 76  1  0
 75 74  1  0
 76 72  1  0
 77 78  2  0
 78 79  1  0
 80 79  2  0
 81 80  1  0
 82 56  1  0
 82 87  1  0
 82 83  1  0
 83 86  1  1
 83 84  1  0
 85 83  1  0
 87 90  1  0
 88 92  1  0
 88 87  1  0
 89 88  2  0
 92 91  1  0
 94 92  1  0
 94 95  1  0
 94 93  1  0
M  ISO  4  16 100  25 100  54 101  55 101
M  END
>  <TORSDO>  (4) 
F 19

>  <SCORE>  (4) 
-12.477

>  <name>  (4) 
3

>  <ligand_id>  (4) 
3

>  <original_smiles>  (4) 
[H]c1c([H])c([H])c2c(c1[H])C([H])([H])C([H])([H])C([H])([H])C2([H])N([H])C(=O)C1([H])N(C(=O)C([H])(N([H])C(=O)C([H])(N([H])C([H])([H])[H])C([H])([H])[H])C(C([H])([H])[H])(C([H])([H])[H])C([H])([H])[H])C([H])([H])c2c([H])c(OC([H])([H])c3c([H])c([H])c(C4([H])C([H])([H])C([H])(C([H])([H])N(C(=O)N5C([H])([H])C([H])([H])C([H])([H])C([H])(n6nc(-c7c([H])c([H])c(Oc8c([H])c([H])c(F)c([H])c8F)c([H])c7[H])c(C(=O)N([H])[H])c6N([H])[H])C5([H])[H])C([H])([H])[H])C([H])([H])[N+]([H])([H])C4([H])[H])c([H])c3[H])c([H])c([H])c2C1([H])[H]

>  <smiles>  (4) 
[H]c1c([H])c([H])c2c(c1[H])C([H])([H])C([H])([H])C([H])([H])C2([H])N([H])C(=O)C1([H])N(C(=O)C([H])(N([H])C(=O)C([H])(N([H])C([H])([H])[H])C([H])([H])[H])C(C([H])([H])[H])(C([H])([H])[H])C([H])([H])[H])C([H])([H])c2c([H])c(OC([H])([H])c3c([H])c([H])c(C4([H])C([H])([H])C([H])(C([H])([H])N(C(=O)N5C([H])([H])C([H])([H])C([H])([H])C([H])(n6nc(-c7c([H])c([H])c(Oc8c([H])c([H])c(F)c([H])c8F)c([H])c7[H])c(C(=O)N([H])[H])c6N([H])[H])C5([H])[H])C([H])([H])[H])C([H])([H])[N+]([H])([H])C4([H])[H])c([H])c3[H])c([H])c([H])c2C1([H])[H]

$$$$
4:0:0
     RDKit          3D

 98107  0  0  1  0  0  0  0  0999 V2000
  -33.3810  -22.7920   20.8810 C   0  0  0  0  0  2  0  0  0  0  0  0
  -31.8690  -26.1340   19.7210 C   0  0  0  0  0  3  0  0  0  0  0  0
  -32.8320  -25.1770   20.0990 C   0  0  0  0  0  3  0  0  0  0  0  0
  -30.1920  -24.4120   19.9500 C   0  0  0  0  0  3  0  0  0  0  0  0
  -30.5110  -25.7520   19.6600 C   0  0  0  0  0  0  0  0  0  0  0  0
  -32.4110  -23.8710   20.4060 C   0  0  0  0  0  0  0  0  0  0  0  0
  -31.1110  -23.4940   20.3240 N   0  0  0  0  0  0  0  0  0  0  0  0
  -29.4060  -26.7420   19.2880 C   0  0  0  0  0  2  0  0  0  0  0  0
  -28.3120  -26.5960   20.1780 O   0  0  0  0  0  0  0  0  0  0  0  0
  -24.6070  -31.8350   23.1920 C   0  0  0  0  0  0  0  0  0  0  0  0
  -27.2200  -27.4190   20.0620 C   0  0  0  0  0  0  0  0  0  0  0  0
  -23.3780  -30.4350   21.5630 C   0  0  0  0  0  3  0  0  0  0  0  0
  -24.8180  -28.9070   20.1070 C   0  0  0  0  0  0  0  0  0  0  0  0
  -25.8970  -30.8070   21.3220 C   0  0  0  0  0  2  0  0  0  0  0  0
  -25.9820  -29.4390   20.6770 C   0  0  0  0  0  0  0  0  0  0  0  0
  -27.1910  -28.7020   20.6520 C   0  0  0  0  0  3  0  0  0  0  0  0
  -26.0420  -26.8960   19.4930 C   0  0  0  0  0  3  0  0  0  0  0  0
  -24.8430  -27.6350   19.5070 C   0  0  0  0  0  3  0  0  0  0  0  0
  -23.5670  -29.7540   20.1790 C   0  0  0  0  0  2  0  0  0  0  0  0
  -24.6480  -31.0370   22.0870 N   0  0  0  0  0  0  0  0  0  0  0  0
  -23.5340  -32.1070   23.7480 O   0  0  0  0  0  0  0  0  0  0  0  0
  -22.7320  -29.4180   22.5330 C   0  0  0  0  0  0  0  0  0  0  0  0
  -21.4050  -29.2420   22.4210 N   0  0  0  0  0  0  0  0  0  0  0  0
  -23.4230  -28.7910   23.3390 O   0  0  0  0  0  0  0  0  0  0  0  0
  -20.9130  -29.7980   21.7370 H   0  0  0  0  0  0  0  0  0  0  0  0
  -18.0310  -28.0600   22.9480 C   0  0  0  0  0  0  0  0  0  0  0  0
  -20.5910  -28.3080   23.1990 C   0  0  0  0  0  3  0  0  0  0  0  0
  -20.6830  -26.8770   22.6230 C   0  0  0  0  0  2  0  0  0  0  0  0
  -19.5730  -26.5600   21.6160 C   0  0  0  0  0  2  0  0  0  0  0  0
  -18.1970  -26.7090   22.2740 C   0  0  0  0  0  2  0  0  0  0  0  0
  -19.1550  -28.8190   23.3690 C   0  0  0  0  0  0  0  0  0  0  0  0
  -18.9450  -30.0830   23.9590 C   0  0  0  0  0  3  0  0  0  0  0  0
  -17.6430  -30.5880   24.1340 C   0  0  0  0  0  3  0  0  0  0  0  0
  -16.5330  -29.8240   23.7320 C   0  0  0  0  0  3  0  0  0  0  0  0
  -16.7280  -28.5610   23.1440 C   0  0  0  0  0  3  0  0  0  0  0  0
  -25.9030  -32.4590   23.7980 C   0  0  0  0  0  3  0  0  0  0  0  0
  -25.6000  -33.8530   24.1470 N   0  0  0  0  0  0  0  0  0  0  0  0
  -25.9280  -34.9130   23.3970 C   0  0  0  0  0  0  0  0  0  0  0  0
  -26.5880  -34.8210   22.3570 O   0  0  0  0  0  0  0  0  0  0  0  0
  -25.0080  -33.9990   24.9520 H   0  0  0  0  0  0  0  0  0  0  0  0
  -24.2020  -36.7150   23.0720 C   0  0  0  0  0  1  0  0  0  0  0  0
  -25.4450  -36.2960   23.8730 C   0  0  0  0  0  3  0  0  0  0  0  0
  -27.5920  -37.1570   24.6980 C   0  0  0  0  0  1  0  0  0  0  0  0
  -26.4800  -37.3500   23.7720 N   0  0  0  0  0  0  0  0  0  0  0  0
  -26.0750  -38.2650   23.9490 H   0  0  0  0  0  0  0  0  0  0  0  0
  -26.4460  -31.6730   25.0540 C   0  0  1  0  0  0  0  0  0  0  0  0
  -25.3740  -31.4230   26.1400 C   0  0  0  0  0  1  0  0  0  0  0  0
  -27.0220  -30.3020   24.6290 C   0  0  0  0  0  1  0  0  0  0  0  0
  -27.6140  -32.4570   25.6980 C   0  0  0  0  0  1  0  0  0  0  0  0
  -32.5830  -21.8490   21.6870 N   0  0  0  0  0  4  0  0  0  0  0  0
  -32.5890  -22.1380   22.6500 H   0  0  0  0  0  0  0  0  0  0  0  0
  -31.6680  -22.0850   21.3140 H   0  0  0  0  0  0  0  0  0  0  0  0
  -33.0920  -19.9190   20.1390 C   0  0  0  0  0  2  0  0  0  0  0  0
  -32.5560  -18.4950   20.0610 C   0  0  0  0  0  2  0  0  0  0  0  0
  -32.7940  -20.3830   21.5610 C   0  0  0  0  0  3  0  0  0  0  0  0
  -31.4890  -19.6160   21.8610 C   0  0  0  0  0  3  0  0  0  0  0  0
  -31.2120  -19.3190   23.3420 C   0  0  0  0  0  1  0  0  0  0  0  0
  -31.5220  -18.3610   21.0960 N   0  0  0  0  0  0  0  0  0  0  0  0
  -30.1830  -18.0700   20.5630 C   0  0  0  0  0  2  0  0  0  0  0  0
  -30.0640  -16.7810   19.7180 C   0  0  0  0  0  2  0  0  0  0  0  0
  -30.6050  -14.4540   20.3480 C   0  0  0  0  0  0  0  0  0  0  0  0
  -30.2610  -12.2520   19.3230 C   0  0  0  0  0  2  0  0  0  0  0  0
  -29.3530  -12.4940   18.0970 C   0  0  0  0  0  2  0  0  0  0  0  0
  -27.8670  -12.4150   18.5130 C   0  0  0  0  0  2  0  0  0  0  0  0
  -27.5380  -13.2360   19.7930 C   0  0  0  0  0  3  0  0  0  0  0  0
  -28.5980  -13.0270   20.9010 C   0  0  0  0  0  2  0  0  0  0  0  0
  -29.9230  -13.2780   20.3180 N   0  0  0  0  0  0  0  0  0  0  0  0
  -31.7720  -14.5680   19.9680 O   0  0  0  0  0  0  0  0  0  0  0  0
  -29.8330  -15.5410   20.4790 N   0  0  0  0  0  0  0  0  0  0  0  0
  -28.8770  -15.3710   20.7550 H   0  0  0  0  0  0  0  0  0  0  0  0
  -25.1400  -13.8360   20.5030 C   0  0  0  0  0  0  0  0  0  0  0  0
  -24.0770  -13.0650   20.8840 C   0  0  0  0  0  0  0  0  0  0  0  0
  -24.5440  -11.7130   20.8630 C   0  0  0  0  0  0  0  0  0  0  0  0
  -26.1840  -12.9580   20.2720 N   0  0  0  0  0  0  0  0  0  0  0  0
  -25.8320  -11.6750   20.5460 N   0  0  0  0  0  0  0  0  0  0  0  0
  -23.8230  -10.4490   21.0650 C   0  0  0  0  0  0  0  0  0  0  0  0
  -24.2700   -9.4820   21.9910 C   0  0  0  0  0  3  0  0  0  0  0  0
  -23.5470   -8.2870   22.1790 C   0  0  0  0  0  3  0  0  0  0  0  0
  -22.3620   -8.0500   21.4400 C   0  0  0  0  0  0  0  0  0  0  0  0
  -21.9370   -9.0060   20.5010 C   0  0  0  0  0  3  0  0  0  0  0  0
  -22.6630  -10.1920   20.3130 C   0  0  0  0  0  3  0  0  0  0  0  0
  -21.6110   -6.9020   21.5340 O   0  0  0  0  0  0  0  0  0  0  0  0
  -21.5880   -6.1510   22.6840 C   0  0  0  0  0  0  0  0  0  0  0  0
  -21.1950   -6.6950   23.9230 C   0  0  0  0  0  3  0  0  0  0  0  0
  -21.1180   -5.8720   25.0660 C   0  0  0  0  0  3  0  0  0  0  0  0
  -21.4280   -4.5010   24.9680 C   0  0  0  0  0  0  0  0  0  0  0  0
  -21.8140   -3.9530   23.7310 C   0  0  0  0  0  3  0  0  0  0  0  0
  -21.8900   -4.7740   22.5930 C   0  0  0  0  0  0  0  0  0  0  0  0
  -22.2440   -4.2370   21.4010 F   0  0  0  0  0  0  0  0  0  0  0  0
  -21.3430   -3.7080   26.0620 F   0  0  0  0  0  0  0  0  0  0  0  0
  -22.6810  -13.5390   21.1690 C   0  0  0  0  0  0  0  0  0  0  0  0
  -21.9700  -12.8430   22.0480 N   0  0  0  0  0  0  0  0  0  0  0  0
  -22.2360  -14.5610   20.6490 O   0  0  0  0  0  0  0  0  0  0  0  0
  -22.3440  -12.0140   22.4870 H   0  0  0  0  0  0  0  0  0  0  0  0
  -21.0380  -13.1510   22.2900 H   0  0  0  0  0  0  0  0  0  0  0  0
  -25.2990  -15.2040   20.3090 N   0  0  0  0  0  0  0  0  0  0  0  0
  -24.5190  -15.8500   20.3540 H   0  0  0  0  0  0  0  0  0  0  0  0
  -26.1500  -15.6350   19.9690 H   0  0  0  0  0  0  0  0  0  0  0  0
  1 50  1  0
  2  3  1  0
  3  6  2  0
  4  7  2  0
  5  2  2  0
  5  4  1  0
  6  1  1  0
  7  6  1  0
  8  5  1  0
  8  9  1  0
 10 21  2  0
 11  9  1  0
 11 16  1  0
 12 20  1  0
 12 22  1  0
 13 19  1  0
 13 15  1  0
 14 20  1  0
 15 14  1  0
 16 15  2  0
 17 18  1  0
 17 11  2  0
 18 13  2  0
 19 12  1  0
 20 10  1  0
 22 24  2  0
 23 22  1  0
 25 23  1  0
 26 35  2  0
 26 31  1  0
 27 23  1  0
 27 31  1  0
 28 27  1  0
 29 30  1  0
 29 28  1  0
 30 26  1  0
 31 32  2  0
 32 33  1  0
 34 33  2  0
 35 34  1  0
 36 10  1  0
 36 37  1  0
 36 46  1  0
 37 40  1  0
 38 42  1  0
 38 37  1  0
 39 38  2  0
 42 41  1  0
 44 42  1  0
 44 45  1  0
 44 43  1  0
 46 49  1  1
 46 47  1  0
 48 46  1  0
 50 51  1  0
 52 50  1  0
 53 55  1  0
 54 53  1  0
 54 58  1  0
 55 50  1  0
 55 56  1  0
 56 57  1  0
 58 56  1  0
 59 58  1  0
 60 69  1  0
 60 59  1  0
 61 69  1  0
 62 67  1  0
 63 64  1  0
 63 62  1  0
 65 64  1  0
 65 74  1  0
 65 66  1  0
 67 61  1  0
 67 66  1  0
 68 61  2  0
 69 70  1  0
 71 72  2  0
 72 91  1  0
 73 72  1  0
 73 76  1  0
 74 71  1  0
 74 75  1  0
 75 73  2  0
 76 77  1  0
 77 78  2  0
 79 82  1  0
 79 78  1  0
 80 79  2  0
 81 80  1  0
 81 76  2  0
 82 83  1  0
 83 84  1  0
 84 85  2  0
 86 85  1  0
 86 90  1  0
 87 86  2  0
 88 83  2  0
 88 87  1  0
 89 88  1  0
 91 92  1  0
 92 95  1  0
 92 94  1  0
 93 91  2  0
 96 97  1  0
 96 71  1  0
 98 96  1  0
M  ISO  4   8 101   9 101  61 100  69 100
M  END
>  <TORSDO>  (5) 
F 22

>  <SCORE>  (5) 
-12.359

>  <name>  (5) 
4

>  <ligand_id>  (5) 
4

>  <original_smiles>  (5) 
[H]c1nc(C([H])([H])[N+]([H])([H])C2([H])C([H])([H])C([H])([H])N(C([H])([H])C([H])([H])N([H])C(=O)N3C([H])([H])C([H])([H])C([H])([H])C([H])(n4nc(-c5c([H])c([H])c(Oc6c([H])c([H])c(F)c([H])c6F)c([H])c5[H])c(C(=O)N([H])[H])c4N([H])[H])C3([H])[H])C2([H])C([H])([H])[H])c([H])c([H])c1C([H])([H])Oc1c([H])c([H])c2c(c1[H])C([H])([H])N(C(=O)C([H])(N([H])C(=O)C([H])(N([H])C([H])([H])[H])C([H])([H])[H])C(C([H])([H])[H])(C([H])([H])[H])C([H])([H])[H])C([H])(C(=O)N([H])C1([H])c3c([H])c([H])c([H])c([H])c3C([H])([H])C([H])([H])C1([H])[H])C2([H])[H]

>  <smiles>  (5) 
[H]c1nc(C([H])([H])[N+]([H])([H])C2([H])C([H])([H])C([H])([H])N(C([H])([H])C([H])([H])N([H])C(=O)N3C([H])([H])C([H])([H])C([H])([H])C([H])(n4nc(-c5c([H])c([H])c(Oc6c([H])c([H])c(F)c([H])c6F)c([H])c5[H])c(C(=O)N([H])[H])c4N([H])[H])C3([H])[H])C2([H])C([H])([H])[H])c([H])c([H])c1C([H])([H])Oc1c([H])c([H])c2c(c1[H])C([H])([H])N(C(=O)C([H])(N([H])C(=O)C([H])(N([H])C([H])([H])[H])C([H])([H])[H])C(C([H])([H])[H])(C([H])([H])[H])C([H])([H])[H])C([H])(C(=O)N([H])C1([H])c3c([H])c([H])c([H])c([H])c3C([H])([H])C([H])([H])C1([H])[H])C2([H])[H]

$$$$
5:0:0
     RDKit          3D

 95104  0  0  1  0  0  0  0  0999 V2000
  -30.3530  -23.0520   21.0760 C   0  0  0  0  0  2  0  0  0  0  0  0
  -27.9840  -22.3890   20.7570 C   0  0  0  0  0  2  0  0  0  0  0  0
  -30.6680  -21.5210   20.6600 C   0  0  0  0  0  2  0  0  0  0  0  0
  -28.4340  -21.1490   21.6650 C   0  0  0  0  0  2  0  0  0  0  0  0
  -28.9530  -23.6250   20.5760 C   0  0  0  0  0  3  0  0  0  0  0  0
  -29.8010  -20.4080   21.3900 C   0  0  0  0  0  3  0  0  0  0  0  0
  -31.6640  -18.5430   21.5030 C   0  0  0  0  0  1  0  0  0  0  0  0
  -30.1260  -18.7320   21.5210 C   0  0  0  0  0  3  0  0  0  0  0  0
  -30.5960  -14.8270   20.6120 C   0  0  0  0  0  0  0  0  0  0  0  0
  -30.4570  -12.5440   19.4990 C   0  0  0  0  0  2  0  0  0  0  0  0
  -29.5120  -12.5200   18.2730 C   0  0  0  0  0  2  0  0  0  0  0  0
  -28.0490  -12.2880   18.6850 C   0  0  0  0  0  2  0  0  0  0  0  0
  -27.6340  -13.2070   19.8550 C   0  0  0  0  0  3  0  0  0  0  0  0
  -28.6770  -13.1120   20.9860 C   0  0  0  0  0  2  0  0  0  0  0  0
  -29.9770  -13.5760   20.4690 N   0  0  0  0  0  0  0  0  0  0  0  0
  -31.6840  -14.9860   20.0450 O   0  0  0  0  0  0  0  0  0  0  0  0
  -27.9560  -16.2870   22.4590 C   0  0  0  0  0  2  0  0  0  0  0  0
  -29.4040  -15.7830   22.6010 C   0  0  0  0  0  2  0  0  0  0  0  0
  -27.9600  -17.0800   21.1250 C   0  0  0  0  0  3  0  0  0  0  0  0
  -29.4720  -17.3480   20.8190 C   0  0  0  0  0  3  0  0  0  0  0  0
  -29.9590  -15.9170   21.2580 N   0  0  0  0  0  0  0  0  0  0  0  0
  -25.2280  -13.7800   20.5390 C   0  0  0  0  0  0  0  0  0  0  0  0
  -24.1630  -13.0140   20.9200 C   0  0  0  0  0  0  0  0  0  0  0  0
  -24.6330  -11.6720   20.8810 C   0  0  0  0  0  0  0  0  0  0  0  0
  -26.2830  -12.9110   20.3270 N   0  0  0  0  0  0  0  0  0  0  0  0
  -25.9310  -11.6330   20.5950 N   0  0  0  0  0  0  0  0  0  0  0  0
  -23.9040  -10.4150   21.0450 C   0  0  0  0  0  0  0  0  0  0  0  0
  -24.3590   -9.4090   21.9220 C   0  0  0  0  0  3  0  0  0  0  0  0
  -23.6260   -8.2140   22.0750 C   0  0  0  0  0  3  0  0  0  0  0  0
  -22.4250   -8.0210   21.3520 C   0  0  0  0  0  0  0  0  0  0  0  0
  -21.9890   -9.0180   20.4630 C   0  0  0  0  0  3  0  0  0  0  0  0
  -22.7240  -10.2050   20.3070 C   0  0  0  0  0  3  0  0  0  0  0  0
  -21.6610   -6.8800   21.4230 O   0  0  0  0  0  0  0  0  0  0  0  0
  -21.6800   -6.0680   22.5290 C   0  0  0  0  0  0  0  0  0  0  0  0
  -21.3990   -6.5610   23.8240 C   0  0  0  0  0  3  0  0  0  0  0  0
  -21.3660   -5.6770   24.9220 C   0  0  0  0  0  3  0  0  0  0  0  0
  -21.6020   -4.3040   24.7250 C   0  0  0  0  0  0  0  0  0  0  0  0
  -21.8810   -3.8120   23.4390 C   0  0  0  0  0  3  0  0  0  0  0  0
  -21.9190   -4.6920   22.3430 C   0  0  0  0  0  0  0  0  0  0  0  0
  -22.1610   -4.2090   21.1000 F   0  0  0  0  0  0  0  0  0  0  0  0
  -21.5700   -3.4540   25.7790 F   0  0  0  0  0  0  0  0  0  0  0  0
  -22.7700  -13.5050   21.1930 C   0  0  0  0  0  0  0  0  0  0  0  0
  -22.0330  -12.8030   22.0520 N   0  0  0  0  0  0  0  0  0  0  0  0
  -22.3400  -14.5390   20.6930 O   0  0  0  0  0  0  0  0  0  0  0  0
  -22.3890  -11.9670   22.4900 H   0  0  0  0  0  0  0  0  0  0  0  0
  -21.0880  -13.0920   22.2580 H   0  0  0  0  0  0  0  0  0  0  0  0
  -25.3630  -15.1290   20.3150 N   0  0  0  0  0  0  0  0  0  0  0  0
  -24.6130  -15.7840   20.5000 H   0  0  0  0  0  0  0  0  0  0  0  0
  -26.1630  -15.5440   19.8600 H   0  0  0  0  0  0  0  0  0  0  0  0
  -26.0510  -18.6300   22.0520 C   0  0  0  0  0  1  0  0  0  0  0  0
  -26.7890  -18.0760   20.8090 C   0  0  0  0  0  3  0  0  0  0  0  0
  -26.7090  -18.5410   18.2610 C   0  0  0  0  0  1  0  0  0  0  0  0
  -27.0950  -19.0630   19.6500 C   0  0  0  0  0  2  0  0  0  0  0  0
  -28.3230  -25.0970   21.0280 C   0  0  0  0  0  2  0  0  0  0  0  0
  -28.3920  -26.3830   20.2320 O   0  0  0  0  0  0  0  0  0  0  0  0
  -24.6310  -31.8550   23.2000 C   0  0  0  0  0  0  0  0  0  0  0  0
  -27.2760  -27.2630   20.1950 C   0  0  0  0  0  0  0  0  0  0  0  0
  -23.4380  -30.4740   21.5380 C   0  0  0  0  0  3  0  0  0  0  0  0
  -24.9060  -28.9080   20.1260 C   0  0  0  0  0  0  0  0  0  0  0  0
  -25.9850  -30.7680   21.3900 C   0  0  0  0  0  2  0  0  0  0  0  0
  -26.0710  -29.3920   20.7350 C   0  0  0  0  0  0  0  0  0  0  0  0
  -27.2570  -28.5860   20.7490 C   0  0  0  0  0  3  0  0  0  0  0  0
  -26.0880  -26.8410   19.5530 C   0  0  0  0  0  3  0  0  0  0  0  0
  -24.9210  -27.6400   19.5190 C   0  0  0  0  0  3  0  0  0  0  0  0
  -23.6720  -29.7970   20.1590 C   0  0  0  0  0  2  0  0  0  0  0  0
  -24.7030  -31.0520   22.0960 N   0  0  0  0  0  0  0  0  0  0  0  0
  -23.5460  -32.1390   23.7260 O   0  0  0  0  0  0  0  0  0  0  0  0
  -22.7520  -29.4620   22.4860 C   0  0  0  0  0  0  0  0  0  0  0  0
  -21.4240  -29.3020   22.3520 N   0  0  0  0  0  0  0  0  0  0  0  0
  -23.4190  -28.8230   23.3030 O   0  0  0  0  0  0  0  0  0  0  0  0
  -20.9440  -29.8640   21.6620 H   0  0  0  0  0  0  0  0  0  0  0  0
  -18.0280  -28.1380   22.8540 C   0  0  0  0  0  0  0  0  0  0  0  0
  -20.5910  -28.3710   23.1180 C   0  0  0  0  0  3  0  0  0  0  0  0
  -20.6830  -26.9370   22.5400 C   0  0  0  0  0  2  0  0  0  0  0  0
  -19.5680  -26.6160   21.5370 C   0  0  0  0  0  2  0  0  0  0  0  0
  -18.1920  -26.7780   22.1920 C   0  0  0  0  0  2  0  0  0  0  0  0
  -19.1570  -28.8870   23.2810 C   0  0  0  0  0  0  0  0  0  0  0  0
  -18.9530  -30.1490   23.8790 C   0  0  0  0  0  3  0  0  0  0  0  0
  -17.6550  -30.6590   24.0590 C   0  0  0  0  0  3  0  0  0  0  0  0
  -16.5400  -29.9100   23.6420 C   0  0  0  0  0  3  0  0  0  0  0  0
  -16.7300  -28.6490   23.0490 C   0  0  0  0  0  3  0  0  0  0  0  0
  -25.9120  -32.4760   23.8380 C   0  0  0  0  0  3  0  0  0  0  0  0
  -26.4460  -31.6610   25.0780 C   0  0  1  0  0  0  0  0  0  0  0  0
  -25.3650  -31.3770   26.1490 C   0  0  0  0  0  1  0  0  0  0  0  0
  -27.0340  -30.3010   24.6340 C   0  0  0  0  0  1  0  0  0  0  0  0
  -27.6010  -32.4380   25.7540 C   0  0  0  0  0  1  0  0  0  0  0  0
  -25.5930  -33.8580   24.2290 N   0  0  0  0  0  0  0  0  0  0  0  0
  -25.9060  -34.9440   23.5110 C   0  0  0  0  0  0  0  0  0  0  0  0
  -26.5640  -34.8890   22.4680 O   0  0  0  0  0  0  0  0  0  0  0  0
  -25.0060  -33.9730   25.0430 H   0  0  0  0  0  0  0  0  0  0  0  0
  -24.1500  -36.7280   23.2640 C   0  0  0  0  0  1  0  0  0  0  0  0
  -25.4130  -36.3080   24.0320 C   0  0  0  0  0  3  0  0  0  0  0  0
  -27.5610  -37.1790   24.8470 C   0  0  0  0  0  1  0  0  0  0  0  0
  -26.4320  -37.3780   23.9390 N   0  0  0  0  0  0  0  0  0  0  0  0
  -26.0200  -38.2860   24.1350 H   0  0  0  0  0  0  0  0  0  0  0  0
  2  4  1  0
  3  1  1  0
  3  6  1  0
  5  2  1  0
  5 54  1  0
  5  1  1  0
  6  8  1  0
  6  4  1  0
  8  7  1  0
  9 21  1  0
 10 15  1  0
 11 12  1  0
 11 10  1  0
 13 12  1  0
 13 25  1  0
 13 14  1  0
 15  9  1  0
 15 14  1  0
 16  9  2  0
 17 18  1  0
 19 51  1  0
 19 17  1  0
 20 19  1  0
 20 21  1  0
 20  8  1  0
 21 18  1  0
 22 23  2  0
 23 42  1  0
 24 23  1  0
 24 27  1  0
 25 22  1  0
 25 26  1  0
 26 24  2  0
 27 28  1  0
 28 29  2  0
 30 33  1  0
 30 29  1  0
 31 30  2  0
 32 31  1  0
 32 27  2  0
 33 34  1  0
 34 35  1  0
 35 36  2  0
 37 36  1  0
 37 41  1  0
 38 37  2  0
 39 34  2  0
 39 38  1  0
 40 39  1  0
 42 43  1  0
 43 46  1  0
 43 45  1  0
 44 42  2  0
 47 48  1  0
 47 22  1  0
 49 47  1  0
 51 50  1  0
 52 53  1  0
 53 51  1  0
 55 54  1  0
 56 67  2  0
 57 55  1  0
 57 62  1  0
 58 66  1  0
 58 68  1  0
 59 65  1  0
 59 61  1  0
 60 66  1  0
 61 62  2  0
 61 60  1  0
 63 57  2  0
 64 63  1  0
 64 59  2  0
 65 58  1  0
 66 56  1  0
 68 70  2  0
 69 68  1  0
 71 69  1  0
 72 81  2  0
 72 77  1  0
 73 69  1  0
 73 77  1  0
 74 73  1  0
 75 76  1  0
 75 74  1  0
 76 72  1  0
 77 78  2  0
 78 79  1  0
 80 79  2  0
 81 80  1  0
 82 56  1  0
 82 87  1  0
 82 83  1  0
 83 86  1  1
 83 84  1  0
 85 83  1  0
 87 90  1  0
 88 92  1  0
 88 87  1  0
 89 88  2  0
 92 91  1  0
 94 92  1  0
 94 95  1  0
 94 93  1  0
M  ISO  4   9 100  21 100  54 101  55 101
M  END
>  <TORSDO>  (6) 
F 20

>  <SCORE>  (6) 
1.919

>  <name>  (6) 
5

>  <ligand_id>  (6) 
5

>  <original_smiles>  (6) 
[H]c1c([H])c([H])c2c(c1[H])C([H])([H])C([H])([H])C([H])([H])C2([H])N([H])C(=O)C1([H])N(C(=O)C([H])(N([H])C(=O)C([H])(N([H])C([H])([H])[H])C([H])([H])[H])C(C([H])([H])[H])(C([H])([H])[H])C([H])([H])[H])C([H])([H])c2c([H])c(OC([H])([H])C3([H])C([H])([H])C([H])([H])C([H])(C([H])(C([H])([H])[H])C4([H])N(C(=O)N5C([H])([H])C([H])([H])C([H])([H])C([H])(n6nc(-c7c([H])c([H])c(Oc8c([H])c([H])c(F)c([H])c8F)c([H])c7[H])c(C(=O)N([H])[H])c6N([H])[H])C5([H])[H])C([H])([H])C([H])([H])C4([H])C([H])(C([H])([H])[H])C([H])([H])C([H])([H])[H])C([H])([H])C3([H])[H])c([H])c([H])c2C1([H])[H]

>  <smiles>  (6) 
[H]c1c([H])c([H])c2c(c1[H])C([H])([H])C([H])([H])C([H])([H])C2([H])N([H])C(=O)C1([H])N(C(=O)C([H])(N([H])C(=O)C([H])(N([H])C([H])([H])[H])C([H])([H])[H])C(C([H])([H])[H])(C([H])([H])[H])C([H])([H])[H])C([H])([H])c2c([H])c(OC([H])([H])C3([H])C([H])([H])C([H])([H])C([H])(C([H])(C([H])([H])[H])C4([H])N(C(=O)N5C([H])([H])C([H])([H])C([H])([H])C([H])(n6nc(-c7c([H])c([H])c(Oc8c([H])c([H])c(F)c([H])c8F)c([H])c7[H])c(C(=O)N([H])[H])c6N([H])[H])C5([H])[H])C([H])([H])C([H])([H])C4([H])C([H])(C([H])([H])[H])C([H])([H])C([H])([H])[H])C([H])([H])C3([H])[H])c([H])c([H])c2C1([H])[H]

$$$$
6:0:0
     RDKit          3D

 97105  0  0  1  0  0  0  0  0999 V2000
  -30.1400  -21.4310   24.5430 C   0  0  0  0  0  2  0  0  0  0  0  0
  -30.5560  -19.9630   24.7100 C   0  0  0  0  0  2  0  0  0  0  0  0
  -30.9610  -22.1480   23.4590 C   0  0  0  0  0  2  0  0  0  0  0  0
  -29.9860  -18.9990   23.6560 C   0  0  0  0  0  2  0  0  0  0  0  0
  -29.7650  -20.5510   21.7270 C   0  0  0  0  0  2  0  0  0  0  0  0
  -30.5910  -21.8420   21.9790 C   0  0  0  0  0  3  0  0  0  0  0  0
  -30.3920  -19.3060   22.2570 N   0  0  2  0  0  4  0  0  0  0  0  0
  -31.3870  -19.4660   22.2710 H   0  0  0  0  0  0  0  0  0  0  0  0
  -29.8810  -23.0410   21.3210 C   0  0  0  0  0  0  0  0  0  0  0  0
  -28.9810  -23.6580   21.9620 N   0  0  0  0  0  0  0  0  0  0  0  0
  -28.8560  -23.2850   22.8970 H   0  0  0  0  0  0  0  0  0  0  0  0
  -31.4280  -22.7240   19.2380 C   0  0  0  0  0  1  0  0  0  0  0  0
  -30.2250  -23.4550   19.8700 C   0  0  0  0  0  3  0  0  0  0  0  0
  -30.4040  -24.9930   19.7310 C   0  0  0  0  0  2  0  0  0  0  0  0
  -29.0940  -25.7450   19.4580 C   0  0  0  0  0  2  0  0  0  0  0  0
  -29.2410  -27.1310   19.7640 O   0  0  0  0  0  0  0  0  0  0  0  0
  -25.2970  -31.2040   24.0460 C   0  0  0  0  0  0  0  0  0  0  0  0
  -28.0730  -27.8500   19.9020 C   0  0  0  0  0  0  0  0  0  0  0  0
  -24.1830  -30.4280   21.9800 C   0  0  0  0  0  3  0  0  0  0  0  0
  -25.7030  -29.3550   20.2400 C   0  0  0  0  0  0  0  0  0  0  0  0
  -26.7220  -30.7340   22.0580 C   0  0  0  0  0  2  0  0  0  0  0  0
  -26.8270  -29.6290   21.0280 C   0  0  0  0  0  0  0  0  0  0  0  0
  -28.0170  -28.8870   20.8570 C   0  0  0  0  0  3  0  0  0  0  0  0
  -26.9270  -27.5860   19.1130 C   0  0  0  0  0  3  0  0  0  0  0  0
  -25.7460  -28.3310   19.2800 C   0  0  0  0  0  3  0  0  0  0  0  0
  -24.4760  -30.2050   20.4740 C   0  0  0  0  0  2  0  0  0  0  0  0
  -25.4150  -30.7830   22.7550 N   0  0  0  0  0  0  0  0  0  0  0  0
  -24.1850  -31.3380   24.5780 O   0  0  0  0  0  0  0  0  0  0  0  0
  -23.4500  -29.1820   22.5300 C   0  0  0  0  0  0  0  0  0  0  0  0
  -22.1330  -29.1010   22.2770 N   0  0  0  0  0  0  0  0  0  0  0  0
  -24.0640  -28.3060   23.1450 O   0  0  0  0  0  0  0  0  0  0  0  0
  -21.7010  -29.8650   21.7750 H   0  0  0  0  0  0  0  0  0  0  0  0
  -18.7050  -27.9680   22.1990 C   0  0  0  0  0  0  0  0  0  0  0  0
  -21.2470  -28.0060   22.6650 C   0  0  0  0  0  3  0  0  0  0  0  0
  -21.3450  -26.8290   21.6660 C   0  0  0  0  0  2  0  0  0  0  0  0
  -20.2980  -26.8990   20.5500 C   0  0  0  0  0  2  0  0  0  0  0  0
  -18.8850  -26.8970   21.1380 C   0  0  0  0  0  2  0  0  0  0  0  0
  -19.8160  -28.5010   22.9060 C   0  0  0  0  0  0  0  0  0  0  0  0
  -19.5990  -29.5230   23.8550 C   0  0  0  0  0  3  0  0  0  0  0  0
  -18.3020  -30.0070   24.1070 C   0  0  0  0  0  3  0  0  0  0  0  0
  -17.2040  -29.4650   23.4190 C   0  0  0  0  0  3  0  0  0  0  0  0
  -17.4060  -28.4450   22.4700 C   0  0  0  0  0  3  0  0  0  0  0  0
  -26.5470  -31.5620   24.9070 C   0  0  0  0  0  3  0  0  0  0  0  0
  -26.3450  -32.9150   25.4390 N   0  0  0  0  0  0  0  0  0  0  0  0
  -26.9100  -34.0210   24.9360 C   0  0  0  0  0  0  0  0  0  0  0  0
  -27.7230  -33.9950   24.0080 O   0  0  0  0  0  0  0  0  0  0  0  0
  -25.6510  -33.0170   26.1650 H   0  0  0  0  0  0  0  0  0  0  0  0
  -25.4930  -36.0790   24.6480 C   0  0  0  0  0  1  0  0  0  0  0  0
  -26.5060  -35.3700   25.5620 C   0  0  0  0  0  3  0  0  0  0  0  0
  -28.5390  -35.7790   26.8760 C   0  0  0  0  0  1  0  0  0  0  0  0
  -27.6560  -36.2660   25.8200 N   0  0  0  0  0  0  0  0  0  0  0  0
  -27.3380  -37.1970   26.0750 H   0  0  0  0  0  0  0  0  0  0  0  0
  -26.8110  -30.5360   26.0780 C   0  0  1  0  0  0  0  0  0  0  0  0
  -25.5530  -30.2160   26.9180 C   0  0  0  0  0  1  0  0  0  0  0  0
  -27.3600  -29.2030   25.5190 C   0  0  0  0  0  1  0  0  0  0  0  0
  -27.8930  -31.0950   27.0310 C   0  0  0  0  0  1  0  0  0  0  0  0
  -30.2070  -18.1220   21.3660 C   0  0  0  0  0  2  0  0  0  0  0  0
  -31.5450  -17.6600   20.7500 C   0  0  0  0  0  2  0  0  0  0  0  0
  -31.9800  -16.2330   21.1430 C   0  0  0  0  0  2  0  0  0  0  0  0
  -31.2720  -14.3840   19.6300 C   0  0  0  0  0  0  0  0  0  0  0  0
  -30.7940  -12.1670   18.6570 C   0  0  0  0  0  2  0  0  0  0  0  0
  -29.7170  -12.2130   17.5580 C   0  0  0  0  0  2  0  0  0  0  0  0
  -28.3100  -12.1030   18.1740 C   0  0  0  0  0  2  0  0  0  0  0  0
  -28.0980  -13.1020   19.3400 C   0  0  0  0  0  3  0  0  0  0  0  0
  -29.2660  -13.0330   20.3470 C   0  0  0  0  0  2  0  0  0  0  0  0
  -30.5310  -13.2470   19.6190 N   0  0  0  0  0  0  0  0  0  0  0  0
  -32.1560  -14.6280   18.8020 O   0  0  0  0  0  0  0  0  0  0  0  0
  -31.0740  -15.1750   20.6930 N   0  0  0  0  0  0  0  0  0  0  0  0
  -30.3560  -14.8730   21.3360 H   0  0  0  0  0  0  0  0  0  0  0  0
  -25.8910  -13.8150   20.4610 C   0  0  0  0  0  0  0  0  0  0  0  0
  -24.8250  -13.0920   20.9230 C   0  0  0  0  0  0  0  0  0  0  0  0
  -25.1530  -11.7200   20.7030 C   0  0  0  0  0  0  0  0  0  0  0  0
  -26.8090  -12.8860   19.9960 N   0  0  0  0  0  0  0  0  0  0  0  0
  -26.3750  -11.6150   20.1950 N   0  0  0  0  0  0  0  0  0  0  0  0
  -24.3550  -10.5020   20.8930 C   0  0  0  0  0  0  0  0  0  0  0  0
  -24.7670   -9.4780   21.7740 C   0  0  0  0  0  3  0  0  0  0  0  0
  -23.9730   -8.3250   21.9540 C   0  0  0  0  0  3  0  0  0  0  0  0
  -22.7520   -8.1890   21.2520 C   0  0  0  0  0  0  0  0  0  0  0  0
  -22.3570   -9.2000   20.3600 C   0  0  0  0  0  3  0  0  0  0  0  0
  -23.1520  -10.3440   20.1770 C   0  0  0  0  0  3  0  0  0  0  0  0
  -21.9270   -7.0930   21.3440 O   0  0  0  0  0  0  0  0  0  0  0  0
  -21.7350   -6.4350   22.5330 C   0  0  0  0  0  0  0  0  0  0  0  0
  -21.2270   -7.0920   23.6740 C   0  0  0  0  0  3  0  0  0  0  0  0
  -20.9770   -6.3630   24.8550 C   0  0  0  0  0  3  0  0  0  0  0  0
  -21.2270   -4.9780   24.8930 C   0  0  0  0  0  0  0  0  0  0  0  0
  -21.7300   -4.3220   23.7560 C   0  0  0  0  0  3  0  0  0  0  0  0
  -21.9790   -5.0470   22.5780 C   0  0  0  0  0  0  0  0  0  0  0  0
  -22.4430   -4.4060   21.4780 F   0  0  0  0  0  0  0  0  0  0  0  0
  -20.9820   -4.2760   26.0230 F   0  0  0  0  0  0  0  0  0  0  0  0
  -23.5310  -13.6420   21.4520 C   0  0  0  0  0  0  0  0  0  0  0  0
  -22.9070  -12.9420   22.3930 N   0  0  0  0  0  0  0  0  0  0  0  0
  -23.0910  -14.7240   21.0650 O   0  0  0  0  0  0  0  0  0  0  0  0
  -23.2780  -12.0640   22.7240 H   0  0  0  0  0  0  0  0  0  0  0  0
  -22.0450  -13.2900   22.7890 H   0  0  0  0  0  0  0  0  0  0  0  0
  -26.1510  -15.1800   20.3800 N   0  0  0  0  0  0  0  0  0  0  0  0
  -25.4700  -15.8800   20.6550 H   0  0  0  0  0  0  0  0  0  0  0  0
  -26.9840  -15.5800   19.9640 H   0  0  0  0  0  0  0  0  0  0  0  0
  1  2  1  0
  3  1  1  0
  4  2  1  0
  5  6  1  0
  5  7  1  0
  6  9  1  0
  6  3  1  0
  7  8  1  1
  7  4  1  0
  9 10  2  0
 10 11  1  0
 13 12  1  0
 13  9  1  0
 14 13  1  0
 15 14  1  0
 15 16  1  0
 16 18  1  0
 17 28  2  0
 18 23  1  0
 19 29  1  0
 19 27  1  0
 20 26  1  0
 20 22  1  0
 21 27  1  0
 22 21  1  0
 23 22  2  0
 24 25  1  0
 24 18  2  0
 25 20  2  0
 26 19  1  0
 27 17  1  0
 29 31  2  0
 30 29  1  0
 32 30  1  0
 33 42  2  0
 33 38  1  0
 34 30  1  0
 34 38  1  0
 35 34  1  0
 36 37  1  0
 36 35  1  0
 37 33  1  0
 38 39  2  0
 39 40  1  0
 41 40  2  0
 42 41  1  0
 43 17  1  0
 43 44  1  0
 43 53  1  0
 44 47  1  0
 45 44  1  0
 45 49  1  0
 46 45  2  0
 49 48  1  0
 49 51  1  0
 51 52  1  0
 51 50  1  0
 53 54  1  1
 53 56  1  0
 55 53  1  0
 57  7  1  0
 58 59  1  0
 58 57  1  0
 60 68  1  0
 61 66  1  0
 62 63  1  0
 62 61  1  0
 64 63  1  0
 64 73  1  0
 64 65  1  0
 66 60  1  0
 66 65  1  0
 67 60  2  0
 68 59  1  0
 68 69  1  0
 70 71  2  0
 71 90  1  0
 72 75  1  0
 72 71  1  0
 73 74  1  0
 73 70  1  0
 74 72  2  0
 75 76  1  0
 76 77  2  0
 78 81  1  0
 78 77  1  0
 79 78  2  0
 80 79  1  0
 80 75  2  0
 81 82  1  0
 82 87  2  0
 82 83  1  0
 83 84  2  0
 84 85  1  0
 85 89  1  0
 86 85  2  0
 87 86  1  0
 88 87  1  0
 90 91  1  0
 91 93  1  0
 91 94  1  0
 92 90  2  0
 95 70  1  0
 95 96  1  0
 97 95  1  0
M  ISO  4  15 101  16 101  60 100  68 100
M  END
>  <TORSDO>  (7) 
F 23

>  <SCORE>  (7) 
-8.086

>  <name>  (7) 
6

>  <ligand_id>  (7) 
6

>  <original_smiles>  (7) 
[H]N=C(C([H])(C([H])([H])[H])C([H])([H])C([H])([H])Oc1c([H])c([H])c2c(c1[H])C([H])([H])N(C(=O)C([H])(N([H])C(=O)C([H])(N([H])C([H])([H])[H])C([H])([H])[H])C(C([H])([H])[H])(C([H])([H])[H])C([H])([H])[H])C([H])(C(=O)N([H])C1([H])c3c([H])c([H])c([H])c([H])c3C([H])([H])C([H])([H])C1([H])[H])C2([H])[H])C1([H])C([H])([H])C([H])([H])C([H])([H])C([H])([H])[N+]([H])(C([H])([H])C([H])([H])C([H])([H])N([H])C(=O)N2C([H])([H])C([H])([H])C([H])([H])C([H])(n3nc(-c4c([H])c([H])c(Oc5c([H])c([H])c(F)c([H])c5F)c([H])c4[H])c(C(=O)N([H])[H])c3N([H])[H])C2([H])[H])C1([H])[H]

>  <smiles>  (7) 
[H]N=C(C([H])(C([H])([H])[H])C([H])([H])C([H])([H])Oc1c([H])c([H])c2c(c1[H])C([H])([H])N(C(=O)C([H])(N([H])C(=O)C([H])(N([H])C([H])([H])[H])C([H])([H])[H])C(C([H])([H])[H])(C([H])([H])[H])C([H])([H])[H])C([H])(C(=O)N([H])C1([H])c3c([H])c([H])c([H])c([H])c3C([H])([H])C([H])([H])C1([H])[H])C2([H])[H])C1([H])C([H])([H])C([H])([H])C([H])([H])C([H])([H])[N+]([H])(C([H])([H])C([H])([H])C([H])([H])N([H])C(=O)N2C([H])([H])C([H])([H])C([H])([H])C([H])(n3nc(-c4c([H])c([H])c(Oc5c([H])c([H])c(F)c([H])c5F)c([H])c4[H])c(C(=O)N([H])[H])c3N([H])[H])C2([H])[H])C1([H])[H]

$$$$
7:0:0
     RDKit          3D

 97106  0  0  1  0  0  0  0  0999 V2000
  -29.9050  -22.5530   19.8270 C   0  0  0  0  0  0  0  0  0  0  0  0
  -30.5230  -21.5390   19.1940 N   0  0  0  0  0  0  0  0  0  0  0  0
  -29.4810  -22.4630   20.9850 O   0  0  0  0  0  0  0  0  0  0  0  0
  -30.8600  -21.7340   18.2620 H   0  0  0  0  0  0  0  0  0  0  0  0
  -28.3550  -24.4790   18.9040 C   0  0  0  0  0  2  0  0  0  0  0  0
  -29.7660  -23.8760   19.0410 C   0  0  0  0  0  3  0  0  0  0  0  0
  -30.1670  -25.1130   19.8350 C   0  0  0  0  0  3  0  0  0  0  0  0
  -28.9670  -25.8760   19.2000 C   0  0  0  0  0  3  0  0  0  0  0  0
  -31.6270  -25.5110   19.6510 C   0  0  0  0  0  1  0  0  0  0  0  0
  -28.4470  -26.7260   20.2330 O   0  0  0  0  0  0  0  0  0  0  0  0
  -24.5850  -31.8580   23.2350 C   0  0  0  0  0  0  0  0  0  0  0  0
  -27.2640  -27.4350   20.1250 C   0  0  0  0  0  0  0  0  0  0  0  0
  -23.3830  -30.4500   21.5920 C   0  0  0  0  0  3  0  0  0  0  0  0
  -24.8430  -28.9160   20.1570 C   0  0  0  0  0  0  0  0  0  0  0  0
  -25.9060  -30.8160   21.3990 C   0  0  0  0  0  2  0  0  0  0  0  0
  -25.9940  -29.4470   20.7500 C   0  0  0  0  0  0  0  0  0  0  0  0
  -27.1960  -28.7040   20.7440 C   0  0  0  0  0  3  0  0  0  0  0  0
  -26.0990  -26.9210   19.5120 C   0  0  0  0  0  3  0  0  0  0  0  0
  -24.8890  -27.6500   19.5410 C   0  0  0  0  0  3  0  0  0  0  0  0
  -23.5920  -29.7740   20.2100 C   0  0  0  0  0  2  0  0  0  0  0  0
  -24.6410  -31.0560   22.1330 N   0  0  0  0  0  0  0  0  0  0  0  0
  -23.5030  -32.1330   23.7750 O   0  0  0  0  0  0  0  0  0  0  0  0
  -22.7320  -29.4310   22.5540 C   0  0  0  0  0  0  0  0  0  0  0  0
  -21.4090  -29.2610   22.4280 N   0  0  0  0  0  0  0  0  0  0  0  0
  -23.4120  -28.8010   23.3680 O   0  0  0  0  0  0  0  0  0  0  0  0
  -20.9250  -29.8150   21.7370 H   0  0  0  0  0  0  0  0  0  0  0  0
  -18.0210  -28.1100   22.9370 C   0  0  0  0  0  0  0  0  0  0  0  0
  -20.5830  -28.3340   23.2010 C   0  0  0  0  0  3  0  0  0  0  0  0
  -20.6660  -26.9030   22.6210 C   0  0  0  0  0  2  0  0  0  0  0  0
  -19.5570  -26.5980   21.6100 C   0  0  0  0  0  2  0  0  0  0  0  0
  -18.1780  -26.7590   22.2600 C   0  0  0  0  0  2  0  0  0  0  0  0
  -19.1510  -28.8570   23.3630 C   0  0  0  0  0  0  0  0  0  0  0  0
  -18.9500  -30.1230   23.9540 C   0  0  0  0  0  3  0  0  0  0  0  0
  -17.6520  -30.6360   24.1340 C   0  0  0  0  0  3  0  0  0  0  0  0
  -16.5370  -29.8840   23.7230 C   0  0  0  0  0  3  0  0  0  0  0  0
  -16.7230  -28.6250   23.1260 C   0  0  0  0  0  3  0  0  0  0  0  0
  -25.8690  -32.4930   23.8540 C   0  0  0  0  0  3  0  0  0  0  0  0
  -26.3970  -31.7220   25.1280 C   0  0  1  0  0  0  0  0  0  0  0  0
  -25.3110  -31.4740   26.2020 C   0  0  0  0  0  1  0  0  0  0  0  0
  -26.9900  -30.3490   24.7320 C   0  0  0  0  0  1  0  0  0  0  0  0
  -27.5540  -32.5190   25.7770 C   0  0  0  0  0  1  0  0  0  0  0  0
  -25.5540  -33.8910   24.1810 N   0  0  0  0  0  0  0  0  0  0  0  0
  -25.8940  -34.9460   23.4270 C   0  0  0  0  0  0  0  0  0  0  0  0
  -26.5710  -34.8430   22.3990 O   0  0  0  0  0  0  0  0  0  0  0  0
  -24.9360  -34.0420   24.9640 H   0  0  0  0  0  0  0  0  0  0  0  0
  -24.1590  -36.7350   23.0750 C   0  0  0  0  0  1  0  0  0  0  0  0
  -25.4030  -36.3310   23.8830 C   0  0  0  0  0  3  0  0  0  0  0  0
  -27.5420  -37.2200   24.7040 C   0  0  0  0  0  1  0  0  0  0  0  0
  -26.4320  -37.3860   23.7700 N   0  0  0  0  0  0  0  0  0  0  0  0
  -26.0240  -38.3030   23.9230 H   0  0  0  0  0  0  0  0  0  0  0  0
  -30.7220  -20.1530   19.6590 C   0  0  0  0  0  2  0  0  0  0  0  0
  -28.5150  -19.6520   18.4880 C   0  0  0  0  0  3  0  0  0  0  0  0
  -27.2730  -19.0170   18.5370 C   0  0  0  0  0  3  0  0  0  0  0  0
  -29.5360  -19.2290   19.3710 C   0  0  0  0  0  0  0  0  0  0  0  0
  -27.0970  -18.0140   19.4960 C   0  0  0  0  0  0  0  0  0  0  0  0
  -29.3500  -17.9780   20.0240 C   0  0  0  0  0  0  0  0  0  0  0  0
  -25.7160  -17.7240   20.0230 C   0  0  0  0  0  1  0  0  0  0  0  0
  -28.1250  -17.4130   20.1270 N   0  0  0  0  0  0  0  0  0  0  0  0
  -30.4820  -17.1280   20.6190 C   0  0  0  0  0  2  0  0  0  0  0  0
  -30.7580  -14.5910   20.4510 C   0  0  0  0  0  0  0  0  0  0  0  0
  -30.4600  -12.3310   19.4770 C   0  0  0  0  0  2  0  0  0  0  0  0
  -29.5350  -12.4190   18.2450 C   0  0  0  0  0  2  0  0  0  0  0  0
  -28.0580  -12.3000   18.6660 C   0  0  0  0  0  2  0  0  0  0  0  0
  -27.7030  -13.2000   19.8770 C   0  0  0  0  0  3  0  0  0  0  0  0
  -28.7600  -13.1250   21.0010 C   0  0  0  0  0  2  0  0  0  0  0  0
  -30.0750  -13.4090   20.4100 N   0  0  0  0  0  0  0  0  0  0  0  0
  -31.9110  -14.6890   20.0330 O   0  0  0  0  0  0  0  0  0  0  0  0
  -30.0700  -15.7070   20.7880 N   0  0  0  0  0  0  0  0  0  0  0  0
  -29.0910  -15.6340   21.0250 H   0  0  0  0  0  0  0  0  0  0  0  0
  -25.3140  -13.8020   20.5670 C   0  0  0  0  0  0  0  0  0  0  0  0
  -24.2230  -13.0560   20.9290 C   0  0  0  0  0  0  0  0  0  0  0  0
  -24.6710  -11.7030   20.9040 C   0  0  0  0  0  0  0  0  0  0  0  0
  -26.3500  -12.9160   20.3590 N   0  0  0  0  0  0  0  0  0  0  0  0
  -25.9670  -11.6410   20.6190 N   0  0  0  0  0  0  0  0  0  0  0  0
  -23.9190  -10.4570   21.0890 C   0  0  0  0  0  0  0  0  0  0  0  0
  -24.3460   -9.4660   21.9990 C   0  0  0  0  0  3  0  0  0  0  0  0
  -23.5970   -8.2820   22.1660 C   0  0  0  0  0  3  0  0  0  0  0  0
  -22.4050   -8.0880   21.4300 C   0  0  0  0  0  0  0  0  0  0  0  0
  -21.9990   -9.0690   20.5090 C   0  0  0  0  0  3  0  0  0  0  0  0
  -22.7500  -10.2430   20.3340 C   0  0  0  0  0  3  0  0  0  0  0  0
  -21.6200   -6.9650   21.5150 O   0  0  0  0  0  0  0  0  0  0  0  0
  -21.5980   -6.1840   22.6410 C   0  0  0  0  0  0  0  0  0  0  0  0
  -21.2550   -6.7120   23.9070 C   0  0  0  0  0  3  0  0  0  0  0  0
  -21.1800   -5.8620   25.0280 C   0  0  0  0  0  3  0  0  0  0  0  0
  -21.4340   -4.4840   24.8870 C   0  0  0  0  0  0  0  0  0  0  0  0
  -21.7730   -3.9580   23.6260 C   0  0  0  0  0  3  0  0  0  0  0  0
  -21.8510   -4.8060   22.5090 C   0  0  0  0  0  0  0  0  0  0  0  0
  -22.1550   -4.2890   21.2940 F   0  0  0  0  0  0  0  0  0  0  0  0
  -21.3550   -3.6630   25.9590 F   0  0  0  0  0  0  0  0  0  0  0  0
  -22.8360  -13.5650   21.1890 C   0  0  0  0  0  0  0  0  0  0  0  0
  -22.0920  -12.8670   22.0450 N   0  0  0  0  0  0  0  0  0  0  0  0
  -22.4200  -14.6000   20.6770 O   0  0  0  0  0  0  0  0  0  0  0  0
  -22.4360  -12.0110   22.4550 H   0  0  0  0  0  0  0  0  0  0  0  0
  -21.1570  -13.1750   22.2690 H   0  0  0  0  0  0  0  0  0  0  0  0
  -25.5170  -15.1440   20.3760 N   0  0  0  0  0  0  0  0  0  0  0  0
  -24.8010  -15.8480   20.5240 H   0  0  0  0  0  0  0  0  0  0  0  0
  -26.4440  -15.5360   20.2270 H   0  0  0  0  0  0  0  0  0  0  0  0
  1  3  2  0
  2 51  1  0
  2  1  1  0
  4  2  1  0
  5  6  1  0
  5  8  1  0
  6  1  1  0
  6  7  1  0
  7  9  1  0
  8  7  1  0
  8 10  1  0
 11 22  2  0
 12 10  1  0
 12 17  1  0
 13 21  1  0
 13 23  1  0
 14 20  1  0
 14 16  1  0
 15 21  1  0
 16 15  1  0
 17 16  2  0
 18 19  1  0
 18 12  2  0
 19 14  2  0
 20 13  1  0
 21 11  1  0
 23 25  2  0
 24 23  1  0
 26 24  1  0
 27 36  2  0
 27 32  1  0
 28 24  1  0
 28 32  1  0
 29 28  1  0
 30 31  1  0
 30 29  1  0
 31 27  1  0
 32 33  2  0
 33 34  1  0
 35 34  2  0
 36 35  1  0
 37 11  1  0
 37 42  1  0
 37 38  1  0
 38 41  1  1
 38 39  1  0
 40 38  1  0
 42 45  1  0
 43 47  1  0
 43 42  1  0
 44 43  2  0
 47 46  1  0
 49 47  1  0
 49 50  1  0
 49 48  1  0
 52 53  2  0
 52 54  1  0
 53 55  1  0
 54 51  1  0
 54 56  2  0
 55 57  1  0
 55 58  2  0
 56 58  1  0
 56 59  1  0
 59 68  1  0
 60 68  1  0
 61 66  1  0
 62 63  1  0
 62 61  1  0
 64 63  1  0
 64 73  1  0
 64 65  1  0
 66 60  1  0
 66 65  1  0
 67 60  2  0
 68 69  1  0
 70 71  2  0
 71 90  1  0
 72 71  1  0
 72 75  1  0
 73 70  1  0
 73 74  1  0
 74 72  2  0
 75 76  1  0
 76 77  2  0
 78 81  1  0
 78 77  1  0
 79 78  2  0
 80 79  1  0
 80 75  2  0
 81 82  1  0
 82 83  1  0
 83 84  2  0
 85 84  1  0
 85 89  1  0
 86 85  2  0
 87 82  2  0
 87 86  1  0
 88 87  1  0
 90 91  1  0
 91 94  1  0
 91 93  1  0
 92 90  2  0
 95 96  1  0
 95 70  1  0
 97 95  1  0
M  ISO  4   8 101  10 101  60 100  68 100
M  END
>  <TORSDO>  (8) 
F 20

>  <SCORE>  (8) 
-13.925

>  <name>  (8) 
7

>  <ligand_id>  (8) 
7

>  <original_smiles>  (8) 
[H]c1c(C([H])([H])[H])nc(C([H])([H])N([H])C(=O)N2C([H])([H])C([H])([H])C([H])([H])C([H])(n3nc(-c4c([H])c([H])c(Oc5c([H])c([H])c(F)c([H])c5F)c([H])c4[H])c(C(=O)N([H])[H])c3N([H])[H])C2([H])[H])c(C([H])([H])N([H])C(=O)C2([H])C([H])([H])C([H])(Oc3c([H])c([H])c4c(c3[H])C([H])([H])N(C(=O)C([H])(N([H])C(=O)C([H])(N([H])C([H])([H])[H])C([H])([H])[H])C(C([H])([H])[H])(C([H])([H])[H])C([H])([H])[H])C([H])(C(=O)N([H])C3([H])c5c([H])c([H])c([H])c([H])c5C([H])([H])C([H])([H])C3([H])[H])C4([H])[H])C2([H])C([H])([H])[H])c1[H]

>  <smiles>  (8) 
[H]c1c(C([H])([H])[H])nc(C([H])([H])N([H])C(=O)N2C([H])([H])C([H])([H])C([H])([H])C([H])(n3nc(-c4c([H])c([H])c(Oc5c([H])c([H])c(F)c([H])c5F)c([H])c4[H])c(C(=O)N([H])[H])c3N([H])[H])C2([H])[H])c(C([H])([H])N([H])C(=O)C2([H])C([H])([H])C([H])(Oc3c([H])c([H])c4c(c3[H])C([H])([H])N(C(=O)C([H])(N([H])C(=O)C([H])(N([H])C([H])([H])[H])C([H])([H])[H])C(C([H])([H])[H])(C([H])([H])[H])C([H])([H])[H])C([H])(C(=O)N([H])C3([H])c5c([H])c([H])c([H])c([H])c5C([H])([H])C([H])([H])C3([H])[H])C4([H])[H])C2([H])C([H])([H])[H])c1[H]

$$$$
8:0:0
     RDKit          3D

 91100  0  0  1  0  0  0  0  0999 V2000
  -28.1190  -19.7360   20.7640 C   0  0  0  0  0  2  0  0  0  0  0  0
  -28.2300  -21.2980   21.0620 C   0  0  0  0  0  2  0  0  0  0  0  0
  -30.1420  -19.8840   19.4080 C   0  0  0  0  0  2  0  0  0  0  0  0
  -29.4420  -18.9230   20.4630 C   0  0  0  0  0  3  0  0  0  0  0  0
  -28.9850  -22.1550   19.9850 C   0  0  0  0  0  3  0  0  0  0  0  0
  -30.2570  -21.3590   19.7880 N   0  0  0  0  0  4  0  0  0  0  0  0
  -30.7950  -21.8080   19.0620 H   0  0  0  0  0  0  0  0  0  0  0  0
  -30.8060  -21.4180   20.6300 H   0  0  0  0  0  0  0  0  0  0  0  0
  -30.7810  -15.0460   20.2810 C   0  0  0  0  0  0  0  0  0  0  0  0
  -30.5850  -12.7180   19.3630 C   0  0  0  0  0  2  0  0  0  0  0  0
  -29.6640  -12.6610   18.1280 C   0  0  0  0  0  2  0  0  0  0  0  0
  -28.1980  -12.4790   18.5610 C   0  0  0  0  0  2  0  0  0  0  0  0
  -27.7870  -13.4220   19.7240 C   0  0  0  0  0  3  0  0  0  0  0  0
  -28.8400  -13.4760   20.8480 C   0  0  0  0  0  2  0  0  0  0  0  0
  -30.1070  -13.8410   20.2090 N   0  0  0  0  0  0  0  0  0  0  0  0
  -32.0070  -15.0140   20.1360 O   0  0  0  0  0  0  0  0  0  0  0  0
  -28.7610  -17.0970   18.6050 C   0  0  0  0  0  2  0  0  0  0  0  0
  -30.2010  -16.6150   18.4020 C   0  0  0  0  0  2  0  0  0  0  0  0
  -29.1190  -17.3380   20.0750 C   0  0  0  0  0  3  0  0  0  0  0  0
  -30.1730  -16.2310   19.8130 N   0  0  0  0  0  0  0  0  0  0  0  0
  -25.4000  -14.0080   20.4380 C   0  0  0  0  0  0  0  0  0  0  0  0
  -24.3340  -13.2320   20.7990 C   0  0  0  0  0  0  0  0  0  0  0  0
  -24.8050  -11.8830   20.7890 C   0  0  0  0  0  0  0  0  0  0  0  0
  -26.4480  -13.1300   20.2190 N   0  0  0  0  0  0  0  0  0  0  0  0
  -26.1000  -11.8490   20.4980 N   0  0  0  0  0  0  0  0  0  0  0  0
  -24.0850  -10.6180   20.9790 C   0  0  0  0  0  0  0  0  0  0  0  0
  -24.4890   -9.6750   21.9510 C   0  0  0  0  0  3  0  0  0  0  0  0
  -23.7660   -8.4760   22.1290 C   0  0  0  0  0  3  0  0  0  0  0  0
  -22.6270   -8.2100   21.3330 C   0  0  0  0  0  0  0  0  0  0  0  0
  -22.2430   -9.1400   20.3510 C   0  0  0  0  0  3  0  0  0  0  0  0
  -22.9660  -10.3310   20.1730 C   0  0  0  0  0  3  0  0  0  0  0  0
  -21.8800   -7.0610   21.4190 O   0  0  0  0  0  0  0  0  0  0  0  0
  -21.7580   -6.3680   22.5970 C   0  0  0  0  0  0  0  0  0  0  0  0
  -21.1780   -6.9480   23.7470 C   0  0  0  0  0  3  0  0  0  0  0  0
  -21.0090   -6.1800   24.9160 C   0  0  0  0  0  3  0  0  0  0  0  0
  -21.4080   -4.8310   24.9350 C   0  0  0  0  0  0  0  0  0  0  0  0
  -21.9800   -4.2480   23.7900 C   0  0  0  0  0  3  0  0  0  0  0  0
  -22.1520   -5.0150   22.6230 C   0  0  0  0  0  0  0  0  0  0  0  0
  -22.6830   -4.4430   21.5170 F   0  0  0  0  0  0  0  0  0  0  0  0
  -21.2390   -4.0900   26.0550 F   0  0  0  0  0  0  0  0  0  0  0  0
  -22.9300  -13.7040   21.0440 C   0  0  0  0  0  0  0  0  0  0  0  0
  -22.1920  -13.0120   21.9050 N   0  0  0  0  0  0  0  0  0  0  0  0
  -22.4960  -14.7230   20.5090 O   0  0  0  0  0  0  0  0  0  0  0  0
  -22.5570  -12.1880   22.3610 H   0  0  0  0  0  0  0  0  0  0  0  0
  -21.2500  -13.3120   22.1130 H   0  0  0  0  0  0  0  0  0  0  0  0
  -25.5620  -15.3780   20.2480 N   0  0  0  0  0  0  0  0  0  0  0  0
  -24.7990  -16.0370   20.3570 H   0  0  0  0  0  0  0  0  0  0  0  0
  -26.4210  -15.8120   19.9410 H   0  0  0  0  0  0  0  0  0  0  0  0
  -29.2050  -23.7770   20.2710 C   0  0  0  0  0  3  0  0  0  0  0  0
  -28.1250  -24.9630   19.9120 C   0  0  0  0  0  3  0  0  0  0  0  0
  -28.3710  -26.4580   20.1220 O   0  0  0  0  0  0  0  0  0  0  0  0
  -24.6220  -31.8930   23.2390 C   0  0  0  0  0  0  0  0  0  0  0  0
  -27.2820  -27.3780   20.0680 C   0  0  0  0  0  0  0  0  0  0  0  0
  -23.4440  -30.5280   21.5560 C   0  0  0  0  0  3  0  0  0  0  0  0
  -24.9170  -29.0350   20.0830 C   0  0  0  0  0  0  0  0  0  0  0  0
  -25.9860  -30.8610   21.3950 C   0  0  0  0  0  2  0  0  0  0  0  0
  -26.0830  -29.4980   20.7030 C   0  0  0  0  0  0  0  0  0  0  0  0
  -27.2700  -28.6860   20.6800 C   0  0  0  0  0  3  0  0  0  0  0  0
  -26.0890  -27.0000   19.4110 C   0  0  0  0  0  3  0  0  0  0  0  0
  -24.9270  -27.7970   19.4230 C   0  0  0  0  0  3  0  0  0  0  0  0
  -23.6720  -29.8990   20.1560 C   0  0  0  0  0  2  0  0  0  0  0  0
  -24.7040  -31.1130   22.1190 N   0  0  0  0  0  0  0  0  0  0  0  0
  -23.5330  -32.1420   23.7760 O   0  0  0  0  0  0  0  0  0  0  0  0
  -22.7870  -29.4780   22.4860 C   0  0  0  0  0  0  0  0  0  0  0  0
  -21.4710  -29.2560   22.3200 N   0  0  0  0  0  0  0  0  0  0  0  0
  -23.4630  -28.8650   23.3150 O   0  0  0  0  0  0  0  0  0  0  0  0
  -20.9830  -29.8040   21.6260 H   0  0  0  0  0  0  0  0  0  0  0  0
  -18.1310  -27.9090   22.6980 C   0  0  0  0  0  0  0  0  0  0  0  0
  -20.6650  -28.2790   23.0570 C   0  0  0  0  0  3  0  0  0  0  0  0
  -20.8500  -26.8570   22.4780 C   0  0  0  0  0  2  0  0  0  0  0  0
  -19.7980  -26.4940   21.4250 C   0  0  0  0  0  2  0  0  0  0  0  0
  -18.3900  -26.5740   22.0210 C   0  0  0  0  0  2  0  0  0  0  0  0
  -19.2000  -28.7170   23.1700 C   0  0  0  0  0  0  0  0  0  0  0  0
  -18.9050  -29.9640   23.7620 C   0  0  0  0  0  3  0  0  0  0  0  0
  -17.5740  -30.4040   23.8870 C   0  0  0  0  0  3  0  0  0  0  0  0
  -16.5200  -29.5940   23.4310 C   0  0  0  0  0  3  0  0  0  0  0  0
  -16.7990  -28.3480   22.8420 C   0  0  0  0  0  3  0  0  0  0  0  0
  -25.8930  -32.5270   23.8830 C   0  0  0  0  0  3  0  0  0  0  0  0
  -25.5830  -33.9330   24.1890 N   0  0  0  0  0  0  0  0  0  0  0  0
  -25.9220  -34.9740   23.4170 C   0  0  0  0  0  0  0  0  0  0  0  0
  -26.5960  -34.8530   22.3900 O   0  0  0  0  0  0  0  0  0  0  0  0
  -24.9860  -34.1010   24.9840 H   0  0  0  0  0  0  0  0  0  0  0  0
  -24.2080  -36.7730   23.0240 C   0  0  0  0  0  1  0  0  0  0  0  0
  -25.4390  -36.3700   23.8520 C   0  0  0  0  0  3  0  0  0  0  0  0
  -27.5620  -37.2650   24.7060 C   0  0  0  0  0  1  0  0  0  0  0  0
  -26.4780  -37.4170   23.7380 N   0  0  0  0  0  0  0  0  0  0  0  0
  -26.0730  -38.3420   23.8560 H   0  0  0  0  0  0  0  0  0  0  0  0
  -26.3710  -31.7720   25.1840 C   0  0  1  0  0  0  0  0  0  0  0  0
  -25.2480  -31.5540   26.2270 C   0  0  0  0  0  1  0  0  0  0  0  0
  -26.9580  -30.3860   24.8310 C   0  0  0  0  0  1  0  0  0  0  0  0
  -27.5070  -32.5700   25.8640 C   0  0  0  0  0  1  0  0  0  0  0  0
  1  2  1  0
  3  6  1  0
  4  3  1  0
  4  1  1  0
  5 49  1  0
  5  2  1  0
  6  5  1  0
  6  8  1  0
  7  6  1  0
 10 15  1  0
 11 12  1  0
 11 10  1  0
 13 12  1  0
 13 24  1  0
 13 14  1  0
 15  9  1  0
 15 14  1  0
 16  9  2  0
 18 17  1  0
 18 20  1  0
 19 17  1  0
 19  4  1  0
 20 19  1  0
 20  9  1  0
 21 22  2  0
 22 41  1  0
 23 22  1  0
 23 26  1  0
 24 21  1  0
 24 25  1  0
 25 23  2  0
 26 27  1  0
 27 28  2  0
 29 32  1  0
 29 28  1  0
 30 29  2  0
 31 30  1  0
 31 26  2  0
 32 33  1  0
 33 38  2  0
 33 34  1  0
 34 35  2  0
 35 36  1  0
 36 40  1  0
 37 36  2  0
 38 37  1  0
 39 38  1  0
 41 42  1  0
 42 45  1  0
 42 44  1  0
 43 41  2  0
 46 47  1  0
 46 21  1  0
 48 46  1  0
 50 51  1  0
 50 49  2  0
 52 63  2  0
 53 51  1  0
 53 58  1  0
 54 62  1  0
 54 64  1  0
 55 61  1  0
 55 57  1  0
 56 62  1  0
 57 56  1  0
 58 57  2  0
 59 60  1  0
 59 53  2  0
 60 55  2  0
 61 54  1  0
 62 52  1  0
 64 66  2  0
 65 64  1  0
 67 65  1  0
 68 77  2  0
 68 73  1  0
 69 65  1  0
 69 73  1  0
 70 69  1  0
 71 72  1  0
 71 70  1  0
 72 68  1  0
 73 74  2  0
 74 75  1  0
 76 75  2  0
 77 76  1  0
 78 52  1  0
 78 79  1  0
 78 88  1  0
 79 82  1  0
 80 84  1  0
 80 79  1  0
 81 80  2  0
 84 83  1  0
 86 84  1  0
 86 87  1  0
 86 85  1  0
 88 91  1  1
 88 89  1  0
 90 88  1  0
M  ISO  4   9 100  20 100  50 101  51 101
M  END
>  <TORSDO>  (9) 
F 18

>  <SCORE>  (9) 
-14.042

>  <name>  (9) 
8

>  <ligand_id>  (9) 
8

>  <original_smiles>  (9) 
[H]c1c([H])c([H])c2c(c1[H])C([H])([H])C([H])([H])C([H])([H])C2([H])N([H])C(=O)C1([H])N(C(=O)C([H])(N([H])C(=O)C([H])(N([H])C([H])([H])[H])C([H])([H])[H])C(C([H])([H])[H])(C([H])([H])[H])C([H])([H])[H])C([H])([H])c2c([H])c(OC([H])([H])C([H])([H])C3([H])C([H])([H])C([H])([H])C([H])(C4([H])N(C(=O)N5C([H])([H])C([H])([H])C([H])([H])C([H])(n6nc(-c7c([H])c([H])c(Oc8c([H])c([H])c(F)c([H])c8F)c([H])c7[H])c(C(=O)N([H])[H])c6N([H])[H])C5([H])[H])C([H])([H])C4([H])[H])C([H])([H])[N+]3([H])[H])c([H])c([H])c2C1([H])[H]

>  <smiles>  (9) 
[H]c1c([H])c([H])c2c(c1[H])C([H])([H])C([H])([H])C([H])([H])C2([H])N([H])C(=O)C1([H])N(C(=O)C([H])(N([H])C(=O)C([H])(N([H])C([H])([H])[H])C([H])([H])[H])C(C([H])([H])[H])(C([H])([H])[H])C([H])([H])[H])C([H])([H])c2c([H])c(OC([H])([H])C([H])([H])C3([H])C([H])([H])C([H])([H])C([H])(C4([H])N(C(=O)N5C([H])([H])C([H])([H])C([H])([H])C([H])(n6nc(-c7c([H])c([H])c(Oc8c([H])c([H])c(F)c([H])c8F)c([H])c7[H])c(C(=O)N([H])[H])c6N([H])[H])C5([H])[H])C([H])([H])C4([H])[H])C([H])([H])[N+]3([H])[H])c([H])c([H])c2C1([H])[H]

$$$$
9:0:0
     RDKit          3D

 91100  0  0  1  0  0  0  0  0999 V2000
  -29.6980  -21.7110   20.7390 C   0  0  0  0  0  2  0  0  0  0  0  0
  -31.4090  -18.9650   18.9350 C   0  0  0  0  0  3  0  0  0  0  0  0
  -31.2980  -20.3040   19.2110 C   0  0  0  0  0  3  0  0  0  0  0  0
  -30.3790  -18.3470   19.6940 C   0  0  0  0  0  0  0  0  0  0  0  0
  -29.7830  -19.2520   20.4840 N   0  0  0  0  0  0  0  0  0  0  0  0
  -30.2760  -20.4780   20.1300 N   0  0  0  0  0  0  0  0  0  0  0  0
  -30.6250  -14.6390   20.2760 C   0  0  0  0  0  0  0  0  0  0  0  0
  -30.3630  -12.4560   19.1340 C   0  0  0  0  0  2  0  0  0  0  0  0
  -29.3750  -12.6090   17.9570 C   0  0  0  0  0  2  0  0  0  0  0  0
  -27.9180  -12.4120   18.4270 C   0  0  0  0  0  2  0  0  0  0  0  0
  -27.5980  -13.2260   19.7050 C   0  0  0  0  0  3  0  0  0  0  0  0
  -28.6990  -13.0170   20.7770 C   0  0  0  0  0  2  0  0  0  0  0  0
  -29.9710  -13.4350   20.1690 N   0  0  0  0  0  0  0  0  0  0  0  0
  -31.7890  -14.7500   19.8760 O   0  0  0  0  0  0  0  0  0  0  0  0
  -28.2950  -16.8480   19.6790 C   0  0  0  0  0  2  0  0  0  0  0  0
  -28.6160  -16.1860   21.0250 C   0  0  0  0  0  2  0  0  0  0  0  0
  -29.8020  -16.9370   19.4620 C   0  0  0  0  0  3  0  0  0  0  0  0
  -29.8940  -15.7960   20.4210 N   0  0  0  0  0  0  0  0  0  0  0  0
  -25.2120  -13.8550   20.4410 C   0  0  0  0  0  0  0  0  0  0  0  0
  -24.1510  -13.0830   20.8300 C   0  0  0  0  0  0  0  0  0  0  0  0
  -24.6160  -11.7330   20.8010 C   0  0  0  0  0  0  0  0  0  0  0  0
  -26.2560  -12.9680   20.2080 N   0  0  0  0  0  0  0  0  0  0  0  0
  -25.9030  -11.6910   20.4810 N   0  0  0  0  0  0  0  0  0  0  0  0
  -23.9000  -10.4720   21.0000 C   0  0  0  0  0  0  0  0  0  0  0  0
  -24.3510   -9.5090   21.9290 C   0  0  0  0  0  3  0  0  0  0  0  0
  -23.6350   -8.3090   22.1190 C   0  0  0  0  0  3  0  0  0  0  0  0
  -22.4540   -8.0620   21.3780 C   0  0  0  0  0  0  0  0  0  0  0  0
  -22.0220   -9.0150   20.4380 C   0  0  0  0  0  3  0  0  0  0  0  0
  -22.7390  -10.2070   20.2470 C   0  0  0  0  0  3  0  0  0  0  0  0
  -21.7080   -6.9140   21.4790 O   0  0  0  0  0  0  0  0  0  0  0  0
  -21.6790   -6.1730   22.6330 C   0  0  0  0  0  0  0  0  0  0  0  0
  -21.2600   -6.7270   23.8620 C   0  0  0  0  0  3  0  0  0  0  0  0
  -21.1770   -5.9120   25.0090 C   0  0  0  0  0  3  0  0  0  0  0  0
  -21.5060   -4.5460   24.9280 C   0  0  0  0  0  0  0  0  0  0  0  0
  -21.9220   -3.9930   23.7050 C   0  0  0  0  0  3  0  0  0  0  0  0
  -22.0040   -4.8040   22.5600 C   0  0  0  0  0  0  0  0  0  0  0  0
  -22.3820   -4.2610   21.3770 F   0  0  0  0  0  0  0  0  0  0  0  0
  -21.4210   -3.7610   26.0270 F   0  0  0  0  0  0  0  0  0  0  0  0
  -22.7560  -13.5590   21.1180 C   0  0  0  0  0  0  0  0  0  0  0  0
  -22.0420  -12.8650   21.9970 N   0  0  0  0  0  0  0  0  0  0  0  0
  -22.3080  -14.5810   20.6000 O   0  0  0  0  0  0  0  0  0  0  0  0
  -22.4140  -12.0380   22.4370 H   0  0  0  0  0  0  0  0  0  0  0  0
  -21.1080  -13.1680   22.2320 H   0  0  0  0  0  0  0  0  0  0  0  0
  -25.3590  -15.2240   20.2490 N   0  0  0  0  0  0  0  0  0  0  0  0
  -24.5890  -15.8710   20.3830 H   0  0  0  0  0  0  0  0  0  0  0  0
  -26.2060  -15.6770   19.9330 H   0  0  0  0  0  0  0  0  0  0  0  0
  -31.3150  -23.6400   20.1330 C   0  0  0  0  0  1  0  0  0  0  0  0
  -29.8760  -23.0920   19.9910 C   0  0  0  0  0  3  0  0  0  0  0  0
  -28.8730  -24.2120   20.4800 C   0  0  0  0  0  2  0  0  0  0  0  0
  -28.6780  -25.4560   19.5420 C   0  0  0  0  0  2  0  0  0  0  0  0
  -28.4410  -26.7160   20.2280 O   0  0  0  0  0  0  0  0  0  0  0  0
  -24.5630  -31.8840   23.2500 C   0  0  0  0  0  0  0  0  0  0  0  0
  -27.2380  -27.4130   20.1800 C   0  0  0  0  0  0  0  0  0  0  0  0
  -23.3670  -30.4780   21.6040 C   0  0  0  0  0  3  0  0  0  0  0  0
  -24.8300  -28.9360   20.1860 C   0  0  0  0  0  0  0  0  0  0  0  0
  -25.8940  -30.8350   21.4160 C   0  0  0  0  0  2  0  0  0  0  0  0
  -25.9850  -29.4590   20.7770 C   0  0  0  0  0  0  0  0  0  0  0  0
  -27.1840  -28.7050   20.7710 C   0  0  0  0  0  3  0  0  0  0  0  0
  -26.0540  -26.9080   19.5930 C   0  0  0  0  0  3  0  0  0  0  0  0
  -24.8610  -27.6620   19.5920 C   0  0  0  0  0  3  0  0  0  0  0  0
  -23.5840  -29.7970   20.2260 C   0  0  0  0  0  2  0  0  0  0  0  0
  -24.6260  -31.0830   22.1480 N   0  0  0  0  0  0  0  0  0  0  0  0
  -23.4780  -32.1540   23.7850 O   0  0  0  0  0  0  0  0  0  0  0  0
  -22.7130  -29.4590   22.5650 C   0  0  0  0  0  0  0  0  0  0  0  0
  -21.3890  -29.2740   22.4310 N   0  0  0  0  0  0  0  0  0  0  0  0
  -23.3930  -28.8380   23.3860 O   0  0  0  0  0  0  0  0  0  0  0  0
  -20.9020  -29.8280   21.7400 H   0  0  0  0  0  0  0  0  0  0  0  0
  -18.0130  -28.0710   22.9090 C   0  0  0  0  0  0  0  0  0  0  0  0
  -20.5690  -28.3360   23.1970 C   0  0  0  0  0  3  0  0  0  0  0  0
  -20.6790  -26.9050   22.6200 C   0  0  0  0  0  2  0  0  0  0  0  0
  -19.5830  -26.5800   21.6010 C   0  0  0  0  0  2  0  0  0  0  0  0
  -18.1980  -26.7210   22.2370 C   0  0  0  0  0  2  0  0  0  0  0  0
  -19.1280  -28.8350   23.3470 C   0  0  0  0  0  0  0  0  0  0  0  0
  -18.9040  -30.0980   23.9360 C   0  0  0  0  0  3  0  0  0  0  0  0
  -17.5970  -30.5960   24.0950 C   0  0  0  0  0  3  0  0  0  0  0  0
  -16.4970  -29.8300   23.6750 C   0  0  0  0  0  3  0  0  0  0  0  0
  -16.7050  -28.5690   23.0870 C   0  0  0  0  0  3  0  0  0  0  0  0
  -25.8450  -32.5170   23.8770 C   0  0  0  0  0  3  0  0  0  0  0  0
  -26.3520  -31.7560   25.1630 C   0  0  1  0  0  0  0  0  0  0  0  0
  -25.2520  -31.5290   26.2250 C   0  0  0  0  0  1  0  0  0  0  0  0
  -26.9350  -30.3740   24.7840 C   0  0  0  0  0  1  0  0  0  0  0  0
  -27.4960  -32.5550   25.8300 C   0  0  0  0  0  1  0  0  0  0  0  0
  -25.5340  -33.9180   24.1930 N   0  0  0  0  0  0  0  0  0  0  0  0
  -25.8770  -34.9650   23.4300 C   0  0  0  0  0  0  0  0  0  0  0  0
  -26.5580  -34.8540   22.4060 O   0  0  0  0  0  0  0  0  0  0  0  0
  -24.9280  -34.0790   24.9820 H   0  0  0  0  0  0  0  0  0  0  0  0
  -24.1550  -36.7600   23.0460 C   0  0  0  0  0  1  0  0  0  0  0  0
  -25.3870  -36.3560   23.8730 C   0  0  0  0  0  3  0  0  0  0  0  0
  -27.5120  -37.2440   24.7260 C   0  0  0  0  0  1  0  0  0  0  0  0
  -26.4210  -37.4080   23.7680 N   0  0  0  0  0  0  0  0  0  0  0  0
  -26.0120  -38.3270   23.9080 H   0  0  0  0  0  0  0  0  0  0  0  0
  2  3  2  0
  2  4  1  0
  3  6  1  0
  4  5  2  0
  6  5  1  0
  6  1  1  0
  7 18  1  0
  8 13  1  0
  9 10  1  0
  9  8  1  0
 11 10  1  0
 11 22  1  0
 11 12  1  0
 13  7  1  0
 13 12  1  0
 14  7  2  0
 15 16  1  0
 17 15  1  0
 17  4  1  0
 17 18  1  0
 18 16  1  0
 19 20  2  0
 20 39  1  0
 21 20  1  0
 21 24  1  0
 22 19  1  0
 22 23  1  0
 23 21  2  0
 24 25  1  0
 25 26  2  0
 27 30  1  0
 27 26  1  0
 28 27  2  0
 29 28  1  0
 29 24  2  0
 30 31  1  0
 31 32  1  0
 32 33  2  0
 34 33  1  0
 34 38  1  0
 35 34  2  0
 36 31  2  0
 36 35  1  0
 37 36  1  0
 39 40  1  0
 40 43  1  0
 40 42  1  0
 41 39  2  0
 44 45  1  0
 44 19  1  0
 46 44  1  0
 48 47  1  0
 48 49  1  0
 48  1  1  0
 50 51  1  0
 50 49  1  0
 52 63  2  0
 53 51  1  0
 53 58  1  0
 54 62  1  0
 54 64  1  0
 55 61  1  0
 55 57  1  0
 56 62  1  0
 57 56  1  0
 58 57  2  0
 59 53  2  0
 60 59  1  0
 60 55  2  0
 61 54  1  0
 62 52  1  0
 64 66  2  0
 65 64  1  0
 67 65  1  0
 68 77  2  0
 68 73  1  0
 69 65  1  0
 69 73  1  0
 70 69  1  0
 71 72  1  0
 71 70  1  0
 72 68  1  0
 73 74  2  0
 74 75  1  0
 76 75  2  0
 77 76  1  0
 78 52  1  0
 78 83  1  0
 78 79  1  0
 79 82  1  1
 79 80  1  0
 81 79  1  0
 83 86  1  0
 84 88  1  0
 84 83  1  0
 85 84  2  0
 88 87  1  0
 90 88  1  0
 90 91  1  0
 90 89  1  0
M  ISO  4   7 100  18 100  50 101  51 101
M  END
>  <TORSDO>  (10) 
F 20

>  <SCORE>  (10) 
-13.874

>  <name>  (10) 
9

>  <ligand_id>  (10) 
9

>  <original_smiles>  (10) 
[H]c1c([H])c([H])c2c(c1[H])C([H])([H])C([H])([H])C([H])([H])C2([H])N([H])C(=O)C1([H])N(C(=O)C([H])(N([H])C(=O)C([H])(N([H])C([H])([H])[H])C([H])([H])[H])C(C([H])([H])[H])(C([H])([H])[H])C([H])([H])[H])C([H])([H])c2c([H])c(OC([H])([H])C([H])([H])C([H])(C([H])([H])[H])C([H])([H])n3nc(C4([H])N(C(=O)N5C([H])([H])C([H])([H])C([H])([H])C([H])(n6nc(-c7c([H])c([H])c(Oc8c([H])c([H])c(F)c([H])c8F)c([H])c7[H])c(C(=O)N([H])[H])c6N([H])[H])C5([H])[H])C([H])([H])C4([H])[H])c([H])c3[H])c([H])c([H])c2C1([H])[H]

>  <smiles>  (10) 
[H]c1c([H])c([H])c2c(c1[H])C([H])([H])C([H])([H])C([H])([H])C2([H])N([H])C(=O)C1([H])N(C(=O)C([H])(N([H])C(=O)C([H])(N([H])C([H])([H])[H])C([H])([H])[H])C(C([H])([H])[H])(C([H])([H])[H])C([H])([H])[H])C([H])([H])c2c([H])c(OC([H])([H])C([H])([H])C([H])(C([H])([H])[H])C([H])([H])n3nc(C4([H])N(C(=O)N5C([H])([H])C([H])([H])C([H])([H])C([H])(n6nc(-c7c([H])c([H])c(Oc8c([H])c([H])c(F)c([H])c8F)c([H])c7[H])c(C(=O)N([H])[H])c6N([H])[H])C5([H])[H])C([H])([H])C4([H])[H])c([H])c3[H])c([H])c([H])c2C1([H])[H]

$$$$
10:0:0
     RDKit          3D

 90 99  0  0  1  0  0  0  0  0999 V2000
  -28.6460  -21.4700   21.3780 C   0  0  0  0  0  3  0  0  0  0  0  0
  -28.3110  -22.8580   21.2980 C   0  0  0  0  0  3  0  0  0  0  0  0
  -29.6730  -21.6830   19.2520 C   0  0  0  0  0  3  0  0  0  0  0  0
  -29.3290  -20.8070   20.3230 C   0  0  0  0  0  0  0  0  0  0  0  0
  -28.6510  -23.6410   20.1640 C   0  0  0  0  0  0  0  0  0  0  0  0
  -29.3450  -23.0170   19.1690 N   0  0  0  0  0  0  0  0  0  0  0  0
  -30.7400  -14.8350   20.0770 C   0  0  0  0  0  0  0  0  0  0  0  0
  -30.4030  -12.5860   19.0460 C   0  0  0  0  0  2  0  0  0  0  0  0
  -29.4110  -12.6460   17.8680 C   0  0  0  0  0  2  0  0  0  0  0  0
  -27.9700  -12.4650   18.3780 C   0  0  0  0  0  2  0  0  0  0  0  0
  -27.6520  -13.3510   19.6140 C   0  0  0  0  0  3  0  0  0  0  0  0
  -28.7730  -13.2870   20.6740 C   0  0  0  0  0  2  0  0  0  0  0  0
  -30.0160  -13.6620   19.9920 N   0  0  0  0  0  0  0  0  0  0  0  0
  -31.9340  -14.7800   19.7660 O   0  0  0  0  0  0  0  0  0  0  0  0
  -28.7530  -18.2080   20.9420 C   0  0  0  0  0  2  0  0  0  0  0  0
  -30.2460  -18.5930   19.1030 C   0  0  0  0  0  2  0  0  0  0  0  0
  -29.2650  -16.7020   21.1020 C   0  0  0  0  0  2  0  0  0  0  0  0
  -30.8870  -17.1740   19.3070 C   0  0  0  0  0  2  0  0  0  0  0  0
  -29.7720  -19.2670   20.4090 C   0  0  0  0  0  3  0  0  0  0  0  0
  -30.1260  -16.1020   20.0330 N   0  0  0  0  0  0  0  0  0  0  0  0
  -25.3140  -13.9120   20.4950 C   0  0  0  0  0  0  0  0  0  0  0  0
  -24.2660  -13.1260   20.8900 C   0  0  0  0  0  0  0  0  0  0  0  0
  -24.7240  -11.7760   20.7860 C   0  0  0  0  0  0  0  0  0  0  0  0
  -26.3410  -13.0420   20.1730 N   0  0  0  0  0  0  0  0  0  0  0  0
  -25.9970  -11.7500   20.4120 N   0  0  0  0  0  0  0  0  0  0  0  0
  -24.0050  -10.5070   20.9650 C   0  0  0  0  0  0  0  0  0  0  0  0
  -24.4450   -9.5320   21.8870 C   0  0  0  0  0  3  0  0  0  0  0  0
  -23.7230   -8.3310   22.0560 C   0  0  0  0  0  3  0  0  0  0  0  0
  -22.5480   -8.0960   21.3040 C   0  0  0  0  0  0  0  0  0  0  0  0
  -22.1270   -9.0600   20.3710 C   0  0  0  0  0  3  0  0  0  0  0  0
  -22.8490  -10.2540   20.2010 C   0  0  0  0  0  3  0  0  0  0  0  0
  -21.7970   -6.9480   21.3840 O   0  0  0  0  0  0  0  0  0  0  0  0
  -21.6990   -6.2320   22.5510 C   0  0  0  0  0  0  0  0  0  0  0  0
  -21.1900   -6.8070   23.7360 C   0  0  0  0  0  3  0  0  0  0  0  0
  -21.0400   -6.0160   24.8930 C   0  0  0  0  0  3  0  0  0  0  0  0
  -21.3880   -4.6530   24.8650 C   0  0  0  0  0  0  0  0  0  0  0  0
  -21.8880   -4.0770   23.6850 C   0  0  0  0  0  3  0  0  0  0  0  0
  -22.0400   -4.8650   22.5290 C   0  0  0  0  0  0  0  0  0  0  0  0
  -22.5020   -4.3000   21.3880 F   0  0  0  0  0  0  0  0  0  0  0  0
  -21.2360   -3.8920   25.9750 F   0  0  0  0  0  0  0  0  0  0  0  0
  -22.8870  -13.5940   21.2500 C   0  0  0  0  0  0  0  0  0  0  0  0
  -22.2040  -12.8700   22.1290 N   0  0  0  0  0  0  0  0  0  0  0  0
  -22.4250  -14.6370   20.7890 O   0  0  0  0  0  0  0  0  0  0  0  0
  -22.5910  -12.0270   22.5250 H   0  0  0  0  0  0  0  0  0  0  0  0
  -21.2800  -13.1660   22.4130 H   0  0  0  0  0  0  0  0  0  0  0  0
  -25.4730  -15.2890   20.3590 N   0  0  0  0  0  0  0  0  0  0  0  0
  -24.7180  -15.9410   20.5390 H   0  0  0  0  0  0  0  0  0  0  0  0
  -26.3090  -15.7350   20.0030 H   0  0  0  0  0  0  0  0  0  0  0  0
  -27.8910  -25.0000   19.8200 C   0  0  0  0  0  2  0  0  0  0  0  0
  -28.2360  -26.3990   20.2610 O   0  0  0  0  0  0  0  0  0  0  0  0
  -24.6290  -31.9470   23.2910 C   0  0  0  0  0  0  0  0  0  0  0  0
  -27.1820  -27.3510   20.1790 C   0  0  0  0  0  0  0  0  0  0  0  0
  -23.4110  -30.5690   21.6510 C   0  0  0  0  0  3  0  0  0  0  0  0
  -24.8470  -29.0360   20.1950 C   0  0  0  0  0  0  0  0  0  0  0  0
  -25.9620  -30.8550   21.4700 C   0  0  0  0  0  2  0  0  0  0  0  0
  -26.0270  -29.4830   20.8020 C   0  0  0  0  0  0  0  0  0  0  0  0
  -27.1970  -28.6510   20.7920 C   0  0  0  0  0  3  0  0  0  0  0  0
  -25.9810  -27.0050   19.5080 C   0  0  0  0  0  3  0  0  0  0  0  0
  -24.8300  -27.8040   19.5380 C   0  0  0  0  0  3  0  0  0  0  0  0
  -23.6170  -29.9170   20.2620 C   0  0  0  0  0  2  0  0  0  0  0  0
  -24.6870  -31.1420   22.1900 N   0  0  0  0  0  0  0  0  0  0  0  0
  -23.5480  -32.2290   23.8290 O   0  0  0  0  0  0  0  0  0  0  0  0
  -22.7480  -29.5430   22.6020 C   0  0  0  0  0  0  0  0  0  0  0  0
  -21.4230  -29.3590   22.4680 N   0  0  0  0  0  0  0  0  0  0  0  0
  -23.4250  -28.9180   23.4230 O   0  0  0  0  0  0  0  0  0  0  0  0
  -20.9360  -29.9160   21.7790 H   0  0  0  0  0  0  0  0  0  0  0  0
  -18.0470  -28.1490   22.9560 C   0  0  0  0  0  0  0  0  0  0  0  0
  -20.6030  -28.4180   23.2340 C   0  0  0  0  0  3  0  0  0  0  0  0
  -20.7130  -26.9870   22.6590 C   0  0  0  0  0  2  0  0  0  0  0  0
  -19.6160  -26.6600   21.6410 C   0  0  0  0  0  2  0  0  0  0  0  0
  -18.2310  -26.8010   22.2770 C   0  0  0  0  0  2  0  0  0  0  0  0
  -19.1610  -28.9160   23.3890 C   0  0  0  0  0  0  0  0  0  0  0  0
  -18.9350  -30.1770   23.9830 C   0  0  0  0  0  3  0  0  0  0  0  0
  -17.6270  -30.6710   24.1450 C   0  0  0  0  0  3  0  0  0  0  0  0
  -16.5280  -29.9020   23.7280 C   0  0  0  0  0  3  0  0  0  0  0  0
  -16.7380  -28.6420   23.1390 C   0  0  0  0  0  3  0  0  0  0  0  0
  -25.9160  -32.5700   23.9100 C   0  0  0  0  0  3  0  0  0  0  0  0
  -25.6160  -33.9710   24.2400 N   0  0  0  0  0  0  0  0  0  0  0  0
  -25.9260  -35.0210   23.4690 C   0  0  0  0  0  0  0  0  0  0  0  0
  -26.5660  -34.9140   22.4190 O   0  0  0  0  0  0  0  0  0  0  0  0
  -25.0450  -34.1300   25.0570 H   0  0  0  0  0  0  0  0  0  0  0  0
  -24.1750  -36.8050   23.1700 C   0  0  0  0  0  1  0  0  0  0  0  0
  -25.4510  -36.4110   23.9340 C   0  0  0  0  0  3  0  0  0  0  0  0
  -27.6110  -37.3120   24.6750 C   0  0  0  0  0  1  0  0  0  0  0  0
  -26.4720  -37.4680   23.7740 N   0  0  0  0  0  0  0  0  0  0  0  0
  -26.0670  -38.3870   23.9320 H   0  0  0  0  0  0  0  0  0  0  0  0
  -26.4260  -31.7970   25.1880 C   0  0  1  0  0  0  0  0  0  0  0  0
  -25.3290  -31.5680   26.2530 C   0  0  0  0  0  1  0  0  0  0  0  0
  -27.0020  -30.4140   24.8050 C   0  0  0  0  0  1  0  0  0  0  0  0
  -27.5800  -32.5850   25.8500 C   0  0  0  0  0  1  0  0  0  0  0  0
  2  1  1  0
  3  4  1  0
  4  1  2  0
  5  2  2  0
  6  3  2  0
  6  5  1  0
  8 13  1  0
  9 10  1  0
  9  8  1  0
 11 10  1  0
 11 24  1  0
 11 12  1  0
 13  7  1  0
 13 12  1  0
 14  7  2  0
 15 17  1  0
 16 18  1  0
 16 19  1  0
 18 20  1  0
 19  4  1  0
 19 15  1  0
 20  7  1  0
 20 17  1  0
 21 22  2  0
 22 41  1  0
 23 22  1  0
 23 26  1  0
 24 25  1  0
 24 21  1  0
 25 23  2  0
 26 27  1  0
 27 28  2  0
 29 32  1  0
 29 28  1  0
 30 29  2  0
 31 30  1  0
 31 26  2  0
 32 33  1  0
 33 34  1  0
 34 35  2  0
 36 35  1  0
 36 40  1  0
 37 36  2  0
 38 33  2  0
 38 37  1  0
 39 38  1  0
 41 42  1  0
 42 45  1  0
 42 44  1  0
 43 41  2  0
 46 21  1  0
 46 47  1  0
 48 46  1  0
 49  5  1  0
 49 50  1  0
 51 62  2  0
 52 50  1  0
 52 57  1  0
 53 61  1  0
 53 63  1  0
 54 60  1  0
 54 56  1  0
 55 61  1  0
 56 55  1  0
 57 56  2  0
 58 59  1  0
 58 52  2  0
 59 54  2  0
 60 53  1  0
 61 51  1  0
 63 65  2  0
 64 63  1  0
 66 64  1  0
 67 76  2  0
 67 72  1  0
 68 64  1  0
 68 72  1  0
 69 68  1  0
 70 71  1  0
 70 69  1  0
 71 67  1  0
 72 73  2  0
 73 74  1  0
 75 74  2  0
 76 75  1  0
 77 51  1  0
 77 78  1  0
 77 87  1  0
 78 81  1  0
 79 83  1  0
 79 78  1  0
 80 79  2  0
 83 82  1  0
 85 86  1  0
 85 83  1  0
 85 84  1  0
 87 90  1  1
 87 88  1  0
 89 87  1  0
M  ISO  4   7 100  20 100  49 101  50 101
M  END
>  <TORSDO>  (11) 
F 17

>  <SCORE>  (11) 
-15.022

>  <name>  (11) 
10

>  <ligand_id>  (11) 
10

>  <original_smiles>  (11) 
[H]c1nc(C([H])([H])Oc2c([H])c([H])c3c(c2[H])C([H])([H])N(C(=O)C([H])(N([H])C(=O)C([H])(N([H])C([H])([H])[H])C([H])([H])[H])C(C([H])([H])[H])(C([H])([H])[H])C([H])([H])[H])C([H])(C(=O)N([H])C2([H])c4c([H])c([H])c([H])c([H])c4C([H])([H])C([H])([H])C2([H])[H])C3([H])[H])c([H])c([H])c1C1([H])C([H])([H])C([H])([H])N(C(=O)N2C([H])([H])C([H])([H])C([H])([H])C([H])(n3nc(-c4c([H])c([H])c(Oc5c([H])c([H])c(F)c([H])c5F)c([H])c4[H])c(C(=O)N([H])[H])c3N([H])[H])C2([H])[H])C([H])([H])C1([H])[H]

>  <smiles>  (11) 
[H]c1nc(C([H])([H])Oc2c([H])c([H])c3c(c2[H])C([H])([H])N(C(=O)C([H])(N([H])C(=O)C([H])(N([H])C([H])([H])[H])C([H])([H])[H])C(C([H])([H])[H])(C([H])([H])[H])C([H])([H])[H])C([H])(C(=O)N([H])C2([H])c4c([H])c([H])c([H])c([H])c4C([H])([H])C([H])([H])C2([H])[H])C3([H])[H])c([H])c([H])c1C1([H])C([H])([H])C([H])([H])N(C(=O)N2C([H])([H])C([H])([H])C([H])([H])C([H])(n3nc(-c4c([H])c([H])c(Oc5c([H])c([H])c(F)c([H])c5F)c([H])c4[H])c(C(=O)N([H])[H])c3N([H])[H])C2([H])[H])C([H])([H])C1([H])[H]

$$$$
11:0:0
     RDKit          3D

 96105  0  0  1  0  0  0  0  0999 V2000
  -25.9740  -23.7920   18.6390 C   0  0  0  0  0  3  0  0  0  0  0  0
  -26.5890  -25.9880   17.7460 C   0  0  0  0  0  3  0  0  0  0  0  0
  -27.3200  -23.4600   18.8200 C   0  0  0  0  0  3  0  0  0  0  0  0
  -27.9470  -25.6400   17.8790 C   0  0  0  0  0  3  0  0  0  0  0  0
  -25.6100  -25.0890   18.2090 C   0  0  0  0  0  0  0  0  0  0  0  0
  -28.2910  -24.4370   18.5420 C   0  0  0  0  0  0  0  0  0  0  0  0
  -23.8410  -26.9460   17.9430 C   0  0  0  0  0  2  0  0  0  0  0  0
  -22.6900  -27.2990   18.8820 C   0  0  0  0  0  2  0  0  0  0  0  0
  -23.9750  -25.7340   20.0300 C   0  0  0  0  0  2  0  0  0  0  0  0
  -24.2110  -25.5850   18.5030 C   0  0  0  0  0  3  0  0  0  0  0  0
  -23.1070  -26.9210   20.2470 N   0  0  2  0  0  4  0  0  0  0  0  0
  -23.7420  -27.6410   20.5630 H   0  0  0  0  0  0  0  0  0  0  0  0
  -22.0570  -26.7540   21.3030 C   0  0  0  0  0  2  0  0  0  0  0  0
  -20.9650  -27.8670   21.3630 C   0  0  0  0  0  2  0  0  0  0  0  0
  -18.5880  -27.3640   22.3780 C   0  0  0  0  0  0  0  0  0  0  0  0
  -17.0080  -25.5600   21.7840 C   0  0  0  0  0  2  0  0  0  0  0  0
  -17.7350  -24.2030   21.8600 C   0  0  0  0  0  2  0  0  0  0  0  0
  -18.4570  -23.9000   20.5310 C   0  0  0  0  0  2  0  0  0  0  0  0
  -19.2860  -25.1010   20.0100 C   0  0  0  0  0  3  0  0  0  0  0  0
  -18.4310  -26.3900   20.0350 C   0  0  0  0  0  2  0  0  0  0  0  0
  -18.0140  -26.5770   21.4250 N   0  0  0  0  0  0  0  0  0  0  0  0
  -18.0220  -27.5960   23.4530 O   0  0  0  0  0  0  0  0  0  0  0  0
  -19.9280  -27.5320   22.3720 N   0  0  0  0  0  0  0  0  0  0  0  0
  -20.2260  -27.7860   23.3040 H   0  0  0  0  0  0  0  0  0  0  0  0
  -20.9090  -24.0290   18.3350 C   0  0  0  0  0  0  0  0  0  0  0  0
  -21.0420  -24.0940   16.9810 C   0  0  0  0  0  0  0  0  0  0  0  0
  -19.9300  -24.8730   16.5530 C   0  0  0  0  0  0  0  0  0  0  0  0
  -19.8500  -24.8350   18.6880 N   0  0  0  0  0  0  0  0  0  0  0  0
  -19.2670  -25.3700   17.5890 N   0  0  0  0  0  0  0  0  0  0  0  0
  -19.4080  -25.0960   15.2070 C   0  0  0  0  0  0  0  0  0  0  0  0
  -19.3670  -26.3920   14.6600 C   0  0  0  0  0  3  0  0  0  0  0  0
  -18.8830  -26.5900   13.3550 C   0  0  0  0  0  3  0  0  0  0  0  0
  -18.4370  -25.4880   12.5880 C   0  0  0  0  0  0  0  0  0  0  0  0
  -18.4570  -24.2010   13.1500 C   0  0  0  0  0  3  0  0  0  0  0  0
  -18.9340  -24.0030   14.4550 C   0  0  0  0  0  3  0  0  0  0  0  0
  -17.9250  -25.5940   11.3210 O   0  0  0  0  0  0  0  0  0  0  0  0
  -18.0260  -26.7580   10.6050 C   0  0  0  0  0  0  0  0  0  0  0  0
  -19.2660  -27.2270   10.1180 C   0  0  0  0  0  3  0  0  0  0  0  0
  -19.3140  -28.3920    9.3290 C   0  0  0  0  0  3  0  0  0  0  0  0
  -18.1270  -29.0830    9.0160 C   0  0  0  0  0  0  0  0  0  0  0  0
  -16.8930  -28.6140    9.5000 C   0  0  0  0  0  3  0  0  0  0  0  0
  -16.8420  -27.4550   10.2900 C   0  0  0  0  0  0  0  0  0  0  0  0
  -15.6470  -26.9960   10.7360 F   0  0  0  0  0  0  0  0  0  0  0  0
  -18.1730  -30.1970    8.2500 F   0  0  0  0  0  0  0  0  0  0  0  0
  -22.0290  -23.3350   16.1360 C   0  0  0  0  0  0  0  0  0  0  0  0
  -22.7790  -24.0340   15.2970 N   0  0  0  0  0  0  0  0  0  0  0  0
  -22.1780  -22.1230   16.2530 O   0  0  0  0  0  0  0  0  0  0  0  0
  -22.6710  -25.0390   15.2270 H   0  0  0  0  0  0  0  0  0  0  0  0
  -23.4790  -23.5760   14.7310 H   0  0  0  0  0  0  0  0  0  0  0  0
  -21.5400  -23.2640   19.2760 N   0  0  0  0  0  0  0  0  0  0  0  0
  -21.9340  -22.5120   18.7250 H   0  0  0  0  0  0  0  0  0  0  0  0
  -20.8710  -22.8940   19.9450 H   0  0  0  0  0  0  0  0  0  0  0  0
  -29.5800  -24.3630   19.3180 C   0  0  0  0  0  2  0  0  0  0  0  0
  -29.2250  -24.8070   20.7680 C   0  0  0  0  0  2  0  0  0  0  0  0
  -30.0820  -24.2510   21.9300 C   0  0  0  0  0  2  0  0  0  0  0  0
  -29.5120  -23.1070   22.5830 O   0  0  0  0  0  0  0  0  0  0  0  0
  -35.1190  -19.2850   20.5130 C   0  0  0  0  0  0  0  0  0  0  0  0
  -29.9610  -21.9210   22.0660 C   0  0  0  0  0  0  0  0  0  0  0  0
  -32.9150  -18.5210   19.6860 C   0  0  0  0  0  3  0  0  0  0  0  0
  -30.8820  -19.5680   20.8190 C   0  0  0  0  0  0  0  0  0  0  0  0
  -33.1190  -19.7450   21.9180 C   0  0  0  0  0  2  0  0  0  0  0  0
  -31.7270  -20.2870   21.6810 C   0  0  0  0  0  0  0  0  0  0  0  0
  -31.2830  -21.4810   22.2830 C   0  0  0  0  0  3  0  0  0  0  0  0
  -29.1010  -21.1640   21.2490 C   0  0  0  0  0  3  0  0  0  0  0  0
  -29.5660  -20.0080   20.5960 C   0  0  0  0  0  3  0  0  0  0  0  0
  -31.4550  -18.3270   20.1680 C   0  0  0  0  0  2  0  0  0  0  0  0
  -33.7690  -19.2280   20.6930 N   0  0  0  0  0  0  0  0  0  0  0  0
  -35.6530  -18.7400   19.5400 O   0  0  0  0  0  0  0  0  0  0  0  0
  -32.8830  -19.2330   18.3090 C   0  0  0  0  0  0  0  0  0  0  0  0
  -32.5360  -18.4730   17.2530 N   0  0  0  0  0  0  0  0  0  0  0  0
  -33.1300  -20.4360   18.2120 O   0  0  0  0  0  0  0  0  0  0  0  0
  -32.4710  -17.4750   17.3950 H   0  0  0  0  0  0  0  0  0  0  0  0
  -31.5180  -17.4350   13.9690 C   0  0  0  0  0  0  0  0  0  0  0  0
  -32.4030  -18.9310   15.8690 C   0  0  0  0  0  3  0  0  0  0  0  0
  -31.1260  -19.7800   15.6310 C   0  0  0  0  0  2  0  0  0  0  0  0
  -29.9210  -18.9340   15.2450 C   0  0  0  0  0  2  0  0  0  0  0  0
  -30.1970  -18.1800   13.9450 C   0  0  0  0  0  2  0  0  0  0  0  0
  -32.5390  -17.7610   14.8980 C   0  0  0  0  0  0  0  0  0  0  0  0
  -33.7080  -16.9860   14.9260 C   0  0  0  0  0  3  0  0  0  0  0  0
  -33.8700  -15.9050   14.0480 C   0  0  0  0  0  3  0  0  0  0  0  0
  -32.8740  -15.6030   13.0970 C   0  0  0  0  0  3  0  0  0  0  0  0
  -31.7060  -16.3890   13.0520 C   0  0  0  0  0  3  0  0  0  0  0  0
  -36.0500  -20.0270   21.5190 C   0  0  0  0  0  3  0  0  0  0  0  0
  -37.2770  -19.2280   21.6670 N   0  0  0  0  0  0  0  0  0  0  0  0
  -37.5940  -18.5280   22.7610 C   0  0  0  0  0  0  0  0  0  0  0  0
  -36.9210  -18.5410   23.7920 O   0  0  0  0  0  0  0  0  0  0  0  0
  -37.8530  -19.1370   20.8470 H   0  0  0  0  0  0  0  0  0  0  0  0
  -38.4830  -16.1730   22.6880 C   0  0  0  0  0  1  0  0  0  0  0  0
  -38.8710  -17.6600   22.7010 C   0  0  0  0  0  3  0  0  0  0  0  0
  -40.3490  -19.2740   23.8150 C   0  0  0  0  0  1  0  0  0  0  0  0
  -39.8090  -17.9170   23.8150 N   0  0  0  0  0  0  0  0  0  0  0  0
  -40.5890  -17.2640   23.7890 H   0  0  0  0  0  0  0  0  0  0  0  0
  -36.3880  -21.5030   21.0750 C   0  0  1  0  0  0  0  0  0  0  0  0
  -37.6290  -21.6130   20.1570 C   0  0  0  0  0  1  0  0  0  0  0  0
  -35.1840  -22.1290   20.3310 C   0  0  0  0  0  1  0  0  0  0  0  0
  -36.6350  -22.3700   22.3260 C   0  0  0  0  0  1  0  0  0  0  0  0
  1  3  1  0
  2  4  2  0
  2  5  1  0
  4  6  1  0
  5  1  2  0
  6  3  2  0
  6 53  1  0
  7 10  1  0
  7  8  1  0
  8 11  1  0
  9 11  1  0
 10  5  1  0
 10  9  1  0
 11 12  1  1
 11 13  1  0
 13 14  1  0
 14 23  1  0
 15 22  2  0
 16 17  1  0
 18 17  1  0
 19 28  1  0
 19 20  1  0
 19 18  1  0
 20 21  1  0
 21 16  1  0
 21 15  1  0
 23 15  1  0
 23 24  1  0
 25 28  1  0
 25 50  1  0
 26 25  2  0
 27 26  1  0
 27 29  2  0
 29 28  1  0
 30 27  1  0
 31 30  1  0
 32 31  2  0
 33 34  2  0
 33 32  1  0
 34 35  1  0
 35 30  2  0
 36 33  1  0
 37 36  1  0
 38 37  2  0
 39 38  1  0
 40 39  2  0
 40 41  1  0
 41 42  2  0
 42 37  1  0
 42 43  1  0
 44 40  1  0
 45 47  2  0
 45 26  1  0
 46 45  1  0
 48 46  1  0
 49 46  1  0
 50 52  1  0
 51 50  1  0
 53 54  1  0
 54 55  1  0
 55 56  1  0
 57 67  1  0
 58 63  1  0
 58 56  1  0
 59 69  1  0
 59 66  1  0
 59 67  1  0
 60 62  1  0
 62 61  1  0
 62 63  2  0
 64 58  2  0
 65 60  2  0
 65 64  1  0
 66 60  1  0
 67 61  1  0
 68 57  2  0
 70 72  1  0
 70 69  1  0
 71 69  2  0
 73 78  1  0
 74 70  1  0
 75 74  1  0
 76 75  1  0
 77 73  1  0
 77 76  1  0
 78 79  2  0
 78 74  1  0
 80 79  1  0
 81 80  2  0
 82 81  1  0
 82 73  2  0
 83 57  1  0
 83 84  1  0
 84 85  1  0
 85 86  2  0
 87 84  1  0
 89 88  1  0
 89 85  1  0
 89 91  1  0
 90 91  1  0
 92 91  1  0
 93 83  1  0
 93 96  1  1
 94 93  1  0
 95 93  1  0
M  ISO  4  15 100  23 100  55 101  56 101
M  END
>  <TORSDO>  (12) 
F 22

>  <SCORE>  (12) 
-7.651

>  <name>  (12) 
11

>  <ligand_id>  (12) 
11

>  <original_smiles>  (12) 
[H]c1c([H])c([H])c2c(c1[H])C([H])([H])C([H])([H])C([H])([H])C2([H])N([H])C(=O)C1([H])N(C(=O)C([H])(N([H])C(=O)C([H])(N([H])C([H])([H])[H])C([H])([H])[H])C(C([H])([H])[H])(C([H])([H])[H])C([H])([H])[H])C([H])([H])c2c([H])c(OC([H])([H])C([H])([H])C([H])([H])c3c([H])c([H])c(C4([H])C([H])([H])C([H])([H])[N+]([H])(C([H])([H])C([H])([H])N([H])C(=O)N5C([H])([H])C([H])([H])C([H])([H])C([H])(n6nc(-c7c([H])c([H])c(Oc8c([H])c([H])c(F)c([H])c8F)c([H])c7[H])c(C(=O)N([H])[H])c6N([H])[H])C5([H])[H])C4([H])[H])c([H])c3[H])c([H])c([H])c2C1([H])[H]

>  <smiles>  (12) 
[H]c1c([H])c([H])c2c(c1[H])C([H])([H])C([H])([H])C([H])([H])C2([H])N([H])C(=O)C1([H])N(C(=O)C([H])(N([H])C(=O)C([H])(N([H])C([H])([H])[H])C([H])([H])[H])C(C([H])([H])[H])(C([H])([H])[H])C([H])([H])[H])C([H])([H])c2c([H])c(OC([H])([H])C([H])([H])C([H])([H])c3c([H])c([H])c(C4([H])C([H])([H])C([H])([H])[N+]([H])(C([H])([H])C([H])([H])N([H])C(=O)N5C([H])([H])C([H])([H])C([H])([H])C([H])(n6nc(-c7c([H])c([H])c(Oc8c([H])c([H])c(F)c([H])c8F)c([H])c7[H])c(C(=O)N([H])[H])c6N([H])[H])C5([H])[H])C4([H])[H])c([H])c3[H])c([H])c([H])c2C1([H])[H]

$$$$
12:0:0
     RDKit          3D

103113  0  0  1  0  0  0  0  0999 V2000
  -31.1760  -21.6630   21.7970 C   0  0  0  0  0  2  0  0  0  0  0  0
  -30.4720  -20.7680   22.8180 C   0  0  0  0  0  2  0  0  0  0  0  0
  -30.3160  -21.5420   20.5280 C   0  0  0  0  0  3  0  0  0  0  0  0
  -29.6840  -20.0620   20.6500 C   0  0  0  0  0  3  0  0  0  0  0  0
  -29.8500  -19.6670   22.0630 N   0  0  0  0  0  4  0  0  0  0  0  0
  -28.9570  -19.4340   22.4700 H   0  0  0  0  0  0  0  0  0  0  0  0
  -30.4470  -18.8610   22.1330 H   0  0  0  0  0  0  0  0  0  0  0  0
  -29.2930  -22.7670   20.5070 C   0  0  0  0  0  0  0  0  0  0  0  0
  -28.1000  -22.5480   20.7240 O   0  0  0  0  0  0  0  0  0  0  0  0
  -30.4930  -24.3100   18.8910 C   0  0  0  0  0  1  0  0  0  0  0  0
  -29.7530  -24.2630   20.2440 C   0  0  0  0  0  3  0  0  0  0  0  0
  -28.5570  -25.3240   20.2870 C   0  0  0  0  0  2  0  0  0  0  0  0
  -28.7400  -26.8020   20.2900 O   0  0  0  0  0  0  0  0  0  0  0  0
  -24.6190  -31.9670   23.3040 C   0  0  0  0  0  0  0  0  0  0  0  0
  -27.5750  -27.5950   20.2550 C   0  0  0  0  0  0  0  0  0  0  0  0
  -23.5480  -30.5340   21.6070 C   0  0  0  0  0  3  0  0  0  0  0  0
  -25.1250  -29.0890   20.2120 C   0  0  0  0  0  0  0  0  0  0  0  0
  -26.0760  -30.9860   21.5120 C   0  0  0  0  0  2  0  0  0  0  0  0
  -26.2520  -29.6240   20.8490 C   0  0  0  0  0  0  0  0  0  0  0  0
  -27.4820  -28.8940   20.8560 C   0  0  0  0  0  3  0  0  0  0  0  0
  -26.4110  -27.1160   19.6070 C   0  0  0  0  0  3  0  0  0  0  0  0
  -25.2070  -27.8390   19.5850 C   0  0  0  0  0  3  0  0  0  0  0  0
  -23.8420  -29.8920   20.2280 C   0  0  0  0  0  2  0  0  0  0  0  0
  -24.7660  -31.1770   22.1990 N   0  0  0  0  0  0  0  0  0  0  0  0
  -23.5040  -32.1840   23.8000 O   0  0  0  0  0  0  0  0  0  0  0  0
  -22.8990  -29.4720   22.5260 C   0  0  0  0  0  0  0  0  0  0  0  0
  -21.5820  -29.2530   22.3620 N   0  0  0  0  0  0  0  0  0  0  0  0
  -23.5800  -28.8500   23.3460 O   0  0  0  0  0  0  0  0  0  0  0  0
  -21.0930  -29.8070   21.6740 H   0  0  0  0  0  0  0  0  0  0  0  0
  -18.2340  -27.9360   22.7570 C   0  0  0  0  0  0  0  0  0  0  0  0
  -20.7770  -28.2680   23.0880 C   0  0  0  0  0  3  0  0  0  0  0  0
  -20.9340  -26.8580   22.4740 C   0  0  0  0  0  2  0  0  0  0  0  0
  -19.8630  -26.5300   21.4290 C   0  0  0  0  0  2  0  0  0  0  0  0
  -18.4640  -26.6130   22.0460 C   0  0  0  0  0  2  0  0  0  0  0  0
  -19.3200  -28.7200   23.2300 C   0  0  0  0  0  0  0  0  0  0  0  0
  -19.0500  -29.9560   23.8560 C   0  0  0  0  0  3  0  0  0  0  0  0
  -17.7290  -30.4150   24.0070 C   0  0  0  0  0  3  0  0  0  0  0  0
  -16.6570  -29.6310   23.5460 C   0  0  0  0  0  3  0  0  0  0  0  0
  -16.9100  -28.3910   22.9330 C   0  0  0  0  0  3  0  0  0  0  0  0
  -25.8450  -32.6450   23.9890 C   0  0  0  0  0  3  0  0  0  0  0  0
  -25.4770  -34.0410   24.2720 N   0  0  0  0  0  0  0  0  0  0  0  0
  -25.8470  -35.0890   23.5230 C   0  0  0  0  0  0  0  0  0  0  0  0
  -26.5990  -34.9870   22.5490 O   0  0  0  0  0  0  0  0  0  0  0  0
  -24.8110  -34.1950   25.0150 H   0  0  0  0  0  0  0  0  0  0  0  0
  -24.1110  -36.8360   23.0090 C   0  0  0  0  0  1  0  0  0  0  0  0
  -25.2980  -36.4740   23.9150 C   0  0  0  0  0  3  0  0  0  0  0  0
  -27.3490  -37.4170   24.8840 C   0  0  0  0  0  1  0  0  0  0  0  0
  -26.3150  -37.5470   23.8580 N   0  0  0  0  0  0  0  0  0  0  0  0
  -25.8810  -38.4610   23.9610 H   0  0  0  0  0  0  0  0  0  0  0  0
  -26.3030  -31.9120   25.3080 C   0  0  1  0  0  0  0  0  0  0  0  0
  -25.1510  -31.6510   26.3070 C   0  0  0  0  0  1  0  0  0  0  0  0
  -26.9540  -30.5480   24.9760 C   0  0  0  0  0  1  0  0  0  0  0  0
  -27.3830  -32.7580   26.0270 C   0  0  0  0  0  1  0  0  0  0  0  0
  -29.9360  -18.7880   19.6650 C   0  0  0  0  0  3  0  0  0  0  0  0
  -31.4430  -15.1160   20.2800 C   0  0  0  0  0  0  0  0  0  0  0  0
  -31.1230  -12.7910   19.4890 C   0  0  0  0  0  2  0  0  0  0  0  0
  -30.2310  -12.7400   18.2310 C   0  0  0  0  0  2  0  0  0  0  0  0
  -28.7410  -12.6880   18.6170 C   0  0  0  0  0  2  0  0  0  0  0  0
  -28.3520  -13.7210   19.7090 C   0  0  0  0  0  3  0  0  0  0  0  0
  -29.3730  -13.7630   20.8620 C   0  0  0  0  0  2  0  0  0  0  0  0
  -30.6920  -13.9690   20.2610 N   0  0  0  0  0  0  0  0  0  0  0  0
  -32.6670  -15.0330   20.3980 O   0  0  0  0  0  0  0  0  0  0  0  0
  -32.6660  -17.3680   18.2400 C   0  0  0  0  0  2  0  0  0  0  0  0
  -32.4460  -18.1530   19.5270 C   0  0  0  0  0  2  0  0  0  0  0  0
  -31.5770  -16.2820   18.2400 C   0  0  0  0  0  2  0  0  0  0  0  0
  -31.0800  -17.6900   20.0520 C   0  0  0  0  0  3  0  0  0  0  0  0
  -30.9510  -16.2300   19.5890 N   0  0  0  0  0  0  0  0  0  0  0  0
  -25.9870  -14.4650   20.3780 C   0  0  0  0  0  0  0  0  0  0  0  0
  -24.8590  -13.7620   20.7000 C   0  0  0  0  0  0  0  0  0  0  0  0
  -25.2370  -12.3830   20.6890 C   0  0  0  0  0  0  0  0  0  0  0  0
  -26.9810  -13.5210   20.1760 N   0  0  0  0  0  0  0  0  0  0  0  0
  -26.5340  -12.2640   20.4360 N   0  0  0  0  0  0  0  0  0  0  0  0
  -24.4250  -11.1700   20.8510 C   0  0  0  0  0  0  0  0  0  0  0  0
  -24.7630  -10.1670   21.7880 C   0  0  0  0  0  3  0  0  0  0  0  0
  -23.9510   -9.0220   21.9370 C   0  0  0  0  0  3  0  0  0  0  0  0
  -22.7870   -8.8690   21.1480 C   0  0  0  0  0  0  0  0  0  0  0  0
  -22.4690   -9.8560   20.1990 C   0  0  0  0  0  3  0  0  0  0  0  0
  -23.2820  -10.9940   20.0470 C   0  0  0  0  0  3  0  0  0  0  0  0
  -21.9540   -7.7770   21.2070 O   0  0  0  0  0  0  0  0  0  0  0  0
  -21.8310   -7.0270   22.3480 C   0  0  0  0  0  0  0  0  0  0  0  0
  -21.4190   -7.5970   23.5730 C   0  0  0  0  0  3  0  0  0  0  0  0
  -21.2310   -6.7780   24.7040 C   0  0  0  0  0  3  0  0  0  0  0  0
  -21.4500   -5.3900   24.6120 C   0  0  0  0  0  0  0  0  0  0  0  0
  -21.8580   -4.8200   23.3940 C   0  0  0  0  0  3  0  0  0  0  0  0
  -22.0410   -5.6340   22.2640 C   0  0  0  0  0  0  0  0  0  0  0  0
  -22.4080   -5.0760   21.0860 F   0  0  0  0  0  0  0  0  0  0  0  0
  -21.2640   -4.6010   25.6970 F   0  0  0  0  0  0  0  0  0  0  0  0
  -23.4810  -14.3210   20.9130 C   0  0  0  0  0  0  0  0  0  0  0  0
  -22.6840  -13.6820   21.7590 N   0  0  0  0  0  0  0  0  0  0  0  0
  -23.1230  -15.3630   20.3600 O   0  0  0  0  0  0  0  0  0  0  0  0
  -22.9940  -12.8350   22.2140 H   0  0  0  0  0  0  0  0  0  0  0  0
  -21.7560  -14.0290   21.9520 H   0  0  0  0  0  0  0  0  0  0  0  0
  -26.2540  -15.8230   20.2130 N   0  0  0  0  0  0  0  0  0  0  0  0
  -25.5480  -16.5380   20.3450 H   0  0  0  0  0  0  0  0  0  0  0  0
  -27.1620  -16.2010   19.9800 H   0  0  0  0  0  0  0  0  0  0  0  0
  -29.5190  -20.5650   17.6810 C   0  0  0  0  0  2  0  0  0  0  0  0
  -28.8670  -18.2050   17.3590 C   0  0  0  0  0  2  0  0  0  0  0  0
  -29.7270  -20.7100   16.1580 C   0  0  0  0  0  2  0  0  0  0  0  0
  -29.0270  -18.3570   15.8280 C   0  0  0  0  0  2  0  0  0  0  0  0
  -29.8590  -19.1240   18.1280 C   0  0  0  0  0  3  0  0  0  0  0  0
  -28.8890  -19.7630   15.3920 N   0  0  0  0  0  4  0  0  0  0  0  0
  -29.1550  -19.8160   14.4220 H   0  0  0  0  0  0  0  0  0  0  0  0
  -27.9260  -20.0520   15.4450 H   0  0  0  0  0  0  0  0  0  0  0  0
  1  2  1  0
  3  8  1  0
  3  4  1  0
  3  1  1  0
  4 54  1  0
  4  5  1  0
  5  7  1  0
  5  6  1  0
  5  2  1  0
  8  9  2  0
 11 10  1  0
 11 12  1  0
 11  8  1  0
 12 13  1  0
 14 25  2  0
 15 13  1  0
 15 20  1  0
 16 24  1  0
 16 26  1  0
 17 23  1  0
 17 19  1  0
 18 24  1  0
 19 20  2  0
 19 18  1  0
 21 15  2  0
 22 21  1  0
 22 17  2  0
 23 16  1  0
 24 14  1  0
 26 28  2  0
 27 26  1  0
 29 27  1  0
 30 39  2  0
 30 35  1  0
 31 27  1  0
 31 35  1  0
 32 31  1  0
 33 34  1  0
 33 32  1  0
 34 30  1  0
 35 36  2  0
 36 37  1  0
 38 37  2  0
 39 38  1  0
 40 14  1  0
 40 41  1  0
 40 50  1  0
 41 44  1  0
 42 46  1  0
 42 41  1  0
 43 42  2  0
 46 45  1  0
 48 46  1  0
 48 49  1  0
 48 47  1  0
 50 53  1  1
 50 51  1  0
 52 50  1  0
 54100  1  0
 55 62  2  0
 56 61  1  0
 57 58  1  0
 57 56  1  0
 59 58  1  0
 59 71  1  0
 59 60  1  0
 61 55  1  0
 61 60  1  0
 63 64  1  0
 64 66  1  0
 65 63  1  0
 65 67  1  0
 66 54  1  0
 67 66  1  0
 67 55  1  0
 68 69  2  0
 69 88  1  0
 70 69  1  0
 70 73  1  0
 71 68  1  0
 71 72  1  0
 72 70  2  0
 73 74  1  0
 74 75  2  0
 76 79  1  0
 76 75  1  0
 77 76  2  0
 78 77  1  0
 78 73  2  0
 79 80  1  0
 80 81  1  0
 81 82  2  0
 83 82  1  0
 83 87  1  0
 84 83  2  0
 85 80  2  0
 85 84  1  0
 86 85  1  0
 88 89  1  0
 89 92  1  0
 89 91  1  0
 90 88  2  0
 93 94  1  0
 93 68  1  0
 95 93  1  0
 96100  1  0
 97100  1  0
 98 96  1  0
 99 97  1  0
101103  1  0
101 99  1  0
101 98  1  0
102101  1  0
M  ISO  4  12 101  13 101  55 100  67 100
M  END
>  <TORSDO>  (13) 
F 21

>  <SCORE>  (13) 
-12.382

>  <name>  (13) 
12

>  <ligand_id>  (13) 
12

>  <original_smiles>  (13) 
[H]c1c([H])c([H])c2c(c1[H])C([H])([H])C([H])([H])C([H])([H])C2([H])N([H])C(=O)C1([H])N(C(=O)C([H])(N([H])C(=O)C([H])(N([H])C([H])([H])[H])C([H])([H])[H])C(C([H])([H])[H])(C([H])([H])[H])C([H])([H])[H])C([H])([H])c2c([H])c(OC([H])([H])C([H])(C(=O)C3([H])C([H])([H])C([H])([H])[N+]([H])([H])C3([H])C([H])(C3([H])N(C(=O)N4C([H])([H])C([H])([H])C([H])([H])C([H])(n5nc(-c6c([H])c([H])c(Oc7c([H])c([H])c(F)c([H])c7F)c([H])c6[H])c(C(=O)N([H])[H])c5N([H])[H])C4([H])[H])C([H])([H])C([H])([H])C3([H])[H])C3([H])C([H])([H])C([H])([H])[N+]([H])([H])C([H])([H])C3([H])[H])C([H])([H])[H])c([H])c([H])c2C1([H])[H]

>  <smiles>  (13) 
[H]c1c([H])c([H])c2c(c1[H])C([H])([H])C([H])([H])C([H])([H])C2([H])N([H])C(=O)C1([H])N(C(=O)C([H])(N([H])C(=O)C([H])(N([H])C([H])([H])[H])C([H])([H])[H])C(C([H])([H])[H])(C([H])([H])[H])C([H])([H])[H])C([H])([H])c2c([H])c(OC([H])([H])C([H])(C(=O)C3([H])C([H])([H])C([H])([H])[N+]([H])([H])C3([H])C([H])(C3([H])N(C(=O)N4C([H])([H])C([H])([H])C([H])([H])C([H])(n5nc(-c6c([H])c([H])c(Oc7c([H])c([H])c(F)c([H])c7F)c([H])c6[H])c(C(=O)N([H])[H])c5N([H])[H])C4([H])[H])C([H])([H])C([H])([H])C3([H])[H])C3([H])C([H])([H])C([H])([H])[N+]([H])([H])C([H])([H])C3([H])[H])C([H])([H])[H])c([H])c([H])c2C1([H])[H]

$$$$
13:0:0
     RDKit          3D

 94102  0  0  1  0  0  0  0  0999 V2000
  -29.6260  -21.6310   20.1730 C   0  0  0  0  0  2  0  0  0  0  0  0
  -29.1110  -22.6630   21.1480 N   0  0  0  0  0  4  0  0  0  0  0  0
  -29.4640  -22.4160   22.0600 H   0  0  0  0  0  0  0  0  0  0  0  0
  -28.1100  -22.5580   21.2120 H   0  0  0  0  0  0  0  0  0  0  0  0
  -29.4150  -24.1340   20.9370 C   0  0  0  0  0  2  0  0  0  0  0  0
  -28.3020  -24.5940   18.7020 C   0  0  0  0  0  1  0  0  0  0  0  0
  -28.3110  -24.9810   20.1920 C   0  0  0  0  0  3  0  0  0  0  0  0
  -28.4460  -26.4450   20.3160 O   0  0  0  0  0  0  0  0  0  0  0  0
  -24.6270  -31.8180   23.1770 C   0  0  0  0  0  0  0  0  0  0  0  0
  -27.3030  -27.2500   20.2280 C   0  0  0  0  0  0  0  0  0  0  0  0
  -23.4500  -30.3890   21.5440 C   0  0  0  0  0  3  0  0  0  0  0  0
  -24.9240  -28.8310   20.1610 C   0  0  0  0  0  0  0  0  0  0  0  0
  -25.9880  -30.7280   21.3840 C   0  0  0  0  0  2  0  0  0  0  0  0
  -26.0830  -29.3430   20.7600 C   0  0  0  0  0  0  0  0  0  0  0  0
  -27.2740  -28.5650   20.7790 C   0  0  0  0  0  3  0  0  0  0  0  0
  -26.1140  -26.7830   19.6140 C   0  0  0  0  0  3  0  0  0  0  0  0
  -24.9410  -27.5570   19.5790 C   0  0  0  0  0  3  0  0  0  0  0  0
  -23.6820  -29.6950   20.1770 C   0  0  0  0  0  2  0  0  0  0  0  0
  -24.7060  -30.9960   22.0910 N   0  0  0  0  0  0  0  0  0  0  0  0
  -23.5350  -32.1000   23.6900 O   0  0  0  0  0  0  0  0  0  0  0  0
  -22.7830  -29.3810   22.5110 C   0  0  0  0  0  0  0  0  0  0  0  0
  -21.4630  -29.1860   22.3600 N   0  0  0  0  0  0  0  0  0  0  0  0
  -23.4530  -28.7780   23.3520 O   0  0  0  0  0  0  0  0  0  0  0  0
  -20.9860  -29.7270   21.6510 H   0  0  0  0  0  0  0  0  0  0  0  0
  -18.0900  -27.9490   22.7870 C   0  0  0  0  0  0  0  0  0  0  0  0
  -20.6340  -28.2580   23.1300 C   0  0  0  0  0  3  0  0  0  0  0  0
  -20.7760  -26.8130   22.5970 C   0  0  0  0  0  2  0  0  0  0  0  0
  -19.7100  -26.4430   21.5620 C   0  0  0  0  0  2  0  0  0  0  0  0
  -18.3080  -26.5830   22.1580 C   0  0  0  0  0  2  0  0  0  0  0  0
  -19.1820  -28.7430   23.2280 C   0  0  0  0  0  0  0  0  0  0  0  0
  -18.9230  -30.0190   23.7740 C   0  0  0  0  0  3  0  0  0  0  0  0
  -17.6050  -30.4990   23.8890 C   0  0  0  0  0  3  0  0  0  0  0  0
  -16.5280  -29.7040   23.4640 C   0  0  0  0  0  3  0  0  0  0  0  0
  -16.7700  -28.4320   22.9170 C   0  0  0  0  0  3  0  0  0  0  0  0
  -25.9000  -32.4630   23.8080 C   0  0  0  0  0  3  0  0  0  0  0  0
  -25.5670  -33.8530   24.1450 N   0  0  0  0  0  0  0  0  0  0  0  0
  -25.8880  -34.9170   23.3980 C   0  0  0  0  0  0  0  0  0  0  0  0
  -26.5660  -34.8330   22.3690 O   0  0  0  0  0  0  0  0  0  0  0  0
  -24.9690  -33.9940   24.9460 H   0  0  0  0  0  0  0  0  0  0  0  0
  -24.1350  -36.6880   23.0490 C   0  0  0  0  0  1  0  0  0  0  0  0
  -25.3770  -36.2940   23.8650 C   0  0  0  0  0  3  0  0  0  0  0  0
  -27.4970  -37.2010   24.7100 C   0  0  0  0  0  1  0  0  0  0  0  0
  -26.3940  -37.3630   23.7670 N   0  0  0  0  0  0  0  0  0  0  0  0
  -25.9720  -38.2750   23.9240 H   0  0  0  0  0  0  0  0  0  0  0  0
  -26.4240  -31.6910   25.0810 C   0  0  1  0  0  0  0  0  0  0  0  0
  -25.3330  -31.4290   26.1470 C   0  0  0  0  0  1  0  0  0  0  0  0
  -27.0290  -30.3250   24.6780 C   0  0  0  0  0  1  0  0  0  0  0  0
  -27.5620  -32.4990   25.7480 C   0  0  0  0  0  1  0  0  0  0  0  0
  -32.0090  -20.7920   19.5780 C   0  0  0  0  0  1  0  0  0  0  0  0
  -30.8870  -20.7850   20.6300 C   0  0  0  0  0  3  0  0  0  0  0  0
  -30.5690  -17.9780   23.2220 C   0  0  0  0  0  3  0  0  0  0  0  0
  -30.6090  -19.2460   22.6260 C   0  0  0  0  0  3  0  0  0  0  0  0
  -30.6180  -16.8400   22.4000 C   0  0  0  0  0  3  0  0  0  0  0  0
  -30.6920  -19.3530   21.2280 C   0  0  0  0  0  0  0  0  0  0  0  0
  -30.6900  -16.9690   20.9980 C   0  0  0  0  0  0  0  0  0  0  0  0
  -30.6930  -18.2260   20.4290 N   0  0  0  0  0  0  0  0  0  0  0  0
  -31.3010  -14.6450   20.0710 C   0  0  0  0  0  0  0  0  0  0  0  0
  -30.9360  -12.4430   18.9570 C   0  0  0  0  0  2  0  0  0  0  0  0
  -29.9600  -12.6390   17.7740 C   0  0  0  0  0  2  0  0  0  0  0  0
  -28.4910  -12.5810   18.2440 C   0  0  0  0  0  2  0  0  0  0  0  0
  -28.2230  -13.4580   19.4960 C   0  0  0  0  0  3  0  0  0  0  0  0
  -29.2990  -13.2040   20.5790 C   0  0  0  0  0  2  0  0  0  0  0  0
  -30.6130  -13.4660   19.9670 N   0  0  0  0  0  0  0  0  0  0  0  0
  -32.4780  -14.7510   19.7050 O   0  0  0  0  0  0  0  0  0  0  0  0
  -30.4930  -15.7180   20.3060 N   0  0  0  0  0  0  0  0  0  0  0  0
  -29.5450  -15.3940   20.3890 H   0  0  0  0  0  0  0  0  0  0  0  0
  -25.9060  -14.2320   20.3000 C   0  0  0  0  0  0  0  0  0  0  0  0
  -24.7910  -13.5370   20.6810 C   0  0  0  0  0  0  0  0  0  0  0  0
  -25.1420  -12.1540   20.6010 C   0  0  0  0  0  0  0  0  0  0  0  0
  -26.8690  -13.2770   20.0090 N   0  0  0  0  0  0  0  0  0  0  0  0
  -26.4150  -12.0210   20.2510 N   0  0  0  0  0  0  0  0  0  0  0  0
  -24.3250  -10.9480   20.7820 C   0  0  0  0  0  0  0  0  0  0  0  0
  -24.6960   -9.9320   21.6900 C   0  0  0  0  0  3  0  0  0  0  0  0
  -23.8830   -8.7900   21.8590 C   0  0  0  0  0  3  0  0  0  0  0  0
  -22.6850   -8.6550   21.1160 C   0  0  0  0  0  0  0  0  0  0  0  0
  -22.3320   -9.6600   20.1970 C   0  0  0  0  0  3  0  0  0  0  0  0
  -23.1440  -10.7940   20.0270 C   0  0  0  0  0  3  0  0  0  0  0  0
  -21.8490   -7.5680   21.1930 O   0  0  0  0  0  0  0  0  0  0  0  0
  -21.7400   -6.8240   22.3410 C   0  0  0  0  0  0  0  0  0  0  0  0
  -21.3830   -7.4070   23.5750 C   0  0  0  0  0  3  0  0  0  0  0  0
  -21.2140   -6.5950   24.7150 C   0  0  0  0  0  3  0  0  0  0  0  0
  -21.3950   -5.2020   24.6200 C   0  0  0  0  0  0  0  0  0  0  0  0
  -21.7470   -4.6200   23.3910 C   0  0  0  0  0  3  0  0  0  0  0  0
  -21.9170   -5.4280   22.2540 C   0  0  0  0  0  0  0  0  0  0  0  0
  -22.2350   -4.8600   21.0660 F   0  0  0  0  0  0  0  0  0  0  0  0
  -21.2280   -4.4200   25.7140 F   0  0  0  0  0  0  0  0  0  0  0  0
  -23.4430  -14.1150   21.0070 C   0  0  0  0  0  0  0  0  0  0  0  0
  -22.6940  -13.4690   21.8920 N   0  0  0  0  0  0  0  0  0  0  0  0
  -23.0660  -15.1760   20.5110 O   0  0  0  0  0  0  0  0  0  0  0  0
  -23.0050  -12.6120   22.3230 H   0  0  0  0  0  0  0  0  0  0  0  0
  -21.7920  -13.8480   22.1510 H   0  0  0  0  0  0  0  0  0  0  0  0
  -26.1740  -15.5900   20.1590 N   0  0  0  0  0  0  0  0  0  0  0  0
  -25.4660  -16.2950   20.3320 H   0  0  0  0  0  0  0  0  0  0  0  0
  -27.0320  -15.9800   19.7940 H   0  0  0  0  0  0  0  0  0  0  0  0
  1 50  1  0
  1  2  1  0
  2  4  1  0
  2  3  1  0
  5  2  1  0
  7  6  1  0
  7  8  1  0
  7  5  1  0
  9 20  2  0
 10  8  1  0
 10 15  1  0
 11 19  1  0
 11 21  1  0
 12 18  1  0
 12 14  1  0
 13 19  1  0
 14 15  2  0
 14 13  1  0
 16 10  2  0
 17 16  1  0
 17 12  2  0
 18 11  1  0
 19  9  1  0
 21 23  2  0
 22 21  1  0
 24 22  1  0
 25 34  2  0
 25 30  1  0
 26 22  1  0
 26 30  1  0
 27 26  1  0
 28 29  1  0
 28 27  1  0
 29 25  1  0
 30 31  2  0
 31 32  1  0
 33 32  2  0
 34 33  1  0
 35  9  1  0
 35 36  1  0
 35 45  1  0
 36 39  1  0
 37 41  1  0
 37 36  1  0
 38 37  2  0
 41 40  1  0
 43 41  1  0
 43 44  1  0
 43 42  1  0
 45 48  1  1
 45 46  1  0
 47 45  1  0
 50 49  1  0
 50 54  1  0
 52 51  1  0
 53 51  2  0
 54 52  2  0
 55 53  1  0
 56 55  2  0
 56 54  1  0
 57 65  1  0
 58 63  1  0
 59 60  1  0
 59 58  1  0
 61 60  1  0
 61 70  1  0
 61 62  1  0
 63 57  1  0
 63 62  1  0
 64 57  2  0
 65 66  1  0
 65 55  1  0
 67 68  2  0
 68 87  1  0
 69 68  1  0
 69 72  1  0
 70 71  1  0
 70 67  1  0
 71 69  2  0
 72 73  1  0
 73 74  2  0
 75 78  1  0
 75 74  1  0
 76 75  2  0
 77 76  1  0
 77 72  2  0
 78 79  1  0
 79 80  1  0
 80 81  2  0
 82 81  1  0
 82 86  1  0
 83 82  2  0
 84 79  2  0
 84 83  1  0
 85 84  1  0
 87 88  1  0
 88 91  1  0
 88 90  1  0
 89 87  2  0
 92 67  1  0
 92 93  1  0
 94 92  1  0
M  ISO  4   7 101   8 101  57 100  65 100
M  END
>  <TORSDO>  (14) 
F 21

>  <SCORE>  (14) 
-12.356

>  <name>  (14) 
13

>  <ligand_id>  (14) 
13

>  <original_smiles>  (14) 
[H]c1c(N([H])C(=O)N2C([H])([H])C([H])([H])C([H])([H])C([H])(n3nc(-c4c([H])c([H])c(Oc5c([H])c([H])c(F)c([H])c5F)c([H])c4[H])c(C(=O)N([H])[H])c3N([H])[H])C2([H])[H])nc(C([H])(C([H])([H])[H])C([H])([H])[N+]([H])([H])C([H])([H])C([H])(Oc2c([H])c([H])c3c(c2[H])C([H])([H])N(C(=O)C([H])(N([H])C(=O)C([H])(N([H])C([H])([H])[H])C([H])([H])[H])C(C([H])([H])[H])(C([H])([H])[H])C([H])([H])[H])C([H])(C(=O)N([H])C2([H])c4c([H])c([H])c([H])c([H])c4C([H])([H])C([H])([H])C2([H])[H])C3([H])[H])C([H])([H])[H])c([H])c1[H]

>  <smiles>  (14) 
[H]c1c(N([H])C(=O)N2C([H])([H])C([H])([H])C([H])([H])C([H])(n3nc(-c4c([H])c([H])c(Oc5c([H])c([H])c(F)c([H])c5F)c([H])c4[H])c(C(=O)N([H])[H])c3N([H])[H])C2([H])[H])nc(C([H])(C([H])([H])[H])C([H])([H])[N+]([H])([H])C([H])([H])C([H])(Oc2c([H])c([H])c3c(c2[H])C([H])([H])N(C(=O)C([H])(N([H])C(=O)C([H])(N([H])C([H])([H])[H])C([H])([H])[H])C(C([H])([H])[H])(C([H])([H])[H])C([H])([H])[H])C([H])(C(=O)N([H])C2([H])c4c([H])c([H])c([H])c([H])c4C([H])([H])C([H])([H])C2([H])[H])C3([H])[H])C([H])([H])[H])c([H])c1[H]

$$$$
14:0:0
     RDKit          3D

 99108  0  0  1  0  0  0  0  0999 V2000
  -28.8770  -21.1980   18.4800 C   0  0  0  0  0  3  0  0  0  0  0  0
  -29.4770  -19.9900   18.7320 C   0  0  0  0  0  3  0  0  0  0  0  0
  -29.5130  -21.1940   20.6050 C   0  0  0  0  0  3  0  0  0  0  0  0
  -28.8780  -21.9940   19.6630 C   0  0  0  0  0  0  0  0  0  0  0  0
  -29.8970  -19.9560   20.0490 N   0  0  0  0  0  0  0  0  0  0  0  0
  -31.9890  -19.5040   21.2600 C   0  0  0  0  0  2  0  0  0  0  0  0
  -32.4720  -18.9560   22.6070 C   0  0  0  0  0  2  0  0  0  0  0  0
  -30.5180  -17.6230   23.0420 C   0  0  0  0  0  2  0  0  0  0  0  0
  -30.7090  -18.8470   20.6570 C   0  0  0  0  0  3  0  0  0  0  0  0
  -29.9330  -17.8270   21.6110 C   0  0  0  0  0  3  0  0  0  0  0  0
  -31.3310  -18.7490   23.5130 N   0  0  0  0  0  4  0  0  0  0  0  0
  -30.7780  -19.5850   23.6020 H   0  0  0  0  0  0  0  0  0  0  0  0
  -31.6840  -18.5200   24.4300 H   0  0  0  0  0  0  0  0  0  0  0  0
  -30.4810  -15.4710   20.6810 C   0  0  0  0  0  0  0  0  0  0  0  0
  -30.5080  -13.1760   19.7280 C   0  0  0  0  0  2  0  0  0  0  0  0
  -29.6380  -13.1250   18.4530 C   0  0  0  0  0  2  0  0  0  0  0  0
  -28.1570  -12.8750   18.8040 C   0  0  0  0  0  2  0  0  0  0  0  0
  -27.6440  -13.7970   19.9440 C   0  0  0  0  0  3  0  0  0  0  0  0
  -28.6320  -13.8110   21.1300 C   0  0  0  0  0  2  0  0  0  0  0  0
  -29.9460  -14.2180   20.6060 N   0  0  0  0  0  0  0  0  0  0  0  0
  -31.6360  -15.7190   20.3290 O   0  0  0  0  0  0  0  0  0  0  0  0
  -29.6370  -16.4590   21.0830 N   0  0  0  0  0  0  0  0  0  0  0  0
  -28.6880  -16.1470   21.2290 H   0  0  0  0  0  0  0  0  0  0  0  0
  -25.1950  -14.2490   20.5770 C   0  0  0  0  0  0  0  0  0  0  0  0
  -24.1590  -13.4110   20.8910 C   0  0  0  0  0  0  0  0  0  0  0  0
  -24.6960  -12.0880   20.8510 C   0  0  0  0  0  0  0  0  0  0  0  0
  -26.2950  -13.4320   20.3690 N   0  0  0  0  0  0  0  0  0  0  0  0
  -25.9980  -12.1260   20.5930 N   0  0  0  0  0  0  0  0  0  0  0  0
  -24.0350  -10.7830   20.9890 C   0  0  0  0  0  0  0  0  0  0  0  0
  -24.4450   -9.8440   21.9610 C   0  0  0  0  0  3  0  0  0  0  0  0
  -23.7800   -8.6060   22.0860 C   0  0  0  0  0  3  0  0  0  0  0  0
  -22.6930   -8.2950   21.2350 C   0  0  0  0  0  0  0  0  0  0  0  0
  -22.3030   -9.2230   20.2530 C   0  0  0  0  0  3  0  0  0  0  0  0
  -22.9690  -10.4540   20.1280 C   0  0  0  0  0  3  0  0  0  0  0  0
  -22.0050   -7.1060   21.2660 O   0  0  0  0  0  0  0  0  0  0  0  0
  -21.8460   -6.3960   22.4300 C   0  0  0  0  0  0  0  0  0  0  0  0
  -21.2060   -6.9510   23.5580 C   0  0  0  0  0  3  0  0  0  0  0  0
  -21.0010   -6.1640   24.7090 C   0  0  0  0  0  3  0  0  0  0  0  0
  -21.4270   -4.8220   24.7300 C   0  0  0  0  0  0  0  0  0  0  0  0
  -22.0610   -4.2670   23.6050 C   0  0  0  0  0  3  0  0  0  0  0  0
  -22.2670   -5.0510   22.4570 C   0  0  0  0  0  0  0  0  0  0  0  0
  -22.8590   -4.5050   21.3680 F   0  0  0  0  0  0  0  0  0  0  0  0
  -21.2240   -4.0630   25.8320 F   0  0  0  0  0  0  0  0  0  0  0  0
  -22.7280  -13.8050   21.1160 C   0  0  0  0  0  0  0  0  0  0  0  0
  -22.0060  -13.0490   21.9360 N   0  0  0  0  0  0  0  0  0  0  0  0
  -22.2540  -14.8160   20.5990 O   0  0  0  0  0  0  0  0  0  0  0  0
  -22.3990  -12.2300   22.3740 H   0  0  0  0  0  0  0  0  0  0  0  0
  -21.0450  -13.2950   22.1280 H   0  0  0  0  0  0  0  0  0  0  0  0
  -25.2910  -15.6300   20.4330 N   0  0  0  0  0  0  0  0  0  0  0  0
  -24.4850  -16.2390   20.5180 H   0  0  0  0  0  0  0  0  0  0  0  0
  -26.1220  -16.1180   20.1250 H   0  0  0  0  0  0  0  0  0  0  0  0
  -28.1770  -23.3900   19.7920 C   0  0  0  0  0  3  0  0  0  0  0  0
  -26.9100  -23.0490   21.9250 C   0  0  0  0  0  1  0  0  0  0  0  0
  -27.9930  -23.7620   21.2140 N   0  0  0  0  0  4  0  0  0  0  0  0
  -28.8610  -23.6180   21.7020 H   0  0  0  0  0  0  0  0  0  0  0  0
  -27.7820  -24.7440   21.2680 H   0  0  0  0  0  0  0  0  0  0  0  0
  -28.6980  -24.6340   18.9490 C   0  0  0  0  0  2  0  0  0  0  0  0
  -27.5680  -25.6940   18.6200 C   0  0  0  0  0  2  0  0  0  0  0  0
  -27.8020  -27.1460   18.6710 O   0  0  0  0  0  0  0  0  0  0  0  0
  -24.4730  -31.8050   23.0370 C   0  0  0  0  0  0  0  0  0  0  0  0
  -26.6700  -27.9380   18.9150 C   0  0  0  0  0  0  0  0  0  0  0  0
  -23.0580  -30.6550   21.3730 C   0  0  0  0  0  3  0  0  0  0  0  0
  -24.3040  -29.4200   19.5180 C   0  0  0  0  0  0  0  0  0  0  0  0
  -25.5390  -31.0970   20.8880 C   0  0  0  0  0  2  0  0  0  0  0  0
  -25.5410  -29.8510   20.0140 C   0  0  0  0  0  0  0  0  0  0  0  0
  -26.7260  -29.1240   19.7050 C   0  0  0  0  0  3  0  0  0  0  0  0
  -25.4010  -27.5630   18.4070 C   0  0  0  0  0  3  0  0  0  0  0  0
  -24.2340  -28.2820   18.7070 C   0  0  0  0  0  3  0  0  0  0  0  0
  -23.0740  -30.2230   19.8850 C   0  0  0  0  0  2  0  0  0  0  0  0
  -24.3840  -31.1920   21.8220 N   0  0  0  0  0  0  0  0  0  0  0  0
  -23.4780  -31.9510   23.7610 O   0  0  0  0  0  0  0  0  0  0  0  0
  -22.5560  -29.4680   22.2310 C   0  0  0  0  0  0  0  0  0  0  0  0
  -21.2430  -29.1950   22.1770 N   0  0  0  0  0  0  0  0  0  0  0  0
  -23.3470  -28.8000   22.9030 O   0  0  0  0  0  0  0  0  0  0  0  0
  -20.6580  -29.7980   21.6140 H   0  0  0  0  0  0  0  0  0  0  0  0
  -18.0280  -27.6130   22.6800 C   0  0  0  0  0  0  0  0  0  0  0  0
  -20.5600  -28.1010   22.8710 C   0  0  0  0  0  3  0  0  0  0  0  0
  -20.7690  -26.7550   22.1390 C   0  0  0  0  0  2  0  0  0  0  0  0
  -19.6510  -26.4320   21.1410 C   0  0  0  0  0  2  0  0  0  0  0  0
  -18.2980  -26.3680   21.8550 C   0  0  0  0  0  2  0  0  0  0  0  0
  -19.0900  -28.4340   23.1450 C   0  0  0  0  0  0  0  0  0  0  0  0
  -18.7800  -29.5990   23.8800 C   0  0  0  0  0  3  0  0  0  0  0  0
  -17.4440  -29.9470   24.1510 C   0  0  0  0  0  3  0  0  0  0  0  0
  -16.3980  -29.1200   23.7020 C   0  0  0  0  0  3  0  0  0  0  0  0
  -16.6910  -27.9550   22.9730 C   0  0  0  0  0  3  0  0  0  0  0  0
  -25.8270  -32.3730   23.5650 C   0  0  0  0  0  3  0  0  0  0  0  0
  -25.5750  -33.7270   24.0730 N   0  0  0  0  0  0  0  0  0  0  0  0
  -25.8160  -34.8550   23.3870 C   0  0  0  0  0  0  0  0  0  0  0  0
  -26.3470  -34.8600   22.2740 O   0  0  0  0  0  0  0  0  0  0  0  0
  -25.0920  -33.7960   24.9580 H   0  0  0  0  0  0  0  0  0  0  0  0
  -24.0650  -36.6590   23.4470 C   0  0  0  0  0  1  0  0  0  0  0  0
  -25.4010  -36.1870   24.0420 C   0  0  0  0  0  3  0  0  0  0  0  0
  -27.6280  -37.0050   24.6710 C   0  0  0  0  0  1  0  0  0  0  0  0
  -26.4160  -37.2540   23.8970 N   0  0  0  0  0  0  0  0  0  0  0  0
  -26.0360  -38.1540   24.1790 H   0  0  0  0  0  0  0  0  0  0  0  0
  -26.4820  -31.4730   24.6850 C   0  0  1  0  0  0  0  0  0  0  0  0
  -25.5180  -31.1310   25.8460 C   0  0  0  0  0  1  0  0  0  0  0  0
  -26.9910  -30.1420   24.0870 C   0  0  0  0  0  1  0  0  0  0  0  0
  -27.7150  -32.1930   25.2800 C   0  0  0  0  0  1  0  0  0  0  0  0
  1  2  2  0
  1  4  1  0
  2  5  1  0
  4 52  1  0
  4  3  2  0
  5  3  1  0
  6  7  1  0
  7 11  1  0
  8 11  1  0
  9  5  1  0
  9  6  1  0
  9 10  1  0
 10 22  1  0
 10  8  1  0
 11 12  1  0
 11 13  1  0
 14 22  1  0
 15 20  1  0
 16 17  1  0
 16 15  1  0
 18 17  1  0
 18 27  1  0
 18 19  1  0
 20 14  1  0
 20 19  1  0
 21 14  2  0
 22 23  1  0
 24 25  2  0
 25 44  1  0
 26 25  1  0
 26 29  1  0
 27 24  1  0
 27 28  1  0
 28 26  2  0
 29 30  1  0
 30 31  2  0
 32 35  1  0
 32 31  1  0
 33 32  2  0
 34 33  1  0
 34 29  2  0
 35 36  1  0
 36 41  2  0
 36 37  1  0
 37 38  2  0
 38 39  1  0
 39 43  1  0
 40 39  2  0
 41 40  1  0
 42 41  1  0
 44 45  1  0
 45 48  1  0
 45 47  1  0
 46 44  2  0
 49 50  1  0
 49 24  1  0
 51 49  1  0
 52 57  1  0
 52 54  1  0
 54 56  1  0
 54 55  1  0
 54 53  1  0
 58 59  1  0
 58 57  1  0
 59 61  1  0
 60 71  2  0
 61 66  1  0
 62 70  1  0
 62 72  1  0
 63 69  1  0
 63 65  1  0
 64 70  1  0
 65 64  1  0
 66 65  2  0
 67 68  1  0
 67 61  2  0
 68 63  2  0
 69 62  1  0
 70 60  1  0
 72 74  2  0
 73 72  1  0
 75 73  1  0
 76 85  2  0
 76 81  1  0
 77 73  1  0
 77 81  1  0
 78 77  1  0
 79 80  1  0
 79 78  1  0
 80 76  1  0
 81 82  2  0
 82 83  1  0
 84 83  2  0
 85 84  1  0
 86 60  1  0
 86 87  1  0
 86 96  1  0
 87 90  1  0
 88 92  1  0
 88 87  1  0
 89 88  2  0
 92 91  1  0
 94 92  1  0
 94 95  1  0
 94 93  1  0
 96 99  1  1
 96 97  1  0
 98 96  1  0
M  ISO  4  14 100  22 100  58 101  59 101
M  END
>  <TORSDO>  (15) 
F 21

>  <SCORE>  (15) 
-11.173

>  <name>  (15) 
14

>  <ligand_id>  (15) 
14

>  <original_smiles>  (15) 
[H]c1c([H])c([H])c2c(c1[H])C([H])([H])C([H])([H])C([H])([H])C2([H])N([H])C(=O)C1([H])N(C(=O)C([H])(N([H])C(=O)C([H])(N([H])C([H])([H])[H])C([H])([H])[H])C(C([H])([H])[H])(C([H])([H])[H])C([H])([H])[H])C([H])([H])c2c([H])c(OC([H])([H])C([H])([H])C([H])(c3c([H])c([H])n(C4([H])C([H])([H])C([H])([H])[N+]([H])([H])C([H])([H])C4([H])N([H])C(=O)N4C([H])([H])C([H])([H])C([H])([H])C([H])(n5nc(-c6c([H])c([H])c(Oc7c([H])c([H])c(F)c([H])c7F)c([H])c6[H])c(C(=O)N([H])[H])c5N([H])[H])C4([H])[H])c3[H])[N+]([H])([H])C([H])([H])[H])c([H])c([H])c2C1([H])[H]

>  <smiles>  (15) 
[H]c1c([H])c([H])c2c(c1[H])C([H])([H])C([H])([H])C([H])([H])C2([H])N([H])C(=O)C1([H])N(C(=O)C([H])(N([H])C(=O)C([H])(N([H])C([H])([H])[H])C([H])([H])[H])C(C([H])([H])[H])(C([H])([H])[H])C([H])([H])[H])C([H])([H])c2c([H])c(OC([H])([H])C([H])([H])C([H])(c3c([H])c([H])n(C4([H])C([H])([H])C([H])([H])[N+]([H])([H])C([H])([H])C4([H])N([H])C(=O)N4C([H])([H])C([H])([H])C([H])([H])C([H])(n5nc(-c6c([H])c([H])c(Oc7c([H])c([H])c(F)c([H])c7F)c([H])c6[H])c(C(=O)N([H])[H])c5N([H])[H])C4([H])[H])c3[H])[N+]([H])([H])C([H])([H])[H])c([H])c([H])c2C1([H])[H]

$$$$
15:0:0
     RDKit          3D

 96105  0  0  1  0  0  0  0  0999 V2000
  -28.3430  -20.7870   20.6410 C   0  0  0  0  0  2  0  0  0  0  0  0
  -30.8260  -21.0260   20.6900 C   0  0  0  0  0  2  0  0  0  0  0  0
  -28.1920  -22.2970   20.8780 C   0  0  0  0  0  2  0  0  0  0  0  0
  -30.6750  -22.5360   20.9440 C   0  0  0  0  0  2  0  0  0  0  0  0
  -29.6390  -20.5220   19.8620 C   0  0  0  0  0  3  0  0  0  0  0  0
  -29.3700  -22.8700   21.5910 N   0  0  1  0  0  4  0  0  0  0  0  0
  -29.3860  -22.3830   22.4760 H   0  0  0  0  0  0  0  0  0  0  0  0
  -30.6500  -14.7150   21.1190 C   0  0  0  0  0  0  0  0  0  0  0  0
  -30.5580  -12.4680   20.1840 C   0  0  0  0  0  2  0  0  0  0  0  0
  -29.7600  -12.5710   18.8660 C   0  0  0  0  0  2  0  0  0  0  0  0
  -28.2510  -12.4090   19.1340 C   0  0  0  0  0  2  0  0  0  0  0  0
  -27.7370  -13.3190   20.2820 C   0  0  0  0  0  3  0  0  0  0  0  0
  -28.6630  -13.2320   21.5180 C   0  0  0  0  0  2  0  0  0  0  0  0
  -30.0430  -13.5050   21.0860 N   0  0  0  0  0  0  0  0  0  0  0  0
  -31.8630  -14.8820   20.9500 O   0  0  0  0  0  0  0  0  0  0  0  0
  -30.0450  -18.7160   18.1370 C   0  0  0  0  0  3  0  0  0  0  0  0
  -29.7040  -18.0530   20.4390 C   0  0  0  0  0  3  0  0  0  0  0  0
  -30.1940  -17.3590   17.8250 C   0  0  0  0  0  3  0  0  0  0  0  0
  -29.7930  -19.0690   19.4730 C   0  0  0  0  0  0  0  0  0  0  0  0
  -29.8870  -16.7150   20.0490 C   0  0  0  0  0  0  0  0  0  0  0  0
  -30.1030  -16.3840   18.7520 N   0  0  0  0  0  0  0  0  0  0  0  0
  -29.8060  -15.7440   21.0670 N   0  0  0  0  0  0  0  0  0  0  0  0
  -28.8720  -15.5430   21.3830 H   0  0  0  0  0  0  0  0  0  0  0  0
  -25.2590  -13.8640   20.7160 C   0  0  0  0  0  0  0  0  0  0  0  0
  -24.1810  -13.0640   20.9860 C   0  0  0  0  0  0  0  0  0  0  0  0
  -24.6880  -11.7290   21.0410 C   0  0  0  0  0  0  0  0  0  0  0  0
  -26.3510  -13.0140   20.6260 N   0  0  0  0  0  0  0  0  0  0  0  0
  -26.0030  -11.7270   20.8790 N   0  0  0  0  0  0  0  0  0  0  0  0
  -23.9870  -10.4470   21.1890 C   0  0  0  0  0  0  0  0  0  0  0  0
  -24.3990   -9.4880   22.1410 C   0  0  0  0  0  3  0  0  0  0  0  0
  -23.7020   -8.2680   22.2750 C   0  0  0  0  0  3  0  0  0  0  0  0
  -22.5790   -7.9990   21.4560 C   0  0  0  0  0  0  0  0  0  0  0  0
  -22.1880   -8.9480   20.4950 C   0  0  0  0  0  3  0  0  0  0  0  0
  -22.8860  -10.1600   20.3600 C   0  0  0  0  0  3  0  0  0  0  0  0
  -21.8550   -6.8330   21.5000 O   0  0  0  0  0  0  0  0  0  0  0  0
  -21.7580   -6.0880   22.6480 C   0  0  0  0  0  0  0  0  0  0  0  0
  -21.1280   -6.5860   23.8090 C   0  0  0  0  0  3  0  0  0  0  0  0
  -20.9870   -5.7620   24.9420 C   0  0  0  0  0  3  0  0  0  0  0  0
  -21.4660   -4.4390   24.9160 C   0  0  0  0  0  0  0  0  0  0  0  0
  -22.0880   -3.9390   23.7570 C   0  0  0  0  0  3  0  0  0  0  0  0
  -22.2310   -4.7600   22.6260 C   0  0  0  0  0  0  0  0  0  0  0  0
  -22.8120   -4.2670   21.5050 F   0  0  0  0  0  0  0  0  0  0  0  0
  -21.3240   -3.6440   26.0020 F   0  0  0  0  0  0  0  0  0  0  0  0
  -22.7470  -13.4960   21.0920 C   0  0  0  0  0  0  0  0  0  0  0  0
  -21.9740  -12.8310   21.9420 N   0  0  0  0  0  0  0  0  0  0  0  0
  -22.3170  -14.4590   20.4590 O   0  0  0  0  0  0  0  0  0  0  0  0
  -22.3360  -12.0530   22.4720 H   0  0  0  0  0  0  0  0  0  0  0  0
  -21.0060  -13.0980   22.0630 H   0  0  0  0  0  0  0  0  0  0  0  0
  -25.3960  -15.2360   20.5210 N   0  0  0  0  0  0  0  0  0  0  0  0
  -24.5970  -15.8610   20.5250 H   0  0  0  0  0  0  0  0  0  0  0  0
  -26.2630  -15.7080   20.2990 H   0  0  0  0  0  0  0  0  0  0  0  0
  -30.2040  -24.7190   23.0760 C   0  0  0  0  0  1  0  0  0  0  0  0
  -29.2020  -24.3070   21.9750 C   0  0  0  0  0  3  0  0  0  0  0  0
  -29.2530  -25.3210   20.7960 C   0  0  0  0  0  2  0  0  0  0  0  0
  -27.9060  -25.6610   20.1370 C   0  0  0  0  0  2  0  0  0  0  0  0
  -27.9790  -27.0320   19.7620 O   0  0  0  0  0  0  0  0  0  0  0  0
  -24.4850  -31.9920   23.4450 C   0  0  0  0  0  0  0  0  0  0  0  0
  -26.8180  -27.7430   19.9090 C   0  0  0  0  0  0  0  0  0  0  0  0
  -23.1320  -30.7160   21.8090 C   0  0  0  0  0  3  0  0  0  0  0  0
  -24.4510  -29.2430   20.1970 C   0  0  0  0  0  0  0  0  0  0  0  0
  -25.6430  -31.0510   21.4550 C   0  0  0  0  0  2  0  0  0  0  0  0
  -25.6560  -29.7250   20.7260 C   0  0  0  0  0  0  0  0  0  0  0  0
  -26.8450  -28.9810   20.5790 C   0  0  0  0  0  3  0  0  0  0  0  0
  -25.5980  -27.2590   19.3870 C   0  0  0  0  0  3  0  0  0  0  0  0
  -24.4170  -28.0050   19.5280 C   0  0  0  0  0  3  0  0  0  0  0  0
  -23.2250  -30.1070   20.3820 C   0  0  0  0  0  2  0  0  0  0  0  0
  -24.4420  -31.2640   22.2940 N   0  0  0  0  0  0  0  0  0  0  0  0
  -23.4510  -32.2450   24.0800 O   0  0  0  0  0  0  0  0  0  0  0  0
  -22.5320  -29.6490   22.7520 C   0  0  0  0  0  0  0  0  0  0  0  0
  -21.2320  -29.3620   22.5770 N   0  0  0  0  0  0  0  0  0  0  0  0
  -23.2320  -29.0800   23.5920 O   0  0  0  0  0  0  0  0  0  0  0  0
  -20.7230  -29.8810   21.8750 H   0  0  0  0  0  0  0  0  0  0  0  0
  -17.9880  -27.8010   22.8450 C   0  0  0  0  0  0  0  0  0  0  0  0
  -20.4640  -28.3650   23.3200 C   0  0  0  0  0  3  0  0  0  0  0  0
  -20.7820  -26.9350   22.8250 C   0  0  0  0  0  2  0  0  0  0  0  0
  -19.8190  -26.4450   21.7380 C   0  0  0  0  0  2  0  0  0  0  0  0
  -18.3740  -26.4590   22.2480 C   0  0  0  0  0  2  0  0  0  0  0  0
  -18.9690  -28.7040   23.3310 C   0  0  0  0  0  0  0  0  0  0  0  0
  -18.5580  -29.9560   23.8400 C   0  0  0  0  0  3  0  0  0  0  0  0
  -17.1960  -30.3090   23.8680 C   0  0  0  0  0  3  0  0  0  0  0  0
  -16.2250  -29.4020   23.4050 C   0  0  0  0  0  3  0  0  0  0  0  0
  -16.6230  -28.1490   22.9010 C   0  0  0  0  0  3  0  0  0  0  0  0
  -25.8300  -32.5600   24.0040 C   0  0  0  0  0  3  0  0  0  0  0  0
  -26.3630  -31.7670   25.2600 C   0  0  1  0  0  0  0  0  0  0  0  0
  -25.3030  -31.5870   26.3700 C   0  0  0  0  0  1  0  0  0  0  0  0
  -26.8570  -30.3610   24.8520 C   0  0  0  0  0  1  0  0  0  0  0  0
  -27.5770  -32.5040   25.8700 C   0  0  0  0  0  1  0  0  0  0  0  0
  -25.6080  -33.9730   24.3400 N   0  0  0  0  0  0  0  0  0  0  0  0
  -25.9870  -35.0070   23.5750 C   0  0  0  0  0  0  0  0  0  0  0  0
  -26.6380  -34.8700   22.5370 O   0  0  0  0  0  0  0  0  0  0  0  0
  -25.0570  -34.1590   25.1640 H   0  0  0  0  0  0  0  0  0  0  0  0
  -24.4020  -36.9180   23.1800 C   0  0  0  0  0  1  0  0  0  0  0  0
  -25.5760  -36.4190   24.0380 C   0  0  0  0  0  3  0  0  0  0  0  0
  -27.7180  -37.1520   24.9860 C   0  0  0  0  0  1  0  0  0  0  0  0
  -26.6800  -37.4030   23.9920 N   0  0  0  0  0  0  0  0  0  0  0  0
  -26.3260  -38.3420   24.1480 H   0  0  0  0  0  0  0  0  0  0  0  0
  1  3  1  0
  2  4  1  0
  3  6  1  0
  4  6  1  0
  5 19  1  0
  5  1  1  0
  5  2  1  0
  6 53  1  0
  6  7  1  1
  9 14  1  0
 10 11  1  0
 10  9  1  0
 12 11  1  0
 12 27  1  0
 12 13  1  0
 14  8  1  0
 14 13  1  0
 15  8  2  0
 16 19  1  0
 18 16  2  0
 18 21  1  0
 19 17  2  0
 20 17  1  0
 20 22  1  0
 21 20  2  0
 22  8  1  0
 22 23  1  0
 24 25  2  0
 25 26  1  0
 25 44  1  0
 26 29  1  0
 27 24  1  0
 27 28  1  0
 28 26  2  0
 29 30  1  0
 30 31  2  0
 32 35  1  0
 32 31  1  0
 33 32  2  0
 34 33  1  0
 34 29  2  0
 35 36  1  0
 36 37  1  0
 37 38  2  0
 39 38  1  0
 39 43  1  0
 40 39  2  0
 41 36  2  0
 41 40  1  0
 42 41  1  0
 44 45  1  0
 45 48  1  0
 45 47  1  0
 46 44  2  0
 49 50  1  0
 49 24  1  0
 51 49  1  0
 53 52  1  0
 54 53  1  0
 55 54  1  0
 56 58  1  0
 56 55  1  0
 57 68  2  0
 58 63  1  0
 59 67  1  0
 59 69  1  0
 60 66  1  0
 60 62  1  0
 61 67  1  0
 62 61  1  0
 63 62  2  0
 64 65  1  0
 64 58  2  0
 65 60  2  0
 66 59  1  0
 67 57  1  0
 69 71  2  0
 70 69  1  0
 72 70  1  0
 73 82  2  0
 73 78  1  0
 74 70  1  0
 74 78  1  0
 75 74  1  0
 76 77  1  0
 76 75  1  0
 77 73  1  0
 78 79  2  0
 79 80  1  0
 81 80  2  0
 82 81  1  0
 83 57  1  0
 83 88  1  0
 83 84  1  0
 84 87  1  1
 84 85  1  0
 86 84  1  0
 88 91  1  0
 89 93  1  0
 89 88  1  0
 90 89  2  0
 93 92  1  0
 95 93  1  0
 95 96  1  0
 95 94  1  0
M  ISO  4   8 100  22 100  55 101  56 101
M  END
>  <TORSDO>  (16) 
F 19

>  <SCORE>  (16) 
-13.116

>  <name>  (16) 
15

>  <ligand_id>  (16) 
15

>  <original_smiles>  (16) 
[H]c1nc(N([H])C(=O)N2C([H])([H])C([H])([H])C([H])([H])C([H])(n3nc(-c4c([H])c([H])c(Oc5c([H])c([H])c(F)c([H])c5F)c([H])c4[H])c(C(=O)N([H])[H])c3N([H])[H])C2([H])[H])c([H])c(C2([H])C([H])([H])C([H])([H])[N+]([H])(C([H])(C([H])([H])[H])C([H])([H])C([H])([H])Oc3c([H])c([H])c4c(c3[H])C([H])([H])N(C(=O)C([H])(N([H])C(=O)C([H])(N([H])C([H])([H])[H])C([H])([H])[H])C(C([H])([H])[H])(C([H])([H])[H])C([H])([H])[H])C([H])(C(=O)N([H])C3([H])c5c([H])c([H])c([H])c([H])c5C([H])([H])C([H])([H])C3([H])[H])C4([H])[H])C([H])([H])C2([H])[H])c1[H]

>  <smiles>  (16) 
[H]c1nc(N([H])C(=O)N2C([H])([H])C([H])([H])C([H])([H])C([H])(n3nc(-c4c([H])c([H])c(Oc5c([H])c([H])c(F)c([H])c5F)c([H])c4[H])c(C(=O)N([H])[H])c3N([H])[H])C2([H])[H])c([H])c(C2([H])C([H])([H])C([H])([H])[N+]([H])(C([H])(C([H])([H])[H])C([H])([H])C([H])([H])Oc3c([H])c([H])c4c(c3[H])C([H])([H])N(C(=O)C([H])(N([H])C(=O)C([H])(N([H])C([H])([H])[H])C([H])([H])[H])C(C([H])([H])[H])(C([H])([H])[H])C([H])([H])[H])C([H])(C(=O)N([H])C3([H])c5c([H])c([H])c([H])c([H])c5C([H])([H])C([H])([H])C3([H])[H])C4([H])[H])C([H])([H])C2([H])[H])c1[H]

$$$$
16:0:0
     RDKit          3D

 99110  0  0  1  0  0  0  0  0999 V2000
  -31.4780  -20.1920   17.8910 C   0  0  0  0  0  1  0  0  0  0  0  0
  -30.4880  -20.0690   19.0730 C   0  0  0  0  0  3  0  0  0  0  0  0
  -31.4460  -14.7690   19.4740 C   0  0  0  0  0  0  0  0  0  0  0  0
  -30.8760  -12.6380   18.2930 C   0  0  0  0  0  2  0  0  0  0  0  0
  -29.7980  -12.8760   17.2160 C   0  0  0  0  0  2  0  0  0  0  0  0
  -28.3930  -12.7170   17.8260 C   0  0  0  0  0  2  0  0  0  0  0  0
  -28.2460  -13.4880   19.1640 C   0  0  0  0  0  3  0  0  0  0  0  0
  -29.4520  -13.2680   20.1150 C   0  0  0  0  0  2  0  0  0  0  0  0
  -30.6740  -13.6280   19.3860 N   0  0  0  0  0  0  0  0  0  0  0  0
  -32.4680  -14.8370   18.7780 O   0  0  0  0  0  0  0  0  0  0  0  0
  -32.2280  -16.8400   20.6270 C   0  0  0  0  0  2  0  0  0  0  0  0
  -32.0930  -18.1940   19.8560 C   0  0  0  0  0  2  0  0  0  0  0  0
  -29.6660  -17.8120   19.8100 C   0  0  0  0  0  2  0  0  0  0  0  0
  -29.8570  -16.4930   20.6370 C   0  0  0  0  0  3  0  0  0  0  0  0
  -31.1630  -15.8360   20.3220 N   0  0  0  0  0  0  0  0  0  0  0  0
  -30.7400  -18.8460   19.9580 N   0  0  2  0  0  4  0  0  0  0  0  0
  -30.6700  -19.1910   20.9030 H   0  0  0  0  0  0  0  0  0  0  0  0
  -26.0230  -14.1000   20.2930 C   0  0  0  0  0  0  0  0  0  0  0  0
  -24.9960  -13.3360   20.7680 C   0  0  0  0  0  0  0  0  0  0  0  0
  -25.3830  -11.9760   20.5560 C   0  0  0  0  0  0  0  0  0  0  0  0
  -26.9770  -13.2080   19.8260 N   0  0  0  0  0  0  0  0  0  0  0  0
  -26.6040  -11.9210   20.0420 N   0  0  0  0  0  0  0  0  0  0  0  0
  -24.6350  -10.7290   20.7600 C   0  0  0  0  0  0  0  0  0  0  0  0
  -25.0300   -9.7810   21.7280 C   0  0  0  0  0  3  0  0  0  0  0  0
  -24.2830   -8.5980   21.9190 C   0  0  0  0  0  3  0  0  0  0  0  0
  -23.1280   -8.3550   21.1390 C   0  0  0  0  0  0  0  0  0  0  0  0
  -22.7520   -9.2900   20.1580 C   0  0  0  0  0  3  0  0  0  0  0  0
  -23.5000  -10.4630   19.9670 C   0  0  0  0  0  3  0  0  0  0  0  0
  -22.3580   -7.2200   21.2340 O   0  0  0  0  0  0  0  0  0  0  0  0
  -22.0860   -6.6370   22.4450 C   0  0  0  0  0  0  0  0  0  0  0  0
  -21.4400   -7.3410   23.4840 C   0  0  0  0  0  3  0  0  0  0  0  0
  -21.1190   -6.6830   24.6870 C   0  0  0  0  0  3  0  0  0  0  0  0
  -21.4280   -5.3190   24.8490 C   0  0  0  0  0  0  0  0  0  0  0  0
  -22.0660   -4.6150   23.8130 C   0  0  0  0  0  3  0  0  0  0  0  0
  -22.3910   -5.2710   22.6140 C   0  0  0  0  0  0  0  0  0  0  0  0
  -22.9870   -4.5810   21.6110 F   0  0  0  0  0  0  0  0  0  0  0  0
  -21.1090   -4.6850   26.0020 F   0  0  0  0  0  0  0  0  0  0  0  0
  -23.6820  -13.8340   21.2930 C   0  0  0  0  0  0  0  0  0  0  0  0
  -23.0570  -13.0840   22.1910 N   0  0  0  0  0  0  0  0  0  0  0  0
  -23.2220  -14.9220   20.9420 O   0  0  0  0  0  0  0  0  0  0  0  0
  -23.4450  -12.2020   22.4950 H   0  0  0  0  0  0  0  0  0  0  0  0
  -22.1750  -13.3920   22.5790 H   0  0  0  0  0  0  0  0  0  0  0  0
  -26.2060  -15.4760   20.1900 N   0  0  0  0  0  0  0  0  0  0  0  0
  -25.4390  -16.1000   20.4100 H   0  0  0  0  0  0  0  0  0  0  0  0
  -26.9220  -15.9140   19.6300 H   0  0  0  0  0  0  0  0  0  0  0  0
  -29.5840  -16.5960   22.1840 C   0  0  0  0  0  2  0  0  0  0  0  0
  -31.4200  -17.7920   24.7840 C   0  0  0  0  0  2  0  0  0  0  0  0
  -30.6700  -19.0630   22.5940 C   0  0  0  0  0  2  0  0  0  0  0  0
  -31.0280  -19.0490   24.0540 C   0  0  0  0  0  3  0  0  0  0  0  0
  -29.9930  -17.9730   24.2960 C   0  0  0  0  0  3  0  0  0  0  0  0
  -29.5840  -18.0000   22.8300 C   0  0  0  0  0  3  0  0  0  0  0  0
  -29.3840  -23.7980   19.2680 C   0  0  0  0  0  3  0  0  0  0  0  0
  -30.2390  -23.2250   21.4480 C   0  0  0  0  0  3  0  0  0  0  0  0
  -29.6330  -22.4700   18.8450 C   0  0  0  0  0  3  0  0  0  0  0  0
  -30.5040  -21.8910   21.0200 C   0  0  0  0  0  3  0  0  0  0  0  0
  -29.6980  -24.2140   20.5750 C   0  0  0  0  0  0  0  0  0  0  0  0
  -30.2100  -21.4840   19.6930 C   0  0  0  0  0  0  0  0  0  0  0  0
  -29.4350  -25.6730   21.0570 C   0  0  0  0  0  2  0  0  0  0  0  0
  -29.3070  -26.7250   20.0530 O   0  0  0  0  0  0  0  0  0  0  0  0
  -24.8130  -31.4360   23.0980 C   0  0  0  0  0  0  0  0  0  0  0  0
  -28.0930  -27.4000   20.0290 C   0  0  0  0  0  0  0  0  0  0  0  0
  -23.8530  -29.9620   21.3550 C   0  0  0  0  0  3  0  0  0  0  0  0
  -25.5460  -28.6560   19.9430 C   0  0  0  0  0  0  0  0  0  0  0  0
  -26.3300  -30.6040   21.2990 C   0  0  0  0  0  2  0  0  0  0  0  0
  -26.6060  -29.2720   20.6240 C   0  0  0  0  0  0  0  0  0  0  0  0
  -27.8820  -28.6470   20.6730 C   0  0  0  0  0  3  0  0  0  0  0  0
  -27.0240  -26.8230   19.3160 C   0  0  0  0  0  3  0  0  0  0  0  0
  -25.7560  -27.4350   19.2770 C   0  0  0  0  0  3  0  0  0  0  0  0
  -24.2030  -29.3590   19.9660 C   0  0  0  0  0  2  0  0  0  0  0  0
  -25.0110  -30.6850   21.9750 N   0  0  0  0  0  0  0  0  0  0  0  0
  -23.6860  -31.5610   23.5950 O   0  0  0  0  0  0  0  0  0  0  0  0
  -23.2820  -28.8420   22.2550 C   0  0  0  0  0  0  0  0  0  0  0  0
  -22.0160  -28.4650   22.0150 N   0  0  0  0  0  0  0  0  0  0  0  0
  -23.9810  -28.3150   23.1250 O   0  0  0  0  0  0  0  0  0  0  0  0
  -21.5040  -28.9550   21.2940 H   0  0  0  0  0  0  0  0  0  0  0  0
  -18.8300  -26.7700   22.2310 C   0  0  0  0  0  0  0  0  0  0  0  0
  -21.2910  -27.4000   22.7070 C   0  0  0  0  0  3  0  0  0  0  0  0
  -21.6510  -26.0140   22.1210 C   0  0  0  0  0  2  0  0  0  0  0  0
  -20.6910  -25.5540   21.0200 C   0  0  0  0  0  2  0  0  0  0  0  0
  -19.2590  -25.4780   21.5550 C   0  0  0  0  0  2  0  0  0  0  0  0
  -19.7850  -27.6800   22.7550 C   0  0  0  0  0  0  0  0  0  0  0  0
  -19.3340  -28.8830   23.3410 C   0  0  0  0  0  3  0  0  0  0  0  0
  -17.9600  -29.1810   23.4100 C   0  0  0  0  0  3  0  0  0  0  0  0
  -17.0190  -28.2690   22.9040 C   0  0  0  0  0  3  0  0  0  0  0  0
  -17.4540  -27.0650   22.3210 C   0  0  0  0  0  3  0  0  0  0  0  0
  -25.9880  -32.1880   23.7960 C   0  0  0  0  0  3  0  0  0  0  0  0
  -26.5290  -31.4460   25.0810 C   0  0  1  0  0  0  0  0  0  0  0  0
  -25.4170  -31.0340   26.0750 C   0  0  0  0  0  1  0  0  0  0  0  0
  -27.3030  -30.1650   24.6890 C   0  0  0  0  0  1  0  0  0  0  0  0
  -27.5330  -32.3540   25.8280 C   0  0  0  0  0  1  0  0  0  0  0  0
  -25.5120  -33.5370   24.1370 N   0  0  0  0  0  0  0  0  0  0  0  0
  -25.7810  -34.6400   23.4230 C   0  0  0  0  0  0  0  0  0  0  0  0
  -26.5190  -34.6360   22.4350 O   0  0  0  0  0  0  0  0  0  0  0  0
  -24.8560  -33.6060   24.9010 H   0  0  0  0  0  0  0  0  0  0  0  0
  -23.8990  -36.2510   22.9950 C   0  0  0  0  0  1  0  0  0  0  0  0
  -25.1210  -35.9550   23.8780 C   0  0  0  0  0  3  0  0  0  0  0  0
  -27.0980  -37.0250   24.8660 C   0  0  0  0  0  1  0  0  0  0  0  0
  -26.0410  -37.1130   23.8610 N   0  0  0  0  0  0  0  0  0  0  0  0
  -25.5310  -37.9790   24.0130 H   0  0  0  0  0  0  0  0  0  0  0  0
  2  1  1  0
  2 57  1  0
  2 16  1  0
  3 15  1  0
  4  9  1  0
  5  6  1  0
  5  4  1  0
  7  6  1  0
  7 21  1  0
  7  8  1  0
  9  3  1  0
  9  8  1  0
 10  3  2  0
 12 16  1  0
 12 11  1  0
 13 16  1  0
 13 14  1  0
 14 46  1  0
 15 11  1  0
 15 14  1  0
 16 17  1  1
 18 19  2  0
 19 38  1  0
 20 23  1  0
 20 19  1  0
 21 22  1  0
 21 18  1  0
 22 20  2  0
 23 24  1  0
 24 25  2  0
 26 29  1  0
 26 25  1  0
 27 26  2  0
 28 27  1  0
 28 23  2  0
 29 30  1  0
 30 35  2  0
 30 31  1  0
 31 32  2  0
 32 33  1  0
 33 37  1  0
 34 33  2  0
 35 34  1  0
 36 35  1  0
 38 39  1  0
 39 41  1  0
 39 42  1  0
 40 38  2  0
 43 18  1  0
 43 44  1  0
 45 43  1  0
 48 51  1  0
 49 48  1  0
 49 50  1  0
 49 47  1  0
 50 47  1  0
 51 46  1  0
 51 50  1  0
 52 56  1  0
 54 52  2  0
 54 57  1  0
 55 53  1  0
 56 58  1  0
 56 53  2  0
 57 55  2  0
 59 58  1  0
 60 71  2  0
 61 59  1  0
 61 66  1  0
 62 70  1  0
 62 72  1  0
 63 69  1  0
 63 65  1  0
 64 70  1  0
 65 66  2  0
 65 64  1  0
 67 61  2  0
 68 67  1  0
 68 63  2  0
 69 62  1  0
 70 60  1  0
 72 74  2  0
 73 72  1  0
 75 73  1  0
 76 85  2  0
 76 81  1  0
 77 73  1  0
 77 81  1  0
 78 77  1  0
 79 80  1  0
 79 78  1  0
 80 76  1  0
 81 82  2  0
 82 83  1  0
 84 83  2  0
 85 84  1  0
 86 60  1  0
 86 91  1  0
 86 87  1  0
 87 90  1  1
 87 88  1  0
 89 87  1  0
 91 94  1  0
 92 96  1  0
 92 91  1  0
 93 92  2  0
 96 95  1  0
 98 96  1  0
 98 99  1  0
 98 97  1  0
M  ISO  4   3 100  15 100  58 101  59 101
M  END
>  <TORSDO>  (17) 
F 20

>  <SCORE>  (17) 
-3.288

>  <name>  (17) 
16

>  <ligand_id>  (17) 
16

>  <original_smiles>  (17) 
[H]c1c([H])c([H])c2c(c1[H])C([H])([H])C([H])([H])C([H])([H])C2([H])N([H])C(=O)C1([H])N(C(=O)C([H])(N([H])C(=O)C([H])(N([H])C([H])([H])[H])C([H])([H])[H])C(C([H])([H])[H])(C([H])([H])[H])C([H])([H])[H])C([H])([H])c2c([H])c(OC([H])([H])c3c([H])c([H])c(C([H])(C([H])([H])[H])[N+]4([H])C([H])([H])C([H])([H])N(C(=O)N5C([H])([H])C([H])([H])C([H])([H])C([H])(n6nc(-c7c([H])c([H])c(Oc8c([H])c([H])c(F)c([H])c8F)c([H])c7[H])c(C(=O)N([H])[H])c6N([H])[H])C5([H])[H])C([H])(C([H])([H])C5([H])C([H])([H])C6([H])C([H])([H])C56[H])C4([H])[H])c([H])c3[H])c([H])c([H])c2C1([H])[H]

>  <smiles>  (17) 
[H]c1c([H])c([H])c2c(c1[H])C([H])([H])C([H])([H])C([H])([H])C2([H])N([H])C(=O)C1([H])N(C(=O)C([H])(N([H])C(=O)C([H])(N([H])C([H])([H])[H])C([H])([H])[H])C(C([H])([H])[H])(C([H])([H])[H])C([H])([H])[H])C([H])([H])c2c([H])c(OC([H])([H])c3c([H])c([H])c(C([H])(C([H])([H])[H])[N+]4([H])C([H])([H])C([H])([H])N(C(=O)N5C([H])([H])C([H])([H])C([H])([H])C([H])(n6nc(-c7c([H])c([H])c(Oc8c([H])c([H])c(F)c([H])c8F)c([H])c7[H])c(C(=O)N([H])[H])c6N([H])[H])C5([H])[H])C([H])(C([H])([H])C5([H])C([H])([H])C6([H])C([H])([H])C56[H])C4([H])[H])c([H])c3[H])c([H])c([H])c2C1([H])[H]

$$$$
17:0:0
     RDKit          3D

 97106  0  0  1  0  0  0  0  0999 V2000
  -30.3120  -19.9780   19.8930 N   0  0  1  0  0  4  0  0  0  0  0  0
  -29.4130  -20.1480   19.4680 H   0  0  0  0  0  0  0  0  0  0  0  0
  -30.7160  -14.5990   20.4600 C   0  0  0  0  0  0  0  0  0  0  0  0
  -30.3650  -12.4160   19.3200 C   0  0  0  0  0  2  0  0  0  0  0  0
  -29.4370  -12.5550   18.0970 C   0  0  0  0  0  2  0  0  0  0  0  0
  -27.9690  -12.3660   18.5180 C   0  0  0  0  0  2  0  0  0  0  0  0
  -27.6010  -13.2460   19.7360 C   0  0  0  0  0  3  0  0  0  0  0  0
  -28.6530  -13.1380   20.8710 C   0  0  0  0  0  2  0  0  0  0  0  0
  -29.9760  -13.4500   20.3080 N   0  0  0  0  0  0  0  0  0  0  0  0
  -31.8580  -14.6590   19.9990 O   0  0  0  0  0  0  0  0  0  0  0  0
  -31.4060  -17.9450   21.1200 C   0  0  0  0  0  2  0  0  0  0  0  0
  -29.1310  -17.7120   20.0970 C   0  0  0  0  0  2  0  0  0  0  0  0
  -31.1290  -16.6130   21.8850 C   0  0  0  0  0  2  0  0  0  0  0  0
  -28.9570  -16.4040   20.9280 C   0  0  0  0  0  2  0  0  0  0  0  0
  -30.1080  -18.7320   20.7450 C   0  0  0  0  0  3  0  0  0  0  0  0
  -30.2290  -15.6850   21.1570 N   0  0  0  0  0  0  0  0  0  0  0  0
  -25.2110  -13.8780   20.4380 C   0  0  0  0  0  0  0  0  0  0  0  0
  -24.1380  -13.1150   20.8110 C   0  0  0  0  0  0  0  0  0  0  0  0
  -24.5970  -11.7620   20.8050 C   0  0  0  0  0  0  0  0  0  0  0  0
  -26.2510  -12.9860   20.2210 N   0  0  0  0  0  0  0  0  0  0  0  0
  -25.8890  -11.7120   20.5080 N   0  0  0  0  0  0  0  0  0  0  0  0
  -23.8680  -10.5040   21.0040 C   0  0  0  0  0  0  0  0  0  0  0  0
  -24.2940   -9.5470   21.9500 C   0  0  0  0  0  3  0  0  0  0  0  0
  -23.5660   -8.3500   22.1340 C   0  0  0  0  0  3  0  0  0  0  0  0
  -22.3970   -8.1080   21.3710 C   0  0  0  0  0  0  0  0  0  0  0  0
  -21.9940   -9.0540   20.4130 C   0  0  0  0  0  3  0  0  0  0  0  0
  -22.7220  -10.2400   20.2280 C   0  0  0  0  0  3  0  0  0  0  0  0
  -21.6410   -6.9650   21.4650 O   0  0  0  0  0  0  0  0  0  0  0  0
  -21.5920   -6.2290   22.6220 C   0  0  0  0  0  0  0  0  0  0  0  0
  -21.1730   -6.7920   23.8470 C   0  0  0  0  0  3  0  0  0  0  0  0
  -21.0720   -5.9830   24.9960 C   0  0  0  0  0  3  0  0  0  0  0  0
  -21.3780   -4.6110   24.9200 C   0  0  0  0  0  0  0  0  0  0  0  0
  -21.7890   -4.0470   23.7000 C   0  0  0  0  0  3  0  0  0  0  0  0
  -21.8930   -4.8540   22.5540 C   0  0  0  0  0  0  0  0  0  0  0  0
  -22.2700   -4.3010   21.3760 F   0  0  0  0  0  0  0  0  0  0  0  0
  -21.2720   -3.8320   26.0210 F   0  0  0  0  0  0  0  0  0  0  0  0
  -22.7390  -13.5990   21.0610 C   0  0  0  0  0  0  0  0  0  0  0  0
  -21.9990  -12.9130   21.9260 N   0  0  0  0  0  0  0  0  0  0  0  0
  -22.3080  -14.6190   20.5240 O   0  0  0  0  0  0  0  0  0  0  0  0
  -22.3600  -12.0850   22.3790 H   0  0  0  0  0  0  0  0  0  0  0  0
  -21.0590  -13.2180   22.1380 H   0  0  0  0  0  0  0  0  0  0  0  0
  -25.3820  -15.2450   20.2420 N   0  0  0  0  0  0  0  0  0  0  0  0
  -24.6200  -15.9060   20.3360 H   0  0  0  0  0  0  0  0  0  0  0  0
  -26.2330  -15.6690   19.8970 H   0  0  0  0  0  0  0  0  0  0  0  0
  -30.6320  -21.2520   20.6500 C   0  0  0  0  0  2  0  0  0  0  0  0
  -30.0010  -23.5720   21.5930 C   0  0  0  0  0  2  0  0  0  0  0  0
  -29.1440  -23.0620   19.3670 C   0  0  0  0  0  2  0  0  0  0  0  0
  -28.9100  -24.6410   21.8670 C   0  0  0  0  0  2  0  0  0  0  0  0
  -27.9920  -24.1030   19.4950 C   0  0  0  0  0  2  0  0  0  0  0  0
  -29.5300  -22.3890   20.7060 C   0  0  0  0  0  3  0  0  0  0  0  0
  -28.0790  -25.1440   20.6530 C   0  0  0  0  0  3  0  0  0  0  0  0
  -28.3380  -26.5380   20.2700 O   0  0  0  0  0  0  0  0  0  0  0  0
  -24.5940  -31.8730   23.2550 C   0  0  0  0  0  0  0  0  0  0  0  0
  -27.2170  -27.3650   20.2000 C   0  0  0  0  0  0  0  0  0  0  0  0
  -23.3860  -30.4660   21.6220 C   0  0  0  0  0  3  0  0  0  0  0  0
  -24.8370  -28.9240   20.1920 C   0  0  0  0  0  0  0  0  0  0  0  0
  -25.9180  -30.8070   21.4240 C   0  0  0  0  0  2  0  0  0  0  0  0
  -26.0020  -29.4320   20.7820 C   0  0  0  0  0  0  0  0  0  0  0  0
  -27.1970  -28.6630   20.7770 C   0  0  0  0  0  3  0  0  0  0  0  0
  -26.0370  -26.9020   19.5750 C   0  0  0  0  0  3  0  0  0  0  0  0
  -24.8530  -27.6610   19.5780 C   0  0  0  0  0  3  0  0  0  0  0  0
  -23.5940  -29.7860   20.2420 C   0  0  0  0  0  2  0  0  0  0  0  0
  -24.6520  -31.0640   22.1570 N   0  0  0  0  0  0  0  0  0  0  0  0
  -23.5130  -32.1490   23.7930 O   0  0  0  0  0  0  0  0  0  0  0  0
  -22.7330  -29.4490   22.5880 C   0  0  0  0  0  0  0  0  0  0  0  0
  -21.4080  -29.2680   22.4640 N   0  0  0  0  0  0  0  0  0  0  0  0
  -23.4160  -28.8270   23.4060 O   0  0  0  0  0  0  0  0  0  0  0  0
  -20.9170  -29.8250   21.7780 H   0  0  0  0  0  0  0  0  0  0  0  0
  -18.0330  -28.0680   22.9730 C   0  0  0  0  0  0  0  0  0  0  0  0
  -20.5910  -28.3320   23.2380 C   0  0  0  0  0  3  0  0  0  0  0  0
  -20.6950  -26.8980   22.6690 C   0  0  0  0  0  2  0  0  0  0  0  0
  -19.5920  -26.5690   21.6590 C   0  0  0  0  0  2  0  0  0  0  0  0
  -18.2100  -26.7170   22.3020 C   0  0  0  0  0  2  0  0  0  0  0  0
  -19.1520  -28.8340   23.3980 C   0  0  0  0  0  0  0  0  0  0  0  0
  -18.9350  -30.1010   23.9830 C   0  0  0  0  0  3  0  0  0  0  0  0
  -17.6300  -30.6010   24.1480 C   0  0  0  0  0  3  0  0  0  0  0  0
  -16.5250  -29.8340   23.7400 C   0  0  0  0  0  3  0  0  0  0  0  0
  -16.7270  -28.5690   23.1580 C   0  0  0  0  0  3  0  0  0  0  0  0
  -25.8800  -32.5080   23.8700 C   0  0  0  0  0  3  0  0  0  0  0  0
  -25.5720  -33.9080   24.1920 N   0  0  0  0  0  0  0  0  0  0  0  0
  -25.9040  -34.9560   23.4270 C   0  0  0  0  0  0  0  0  0  0  0  0
  -26.5730  -34.8470   22.3950 O   0  0  0  0  0  0  0  0  0  0  0  0
  -24.9860  -34.0690   24.9980 H   0  0  0  0  0  0  0  0  0  0  0  0
  -24.1790  -36.7480   23.0580 C   0  0  0  0  0  1  0  0  0  0  0  0
  -25.4160  -36.3470   23.8760 C   0  0  0  0  0  3  0  0  0  0  0  0
  -27.5480  -37.2300   24.7130 C   0  0  0  0  0  1  0  0  0  0  0  0
  -26.4500  -37.3990   23.7650 N   0  0  0  0  0  0  0  0  0  0  0  0
  -26.0450  -38.3200   23.9090 H   0  0  0  0  0  0  0  0  0  0  0  0
  -26.4000  -31.7450   25.1500 C   0  0  1  0  0  0  0  0  0  0  0  0
  -25.3090  -31.5110   26.2220 C   0  0  0  0  0  1  0  0  0  0  0  0
  -26.9860  -30.3670   24.7630 C   0  0  0  0  0  1  0  0  0  0  0  0
  -27.5510  -32.5440   25.8040 C   0  0  0  0  0  1  0  0  0  0  0  0
  -31.2670  -19.7360   18.7660 C   0  0  0  0  0  2  0  0  0  0  0  0
  -31.1780  -20.7430   17.5980 C   0  0  0  0  0  2  0  0  0  0  0  0
  -29.8930  -19.2950   15.9070 C   0  0  0  0  0  1  0  0  0  0  0  0
  -29.8430  -21.8120   15.7380 C   0  0  0  0  0  1  0  0  0  0  0  0
  -29.9280  -20.6150   16.6990 C   0  0  0  0  0  3  0  0  0  0  0  0
  1 45  1  0
  1  2  1  6
  3 16  1  0
  4  9  1  0
  5  6  1  0
  5  4  1  0
  7  6  1  0
  7 20  1  0
  7  8  1  0
  9  3  1  0
  9  8  1  0
 10  3  2  0
 11 13  1  0
 12 15  1  0
 12 14  1  0
 14 16  1  0
 15  1  1  0
 15 11  1  0
 16 13  1  0
 17 18  2  0
 18 37  1  0
 19 18  1  0
 19 22  1  0
 20 17  1  0
 20 21  1  0
 21 19  2  0
 22 23  1  0
 23 24  2  0
 25 28  1  0
 25 24  1  0
 26 25  2  0
 27 26  1  0
 27 22  2  0
 28 29  1  0
 29 30  1  0
 30 31  2  0
 32 31  1  0
 32 36  1  0
 33 32  2  0
 34 29  2  0
 34 33  1  0
 35 34  1  0
 37 38  1  0
 38 41  1  0
 38 40  1  0
 39 37  2  0
 42 43  1  0
 42 17  1  0
 44 42  1  0
 46 48  1  0
 47 49  1  0
 47 50  1  0
 49 51  1  0
 50 45  1  0
 50 46  1  0
 51 52  1  0
 51 48  1  0
 53 64  2  0
 54 52  1  0
 54 59  1  0
 55 63  1  0
 55 65  1  0
 56 62  1  0
 56 58  1  0
 57 63  1  0
 58 57  1  0
 59 58  2  0
 60 61  1  0
 60 54  2  0
 61 56  2  0
 62 55  1  0
 63 53  1  0
 65 67  2  0
 66 65  1  0
 68 66  1  0
 69 78  2  0
 69 74  1  0
 70 66  1  0
 70 74  1  0
 71 70  1  0
 72 73  1  0
 72 71  1  0
 73 69  1  0
 74 75  2  0
 75 76  1  0
 77 76  2  0
 78 77  1  0
 79 53  1  0
 79 80  1  0
 79 89  1  0
 80 83  1  0
 81 85  1  0
 81 80  1  0
 82 81  2  0
 85 84  1  0
 87 85  1  0
 87 88  1  0
 87 86  1  0
 89 92  1  1
 89 90  1  0
 91 89  1  0
 93  1  1  0
 94 93  1  0
 95 97  1  0
 96 97  1  0
 97 94  1  0
M  ISO  4   3 100  16 100  51 101  52 101
M  END
>  <TORSDO>  (18) 
F 21

>  <SCORE>  (18) 
-13.822

>  <name>  (18) 
17

>  <ligand_id>  (18) 
17

>  <original_smiles>  (18) 
[H]c1c([H])c([H])c2c(c1[H])C([H])([H])C([H])([H])C([H])([H])C2([H])N([H])C(=O)C1([H])N(C(=O)C([H])(N([H])C(=O)C([H])(N([H])C([H])([H])[H])C([H])([H])[H])C(C([H])([H])[H])(C([H])([H])[H])C([H])([H])[H])C([H])([H])c2c([H])c(OC3([H])C([H])([H])C([H])([H])C([H])(C([H])([H])[N+]([H])(C([H])([H])C([H])([H])C([H])(C([H])([H])[H])C([H])([H])[H])C4([H])C([H])([H])C([H])([H])N(C(=O)N5C([H])([H])C([H])([H])C([H])([H])C([H])(n6nc(-c7c([H])c([H])c(Oc8c([H])c([H])c(F)c([H])c8F)c([H])c7[H])c(C(=O)N([H])[H])c6N([H])[H])C5([H])[H])C([H])([H])C4([H])[H])C([H])([H])C3([H])[H])c([H])c([H])c2C1([H])[H]

>  <smiles>  (18) 
[H]c1c([H])c([H])c2c(c1[H])C([H])([H])C([H])([H])C([H])([H])C2([H])N([H])C(=O)C1([H])N(C(=O)C([H])(N([H])C(=O)C([H])(N([H])C([H])([H])[H])C([H])([H])[H])C(C([H])([H])[H])(C([H])([H])[H])C([H])([H])[H])C([H])([H])c2c([H])c(OC3([H])C([H])([H])C([H])([H])C([H])(C([H])([H])[N+]([H])(C([H])([H])C([H])([H])C([H])(C([H])([H])[H])C([H])([H])[H])C4([H])C([H])([H])C([H])([H])N(C(=O)N5C([H])([H])C([H])([H])C([H])([H])C([H])(n6nc(-c7c([H])c([H])c(Oc8c([H])c([H])c(F)c([H])c8F)c([H])c7[H])c(C(=O)N([H])[H])c6N([H])[H])C5([H])[H])C([H])([H])C4([H])[H])C([H])([H])C3([H])[H])c([H])c([H])c2C1([H])[H]

$$$$
18:0:0
     RDKit          3D

 98108  0  0  1  0  0  0  0  0999 V2000
  -28.8810  -20.7460   21.4690 N   0  0  0  0  0  4  0  0  0  0  0  0
  -28.0100  -20.4540   21.0590 H   0  0  0  0  0  0  0  0  0  0  0  0
  -28.6960  -20.7920   22.4560 H   0  0  0  0  0  0  0  0  0  0  0  0
  -28.6180  -22.7140   19.7540 C   0  0  0  0  0  2  0  0  0  0  0  0
  -28.6540  -23.2000   22.1760 C   0  0  0  0  0  2  0  0  0  0  0  0
  -28.8210  -24.2510   19.4510 C   0  0  0  0  0  2  0  0  0  0  0  0
  -28.8630  -24.7300   21.8850 C   0  0  0  0  0  2  0  0  0  0  0  0
  -29.2170  -22.2000   21.1080 C   0  0  0  0  0  3  0  0  0  0  0  0
  -28.2650  -25.2220   20.5380 C   0  0  0  0  0  3  0  0  0  0  0  0
  -28.4940  -26.6760   20.2920 O   0  0  0  0  0  0  0  0  0  0  0  0
  -24.5970  -31.9690   23.2540 C   0  0  0  0  0  0  0  0  0  0  0  0
  -27.3800  -27.5230   20.2010 C   0  0  0  0  0  0  0  0  0  0  0  0
  -23.4650  -30.5660   21.5640 C   0  0  0  0  0  3  0  0  0  0  0  0
  -24.9890  -29.0800   20.1420 C   0  0  0  0  0  0  0  0  0  0  0  0
  -25.9970  -30.9550   21.4430 C   0  0  0  0  0  2  0  0  0  0  0  0
  -26.1290  -29.5880   20.7760 C   0  0  0  0  0  0  0  0  0  0  0  0
  -27.3330  -28.8230   20.7930 C   0  0  0  0  0  3  0  0  0  0  0  0
  -26.2260  -27.0780   19.5200 C   0  0  0  0  0  3  0  0  0  0  0  0
  -25.0400  -27.8330   19.5020 C   0  0  0  0  0  3  0  0  0  0  0  0
  -23.7310  -29.9250   20.1760 C   0  0  0  0  0  2  0  0  0  0  0  0
  -24.7030  -31.1820   22.1420 N   0  0  0  0  0  0  0  0  0  0  0  0
  -23.4970  -32.2090   23.7720 O   0  0  0  0  0  0  0  0  0  0  0  0
  -22.8130  -29.5140   22.4910 C   0  0  0  0  0  0  0  0  0  0  0  0
  -21.5040  -29.2710   22.3030 N   0  0  0  0  0  0  0  0  0  0  0  0
  -23.4820  -28.9220   23.3430 O   0  0  0  0  0  0  0  0  0  0  0  0
  -21.0220  -29.8040   21.5920 H   0  0  0  0  0  0  0  0  0  0  0  0
  -18.1780  -27.8900   22.6280 C   0  0  0  0  0  0  0  0  0  0  0  0
  -20.6980  -28.2940   23.0360 C   0  0  0  0  0  3  0  0  0  0  0  0
  -20.9120  -26.8670   22.4810 C   0  0  0  0  0  2  0  0  0  0  0  0
  -19.8890  -26.4770   21.4100 C   0  0  0  0  0  2  0  0  0  0  0  0
  -18.4670  -26.5480   21.9750 C   0  0  0  0  0  2  0  0  0  0  0  0
  -19.2270  -28.7150   23.1140 C   0  0  0  0  0  0  0  0  0  0  0  0
  -18.9070  -29.9670   23.6840 C   0  0  0  0  0  3  0  0  0  0  0  0
  -17.5700  -30.3970   23.7710 C   0  0  0  0  0  3  0  0  0  0  0  0
  -16.5330  -29.5690   23.3050 C   0  0  0  0  0  3  0  0  0  0  0  0
  -16.8380  -28.3170   22.7410 C   0  0  0  0  0  3  0  0  0  0  0  0
  -25.8510  -32.6250   23.9110 C   0  0  0  0  0  3  0  0  0  0  0  0
  -26.3400  -31.8680   25.2060 C   0  0  1  0  0  0  0  0  0  0  0  0
  -25.2040  -31.5480   26.2060 C   0  0  0  0  0  1  0  0  0  0  0  0
  -27.0290  -30.5330   24.8350 C   0  0  0  0  0  1  0  0  0  0  0  0
  -27.3980  -32.7220   25.9450 C   0  0  0  0  0  1  0  0  0  0  0  0
  -25.5100  -34.0190   24.2290 N   0  0  0  0  0  0  0  0  0  0  0  0
  -25.8570  -35.0740   23.4830 C   0  0  0  0  0  0  0  0  0  0  0  0
  -26.5700  -34.9800   22.4800 O   0  0  0  0  0  0  0  0  0  0  0  0
  -24.8910  -34.1650   25.0130 H   0  0  0  0  0  0  0  0  0  0  0  0
  -24.1190  -36.8420   23.0510 C   0  0  0  0  0  1  0  0  0  0  0  0
  -25.3300  -36.4560   23.9170 C   0  0  0  0  0  3  0  0  0  0  0  0
  -27.4210  -37.3670   24.8320 C   0  0  0  0  0  1  0  0  0  0  0  0
  -26.3510  -37.5250   23.8480 N   0  0  0  0  0  0  0  0  0  0  0  0
  -25.9270  -38.4370   23.9880 H   0  0  0  0  0  0  0  0  0  0  0  0
  -29.8870  -19.5940   21.4120 C   0  0  0  0  0  3  0  0  0  0  0  0
  -29.4080  -19.4560   18.9650 C   0  0  0  0  0  3  0  0  0  0  0  0
  -30.9520  -17.1800   18.4550 C   0  0  0  0  0  3  0  0  0  0  0  0
  -29.5340  -18.9620   17.6660 C   0  0  0  0  0  0  0  0  0  0  0  0
  -30.3070  -17.8540   17.4130 C   0  0  0  0  0  0  0  0  0  0  0  0
  -30.0280  -18.7980   20.0670 C   0  0  0  0  0  0  0  0  0  0  0  0
  -30.7740  -17.5470   19.8130 C   0  0  0  0  0  0  0  0  0  0  0  0
  -28.9520  -19.5370   16.4010 C   0  0  0  0  0  3  0  0  0  0  0  0
  -30.3400  -17.5100   15.9510 C   0  0  0  0  0  3  0  0  0  0  0  0
  -29.3400  -18.5050   15.3150 C   0  0  0  0  0  3  0  0  0  0  0  0
  -31.9410  -15.3810   20.6040 C   0  0  0  0  0  0  0  0  0  0  0  0
  -31.5830  -13.1620   19.5130 C   0  0  0  0  0  2  0  0  0  0  0  0
  -30.7520  -13.2510   18.2160 C   0  0  0  0  0  2  0  0  0  0  0  0
  -29.2380  -13.2650   18.5320 C   0  0  0  0  0  2  0  0  0  0  0  0
  -28.8420  -14.1740   19.7290 C   0  0  0  0  0  3  0  0  0  0  0  0
  -29.8070  -14.0380   20.9210 C   0  0  0  0  0  2  0  0  0  0  0  0
  -31.1630  -14.2640   20.4070 N   0  0  0  0  0  0  0  0  0  0  0  0
  -33.1590  -15.3170   20.4260 O   0  0  0  0  0  0  0  0  0  0  0  0
  -31.3690  -16.6290   20.8020 N   0  0  0  0  0  0  0  0  0  0  0  0
  -31.8880  -17.1290   21.5070 H   0  0  0  0  0  0  0  0  0  0  0  0
  -26.4610  -14.9560   20.2460 C   0  0  0  0  0  0  0  0  0  0  0  0
  -25.3120  -14.2680   20.5180 C   0  0  0  0  0  0  0  0  0  0  0  0
  -25.6760  -12.8870   20.5450 C   0  0  0  0  0  0  0  0  0  0  0  0
  -27.4520  -13.9970   20.1150 N   0  0  0  0  0  0  0  0  0  0  0  0
  -26.9820  -12.7500   20.3630 N   0  0  0  0  0  0  0  0  0  0  0  0
  -24.8480  -11.6830   20.6690 C   0  0  0  0  0  0  0  0  0  0  0  0
  -25.1650  -10.6650   21.5960 C   0  0  0  0  0  3  0  0  0  0  0  0
  -24.3400   -9.5250   21.7120 C   0  0  0  0  0  3  0  0  0  0  0  0
  -23.1880   -9.3970   20.9010 C   0  0  0  0  0  0  0  0  0  0  0  0
  -22.8910  -10.4030   19.9650 C   0  0  0  0  0  3  0  0  0  0  0  0
  -23.7140  -11.5340   19.8450 C   0  0  0  0  0  3  0  0  0  0  0  0
  -22.3390   -8.3180   20.9360 O   0  0  0  0  0  0  0  0  0  0  0  0
  -22.1420   -7.5940   22.0840 C   0  0  0  0  0  0  0  0  0  0  0  0
  -21.7050   -8.2020   23.2800 C   0  0  0  0  0  3  0  0  0  0  0  0
  -21.4430   -7.4110   24.4170 C   0  0  0  0  0  3  0  0  0  0  0  0
  -21.6100   -6.0140   24.3570 C   0  0  0  0  0  0  0  0  0  0  0  0
  -22.0390   -5.4070   23.1630 C   0  0  0  0  0  3  0  0  0  0  0  0
  -22.3010   -6.1950   22.0290 C   0  0  0  0  0  0  0  0  0  0  0  0
  -22.6950   -5.6010   20.8760 F   0  0  0  0  0  0  0  0  0  0  0  0
  -21.3540   -5.2530   25.4470 F   0  0  0  0  0  0  0  0  0  0  0  0
  -23.9360  -14.8500   20.6520 C   0  0  0  0  0  0  0  0  0  0  0  0
  -23.0890  -14.2370   21.4680 N   0  0  0  0  0  0  0  0  0  0  0  0
  -23.6220  -15.8870   20.0670 O   0  0  0  0  0  0  0  0  0  0  0  0
  -23.3450  -13.3960   21.9650 H   0  0  0  0  0  0  0  0  0  0  0  0
  -22.1580  -14.6110   21.5890 H   0  0  0  0  0  0  0  0  0  0  0  0
  -26.7360  -16.3100   20.0740 N   0  0  0  0  0  0  0  0  0  0  0  0
  -26.0070  -17.0130   20.1140 H   0  0  0  0  0  0  0  0  0  0  0  0
  -27.6400  -16.6900   19.8220 H   0  0  0  0  0  0  0  0  0  0  0  0
  1  3  1  0
  2  1  1  0
  4  8  1  0
  6  4  1  0
  6  9  1  0
  7  5  1  0
  8  1  1  0
  8  5  1  0
  9 10  1  0
  9  7  1  0
 11 22  2  0
 12 10  1  0
 12 17  1  0
 13 21  1  0
 13 23  1  0
 14 20  1  0
 14 16  1  0
 15 21  1  0
 16 17  2  0
 16 15  1  0
 18 12  2  0
 19 18  1  0
 19 14  2  0
 20 13  1  0
 21 11  1  0
 23 25  2  0
 24 23  1  0
 26 24  1  0
 27 36  2  0
 27 32  1  0
 28 24  1  0
 28 32  1  0
 29 28  1  0
 30 31  1  0
 30 29  1  0
 31 27  1  0
 32 33  2  0
 33 34  1  0
 35 34  2  0
 36 35  1  0
 37 11  1  0
 37 42  1  0
 37 38  1  0
 38 41  1  1
 38 39  1  0
 40 38  1  0
 42 45  1  0
 43 47  1  0
 43 42  1  0
 44 43  2  0
 47 46  1  0
 49 47  1  0
 49 50  1  0
 49 48  1  0
 51  1  1  0
 52 56  1  0
 53 57  2  0
 54 52  2  0
 55 54  1  0
 55 53  1  0
 56 51  2  0
 57 56  1  0
 57 69  1  0
 58 54  1  0
 59 55  2  0
 60 59  1  0
 60 58  2  0
 61 69  1  0
 62 67  1  0
 63 64  1  0
 63 62  1  0
 65 64  1  0
 65 74  1  0
 65 66  1  0
 67 61  1  0
 67 66  1  0
 68 61  2  0
 69 70  1  0
 71 72  2  0
 72 73  1  0
 72 91  1  0
 73 76  1  0
 74 71  1  0
 74 75  1  0
 75 73  2  0
 76 77  1  0
 77 78  2  0
 79 82  1  0
 79 78  1  0
 80 79  2  0
 81 80  1  0
 81 76  2  0
 82 83  1  0
 83 84  1  0
 84 85  2  0
 86 85  1  0
 86 90  1  0
 87 86  2  0
 88 83  2  0
 88 87  1  0
 89 88  1  0
 91 92  1  0
 92 95  1  0
 92 94  1  0
 93 91  2  0
 96 97  1  0
 96 71  1  0
 98 96  1  0
M  ISO  4   9 101  10 101  61 100  69 100
M  END
>  <TORSDO>  (19) 
F 19

>  <SCORE>  (19) 
-11.109

>  <name>  (19) 
18

>  <ligand_id>  (19) 
18

>  <original_smiles>  (19) 
[H]c1c([H])c([H])c2c(c1[H])C([H])([H])C([H])([H])C([H])([H])C2([H])N([H])C(=O)C1([H])N(C(=O)C([H])(N([H])C(=O)C([H])(N([H])C([H])([H])[H])C([H])([H])[H])C(C([H])([H])[H])(C([H])([H])[H])C([H])([H])[H])C([H])([H])c2c([H])c(OC3([H])C([H])([H])C([H])([H])C([H])([N+]([H])([H])C([H])([H])c4c([H])c5c(c([H])c4N([H])C(=O)N4C([H])([H])C([H])([H])C([H])([H])C([H])(n6nc(-c7c([H])c([H])c(Oc8c([H])c([H])c(F)c([H])c8F)c([H])c7[H])c(C(=O)N([H])[H])c6N([H])[H])C4([H])[H])C([H])([H])C([H])([H])C5([H])[H])C([H])([H])C3([H])[H])c([H])c([H])c2C1([H])[H]

>  <smiles>  (19) 
[H]c1c([H])c([H])c2c(c1[H])C([H])([H])C([H])([H])C([H])([H])C2([H])N([H])C(=O)C1([H])N(C(=O)C([H])(N([H])C(=O)C([H])(N([H])C([H])([H])[H])C([H])([H])[H])C(C([H])([H])[H])(C([H])([H])[H])C([H])([H])[H])C([H])([H])c2c([H])c(OC3([H])C([H])([H])C([H])([H])C([H])([N+]([H])([H])C([H])([H])c4c([H])c5c(c([H])c4N([H])C(=O)N4C([H])([H])C([H])([H])C([H])([H])C([H])(n6nc(-c7c([H])c([H])c(Oc8c([H])c([H])c(F)c([H])c8F)c([H])c7[H])c(C(=O)N([H])[H])c6N([H])[H])C4([H])[H])C([H])([H])C([H])([H])C5([H])[H])C([H])([H])C3([H])[H])c([H])c([H])c2C1([H])[H]

$$$$
19:0:0
     RDKit          3D

101110  0  0  1  0  0  0  0  0999 V2000
  -32.1030  -21.3790   20.4960 C   0  0  0  0  0  3  0  0  0  0  0  0
  -31.7830  -20.6930   19.3050 C   0  0  0  0  0  0  0  0  0  0  0  0
  -30.6550  -19.0930   20.5470 C   0  0  0  0  0  0  0  0  0  0  0  0
  -30.9120  -19.8340   21.7370 C   0  0  0  0  0  0  0  0  0  0  0  0
  -31.6520  -20.9660   21.6970 N   0  0  0  0  0  0  0  0  0  0  0  0
  -31.0690  -19.5390   19.3280 N   0  0  0  0  0  0  0  0  0  0  0  0
  -30.4430  -19.4200   22.9920 N   0  0  0  0  0  0  0  0  0  0  0  0
  -29.8770  -18.5790   23.0550 H   0  0  0  0  0  0  0  0  0  0  0  0
  -32.2610  -21.2170   17.9550 C   0  0  0  0  0  2  0  0  0  0  0  0
  -31.2630  -22.1290   17.1990 C   0  0  0  0  0  2  0  0  0  0  0  0
  -31.0930  -23.4750   17.8050 N   0  0  0  0  0  4  0  0  0  0  0  0
  -31.1550  -24.1430   17.0520 H   0  0  0  0  0  0  0  0  0  0  0  0
  -31.8610  -23.6770   18.4240 H   0  0  0  0  0  0  0  0  0  0  0  0
  -29.7960  -23.7100   18.4780 C   0  0  0  0  0  2  0  0  0  0  0  0
  -29.7380  -25.0690   19.2060 C   0  0  0  0  0  2  0  0  0  0  0  0
  -28.2970  -25.4780   19.5440 C   0  0  0  0  0  2  0  0  0  0  0  0
  -28.2650  -26.7480   20.1940 O   0  0  0  0  0  0  0  0  0  0  0  0
  -24.5040  -31.9140   23.3270 C   0  0  0  0  0  0  0  0  0  0  0  0
  -27.0630  -27.4280   20.2370 C   0  0  0  0  0  0  0  0  0  0  0  0
  -23.2630  -30.5210   21.7050 C   0  0  0  0  0  3  0  0  0  0  0  0
  -24.6780  -28.9510   20.2880 C   0  0  0  0  0  0  0  0  0  0  0  0
  -25.7910  -30.8410   21.4830 C   0  0  0  0  0  2  0  0  0  0  0  0
  -25.8510  -29.4650   20.8540 C   0  0  0  0  0  0  0  0  0  0  0  0
  -27.0430  -28.7120   20.8250 C   0  0  0  0  0  3  0  0  0  0  0  0
  -25.8590  -26.9120   19.6990 C   0  0  0  0  0  3  0  0  0  0  0  0
  -24.6760  -27.6700   19.7110 C   0  0  0  0  0  3  0  0  0  0  0  0
  -23.4470  -29.8260   20.3320 C   0  0  0  0  0  2  0  0  0  0  0  0
  -24.5390  -31.1060   22.2280 N   0  0  0  0  0  0  0  0  0  0  0  0
  -23.4320  -32.2050   23.8720 O   0  0  0  0  0  0  0  0  0  0  0  0
  -22.6050  -29.5150   22.6750 C   0  0  0  0  0  0  0  0  0  0  0  0
  -21.2900  -29.3000   22.5110 N   0  0  0  0  0  0  0  0  0  0  0  0
  -23.2780  -28.9290   23.5270 O   0  0  0  0  0  0  0  0  0  0  0  0
  -20.8110  -29.8260   21.7940 H   0  0  0  0  0  0  0  0  0  0  0  0
  -17.9440  -27.9990   22.8980 C   0  0  0  0  0  0  0  0  0  0  0  0
  -20.4700  -28.3710   23.2870 C   0  0  0  0  0  3  0  0  0  0  0  0
  -20.6570  -26.9160   22.7950 C   0  0  0  0  0  2  0  0  0  0  0  0
  -19.6240  -26.4980   21.7430 C   0  0  0  0  0  2  0  0  0  0  0  0
  -18.2050  -26.6250   22.3040 C   0  0  0  0  0  2  0  0  0  0  0  0
  -19.0080  -28.8240   23.3440 C   0  0  0  0  0  0  0  0  0  0  0  0
  -18.7130  -30.1070   23.8560 C   0  0  0  0  0  3  0  0  0  0  0  0
  -17.3850  -30.5670   23.9240 C   0  0  0  0  0  3  0  0  0  0  0  0
  -16.3330  -29.7400   23.4930 C   0  0  0  0  0  3  0  0  0  0  0  0
  -16.6120  -28.4580   22.9860 C   0  0  0  0  0  3  0  0  0  0  0  0
  -25.8060  -32.5300   23.9290 C   0  0  0  0  0  3  0  0  0  0  0  0
  -26.3190  -31.7660   25.2100 C   0  0  1  0  0  0  0  0  0  0  0  0
  -25.2310  -31.5520   26.2880 C   0  0  0  0  0  1  0  0  0  0  0  0
  -26.8800  -30.3770   24.8260 C   0  0  0  0  0  1  0  0  0  0  0  0
  -27.4820  -32.5510   25.8590 C   0  0  0  0  0  1  0  0  0  0  0  0
  -25.5270  -33.9390   24.2430 N   0  0  0  0  0  0  0  0  0  0  0  0
  -25.8720  -34.9720   23.4640 C   0  0  0  0  0  0  0  0  0  0  0  0
  -26.5320  -34.8400   22.4280 O   0  0  0  0  0  0  0  0  0  0  0  0
  -24.9480  -34.1150   25.0500 H   0  0  0  0  0  0  0  0  0  0  0  0
  -24.1700  -36.7820   23.0970 C   0  0  0  0  0  1  0  0  0  0  0  0
  -25.4130  -36.3740   23.9010 C   0  0  0  0  0  3  0  0  0  0  0  0
  -27.5720  -37.2360   24.6950 C   0  0  0  0  0  1  0  0  0  0  0  0
  -26.4640  -37.4080   23.7590 N   0  0  0  0  0  0  0  0  0  0  0  0
  -26.0740  -38.3370   23.8990 H   0  0  0  0  0  0  0  0  0  0  0  0
  -30.9070  -20.0540   24.2250 C   0  0  0  0  0  2  0  0  0  0  0  0
  -30.7890  -22.3920   25.4200 C   0  0  0  0  0  2  0  0  0  0  0  0
  -30.6010  -22.6750   23.9530 C   0  0  0  0  0  2  0  0  0  0  0  0
  -30.1640  -21.3450   24.5270 C   0  0  0  0  0  3  0  0  0  0  0  0
  -29.9940  -17.7130   20.5700 C   0  0  0  0  0  2  0  0  0  0  0  0
  -30.8600  -16.6500   21.2860 C   0  0  0  0  0  2  0  0  0  0  0  0
  -30.9120  -14.4110   20.2070 C   0  0  0  0  0  0  0  0  0  0  0  0
  -30.4900  -12.3590   18.9120 C   0  0  0  0  0  2  0  0  0  0  0  0
  -29.5100  -12.6830   17.7680 C   0  0  0  0  0  2  0  0  0  0  0  0
  -28.0510  -12.5630   18.2540 C   0  0  0  0  0  2  0  0  0  0  0  0
  -27.7940  -13.3290   19.5800 C   0  0  0  0  0  3  0  0  0  0  0  0
  -28.8820  -12.9750   20.6200 C   0  0  0  0  0  2  0  0  0  0  0  0
  -30.1960  -13.2720   20.0250 N   0  0  0  0  0  0  0  0  0  0  0  0
  -31.9550  -14.6600   19.5990 O   0  0  0  0  0  0  0  0  0  0  0  0
  -30.3640  -15.2980   21.0450 N   0  0  0  0  0  0  0  0  0  0  0  0
  -29.5120  -15.0170   21.5090 H   0  0  0  0  0  0  0  0  0  0  0  0
  -25.4230  -13.9740   20.3580 C   0  0  0  0  0  0  0  0  0  0  0  0
  -24.3580  -13.2190   20.7660 C   0  0  0  0  0  0  0  0  0  0  0  0
  -24.8010  -11.8600   20.7260 C   0  0  0  0  0  0  0  0  0  0  0  0
  -26.4500  -13.0810   20.0970 N   0  0  0  0  0  0  0  0  0  0  0  0
  -26.0800  -11.8050   20.3730 N   0  0  0  0  0  0  0  0  0  0  0  0
  -24.0670  -10.6090   20.9450 C   0  0  0  0  0  0  0  0  0  0  0  0
  -24.5100   -9.6460   21.8780 C   0  0  0  0  0  3  0  0  0  0  0  0
  -23.7790   -8.4570   22.0830 C   0  0  0  0  0  3  0  0  0  0  0  0
  -22.5890   -8.2200   21.3550 C   0  0  0  0  0  0  0  0  0  0  0  0
  -22.1650   -9.1690   20.4090 C   0  0  0  0  0  3  0  0  0  0  0  0
  -22.8960  -10.3510   20.2030 C   0  0  0  0  0  3  0  0  0  0  0  0
  -21.8300   -7.0810   21.4700 O   0  0  0  0  0  0  0  0  0  0  0  0
  -21.7710   -6.3680   22.6400 C   0  0  0  0  0  0  0  0  0  0  0  0
  -21.3540   -6.9580   23.8530 C   0  0  0  0  0  3  0  0  0  0  0  0
  -21.2440   -6.1730   25.0170 C   0  0  0  0  0  3  0  0  0  0  0  0
  -21.5400   -4.7980   24.9700 C   0  0  0  0  0  0  0  0  0  0  0  0
  -21.9490   -4.2060   23.7620 C   0  0  0  0  0  3  0  0  0  0  0  0
  -22.0620   -4.9890   22.6010 C   0  0  0  0  0  0  0  0  0  0  0  0
  -22.4370   -4.4100   21.4340 F   0  0  0  0  0  0  0  0  0  0  0  0
  -21.4260   -4.0410   26.0860 F   0  0  0  0  0  0  0  0  0  0  0  0
  -22.9750  -13.7110   21.0850 C   0  0  0  0  0  0  0  0  0  0  0  0
  -22.2660  -13.0280   21.9770 N   0  0  0  0  0  0  0  0  0  0  0  0
  -22.5330  -14.7410   20.5780 O   0  0  0  0  0  0  0  0  0  0  0  0
  -22.6340  -12.1930   22.4110 H   0  0  0  0  0  0  0  0  0  0  0  0
  -21.3400  -13.3470   22.2300 H   0  0  0  0  0  0  0  0  0  0  0  0
  -25.6000  -15.3440   20.1720 N   0  0  0  0  0  0  0  0  0  0  0  0
  -24.8500  -16.0120   20.3070 H   0  0  0  0  0  0  0  0  0  0  0  0
  -26.4530  -15.7760   19.8390 H   0  0  0  0  0  0  0  0  0  0  0  0
  1  5  1  0
  2  6  1  0
  2  1  2  0
  3 62  1  0
  3  4  1  0
  4  7  1  0
  5  4  2  0
  6  3  2  0
  7  8  1  0
  7 58  1  0
  9  2  1  0
 10 11  1  0
 10  9  1  0
 11 13  1  0
 11 14  1  0
 12 11  1  0
 14 15  1  0
 15 16  1  0
 16 17  1  0
 17 19  1  0
 18 29  2  0
 19 24  1  0
 20 28  1  0
 20 30  1  0
 21 27  1  0
 21 23  1  0
 22 28  1  0
 23 22  1  0
 24 23  2  0
 25 26  1  0
 25 19  2  0
 26 21  2  0
 27 20  1  0
 28 18  1  0
 30 32  2  0
 31 30  1  0
 33 31  1  0
 34 43  2  0
 34 39  1  0
 35 31  1  0
 35 39  1  0
 36 35  1  0
 37 38  1  0
 37 36  1  0
 38 34  1  0
 39 40  2  0
 40 41  1  0
 42 41  2  0
 43 42  1  0
 44 18  1  0
 44 49  1  0
 44 45  1  0
 45 48  1  1
 45 46  1  0
 47 45  1  0
 49 52  1  0
 50 54  1  0
 50 49  1  0
 51 50  2  0
 54 53  1  0
 56 57  1  0
 56 54  1  0
 56 55  1  0
 58 61  1  0
 60 61  1  0
 60 59  1  0
 61 59  1  0
 62 63  1  0
 64 72  1  0
 65 70  1  0
 66 67  1  0
 66 65  1  0
 68 67  1  0
 68 77  1  0
 68 69  1  0
 70 64  1  0
 70 69  1  0
 71 64  2  0
 72 63  1  0
 72 73  1  0
 74 75  2  0
 75 94  1  0
 76 75  1  0
 76 79  1  0
 77 74  1  0
 77 78  1  0
 78 76  2  0
 79 80  1  0
 80 81  2  0
 82 85  1  0
 82 81  1  0
 83 82  2  0
 84 83  1  0
 84 79  2  0
 85 86  1  0
 86 87  1  0
 87 88  2  0
 89 88  1  0
 89 93  1  0
 90 89  2  0
 91 86  2  0
 91 90  1  0
 92 91  1  0
 94 95  1  0
 95 98  1  0
 95 97  1  0
 96 94  2  0
 99100  1  0
 99 74  1  0
101 99  1  0
M  ISO  4  16 101  17 101  64 100  72 100
M  END
>  <TORSDO>  (20) 
F 26

>  <SCORE>  (20) 
-11.407

>  <name>  (20) 
19

>  <ligand_id>  (20) 
19

>  <original_smiles>  (20) 
[H]c1nc(N([H])C([H])([H])C2([H])C([H])([H])C2([H])[H])c(C([H])([H])C([H])([H])N([H])C(=O)N2C([H])([H])C([H])([H])C([H])([H])C([H])(n3nc(-c4c([H])c([H])c(Oc5c([H])c([H])c(F)c([H])c5F)c([H])c4[H])c(C(=O)N([H])[H])c3N([H])[H])C2([H])[H])nc1C([H])([H])C([H])([H])[N+]([H])([H])C([H])([H])C([H])([H])C([H])([H])Oc1c([H])c([H])c2c(c1[H])C([H])([H])N(C(=O)C([H])(N([H])C(=O)C([H])(N([H])C([H])([H])[H])C([H])([H])[H])C(C([H])([H])[H])(C([H])([H])[H])C([H])([H])[H])C([H])(C(=O)N([H])C1([H])c3c([H])c([H])c([H])c([H])c3C([H])([H])C([H])([H])C1([H])[H])C2([H])[H]

>  <smiles>  (20) 
[H]c1nc(N([H])C([H])([H])C2([H])C([H])([H])C2([H])[H])c(C([H])([H])C([H])([H])N([H])C(=O)N2C([H])([H])C([H])([H])C([H])([H])C([H])(n3nc(-c4c([H])c([H])c(Oc5c([H])c([H])c(F)c([H])c5F)c([H])c4[H])c(C(=O)N([H])[H])c3N([H])[H])C2([H])[H])nc1C([H])([H])C([H])([H])[N+]([H])([H])C([H])([H])C([H])([H])C([H])([H])Oc1c([H])c([H])c2c(c1[H])C([H])([H])N(C(=O)C([H])(N([H])C(=O)C([H])(N([H])C([H])([H])[H])C([H])([H])[H])C(C([H])([H])[H])(C([H])([H])[H])C([H])([H])[H])C([H])(C(=O)N([H])C1([H])c3c([H])c([H])c([H])c([H])c3C([H])([H])C([H])([H])C1([H])[H])C2([H])[H]

$$$$
20:0:0
     RDKit          3D

 97106  0  0  1  0  0  0  0  0999 V2000
  -28.7350  -22.7390   16.7900 C   0  0  0  0  0  3  0  0  0  0  0  0
  -28.6470  -21.3720   17.1070 C   0  0  0  0  0  3  0  0  0  0  0  0
  -26.6620  -23.1410   18.0010 C   0  0  0  0  0  3  0  0  0  0  0  0
  -27.7460  -23.6310   17.2460 C   0  0  0  0  0  0  0  0  0  0  0  0
  -27.5840  -20.8820   17.8990 C   0  0  0  0  0  0  0  0  0  0  0  0
  -26.5870  -21.7820   18.3570 C   0  0  0  0  0  0  0  0  0  0  0  0
  -25.4270  -21.3370   19.2370 C   0  0  0  0  0  1  0  0  0  0  0  0
  -27.8670  -25.1200   16.9730 C   0  0  0  0  0  2  0  0  0  0  0  0
  -28.8580  -25.8210   17.9230 C   0  0  0  0  0  2  0  0  0  0  0  0
  -28.6210  -25.6050   19.4410 C   0  0  0  0  0  2  0  0  0  0  0  0
  -28.4330  -26.8190   20.1620 O   0  0  0  0  0  0  0  0  0  0  0  0
  -24.5270  -31.8800   23.2280 C   0  0  0  0  0  0  0  0  0  0  0  0
  -27.2060  -27.4480   20.1730 C   0  0  0  0  0  0  0  0  0  0  0  0
  -23.3230  -30.4490   21.6050 C   0  0  0  0  0  3  0  0  0  0  0  0
  -24.7830  -28.9060   20.1980 C   0  0  0  0  0  0  0  0  0  0  0  0
  -25.8440  -30.8300   21.3980 C   0  0  0  0  0  2  0  0  0  0  0  0
  -25.9350  -29.4520   20.7750 C   0  0  0  0  0  0  0  0  0  0  0  0
  -27.1430  -28.7270   20.7670 C   0  0  0  0  0  3  0  0  0  0  0  0
  -26.0270  -26.8980   19.6210 C   0  0  0  0  0  3  0  0  0  0  0  0
  -24.8190  -27.6220   19.6290 C   0  0  0  0  0  3  0  0  0  0  0  0
  -23.5330  -29.7530   20.2340 C   0  0  0  0  0  2  0  0  0  0  0  0
  -24.5810  -31.0680   22.1350 N   0  0  0  0  0  0  0  0  0  0  0  0
  -23.4450  -32.1570   23.7640 O   0  0  0  0  0  0  0  0  0  0  0  0
  -22.6810  -29.4370   22.5770 C   0  0  0  0  0  0  0  0  0  0  0  0
  -21.3580  -29.2420   22.4450 N   0  0  0  0  0  0  0  0  0  0  0  0
  -23.3660  -28.8300   23.4040 O   0  0  0  0  0  0  0  0  0  0  0  0
  -20.8670  -29.7860   21.7500 H   0  0  0  0  0  0  0  0  0  0  0  0
  -17.9890  -28.0330   22.9170 C   0  0  0  0  0  0  0  0  0  0  0  0
  -20.5400  -28.3110   23.2200 C   0  0  0  0  0  3  0  0  0  0  0  0
  -20.6630  -26.8720   22.6650 C   0  0  0  0  0  2  0  0  0  0  0  0
  -19.5740  -26.5270   21.6430 C   0  0  0  0  0  2  0  0  0  0  0  0
  -18.1830  -26.6740   22.2660 C   0  0  0  0  0  2  0  0  0  0  0  0
  -19.0970  -28.8100   23.3480 C   0  0  0  0  0  0  0  0  0  0  0  0
  -18.8630  -30.0820   23.9110 C   0  0  0  0  0  3  0  0  0  0  0  0
  -17.5520  -30.5780   24.0500 C   0  0  0  0  0  3  0  0  0  0  0  0
  -16.4580  -29.7980   23.6390 C   0  0  0  0  0  3  0  0  0  0  0  0
  -16.6780  -28.5260   23.0780 C   0  0  0  0  0  3  0  0  0  0  0  0
  -25.8140  -32.5180   23.8420 C   0  0  0  0  0  3  0  0  0  0  0  0
  -25.4990  -33.9130   24.1720 N   0  0  0  0  0  0  0  0  0  0  0  0
  -25.8280  -34.9650   23.4100 C   0  0  0  0  0  0  0  0  0  0  0  0
  -26.4980  -34.8620   22.3790 O   0  0  0  0  0  0  0  0  0  0  0  0
  -24.9020  -34.0680   24.9710 H   0  0  0  0  0  0  0  0  0  0  0  0
  -24.0920  -36.7470   23.0510 C   0  0  0  0  0  1  0  0  0  0  0  0
  -25.3340  -36.3510   23.8660 C   0  0  0  0  0  3  0  0  0  0  0  0
  -27.4610  -37.2440   24.7020 C   0  0  0  0  0  1  0  0  0  0  0  0
  -26.3620  -37.4070   23.7540 N   0  0  0  0  0  0  0  0  0  0  0  0
  -25.9500  -38.3250   23.9030 H   0  0  0  0  0  0  0  0  0  0  0  0
  -26.3480  -31.7470   25.1110 C   0  0  1  0  0  0  0  0  0  0  0  0
  -25.2640  -31.4980   26.1850 C   0  0  0  0  0  1  0  0  0  0  0  0
  -26.9400  -30.3750   24.7100 C   0  0  0  0  0  1  0  0  0  0  0  0
  -27.4970  -32.5470   25.7670 C   0  0  0  0  0  1  0  0  0  0  0  0
  -27.5070  -19.3880   18.1820 C   0  0  0  0  0  2  0  0  0  0  0  0
  -29.0980  -17.4640   21.1320 C   0  0  0  0  0  2  0  0  0  0  0  0
  -30.5130  -17.1880   19.1320 C   0  0  0  0  0  2  0  0  0  0  0  0
  -28.0810  -18.3200   20.3420 C   0  0  0  0  0  2  0  0  0  0  0  0
  -29.5200  -17.9970   18.2790 C   0  0  0  0  0  2  0  0  0  0  0  0
  -29.6990  -16.4230   20.1850 C   0  0  0  0  0  3  0  0  0  0  0  0
  -28.6070  -18.8930   19.0590 N   0  0  1  0  0  4  0  0  0  0  0  0
  -29.1500  -19.7070   19.3120 H   0  0  0  0  0  0  0  0  0  0  0  0
  -30.9210  -14.2940   20.1560 C   0  0  0  0  0  0  0  0  0  0  0  0
  -30.5130  -12.1800   18.9700 C   0  0  0  0  0  2  0  0  0  0  0  0
  -29.5330  -12.4350   17.8050 C   0  0  0  0  0  2  0  0  0  0  0  0
  -28.0730  -12.3170   18.2810 C   0  0  0  0  0  2  0  0  0  0  0  0
  -27.7970  -13.1450   19.5600 C   0  0  0  0  0  3  0  0  0  0  0  0
  -28.8820  -12.8880   20.6370 C   0  0  0  0  0  2  0  0  0  0  0  0
  -30.2130  -13.1400   20.0450 N   0  0  0  0  0  0  0  0  0  0  0  0
  -31.9800  -14.5110   19.5600 O   0  0  0  0  0  0  0  0  0  0  0  0
  -30.3040  -15.2620   20.8470 N   0  0  0  0  0  0  0  0  0  0  0  0
  -29.7040  -14.8670   21.5580 H   0  0  0  0  0  0  0  0  0  0  0  0
  -25.4370  -13.8150   20.3540 C   0  0  0  0  0  0  0  0  0  0  0  0
  -24.3650  -13.0680   20.7580 C   0  0  0  0  0  0  0  0  0  0  0  0
  -24.7920  -11.7060   20.7030 C   0  0  0  0  0  0  0  0  0  0  0  0
  -26.4520  -12.9090   20.0800 N   0  0  0  0  0  0  0  0  0  0  0  0
  -26.0670  -11.6360   20.3450 N   0  0  0  0  0  0  0  0  0  0  0  0
  -24.0460  -10.4590   20.9100 C   0  0  0  0  0  0  0  0  0  0  0  0
  -24.4510   -9.5080   21.8730 C   0  0  0  0  0  3  0  0  0  0  0  0
  -23.7080   -8.3240   22.0640 C   0  0  0  0  0  3  0  0  0  0  0  0
  -22.5470   -8.0820   21.2930 C   0  0  0  0  0  0  0  0  0  0  0  0
  -22.1600   -9.0220   20.3210 C   0  0  0  0  0  3  0  0  0  0  0  0
  -22.9030  -10.1980   20.1270 C   0  0  0  0  0  3  0  0  0  0  0  0
  -21.7790   -6.9470   21.3930 O   0  0  0  0  0  0  0  0  0  0  0  0
  -21.6570   -6.2630   22.5750 C   0  0  0  0  0  0  0  0  0  0  0  0
  -21.1560   -6.8780   23.7440 C   0  0  0  0  0  3  0  0  0  0  0  0
  -20.9840   -6.1200   24.9200 C   0  0  0  0  0  3  0  0  0  0  0  0
  -21.2990   -4.7470   24.9260 C   0  0  0  0  0  0  0  0  0  0  0  0
  -21.7920   -4.1330   23.7620 C   0  0  0  0  0  3  0  0  0  0  0  0
  -21.9670   -4.8890   22.5900 C   0  0  0  0  0  0  0  0  0  0  0  0
  -22.4260   -4.2870   21.4660 F   0  0  0  0  0  0  0  0  0  0  0  0
  -21.1240   -4.0180   26.0520 F   0  0  0  0  0  0  0  0  0  0  0  0
  -22.9870  -13.5760   21.0790 C   0  0  0  0  0  0  0  0  0  0  0  0
  -22.2690  -12.8950   21.9650 N   0  0  0  0  0  0  0  0  0  0  0  0
  -22.5560  -14.6130   20.5770 O   0  0  0  0  0  0  0  0  0  0  0  0
  -22.6280  -12.0550   22.3930 H   0  0  0  0  0  0  0  0  0  0  0  0
  -21.3490  -13.2220   22.2200 H   0  0  0  0  0  0  0  0  0  0  0  0
  -25.6290  -15.1820   20.1790 N   0  0  0  0  0  0  0  0  0  0  0  0
  -24.8710  -15.8450   20.3050 H   0  0  0  0  0  0  0  0  0  0  0  0
  -26.4570  -15.5910   19.7760 H   0  0  0  0  0  0  0  0  0  0  0  0
  1  2  2  0
  1  4  1  0
  2  5  1  0
  3  6  1  0
  4  3  2  0
  5 52  1  0
  5  6  2  0
  6  7  1  0
  8  4  1  0
  8  9  1  0
  9 10  1  0
 10 11  1  0
 11 13  1  0
 12 23  2  0
 13 18  1  0
 14 22  1  0
 14 24  1  0
 15 21  1  0
 15 17  1  0
 16 22  1  0
 17 16  1  0
 18 17  2  0
 19 20  1  0
 19 13  2  0
 20 15  2  0
 21 14  1  0
 22 12  1  0
 24 26  2  0
 25 24  1  0
 27 25  1  0
 28 37  2  0
 28 33  1  0
 29 25  1  0
 29 33  1  0
 30 29  1  0
 31 32  1  0
 31 30  1  0
 32 28  1  0
 33 34  2  0
 34 35  1  0
 36 35  2  0
 37 36  1  0
 38 12  1  0
 38 39  1  0
 38 48  1  0
 39 42  1  0
 40 44  1  0
 40 39  1  0
 41 40  2  0
 44 43  1  0
 46 44  1  0
 46 47  1  0
 46 45  1  0
 48 51  1  1
 48 49  1  0
 50 48  1  0
 52 58  1  0
 54 57  1  0
 55 53  1  0
 56 58  1  0
 56 54  1  0
 57 68  1  0
 57 53  1  0
 58 59  1  1
 58 55  1  0
 60 68  1  0
 61 66  1  0
 62 63  1  0
 62 61  1  0
 64 63  1  0
 64 73  1  0
 64 65  1  0
 66 60  1  0
 66 65  1  0
 67 60  2  0
 68 69  1  0
 70 71  2  0
 71 90  1  0
 72 71  1  0
 72 75  1  0
 73 74  1  0
 73 70  1  0
 74 72  2  0
 75 76  1  0
 76 77  2  0
 78 81  1  0
 78 77  1  0
 79 78  2  0
 80 79  1  0
 80 75  2  0
 81 82  1  0
 82 87  2  0
 82 83  1  0
 83 84  2  0
 84 85  1  0
 85 89  1  0
 86 85  2  0
 87 86  1  0
 88 87  1  0
 90 91  1  0
 91 94  1  0
 91 93  1  0
 92 90  2  0
 95 96  1  0
 95 70  1  0
 97 95  1  0
M  ISO  4  10 101  11 101  60 100  68 100
M  END
>  <TORSDO>  (21) 
F 21

>  <SCORE>  (21) 
-12.540

>  <name>  (21) 
20

>  <ligand_id>  (21) 
20

>  <original_smiles>  (21) 
[H]c1c([H])c([H])c2c(c1[H])C([H])([H])C([H])([H])C([H])([H])C2([H])N([H])C(=O)C1([H])N(C(=O)C([H])(N([H])C(=O)C([H])(N([H])C([H])([H])[H])C([H])([H])[H])C(C([H])([H])[H])(C([H])([H])[H])C([H])([H])[H])C([H])([H])c2c([H])c(OC([H])([H])C([H])([H])C([H])([H])c3c([H])c([H])c(C([H])([H])[N+]4([H])C([H])([H])C([H])([H])C([H])(N([H])C(=O)N5C([H])([H])C([H])([H])C([H])([H])C([H])(n6nc(-c7c([H])c([H])c(Oc8c([H])c([H])c(F)c([H])c8F)c([H])c7[H])c(C(=O)N([H])[H])c6N([H])[H])C5([H])[H])C([H])([H])C4([H])[H])c(C([H])([H])[H])c3[H])c([H])c([H])c2C1([H])[H]

>  <smiles>  (21) 
[H]c1c([H])c([H])c2c(c1[H])C([H])([H])C([H])([H])C([H])([H])C2([H])N([H])C(=O)C1([H])N(C(=O)C([H])(N([H])C(=O)C([H])(N([H])C([H])([H])[H])C([H])([H])[H])C(C([H])([H])[H])(C([H])([H])[H])C([H])([H])[H])C([H])([H])c2c([H])c(OC([H])([H])C([H])([H])C([H])([H])c3c([H])c([H])c(C([H])([H])[N+]4([H])C([H])([H])C([H])([H])C([H])(N([H])C(=O)N5C([H])([H])C([H])([H])C([H])([H])C([H])(n6nc(-c7c([H])c([H])c(Oc8c([H])c([H])c(F)c([H])c8F)c([H])c7[H])c(C(=O)N([H])[H])c6N([H])[H])C5([H])[H])C([H])([H])C4([H])[H])c(C([H])([H])[H])c3[H])c([H])c([H])c2C1([H])[H]

$$$$
21:0:0
     RDKit          3D

 97106  0  0  1  0  0  0  0  0999 V2000
  -28.4410  -21.3450   17.6750 C   0  0  0  0  0  2  0  0  0  0  0  0
  -30.0570  -20.4940   19.5170 C   0  0  0  0  0  2  0  0  0  0  0  0
  -28.5610  -18.8580   18.3530 C   0  0  0  0  0  2  0  0  0  0  0  0
  -30.1640  -19.5530   20.7170 C   0  0  0  0  0  2  0  0  0  0  0  0
  -28.6950  -17.9170   19.5650 C   0  0  0  0  0  2  0  0  0  0  0  0
  -28.6960  -20.3170   18.8040 C   0  0  0  0  0  3  0  0  0  0  0  0
  -29.9620  -18.1420   20.3140 N   0  0  2  0  0  4  0  0  0  0  0  0
  -30.7040  -17.9170   19.6670 H   0  0  0  0  0  0  0  0  0  0  0  0
  -30.1260  -17.2140   21.4550 C   0  0  0  0  0  2  0  0  0  0  0  0
  -31.5700  -16.6800   21.5210 C   0  0  0  0  0  2  0  0  0  0  0  0
  -31.6750  -15.2650   22.1220 C   0  0  0  0  0  2  0  0  0  0  0  0
  -30.7780  -13.9850   20.1570 C   0  0  0  0  0  0  0  0  0  0  0  0
  -30.1350  -12.1200   18.6990 C   0  0  0  0  0  2  0  0  0  0  0  0
  -29.0990  -12.4690   17.6210 C   0  0  0  0  0  2  0  0  0  0  0  0
  -27.6740  -12.3260   18.1790 C   0  0  0  0  0  2  0  0  0  0  0  0
  -27.4840  -13.0990   19.5090 C   0  0  0  0  0  3  0  0  0  0  0  0
  -28.6130  -12.7630   20.5110 C   0  0  0  0  0  2  0  0  0  0  0  0
  -29.9240  -12.9810   19.8670 N   0  0  0  0  0  0  0  0  0  0  0  0
  -31.5940  -14.4540   19.3580 O   0  0  0  0  0  0  0  0  0  0  0  0
  -30.7980  -14.3010   21.4580 N   0  0  0  0  0  0  0  0  0  0  0  0
  -30.1680  -13.7730   22.0470 H   0  0  0  0  0  0  0  0  0  0  0  0
  -25.1510  -13.7390   20.3980 C   0  0  0  0  0  0  0  0  0  0  0  0
  -24.0990  -12.9790   20.8350 C   0  0  0  0  0  0  0  0  0  0  0  0
  -24.5320  -11.6200   20.7510 C   0  0  0  0  0  0  0  0  0  0  0  0
  -26.1620  -12.8450   20.0810 N   0  0  0  0  0  0  0  0  0  0  0  0
  -25.7950  -11.5650   20.3470 N   0  0  0  0  0  0  0  0  0  0  0  0
  -23.8000  -10.3670   20.9770 C   0  0  0  0  0  0  0  0  0  0  0  0
  -24.2750   -9.3870   21.8760 C   0  0  0  0  0  3  0  0  0  0  0  0
  -23.5450   -8.1980   22.0900 C   0  0  0  0  0  3  0  0  0  0  0  0
  -22.3260   -7.9810   21.4050 C   0  0  0  0  0  0  0  0  0  0  0  0
  -21.8690   -8.9490   20.4940 C   0  0  0  0  0  3  0  0  0  0  0  0
  -22.5990  -10.1300   20.2780 C   0  0  0  0  0  3  0  0  0  0  0  0
  -21.5630   -6.8450   21.5300 O   0  0  0  0  0  0  0  0  0  0  0  0
  -21.5720   -6.0950   22.6790 C   0  0  0  0  0  0  0  0  0  0  0  0
  -21.2270   -6.6490   23.9320 C   0  0  0  0  0  3  0  0  0  0  0  0
  -21.1810   -5.8270   25.0750 C   0  0  0  0  0  3  0  0  0  0  0  0
  -21.4680   -4.4530   24.9680 C   0  0  0  0  0  0  0  0  0  0  0  0
  -21.8050   -3.8990   23.7210 C   0  0  0  0  0  3  0  0  0  0  0  0
  -21.8530   -4.7180   22.5790 C   0  0  0  0  0  0  0  0  0  0  0  0
  -22.1580   -4.1760   21.3750 F   0  0  0  0  0  0  0  0  0  0  0  0
  -21.4160   -3.6610   26.0650 F   0  0  0  0  0  0  0  0  0  0  0  0
  -22.7340  -13.4750   21.2190 C   0  0  0  0  0  0  0  0  0  0  0  0
  -22.0610  -12.7760   22.1270 N   0  0  0  0  0  0  0  0  0  0  0  0
  -22.2750  -14.5160   20.7490 O   0  0  0  0  0  0  0  0  0  0  0  0
  -22.4450  -11.9330   22.5280 H   0  0  0  0  0  0  0  0  0  0  0  0
  -21.1480  -13.0890   22.4250 H   0  0  0  0  0  0  0  0  0  0  0  0
  -25.3250  -15.1090   20.2250 N   0  0  0  0  0  0  0  0  0  0  0  0
  -24.5760  -15.7730   20.3870 H   0  0  0  0  0  0  0  0  0  0  0  0
  -26.1480  -15.5300   19.8150 H   0  0  0  0  0  0  0  0  0  0  0  0
  -29.7900  -24.5590   18.6270 C   0  0  0  0  0  3  0  0  0  0  0  0
  -29.7860  -23.4600   17.8200 C   0  0  0  0  0  3  0  0  0  0  0  0
  -28.6610  -24.4770   19.4880 C   0  0  0  0  0  0  0  0  0  0  0  0
  -27.9380  -23.3790   19.1090 C   0  0  0  0  0  0  0  0  0  0  0  0
  -26.6330  -22.8690   19.6450 C   0  0  0  0  0  1  0  0  0  0  0  0
  -28.6880  -22.6930   18.1600 N   0  0  0  0  0  0  0  0  0  0  0  0
  -28.3640  -25.3920   20.6400 C   0  0  0  0  0  2  0  0  0  0  0  0
  -28.4350  -26.7500   20.2540 O   0  0  0  0  0  0  0  0  0  0  0  0
  -24.5540  -31.8450   23.2190 C   0  0  0  0  0  0  0  0  0  0  0  0
  -27.2390  -27.4130   20.2250 C   0  0  0  0  0  0  0  0  0  0  0  0
  -23.3590  -30.4170   21.5860 C   0  0  0  0  0  3  0  0  0  0  0  0
  -24.8260  -28.8600   20.1990 C   0  0  0  0  0  0  0  0  0  0  0  0
  -25.8760  -30.7940   21.3930 C   0  0  0  0  0  2  0  0  0  0  0  0
  -25.9710  -29.4150   20.7830 C   0  0  0  0  0  0  0  0  0  0  0  0
  -27.1810  -28.6970   20.7930 C   0  0  0  0  0  3  0  0  0  0  0  0
  -26.0820  -26.8550   19.6350 C   0  0  0  0  0  3  0  0  0  0  0  0
  -24.8720  -27.5760   19.6240 C   0  0  0  0  0  3  0  0  0  0  0  0
  -23.5770  -29.7100   20.2190 C   0  0  0  0  0  2  0  0  0  0  0  0
  -24.6150  -31.0330   22.1260 N   0  0  0  0  0  0  0  0  0  0  0  0
  -23.4700  -32.1240   23.7500 O   0  0  0  0  0  0  0  0  0  0  0  0
  -22.7040  -29.4100   22.5570 C   0  0  0  0  0  0  0  0  0  0  0  0
  -21.3780  -29.2420   22.4350 N   0  0  0  0  0  0  0  0  0  0  0  0
  -23.3850  -28.7840   23.3740 O   0  0  0  0  0  0  0  0  0  0  0  0
  -20.8940  -29.7990   21.7460 H   0  0  0  0  0  0  0  0  0  0  0  0
  -17.9890  -28.1140   22.9590 C   0  0  0  0  0  0  0  0  0  0  0  0
  -20.5530  -28.3200   23.2120 C   0  0  0  0  0  3  0  0  0  0  0  0
  -20.6230  -26.8870   22.6370 C   0  0  0  0  0  2  0  0  0  0  0  0
  -19.5080  -26.5870   21.6300 C   0  0  0  0  0  2  0  0  0  0  0  0
  -18.1330  -26.7610   22.2820 C   0  0  0  0  0  2  0  0  0  0  0  0
  -19.1250  -28.8540   23.3800 C   0  0  0  0  0  0  0  0  0  0  0  0
  -18.9370  -30.1230   23.9690 C   0  0  0  0  0  3  0  0  0  0  0  0
  -17.6430  -30.6500   24.1440 C   0  0  0  0  0  3  0  0  0  0  0  0
  -16.5210  -29.9060   23.7390 C   0  0  0  0  0  3  0  0  0  0  0  0
  -16.6960  -28.6400   23.1510 C   0  0  0  0  0  3  0  0  0  0  0  0
  -25.8380  -32.4820   23.8400 C   0  0  0  0  0  3  0  0  0  0  0  0
  -25.5260  -33.8800   24.1630 N   0  0  0  0  0  0  0  0  0  0  0  0
  -25.8550  -34.9270   23.3930 C   0  0  0  0  0  0  0  0  0  0  0  0
  -26.5260  -34.8170   22.3630 O   0  0  0  0  0  0  0  0  0  0  0  0
  -24.9290  -34.0390   24.9600 H   0  0  0  0  0  0  0  0  0  0  0  0
  -24.1150  -36.7060   23.0270 C   0  0  0  0  0  1  0  0  0  0  0  0
  -25.3610  -36.3170   23.8390 C   0  0  0  0  0  3  0  0  0  0  0  0
  -27.4940  -37.2200   24.6540 C   0  0  0  0  0  1  0  0  0  0  0  0
  -26.3870  -37.3740   23.7120 N   0  0  0  0  0  0  0  0  0  0  0  0
  -25.9770  -38.2930   23.8520 H   0  0  0  0  0  0  0  0  0  0  0  0
  -26.3600  -31.7140   25.1160 C   0  0  1  0  0  0  0  0  0  0  0  0
  -25.2710  -31.4820   26.1890 C   0  0  0  0  0  1  0  0  0  0  0  0
  -26.9380  -30.3350   24.7230 C   0  0  0  0  0  1  0  0  0  0  0  0
  -27.5150  -32.5090   25.7690 C   0  0  0  0  0  1  0  0  0  0  0  0
  1 55  1  0
  2  4  1  0
  3  6  1  0
  3  5  1  0
  5  7  1  0
  6  1  1  0
  6  2  1  0
  7  4  1  0
  7  9  1  0
  7  8  1  6
  9 10  1  0
 10 11  1  0
 12 20  1  0
 13 18  1  0
 14 15  1  0
 14 13  1  0
 16 15  1  0
 16 25  1  0
 16 17  1  0
 18 12  1  0
 18 17  1  0
 19 12  2  0
 20 21  1  0
 20 11  1  0
 22 23  2  0
 23 42  1  0
 24 23  1  0
 24 27  1  0
 25 26  1  0
 25 22  1  0
 26 24  2  0
 27 28  1  0
 28 29  2  0
 30 33  1  0
 30 29  1  0
 31 30  2  0
 32 31  1  0
 32 27  2  0
 33 34  1  0
 34 35  1  0
 35 36  2  0
 37 36  1  0
 37 41  1  0
 38 37  2  0
 39 34  2  0
 39 38  1  0
 40 39  1  0
 42 43  1  0
 43 46  1  0
 43 45  1  0
 44 42  2  0
 47 48  1  0
 47 22  1  0
 49 47  1  0
 50 52  1  0
 51 55  1  0
 51 50  2  0
 52 56  1  0
 53 52  2  0
 53 54  1  0
 55 53  1  0
 57 56  1  0
 58 69  2  0
 59 57  1  0
 59 64  1  0
 60 68  1  0
 60 70  1  0
 61 67  1  0
 61 63  1  0
 62 68  1  0
 63 64  2  0
 63 62  1  0
 65 59  2  0
 66 65  1  0
 66 61  2  0
 67 60  1  0
 68 58  1  0
 70 72  2  0
 71 70  1  0
 73 71  1  0
 74 83  2  0
 74 79  1  0
 75 71  1  0
 75 79  1  0
 76 75  1  0
 77 78  1  0
 77 76  1  0
 78 74  1  0
 79 80  2  0
 80 81  1  0
 82 81  2  0
 83 82  1  0
 84 58  1  0
 84 85  1  0
 84 94  1  0
 85 88  1  0
 86 90  1  0
 86 85  1  0
 87 86  2  0
 90 89  1  0
 92 90  1  0
 92 93  1  0
 92 91  1  0
 94 97  1  1
 94 95  1  0
 96 94  1  0
M  ISO  4  12 100  20 100  56 101  57 101
M  END
>  <TORSDO>  (22) 
F 22

>  <SCORE>  (22) 
-12.156

>  <name>  (22) 
21

>  <ligand_id>  (22) 
21

>  <original_smiles>  (22) 
[H]c1c([H])c([H])c2c(c1[H])C([H])([H])C([H])([H])C([H])([H])C2([H])N([H])C(=O)C1([H])N(C(=O)C([H])(N([H])C(=O)C([H])(N([H])C([H])([H])[H])C([H])([H])[H])C(C([H])([H])[H])(C([H])([H])[H])C([H])([H])[H])C([H])([H])c2c([H])c(OC([H])([H])c3c([H])c([H])n(C([H])([H])C4([H])C([H])([H])C([H])([H])[N+]([H])(C([H])([H])C([H])([H])C([H])([H])N([H])C(=O)N5C([H])([H])C([H])([H])C([H])([H])C([H])(n6nc(-c7c([H])c([H])c(Oc8c([H])c([H])c(F)c([H])c8F)c([H])c7[H])c(C(=O)N([H])[H])c6N([H])[H])C5([H])[H])C([H])([H])C4([H])[H])c3C([H])([H])[H])c([H])c([H])c2C1([H])[H]

>  <smiles>  (22) 
[H]c1c([H])c([H])c2c(c1[H])C([H])([H])C([H])([H])C([H])([H])C2([H])N([H])C(=O)C1([H])N(C(=O)C([H])(N([H])C(=O)C([H])(N([H])C([H])([H])[H])C([H])([H])[H])C(C([H])([H])[H])(C([H])([H])[H])C([H])([H])[H])C([H])([H])c2c([H])c(OC([H])([H])c3c([H])c([H])n(C([H])([H])C4([H])C([H])([H])C([H])([H])[N+]([H])(C([H])([H])C([H])([H])C([H])([H])N([H])C(=O)N5C([H])([H])C([H])([H])C([H])([H])C([H])(n6nc(-c7c([H])c([H])c(Oc8c([H])c([H])c(F)c([H])c8F)c([H])c7[H])c(C(=O)N([H])[H])c6N([H])[H])C5([H])[H])C([H])([H])C4([H])[H])c3C([H])([H])[H])c([H])c([H])c2C1([H])[H]

$$$$
22:0:0
     RDKit          3D

 94102  0  0  1  0  0  0  0  0999 V2000
  -30.1640  -20.0650   22.7000 C   0  0  0  0  0  3  0  0  0  0  0  0
  -30.3090  -21.4690   22.7150 C   0  0  0  0  0  3  0  0  0  0  0  0
  -29.8460  -20.2190   20.3250 C   0  0  0  0  0  3  0  0  0  0  0  0
  -29.9240  -19.3980   21.4750 C   0  0  0  0  0  0  0  0  0  0  0  0
  -30.2190  -22.1990   21.5160 C   0  0  0  0  0  0  0  0  0  0  0  0
  -30.0070  -21.5710   20.3350 N   0  0  0  0  0  0  0  0  0  0  0  0
  -28.3290  -17.5860   20.6530 C   0  0  0  0  0  1  0  0  0  0  0  0
  -29.6240  -17.8700   21.4500 C   0  0  0  0  0  3  0  0  0  0  0  0
  -30.7540  -16.9480   21.0710 N   0  0  0  0  0  4  0  0  0  0  0  0
  -31.5710  -17.1740   21.6180 H   0  0  0  0  0  0  0  0  0  0  0  0
  -31.0180  -17.0650   20.1050 H   0  0  0  0  0  0  0  0  0  0  0  0
  -31.0360  -14.6510   20.4000 C   0  0  0  0  0  0  0  0  0  0  0  0
  -30.7500  -12.5330   19.1210 C   0  0  0  0  0  2  0  0  0  0  0  0
  -29.7880  -12.7620   17.9340 C   0  0  0  0  0  2  0  0  0  0  0  0
  -28.3150  -12.6170   18.3740 C   0  0  0  0  0  2  0  0  0  0  0  0
  -28.0010  -13.4150   19.6680 C   0  0  0  0  0  3  0  0  0  0  0  0
  -29.0590  -13.1210   20.7550 C   0  0  0  0  0  2  0  0  0  0  0  0
  -30.3860  -13.4630   20.2060 N   0  0  0  0  0  0  0  0  0  0  0  0
  -32.0590  -14.9610   19.7810 O   0  0  0  0  0  0  0  0  0  0  0  0
  -30.4490  -15.4660   21.3090 N   0  0  0  0  0  0  0  0  0  0  0  0
  -29.6130  -15.2220   21.8120 H   0  0  0  0  0  0  0  0  0  0  0  0
  -25.6140  -14.0520   20.3930 C   0  0  0  0  0  0  0  0  0  0  0  0
  -24.5410  -13.2920   20.7780 C   0  0  0  0  0  0  0  0  0  0  0  0
  -24.9830  -11.9350   20.7300 C   0  0  0  0  0  0  0  0  0  0  0  0
  -26.6450  -13.1570   20.1480 N   0  0  0  0  0  0  0  0  0  0  0  0
  -26.2680  -11.8800   20.4010 N   0  0  0  0  0  0  0  0  0  0  0  0
  -24.2420  -10.6830   20.9250 C   0  0  0  0  0  0  0  0  0  0  0  0
  -24.6440   -9.7300   21.8850 C   0  0  0  0  0  3  0  0  0  0  0  0
  -23.9040   -8.5410   22.0650 C   0  0  0  0  0  3  0  0  0  0  0  0
  -22.7500   -8.2970   21.2850 C   0  0  0  0  0  0  0  0  0  0  0  0
  -22.3670   -9.2400   20.3150 C   0  0  0  0  0  3  0  0  0  0  0  0
  -23.1060  -10.4220   20.1330 C   0  0  0  0  0  3  0  0  0  0  0  0
  -21.9870   -7.1580   21.3730 O   0  0  0  0  0  0  0  0  0  0  0  0
  -21.8390   -6.4790   22.5560 C   0  0  0  0  0  0  0  0  0  0  0  0
  -21.3200   -7.1010   23.7120 C   0  0  0  0  0  3  0  0  0  0  0  0
  -21.1200   -6.3480   24.8870 C   0  0  0  0  0  3  0  0  0  0  0  0
  -21.4300   -4.9760   24.9060 C   0  0  0  0  0  0  0  0  0  0  0  0
  -21.9400   -4.3520   23.7530 C   0  0  0  0  0  3  0  0  0  0  0  0
  -22.1430   -5.1030   22.5810 C   0  0  0  0  0  0  0  0  0  0  0  0
  -22.6150   -4.4930   21.4670 F   0  0  0  0  0  0  0  0  0  0  0  0
  -21.2300   -4.2510   26.0310 F   0  0  0  0  0  0  0  0  0  0  0  0
  -23.1550  -13.7880   21.0760 C   0  0  0  0  0  0  0  0  0  0  0  0
  -22.4380  -13.1070   21.9650 N   0  0  0  0  0  0  0  0  0  0  0  0
  -22.7180  -14.8150   20.5590 O   0  0  0  0  0  0  0  0  0  0  0  0
  -22.8050  -12.2780   22.4070 H   0  0  0  0  0  0  0  0  0  0  0  0
  -21.5080  -13.4210   22.2040 H   0  0  0  0  0  0  0  0  0  0  0  0
  -25.7900  -15.4200   20.2190 N   0  0  0  0  0  0  0  0  0  0  0  0
  -25.0210  -16.0730   20.3290 H   0  0  0  0  0  0  0  0  0  0  0  0
  -26.6270  -15.8530   19.8500 H   0  0  0  0  0  0  0  0  0  0  0  0
  -30.5060  -23.7130   21.4970 C   0  0  0  0  0  3  0  0  0  0  0  0
  -29.3560  -24.6760   21.0480 C   0  0  0  0  0  3  0  0  0  0  0  0
  -31.0790  -26.6170   21.2750 C   0  0  0  0  0  1  0  0  0  0  0  0
  -29.5930  -26.2230   21.2200 C   0  0  0  0  0  3  0  0  0  0  0  0
  -29.0530  -26.9480   20.1020 O   0  0  0  0  0  0  0  0  0  0  0  0
  -24.7570  -31.7750   23.2930 C   0  0  0  0  0  0  0  0  0  0  0  0
  -27.8460  -27.6120   20.2140 C   0  0  0  0  0  0  0  0  0  0  0  0
  -23.7340  -30.3710   21.5300 C   0  0  0  0  0  3  0  0  0  0  0  0
  -25.3620  -28.9770   20.1410 C   0  0  0  0  0  0  0  0  0  0  0  0
  -26.2400  -30.8840   21.4940 C   0  0  0  0  0  2  0  0  0  0  0  0
  -26.4490  -29.5380   20.8240 C   0  0  0  0  0  0  0  0  0  0  0  0
  -27.6950  -28.8610   20.8670 C   0  0  0  0  0  3  0  0  0  0  0  0
  -26.7440  -27.0730   19.5220 C   0  0  0  0  0  3  0  0  0  0  0  0
  -25.5040  -27.7400   19.4860 C   0  0  0  0  0  3  0  0  0  0  0  0
  -24.0640  -29.7560   20.1430 C   0  0  0  0  0  2  0  0  0  0  0  0
  -24.9230  -31.0230   22.1650 N   0  0  0  0  0  0  0  0  0  0  0  0
  -23.6340  -31.9630   23.7800 O   0  0  0  0  0  0  0  0  0  0  0  0
  -23.0900  -29.2790   22.4160 C   0  0  0  0  0  0  0  0  0  0  0  0
  -21.7780  -29.0520   22.2360 N   0  0  0  0  0  0  0  0  0  0  0  0
  -23.7720  -28.6370   23.2190 O   0  0  0  0  0  0  0  0  0  0  0  0
  -21.2860  -29.6280   21.5660 H   0  0  0  0  0  0  0  0  0  0  0  0
  -18.4310  -27.7420   22.5980 C   0  0  0  0  0  0  0  0  0  0  0  0
  -20.9760  -28.0410   22.9250 C   0  0  0  0  0  3  0  0  0  0  0  0
  -21.1210  -26.6580   22.2490 C   0  0  0  0  0  2  0  0  0  0  0  0
  -20.0410  -26.3850   21.1980 C   0  0  0  0  0  2  0  0  0  0  0  0
  -18.6490  -26.4500   21.8310 C   0  0  0  0  0  2  0  0  0  0  0  0
  -19.5230  -28.4980   23.0980 C   0  0  0  0  0  0  0  0  0  0  0  0
  -19.2650  -29.7120   23.7720 C   0  0  0  0  0  3  0  0  0  0  0  0
  -17.9460  -30.1690   23.9520 C   0  0  0  0  0  3  0  0  0  0  0  0
  -16.8670  -29.4090   23.4690 C   0  0  0  0  0  3  0  0  0  0  0  0
  -17.1100  -28.1980   22.7970 C   0  0  0  0  0  3  0  0  0  0  0  0
  -25.9660  -32.4490   24.0110 C   0  0  0  0  0  3  0  0  0  0  0  0
  -25.5840  -33.8340   24.3220 N   0  0  0  0  0  0  0  0  0  0  0  0
  -25.9250  -34.8970   23.5830 C   0  0  0  0  0  0  0  0  0  0  0  0
  -26.6640  -34.8220   22.5990 O   0  0  0  0  0  0  0  0  0  0  0  0
  -24.9330  -33.9660   25.0820 H   0  0  0  0  0  0  0  0  0  0  0  0
  -24.1430  -36.6070   23.1270 C   0  0  0  0  0  1  0  0  0  0  0  0
  -25.3540  -36.2640   24.0080 C   0  0  0  0  0  3  0  0  0  0  0  0
  -27.4000  -37.2420   24.9480 C   0  0  0  0  0  1  0  0  0  0  0  0
  -26.3450  -37.3600   23.9440 N   0  0  0  0  0  0  0  0  0  0  0  0
  -25.8930  -38.2620   24.0630 H   0  0  0  0  0  0  0  0  0  0  0  0
  -26.4180  -31.6910   25.3210 C   0  0  1  0  0  0  0  0  0  0  0  0
  -25.2600  -31.4050   26.3050 C   0  0  0  0  0  1  0  0  0  0  0  0
  -27.0800  -30.3420   24.9610 C   0  0  0  0  0  1  0  0  0  0  0  0
  -27.4830  -32.5230   26.0700 C   0  0  0  0  0  1  0  0  0  0  0  0
  1  2  1  0
  3  6  2  0
  3  4  1  0
  4  1  2  0
  5  2  2  0
  6  5  1  0
  8  7  1  0
  8  4  1  0
  9 20  1  0
  9  8  1  0
  9 10  1  0
 11  9  1  0
 12 20  1  0
 13 18  1  0
 14 15  1  0
 14 13  1  0
 16 15  1  0
 16 25  1  0
 16 17  1  0
 18 12  1  0
 18 17  1  0
 19 12  2  0
 20 21  1  0
 22 23  2  0
 23 42  1  0
 24 23  1  0
 24 27  1  0
 25 22  1  0
 25 26  1  0
 26 24  2  0
 27 28  1  0
 28 29  2  0
 30 33  1  0
 30 29  1  0
 31 30  2  0
 32 31  1  0
 32 27  2  0
 33 34  1  0
 34 39  2  0
 34 35  1  0
 35 36  2  0
 36 37  1  0
 37 41  1  0
 38 37  2  0
 39 38  1  0
 40 39  1  0
 42 43  1  0
 43 46  1  0
 43 45  1  0
 44 42  2  0
 47 48  1  0
 47 22  1  0
 49 47  1  0
 50  5  1  0
 51 53  1  0
 51 50  2  0
 53 52  1  0
 54 56  1  0
 54 53  1  0
 55 66  2  0
 56 61  1  0
 57 65  1  0
 57 67  1  0
 58 64  1  0
 58 60  1  0
 59 65  1  0
 60 61  2  0
 60 59  1  0
 62 56  2  0
 63 62  1  0
 63 58  2  0
 64 57  1  0
 65 55  1  0
 67 69  2  0
 68 67  1  0
 70 68  1  0
 71 80  2  0
 71 76  1  0
 72 68  1  0
 72 76  1  0
 73 72  1  0
 74 75  1  0
 74 73  1  0
 75 71  1  0
 76 77  2  0
 77 78  1  0
 79 78  2  0
 80 79  1  0
 81 55  1  0
 81 82  1  0
 81 91  1  0
 82 85  1  0
 83 87  1  0
 83 82  1  0
 84 83  2  0
 87 86  1  0
 89 87  1  0
 89 90  1  0
 89 88  1  0
 91 94  1  1
 91 92  1  0
 93 91  1  0
M  ISO  4  12 100  20 100  53 101  54 101
M  END
>  <TORSDO>  (23) 
F 21

>  <SCORE>  (23) 
-12.329

>  <name>  (23) 
22

>  <ligand_id>  (23) 
22

>  <original_smiles>  (23) 
[H]c1nc(C([H])([H])C([H])([H])C([H])(Oc2c([H])c([H])c3c(c2[H])C([H])([H])N(C(=O)C([H])(N([H])C(=O)C([H])(N([H])C([H])([H])[H])C([H])([H])[H])C(C([H])([H])[H])(C([H])([H])[H])C([H])([H])[H])C([H])(C(=O)N([H])C2([H])c4c([H])c([H])c([H])c([H])c4C([H])([H])C([H])([H])C2([H])[H])C3([H])[H])C([H])([H])[H])c([H])c([H])c1C([H])(C([H])([H])[H])[N+]([H])([H])N([H])C(=O)N1C([H])([H])C([H])([H])C([H])([H])C([H])(n2nc(-c3c([H])c([H])c(Oc4c([H])c([H])c(F)c([H])c4F)c([H])c3[H])c(C(=O)N([H])[H])c2N([H])[H])C1([H])[H]

>  <smiles>  (23) 
[H]c1nc(C([H])([H])C([H])([H])C([H])(Oc2c([H])c([H])c3c(c2[H])C([H])([H])N(C(=O)C([H])(N([H])C(=O)C([H])(N([H])C([H])([H])[H])C([H])([H])[H])C(C([H])([H])[H])(C([H])([H])[H])C([H])([H])[H])C([H])(C(=O)N([H])C2([H])c4c([H])c([H])c([H])c([H])c4C([H])([H])C([H])([H])C2([H])[H])C3([H])[H])C([H])([H])[H])c([H])c([H])c1C([H])(C([H])([H])[H])[N+]([H])([H])N([H])C(=O)N1C([H])([H])C([H])([H])C([H])([H])C([H])(n2nc(-c3c([H])c([H])c(Oc4c([H])c([H])c(F)c([H])c4F)c([H])c3[H])c(C(=O)N([H])[H])c2N([H])[H])C1([H])[H]

$$$$
23:0:0
     RDKit          3D

 97106  0  0  1  0  0  0  0  0999 V2000
  -26.6220  -22.2900   20.7540 C   0  0  0  0  0  2  0  0  0  0  0  0
  -27.3030  -21.4820   21.8580 C   0  0  0  0  0  2  0  0  0  0  0  0
  -29.0300  -22.2880   20.5770 C   0  0  0  0  0  2  0  0  0  0  0  0
  -27.7720  -23.0170   20.0450 C   0  0  0  0  0  3  0  0  0  0  0  0
  -28.5440  -21.0650   21.2190 N   0  0  0  0  0  0  0  0  0  0  0  0
  -27.7600  -24.4750   20.3400 N   0  0  0  0  0  4  0  0  0  0  0  0
  -27.7090  -24.5890   21.3410 H   0  0  0  0  0  0  0  0  0  0  0  0
  -26.9220  -24.8890   19.9620 H   0  0  0  0  0  0  0  0  0  0  0  0
  -28.9450  -25.2320   19.8630 C   0  0  0  0  0  2  0  0  0  0  0  0
  -28.0210  -25.6400   17.4330 C   0  0  0  0  0  1  0  0  0  0  0  0
  -28.6830  -26.2130   18.6970 C   0  0  0  0  0  3  0  0  0  0  0  0
  -28.3340  -27.5340   19.1380 O   0  0  0  0  0  0  0  0  0  0  0  0
  -24.4700  -31.9530   23.1080 C   0  0  0  0  0  0  0  0  0  0  0  0
  -27.0660  -28.0470   19.3310 C   0  0  0  0  0  0  0  0  0  0  0  0
  -23.1920  -30.6590   21.4270 C   0  0  0  0  0  3  0  0  0  0  0  0
  -24.5890  -29.3660   19.7320 C   0  0  0  0  0  0  0  0  0  0  0  0
  -25.6620  -31.2000   21.0500 C   0  0  0  0  0  2  0  0  0  0  0  0
  -25.7620  -29.9080   20.2660 C   0  0  0  0  0  0  0  0  0  0  0  0
  -26.9950  -29.2550   20.0640 C   0  0  0  0  0  3  0  0  0  0  0  0
  -25.8660  -27.5030   18.8160 C   0  0  0  0  0  3  0  0  0  0  0  0
  -24.6350  -28.1590   19.0120 C   0  0  0  0  0  3  0  0  0  0  0  0
  -23.3110  -30.1370   19.9700 C   0  0  0  0  0  2  0  0  0  0  0  0
  -24.4640  -31.2830   21.9190 N   0  0  0  0  0  0  0  0  0  0  0  0
  -23.4330  -32.0960   23.7680 O   0  0  0  0  0  0  0  0  0  0  0  0
  -22.6920  -29.5030   22.3240 C   0  0  0  0  0  0  0  0  0  0  0  0
  -21.3890  -29.1940   22.2280 N   0  0  0  0  0  0  0  0  0  0  0  0
  -23.4720  -28.8880   23.0580 O   0  0  0  0  0  0  0  0  0  0  0  0
  -20.8180  -29.7500   21.6070 H   0  0  0  0  0  0  0  0  0  0  0  0
  -18.1990  -27.5460   22.6450 C   0  0  0  0  0  0  0  0  0  0  0  0
  -20.7030  -28.1170   22.9430 C   0  0  0  0  0  3  0  0  0  0  0  0
  -20.9890  -26.7460   22.2910 C   0  0  0  0  0  2  0  0  0  0  0  0
  -19.9360  -26.3380   21.2550 C   0  0  0  0  0  2  0  0  0  0  0  0
  -18.5480  -26.2700   21.8990 C   0  0  0  0  0  2  0  0  0  0  0  0
  -19.2120  -28.4230   23.1200 C   0  0  0  0  0  0  0  0  0  0  0  0
  -18.8320  -29.6130   23.7760 C   0  0  0  0  0  3  0  0  0  0  0  0
  -17.4740  -29.9340   23.9590 C   0  0  0  0  0  3  0  0  0  0  0  0
  -16.4770  -29.0570   23.4970 C   0  0  0  0  0  3  0  0  0  0  0  0
  -16.8400  -27.8640   22.8480 C   0  0  0  0  0  3  0  0  0  0  0  0
  -25.7760  -32.5920   23.6790 C   0  0  0  0  0  3  0  0  0  0  0  0
  -26.3970  -31.7690   24.8740 C   0  0  1  0  0  0  0  0  0  0  0  0
  -25.3880  -31.4450   26.0000 C   0  0  0  0  0  1  0  0  0  0  0  0
  -26.9880  -30.4340   24.3670 C   0  0  0  0  0  1  0  0  0  0  0  0
  -27.5720  -32.5590   25.4970 C   0  0  0  0  0  1  0  0  0  0  0  0
  -25.4480  -33.9580   24.1040 N   0  0  0  0  0  0  0  0  0  0  0  0
  -25.7440  -35.0620   23.4050 C   0  0  0  0  0  0  0  0  0  0  0  0
  -26.3940  -35.0360   22.3570 O   0  0  0  0  0  0  0  0  0  0  0  0
  -24.8740  -34.0490   24.9290 H   0  0  0  0  0  0  0  0  0  0  0  0
  -23.9840  -36.8440   23.1760 C   0  0  0  0  0  1  0  0  0  0  0  0
  -25.2350  -36.4080   23.9560 C   0  0  0  0  0  3  0  0  0  0  0  0
  -27.3630  -37.2680   24.8290 C   0  0  0  0  0  1  0  0  0  0  0  0
  -26.2490  -37.4840   23.9100 N   0  0  0  0  0  0  0  0  0  0  0  0
  -25.8300  -38.3830   24.1250 H   0  0  0  0  0  0  0  0  0  0  0  0
  -29.4830  -20.4800   22.1840 C   0  0  0  0  0  2  0  0  0  0  0  0
  -31.7150  -15.2290   19.7060 C   0  0  0  0  0  0  0  0  0  0  0  0
  -31.2770  -13.0530   18.6090 C   0  0  0  0  0  2  0  0  0  0  0  0
  -30.1600  -13.2050   17.5570 C   0  0  0  0  0  2  0  0  0  0  0  0
  -28.7680  -13.0650   18.2030 C   0  0  0  0  0  2  0  0  0  0  0  0
  -28.6090  -13.9440   19.4710 C   0  0  0  0  0  3  0  0  0  0  0  0
  -29.8090  -13.7370   20.4200 C   0  0  0  0  0  2  0  0  0  0  0  0
  -31.0430  -14.0450   19.6710 N   0  0  0  0  0  0  0  0  0  0  0  0
  -32.6780  -15.4640   18.9650 O   0  0  0  0  0  0  0  0  0  0  0  0
  -31.8180  -20.2270   21.1940 C   0  0  0  0  0  3  0  0  0  0  0  0
  -30.4230  -18.2610   21.3270 C   0  0  0  0  0  3  0  0  0  0  0  0
  -32.8090  -19.4120   20.6280 C   0  0  0  0  0  3  0  0  0  0  0  0
  -30.5930  -19.6430   21.5550 C   0  0  0  0  0  0  0  0  0  0  0  0
  -31.4670  -17.5040   20.7450 C   0  0  0  0  0  0  0  0  0  0  0  0
  -32.6400  -18.0900   20.4130 N   0  0  0  0  0  0  0  0  0  0  0  0
  -31.2040  -16.1200   20.5790 N   0  0  0  0  0  0  0  0  0  0  0  0
  -30.4230  -15.7660   21.1070 H   0  0  0  0  0  0  0  0  0  0  0  0
  -26.4870  -14.5680   20.7920 C   0  0  0  0  0  0  0  0  0  0  0  0
  -25.4090  -13.8260   21.1930 C   0  0  0  0  0  0  0  0  0  0  0  0
  -25.6630  -12.4910   20.7520 C   0  0  0  0  0  0  0  0  0  0  0  0
  -27.3380  -13.6840   20.1460 N   0  0  0  0  0  0  0  0  0  0  0  0
  -26.8540  -12.4160   20.1730 N   0  0  0  0  0  0  0  0  0  0  0  0
  -24.8170  -11.2910   20.7960 C   0  0  0  0  0  0  0  0  0  0  0  0
  -25.1790  -10.1600   21.5600 C   0  0  0  0  0  3  0  0  0  0  0  0
  -24.3400   -9.0260   21.6010 C   0  0  0  0  0  3  0  0  0  0  0  0
  -23.1250   -9.0160   20.8760 C   0  0  0  0  0  0  0  0  0  0  0  0
  -22.7790  -10.1360   20.0990 C   0  0  0  0  0  3  0  0  0  0  0  0
  -23.6180  -11.2620   20.0560 C   0  0  0  0  0  3  0  0  0  0  0  0
  -22.2600   -7.9490   20.8350 O   0  0  0  0  0  0  0  0  0  0  0  0
  -22.0260   -7.1690   21.9390 C   0  0  0  0  0  0  0  0  0  0  0  0
  -21.5400   -7.7130   23.1470 C   0  0  0  0  0  3  0  0  0  0  0  0
  -21.2490   -6.8640   24.2350 C   0  0  0  0  0  3  0  0  0  0  0  0
  -21.4370   -5.4750   24.1120 C   0  0  0  0  0  0  0  0  0  0  0  0
  -21.9170   -4.9300   22.9080 C   0  0  0  0  0  3  0  0  0  0  0  0
  -22.2090   -5.7760   21.8240 C   0  0  0  0  0  0  0  0  0  0  0  0
  -22.6510   -5.2450   20.6590 F   0  0  0  0  0  0  0  0  0  0  0  0
  -21.1500   -4.6580   25.1530 F   0  0  0  0  0  0  0  0  0  0  0  0
  -24.1680  -14.3400   21.8650 C   0  0  0  0  0  0  0  0  0  0  0  0
  -23.5550  -13.5310   22.7230 N   0  0  0  0  0  0  0  0  0  0  0  0
  -23.7610  -15.4830   21.6680 O   0  0  0  0  0  0  0  0  0  0  0  0
  -23.9020  -12.6000   22.9010 H   0  0  0  0  0  0  0  0  0  0  0  0
  -22.7300  -13.8480   23.2110 H   0  0  0  0  0  0  0  0  0  0  0  0
  -26.8080  -15.9170   20.9070 N   0  0  0  0  0  0  0  0  0  0  0  0
  -26.1750  -16.5900   21.3270 H   0  0  0  0  0  0  0  0  0  0  0  0
  -27.6370  -16.3450   20.5120 H   0  0  0  0  0  0  0  0  0  0  0  0
  1  2  1  0
  3  5  1  0
  4  6  1  0
  4  3  1  0
  4  1  1  0
  5  2  1  0
  5 53  1  0
  6  7  1  0
  8  6  1  0
  9  6  1  0
 11 10  1  0
 11 12  1  0
 11  9  1  0
 12 14  1  0
 13 24  2  0
 14 19  1  0
 15 23  1  0
 15 25  1  0
 16 22  1  0
 16 18  1  0
 17 23  1  0
 18 17  1  0
 19 18  2  0
 20 21  1  0
 20 14  2  0
 21 16  2  0
 22 15  1  0
 23 13  1  0
 25 27  2  0
 26 25  1  0
 28 26  1  0
 29 38  2  0
 29 34  1  0
 30 26  1  0
 30 34  1  0
 31 30  1  0
 32 33  1  0
 32 31  1  0
 33 29  1  0
 34 35  2  0
 35 36  1  0
 37 36  2  0
 38 37  1  0
 39 13  1  0
 39 44  1  0
 39 40  1  0
 40 43  1  1
 40 41  1  0
 42 40  1  0
 44 47  1  0
 45 49  1  0
 45 44  1  0
 46 45  2  0
 49 48  1  0
 51 49  1  0
 51 52  1  0
 51 50  1  0
 54 68  1  0
 55 60  1  0
 56 57  1  0
 56 55  1  0
 58 57  1  0
 58 73  1  0
 58 59  1  0
 60 54  1  0
 60 59  1  0
 61 54  2  0
 62 65  1  0
 63 65  2  0
 64 62  2  0
 65 53  1  0
 66 63  1  0
 67 64  1  0
 67 66  2  0
 68 66  1  0
 68 69  1  0
 70 95  1  0
 70 71  2  0
 71 90  1  0
 72 75  1  0
 72 71  1  0
 73 74  1  0
 73 70  1  0
 74 72  2  0
 75 76  1  0
 76 77  2  0
 78 77  1  0
 79 78  2  0
 80 79  1  0
 80 75  2  0
 81 78  1  0
 81 82  1  0
 82 83  1  0
 83 84  2  0
 85 84  1  0
 85 89  1  0
 86 85  2  0
 87 82  2  0
 87 86  1  0
 88 87  1  0
 90 91  1  0
 91 93  1  0
 91 94  1  0
 92 90  2  0
 95 96  1  0
 97 95  1  0
M  ISO  4  11 101  12 101  54 100  68 100
M  END
>  <TORSDO>  (24) 
F 20

>  <SCORE>  (24) 
-6.850

>  <name>  (24) 
23

>  <ligand_id>  (24) 
23

>  <original_smiles>  (24) 
[H]c1nc(N([H])C(=O)N2C([H])([H])C([H])([H])C([H])([H])C([H])(n3nc(-c4c([H])c([H])c(Oc5c([H])c([H])c(F)c([H])c5F)c([H])c4[H])c(C(=O)N([H])[H])c3N([H])[H])C2([H])[H])c([H])c(C([H])([H])N2C([H])([H])C([H])([H])C([H])([N+]([H])([H])C([H])([H])C([H])(Oc3c([H])c([H])c4c(c3[H])C([H])([H])N(C(=O)C([H])(N([H])C(=O)C([H])(N([H])C([H])([H])[H])C([H])([H])[H])C(C([H])([H])[H])(C([H])([H])[H])C([H])([H])[H])C([H])(C(=O)N([H])C3([H])c5c([H])c([H])c([H])c([H])c5C([H])([H])C([H])([H])C3([H])[H])C4([H])[H])C([H])([H])[H])C2([H])[H])c1[H]

>  <smiles>  (24) 
[H]c1nc(N([H])C(=O)N2C([H])([H])C([H])([H])C([H])([H])C([H])(n3nc(-c4c([H])c([H])c(Oc5c([H])c([H])c(F)c([H])c5F)c([H])c4[H])c(C(=O)N([H])[H])c3N([H])[H])C2([H])[H])c([H])c(C([H])([H])N2C([H])([H])C([H])([H])C([H])([N+]([H])([H])C([H])([H])C([H])(Oc3c([H])c([H])c4c(c3[H])C([H])([H])N(C(=O)C([H])(N([H])C(=O)C([H])(N([H])C([H])([H])[H])C([H])([H])[H])C(C([H])([H])[H])(C([H])([H])[H])C([H])([H])[H])C([H])(C(=O)N([H])C3([H])c5c([H])c([H])c([H])c([H])c5C([H])([H])C([H])([H])C3([H])[H])C4([H])[H])C([H])([H])[H])C2([H])[H])c1[H]

$$$$
24:0:0
     RDKit          3D

 97106  0  0  1  0  0  0  0  0999 V2000
  -29.2970  -20.5960   21.7140 C   0  0  0  0  0  3  0  0  0  0  0  0
  -28.5670  -21.7480   22.0630 C   0  0  0  0  0  3  0  0  0  0  0  0
  -29.8700  -20.5060   20.4260 C   0  0  0  0  0  0  0  0  0  0  0  0
  -28.4300  -22.7860   21.1250 C   0  0  0  0  0  0  0  0  0  0  0  0
  -29.6410  -21.5910   19.5360 C   0  0  0  0  0  0  0  0  0  0  0  0
  -30.1580  -21.6060   18.1070 C   0  0  0  0  0  1  0  0  0  0  0  0
  -28.9650  -22.7050   19.8910 N   0  0  0  0  0  0  0  0  0  0  0  0
  -32.6700  -17.1050   20.3150 C   0  0  0  0  0  2  0  0  0  0  0  0
  -30.2730  -17.9030   20.5350 C   0  0  0  0  0  2  0  0  0  0  0  0
  -33.0850  -18.5160   19.8590 C   0  0  0  0  0  2  0  0  0  0  0  0
  -30.7410  -19.3020   20.0230 C   0  0  0  0  0  3  0  0  0  0  0  0
  -31.1950  -16.8060   19.9450 C   0  0  0  0  0  3  0  0  0  0  0  0
  -32.1580  -19.5390   20.3930 N   0  0  0  0  0  4  0  0  0  0  0  0
  -32.4570  -20.4350   20.0400 H   0  0  0  0  0  0  0  0  0  0  0  0
  -32.2510  -19.5740   21.3960 H   0  0  0  0  0  0  0  0  0  0  0  0
  -30.8880  -14.4480   19.2570 C   0  0  0  0  0  0  0  0  0  0  0  0
  -30.4670  -12.1430   18.4830 C   0  0  0  0  0  2  0  0  0  0  0  0
  -29.3900  -12.0510   17.3880 C   0  0  0  0  0  2  0  0  0  0  0  0
  -28.0020  -11.8870   18.0270 C   0  0  0  0  0  2  0  0  0  0  0  0
  -27.7310  -12.9590   19.1090 C   0  0  0  0  0  3  0  0  0  0  0  0
  -28.9070  -13.0890   20.0980 C   0  0  0  0  0  2  0  0  0  0  0  0
  -30.1720  -13.2910   19.3630 N   0  0  0  0  0  0  0  0  0  0  0  0
  -31.6580  -14.6310   18.3060 O   0  0  0  0  0  0  0  0  0  0  0  0
  -30.8130  -15.0360   21.6580 C   0  0  0  0  0  1  0  0  0  0  0  0
  -30.7660  -15.4030   20.2290 N   0  0  0  0  0  0  0  0  0  0  0  0
  -25.5310  -13.6010   20.2820 C   0  0  0  0  0  0  0  0  0  0  0  0
  -24.5160  -12.8460   20.8040 C   0  0  0  0  0  0  0  0  0  0  0  0
  -24.9060  -11.4830   20.6240 C   0  0  0  0  0  0  0  0  0  0  0  0
  -26.4760  -12.7010   19.8150 N   0  0  0  0  0  0  0  0  0  0  0  0
  -26.1150  -11.4180   20.0790 N   0  0  0  0  0  0  0  0  0  0  0  0
  -24.1740  -10.2360   20.8850 C   0  0  0  0  0  0  0  0  0  0  0  0
  -24.6100   -9.3130   21.8620 C   0  0  0  0  0  3  0  0  0  0  0  0
  -23.8780   -8.1300   22.1060 C   0  0  0  0  0  3  0  0  0  0  0  0
  -22.6990   -7.8610   21.3720 C   0  0  0  0  0  0  0  0  0  0  0  0
  -22.2830   -8.7710   20.3850 C   0  0  0  0  0  3  0  0  0  0  0  0
  -23.0140   -9.9450   20.1400 C   0  0  0  0  0  3  0  0  0  0  0  0
  -21.9390   -6.7260   21.5220 O   0  0  0  0  0  0  0  0  0  0  0  0
  -21.7610   -6.1360   22.7480 C   0  0  0  0  0  0  0  0  0  0  0  0
  -21.1790   -6.8310   23.8320 C   0  0  0  0  0  3  0  0  0  0  0  0
  -20.9500   -6.1660   25.0530 C   0  0  0  0  0  3  0  0  0  0  0  0
  -21.2920   -4.8070   25.1900 C   0  0  0  0  0  0  0  0  0  0  0  0
  -21.8660   -4.1130   24.1100 C   0  0  0  0  0  3  0  0  0  0  0  0
  -22.0960   -4.7750   22.8920 C   0  0  0  0  0  0  0  0  0  0  0  0
  -22.6300   -4.0960   21.8480 F   0  0  0  0  0  0  0  0  0  0  0  0
  -21.0660   -4.1650   26.3600 F   0  0  0  0  0  0  0  0  0  0  0  0
  -23.2130  -13.3510   21.3520 C   0  0  0  0  0  0  0  0  0  0  0  0
  -22.6490  -12.6560   22.3340 N   0  0  0  0  0  0  0  0  0  0  0  0
  -22.7120  -14.3970   20.9430 O   0  0  0  0  0  0  0  0  0  0  0  0
  -23.0710  -11.8080   22.6820 H   0  0  0  0  0  0  0  0  0  0  0  0
  -21.7830  -12.9760   22.7420 H   0  0  0  0  0  0  0  0  0  0  0  0
  -25.7220  -14.9720   20.1440 N   0  0  0  0  0  0  0  0  0  0  0  0
  -25.0240  -15.6520   20.4270 H   0  0  0  0  0  0  0  0  0  0  0  0
  -26.5270  -15.3930   19.6980 H   0  0  0  0  0  0  0  0  0  0  0  0
  -27.7730  -24.1030   21.5190 C   0  0  0  0  0  2  0  0  0  0  0  0
  -27.1620  -24.9240   20.3620 C   0  0  0  0  0  2  0  0  0  0  0  0
  -28.1650  -25.8990   19.6970 C   0  0  0  0  0  2  0  0  0  0  0  0
  -27.6110  -26.6420   18.6050 O   0  0  0  0  0  0  0  0  0  0  0  0
  -24.9110  -31.3510   23.2220 C   0  0  0  0  0  0  0  0  0  0  0  0
  -26.5760  -27.4750   18.9500 C   0  0  0  0  0  0  0  0  0  0  0  0
  -23.3390  -30.4450   21.5390 C   0  0  0  0  0  3  0  0  0  0  0  0
  -24.4010  -29.1350   19.6270 C   0  0  0  0  0  0  0  0  0  0  0  0
  -25.8390  -30.6210   21.0310 C   0  0  0  0  0  2  0  0  0  0  0  0
  -25.6790  -29.4160   20.1300 C   0  0  0  0  0  0  0  0  0  0  0  0
  -26.7730  -28.5860   19.7990 C   0  0  0  0  0  3  0  0  0  0  0  0
  -25.2940  -27.2180   18.4290 C   0  0  0  0  0  3  0  0  0  0  0  0
  -24.2000  -28.0330   18.7770 C   0  0  0  0  0  3  0  0  0  0  0  0
  -23.2830  -30.0670   20.0340 C   0  0  0  0  0  2  0  0  0  0  0  0
  -24.7230  -30.8060   21.9870 N   0  0  0  0  0  0  0  0  0  0  0  0
  -23.9510  -31.5930   23.9680 O   0  0  0  0  0  0  0  0  0  0  0  0
  -22.7080  -29.3020   22.3650 C   0  0  0  0  0  0  0  0  0  0  0  0
  -21.3780  -29.1550   22.2600 N   0  0  0  0  0  0  0  0  0  0  0  0
  -23.4100  -28.5580   23.0560 O   0  0  0  0  0  0  0  0  0  0  0  0
  -20.8760  -29.8110   21.6770 H   0  0  0  0  0  0  0  0  0  0  0  0
  -18.0300  -27.8320   22.5570 C   0  0  0  0  0  0  0  0  0  0  0  0
  -20.5710  -28.1270   22.9160 C   0  0  0  0  0  3  0  0  0  0  0  0
  -20.7280  -26.7620   22.2070 C   0  0  0  0  0  2  0  0  0  0  0  0
  -19.6590  -26.5110   21.1400 C   0  0  0  0  0  2  0  0  0  0  0  0
  -18.2590  -26.5570   21.7610 C   0  0  0  0  0  2  0  0  0  0  0  0
  -19.1160  -28.5760   23.0860 C   0  0  0  0  0  0  0  0  0  0  0  0
  -18.8500  -29.7700   23.7910 C   0  0  0  0  0  3  0  0  0  0  0  0
  -17.5300  -30.2190   23.9730 C   0  0  0  0  0  3  0  0  0  0  0  0
  -16.4550  -29.4710   23.4600 C   0  0  0  0  0  3  0  0  0  0  0  0
  -16.7070  -28.2790   22.7560 C   0  0  0  0  0  3  0  0  0  0  0  0
  -26.3340  -31.7180   23.7480 C   0  0  0  0  0  3  0  0  0  0  0  0
  -26.9070  -30.6700   24.7770 C   0  0  1  0  0  0  0  0  0  0  0  0
  -25.9140  -30.3040   25.9040 C   0  0  0  0  0  1  0  0  0  0  0  0
  -27.3070  -29.3610   24.0580 C   0  0  0  0  0  1  0  0  0  0  0  0
  -28.1930  -31.2280   25.4310 C   0  0  0  0  0  1  0  0  0  0  0  0
  -26.2480  -33.0540   24.3520 N   0  0  0  0  0  0  0  0  0  0  0  0
  -26.6690  -34.1820   23.7640 C   0  0  0  0  0  0  0  0  0  0  0  0
  -27.2400  -34.1960   22.6700 O   0  0  0  0  0  0  0  0  0  0  0  0
  -25.7350  -33.1260   25.2190 H   0  0  0  0  0  0  0  0  0  0  0  0
  -25.2050  -36.2240   23.8920 C   0  0  0  0  0  1  0  0  0  0  0  0
  -26.4160  -35.5070   24.5090 C   0  0  0  0  0  3  0  0  0  0  0  0
  -28.7020  -35.9180   25.3100 C   0  0  0  0  0  1  0  0  0  0  0  0
  -27.5850  -36.4140   24.5090 N   0  0  0  0  0  0  0  0  0  0  0  0
  -27.3280  -37.3320   24.8580 H   0  0  0  0  0  0  0  0  0  0  0  0
  1  2  1  0
  3  1  2  0
  4 54  1  0
  4  2  2  0
  5  7  2  0
  5  3  1  0
  6  5  1  0
  7  4  1  0
 10  8  1  0
 10 13  1  0
 11 13  1  0
 11  3  1  0
 11  9  1  0
 12 25  1  0
 12  8  1  0
 12  9  1  0
 13 15  1  0
 14 13  1  0
 16 22  1  0
 16 25  1  0
 17 22  1  0
 18 19  1  0
 18 17  1  0
 20 19  1  0
 20 29  1  0
 20 21  1  0
 22 21  1  0
 23 16  2  0
 25 24  1  0
 26 27  2  0
 27 46  1  0
 28 27  1  0
 28 31  1  0
 29 30  1  0
 29 26  1  0
 30 28  2  0
 31 32  1  0
 32 33  2  0
 34 37  1  0
 34 33  1  0
 35 34  2  0
 36 35  1  0
 36 31  2  0
 37 38  1  0
 38 43  2  0
 38 39  1  0
 39 40  2  0
 40 41  1  0
 41 45  1  0
 42 41  2  0
 43 42  1  0
 44 43  1  0
 46 47  1  0
 47 49  1  0
 47 50  1  0
 48 46  2  0
 51 26  1  0
 51 52  1  0
 53 51  1  0
 55 54  1  0
 56 55  1  0
 57 59  1  0
 57 56  1  0
 58 69  2  0
 59 64  1  0
 60 68  1  0
 60 70  1  0
 61 67  1  0
 61 63  1  0
 62 68  1  0
 63 62  1  0
 64 63  2  0
 65 66  1  0
 65 59  2  0
 66 61  2  0
 67 60  1  0
 68 58  1  0
 70 72  2  0
 71 70  1  0
 73 71  1  0
 74 83  2  0
 74 79  1  0
 75 71  1  0
 75 79  1  0
 76 75  1  0
 77 78  1  0
 77 76  1  0
 78 74  1  0
 79 80  2  0
 80 81  1  0
 82 81  2  0
 83 82  1  0
 84 58  1  0
 84 89  1  0
 84 85  1  0
 85 88  1  1
 85 86  1  0
 87 85  1  0
 89 92  1  0
 90 89  1  0
 90 94  1  0
 91 90  2  0
 94 93  1  0
 94 96  1  0
 96 97  1  0
 96 95  1  0
M  ISO  4  16 100  25 100  56 101  57 101
M  END
>  <TORSDO>  (25) 
F 20

>  <SCORE>  (25) 
-11.074

>  <name>  (25) 
24

>  <ligand_id>  (25) 
24

>  <original_smiles>  (25) 
[H]c1c(C([H])([H])C([H])([H])C([H])([H])Oc2c([H])c([H])c3c(c2[H])C([H])([H])N(C(=O)C([H])(N([H])C(=O)C([H])(N([H])C([H])([H])[H])C([H])([H])[H])C(C([H])([H])[H])(C([H])([H])[H])C([H])([H])[H])C([H])(C(=O)N([H])C2([H])c4c([H])c([H])c([H])c([H])c4C([H])([H])C([H])([H])C2([H])[H])C3([H])[H])nc(C([H])([H])[H])c(C2([H])C([H])([H])C([H])(N(C(=O)N3C([H])([H])C([H])([H])C([H])([H])C([H])(n4nc(-c5c([H])c([H])c(Oc6c([H])c([H])c(F)c([H])c6F)c([H])c5[H])c(C(=O)N([H])[H])c4N([H])[H])C3([H])[H])C([H])([H])[H])C([H])([H])C([H])([H])[N+]2([H])[H])c1[H]

>  <smiles>  (25) 
[H]c1c(C([H])([H])C([H])([H])C([H])([H])Oc2c([H])c([H])c3c(c2[H])C([H])([H])N(C(=O)C([H])(N([H])C(=O)C([H])(N([H])C([H])([H])[H])C([H])([H])[H])C(C([H])([H])[H])(C([H])([H])[H])C([H])([H])[H])C([H])(C(=O)N([H])C2([H])c4c([H])c([H])c([H])c([H])c4C([H])([H])C([H])([H])C2([H])[H])C3([H])[H])nc(C([H])([H])[H])c(C2([H])C([H])([H])C([H])(N(C(=O)N3C([H])([H])C([H])([H])C([H])([H])C([H])(n4nc(-c5c([H])c([H])c(Oc6c([H])c([H])c(F)c([H])c6F)c([H])c5[H])c(C(=O)N([H])[H])c4N([H])[H])C3([H])[H])C([H])([H])[H])C([H])([H])C([H])([H])[N+]2([H])[H])c1[H]

$$$$
25:0:0
     RDKit          3D

106116  0  0  1  0  0  0  0  0999 V2000
  -30.6400  -20.4020   22.2860 C   0  0  0  0  0  3  0  0  0  0  0  0
  -31.2910  -19.9330   19.7490 C   0  0  0  0  0  2  0  0  0  0  0  0
  -32.8270  -20.0090   19.8590 C   0  0  0  0  0  2  0  0  0  0  0  0
  -32.8200  -17.9960   21.3120 C   0  0  0  0  0  2  0  0  0  0  0  0
  -30.6330  -19.3750   21.0460 C   0  0  0  0  0  3  0  0  0  0  0  0
  -31.2680  -17.9320   21.2450 C   0  0  0  0  0  3  0  0  0  0  0  0
  -33.4090  -18.6770   20.1340 N   0  0  0  0  0  4  0  0  0  0  0  0
  -34.4020  -18.7820   20.2820 H   0  0  0  0  0  0  0  0  0  0  0  0
  -33.3040  -18.0910   19.3200 H   0  0  0  0  0  0  0  0  0  0  0  0
  -30.7720  -16.8880   20.1910 C   0  0  0  0  0  2  0  0  0  0  0  0
  -31.3320  -14.4390   20.2070 C   0  0  0  0  0  0  0  0  0  0  0  0
  -30.9650  -12.2550   19.1280 C   0  0  0  0  0  2  0  0  0  0  0  0
  -30.0240  -12.4630   17.9230 C   0  0  0  0  0  2  0  0  0  0  0  0
  -28.5470  -12.3880   18.3600 C   0  0  0  0  0  2  0  0  0  0  0  0
  -28.2450  -13.2700   19.6010 C   0  0  0  0  0  3  0  0  0  0  0  0
  -29.2960  -13.0340   20.7120 C   0  0  0  0  0  2  0  0  0  0  0  0
  -30.6330  -13.2720   20.1390 N   0  0  0  0  0  0  0  0  0  0  0  0
  -32.4480  -14.5930   19.7060 O   0  0  0  0  0  0  0  0  0  0  0  0
  -30.6340  -15.4950   20.6670 N   0  0  0  0  0  0  0  0  0  0  0  0
  -29.7470  -15.2560   21.0840 H   0  0  0  0  0  0  0  0  0  0  0  0
  -25.8780  -13.9890   20.3230 C   0  0  0  0  0  0  0  0  0  0  0  0
  -24.7790  -13.2660   20.7020 C   0  0  0  0  0  0  0  0  0  0  0  0
  -25.1780  -11.8960   20.6740 C   0  0  0  0  0  0  0  0  0  0  0  0
  -26.8820  -13.0600   20.0890 N   0  0  0  0  0  0  0  0  0  0  0  0
  -26.4630  -11.7970   20.3570 N   0  0  0  0  0  0  0  0  0  0  0  0
  -24.3980  -10.6680   20.8740 C   0  0  0  0  0  0  0  0  0  0  0  0
  -24.7640   -9.7110   21.8450 C   0  0  0  0  0  3  0  0  0  0  0  0
  -23.9890   -8.5470   22.0310 C   0  0  0  0  0  3  0  0  0  0  0  0
  -22.8300   -8.3310   21.2460 C   0  0  0  0  0  0  0  0  0  0  0  0
  -22.4840   -9.2760   20.2630 C   0  0  0  0  0  3  0  0  0  0  0  0
  -23.2600  -10.4310   20.0760 C   0  0  0  0  0  3  0  0  0  0  0  0
  -22.0310   -7.2180   21.3390 O   0  0  0  0  0  0  0  0  0  0  0  0
  -21.8690   -6.5450   22.5230 C   0  0  0  0  0  0  0  0  0  0  0  0
  -21.3760   -7.1830   23.6830 C   0  0  0  0  0  3  0  0  0  0  0  0
  -21.1630   -6.4360   24.8590 C   0  0  0  0  0  3  0  0  0  0  0  0
  -21.4290   -5.0550   24.8750 C   0  0  0  0  0  0  0  0  0  0  0  0
  -21.9130   -4.4180   23.7190 C   0  0  0  0  0  3  0  0  0  0  0  0
  -22.1300   -5.1600   22.5470 C   0  0  0  0  0  0  0  0  0  0  0  0
  -22.5780   -4.5370   21.4300 F   0  0  0  0  0  0  0  0  0  0  0  0
  -21.2150   -4.3370   26.0010 F   0  0  0  0  0  0  0  0  0  0  0  0
  -23.4070  -13.8070   20.9850 C   0  0  0  0  0  0  0  0  0  0  0  0
  -22.6700  -13.1670   21.8860 N   0  0  0  0  0  0  0  0  0  0  0  0
  -23.0000  -14.8330   20.4400 O   0  0  0  0  0  0  0  0  0  0  0  0
  -23.0120  -12.3370   22.3460 H   0  0  0  0  0  0  0  0  0  0  0  0
  -21.7480  -13.5110   22.1170 H   0  0  0  0  0  0  0  0  0  0  0  0
  -26.1040  -15.3490   20.1390 N   0  0  0  0  0  0  0  0  0  0  0  0
  -25.3670  -16.0370   20.2420 H   0  0  0  0  0  0  0  0  0  0  0  0
  -26.9660  -15.7440   19.7850 H   0  0  0  0  0  0  0  0  0  0  0  0
  -29.0700  -23.6710   20.4980 C   0  0  0  0  0  2  0  0  0  0  0  0
  -30.4780  -24.4630   22.4030 C   0  0  0  0  0  2  0  0  0  0  0  0
  -29.1170  -22.2180   21.0470 C   0  0  0  0  0  2  0  0  0  0  0  0
  -30.5530  -23.0220   22.9580 C   0  0  0  0  0  2  0  0  0  0  0  0
  -29.1740  -24.7400   21.6140 C   0  0  0  0  0  3  0  0  0  0  0  0
  -30.4080  -21.9290   21.8580 C   0  0  0  0  0  3  0  0  0  0  0  0
  -29.1090  -26.2220   21.1170 C   0  0  0  0  0  2  0  0  0  0  0  0
  -28.1870  -26.4090   20.0400 O   0  0  0  0  0  0  0  0  0  0  0  0
  -24.5670  -31.7920   23.1720 C   0  0  0  0  0  0  0  0  0  0  0  0
  -27.0760  -27.2150   20.1730 C   0  0  0  0  0  0  0  0  0  0  0  0
  -23.3050  -30.3750   21.5860 C   0  0  0  0  0  3  0  0  0  0  0  0
  -24.7080  -28.7690   20.1850 C   0  0  0  0  0  0  0  0  0  0  0  0
  -25.8350  -30.6740   21.3410 C   0  0  0  0  0  2  0  0  0  0  0  0
  -25.8850  -29.2810   20.7490 C   0  0  0  0  0  0  0  0  0  0  0  0
  -27.0730  -28.5080   20.7540 C   0  0  0  0  0  3  0  0  0  0  0  0
  -25.8850  -26.7280   19.5970 C   0  0  0  0  0  3  0  0  0  0  0  0
  -24.7010  -27.4880   19.6100 C   0  0  0  0  0  3  0  0  0  0  0  0
  -23.4800  -29.6540   20.2230 C   0  0  0  0  0  2  0  0  0  0  0  0
  -24.5880  -30.9640   22.0900 N   0  0  0  0  0  0  0  0  0  0  0  0
  -23.5000  -32.1000   23.7230 O   0  0  0  0  0  0  0  0  0  0  0  0
  -22.6480  -29.3930   22.5810 C   0  0  0  0  0  0  0  0  0  0  0  0
  -21.3280  -29.1910   22.4450 N   0  0  0  0  0  0  0  0  0  0  0  0
  -23.3280  -28.8100   23.4320 O   0  0  0  0  0  0  0  0  0  0  0  0
  -20.8390  -29.7090   21.7280 H   0  0  0  0  0  0  0  0  0  0  0  0
  -17.9640  -27.9650   22.9280 C   0  0  0  0  0  0  0  0  0  0  0  0
  -20.5100  -28.2800   23.2450 C   0  0  0  0  0  3  0  0  0  0  0  0
  -20.6500  -26.8220   22.7470 C   0  0  0  0  0  2  0  0  0  0  0  0
  -19.5770  -26.4300   21.7260 C   0  0  0  0  0  2  0  0  0  0  0  0
  -18.1770  -26.5860   22.3280 C   0  0  0  0  0  2  0  0  0  0  0  0
  -19.0600  -28.7660   23.3440 C   0  0  0  0  0  0  0  0  0  0  0  0
  -18.8080  -30.0550   23.8620 C   0  0  0  0  0  3  0  0  0  0  0  0
  -17.4930  -30.5440   23.9700 C   0  0  0  0  0  3  0  0  0  0  0  0
  -16.4100  -29.7400   23.5730 C   0  0  0  0  0  3  0  0  0  0  0  0
  -16.6460  -28.4540   23.0570 C   0  0  0  0  0  3  0  0  0  0  0  0
  -25.8750  -32.4090   23.7540 C   0  0  0  0  0  3  0  0  0  0  0  0
  -26.4300  -31.6250   25.0050 C   0  0  1  0  0  0  0  0  0  0  0  0
  -25.3620  -31.3550   26.0890 C   0  0  0  0  0  1  0  0  0  0  0  0
  -27.0270  -30.2640   24.5760 C   0  0  0  0  0  1  0  0  0  0  0  0
  -27.5820  -32.4240   25.6580 C   0  0  0  0  0  1  0  0  0  0  0  0
  -25.5880  -33.8060   24.1020 N   0  0  0  0  0  0  0  0  0  0  0  0
  -25.9410  -34.8620   23.3580 C   0  0  0  0  0  0  0  0  0  0  0  0
  -26.6120  -34.7600   22.3270 O   0  0  0  0  0  0  0  0  0  0  0  0
  -24.9890  -33.9610   24.8990 H   0  0  0  0  0  0  0  0  0  0  0  0
  -24.2490  -36.6880   23.0120 C   0  0  0  0  0  1  0  0  0  0  0  0
  -25.4740  -36.2510   23.8300 C   0  0  0  0  0  3  0  0  0  0  0  0
  -27.6170  -37.0840   24.6930 C   0  0  0  0  0  1  0  0  0  0  0  0
  -26.5270  -37.2880   23.7430 N   0  0  0  0  0  0  0  0  0  0  0  0
  -26.1360  -38.2130   23.9020 H   0  0  0  0  0  0  0  0  0  0  0  0
  -30.1820  -20.1380   24.7850 C   0  0  0  0  0  2  0  0  0  0  0  0
  -29.5690  -18.5420   23.6830 C   0  0  0  0  0  2  0  0  0  0  0  0
  -29.4720  -18.8460   25.1730 C   0  0  0  0  0  3  0  0  0  0  0  0
  -29.7070  -19.9790   23.3980 N   0  0  2  0  0  4  0  0  0  0  0  0
  -28.7940  -20.3960   23.2950 H   0  0  0  0  0  0  0  0  0  0  0  0
  -30.1000  -17.8660   26.1760 C   0  0  0  0  0  2  0  0  0  0  0  0
  -29.6510  -18.0860   27.5630 N   0  0  0  0  0  4  0  0  0  0  0  0
  -29.9220  -18.9920   27.9020 H   0  0  0  0  0  0  0  0  0  0  0  0
  -30.0770  -17.3990   28.1610 H   0  0  0  0  0  0  0  0  0  0  0  0
  -28.6560  -17.9870   27.6490 H   0  0  0  0  0  0  0  0  0  0  0  0
  1100  1  0
  2  3  1  0
  2  5  1  0
  3  7  1  0
  5  6  1  0
  5  1  1  0
  6 10  1  0
  6  4  1  0
  7  8  1  0
  7  4  1  0
  9  7  1  0
 10 19  1  0
 11 19  1  0
 12 17  1  0
 13 14  1  0
 13 12  1  0
 15 14  1  0
 15 24  1  0
 15 16  1  0
 17 11  1  0
 17 16  1  0
 18 11  2  0
 19 20  1  0
 21 22  2  0
 22 41  1  0
 23 22  1  0
 23 26  1  0
 24 21  1  0
 24 25  1  0
 25 23  2  0
 26 27  1  0
 27 28  2  0
 29 32  1  0
 29 28  1  0
 30 29  2  0
 31 30  1  0
 31 26  2  0
 32 33  1  0
 33 38  2  0
 33 34  1  0
 34 35  2  0
 35 36  1  0
 36 40  1  0
 37 36  2  0
 38 37  1  0
 39 38  1  0
 41 42  1  0
 42 45  1  0
 42 44  1  0
 43 41  2  0
 46 47  1  0
 46 21  1  0
 48 46  1  0
 49 51  1  0
 49 53  1  0
 50 52  1  0
 51 54  1  0
 53 55  1  0
 53 50  1  0
 54  1  1  0
 54 52  1  0
 56 58  1  0
 56 55  1  0
 57 68  2  0
 58 63  1  0
 59 67  1  0
 59 69  1  0
 60 66  1  0
 60 62  1  0
 61 67  1  0
 62 63  2  0
 62 61  1  0
 64 65  1  0
 64 58  2  0
 65 60  2  0
 66 59  1  0
 67 57  1  0
 69 71  2  0
 70 69  1  0
 72 70  1  0
 73 82  2  0
 73 78  1  0
 74 70  1  0
 74 78  1  0
 75 74  1  0
 76 77  1  0
 76 75  1  0
 77 73  1  0
 78 79  2  0
 79 80  1  0
 81 80  2  0
 82 81  1  0
 83 57  1  0
 83 88  1  0
 83 84  1  0
 84 87  1  1
 84 85  1  0
 86 84  1  0
 88 91  1  0
 89 93  1  0
 89 88  1  0
 90 89  2  0
 93 92  1  0
 95 93  1  0
 95 96  1  0
 95 94  1  0
 97 99  1  0
 98 99  1  0
 99102  1  0
100 98  1  0
100 97  1  0
100101  1  1
102103  1  0
103106  1  0
103104  1  0
103105  1  0
M  ISO  4  11 100  19 100  55 101  56 101
M  END
>  <TORSDO>  (26) 
F 23

>  <SCORE>  (26) 
-0.639

>  <name>  (26) 
25

>  <ligand_id>  (26) 
25

>  <original_smiles>  (26) 
[H]c1c([H])c([H])c2c(c1[H])C([H])([H])C([H])([H])C([H])([H])C2([H])N([H])C(=O)C1([H])N(C(=O)C([H])(N([H])C(=O)C([H])(N([H])C([H])([H])[H])C([H])([H])[H])C(C([H])([H])[H])(C([H])([H])[H])C([H])([H])[H])C([H])([H])c2c([H])c(OC([H])([H])C3([H])C([H])([H])C([H])([H])C([H])(C([H])(C4([H])C([H])([H])C([H])([H])[N+]([H])([H])C([H])([H])C4([H])C([H])([H])N([H])C(=O)N4C([H])([H])C([H])([H])C([H])([H])C([H])(n5nc(-c6c([H])c([H])c(Oc7c([H])c([H])c(F)c([H])c7F)c([H])c6[H])c(C(=O)N([H])[H])c5N([H])[H])C4([H])[H])[N+]4([H])C([H])([H])C([H])(C([H])([H])[N+]([H])([H])[H])C4([H])[H])C([H])([H])C3([H])[H])c([H])c([H])c2C1([H])[H]

>  <smiles>  (26) 
[H]c1c([H])c([H])c2c(c1[H])C([H])([H])C([H])([H])C([H])([H])C2([H])N([H])C(=O)C1([H])N(C(=O)C([H])(N([H])C(=O)C([H])(N([H])C([H])([H])[H])C([H])([H])[H])C(C([H])([H])[H])(C([H])([H])[H])C([H])([H])[H])C([H])([H])c2c([H])c(OC([H])([H])C3([H])C([H])([H])C([H])([H])C([H])(C([H])(C4([H])C([H])([H])C([H])([H])[N+]([H])([H])C([H])([H])C4([H])C([H])([H])N([H])C(=O)N4C([H])([H])C([H])([H])C([H])([H])C([H])(n5nc(-c6c([H])c([H])c(Oc7c([H])c([H])c(F)c([H])c7F)c([H])c6[H])c(C(=O)N([H])[H])c5N([H])[H])C4([H])[H])[N+]4([H])C([H])([H])C([H])(C([H])([H])[N+]([H])([H])[H])C4([H])[H])C([H])([H])C3([H])[H])c([H])c([H])c2C1([H])[H]

$$$$
26:0:0
     RDKit          3D

 93102  0  0  1  0  0  0  0  0999 V2000
  -31.0400  -22.1800   21.0450 C   0  0  0  0  0  3  0  0  0  0  0  0
  -31.2570  -23.5690   21.1030 C   0  0  0  0  0  3  0  0  0  0  0  0
  -29.8190  -21.6730   20.5610 C   0  0  0  0  0  0  0  0  0  0  0  0
  -28.8670  -22.6500   20.1230 C   0  0  0  0  0  0  0  0  0  0  0  0
  -29.1650  -24.0540   20.2330 C   0  0  0  0  0  0  0  0  0  0  0  0
  -27.5360  -22.1800   19.5410 C   0  0  0  0  0  1  0  0  0  0  0  0
  -30.3460  -24.4870   20.7190 N   0  0  0  0  0  0  0  0  0  0  0  0
  -30.1430  -19.3710   21.7750 C   0  0  0  0  0  2  0  0  0  0  0  0
  -30.1190  -19.4110   19.2780 C   0  0  0  0  0  2  0  0  0  0  0  0
  -29.8460  -17.8430   21.7630 C   0  0  0  0  0  2  0  0  0  0  0  0
  -29.8420  -17.8740   19.2550 C   0  0  0  0  0  2  0  0  0  0  0  0
  -29.5740  -20.1240   20.5420 C   0  0  0  0  0  3  0  0  0  0  0  0
  -30.3820  -17.1170   20.5000 C   0  0  0  0  0  3  0  0  0  0  0  0
  -30.7240  -14.6180   20.0240 C   0  0  0  0  0  0  0  0  0  0  0  0
  -30.3900  -12.4320   18.9110 C   0  0  0  0  0  2  0  0  0  0  0  0
  -29.3690  -12.6070   17.7660 C   0  0  0  0  0  2  0  0  0  0  0  0
  -27.9280  -12.4490   18.2900 C   0  0  0  0  0  2  0  0  0  0  0  0
  -27.6600  -13.2860   19.5700 C   0  0  0  0  0  3  0  0  0  0  0  0
  -28.7890  -13.0960   20.6080 C   0  0  0  0  0  2  0  0  0  0  0  0
  -30.0640  -13.4240   19.9510 N   0  0  0  0  0  0  0  0  0  0  0  0
  -31.8410  -14.7800   19.5270 O   0  0  0  0  0  0  0  0  0  0  0  0
  -30.0140  -15.6700   20.5060 N   0  0  0  0  0  0  0  0  0  0  0  0
  -29.1000  -15.4410   20.8670 H   0  0  0  0  0  0  0  0  0  0  0  0
  -25.3270  -13.8740   20.4760 C   0  0  0  0  0  0  0  0  0  0  0  0
  -24.2810  -13.0940   20.8890 C   0  0  0  0  0  0  0  0  0  0  0  0
  -24.7260  -11.7410   20.7720 C   0  0  0  0  0  0  0  0  0  0  0  0
  -26.3440  -12.9960   20.1360 N   0  0  0  0  0  0  0  0  0  0  0  0
  -25.9910  -11.7070   20.3710 N   0  0  0  0  0  0  0  0  0  0  0  0
  -24.0020  -10.4770   20.9610 C   0  0  0  0  0  0  0  0  0  0  0  0
  -24.4450   -9.5050   21.8850 C   0  0  0  0  0  3  0  0  0  0  0  0
  -23.7220   -8.3050   22.0630 C   0  0  0  0  0  3  0  0  0  0  0  0
  -22.5420   -8.0700   21.3180 C   0  0  0  0  0  0  0  0  0  0  0  0
  -22.1190   -9.0310   20.3840 C   0  0  0  0  0  3  0  0  0  0  0  0
  -22.8410  -10.2220   20.2040 C   0  0  0  0  0  3  0  0  0  0  0  0
  -21.7900   -6.9230   21.4070 O   0  0  0  0  0  0  0  0  0  0  0  0
  -21.6870   -6.2190   22.5800 C   0  0  0  0  0  0  0  0  0  0  0  0
  -21.1720   -6.8050   23.7570 C   0  0  0  0  0  3  0  0  0  0  0  0
  -21.0180   -6.0260   24.9210 C   0  0  0  0  0  3  0  0  0  0  0  0
  -21.3670   -4.6620   24.9080 C   0  0  0  0  0  0  0  0  0  0  0  0
  -21.8730   -4.0760   23.7340 C   0  0  0  0  0  3  0  0  0  0  0  0
  -22.0290   -4.8520   22.5730 C   0  0  0  0  0  0  0  0  0  0  0  0
  -22.4980   -4.2780   21.4390 F   0  0  0  0  0  0  0  0  0  0  0  0
  -21.2110   -3.9110   26.0230 F   0  0  0  0  0  0  0  0  0  0  0  0
  -22.9100  -13.5680   21.2780 C   0  0  0  0  0  0  0  0  0  0  0  0
  -22.2430  -12.8500   22.1740 N   0  0  0  0  0  0  0  0  0  0  0  0
  -22.4420  -14.6110   20.8230 O   0  0  0  0  0  0  0  0  0  0  0  0
  -22.6350  -12.0050   22.5630 H   0  0  0  0  0  0  0  0  0  0  0  0
  -21.3270  -13.1490   22.4760 H   0  0  0  0  0  0  0  0  0  0  0  0
  -25.4900  -15.2490   20.3410 N   0  0  0  0  0  0  0  0  0  0  0  0
  -24.7330  -15.9000   20.5250 H   0  0  0  0  0  0  0  0  0  0  0  0
  -26.3100  -15.6960   19.9520 H   0  0  0  0  0  0  0  0  0  0  0  0
  -28.1520  -25.1560   19.8100 C   0  0  0  0  0  2  0  0  0  0  0  0
  -28.4000  -26.5710   20.1220 O   0  0  0  0  0  0  0  0  0  0  0  0
  -24.6450  -31.8660   23.2100 C   0  0  0  0  0  0  0  0  0  0  0  0
  -27.2760  -27.4050   20.0670 C   0  0  0  0  0  0  0  0  0  0  0  0
  -23.4450  -30.4930   21.5480 C   0  0  0  0  0  3  0  0  0  0  0  0
  -24.9000  -28.9850   20.0940 C   0  0  0  0  0  0  0  0  0  0  0  0
  -25.9820  -30.8320   21.3690 C   0  0  0  0  0  2  0  0  0  0  0  0
  -26.0660  -29.4710   20.6980 C   0  0  0  0  0  0  0  0  0  0  0  0
  -27.2570  -28.6910   20.6810 C   0  0  0  0  0  3  0  0  0  0  0  0
  -26.0840  -26.9760   19.4280 C   0  0  0  0  0  3  0  0  0  0  0  0
  -24.9090  -27.7400   19.4520 C   0  0  0  0  0  3  0  0  0  0  0  0
  -23.6590  -29.8470   20.1560 C   0  0  0  0  0  2  0  0  0  0  0  0
  -24.7090  -31.0780   22.0990 N   0  0  0  0  0  0  0  0  0  0  0  0
  -23.5610  -32.1300   23.7490 O   0  0  0  0  0  0  0  0  0  0  0  0
  -22.7900  -29.4510   22.4870 C   0  0  0  0  0  0  0  0  0  0  0  0
  -21.4620  -29.2810   22.3670 N   0  0  0  0  0  0  0  0  0  0  0  0
  -23.4740  -28.8040   23.2840 O   0  0  0  0  0  0  0  0  0  0  0  0
  -20.9720  -29.8570   21.6970 H   0  0  0  0  0  0  0  0  0  0  0  0
  -18.0810  -28.1080   22.8770 C   0  0  0  0  0  0  0  0  0  0  0  0
  -20.6440  -28.3330   23.1230 C   0  0  0  0  0  3  0  0  0  0  0  0
  -20.7240  -26.9160   22.5110 C   0  0  0  0  0  2  0  0  0  0  0  0
  -19.6070  -26.6300   21.5020 C   0  0  0  0  0  2  0  0  0  0  0  0
  -18.2340  -26.7730   22.1660 C   0  0  0  0  0  2  0  0  0  0  0  0
  -19.2130  -28.8470   23.3120 C   0  0  0  0  0  0  0  0  0  0  0  0
  -19.0140  -30.0980   23.9360 C   0  0  0  0  0  3  0  0  0  0  0  0
  -17.7170  -30.6090   24.1300 C   0  0  0  0  0  3  0  0  0  0  0  0
  -16.6000  -29.8660   23.7120 C   0  0  0  0  0  3  0  0  0  0  0  0
  -16.7830  -28.6170   23.0910 C   0  0  0  0  0  3  0  0  0  0  0  0
  -25.9270  -32.4900   23.8410 C   0  0  0  0  0  3  0  0  0  0  0  0
  -25.6140  -33.8840   24.1900 N   0  0  0  0  0  0  0  0  0  0  0  0
  -25.9150  -34.9440   23.4290 C   0  0  0  0  0  0  0  0  0  0  0  0
  -26.5560  -34.8550   22.3790 O   0  0  0  0  0  0  0  0  0  0  0  0
  -25.0440  -34.0260   25.0110 H   0  0  0  0  0  0  0  0  0  0  0  0
  -24.1490  -36.7120   23.1510 C   0  0  0  0  0  1  0  0  0  0  0  0
  -25.4270  -36.3240   23.9110 C   0  0  0  0  0  3  0  0  0  0  0  0
  -27.5760  -37.2420   24.6660 C   0  0  0  0  0  1  0  0  0  0  0  0
  -26.4400  -37.3920   23.7600 N   0  0  0  0  0  0  0  0  0  0  0  0
  -26.0260  -38.3070   23.9180 H   0  0  0  0  0  0  0  0  0  0  0  0
  -26.4440  -31.7020   25.1060 C   0  0  1  0  0  0  0  0  0  0  0  0
  -25.3490  -31.4420   26.1680 C   0  0  0  0  0  1  0  0  0  0  0  0
  -27.0370  -30.3340   24.6940 C   0  0  0  0  0  1  0  0  0  0  0  0
  -27.5890  -32.4920   25.7840 C   0  0  0  0  0  1  0  0  0  0  0  0
  1  2  1  0
  3  1  2  0
  4  5  2  0
  4  3  1  0
  5  7  1  0
  6  4  1  0
  7  2  2  0
  9 12  1  0
 10  8  1  0
 11  9  1  0
 11 13  1  0
 12  3  1  0
 12  8  1  0
 13 22  1  0
 13 10  1  0
 14 22  1  0
 15 20  1  0
 16 17  1  0
 16 15  1  0
 18 17  1  0
 18 27  1  0
 18 19  1  0
 20 14  1  0
 20 19  1  0
 21 14  2  0
 22 23  1  0
 24 25  2  0
 25 44  1  0
 26 25  1  0
 26 29  1  0
 27 28  1  0
 27 24  1  0
 28 26  2  0
 29 30  1  0
 30 31  2  0
 32 35  1  0
 32 31  1  0
 33 32  2  0
 34 33  1  0
 34 29  2  0
 35 36  1  0
 36 37  1  0
 37 38  2  0
 39 38  1  0
 39 43  1  0
 40 39  2  0
 41 36  2  0
 41 40  1  0
 42 41  1  0
 44 45  1  0
 45 48  1  0
 45 47  1  0
 46 44  2  0
 49 24  1  0
 49 50  1  0
 51 49  1  0
 52 53  1  0
 52  5  1  0
 54 65  2  0
 55 53  1  0
 55 60  1  0
 56 64  1  0
 56 66  1  0
 57 63  1  0
 57 59  1  0
 58 64  1  0
 59 58  1  0
 60 59  2  0
 61 62  1  0
 61 55  2  0
 62 57  2  0
 63 56  1  0
 64 54  1  0
 66 68  2  0
 67 66  1  0
 69 67  1  0
 70 79  2  0
 70 75  1  0
 71 67  1  0
 71 75  1  0
 72 71  1  0
 73 74  1  0
 73 72  1  0
 74 70  1  0
 75 76  2  0
 76 77  1  0
 78 77  2  0
 79 78  1  0
 80 54  1  0
 80 81  1  0
 80 90  1  0
 81 84  1  0
 82 86  1  0
 82 81  1  0
 83 82  2  0
 86 85  1  0
 88 86  1  0
 88 89  1  0
 88 87  1  0
 90 93  1  1
 90 91  1  0
 92 90  1  0
M  ISO  4  14 100  22 100  52 101  53 101
M  END
>  <TORSDO>  (27) 
F 18

>  <SCORE>  (27) 
-14.089

>  <name>  (27) 
26

>  <ligand_id>  (27) 
26

>  <original_smiles>  (27) 
[H]c1nc(C([H])([H])Oc2c([H])c([H])c3c(c2[H])C([H])([H])N(C(=O)C([H])(N([H])C(=O)C([H])(N([H])C([H])([H])[H])C([H])([H])[H])C(C([H])([H])[H])(C([H])([H])[H])C([H])([H])[H])C([H])(C(=O)N([H])C2([H])c4c([H])c([H])c([H])c([H])c4C([H])([H])C([H])([H])C2([H])[H])C3([H])[H])c(C([H])([H])[H])c(C2([H])C([H])([H])C([H])([H])C([H])(N([H])C(=O)N3C([H])([H])C([H])([H])C([H])([H])C([H])(n4nc(-c5c([H])c([H])c(Oc6c([H])c([H])c(F)c([H])c6F)c([H])c5[H])c(C(=O)N([H])[H])c4N([H])[H])C3([H])[H])C([H])([H])C2([H])[H])c1[H]

>  <smiles>  (27) 
[H]c1nc(C([H])([H])Oc2c([H])c([H])c3c(c2[H])C([H])([H])N(C(=O)C([H])(N([H])C(=O)C([H])(N([H])C([H])([H])[H])C([H])([H])[H])C(C([H])([H])[H])(C([H])([H])[H])C([H])([H])[H])C([H])(C(=O)N([H])C2([H])c4c([H])c([H])c([H])c([H])c4C([H])([H])C([H])([H])C2([H])[H])C3([H])[H])c(C([H])([H])[H])c(C2([H])C([H])([H])C([H])([H])C([H])(N([H])C(=O)N3C([H])([H])C([H])([H])C([H])([H])C([H])(n4nc(-c5c([H])c([H])c(Oc6c([H])c([H])c(F)c([H])c6F)c([H])c5[H])c(C(=O)N([H])[H])c4N([H])[H])C3([H])[H])C([H])([H])C2([H])[H])c1[H]

$$$$
27:0:0
     RDKit          3D

100108  0  0  1  0  0  0  0  0999 V2000
  -30.0540  -20.1470   19.6630 C   0  0  0  0  0  3  0  0  0  0  0  0
  -27.8150  -19.1860   16.5290 C   0  0  0  0  0  2  0  0  0  0  0  0
  -28.1530  -19.7660   17.9140 C   0  0  0  0  0  2  0  0  0  0  0  0
  -28.7100  -19.7990   15.4370 C   0  0  0  0  0  2  0  0  0  0  0  0
  -30.5250  -20.1660   17.0820 C   0  0  0  0  0  2  0  0  0  0  0  0
  -29.6570  -19.5960   18.2400 C   0  0  0  0  0  3  0  0  0  0  0  0
  -30.1390  -19.6070   15.7640 N   0  0  0  0  0  4  0  0  0  0  0  0
  -30.6950  -20.0430   15.0440 H   0  0  0  0  0  0  0  0  0  0  0  0
  -30.3510  -18.6220   15.7340 H   0  0  0  0  0  0  0  0  0  0  0  0
  -29.8830  -19.1330   20.7610 N   0  0  0  0  0  4  0  0  0  0  0  0
  -30.4840  -19.3950   21.5250 H   0  0  0  0  0  0  0  0  0  0  0  0
  -28.9350  -19.1930   21.1050 H   0  0  0  0  0  0  0  0  0  0  0  0
  -30.1440  -17.6920   20.4430 C   0  0  0  0  0  2  0  0  0  0  0  0
  -30.2910  -16.7780   21.6910 C   0  0  0  0  0  2  0  0  0  0  0  0
  -30.7360  -14.4760   20.6720 C   0  0  0  0  0  0  0  0  0  0  0  0
  -30.4610  -12.4010   19.3540 C   0  0  0  0  0  2  0  0  0  0  0  0
  -29.4950  -12.6450   18.1720 C   0  0  0  0  0  2  0  0  0  0  0  0
  -28.0240  -12.4890   18.6090 C   0  0  0  0  0  2  0  0  0  0  0  0
  -27.7020  -13.2750   19.9060 C   0  0  0  0  0  3  0  0  0  0  0  0
  -28.7530  -12.9550   20.9920 C   0  0  0  0  0  2  0  0  0  0  0  0
  -30.0800  -13.3050   20.4490 N   0  0  0  0  0  0  0  0  0  0  0  0
  -31.8230  -14.7610   20.1640 O   0  0  0  0  0  0  0  0  0  0  0  0
  -30.0320  -15.3610   21.4000 N   0  0  0  0  0  0  0  0  0  0  0  0
  -29.1550  -15.0010   21.7450 H   0  0  0  0  0  0  0  0  0  0  0  0
  -25.2990  -13.8850   20.6140 C   0  0  0  0  0  0  0  0  0  0  0  0
  -24.2270  -13.1090   20.9670 C   0  0  0  0  0  0  0  0  0  0  0  0
  -24.6860  -11.7580   20.9160 C   0  0  0  0  0  0  0  0  0  0  0  0
  -26.3430  -13.0030   20.3740 N   0  0  0  0  0  0  0  0  0  0  0  0
  -25.9750  -11.7200   20.6120 N   0  0  0  0  0  0  0  0  0  0  0  0
  -23.9610  -10.4940   21.0850 C   0  0  0  0  0  0  0  0  0  0  0  0
  -24.3630   -9.5310   22.0360 C   0  0  0  0  0  3  0  0  0  0  0  0
  -23.6390   -8.3300   22.1900 C   0  0  0  0  0  3  0  0  0  0  0  0
  -22.4970   -8.0820   21.3900 C   0  0  0  0  0  0  0  0  0  0  0  0
  -22.1150   -9.0340   20.4280 C   0  0  0  0  0  3  0  0  0  0  0  0
  -22.8400  -10.2260   20.2730 C   0  0  0  0  0  3  0  0  0  0  0  0
  -21.7440   -6.9330   21.4540 O   0  0  0  0  0  0  0  0  0  0  0  0
  -21.6290   -6.2120   22.6160 C   0  0  0  0  0  0  0  0  0  0  0  0
  -21.0500   -6.7620   23.7810 C   0  0  0  0  0  3  0  0  0  0  0  0
  -20.8870   -5.9630   24.9300 C   0  0  0  0  0  3  0  0  0  0  0  0
  -21.2950   -4.6150   24.9150 C   0  0  0  0  0  0  0  0  0  0  0  0
  -21.8670   -4.0660   23.7550 C   0  0  0  0  0  3  0  0  0  0  0  0
  -22.0310   -4.8620   22.6080 C   0  0  0  0  0  0  0  0  0  0  0  0
  -22.5630   -4.3200   21.4860 F   0  0  0  0  0  0  0  0  0  0  0  0
  -21.1310   -3.8460   26.0160 F   0  0  0  0  0  0  0  0  0  0  0  0
  -22.8290  -13.5840   21.2420 C   0  0  0  0  0  0  0  0  0  0  0  0
  -22.0940  -12.8680   22.0860 N   0  0  0  0  0  0  0  0  0  0  0  0
  -22.3960  -14.6210   20.7430 O   0  0  0  0  0  0  0  0  0  0  0  0
  -22.4580  -12.0280   22.5120 H   0  0  0  0  0  0  0  0  0  0  0  0
  -21.1540  -13.1620   22.3100 H   0  0  0  0  0  0  0  0  0  0  0  0
  -25.4740  -15.2580   20.4580 N   0  0  0  0  0  0  0  0  0  0  0  0
  -24.7200  -15.9220   20.5890 H   0  0  0  0  0  0  0  0  0  0  0  0
  -26.3310  -15.6860   20.1340 H   0  0  0  0  0  0  0  0  0  0  0  0
  -29.3240  -21.5120   19.9820 C   0  0  0  0  0  2  0  0  0  0  0  0
  -30.0440  -22.5400   20.9080 C   0  0  0  0  0  2  0  0  0  0  0  0
  -29.6690  -23.9710   20.6600 N   0  0  0  0  0  4  0  0  0  0  0  0
  -29.0900  -24.0420   19.8360 H   0  0  0  0  0  0  0  0  0  0  0  0
  -30.5270  -24.4560   20.4410 H   0  0  0  0  0  0  0  0  0  0  0  0
  -29.0130  -24.7020   21.7860 C   0  0  0  0  0  2  0  0  0  0  0  0
  -28.9990  -26.2510   21.6150 C   0  0  0  0  0  2  0  0  0  0  0  0
  -28.3310  -26.6380   20.4140 O   0  0  0  0  0  0  0  0  0  0  0  0
  -24.4970  -31.9590   23.4020 C   0  0  0  0  0  0  0  0  0  0  0  0
  -27.2010  -27.4260   20.4870 C   0  0  0  0  0  0  0  0  0  0  0  0
  -23.3290  -30.5320   21.7530 C   0  0  0  0  0  3  0  0  0  0  0  0
  -24.8170  -28.9530   20.4080 C   0  0  0  0  0  0  0  0  0  0  0  0
  -25.8650  -30.8620   21.6320 C   0  0  0  0  0  2  0  0  0  0  0  0
  -25.9600  -29.4750   21.0270 C   0  0  0  0  0  0  0  0  0  0  0  0
  -27.1580  -28.7160   21.0760 C   0  0  0  0  0  3  0  0  0  0  0  0
  -26.0460  -26.9290   19.8550 C   0  0  0  0  0  3  0  0  0  0  0  0
  -24.8530  -27.6750   19.8230 C   0  0  0  0  0  3  0  0  0  0  0  0
  -23.5760  -29.8200   20.3970 C   0  0  0  0  0  2  0  0  0  0  0  0
  -24.5800  -31.1350   22.3190 N   0  0  0  0  0  0  0  0  0  0  0  0
  -23.4020  -32.2540   23.9020 O   0  0  0  0  0  0  0  0  0  0  0  0
  -22.6400  -29.5330   22.7120 C   0  0  0  0  0  0  0  0  0  0  0  0
  -21.3200  -29.3510   22.5380 N   0  0  0  0  0  0  0  0  0  0  0  0
  -23.2920  -28.9230   23.5640 O   0  0  0  0  0  0  0  0  0  0  0  0
  -20.8590  -29.9010   21.8270 H   0  0  0  0  0  0  0  0  0  0  0  0
  -17.9200  -28.1980   22.9520 C   0  0  0  0  0  0  0  0  0  0  0  0
  -20.4700  -28.4330   23.2960 C   0  0  0  0  0  3  0  0  0  0  0  0
  -20.5730  -26.9920   22.7430 C   0  0  0  0  0  2  0  0  0  0  0  0
  -19.4990  -26.6670   21.6990 C   0  0  0  0  0  2  0  0  0  0  0  0
  -18.1020  -26.8360   22.3000 C   0  0  0  0  0  2  0  0  0  0  0  0
  -19.0350  -28.9550   23.4010 C   0  0  0  0  0  0  0  0  0  0  0  0
  -18.8130  -30.2310   23.9640 C   0  0  0  0  0  3  0  0  0  0  0  0
  -17.5100  -30.7530   24.0810 C   0  0  0  0  0  3  0  0  0  0  0  0
  -16.4110  -29.9920   23.6490 C   0  0  0  0  0  3  0  0  0  0  0  0
  -16.6150  -28.7160   23.0940 C   0  0  0  0  0  3  0  0  0  0  0  0
  -25.7700  -32.5900   24.0470 C   0  0  0  0  0  3  0  0  0  0  0  0
  -26.2160  -31.8730   25.3790 C   0  0  1  0  0  0  0  0  0  0  0  0
  -25.0690  -31.6900   26.4000 C   0  0  0  0  0  1  0  0  0  0  0  0
  -26.8040  -30.4740   25.0730 C   0  0  0  0  0  1  0  0  0  0  0  0
  -27.3380  -32.6860   26.0640 C   0  0  0  0  0  1  0  0  0  0  0  0
  -25.4850  -34.0100   24.2930 N   0  0  0  0  0  0  0  0  0  0  0  0
  -25.8730  -35.0140   23.4930 C   0  0  0  0  0  0  0  0  0  0  0  0
  -26.5820  -34.8410   22.4970 O   0  0  0  0  0  0  0  0  0  0  0  0
  -24.8690  -34.2190   25.0650 H   0  0  0  0  0  0  0  0  0  0  0  0
  -24.2170  -36.8290   22.9610 C   0  0  0  0  0  1  0  0  0  0  0  0
  -25.4000  -36.4340   23.8580 C   0  0  0  0  0  3  0  0  0  0  0  0
  -27.5000  -37.3080   24.7830 C   0  0  0  0  0  1  0  0  0  0  0  0
  -26.4650  -37.4550   23.7610 N   0  0  0  0  0  0  0  0  0  0  0  0
  -26.0740  -38.3890   23.8430 H   0  0  0  0  0  0  0  0  0  0  0  0
  1 53  1  0
  1 10  1  0
  2  3  1  0
  3  6  1  0
  4  7  1  0
  4  2  1  0
  5  6  1  0
  6  1  1  0
  7  5  1  0
  8  7  1  0
  9  7  1  0
 10 12  1  0
 10 11  1  0
 13 10  1  0
 13 14  1  0
 15 23  1  0
 16 21  1  0
 17 18  1  0
 17 16  1  0
 19 18  1  0
 19 28  1  0
 19 20  1  0
 21 15  1  0
 21 20  1  0
 22 15  2  0
 23 14  1  0
 23 24  1  0
 25 26  2  0
 26 45  1  0
 27 26  1  0
 27 30  1  0
 28 29  1  0
 28 25  1  0
 29 27  2  0
 30 31  1  0
 31 32  2  0
 33 36  1  0
 33 32  1  0
 34 33  2  0
 35 34  1  0
 35 30  2  0
 36 37  1  0
 37 38  1  0
 38 39  2  0
 40 39  1  0
 40 44  1  0
 41 40  2  0
 42 37  2  0
 42 41  1  0
 43 42  1  0
 45 46  1  0
 46 49  1  0
 46 48  1  0
 47 45  2  0
 50 51  1  0
 50 25  1  0
 52 50  1  0
 53 54  1  0
 55 54  1  0
 55 58  1  0
 56 55  1  0
 57 55  1  0
 59 58  1  0
 60 62  1  0
 60 59  1  0
 61 72  2  0
 62 67  1  0
 63 71  1  0
 63 73  1  0
 64 66  1  0
 65 71  1  0
 66 67  2  0
 66 65  1  0
 68 62  2  0
 69 68  1  0
 69 64  2  0
 70 64  1  0
 70 63  1  0
 71 61  1  0
 73 75  2  0
 74 73  1  0
 76 74  1  0
 77 86  2  0
 77 82  1  0
 78 74  1  0
 78 82  1  0
 79 78  1  0
 80 81  1  0
 80 79  1  0
 81 77  1  0
 82 83  2  0
 83 84  1  0
 85 84  2  0
 86 85  1  0
 87 61  1  0
 87 92  1  0
 87 88  1  0
 88 91  1  1
 88 89  1  0
 90 88  1  0
 92 95  1  0
 93 97  1  0
 93 92  1  0
 94 93  2  0
 97 96  1  0
 99100  1  0
 99 97  1  0
 99 98  1  0
M  ISO  4  15 100  23 100  59 101  60 101
M  END
>  <TORSDO>  (28) 
F 25

>  <SCORE>  (28) 
-12.102

>  <name>  (28) 
27

>  <ligand_id>  (28) 
27

>  <original_smiles>  (28) 
[H]c1c([H])c([H])c2c(c1[H])C([H])([H])C([H])([H])C([H])([H])C2([H])N([H])C(=O)C1([H])N(C(=O)C([H])(N([H])C(=O)C([H])(N([H])C([H])([H])[H])C([H])([H])[H])C(C([H])([H])[H])(C([H])([H])[H])C([H])([H])[H])C([H])([H])c2c([H])c(OC([H])([H])C([H])([H])[N+]([H])([H])C([H])([H])C([H])([H])C([H])(C3([H])C([H])([H])C([H])([H])C([H])([H])[N+]([H])([H])C3([H])[H])[N+]([H])([H])C([H])([H])C([H])([H])N([H])C(=O)N3C([H])([H])C([H])([H])C([H])([H])C([H])(n4nc(-c5c([H])c([H])c(Oc6c([H])c([H])c(F)c([H])c6F)c([H])c5[H])c(C(=O)N([H])[H])c4N([H])[H])C3([H])[H])c([H])c([H])c2C1([H])[H]

>  <smiles>  (28) 
[H]c1c([H])c([H])c2c(c1[H])C([H])([H])C([H])([H])C([H])([H])C2([H])N([H])C(=O)C1([H])N(C(=O)C([H])(N([H])C(=O)C([H])(N([H])C([H])([H])[H])C([H])([H])[H])C(C([H])([H])[H])(C([H])([H])[H])C([H])([H])[H])C([H])([H])c2c([H])c(OC([H])([H])C([H])([H])[N+]([H])([H])C([H])([H])C([H])([H])C([H])(C3([H])C([H])([H])C([H])([H])C([H])([H])[N+]([H])([H])C3([H])[H])[N+]([H])([H])C([H])([H])C([H])([H])N([H])C(=O)N3C([H])([H])C([H])([H])C([H])([H])C([H])(n4nc(-c5c([H])c([H])c(Oc6c([H])c([H])c(F)c([H])c6F)c([H])c5[H])c(C(=O)N([H])[H])c4N([H])[H])C3([H])[H])c([H])c([H])c2C1([H])[H]

$$$$
28:0:0
     RDKit          3D

 98 98  0  0  1  0  0  0  0  0999 V2000
  -22.2280  -12.8350   21.2550 C   0  0  0  0  0 15  0  0  0  0  0  0
  -23.8210  -16.4150   20.9820 C   0  0  0  0  0  1  0  0  0  0  0  0
  -24.9340  -15.3640   22.5020 C   0  0  0  0  0  1  0  0  0  0  0  0
  -22.0370  -14.7850   20.0750 N   0  0  0  0  0 15  0  0  0  0  0  0
  -24.0570  -13.1090   22.8520 N   0  0  0  0  0  1  0  0  0  0  0  0
  -25.8030  -16.6010   24.5340 C   0  0  0  0  0  1  0  0  0  0  0  0
  -26.9180  -16.9240   22.3210 C   0  0  0  0  0  1  0  0  0  0  0  0
  -26.1490  -15.9260   23.2070 C   0  0  0  0  0  3  0  0  0  0  0  0
  -23.9900  -18.3480   20.7480 C   0  0  0  0  0  1  0  0  0  0  0  0
  -25.2060  -19.9130   20.4440 C   0  0  0  0  0 15  0  0  0  0  0  0
  -24.8580  -22.3030   18.8930 C   0  0  0  0  0  1  0  0  0  0  0  0
  -25.3280  -21.9180   20.3110 C   0  0  0  0  0  1  0  0  0  0  0  0
  -26.2780  -23.5940   20.8130 C   0  0  0  0  0  1  0  0  0  0  0  0
  -27.1400  -25.1250   20.4040 O   0  0  0  0  0  0  0  0  0  0  0  0
  -24.6790  -31.8090   23.1800 C   0  0  0  0  0  0  0  0  0  0  0  0
  -26.6690  -26.5690   20.2790 C   0  0  0  0  0  0  0  0  0  0  0  0
  -23.4760  -30.4650   21.5320 C   0  0  0  0  0  3  0  0  0  0  0  0
  -24.8430  -28.8540   20.0630 C   0  0  0  0  0  0  0  0  0  0  0  0
  -26.0590  -30.4760   21.4830 C   0  0  0  0  0  2  0  0  0  0  0  0
  -26.0180  -29.0640   20.7900 C   0  0  0  0  0  0  0  0  0  0  0  0
  -26.9650  -27.9250   20.8770 C   0  0  0  0  0  3  0  0  0  0  0  0
  -25.6240  -26.6370   19.3730 C   0  0  0  0  0  3  0  0  0  0  0  0
  -24.7080  -27.6920   19.3040 C   0  0  0  0  0  3  0  0  0  0  0  0
  -23.7090  -29.8660   20.1240 C   0  0  0  0  0  2  0  0  0  0  0  0
  -24.7640  -30.9580   22.1070 N   0  0  0  0  0  0  0  0  0  0  0  0
  -23.5850  -32.1270   23.6780 O   0  0  0  0  0  0  0  0  0  0  0  0
  -22.7660  -29.4430   22.4630 C   0  0  0  0  0  0  0  0  0  0  0  0
  -21.4330  -29.3040   22.3400 N   0  0  0  0  0  0  0  0  0  0  0  0
  -23.4190  -28.7940   23.2840 O   0  0  0  0  0  0  0  0  0  0  0  0
  -20.9550  -29.8780   21.6590 H   0  0  0  0  0  0  0  0  0  0  0  0
  -18.0330  -28.1410   22.8450 C   0  0  0  0  0  0  0  0  0  0  0  0
  -20.5960  -28.3760   23.1110 C   0  0  0  0  0  3  0  0  0  0  0  0
  -20.6800  -26.9430   22.5380 C   0  0  0  0  0  2  0  0  0  0  0  0
  -19.5770  -26.6360   21.5200 C   0  0  0  0  0  2  0  0  0  0  0  0
  -18.1950  -26.7940   22.1620 C   0  0  0  0  0  2  0  0  0  0  0  0
  -19.1600  -28.8910   23.2780 C   0  0  0  0  0  0  0  0  0  0  0  0
  -18.9510  -30.1490   23.8830 C   0  0  0  0  0  3  0  0  0  0  0  0
  -17.6510  -30.6600   24.0560 C   0  0  0  0  0  3  0  0  0  0  0  0
  -16.5390  -29.9090   23.6360 C   0  0  0  0  0  3  0  0  0  0  0  0
  -16.7310  -28.6510   23.0370 C   0  0  0  0  0  3  0  0  0  0  0  0
  -25.9470  -32.4430   23.8220 C   0  0  0  0  0  3  0  0  0  0  0  0
  -26.4630  -31.6540   25.0910 C   0  0  1  0  0  0  0  0  0  0  0  0
  -25.3670  -31.3950   26.1510 C   0  0  0  0  0  1  0  0  0  0  0  0
  -27.0590  -30.2810   24.7120 C   0  0  0  0  0  1  0  0  0  0  0  0
  -27.6080  -32.4470   25.7630 C   0  0  0  0  0  1  0  0  0  0  0  0
  -25.6100  -33.8290   24.2030 N   0  0  0  0  0  0  0  0  0  0  0  0
  -25.9170  -34.9250   23.4970 C   0  0  0  0  0  0  0  0  0  0  0  0
  -26.5770  -34.8800   22.4570 O   0  0  0  0  0  0  0  0  0  0  0  0
  -25.0180  -33.9380   25.0130 H   0  0  0  0  0  0  0  0  0  0  0  0
  -24.1500  -36.7080   23.2670 C   0  0  0  0  0  1  0  0  0  0  0  0
  -25.4180  -36.2870   24.0280 C   0  0  0  0  0  3  0  0  0  0  0  0
  -27.5530  -37.1780   24.8520 C   0  0  0  0  0  1  0  0  0  0  0  0
  -26.4320  -37.3610   23.9340 N   0  0  0  0  0  0  0  0  0  0  0  0
  -26.0150  -38.2700   24.1180 H   0  0  0  0  0  0  0  0  0  0  0  0
  -25.0590  -12.1930   23.5800 C   0  0  0  0  0  2  0  0  0  0  0  0
  -26.4770  -12.3030   22.9260 N   0  0  0  0  0  4  0  0  0  0  0  0
  -26.2630  -12.4470   21.9390 H   0  0  0  0  0  0  0  0  0  0  0  0
  -26.8660  -13.1590   23.2800 H   0  0  0  0  0  0  0  0  0  0  0  0
  -27.6610  -11.2770   23.0050 C   0  0  0  0  0  2  0  0  0  0  0  0
  -28.9290  -11.1930   21.9100 C   0  0  0  0  0  2  0  0  0  0  0  0
  -30.6730  -13.2400   21.3130 C   0  0  0  0  0  0  0  0  0  0  0  0
  -30.4270  -12.4460   19.1560 C   0  0  0  0  0  2  0  0  0  0  0  0
  -29.5280  -12.3940   17.9630 C   0  0  0  0  0  2  0  0  0  0  0  0
  -28.0810  -12.2990   18.3270 C   0  0  0  0  0  2  0  0  0  0  0  0
  -27.6920  -13.3020   19.3950 C   0  0  0  0  0  3  0  0  0  0  0  0
  -28.5650  -13.6430   20.5060 C   0  0  0  0  0  2  0  0  0  0  0  0
  -29.9050  -13.2290   20.2880 N   0  0  0  0  0  0  0  0  0  0  0  0
  -31.8040  -13.7450   21.3510 O   0  0  0  0  0  0  0  0  0  0  0  0
  -30.2940  -11.9980   21.8370 N   0  0  0  0  0  0  0  0  0  0  0  0
  -30.6890  -11.4640   21.0590 H   0  0  0  0  0  0  0  0  0  0  0  0
  -25.5060  -14.1410   19.9920 C   0  0  0  0  0  3  0  0  0  0  0  0
  -24.2610  -13.7550   20.7200 C   0  0  0  0  0  3  0  0  0  0  0  0
  -24.5940  -12.1350   20.5320 C   0  0  0  0  0  3  0  0  0  0  0  0
  -26.3690  -13.1170   19.8690 N   0  0  0  0  0  0  0  0  0  0  0  0
  -25.8780  -11.9250   20.2410 N   0  0  0  0  0  2  0  0  0  0  0  0
  -23.9200  -10.6950   20.8380 C   0  0  0  0  0  0  0  0  0  0  0  0
  -24.3550   -9.6630   21.7610 C   0  0  0  0  0  3  0  0  0  0  0  0
  -23.6510   -8.4390   22.0130 C   0  0  0  0  0  3  0  0  0  0  0  0
  -22.4650   -8.1310   21.3100 C   0  0  0  0  0  0  0  0  0  0  0  0
  -22.0630   -9.0680   20.3400 C   0  0  0  0  0  3  0  0  0  0  0  0
  -22.7850  -10.2650   20.0930 C   0  0  0  0  0  3  0  0  0  0  0  0
  -21.7240   -6.9600   21.4160 O   0  0  0  0  0  0  0  0  0  0  0  0
  -21.7340   -6.1260   22.5170 C   0  0  0  0  0  0  0  0  0  0  0  0
  -21.4350   -6.5990   23.8140 C   0  0  0  0  0  3  0  0  0  0  0  0
  -21.3760   -5.7040   24.9040 C   0  0  0  0  0  3  0  0  0  0  0  0
  -21.6050   -4.3290   24.7070 C   0  0  0  0  0  0  0  0  0  0  0  0
  -21.8820   -3.8460   23.4160 C   0  0  0  0  0  3  0  0  0  0  0  0
  -21.9370   -4.7380   22.3270 C   0  0  0  0  0  0  0  0  0  0  0  0
  -22.1720   -4.2480   21.0860 F   0  0  0  0  0  0  0  0  0  0  0  0
  -21.5550   -3.4710   25.7540 F   0  0  0  0  0  0  0  0  0  0  0  0
  -22.7270  -14.8080   22.2310 C   0  0  0  0  0  2  0  0  0  0  0  0
  -21.8410  -14.2580   23.1640 N   0  0  0  0  0  0  0  0  0  0  0  0
  -23.7110  -14.3330   21.1580 O   0  0  0  0  0  0  0  0  0  0  0  0
  -21.8070  -13.2690   23.3670 H   0  0  0  0  0  0  0  0  0  0  0  0
  -21.3660  -14.8870   23.7980 H   0  0  0  0  0  0  0  0  0  0  0  0
  -25.9160  -15.4130   19.6730 N   0  0  0  0  0  0  0  0  0  0  0  0
  -25.2200  -16.1400   19.5670 H   0  0  0  0  0  0  0  0  0  0  0  0
  -26.8250  -15.6860   19.3280 H   0  0  0  0  0  0  0  0  0  0  0  0
  3  8  1  0
  5 55  1  0
  7  8  1  0
  8  6  1  0
  9  2  1  0
 11 12  1  0
 14 13  1  0
 15 26  2  0
 16 14  1  0
 16 21  1  0
 17 25  1  0
 17 27  1  0
 18 24  1  0
 18 20  1  0
 19 25  1  0
 20 21  2  0
 20 19  1  0
 22 16  2  0
 23 22  1  0
 23 18  2  0
 24 17  1  0
 25 15  1  0
 27 29  2  0
 28 27  1  0
 30 28  1  0
 31 40  2  0
 31 36  1  0
 32 28  1  0
 32 36  1  0
 33 32  1  0
 34 35  1  0
 34 33  1  0
 35 31  1  0
 36 37  2  0
 37 38  1  0
 39 38  2  0
 40 39  1  0
 41 15  1  0
 41 46  1  0
 41 42  1  0
 42 45  1  1
 42 43  1  0
 44 42  1  0
 46 49  1  0
 47 51  1  0
 47 46  1  0
 48 47  2  0
 51 50  1  0
 53 51  1  0
 53 54  1  0
 53 52  1  0
 56 59  1  0
 56 58  1  0
 56 55  1  0
 57 56  1  0
 60 59  1  0
 61 68  2  0
 61 69  1  0
 62 67  1  0
 63 64  1  0
 63 62  1  0
 65 64  1  0
 65 74  1  0
 65 66  1  0
 67 66  1  0
 67 61  1  0
 69 60  1  0
 70 69  1  0
 71 96  1  0
 71 72  1  0
 72 93  1  0
 73 72  1  0
 73 76  1  0
 74 71  1  0
 74 75  1  0
 75 73  1  0
 76 77  1  0
 77 78  2  0
 79 82  1  0
 79 78  1  0
 80 79  2  0
 81 80  1  0
 81 76  2  0
 82 83  1  0
 83 84  1  0
 84 85  2  0
 86 85  1  0
 86 90  1  0
 87 86  2  0
 88 83  2  0
 88 87  1  0
 89 88  1  0
 91 92  1  0
 92 94  1  0
 92 95  1  0
 93 91  1  0
 97 96  1  0
 98 96  1  0
M  ISO  4  13 101  14 101  61 100  69 100
M  END
>  <TORSDO>  (29) 
F 25

>  <SCORE>  (29) 
35.759

>  <name>  (29) 
28

>  <ligand_id>  (29) 
28

>  <original_smiles>  (29) 
[H]c1c([H])c([H])c2c(c1[H])C([H])([H])C([H])([H])C([H])([H])C2([H])N([H])C(=O)C1([H])N(C(=O)C([H])(N([H])C(=O)C([H])(N([H])C([H])([H])[H])C([H])([H])[H])C(C([H])([H])[H])(C([H])([H])[H])C([H])([H])[H])C([H])([H])c2c([H])c(OC([H])([H])C([H])(C([H])([H])[H])C([H])([H])C([H])([H])c3nc([H])n(C([H])([H])[N+]([H])([H])C([H])([H])C([H])([H])N([H])C(=O)N4C([H])([H])C([H])([H])C([H])([H])C([H])(n5nc(-c6c([H])c([H])c(Oc7c([H])c([H])c(F)c([H])c7F)c([H])c6[H])c(C(=O)N([H])[H])c5N([H])[H])C4([H])[H])c3C([H])(C([H])([H])[H])C([H])([H])[H])c([H])c([H])c2C1([H])[H]

>  <smiles>  (29) 
[H]c1c([H])c([H])c2c(c1[H])C([H])([H])C([H])([H])C([H])([H])C2([H])N([H])C(=O)C1([H])N(C(=O)C([H])(N([H])C(=O)C([H])(N([H])C([H])([H])[H])C([H])([H])[H])C(C([H])([H])[H])(C([H])([H])[H])C([H])([H])[H])C([H])([H])c2c([H])c(OC([H])([H])C([H])(C([H])([H])[H])C([H])([H])C([H])([H])c3nc([H])n(C([H])([H])[N+]([H])([H])C([H])([H])C([H])([H])N([H])C(=O)N4C([H])([H])C([H])([H])C([H])([H])C([H])(n5nc(-c6c([H])c([H])c(Oc7c([H])c([H])c(F)c([H])c7F)c([H])c6[H])c(C(=O)N([H])[H])c5N([H])[H])C4([H])[H])c3C([H])(C([H])([H])[H])C([H])([H])[H])c([H])c([H])c2C1([H])[H]

$$$$
29:0:0
     RDKit          3D

102111  0  0  1  0  0  0  0  0999 V2000
  -27.1580  -20.2100   19.7430 C   0  0  0  0  0  1  0  0  0  0  0  0
  -28.5440  -20.8320   19.4760 C   0  0  0  0  0  3  0  0  0  0  0  0
  -27.7630  -22.9610   20.7250 C   0  0  0  0  0  3  0  0  0  0  0  0
  -27.6280  -24.3640   20.8320 C   0  0  0  0  0  3  0  0  0  0  0  0
  -28.4950  -22.3870   19.6530 C   0  0  0  0  0  0  0  0  0  0  0  0
  -29.1030  -23.3130   18.7520 C   0  0  0  0  0  0  0  0  0  0  0  0
  -28.2260  -25.1890   19.8620 C   0  0  0  0  0  0  0  0  0  0  0  0
  -28.9570  -24.6580   18.8640 N   0  0  0  0  0  0  0  0  0  0  0  0
  -31.3980  -23.4960   17.6590 C   0  0  0  0  0  1  0  0  0  0  0  0
  -29.9750  -22.9190   17.5600 C   0  0  0  0  0  2  0  0  0  0  0  0
  -28.2050  -26.5790   19.8830 O   0  0  0  0  0  0  0  0  0  0  0  0
  -24.5140  -31.7750   23.1250 C   0  0  0  0  0  0  0  0  0  0  0  0
  -27.0280  -27.3040   19.9590 C   0  0  0  0  0  0  0  0  0  0  0  0
  -23.2470  -30.3820   21.5210 C   0  0  0  0  0  3  0  0  0  0  0  0
  -24.6440  -28.8370   20.0460 C   0  0  0  0  0  0  0  0  0  0  0  0
  -25.7670  -30.7250   21.2400 C   0  0  0  0  0  2  0  0  0  0  0  0
  -25.8240  -29.3500   20.6020 C   0  0  0  0  0  0  0  0  0  0  0  0
  -27.0160  -28.5880   20.5600 C   0  0  0  0  0  3  0  0  0  0  0  0
  -25.8320  -26.8190   19.3850 C   0  0  0  0  0  3  0  0  0  0  0  0
  -24.6430  -27.5700   19.4370 C   0  0  0  0  0  3  0  0  0  0  0  0
  -23.4060  -29.7030   20.1340 C   0  0  0  0  0  2  0  0  0  0  0  0
  -24.5310  -30.9780   22.0190 N   0  0  0  0  0  0  0  0  0  0  0  0
  -23.4530  -32.0480   23.7040 O   0  0  0  0  0  0  0  0  0  0  0  0
  -22.6240  -29.3630   22.5020 C   0  0  0  0  0  0  0  0  0  0  0  0
  -21.3050  -29.1480   22.3880 N   0  0  0  0  0  0  0  0  0  0  0  0
  -23.3280  -28.7620   23.3200 O   0  0  0  0  0  0  0  0  0  0  0  0
  -20.7970  -29.6830   21.6990 H   0  0  0  0  0  0  0  0  0  0  0  0
  -17.9700  -27.8510   22.8900 C   0  0  0  0  0  0  0  0  0  0  0  0
  -20.5140  -28.2030   23.1770 C   0  0  0  0  0  3  0  0  0  0  0  0
  -20.6710  -26.7610   22.6430 C   0  0  0  0  0  2  0  0  0  0  0  0
  -19.5910  -26.3740   21.6280 C   0  0  0  0  0  2  0  0  0  0  0  0
  -18.1980  -26.4910   22.2540 C   0  0  0  0  0  2  0  0  0  0  0  0
  -19.0570  -28.6620   23.3090 C   0  0  0  0  0  0  0  0  0  0  0  0
  -18.7900  -29.9340   23.8590 C   0  0  0  0  0  3  0  0  0  0  0  0
  -17.4670  -30.3950   24.0000 C   0  0  0  0  0  3  0  0  0  0  0  0
  -16.3940  -29.5820   23.6000 C   0  0  0  0  0  3  0  0  0  0  0  0
  -16.6450  -28.3120   23.0490 C   0  0  0  0  0  3  0  0  0  0  0  0
  -25.8230  -32.4010   23.7000 C   0  0  0  0  0  3  0  0  0  0  0  0
  -25.5180  -33.7840   24.0900 N   0  0  0  0  0  0  0  0  0  0  0  0
  -25.8000  -34.8630   23.3470 C   0  0  0  0  0  0  0  0  0  0  0  0
  -26.4160  -34.8000   22.2790 O   0  0  0  0  0  0  0  0  0  0  0  0
  -24.9670  -33.9090   24.9280 H   0  0  0  0  0  0  0  0  0  0  0  0
  -24.0510  -36.6560   23.1190 C   0  0  0  0  0  1  0  0  0  0  0  0
  -25.3220  -36.2310   23.8720 C   0  0  0  0  0  3  0  0  0  0  0  0
  -27.4780  -37.1000   24.6630 C   0  0  0  0  0  1  0  0  0  0  0  0
  -26.3450  -37.2940   23.7630 N   0  0  0  0  0  0  0  0  0  0  0  0
  -25.9380  -38.2050   23.9550 H   0  0  0  0  0  0  0  0  0  0  0  0
  -26.4120  -31.5950   24.9220 C   0  0  1  0  0  0  0  0  0  0  0  0
  -25.3760  -31.3040   26.0330 C   0  0  0  0  0  1  0  0  0  0  0  0
  -26.9950  -30.2410   24.4520 C   0  0  0  0  0  1  0  0  0  0  0  0
  -27.5830  -32.3830   25.5560 C   0  0  0  0  0  1  0  0  0  0  0  0
  -31.0260  -20.8480   20.1440 C   0  0  0  0  0  1  0  0  0  0  0  0
  -29.6890  -20.0720   20.2560 C   0  0  0  0  0  3  0  0  0  0  0  0
  -29.7890  -18.6010   19.8900 N   0  0  0  0  0  4  0  0  0  0  0  0
  -29.0420  -18.1290   20.3760 H   0  0  0  0  0  0  0  0  0  0  0  0
  -29.6060  -18.4860   18.9060 H   0  0  0  0  0  0  0  0  0  0  0  0
  -32.0900  -17.9370   19.0600 C   0  0  0  0  0  2  0  0  0  0  0  0
  -33.4620  -17.3820   19.4930 C   0  0  0  0  0  2  0  0  0  0  0  0
  -32.3870  -15.9050   21.1590 C   0  0  0  0  0  2  0  0  0  0  0  0
  -30.9650  -16.3960   20.7610 C   0  0  0  0  0  3  0  0  0  0  0  0
  -31.0630  -17.8750   20.2150 C   0  0  0  0  0  3  0  0  0  0  0  0
  -33.3390  -16.0100   20.0300 N   0  0  0  0  0  4  0  0  0  0  0  0
  -34.2470  -15.6750   20.3150 H   0  0  0  0  0  0  0  0  0  0  0  0
  -33.0020  -15.4080   19.2810 H   0  0  0  0  0  0  0  0  0  0  0  0
  -30.6470  -14.3780   19.2060 C   0  0  0  0  0  0  0  0  0  0  0  0
  -30.0590  -12.2570   18.0700 C   0  0  0  0  0  2  0  0  0  0  0  0
  -28.8990  -12.4700   17.0770 C   0  0  0  0  0  2  0  0  0  0  0  0
  -27.5390  -12.3450   17.7910 C   0  0  0  0  0  2  0  0  0  0  0  0
  -27.4680  -13.1810   19.0960 C   0  0  0  0  0  3  0  0  0  0  0  0
  -28.7160  -12.9430   19.9730 C   0  0  0  0  0  2  0  0  0  0  0  0
  -29.9000  -13.2400   19.1530 N   0  0  0  0  0  0  0  0  0  0  0  0
  -31.6730  -14.5360   18.5420 O   0  0  0  0  0  0  0  0  0  0  0  0
  -30.1940  -15.3560   20.0230 N   0  0  0  0  0  0  0  0  0  0  0  0
  -29.2900  -15.1440   20.4220 H   0  0  0  0  0  0  0  0  0  0  0  0
  -25.3240  -13.8390   20.3530 C   0  0  0  0  0  0  0  0  0  0  0  0
  -24.3040  -13.0910   20.8750 C   0  0  0  0  0  0  0  0  0  0  0  0
  -24.6530  -11.7270   20.6360 C   0  0  0  0  0  0  0  0  0  0  0  0
  -26.2320  -12.9310   19.8310 N   0  0  0  0  0  0  0  0  0  0  0  0
  -25.8450  -11.6500   20.0590 N   0  0  0  0  0  0  0  0  0  0  0  0
  -23.8960  -10.4910   20.8730 C   0  0  0  0  0  0  0  0  0  0  0  0
  -24.3880   -9.4750   21.7220 C   0  0  0  0  0  3  0  0  0  0  0  0
  -23.6320   -8.3030   21.9460 C   0  0  0  0  0  3  0  0  0  0  0  0
  -22.3720   -8.1420   21.3240 C   0  0  0  0  0  0  0  0  0  0  0  0
  -21.8990   -9.1460   20.4620 C   0  0  0  0  0  3  0  0  0  0  0  0
  -22.6530  -10.3090   20.2350 C   0  0  0  0  0  3  0  0  0  0  0  0
  -21.5810   -7.0280   21.4640 O   0  0  0  0  0  0  0  0  0  0  0  0
  -21.5760   -6.2880   22.6200 C   0  0  0  0  0  0  0  0  0  0  0  0
  -21.2060   -6.8510   23.8620 C   0  0  0  0  0  3  0  0  0  0  0  0
  -21.1460   -6.0390   25.0130 C   0  0  0  0  0  3  0  0  0  0  0  0
  -21.4470   -4.6670   24.9230 C   0  0  0  0  0  0  0  0  0  0  0  0
  -21.8100   -4.1050   23.6870 C   0  0  0  0  0  3  0  0  0  0  0  0
  -21.8720   -4.9130   22.5390 C   0  0  0  0  0  0  0  0  0  0  0  0
  -22.2010   -4.3620   21.3450 F   0  0  0  0  0  0  0  0  0  0  0  0
  -21.3820   -3.8850   26.0260 F   0  0  0  0  0  0  0  0  0  0  0  0
  -23.0310  -13.6120   21.4760 C   0  0  0  0  0  0  0  0  0  0  0  0
  -22.4730  -12.8950   22.4460 N   0  0  0  0  0  0  0  0  0  0  0  0
  -22.5480  -14.6860   21.1210 O   0  0  0  0  0  0  0  0  0  0  0  0
  -22.8830  -12.0240   22.7520 H   0  0  0  0  0  0  0  0  0  0  0  0
  -21.6270  -13.2200   22.8890 H   0  0  0  0  0  0  0  0  0  0  0  0
  -25.5460  -15.2100   20.2550 N   0  0  0  0  0  0  0  0  0  0  0  0
  -24.8610  -15.8890   20.5680 H   0  0  0  0  0  0  0  0  0  0  0  0
  -26.3130  -15.6300   19.7460 H   0  0  0  0  0  0  0  0  0  0  0  0
  2  5  1  0
  2  1  1  0
  2 53  1  0
  3  4  2  0
  5  3  1  0
  6  8  1  0
  6  5  2  0
  7 11  1  0
  7  4  1  0
  8  7  2  0
 10  9  1  0
 10  6  1  0
 11 13  1  0
 12 23  2  0
 13 18  1  0
 14 22  1  0
 14 24  1  0
 15 21  1  0
 15 17  1  0
 16 22  1  0
 17 16  1  0
 18 17  2  0
 19 20  1  0
 19 13  2  0
 20 15  2  0
 21 14  1  0
 22 12  1  0
 24 26  2  0
 25 24  1  0
 27 25  1  0
 28 37  2  0
 28 33  1  0
 29 25  1  0
 29 33  1  0
 30 29  1  0
 31 32  1  0
 31 30  1  0
 32 28  1  0
 33 34  2  0
 34 35  1  0
 36 35  2  0
 37 36  1  0
 38 12  1  0
 38 39  1  0
 38 48  1  0
 39 42  1  0
 40 44  1  0
 40 39  1  0
 41 40  2  0
 44 43  1  0
 46 44  1  0
 46 47  1  0
 46 45  1  0
 48 51  1  1
 48 49  1  0
 50 48  1  0
 53 52  1  0
 54 53  1  0
 54 55  1  0
 56 54  1  0
 57 58  1  0
 57 61  1  0
 58 62  1  0
 60 73  1  0
 60 59  1  0
 61 54  1  0
 61 60  1  0
 62 63  1  0
 62 59  1  0
 64 62  1  0
 65 73  1  0
 66 71  1  0
 67 68  1  0
 67 66  1  0
 69 68  1  0
 69 78  1  0
 69 70  1  0
 71 65  1  0
 71 70  1  0
 72 65  2  0
 73 74  1  0
 75 76  2  0
 76 95  1  0
 77 80  1  0
 77 76  1  0
 78 79  1  0
 78 75  1  0
 79 77  2  0
 80 81  1  0
 81 82  2  0
 83 86  1  0
 83 82  1  0
 84 83  2  0
 85 84  1  0
 85 80  2  0
 86 87  1  0
 87 88  1  0
 88 89  2  0
 90 89  1  0
 90 94  1  0
 91 90  2  0
 92 87  2  0
 92 91  1  0
 93 92  1  0
 95 96  1  0
 96 98  1  0
 96 99  1  0
 97 95  2  0
100 75  1  0
100101  1  0
102100  1  0
M  ISO  4   7 101  11 101  65 100  73 100
M  END
>  <TORSDO>  (30) 
F 21

>  <SCORE>  (30) 
-10.452

>  <name>  (30) 
29

>  <ligand_id>  (30) 
29

>  <original_smiles>  (30) 
[H]c1c(Oc2c([H])c([H])c3c(c2[H])C([H])([H])N(C(=O)C([H])(N([H])C(=O)C([H])(N([H])C([H])([H])[H])C([H])([H])[H])C(C([H])([H])[H])(C([H])([H])[H])C([H])([H])[H])C([H])(C(=O)N([H])C2([H])c4c([H])c([H])c([H])c([H])c4C([H])([H])C([H])([H])C2([H])[H])C3([H])[H])nc(C([H])([H])C([H])([H])[H])c(C([H])(C([H])([H])[H])C([H])(C([H])([H])[H])[N+]([H])([H])C2([H])C([H])([H])C([H])([H])[N+]([H])([H])C([H])([H])C2([H])N([H])C(=O)N2C([H])([H])C([H])([H])C([H])([H])C([H])(n3nc(-c4c([H])c([H])c(Oc5c([H])c([H])c(F)c([H])c5F)c([H])c4[H])c(C(=O)N([H])[H])c3N([H])[H])C2([H])[H])c1[H]

>  <smiles>  (30) 
[H]c1c(Oc2c([H])c([H])c3c(c2[H])C([H])([H])N(C(=O)C([H])(N([H])C(=O)C([H])(N([H])C([H])([H])[H])C([H])([H])[H])C(C([H])([H])[H])(C([H])([H])[H])C([H])([H])[H])C([H])(C(=O)N([H])C2([H])c4c([H])c([H])c([H])c([H])c4C([H])([H])C([H])([H])C2([H])[H])C3([H])[H])nc(C([H])([H])C([H])([H])[H])c(C([H])(C([H])([H])[H])C([H])(C([H])([H])[H])[N+]([H])([H])C2([H])C([H])([H])C([H])([H])[N+]([H])([H])C([H])([H])C2([H])N([H])C(=O)N2C([H])([H])C([H])([H])C([H])([H])C([H])(n3nc(-c4c([H])c([H])c(Oc5c([H])c([H])c(F)c([H])c5F)c([H])c4[H])c(C(=O)N([H])[H])c3N([H])[H])C2([H])[H])c1[H]

$$$$
30:0:0
     RDKit          3D

 91 99  0  0  1  0  0  0  0  0999 V2000
  -29.6070  -22.7280   21.4590 C   0  0  0  0  0  2  0  0  0  0  0  0
  -29.5300  -21.1370   21.5840 C   0  0  0  0  0  2  0  0  0  0  0  0
  -28.3700  -22.5900   19.3350 C   0  0  0  0  0  2  0  0  0  0  0  0
  -28.3930  -23.3700   20.6960 C   0  0  0  0  0  3  0  0  0  0  0  0
  -29.3580  -20.3150   20.2500 C   0  0  0  0  0  3  0  0  0  0  0  0
  -28.2920  -21.0680   19.4750 N   0  0  0  0  0  4  0  0  0  0  0  0
  -28.2630  -20.6890   18.5420 H   0  0  0  0  0  0  0  0  0  0  0  0
  -27.4000  -20.8570   19.8910 H   0  0  0  0  0  0  0  0  0  0  0  0
  -28.0050  -25.2760   22.4110 C   0  0  0  0  0  1  0  0  0  0  0  0
  -27.8940  -24.9560   20.9090 C   0  0  0  0  0  3  0  0  0  0  0  0
  -28.2480  -26.2920   20.2610 O   0  0  0  0  0  0  0  0  0  0  0  0
  -24.6130  -31.9010   23.2440 C   0  0  0  0  0  0  0  0  0  0  0  0
  -27.2030  -27.2640   20.1940 C   0  0  0  0  0  0  0  0  0  0  0  0
  -23.4090  -30.4990   21.6120 C   0  0  0  0  0  3  0  0  0  0  0  0
  -24.8580  -28.9430   20.1730 C   0  0  0  0  0  0  0  0  0  0  0  0
  -25.9550  -30.7950   21.4290 C   0  0  0  0  0  2  0  0  0  0  0  0
  -26.0340  -29.4100   20.7780 C   0  0  0  0  0  0  0  0  0  0  0  0
  -27.2120  -28.5830   20.7760 C   0  0  0  0  0  3  0  0  0  0  0  0
  -26.0120  -26.8910   19.5320 C   0  0  0  0  0  3  0  0  0  0  0  0
  -24.8550  -27.6950   19.5350 C   0  0  0  0  0  3  0  0  0  0  0  0
  -23.6240  -29.8250   20.2310 C   0  0  0  0  0  2  0  0  0  0  0  0
  -24.6790  -31.0830   22.1500 N   0  0  0  0  0  0  0  0  0  0  0  0
  -23.5290  -32.1810   23.7790 O   0  0  0  0  0  0  0  0  0  0  0  0
  -22.7440  -29.4870   22.5770 C   0  0  0  0  0  0  0  0  0  0  0  0
  -21.4170  -29.3060   22.4510 N   0  0  0  0  0  0  0  0  0  0  0  0
  -23.4230  -28.8660   23.3990 O   0  0  0  0  0  0  0  0  0  0  0  0
  -20.9260  -29.8600   21.7630 H   0  0  0  0  0  0  0  0  0  0  0  0
  -18.0440  -28.0910   22.9590 C   0  0  0  0  0  0  0  0  0  0  0  0
  -20.6020  -28.3670   23.2260 C   0  0  0  0  0  3  0  0  0  0  0  0
  -20.7140  -26.9340   22.6550 C   0  0  0  0  0  2  0  0  0  0  0  0
  -19.6120  -26.6010   21.6440 C   0  0  0  0  0  2  0  0  0  0  0  0
  -18.2300  -26.7400   22.2890 C   0  0  0  0  0  2  0  0  0  0  0  0
  -19.1600  -28.8630   23.3850 C   0  0  0  0  0  0  0  0  0  0  0  0
  -18.9320  -30.1250   23.9740 C   0  0  0  0  0  3  0  0  0  0  0  0
  -17.6240  -30.6180   24.1400 C   0  0  0  0  0  3  0  0  0  0  0  0
  -16.5240  -29.8450   23.7290 C   0  0  0  0  0  3  0  0  0  0  0  0
  -16.7360  -28.5840   23.1460 C   0  0  0  0  0  3  0  0  0  0  0  0
  -25.8940  -32.5390   23.8620 C   0  0  0  0  0  3  0  0  0  0  0  0
  -26.4100  -31.7760   25.1430 C   0  0  1  0  0  0  0  0  0  0  0  0
  -25.3170  -31.5450   26.2120 C   0  0  0  0  0  1  0  0  0  0  0  0
  -26.9940  -30.3950   24.7640 C   0  0  0  0  0  1  0  0  0  0  0  0
  -27.5630  -32.5730   25.7990 C   0  0  0  0  0  1  0  0  0  0  0  0
  -25.5830  -33.9400   24.1880 N   0  0  0  0  0  0  0  0  0  0  0  0
  -25.9110  -34.9910   23.4260 C   0  0  0  0  0  0  0  0  0  0  0  0
  -26.5750  -34.8840   22.3910 O   0  0  0  0  0  0  0  0  0  0  0  0
  -24.9950  -34.0960   24.9920 H   0  0  0  0  0  0  0  0  0  0  0  0
  -24.1840  -36.7860   23.0720 C   0  0  0  0  0  1  0  0  0  0  0  0
  -25.4270  -36.3820   23.8810 C   0  0  0  0  0  3  0  0  0  0  0  0
  -27.5650  -37.2670   24.7040 C   0  0  0  0  0  1  0  0  0  0  0  0
  -26.4610  -37.4340   23.7630 N   0  0  0  0  0  0  0  0  0  0  0  0
  -26.0550  -38.3540   23.9090 H   0  0  0  0  0  0  0  0  0  0  0  0
  -29.0660  -18.6800   20.3670 C   0  0  0  0  0  3  0  0  0  0  0  0
  -30.1850  -17.4960   20.5940 C   0  0  0  0  0  3  0  0  0  0  0  0
  -30.5530  -14.8470   20.3610 C   0  0  0  0  0  0  0  0  0  0  0  0
  -30.3740  -12.5480   19.3600 C   0  0  0  0  0  2  0  0  0  0  0  0
  -29.4390  -12.5830   18.1310 C   0  0  0  0  0  2  0  0  0  0  0  0
  -27.9700  -12.4000   18.5590 C   0  0  0  0  0  2  0  0  0  0  0  0
  -27.5820  -13.3030   19.7600 C   0  0  0  0  0  3  0  0  0  0  0  0
  -28.6390  -13.2450   20.8860 C   0  0  0  0  0  2  0  0  0  0  0  0
  -29.9300  -13.6150   20.2910 N   0  0  0  0  0  0  0  0  0  0  0  0
  -31.7410  -14.9390   20.0360 O   0  0  0  0  0  0  0  0  0  0  0  0
  -29.7890  -15.9940   20.5970 N   0  0  0  0  0  0  0  0  0  0  0  0
  -28.8230  -15.8010   20.8140 H   0  0  0  0  0  0  0  0  0  0  0  0
  -25.1930  -13.8890   20.4870 C   0  0  0  0  0  0  0  0  0  0  0  0
  -24.1280  -13.1120   20.8560 C   0  0  0  0  0  0  0  0  0  0  0  0
  -24.5960  -11.7620   20.8310 C   0  0  0  0  0  0  0  0  0  0  0  0
  -26.2390  -13.0110   20.2540 N   0  0  0  0  0  0  0  0  0  0  0  0
  -25.8880  -11.7280   20.5260 N   0  0  0  0  0  0  0  0  0  0  0  0
  -23.8720  -10.4970   21.0210 C   0  0  0  0  0  0  0  0  0  0  0  0
  -24.2980   -9.5350   21.9630 C   0  0  0  0  0  3  0  0  0  0  0  0
  -23.5720   -8.3380   22.1440 C   0  0  0  0  0  3  0  0  0  0  0  0
  -22.4060   -8.0930   21.3800 C   0  0  0  0  0  0  0  0  0  0  0  0
  -21.9990   -9.0420   20.4260 C   0  0  0  0  0  3  0  0  0  0  0  0
  -22.7260  -10.2310   20.2450 C   0  0  0  0  0  3  0  0  0  0  0  0
  -21.6520   -6.9480   21.4700 O   0  0  0  0  0  0  0  0  0  0  0  0
  -21.5890   -6.2160   22.6290 C   0  0  0  0  0  0  0  0  0  0  0  0
  -21.1370   -6.7780   23.8430 C   0  0  0  0  0  3  0  0  0  0  0  0
  -21.0230   -5.9720   24.9930 C   0  0  0  0  0  3  0  0  0  0  0  0
  -21.3510   -4.6050   24.9300 C   0  0  0  0  0  0  0  0  0  0  0  0
  -21.7950   -4.0410   23.7220 C   0  0  0  0  0  3  0  0  0  0  0  0
  -21.9130   -4.8450   22.5740 C   0  0  0  0  0  0  0  0  0  0  0  0
  -22.3220   -4.2930   21.4060 F   0  0  0  0  0  0  0  0  0  0  0  0
  -21.2340   -3.8280   26.0330 F   0  0  0  0  0  0  0  0  0  0  0  0
  -22.7280  -13.5860   21.1200 C   0  0  0  0  0  0  0  0  0  0  0  0
  -21.9960  -12.8890   21.9820 N   0  0  0  0  0  0  0  0  0  0  0  0
  -22.2920  -14.6110   20.5980 O   0  0  0  0  0  0  0  0  0  0  0  0
  -22.3600  -12.0600   22.4290 H   0  0  0  0  0  0  0  0  0  0  0  0
  -21.0570  -13.1910   22.2010 H   0  0  0  0  0  0  0  0  0  0  0  0
  -25.3520  -15.2590   20.3050 N   0  0  0  0  0  0  0  0  0  0  0  0
  -24.5790  -15.9080   20.4100 H   0  0  0  0  0  0  0  0  0  0  0  0
  -26.1900  -15.7020   19.9510 H   0  0  0  0  0  0  0  0  0  0  0  0
  1  2  1  0
  3  6  1  0
  3  4  1  0
  4 10  1  0
  4  1  1  0
  5 52  1  0
  5  2  1  0
  6  8  1  0
  6  5  1  0
  7  6  1  0
 10  9  1  0
 11 10  1  0
 12 23  2  0
 13 11  1  0
 13 18  1  0
 14 22  1  0
 14 24  1  0
 15 21  1  0
 15 17  1  0
 16 22  1  0
 17 16  1  0
 18 17  2  0
 19 20  1  0
 19 13  2  0
 20 15  2  0
 21 14  1  0
 22 12  1  0
 24 26  2  0
 25 24  1  0
 27 25  1  0
 28 37  2  0
 28 33  1  0
 29 25  1  0
 29 33  1  0
 30 29  1  0
 31 32  1  0
 31 30  1  0
 32 28  1  0
 33 34  2  0
 34 35  1  0
 36 35  2  0
 37 36  1  0
 38 12  1  0
 38 43  1  0
 38 39  1  0
 39 42  1  1
 39 40  1  0
 41 39  1  0
 43 46  1  0
 44 48  1  0
 44 43  1  0
 45 44  2  0
 48 47  1  0
 50 48  1  0
 50 51  1  0
 50 49  1  0
 52 53  2  0
 53 62  1  0
 54 62  1  0
 55 60  1  0
 56 57  1  0
 56 55  1  0
 58 57  1  0
 58 67  1  0
 58 59  1  0
 60 54  1  0
 60 59  1  0
 61 54  2  0
 62 63  1  0
 64 65  2  0
 65 84  1  0
 66 65  1  0
 66 69  1  0
 67 64  1  0
 67 68  1  0
 68 66  2  0
 69 70  1  0
 70 71  2  0
 72 75  1  0
 72 71  1  0
 73 72  2  0
 74 73  1  0
 74 69  2  0
 75 76  1  0
 76 77  1  0
 77 78  2  0
 79 78  1  0
 79 83  1  0
 80 79  2  0
 81 76  2  0
 81 80  1  0
 82 81  1  0
 84 85  1  0
 85 88  1  0
 85 87  1  0
 86 84  2  0
 89 90  1  0
 89 64  1  0
 91 89  1  0
M  ISO  4  10 101  11 101  54 100  62 100
M  END
>  <TORSDO>  (31) 
F 19

>  <SCORE>  (31) 
-14.224

>  <name>  (31) 
30

>  <ligand_id>  (31) 
30

>  <original_smiles>  (31) 
[H]c1c([H])c([H])c2c(c1[H])C([H])([H])C([H])([H])C([H])([H])C2([H])N([H])C(=O)C1([H])N(C(=O)C([H])(N([H])C(=O)C([H])(N([H])C([H])([H])[H])C([H])([H])[H])C(C([H])([H])[H])(C([H])([H])[H])C([H])([H])[H])C([H])([H])c2c([H])c(OC([H])(C([H])([H])[H])C3([H])C([H])([H])C([H])([H])C([H])(C([H])([H])C([H])([H])N([H])C(=O)N4C([H])([H])C([H])([H])C([H])([H])C([H])(n5nc(-c6c([H])c([H])c(Oc7c([H])c([H])c(F)c([H])c7F)c([H])c6[H])c(C(=O)N([H])[H])c5N([H])[H])C4([H])[H])[N+]([H])([H])C3([H])[H])c([H])c([H])c2C1([H])[H]

>  <smiles>  (31) 
[H]c1c([H])c([H])c2c(c1[H])C([H])([H])C([H])([H])C([H])([H])C2([H])N([H])C(=O)C1([H])N(C(=O)C([H])(N([H])C(=O)C([H])(N([H])C([H])([H])[H])C([H])([H])[H])C(C([H])([H])[H])(C([H])([H])[H])C([H])([H])[H])C([H])([H])c2c([H])c(OC([H])(C([H])([H])[H])C3([H])C([H])([H])C([H])([H])C([H])(C([H])([H])C([H])([H])N([H])C(=O)N4C([H])([H])C([H])([H])C([H])([H])C([H])(n5nc(-c6c([H])c([H])c(Oc7c([H])c([H])c(F)c([H])c7F)c([H])c6[H])c(C(=O)N([H])[H])c5N([H])[H])C4([H])[H])[N+]([H])([H])C3([H])[H])c([H])c([H])c2C1([H])[H]

$$$$
31:0:0
     RDKit          3D

 98107  0  0  1  0  0  0  0  0999 V2000
  -28.6840  -20.6950   20.3620 C   0  0  0  0  0  0  0  0  0  0  0  0
  -30.0340  -23.8680   19.6450 C   0  0  0  0  0  2  0  0  0  0  0  0
  -30.8990  -21.8450   20.8720 C   0  0  0  0  0  2  0  0  0  0  0  0
  -30.1490  -21.5960   18.4970 C   0  0  0  0  0  2  0  0  0  0  0  0
  -28.7350  -22.8540   21.6410 C   0  0  0  0  0  2  0  0  0  0  0  0
  -30.1140  -23.1530   21.0110 C   0  0  0  0  0  3  0  0  0  0  0  0
  -29.4570  -22.9910   18.5070 C   0  0  0  0  0  3  0  0  0  0  0  0
  -30.1550  -20.8970   19.8990 C   0  0  2  0  0  0  0  0  0  0  0  0
  -28.1050  -21.6350   21.1250 N   0  0  0  0  0  0  0  0  0  0  0  0
  -28.0640  -19.6850   20.0330 O   0  0  0  0  0  0  0  0  0  0  0  0
  -27.1430  -21.4770   21.3970 H   0  0  0  0  0  0  0  0  0  0  0  0
  -29.4760  -23.7500   17.1520 C   0  0  0  0  0  2  0  0  0  0  0  0
  -28.2680  -24.7080   17.0500 C   0  0  0  0  0  2  0  0  0  0  0  0
  -28.5720  -26.1070   17.1640 O   0  0  0  0  0  0  0  0  0  0  0  0
  -25.5290  -28.8630   22.9710 C   0  0  0  0  0  0  0  0  0  0  0  0
  -27.5380  -26.8810   17.6580 C   0  0  0  0  0  0  0  0  0  0  0  0
  -24.1540  -28.8900   20.9170 C   0  0  0  0  0  3  0  0  0  0  0  0
  -25.3870  -28.3650   18.7500 C   0  0  0  0  0  0  0  0  0  0  0  0
  -26.7080  -28.9830   20.7780 C   0  0  0  0  0  2  0  0  0  0  0  0
  -26.6020  -28.2780   19.4410 C   0  0  0  0  0  0  0  0  0  0  0  0
  -27.6820  -27.5450   18.8970 C   0  0  0  0  0  3  0  0  0  0  0  0
  -26.3090  -27.0100   16.9620 C   0  0  0  0  0  3  0  0  0  0  0  0
  -25.2350  -27.7330   17.5070 C   0  0  0  0  0  3  0  0  0  0  0  0
  -24.2780  -29.1620   19.3960 C   0  0  0  0  0  2  0  0  0  0  0  0
  -25.4830  -28.8850   21.6090 N   0  0  0  0  0  0  0  0  0  0  0  0
  -24.4930  -28.8850   23.6490 O   0  0  0  0  0  0  0  0  0  0  0  0
  -23.3500  -27.5850   21.1230 C   0  0  0  0  0  0  0  0  0  0  0  0
  -22.0250  -27.6590   20.9190 N   0  0  0  0  0  0  0  0  0  0  0  0
  -23.9200  -26.5350   21.4330 O   0  0  0  0  0  0  0  0  0  0  0  0
  -21.6350  -28.5580   20.6730 H   0  0  0  0  0  0  0  0  0  0  0  0
  -18.5470  -26.7600   20.5260 C   0  0  0  0  0  0  0  0  0  0  0  0
  -21.0760  -26.5510   21.0210 C   0  0  0  0  0  3  0  0  0  0  0  0
  -21.1420  -25.6440   19.7690 C   0  0  0  0  0  2  0  0  0  0  0  0
  -20.1290  -26.0340   18.6890 C   0  0  0  0  0  2  0  0  0  0  0  0
  -18.7010  -25.9660   19.2410 C   0  0  0  0  0  2  0  0  0  0  0  0
  -19.6650  -27.0480   21.3540 C   0  0  0  0  0  0  0  0  0  0  0  0
  -19.4730  -27.8200   22.5210 C   0  0  0  0  0  3  0  0  0  0  0  0
  -18.1940  -28.2970   22.8650 C   0  0  0  0  0  3  0  0  0  0  0  0
  -17.0890  -27.9960   22.0510 C   0  0  0  0  0  3  0  0  0  0  0  0
  -17.2670  -27.2260   20.8870 C   0  0  0  0  0  3  0  0  0  0  0  0
  -26.8860  -28.8310   23.7400 C   0  0  0  0  0  3  0  0  0  0  0  0
  -26.7390  -29.6800   24.9300 N   0  0  0  0  0  0  0  0  0  0  0  0
  -27.2570  -30.9090   25.0560 C   0  0  0  0  0  0  0  0  0  0  0  0
  -27.9800  -31.4210   24.1980 O   0  0  0  0  0  0  0  0  0  0  0  0
  -26.1140  -29.3450   25.6490 H   0  0  0  0  0  0  0  0  0  0  0  0
  -25.8490  -32.7500   26.0300 C   0  0  0  0  0  1  0  0  0  0  0  0
  -26.9200  -31.6920   26.3390 C   0  0  0  0  0  3  0  0  0  0  0  0
  -29.0430  -31.3890   27.5330 C   0  0  0  0  0  1  0  0  0  0  0  0
  -28.0960  -32.3410   26.9590 N   0  0  0  0  0  0  0  0  0  0  0  0
  -27.8090  -32.9840   27.6910 H   0  0  0  0  0  0  0  0  0  0  0  0
  -27.3390  -27.3740   24.1450 C   0  0  1  0  0  0  0  0  0  0  0  0
  -26.2470  -26.5690   24.8880 C   0  0  0  0  0  1  0  0  0  0  0  0
  -27.7530  -26.5650   22.8950 C   0  0  0  0  0  1  0  0  0  0  0  0
  -28.5840  -27.4460   25.0590 C   0  0  0  0  0  1  0  0  0  0  0  0
  -30.9090  -19.5280   19.8300 C   0  0  0  0  0  2  0  0  0  0  0  0
  -30.4640  -18.5350   20.8480 N   0  0  0  0  0  4  0  0  0  0  0  0
  -29.6670  -18.0230   20.5040 H   0  0  0  0  0  0  0  0  0  0  0  0
  -30.1710  -19.0440   21.6660 H   0  0  0  0  0  0  0  0  0  0  0  0
  -31.4940  -17.5760   21.3100 C   0  0  0  0  0  2  0  0  0  0  0  0
  -31.9350  -16.5730   20.2260 C   0  0  0  0  0  2  0  0  0  0  0  0
  -31.5640  -14.2350   19.5450 C   0  0  0  0  0  0  0  0  0  0  0  0
  -31.1480  -11.8710   18.9920 C   0  0  0  0  0  2  0  0  0  0  0  0
  -30.1250  -11.7350   17.8490 C   0  0  0  0  0  2  0  0  0  0  0  0
  -28.6890  -11.7260   18.4030 C   0  0  0  0  0  2  0  0  0  0  0  0
  -28.4260  -12.8910   19.3940 C   0  0  0  0  0  3  0  0  0  0  0  0
  -29.5540  -12.9940   20.4460 C   0  0  0  0  0  2  0  0  0  0  0  0
  -30.8450  -13.0990   19.7410 N   0  0  0  0  0  0  0  0  0  0  0  0
  -32.5360  -14.2960   18.7870 O   0  0  0  0  0  0  0  0  0  0  0  0
  -31.1840  -15.3120   20.2480 N   0  0  0  0  0  0  0  0  0  0  0  0
  -30.4060  -15.2030   20.8810 H   0  0  0  0  0  0  0  0  0  0  0  0
  -26.2380  -13.7610   20.4360 C   0  0  0  0  0  0  0  0  0  0  0  0
  -25.1200  -13.1150   20.8880 C   0  0  0  0  0  0  0  0  0  0  0  0
  -25.3720  -11.7190   20.7120 C   0  0  0  0  0  0  0  0  0  0  0  0
  -27.1110  -12.7680   20.0200 N   0  0  0  0  0  0  0  0  0  0  0  0
  -26.5970  -11.5290   20.2400 N   0  0  0  0  0  0  0  0  0  0  0  0
  -24.4970  -10.5570   20.9120 C   0  0  0  0  0  0  0  0  0  0  0  0
  -24.8460   -9.5140   21.7980 C   0  0  0  0  0  3  0  0  0  0  0  0
  -23.9790   -8.4160   21.9870 C   0  0  0  0  0  3  0  0  0  0  0  0
  -22.7490   -8.3540   21.2900 C   0  0  0  0  0  0  0  0  0  0  0  0
  -22.4180   -9.3840   20.3930 C   0  0  0  0  0  3  0  0  0  0  0  0
  -23.2830  -10.4730   20.2010 C   0  0  0  0  0  3  0  0  0  0  0  0
  -21.8570   -7.3140   21.3920 O   0  0  0  0  0  0  0  0  0  0  0  0
  -21.7000   -6.6120   22.5600 C   0  0  0  0  0  0  0  0  0  0  0  0
  -21.3010   -7.2400   23.7590 C   0  0  0  0  0  3  0  0  0  0  0  0
  -21.0840   -6.4690   24.9190 C   0  0  0  0  0  3  0  0  0  0  0  0
  -21.2560   -5.0720   24.8810 C   0  0  0  0  0  0  0  0  0  0  0  0
  -21.6490   -4.4450   23.6840 C   0  0  0  0  0  3  0  0  0  0  0  0
  -21.8670   -5.2120   22.5270 C   0  0  0  0  0  0  0  0  0  0  0  0
  -22.2240   -4.5990   21.3730 F   0  0  0  0  0  0  0  0  0  0  0  0
  -21.0410   -4.3310   25.9920 F   0  0  0  0  0  0  0  0  0  0  0  0
  -23.8480  -13.7540   21.3670 C   0  0  0  0  0  0  0  0  0  0  0  0
  -23.1440  -13.1050   22.2880 N   0  0  0  0  0  0  0  0  0  0  0  0
  -23.4950  -14.8600   20.9610 O   0  0  0  0  0  0  0  0  0  0  0  0
  -23.4440  -12.2070   22.6380 H   0  0  0  0  0  0  0  0  0  0  0  0
  -22.2930  -13.5130   22.6500 H   0  0  0  0  0  0  0  0  0  0  0  0
  -26.5800  -15.1060   20.3260 N   0  0  0  0  0  0  0  0  0  0  0  0
  -25.9310  -15.8490   20.5590 H   0  0  0  0  0  0  0  0  0  0  0  0
  -27.4340  -15.4450   19.9020 H   0  0  0  0  0  0  0  0  0  0  0  0
  1  9  1  0
  3  6  1  0
  4  7  1  0
  4  8  1  0
  6  2  1  0
  6  5  1  0
  7 12  1  0
  7  2  1  0
  8 55  1  6
  8  1  1  0
  8  3  1  0
  9 11  1  0
  9  5  1  0
 10  1  2  0
 13 12  1  0
 13 14  1  0
 14 16  1  0
 15 26  2  0
 16 21  1  0
 17 27  1  0
 17 25  1  0
 18 24  1  0
 18 20  1  0
 19 25  1  0
 20 19  1  0
 21 20  2  0
 22 23  1  0
 22 16  2  0
 23 18  2  0
 24 17  1  0
 25 15  1  0
 27 29  2  0
 28 27  1  0
 30 28  1  0
 31 40  2  0
 31 36  1  0
 32 28  1  0
 32 36  1  0
 33 32  1  0
 34 35  1  0
 34 33  1  0
 35 31  1  0
 36 37  2  0
 37 38  1  0
 39 38  2  0
 40 39  1  0
 41 15  1  0
 41 51  1  0
 41 42  1  0
 42 43  1  0
 42 45  1  0
 43 47  1  0
 44 43  2  0
 47 46  1  0
 47 49  1  0
 49 48  1  0
 49 50  1  0
 51 52  1  1
 51 54  1  0
 53 51  1  0
 55 56  1  0
 56 59  1  0
 56 58  1  0
 57 56  1  0
 60 69  1  0
 60 59  1  0
 61 67  1  0
 61 69  1  0
 62 67  1  0
 63 64  1  0
 63 62  1  0
 65 64  1  0
 65 74  1  0
 65 66  1  0
 67 66  1  0
 68 61  2  0
 69 70  1  0
 71 72  2  0
 72 91  1  0
 73 72  1  0
 73 76  1  0
 74 75  1  0
 74 71  1  0
 75 73  2  0
 76 77  1  0
 77 78  2  0
 79 82  1  0
 79 78  1  0
 80 79  2  0
 81 80  1  0
 81 76  2  0
 82 83  1  0
 83 84  1  0
 84 85  2  0
 86 85  1  0
 86 90  1  0
 87 86  2  0
 88 83  2  0
 88 87  1  0
 89 88  1  0
 91 92  1  0
 92 94  1  0
 92 95  1  0
 93 91  2  0
 96 71  1  0
 96 97  1  0
 98 96  1  0
M  ISO  4  13 101  14 101  61 100  69 100
M  END
>  <TORSDO>  (32) 
F 22

>  <SCORE>  (32) 
-10.110

>  <name>  (32) 
31

>  <ligand_id>  (32) 
31

>  <original_smiles>  (32) 
[H]c1c([H])c([H])c2c(c1[H])C([H])([H])C([H])([H])C([H])([H])C2([H])N([H])C(=O)C1([H])N(C(=O)C([H])(N([H])C(=O)C([H])(N([H])C([H])([H])[H])C([H])([H])[H])C(C([H])([H])[H])(C([H])([H])[H])C([H])([H])[H])C([H])([H])c2c([H])c(OC([H])([H])C([H])([H])C3([H])C([H])([H])C4([H])C([H])([H])N([H])C(=O)C(C([H])([H])[N+]([H])([H])C([H])([H])C([H])([H])N([H])C(=O)N5C([H])([H])C([H])([H])C([H])([H])C([H])(n6nc(-c7c([H])c([H])c(Oc8c([H])c([H])c(F)c([H])c8F)c([H])c7[H])c(C(=O)N([H])[H])c6N([H])[H])C5([H])[H])(C4([H])[H])C3([H])[H])c([H])c([H])c2C1([H])[H]

>  <smiles>  (32) 
[H]c1c([H])c([H])c2c(c1[H])C([H])([H])C([H])([H])C([H])([H])C2([H])N([H])C(=O)C1([H])N(C(=O)C([H])(N([H])C(=O)C([H])(N([H])C([H])([H])[H])C([H])([H])[H])C(C([H])([H])[H])(C([H])([H])[H])C([H])([H])[H])C([H])([H])c2c([H])c(OC([H])([H])C([H])([H])C3([H])C([H])([H])C4([H])C([H])([H])N([H])C(=O)C(C([H])([H])[N+]([H])([H])C([H])([H])C([H])([H])N([H])C(=O)N5C([H])([H])C([H])([H])C([H])([H])C([H])(n6nc(-c7c([H])c([H])c(Oc8c([H])c([H])c(F)c([H])c8F)c([H])c7[H])c(C(=O)N([H])[H])c6N([H])[H])C5([H])[H])(C4([H])[H])C3([H])[H])c([H])c([H])c2C1([H])[H]

$$$$
32:0:0
     RDKit          3D

100110  0  0  1  0  0  0  0  0999 V2000
  -27.8810  -17.8120   18.2030 C   0  0  0  0  0  3  0  0  0  0  0  0
  -27.5190  -19.2170   20.1280 C   0  0  0  0  0  3  0  0  0  0  0  0
  -27.0170  -18.6510   17.4880 C   0  0  0  0  0  3  0  0  0  0  0  0
  -28.1420  -18.0900   19.5650 C   0  0  0  0  0  0  0  0  0  0  0  0
  -26.7600  -20.0700   19.3100 C   0  0  0  0  0  0  0  0  0  0  0  0
  -26.4670  -19.7540   18.0280 N   0  0  0  0  0  0  0  0  0  0  0  0
  -31.3360  -14.5200   19.8590 C   0  0  0  0  0  0  0  0  0  0  0  0
  -30.7720  -12.4110   18.7290 C   0  0  0  0  0  2  0  0  0  0  0  0
  -29.7720  -12.6340   17.5780 C   0  0  0  0  0  2  0  0  0  0  0  0
  -28.3250  -12.5660   18.0970 C   0  0  0  0  0  2  0  0  0  0  0  0
  -28.0930  -13.4790   19.3250 C   0  0  0  0  0  3  0  0  0  0  0  0
  -29.1970  -13.2670   20.3900 C   0  0  0  0  0  2  0  0  0  0  0  0
  -30.5210  -13.4360   19.7480 N   0  0  0  0  0  0  0  0  0  0  0  0
  -32.4170  -14.6410   19.2780 O   0  0  0  0  0  0  0  0  0  0  0  0
  -31.5550  -16.2580   21.5640 C   0  0  0  0  0  2  0  0  0  0  0  0
  -30.1270  -16.4970   19.6300 C   0  0  0  0  0  2  0  0  0  0  0  0
  -30.5820  -17.1360   22.3850 C   0  0  0  0  0  2  0  0  0  0  0  0
  -29.0410  -17.2110   20.4350 C   0  0  0  0  0  3  0  0  0  0  0  0
  -30.8140  -15.5610   20.5090 N   0  0  0  0  0  0  0  0  0  0  0  0
  -29.7090  -17.9700   21.5190 N   0  0  0  0  0  4  0  0  0  0  0  0
  -30.2670  -18.6980   21.1030 H   0  0  0  0  0  0  0  0  0  0  0  0
  -29.0020  -18.4180   22.0760 H   0  0  0  0  0  0  0  0  0  0  0  0
  -25.7900  -14.2530   20.1680 C   0  0  0  0  0  0  0  0  0  0  0  0
  -24.6950  -13.5550   20.6040 C   0  0  0  0  0  0  0  0  0  0  0  0
  -25.0560  -12.1760   20.5290 C   0  0  0  0  0  0  0  0  0  0  0  0
  -26.7570  -13.3000   19.8800 N   0  0  0  0  0  0  0  0  0  0  0  0
  -26.3190  -12.0440   20.1450 N   0  0  0  0  0  0  0  0  0  0  0  0
  -24.2580  -10.9640   20.7440 C   0  0  0  0  0  0  0  0  0  0  0  0
  -24.6410   -9.9840   21.6830 C   0  0  0  0  0  3  0  0  0  0  0  0
  -23.8480   -8.8350   21.8830 C   0  0  0  0  0  3  0  0  0  0  0  0
  -22.6560   -8.6580   21.1430 C   0  0  0  0  0  0  0  0  0  0  0  0
  -22.2910   -9.6250   20.1920 C   0  0  0  0  0  3  0  0  0  0  0  0
  -23.0840  -10.7680   19.9880 C   0  0  0  0  0  3  0  0  0  0  0  0
  -21.8340   -7.5630   21.2510 O   0  0  0  0  0  0  0  0  0  0  0  0
  -21.7010   -6.8780   22.4320 C   0  0  0  0  0  0  0  0  0  0  0  0
  -21.2730   -7.5130   23.6180 C   0  0  0  0  0  3  0  0  0  0  0  0
  -21.0840   -6.7550   24.7910 C   0  0  0  0  0  3  0  0  0  0  0  0
  -21.3160   -5.3660   24.7800 C   0  0  0  0  0  0  0  0  0  0  0  0
  -21.7420   -4.7350   23.5980 C   0  0  0  0  0  3  0  0  0  0  0  0
  -21.9280   -5.4880   22.4260 C   0  0  0  0  0  0  0  0  0  0  0  0
  -22.3180   -4.8700   21.2850 F   0  0  0  0  0  0  0  0  0  0  0  0
  -21.1290   -4.6360   25.9070 F   0  0  0  0  0  0  0  0  0  0  0  0
  -23.3520  -14.1290   20.9590 C   0  0  0  0  0  0  0  0  0  0  0  0
  -22.6400  -13.4930   21.8840 N   0  0  0  0  0  0  0  0  0  0  0  0
  -22.9470  -15.1720   20.4500 O   0  0  0  0  0  0  0  0  0  0  0  0
  -22.9650  -12.6390   22.3090 H   0  0  0  0  0  0  0  0  0  0  0  0
  -21.7520  -13.8780   22.1720 H   0  0  0  0  0  0  0  0  0  0  0  0
  -26.0220  -15.6070   19.9660 N   0  0  0  0  0  0  0  0  0  0  0  0
  -25.2110  -16.2180   19.9580 H   0  0  0  0  0  0  0  0  0  0  0  0
  -26.7200  -15.9160   19.3030 H   0  0  0  0  0  0  0  0  0  0  0  0
  -27.4740  -22.2010   20.5610 C   0  0  0  0  0  2  0  0  0  0  0  0
  -25.8250  -22.3480   18.6730 C   0  0  0  0  0  2  0  0  0  0  0  0
  -27.9150  -23.5290   19.9110 C   0  0  0  0  0  2  0  0  0  0  0  0
  -27.0000  -22.6990   17.7370 C   0  0  0  0  0  2  0  0  0  0  0  0
  -26.3160  -21.4500   19.8200 C   0  0  0  0  0  3  0  0  0  0  0  0
  -28.1240  -23.4050   18.4350 N   0  0  1  0  0  4  0  0  0  0  0  0
  -28.9620  -22.8600   18.2780 H   0  0  0  0  0  0  0  0  0  0  0  0
  -28.2930  -24.7150   17.7800 C   0  0  0  0  0  2  0  0  0  0  0  0
  -29.3550  -25.7130   18.2850 C   0  0  0  0  0  2  0  0  0  0  0  0
  -29.0630  -27.0630   17.8560 O   0  0  0  0  0  0  0  0  0  0  0  0
  -24.8800  -30.3300   22.6170 C   0  0  0  0  0  0  0  0  0  0  0  0
  -27.8100  -27.5520   18.1650 C   0  0  0  0  0  0  0  0  0  0  0  0
  -23.7300  -29.1890   20.7540 C   0  0  0  0  0  3  0  0  0  0  0  0
  -25.2120  -28.4550   18.8250 C   0  0  0  0  0  0  0  0  0  0  0  0
  -26.1020  -30.1020   20.4680 C   0  0  0  0  0  2  0  0  0  0  0  0
  -26.3350  -28.9980   19.4650 C   0  0  0  0  0  0  0  0  0  0  0  0
  -27.6340  -28.5320   19.1630 C   0  0  0  0  0  3  0  0  0  0  0  0
  -26.6720  -27.1470   17.4340 C   0  0  0  0  0  3  0  0  0  0  0  0
  -25.3760  -27.5180   17.8030 C   0  0  0  0  0  3  0  0  0  0  0  0
  -23.8530  -28.9770   19.2250 C   0  0  0  0  0  2  0  0  0  0  0  0
  -24.9270  -29.8750   21.3360 N   0  0  0  0  0  0  0  0  0  0  0  0
  -23.8560  -30.2100   23.3030 O   0  0  0  0  0  0  0  0  0  0  0  0
  -23.4190  -27.8320   21.4220 C   0  0  0  0  0  0  0  0  0  0  0  0
  -22.1530  -27.3940   21.3270 N   0  0  0  0  0  0  0  0  0  0  0  0
  -24.3070  -27.1870   21.9880 O   0  0  0  0  0  0  0  0  0  0  0  0
  -21.4780  -27.9890   20.8690 H   0  0  0  0  0  0  0  0  0  0  0  0
  -19.1940  -25.3490   21.5690 C   0  0  0  0  0  0  0  0  0  0  0  0
  -21.6380  -26.1310   21.8540 C   0  0  0  0  0  3  0  0  0  0  0  0
  -22.0170  -24.9480   20.9340 C   0  0  0  0  0  2  0  0  0  0  0  0
  -20.9470  -24.6350   19.8870 C   0  0  0  0  0  2  0  0  0  0  0  0
  -19.6170  -24.2890   20.5630 C   0  0  0  0  0  2  0  0  0  0  0  0
  -20.1420  -26.2230   22.1630 C   0  0  0  0  0  0  0  0  0  0  0  0
  -19.6900  -27.2090   23.0670 C   0  0  0  0  0  3  0  0  0  0  0  0
  -18.3240  -27.3300   23.3790 C   0  0  0  0  0  3  0  0  0  0  0  0
  -17.3920  -26.4540   22.7990 C   0  0  0  0  0  3  0  0  0  0  0  0
  -17.8280  -25.4650   21.8970 C   0  0  0  0  0  3  0  0  0  0  0  0
  -26.1060  -31.0350   23.2730 C   0  0  0  0  0  3  0  0  0  0  0  0
  -26.8450  -30.1280   24.3320 C   0  0  1  0  0  0  0  0  0  0  0  0
  -25.9000  -29.5150   25.3950 C   0  0  0  0  0  1  0  0  0  0  0  0
  -27.5850  -28.9640   23.6340 C   0  0  0  0  0  1  0  0  0  0  0  0
  -27.9240  -30.9570   25.0660 C   0  0  0  0  0  1  0  0  0  0  0  0
  -25.6210  -32.2710   23.8930 N   0  0  0  0  0  0  0  0  0  0  0  0
  -25.7750  -33.4950   23.3680 C   0  0  0  0  0  0  0  0  0  0  0  0
  -26.4160  -33.7040   22.3340 O   0  0  0  0  0  0  0  0  0  0  0  0
  -25.0430  -32.1660   24.7140 H   0  0  0  0  0  0  0  0  0  0  0  0
  -23.8360  -35.0930   23.3660 C   0  0  0  0  0  1  0  0  0  0  0  0
  -25.1140  -34.6730   24.1080 C   0  0  0  0  0  3  0  0  0  0  0  0
  -27.1230  -35.5980   25.1740 C   0  0  0  0  0  1  0  0  0  0  0  0
  -26.0060  -35.8420   24.2660 N   0  0  0  0  0  0  0  0  0  0  0  0
  -25.4910  -36.6500   24.6040 H   0  0  0  0  0  0  0  0  0  0  0  0
  1  4  1  0
  3  6  1  0
  3  1  2  0
  4  2  2  0
  5  2  1  0
  6  5  2  0
  7 19  1  0
  8 13  1  0
  9 10  1  0
  9  8  1  0
 11 10  1  0
 11 26  1  0
 11 12  1  0
 13  7  1  0
 13 12  1  0
 14  7  2  0
 15 17  1  0
 16 18  1  0
 16 19  1  0
 18  4  1  0
 18 20  1  0
 19 15  1  0
 20 22  1  0
 20 17  1  0
 21 20  1  0
 23 24  2  0
 24 43  1  0
 25 24  1  0
 25 28  1  0
 26 27  1  0
 26 23  1  0
 27 25  2  0
 28 29  1  0
 29 30  2  0
 31 34  1  0
 31 30  1  0
 32 31  2  0
 33 32  1  0
 33 28  2  0
 34 35  1  0
 35 36  1  0
 36 37  2  0
 38 37  1  0
 38 42  1  0
 39 38  2  0
 40 35  2  0
 40 39  1  0
 41 40  1  0
 43 44  1  0
 44 47  1  0
 44 46  1  0
 45 43  2  0
 48 23  1  0
 49 48  1  0
 50 48  1  0
 52 55  1  0
 53 51  1  0
 54 56  1  0
 54 52  1  0
 55  5  1  0
 55 51  1  0
 56 53  1  0
 56 57  1  1
 58 59  1  0
 58 56  1  0
 60 62  1  0
 60 59  1  0
 61 72  2  0
 62 67  1  0
 63 71  1  0
 63 73  1  0
 64 70  1  0
 64 66  1  0
 65 71  1  0
 66 65  1  0
 67 66  2  0
 68 69  1  0
 68 62  2  0
 69 64  2  0
 70 63  1  0
 71 61  1  0
 73 75  2  0
 74 73  1  0
 76 74  1  0
 77 86  2  0
 77 82  1  0
 78 74  1  0
 78 82  1  0
 79 78  1  0
 80 81  1  0
 80 79  1  0
 81 77  1  0
 82 83  2  0
 83 84  1  0
 85 84  2  0
 86 85  1  0
 87 61  1  0
 87 92  1  0
 87 88  1  0
 88 91  1  1
 88 89  1  0
 90 88  1  0
 92 95  1  0
 93 92  1  0
 93 97  1  0
 94 93  2  0
 97 96  1  0
 97 99  1  0
 99100  1  0
 99 98  1  0
M  ISO  4   7 100  19 100  59 101  60 101
M  END
>  <TORSDO>  (33) 
F 19

>  <SCORE>  (33) 
-7.712

>  <name>  (33) 
32

>  <ligand_id>  (33) 
32

>  <original_smiles>  (33) 
[H]c1nc(C2([H])C([H])([H])C([H])([H])[N+]([H])(C([H])([H])C([H])([H])Oc3c([H])c([H])c4c(c3[H])C([H])([H])N(C(=O)C([H])(N([H])C(=O)C([H])(N([H])C([H])([H])[H])C([H])([H])[H])C(C([H])([H])[H])(C([H])([H])[H])C([H])([H])[H])C([H])(C(=O)N([H])C3([H])c5c([H])c([H])c([H])c([H])c5C([H])([H])C([H])([H])C3([H])[H])C4([H])[H])C([H])([H])C2([H])[H])c([H])c(C2([H])C([H])([H])N(C(=O)N3C([H])([H])C([H])([H])C([H])([H])C([H])(n4nc(-c5c([H])c([H])c(Oc6c([H])c([H])c(F)c([H])c6F)c([H])c5[H])c(C(=O)N([H])[H])c4N([H])[H])C3([H])[H])C([H])([H])C([H])([H])[N+]2([H])[H])c1[H]

>  <smiles>  (33) 
[H]c1nc(C2([H])C([H])([H])C([H])([H])[N+]([H])(C([H])([H])C([H])([H])Oc3c([H])c([H])c4c(c3[H])C([H])([H])N(C(=O)C([H])(N([H])C(=O)C([H])(N([H])C([H])([H])[H])C([H])([H])[H])C(C([H])([H])[H])(C([H])([H])[H])C([H])([H])[H])C([H])(C(=O)N([H])C3([H])c5c([H])c([H])c([H])c([H])c5C([H])([H])C([H])([H])C3([H])[H])C4([H])[H])C([H])([H])C2([H])[H])c([H])c(C2([H])C([H])([H])N(C(=O)N3C([H])([H])C([H])([H])C([H])([H])C([H])(n4nc(-c5c([H])c([H])c(Oc6c([H])c([H])c(F)c([H])c6F)c([H])c5[H])c(C(=O)N([H])[H])c4N([H])[H])C3([H])[H])C([H])([H])C([H])([H])[N+]2([H])[H])c1[H]

$$$$
33:0:0
     RDKit          3D

 94102  0  0  1  0  0  0  0  0999 V2000
  -28.0630  -21.9560   20.4120 C   0  0  0  0  0  3  0  0  0  0  0  0
  -27.5550  -20.7750   19.9460 C   0  0  0  0  0  0  0  0  0  0  0  0
  -27.4850  -22.9230   19.5480 C   0  0  0  0  0  0  0  0  0  0  0  0
  -26.6600  -22.3870   18.6650 N   0  0  0  0  0  0  0  0  0  0  0  0
  -26.7110  -21.0080   18.9020 O   0  0  0  0  0  0  0  0  0  0  0  0
  -27.7850  -19.3540   20.3430 C   0  0  0  0  0  2  0  0  0  0  0  0
  -29.2120  -19.0310   20.1860 N   0  0  0  0  0  4  0  0  0  0  0  0
  -29.7350  -19.7820   20.6050 H   0  0  0  0  0  0  0  0  0  0  0  0
  -29.4150  -19.0270   19.2000 H   0  0  0  0  0  0  0  0  0  0  0  0
  -29.6370  -17.7540   20.7880 C   0  0  0  0  0  2  0  0  0  0  0  0
  -31.1410  -17.5070   20.5600 C   0  0  0  0  0  2  0  0  0  0  0  0
  -31.6890  -16.2770   21.3040 C   0  0  0  0  0  2  0  0  0  0  0  0
  -31.3140  -14.2020   19.9600 C   0  0  0  0  0  0  0  0  0  0  0  0
  -30.8430  -11.9910   18.9700 C   0  0  0  0  0  2  0  0  0  0  0  0
  -29.8640  -12.0750   17.7840 C   0  0  0  0  0  2  0  0  0  0  0  0
  -28.4030  -12.0460   18.2710 C   0  0  0  0  0  2  0  0  0  0  0  0
  -28.1390  -13.0640   19.4090 C   0  0  0  0  0  3  0  0  0  0  0  0
  -29.2090  -12.9310   20.5140 C   0  0  0  0  0  2  0  0  0  0  0  0
  -30.5440  -13.0870   19.9010 N   0  0  0  0  0  0  0  0  0  0  0  0
  -32.2890  -14.4030   19.2260 O   0  0  0  0  0  0  0  0  0  0  0  0
  -30.9840  -15.0500   20.9410 N   0  0  0  0  0  0  0  0  0  0  0  0
  -30.2040  -14.7710   21.5200 H   0  0  0  0  0  0  0  0  0  0  0  0
  -25.8450  -13.8970   20.2400 C   0  0  0  0  0  0  0  0  0  0  0  0
  -24.7290  -13.2270   20.6620 C   0  0  0  0  0  0  0  0  0  0  0  0
  -25.0550  -11.8380   20.6000 C   0  0  0  0  0  0  0  0  0  0  0  0
  -26.7880  -12.9210   19.9520 N   0  0  0  0  0  0  0  0  0  0  0  0
  -26.3170  -11.6780   20.2240 N   0  0  0  0  0  0  0  0  0  0  0  0
  -24.2230  -10.6480   20.8230 C   0  0  0  0  0  0  0  0  0  0  0  0
  -24.5730   -9.6730   21.7820 C   0  0  0  0  0  3  0  0  0  0  0  0
  -23.7470   -8.5460   21.9910 C   0  0  0  0  0  3  0  0  0  0  0  0
  -22.5580   -8.3890   21.2400 C   0  0  0  0  0  0  0  0  0  0  0  0
  -22.2260   -9.3520   20.2720 C   0  0  0  0  0  3  0  0  0  0  0  0
  -23.0510  -10.4700   20.0610 C   0  0  0  0  0  3  0  0  0  0  0  0
  -21.7100   -7.3140   21.3560 O   0  0  0  0  0  0  0  0  0  0  0  0
  -21.5540   -6.6450   22.5440 C   0  0  0  0  0  0  0  0  0  0  0  0
  -21.1210   -7.3000   23.7160 C   0  0  0  0  0  3  0  0  0  0  0  0
  -20.9070   -6.5620   24.8970 C   0  0  0  0  0  3  0  0  0  0  0  0
  -21.1160   -5.1690   24.9050 C   0  0  0  0  0  0  0  0  0  0  0  0
  -21.5410   -4.5140   23.7360 C   0  0  0  0  0  3  0  0  0  0  0  0
  -21.7570   -5.2500   22.5580 C   0  0  0  0  0  0  0  0  0  0  0  0
  -22.1470   -4.6110   21.4280 F   0  0  0  0  0  0  0  0  0  0  0  0
  -20.9020   -4.4580   26.0360 F   0  0  0  0  0  0  0  0  0  0  0  0
  -23.3990  -13.8320   21.0100 C   0  0  0  0  0  0  0  0  0  0  0  0
  -22.6600  -13.2080   21.9200 N   0  0  0  0  0  0  0  0  0  0  0  0
  -23.0280  -14.8920   20.5070 O   0  0  0  0  0  0  0  0  0  0  0  0
  -22.9730  -12.3490   22.3490 H   0  0  0  0  0  0  0  0  0  0  0  0
  -21.7660  -13.5920   22.1920 H   0  0  0  0  0  0  0  0  0  0  0  0
  -26.1320  -15.2470   20.0570 N   0  0  0  0  0  0  0  0  0  0  0  0
  -25.4240  -15.9640   20.1750 H   0  0  0  0  0  0  0  0  0  0  0  0
  -26.9760  -15.5880   19.6160 H   0  0  0  0  0  0  0  0  0  0  0  0
  -27.6550  -24.2770   19.5160 O   0  0  0  0  0  0  0  0  0  0  0  0
  -28.9820  -24.7150   19.7600 C   0  0  0  0  0  2  0  0  0  0  0  0
  -29.1300  -26.1900   19.3690 C   0  0  0  0  0  2  0  0  0  0  0  0
  -28.7510  -27.0480   20.4440 O   0  0  0  0  0  0  0  0  0  0  0  0
  -24.5900  -31.9920   23.3910 C   0  0  0  0  0  0  0  0  0  0  0  0
  -27.5110  -27.6470   20.4230 C   0  0  0  0  0  0  0  0  0  0  0  0
  -23.4820  -30.5000   21.7570 C   0  0  0  0  0  3  0  0  0  0  0  0
  -25.0330  -29.0060   20.3950 C   0  0  0  0  0  0  0  0  0  0  0  0
  -25.9880  -30.9760   21.6010 C   0  0  0  0  0  2  0  0  0  0  0  0
  -26.1500  -29.5980   20.9970 C   0  0  0  0  0  0  0  0  0  0  0  0
  -27.3850  -28.9170   21.0250 C   0  0  0  0  0  3  0  0  0  0  0  0
  -26.3710  -27.0600   19.8250 C   0  0  0  0  0  3  0  0  0  0  0  0
  -25.1360  -27.7300   19.8170 C   0  0  0  0  0  3  0  0  0  0  0  0
  -23.7500  -29.8020   20.3980 C   0  0  0  0  0  2  0  0  0  0  0  0
  -24.7030  -31.1710   22.3090 N   0  0  0  0  0  0  0  0  0  0  0  0
  -23.4860  -32.2260   23.9020 O   0  0  0  0  0  0  0  0  0  0  0  0
  -22.8630  -29.4680   22.7250 C   0  0  0  0  0  0  0  0  0  0  0  0
  -21.5710  -29.1670   22.5260 N   0  0  0  0  0  0  0  0  0  0  0  0
  -23.5440  -28.9390   23.6070 O   0  0  0  0  0  0  0  0  0  0  0  0
  -21.0800  -29.6510   21.7870 H   0  0  0  0  0  0  0  0  0  0  0  0
  -18.3040  -27.6570   22.8200 C   0  0  0  0  0  0  0  0  0  0  0  0
  -20.7870  -28.1950   23.2890 C   0  0  0  0  0  3  0  0  0  0  0  0
  -21.0830  -26.7530   22.8190 C   0  0  0  0  0  2  0  0  0  0  0  0
  -20.1140  -26.2570   21.7410 C   0  0  0  0  0  2  0  0  0  0  0  0
  -18.6730  -26.2960   22.2570 C   0  0  0  0  0  2  0  0  0  0  0  0
  -19.2980  -28.5560   23.2890 C   0  0  0  0  0  0  0  0  0  0  0  0
  -18.9020  -29.8230   23.7690 C   0  0  0  0  0  3  0  0  0  0  0  0
  -17.5430  -30.1930   23.7920 C   0  0  0  0  0  3  0  0  0  0  0  0
  -16.5630  -29.2920   23.3410 C   0  0  0  0  0  3  0  0  0  0  0  0
  -16.9440  -28.0280   22.8600 C   0  0  0  0  0  3  0  0  0  0  0  0
  -25.8350  -32.6900   24.0230 C   0  0  0  0  0  3  0  0  0  0  0  0
  -25.4850  -34.1000   24.2450 N   0  0  0  0  0  0  0  0  0  0  0  0
  -25.8140  -35.1030   23.4210 C   0  0  0  0  0  0  0  0  0  0  0  0
  -26.5170  -34.9440   22.4190 O   0  0  0  0  0  0  0  0  0  0  0  0
  -24.8700  -34.2990   25.0210 H   0  0  0  0  0  0  0  0  0  0  0  0
  -24.0450  -36.8100   22.8930 C   0  0  0  0  0  1  0  0  0  0  0  0
  -25.2770  -36.5060   23.7610 C   0  0  0  0  0  3  0  0  0  0  0  0
  -27.3660  -37.5120   24.5690 C   0  0  0  0  0  1  0  0  0  0  0  0
  -26.2830  -37.5770   23.5910 N   0  0  0  0  0  0  0  0  0  0  0  0
  -25.8500  -38.4940   23.6590 H   0  0  0  0  0  0  0  0  0  0  0  0
  -26.3170  -32.0130   25.3640 C   0  0  1  0  0  0  0  0  0  0  0  0
  -25.1820  -31.7860   26.3880 C   0  0  0  0  0  1  0  0  0  0  0  0
  -26.9740  -30.6420   25.0790 C   0  0  0  0  0  1  0  0  0  0  0  0
  -27.4040  -32.8880   26.0360 C   0  0  0  0  0  1  0  0  0  0  0  0
  2  6  1  0
  2  1  2  0
  3  1  1  0
  4  5  1  0
  4  3  2  0
  5  2  1  0
  7  6  1  0
  7  8  1  0
  7 10  1  0
  9  7  1  0
 11 10  1  0
 11 12  1  0
 13 21  1  0
 14 19  1  0
 15 16  1  0
 15 14  1  0
 17 16  1  0
 17 26  1  0
 17 18  1  0
 19 13  1  0
 19 18  1  0
 20 13  2  0
 21 12  1  0
 21 22  1  0
 23 24  2  0
 24 43  1  0
 25 24  1  0
 25 28  1  0
 26 27  1  0
 26 23  1  0
 27 25  2  0
 28 29  1  0
 29 30  2  0
 31 34  1  0
 31 30  1  0
 32 31  2  0
 33 32  1  0
 33 28  2  0
 34 35  1  0
 35 40  2  0
 35 36  1  0
 36 37  2  0
 37 38  1  0
 38 42  1  0
 39 38  2  0
 40 39  1  0
 41 40  1  0
 43 44  1  0
 44 47  1  0
 44 46  1  0
 45 43  2  0
 48 49  1  0
 48 23  1  0
 50 48  1  0
 51  3  1  0
 51 52  1  0
 53 52  1  0
 53 54  1  0
 55 66  2  0
 56 54  1  0
 56 61  1  0
 57 65  1  0
 57 67  1  0
 58 64  1  0
 58 60  1  0
 59 65  1  0
 60 61  2  0
 60 59  1  0
 62 56  2  0
 63 62  1  0
 63 58  2  0
 64 57  1  0
 65 55  1  0
 67 69  2  0
 68 67  1  0
 70 68  1  0
 71 80  2  0
 71 76  1  0
 72 68  1  0
 73 72  1  0
 74 75  1  0
 74 73  1  0
 75 71  1  0
 76 72  1  0
 76 77  2  0
 77 78  1  0
 79 78  2  0
 80 79  1  0
 81 55  1  0
 81 82  1  0
 81 91  1  0
 82 85  1  0
 83 87  1  0
 83 82  1  0
 84 83  2  0
 87 86  1  0
 89 90  1  0
 89 87  1  0
 89 88  1  0
 91 94  1  1
 91 92  1  0
 93 91  1  0
M  ISO  4  13 100  21 100  53 101  54 101
M  END
>  <TORSDO>  (34) 
F 24

>  <SCORE>  (34) 
-11.446

>  <name>  (34) 
33

>  <ligand_id>  (34) 
33

>  <original_smiles>  (34) 
[H]c1c(OC([H])([H])C([H])([H])Oc2c([H])c([H])c3c(c2[H])C([H])([H])N(C(=O)C([H])(N([H])C(=O)C([H])(N([H])C([H])([H])[H])C([H])([H])[H])C(C([H])([H])[H])(C([H])([H])[H])C([H])([H])[H])C([H])(C(=O)N([H])C2([H])c4c([H])c([H])c([H])c([H])c4C([H])([H])C([H])([H])C2([H])[H])C3([H])[H])noc1C([H])([H])[N+]([H])([H])C([H])([H])C([H])([H])C([H])([H])N([H])C(=O)N1C([H])([H])C([H])([H])C([H])([H])C([H])(n2nc(-c3c([H])c([H])c(Oc4c([H])c([H])c(F)c([H])c4F)c([H])c3[H])c(C(=O)N([H])[H])c2N([H])[H])C1([H])[H]

>  <smiles>  (34) 
[H]c1c(OC([H])([H])C([H])([H])Oc2c([H])c([H])c3c(c2[H])C([H])([H])N(C(=O)C([H])(N([H])C(=O)C([H])(N([H])C([H])([H])[H])C([H])([H])[H])C(C([H])([H])[H])(C([H])([H])[H])C([H])([H])[H])C([H])(C(=O)N([H])C2([H])c4c([H])c([H])c([H])c([H])c4C([H])([H])C([H])([H])C2([H])[H])C3([H])[H])noc1C([H])([H])[N+]([H])([H])C([H])([H])C([H])([H])C([H])([H])N([H])C(=O)N1C([H])([H])C([H])([H])C([H])([H])C([H])(n2nc(-c3c([H])c([H])c(Oc4c([H])c([H])c(F)c([H])c4F)c([H])c3[H])c(C(=O)N([H])[H])c2N([H])[H])C1([H])[H]

$$$$
34:0:0
     RDKit          3D

 96105  0  0  1  0  0  0  0  0999 V2000
  -28.5820  -23.8680   19.4570 C   0  0  0  0  0  3  0  0  0  0  0  0
  -28.4280  -23.1210   21.7030 C   0  0  0  0  0  3  0  0  0  0  0  0
  -28.5030  -24.2020   20.8150 C   0  0  0  0  0  0  0  0  0  0  0  0
  -28.4750  -21.6250   19.9600 C   0  0  0  0  0  0  0  0  0  0  0  0
  -28.5490  -22.5840   19.0400 N   0  0  0  0  0  0  0  0  0  0  0  0
  -28.4000  -21.8460   21.2680 N   0  0  0  0  0  0  0  0  0  0  0  0
  -28.3720  -19.1130   20.5640 C   0  0  0  0  0  2  0  0  0  0  0  0
  -28.9650  -19.7490   18.2490 C   0  0  0  0  0  2  0  0  0  0  0  0
  -29.8640  -18.8500   20.8570 C   0  0  0  0  0  2  0  0  0  0  0  0
  -30.4480  -19.4640   18.5720 C   0  0  0  0  0  2  0  0  0  0  0  0
  -28.1210  -20.1980   19.4760 C   0  0  2  0  0  0  0  0  0  0  0  0
  -26.6260  -20.1880   19.0960 C   0  0  0  0  0  1  0  0  0  0  0  0
  -30.5910  -18.4280   19.6290 N   0  0  1  0  0  4  0  0  0  0  0  0
  -30.1490  -17.5900   19.2800 H   0  0  0  0  0  0  0  0  0  0  0  0
  -32.0140  -18.0560   19.8780 C   0  0  0  0  0  2  0  0  0  0  0  0
  -32.2080  -16.9280   20.9250 C   0  0  0  0  0  2  0  0  0  0  0  0
  -31.9000  -14.6760   19.8910 C   0  0  0  0  0  0  0  0  0  0  0  0
  -31.3880  -12.4480   18.9620 C   0  0  0  0  0  2  0  0  0  0  0  0
  -30.4290  -12.5620   17.7620 C   0  0  0  0  0  2  0  0  0  0  0  0
  -28.9630  -12.5830   18.2350 C   0  0  0  0  0  2  0  0  0  0  0  0
  -28.7200  -13.6030   19.3790 C   0  0  0  0  0  3  0  0  0  0  0  0
  -29.7810  -13.4430   20.4900 C   0  0  0  0  0  2  0  0  0  0  0  0
  -31.1150  -13.5680   19.8750 N   0  0  0  0  0  0  0  0  0  0  0  0
  -32.9510  -14.7710   19.2510 O   0  0  0  0  0  0  0  0  0  0  0  0
  -31.4560  -15.6960   20.6440 N   0  0  0  0  0  0  0  0  0  0  0  0
  -30.6060  -15.5300   21.1630 H   0  0  0  0  0  0  0  0  0  0  0  0
  -26.4650  -14.5020   20.2360 C   0  0  0  0  0  0  0  0  0  0  0  0
  -25.3140  -13.8670   20.6220 C   0  0  0  0  0  0  0  0  0  0  0  0
  -25.5750  -12.4680   20.4950 C   0  0  0  0  0  0  0  0  0  0  0  0
  -27.3610  -13.4970   19.9080 N   0  0  0  0  0  0  0  0  0  0  0  0
  -26.8300  -12.2650   20.1190 N   0  0  0  0  0  0  0  0  0  0  0  0
  -24.6840  -11.3110   20.6560 C   0  0  0  0  0  0  0  0  0  0  0  0
  -25.0110  -10.2420   21.5190 C   0  0  0  0  0  3  0  0  0  0  0  0
  -24.1300   -9.1490   21.6690 C   0  0  0  0  0  3  0  0  0  0  0  0
  -22.9070   -9.1200   20.9570 C   0  0  0  0  0  0  0  0  0  0  0  0
  -22.5980  -10.1750   20.0820 C   0  0  0  0  0  3  0  0  0  0  0  0
  -23.4780  -11.2600   19.9280 C   0  0  0  0  0  3  0  0  0  0  0  0
  -22.0030   -8.0890   21.0220 O   0  0  0  0  0  0  0  0  0  0  0  0
  -21.8670   -7.3190   22.1500 C   0  0  0  0  0  0  0  0  0  0  0  0
  -21.5610   -7.8850   23.4060 C   0  0  0  0  0  3  0  0  0  0  0  0
  -21.3630   -7.0510   24.5250 C   0  0  0  0  0  3  0  0  0  0  0  0
  -21.4610   -5.6530   24.3880 C   0  0  0  0  0  0  0  0  0  0  0  0
  -21.7610   -5.0870   23.1360 C   0  0  0  0  0  3  0  0  0  0  0  0
  -21.9600   -5.9180   22.0200 C   0  0  0  0  0  0  0  0  0  0  0  0
  -22.2280   -5.3670   20.8120 F   0  0  0  0  0  0  0  0  0  0  0  0
  -21.2630   -4.8520   25.4600 F   0  0  0  0  0  0  0  0  0  0  0  0
  -24.0130  -14.5200   20.9900 C   0  0  0  0  0  0  0  0  0  0  0  0
  -23.2410  -13.8910   21.8710 N   0  0  0  0  0  0  0  0  0  0  0  0
  -23.6960  -15.6170   20.5350 O   0  0  0  0  0  0  0  0  0  0  0  0
  -23.5100  -13.0000   22.2600 H   0  0  0  0  0  0  0  0  0  0  0  0
  -22.3670  -14.3080   22.1600 H   0  0  0  0  0  0  0  0  0  0  0  0
  -26.8160  -15.8430   20.1180 N   0  0  0  0  0  0  0  0  0  0  0  0
  -26.1420  -16.5860   20.2680 H   0  0  0  0  0  0  0  0  0  0  0  0
  -27.6750  -16.1660   19.6950 H   0  0  0  0  0  0  0  0  0  0  0  0
  -28.5610  -25.6360   21.3330 C   0  0  0  0  0  2  0  0  0  0  0  0
  -28.4400  -26.6310   20.3160 O   0  0  0  0  0  0  0  0  0  0  0  0
  -24.6740  -31.8500   23.4030 C   0  0  0  0  0  0  0  0  0  0  0  0
  -27.2910  -27.3820   20.3590 C   0  0  0  0  0  0  0  0  0  0  0  0
  -23.4750  -30.4880   21.7200 C   0  0  0  0  0  3  0  0  0  0  0  0
  -24.9290  -28.9230   20.3260 C   0  0  0  0  0  0  0  0  0  0  0  0
  -26.0100  -30.7930   21.5850 C   0  0  0  0  0  2  0  0  0  0  0  0
  -26.0810  -29.4220   20.9470 C   0  0  0  0  0  0  0  0  0  0  0  0
  -27.2670  -28.6560   20.9670 C   0  0  0  0  0  3  0  0  0  0  0  0
  -26.1290  -26.8900   19.7320 C   0  0  0  0  0  3  0  0  0  0  0  0
  -24.9450  -27.6540   19.7190 C   0  0  0  0  0  3  0  0  0  0  0  0
  -23.7040  -29.8090   20.3430 C   0  0  0  0  0  2  0  0  0  0  0  0
  -24.7370  -31.0580   22.2960 N   0  0  0  0  0  0  0  0  0  0  0  0
  -23.5860  -32.1430   23.9190 O   0  0  0  0  0  0  0  0  0  0  0  0
  -22.7780  -29.4770   22.6580 C   0  0  0  0  0  0  0  0  0  0  0  0
  -21.4500  -29.3380   22.5070 N   0  0  0  0  0  0  0  0  0  0  0  0
  -23.4280  -28.8200   23.4750 O   0  0  0  0  0  0  0  0  0  0  0  0
  -20.9900  -29.9190   21.8200 H   0  0  0  0  0  0  0  0  0  0  0  0
  -18.0310  -28.2560   22.9370 C   0  0  0  0  0  0  0  0  0  0  0  0
  -20.5920  -28.4180   23.2500 C   0  0  0  0  0  3  0  0  0  0  0  0
  -20.6530  -26.9930   22.6520 C   0  0  0  0  0  2  0  0  0  0  0  0
  -19.5550  -26.7260   21.6170 C   0  0  0  0  0  2  0  0  0  0  0  0
  -18.1690  -26.9110   22.2430 C   0  0  0  0  0  2  0  0  0  0  0  0
  -19.1700  -28.9700   23.3960 C   0  0  0  0  0  0  0  0  0  0  0  0
  -18.9880  -30.2320   24.0020 C   0  0  0  0  0  3  0  0  0  0  0  0
  -17.6990  -30.7780   24.1570 C   0  0  0  0  0  3  0  0  0  0  0  0
  -16.5740  -30.0590   23.7160 C   0  0  0  0  0  3  0  0  0  0  0  0
  -16.7400  -28.8000   23.1120 C   0  0  0  0  0  3  0  0  0  0  0  0
  -25.9590  -32.4460   24.0570 C   0  0  0  0  0  3  0  0  0  0  0  0
  -26.4080  -31.6770   25.3600 C   0  0  1  0  0  0  0  0  0  0  0  0
  -25.2710  -31.4810   26.3900 C   0  0  0  0  0  1  0  0  0  0  0  0
  -26.9640  -30.2790   25.0020 C   0  0  0  0  0  1  0  0  0  0  0  0
  -27.5560  -32.4450   26.0550 C   0  0  0  0  0  1  0  0  0  0  0  0
  -25.6900  -33.8600   24.3560 N   0  0  0  0  0  0  0  0  0  0  0  0
  -26.0700  -34.8840   23.5810 C   0  0  0  0  0  0  0  0  0  0  0  0
  -26.7550  -34.7380   22.5650 O   0  0  0  0  0  0  0  0  0  0  0  0
  -25.0900  -34.0500   25.1450 H   0  0  0  0  0  0  0  0  0  0  0  0
  -24.4010  -36.7170   23.1600 C   0  0  0  0  0  1  0  0  0  0  0  0
  -25.6170  -36.2960   23.9990 C   0  0  0  0  0  3  0  0  0  0  0  0
  -27.7670  -37.1350   24.8380 C   0  0  0  0  0  1  0  0  0  0  0  0
  -26.6820  -37.3160   23.8780 N   0  0  0  0  0  0  0  0  0  0  0  0
  -26.3010  -38.2500   24.0050 H   0  0  0  0  0  0  0  0  0  0  0  0
  1  3  2  0
  3 55  1  0
  3  2  1  0
  4  6  1  0
  5  1  1  0
  5  4  2  0
  6  2  2  0
  7  9  1  0
  8 10  1  0
  8 11  1  0
 10 13  1  0
 11 12  1  6
 11  4  1  0
 11  7  1  0
 13 15  1  0
 13  9  1  0
 13 14  1  6
 15 16  1  0
 17 25  1  0
 18 23  1  0
 19 20  1  0
 19 18  1  0
 21 20  1  0
 21 30  1  0
 21 22  1  0
 23 17  1  0
 23 22  1  0
 24 17  2  0
 25 16  1  0
 25 26  1  0
 27 28  2  0
 28 47  1  0
 29 28  1  0
 29 32  1  0
 30 31  1  0
 30 27  1  0
 31 29  2  0
 32 33  1  0
 33 34  2  0
 35 38  1  0
 35 34  1  0
 36 35  2  0
 37 36  1  0
 37 32  2  0
 38 39  1  0
 39 40  1  0
 40 41  2  0
 42 41  1  0
 42 46  1  0
 43 42  2  0
 44 39  2  0
 44 43  1  0
 45 44  1  0
 47 48  1  0
 48 51  1  0
 48 50  1  0
 49 47  2  0
 52 27  1  0
 52 53  1  0
 54 52  1  0
 56 58  1  0
 56 55  1  0
 57 68  2  0
 58 63  1  0
 59 67  1  0
 59 69  1  0
 60 66  1  0
 60 62  1  0
 61 67  1  0
 62 63  2  0
 62 61  1  0
 64 58  2  0
 65 64  1  0
 65 60  2  0
 66 59  1  0
 67 57  1  0
 69 71  2  0
 70 69  1  0
 72 70  1  0
 73 82  2  0
 73 78  1  0
 74 70  1  0
 74 78  1  0
 75 74  1  0
 76 77  1  0
 76 75  1  0
 77 73  1  0
 78 79  2  0
 79 80  1  0
 81 80  2  0
 82 81  1  0
 83 57  1  0
 83 88  1  0
 83 84  1  0
 84 87  1  1
 84 85  1  0
 86 84  1  0
 88 91  1  0
 89 93  1  0
 89 88  1  0
 90 89  2  0
 93 92  1  0
 95 93  1  0
 95 96  1  0
 95 94  1  0
M  ISO  4  17 100  25 100  55 101  56 101
M  END
>  <TORSDO>  (35) 
F 20

>  <SCORE>  (35) 
-12.154

>  <name>  (35) 
34

>  <ligand_id>  (35) 
34

>  <original_smiles>  (35) 
[H]c1nc(C2(C([H])([H])[H])C([H])([H])C([H])([H])[N+]([H])(C([H])([H])C([H])([H])N([H])C(=O)N3C([H])([H])C([H])([H])C([H])([H])C([H])(n4nc(-c5c([H])c([H])c(Oc6c([H])c([H])c(F)c([H])c6F)c([H])c5[H])c(C(=O)N([H])[H])c4N([H])[H])C3([H])[H])C([H])([H])C2([H])[H])nc([H])c1C([H])([H])Oc1c([H])c([H])c2c(c1[H])C([H])([H])N(C(=O)C([H])(N([H])C(=O)C([H])(N([H])C([H])([H])[H])C([H])([H])[H])C(C([H])([H])[H])(C([H])([H])[H])C([H])([H])[H])C([H])(C(=O)N([H])C1([H])c3c([H])c([H])c([H])c([H])c3C([H])([H])C([H])([H])C1([H])[H])C2([H])[H]

>  <smiles>  (35) 
[H]c1nc(C2(C([H])([H])[H])C([H])([H])C([H])([H])[N+]([H])(C([H])([H])C([H])([H])N([H])C(=O)N3C([H])([H])C([H])([H])C([H])([H])C([H])(n4nc(-c5c([H])c([H])c(Oc6c([H])c([H])c(F)c([H])c6F)c([H])c5[H])c(C(=O)N([H])[H])c4N([H])[H])C3([H])[H])C([H])([H])C2([H])[H])nc([H])c1C([H])([H])Oc1c([H])c([H])c2c(c1[H])C([H])([H])N(C(=O)C([H])(N([H])C(=O)C([H])(N([H])C([H])([H])[H])C([H])([H])[H])C(C([H])([H])[H])(C([H])([H])[H])C([H])([H])[H])C([H])(C(=O)N([H])C1([H])c3c([H])c([H])c([H])c([H])c3C([H])([H])C([H])([H])C1([H])[H])C2([H])[H]

$$$$
35:0:0
     RDKit          3D

 93101  0  0  1  0  0  0  0  0999 V2000
  -29.5070  -20.6610   19.4510 C   0  0  0  0  0  2  0  0  0  0  0  0
  -28.6240  -21.1540   21.7630 C   0  0  0  0  0  2  0  0  0  0  0  0
  -28.7280  -21.9720   19.1440 C   0  0  0  0  0  2  0  0  0  0  0  0
  -28.7450  -22.6830   21.5280 C   0  0  0  0  0  2  0  0  0  0  0  0
  -29.6590  -20.3390   20.9610 C   0  0  0  0  0  3  0  0  0  0  0  0
  -29.0030  -23.0760   20.1080 N   0  0  2  0  0  4  0  0  0  0  0  0
  -29.9990  -23.2420   20.0430 H   0  0  0  0  0  0  0  0  0  0  0  0
  -29.5900  -18.8800   21.2830 N   0  0  0  0  0  4  0  0  0  0  0  0
  -28.6770  -18.5130   21.0650 H   0  0  0  0  0  0  0  0  0  0  0  0
  -29.7030  -18.7940   22.2810 H   0  0  0  0  0  0  0  0  0  0  0  0
  -30.6160  -17.9940   20.6690 C   0  0  0  0  0  2  0  0  0  0  0  0
  -30.9340  -16.7480   21.5440 C   0  0  0  0  0  2  0  0  0  0  0  0
  -30.9230  -14.5830   20.2620 C   0  0  0  0  0  0  0  0  0  0  0  0
  -30.5570  -12.4960   18.9890 C   0  0  0  0  0  2  0  0  0  0  0  0
  -29.5770  -12.7440   17.8260 C   0  0  0  0  0  2  0  0  0  0  0  0
  -28.1170  -12.5990   18.2970 C   0  0  0  0  0  2  0  0  0  0  0  0
  -27.8270  -13.3950   19.5970 C   0  0  0  0  0  3  0  0  0  0  0  0
  -28.9090  -13.1140   20.6630 C   0  0  0  0  0  2  0  0  0  0  0  0
  -30.2210  -13.4320   20.0720 N   0  0  0  0  0  0  0  0  0  0  0  0
  -31.9920  -14.8240   19.6960 O   0  0  0  0  0  0  0  0  0  0  0  0
  -30.3460  -15.4840   21.0760 N   0  0  0  0  0  0  0  0  0  0  0  0
  -29.4650  -15.2060   21.4850 H   0  0  0  0  0  0  0  0  0  0  0  0
  -25.4430  -14.0030   20.3580 C   0  0  0  0  0  0  0  0  0  0  0  0
  -24.3840  -13.2290   20.7520 C   0  0  0  0  0  0  0  0  0  0  0  0
  -24.8460  -11.8780   20.7100 C   0  0  0  0  0  0  0  0  0  0  0  0
  -26.4830  -13.1220   20.1040 N   0  0  0  0  0  0  0  0  0  0  0  0
  -26.1280  -11.8390   20.3720 N   0  0  0  0  0  0  0  0  0  0  0  0
  -24.1250  -10.6160   20.9160 C   0  0  0  0  0  0  0  0  0  0  0  0
  -24.5620   -9.6630   21.8630 C   0  0  0  0  0  3  0  0  0  0  0  0
  -23.8430   -8.4640   22.0560 C   0  0  0  0  0  3  0  0  0  0  0  0
  -22.6730   -8.2090   21.3020 C   0  0  0  0  0  0  0  0  0  0  0  0
  -22.2550   -9.1510   20.3450 C   0  0  0  0  0  3  0  0  0  0  0  0
  -22.9750  -10.3410   20.1500 C   0  0  0  0  0  3  0  0  0  0  0  0
  -21.9250   -7.0610   21.4040 O   0  0  0  0  0  0  0  0  0  0  0  0
  -21.8550   -6.3480   22.5740 C   0  0  0  0  0  0  0  0  0  0  0  0
  -21.3810   -6.9270   23.7710 C   0  0  0  0  0  3  0  0  0  0  0  0
  -21.2620   -6.1390   24.9340 C   0  0  0  0  0  3  0  0  0  0  0  0
  -21.6050   -4.7740   24.9000 C   0  0  0  0  0  0  0  0  0  0  0  0
  -22.0710   -4.1950   23.7060 C   0  0  0  0  0  3  0  0  0  0  0  0
  -22.1930   -4.9800   22.5450 C   0  0  0  0  0  0  0  0  0  0  0  0
  -22.6230   -4.4130   21.3930 F   0  0  0  0  0  0  0  0  0  0  0  0
  -21.4820   -4.0150   26.0130 F   0  0  0  0  0  0  0  0  0  0  0  0
  -22.9940  -13.7060   21.0570 C   0  0  0  0  0  0  0  0  0  0  0  0
  -22.2860  -13.0080   21.9390 N   0  0  0  0  0  0  0  0  0  0  0  0
  -22.5430  -14.7310   20.5480 O   0  0  0  0  0  0  0  0  0  0  0  0
  -22.6640  -12.1780   22.3730 H   0  0  0  0  0  0  0  0  0  0  0  0
  -21.3540  -13.3080   22.1850 H   0  0  0  0  0  0  0  0  0  0  0  0
  -25.6030  -15.3730   20.1740 N   0  0  0  0  0  0  0  0  0  0  0  0
  -24.8330  -16.0230   20.2840 H   0  0  0  0  0  0  0  0  0  0  0  0
  -26.4350  -15.8040   19.7920 H   0  0  0  0  0  0  0  0  0  0  0  0
  -28.3530  -24.3640   19.6950 C   0  0  0  0  0  2  0  0  0  0  0  0
  -28.6160  -25.5690   20.6400 C   0  0  0  0  0  2  0  0  0  0  0  0
  -28.5410  -26.8490   19.9900 O   0  0  0  0  0  0  0  0  0  0  0  0
  -24.6230  -31.8710   23.1970 C   0  0  0  0  0  0  0  0  0  0  0  0
  -27.3430  -27.5260   20.0490 C   0  0  0  0  0  0  0  0  0  0  0  0
  -23.4410  -30.4810   21.5260 C   0  0  0  0  0  3  0  0  0  0  0  0
  -24.9210  -28.9850   20.0840 C   0  0  0  0  0  0  0  0  0  0  0  0
  -25.9600  -30.8820   21.3390 C   0  0  0  0  0  2  0  0  0  0  0  0
  -26.0680  -29.5220   20.6810 C   0  0  0  0  0  0  0  0  0  0  0  0
  -27.2830  -28.8010   20.6560 C   0  0  0  0  0  3  0  0  0  0  0  0
  -26.1790  -26.9980   19.4500 C   0  0  0  0  0  3  0  0  0  0  0  0
  -24.9710  -27.7220   19.4670 C   0  0  0  0  0  3  0  0  0  0  0  0
  -23.6630  -29.8250   20.1380 C   0  0  0  0  0  2  0  0  0  0  0  0
  -24.6930  -31.0920   22.0810 N   0  0  0  0  0  0  0  0  0  0  0  0
  -23.5370  -32.1180   23.7390 O   0  0  0  0  0  0  0  0  0  0  0  0
  -22.8030  -29.4350   22.4670 C   0  0  0  0  0  0  0  0  0  0  0  0
  -21.4800  -29.2370   22.3330 N   0  0  0  0  0  0  0  0  0  0  0  0
  -23.4930  -28.8040   23.2720 O   0  0  0  0  0  0  0  0  0  0  0  0
  -20.9850  -29.8010   21.6560 H   0  0  0  0  0  0  0  0  0  0  0  0
  -18.1210  -27.9960   22.8030 C   0  0  0  0  0  0  0  0  0  0  0  0
  -20.6750  -28.2750   23.0830 C   0  0  0  0  0  3  0  0  0  0  0  0
  -20.7940  -26.8580   22.4770 C   0  0  0  0  0  2  0  0  0  0  0  0
  -19.6960  -26.5450   21.4560 C   0  0  0  0  0  2  0  0  0  0  0  0
  -18.3120  -26.6610   22.1010 C   0  0  0  0  0  2  0  0  0  0  0  0
  -19.2310  -28.7590   23.2510 C   0  0  0  0  0  0  0  0  0  0  0  0
  -18.9990  -30.0090   23.8670 C   0  0  0  0  0  3  0  0  0  0  0  0
  -17.6880  -30.4930   24.0400 C   0  0  0  0  0  3  0  0  0  0  0  0
  -16.5920  -29.7260   23.6110 C   0  0  0  0  0  3  0  0  0  0  0  0
  -16.8100  -28.4780   22.9970 C   0  0  0  0  0  3  0  0  0  0  0  0
  -25.8990  -32.5090   23.8320 C   0  0  0  0  0  3  0  0  0  0  0  0
  -25.5770  -33.9010   24.1670 N   0  0  0  0  0  0  0  0  0  0  0  0
  -25.9070  -34.9600   23.4150 C   0  0  0  0  0  0  0  0  0  0  0  0
  -26.5870  -34.8670   22.3890 O   0  0  0  0  0  0  0  0  0  0  0  0
  -24.9750  -34.0480   24.9640 H   0  0  0  0  0  0  0  0  0  0  0  0
  -24.1720  -36.7430   23.0500 C   0  0  0  0  0  1  0  0  0  0  0  0
  -25.4050  -36.3420   23.8750 C   0  0  0  0  0  3  0  0  0  0  0  0
  -27.5190  -37.2380   24.7440 C   0  0  0  0  0  1  0  0  0  0  0  0
  -26.4320  -37.4030   23.7820 N   0  0  0  0  0  0  0  0  0  0  0  0
  -26.0170  -38.3190   23.9250 H   0  0  0  0  0  0  0  0  0  0  0  0
  -26.4140  -31.7320   25.1050 C   0  0  1  0  0  0  0  0  0  0  0  0
  -25.3160  -31.4740   26.1630 C   0  0  0  0  0  1  0  0  0  0  0  0
  -27.0120  -30.3640   24.7030 C   0  0  0  0  0  1  0  0  0  0  0  0
  -27.5540  -32.5300   25.7800 C   0  0  0  0  0  1  0  0  0  0  0  0
  1  5  1  0
  3  1  1  0
  3  6  1  0
  4  2  1  0
  5  8  1  0
  5  2  1  0
  6  4  1  0
  6  7  1  1
  8 10  1  0
  9  8  1  0
 11  8  1  0
 11 12  1  0
 13 21  1  0
 14 19  1  0
 15 16  1  0
 15 14  1  0
 17 16  1  0
 17 26  1  0
 17 18  1  0
 19 13  1  0
 19 18  1  0
 20 13  2  0
 21 22  1  0
 21 12  1  0
 23 24  2  0
 24 43  1  0
 25 24  1  0
 25 28  1  0
 26 23  1  0
 26 27  1  0
 27 25  2  0
 28 29  1  0
 29 30  2  0
 31 34  1  0
 31 30  1  0
 32 31  2  0
 33 32  1  0
 33 28  2  0
 34 35  1  0
 35 36  1  0
 36 37  2  0
 38 37  1  0
 38 42  1  0
 39 38  2  0
 40 35  2  0
 40 39  1  0
 41 40  1  0
 43 44  1  0
 44 47  1  0
 44 46  1  0
 45 43  2  0
 48 49  1  0
 48 23  1  0
 50 48  1  0
 51  6  1  0
 51 52  1  0
 53 55  1  0
 53 52  1  0
 54 65  2  0
 55 60  1  0
 56 64  1  0
 56 66  1  0
 57 63  1  0
 57 59  1  0
 58 64  1  0
 59 58  1  0
 60 59  2  0
 61 62  1  0
 61 55  2  0
 62 57  2  0
 63 56  1  0
 64 54  1  0
 66 68  2  0
 67 66  1  0
 69 67  1  0
 70 79  2  0
 70 75  1  0
 71 67  1  0
 71 75  1  0
 72 71  1  0
 73 74  1  0
 73 72  1  0
 74 70  1  0
 75 76  2  0
 76 77  1  0
 78 77  2  0
 79 78  1  0
 80 54  1  0
 80 81  1  0
 80 90  1  0
 81 84  1  0
 82 86  1  0
 82 81  1  0
 83 82  2  0
 86 85  1  0
 88 86  1  0
 88 89  1  0
 88 87  1  0
 90 93  1  1
 90 91  1  0
 92 90  1  0
M  ISO  4  13 100  21 100  52 101  53 101
M  END
>  <TORSDO>  (36) 
F 21

>  <SCORE>  (36) 
-13.275

>  <name>  (36) 
35

>  <ligand_id>  (36) 
35

>  <original_smiles>  (36) 
[H]c1c([H])c([H])c2c(c1[H])C([H])([H])C([H])([H])C([H])([H])C2([H])N([H])C(=O)C1([H])N(C(=O)C([H])(N([H])C(=O)C([H])(N([H])C([H])([H])[H])C([H])([H])[H])C(C([H])([H])[H])(C([H])([H])[H])C([H])([H])[H])C([H])([H])c2c([H])c(OC([H])([H])C([H])([H])[N+]3([H])C([H])([H])C([H])([H])C([H])([N+]([H])([H])C([H])([H])C([H])([H])N([H])C(=O)N4C([H])([H])C([H])([H])C([H])([H])C([H])(n5nc(-c6c([H])c([H])c(Oc7c([H])c([H])c(F)c([H])c7F)c([H])c6[H])c(C(=O)N([H])[H])c5N([H])[H])C4([H])[H])C([H])([H])C3([H])[H])c([H])c([H])c2C1([H])[H]

>  <smiles>  (36) 
[H]c1c([H])c([H])c2c(c1[H])C([H])([H])C([H])([H])C([H])([H])C2([H])N([H])C(=O)C1([H])N(C(=O)C([H])(N([H])C(=O)C([H])(N([H])C([H])([H])[H])C([H])([H])[H])C(C([H])([H])[H])(C([H])([H])[H])C([H])([H])[H])C([H])([H])c2c([H])c(OC([H])([H])C([H])([H])[N+]3([H])C([H])([H])C([H])([H])C([H])([N+]([H])([H])C([H])([H])C([H])([H])N([H])C(=O)N4C([H])([H])C([H])([H])C([H])([H])C([H])(n5nc(-c6c([H])c([H])c(Oc7c([H])c([H])c(F)c([H])c7F)c([H])c6[H])c(C(=O)N([H])[H])c5N([H])[H])C4([H])[H])C([H])([H])C3([H])[H])c([H])c([H])c2C1([H])[H]

$$$$
36:0:0
     RDKit          3D

 91 99  0  0  1  0  0  0  0  0999 V2000
  -28.1580  -18.4670   20.6500 C   0  0  0  0  0  2  0  0  0  0  0  0
  -27.5970  -19.8950   20.4120 C   0  0  0  0  0  2  0  0  0  0  0  0
  -29.6800  -18.5470   20.4410 C   0  0  0  0  0  3  0  0  0  0  0  0
  -28.8060  -20.8750   20.3340 C   0  0  0  0  0  3  0  0  0  0  0  0
  -29.8940  -19.9370   19.8580 N   0  0  0  0  0  4  0  0  0  0  0  0
  -30.8010  -20.2900   20.1230 H   0  0  0  0  0  0  0  0  0  0  0  0
  -29.8600  -19.8870   18.8530 H   0  0  0  0  0  0  0  0  0  0  0  0
  -27.3010  -22.2900   18.7170 C   0  0  0  0  0  1  0  0  0  0  0  0
  -28.6110  -22.3100   19.5520 C   0  0  0  0  0  3  0  0  0  0  0  0
  -28.6360  -23.7320   20.3470 C   0  0  0  0  0  3  0  0  0  0  0  0
  -28.6970  -25.1130   19.4990 C   0  0  0  0  0  3  0  0  0  0  0  0
  -28.6080  -26.4830   20.1110 O   0  0  0  0  0  0  0  0  0  0  0  0
  -24.6390  -31.7200   23.1590 C   0  0  0  0  0  0  0  0  0  0  0  0
  -27.4640  -27.3110   20.0340 C   0  0  0  0  0  0  0  0  0  0  0  0
  -23.5320  -30.3420   21.4400 C   0  0  0  0  0  3  0  0  0  0  0  0
  -25.0630  -28.8910   19.9950 C   0  0  0  0  0  0  0  0  0  0  0  0
  -26.0640  -30.7390   21.3340 C   0  0  0  0  0  2  0  0  0  0  0  0
  -26.2000  -29.3860   20.6410 C   0  0  0  0  0  0  0  0  0  0  0  0
  -27.4010  -28.6090   20.6510 C   0  0  0  0  0  3  0  0  0  0  0  0
  -26.2930  -26.8790   19.3740 C   0  0  0  0  0  3  0  0  0  0  0  0
  -25.1130  -27.6470   19.3510 C   0  0  0  0  0  3  0  0  0  0  0  0
  -23.7990  -29.7280   20.0420 C   0  0  0  0  0  2  0  0  0  0  0  0
  -24.7640  -30.9480   22.0370 N   0  0  0  0  0  0  0  0  0  0  0  0
  -23.5300  -31.9390   23.6730 O   0  0  0  0  0  0  0  0  0  0  0  0
  -22.8730  -29.2700   22.3460 C   0  0  0  0  0  0  0  0  0  0  0  0
  -21.5460  -29.0910   22.2150 N   0  0  0  0  0  0  0  0  0  0  0  0
  -23.5570  -28.6080   23.1320 O   0  0  0  0  0  0  0  0  0  0  0  0
  -21.0460  -29.6840   21.5660 H   0  0  0  0  0  0  0  0  0  0  0  0
  -18.1780  -27.8730   22.7180 C   0  0  0  0  0  0  0  0  0  0  0  0
  -20.7450  -28.1020   22.9390 C   0  0  0  0  0  3  0  0  0  0  0  0
  -20.8210  -26.7120   22.2630 C   0  0  0  0  0  2  0  0  0  0  0  0
  -19.6920  -26.4670   21.2560 C   0  0  0  0  0  2  0  0  0  0  0  0
  -18.3290  -26.5740   21.9460 C   0  0  0  0  0  2  0  0  0  0  0  0
  -19.3140  -28.5970   23.1730 C   0  0  0  0  0  0  0  0  0  0  0  0
  -19.1150  -29.8140   23.8600 C   0  0  0  0  0  3  0  0  0  0  0  0
  -17.8180  -30.3090   24.0920 C   0  0  0  0  0  3  0  0  0  0  0  0
  -16.6990  -29.5790   23.6540 C   0  0  0  0  0  3  0  0  0  0  0  0
  -16.8810  -28.3630   22.9720 C   0  0  0  0  0  3  0  0  0  0  0  0
  -25.8800  -32.3770   23.8370 C   0  0  0  0  0  3  0  0  0  0  0  0
  -26.3390  -31.6270   25.1460 C   0  0  1  0  0  0  0  0  0  0  0  0
  -25.2000  -31.3850   26.1620 C   0  0  0  0  0  1  0  0  0  0  0  0
  -26.9570  -30.2530   24.7980 C   0  0  0  0  0  1  0  0  0  0  0  0
  -27.4430  -32.4430   25.8580 C   0  0  0  0  0  1  0  0  0  0  0  0
  -25.5320  -33.7740   24.1420 N   0  0  0  0  0  0  0  0  0  0  0  0
  -25.8810  -34.8280   23.3940 C   0  0  0  0  0  0  0  0  0  0  0  0
  -26.6000  -34.7300   22.3960 O   0  0  0  0  0  0  0  0  0  0  0  0
  -24.8970  -33.9220   24.9130 H   0  0  0  0  0  0  0  0  0  0  0  0
  -24.1540  -36.6010   22.9420 C   0  0  0  0  0  1  0  0  0  0  0  0
  -25.3530  -36.2110   23.8200 C   0  0  0  0  0  3  0  0  0  0  0  0
  -27.4210  -37.1360   24.7680 C   0  0  0  0  0  1  0  0  0  0  0  0
  -26.3750  -37.2750   23.7600 N   0  0  0  0  0  0  0  0  0  0  0  0
  -25.9520  -38.1930   23.8650 H   0  0  0  0  0  0  0  0  0  0  0  0
  -30.3610  -17.2950   19.6850 C   0  0  0  0  0  2  0  0  0  0  0  0
  -30.9190  -14.7590   19.9420 C   0  0  0  0  0  0  0  0  0  0  0  0
  -30.6490  -12.5040   18.9340 C   0  0  0  0  0  2  0  0  0  0  0  0
  -29.6460  -12.6130   17.7630 C   0  0  0  0  0  2  0  0  0  0  0  0
  -28.1970  -12.4580   18.2710 C   0  0  0  0  0  2  0  0  0  0  0  0
  -27.8990  -13.3410   19.5130 C   0  0  0  0  0  3  0  0  0  0  0  0
  -29.0150  -13.2100   20.5760 C   0  0  0  0  0  2  0  0  0  0  0  0
  -30.2880  -13.5380   19.9260 N   0  0  0  0  0  0  0  0  0  0  0  0
  -32.0750  -14.8760   19.5350 O   0  0  0  0  0  0  0  0  0  0  0  0
  -30.1360  -15.8700   20.1730 N   0  0  0  0  0  0  0  0  0  0  0  0
  -29.2010  -15.6660   20.4820 H   0  0  0  0  0  0  0  0  0  0  0  0
  -25.5670  -13.9590   20.3850 C   0  0  0  0  0  0  0  0  0  0  0  0
  -24.5120  -13.1950   20.8010 C   0  0  0  0  0  0  0  0  0  0  0  0
  -24.9490  -11.8370   20.7140 C   0  0  0  0  0  0  0  0  0  0  0  0
  -26.5780  -13.0690   20.0710 N   0  0  0  0  0  0  0  0  0  0  0  0
  -26.2200  -11.7880   20.3330 N   0  0  0  0  0  0  0  0  0  0  0  0
  -24.2130  -10.5820   20.9160 C   0  0  0  0  0  0  0  0  0  0  0  0
  -24.6440   -9.6190   21.8550 C   0  0  0  0  0  3  0  0  0  0  0  0
  -23.9140   -8.4270   22.0440 C   0  0  0  0  0  3  0  0  0  0  0  0
  -22.7370   -8.1880   21.2980 C   0  0  0  0  0  0  0  0  0  0  0  0
  -22.3260   -9.1410   20.3480 C   0  0  0  0  0  3  0  0  0  0  0  0
  -23.0560  -10.3240   20.1550 C   0  0  0  0  0  3  0  0  0  0  0  0
  -21.9770   -7.0490   21.3970 O   0  0  0  0  0  0  0  0  0  0  0  0
  -21.8880   -6.3420   22.5710 C   0  0  0  0  0  0  0  0  0  0  0  0
  -21.3830   -6.9240   23.7520 C   0  0  0  0  0  3  0  0  0  0  0  0
  -21.2420   -6.1440   24.9180 C   0  0  0  0  0  3  0  0  0  0  0  0
  -21.6000   -4.7820   24.9020 C   0  0  0  0  0  0  0  0  0  0  0  0
  -22.1010   -4.2000   23.7250 C   0  0  0  0  0  3  0  0  0  0  0  0
  -22.2430   -4.9790   22.5610 C   0  0  0  0  0  0  0  0  0  0  0  0
  -22.7050   -4.4080   21.4230 F   0  0  0  0  0  0  0  0  0  0  0  0
  -21.4590   -4.0300   26.0180 F   0  0  0  0  0  0  0  0  0  0  0  0
  -23.1360  -13.6830   21.1590 C   0  0  0  0  0  0  0  0  0  0  0  0
  -22.4500  -12.9780   22.0510 N   0  0  0  0  0  0  0  0  0  0  0  0
  -22.6890  -14.7270   20.6860 O   0  0  0  0  0  0  0  0  0  0  0  0
  -22.8280  -12.1330   22.4530 H   0  0  0  0  0  0  0  0  0  0  0  0
  -21.5300  -13.2890   22.3350 H   0  0  0  0  0  0  0  0  0  0  0  0
  -25.7420  -15.3320   20.2190 N   0  0  0  0  0  0  0  0  0  0  0  0
  -24.9860  -15.9920   20.3590 H   0  0  0  0  0  0  0  0  0  0  0  0
  -26.5460  -15.7420   19.7630 H   0  0  0  0  0  0  0  0  0  0  0  0
  2  1  1  0
  3 53  1  0
  3  1  1  0
  4  9  1  0
  4  2  1  0
  5  6  1  0
  5  4  1  0
  5  3  1  0
  7  5  1  0
  9  8  1  0
  9 10  1  0
 11 12  1  0
 11 10  2  0
 13 24  2  0
 14 12  1  0
 14 19  1  0
 15 23  1  0
 15 25  1  0
 16 22  1  0
 16 18  1  0
 17 23  1  0
 18 19  2  0
 18 17  1  0
 20 14  2  0
 21 20  1  0
 21 16  2  0
 22 15  1  0
 23 13  1  0
 25 27  2  0
 26 25  1  0
 28 26  1  0
 29 38  2  0
 29 34  1  0
 30 26  1  0
 30 34  1  0
 31 30  1  0
 32 33  1  0
 32 31  1  0
 33 29  1  0
 34 35  2  0
 35 36  1  0
 37 36  2  0
 38 37  1  0
 39 13  1  0
 39 44  1  0
 39 40  1  0
 40 43  1  1
 40 41  1  0
 42 40  1  0
 44 47  1  0
 45 49  1  0
 45 44  1  0
 46 45  2  0
 49 48  1  0
 51 49  1  0
 51 52  1  0
 51 50  1  0
 53 62  1  0
 54 62  1  0
 55 60  1  0
 56 57  1  0
 56 55  1  0
 58 57  1  0
 58 67  1  0
 58 59  1  0
 60 54  1  0
 60 59  1  0
 61 54  2  0
 62 63  1  0
 64 65  2  0
 65 84  1  0
 66 65  1  0
 66 69  1  0
 67 68  1  0
 67 64  1  0
 68 66  2  0
 69 70  1  0
 70 71  2  0
 72 75  1  0
 72 71  1  0
 73 72  2  0
 74 73  1  0
 74 69  2  0
 75 76  1  0
 76 77  1  0
 77 78  2  0
 79 78  1  0
 79 83  1  0
 80 79  2  0
 81 76  2  0
 81 80  1  0
 82 81  1  0
 84 85  1  0
 85 88  1  0
 85 87  1  0
 86 84  2  0
 89 90  1  0
 89 64  1  0
 91 89  1  0
M  ISO  4  11 101  12 101  54 100  62 100
M  END
>  <TORSDO>  (37) 
F 20

>  <SCORE>  (37) 
-12.997

>  <name>  (37) 
36

>  <ligand_id>  (37) 
36

>  <original_smiles>  (37) 
[H]c1c([H])c([H])c2c(c1[H])C([H])([H])C([H])([H])C([H])([H])C2([H])N([H])C(=O)C1([H])N(C(=O)C([H])(N([H])C(=O)C([H])(N([H])C([H])([H])[H])C([H])([H])[H])C(C([H])([H])[H])(C([H])([H])[H])C([H])([H])[H])C([H])([H])c2c([H])c(OC([H])([H])C([H])([H])C([H])(C([H])([H])[H])C3([H])C([H])([H])C([H])([H])C([H])(C([H])([H])N([H])C(=O)N4C([H])([H])C([H])([H])C([H])([H])C([H])(n5nc(-c6c([H])c([H])c(Oc7c([H])c([H])c(F)c([H])c7F)c([H])c6[H])c(C(=O)N([H])[H])c5N([H])[H])C4([H])[H])[N+]3([H])[H])c([H])c([H])c2C1([H])[H]

>  <smiles>  (37) 
[H]c1c([H])c([H])c2c(c1[H])C([H])([H])C([H])([H])C([H])([H])C2([H])N([H])C(=O)C1([H])N(C(=O)C([H])(N([H])C(=O)C([H])(N([H])C([H])([H])[H])C([H])([H])[H])C(C([H])([H])[H])(C([H])([H])[H])C([H])([H])[H])C([H])([H])c2c([H])c(OC([H])([H])C([H])([H])C([H])(C([H])([H])[H])C3([H])C([H])([H])C([H])([H])C([H])(C([H])([H])N([H])C(=O)N4C([H])([H])C([H])([H])C([H])([H])C([H])(n5nc(-c6c([H])c([H])c(Oc7c([H])c([H])c(F)c([H])c7F)c([H])c6[H])c(C(=O)N([H])[H])c5N([H])[H])C4([H])[H])[N+]3([H])[H])c([H])c([H])c2C1([H])[H]

$$$$
37:0:0
     RDKit          3D

 99 99  0  0  1  0  0  0  0  0999 V2000
  -29.1170  -18.8850   22.5170 C   0  0  0  0  0  2  0  0  0  0  0  0
  -28.1840  -19.5810   21.5350 C   0  0  0  0  0  2  0  0  0  0  0  0
  -28.8660  -17.3860   22.4970 C   0  0  0  0  0  2  0  0  0  0  0  0
  -26.3860  -17.3850   21.9160 C   0  0  0  0  0  1  0  0  0  0  0  0
  -26.6810  -19.4690   21.9050 C   0  0  0  0  0  1  0  0  0  0  0  0
  -27.4770  -17.1120   22.8850 N   0  0  0  0  0  4  0  0  0  0  0  0
  -27.2500  -17.5860   23.7450 H   0  0  0  0  0  0  0  0  0  0  0  0
  -27.3960  -16.1310   23.1070 H   0  0  0  0  0  0  0  0  0  0  0  0
  -25.6480  -15.6880   22.6200 C   0  0  0  0  0  2  0  0  0  0  0  0
  -26.2670  -10.5400   20.4660 C   0  0  0  0  0 15  0  0  0  0  0  0
  -25.7510  -12.6000   23.4040 C   0  0  0  0  0  1  0  0  0  0  0  0
  -26.3480  -10.7960   22.5400 C   0  0  0  0  0  1  0  0  0  0  0  0
  -25.8590  -12.3330   19.3590 C   0  0  0  0  0 15  0  0  0  0  0  0
  -25.4870  -14.0810   22.2930 N   0  0  0  0  0  2  0  0  0  0  0  0
  -25.2610  -15.8980   23.7730 O   0  0  0  0  0  1  0  0  0  0  0  0
  -27.6580  -10.7440   22.8190 F   0  0  0  0  0  0  0  0  0  0  0  0
  -27.0180  -13.4110   18.1200 C   0  0  0  0  0  1  0  0  0  0  0  0
  -29.7680  -14.5040   19.3110 C   0  0  0  0  0  0  0  0  0  0  0  0
  -30.7960  -12.3960   19.4300 C   0  0  0  0  0  2  0  0  0  0  0  0
  -29.7760  -11.8270   18.4620 C   0  0  0  0  0  2  0  0  0  0  0  0
  -28.5370  -11.6010   19.4000 C   0  0  0  0  0  2  0  0  0  0  0  0
  -28.0780  -12.7640   20.5700 C   0  0  1  0  0  0  0  0  0  0  0  0
  -29.3060  -13.1800   21.2530 C   0  0  0  0  0  2  0  0  0  0  0  0
  -30.1270  -13.4940   20.1230 N   0  0  0  0  0  0  0  0  0  0  0  0
  -30.7450  -15.2830   19.2970 O   0  0  0  0  0  0  0  0  0  0  0  0
  -28.4810  -14.4270   18.4560 N   0  0  0  0  0  0  0  0  0  0  0  0
  -28.4780  -15.2250   17.8370 H   0  0  0  0  0  0  0  0  0  0  0  0
  -25.3340  -14.4320   20.0610 C   0  0  0  0  0  3  0  0  0  0  0  0
  -24.1270  -13.4790   20.5050 C   0  0  0  0  0  3  0  0  0  0  0  0
  -24.7030  -12.2220   21.2410 C   0  0  0  0  0  2  0  0  0  0  0  0
  -26.9590  -13.9060   20.5530 N   0  0  0  0  0  0  0  0  0  0  0  0
  -26.7130  -12.6540   21.2780 N   0  0  0  0  0  2  0  0  0  0  0  0
  -23.8050  -10.8180   21.3310 C   0  0  0  0  0  0  0  0  0  0  0  0
  -23.9070   -9.7840   22.3230 C   0  0  0  0  0  3  0  0  0  0  0  0
  -23.4130   -8.4650   22.2680 C   0  0  0  0  0  3  0  0  0  0  0  0
  -22.4240   -8.1410   21.3350 C   0  0  0  0  0  0  0  0  0  0  0  0
  -22.1490   -9.1400   20.3680 C   0  0  0  0  0  3  0  0  0  0  0  0
  -22.8600  -10.3920   20.3300 C   0  0  0  0  0  3  0  0  0  0  0  0
  -21.7070   -6.9500   21.3740 O   0  0  0  0  0  0  0  0  0  0  0  0
  -21.6940   -6.1170   22.4860 C   0  0  0  0  0  0  0  0  0  0  0  0
  -21.3880   -6.5870   23.7870 C   0  0  0  0  0  3  0  0  0  0  0  0
  -21.3480   -5.7010   24.8850 C   0  0  0  0  0  3  0  0  0  0  0  0
  -21.5980   -4.3290   24.6980 C   0  0  0  0  0  0  0  0  0  0  0  0
  -21.8800   -3.8460   23.4090 C   0  0  0  0  0  3  0  0  0  0  0  0
  -21.9240   -4.7310   22.3130 C   0  0  0  0  0  0  0  0  0  0  0  0
  -22.1760   -4.2380   21.0790 F   0  0  0  0  0  0  0  0  0  0  0  0
  -21.5590   -3.4740   25.7500 F   0  0  0  0  0  0  0  0  0  0  0  0
  -22.7060  -13.8130   20.8810 C   0  0  0  0  0  0  0  0  0  0  0  0
  -22.0500  -13.0510   21.7750 N   0  0  0  0  0  0  0  0  0  0  0  0
  -22.1960  -14.8290   20.4590 O   0  0  0  0  0  0  0  0  0  0  0  0
  -22.4430  -12.1950   22.1360 H   0  0  0  0  0  0  0  0  0  0  0  0
  -21.1140  -13.3110   22.0540 H   0  0  0  0  0  0  0  0  0  0  0  0
  -25.2510  -15.7210   19.6740 N   0  0  0  0  0  0  0  0  0  0  0  0
  -24.3690  -16.0260   19.2780 H   0  0  0  0  0  0  0  0  0  0  0  0
  -26.0360  -16.0950   19.1560 H   0  0  0  0  0  0  0  0  0  0  0  0
  -26.2950  -21.4110   21.3660 C   0  0  0  0  0 15  0  0  0  0  0  0
  -27.0510  -23.0580   19.2110 C   0  0  0  0  0  1  0  0  0  0  0  0
  -27.0910  -23.2030   20.7360 C   0  0  0  0  0  2  0  0  0  0  0  0
  -27.3990  -25.0360   20.8340 O   0  0  0  0  0  0  0  0  0  0  0  0
  -24.6840  -31.7940   23.1560 C   0  0  0  0  0  0  0  0  0  0  0  0
  -26.8130  -26.4450   20.4590 C   0  0  0  0  0  0  0  0  0  0  0  0
  -23.4980  -30.4190   21.5070 C   0  0  0  0  0  3  0  0  0  0  0  0
  -24.9020  -28.7450   20.0980 C   0  0  0  0  0  0  0  0  0  0  0  0
  -26.0740  -30.4490   21.4570 C   0  0  0  0  0  2  0  0  0  0  0  0
  -26.0660  -28.9970   20.8290 C   0  0  0  0  0  0  0  0  0  0  0  0
  -27.0280  -27.8660   20.9770 C   0  0  0  0  0  3  0  0  0  0  0  0
  -25.7610  -26.4820   19.5270 C   0  0  0  0  0  3  0  0  0  0  0  0
  -24.8210  -27.5370   19.3900 C   0  0  0  0  0  3  0  0  0  0  0  0
  -23.7480  -29.7520   20.1210 C   0  0  0  0  0  2  0  0  0  0  0  0
  -24.7790  -30.9310   22.0870 N   0  0  0  0  0  0  0  0  0  0  0  0
  -23.5870  -32.1120   23.6480 O   0  0  0  0  0  0  0  0  0  0  0  0
  -22.7710  -29.4320   22.4620 C   0  0  0  0  0  0  0  0  0  0  0  0
  -21.4360  -29.3020   22.3410 N   0  0  0  0  0  0  0  0  0  0  0  0
  -23.4160  -28.7890   23.2940 O   0  0  0  0  0  0  0  0  0  0  0  0
  -20.9630  -29.8720   21.6530 H   0  0  0  0  0  0  0  0  0  0  0  0
  -18.0330  -28.1410   22.8450 C   0  0  0  0  0  0  0  0  0  0  0  0
  -20.5950  -28.3770   23.1120 C   0  0  0  0  0  3  0  0  0  0  0  0
  -20.6790  -26.9430   22.5390 C   0  0  0  0  0  2  0  0  0  0  0  0
  -19.5760  -26.6360   21.5200 C   0  0  0  0  0  2  0  0  0  0  0  0
  -18.1950  -26.7940   22.1620 C   0  0  0  0  0  2  0  0  0  0  0  0
  -19.1590  -28.8910   23.2770 C   0  0  0  0  0  0  0  0  0  0  0  0
  -18.9510  -30.1490   23.8820 C   0  0  0  0  0  3  0  0  0  0  0  0
  -17.6500  -30.6600   24.0550 C   0  0  0  0  0  3  0  0  0  0  0  0
  -16.5390  -29.9090   23.6350 C   0  0  0  0  0  3  0  0  0  0  0  0
  -16.7310  -28.6500   23.0370 C   0  0  0  0  0  3  0  0  0  0  0  0
  -25.9460  -32.4390   23.8060 C   0  0  0  0  0  3  0  0  0  0  0  0
  -26.4620  -31.6490   25.0730 C   0  0  1  0  0  0  0  0  0  0  0  0
  -25.3680  -31.3850   26.1350 C   0  0  0  0  0  1  0  0  0  0  0  0
  -27.0580  -30.2800   24.6770 C   0  0  0  0  0  1  0  0  0  0  0  0
  -27.6030  -32.4400   25.7550 C   0  0  0  0  0  1  0  0  0  0  0  0
  -25.6040  -33.8240   24.1920 N   0  0  0  0  0  0  0  0  0  0  0  0
  -25.9150  -34.9240   23.4920 C   0  0  0  0  0  0  0  0  0  0  0  0
  -26.5790  -34.8830   22.4540 O   0  0  0  0  0  0  0  0  0  0  0  0
  -25.0110  -33.9280   25.0020 H   0  0  0  0  0  0  0  0  0  0  0  0
  -24.1500  -36.7100   23.2650 C   0  0  0  0  0  1  0  0  0  0  0  0
  -25.4160  -36.2850   24.0270 C   0  0  0  0  0  3  0  0  0  0  0  0
  -27.5550  -37.1720   24.8470 C   0  0  0  0  0  1  0  0  0  0  0  0
  -26.4260  -37.3630   23.9410 N   0  0  0  0  0  0  0  0  0  0  0  0
  -26.0070  -38.2660   24.1440 H   0  0  0  0  0  0  0  0  0  0  0  0
  2  5  1  0
  2  1  1  0
  3  1  1  0
  3  6  1  0
  4  6  1  0
  6  8  1  0
  6  7  1  0
  9 15  1  0
 12 16  1  0
 14  9  1  0
 14 11  1  0
 17 26  1  0
 18 24  1  0
 19 24  1  0
 20 21  1  0
 20 19  1  0
 22 21  1  6
 22 23  1  0
 22 32  1  0
 24 23  1  0
 25 18  2  0
 26 18  1  0
 27 26  1  0
 28 53  1  0
 28 29  1  0
 28 31  1  0
 29 48  1  0
 29 30  1  0
 30 33  1  0
 31 22  1  0
 31 32  1  0
 33 34  1  0
 35 34  2  0
 36 39  1  0
 36 35  1  0
 37 36  2  0
 38 37  1  0
 38 33  2  0
 39 40  1  0
 40 41  1  0
 41 42  2  0
 43 42  1  0
 43 47  1  0
 44 43  2  0
 45 40  2  0
 45 44  1  0
 46 45  1  0
 48 49  1  0
 49 52  1  0
 49 51  1  0
 50 48  2  0
 54 53  1  0
 55 53  1  0
 57 58  1  0
 58 59  1  0
 60 71  2  0
 61 59  1  0
 61 66  1  0
 62 70  1  0
 62 72  1  0
 63 69  1  0
 63 65  1  0
 64 70  1  0
 65 66  2  0
 65 64  1  0
 67 61  2  0
 68 67  1  0
 68 63  2  0
 69 62  1  0
 70 60  1  0
 72 74  2  0
 73 72  1  0
 75 73  1  0
 76 85  2  0
 76 81  1  0
 77 73  1  0
 77 81  1  0
 78 77  1  0
 79 80  1  0
 79 78  1  0
 80 76  1  0
 81 82  2  0
 82 83  1  0
 84 83  2  0
 85 84  1  0
 86 60  1  0
 86 91  1  0
 86 87  1  0
 87 90  1  1
 87 88  1  0
 89 87  1  0
 91 94  1  0
 92 96  1  0
 92 91  1  0
 93 92  2  0
 96 95  1  0
 98 96  1  0
 98 99  1  0
 98 97  1  0
M  ISO  4  18 100  26 100  58 101  59 101
M  END
>  <TORSDO>  (38) 
F 20

>  <SCORE>  (38) 
31.813

>  <name>  (38) 
37

>  <ligand_id>  (38) 
37

>  <original_smiles>  (38) 
[H]c1c([H])c([H])c2c(c1[H])C([H])([H])C([H])([H])C([H])([H])C2([H])N([H])C(=O)C1([H])N(C(=O)C([H])(N([H])C(=O)C([H])(N([H])C([H])([H])[H])C([H])([H])[H])C(C([H])([H])[H])(C([H])([H])[H])C([H])([H])[H])C([H])([H])c2c([H])c(OC([H])(C([H])([H])[H])C([H])([H])C3([H])C([H])([H])C([H])([H])C([H])([H])[N+]([H])([H])C3([H])C(=O)N3C([H])([H])C([H])(F)C([H])([H])C3([H])C([H])([H])N([H])C(=O)N3C([H])([H])C([H])([H])C([H])([H])C([H])(n4nc(-c5c([H])c([H])c(Oc6c([H])c([H])c(F)c([H])c6F)c([H])c5[H])c(C(=O)N([H])[H])c4N([H])[H])C3([H])[H])c([H])c([H])c2C1([H])[H]

>  <smiles>  (38) 
[H]c1c([H])c([H])c2c(c1[H])C([H])([H])C([H])([H])C([H])([H])C2([H])N([H])C(=O)C1([H])N(C(=O)C([H])(N([H])C(=O)C([H])(N([H])C([H])([H])[H])C([H])([H])[H])C(C([H])([H])[H])(C([H])([H])[H])C([H])([H])[H])C([H])([H])c2c([H])c(OC([H])(C([H])([H])[H])C([H])([H])C3([H])C([H])([H])C([H])([H])C([H])([H])[N+]([H])([H])C3([H])C(=O)N3C([H])([H])C([H])(F)C([H])([H])C3([H])C([H])([H])N([H])C(=O)N3C([H])([H])C([H])([H])C([H])([H])C([H])(n4nc(-c5c([H])c([H])c(Oc6c([H])c([H])c(F)c([H])c6F)c([H])c5[H])c(C(=O)N([H])[H])c4N([H])[H])C3([H])[H])c([H])c([H])c2C1([H])[H]

$$$$
38:0:0
     RDKit          3D

 88 96  0  0  1  0  0  0  0  0999 V2000
  -29.4230  -19.8930   20.5590 C   0  0  0  0  0  0  0  0  0  0  0  0
  -29.1680  -21.2530   20.0090 N   0  0  0  0  0  0  0  0  0  0  0  0
  -29.3020  -19.7920   21.7800 O   0  0  0  0  0  0  0  0  0  0  0  0
  -29.2470  -21.2500   19.0000 H   0  0  0  0  0  0  0  0  0  0  0  0
  -30.4150  -15.4330   20.1630 C   0  0  0  0  0  0  0  0  0  0  0  0
  -30.3810  -12.9570   19.3350 C   0  0  0  0  0  2  0  0  0  0  0  0
  -29.4540  -12.6850   18.1220 C   0  0  0  0  0  2  0  0  0  0  0  0
  -28.0180  -12.3790   18.5850 C   0  0  0  0  0  2  0  0  0  0  0  0
  -27.5460  -13.3600   19.6800 C   0  0  0  0  0  3  0  0  0  0  0  0
  -28.6090  -13.6080   20.7810 C   0  0  0  0  0  2  0  0  0  0  0  0
  -29.8280  -14.1220   20.1190 N   0  0  0  0  0  0  0  0  0  0  0  0
  -31.6520  -15.3850   20.0740 O   0  0  0  0  0  0  0  0  0  0  0  0
  -28.0350  -17.8380   18.5500 C   0  0  0  0  0  2  0  0  0  0  0  0
  -29.3650  -18.5320   18.3570 C   0  0  0  0  0  2  0  0  0  0  0  0
  -28.4540  -16.5410   19.2380 C   0  0  0  0  0  2  0  0  0  0  0  0
  -29.9170  -18.3960   19.7730 C   0  0  0  0  0  3  0  0  0  0  0  0
  -29.6720  -16.7420   20.0380 N   0  0  0  0  0  0  0  0  0  0  0  0
  -25.1840  -13.9500   20.4480 C   0  0  0  0  0  0  0  0  0  0  0  0
  -24.1200  -13.1830   20.8220 C   0  0  0  0  0  0  0  0  0  0  0  0
  -24.5860  -11.8320   20.8000 C   0  0  0  0  0  0  0  0  0  0  0  0
  -26.2250  -13.0670   20.2100 N   0  0  0  0  0  0  0  0  0  0  0  0
  -25.8760  -11.7870   20.4900 N   0  0  0  0  0  0  0  0  0  0  0  0
  -23.8570  -10.5760   20.9930 C   0  0  0  0  0  0  0  0  0  0  0  0
  -24.2810   -9.6170   21.9370 C   0  0  0  0  0  3  0  0  0  0  0  0
  -23.5510   -8.4240   22.1190 C   0  0  0  0  0  3  0  0  0  0  0  0
  -22.3830   -8.1850   21.3580 C   0  0  0  0  0  0  0  0  0  0  0  0
  -21.9780   -9.1340   20.4020 C   0  0  0  0  0  3  0  0  0  0  0  0
  -22.7090  -10.3180   20.2180 C   0  0  0  0  0  3  0  0  0  0  0  0
  -21.6240   -7.0450   21.4510 O   0  0  0  0  0  0  0  0  0  0  0  0
  -21.5610   -6.3170   22.6110 C   0  0  0  0  0  0  0  0  0  0  0  0
  -21.1110   -6.8840   23.8230 C   0  0  0  0  0  3  0  0  0  0  0  0
  -20.9960   -6.0810   24.9760 C   0  0  0  0  0  3  0  0  0  0  0  0
  -21.3220   -4.7130   24.9170 C   0  0  0  0  0  0  0  0  0  0  0  0
  -21.7660   -4.1450   23.7100 C   0  0  0  0  0  3  0  0  0  0  0  0
  -21.8830   -4.9460   22.5600 C   0  0  0  0  0  0  0  0  0  0  0  0
  -22.2910   -4.3900   21.3930 F   0  0  0  0  0  0  0  0  0  0  0  0
  -21.2030   -3.9400   26.0220 F   0  0  0  0  0  0  0  0  0  0  0  0
  -22.7250  -13.6690   21.0800 C   0  0  0  0  0  0  0  0  0  0  0  0
  -21.9880  -12.9840   21.9460 N   0  0  0  0  0  0  0  0  0  0  0  0
  -22.2970  -14.6950   20.5510 O   0  0  0  0  0  0  0  0  0  0  0  0
  -22.3470  -12.1560   22.3990 H   0  0  0  0  0  0  0  0  0  0  0  0
  -21.0520  -13.2930   22.1640 H   0  0  0  0  0  0  0  0  0  0  0  0
  -25.3270  -15.3200   20.2600 N   0  0  0  0  0  0  0  0  0  0  0  0
  -24.5480  -15.9590   20.3720 H   0  0  0  0  0  0  0  0  0  0  0  0
  -26.1610  -15.7720   19.9150 H   0  0  0  0  0  0  0  0  0  0  0  0
  -28.9490  -22.8160   20.5850 C   0  0  0  0  0  3  0  0  0  0  0  0
  -28.1640  -24.3180   19.9460 C   0  0  0  0  0  3  0  0  0  0  0  0
  -28.2370  -25.9320   20.3130 O   0  0  0  0  0  0  0  0  0  0  0  0
  -24.6210  -31.8740   23.2320 C   0  0  0  0  0  0  0  0  0  0  0  0
  -27.2060  -27.0090   20.2120 C   0  0  0  0  0  0  0  0  0  0  0  0
  -23.4310  -30.4730   21.5930 C   0  0  0  0  0  3  0  0  0  0  0  0
  -24.8870  -28.8720   20.1670 C   0  0  0  0  0  0  0  0  0  0  0  0
  -25.9950  -30.6950   21.4450 C   0  0  0  0  0  2  0  0  0  0  0  0
  -26.0720  -29.2850   20.7890 C   0  0  0  0  0  0  0  0  0  0  0  0
  -27.2210  -28.3740   20.7880 C   0  0  0  0  0  3  0  0  0  0  0  0
  -25.9910  -26.7480   19.5370 C   0  0  0  0  0  3  0  0  0  0  0  0
  -24.8720  -27.6250   19.5210 C   0  0  0  0  0  3  0  0  0  0  0  0
  -23.6620  -29.7870   20.2180 C   0  0  0  0  0  2  0  0  0  0  0  0
  -24.7040  -31.0420   22.1440 N   0  0  0  0  0  0  0  0  0  0  0  0
  -23.5310  -32.1620   23.7540 O   0  0  0  0  0  0  0  0  0  0  0  0
  -22.7390  -29.4780   22.5610 C   0  0  0  0  0  0  0  0  0  0  0  0
  -21.4100  -29.3100   22.4360 N   0  0  0  0  0  0  0  0  0  0  0  0
  -23.4060  -28.8580   23.3930 O   0  0  0  0  0  0  0  0  0  0  0  0
  -20.9240  -29.8610   21.7420 H   0  0  0  0  0  0  0  0  0  0  0  0
  -18.0330  -28.0780   22.9370 C   0  0  0  0  0  0  0  0  0  0  0  0
  -20.5900  -28.3690   23.2090 C   0  0  0  0  0  3  0  0  0  0  0  0
  -20.7060  -26.9350   22.6420 C   0  0  0  0  0  2  0  0  0  0  0  0
  -19.6110  -26.5980   21.6250 C   0  0  0  0  0  2  0  0  0  0  0  0
  -18.2250  -26.7300   22.2630 C   0  0  0  0  0  2  0  0  0  0  0  0
  -19.1430  -28.8540   23.3660 C   0  0  0  0  0  0  0  0  0  0  0  0
  -18.9060  -30.1130   23.9610 C   0  0  0  0  0  3  0  0  0  0  0  0
  -17.5960  -30.5980   24.1260 C   0  0  0  0  0  3  0  0  0  0  0  0
  -16.5010  -29.8200   23.7100 C   0  0  0  0  0  3  0  0  0  0  0  0
  -16.7200  -28.5620   23.1220 C   0  0  0  0  0  3  0  0  0  0  0  0
  -25.8910  -32.5210   23.8640 C   0  0  0  0  0  3  0  0  0  0  0  0
  -25.5720  -33.9230   24.1920 N   0  0  0  0  0  0  0  0  0  0  0  0
  -25.9020  -34.9820   23.4410 C   0  0  0  0  0  0  0  0  0  0  0  0
  -26.5700  -34.8820   22.4090 O   0  0  0  0  0  0  0  0  0  0  0  0
  -24.9750  -34.0730   24.9920 H   0  0  0  0  0  0  0  0  0  0  0  0
  -24.1720  -36.7820   23.1060 C   0  0  0  0  0  1  0  0  0  0  0  0
  -25.4200  -36.3720   23.9060 C   0  0  0  0  0  3  0  0  0  0  0  0
  -27.5570  -37.2610   24.7260 C   0  0  0  0  0  1  0  0  0  0  0  0
  -26.4510  -37.4260   23.7870 N   0  0  0  0  0  0  0  0  0  0  0  0
  -26.0450  -38.3460   23.9330 H   0  0  0  0  0  0  0  0  0  0  0  0
  -26.3920  -31.7650   25.1570 C   0  0  1  0  0  0  0  0  0  0  0  0
  -25.2880  -31.5430   26.2180 C   0  0  0  0  0  1  0  0  0  0  0  0
  -26.9760  -30.3800   24.7950 C   0  0  0  0  0  1  0  0  0  0  0  0
  -27.5390  -32.5640   25.8200 C   0  0  0  0  0  1  0  0  0  0  0  0
  1  3  2  0
  2  1  1  0
  2 46  1  0
  4  2  1  0
  6 11  1  0
  7  8  1  0
  7  6  1  0
  9  8  1  0
  9 21  1  0
  9 10  1  0
 11  5  1  0
 11 10  1  0
 12  5  2  0
 13 15  1  0
 14 13  1  0
 14 16  1  0
 15 17  1  0
 16 17  1  0
 16  1  1  0
 17  5  1  0
 18 19  2  0
 19 38  1  0
 20 19  1  0
 20 23  1  0
 21 18  1  0
 21 22  1  0
 22 20  2  0
 23 24  1  0
 24 25  2  0
 26 29  1  0
 26 25  1  0
 27 26  2  0
 28 27  1  0
 28 23  2  0
 29 30  1  0
 30 31  1  0
 31 32  2  0
 33 32  1  0
 33 37  1  0
 34 33  2  0
 35 30  2  0
 35 34  1  0
 36 35  1  0
 38 39  1  0
 39 42  1  0
 39 41  1  0
 40 38  2  0
 43 44  1  0
 43 18  1  0
 45 43  1  0
 47 48  1  0
 47 46  2  0
 49 60  2  0
 50 48  1  0
 50 55  1  0
 51 59  1  0
 51 61  1  0
 52 58  1  0
 52 54  1  0
 53 59  1  0
 54 53  1  0
 55 54  2  0
 56 50  2  0
 57 56  1  0
 57 52  2  0
 58 51  1  0
 59 49  1  0
 61 63  2  0
 62 61  1  0
 64 62  1  0
 65 74  2  0
 65 70  1  0
 66 62  1  0
 66 70  1  0
 67 66  1  0
 68 69  1  0
 68 67  1  0
 69 65  1  0
 70 71  2  0
 71 72  1  0
 73 72  2  0
 74 73  1  0
 75 49  1  0
 75 76  1  0
 75 85  1  0
 76 79  1  0
 77 81  1  0
 77 76  1  0
 78 77  2  0
 81 80  1  0
 83 81  1  0
 83 84  1  0
 83 82  1  0
 85 88  1  1
 85 86  1  0
 87 85  1  0
M  ISO  4   5 100  17 100  47 101  48 101
M  END
>  <TORSDO>  (39) 
F 18

>  <SCORE>  (39) 
-16.300

>  <name>  (39) 
38

>  <ligand_id>  (39) 
38

>  <original_smiles>  (39) 
[H]c1c([H])c([H])c2c(c1[H])C([H])([H])C([H])([H])C([H])([H])C2([H])N([H])C(=O)C1([H])N(C(=O)C([H])(N([H])C(=O)C([H])(N([H])C([H])([H])[H])C([H])([H])[H])C(C([H])([H])[H])(C([H])([H])[H])C([H])([H])[H])C([H])([H])c2c([H])c(OC([H])([H])C([H])([H])N([H])C(=O)C3([H])N(C(=O)N4C([H])([H])C([H])([H])C([H])([H])C([H])(n5nc(-c6c([H])c([H])c(Oc7c([H])c([H])c(F)c([H])c7F)c([H])c6[H])c(C(=O)N([H])[H])c5N([H])[H])C4([H])[H])C([H])([H])C([H])([H])C3([H])[H])c([H])c([H])c2C1([H])[H]

>  <smiles>  (39) 
[H]c1c([H])c([H])c2c(c1[H])C([H])([H])C([H])([H])C([H])([H])C2([H])N([H])C(=O)C1([H])N(C(=O)C([H])(N([H])C(=O)C([H])(N([H])C([H])([H])[H])C([H])([H])[H])C(C([H])([H])[H])(C([H])([H])[H])C([H])([H])[H])C([H])([H])c2c([H])c(OC([H])([H])C([H])([H])N([H])C(=O)C3([H])N(C(=O)N4C([H])([H])C([H])([H])C([H])([H])C([H])(n5nc(-c6c([H])c([H])c(Oc7c([H])c([H])c(F)c([H])c7F)c([H])c6[H])c(C(=O)N([H])[H])c5N([H])[H])C4([H])[H])C([H])([H])C([H])([H])C3([H])[H])c([H])c([H])c2C1([H])[H]

$$$$
39:0:0
     RDKit          3D

 96 99  0  0  1  0  0  0  0  0999 V2000
  -23.0030  -11.9120   20.8140 C   0  0  0  0  0  1  0  0  0  0  0  0
  -24.5460  -10.7720   20.5480 C   0  0  0  0  0  2  0  0  0  0  0  0
  -23.3330  -13.3830   22.1690 C   0  0  0  0  0  2  0  0  0  0  0  0
  -24.8630  -14.3470   22.4720 C   0  0  0  0  0  2  0  0  0  0  0  0
  -25.9720  -12.8930   22.5390 C   0  0  0  0  0  0  0  0  0  0  0  0
  -26.0030  -11.3540   21.6040 N   0  0  0  0  0  0  0  0  0  0  0  0
  -27.1480  -13.1340   23.3060 N   0  0  0  0  0  0  0  0  0  0  0  0
  -27.1780  -14.0080   23.8200 H   0  0  0  0  0  0  0  0  0  0  0  0
  -20.8240  -13.1650   23.1370 C   0  0  0  0  0  1  0  0  0  0  0  0
  -21.8830  -15.3810   23.0950 C   0  0  0  0  0  1  0  0  0  0  0  0
  -22.7690  -13.6550   24.6070 C   0  0  0  0  0  1  0  0  0  0  0  0
  -22.2090  -13.8740   23.1800 C   0  0  2  0  0  0  0  0  0  0  0  0
  -25.2700  -16.7330   22.4500 C   0  0  0  0  0 15  0  0  0  0  0  0
  -25.8060  -19.1110   21.5960 C   0  0  0  0  0 15  0  0  0  0  0  0
  -26.0320  -21.6860   21.5130 C   0  0  0  0  0 15  0  0  0  0  0  0
  -26.7340  -23.8100   20.9850 O   0  0  0  0  0  1  0  0  0  0  0  0
  -24.7400  -31.7040   23.1100 C   0  0  0  0  0  0  0  0  0  0  0  0
  -26.4270  -25.5850   20.7210 C   0  0  0  0  0  0  0  0  0  0  0  0
  -23.5700  -30.3070   21.4780 C   0  0  0  0  0  3  0  0  0  0  0  0
  -24.9130  -28.4330   20.1660 C   0  0  0  0  0  0  0  0  0  0  0  0
  -26.1270  -30.0380   21.5690 C   0  0  0  0  0  2  0  0  0  0  0  0
  -26.0220  -28.4920   21.0010 C   0  0  0  0  0  0  0  0  0  0  0  0
  -26.7660  -27.1160   21.2210 C   0  0  0  0  0  3  0  0  0  0  0  0
  -25.5670  -26.0160   19.6370 C   0  0  0  0  0  3  0  0  0  0  0  0
  -24.8210  -27.2450   19.4180 C   0  0  0  0  0  3  0  0  0  0  0  0
  -23.8520  -29.5710   20.1210 C   0  0  0  0  0  2  0  0  0  0  0  0
  -24.8560  -30.7550   22.0940 N   0  0  0  0  0  0  0  0  0  0  0  0
  -23.6320  -32.0690   23.5510 O   0  0  0  0  0  0  0  0  0  0  0  0
  -22.7840  -29.3870   22.4530 C   0  0  0  0  0  0  0  0  0  0  0  0
  -21.4470  -29.2910   22.3270 N   0  0  0  0  0  0  0  0  0  0  0  0
  -23.4000  -28.7540   23.3140 O   0  0  0  0  0  0  0  0  0  0  0  0
  -20.9880  -29.8480   21.6190 H   0  0  0  0  0  0  0  0  0  0  0  0
  -18.0330  -28.1440   22.8430 C   0  0  0  0  0  0  0  0  0  0  0  0
  -20.5960  -28.3790   23.1060 C   0  0  0  0  0  3  0  0  0  0  0  0
  -20.6750  -26.9400   22.5430 C   0  0  0  0  0  2  0  0  0  0  0  0
  -19.5750  -26.6330   21.5230 C   0  0  0  0  0  2  0  0  0  0  0  0
  -18.1930  -26.7960   22.1610 C   0  0  0  0  0  2  0  0  0  0  0  0
  -19.1600  -28.8950   23.2720 C   0  0  0  0  0  0  0  0  0  0  0  0
  -18.9520  -30.1540   23.8780 C   0  0  0  0  0  3  0  0  0  0  0  0
  -17.6500  -30.6610   24.0550 C   0  0  0  0  0  3  0  0  0  0  0  0
  -16.5390  -29.9090   23.6360 C   0  0  0  0  0  3  0  0  0  0  0  0
  -16.7310  -28.6520   23.0370 C   0  0  0  0  0  3  0  0  0  0  0  0
  -25.9710  -32.3930   23.7790 C   0  0  0  0  0  3  0  0  0  0  0  0
  -25.6040  -33.7850   24.1530 N   0  0  0  0  0  0  0  0  0  0  0  0
  -25.9210  -34.9000   23.4770 C   0  0  0  0  0  0  0  0  0  0  0  0
  -26.5960  -34.8730   22.4470 O   0  0  0  0  0  0  0  0  0  0  0  0
  -24.9950  -33.8790   24.9520 H   0  0  0  0  0  0  0  0  0  0  0  0
  -24.1510  -36.6930   23.2670 C   0  0  0  0  0  1  0  0  0  0  0  0
  -25.4180  -36.2600   24.0220 C   0  0  0  0  0  3  0  0  0  0  0  0
  -27.5540  -37.1620   24.8460 C   0  0  0  0  0  1  0  0  0  0  0  0
  -26.4240  -37.3450   23.9410 N   0  0  0  0  0  0  0  0  0  0  0  0
  -25.9990  -38.2460   24.1430 H   0  0  0  0  0  0  0  0  0  0  0  0
  -26.4700  -31.6410   25.0780 C   0  0  1  0  0  0  0  0  0  0  0  0
  -25.3560  -31.3990   26.1250 C   0  0  0  0  0  1  0  0  0  0  0  0
  -27.0790  -30.2670   24.7420 C   0  0  0  0  0  1  0  0  0  0  0  0
  -27.6000  -32.4530   25.7550 C   0  0  0  0  0  1  0  0  0  0  0  0
  -28.4540  -12.4420   23.1140 C   0  0  0  0  0  2  0  0  0  0  0  0
  -29.7670  -13.3100   23.4040 C   0  0  0  0  0  2  0  0  0  0  0  0
  -30.8220  -14.0300   21.0740 C   0  0  0  0  0  0  0  0  0  0  0  0
  -30.4400  -12.2860   19.4010 C   0  0  0  0  0  2  0  0  0  0  0  0
  -29.6160  -12.4020   18.1190 C   0  0  0  0  0  2  0  0  0  0  0  0
  -28.1450  -12.3160   18.4610 C   0  0  0  0  0  2  0  0  0  0  0  0
  -27.7760  -13.5650   19.2650 C   0  0  0  0  0  3  0  0  0  0  0  0
  -28.6440  -13.7870   20.4510 C   0  0  0  0  0  2  0  0  0  0  0  0
  -29.9860  -13.2020   20.4610 N   0  0  0  0  0  0  0  0  0  0  0  0
  -31.7360  -14.6170   20.4660 O   0  0  0  0  0  0  0  0  0  0  0  0
  -30.5190  -14.1620   22.3980 N   0  0  0  0  0  0  0  0  0  0  0  0
  -31.0760  -14.8800   22.8360 H   0  0  0  0  0  0  0  0  0  0  0  0
  -25.4140  -14.6090   19.7740 C   0  0  1  0  0  0  0  0  0  0  0  0
  -24.2020  -13.9930   19.7940 C   0  0  0  0  0  3  0  0  0  0  0  0
  -24.8960  -12.9750   20.4880 C   0  0  0  0  0  3  0  0  0  0  0  0
  -26.3980  -13.6490   19.6080 N   0  0  0  0  0  0  0  0  0  0  0  0
  -25.7460  -12.6100   19.4950 N   0  0  0  0  0  2  0  0  0  0  0  0
  -24.0060  -11.1610   22.6790 C   0  0  0  0  0  2  0  0  0  0  0  0
  -24.4980   -9.7010   22.8780 C   0  0  0  0  0  2  0  0  0  0  0  0
  -24.0030   -8.3730   22.3900 C   0  0  0  0  0  3  0  0  0  0  0  0
  -22.7410   -8.2000   21.7420 C   0  0  0  0  0  0  0  0  0  0  0  0
  -22.0920   -9.4070   21.6670 C   0  0  0  0  0  2  0  0  0  0  0  0
  -22.6190  -10.4210   22.6050 C   0  0  0  0  0  2  0  0  0  0  0  0
  -22.0500   -7.0110   21.4800 O   0  0  0  0  0  0  0  0  0  0  0  0
  -21.8110   -6.1310   22.5270 C   0  0  0  0  0  0  0  0  0  0  0  0
  -21.4670   -6.5910   23.8210 C   0  0  0  0  0  3  0  0  0  0  0  0
  -21.3630   -5.6910   24.9020 C   0  0  0  0  0  3  0  0  0  0  0  0
  -21.5800   -4.3160   24.7000 C   0  0  0  0  0  0  0  0  0  0  0  0
  -21.8480   -3.8370   23.4050 C   0  0  0  0  0  3  0  0  0  0  0  0
  -21.9480   -4.7370   22.3230 C   0  0  0  0  0  0  0  0  0  0  0  0
  -22.2020   -4.2510   21.0840 F   0  0  0  0  0  0  0  0  0  0  0  0
  -21.5280   -3.4570   25.7460 F   0  0  0  0  0  0  0  0  0  0  0  0
  -22.7460  -14.5800   19.9830 C   0  0  0  0  0  0  0  0  0  0  0  0
  -21.6110  -13.8950   20.2530 N   0  0  0  0  0  0  0  0  0  0  0  0
  -22.5940  -15.7390   20.1890 O   0  0  0  0  0  0  0  0  0  0  0  0
  -21.7110  -12.8950   20.3510 H   0  0  0  0  0  0  0  0  0  0  0  0
  -20.7490  -14.3700   20.4700 H   0  0  0  0  0  0  0  0  0  0  0  0
  -25.7580  -15.9080   19.8450 N   0  0  0  0  0  0  0  0  0  0  0  0
  -25.0650  -16.6280   20.0050 H   0  0  0  0  0  0  0  0  0  0  0  0
  -26.7080  -16.2510   19.8240 H   0  0  0  0  0  0  0  0  0  0  0  0
  2  1  1  0
  2  6  1  0
  3  4  1  0
  3 12  1  0
  4  5  1  0
  5  7  1  0
  6  5  2  0
  7  8  1  0
 12  9  1  1
 10 12  1  0
 12 11  1  0
 17 28  2  0
 18 16  1  0
 18 23  1  0
 19 27  1  0
 19 29  1  0
 20 22  1  0
 21 27  1  0
 22 23  2  0
 22 21  1  0
 24 18  2  0
 25 24  1  0
 25 20  2  0
 26 20  1  0
 26 19  1  0
 27 17  1  0
 29 31  2  0
 30 29  1  0
 32 30  1  0
 33 42  2  0
 33 38  1  0
 34 30  1  0
 34 38  1  0
 35 34  1  0
 36 37  1  0
 36 35  1  0
 37 33  1  0
 38 39  2  0
 39 40  1  0
 41 40  2  0
 42 41  1  0
 43 17  1  0
 43 44  1  0
 43 53  1  0
 44 47  1  0
 45 49  1  0
 45 44  1  0
 46 45  2  0
 49 48  1  0
 51 49  1  0
 51 52  1  0
 51 50  1  0
 53 56  1  1
 53 54  1  0
 55 53  1  0
 57  7  1  0
 57 58  1  0
 59 67  1  0
 60 65  1  0
 61 62  1  0
 61 60  1  0
 63 62  1  0
 63 72  1  0
 63 64  1  0
 64 65  1  0
 65 59  1  0
 66 59  2  0
 67 68  1  0
 67 58  1  0
 69 70  1  0
 69 94  1  1
 69 71  1  0
 70 89  1  0
 70 71  1  0
 71 73  1  0
 72 73  1  0
 72 69  1  0
 74 75  1  0
 76 75  1  0
 77 76  2  0
 78 77  1  0
 78 79  1  0
 79 74  1  0
 80 77  1  0
 80 81  1  0
 81 82  1  0
 82 83  2  0
 84 83  1  0
 84 88  1  0
 85 84  2  0
 86 81  2  0
 86 85  1  0
 87 86  1  0
 89 91  2  0
 89 90  1  0
 90 92  1  0
 90 93  1  0
 94 95  1  0
 96 94  1  0
M  ISO  4  15 101  16 101  59 100  67 100
M  END
>  <TORSDO>  (40) 
F 22

>  <SCORE>  (40) 
36.592

>  <name>  (40) 
39

>  <ligand_id>  (40) 
39

>  <original_smiles>  (40) 
[H]c1nc(N([H])C([H])([H])C([H])([H])N([H])C(=O)N2C([H])([H])C([H])([H])C([H])([H])C([H])(n3nc(-c4c([H])c([H])c(Oc5c([H])c([H])c(F)c([H])c5F)c([H])c4[H])c(C(=O)N([H])[H])c3N([H])[H])C2([H])[H])c(C([H])([H])C([H])([H])C([H])([H])Oc2c([H])c([H])c3c(c2[H])C([H])([H])N(C(=O)C([H])(N([H])C(=O)C([H])(N([H])C([H])([H])[H])C([H])([H])[H])C(C([H])([H])[H])(C([H])([H])[H])C([H])([H])[H])C([H])(C(=O)N([H])C2([H])c4c([H])c([H])c([H])c([H])c4C([H])([H])C([H])([H])C2([H])[H])C3([H])[H])c(C(C([H])([H])[H])(C([H])([H])[H])C([H])([H])[H])c1[H]

>  <smiles>  (40) 
[H]c1nc(N([H])C([H])([H])C([H])([H])N([H])C(=O)N2C([H])([H])C([H])([H])C([H])([H])C([H])(n3nc(-c4c([H])c([H])c(Oc5c([H])c([H])c(F)c([H])c5F)c([H])c4[H])c(C(=O)N([H])[H])c3N([H])[H])C2([H])[H])c(C([H])([H])C([H])([H])C([H])([H])Oc2c([H])c([H])c3c(c2[H])C([H])([H])N(C(=O)C([H])(N([H])C(=O)C([H])(N([H])C([H])([H])[H])C([H])([H])[H])C(C([H])([H])[H])(C([H])([H])[H])C([H])([H])[H])C([H])(C(=O)N([H])C2([H])c4c([H])c([H])c([H])c([H])c4C([H])([H])C([H])([H])C2([H])[H])C3([H])[H])c(C(C([H])([H])[H])(C([H])([H])[H])C([H])([H])[H])c1[H]

$$$$
40:0:0
     RDKit          3D

100100  0  0  1  0  0  0  0  0999 V2000
  -19.7270  -28.1160   22.3970 C   0  0  0  0  0  3  0  0  0  0  0  0
  -18.0550  -25.5560   22.0230 C   0  0  0  0  0  1  0  0  0  0  0  0
  -20.3260  -24.4990   20.3040 C   0  0  0  0  0  2  0  0  0  0  0  0
  -21.7190  -25.8050   20.4620 C   0  0  0  0  0  1  0  0  0  0  0  0
  -21.3000  -27.6070   21.7470 C   0  0  0  0  0  2  0  0  0  0  0  0
  -18.8860  -24.3450   21.1700 N   0  0  0  0  0  4  0  0  0  0  0  0
  -18.2280  -23.7870   20.6530 H   0  0  0  0  0  0  0  0  0  0  0  0
  -19.1760  -23.7450   21.9250 H   0  0  0  0  0  0  0  0  0  0  0  0
  -23.6380  -24.4880   19.8860 C   0  0  0  0  0  2  0  0  0  0  0  0
  -27.9400  -23.7090   17.6500 C   0  0  0  0  0  2  0  0  0  0  0  0
  -26.5990  -24.5570   18.5080 C   0  0  0  0  0  3  0  0  0  0  0  0
  -26.6310  -22.5230   18.7240 C   0  0  0  0  0 15  0  0  0  0  0  0
  -28.7080  -22.2190   18.0040 C   0  0  0  0  0  1  0  0  0  0  0  0
  -25.2760  -23.9470   19.1500 N   0  0  0  0  0  0  0  0  0  0  0  0
  -23.2860  -23.4200   20.3890 O   0  0  0  0  0  1  0  0  0  0  0  0
  -31.9910  -20.2450   16.6270 C   0  0  0  0  0  0  0  0  0  0  0  0
  -34.4120  -19.4170   15.0620 C   0  0  0  0  0  2  0  0  0  0  0  0
  -35.0590  -20.1460   13.7890 C   0  0  0  0  0  2  0  0  0  0  0  0
  -34.1250  -20.1020   12.5770 C   0  0  0  0  0  2  0  0  0  0  0  0
  -32.7140  -20.1270   13.1580 C   0  0  0  0  0  3  0  0  0  0  0  0
  -32.3910  -19.0350   14.1790 C   0  0  0  0  0  2  0  0  0  0  0  0
  -32.8310  -19.6720   15.4080 N   0  0  0  0  0  0  0  0  0  0  0  0
  -33.0090  -19.9380   17.3860 O   0  0  0  0  0  0  0  0  0  0  0  0
  -30.3610  -21.1070   16.9660 N   0  0  0  0  0  2  0  0  0  0  0  0
  -29.9960  -21.0640   16.0220 H   0  0  0  0  0  0  0  0  0  0  0  0
  -30.4910  -20.9010   12.4760 C   0  0  0  0  0  0  0  0  0  0  0  0
  -29.7290  -20.6390   11.3880 C   0  0  0  0  0  0  0  0  0  0  0  0
  -30.4680  -19.7010   10.6010 C   0  0  0  0  0  0  0  0  0  0  0  0
  -31.6330  -20.1640   12.2680 N   0  0  0  0  0  0  0  0  0  0  0  0
  -31.5990  -19.3640   11.1910 N   0  0  0  0  0  0  0  0  0  0  0  0
  -30.2070  -19.1710    9.2720 C   0  0  0  0  0  0  0  0  0  0  0  0
  -30.1800  -17.7820    9.0240 C   0  0  0  0  0  3  0  0  0  0  0  0
  -29.9060  -17.3040    7.7260 C   0  0  0  0  0  3  0  0  0  0  0  0
  -29.6540  -18.2190    6.6760 C   0  0  0  0  0  0  0  0  0  0  0  0
  -29.7100  -19.6000    6.9290 C   0  0  0  0  0  3  0  0  0  0  0  0
  -29.9890  -20.0760    8.2180 C   0  0  0  0  0  3  0  0  0  0  0  0
  -29.3950  -17.8490    5.3810 O   0  0  0  0  0  0  0  0  0  0  0  0
  -28.8390  -16.6330    5.0840 C   0  0  0  0  0  0  0  0  0  0  0  0
  -27.6050  -16.2220    5.6340 C   0  0  0  0  0  3  0  0  0  0  0  0
  -27.0360  -14.9930    5.2440 C   0  0  0  0  0  3  0  0  0  0  0  0
  -27.6940  -14.1810    4.3010 C   0  0  0  0  0  0  0  0  0  0  0  0
  -28.9210  -14.5900    3.7500 C   0  0  0  0  0  3  0  0  0  0  0  0
  -29.4910  -15.8150    4.1400 C   0  0  0  0  0  0  0  0  0  0  0  0
  -30.6620  -16.2180    3.5920 F   0  0  0  0  0  0  0  0  0  0  0  0
  -27.1440  -13.0040    3.9200 F   0  0  0  0  0  0  0  0  0  0  0  0
  -28.4450  -21.3230   11.0560 C   0  0  0  0  0  0  0  0  0  0  0  0
  -27.5620  -20.6440   10.3350 N   0  0  0  0  0  0  0  0  0  0  0  0
  -28.1980  -22.4490   11.4870 O   0  0  0  0  0  0  0  0  0  0  0  0
  -27.7600  -19.7110   10.0060 H   0  0  0  0  0  0  0  0  0  0  0  0
  -26.6730  -21.0660   10.1060 H   0  0  0  0  0  0  0  0  0  0  0  0
  -30.3290  -21.7140   13.6020 N   0  0  0  0  0  0  0  0  0  0  0  0
  -29.5640  -22.3800   13.5580 H   0  0  0  0  0  0  0  0  0  0  0  0
  -31.1540  -22.1090   14.0320 H   0  0  0  0  0  0  0  0  0  0  0  0
  -21.3910  -27.5970   23.6840 N   0  0  0  0  0  2  0  0  0  0  0  0
  -20.4150  -27.6110   23.9690 H   0  0  0  0  0  0  0  0  0  0  0  0
  -21.8010  -28.4600   23.9980 H   0  0  0  0  0  0  0  0  0  0  0  0
  -22.0330  -26.2130   24.7200 C   0  0  0  0  0  1  0  0  0  0  0  0
  -23.8880  -25.4520   24.8840 C   0  0  0  0  0  1  0  0  0  0  0  0
  -25.6960  -26.0810   25.2170 C   0  0  0  0  0  2  0  0  0  0  0  0
  -27.1440  -26.8200   24.7440 O   0  0  0  0  0  0  0  0  0  0  0  0
  -24.1270  -27.8830   29.4690 C   0  0  0  0  0  0  0  0  0  0  0  0
  -27.7000  -28.0010   25.2390 C   0  0  0  0  0  0  0  0  0  0  0  0
  -24.0120  -29.3800   27.4220 C   0  0  0  0  0  3  0  0  0  0  0  0
  -26.1310  -29.9500   26.2450 C   0  0  0  0  0  0  0  0  0  0  0  0
  -26.2350  -28.9430   28.5550 C   0  0  0  0  0  2  0  0  0  0  0  0
  -26.7850  -29.0700   27.1380 C   0  0  0  0  0  0  0  0  0  0  0  0
  -27.6920  -28.1270   26.6300 C   0  0  0  0  0  3  0  0  0  0  0  0
  -27.4590  -29.1080   24.4050 C   0  0  0  0  0  3  0  0  0  0  0  0
  -26.5220  -30.0270   24.8920 C   0  0  0  0  0  3  0  0  0  0  0  0
  -24.7910  -30.5010   26.7290 C   0  0  0  0  0  2  0  0  0  0  0  0
  -24.7540  -28.7980   28.6330 N   0  0  0  0  0  0  0  0  0  0  0  0
  -22.8970  -27.7050   29.4150 O   0  0  0  0  0  0  0  0  0  0  0  0
  -24.0290  -28.2900   26.3660 C   0  0  0  0  0  0  0  0  0  0  0  0
  -24.0080  -28.2880   24.9790 N   0  0  0  0  0  0  0  0  0  0  0  0
  -24.0080  -27.2670   26.9260 O   0  0  0  0  0  0  0  0  0  0  0  0
  -24.5400  -29.0340   24.5640 H   0  0  0  0  0  0  0  0  0  0  0  0
  -20.3110  -29.2880   21.9140 C   0  0  0  0  0  3  0  0  0  0  0  0
  -23.2090  -27.4360   23.7940 C   0  0  0  0  0  2  0  0  0  0  0  0
  -24.2970  -28.9740   22.8930 C   0  0  0  0  0 15  0  0  0  0  0  0
  -23.4530  -30.3030   21.6130 C   0  0  0  0  0  1  0  0  0  0  0  0
  -21.5500  -30.3280   21.1980 C   0  0  0  0  0  2  0  0  0  0  0  0
  -20.6430  -27.5920   23.3340 C   0  0  2  0  0  0  0  0  0  0  0  0
  -19.3670  -27.7230   24.5730 C   0  0  0  0  0  1  0  0  0  0  0  0
  -18.2040  -28.8930   24.5960 C   0  0  0  0  0  3  0  0  0  0  0  0
  -18.0260  -30.0520   23.5180 C   0  0  0  0  0  3  0  0  0  0  0  0
  -18.9710  -30.2670   22.2330 C   0  0  0  0  0  2  0  0  0  0  0  0
  -24.9260  -26.9970   30.4750 C   0  0  0  0  0  3  0  0  0  0  0  0
  -24.0530  -26.8480   31.6430 N   0  0  0  0  0  0  0  0  0  0  0  0
  -24.1090  -27.6170   32.7300 C   0  0  0  0  0  0  0  0  0  0  0  0
  -24.9490  -28.5040   32.8760 O   0  0  0  0  0  0  0  0  0  0  0  0
  -23.2830  -26.2040   31.5770 H   0  0  0  0  0  0  0  0  0  0  0  0
  -21.9140  -28.3720   33.6830 C   0  0  0  0  0  1  0  0  0  0  0  0
  -23.0640  -27.3640   33.8330 C   0  0  0  0  0  3  0  0  0  0  0  0
  -24.5420  -26.3010   35.4700 C   0  0  0  0  0  1  0  0  0  0  0  0
  -23.6220  -27.4060   35.2030 N   0  0  0  0  0  0  0  0  0  0  0  0
  -22.8850  -27.3760   35.9050 H   0  0  0  0  0  0  0  0  0  0  0  0
  -25.3560  -25.5540   29.9670 C   0  0  1  0  0  0  0  0  0  0  0  0
  -24.1910  -24.7610   29.3080 C   0  0  0  0  0  1  0  0  0  0  0  0
  -26.5060  -25.6310   28.9420 C   0  0  0  0  0  1  0  0  0  0  0  0
  -25.9190  -24.7330   31.1640 C   0  0  0  0  0  1  0  0  0  0  0  0
  1 77  1  0
  1 82  1  0
  3  4  1  0
  3  6  1  0
  5  1  1  0
  5 82  1  0
  6  8  1  0
  6  2  1  0
  7  6  1  0
  9 15  1  0
 10 13  1  0
 10 11  1  0
 11 14  2  0
 14  9  1  0
 16 24  1  0
 16 23  2  0
 17 22  1  0
 18 17  1  0
 19 20  1  0
 19 18  1  0
 20 29  1  0
 20 21  1  0
 21 22  1  0
 22 16  1  0
 25 24  1  0
 26 51  1  0
 27 26  2  0
 28 30  2  0
 28 27  1  0
 29 26  1  0
 30 29  1  0
 31 28  1  0
 32 31  1  0
 33 32  2  0
 34 35  2  0
 34 33  1  0
 35 36  1  0
 36 31  2  0
 37 34  1  0
 38 37  1  0
 38 39  1  0
 40 39  2  0
 41 40  1  0
 42 43  1  0
 42 41  2  0
 43 38  2  0
 44 43  1  0
 45 41  1  0
 46 27  1  0
 46 48  2  0
 47 46  1  0
 49 47  1  0
 50 47  1  0
 51 53  1  0
 52 51  1  0
 54 56  1  0
 58 59  1  0
 60 59  1  0
 60 62  1  0
 62 67  1  0
 63 73  1  0
 63 71  1  0
 64 70  1  0
 64 66  1  0
 65 71  1  0
 66 65  1  0
 67 66  2  0
 68 69  1  0
 68 62  2  0
 69 64  2  0
 70 63  1  0
 71 61  1  0
 72 61  2  0
 73 75  2  0
 74 73  1  0
 76 74  1  0
 77 81  1  0
 77 86  1  0
 78 57  1  0
 78 74  1  0
 81 80  1  0
 82 54  1  0
 82 55  1  6
 83 84  1  0
 85 84  2  0
 86 85  1  0
 87 61  1  0
 87 88  1  0
 88 89  1  0
 89 90  2  0
 89 93  1  0
 91 88  1  0
 93 92  1  0
 93 95  1  0
 95 94  1  0
 95 96  1  0
 97 87  1  0
 97100  1  1
 98 97  1  0
 99 97  1  0
M  ISO  4  16 100  24 100  59 101  60 101
M  END
>  <TORSDO>  (41) 
F 21

>  <SCORE>  (41) 
9.965

>  <name>  (41) 
40

>  <ligand_id>  (41) 
40

>  <original_smiles>  (41) 
[H]c1c([H])c([H])c2c(c1[H])C([H])([H])C([H])([H])C([H])([H])C2([H])N([H])C(=O)C1([H])N(C(=O)C([H])(N([H])C(=O)C([H])(N([H])C([H])([H])[H])C([H])([H])[H])C(C([H])([H])[H])(C([H])([H])[H])C([H])([H])[H])C([H])([H])c2c([H])c(OC([H])([H])C([H])([H])C([H])([H])[N+]([H])([H])C3([H])C([H])([H])C([H])([H])[N+]([H])([H])C([H])([H])C3([H])C(=O)N3C([H])([H])C([H])([H])C([H])(N([H])C(=O)N4C([H])([H])C([H])([H])C([H])([H])C([H])(n5nc(-c6c([H])c([H])c(Oc7c([H])c([H])c(F)c([H])c7F)c([H])c6[H])c(C(=O)N([H])[H])c5N([H])[H])C4([H])[H])C3([H])[H])c([H])c([H])c2C1([H])[H]

>  <smiles>  (41) 
[H]c1c([H])c([H])c2c(c1[H])C([H])([H])C([H])([H])C([H])([H])C2([H])N([H])C(=O)C1([H])N(C(=O)C([H])(N([H])C(=O)C([H])(N([H])C([H])([H])[H])C([H])([H])[H])C(C([H])([H])[H])(C([H])([H])[H])C([H])([H])[H])C([H])([H])c2c([H])c(OC([H])([H])C([H])([H])C([H])([H])[N+]([H])([H])C3([H])C([H])([H])C([H])([H])[N+]([H])([H])C([H])([H])C3([H])C(=O)N3C([H])([H])C([H])([H])C([H])(N([H])C(=O)N4C([H])([H])C([H])([H])C([H])([H])C([H])(n5nc(-c6c([H])c([H])c(Oc7c([H])c([H])c(F)c([H])c7F)c([H])c6[H])c(C(=O)N([H])[H])c5N([H])[H])C4([H])[H])C3([H])[H])c([H])c([H])c2C1([H])[H]

$$$$
41:0:0
     RDKit          3D

 95103  0  0  1  0  0  0  0  0999 V2000
  -31.2270  -22.1310   20.6810 C   0  0  0  0  0  2  0  0  0  0  0  0
  -33.0440  -20.6170   19.8000 C   0  0  0  0  0  1  0  0  0  0  0  0
  -31.7400  -20.6720   20.6270 C   0  0  0  0  0  3  0  0  0  0  0  0
  -30.7030  -19.7850   20.0370 N   0  0  0  0  0  4  0  0  0  0  0  0
  -29.7850  -20.0500   20.3520 H   0  0  0  0  0  0  0  0  0  0  0  0
  -30.7230  -19.9270   19.0390 H   0  0  0  0  0  0  0  0  0  0  0  0
  -30.7150  -14.4910   20.2620 C   0  0  0  0  0  0  0  0  0  0  0  0
  -30.3630  -12.3710   19.0650 C   0  0  0  0  0  2  0  0  0  0  0  0
  -29.3930  -12.6350   17.8960 C   0  0  0  0  0  2  0  0  0  0  0  0
  -27.9280  -12.4890   18.3570 C   0  0  0  0  0  2  0  0  0  0  0  0
  -27.6280  -13.2690   19.6660 C   0  0  0  0  0  3  0  0  0  0  0  0
  -28.7210  -13.0210   20.7330 C   0  0  0  0  0  2  0  0  0  0  0  0
  -30.0260  -13.3270   20.1260 N   0  0  0  0  0  0  0  0  0  0  0  0
  -31.8590  -14.6570   19.8280 O   0  0  0  0  0  0  0  0  0  0  0  0
  -30.1370  -17.5470   19.1450 C   0  0  0  0  0  2  0  0  0  0  0  0
  -30.2670  -17.8890   21.6540 C   0  0  0  0  0  2  0  0  0  0  0  0
  -29.3030  -16.3480   19.6390 C   0  0  0  0  0  2  0  0  0  0  0  0
  -30.4280  -16.3580   21.8450 C   0  0  0  0  0  2  0  0  0  0  0  0
  -30.8290  -18.3270   20.2830 C   0  0  0  0  0  3  0  0  0  0  0  0
  -29.9880  -15.5570   20.6800 N   0  0  0  0  0  0  0  0  0  0  0  0
  -25.2530  -13.8760   20.4380 C   0  0  0  0  0  0  0  0  0  0  0  0
  -24.1930  -13.1030   20.8270 C   0  0  0  0  0  0  0  0  0  0  0  0
  -24.6550  -11.7520   20.7800 C   0  0  0  0  0  0  0  0  0  0  0  0
  -26.2910  -12.9930   20.1780 N   0  0  0  0  0  0  0  0  0  0  0  0
  -25.9360  -11.7120   20.4410 N   0  0  0  0  0  0  0  0  0  0  0  0
  -23.9340  -10.4890   20.9800 C   0  0  0  0  0  0  0  0  0  0  0  0
  -24.3830   -9.5270   21.9100 C   0  0  0  0  0  3  0  0  0  0  0  0
  -23.6680   -8.3250   22.0990 C   0  0  0  0  0  3  0  0  0  0  0  0
  -22.4880   -8.0780   21.3570 C   0  0  0  0  0  0  0  0  0  0  0  0
  -22.0560   -9.0300   20.4160 C   0  0  0  0  0  3  0  0  0  0  0  0
  -22.7740  -10.2230   20.2270 C   0  0  0  0  0  3  0  0  0  0  0  0
  -21.7410   -6.9290   21.4570 O   0  0  0  0  0  0  0  0  0  0  0  0
  -21.6970   -6.2000   22.6170 C   0  0  0  0  0  0  0  0  0  0  0  0
  -21.2640   -6.7630   23.8380 C   0  0  0  0  0  3  0  0  0  0  0  0
  -21.1710   -5.9580   24.9890 C   0  0  0  0  0  3  0  0  0  0  0  0
  -21.4970   -4.5900   24.9220 C   0  0  0  0  0  0  0  0  0  0  0  0
  -21.9220   -4.0270   23.7060 C   0  0  0  0  0  3  0  0  0  0  0  0
  -22.0200   -4.8300   22.5580 C   0  0  0  0  0  0  0  0  0  0  0  0
  -22.4120   -4.2780   21.3830 F   0  0  0  0  0  0  0  0  0  0  0  0
  -21.3960   -3.8140   26.0260 F   0  0  0  0  0  0  0  0  0  0  0  0
  -22.8020  -13.5800   21.1310 C   0  0  0  0  0  0  0  0  0  0  0  0
  -22.0930  -12.8830   22.0110 N   0  0  0  0  0  0  0  0  0  0  0  0
  -22.3540  -14.6070   20.6240 O   0  0  0  0  0  0  0  0  0  0  0  0
  -22.4690  -12.0590   22.4580 H   0  0  0  0  0  0  0  0  0  0  0  0
  -21.1560  -13.1810   22.2440 H   0  0  0  0  0  0  0  0  0  0  0  0
  -25.4120  -15.2470   20.2670 N   0  0  0  0  0  0  0  0  0  0  0  0
  -24.6460  -15.8960   20.4060 H   0  0  0  0  0  0  0  0  0  0  0  0
  -26.2630  -15.6930   19.9490 H   0  0  0  0  0  0  0  0  0  0  0  0
  -30.2040  -22.4200   21.8070 C   0  0  0  0  0  2  0  0  0  0  0  0
  -29.0770  -23.2610   21.3510 N   0  0  0  0  0  4  0  0  0  0  0  0
  -28.3780  -23.2720   22.0810 H   0  0  0  0  0  0  0  0  0  0  0  0
  -28.6430  -22.8210   20.5530 H   0  0  0  0  0  0  0  0  0  0  0  0
  -29.4080  -24.6680   21.0170 C   0  0  0  0  0  2  0  0  0  0  0  0
  -28.2960  -25.2990   20.1660 C   0  0  0  0  0  2  0  0  0  0  0  0
  -28.4000  -26.7250   20.2130 O   0  0  0  0  0  0  0  0  0  0  0  0
  -24.5780  -31.8740   23.2470 C   0  0  0  0  0  0  0  0  0  0  0  0
  -27.2190  -27.4340   20.1820 C   0  0  0  0  0  0  0  0  0  0  0  0
  -23.3720  -30.4700   21.6080 C   0  0  0  0  0  3  0  0  0  0  0  0
  -24.8250  -28.9340   20.1870 C   0  0  0  0  0  0  0  0  0  0  0  0
  -25.8970  -30.8310   21.4080 C   0  0  0  0  0  2  0  0  0  0  0  0
  -25.9810  -29.4580   20.7750 C   0  0  0  0  0  0  0  0  0  0  0  0
  -27.1830  -28.7160   20.7690 C   0  0  0  0  0  3  0  0  0  0  0  0
  -26.0440  -26.9240   19.5790 C   0  0  0  0  0  3  0  0  0  0  0  0
  -24.8480  -27.6640   19.5860 C   0  0  0  0  0  3  0  0  0  0  0  0
  -23.5830  -29.7950   20.2270 C   0  0  0  0  0  2  0  0  0  0  0  0
  -24.6350  -31.0710   22.1470 N   0  0  0  0  0  0  0  0  0  0  0  0
  -23.4950  -32.1450   23.7840 O   0  0  0  0  0  0  0  0  0  0  0  0
  -22.7190  -29.4490   22.5670 C   0  0  0  0  0  0  0  0  0  0  0  0
  -21.3940  -29.2650   22.4360 N   0  0  0  0  0  0  0  0  0  0  0  0
  -23.4020  -28.8220   23.3800 O   0  0  0  0  0  0  0  0  0  0  0  0
  -20.9050  -29.8300   21.7550 H   0  0  0  0  0  0  0  0  0  0  0  0
  -18.0200  -28.0780   22.9180 C   0  0  0  0  0  0  0  0  0  0  0  0
  -20.5740  -28.3310   23.2050 C   0  0  0  0  0  3  0  0  0  0  0  0
  -20.6780  -26.8970   22.6320 C   0  0  0  0  0  2  0  0  0  0  0  0
  -19.5810  -26.5740   21.6140 C   0  0  0  0  0  2  0  0  0  0  0  0
  -18.1960  -26.7260   22.2490 C   0  0  0  0  0  2  0  0  0  0  0  0
  -19.1360  -28.8400   23.3530 C   0  0  0  0  0  0  0  0  0  0  0  0
  -18.9170  -30.1070   23.9340 C   0  0  0  0  0  3  0  0  0  0  0  0
  -17.6130  -30.6120   24.0890 C   0  0  0  0  0  3  0  0  0  0  0  0
  -16.5090  -29.8460   23.6730 C   0  0  0  0  0  3  0  0  0  0  0  0
  -16.7140  -28.5820   23.0920 C   0  0  0  0  0  3  0  0  0  0  0  0
  -25.8610  -32.5050   23.8670 C   0  0  0  0  0  3  0  0  0  0  0  0
  -25.5550  -33.9070   24.1860 N   0  0  0  0  0  0  0  0  0  0  0  0
  -25.9000  -34.9520   23.4220 C   0  0  0  0  0  0  0  0  0  0  0  0
  -26.5800  -34.8390   22.3980 O   0  0  0  0  0  0  0  0  0  0  0  0
  -24.9580  -34.0700   24.9820 H   0  0  0  0  0  0  0  0  0  0  0  0
  -24.1870  -36.7520   23.0300 C   0  0  0  0  0  1  0  0  0  0  0  0
  -25.4110  -36.3450   23.8650 C   0  0  0  0  0  3  0  0  0  0  0  0
  -27.5350  -37.2220   24.7300 C   0  0  0  0  0  1  0  0  0  0  0  0
  -26.4510  -37.3920   23.7670 N   0  0  0  0  0  0  0  0  0  0  0  0
  -26.0470  -38.3140   23.9060 H   0  0  0  0  0  0  0  0  0  0  0  0
  -26.3750  -31.7400   25.1480 C   0  0  1  0  0  0  0  0  0  0  0  0
  -25.2850  -31.5100   26.2180 C   0  0  0  0  0  1  0  0  0  0  0  0
  -26.9550  -30.3610   24.7590 C   0  0  0  0  0  1  0  0  0  0  0  0
  -27.5230  -32.5370   25.8130 C   0  0  0  0  0  1  0  0  0  0  0  0
  1 49  1  0
  3  2  1  0
  3  1  1  0
  4  5  1  0
  4  3  1  0
  6  4  1  0
  7 20  1  0
  8 13  1  0
  9 10  1  0
  9  8  1  0
 11 10  1  0
 11 24  1  0
 11 12  1  0
 13  7  1  0
 13 12  1  0
 14  7  2  0
 15 17  1  0
 15 19  1  0
 16 18  1  0
 17 20  1  0
 19  4  1  0
 19 16  1  0
 20 18  1  0
 21 22  2  0
 22 41  1  0
 23 22  1  0
 23 26  1  0
 24 21  1  0
 24 25  1  0
 25 23  2  0
 26 27  1  0
 27 28  2  0
 29 32  1  0
 29 28  1  0
 30 29  2  0
 31 30  1  0
 31 26  2  0
 32 33  1  0
 33 34  1  0
 34 35  2  0
 36 35  1  0
 36 40  1  0
 37 36  2  0
 38 33  2  0
 38 37  1  0
 39 38  1  0
 41 42  1  0
 42 45  1  0
 42 44  1  0
 43 41  2  0
 46 47  1  0
 46 21  1  0
 48 46  1  0
 50 49  1  0
 50 51  1  0
 52 50  1  0
 53 50  1  0
 54 55  1  0
 54 53  1  0
 56 67  2  0
 57 55  1  0
 57 62  1  0
 58 66  1  0
 58 68  1  0
 59 65  1  0
 59 61  1  0
 60 66  1  0
 61 60  1  0
 62 61  2  0
 63 64  1  0
 63 57  2  0
 64 59  2  0
 65 58  1  0
 66 56  1  0
 68 70  2  0
 69 68  1  0
 71 69  1  0
 72 81  2  0
 72 77  1  0
 73 69  1  0
 73 77  1  0
 74 73  1  0
 75 76  1  0
 75 74  1  0
 76 72  1  0
 77 78  2  0
 78 79  1  0
 80 79  2  0
 81 80  1  0
 82 56  1  0
 82 83  1  0
 82 92  1  0
 83 86  1  0
 84 88  1  0
 84 83  1  0
 85 84  2  0
 88 87  1  0
 90 88  1  0
 90 91  1  0
 90 89  1  0
 92 95  1  1
 92 93  1  0
 94 92  1  0
M  ISO  4   7 100  20 100  54 101  55 101
M  END
>  <TORSDO>  (42) 
F 22

>  <SCORE>  (42) 
-13.281

>  <name>  (42) 
41

>  <ligand_id>  (42) 
41

>  <original_smiles>  (42) 
[H]c1c([H])c([H])c2c(c1[H])C([H])([H])C([H])([H])C([H])([H])C2([H])N([H])C(=O)C1([H])N(C(=O)C([H])(N([H])C(=O)C([H])(N([H])C([H])([H])[H])C([H])([H])[H])C(C([H])([H])[H])(C([H])([H])[H])C([H])([H])[H])C([H])([H])c2c([H])c(OC([H])([H])C([H])([H])[N+]([H])([H])C([H])([H])C([H])([H])C([H])(C([H])([H])[H])[N+]([H])([H])C3([H])C([H])([H])C([H])([H])N(C(=O)N4C([H])([H])C([H])([H])C([H])([H])C([H])(n5nc(-c6c([H])c([H])c(Oc7c([H])c([H])c(F)c([H])c7F)c([H])c6[H])c(C(=O)N([H])[H])c5N([H])[H])C4([H])[H])C([H])([H])C3([H])[H])c([H])c([H])c2C1([H])[H]

>  <smiles>  (42) 
[H]c1c([H])c([H])c2c(c1[H])C([H])([H])C([H])([H])C([H])([H])C2([H])N([H])C(=O)C1([H])N(C(=O)C([H])(N([H])C(=O)C([H])(N([H])C([H])([H])[H])C([H])([H])[H])C(C([H])([H])[H])(C([H])([H])[H])C([H])([H])[H])C([H])([H])c2c([H])c(OC([H])([H])C([H])([H])[N+]([H])([H])C([H])([H])C([H])([H])C([H])(C([H])([H])[H])[N+]([H])([H])C3([H])C([H])([H])C([H])([H])N(C(=O)N4C([H])([H])C([H])([H])C([H])([H])C([H])(n5nc(-c6c([H])c([H])c(Oc7c([H])c([H])c(F)c([H])c7F)c([H])c6[H])c(C(=O)N([H])[H])c5N([H])[H])C4([H])[H])C([H])([H])C3([H])[H])c([H])c([H])c2C1([H])[H]

$$$$
42:0:0
     RDKit          3D

 87 95  0  0  1  0  0  0  0  0999 V2000
  -27.0100  -23.3490   20.3890 C   0  0  0  0  0  2  0  0  0  0  0  0
  -27.3740  -21.8090   20.7370 C   0  0  0  0  0  2  0  0  0  0  0  0
  -29.2270  -22.9180   19.9410 C   0  0  0  0  0  2  0  0  0  0  0  0
  -28.2650  -24.2630   20.4740 C   0  0  0  0  0  3  0  0  0  0  0  0
  -28.8160  -21.4430   20.4720 N   0  0  2  0  0  4  0  0  0  0  0  0
  -29.2350  -21.3990   21.3910 H   0  0  0  0  0  0  0  0  0  0  0  0
  -28.2730  -25.9140   20.1690 O   0  0  0  0  0  0  0  0  0  0  0  0
  -24.6270  -31.8850   23.1770 C   0  0  0  0  0  0  0  0  0  0  0  0
  -27.2200  -26.9800   20.2050 C   0  0  0  0  0  0  0  0  0  0  0  0
  -23.4500  -30.4750   21.5400 C   0  0  0  0  0  3  0  0  0  0  0  0
  -24.9110  -28.8640   20.1390 C   0  0  0  0  0  0  0  0  0  0  0  0
  -26.0170  -30.6950   21.4030 C   0  0  0  0  0  2  0  0  0  0  0  0
  -26.0970  -29.2770   20.7610 C   0  0  0  0  0  0  0  0  0  0  0  0
  -27.2460  -28.3600   20.7580 C   0  0  0  0  0  3  0  0  0  0  0  0
  -25.9980  -26.7210   19.5460 C   0  0  0  0  0  3  0  0  0  0  0  0
  -24.8890  -27.6080   19.5110 C   0  0  0  0  0  3  0  0  0  0  0  0
  -23.6910  -29.7840   20.1690 C   0  0  0  0  0  2  0  0  0  0  0  0
  -24.7200  -31.0460   22.0940 N   0  0  0  0  0  0  0  0  0  0  0  0
  -23.5320  -32.1700   23.6910 O   0  0  0  0  0  0  0  0  0  0  0  0
  -22.7560  -29.4810   22.5090 C   0  0  0  0  0  0  0  0  0  0  0  0
  -21.4250  -29.3220   22.3920 N   0  0  0  0  0  0  0  0  0  0  0  0
  -23.4240  -28.8520   23.3320 O   0  0  0  0  0  0  0  0  0  0  0  0
  -20.9370  -29.8800   21.7050 H   0  0  0  0  0  0  0  0  0  0  0  0
  -18.0400  -28.1230   22.9230 C   0  0  0  0  0  0  0  0  0  0  0  0
  -20.6030  -28.3830   23.1650 C   0  0  0  0  0  3  0  0  0  0  0  0
  -20.6960  -26.9530   22.5840 C   0  0  0  0  0  2  0  0  0  0  0  0
  -19.5850  -26.6370   21.5780 C   0  0  0  0  0  2  0  0  0  0  0  0
  -18.2080  -26.7800   22.2330 C   0  0  0  0  0  2  0  0  0  0  0  0
  -19.1640  -28.8830   23.3450 C   0  0  0  0  0  0  0  0  0  0  0  0
  -18.9490  -30.1400   23.9520 C   0  0  0  0  0  3  0  0  0  0  0  0
  -17.6450  -30.6370   24.1380 C   0  0  0  0  0  3  0  0  0  0  0  0
  -16.5370  -29.8750   23.7290 C   0  0  0  0  0  3  0  0  0  0  0  0
  -16.7350  -28.6200   23.1270 C   0  0  0  0  0  3  0  0  0  0  0  0
  -25.8900  -32.5410   23.8140 C   0  0  0  0  0  3  0  0  0  0  0  0
  -25.5610  -33.9420   24.1380 N   0  0  0  0  0  0  0  0  0  0  0  0
  -25.9030  -35.0030   23.3950 C   0  0  0  0  0  0  0  0  0  0  0  0
  -26.5890  -34.9070   22.3740 O   0  0  0  0  0  0  0  0  0  0  0  0
  -24.9570  -34.0900   24.9320 H   0  0  0  0  0  0  0  0  0  0  0  0
  -24.1850  -36.8060   23.0210 C   0  0  0  0  0  1  0  0  0  0  0  0
  -25.4080  -36.3890   23.8550 C   0  0  0  0  0  3  0  0  0  0  0  0
  -27.5210  -37.2700   24.7440 C   0  0  0  0  0  1  0  0  0  0  0  0
  -26.4420  -37.4430   23.7740 N   0  0  0  0  0  0  0  0  0  0  0  0
  -26.0310  -38.3610   23.9180 H   0  0  0  0  0  0  0  0  0  0  0  0
  -26.3890  -31.7910   25.1110 C   0  0  1  0  0  0  0  0  0  0  0  0
  -25.2810  -31.5660   26.1670 C   0  0  0  0  0  1  0  0  0  0  0  0
  -26.9840  -30.4100   24.7540 C   0  0  0  0  0  1  0  0  0  0  0  0
  -27.5280  -32.5990   25.7770 C   0  0  0  0  0  1  0  0  0  0  0  0
  -29.1050  -19.8890   19.8540 C   0  0  0  0  0  2  0  0  0  0  0  0
  -29.7890  -18.3600   20.5840 C   0  0  0  0  0  2  0  0  0  0  0  0
  -30.4770  -15.4340   20.2120 C   0  0  0  0  0  0  0  0  0  0  0  0
  -30.5080  -12.9780   19.3280 C   0  0  0  0  0  2  0  0  0  0  0  0
  -29.5860  -12.7050   18.1120 C   0  0  0  0  0  2  0  0  0  0  0  0
  -28.1450  -12.4110   18.5680 C   0  0  0  0  0  2  0  0  0  0  0  0
  -27.6750  -13.3900   19.6710 C   0  0  0  0  0  3  0  0  0  0  0  0
  -28.7240  -13.5810   20.7860 C   0  0  0  0  0  2  0  0  0  0  0  0
  -29.9290  -14.1190   20.1290 N   0  0  0  0  0  0  0  0  0  0  0  0
  -31.7110  -15.4360   20.0850 O   0  0  0  0  0  0  0  0  0  0  0  0
  -29.6820  -16.7030   20.2350 N   0  0  0  0  0  0  0  0  0  0  0  0
  -28.7090  -16.4500   20.1420 H   0  0  0  0  0  0  0  0  0  0  0  0
  -25.3010  -13.9290   20.4230 C   0  0  0  0  0  0  0  0  0  0  0  0
  -24.2470  -13.1440   20.7930 C   0  0  0  0  0  0  0  0  0  0  0  0
  -24.7300  -11.7990   20.7750 C   0  0  0  0  0  0  0  0  0  0  0  0
  -26.3540  -13.0630   20.1870 N   0  0  0  0  0  0  0  0  0  0  0  0
  -26.0240  -11.7760   20.4700 N   0  0  0  0  0  0  0  0  0  0  0  0
  -24.0160  -10.5300   20.9690 C   0  0  0  0  0  0  0  0  0  0  0  0
  -24.4420   -9.5790   21.9220 C   0  0  0  0  0  3  0  0  0  0  0  0
  -23.7240   -8.3780   22.1060 C   0  0  0  0  0  3  0  0  0  0  0  0
  -22.5660   -8.1180   21.3350 C   0  0  0  0  0  0  0  0  0  0  0  0
  -22.1600   -9.0570   20.3710 C   0  0  0  0  0  3  0  0  0  0  0  0
  -22.8780  -10.2500   20.1860 C   0  0  0  0  0  3  0  0  0  0  0  0
  -21.8210   -6.9670   21.4270 O   0  0  0  0  0  0  0  0  0  0  0  0
  -21.7490   -6.2470   22.5920 C   0  0  0  0  0  0  0  0  0  0  0  0
  -21.2760   -6.8180   23.7930 C   0  0  0  0  0  3  0  0  0  0  0  0
  -21.1530   -6.0240   24.9510 C   0  0  0  0  0  3  0  0  0  0  0  0
  -21.4950   -4.6590   24.9080 C   0  0  0  0  0  0  0  0  0  0  0  0
  -21.9610   -4.0870   23.7120 C   0  0  0  0  0  3  0  0  0  0  0  0
  -22.0850   -4.8790   22.5560 C   0  0  0  0  0  0  0  0  0  0  0  0
  -22.5150   -4.3170   21.4000 F   0  0  0  0  0  0  0  0  0  0  0  0
  -21.3700   -3.8930   26.0170 F   0  0  0  0  0  0  0  0  0  0  0  0
  -22.8430  -13.6070   21.0490 C   0  0  0  0  0  0  0  0  0  0  0  0
  -22.1160  -12.9100   21.9150 N   0  0  0  0  0  0  0  0  0  0  0  0
  -22.4010  -14.6250   20.5170 O   0  0  0  0  0  0  0  0  0  0  0  0
  -22.4880  -12.0880   22.3660 H   0  0  0  0  0  0  0  0  0  0  0  0
  -21.1750  -13.2040   22.1320 H   0  0  0  0  0  0  0  0  0  0  0  0
  -25.4470  -15.3010   20.2320 N   0  0  0  0  0  0  0  0  0  0  0  0
  -24.6660  -15.9410   20.3310 H   0  0  0  0  0  0  0  0  0  0  0  0
  -26.2780  -15.7450   19.8690 H   0  0  0  0  0  0  0  0  0  0  0  0
  1  4  1  0
  1  2  1  0
  3  5  1  0
  3  4  1  0
  4  7  1  0
  5  2  1  0
  5  6  1  1
  7  9  1  0
  8 19  2  0
  9 14  1  0
 10 18  1  0
 10 20  1  0
 11 17  1  0
 11 13  1  0
 12 18  1  0
 13 12  1  0
 14 13  2  0
 15  9  2  0
 16 15  1  0
 16 11  2  0
 17 10  1  0
 18  8  1  0
 20 22  2  0
 21 20  1  0
 23 21  1  0
 24 33  2  0
 24 29  1  0
 25 21  1  0
 25 29  1  0
 26 25  1  0
 27 28  1  0
 27 26  1  0
 28 24  1  0
 29 30  2  0
 30 31  1  0
 32 31  2  0
 33 32  1  0
 34  8  1  0
 34 35  1  0
 34 44  1  0
 35 38  1  0
 36 40  1  0
 36 35  1  0
 37 36  2  0
 40 39  1  0
 42 40  1  0
 42 43  1  0
 42 41  1  0
 44 47  1  1
 44 45  1  0
 46 44  1  0
 48  5  1  0
 48 49  1  0
 50 58  1  0
 51 56  1  0
 52 53  1  0
 52 51  1  0
 54 53  1  0
 54 63  1  0
 54 55  1  0
 56 50  1  0
 56 55  1  0
 57 50  2  0
 58 49  1  0
 59 58  1  0
 60 61  2  0
 61 80  1  0
 62 61  1  0
 62 65  1  0
 63 60  1  0
 63 64  1  0
 64 62  2  0
 65 66  1  0
 66 67  2  0
 68 71  1  0
 68 67  1  0
 69 68  2  0
 70 69  1  0
 70 65  2  0
 71 72  1  0
 72 73  1  0
 73 74  2  0
 75 74  1  0
 75 79  1  0
 76 75  2  0
 77 72  2  0
 77 76  1  0
 78 77  1  0
 80 81  1  0
 81 84  1  0
 81 83  1  0
 82 80  2  0
 85 86  1  0
 85 60  1  0
 87 85  1  0
M  ISO  4   4 101   7 101  50 100  58 100
M  END
>  <TORSDO>  (43) 
F 18

>  <SCORE>  (43) 
-16.285

>  <name>  (43) 
42

>  <ligand_id>  (43) 
42

>  <original_smiles>  (43) 
[H]c1c([H])c([H])c2c(c1[H])C([H])([H])C([H])([H])C([H])([H])C2([H])N([H])C(=O)C1([H])N(C(=O)C([H])(N([H])C(=O)C([H])(N([H])C([H])([H])[H])C([H])([H])[H])C(C([H])([H])[H])(C([H])([H])[H])C([H])([H])[H])C([H])([H])c2c([H])c(OC3([H])C([H])([H])C([H])([H])[N+]([H])(C([H])([H])C([H])([H])N([H])C(=O)N4C([H])([H])C([H])([H])C([H])([H])C([H])(n5nc(-c6c([H])c([H])c(Oc7c([H])c([H])c(F)c([H])c7F)c([H])c6[H])c(C(=O)N([H])[H])c5N([H])[H])C4([H])[H])C3([H])[H])c([H])c([H])c2C1([H])[H]

>  <smiles>  (43) 
[H]c1c([H])c([H])c2c(c1[H])C([H])([H])C([H])([H])C([H])([H])C2([H])N([H])C(=O)C1([H])N(C(=O)C([H])(N([H])C(=O)C([H])(N([H])C([H])([H])[H])C([H])([H])[H])C(C([H])([H])[H])(C([H])([H])[H])C([H])([H])[H])C([H])([H])c2c([H])c(OC3([H])C([H])([H])C([H])([H])[N+]([H])(C([H])([H])C([H])([H])N([H])C(=O)N4C([H])([H])C([H])([H])C([H])([H])C([H])(n5nc(-c6c([H])c([H])c(Oc7c([H])c([H])c(F)c([H])c7F)c([H])c6[H])c(C(=O)N([H])[H])c5N([H])[H])C4([H])[H])C3([H])[H])c([H])c([H])c2C1([H])[H]

$$$$
43:0:0
     RDKit          3D

 96104  0  0  1  0  0  0  0  0999 V2000
  -30.1650  -20.9270   19.9610 C   0  0  0  0  0  3  0  0  0  0  0  0
  -28.0720  -20.2580   20.3120 C   0  0  0  0  0  3  0  0  0  0  0  0
  -29.3660  -19.8480   20.4860 C   0  0  0  0  0  0  0  0  0  0  0  0
  -29.3330  -21.9310   19.5130 C   0  0  0  0  0  0  0  0  0  0  0  0
  -28.0260  -21.4910   19.6770 N   0  0  0  0  0  0  0  0  0  0  0  0
  -25.9100  -22.4040   20.5060 C   0  0  0  0  0  1  0  0  0  0  0  0
  -25.9950  -21.3080   18.2480 C   0  0  0  0  0  1  0  0  0  0  0  0
  -26.7860  -22.1510   19.2710 C   0  0  0  0  0  3  0  0  0  0  0  0
  -29.7740  -18.4920   21.1120 C   0  0  0  0  0  3  0  0  0  0  0  0
  -31.1390  -18.6090   21.6460 N   0  0  0  0  0  4  0  0  0  0  0  0
  -31.4000  -17.7890   22.1640 H   0  0  0  0  0  0  0  0  0  0  0  0
  -31.1840  -19.4010   22.2620 H   0  0  0  0  0  0  0  0  0  0  0  0
  -31.7920  -18.7520   20.8960 H   0  0  0  0  0  0  0  0  0  0  0  0
  -29.6290  -17.2840   20.1190 C   0  0  0  0  0  2  0  0  0  0  0  0
  -30.3940  -14.8690   20.2620 C   0  0  0  0  0  0  0  0  0  0  0  0
  -30.1950  -12.6420   19.1990 C   0  0  0  0  0  2  0  0  0  0  0  0
  -29.2270  -12.7590   17.9980 C   0  0  0  0  0  2  0  0  0  0  0  0
  -27.7700  -12.5550   18.4590 C   0  0  0  0  0  2  0  0  0  0  0  0
  -27.4060  -13.4080   19.7050 C   0  0  0  0  0  3  0  0  0  0  0  0
  -28.4900  -13.2960   20.8040 C   0  0  0  0  0  2  0  0  0  0  0  0
  -29.7880  -13.6430   20.2050 N   0  0  0  0  0  0  0  0  0  0  0  0
  -31.5000  -15.0820   19.7700 O   0  0  0  0  0  0  0  0  0  0  0  0
  -29.6230  -15.9020   20.6790 N   0  0  0  0  0  0  0  0  0  0  0  0
  -28.7620  -15.6360   21.1340 H   0  0  0  0  0  0  0  0  0  0  0  0
  -25.0240  -13.9310   20.5340 C   0  0  0  0  0  0  0  0  0  0  0  0
  -23.9790  -13.1210   20.8900 C   0  0  0  0  0  0  0  0  0  0  0  0
  -24.4570  -11.7810   20.7610 C   0  0  0  0  0  0  0  0  0  0  0  0
  -26.0720  -13.0810   20.2130 N   0  0  0  0  0  0  0  0  0  0  0  0
  -25.7360  -11.7810   20.4090 N   0  0  0  0  0  0  0  0  0  0  0  0
  -23.7550  -10.4980   20.9010 C   0  0  0  0  0  0  0  0  0  0  0  0
  -24.2330   -9.4850   21.7600 C   0  0  0  0  0  3  0  0  0  0  0  0
  -23.5290   -8.2680   21.8960 C   0  0  0  0  0  3  0  0  0  0  0  0
  -22.3340   -8.0540   21.1700 C   0  0  0  0  0  0  0  0  0  0  0  0
  -21.8730   -9.0600   20.3020 C   0  0  0  0  0  3  0  0  0  0  0  0
  -22.5760  -10.2680   20.1640 C   0  0  0  0  0  3  0  0  0  0  0  0
  -21.6030   -6.8920   21.2140 O   0  0  0  0  0  0  0  0  0  0  0  0
  -21.6130   -6.0760   22.3180 C   0  0  0  0  0  0  0  0  0  0  0  0
  -21.2430   -6.5500   23.5970 C   0  0  0  0  0  3  0  0  0  0  0  0
  -21.1990   -5.6620   24.6920 C   0  0  0  0  0  3  0  0  0  0  0  0
  -21.5130   -4.3030   24.5060 C   0  0  0  0  0  0  0  0  0  0  0  0
  -21.8780   -3.8280   23.2340 C   0  0  0  0  0  3  0  0  0  0  0  0
  -21.9230   -4.7140   22.1410 C   0  0  0  0  0  0  0  0  0  0  0  0
  -22.2540   -4.2470   20.9130 F   0  0  0  0  0  0  0  0  0  0  0  0
  -21.4660   -3.4490   25.5540 F   0  0  0  0  0  0  0  0  0  0  0  0
  -22.5850  -13.5600   21.2340 C   0  0  0  0  0  0  0  0  0  0  0  0
  -21.9060  -12.8170   22.1010 N   0  0  0  0  0  0  0  0  0  0  0  0
  -22.1110  -14.5960   20.7760 O   0  0  0  0  0  0  0  0  0  0  0  0
  -22.3060  -11.9810   22.5010 H   0  0  0  0  0  0  0  0  0  0  0  0
  -20.9740  -13.0970   22.3770 H   0  0  0  0  0  0  0  0  0  0  0  0
  -25.1650  -15.3130   20.4350 N   0  0  0  0  0  0  0  0  0  0  0  0
  -24.3890  -15.9420   20.6080 H   0  0  0  0  0  0  0  0  0  0  0  0
  -25.9830  -15.7810   20.0620 H   0  0  0  0  0  0  0  0  0  0  0  0
  -29.6280  -23.0890   18.8470 O   0  0  0  0  0  0  0  0  0  0  0  0
  -29.8170  -24.3110   19.6080 C   0  0  0  0  0  2  0  0  0  0  0  0
  -29.0920  -25.4900   18.8750 C   0  0  0  0  0  2  0  0  0  0  0  0
  -29.0550  -26.8290   19.4880 O   0  0  0  0  0  0  0  0  0  0  0  0
  -24.6730  -31.4130   22.9070 C   0  0  0  0  0  0  0  0  0  0  0  0
  -27.8400  -27.5260   19.4830 C   0  0  0  0  0  0  0  0  0  0  0  0
  -23.6640  -30.0250   21.1350 C   0  0  0  0  0  3  0  0  0  0  0  0
  -25.2960  -28.8180   19.5960 C   0  0  0  0  0  0  0  0  0  0  0  0
  -26.1410  -30.6770   21.0230 C   0  0  0  0  0  2  0  0  0  0  0  0
  -26.3910  -29.3840   20.2600 C   0  0  0  0  0  0  0  0  0  0  0  0
  -27.6650  -28.7450   20.2070 C   0  0  0  0  0  3  0  0  0  0  0  0
  -26.7150  -27.0330   18.7760 C   0  0  0  0  0  3  0  0  0  0  0  0
  -25.4580  -27.6490   18.8460 C   0  0  0  0  0  3  0  0  0  0  0  0
  -23.9580  -29.5150   19.7050 C   0  0  0  0  0  2  0  0  0  0  0  0
  -24.8410  -30.7210   21.7440 N   0  0  0  0  0  0  0  0  0  0  0  0
  -23.5600  -31.5060   23.4460 O   0  0  0  0  0  0  0  0  0  0  0  0
  -23.1350  -28.8480   21.9890 C   0  0  0  0  0  0  0  0  0  0  0  0
  -21.8400  -28.5250   21.8320 N   0  0  0  0  0  0  0  0  0  0  0  0
  -23.8870  -28.2330   22.7500 O   0  0  0  0  0  0  0  0  0  0  0  0
  -21.2860  -29.0840   21.1970 H   0  0  0  0  0  0  0  0  0  0  0  0
  -18.6270  -26.9020   22.1860 C   0  0  0  0  0  0  0  0  0  0  0  0
  -21.1380  -27.4340   22.5080 C   0  0  0  0  0  3  0  0  0  0  0  0
  -21.4070  -26.0830   21.8090 C   0  0  0  0  0  2  0  0  0  0  0  0
  -20.3510  -25.7230   20.7560 C   0  0  0  0  0  2  0  0  0  0  0  0
  -18.9610  -25.6470   21.3960 C   0  0  0  0  0  2  0  0  0  0  0  0
  -19.6500  -27.7500   22.6940 C   0  0  0  0  0  0  0  0  0  0  0  0
  -19.2830  -28.9190   23.3930 C   0  0  0  0  0  3  0  0  0  0  0  0
  -17.9290  -29.2480   23.5900 C   0  0  0  0  0  3  0  0  0  0  0  0
  -16.9220  -28.3990   23.0990 C   0  0  0  0  0  3  0  0  0  0  0  0
  -17.2720  -27.2280   22.4030 C   0  0  0  0  0  3  0  0  0  0  0  0
  -25.8630  -32.1430   23.6010 C   0  0  0  0  0  3  0  0  0  0  0  0
  -25.3920  -33.4760   24.0000 N   0  0  0  0  0  0  0  0  0  0  0  0
  -25.6430  -34.6060   23.3270 C   0  0  0  0  0  0  0  0  0  0  0  0
  -26.3680  -34.6440   22.3290 O   0  0  0  0  0  0  0  0  0  0  0  0
  -24.7420  -33.5130   24.7710 H   0  0  0  0  0  0  0  0  0  0  0  0
  -23.7510  -36.2290   22.9930 C   0  0  0  0  0  1  0  0  0  0  0  0
  -24.9890  -35.9020   23.8440 C   0  0  0  0  0  3  0  0  0  0  0  0
  -26.9790  -36.9420   24.8360 C   0  0  0  0  0  1  0  0  0  0  0  0
  -25.9070  -37.0620   23.8520 N   0  0  0  0  0  0  0  0  0  0  0  0
  -25.3970  -37.9220   24.0400 H   0  0  0  0  0  0  0  0  0  0  0  0
  -26.4290  -31.3600   24.8490 C   0  0  1  0  0  0  0  0  0  0  0  0
  -25.3460  -30.9530   25.8730 C   0  0  0  0  0  1  0  0  0  0  0  0
  -27.1620  -30.0710   24.4040 C   0  0  0  0  0  1  0  0  0  0  0  0
  -27.4720  -32.2330   25.5860 C   0  0  0  0  0  1  0  0  0  0  0  0
  1  3  1  0
  2  3  2  0
  3  9  1  0
  4  5  1  0
  4  1  2  0
  5  2  1  0
  7  8  1  0
  8  5  1  0
  8  6  1  0
  9 14  1  0
  9 10  1  0
 10 11  1  0
 10 12  1  0
 13 10  1  0
 14 23  1  0
 15 23  1  0
 16 21  1  0
 17 18  1  0
 17 16  1  0
 19 18  1  0
 19 28  1  0
 19 20  1  0
 21 15  1  0
 21 20  1  0
 22 15  2  0
 23 24  1  0
 25 26  2  0
 26 45  1  0
 27 26  1  0
 27 30  1  0
 28 29  1  0
 28 25  1  0
 29 27  2  0
 30 31  1  0
 31 32  2  0
 33 36  1  0
 33 32  1  0
 34 33  2  0
 35 34  1  0
 35 30  2  0
 36 37  1  0
 37 38  1  0
 38 39  2  0
 40 39  1  0
 40 44  1  0
 41 40  2  0
 42 37  2  0
 42 41  1  0
 43 42  1  0
 45 46  1  0
 46 49  1  0
 46 48  1  0
 47 45  2  0
 50 25  1  0
 50 51  1  0
 52 50  1  0
 53  4  1  0
 53 54  1  0
 55 56  1  0
 55 54  1  0
 57 68  2  0
 58 56  1  0
 58 63  1  0
 59 67  1  0
 59 69  1  0
 60 66  1  0
 60 62  1  0
 61 67  1  0
 62 61  1  0
 63 62  2  0
 64 65  1  0
 64 58  2  0
 65 60  2  0
 66 59  1  0
 67 57  1  0
 69 71  2  0
 70 69  1  0
 72 70  1  0
 73 82  2  0
 73 78  1  0
 74 70  1  0
 74 78  1  0
 75 74  1  0
 76 77  1  0
 76 75  1  0
 77 73  1  0
 78 79  2  0
 79 80  1  0
 81 80  2  0
 82 81  1  0
 83 57  1  0
 83 84  1  0
 83 93  1  0
 84 87  1  0
 85 89  1  0
 85 84  1  0
 86 85  2  0
 89 88  1  0
 89 91  1  0
 91 92  1  0
 91 90  1  0
 93 96  1  1
 93 94  1  0
 95 93  1  0
M  ISO  4  15 100  23 100  55 101  56 101
M  END
>  <TORSDO>  (44) 
F 23

>  <SCORE>  (44) 
-10.722

>  <name>  (44) 
43

>  <ligand_id>  (44) 
43

>  <original_smiles>  (44) 
[H]c1c([H])c([H])c2c(c1[H])C([H])([H])C([H])([H])C([H])([H])C2([H])N([H])C(=O)C1([H])N(C(=O)C([H])(N([H])C(=O)C([H])(N([H])C([H])([H])[H])C([H])([H])[H])C(C([H])([H])[H])(C([H])([H])[H])C([H])([H])[H])C([H])([H])c2c([H])c(OC([H])([H])C([H])([H])Oc3c([H])c(C([H])(C([H])([H])N([H])C(=O)N4C([H])([H])C([H])([H])C([H])([H])C([H])(n5nc(-c6c([H])c([H])c(Oc7c([H])c([H])c(F)c([H])c7F)c([H])c6[H])c(C(=O)N([H])[H])c5N([H])[H])C4([H])[H])[N+]([H])([H])[H])c([H])n3C([H])(C([H])([H])[H])C([H])([H])[H])c([H])c([H])c2C1([H])[H]

>  <smiles>  (44) 
[H]c1c([H])c([H])c2c(c1[H])C([H])([H])C([H])([H])C([H])([H])C2([H])N([H])C(=O)C1([H])N(C(=O)C([H])(N([H])C(=O)C([H])(N([H])C([H])([H])[H])C([H])([H])[H])C(C([H])([H])[H])(C([H])([H])[H])C([H])([H])[H])C([H])([H])c2c([H])c(OC([H])([H])C([H])([H])Oc3c([H])c(C([H])(C([H])([H])N([H])C(=O)N4C([H])([H])C([H])([H])C([H])([H])C([H])(n5nc(-c6c([H])c([H])c(Oc7c([H])c([H])c(F)c([H])c7F)c([H])c6[H])c(C(=O)N([H])[H])c5N([H])[H])C4([H])[H])[N+]([H])([H])[H])c([H])n3C([H])(C([H])([H])[H])C([H])([H])[H])c([H])c([H])c2C1([H])[H]

$$$$
44:0:0
     RDKit          3D

 95104  0  0  1  0  0  0  0  0999 V2000
  -30.8730  -20.6360   19.6840 C   0  0  0  0  0  3  0  0  0  0  0  0
  -29.2260  -19.0750   20.4630 C   0  0  0  0  0  3  0  0  0  0  0  0
  -29.5780  -20.5120   20.2090 C   0  0  0  0  0  0  0  0  0  0  0  0
  -31.7190  -19.5180   19.5270 C   0  0  0  0  0  0  0  0  0  0  0  0
  -30.1230  -17.8950   20.2220 C   0  0  0  0  0  0  0  0  0  0  0  0
  -31.3530  -18.2330   19.7750 N   0  0  0  0  0  0  0  0  0  0  0  0
  -30.5770  -15.1650   20.2770 C   0  0  0  0  0  0  0  0  0  0  0  0
  -30.4470  -12.7840   19.3720 C   0  0  0  0  0  2  0  0  0  0  0  0
  -29.5260  -12.7130   18.1320 C   0  0  0  0  0  2  0  0  0  0  0  0
  -28.0620  -12.5060   18.5590 C   0  0  0  0  0  2  0  0  0  0  0  0
  -27.6490  -13.4530   19.7170 C   0  0  0  0  0  3  0  0  0  0  0  0
  -28.6950  -13.4910   20.8510 C   0  0  0  0  0  2  0  0  0  0  0  0
  -29.9660  -13.9020   20.2440 N   0  0  0  0  0  0  0  0  0  0  0  0
  -31.7870  -15.1620   20.0130 O   0  0  0  0  0  0  0  0  0  0  0  0
  -29.8240  -16.3860   20.4380 N   0  0  0  0  0  0  0  0  0  0  0  0
  -28.8660  -16.2060   20.6870 H   0  0  0  0  0  0  0  0  0  0  0  0
  -25.2690  -14.0530   20.4340 C   0  0  0  0  0  0  0  0  0  0  0  0
  -24.1960  -13.2900   20.8010 C   0  0  0  0  0  0  0  0  0  0  0  0
  -24.6510  -11.9350   20.7870 C   0  0  0  0  0  0  0  0  0  0  0  0
  -26.3070  -13.1650   20.2100 N   0  0  0  0  0  0  0  0  0  0  0  0
  -25.9450  -11.8870   20.4900 N   0  0  0  0  0  0  0  0  0  0  0  0
  -23.9120  -10.6800   20.9810 C   0  0  0  0  0  0  0  0  0  0  0  0
  -24.3110   -9.7280   21.9440 C   0  0  0  0  0  3  0  0  0  0  0  0
  -23.5710   -8.5400   22.1260 C   0  0  0  0  0  3  0  0  0  0  0  0
  -22.4170   -8.2940   21.3440 C   0  0  0  0  0  0  0  0  0  0  0  0
  -22.0370   -9.2360   20.3700 C   0  0  0  0  0  3  0  0  0  0  0  0
  -22.7780  -10.4160   20.1870 C   0  0  0  0  0  3  0  0  0  0  0  0
  -21.6520   -7.1570   21.4310 O   0  0  0  0  0  0  0  0  0  0  0  0
  -21.5610   -6.4410   22.5980 C   0  0  0  0  0  0  0  0  0  0  0  0
  -21.0790   -7.0200   23.7920 C   0  0  0  0  0  3  0  0  0  0  0  0
  -20.9350   -6.2310   24.9510 C   0  0  0  0  0  3  0  0  0  0  0  0
  -21.2610   -4.8620   24.9150 C   0  0  0  0  0  0  0  0  0  0  0  0
  -21.7350   -4.2810   23.7260 C   0  0  0  0  0  3  0  0  0  0  0  0
  -21.8810   -5.0680   22.5700 C   0  0  0  0  0  0  0  0  0  0  0  0
  -22.3170   -4.4990   21.4210 F   0  0  0  0  0  0  0  0  0  0  0  0
  -21.1160   -4.1020   26.0250 F   0  0  0  0  0  0  0  0  0  0  0  0
  -22.8010  -13.7810   21.0520 C   0  0  0  0  0  0  0  0  0  0  0  0
  -22.0530  -13.0940   21.9080 N   0  0  0  0  0  0  0  0  0  0  0  0
  -22.3820  -14.8090   20.5230 O   0  0  0  0  0  0  0  0  0  0  0  0
  -22.4030  -12.2600   22.3560 H   0  0  0  0  0  0  0  0  0  0  0  0
  -21.1170  -13.4080   22.1200 H   0  0  0  0  0  0  0  0  0  0  0  0
  -25.4430  -15.4220   20.2440 N   0  0  0  0  0  0  0  0  0  0  0  0
  -24.6730  -16.0750   20.3410 H   0  0  0  0  0  0  0  0  0  0  0  0
  -26.2790  -15.8520   19.8740 H   0  0  0  0  0  0  0  0  0  0  0  0
  -35.2390  -18.5510   18.5590 C   0  0  0  0  0  2  0  0  0  0  0  0
  -33.8060  -18.8920   18.1170 C   0  0  0  0  0  2  0  0  0  0  0  0
  -35.4940  -19.3190   19.8590 C   0  0  0  0  0  2  0  0  0  0  0  0
  -33.2010  -19.7620   19.2340 C   0  0  0  0  0  3  0  0  0  0  0  0
  -34.1090  -19.5680   20.4620 C   0  0  0  0  0  3  0  0  0  0  0  0
  -34.0940  -20.7420   21.4570 C   0  0  0  0  0  1  0  0  0  0  0  0
  -27.8300  -21.6180   21.7660 C   0  0  0  0  0  1  0  0  0  0  0  0
  -28.8830  -21.9510   20.6990 C   0  0  0  0  0  3  0  0  0  0  0  0
  -28.2710  -23.2400   19.7670 C   0  0  0  0  0  2  0  0  0  0  0  0
  -28.6510  -24.9030   19.5790 C   0  0  0  0  0  2  0  0  0  0  0  0
  -28.4070  -26.2860   20.2720 O   0  0  0  0  0  0  0  0  0  0  0  0
  -24.7320  -31.9240   23.2210 C   0  0  0  0  0  0  0  0  0  0  0  0
  -27.3430  -27.2550   20.1200 C   0  0  0  0  0  0  0  0  0  0  0  0
  -23.5400  -30.5350   21.5660 C   0  0  0  0  0  3  0  0  0  0  0  0
  -25.0010  -28.9890   20.1050 C   0  0  0  0  0  0  0  0  0  0  0  0
  -26.0890  -30.8210   21.3990 C   0  0  0  0  0  2  0  0  0  0  0  0
  -26.1720  -29.4370   20.7270 C   0  0  0  0  0  0  0  0  0  0  0  0
  -27.3350  -28.5790   20.7250 C   0  0  0  0  0  3  0  0  0  0  0  0
  -26.1530  -26.9120   19.4480 C   0  0  0  0  0  3  0  0  0  0  0  0
  -25.0050  -27.7440   19.4530 C   0  0  0  0  0  3  0  0  0  0  0  0
  -23.7620  -29.8730   20.1760 C   0  0  0  0  0  2  0  0  0  0  0  0
  -24.8070  -31.1170   22.1170 N   0  0  0  0  0  0  0  0  0  0  0  0
  -23.6430  -32.1930   23.7540 O   0  0  0  0  0  0  0  0  0  0  0  0
  -22.8750  -29.5130   22.5200 C   0  0  0  0  0  0  0  0  0  0  0  0
  -21.5470  -29.3360   22.3990 N   0  0  0  0  0  0  0  0  0  0  0  0
  -23.5540  -28.8800   23.3330 O   0  0  0  0  0  0  0  0  0  0  0  0
  -21.0530  -29.9030   21.7250 H   0  0  0  0  0  0  0  0  0  0  0  0
  -18.1750  -28.1090   22.9060 C   0  0  0  0  0  0  0  0  0  0  0  0
  -20.7350  -28.3830   23.1610 C   0  0  0  0  0  3  0  0  0  0  0  0
  -20.8390  -26.9600   22.5630 C   0  0  0  0  0  2  0  0  0  0  0  0
  -19.7330  -26.6480   21.5510 C   0  0  0  0  0  2  0  0  0  0  0  0
  -18.3540  -26.7720   22.2050 C   0  0  0  0  0  2  0  0  0  0  0  0
  -19.2920  -28.8720   23.3400 C   0  0  0  0  0  0  0  0  0  0  0  0
  -19.0680  -30.1210   23.9580 C   0  0  0  0  0  3  0  0  0  0  0  0
  -17.7630  -30.6090   24.1440 C   0  0  0  0  0  3  0  0  0  0  0  0
  -16.6600  -29.8440   23.7250 C   0  0  0  0  0  3  0  0  0  0  0  0
  -16.8670  -28.5950   23.1120 C   0  0  0  0  0  3  0  0  0  0  0  0
  -26.0040  -32.5630   23.8570 C   0  0  0  0  0  3  0  0  0  0  0  0
  -26.5130  -31.7970   25.1410 C   0  0  1  0  0  0  0  0  0  0  0  0
  -25.4120  -31.5590   26.2010 C   0  0  0  0  0  1  0  0  0  0  0  0
  -27.1010  -30.4190   24.7580 C   0  0  0  0  0  1  0  0  0  0  0  0
  -27.6570  -32.5950   25.8100 C   0  0  0  0  0  1  0  0  0  0  0  0
  -25.6850  -33.9620   24.1900 N   0  0  0  0  0  0  0  0  0  0  0  0
  -26.0170  -35.0240   23.4450 C   0  0  0  0  0  0  0  0  0  0  0  0
  -26.6900  -34.9300   22.4150 O   0  0  0  0  0  0  0  0  0  0  0  0
  -25.0850  -34.1090   24.9890 H   0  0  0  0  0  0  0  0  0  0  0  0
  -24.2880  -36.8220   23.1000 C   0  0  0  0  0  1  0  0  0  0  0  0
  -25.5240  -36.4080   23.9120 C   0  0  0  0  0  3  0  0  0  0  0  0
  -27.6490  -37.2910   24.7690 C   0  0  0  0  0  1  0  0  0  0  0  0
  -26.5550  -37.4640   23.8180 N   0  0  0  0  0  0  0  0  0  0  0  0
  -26.1470  -38.3810   23.9710 H   0  0  0  0  0  0  0  0  0  0  0  0
  1  3  1  0
  3  2  2  0
  3 52  1  0
  4  1  2  0
  4  6  1  0
  5 15  1  0
  5  2  1  0
  6  5  2  0
  7 15  1  0
  8 13  1  0
  9 10  1  0
  9  8  1  0
 11 10  1  0
 11 20  1  0
 11 12  1  0
 13  7  1  0
 13 12  1  0
 14  7  2  0
 15 16  1  0
 17 18  2  0
 18 37  1  0
 19 18  1  0
 19 22  1  0
 20 17  1  0
 20 21  1  0
 21 19  2  0
 22 23  1  0
 23 24  2  0
 25 28  1  0
 25 24  1  0
 26 25  2  0
 27 26  1  0
 27 22  2  0
 28 29  1  0
 29 30  1  0
 30 31  2  0
 32 31  1  0
 32 36  1  0
 33 32  2  0
 34 29  2  0
 34 33  1  0
 35 34  1  0
 37 38  1  0
 38 41  1  0
 38 40  1  0
 39 37  2  0
 42 43  1  0
 42 17  1  0
 44 42  1  0
 45 47  1  0
 46 45  1  0
 46 48  1  0
 47 49  1  0
 48  4  1  0
 48 49  1  0
 49 50  1  0
 52 51  1  0
 53 52  1  0
 54 53  1  0
 54 55  1  0
 56 67  2  0
 57 55  1  0
 57 62  1  0
 58 66  1  0
 58 68  1  0
 59 65  1  0
 59 61  1  0
 60 66  1  0
 61 60  1  0
 62 61  2  0
 63 64  1  0
 63 57  2  0
 64 59  2  0
 65 58  1  0
 66 56  1  0
 68 70  2  0
 69 68  1  0
 71 69  1  0
 72 81  2  0
 72 77  1  0
 73 69  1  0
 73 77  1  0
 74 73  1  0
 75 76  1  0
 75 74  1  0
 76 72  1  0
 77 78  2  0
 78 79  1  0
 80 79  2  0
 81 80  1  0
 82 56  1  0
 82 87  1  0
 82 83  1  0
 83 86  1  1
 83 84  1  0
 85 83  1  0
 87 90  1  0
 88 92  1  0
 88 87  1  0
 89 88  2  0
 92 91  1  0
 94 92  1  0
 94 95  1  0
 94 93  1  0
M  ISO  4   7 100  15 100  54 101  55 101
M  END
>  <TORSDO>  (45) 
F 20

>  <SCORE>  (45) 
-14.680

>  <name>  (45) 
44

>  <ligand_id>  (45) 
44

>  <original_smiles>  (45) 
[H]c1c([H])c([H])c2c(c1[H])C([H])([H])C([H])([H])C([H])([H])C2([H])N([H])C(=O)C1([H])N(C(=O)C([H])(N([H])C(=O)C([H])(N([H])C([H])([H])[H])C([H])([H])[H])C(C([H])([H])[H])(C([H])([H])[H])C([H])([H])[H])C([H])([H])c2c([H])c(OC([H])([H])C([H])([H])C([H])(c3c([H])c(N([H])C(=O)N4C([H])([H])C([H])([H])C([H])([H])C([H])(n5nc(-c6c([H])c([H])c(Oc7c([H])c([H])c(F)c([H])c7F)c([H])c6[H])c(C(=O)N([H])[H])c5N([H])[H])C4([H])[H])nc(C4([H])C([H])([H])C([H])([H])C([H])([H])C4([H])C([H])([H])[H])c3[H])C([H])([H])[H])c([H])c([H])c2C1([H])[H]

>  <smiles>  (45) 
[H]c1c([H])c([H])c2c(c1[H])C([H])([H])C([H])([H])C([H])([H])C2([H])N([H])C(=O)C1([H])N(C(=O)C([H])(N([H])C(=O)C([H])(N([H])C([H])([H])[H])C([H])([H])[H])C(C([H])([H])[H])(C([H])([H])[H])C([H])([H])[H])C([H])([H])c2c([H])c(OC([H])([H])C([H])([H])C([H])(c3c([H])c(N([H])C(=O)N4C([H])([H])C([H])([H])C([H])([H])C([H])(n5nc(-c6c([H])c([H])c(Oc7c([H])c([H])c(F)c([H])c7F)c([H])c6[H])c(C(=O)N([H])[H])c5N([H])[H])C4([H])[H])nc(C4([H])C([H])([H])C([H])([H])C([H])([H])C4([H])C([H])([H])[H])c3[H])C([H])([H])[H])c([H])c([H])c2C1([H])[H]

$$$$
45:0:0
     RDKit          3D

 93101  0  0  1  0  0  0  0  0999 V2000
  -27.8160  -24.1290   21.5200 C   0  0  0  0  0  3  0  0  0  0  0  0
  -28.1830  -22.8230   21.6840 C   0  0  0  0  0  3  0  0  0  0  0  0
  -30.0480  -24.0550   21.5430 C   0  0  0  0  0  3  0  0  0  0  0  0
  -28.9930  -24.9270   21.4360 C   0  0  0  0  0  0  0  0  0  0  0  0
  -29.5660  -22.7590   21.6840 N   0  0  0  0  0  0  0  0  0  0  0  0
  -30.4180  -27.0510   21.3160 C   0  0  0  0  0  1  0  0  0  0  0  0
  -29.0120  -26.4380   21.2780 C   0  0  0  0  0  3  0  0  0  0  0  0
  -28.4020  -26.8060   20.0430 O   0  0  0  0  0  0  0  0  0  0  0  0
  -24.5970  -31.9180   23.2580 C   0  0  0  0  0  0  0  0  0  0  0  0
  -27.2440  -27.5370   20.1260 C   0  0  0  0  0  0  0  0  0  0  0  0
  -23.3800  -30.5160   21.6210 C   0  0  0  0  0  3  0  0  0  0  0  0
  -24.8300  -28.9960   20.1740 C   0  0  0  0  0  0  0  0  0  0  0  0
  -25.8960  -30.9010   21.3950 C   0  0  0  0  0  2  0  0  0  0  0  0
  -25.9850  -29.5320   20.7570 C   0  0  0  0  0  0  0  0  0  0  0  0
  -27.1950  -28.8080   20.7390 C   0  0  0  0  0  3  0  0  0  0  0  0
  -26.0800  -27.0100   19.5340 C   0  0  0  0  0  3  0  0  0  0  0  0
  -24.8690  -27.7290   19.5640 C   0  0  0  0  0  3  0  0  0  0  0  0
  -23.5770  -29.8410   20.2360 C   0  0  0  0  0  2  0  0  0  0  0  0
  -24.6430  -31.1260   22.1500 N   0  0  0  0  0  0  0  0  0  0  0  0
  -23.5220  -32.1810   23.8130 O   0  0  0  0  0  0  0  0  0  0  0  0
  -22.7470  -29.4870   22.5830 C   0  0  0  0  0  0  0  0  0  0  0  0
  -21.4240  -29.2910   22.4610 N   0  0  0  0  0  0  0  0  0  0  0  0
  -23.4410  -28.8670   23.3920 O   0  0  0  0  0  0  0  0  0  0  0  0
  -20.9250  -29.8430   21.7780 H   0  0  0  0  0  0  0  0  0  0  0  0
  -18.0670  -28.0520   22.9520 C   0  0  0  0  0  0  0  0  0  0  0  0
  -20.6200  -28.3450   23.2330 C   0  0  0  0  0  3  0  0  0  0  0  0
  -20.7460  -26.9140   22.6620 C   0  0  0  0  0  2  0  0  0  0  0  0
  -19.6530  -26.5720   21.6450 C   0  0  0  0  0  2  0  0  0  0  0  0
  -18.2660  -26.7020   22.2840 C   0  0  0  0  0  2  0  0  0  0  0  0
  -19.1740  -28.8300   23.3830 C   0  0  0  0  0  0  0  0  0  0  0  0
  -18.9360  -30.0940   23.9670 C   0  0  0  0  0  3  0  0  0  0  0  0
  -17.6250  -30.5780   24.1250 C   0  0  0  0  0  3  0  0  0  0  0  0
  -16.5330  -29.7960   23.7120 C   0  0  0  0  0  3  0  0  0  0  0  0
  -16.7540  -28.5350   23.1300 C   0  0  0  0  0  3  0  0  0  0  0  0
  -25.8890  -32.5500   23.8640 C   0  0  0  0  0  3  0  0  0  0  0  0
  -25.5840  -33.9480   24.1950 N   0  0  0  0  0  0  0  0  0  0  0  0
  -25.9150  -34.9980   23.4310 C   0  0  0  0  0  0  0  0  0  0  0  0
  -26.5820  -34.8920   22.3970 O   0  0  0  0  0  0  0  0  0  0  0  0
  -24.9940  -34.1060   24.9980 H   0  0  0  0  0  0  0  0  0  0  0  0
  -24.1850  -36.7890   23.0780 C   0  0  0  0  0  1  0  0  0  0  0  0
  -25.4290  -36.3870   23.8860 C   0  0  0  0  0  3  0  0  0  0  0  0
  -27.5660  -37.2720   24.7080 C   0  0  0  0  0  1  0  0  0  0  0  0
  -26.4610  -37.4390   23.7680 N   0  0  0  0  0  0  0  0  0  0  0  0
  -26.0560  -38.3600   23.9150 H   0  0  0  0  0  0  0  0  0  0  0  0
  -26.4220  -31.7790   25.1340 C   0  0  1  0  0  0  0  0  0  0  0  0
  -25.3420  -31.5380   26.2140 C   0  0  0  0  0  1  0  0  0  0  0  0
  -27.0050  -30.4030   24.7320 C   0  0  0  0  0  1  0  0  0  0  0  0
  -27.5770  -32.5760   25.7850 C   0  0  0  0  0  1  0  0  0  0  0  0
  -30.3970  -21.5660   21.8780 C   0  0  0  0  0  2  0  0  0  0  0  0
  -29.7740  -20.2490   21.3480 C   0  0  0  0  0  2  0  0  0  0  0  0
  -30.6400  -19.0670   21.5850 N   0  0  0  0  0  4  0  0  0  0  0  0
  -30.7950  -18.9860   22.5780 H   0  0  0  0  0  0  0  0  0  0  0  0
  -31.5350  -19.2250   21.1490 H   0  0  0  0  0  0  0  0  0  0  0  0
  -30.0890  -17.7790   21.0920 C   0  0  0  0  0  2  0  0  0  0  0  0
  -30.9260  -16.5640   21.5560 C   0  0  0  0  0  2  0  0  0  0  0  0
  -30.7730  -14.4400   20.2170 C   0  0  0  0  0  0  0  0  0  0  0  0
  -30.3460  -12.3480   18.9730 C   0  0  0  0  0  2  0  0  0  0  0  0
  -29.3440  -12.5740   17.8240 C   0  0  0  0  0  2  0  0  0  0  0  0
  -27.8950  -12.4470   18.3270 C   0  0  0  0  0  2  0  0  0  0  0  0
  -27.6340  -13.2860   19.6070 C   0  0  0  0  0  3  0  0  0  0  0  0
  -28.7310  -13.0230   20.6620 C   0  0  0  0  0  2  0  0  0  0  0  0
  -30.0430  -13.3050   20.0490 N   0  0  0  0  0  0  0  0  0  0  0  0
  -31.7750  -14.7040   19.5470 O   0  0  0  0  0  0  0  0  0  0  0  0
  -30.3320  -15.2760   21.1690 N   0  0  0  0  0  0  0  0  0  0  0  0
  -29.5260  -14.9680   21.6940 H   0  0  0  0  0  0  0  0  0  0  0  0
  -25.2850  -13.9400   20.4370 C   0  0  0  0  0  0  0  0  0  0  0  0
  -24.2180  -13.1880   20.8480 C   0  0  0  0  0  0  0  0  0  0  0  0
  -24.6410  -11.8260   20.7690 C   0  0  0  0  0  0  0  0  0  0  0  0
  -26.2960  -13.0390   20.1430 N   0  0  0  0  0  0  0  0  0  0  0  0
  -25.9130  -11.7610   20.3960 N   0  0  0  0  0  0  0  0  0  0  0  0
  -23.8940  -10.5790   20.9770 C   0  0  0  0  0  0  0  0  0  0  0  0
  -24.3480   -9.5880   21.8720 C   0  0  0  0  0  3  0  0  0  0  0  0
  -23.6040   -8.4040   22.0660 C   0  0  0  0  0  3  0  0  0  0  0  0
  -22.3910   -8.2060   21.3630 C   0  0  0  0  0  0  0  0  0  0  0  0
  -21.9570   -9.1870   20.4540 C   0  0  0  0  0  3  0  0  0  0  0  0
  -22.7020  -10.3620   20.2590 C   0  0  0  0  0  3  0  0  0  0  0  0
  -21.6130   -7.0800   21.4690 O   0  0  0  0  0  0  0  0  0  0  0  0
  -21.5960   -6.3220   22.6130 C   0  0  0  0  0  0  0  0  0  0  0  0
  -21.2380   -6.8710   23.8650 C   0  0  0  0  0  3  0  0  0  0  0  0
  -21.1650   -6.0420   25.0010 C   0  0  0  0  0  3  0  0  0  0  0  0
  -21.4390   -4.6650   24.8890 C   0  0  0  0  0  0  0  0  0  0  0  0
  -21.7880   -4.1160   23.6420 C   0  0  0  0  0  3  0  0  0  0  0  0
  -21.8630   -4.9420   22.5070 C   0  0  0  0  0  0  0  0  0  0  0  0
  -22.1800   -4.4050   21.3040 F   0  0  0  0  0  0  0  0  0  0  0  0
  -21.3610   -3.8650   25.9780 F   0  0  0  0  0  0  0  0  0  0  0  0
  -22.8480  -13.6950   21.2010 C   0  0  0  0  0  0  0  0  0  0  0  0
  -22.1500  -13.0010   22.0930 N   0  0  0  0  0  0  0  0  0  0  0  0
  -22.4100  -14.7410   20.7240 O   0  0  0  0  0  0  0  0  0  0  0  0
  -22.5220  -12.1570   22.5030 H   0  0  0  0  0  0  0  0  0  0  0  0
  -21.2300  -13.3160   22.3680 H   0  0  0  0  0  0  0  0  0  0  0  0
  -25.4730  -15.3090   20.2690 N   0  0  0  0  0  0  0  0  0  0  0  0
  -24.7220  -15.9760   20.4090 H   0  0  0  0  0  0  0  0  0  0  0  0
  -26.3120  -15.7290   19.8910 H   0  0  0  0  0  0  0  0  0  0  0  0
  1  2  2  0
  2  5  1  0
  3  5  1  0
  4  1  1  0
  4  3  2  0
  5 49  1  0
  7  6  1  0
  7  4  1  0
  8 10  1  0
  8  7  1  0
  9 20  2  0
 10 15  1  0
 11 19  1  0
 11 21  1  0
 12 18  1  0
 12 14  1  0
 13 19  1  0
 14 13  1  0
 15 14  2  0
 16 17  1  0
 16 10  2  0
 17 12  2  0
 18 11  1  0
 19  9  1  0
 21 23  2  0
 22 21  1  0
 24 22  1  0
 25 34  2  0
 25 30  1  0
 26 22  1  0
 26 30  1  0
 27 26  1  0
 28 29  1  0
 28 27  1  0
 29 25  1  0
 30 31  2  0
 31 32  1  0
 33 32  2  0
 34 33  1  0
 35  9  1  0
 35 36  1  0
 35 45  1  0
 36 39  1  0
 37 41  1  0
 37 36  1  0
 38 37  2  0
 41 40  1  0
 43 41  1  0
 43 44  1  0
 43 42  1  0
 45 48  1  1
 45 46  1  0
 47 45  1  0
 50 51  1  0
 50 49  1  0
 51 52  1  0
 53 51  1  0
 54 55  1  0
 54 51  1  0
 56 64  1  0
 57 62  1  0
 58 59  1  0
 58 57  1  0
 60 59  1  0
 60 69  1  0
 60 61  1  0
 62 56  1  0
 62 61  1  0
 63 56  2  0
 64 55  1  0
 64 65  1  0
 66 67  2  0
 67 86  1  0
 68 67  1  0
 68 71  1  0
 69 70  1  0
 69 66  1  0
 70 68  2  0
 71 72  1  0
 72 73  2  0
 74 77  1  0
 74 73  1  0
 75 74  2  0
 76 75  1  0
 76 71  2  0
 77 78  1  0
 78 79  1  0
 79 80  2  0
 81 80  1  0
 81 85  1  0
 82 81  2  0
 83 78  2  0
 83 82  1  0
 84 83  1  0
 86 87  1  0
 87 90  1  0
 87 89  1  0
 88 86  2  0
 91 92  1  0
 91 66  1  0
 93 91  1  0
M  ISO  4   7 101   8 101  56 100  64 100
M  END
>  <TORSDO>  (46) 
F 22

>  <SCORE>  (46) 
-13.286

>  <name>  (46) 
45

>  <ligand_id>  (46) 
45

>  <original_smiles>  (46) 
[H]c1c([H])c([H])c2c(c1[H])C([H])([H])C([H])([H])C([H])([H])C2([H])N([H])C(=O)C1([H])N(C(=O)C([H])(N([H])C(=O)C([H])(N([H])C([H])([H])[H])C([H])([H])[H])C(C([H])([H])[H])(C([H])([H])[H])C([H])([H])[H])C([H])([H])c2c([H])c(OC([H])(c3c([H])c([H])n(C([H])([H])C([H])([H])[N+]([H])([H])C([H])([H])C([H])([H])N([H])C(=O)N4C([H])([H])C([H])([H])C([H])([H])C([H])(n5nc(-c6c([H])c([H])c(Oc7c([H])c([H])c(F)c([H])c7F)c([H])c6[H])c(C(=O)N([H])[H])c5N([H])[H])C4([H])[H])c3[H])C([H])([H])[H])c([H])c([H])c2C1([H])[H]

>  <smiles>  (46) 
[H]c1c([H])c([H])c2c(c1[H])C([H])([H])C([H])([H])C([H])([H])C2([H])N([H])C(=O)C1([H])N(C(=O)C([H])(N([H])C(=O)C([H])(N([H])C([H])([H])[H])C([H])([H])[H])C(C([H])([H])[H])(C([H])([H])[H])C([H])([H])[H])C([H])([H])c2c([H])c(OC([H])(c3c([H])c([H])n(C([H])([H])C([H])([H])[N+]([H])([H])C([H])([H])C([H])([H])N([H])C(=O)N4C([H])([H])C([H])([H])C([H])([H])C([H])(n5nc(-c6c([H])c([H])c(Oc7c([H])c([H])c(F)c([H])c7F)c([H])c6[H])c(C(=O)N([H])[H])c5N([H])[H])C4([H])[H])c3[H])C([H])([H])[H])c([H])c([H])c2C1([H])[H]

$$$$
46:0:0
     RDKit          3D

100108  0  0  1  0  0  0  0  0999 V2000
  -28.5770  -23.3140   18.4580 C   0  0  0  0  0  2  0  0  0  0  0  0
  -29.0600  -21.8520   18.4270 C   0  0  0  0  0  3  0  0  0  0  0  0
  -28.2870  -23.2850   19.9630 C   0  0  0  0  0  3  0  0  0  0  0  0
  -29.2870  -21.9050   19.9560 C   0  0  0  0  0  3  0  0  0  0  0  0
  -29.0580  -20.4860   20.6610 N   0  0  0  0  0  4  0  0  0  0  0  0
  -28.1110  -20.4800   21.0030 H   0  0  0  0  0  0  0  0  0  0  0  0
  -29.6250  -20.5120   21.4920 H   0  0  0  0  0  0  0  0  0  0  0  0
  -29.2780  -19.0360   20.0240 C   0  0  0  0  0  2  0  0  0  0  0  0
  -29.8700  -17.6870   20.8670 C   0  0  0  0  0  2  0  0  0  0  0  0
  -30.4910  -14.9900   20.4030 C   0  0  0  0  0  0  0  0  0  0  0  0
  -30.4120  -12.6370   19.4450 C   0  0  0  0  0  2  0  0  0  0  0  0
  -29.4800  -12.5700   18.2120 C   0  0  0  0  0  2  0  0  0  0  0  0
  -28.0170  -12.3480   18.6420 C   0  0  0  0  0  2  0  0  0  0  0  0
  -27.5950  -13.2760   19.8090 C   0  0  0  0  0  3  0  0  0  0  0  0
  -28.6440  -13.2980   20.9380 C   0  0  0  0  0  2  0  0  0  0  0  0
  -29.9100  -13.7260   20.3280 N   0  0  0  0  0  0  0  0  0  0  0  0
  -31.7080  -15.0700   20.2030 O   0  0  0  0  0  0  0  0  0  0  0  0
  -29.6720  -16.1500   20.5010 N   0  0  0  0  0  0  0  0  0  0  0  0
  -28.6970  -15.8950   20.4900 H   0  0  0  0  0  0  0  0  0  0  0  0
  -25.2040  -13.8430   20.5290 C   0  0  0  0  0  0  0  0  0  0  0  0
  -24.1440  -13.0610   20.8950 C   0  0  0  0  0  0  0  0  0  0  0  0
  -24.6190  -11.7140   20.8750 C   0  0  0  0  0  0  0  0  0  0  0  0
  -26.2560  -12.9720   20.3010 N   0  0  0  0  0  0  0  0  0  0  0  0
  -25.9130  -11.6870   20.5770 N   0  0  0  0  0  0  0  0  0  0  0  0
  -23.9010  -10.4470   21.0620 C   0  0  0  0  0  0  0  0  0  0  0  0
  -24.3340   -9.4830   21.9990 C   0  0  0  0  0  3  0  0  0  0  0  0
  -23.6140   -8.2820   22.1750 C   0  0  0  0  0  3  0  0  0  0  0  0
  -22.4460   -8.0370   21.4140 C   0  0  0  0  0  0  0  0  0  0  0  0
  -22.0320   -8.9900   20.4660 C   0  0  0  0  0  3  0  0  0  0  0  0
  -22.7530  -10.1830   20.2880 C   0  0  0  0  0  3  0  0  0  0  0  0
  -21.6970   -6.8880   21.5000 O   0  0  0  0  0  0  0  0  0  0  0  0
  -21.6510   -6.1430   22.6500 C   0  0  0  0  0  0  0  0  0  0  0  0
  -21.2200   -6.6940   23.8770 C   0  0  0  0  0  3  0  0  0  0  0  0
  -21.1220   -5.8740   25.0200 C   0  0  0  0  0  3  0  0  0  0  0  0
  -21.4430   -4.5060   24.9360 C   0  0  0  0  0  0  0  0  0  0  0  0
  -21.8670   -3.9560   23.7140 C   0  0  0  0  0  3  0  0  0  0  0  0
  -21.9670   -4.7720   22.5730 C   0  0  0  0  0  0  0  0  0  0  0  0
  -22.3560   -4.2310   21.3930 F   0  0  0  0  0  0  0  0  0  0  0  0
  -21.3420   -3.7170   26.0320 F   0  0  0  0  0  0  0  0  0  0  0  0
  -22.7400  -13.5290   21.1470 C   0  0  0  0  0  0  0  0  0  0  0  0
  -22.0060  -12.8300   22.0050 N   0  0  0  0  0  0  0  0  0  0  0  0
  -22.3030  -14.5510   20.6180 O   0  0  0  0  0  0  0  0  0  0  0  0
  -22.3720  -12.0040   22.4520 H   0  0  0  0  0  0  0  0  0  0  0  0
  -21.0640  -13.1260   22.2170 H   0  0  0  0  0  0  0  0  0  0  0  0
  -25.3550  -15.2140   20.3450 N   0  0  0  0  0  0  0  0  0  0  0  0
  -24.5710  -15.8520   20.4390 H   0  0  0  0  0  0  0  0  0  0  0  0
  -26.1810  -15.6590   19.9670 H   0  0  0  0  0  0  0  0  0  0  0  0
  -27.6540  -24.8010   22.0250 C   0  0  0  0  0  1  0  0  0  0  0  0
  -28.4170  -24.8000   20.6930 C   0  0  0  0  0  3  0  0  0  0  0  0
  -28.3050  -26.2470   20.1110 O   0  0  0  0  0  0  0  0  0  0  0  0
  -24.6010  -31.8630   23.1960 C   0  0  0  0  0  0  0  0  0  0  0  0
  -27.1930  -27.1590   20.1710 C   0  0  0  0  0  0  0  0  0  0  0  0
  -23.4010  -30.4630   21.5570 C   0  0  0  0  0  3  0  0  0  0  0  0
  -24.8510  -28.8790   20.1420 C   0  0  0  0  0  0  0  0  0  0  0  0
  -25.9520  -30.7380   21.3850 C   0  0  0  0  0  2  0  0  0  0  0  0
  -26.0300  -29.3410   20.7420 C   0  0  0  0  0  0  0  0  0  0  0  0
  -27.2020  -28.5000   20.7310 C   0  0  0  0  0  3  0  0  0  0  0  0
  -25.9860  -26.7830   19.5510 C   0  0  0  0  0  3  0  0  0  0  0  0
  -24.8400  -27.6120   19.5320 C   0  0  0  0  0  3  0  0  0  0  0  0
  -23.6220  -29.7770   20.1810 C   0  0  0  0  0  2  0  0  0  0  0  0
  -24.6720  -31.0430   22.1010 N   0  0  0  0  0  0  0  0  0  0  0  0
  -23.5160  -32.1460   23.7260 O   0  0  0  0  0  0  0  0  0  0  0  0
  -22.7250  -29.4590   22.5230 C   0  0  0  0  0  0  0  0  0  0  0  0
  -21.3950  -29.2970   22.4050 N   0  0  0  0  0  0  0  0  0  0  0  0
  -23.3990  -28.8250   23.3390 O   0  0  0  0  0  0  0  0  0  0  0  0
  -20.9080  -29.8580   21.7200 H   0  0  0  0  0  0  0  0  0  0  0  0
  -18.0100  -28.1160   22.9310 C   0  0  0  0  0  0  0  0  0  0  0  0
  -20.5730  -28.3600   23.1770 C   0  0  0  0  0  3  0  0  0  0  0  0
  -20.6610  -26.9320   22.5940 C   0  0  0  0  0  2  0  0  0  0  0  0
  -19.5480  -26.6230   21.5870 C   0  0  0  0  0  2  0  0  0  0  0  0
  -18.1720  -26.7720   22.2430 C   0  0  0  0  0  2  0  0  0  0  0  0
  -19.1380  -28.8690   23.3550 C   0  0  0  0  0  0  0  0  0  0  0  0
  -18.9320  -30.1280   23.9600 C   0  0  0  0  0  3  0  0  0  0  0  0
  -17.6300  -30.6350   24.1430 C   0  0  0  0  0  3  0  0  0  0  0  0
  -16.5180  -29.8800   23.7330 C   0  0  0  0  0  3  0  0  0  0  0  0
  -16.7090  -28.6220   23.1340 C   0  0  0  0  0  3  0  0  0  0  0  0
  -25.8780  -32.5000   23.8230 C   0  0  0  0  0  3  0  0  0  0  0  0
  -26.3980  -31.7240   25.0970 C   0  0  1  0  0  0  0  0  0  0  0  0
  -25.3050  -31.4790   26.1650 C   0  0  0  0  0  1  0  0  0  0  0  0
  -26.9820  -30.3480   24.7020 C   0  0  0  0  0  1  0  0  0  0  0  0
  -27.5480  -32.5170   25.7590 C   0  0  0  0  0  1  0  0  0  0  0  0
  -25.5610  -33.8940   24.1670 N   0  0  0  0  0  0  0  0  0  0  0  0
  -25.8940  -34.9590   23.4260 C   0  0  0  0  0  0  0  0  0  0  0  0
  -26.5660  -34.8710   22.3960 O   0  0  0  0  0  0  0  0  0  0  0  0
  -24.9620  -34.0360   24.9670 H   0  0  0  0  0  0  0  0  0  0  0  0
  -24.1680  -36.7620   23.0940 C   0  0  0  0  0  1  0  0  0  0  0  0
  -25.4060  -36.3430   23.9020 C   0  0  0  0  0  3  0  0  0  0  0  0
  -27.5380  -37.2160   24.7540 C   0  0  0  0  0  1  0  0  0  0  0  0
  -26.4400  -37.3970   23.8090 N   0  0  0  0  0  0  0  0  0  0  0  0
  -26.0330  -38.3150   23.9670 H   0  0  0  0  0  0  0  0  0  0  0  0
  -30.2260  -21.5280   17.4830 C   0  0  0  0  0  2  0  0  0  0  0  0
  -29.7840  -21.3160   16.0210 C   0  0  0  0  0  2  0  0  0  0  0  0
  -30.9250  -20.9800   15.1420 N   0  0  0  0  0  4  0  0  0  0  0  0
  -31.4190  -20.1950   15.5360 H   0  0  0  0  0  0  0  0  0  0  0  0
  -31.5600  -21.7610   15.1160 H   0  0  0  0  0  0  0  0  0  0  0  0
  -30.5490  -20.6330   13.7570 C   0  0  0  0  0  2  0  0  0  0  0  0
  -31.7780  -20.1980   12.9340 C   0  0  0  0  0  2  0  0  0  0  0  0
  -32.5650  -19.3990   10.8270 C   0  0  0  0  0  1  0  0  0  0  0  0
  -31.3820  -19.7600   11.5990 N   0  0  0  0  0  0  0  0  0  0  0  0
  -30.7800  -18.9420   11.6800 H   0  0  0  0  0  0  0  0  0  0  0  0
  1  3  1  0
  2 91  1  0
  2  1  1  0
  2  4  1  0
  3 49  1  0
  4  3  1  0
  4  5  1  0
  5  6  1  0
  5  7  1  0
  8  5  1  0
  8  9  1  0
 10 18  1  0
 11 16  1  0
 12 13  1  0
 12 11  1  0
 14 13  1  0
 14 23  1  0
 14 15  1  0
 16 10  1  0
 16 15  1  0
 17 10  2  0
 18  9  1  0
 19 18  1  0
 20 21  2  0
 21 40  1  0
 22 21  1  0
 22 25  1  0
 23 20  1  0
 23 24  1  0
 24 22  2  0
 25 26  1  0
 26 27  2  0
 28 31  1  0
 28 27  1  0
 29 28  2  0
 30 29  1  0
 30 25  2  0
 31 32  1  0
 32 33  1  0
 33 34  2  0
 35 34  1  0
 35 39  1  0
 36 35  2  0
 37 32  2  0
 37 36  1  0
 38 37  1  0
 40 41  1  0
 41 44  1  0
 41 43  1  0
 42 40  2  0
 45 46  1  0
 45 20  1  0
 47 45  1  0
 49 48  1  0
 50 52  1  0
 50 49  1  0
 51 62  2  0
 52 57  1  0
 53 61  1  0
 53 63  1  0
 54 60  1  0
 54 56  1  0
 55 61  1  0
 56 55  1  0
 57 56  2  0
 58 52  2  0
 59 58  1  0
 59 54  2  0
 60 53  1  0
 61 51  1  0
 63 65  2  0
 64 63  1  0
 66 64  1  0
 67 76  2  0
 67 72  1  0
 68 64  1  0
 68 72  1  0
 69 68  1  0
 70 71  1  0
 70 69  1  0
 71 67  1  0
 72 73  2  0
 73 74  1  0
 75 74  2  0
 76 75  1  0
 77 51  1  0
 77 82  1  0
 77 78  1  0
 78 81  1  1
 78 79  1  0
 80 78  1  0
 82 85  1  0
 83 87  1  0
 83 82  1  0
 84 83  2  0
 87 86  1  0
 89 87  1  0
 89 90  1  0
 89 88  1  0
 92 91  1  0
 93 94  1  0
 93 92  1  0
 95 93  1  0
 96 93  1  0
 97 96  1  0
 98 99  1  0
 99100  1  0
 99 97  1  0
M  ISO  4  10 100  18 100  49 101  50 101
M  END
>  <TORSDO>  (47) 
F 26

>  <SCORE>  (47) 
-12.586

>  <name>  (47) 
46

>  <ligand_id>  (47) 
46

>  <original_smiles>  (47) 
[H]c1c([H])c([H])c2c(c1[H])C([H])([H])C([H])([H])C([H])([H])C2([H])N([H])C(=O)C1([H])N(C(=O)C([H])(N([H])C(=O)C([H])(N([H])C([H])([H])[H])C([H])([H])[H])C(C([H])([H])[H])(C([H])([H])[H])C([H])([H])[H])C([H])([H])c2c([H])c(OC([H])(C([H])([H])[H])C3([H])C([H])([H])C([H])(C([H])([H])C([H])([H])[N+]([H])([H])C([H])([H])C([H])([H])N([H])C([H])([H])[H])C3([H])[N+]([H])([H])C([H])([H])C([H])([H])N([H])C(=O)N3C([H])([H])C([H])([H])C([H])([H])C([H])(n4nc(-c5c([H])c([H])c(Oc6c([H])c([H])c(F)c([H])c6F)c([H])c5[H])c(C(=O)N([H])[H])c4N([H])[H])C3([H])[H])c([H])c([H])c2C1([H])[H]

>  <smiles>  (47) 
[H]c1c([H])c([H])c2c(c1[H])C([H])([H])C([H])([H])C([H])([H])C2([H])N([H])C(=O)C1([H])N(C(=O)C([H])(N([H])C(=O)C([H])(N([H])C([H])([H])[H])C([H])([H])[H])C(C([H])([H])[H])(C([H])([H])[H])C([H])([H])[H])C([H])([H])c2c([H])c(OC([H])(C([H])([H])[H])C3([H])C([H])([H])C([H])(C([H])([H])C([H])([H])[N+]([H])([H])C([H])([H])C([H])([H])N([H])C([H])([H])[H])C3([H])[N+]([H])([H])C([H])([H])C([H])([H])N([H])C(=O)N3C([H])([H])C([H])([H])C([H])([H])C([H])(n4nc(-c5c([H])c([H])c(Oc6c([H])c([H])c(F)c([H])c6F)c([H])c5[H])c(C(=O)N([H])[H])c4N([H])[H])C3([H])[H])c([H])c([H])c2C1([H])[H]

$$$$
47:0:0
     RDKit          3D

 97107  0  0  1  0  0  0  0  0999 V2000
  -30.7930  -14.5980   20.4270 C   0  0  0  0  0  0  0  0  0  0  0  0
  -30.3670  -12.4050   19.3840 C   0  0  0  0  0  2  0  0  0  0  0  0
  -29.4550  -12.5260   18.1480 C   0  0  0  0  0  2  0  0  0  0  0  0
  -27.9840  -12.4020   18.5770 C   0  0  0  0  0  2  0  0  0  0  0  0
  -27.6180  -13.3220   19.7760 C   0  0  0  0  0  3  0  0  0  0  0  0
  -28.6770  -13.2630   20.8990 C   0  0  0  0  0  2  0  0  0  0  0  0
  -29.9790  -13.5110   20.2730 N   0  0  0  0  0  0  0  0  0  0  0  0
  -31.9950  -14.4040   20.5320 O   0  0  0  0  0  0  0  0  0  0  0  0
  -32.2380  -19.7910   20.6230 C   0  0  0  0  0  0  0  0  0  0  0  0
  -32.7520  -16.4700   18.7590 C   0  0  0  0  0  2  0  0  0  0  0  0
  -32.9130  -17.3830   19.9870 C   0  0  0  0  0  2  0  0  0  0  0  0
  -31.2870  -16.0140   18.4890 C   0  0  0  0  0  2  0  0  0  0  0  0
  -29.6650  -16.9360   20.0900 C   0  0  0  0  0  2  0  0  0  0  0  0
  -31.8340  -18.4690   19.9770 C   0  0  0  0  0  3  0  0  0  0  0  0
  -30.4850  -18.1560   20.6900 C   0  0  0  0  0  3  0  0  0  0  0  0
  -29.9600  -19.6540   20.6700 C   0  0  0  0  0  3  0  0  0  0  0  0
  -31.1490  -20.3660   21.1590 N   0  0  0  0  0  0  0  0  0  0  0  0
  -30.4640  -15.7210   19.6930 N   0  0  0  0  0  0  0  0  0  0  0  0
  -33.3960  -20.2080   20.6780 O   0  0  0  0  0  0  0  0  0  0  0  0
  -25.2200  -13.9290   20.4610 C   0  0  0  0  0  0  0  0  0  0  0  0
  -24.1430  -13.1690   20.8100 C   0  0  0  0  0  0  0  0  0  0  0  0
  -24.5980  -11.8120   20.8200 C   0  0  0  0  0  0  0  0  0  0  0  0
  -26.2680  -13.0480   20.2640 N   0  0  0  0  0  0  0  0  0  0  0  0
  -25.8980  -11.7690   20.5450 N   0  0  0  0  0  0  0  0  0  0  0  0
  -23.8560  -10.5570   21.0120 C   0  0  0  0  0  0  0  0  0  0  0  0
  -24.2710   -9.5880   21.9560 C   0  0  0  0  0  3  0  0  0  0  0  0
  -23.5310   -8.4010   22.1300 C   0  0  0  0  0  3  0  0  0  0  0  0
  -22.3630   -8.1690   21.3660 C   0  0  0  0  0  0  0  0  0  0  0  0
  -21.9680   -9.1260   20.4170 C   0  0  0  0  0  3  0  0  0  0  0  0
  -22.7060  -10.3080   20.2390 C   0  0  0  0  0  3  0  0  0  0  0  0
  -21.5940   -7.0360   21.4580 O   0  0  0  0  0  0  0  0  0  0  0  0
  -21.5560   -6.2840   22.6040 C   0  0  0  0  0  0  0  0  0  0  0  0
  -21.1740   -6.8440   23.8430 C   0  0  0  0  0  3  0  0  0  0  0  0
  -21.0700   -6.0240   24.9840 C   0  0  0  0  0  3  0  0  0  0  0  0
  -21.3410   -4.6450   24.8880 C   0  0  0  0  0  0  0  0  0  0  0  0
  -21.7130   -4.0840   23.6540 C   0  0  0  0  0  3  0  0  0  0  0  0
  -21.8150   -4.9020   22.5140 C   0  0  0  0  0  0  0  0  0  0  0  0
  -22.1550   -4.3560   21.3220 F   0  0  0  0  0  0  0  0  0  0  0  0
  -21.2310   -3.8510   25.9790 F   0  0  0  0  0  0  0  0  0  0  0  0
  -22.7400  -13.6590   21.0320 C   0  0  0  0  0  0  0  0  0  0  0  0
  -21.9820  -12.9920   21.8960 N   0  0  0  0  0  0  0  0  0  0  0  0
  -22.3230  -14.6750   20.4760 O   0  0  0  0  0  0  0  0  0  0  0  0
  -22.3210  -12.1670   22.3680 H   0  0  0  0  0  0  0  0  0  0  0  0
  -21.0430  -13.3150   22.0910 H   0  0  0  0  0  0  0  0  0  0  0  0
  -25.3930  -15.2960   20.2570 N   0  0  0  0  0  0  0  0  0  0  0  0
  -24.6250  -15.9560   20.3260 H   0  0  0  0  0  0  0  0  0  0  0  0
  -26.2550  -15.7150   19.9350 H   0  0  0  0  0  0  0  0  0  0  0  0
  -30.6230  -21.3140   23.4760 C   0  0  0  0  0  2  0  0  0  0  0  0
  -32.1080  -21.4180   23.2600 C   0  0  0  0  0  2  0  0  0  0  0  0
  -31.1660  -21.4730   22.0690 C   0  0  0  0  0  3  0  0  0  0  0  0
  -28.5680  -20.1810   21.1750 C   0  0  0  0  0  2  0  0  0  0  0  0
  -28.2340  -21.7420   21.0460 C   0  0  0  0  0  2  0  0  0  0  0  0
  -28.7590  -21.7830   18.4590 C   0  0  0  0  0  1  0  0  0  0  0  0
  -28.1790  -22.5400   19.6800 C   0  0  0  0  0  3  0  0  0  0  0  0
  -28.7630  -24.0170   19.6880 C   0  0  0  0  0  2  0  0  0  0  0  0
  -28.1150  -25.1250   20.5900 C   0  0  0  0  0  2  0  0  0  0  0  0
  -28.3820  -26.5300   20.2220 O   0  0  0  0  0  0  0  0  0  0  0  0
  -24.6460  -31.8990   23.2160 C   0  0  0  0  0  0  0  0  0  0  0  0
  -27.2810  -27.3780   20.1720 C   0  0  0  0  0  0  0  0  0  0  0  0
  -23.4560  -30.4880   21.5760 C   0  0  0  0  0  3  0  0  0  0  0  0
  -24.9170  -28.9580   20.1460 C   0  0  0  0  0  0  0  0  0  0  0  0
  -25.9920  -30.8310   21.3940 C   0  0  0  0  0  2  0  0  0  0  0  0
  -26.0790  -29.4550   20.7520 C   0  0  0  0  0  0  0  0  0  0  0  0
  -27.2680  -28.6750   20.7530 C   0  0  0  0  0  3  0  0  0  0  0  0
  -26.1030  -26.9310   19.5310 C   0  0  0  0  0  3  0  0  0  0  0  0
  -24.9290  -27.6990   19.5290 C   0  0  0  0  0  3  0  0  0  0  0  0
  -23.6760  -29.8220   20.1940 C   0  0  0  0  0  2  0  0  0  0  0  0
  -24.7160  -31.0960   22.1170 N   0  0  0  0  0  0  0  0  0  0  0  0
  -23.5570  -32.1670   23.7460 O   0  0  0  0  0  0  0  0  0  0  0  0
  -22.8030  -29.4630   22.5340 C   0  0  0  0  0  0  0  0  0  0  0  0
  -21.4760  -29.2830   22.4160 N   0  0  0  0  0  0  0  0  0  0  0  0
  -23.4880  -28.8340   23.3460 O   0  0  0  0  0  0  0  0  0  0  0  0
  -20.9800  -29.8410   21.7340 H   0  0  0  0  0  0  0  0  0  0  0  0
  -18.1050  -28.0840   22.9420 C   0  0  0  0  0  0  0  0  0  0  0  0
  -20.6660  -28.3430   23.1920 C   0  0  0  0  0  3  0  0  0  0  0  0
  -20.7650  -26.9150   22.6080 C   0  0  0  0  0  2  0  0  0  0  0  0
  -19.6540  -26.5960   21.6030 C   0  0  0  0  0  2  0  0  0  0  0  0
  -18.2770  -26.7400   22.2570 C   0  0  0  0  0  2  0  0  0  0  0  0
  -19.2290  -28.8450   23.3670 C   0  0  0  0  0  0  0  0  0  0  0  0
  -19.0140  -30.1050   23.9670 C   0  0  0  0  0  3  0  0  0  0  0  0
  -17.7120  -30.6050   24.1490 C   0  0  0  0  0  3  0  0  0  0  0  0
  -16.6030  -29.8440   23.7350 C   0  0  0  0  0  3  0  0  0  0  0  0
  -16.8020  -28.5860   23.1380 C   0  0  0  0  0  3  0  0  0  0  0  0
  -25.9220  -32.5370   23.8450 C   0  0  0  0  0  3  0  0  0  0  0  0
  -25.6010  -33.9300   24.1810 N   0  0  0  0  0  0  0  0  0  0  0  0
  -25.9200  -34.9910   23.4280 C   0  0  0  0  0  0  0  0  0  0  0  0
  -26.5820  -34.9000   22.3920 O   0  0  0  0  0  0  0  0  0  0  0  0
  -25.0050  -34.0740   24.9820 H   0  0  0  0  0  0  0  0  0  0  0  0
  -24.1620  -36.7610   23.0930 C   0  0  0  0  0  1  0  0  0  0  0  0
  -25.4160  -36.3720   23.8950 C   0  0  0  0  0  3  0  0  0  0  0  0
  -27.5480  -37.2790   24.7070 C   0  0  0  0  0  1  0  0  0  0  0  0
  -26.4330  -37.4400   23.7760 N   0  0  0  0  0  0  0  0  0  0  0  0
  -26.0150  -38.3540   23.9310 H   0  0  0  0  0  0  0  0  0  0  0  0
  -26.4490  -31.7630   25.1140 C   0  0  1  0  0  0  0  0  0  0  0  0
  -25.3570  -31.5100   26.1780 C   0  0  0  0  0  1  0  0  0  0  0  0
  -27.0480  -30.3970   24.7140 C   0  0  0  0  0  1  0  0  0  0  0  0
  -27.5920  -32.5640   25.7770 C   0  0  0  0  0  1  0  0  0  0  0  0
  1  8  2  0
  2  7  1  0
  3  4  1  0
  3  2  1  0
  5  4  1  0
  5 23  1  0
  5  6  1  0
  7  1  1  0
  7  6  1  0
  9 19  2  0
  9 17  1  0
 10 11  1  0
 12 10  1  0
 12 18  1  0
 14 11  1  0
 14  9  1  0
 14 15  1  0
 15 13  1  0
 16 15  1  0
 16 17  1  0
 16 51  1  0
 17 50  1  0
 18 13  1  0
 18  1  1  0
 20 21  2  0
 21 22  1  0
 21 40  1  0
 22 25  1  0
 23 20  1  0
 23 24  1  0
 24 22  2  0
 25 26  1  0
 26 27  2  0
 28 31  1  0
 28 27  1  0
 29 28  2  0
 30 29  1  0
 30 25  2  0
 31 32  1  0
 32 33  1  0
 33 34  2  0
 35 34  1  0
 35 39  1  0
 36 35  2  0
 37 32  2  0
 37 36  1  0
 38 37  1  0
 40 41  1  0
 41 44  1  0
 41 43  1  0
 42 40  2  0
 45 46  1  0
 45 20  1  0
 47 45  1  0
 49 48  1  0
 50 49  1  0
 50 48  1  0
 52 51  1  0
 54 53  1  0
 54 55  1  0
 54 52  1  0
 55 56  1  0
 57 56  1  0
 58 69  2  0
 59 57  1  0
 59 64  1  0
 60 68  1  0
 60 70  1  0
 61 67  1  0
 61 63  1  0
 62 68  1  0
 63 64  2  0
 63 62  1  0
 65 59  2  0
 66 65  1  0
 66 61  2  0
 67 60  1  0
 68 58  1  0
 70 72  2  0
 71 70  1  0
 73 71  1  0
 74 83  2  0
 74 79  1  0
 75 71  1  0
 75 79  1  0
 76 75  1  0
 77 78  1  0
 77 76  1  0
 78 74  1  0
 79 80  2  0
 80 81  1  0
 82 81  2  0
 83 82  1  0
 84 58  1  0
 84 85  1  0
 84 94  1  0
 85 88  1  0
 86 90  1  0
 86 85  1  0
 87 86  2  0
 90 89  1  0
 92 90  1  0
 92 93  1  0
 92 91  1  0
 94 97  1  1
 94 95  1  0
 96 94  1  0
M  ISO  4   1 100  18 100  56 101  57 101
M  END
>  <TORSDO>  (48) 
F 21

>  <SCORE>  (48) 
-13.734

>  <name>  (48) 
47

>  <ligand_id>  (48) 
47

>  <original_smiles>  (48) 
[H]c1c([H])c([H])c2c(c1[H])C([H])([H])C([H])([H])C([H])([H])C2([H])N([H])C(=O)C1([H])N(C(=O)C([H])(N([H])C(=O)C([H])(N([H])C([H])([H])[H])C([H])([H])[H])C(C([H])([H])[H])(C([H])([H])[H])C([H])([H])[H])C([H])([H])c2c([H])c(OC([H])([H])C([H])([H])C([H])(C([H])([H])[H])C([H])([H])C([H])([H])C3([H])N(C4([H])C([H])([H])C4([H])[H])C(=O)C4([H])C([H])([H])C([H])([H])C([H])([H])N(C(=O)N5C([H])([H])C([H])([H])C([H])([H])C([H])(n6nc(-c7c([H])c([H])c(Oc8c([H])c([H])c(F)c([H])c8F)c([H])c7[H])c(C(=O)N([H])[H])c6N([H])[H])C5([H])[H])C([H])([H])C43[H])c([H])c([H])c2C1([H])[H]

>  <smiles>  (48) 
[H]c1c([H])c([H])c2c(c1[H])C([H])([H])C([H])([H])C([H])([H])C2([H])N([H])C(=O)C1([H])N(C(=O)C([H])(N([H])C(=O)C([H])(N([H])C([H])([H])[H])C([H])([H])[H])C(C([H])([H])[H])(C([H])([H])[H])C([H])([H])[H])C([H])([H])c2c([H])c(OC([H])([H])C([H])([H])C([H])(C([H])([H])[H])C([H])([H])C([H])([H])C3([H])N(C4([H])C([H])([H])C4([H])[H])C(=O)C4([H])C([H])([H])C([H])([H])C([H])([H])N(C(=O)N5C([H])([H])C([H])([H])C([H])([H])C([H])(n6nc(-c7c([H])c([H])c(Oc8c([H])c([H])c(F)c([H])c8F)c([H])c7[H])c(C(=O)N([H])[H])c6N([H])[H])C5([H])[H])C([H])([H])C43[H])c([H])c([H])c2C1([H])[H]

$$$$
48:0:0
     RDKit          3D

 94103  0  0  1  0  0  0  0  0999 V2000
  -29.6460  -21.4700   20.4000 C   0  0  0  0  0  3  0  0  0  0  0  0
  -28.0710  -22.2650   19.0590 C   0  0  0  0  0  3  0  0  0  0  0  0
  -29.0050  -22.6860   19.9650 C   0  0  0  0  0  0  0  0  0  0  0  0
  -29.1160  -20.3740   19.7470 C   0  0  0  0  0  0  0  0  0  0  0  0
  -28.0970  -20.8800   18.9360 N   0  0  0  0  0  0  0  0  0  0  0  0
  -30.8720  -14.6890   20.1900 C   0  0  0  0  0  0  0  0  0  0  0  0
  -30.4630  -12.4820   19.1470 C   0  0  0  0  0  2  0  0  0  0  0  0
  -29.4890  -12.5620   17.9570 C   0  0  0  0  0  2  0  0  0  0  0  0
  -28.0450  -12.3840   18.4550 C   0  0  0  0  0  2  0  0  0  0  0  0
  -27.7180  -13.2980   19.6620 C   0  0  0  0  0  3  0  0  0  0  0  0
  -28.8190  -13.2240   20.7460 C   0  0  0  0  0  2  0  0  0  0  0  0
  -30.0860  -13.5650   20.0870 N   0  0  0  0  0  0  0  0  0  0  0  0
  -32.0690  -14.5730   19.9210 O   0  0  0  0  0  0  0  0  0  0  0  0
  -30.9510  -18.5560   20.0220 C   0  0  0  0  0  2  0  0  0  0  0  0
  -28.7430  -17.9690   20.7430 C   0  0  0  0  0  2  0  0  0  0  0  0
  -31.2980  -17.0680   19.7460 C   0  0  0  0  0  2  0  0  0  0  0  0
  -28.9710  -16.4450   20.4770 C   0  0  0  0  0  2  0  0  0  0  0  0
  -29.4840  -18.8770   19.7440 C   0  0  0  0  0  3  0  0  0  0  0  0
  -30.3640  -15.9870   20.2170 N   0  0  0  0  0  0  0  0  0  0  0  0
  -25.3580  -13.9220   20.4590 C   0  0  0  0  0  0  0  0  0  0  0  0
  -24.2930  -13.1550   20.8470 C   0  0  0  0  0  0  0  0  0  0  0  0
  -24.7450  -11.8000   20.7970 C   0  0  0  0  0  0  0  0  0  0  0  0
  -26.3870  -13.0330   20.1930 N   0  0  0  0  0  0  0  0  0  0  0  0
  -26.0280  -11.7530   20.4640 N   0  0  0  0  0  0  0  0  0  0  0  0
  -24.0150  -10.5440   20.9900 C   0  0  0  0  0  0  0  0  0  0  0  0
  -24.4490   -9.5730   21.9170 C   0  0  0  0  0  3  0  0  0  0  0  0
  -23.7190   -8.3790   22.0970 C   0  0  0  0  0  3  0  0  0  0  0  0
  -22.5400   -8.1510   21.3470 C   0  0  0  0  0  0  0  0  0  0  0  0
  -22.1290   -9.1080   20.4030 C   0  0  0  0  0  3  0  0  0  0  0  0
  -22.8610  -10.2930   20.2240 C   0  0  0  0  0  3  0  0  0  0  0  0
  -21.7780   -7.0110   21.4400 O   0  0  0  0  0  0  0  0  0  0  0  0
  -21.7090   -6.2820   22.6010 C   0  0  0  0  0  0  0  0  0  0  0  0
  -21.2310   -6.8440   23.8050 C   0  0  0  0  0  3  0  0  0  0  0  0
  -21.1120   -6.0420   24.9570 C   0  0  0  0  0  3  0  0  0  0  0  0
  -21.4630   -4.6810   24.9070 C   0  0  0  0  0  0  0  0  0  0  0  0
  -21.9350   -4.1180   23.7080 C   0  0  0  0  0  3  0  0  0  0  0  0
  -22.0550   -4.9160   22.5580 C   0  0  0  0  0  0  0  0  0  0  0  0
  -22.4900   -4.3650   21.4000 F   0  0  0  0  0  0  0  0  0  0  0  0
  -21.3430   -3.9090   26.0110 F   0  0  0  0  0  0  0  0  0  0  0  0
  -22.9060  -13.6410   21.1510 C   0  0  0  0  0  0  0  0  0  0  0  0
  -22.1930  -12.9460   22.0320 N   0  0  0  0  0  0  0  0  0  0  0  0
  -22.4610  -14.6680   20.6410 O   0  0  0  0  0  0  0  0  0  0  0  0
  -22.5650  -12.1120   22.4620 H   0  0  0  0  0  0  0  0  0  0  0  0
  -21.2620  -13.2510   22.2760 H   0  0  0  0  0  0  0  0  0  0  0  0
  -25.5260  -15.2920   20.2880 N   0  0  0  0  0  0  0  0  0  0  0  0
  -24.7650  -15.9500   20.4260 H   0  0  0  0  0  0  0  0  0  0  0  0
  -26.3720  -15.7320   19.9540 H   0  0  0  0  0  0  0  0  0  0  0  0
  -27.9300  -19.9100   16.6700 C   0  0  0  0  0  1  0  0  0  0  0  0
  -25.8510  -20.7550   17.8490 C   0  0  0  0  0  1  0  0  0  0  0  0
  -27.2390  -20.1140   18.0240 C   0  0  0  0  0  3  0  0  0  0  0  0
  -30.7430  -24.5320   20.0200 C   0  0  0  0  0  1  0  0  0  0  0  0
  -29.3020  -24.1510   20.3900 C   0  0  0  0  0  3  0  0  0  0  0  0
  -28.2810  -25.2050   19.8300 C   0  0  0  0  0  2  0  0  0  0  0  0
  -28.4340  -26.6090   20.2240 O   0  0  0  0  0  0  0  0  0  0  0  0
  -24.6240  -31.9010   23.2340 C   0  0  0  0  0  0  0  0  0  0  0  0
  -27.2970  -27.4180   20.1610 C   0  0  0  0  0  0  0  0  0  0  0  0
  -23.4440  -30.5080   21.5730 C   0  0  0  0  0  3  0  0  0  0  0  0
  -24.9150  -28.9850   20.1520 C   0  0  0  0  0  0  0  0  0  0  0  0
  -25.9810  -30.8500   21.4180 C   0  0  0  0  0  2  0  0  0  0  0  0
  -26.0730  -29.4820   20.7630 C   0  0  0  0  0  0  0  0  0  0  0  0
  -27.2660  -28.7070   20.7640 C   0  0  0  0  0  3  0  0  0  0  0  0
  -26.1170  -26.9730   19.5140 C   0  0  0  0  0  3  0  0  0  0  0  0
  -24.9360  -27.7330   19.5220 C   0  0  0  0  0  3  0  0  0  0  0  0
  -23.6760  -29.8500   20.1880 C   0  0  0  0  0  2  0  0  0  0  0  0
  -24.7010  -31.1030   22.1310 N   0  0  0  0  0  0  0  0  0  0  0  0
  -23.5360  -32.1680   23.7620 O   0  0  0  0  0  0  0  0  0  0  0  0
  -22.7830  -29.4760   22.5160 C   0  0  0  0  0  0  0  0  0  0  0  0
  -21.4570  -29.3040   22.3890 N   0  0  0  0  0  0  0  0  0  0  0  0
  -23.4600  -28.8350   23.3250 O   0  0  0  0  0  0  0  0  0  0  0  0
  -20.9700  -29.8750   21.7120 H   0  0  0  0  0  0  0  0  0  0  0  0
  -18.0680  -28.1540   22.9080 C   0  0  0  0  0  0  0  0  0  0  0  0
  -20.6330  -28.3620   23.1490 C   0  0  0  0  0  3  0  0  0  0  0  0
  -20.7020  -26.9430   22.5400 C   0  0  0  0  0  2  0  0  0  0  0  0
  -19.5800  -26.6620   21.5340 C   0  0  0  0  0  2  0  0  0  0  0  0
  -18.2110  -26.8180   22.2000 C   0  0  0  0  0  2  0  0  0  0  0  0
  -19.2060  -28.8860   23.3400 C   0  0  0  0  0  0  0  0  0  0  0  0
  -19.0170  -30.1390   23.9640 C   0  0  0  0  0  3  0  0  0  0  0  0
  -17.7230  -30.6590   24.1570 C   0  0  0  0  0  3  0  0  0  0  0  0
  -16.6000  -29.9240   23.7400 C   0  0  0  0  0  3  0  0  0  0  0  0
  -16.7740  -28.6720   23.1230 C   0  0  0  0  0  3  0  0  0  0  0  0
  -25.9010  -32.5350   23.8700 C   0  0  0  0  0  3  0  0  0  0  0  0
  -26.4060  -31.7630   25.1500 C   0  0  1  0  0  0  0  0  0  0  0  0
  -25.3020  -31.5110   26.2020 C   0  0  0  0  0  1  0  0  0  0  0  0
  -27.0060  -30.3920   24.7610 C   0  0  0  0  0  1  0  0  0  0  0  0
  -27.5400  -32.5660   25.8320 C   0  0  0  0  0  1  0  0  0  0  0  0
  -25.5840  -33.9330   24.1960 N   0  0  0  0  0  0  0  0  0  0  0  0
  -25.9070  -34.9840   23.4320 C   0  0  0  0  0  0  0  0  0  0  0  0
  -26.5750  -34.8820   22.3990 O   0  0  0  0  0  0  0  0  0  0  0  0
  -24.9910  -34.0850   24.9990 H   0  0  0  0  0  0  0  0  0  0  0  0
  -24.1650  -36.7630   23.0790 C   0  0  0  0  0  1  0  0  0  0  0  0
  -25.4110  -36.3700   23.8870 C   0  0  0  0  0  3  0  0  0  0  0  0
  -27.5360  -37.2800   24.7170 C   0  0  0  0  0  1  0  0  0  0  0  0
  -26.4360  -37.4300   23.7680 N   0  0  0  0  0  0  0  0  0  0  0  0
  -26.0220  -38.3490   23.9040 H   0  0  0  0  0  0  0  0  0  0  0  0
  2  3  2  0
  3 52  1  0
  3  1  1  0
  4  1  2  0
  5  2  1  0
  5  4  1  0
  6 19  1  0
  7 12  1  0
  8  9  1  0
  8  7  1  0
 10  9  1  0
 10 23  1  0
 10 11  1  0
 12  6  1  0
 12 11  1  0
 13  6  2  0
 16 14  1  0
 16 19  1  0
 17 15  1  0
 18  4  1  0
 18 14  1  0
 18 15  1  0
 19 17  1  0
 20 21  2  0
 21 40  1  0
 22 21  1  0
 22 25  1  0
 23 20  1  0
 23 24  1  0
 24 22  2  0
 25 26  1  0
 26 27  2  0
 28 31  1  0
 28 27  1  0
 29 28  2  0
 30 29  1  0
 30 25  2  0
 31 32  1  0
 32 33  1  0
 33 34  2  0
 35 34  1  0
 35 39  1  0
 36 35  2  0
 37 32  2  0
 37 36  1  0
 38 37  1  0
 40 41  1  0
 41 44  1  0
 41 43  1  0
 42 40  2  0
 45 46  1  0
 45 20  1  0
 47 45  1  0
 48 50  1  0
 49 50  1  0
 50  5  1  0
 52 51  1  0
 53 54  1  0
 53 52  1  0
 55 66  2  0
 56 54  1  0
 56 61  1  0
 57 65  1  0
 57 67  1  0
 58 64  1  0
 58 60  1  0
 59 65  1  0
 60 61  2  0
 60 59  1  0
 62 63  1  0
 62 56  2  0
 63 58  2  0
 64 57  1  0
 65 55  1  0
 67 69  2  0
 68 67  1  0
 70 68  1  0
 71 80  2  0
 71 76  1  0
 72 68  1  0
 72 76  1  0
 73 72  1  0
 74 75  1  0
 74 73  1  0
 75 71  1  0
 76 77  2  0
 77 78  1  0
 79 78  2  0
 80 79  1  0
 81 55  1  0
 81 86  1  0
 81 82  1  0
 82 85  1  1
 82 83  1  0
 84 82  1  0
 86 89  1  0
 87 91  1  0
 87 86  1  0
 88 87  2  0
 91 90  1  0
 93 91  1  0
 93 94  1  0
 93 92  1  0
M  ISO  4   6 100  19 100  53 101  54 101
M  END
>  <TORSDO>  (49) 
F 19

>  <SCORE>  (49) 
-14.721

>  <name>  (49) 
48

>  <ligand_id>  (49) 
48

>  <original_smiles>  (49) 
[H]c1c([H])c([H])c2c(c1[H])C([H])([H])C([H])([H])C([H])([H])C2([H])N([H])C(=O)C1([H])N(C(=O)C([H])(N([H])C(=O)C([H])(N([H])C([H])([H])[H])C([H])([H])[H])C(C([H])([H])[H])(C([H])([H])[H])C([H])([H])[H])C([H])([H])c2c([H])c(OC([H])([H])C([H])(c3c([H])c(C4([H])C([H])([H])C([H])([H])N(C(=O)N5C([H])([H])C([H])([H])C([H])([H])C([H])(n6nc(-c7c([H])c([H])c(Oc8c([H])c([H])c(F)c([H])c8F)c([H])c7[H])c(C(=O)N([H])[H])c6N([H])[H])C5([H])[H])C([H])([H])C4([H])[H])n(C([H])(C([H])([H])[H])C([H])([H])[H])c3[H])C([H])([H])[H])c([H])c([H])c2C1([H])[H]

>  <smiles>  (49) 
[H]c1c([H])c([H])c2c(c1[H])C([H])([H])C([H])([H])C([H])([H])C2([H])N([H])C(=O)C1([H])N(C(=O)C([H])(N([H])C(=O)C([H])(N([H])C([H])([H])[H])C([H])([H])[H])C(C([H])([H])[H])(C([H])([H])[H])C([H])([H])[H])C([H])([H])c2c([H])c(OC([H])([H])C([H])(c3c([H])c(C4([H])C([H])([H])C([H])([H])N(C(=O)N5C([H])([H])C([H])([H])C([H])([H])C([H])(n6nc(-c7c([H])c([H])c(Oc8c([H])c([H])c(F)c([H])c8F)c([H])c7[H])c(C(=O)N([H])[H])c6N([H])[H])C5([H])[H])C([H])([H])C4([H])[H])n(C([H])(C([H])([H])[H])C([H])([H])[H])c3[H])C([H])([H])[H])c([H])c([H])c2C1([H])[H]

$$$$
49:0:0
     RDKit          3D

 96105  0  0  1  0  0  0  0  0999 V2000
  -29.1690  -22.0430   20.6320 C   0  0  0  0  0  2  0  0  0  0  0  0
  -29.9940  -21.4770   18.3750 C   0  0  0  0  0  2  0  0  0  0  0  0
  -28.6690  -23.4230   20.1150 C   0  0  0  0  0  2  0  0  0  0  0  0
  -29.4970  -22.8360   17.8440 C   0  0  0  0  0  2  0  0  0  0  0  0
  -29.0890  -20.9870   19.5120 C   0  0  0  0  0  3  0  0  0  0  0  0
  -29.3820  -23.8990   18.8890 N   0  0  1  0  0  4  0  0  0  0  0  0
  -30.3270  -24.1300   19.1640 H   0  0  0  0  0  0  0  0  0  0  0  0
  -30.6670  -14.5270   20.5150 C   0  0  0  0  0  0  0  0  0  0  0  0
  -30.3920  -12.3630   19.3600 C   0  0  0  0  0  2  0  0  0  0  0  0
  -29.4510  -12.5760   18.1530 C   0  0  0  0  0  2  0  0  0  0  0  0
  -27.9740  -12.4380   18.5720 C   0  0  0  0  0  2  0  0  0  0  0  0
  -27.6340  -13.2630   19.8390 C   0  0  0  0  0  3  0  0  0  0  0  0
  -28.6820  -13.0250   20.9510 C   0  0  0  0  0  2  0  0  0  0  0  0
  -30.0140  -13.3360   20.3980 N   0  0  0  0  0  0  0  0  0  0  0  0
  -31.7900  -14.7230   20.0390 O   0  0  0  0  0  0  0  0  0  0  0  0
  -28.8580  -17.1410   19.7110 C   0  0  0  0  0  3  0  0  0  0  0  0
  -30.3430  -19.1400   20.8340 C   0  0  0  0  0  3  0  0  0  0  0  0
  -29.3490  -19.5150   19.9010 C   0  0  0  0  0  0  0  0  0  0  0  0
  -28.6000  -18.4660   19.3130 C   0  0  0  0  0  0  0  0  0  0  0  0
  -29.8580  -16.8530   20.6610 C   0  0  0  0  0  0  0  0  0  0  0  0
  -27.5170  -18.7170   18.2740 C   0  0  0  0  0  1  0  0  0  0  0  0
  -30.5850  -17.8570   21.2100 N   0  0  0  0  0  0  0  0  0  0  0  0
  -29.9510  -15.5040   21.1050 N   0  0  0  0  0  0  0  0  0  0  0  0
  -29.1030  -15.1500   21.5160 H   0  0  0  0  0  0  0  0  0  0  0  0
  -25.2320  -13.8940   20.5250 C   0  0  0  0  0  0  0  0  0  0  0  0
  -24.1550  -13.1300   20.8860 C   0  0  0  0  0  0  0  0  0  0  0  0
  -24.6090  -11.7750   20.8630 C   0  0  0  0  0  0  0  0  0  0  0  0
  -26.2740  -13.0030   20.3060 N   0  0  0  0  0  0  0  0  0  0  0  0
  -25.9000  -11.7250   20.5650 N   0  0  0  0  0  0  0  0  0  0  0  0
  -23.8740  -10.5180   21.0500 C   0  0  0  0  0  0  0  0  0  0  0  0
  -24.2920   -9.5510   21.9900 C   0  0  0  0  0  3  0  0  0  0  0  0
  -23.5600   -8.3580   22.1640 C   0  0  0  0  0  3  0  0  0  0  0  0
  -22.3940   -8.1230   21.3970 C   0  0  0  0  0  0  0  0  0  0  0  0
  -21.9940   -9.0780   20.4450 C   0  0  0  0  0  3  0  0  0  0  0  0
  -22.7270  -10.2640   20.2700 C   0  0  0  0  0  3  0  0  0  0  0  0
  -21.6330   -6.9820   21.4810 O   0  0  0  0  0  0  0  0  0  0  0  0
  -21.5660   -6.2450   22.6360 C   0  0  0  0  0  0  0  0  0  0  0  0
  -21.1090   -6.8040   23.8510 C   0  0  0  0  0  3  0  0  0  0  0  0
  -20.9910   -5.9920   24.9970 C   0  0  0  0  0  3  0  0  0  0  0  0
  -21.3190   -4.6240   24.9290 C   0  0  0  0  0  0  0  0  0  0  0  0
  -21.7680   -4.0670   23.7190 C   0  0  0  0  0  3  0  0  0  0  0  0
  -21.8880   -4.8740   22.5750 C   0  0  0  0  0  0  0  0  0  0  0  0
  -22.3020   -4.3270   21.4070 F   0  0  0  0  0  0  0  0  0  0  0  0
  -21.1960   -3.8440   26.0280 F   0  0  0  0  0  0  0  0  0  0  0  0
  -22.7590  -13.6170   21.1450 C   0  0  0  0  0  0  0  0  0  0  0  0
  -22.0160  -12.9260   22.0030 N   0  0  0  0  0  0  0  0  0  0  0  0
  -22.3340  -14.6470   20.6240 O   0  0  0  0  0  0  0  0  0  0  0  0
  -22.3710  -12.0920   22.4480 H   0  0  0  0  0  0  0  0  0  0  0  0
  -21.0800  -13.2380   22.2200 H   0  0  0  0  0  0  0  0  0  0  0  0
  -25.4060  -15.2640   20.3460 N   0  0  0  0  0  0  0  0  0  0  0  0
  -24.6400  -15.9180   20.4550 H   0  0  0  0  0  0  0  0  0  0  0  0
  -26.2640  -15.7060   20.0460 H   0  0  0  0  0  0  0  0  0  0  0  0
  -28.7730  -25.1320   18.2920 C   0  0  0  0  0  2  0  0  0  0  0  0
  -30.6100  -26.6870   19.2010 C   0  0  0  0  0  1  0  0  0  0  0  0
  -29.1080  -26.4940   18.9620 C   0  0  0  0  0  3  0  0  0  0  0  0
  -28.4370  -26.7380   20.2010 O   0  0  0  0  0  0  0  0  0  0  0  0
  -24.5710  -31.8940   23.2380 C   0  0  0  0  0  0  0  0  0  0  0  0
  -27.2730  -27.4780   20.1590 C   0  0  0  0  0  0  0  0  0  0  0  0
  -23.3860  -30.4840   21.5860 C   0  0  0  0  0  3  0  0  0  0  0  0
  -24.8630  -28.9580   20.1680 C   0  0  0  0  0  0  0  0  0  0  0  0
  -25.9110  -30.8590   21.4090 C   0  0  0  0  0  2  0  0  0  0  0  0
  -26.0110  -29.4900   20.7680 C   0  0  0  0  0  0  0  0  0  0  0  0
  -27.2170  -28.7510   20.7710 C   0  0  0  0  0  3  0  0  0  0  0  0
  -26.1020  -26.9520   19.5730 C   0  0  0  0  0  3  0  0  0  0  0  0
  -24.9010  -27.6860   19.5720 C   0  0  0  0  0  3  0  0  0  0  0  0
  -23.6110  -29.8060   20.2070 C   0  0  0  0  0  2  0  0  0  0  0  0
  -24.6400  -31.0940   22.1350 N   0  0  0  0  0  0  0  0  0  0  0  0
  -23.4840  -32.1590   23.7690 O   0  0  0  0  0  0  0  0  0  0  0  0
  -22.7340  -29.4580   22.5400 C   0  0  0  0  0  0  0  0  0  0  0  0
  -21.4100  -29.2750   22.4090 N   0  0  0  0  0  0  0  0  0  0  0  0
  -23.4170  -28.8310   23.3550 O   0  0  0  0  0  0  0  0  0  0  0  0
  -20.9230  -29.8330   21.7220 H   0  0  0  0  0  0  0  0  0  0  0  0
  -18.0310  -28.1000   22.9140 C   0  0  0  0  0  0  0  0  0  0  0  0
  -20.5920  -28.3350   23.1740 C   0  0  0  0  0  3  0  0  0  0  0  0
  -20.6800  -26.9110   22.5780 C   0  0  0  0  0  2  0  0  0  0  0  0
  -19.5700  -26.6080   21.5680 C   0  0  0  0  0  2  0  0  0  0  0  0
  -18.1930  -26.7570   22.2220 C   0  0  0  0  0  2  0  0  0  0  0  0
  -19.1580  -28.8470   23.3460 C   0  0  0  0  0  0  0  0  0  0  0  0
  -18.9530  -30.1060   23.9520 C   0  0  0  0  0  3  0  0  0  0  0  0
  -17.6540  -30.6160   24.1300 C   0  0  0  0  0  3  0  0  0  0  0  0
  -16.5410  -29.8640   23.7150 C   0  0  0  0  0  3  0  0  0  0  0  0
  -16.7300  -28.6090   23.1120 C   0  0  0  0  0  3  0  0  0  0  0  0
  -25.8490  -32.5320   23.8660 C   0  0  0  0  0  3  0  0  0  0  0  0
  -25.5340  -33.9310   24.1840 N   0  0  0  0  0  0  0  0  0  0  0  0
  -25.8750  -34.9790   23.4230 C   0  0  0  0  0  0  0  0  0  0  0  0
  -26.5610  -34.8710   22.4020 O   0  0  0  0  0  0  0  0  0  0  0  0
  -24.9280  -34.0890   24.9760 H   0  0  0  0  0  0  0  0  0  0  0  0
  -24.1580  -36.7710   23.0200 C   0  0  0  0  0  1  0  0  0  0  0  0
  -25.3790  -36.3690   23.8630 C   0  0  0  0  0  3  0  0  0  0  0  0
  -27.4910  -37.2560   24.7480 C   0  0  0  0  0  1  0  0  0  0  0  0
  -26.4150  -37.4210   23.7730 N   0  0  0  0  0  0  0  0  0  0  0  0
  -26.0070  -38.3430   23.9020 H   0  0  0  0  0  0  0  0  0  0  0  0
  -26.3590  -31.7680   25.1490 C   0  0  1  0  0  0  0  0  0  0  0  0
  -25.2580  -31.5290   26.2080 C   0  0  0  0  0  1  0  0  0  0  0  0
  -26.9520  -30.3920   24.7670 C   0  0  0  0  0  1  0  0  0  0  0  0
  -27.5000  -32.5710   25.8190 C   0  0  0  0  0  1  0  0  0  0  0  0
  2  5  1  0
  3  1  1  0
  4  2  1  0
  4  6  1  0
  5 18  1  0
  5  1  1  0
  6  7  1  1
  6  3  1  0
  8 23  1  0
  9 14  1  0
 10 11  1  0
 10  9  1  0
 12 11  1  0
 12 28  1  0
 12 13  1  0
 14  8  1  0
 14 13  1  0
 15  8  2  0
 16 20  1  0
 17 22  1  0
 18 17  2  0
 19 16  2  0
 19 18  1  0
 20 23  1  0
 20 22  2  0
 21 19  1  0
 23 24  1  0
 25 26  2  0
 26 45  1  0
 27 26  1  0
 27 30  1  0
 28 25  1  0
 28 29  1  0
 29 27  2  0
 30 31  1  0
 31 32  2  0
 33 36  1  0
 33 32  1  0
 34 33  2  0
 35 34  1  0
 35 30  2  0
 36 37  1  0
 37 38  1  0
 38 39  2  0
 40 39  1  0
 40 44  1  0
 41 40  2  0
 42 37  2  0
 42 41  1  0
 43 42  1  0
 45 46  1  0
 46 49  1  0
 46 48  1  0
 47 45  2  0
 50 51  1  0
 50 25  1  0
 52 50  1  0
 53  6  1  0
 53 55  1  0
 55 54  1  0
 55 56  1  0
 57 68  2  0
 58 56  1  0
 58 63  1  0
 59 67  1  0
 59 69  1  0
 60 66  1  0
 60 62  1  0
 61 67  1  0
 62 63  2  0
 62 61  1  0
 64 58  2  0
 65 64  1  0
 65 60  2  0
 66 59  1  0
 67 57  1  0
 69 71  2  0
 70 69  1  0
 72 70  1  0
 73 82  2  0
 73 78  1  0
 74 70  1  0
 74 78  1  0
 75 74  1  0
 76 77  1  0
 76 75  1  0
 77 73  1  0
 78 79  2  0
 79 80  1  0
 81 80  2  0
 82 81  1  0
 83 57  1  0
 83 84  1  0
 83 93  1  0
 84 87  1  0
 85 89  1  0
 85 84  1  0
 86 85  2  0
 89 88  1  0
 91 89  1  0
 91 92  1  0
 91 90  1  0
 93 96  1  1
 93 94  1  0
 95 93  1  0
M  ISO  4   8 100  23 100  55 101  56 101
M  END
>  <TORSDO>  (50) 
F 18

>  <SCORE>  (50) 
-14.995

>  <name>  (50) 
49

>  <ligand_id>  (50) 
49

>  <original_smiles>  (50) 
[H]c1nc(N([H])C(=O)N2C([H])([H])C([H])([H])C([H])([H])C([H])(n3nc(-c4c([H])c([H])c(Oc5c([H])c([H])c(F)c([H])c5F)c([H])c4[H])c(C(=O)N([H])[H])c3N([H])[H])C2([H])[H])c([H])c(C([H])([H])[H])c1C1([H])C([H])([H])C([H])([H])[N+]([H])(C([H])([H])C([H])(Oc2c([H])c([H])c3c(c2[H])C([H])([H])N(C(=O)C([H])(N([H])C(=O)C([H])(N([H])C([H])([H])[H])C([H])([H])[H])C(C([H])([H])[H])(C([H])([H])[H])C([H])([H])[H])C([H])(C(=O)N([H])C2([H])c4c([H])c([H])c([H])c([H])c4C([H])([H])C([H])([H])C2([H])[H])C3([H])[H])C([H])([H])[H])C([H])([H])C1([H])[H]

>  <smiles>  (50) 
[H]c1nc(N([H])C(=O)N2C([H])([H])C([H])([H])C([H])([H])C([H])(n3nc(-c4c([H])c([H])c(Oc5c([H])c([H])c(F)c([H])c5F)c([H])c4[H])c(C(=O)N([H])[H])c3N([H])[H])C2([H])[H])c([H])c(C([H])([H])[H])c1C1([H])C([H])([H])C([H])([H])[N+]([H])(C([H])([H])C([H])(Oc2c([H])c([H])c3c(c2[H])C([H])([H])N(C(=O)C([H])(N([H])C(=O)C([H])(N([H])C([H])([H])[H])C([H])([H])[H])C(C([H])([H])[H])(C([H])([H])[H])C([H])([H])[H])C([H])(C(=O)N([H])C2([H])c4c([H])c([H])c([H])c([H])c4C([H])([H])C([H])([H])C2([H])[H])C3([H])[H])C([H])([H])[H])C([H])([H])C1([H])[H]

$$$$
50:0:0
     RDKit          3D

 98107  0  0  1  0  0  0  0  0999 V2000
  -30.1870  -22.5050   23.4190 C   0  0  0  0  0  2  0  0  0  0  0  0
  -29.7830  -21.2650   22.6110 C   0  0  0  0  0  2  0  0  0  0  0  0
  -29.6540  -23.7920   22.7710 C   0  0  0  0  0  2  0  0  0  0  0  0
  -29.7480  -22.7410   20.5540 C   0  0  0  0  0  2  0  0  0  0  0  0
  -30.2360  -21.3800   21.1430 C   0  0  0  0  0  3  0  0  0  0  0  0
  -30.1490  -23.9250   21.3740 N   0  0  1  0  0  4  0  0  0  0  0  0
  -31.1580  -23.9000   21.4260 H   0  0  0  0  0  0  0  0  0  0  0  0
  -28.8530  -20.1190   19.3250 C   0  0  0  0  0  3  0  0  0  0  0  0
  -29.6820  -18.0550   19.5560 C   0  0  0  0  0  3  0  0  0  0  0  0
  -28.7840  -18.7860   18.8320 C   0  0  0  0  0  0  0  0  0  0  0  0
  -29.7870  -20.1790   20.3280 C   0  0  0  0  0  0  0  0  0  0  0  0
  -30.2810  -18.8770   20.4960 N   0  0  0  0  0  0  0  0  0  0  0  0
  -27.9730  -18.1800   17.7500 C   0  0  0  0  0  0  0  0  0  0  0  0
  -27.2280  -19.1390   16.8320 C   0  0  0  0  0  1  0  0  0  0  0  0
  -27.8740  -16.9610   17.5940 O   0  0  0  0  0  0  0  0  0  0  0  0
  -31.3010  -18.3930   21.4300 C   0  0  0  0  0  2  0  0  0  0  0  0
  -30.7750  -17.3890   22.4920 C   0  0  0  0  0  2  0  0  0  0  0  0
  -31.1300  -15.2310   21.2500 C   0  0  0  0  0  0  0  0  0  0  0  0
  -30.9760  -13.3240   19.6980 C   0  0  0  0  0  2  0  0  0  0  0  0
  -30.1090  -13.7200   18.4850 C   0  0  0  0  0  2  0  0  0  0  0  0
  -28.6130  -13.4880   18.7750 C   0  0  0  0  0  2  0  0  0  0  0  0
  -28.1670  -14.0820   20.1370 C   0  0  0  0  0  3  0  0  0  0  0  0
  -29.1480  -13.6730   21.2590 C   0  0  0  0  0  2  0  0  0  0  0  0
  -30.5010  -14.0940   20.8540 N   0  0  0  0  0  0  0  0  0  0  0  0
  -32.2670  -15.5410   20.8860 O   0  0  0  0  0  0  0  0  0  0  0  0
  -30.3800  -16.0710   21.9770 N   0  0  0  0  0  0  0  0  0  0  0  0
  -29.4480  -15.7570   22.2030 H   0  0  0  0  0  0  0  0  0  0  0  0
  -25.6610  -14.5120   20.5440 C   0  0  0  0  0  0  0  0  0  0  0  0
  -24.6180  -13.6630   20.7970 C   0  0  0  0  0  0  0  0  0  0  0  0
  -25.1800  -12.3510   20.8530 C   0  0  0  0  0  0  0  0  0  0  0  0
  -26.7900  -13.7120   20.4580 N   0  0  0  0  0  0  0  0  0  0  0  0
  -26.4980  -12.4080   20.7010 N   0  0  0  0  0  0  0  0  0  0  0  0
  -24.5350  -11.0390   20.9850 C   0  0  0  0  0  0  0  0  0  0  0  0
  -24.9220  -10.1240   21.9900 C   0  0  0  0  0  3  0  0  0  0  0  0
  -24.2740   -8.8760   22.1080 C   0  0  0  0  0  3  0  0  0  0  0  0
  -23.2250   -8.5330   21.2220 C   0  0  0  0  0  0  0  0  0  0  0  0
  -22.8590   -9.4380   20.2100 C   0  0  0  0  0  3  0  0  0  0  0  0
  -23.5090  -10.6780   20.0900 C   0  0  0  0  0  3  0  0  0  0  0  0
  -22.5570   -7.3320   21.2460 O   0  0  0  0  0  0  0  0  0  0  0  0
  -22.2580   -6.6980   22.4250 C   0  0  0  0  0  0  0  0  0  0  0  0
  -21.4660   -7.3100   23.4200 C   0  0  0  0  0  3  0  0  0  0  0  0
  -21.1250   -6.5960   24.5860 C   0  0  0  0  0  3  0  0  0  0  0  0
  -21.5650   -5.2710   24.7540 C   0  0  0  0  0  0  0  0  0  0  0  0
  -22.3490   -4.6570   23.7620 C   0  0  0  0  0  3  0  0  0  0  0  0
  -22.6910   -5.3690   22.5990 C   0  0  0  0  0  0  0  0  0  0  0  0
  -23.4290   -4.7660   21.6360 F   0  0  0  0  0  0  0  0  0  0  0  0
  -21.2320   -4.5810   25.8710 F   0  0  0  0  0  0  0  0  0  0  0  0
  -23.1650  -14.0340   20.8910 C   0  0  0  0  0  0  0  0  0  0  0  0
  -22.4010  -13.3170   21.7090 N   0  0  0  0  0  0  0  0  0  0  0  0
  -22.7090  -14.9950   20.2730 O   0  0  0  0  0  0  0  0  0  0  0  0
  -22.7790  -12.5420   22.2320 H   0  0  0  0  0  0  0  0  0  0  0  0
  -21.4240  -13.5500   21.8130 H   0  0  0  0  0  0  0  0  0  0  0  0
  -25.7420  -15.8900   20.3670 N   0  0  0  0  0  0  0  0  0  0  0  0
  -24.9240  -16.4860   20.3990 H   0  0  0  0  0  0  0  0  0  0  0  0
  -26.5990  -16.3950   20.1810 H   0  0  0  0  0  0  0  0  0  0  0  0
  -29.7950  -25.2260   20.7220 C   0  0  0  0  0  2  0  0  0  0  0  0
  -30.1730  -26.4860   21.5450 C   0  0  0  0  0  2  0  0  0  0  0  0
  -30.0150  -27.7140   20.8290 O   0  0  0  0  0  0  0  0  0  0  0  0
  -25.1190  -31.9550   23.8160 C   0  0  0  0  0  0  0  0  0  0  0  0
  -28.7520  -28.2520   20.7790 C   0  0  0  0  0  0  0  0  0  0  0  0
  -24.3700  -30.6500   21.8520 C   0  0  0  0  0  3  0  0  0  0  0  0
  -26.2100  -29.4610   20.5490 C   0  0  0  0  0  0  0  0  0  0  0  0
  -26.8290  -31.3000   22.1270 C   0  0  0  0  0  2  0  0  0  0  0  0
  -27.1850  -30.0340   21.3760 C   0  0  0  0  0  0  0  0  0  0  0  0
  -28.4590  -29.4380   21.4870 C   0  0  0  0  0  3  0  0  0  0  0  0
  -27.7640  -27.6850   19.9480 C   0  0  0  0  0  3  0  0  0  0  0  0
  -26.4950  -28.2830   19.8340 C   0  0  0  0  0  3  0  0  0  0  0  0
  -24.8780  -30.1720   20.4660 C   0  0  0  0  0  2  0  0  0  0  0  0
  -25.4460  -31.3110   22.6610 N   0  0  0  0  0  0  0  0  0  0  0  0
  -23.9410  -32.0400   24.1900 O   0  0  0  0  0  0  0  0  0  0  0  0
  -23.7090  -29.4550   22.5730 C   0  0  0  0  0  0  0  0  0  0  0  0
  -22.4400  -29.1790   22.2320 N   0  0  0  0  0  0  0  0  0  0  0  0
  -24.3410  -28.7830   23.3920 O   0  0  0  0  0  0  0  0  0  0  0  0
  -21.9910  -29.7800   21.5550 H   0  0  0  0  0  0  0  0  0  0  0  0
  -19.1340  -27.7240   22.1770 C   0  0  0  0  0  0  0  0  0  0  0  0
  -21.6310  -28.0760   22.7480 C   0  0  0  0  0  3  0  0  0  0  0  0
  -21.8910  -26.7740   21.9560 C   0  0  0  0  0  2  0  0  0  0  0  0
  -20.9130  -26.5670   20.7960 C   0  0  0  0  0  2  0  0  0  0  0  0
  -19.4710  -26.5220   21.3090 C   0  0  0  0  0  2  0  0  0  0  0  0
  -20.1490  -28.4620   22.8400 C   0  0  0  0  0  0  0  0  0  0  0  0
  -19.7870  -29.5920   23.6040 C   0  0  0  0  0  3  0  0  0  0  0  0
  -18.4390  -29.9830   23.7160 C   0  0  0  0  0  3  0  0  0  0  0  0
  -17.4360  -29.2380   23.0740 C   0  0  0  0  0  3  0  0  0  0  0  0
  -17.7830  -28.1100   22.3080 C   0  0  0  0  0  3  0  0  0  0  0  0
  -26.2030  -32.6340   24.7110 C   0  0  0  0  0  3  0  0  0  0  0  0
  -25.7790  -34.0200   24.9470 N   0  0  0  0  0  0  0  0  0  0  0  0
  -26.2320  -35.0800   24.2650 C   0  0  0  0  0  0  0  0  0  0  0  0
  -27.1180  -34.9980   23.4100 O   0  0  0  0  0  0  0  0  0  0  0  0
  -25.0190  -34.1560   25.5990 H   0  0  0  0  0  0  0  0  0  0  0  0
  -24.5580  -36.7960   23.5110 C   0  0  0  0  0  1  0  0  0  0  0  0
  -25.6030  -36.4500   24.5820 C   0  0  0  0  0  3  0  0  0  0  0  0
  -27.4670  -37.4270   25.8470 C   0  0  0  0  0  1  0  0  0  0  0  0
  -26.5950  -37.5440   24.6810 N   0  0  0  0  0  0  0  0  0  0  0  0
  -26.1320  -38.4480   24.7220 H   0  0  0  0  0  0  0  0  0  0  0  0
  -26.4400  -31.8830   26.0780 C   0  0  1  0  0  0  0  0  0  0  0  0
  -25.1330  -31.5120   26.8170 C   0  0  0  0  0  1  0  0  0  0  0  0
  -27.2420  -30.5790   25.8510 C   0  0  0  0  0  1  0  0  0  0  0  0
  -27.2890  -32.7660   27.0230 C   0  0  0  0  0  1  0  0  0  0  0  0
  2  1  1  0
  3  1  1  0
  4  5  1  0
  4  6  1  0
  5 11  1  0
  5  2  1  0
  6  7  1  1
  6  3  1  0
  8 11  2  0
  9 12  1  0
 10  8  1  0
 10  9  2  0
 11 12  1  0
 12 16  1  0
 13 10  1  0
 14 13  1  0
 15 13  2  0
 16 17  1  0
 18 26  1  0
 19 24  1  0
 20 21  1  0
 20 19  1  0
 22 21  1  0
 22 31  1  0
 22 23  1  0
 24 18  1  0
 24 23  1  0
 25 18  2  0
 26 27  1  0
 26 17  1  0
 28 29  2  0
 29 30  1  0
 29 48  1  0
 30 33  1  0
 31 28  1  0
 31 32  1  0
 32 30  2  0
 33 34  1  0
 34 35  2  0
 36 39  1  0
 36 35  1  0
 37 36  2  0
 38 37  1  0
 38 33  2  0
 39 40  1  0
 40 45  2  0
 40 41  1  0
 41 42  2  0
 42 43  1  0
 43 47  1  0
 44 43  2  0
 45 44  1  0
 46 45  1  0
 48 49  1  0
 49 52  1  0
 49 51  1  0
 50 48  2  0
 53 54  1  0
 53 28  1  0
 55 53  1  0
 56  6  1  0
 56 57  1  0
 58 57  1  0
 59 70  2  0
 60 58  1  0
 60 65  1  0
 61 71  1  0
 61 69  1  0
 62 64  1  0
 63 69  1  0
 64 65  2  0
 64 63  1  0
 66 60  2  0
 67 66  1  0
 67 62  2  0
 68 62  1  0
 68 61  1  0
 69 59  1  0
 71 73  2  0
 72 71  1  0
 74 72  1  0
 75 84  2  0
 75 80  1  0
 76 72  1  0
 76 80  1  0
 77 76  1  0
 78 79  1  0
 78 77  1  0
 79 75  1  0
 80 81  2  0
 81 82  1  0
 83 82  2  0
 84 83  1  0
 85 59  1  0
 85 86  1  0
 85 95  1  0
 86 89  1  0
 87 91  1  0
 87 86  1  0
 88 87  2  0
 91 90  1  0
 91 93  1  0
 93 94  1  0
 93 92  1  0
 95 96  1  1
 95 98  1  0
 97 95  1  0
M  ISO  4  18 100  26 100  57 101  58 101
M  END
>  <TORSDO>  (51) 
F 22

>  <SCORE>  (51) 
-9.551

>  <name>  (51) 
50

>  <ligand_id>  (51) 
50

>  <original_smiles>  (51) 
[H]c1c([H])c([H])c2c(c1[H])C([H])([H])C([H])([H])C([H])([H])C2([H])N([H])C(=O)C1([H])N(C(=O)C([H])(N([H])C(=O)C([H])(N([H])C([H])([H])[H])C([H])([H])[H])C(C([H])([H])[H])(C([H])([H])[H])C([H])([H])[H])C([H])([H])c2c([H])c(OC([H])([H])C([H])([H])[N+]3([H])C([H])([H])C([H])([H])C([H])([H])C([H])(c4c([H])c(C(=O)C([H])([H])[H])c([H])n4C([H])([H])C([H])([H])N([H])C(=O)N4C([H])([H])C([H])([H])C([H])([H])C([H])(n5nc(-c6c([H])c([H])c(Oc7c([H])c([H])c(F)c([H])c7F)c([H])c6[H])c(C(=O)N([H])[H])c5N([H])[H])C4([H])[H])C3([H])[H])c([H])c([H])c2C1([H])[H]

>  <smiles>  (51) 
[H]c1c([H])c([H])c2c(c1[H])C([H])([H])C([H])([H])C([H])([H])C2([H])N([H])C(=O)C1([H])N(C(=O)C([H])(N([H])C(=O)C([H])(N([H])C([H])([H])[H])C([H])([H])[H])C(C([H])([H])[H])(C([H])([H])[H])C([H])([H])[H])C([H])([H])c2c([H])c(OC([H])([H])C([H])([H])[N+]3([H])C([H])([H])C([H])([H])C([H])([H])C([H])(c4c([H])c(C(=O)C([H])([H])[H])c([H])n4C([H])([H])C([H])([H])N([H])C(=O)N4C([H])([H])C([H])([H])C([H])([H])C([H])(n5nc(-c6c([H])c([H])c(Oc7c([H])c([H])c(F)c([H])c7F)c([H])c6[H])c(C(=O)N([H])[H])c5N([H])[H])C4([H])[H])C3([H])[H])c([H])c([H])c2C1([H])[H]

$$$$
51:0:0
     RDKit          3D

 96104  0  0  1  0  0  0  0  0999 V2000
  -28.9760  -21.8360   19.4530 N   0  0  0  0  0  4  0  0  0  0  0  0
  -29.1870  -21.6660   18.4850 H   0  0  0  0  0  0  0  0  0  0  0  0
  -29.8470  -21.8680   19.9610 H   0  0  0  0  0  0  0  0  0  0  0  0
  -28.1660  -20.6740   19.9560 C   0  0  0  0  0  2  0  0  0  0  0  0
  -29.8460  -18.8400   19.0780 C   0  0  0  0  0  3  0  0  0  0  0  0
  -28.2210  -18.2380   20.7500 C   0  0  0  0  0  3  0  0  0  0  0  0
  -30.3640  -17.5120   19.1270 C   0  0  0  0  0  3  0  0  0  0  0  0
  -28.7090  -16.9080   20.7750 C   0  0  0  0  0  3  0  0  0  0  0  0
  -28.7710  -19.2360   19.9090 C   0  0  0  0  0  0  0  0  0  0  0  0
  -29.8060  -16.5110   19.9720 C   0  0  0  0  0  0  0  0  0  0  0  0
  -30.6600  -14.3120   19.1840 C   0  0  0  0  0  0  0  0  0  0  0  0
  -30.0060  -12.2230   18.0070 C   0  0  0  0  0  2  0  0  0  0  0  0
  -28.8510  -12.4940   17.0260 C   0  0  0  0  0  2  0  0  0  0  0  0
  -27.4950  -12.3510   17.7420 C   0  0  0  0  0  2  0  0  0  0  0  0
  -27.4440  -13.1400   19.0800 C   0  0  0  0  0  3  0  0  0  0  0  0
  -28.6980  -12.8760   19.9440 C   0  0  0  0  0  2  0  0  0  0  0  0
  -29.8850  -13.1830   19.1270 N   0  0  0  0  0  0  0  0  0  0  0  0
  -31.5750  -14.5010   18.3740 O   0  0  0  0  0  0  0  0  0  0  0  0
  -30.4390  -15.2190   20.1950 N   0  0  0  0  0  0  0  0  0  0  0  0
  -25.2760  -13.7480   20.3200 C   0  0  0  0  0  0  0  0  0  0  0  0
  -24.2810  -12.9800   20.8560 C   0  0  0  0  0  0  0  0  0  0  0  0
  -24.6720  -11.6210   20.6480 C   0  0  0  0  0  0  0  0  0  0  0  0
  -26.2140  -12.8620   19.8160 N   0  0  0  0  0  0  0  0  0  0  0  0
  -25.8670  -11.5740   20.0700 N   0  0  0  0  0  0  0  0  0  0  0  0
  -23.9550  -10.3660   20.9150 C   0  0  0  0  0  0  0  0  0  0  0  0
  -24.4450   -9.4060   21.8280 C   0  0  0  0  0  3  0  0  0  0  0  0
  -23.7190   -8.2210   22.0770 C   0  0  0  0  0  3  0  0  0  0  0  0
  -22.4910   -7.9880   21.4150 C   0  0  0  0  0  0  0  0  0  0  0  0
  -22.0190   -8.9330   20.4890 C   0  0  0  0  0  3  0  0  0  0  0  0
  -22.7460  -10.1100   20.2380 C   0  0  0  0  0  3  0  0  0  0  0  0
  -21.7310   -6.8560   21.5800 O   0  0  0  0  0  0  0  0  0  0  0  0
  -21.6670   -6.1990   22.7810 C   0  0  0  0  0  0  0  0  0  0  0  0
  -21.1970   -6.8350   23.9510 C   0  0  0  0  0  3  0  0  0  0  0  0
  -21.0830   -6.1070   25.1530 C   0  0  0  0  0  3  0  0  0  0  0  0
  -21.4260   -4.7400   25.1830 C   0  0  0  0  0  0  0  0  0  0  0  0
  -21.8840   -4.1020   24.0150 C   0  0  0  0  0  3  0  0  0  0  0  0
  -22.0000   -4.8290   22.8190 C   0  0  0  0  0  0  0  0  0  0  0  0
  -22.4260   -4.2080   21.6930 F   0  0  0  0  0  0  0  0  0  0  0  0
  -21.3080   -4.0340   26.3310 F   0  0  0  0  0  0  0  0  0  0  0  0
  -22.9900  -13.4700   21.4430 C   0  0  0  0  0  0  0  0  0  0  0  0
  -22.4460  -12.7470   22.4180 N   0  0  0  0  0  0  0  0  0  0  0  0
  -22.4890  -14.5340   21.0800 O   0  0  0  0  0  0  0  0  0  0  0  0
  -22.8640  -11.8860   22.7340 H   0  0  0  0  0  0  0  0  0  0  0  0
  -21.5900  -13.0590   22.8570 H   0  0  0  0  0  0  0  0  0  0  0  0
  -25.4490  -15.1240   20.1950 N   0  0  0  0  0  0  0  0  0  0  0  0
  -24.7480  -15.7830   20.5190 H   0  0  0  0  0  0  0  0  0  0  0  0
  -26.2480  -15.5740   19.7720 H   0  0  0  0  0  0  0  0  0  0  0  0
  -32.5890  -16.1770   21.1070 C   0  0  0  0  0  1  0  0  0  0  0  0
  -31.8390  -13.8640   21.8550 C   0  0  0  0  0  1  0  0  0  0  0  0
  -31.3810  -15.2420   21.3500 C   0  0  0  0  0  3  0  0  0  0  0  0
  -28.3290  -23.2000   19.5420 C   0  0  0  0  0  2  0  0  0  0  0  0
  -29.2360  -24.3760   19.0260 C   0  0  0  0  0  3  0  0  0  0  0  0
  -30.4330  -24.3680   19.7940 O   0  0  0  0  0  0  0  0  0  0  0  0
  -30.7620  -25.2580   19.8240 H   0  0  0  0  0  0  0  0  0  0  0  0
  -28.6880  -25.8580   18.9270 C   0  0  0  0  0  2  0  0  0  0  0  0
  -28.3260  -26.5310   20.1560 O   0  0  0  0  0  0  0  0  0  0  0  0
  -24.6860  -31.8280   23.3260 C   0  0  0  0  0  0  0  0  0  0  0  0
  -27.1790  -27.3080   20.1760 C   0  0  0  0  0  0  0  0  0  0  0  0
  -23.4280  -30.4690   21.6840 C   0  0  0  0  0  3  0  0  0  0  0  0
  -24.8240  -28.8870   20.2440 C   0  0  0  0  0  0  0  0  0  0  0  0
  -25.9680  -30.7410   21.4760 C   0  0  0  0  0  2  0  0  0  0  0  0
  -26.0020  -29.3670   20.8290 C   0  0  0  0  0  0  0  0  0  0  0  0
  -27.1790  -28.5790   20.8040 C   0  0  0  0  0  3  0  0  0  0  0  0
  -25.9690  -26.8350   19.6160 C   0  0  0  0  0  3  0  0  0  0  0  0
  -24.7980  -27.6140   19.6510 C   0  0  0  0  0  3  0  0  0  0  0  0
  -23.6130  -29.7880   20.3000 C   0  0  0  0  0  2  0  0  0  0  0  0
  -24.7120  -31.0290   22.2150 N   0  0  0  0  0  0  0  0  0  0  0  0
  -23.6160  -32.1240   23.8780 O   0  0  0  0  0  0  0  0  0  0  0  0
  -22.7520  -29.4620   22.6470 C   0  0  0  0  0  0  0  0  0  0  0  0
  -21.4270  -29.2930   22.5050 N   0  0  0  0  0  0  0  0  0  0  0  0
  -23.4190  -28.8410   23.4760 O   0  0  0  0  0  0  0  0  0  0  0  0
  -20.9580  -29.8520   21.8060 H   0  0  0  0  0  0  0  0  0  0  0  0
  -18.0380  -28.1030   22.9520 C   0  0  0  0  0  0  0  0  0  0  0  0
  -20.5890  -28.3670   23.2690 C   0  0  0  0  0  3  0  0  0  0  0  0
  -20.7010  -26.9280   22.7220 C   0  0  0  0  0  2  0  0  0  0  0  0
  -19.6230  -26.5880   21.6890 C   0  0  0  0  0  2  0  0  0  0  0  0
  -18.2280  -26.7430   22.3000 C   0  0  0  0  0  2  0  0  0  0  0  0
  -19.1470  -28.8750   23.3910 C   0  0  0  0  0  0  0  0  0  0  0  0
  -18.9200  -30.1440   23.9630 C   0  0  0  0  0  3  0  0  0  0  0  0
  -17.6120  -30.6490   24.0940 C   0  0  0  0  0  3  0  0  0  0  0  0
  -16.5150  -29.8810   23.6670 C   0  0  0  0  0  3  0  0  0  0  0  0
  -16.7290  -28.6110   23.1060 C   0  0  0  0  0  3  0  0  0  0  0  0
  -25.9900  -32.4170   23.9430 C   0  0  0  0  0  3  0  0  0  0  0  0
  -25.7150  -33.8170   24.3030 N   0  0  0  0  0  0  0  0  0  0  0  0
  -26.0800  -34.8780   23.5720 C   0  0  0  0  0  0  0  0  0  0  0  0
  -26.7520  -34.7790   22.5390 O   0  0  0  0  0  0  0  0  0  0  0  0
  -25.1300  -33.9650   25.1120 H   0  0  0  0  0  0  0  0  0  0  0  0
  -24.4210  -36.7350   23.2210 C   0  0  0  0  0  1  0  0  0  0  0  0
  -25.6270  -36.2690   24.0530 C   0  0  0  0  0  3  0  0  0  0  0  0
  -27.7690  -37.0550   24.9630 C   0  0  0  0  0  1  0  0  0  0  0  0
  -26.6990  -37.2890   23.9970 N   0  0  0  0  0  0  0  0  0  0  0  0
  -26.3220  -38.2200   24.1560 H   0  0  0  0  0  0  0  0  0  0  0  0
  -26.5090  -31.6110   25.1970 C   0  0  1  0  0  0  0  0  0  0  0  0
  -25.4280  -31.3700   26.2750 C   0  0  0  0  0  1  0  0  0  0  0  0
  -27.0660  -30.2320   24.7720 C   0  0  0  0  0  1  0  0  0  0  0  0
  -27.6850  -32.3710   25.8570 C   0  0  0  0  0  1  0  0  0  0  0  0
  1 51  1  0
  1  4  1  0
  1  3  1  0
  2  1  1  0
  5  7  2  0
  5  9  1  0
  6  8  1  0
  7 10  1  0
  9  4  1  0
  9  6  2  0
 10 19  1  0
 10  8  2  0
 11 19  1  0
 12 17  1  0
 13 14  1  0
 13 12  1  0
 15 14  1  0
 15 23  1  0
 15 16  1  0
 17 11  1  0
 17 16  1  0
 18 11  2  0
 19 50  1  0
 20 21  2  0
 21 40  1  0
 22 21  1  0
 22 25  1  0
 23 24  1  0
 23 20  1  0
 24 22  2  0
 25 26  1  0
 26 27  2  0
 28 31  1  0
 28 27  1  0
 29 28  2  0
 30 29  1  0
 30 25  2  0
 31 32  1  0
 32 37  2  0
 32 33  1  0
 33 34  2  0
 34 35  1  0
 35 39  1  0
 36 35  2  0
 37 36  1  0
 38 37  1  0
 40 41  1  0
 41 43  1  0
 41 44  1  0
 42 40  2  0
 45 20  1  0
 45 46  1  0
 47 45  1  0
 48 50  1  0
 50 49  1  0
 52 55  1  0
 52 51  1  0
 52 53  1  0
 53 54  1  0
 55 56  1  0
 56 58  1  0
 57 68  2  0
 58 63  1  0
 59 67  1  0
 59 69  1  0
 60 66  1  0
 60 62  1  0
 61 67  1  0
 62 61  1  0
 63 62  2  0
 64 65  1  0
 64 58  2  0
 65 60  2  0
 66 59  1  0
 67 57  1  0
 69 71  2  0
 70 69  1  0
 72 70  1  0
 73 82  2  0
 73 78  1  0
 74 70  1  0
 74 78  1  0
 75 74  1  0
 76 77  1  0
 76 75  1  0
 77 73  1  0
 78 79  2  0
 79 80  1  0
 81 80  2  0
 82 81  1  0
 83 57  1  0
 83 84  1  0
 83 93  1  0
 84 87  1  0
 85 89  1  0
 85 84  1  0
 86 85  2  0
 89 88  1  0
 91 89  1  0
 91 92  1  0
 91 90  1  0
 93 96  1  1
 93 94  1  0
 95 93  1  0
M  ISO  4  11 100  19 100  55 101  56 101
M  END
>  <TORSDO>  (52) 
F 23

>  <SCORE>  (52) 
-9.752

>  <name>  (52) 
51

>  <ligand_id>  (52) 
51

>  <original_smiles>  (52) 
[H]OC([H])(C([H])([H])Oc1c([H])c([H])c2c(c1[H])C([H])([H])N(C(=O)C([H])(N([H])C(=O)C([H])(N([H])C([H])([H])[H])C([H])([H])[H])C(C([H])([H])[H])(C([H])([H])[H])C([H])([H])[H])C([H])(C(=O)N([H])C1([H])c3c([H])c([H])c([H])c([H])c3C([H])([H])C([H])([H])C1([H])[H])C2([H])[H])C([H])([H])[N+]([H])([H])C([H])([H])c1c([H])c([H])c(N(C(=O)N2C([H])([H])C([H])([H])C([H])([H])C([H])(n3nc(-c4c([H])c([H])c(Oc5c([H])c([H])c(F)c([H])c5F)c([H])c4[H])c(C(=O)N([H])[H])c3N([H])[H])C2([H])[H])C([H])(C([H])([H])[H])C([H])([H])[H])c([H])c1[H]

>  <smiles>  (52) 
[H]OC([H])(C([H])([H])Oc1c([H])c([H])c2c(c1[H])C([H])([H])N(C(=O)C([H])(N([H])C(=O)C([H])(N([H])C([H])([H])[H])C([H])([H])[H])C(C([H])([H])[H])(C([H])([H])[H])C([H])([H])[H])C([H])(C(=O)N([H])C1([H])c3c([H])c([H])c([H])c([H])c3C([H])([H])C([H])([H])C1([H])[H])C2([H])[H])C([H])([H])[N+]([H])([H])C([H])([H])c1c([H])c([H])c(N(C(=O)N2C([H])([H])C([H])([H])C([H])([H])C([H])(n3nc(-c4c([H])c([H])c(Oc5c([H])c([H])c(F)c([H])c5F)c([H])c4[H])c(C(=O)N([H])[H])c3N([H])[H])C2([H])[H])C([H])(C([H])([H])[H])C([H])([H])[H])c([H])c1[H]

$$$$
52:0:0
     RDKit          3D

 92101  0  0  1  0  0  0  0  0999 V2000
  -30.1480  -20.4450   21.1670 C   0  0  0  0  0  3  0  0  0  0  0  0
  -29.8140  -21.8070   21.4030 C   0  0  0  0  0  3  0  0  0  0  0  0
  -28.7500  -20.5580   19.2400 C   0  0  0  0  0  3  0  0  0  0  0  0
  -29.5940  -19.7610   20.0660 C   0  0  0  0  0  0  0  0  0  0  0  0
  -28.9360  -22.5280   20.5390 C   0  0  0  0  0  0  0  0  0  0  0  0
  -28.4300  -21.8680   19.4650 N   0  0  0  0  0  0  0  0  0  0  0  0
  -30.5790  -14.6900   20.3830 C   0  0  0  0  0  0  0  0  0  0  0  0
  -30.3590  -12.4250   19.4400 C   0  0  0  0  0  2  0  0  0  0  0  0
  -29.4360  -12.5370   18.2070 C   0  0  0  0  0  2  0  0  0  0  0  0
  -27.9520  -12.4110   18.6190 C   0  0  0  0  0  2  0  0  0  0  0  0
  -27.5750  -13.2490   19.8770 C   0  0  0  0  0  3  0  0  0  0  0  0
  -28.6430  -13.1740   20.9890 C   0  0  0  0  0  2  0  0  0  0  0  0
  -29.9430  -13.4790   20.3750 N   0  0  0  0  0  0  0  0  0  0  0  0
  -31.8020  -14.7750   20.2320 O   0  0  0  0  0  0  0  0  0  0  0  0
  -28.9720  -17.6020   18.7700 C   0  0  0  0  0  2  0  0  0  0  0  0
  -29.3410  -16.1210   18.8340 C   0  0  0  0  0  2  0  0  0  0  0  0
  -30.0730  -17.1550   20.8220 C   0  0  0  0  0  2  0  0  0  0  0  0
  -29.9490  -18.2700   19.7150 C   0  0  0  0  0  3  0  0  0  0  0  0
  -29.7920  -15.8090   20.2120 N   0  0  0  0  0  0  0  0  0  0  0  0
  -25.1890  -13.8730   20.5660 C   0  0  0  0  0  0  0  0  0  0  0  0
  -24.1130  -13.1070   20.9140 C   0  0  0  0  0  0  0  0  0  0  0  0
  -24.5720  -11.7550   20.8900 C   0  0  0  0  0  0  0  0  0  0  0  0
  -26.2310  -12.9800   20.3540 N   0  0  0  0  0  0  0  0  0  0  0  0
  -25.8650  -11.7030   20.6030 N   0  0  0  0  0  0  0  0  0  0  0  0
  -23.8460  -10.4990   21.0710 C   0  0  0  0  0  0  0  0  0  0  0  0
  -24.2700   -9.5300   22.0060 C   0  0  0  0  0  3  0  0  0  0  0  0
  -23.5420   -8.3350   22.1750 C   0  0  0  0  0  3  0  0  0  0  0  0
  -22.3750   -8.1040   21.4050 C   0  0  0  0  0  0  0  0  0  0  0  0
  -21.9720   -9.0620   20.4590 C   0  0  0  0  0  3  0  0  0  0  0  0
  -22.7030  -10.2480   20.2880 C   0  0  0  0  0  3  0  0  0  0  0  0
  -21.6150   -6.9620   21.4870 O   0  0  0  0  0  0  0  0  0  0  0  0
  -21.5570   -6.2210   22.6370 C   0  0  0  0  0  0  0  0  0  0  0  0
  -21.1090   -6.7700   23.8590 C   0  0  0  0  0  3  0  0  0  0  0  0
  -20.9960   -5.9510   25.0010 C   0  0  0  0  0  3  0  0  0  0  0  0
  -21.3260   -4.5850   24.9220 C   0  0  0  0  0  0  0  0  0  0  0  0
  -21.7710   -4.0360   23.7060 C   0  0  0  0  0  3  0  0  0  0  0  0
  -21.8830   -4.8510   22.5670 C   0  0  0  0  0  0  0  0  0  0  0  0
  -22.2900   -4.3120   21.3920 F   0  0  0  0  0  0  0  0  0  0  0  0
  -21.2090   -3.7940   26.0150 F   0  0  0  0  0  0  0  0  0  0  0  0
  -22.7130  -13.5960   21.1580 C   0  0  0  0  0  0  0  0  0  0  0  0
  -21.9630  -12.9050   22.0080 N   0  0  0  0  0  0  0  0  0  0  0  0
  -22.2930  -14.6270   20.6350 O   0  0  0  0  0  0  0  0  0  0  0  0
  -22.3170  -12.0800   22.4690 H   0  0  0  0  0  0  0  0  0  0  0  0
  -21.0220  -13.2110   22.2090 H   0  0  0  0  0  0  0  0  0  0  0  0
  -25.3510  -15.2440   20.3890 N   0  0  0  0  0  0  0  0  0  0  0  0
  -24.5740  -15.8870   20.5090 H   0  0  0  0  0  0  0  0  0  0  0  0
  -26.2090  -15.6980   20.1030 H   0  0  0  0  0  0  0  0  0  0  0  0
  -29.0400  -24.5130   22.1760 C   0  0  0  0  0  1  0  0  0  0  0  0
  -26.8670  -23.7920   21.2280 C   0  0  0  0  0  1  0  0  0  0  0  0
  -28.3590  -23.9780   20.8990 C   0  0  2  0  0  0  0  0  0  0  0  0
  -28.4780  -25.1460   19.8080 C   0  0  0  0  0  2  0  0  0  0  0  0
  -28.3770  -26.5690   20.2460 O   0  0  0  0  0  0  0  0  0  0  0  0
  -24.5870  -31.9340   23.2610 C   0  0  0  0  0  0  0  0  0  0  0  0
  -27.2130  -27.3520   20.2150 C   0  0  0  0  0  0  0  0  0  0  0  0
  -23.3890  -30.5300   21.6240 C   0  0  0  0  0  3  0  0  0  0  0  0
  -24.8370  -28.9590   20.2140 C   0  0  0  0  0  0  0  0  0  0  0  0
  -25.9280  -30.8380   21.4470 C   0  0  0  0  0  2  0  0  0  0  0  0
  -26.0060  -29.4540   20.8080 C   0  0  0  0  0  0  0  0  0  0  0  0
  -27.1880  -28.6620   20.7920 C   0  0  0  0  0  3  0  0  0  0  0  0
  -26.0110  -26.8930   19.6270 C   0  0  0  0  0  3  0  0  0  0  0  0
  -24.8450  -27.6860   19.6190 C   0  0  0  0  0  3  0  0  0  0  0  0
  -23.6060  -29.8420   20.2500 C   0  0  0  0  0  2  0  0  0  0  0  0
  -24.6560  -31.1200   22.1680 N   0  0  0  0  0  0  0  0  0  0  0  0
  -23.5020  -32.2170   23.7880 O   0  0  0  0  0  0  0  0  0  0  0  0
  -22.7190  -29.5230   22.5870 C   0  0  0  0  0  0  0  0  0  0  0  0
  -21.3930  -29.3490   22.4520 N   0  0  0  0  0  0  0  0  0  0  0  0
  -23.3930  -28.9000   23.4160 O   0  0  0  0  0  0  0  0  0  0  0  0
  -20.9110  -29.9020   21.7540 H   0  0  0  0  0  0  0  0  0  0  0  0
  -18.0060  -28.1810   22.9520 C   0  0  0  0  0  0  0  0  0  0  0  0
  -20.5660  -28.4190   23.2210 C   0  0  0  0  0  3  0  0  0  0  0  0
  -20.6540  -26.9890   22.6410 C   0  0  0  0  0  2  0  0  0  0  0  0
  -19.5490  -26.6770   21.6270 C   0  0  0  0  0  2  0  0  0  0  0  0
  -18.1700  -26.8330   22.2730 C   0  0  0  0  0  2  0  0  0  0  0  0
  -19.1300  -28.9350   23.3820 C   0  0  0  0  0  0  0  0  0  0  0  0
  -18.9220  -30.1980   23.9780 C   0  0  0  0  0  3  0  0  0  0  0  0
  -17.6230  -30.7080   24.1470 C   0  0  0  0  0  3  0  0  0  0  0  0
  -16.5120  -29.9560   23.7310 C   0  0  0  0  0  3  0  0  0  0  0  0
  -16.7050  -28.6950   23.1400 C   0  0  0  0  0  3  0  0  0  0  0  0
  -25.8680  -32.5660   23.8910 C   0  0  0  0  0  3  0  0  0  0  0  0
  -25.5630  -33.9690   24.1980 N   0  0  0  0  0  0  0  0  0  0  0  0
  -25.9180  -35.0140   23.4340 C   0  0  0  0  0  0  0  0  0  0  0  0
  -26.6050  -34.8930   22.4170 O   0  0  0  0  0  0  0  0  0  0  0  0
  -24.9470  -34.1360   24.9810 H   0  0  0  0  0  0  0  0  0  0  0  0
  -24.2140  -36.8230   23.0270 C   0  0  0  0  0  1  0  0  0  0  0  0
  -25.4340  -36.4120   23.8690 C   0  0  0  0  0  3  0  0  0  0  0  0
  -27.5580  -37.2830   24.7460 C   0  0  0  0  0  1  0  0  0  0  0  0
  -26.4820  -37.4540   23.7730 N   0  0  0  0  0  0  0  0  0  0  0  0
  -26.0820  -38.3800   23.8980 H   0  0  0  0  0  0  0  0  0  0  0  0
  -26.3590  -31.8130   25.1870 C   0  0  1  0  0  0  0  0  0  0  0  0
  -25.2490  -31.6010   26.2450 C   0  0  0  0  0  1  0  0  0  0  0  0
  -26.9370  -30.4250   24.8250 C   0  0  0  0  0  1  0  0  0  0  0  0
  -27.5040  -32.6140   25.8540 C   0  0  0  0  0  1  0  0  0  0  0  0
  1  2  1  0
  3  6  2  0
  3  4  1  0
  4  1  2  0
  5 50  1  0
  5  2  2  0
  6  5  1  0
  8 13  1  0
  9 10  1  0
  9  8  1  0
 11 10  1  0
 11 23  1  0
 11 12  1  0
 13  7  1  0
 13 12  1  0
 14  7  2  0
 15 16  1  0
 15 18  1  0
 16 19  1  0
 18  4  1  0
 18 17  1  0
 19  7  1  0
 19 17  1  0
 20 21  2  0
 21 40  1  0
 22 21  1  0
 22 25  1  0
 23 20  1  0
 23 24  1  0
 24 22  2  0
 25 26  1  0
 26 27  2  0
 28 31  1  0
 28 27  1  0
 29 28  2  0
 30 29  1  0
 30 25  2  0
 31 32  1  0
 32 33  1  0
 33 34  2  0
 35 34  1  0
 35 39  1  0
 36 35  2  0
 37 32  2  0
 37 36  1  0
 38 37  1  0
 40 41  1  0
 41 44  1  0
 41 43  1  0
 42 40  2  0
 45 46  1  0
 45 20  1  0
 47 45  1  0
 50 49  1  1
 50 48  1  0
 51 52  1  0
 51 50  1  0
 53 64  2  0
 54 52  1  0
 54 59  1  0
 55 63  1  0
 55 65  1  0
 56 62  1  0
 56 58  1  0
 57 63  1  0
 58 57  1  0
 59 58  2  0
 60 54  2  0
 61 60  1  0
 61 56  2  0
 62 55  1  0
 63 53  1  0
 65 67  2  0
 66 65  1  0
 68 66  1  0
 69 78  2  0
 69 74  1  0
 70 66  1  0
 70 74  1  0
 71 70  1  0
 72 73  1  0
 72 71  1  0
 73 69  1  0
 74 75  2  0
 75 76  1  0
 77 76  2  0
 78 77  1  0
 79 53  1  0
 79 80  1  0
 79 89  1  0
 80 83  1  0
 81 85  1  0
 81 80  1  0
 82 81  2  0
 85 84  1  0
 87 85  1  0
 87 88  1  0
 87 86  1  0
 89 92  1  1
 89 90  1  0
 91 89  1  0
M  ISO  4   7 100  19 100  51 101  52 101
M  END
>  <TORSDO>  (53) 
F 18

>  <SCORE>  (53) 
-14.746

>  <name>  (53) 
52

>  <ligand_id>  (53) 
52

>  <original_smiles>  (53) 
[H]c1nc(C(C([H])([H])[H])(C([H])([H])[H])C([H])([H])Oc2c([H])c([H])c3c(c2[H])C([H])([H])N(C(=O)C([H])(N([H])C(=O)C([H])(N([H])C([H])([H])[H])C([H])([H])[H])C(C([H])([H])[H])(C([H])([H])[H])C([H])([H])[H])C([H])(C(=O)N([H])C2([H])c4c([H])c([H])c([H])c([H])c4C([H])([H])C([H])([H])C2([H])[H])C3([H])[H])c([H])c([H])c1C1([H])C([H])([H])N(C(=O)N2C([H])([H])C([H])([H])C([H])([H])C([H])(n3nc(-c4c([H])c([H])c(Oc5c([H])c([H])c(F)c([H])c5F)c([H])c4[H])c(C(=O)N([H])[H])c3N([H])[H])C2([H])[H])C([H])([H])C1([H])[H]

>  <smiles>  (53) 
[H]c1nc(C(C([H])([H])[H])(C([H])([H])[H])C([H])([H])Oc2c([H])c([H])c3c(c2[H])C([H])([H])N(C(=O)C([H])(N([H])C(=O)C([H])(N([H])C([H])([H])[H])C([H])([H])[H])C(C([H])([H])[H])(C([H])([H])[H])C([H])([H])[H])C([H])(C(=O)N([H])C2([H])c4c([H])c([H])c([H])c([H])c4C([H])([H])C([H])([H])C2([H])[H])C3([H])[H])c([H])c([H])c1C1([H])C([H])([H])N(C(=O)N2C([H])([H])C([H])([H])C([H])([H])C([H])(n3nc(-c4c([H])c([H])c(Oc5c([H])c([H])c(F)c([H])c5F)c([H])c4[H])c(C(=O)N([H])[H])c3N([H])[H])C2([H])[H])C([H])([H])C1([H])[H]

$$$$
53:0:0
     RDKit          3D

 90 98  0  0  1  0  0  0  0  0999 V2000
  -29.8910  -22.2290   21.4550 C   0  0  0  0  0  3  0  0  0  0  0  0
  -29.5750  -23.5770   21.1220 C   0  0  0  0  0  3  0  0  0  0  0  0
  -28.5410  -21.5180   19.6250 C   0  0  0  0  0  3  0  0  0  0  0  0
  -29.4040  -21.1300   20.6880 C   0  0  0  0  0  0  0  0  0  0  0  0
  -28.7430  -23.8620   20.0160 C   0  0  0  0  0  0  0  0  0  0  0  0
  -28.2330  -22.8140   19.3030 N   0  0  0  0  0  0  0  0  0  0  0  0
  -29.8200  -19.7870   21.0200 N   0  0  0  0  0  0  0  0  0  0  0  0
  -30.5400  -19.7180   21.7370 H   0  0  0  0  0  0  0  0  0  0  0  0
  -29.3790  -18.4670   20.4570 C   0  0  0  0  0  2  0  0  0  0  0  0
  -30.2740  -17.2240   20.9320 C   0  0  0  0  0  2  0  0  0  0  0  0
  -30.5710  -14.6960   20.4030 C   0  0  0  0  0  0  0  0  0  0  0  0
  -30.3460  -12.4520   19.3440 C   0  0  0  0  0  2  0  0  0  0  0  0
  -29.3940  -12.5420   18.1310 C   0  0  0  0  0  2  0  0  0  0  0  0
  -27.9290  -12.3700   18.5790 C   0  0  0  0  0  2  0  0  0  0  0  0
  -27.5690  -13.2570   19.7980 C   0  0  0  0  0  3  0  0  0  0  0  0
  -28.6330  -13.1490   20.9110 C   0  0  0  0  0  2  0  0  0  0  0  0
  -29.9290  -13.4890   20.3100 N   0  0  0  0  0  0  0  0  0  0  0  0
  -31.7530  -14.8110   20.0680 O   0  0  0  0  0  0  0  0  0  0  0  0
  -29.8100  -15.8060   20.6970 N   0  0  0  0  0  0  0  0  0  0  0  0
  -28.8290  -15.6270   20.8580 H   0  0  0  0  0  0  0  0  0  0  0  0
  -25.1800  -13.8520   20.5270 C   0  0  0  0  0  0  0  0  0  0  0  0
  -24.1180  -13.0770   20.9020 C   0  0  0  0  0  0  0  0  0  0  0  0
  -24.5840  -11.7270   20.8760 C   0  0  0  0  0  0  0  0  0  0  0  0
  -26.2260  -12.9740   20.2930 N   0  0  0  0  0  0  0  0  0  0  0  0
  -25.8740  -11.6910   20.5650 N   0  0  0  0  0  0  0  0  0  0  0  0
  -23.8650  -10.4620   21.0690 C   0  0  0  0  0  0  0  0  0  0  0  0
  -24.3110   -9.4890   21.9890 C   0  0  0  0  0  3  0  0  0  0  0  0
  -23.5900   -8.2890   22.1700 C   0  0  0  0  0  3  0  0  0  0  0  0
  -22.4070   -8.0530   21.4310 C   0  0  0  0  0  0  0  0  0  0  0  0
  -21.9770   -9.0160   20.5000 C   0  0  0  0  0  3  0  0  0  0  0  0
  -22.7010  -10.2070   20.3170 C   0  0  0  0  0  3  0  0  0  0  0  0
  -21.6550   -6.9080   21.5240 O   0  0  0  0  0  0  0  0  0  0  0  0
  -21.6370   -6.1500   22.6670 C   0  0  0  0  0  0  0  0  0  0  0  0
  -21.2530   -6.6900   23.9140 C   0  0  0  0  0  3  0  0  0  0  0  0
  -21.1810   -5.8590   25.0480 C   0  0  0  0  0  3  0  0  0  0  0  0
  -21.4830   -4.4890   24.9410 C   0  0  0  0  0  0  0  0  0  0  0  0
  -21.8610   -3.9490   23.7000 C   0  0  0  0  0  3  0  0  0  0  0  0
  -21.9340   -4.7760   22.5650 C   0  0  0  0  0  0  0  0  0  0  0  0
  -22.2780   -4.2450   21.3670 F   0  0  0  0  0  0  0  0  0  0  0  0
  -21.4070   -3.6890   26.0300 F   0  0  0  0  0  0  0  0  0  0  0  0
  -22.7200  -13.5480   21.1750 C   0  0  0  0  0  0  0  0  0  0  0  0
  -21.9970  -12.8510   22.0450 N   0  0  0  0  0  0  0  0  0  0  0  0
  -22.2780  -14.5720   20.6550 O   0  0  0  0  0  0  0  0  0  0  0  0
  -22.3670  -12.0200   22.4830 H   0  0  0  0  0  0  0  0  0  0  0  0
  -21.0620  -13.1520   22.2780 H   0  0  0  0  0  0  0  0  0  0  0  0
  -25.3430  -15.2210   20.3430 N   0  0  0  0  0  0  0  0  0  0  0  0
  -24.5760  -15.8770   20.4480 H   0  0  0  0  0  0  0  0  0  0  0  0
  -26.1800  -15.6530   19.9740 H   0  0  0  0  0  0  0  0  0  0  0  0
  -28.5550  -25.3080   19.4030 C   0  0  0  0  0  2  0  0  0  0  0  0
  -28.3770  -26.5140   20.2410 O   0  0  0  0  0  0  0  0  0  0  0  0
  -24.6200  -31.8820   23.2360 C   0  0  0  0  0  0  0  0  0  0  0  0
  -27.2380  -27.3320   20.1620 C   0  0  0  0  0  0  0  0  0  0  0  0
  -23.4120  -30.4850   21.5960 C   0  0  0  0  0  3  0  0  0  0  0  0
  -24.8620  -28.9370   20.1660 C   0  0  0  0  0  0  0  0  0  0  0  0
  -25.9520  -30.8060   21.4080 C   0  0  0  0  0  2  0  0  0  0  0  0
  -26.0310  -29.4290   20.7570 C   0  0  0  0  0  0  0  0  0  0  0  0
  -27.2160  -28.6360   20.7520 C   0  0  0  0  0  3  0  0  0  0  0  0
  -26.0350  -26.8840   19.5670 C   0  0  0  0  0  3  0  0  0  0  0  0
  -24.8640  -27.6670   19.5700 C   0  0  0  0  0  3  0  0  0  0  0  0
  -23.6250  -29.8120   20.2160 C   0  0  0  0  0  2  0  0  0  0  0  0
  -24.6800  -31.0740   22.1350 N   0  0  0  0  0  0  0  0  0  0  0  0
  -23.5380  -32.1600   23.7730 O   0  0  0  0  0  0  0  0  0  0  0  0
  -22.7540  -29.4660   22.5540 C   0  0  0  0  0  0  0  0  0  0  0  0
  -21.4270  -29.2860   22.4300 N   0  0  0  0  0  0  0  0  0  0  0  0
  -23.4340  -28.8400   23.3710 O   0  0  0  0  0  0  0  0  0  0  0  0
  -20.9360  -29.8450   21.7460 H   0  0  0  0  0  0  0  0  0  0  0  0
  -18.0560  -28.0730   22.9290 C   0  0  0  0  0  0  0  0  0  0  0  0
  -20.6130  -28.3480   23.2040 C   0  0  0  0  0  3  0  0  0  0  0  0
  -20.7230  -26.9140   22.6370 C   0  0  0  0  0  2  0  0  0  0  0  0
  -19.6260  -26.5800   21.6210 C   0  0  0  0  0  2  0  0  0  0  0  0
  -18.2390  -26.7220   22.2580 C   0  0  0  0  0  2  0  0  0  0  0  0
  -19.1700  -28.8430   23.3580 C   0  0  0  0  0  0  0  0  0  0  0  0
  -18.9430  -30.1070   23.9430 C   0  0  0  0  0  3  0  0  0  0  0  0
  -17.6360  -30.6020   24.1070 C   0  0  0  0  0  3  0  0  0  0  0  0
  -16.5370  -29.8300   23.6940 C   0  0  0  0  0  3  0  0  0  0  0  0
  -16.7480  -28.5680   23.1100 C   0  0  0  0  0  3  0  0  0  0  0  0
  -25.9050  -32.5150   23.8560 C   0  0  0  0  0  3  0  0  0  0  0  0
  -26.4260  -31.7470   25.1310 C   0  0  1  0  0  0  0  0  0  0  0  0
  -25.3390  -31.5080   26.2050 C   0  0  0  0  0  1  0  0  0  0  0  0
  -27.0140  -30.3690   24.7410 C   0  0  0  0  0  1  0  0  0  0  0  0
  -27.5800  -32.5460   25.7870 C   0  0  0  0  0  1  0  0  0  0  0  0
  -25.5920  -33.9130   24.1880 N   0  0  0  0  0  0  0  0  0  0  0  0
  -25.9150  -34.9670   23.4260 C   0  0  0  0  0  0  0  0  0  0  0  0
  -26.5790  -34.8660   22.3900 O   0  0  0  0  0  0  0  0  0  0  0  0
  -25.0090  -34.0660   24.9980 H   0  0  0  0  0  0  0  0  0  0  0  0
  -24.1800  -36.7560   23.0860 C   0  0  0  0  0  1  0  0  0  0  0  0
  -25.4290  -36.3550   23.8880 C   0  0  0  0  0  3  0  0  0  0  0  0
  -27.5750  -37.2360   24.6930 C   0  0  0  0  0  1  0  0  0  0  0  0
  -26.4550  -37.4140   23.7720 N   0  0  0  0  0  0  0  0  0  0  0  0
  -26.0450  -38.3280   23.9490 H   0  0  0  0  0  0  0  0  0  0  0  0
  2  1  1  0
  3  4  1  0
  4  7  1  0
  4  1  2  0
  5  2  2  0
  6  3  2  0
  6  5  1  0
  7  8  1  0
  9 10  1  0
  9  7  1  0
 11 19  1  0
 12 17  1  0
 13 14  1  0
 13 12  1  0
 15 14  1  0
 15 24  1  0
 15 16  1  0
 17 11  1  0
 17 16  1  0
 18 11  2  0
 19 20  1  0
 19 10  1  0
 21 22  2  0
 22 41  1  0
 23 22  1  0
 23 26  1  0
 24 21  1  0
 24 25  1  0
 25 23  2  0
 26 27  1  0
 27 28  2  0
 29 32  1  0
 29 28  1  0
 30 29  2  0
 31 30  1  0
 31 26  2  0
 32 33  1  0
 33 34  1  0
 34 35  2  0
 36 35  1  0
 36 40  1  0
 37 36  2  0
 38 33  2  0
 38 37  1  0
 39 38  1  0
 41 42  1  0
 42 45  1  0
 42 44  1  0
 43 41  2  0
 46 47  1  0
 46 21  1  0
 48 46  1  0
 49  5  1  0
 49 50  1  0
 51 62  2  0
 52 50  1  0
 52 57  1  0
 53 61  1  0
 53 63  1  0
 54 60  1  0
 54 56  1  0
 55 61  1  0
 56 55  1  0
 57 56  2  0
 58 59  1  0
 58 52  2  0
 59 54  2  0
 60 53  1  0
 61 51  1  0
 63 65  2  0
 64 63  1  0
 66 64  1  0
 67 76  2  0
 67 72  1  0
 68 64  1  0
 68 72  1  0
 69 68  1  0
 70 71  1  0
 70 69  1  0
 71 67  1  0
 72 73  2  0
 73 74  1  0
 75 74  2  0
 76 75  1  0
 77 51  1  0
 77 82  1  0
 77 78  1  0
 78 81  1  1
 78 79  1  0
 80 78  1  0
 82 85  1  0
 83 87  1  0
 83 82  1  0
 84 83  2  0
 87 86  1  0
 89 87  1  0
 89 90  1  0
 89 88  1  0
M  ISO  4  11 100  19 100  49 101  50 101
M  END
>  <TORSDO>  (54) 
F 20

>  <SCORE>  (54) 
-13.898

>  <name>  (54) 
53

>  <ligand_id>  (54) 
53

>  <original_smiles>  (54) 
[H]c1nc(C([H])([H])Oc2c([H])c([H])c3c(c2[H])C([H])([H])N(C(=O)C([H])(N([H])C(=O)C([H])(N([H])C([H])([H])[H])C([H])([H])[H])C(C([H])([H])[H])(C([H])([H])[H])C([H])([H])[H])C([H])(C(=O)N([H])C2([H])c4c([H])c([H])c([H])c([H])c4C([H])([H])C([H])([H])C2([H])[H])C3([H])[H])c([H])c([H])c1N([H])C([H])([H])C([H])([H])N([H])C(=O)N1C([H])([H])C([H])([H])C([H])([H])C([H])(n2nc(-c3c([H])c([H])c(Oc4c([H])c([H])c(F)c([H])c4F)c([H])c3[H])c(C(=O)N([H])[H])c2N([H])[H])C1([H])[H]

>  <smiles>  (54) 
[H]c1nc(C([H])([H])Oc2c([H])c([H])c3c(c2[H])C([H])([H])N(C(=O)C([H])(N([H])C(=O)C([H])(N([H])C([H])([H])[H])C([H])([H])[H])C(C([H])([H])[H])(C([H])([H])[H])C([H])([H])[H])C([H])(C(=O)N([H])C2([H])c4c([H])c([H])c([H])c([H])c4C([H])([H])C([H])([H])C2([H])[H])C3([H])[H])c([H])c([H])c1N([H])C([H])([H])C([H])([H])N([H])C(=O)N1C([H])([H])C([H])([H])C([H])([H])C([H])(n2nc(-c3c([H])c([H])c(Oc4c([H])c([H])c(F)c([H])c4F)c([H])c3[H])c(C(=O)N([H])[H])c2N([H])[H])C1([H])[H]

$$$$
54:0:0
     RDKit          3D

 97 99  0  0  1  0  0  0  0  0999 V2000
  -28.5200  -16.5190   21.2990 N   0  0  0  0  0  4  0  0  0  0  0  0
  -29.5220  -16.5210   21.2260 H   0  0  0  0  0  0  0  0  0  0  0  0
  -28.3270  -16.7400   22.2660 H   0  0  0  0  0  0  0  0  0  0  0  0
  -28.0930  -13.1920   22.3430 C   0  0  0  0  0 15  0  0  0  0  0  0
  -27.7740  -11.2030   21.3990 C   0  0  0  0  0 15  0  0  0  0  0  0
  -26.8880  -12.7800   18.4470 C   0  0  0  0  0 15  0  0  0  0  0  0
  -27.7390  -14.7160   19.1660 C   0  0  0  0  0  2  0  0  0  0  0  0
  -28.0130  -14.9650   21.0870 C   0  0  0  0  0  2  0  0  0  0  0  0
  -26.9520  -11.1730   19.6110 N   0  0  0  0  0  2  0  0  0  0  0  0
  -25.9940  -10.9150   19.7770 H   0  0  0  0  0  0  0  0  0  0  0  0
  -27.3500  -10.4090   19.0890 H   0  0  0  0  0  0  0  0  0  0  0  0
  -30.6140  -14.6980   19.3940 C   0  0  0  0  0  0  0  0  0  0  0  0
  -31.4130  -12.4290   18.9080 C   0  0  0  0  0  2  0  0  0  0  0  0
  -30.3840  -12.0320   17.8780 C   0  0  0  0  0  2  0  0  0  0  0  0
  -29.2070  -11.6330   18.7420 C   0  0  0  0  0  2  0  0  0  0  0  0
  -28.6390  -12.7420   19.9200 C   0  0  0  0  0  2  0  0  0  0  0  0
  -29.9820  -12.8820   20.7090 C   0  0  0  0  0  2  0  0  0  0  0  0
  -30.7980  -13.4290   19.7690 N   0  0  0  0  0  0  0  0  0  0  0  0
  -31.6880  -15.2870   19.2830 O   0  0  0  0  0  0  0  0  0  0  0  0
  -29.3140  -15.1210   18.8890 N   0  0  0  0  0  0  0  0  0  0  0  0
  -29.3980  -15.9700   18.3510 H   0  0  0  0  0  0  0  0  0  0  0  0
  -25.3510  -13.9580   20.5580 C   0  0  0  0  0  0  0  0  0  0  0  0
  -24.2420  -13.1830   20.8440 C   0  0  0  0  0  0  0  0  0  0  0  0
  -24.6220  -11.8600   20.8740 C   0  0  0  0  0  3  0  0  0  0  0  0
  -26.4860  -13.1070   20.6270 N   0  0  0  0  0  2  0  0  0  0  0  0
  -25.7060  -12.1930   21.3800 N   0  0  0  0  0  2  0  0  0  0  0  0
  -24.0550  -10.4990   21.0260 C   0  0  0  0  0  0  0  0  0  0  0  0
  -24.5360   -9.4990   21.9200 C   0  0  0  0  0  3  0  0  0  0  0  0
  -23.8750   -8.2560   22.0400 C   0  0  0  0  0  3  0  0  0  0  0  0
  -22.7020   -8.0070   21.2840 C   0  0  0  0  0  0  0  0  0  0  0  0
  -22.2590   -8.9810   20.3750 C   0  0  0  0  0  3  0  0  0  0  0  0
  -22.9390  -10.2000   20.2310 C   0  0  0  0  0  3  0  0  0  0  0  0
  -21.9530   -6.8570   21.3510 O   0  0  0  0  0  0  0  0  0  0  0  0
  -21.8910   -6.0910   22.4870 C   0  0  0  0  0  0  0  0  0  0  0  0
  -21.4890   -6.6200   23.7340 C   0  0  0  0  0  3  0  0  0  0  0  0
  -21.3760   -5.7730   24.8570 C   0  0  0  0  0  3  0  0  0  0  0  0
  -21.6520   -4.3980   24.7310 C   0  0  0  0  0  0  0  0  0  0  0  0
  -22.0440   -3.8680   23.4900 C   0  0  0  0  0  3  0  0  0  0  0  0
  -22.1580   -4.7110   22.3710 C   0  0  0  0  0  0  0  0  0  0  0  0
  -22.5100   -4.1940   21.1710 F   0  0  0  0  0  0  0  0  0  0  0  0
  -21.5430   -3.5810   25.8040 F   0  0  0  0  0  0  0  0  0  0  0  0
  -22.8940  -13.6380   21.1850 C   0  0  0  0  0  0  0  0  0  0  0  0
  -22.2440  -12.9070   22.0810 N   0  0  0  0  0  0  0  0  0  0  0  0
  -22.4710  -14.6900   20.7320 O   0  0  0  0  0  0  0  0  0  0  0  0
  -22.6550  -12.0760   22.4720 H   0  0  0  0  0  0  0  0  0  0  0  0
  -21.3190  -13.1870   22.3840 H   0  0  0  0  0  0  0  0  0  0  0  0
  -25.3570  -15.3180   20.2810 N   0  0  0  0  0  0  0  0  0  0  0  0
  -24.4640  -15.8010   20.2520 H   0  0  0  0  0  0  0  0  0  0  0  0
  -26.1030  -15.8720   19.8910 H   0  0  0  0  0  0  0  0  0  0  0  0
  -28.0190  -17.8430   20.4450 C   0  0  0  0  0  2  0  0  0  0  0  0
  -29.6390  -19.7300   21.3970 C   0  0  0  0  0  1  0  0  0  0  0  0
  -28.8230  -19.3860   20.1430 C   0  0  0  0  0  3  0  0  0  0  0  0
  -28.1540  -20.9310   19.5850 C   0  0  0  0  0  2  0  0  0  0  0  0
  -30.1670  -22.4540   18.7690 C   0  0  0  0  0  1  0  0  0  0  0  0
  -28.8270  -22.5740   19.5460 C   0  0  0  0  0  3  0  0  0  0  0  0
  -28.0600  -24.1450   19.1900 C   0  0  0  0  0  2  0  0  0  0  0  0
  -28.4960  -25.7060   19.3790 O   0  0  0  0  0  0  0  0  0  0  0  0
  -25.0760  -31.1740   23.1210 C   0  0  0  0  0  0  0  0  0  0  0  0
  -27.5590  -26.8440   19.4010 C   0  0  0  0  0  0  0  0  0  0  0  0
  -23.8780  -30.0360   21.3030 C   0  0  0  0  0  3  0  0  0  0  0  0
  -25.3040  -28.6950   19.6310 C   0  0  0  0  0  0  0  0  0  0  0  0
  -26.4380  -30.2930   21.1620 C   0  0  0  0  0  2  0  0  0  0  0  0
  -26.4950  -29.0070   20.2990 C   0  0  0  0  0  0  0  0  0  0  0  0
  -27.6290  -28.1020   20.1590 C   0  0  0  0  0  3  0  0  0  0  0  0
  -26.3720  -26.7140   18.6510 C   0  0  0  0  0  3  0  0  0  0  0  0
  -25.2660  -27.5810   18.7810 C   0  0  0  0  0  3  0  0  0  0  0  0
  -24.0870  -29.5840   19.8320 C   0  0  0  0  0  2  0  0  0  0  0  0
  -25.1540  -30.5210   21.9170 N   0  0  0  0  0  0  0  0  0  0  0  0
  -23.9870  -31.3670   23.6870 O   0  0  0  0  0  0  0  0  0  0  0  0
  -23.2070  -28.8900   22.1100 C   0  0  0  0  0  0  0  0  0  0  0  0
  -21.8790  -28.7300   21.9690 N   0  0  0  0  0  0  0  0  0  0  0  0
  -23.8850  -28.1540   22.8310 O   0  0  0  0  0  0  0  0  0  0  0  0
  -21.3890  -29.3780   21.3710 H   0  0  0  0  0  0  0  0  0  0  0  0
  -18.5120  -27.4000   22.2770 C   0  0  0  0  0  0  0  0  0  0  0  0
  -21.0660  -27.6770   22.5900 C   0  0  0  0  0  3  0  0  0  0  0  0
  -21.1990  -26.3450   21.8180 C   0  0  0  0  0  2  0  0  0  0  0  0
  -20.1060  -26.1480   20.7620 C   0  0  0  0  0  2  0  0  0  0  0  0
  -18.7200  -26.1680   21.4120 C   0  0  0  0  0  2  0  0  0  0  0  0
  -19.6140  -28.1190   22.8150 C   0  0  0  0  0  0  0  0  0  0  0  0
  -19.3640  -29.2730   23.5890 C   0  0  0  0  0  3  0  0  0  0  0  0
  -18.0490  -29.7140   23.8220 C   0  0  0  0  0  3  0  0  0  0  0  0
  -16.9620  -28.9950   23.2960 C   0  0  0  0  0  3  0  0  0  0  0  0
  -17.1950  -27.8370   22.5310 C   0  0  0  0  0  3  0  0  0  0  0  0
  -26.3480  -31.7270   23.8370 C   0  0  0  0  0  3  0  0  0  0  0  0
  -26.0020  -33.0370   24.4170 N   0  0  0  0  0  0  0  0  0  0  0  0
  -26.3060  -34.2230   23.8710 C   0  0  0  0  0  0  0  0  0  0  0  0
  -26.9710  -34.3270   22.8360 O   0  0  0  0  0  0  0  0  0  0  0  0
  -25.4080  -33.0250   25.2340 H   0  0  0  0  0  0  0  0  0  0  0  0
  -24.5430  -36.0230   23.8750 C   0  0  0  0  0  1  0  0  0  0  0  0
  -25.8000  -35.4940   24.5850 C   0  0  0  0  0  3  0  0  0  0  0  0
  -27.9280  -36.2530   25.5520 C   0  0  0  0  0  1  0  0  0  0  0  0
  -26.8130  -36.5720   24.6630 N   0  0  0  0  0  0  0  0  0  0  0  0
  -26.3910  -37.4400   24.9810 H   0  0  0  0  0  0  0  0  0  0  0  0
  -26.8890  -30.7620   24.9640 C   0  0  1  0  0  0  0  0  0  0  0  0
  -25.8140  -30.3300   25.9920 C   0  0  0  0  0  1  0  0  0  0  0  0
  -27.4880  -29.4780   24.3460 C   0  0  0  0  0  1  0  0  0  0  0  0
  -28.0370  -31.4540   25.7360 C   0  0  0  0  0  1  0  0  0  0  0  0
  1  3  1  0
  2  1  1  0
  7  8  1  0
  8  1  1  0
  9 10  1  0
 11  9  1  0
 12 18  1  0
 13 18  1  0
 14 15  1  0
 14 13  1  0
 15 16  1  0
 16 17  1  0
 18 17  1  0
 19 12  2  0
 20  7  1  0
 20 12  1  0
 21 20  1  0
 22 25  1  0
 22 23  2  0
 23 24  1  0
 23 42  1  0
 24 27  1  0
 24 26  1  0
 25 26  1  0
 27 28  1  0
 28 29  2  0
 30 33  1  0
 30 29  1  0
 31 30  2  0
 32 31  1  0
 32 27  2  0
 33 34  1  0
 34 35  1  0
 35 36  2  0
 37 36  1  0
 37 41  1  0
 38 37  2  0
 39 34  2  0
 39 38  1  0
 40 39  1  0
 42 43  1  0
 43 46  1  0
 43 45  1  0
 44 42  2  0
 47 22  1  0
 48 47  1  0
 49 47  1  0
 50  1  1  0
 52 50  1  0
 52 51  1  0
 53 52  1  0
 55 54  1  0
 55 53  1  0
 56 57  1  0
 56 55  1  0
 57 59  1  0
 58 69  2  0
 59 64  1  0
 60 68  1  0
 60 70  1  0
 61 67  1  0
 61 63  1  0
 62 68  1  0
 63 62  1  0
 64 63  2  0
 65 66  1  0
 65 59  2  0
 66 61  2  0
 67 60  1  0
 68 58  1  0
 70 72  2  0
 71 70  1  0
 73 71  1  0
 74 83  2  0
 74 79  1  0
 75 71  1  0
 75 79  1  0
 76 75  1  0
 77 78  1  0
 77 76  1  0
 78 74  1  0
 79 80  2  0
 80 81  1  0
 82 81  2  0
 83 82  1  0
 84 58  1  0
 84 85  1  0
 84 94  1  0
 85 88  1  0
 86 85  1  0
 86 90  1  0
 87 86  2  0
 90 89  1  0
 90 92  1  0
 92 93  1  0
 92 91  1  0
 94 97  1  1
 94 95  1  0
 96 94  1  0
M  ISO  4  12 100  20 100  56 101  57 101
M  END
>  <TORSDO>  (55) 
F 22

>  <SCORE>  (55) 
-12.326

>  <name>  (55) 
54

>  <ligand_id>  (55) 
54

>  <original_smiles>  (55) 
[H]c1c([H])c([H])c2c(c1[H])C([H])([H])C([H])([H])C([H])([H])C2([H])N([H])C(=O)C1([H])N(C(=O)C([H])(N([H])C(=O)C([H])(N([H])C([H])([H])[H])C([H])([H])[H])C(C([H])([H])[H])(C([H])([H])[H])C([H])([H])[H])C([H])([H])c2c([H])c(OC([H])([H])C([H])(C([H])([H])[H])C([H])([H])C([H])(C([H])([H])[H])C([H])([H])[N+]([H])([H])C3([H])C([H])([H])C([H])([H])[N+]([H])([H])C([H])([H])C3([H])N([H])C(=O)N3C([H])([H])C([H])([H])C([H])([H])C([H])(n4nc(-c5c([H])c([H])c(Oc6c([H])c([H])c(F)c([H])c6F)c([H])c5[H])c(C(=O)N([H])[H])c4N([H])[H])C3([H])[H])c([H])c([H])c2C1([H])[H]

>  <smiles>  (55) 
[H]c1c([H])c([H])c2c(c1[H])C([H])([H])C([H])([H])C([H])([H])C2([H])N([H])C(=O)C1([H])N(C(=O)C([H])(N([H])C(=O)C([H])(N([H])C([H])([H])[H])C([H])([H])[H])C(C([H])([H])[H])(C([H])([H])[H])C([H])([H])[H])C([H])([H])c2c([H])c(OC([H])([H])C([H])(C([H])([H])[H])C([H])([H])C([H])(C([H])([H])[H])C([H])([H])[N+]([H])([H])C3([H])C([H])([H])C([H])([H])[N+]([H])([H])C([H])([H])C3([H])N([H])C(=O)N3C([H])([H])C([H])([H])C([H])([H])C([H])(n4nc(-c5c([H])c([H])c(Oc6c([H])c([H])c(F)c([H])c6F)c([H])c5[H])c(C(=O)N([H])[H])c4N([H])[H])C3([H])[H])c([H])c([H])c2C1([H])[H]

$$$$
55:0:0
     RDKit          3D

 99108  0  0  1  0  0  0  0  0999 V2000
  -29.2000  -23.9950   20.9220 C   0  0  0  0  0  3  0  0  0  0  0  0
  -28.4100  -22.0440   19.1740 C   0  0  0  0  0  3  0  0  0  0  0  0
  -29.3210  -22.6400   21.3310 C   0  0  0  0  0  0  0  0  0  0  0  0
  -28.9150  -21.6190   20.4230 C   0  0  0  0  0  0  0  0  0  0  0  0
  -28.6780  -24.3080   19.6510 C   0  0  0  0  0  0  0  0  0  0  0  0
  -28.2960  -23.3360   18.7960 N   0  0  0  0  0  0  0  0  0  0  0  0
  -31.3700  -22.5710   22.8420 C   0  0  0  0  0  1  0  0  0  0  0  0
  -29.8500  -22.3450   22.7350 C   0  0  0  0  0  3  0  0  0  0  0  0
  -29.1050  -23.1460   23.7150 N   0  0  0  0  0  4  0  0  0  0  0  0
  -29.2320  -24.1240   23.5360 H   0  0  0  0  0  0  0  0  0  0  0  0
  -29.4150  -22.9410   24.6480 H   0  0  0  0  0  0  0  0  0  0  0  0
  -28.1250  -22.9420   23.6520 H   0  0  0  0  0  0  0  0  0  0  0  0
  -28.8550  -20.1040   20.7530 C   0  0  0  0  0  2  0  0  0  0  0  0
  -31.8540  -18.1050   19.5710 C   0  0  0  0  0  2  0  0  0  0  0  0
  -30.9040  -19.3160   19.4870 C   0  0  0  0  0  2  0  0  0  0  0  0
  -29.9320  -17.8620   21.0750 C   0  0  0  0  0  2  0  0  0  0  0  0
  -31.1330  -17.0780   20.4730 C   0  0  0  0  0  3  0  0  0  0  0  0
  -30.1270  -19.3040   20.7450 N   0  0  2  0  0  4  0  0  0  0  0  0
  -30.7400  -19.6710   21.4580 H   0  0  0  0  0  0  0  0  0  0  0  0
  -31.5170  -14.6410   20.0120 C   0  0  0  0  0  0  0  0  0  0  0  0
  -31.2220  -12.2840   19.3470 C   0  0  0  0  0  2  0  0  0  0  0  0
  -30.3060  -12.2140   18.1070 C   0  0  0  0  0  2  0  0  0  0  0  0
  -28.8190  -12.2000   18.5200 C   0  0  0  0  0  2  0  0  0  0  0  0
  -28.4590  -13.2630   19.5930 C   0  0  0  0  0  3  0  0  0  0  0  0
  -29.5030  -13.3050   20.7310 C   0  0  0  0  0  2  0  0  0  0  0  0
  -30.8290  -13.4700   20.1210 N   0  0  0  0  0  0  0  0  0  0  0  0
  -32.7320  -14.6760   19.7990 O   0  0  0  0  0  0  0  0  0  0  0  0
  -30.1660  -15.9790   18.5100 C   0  0  0  0  0  1  0  0  0  0  0  0
  -30.7660  -15.7730   19.8460 N   0  0  0  0  0  0  0  0  0  0  0  0
  -26.1360  -14.0700   20.3340 C   0  0  0  0  0  0  0  0  0  0  0  0
  -25.0100  -13.3870   20.7030 C   0  0  0  0  0  0  0  0  0  0  0  0
  -25.3610  -12.0020   20.6700 C   0  0  0  0  0  0  0  0  0  0  0  0
  -27.1010  -13.1030   20.0940 N   0  0  0  0  0  0  0  0  0  0  0  0
  -26.6420  -11.8570   20.3600 N   0  0  0  0  0  0  0  0  0  0  0  0
  -24.5390  -10.8020   20.8540 C   0  0  0  0  0  0  0  0  0  0  0  0
  -24.8370   -9.8500   21.8540 C   0  0  0  0  0  3  0  0  0  0  0  0
  -24.0200   -8.7130   22.0240 C   0  0  0  0  0  3  0  0  0  0  0  0
  -22.8910   -8.5200   21.1930 C   0  0  0  0  0  0  0  0  0  0  0  0
  -22.6140   -9.4570   20.1820 C   0  0  0  0  0  3  0  0  0  0  0  0
  -23.4320  -10.5870   20.0100 C   0  0  0  0  0  3  0  0  0  0  0  0
  -22.0550   -7.4330   21.2690 O   0  0  0  0  0  0  0  0  0  0  0  0
  -21.7930   -6.8110   22.4620 C   0  0  0  0  0  0  0  0  0  0  0  0
  -21.2150   -7.5010   23.5510 C   0  0  0  0  0  3  0  0  0  0  0  0
  -20.8990   -6.8070   24.7370 C   0  0  0  0  0  3  0  0  0  0  0  0
  -21.1500   -5.4250   24.8330 C   0  0  0  0  0  0  0  0  0  0  0  0
  -21.7190   -4.7360   23.7480 C   0  0  0  0  0  3  0  0  0  0  0  0
  -22.0380   -5.4260   22.5660 C   0  0  0  0  0  0  0  0  0  0  0  0
  -22.5690   -4.7540   21.5160 F   0  0  0  0  0  0  0  0  0  0  0  0
  -20.8370   -4.7560   25.9680 F   0  0  0  0  0  0  0  0  0  0  0  0
  -23.6570  -13.9750   20.9780 C   0  0  0  0  0  0  0  0  0  0  0  0
  -22.8850  -13.3480   21.8590 N   0  0  0  0  0  0  0  0  0  0  0  0
  -23.2940  -15.0250   20.4470 O   0  0  0  0  0  0  0  0  0  0  0  0
  -23.1890  -12.4970   22.3080 H   0  0  0  0  0  0  0  0  0  0  0  0
  -21.9760  -13.7260   22.0890 H   0  0  0  0  0  0  0  0  0  0  0  0
  -26.4120  -15.4230   20.1570 N   0  0  0  0  0  0  0  0  0  0  0  0
  -25.6980  -16.1360   20.2540 H   0  0  0  0  0  0  0  0  0  0  0  0
  -27.2870  -15.7790   19.7990 H   0  0  0  0  0  0  0  0  0  0  0  0
  -28.6260  -25.7490   19.1070 C   0  0  0  0  0  2  0  0  0  0  0  0
  -28.3870  -26.7960   20.0690 O   0  0  0  0  0  0  0  0  0  0  0  0
  -24.6580  -31.8790   23.3630 C   0  0  0  0  0  0  0  0  0  0  0  0
  -27.2010  -27.5080   20.0770 C   0  0  0  0  0  0  0  0  0  0  0  0
  -23.4100  -30.5620   21.6800 C   0  0  0  0  0  3  0  0  0  0  0  0
  -24.8220  -29.0560   20.1780 C   0  0  0  0  0  0  0  0  0  0  0  0
  -25.9380  -30.8850   21.4660 C   0  0  0  0  0  2  0  0  0  0  0  0
  -25.9930  -29.5360   20.7740 C   0  0  0  0  0  0  0  0  0  0  0  0
  -27.1790  -28.7680   20.7240 C   0  0  0  0  0  3  0  0  0  0  0  0
  -26.0050  -27.0380   19.4850 C   0  0  0  0  0  3  0  0  0  0  0  0
  -24.8250  -27.8060   19.5310 C   0  0  0  0  0  3  0  0  0  0  0  0
  -23.5910  -29.9300   20.2730 C   0  0  0  0  0  2  0  0  0  0  0  0
  -24.6880  -31.1220   22.2280 N   0  0  0  0  0  0  0  0  0  0  0  0
  -23.5880  -32.1470   23.9270 O   0  0  0  0  0  0  0  0  0  0  0  0
  -22.7520  -29.5160   22.6080 C   0  0  0  0  0  0  0  0  0  0  0  0
  -21.4300  -29.3310   22.4610 N   0  0  0  0  0  0  0  0  0  0  0  0
  -23.4290  -28.8750   23.4160 O   0  0  0  0  0  0  0  0  0  0  0  0
  -20.9450  -29.9040   21.7850 H   0  0  0  0  0  0  0  0  0  0  0  0
  -18.0670  -28.0670   22.8400 C   0  0  0  0  0  0  0  0  0  0  0  0
  -20.6090  -28.3690   23.1950 C   0  0  0  0  0  3  0  0  0  0  0  0
  -20.7560  -26.9460   22.6080 C   0  0  0  0  0  2  0  0  0  0  0  0
  -19.6940  -26.6140   21.5560 C   0  0  0  0  0  2  0  0  0  0  0  0
  -18.2890  -26.7260   22.1580 C   0  0  0  0  0  2  0  0  0  0  0  0
  -19.1560  -28.8450   23.3130 C   0  0  0  0  0  0  0  0  0  0  0  0
  -18.8950  -30.0990   23.9060 C   0  0  0  0  0  3  0  0  0  0  0  0
  -17.5780  -30.5750   24.0340 C   0  0  0  0  0  3  0  0  0  0  0  0
  -16.5020  -29.7930   23.5790 C   0  0  0  0  0  3  0  0  0  0  0  0
  -16.7470  -28.5400   22.9880 C   0  0  0  0  0  3  0  0  0  0  0  0
  -25.9620  -32.4640   23.9920 C   0  0  0  0  0  3  0  0  0  0  0  0
  -25.6880  -33.8600   24.3580 N   0  0  0  0  0  0  0  0  0  0  0  0
  -26.0430  -34.9220   23.6230 C   0  0  0  0  0  0  0  0  0  0  0  0
  -26.7050  -34.8280   22.5860 O   0  0  0  0  0  0  0  0  0  0  0  0
  -25.1010  -34.0090   25.1660 H   0  0  0  0  0  0  0  0  0  0  0  0
  -24.3550  -36.7620   23.3210 C   0  0  0  0  0  1  0  0  0  0  0  0
  -25.5900  -36.3110   24.1170 C   0  0  0  0  0  3  0  0  0  0  0  0
  -27.7460  -37.1270   24.9620 C   0  0  0  0  0  1  0  0  0  0  0  0
  -26.6460  -37.3420   24.0240 N   0  0  0  0  0  0  0  0  0  0  0  0
  -26.2610  -38.2670   24.1920 H   0  0  0  0  0  0  0  0  0  0  0  0
  -26.4690  -31.6480   25.2440 C   0  0  1  0  0  0  0  0  0  0  0  0
  -25.3730  -31.3910   26.3050 C   0  0  0  0  0  1  0  0  0  0  0  0
  -27.0340  -30.2770   24.8080 C   0  0  0  0  0  1  0  0  0  0  0  0
  -27.6290  -32.4080   25.9290 C   0  0  0  0  0  1  0  0  0  0  0  0
  1  3  1  0
  2  4  1  0
  3  8  1  0
  4 13  1  0
  4  3  2  0
  5  1  2  0
  6  2  2  0
  6  5  1  0
  8  7  1  0
  8  9  1  0
  9 11  1  0
 10  9  1  0
 12  9  1  0
 14 17  1  0
 15 14  1  0
 15 18  1  0
 17 29  1  0
 17 16  1  0
 18 13  1  0
 18 16  1  0
 18 19  1  1
 20 26  1  0
 21 26  1  0
 22 23  1  0
 22 21  1  0
 24 23  1  0
 24 33  1  0
 24 25  1  0
 26 25  1  0
 27 20  2  0
 28 29  1  0
 29 20  1  0
 30 31  2  0
 31 50  1  0
 32 31  1  0
 32 35  1  0
 33 30  1  0
 33 34  1  0
 34 32  2  0
 35 36  1  0
 36 37  2  0
 38 41  1  0
 38 37  1  0
 39 38  2  0
 40 39  1  0
 40 35  2  0
 41 42  1  0
 42 47  2  0
 42 43  1  0
 43 44  2  0
 44 45  1  0
 45 49  1  0
 46 45  2  0
 47 46  1  0
 48 47  1  0
 50 51  1  0
 51 54  1  0
 51 53  1  0
 52 50  2  0
 55 56  1  0
 55 30  1  0
 57 55  1  0
 58  5  1  0
 58 59  1  0
 59 61  1  0
 60 71  2  0
 61 66  1  0
 62 70  1  0
 62 72  1  0
 63 69  1  0
 63 65  1  0
 64 70  1  0
 65 64  1  0
 66 65  2  0
 67 68  1  0
 67 61  2  0
 68 63  2  0
 69 62  1  0
 70 60  1  0
 72 74  2  0
 73 72  1  0
 75 73  1  0
 76 85  2  0
 76 81  1  0
 77 73  1  0
 77 81  1  0
 78 77  1  0
 79 80  1  0
 79 78  1  0
 80 76  1  0
 81 82  2  0
 82 83  1  0
 84 83  2  0
 85 84  1  0
 86 60  1  0
 86 87  1  0
 86 96  1  0
 87 90  1  0
 88 92  1  0
 88 87  1  0
 89 88  2  0
 92 91  1  0
 94 92  1  0
 94 95  1  0
 94 93  1  0
 96 99  1  1
 96 97  1  0
 98 96  1  0
M  ISO  4  20 100  29 100  58 101  59 101
M  END
>  <TORSDO>  (56) 
F 21

>  <SCORE>  (56) 
-11.820

>  <name>  (56) 
55

>  <ligand_id>  (56) 
55

>  <original_smiles>  (56) 
[H]c1nc(C([H])([H])Oc2c([H])c([H])c3c(c2[H])C([H])([H])N(C(=O)C([H])(N([H])C(=O)C([H])(N([H])C([H])([H])[H])C([H])([H])[H])C(C([H])([H])[H])(C([H])([H])[H])C([H])([H])[H])C([H])(C(=O)N([H])C2([H])c4c([H])c([H])c([H])c([H])c4C([H])([H])C([H])([H])C2([H])[H])C3([H])[H])c([H])c(C([H])(C([H])([H])[H])[N+]([H])([H])[H])c1C([H])([H])[N+]1([H])C([H])([H])C([H])([H])C([H])(N(C(=O)N2C([H])([H])C([H])([H])C([H])([H])C([H])(n3nc(-c4c([H])c([H])c(Oc5c([H])c([H])c(F)c([H])c5F)c([H])c4[H])c(C(=O)N([H])[H])c3N([H])[H])C2([H])[H])C([H])([H])[H])C1([H])[H]

>  <smiles>  (56) 
[H]c1nc(C([H])([H])Oc2c([H])c([H])c3c(c2[H])C([H])([H])N(C(=O)C([H])(N([H])C(=O)C([H])(N([H])C([H])([H])[H])C([H])([H])[H])C(C([H])([H])[H])(C([H])([H])[H])C([H])([H])[H])C([H])(C(=O)N([H])C2([H])c4c([H])c([H])c([H])c([H])c4C([H])([H])C([H])([H])C2([H])[H])C3([H])[H])c([H])c(C([H])(C([H])([H])[H])[N+]([H])([H])[H])c1C([H])([H])[N+]1([H])C([H])([H])C([H])([H])C([H])(N(C(=O)N2C([H])([H])C([H])([H])C([H])([H])C([H])(n3nc(-c4c([H])c([H])c(Oc5c([H])c([H])c(F)c([H])c5F)c([H])c4[H])c(C(=O)N([H])[H])c3N([H])[H])C2([H])[H])C([H])([H])[H])C1([H])[H]

$$$$
56:0:0
     RDKit          3D

 93102  0  0  1  0  0  0  0  0999 V2000
  -27.8440  -22.5490   21.4140 C   0  0  0  0  0  3  0  0  0  0  0  0
  -28.9950  -22.7560   20.6330 C   0  0  0  0  0  0  0  0  0  0  0  0
  -29.1760  -24.1210   20.1530 C   0  0  0  0  0  0  0  0  0  0  0  0
  -26.9690  -23.6170   21.6890 C   0  0  0  0  0  0  0  0  0  0  0  0
  -28.2320  -25.1780   20.4830 C   0  0  0  0  0  0  0  0  0  0  0  0
  -30.3880  -24.4630   19.3020 C   0  0  0  0  0  1  0  0  0  0  0  0
  -25.7260  -23.4090   22.5310 C   0  0  0  0  0  1  0  0  0  0  0  0
  -27.1640  -24.8780   21.2550 N   0  0  0  0  0  0  0  0  0  0  0  0
  -28.3320  -26.5580   20.1060 O   0  0  0  0  0  0  0  0  0  0  0  0
  -24.5500  -31.9160   23.2410 C   0  0  0  0  0  0  0  0  0  0  0  0
  -27.2150  -27.4300   20.1030 C   0  0  0  0  0  0  0  0  0  0  0  0
  -23.3560  -30.5200   21.5900 C   0  0  0  0  0  3  0  0  0  0  0  0
  -24.8230  -29.0160   20.1220 C   0  0  0  0  0  0  0  0  0  0  0  0
  -25.8900  -30.8810   21.3920 C   0  0  0  0  0  2  0  0  0  0  0  0
  -25.9890  -29.5110   20.7240 C   0  0  0  0  0  0  0  0  0  0  0  0
  -27.1870  -28.7280   20.7100 C   0  0  0  0  0  3  0  0  0  0  0  0
  -26.0340  -27.0070   19.4540 C   0  0  0  0  0  3  0  0  0  0  0  0
  -24.8490  -27.7680   19.4780 C   0  0  0  0  0  3  0  0  0  0  0  0
  -23.5710  -29.8680   20.1980 C   0  0  0  0  0  2  0  0  0  0  0  0
  -24.6180  -31.1240   22.1290 N   0  0  0  0  0  0  0  0  0  0  0  0
  -23.4660  -32.1670   23.7890 O   0  0  0  0  0  0  0  0  0  0  0  0
  -22.7190  -29.4780   22.5410 C   0  0  0  0  0  0  0  0  0  0  0  0
  -21.3990  -29.2620   22.4100 N   0  0  0  0  0  0  0  0  0  0  0  0
  -23.4130  -28.8680   23.3590 O   0  0  0  0  0  0  0  0  0  0  0  0
  -20.8960  -29.8140   21.7290 H   0  0  0  0  0  0  0  0  0  0  0  0
  -18.0570  -27.9620   22.8910 C   0  0  0  0  0  0  0  0  0  0  0  0
  -20.6050  -28.2960   23.1730 C   0  0  0  0  0  3  0  0  0  0  0  0
  -20.7520  -26.8710   22.5880 C   0  0  0  0  0  2  0  0  0  0  0  0
  -19.6640  -26.5230   21.5680 C   0  0  0  0  0  2  0  0  0  0  0  0
  -18.2770  -26.6220   22.2080 C   0  0  0  0  0  2  0  0  0  0  0  0
  -19.1500  -28.7540   23.3310 C   0  0  0  0  0  0  0  0  0  0  0  0
  -18.8900  -30.0060   23.9290 C   0  0  0  0  0  3  0  0  0  0  0  0
  -17.5700  -30.4670   24.0940 C   0  0  0  0  0  3  0  0  0  0  0  0
  -16.4920  -29.6690   23.6710 C   0  0  0  0  0  3  0  0  0  0  0  0
  -16.7360  -28.4190   23.0760 C   0  0  0  0  0  3  0  0  0  0  0  0
  -25.8280  -32.5610   23.8600 C   0  0  0  0  0  3  0  0  0  0  0  0
  -25.5090  -33.9610   24.1810 N   0  0  0  0  0  0  0  0  0  0  0  0
  -25.8360  -35.0110   23.4150 C   0  0  0  0  0  0  0  0  0  0  0  0
  -26.5060  -34.9050   22.3850 O   0  0  0  0  0  0  0  0  0  0  0  0
  -24.9130  -34.1180   24.9800 H   0  0  0  0  0  0  0  0  0  0  0  0
  -24.1000  -36.7940   23.0480 C   0  0  0  0  0  1  0  0  0  0  0  0
  -25.3410  -36.4000   23.8650 C   0  0  0  0  0  3  0  0  0  0  0  0
  -27.4680  -37.3010   24.6960 C   0  0  0  0  0  1  0  0  0  0  0  0
  -26.3690  -37.4580   23.7480 N   0  0  0  0  0  0  0  0  0  0  0  0
  -25.9580  -38.3760   23.8870 H   0  0  0  0  0  0  0  0  0  0  0  0
  -26.3450  -31.8050   25.1450 C   0  0  1  0  0  0  0  0  0  0  0  0
  -25.2510  -31.5690   26.2120 C   0  0  0  0  0  1  0  0  0  0  0  0
  -26.9400  -30.4270   24.7690 C   0  0  0  0  0  1  0  0  0  0  0  0
  -27.4880  -32.6140   25.8040 C   0  0  0  0  0  1  0  0  0  0  0  0
  -30.0100  -21.5340   20.5050 C   0  0  0  0  0  2  0  0  0  0  0  0
  -29.5270  -20.0680   20.0120 C   0  0  0  0  0  2  0  0  0  0  0  0
  -30.8250  -14.8920   19.9260 C   0  0  0  0  0  0  0  0  0  0  0  0
  -30.4990  -12.6670   18.8290 C   0  0  0  0  0  2  0  0  0  0  0  0
  -29.4880  -12.8170   17.6690 C   0  0  0  0  0  2  0  0  0  0  0  0
  -28.0410  -12.6570   18.1760 C   0  0  0  0  0  2  0  0  0  0  0  0
  -27.7680  -13.4990   19.4510 C   0  0  0  0  0  3  0  0  0  0  0  0
  -28.8900  -13.3190   20.4970 C   0  0  0  0  0  2  0  0  0  0  0  0
  -30.1650  -13.6830   19.8550 N   0  0  0  0  0  0  0  0  0  0  0  0
  -31.9000  -15.0420   19.3350 O   0  0  0  0  0  0  0  0  0  0  0  0
  -30.9220  -17.2550   22.4820 C   0  0  0  0  0  2  0  0  0  0  0  0
  -30.3600  -18.5960   21.9820 C   0  0  0  0  0  2  0  0  0  0  0  0
  -30.1020  -16.0660   21.9540 C   0  0  0  0  0  2  0  0  0  0  0  0
  -29.8150  -17.3060   19.8170 C   0  0  0  0  0  2  0  0  0  0  0  0
  -30.3160  -18.7110   20.4450 C   0  0  0  0  0  3  0  0  0  0  0  0
  -30.1770  -15.9840   20.4920 N   0  0  0  0  0  0  0  0  0  0  0  0
  -25.4430  -14.1100   20.3560 C   0  0  0  0  0  0  0  0  0  0  0  0
  -24.3880  -13.3430   20.7750 C   0  0  0  0  0  0  0  0  0  0  0  0
  -24.8210  -11.9870   20.6690 C   0  0  0  0  0  0  0  0  0  0  0  0
  -26.4500  -13.2210   20.0170 N   0  0  0  0  0  0  0  0  0  0  0  0
  -26.0860  -11.9370   20.2660 N   0  0  0  0  0  0  0  0  0  0  0  0
  -24.0840  -10.7310   20.8670 C   0  0  0  0  0  0  0  0  0  0  0  0
  -24.5190   -9.7590   21.7930 C   0  0  0  0  0  3  0  0  0  0  0  0
  -23.7820   -8.5700   21.9840 C   0  0  0  0  0  3  0  0  0  0  0  0
  -22.6000   -8.3420   21.2450 C   0  0  0  0  0  0  0  0  0  0  0  0
  -22.1850   -9.3000   20.3020 C   0  0  0  0  0  3  0  0  0  0  0  0
  -22.9210  -10.4810   20.1100 C   0  0  0  0  0  3  0  0  0  0  0  0
  -21.8360   -7.2050   21.3420 O   0  0  0  0  0  0  0  0  0  0  0  0
  -21.7370   -6.5010   22.5150 C   0  0  0  0  0  0  0  0  0  0  0  0
  -21.2690   -7.0970   23.7070 C   0  0  0  0  0  3  0  0  0  0  0  0
  -21.1190   -6.3190   24.8710 C   0  0  0  0  0  3  0  0  0  0  0  0
  -21.4250   -4.9450   24.8450 C   0  0  0  0  0  0  0  0  0  0  0  0
  -21.8860   -4.3480   23.6600 C   0  0  0  0  0  3  0  0  0  0  0  0
  -22.0380   -5.1250   22.4960 C   0  0  0  0  0  0  0  0  0  0  0  0
  -22.4600   -4.5390   21.3480 F   0  0  0  0  0  0  0  0  0  0  0  0
  -21.2770   -4.1950   25.9630 F   0  0  0  0  0  0  0  0  0  0  0  0
  -23.0200  -13.8340   21.1570 C   0  0  0  0  0  0  0  0  0  0  0  0
  -22.3560  -13.1440   22.0750 N   0  0  0  0  0  0  0  0  0  0  0  0
  -22.5540  -14.8660   20.6760 O   0  0  0  0  0  0  0  0  0  0  0  0
  -22.7510  -12.3140   22.4910 H   0  0  0  0  0  0  0  0  0  0  0  0
  -21.4340  -13.4450   22.3610 H   0  0  0  0  0  0  0  0  0  0  0  0
  -25.6220  -15.4820   20.2120 N   0  0  0  0  0  0  0  0  0  0  0  0
  -24.8900  -16.1540   20.4110 H   0  0  0  0  0  0  0  0  0  0  0  0
  -26.4740  -15.9140   19.8770 H   0  0  0  0  0  0  0  0  0  0  0  0
  1  4  2  0
  2  1  1  0
  3  5  1  0
  3  2  2  0
  4  7  1  0
  5  8  2  0
  6  3  1  0
  8  4  1  0
  9  5  1  0
 10 21  2  0
 11  9  1  0
 11 16  1  0
 12 20  1  0
 12 22  1  0
 13 19  1  0
 13 15  1  0
 14 20  1  0
 15 14  1  0
 16 15  2  0
 17 18  1  0
 17 11  2  0
 18 13  2  0
 19 12  1  0
 20 10  1  0
 22 24  2  0
 23 22  1  0
 25 23  1  0
 26 35  2  0
 26 31  1  0
 27 23  1  0
 27 31  1  0
 28 27  1  0
 29 30  1  0
 29 28  1  0
 30 26  1  0
 31 32  2  0
 32 33  1  0
 34 33  2  0
 35 34  1  0
 36 10  1  0
 36 37  1  0
 36 46  1  0
 37 40  1  0
 38 42  1  0
 38 37  1  0
 39 38  2  0
 42 41  1  0
 44 42  1  0
 44 45  1  0
 44 43  1  0
 46 49  1  1
 46 47  1  0
 48 46  1  0
 50  2  1  0
 51 50  1  0
 52 65  1  0
 53 58  1  0
 54 55  1  0
 54 53  1  0
 56 55  1  0
 56 69  1  0
 56 57  1  0
 58 52  1  0
 58 57  1  0
 59 52  2  0
 61 60  1  0
 62 60  1  0
 63 64  1  0
 63 65  1  0
 64 51  1  0
 64 61  1  0
 65 62  1  0
 66 67  2  0
 67 86  1  0
 68 67  1  0
 68 71  1  0
 69 70  1  0
 69 66  1  0
 70 68  2  0
 71 72  1  0
 72 73  2  0
 74 77  1  0
 74 73  1  0
 75 74  2  0
 76 75  1  0
 76 71  2  0
 77 78  1  0
 78 79  1  0
 79 80  2  0
 81 80  1  0
 81 85  1  0
 82 81  2  0
 83 78  2  0
 83 82  1  0
 84 83  1  0
 86 87  1  0
 87 90  1  0
 87 89  1  0
 88 86  2  0
 91 66  1  0
 91 92  1  0
 93 91  1  0
M  ISO  4   5 101   9 101  52 100  65 100
M  END
>  <TORSDO>  (57) 
F 18

>  <SCORE>  (57) 
-13.577

>  <name>  (57) 
56

>  <ligand_id>  (57) 
56

>  <original_smiles>  (57) 
[H]c1c([H])c([H])c2c(c1[H])C([H])([H])C([H])([H])C([H])([H])C2([H])N([H])C(=O)C1([H])N(C(=O)C([H])(N([H])C(=O)C([H])(N([H])C([H])([H])[H])C([H])([H])[H])C(C([H])([H])[H])(C([H])([H])[H])C([H])([H])[H])C([H])([H])c2c([H])c(Oc3nc(C([H])([H])[H])c([H])c(C([H])([H])C([H])([H])C4([H])C([H])([H])N(C(=O)N5C([H])([H])C([H])([H])C([H])([H])C([H])(n6nc(-c7c([H])c([H])c(Oc8c([H])c([H])c(F)c([H])c8F)c([H])c7[H])c(C(=O)N([H])[H])c6N([H])[H])C5([H])[H])C([H])([H])C([H])([H])C4([H])[H])c3C([H])([H])[H])c([H])c([H])c2C1([H])[H]

>  <smiles>  (57) 
[H]c1c([H])c([H])c2c(c1[H])C([H])([H])C([H])([H])C([H])([H])C2([H])N([H])C(=O)C1([H])N(C(=O)C([H])(N([H])C(=O)C([H])(N([H])C([H])([H])[H])C([H])([H])[H])C(C([H])([H])[H])(C([H])([H])[H])C([H])([H])[H])C([H])([H])c2c([H])c(Oc3nc(C([H])([H])[H])c([H])c(C([H])([H])C([H])([H])C4([H])C([H])([H])N(C(=O)N5C([H])([H])C([H])([H])C([H])([H])C([H])(n6nc(-c7c([H])c([H])c(Oc8c([H])c([H])c(F)c([H])c8F)c([H])c7[H])c(C(=O)N([H])[H])c6N([H])[H])C5([H])[H])C([H])([H])C([H])([H])C4([H])[H])c3C([H])([H])[H])c([H])c([H])c2C1([H])[H]

$$$$
57:0:0
     RDKit          3D

 99107  0  0  1  0  0  0  0  0999 V2000
  -27.7910  -17.5730   19.4310 C   0  0  0  0  0  2  0  0  0  0  0  0
  -26.5320  -18.2480   20.0030 C   0  0  0  0  0  2  0  0  0  0  0  0
  -27.6770  -20.3560   19.7910 C   0  0  0  0  0  2  0  0  0  0  0  0
  -28.9640  -19.6270   19.2620 C   0  0  0  0  0  3  0  0  0  0  0  0
  -29.0240  -18.2480   19.8960 N   0  0  0  0  0  0  0  0  0  0  0  0
  -26.4430  -19.6170   19.5000 N   0  0  0  0  0  4  0  0  0  0  0  0
  -25.6650  -20.0810   19.9380 H   0  0  0  0  0  0  0  0  0  0  0  0
  -26.2800  -19.6010   18.5060 H   0  0  0  0  0  0  0  0  0  0  0  0
  -30.2220  -20.5780   19.3940 C   0  0  0  0  0  2  0  0  0  0  0  0
  -30.0140  -22.0020   20.0210 C   0  0  0  0  0  0  0  0  0  0  0  0
  -29.8190  -23.0940   19.2390 N   0  0  0  0  0  0  0  0  0  0  0  0
  -30.0340  -22.1060   21.2480 O   0  0  0  0  0  0  0  0  0  0  0  0
  -29.8370  -22.9530   18.2360 H   0  0  0  0  0  0  0  0  0  0  0  0
  -29.7400  -24.5110   19.7000 C   0  0  0  0  0  2  0  0  0  0  0  0
  -28.4100  -25.2720   19.3800 C   0  0  0  0  0  2  0  0  0  0  0  0
  -28.4630  -26.6760   19.7490 O   0  0  0  0  0  0  0  0  0  0  0  0
  -24.6710  -31.6520   23.2030 C   0  0  0  0  0  0  0  0  0  0  0  0
  -27.2870  -27.4210   19.7780 C   0  0  0  0  0  0  0  0  0  0  0  0
  -23.4490  -30.3820   21.4690 C   0  0  0  0  0  3  0  0  0  0  0  0
  -24.8900  -28.9550   19.9160 C   0  0  0  0  0  0  0  0  0  0  0  0
  -25.9770  -30.7440   21.2800 C   0  0  0  0  0  2  0  0  0  0  0  0
  -26.0560  -29.4230   20.5350 C   0  0  0  0  0  0  0  0  0  0  0  0
  -27.2510  -28.6620   20.4660 C   0  0  0  0  0  3  0  0  0  0  0  0
  -26.0990  -26.9830   19.1450 C   0  0  0  0  0  3  0  0  0  0  0  0
  -24.9090  -27.7350   19.2180 C   0  0  0  0  0  3  0  0  0  0  0  0
  -23.6490  -29.8140   20.0390 C   0  0  0  0  0  2  0  0  0  0  0  0
  -24.7190  -30.9380   22.0430 N   0  0  0  0  0  0  0  0  0  0  0  0
  -23.5940  -31.8920   23.7680 O   0  0  0  0  0  0  0  0  0  0  0  0
  -22.8000  -29.2940   22.3540 C   0  0  0  0  0  0  0  0  0  0  0  0
  -21.4760  -29.1180   22.2080 N   0  0  0  0  0  0  0  0  0  0  0  0
  -23.4810  -28.6170   23.1280 O   0  0  0  0  0  0  0  0  0  0  0  0
  -20.9920  -29.7160   21.5530 H   0  0  0  0  0  0  0  0  0  0  0  0
  -18.1090  -27.8510   22.5590 C   0  0  0  0  0  0  0  0  0  0  0  0
  -20.6570  -28.1270   22.9030 C   0  0  0  0  0  3  0  0  0  0  0  0
  -20.7960  -26.7360   22.2440 C   0  0  0  0  0  2  0  0  0  0  0  0
  -19.7180  -26.4590   21.1910 C   0  0  0  0  0  2  0  0  0  0  0  0
  -18.3200  -26.5460   21.8100 C   0  0  0  0  0  2  0  0  0  0  0  0
  -19.2070  -28.6020   23.0560 C   0  0  0  0  0  0  0  0  0  0  0  0
  -18.9580  -29.8260   23.7120 C   0  0  0  0  0  3  0  0  0  0  0  0
  -17.6420  -30.2970   23.8840 C   0  0  0  0  0  3  0  0  0  0  0  0
  -16.5590  -29.5420   23.4030 C   0  0  0  0  0  3  0  0  0  0  0  0
  -16.7930  -28.3220   22.7440 C   0  0  0  0  0  3  0  0  0  0  0  0
  -25.9650  -32.2270   23.8610 C   0  0  0  0  0  3  0  0  0  0  0  0
  -26.4550  -31.3880   25.1040 C   0  0  1  0  0  0  0  0  0  0  0  0
  -25.3500  -31.1330   26.1540 C   0  0  0  0  0  1  0  0  0  0  0  0
  -26.9990  -30.0120   24.6500 C   0  0  0  0  0  1  0  0  0  0  0  0
  -27.6190  -32.1250   25.8060 C   0  0  0  0  0  1  0  0  0  0  0  0
  -25.6870  -33.6180   24.2480 N   0  0  0  0  0  0  0  0  0  0  0  0
  -26.0440  -34.6920   23.5320 C   0  0  0  0  0  0  0  0  0  0  0  0
  -26.7140  -34.6170   22.5000 O   0  0  0  0  0  0  0  0  0  0  0  0
  -25.0900  -33.7520   25.0510 H   0  0  0  0  0  0  0  0  0  0  0  0
  -24.3400  -36.5240   23.2620 C   0  0  0  0  0  1  0  0  0  0  0  0
  -25.5810  -36.0710   24.0450 C   0  0  0  0  0  3  0  0  0  0  0  0
  -27.7290  -36.8970   24.8990 C   0  0  0  0  0  1  0  0  0  0  0  0
  -26.6290  -37.1110   23.9640 N   0  0  0  0  0  0  0  0  0  0  0  0
  -26.2350  -38.0310   24.1440 H   0  0  0  0  0  0  0  0  0  0  0  0
  -30.1620  -17.3090   19.6230 C   0  0  0  0  0  2  0  0  0  0  0  0
  -30.2140  -15.9920   20.5500 C   0  0  0  0  0  3  0  0  0  0  0  0
  -30.9220  -14.7050   19.9470 C   0  0  0  0  0  0  0  0  0  0  0  0
  -30.6950  -12.4010   19.0120 C   0  0  0  0  0  2  0  0  0  0  0  0
  -29.6710  -12.4100   17.8530 C   0  0  0  0  0  2  0  0  0  0  0  0
  -28.2300  -12.2460   18.3830 C   0  0  0  0  0  2  0  0  0  0  0  0
  -27.9260  -13.1920   19.5730 C   0  0  0  0  0  3  0  0  0  0  0  0
  -29.0540  -13.1160   20.6270 C   0  0  0  0  0  2  0  0  0  0  0  0
  -30.3180  -13.4690   19.9580 N   0  0  0  0  0  0  0  0  0  0  0  0
  -32.0110  -14.8590   19.3850 O   0  0  0  0  0  0  0  0  0  0  0  0
  -25.6030  -13.8150   20.4780 C   0  0  0  0  0  0  0  0  0  0  0  0
  -24.5580  -13.0670   20.9320 C   0  0  0  0  0  0  0  0  0  0  0  0
  -24.9790  -11.7090   20.8130 C   0  0  0  0  0  0  0  0  0  0  0  0
  -26.6130  -12.9260   20.1500 N   0  0  0  0  0  0  0  0  0  0  0  0
  -26.2400  -11.6460   20.3990 N   0  0  0  0  0  0  0  0  0  0  0  0
  -24.2320  -10.4650   21.0110 C   0  0  0  0  0  0  0  0  0  0  0  0
  -24.6910   -9.4660   21.8960 C   0  0  0  0  0  3  0  0  0  0  0  0
  -23.9440   -8.2840   22.0850 C   0  0  0  0  0  3  0  0  0  0  0  0
  -22.7270   -8.0950   21.3880 C   0  0  0  0  0  0  0  0  0  0  0  0
  -22.2890   -9.0840   20.4900 C   0  0  0  0  0  3  0  0  0  0  0  0
  -23.0360  -10.2570   20.2980 C   0  0  0  0  0  3  0  0  0  0  0  0
  -21.9500   -6.9670   21.4910 O   0  0  0  0  0  0  0  0  0  0  0  0
  -21.9170   -6.2210   22.6410 C   0  0  0  0  0  0  0  0  0  0  0  0
  -21.4890   -6.7680   23.8710 C   0  0  0  0  0  3  0  0  0  0  0  0
  -21.4050   -5.9490   25.0150 C   0  0  0  0  0  3  0  0  0  0  0  0
  -21.7390   -4.5840   24.9280 C   0  0  0  0  0  0  0  0  0  0  0  0
  -22.1610   -4.0360   23.7040 C   0  0  0  0  0  3  0  0  0  0  0  0
  -22.2480   -4.8530   22.5630 C   0  0  0  0  0  0  0  0  0  0  0  0
  -22.6350   -4.3170   21.3800 F   0  0  0  0  0  0  0  0  0  0  0  0
  -21.6520   -3.7940   26.0240 F   0  0  0  0  0  0  0  0  0  0  0  0
  -23.2020  -13.5750   21.3310 C   0  0  0  0  0  0  0  0  0  0  0  0
  -22.5300  -12.8760   22.2370 N   0  0  0  0  0  0  0  0  0  0  0  0
  -22.7580  -14.6300   20.8800 O   0  0  0  0  0  0  0  0  0  0  0  0
  -22.9100  -12.0220   22.6160 H   0  0  0  0  0  0  0  0  0  0  0  0
  -21.6240  -13.1930   22.5520 H   0  0  0  0  0  0  0  0  0  0  0  0
  -25.7500  -15.1740   20.2680 N   0  0  0  0  0  0  0  0  0  0  0  0
  -24.8520  -15.6400   20.3310 H   0  0  0  0  0  0  0  0  0  0  0  0
  -26.1750  -15.3470   19.3630 H   0  0  0  0  0  0  0  0  0  0  0  0
  -30.6590  -16.2470   22.0280 C   0  0  0  0  0  2  0  0  0  0  0  0
  -31.4940  -17.4490   22.2620 N   0  0  0  0  0  4  0  0  0  0  0  0
  -32.3460  -17.4310   21.7300 H   0  0  0  0  0  0  0  0  0  0  0  0
  -31.7430  -17.5040   23.2350 H   0  0  0  0  0  0  0  0  0  0  0  0
  -30.9810  -18.2860   22.0470 H   0  0  0  0  0  0  0  0  0  0  0  0
  1  5  1  0
  1  2  1  0
  4  9  1  0
  4  3  1  0
  4  5  1  0
  6  3  1  0
  6  7  1  0
  6  2  1  0
  8  6  1  0
  9 10  1  0
 10 12  2  0
 11 14  1  0
 11 10  1  0
 13 11  1  0
 15 14  1  0
 15 16  1  0
 16 18  1  0
 17 28  2  0
 18 23  1  0
 19 27  1  0
 19 29  1  0
 20 26  1  0
 20 22  1  0
 21 27  1  0
 22 21  1  0
 23 22  2  0
 24 25  1  0
 24 18  2  0
 25 20  2  0
 26 19  1  0
 27 17  1  0
 29 31  2  0
 30 29  1  0
 32 30  1  0
 33 42  2  0
 33 38  1  0
 34 30  1  0
 34 38  1  0
 35 34  1  0
 36 37  1  0
 36 35  1  0
 37 33  1  0
 38 39  2  0
 39 40  1  0
 41 40  2  0
 42 41  1  0
 43 17  1  0
 43 48  1  0
 43 44  1  0
 44 47  1  1
 44 45  1  0
 46 44  1  0
 48 51  1  0
 49 53  1  0
 49 48  1  0
 50 49  2  0
 53 52  1  0
 55 53  1  0
 55 56  1  0
 55 54  1  0
 57  5  1  0
 58 57  1  0
 58 95  1  0
 59 65  1  0
 59 58  1  0
 60 65  1  0
 61 62  1  0
 61 60  1  0
 63 62  1  0
 63 70  1  0
 63 64  1  0
 65 64  1  0
 66 59  2  0
 67 68  2  0
 68 87  1  0
 69 68  1  0
 69 72  1  0
 70 71  1  0
 70 67  1  0
 71 69  2  0
 72 73  1  0
 73 74  2  0
 75 78  1  0
 75 74  1  0
 76 75  2  0
 77 76  1  0
 77 72  2  0
 78 79  1  0
 79 80  1  0
 80 81  2  0
 82 81  1  0
 82 86  1  0
 83 82  2  0
 84 79  2  0
 84 83  1  0
 85 84  1  0
 87 88  1  0
 88 91  1  0
 88 90  1  0
 89 87  2  0
 92 93  1  0
 92 67  1  0
 94 92  1  0
 95 96  1  0
 96 98  1  0
 97 96  1  0
 99 96  1  0
M  ISO  4  15 101  16 101  58 100  59 100
M  END
>  <TORSDO>  (58) 
F 24

>  <SCORE>  (58) 
-11.493

>  <name>  (58) 
57

>  <ligand_id>  (58) 
57

>  <original_smiles>  (58) 
[H]c1c([H])c([H])c2c(c1[H])C([H])([H])C([H])([H])C([H])([H])C2([H])N([H])C(=O)C1([H])N(C(=O)C([H])(N([H])C(=O)C([H])(N([H])C([H])([H])[H])C([H])([H])[H])C(C([H])([H])[H])(C([H])([H])[H])C([H])([H])[H])C([H])([H])c2c([H])c(OC([H])([H])C([H])([H])N([H])C(=O)C([H])([H])C3([H])N(C([H])([H])C([H])(C(=O)N4C([H])([H])C([H])([H])C([H])([H])C([H])(n5nc(-c6c([H])c([H])c(Oc7c([H])c([H])c(F)c([H])c7F)c([H])c6[H])c(C(=O)N([H])[H])c5N([H])[H])C4([H])[H])C([H])([H])[N+]([H])([H])[H])C([H])([H])C([H])([H])[N+]([H])([H])C3([H])[H])c([H])c([H])c2C1([H])[H]

>  <smiles>  (58) 
[H]c1c([H])c([H])c2c(c1[H])C([H])([H])C([H])([H])C([H])([H])C2([H])N([H])C(=O)C1([H])N(C(=O)C([H])(N([H])C(=O)C([H])(N([H])C([H])([H])[H])C([H])([H])[H])C(C([H])([H])[H])(C([H])([H])[H])C([H])([H])[H])C([H])([H])c2c([H])c(OC([H])([H])C([H])([H])N([H])C(=O)C([H])([H])C3([H])N(C([H])([H])C([H])(C(=O)N4C([H])([H])C([H])([H])C([H])([H])C([H])(n5nc(-c6c([H])c([H])c(Oc7c([H])c([H])c(F)c([H])c7F)c([H])c6[H])c(C(=O)N([H])[H])c5N([H])[H])C4([H])[H])C([H])([H])[N+]([H])([H])[H])C([H])([H])C([H])([H])[N+]([H])([H])C3([H])[H])c([H])c([H])c2C1([H])[H]

$$$$
58:0:0
     RDKit          3D

 98107  0  0  1  0  0  0  0  0999 V2000
  -29.2530  -21.3130   21.4970 C   0  0  0  0  0  2  0  0  0  0  0  0
  -28.6270  -23.4330   22.7530 C   0  0  0  0  0  3  0  0  0  0  0  0
  -30.0740  -23.6430   21.0650 C   0  0  0  0  0  3  0  0  0  0  0  0
  -28.9940  -24.7540   22.6950 C   0  0  0  0  0  0  0  0  0  0  0  0
  -29.8990  -24.8910   21.5910 C   0  0  0  0  0  0  0  0  0  0  0  0
  -28.5320  -25.8340   23.6440 C   0  0  0  0  0  1  0  0  0  0  0  0
  -29.2950  -22.7450   21.7590 N   0  0  0  0  0  0  0  0  0  0  0  0
  -30.5980  -26.1310   21.0730 C   0  0  0  0  0  2  0  0  0  0  0  0
  -29.6730  -27.3260   20.8090 C   0  0  0  0  0  2  0  0  0  0  0  0
  -28.5690  -26.9270   19.9960 O   0  0  0  0  0  0  0  0  0  0  0  0
  -24.6040  -31.9050   23.2270 C   0  0  0  0  0  0  0  0  0  0  0  0
  -27.4130  -27.6760   20.0420 C   0  0  0  0  0  0  0  0  0  0  0  0
  -23.4530  -30.5530   21.4990 C   0  0  0  0  0  3  0  0  0  0  0  0
  -24.9680  -29.0980   20.0510 C   0  0  0  0  0  0  0  0  0  0  0  0
  -25.9670  -30.9780   21.3650 C   0  0  0  0  0  2  0  0  0  0  0  0
  -26.0930  -29.6350   20.6820 C   0  0  0  0  0  0  0  0  0  0  0  0
  -27.3150  -28.9370   20.6770 C   0  0  0  0  0  3  0  0  0  0  0  0
  -26.2690  -27.1450   19.4100 C   0  0  0  0  0  3  0  0  0  0  0  0
  -25.0480  -27.8480   19.4110 C   0  0  0  0  0  3  0  0  0  0  0  0
  -23.7020  -29.9250   20.0990 C   0  0  0  0  0  2  0  0  0  0  0  0
  -24.6920  -31.1570   22.0920 N   0  0  0  0  0  0  0  0  0  0  0  0
  -23.5100  -32.1380   23.7570 O   0  0  0  0  0  0  0  0  0  0  0  0
  -22.8010  -29.4860   22.4050 C   0  0  0  0  0  0  0  0  0  0  0  0
  -21.4730  -29.3330   22.2790 N   0  0  0  0  0  0  0  0  0  0  0  0
  -23.4830  -28.8010   23.1710 O   0  0  0  0  0  0  0  0  0  0  0  0
  -20.9860  -29.9380   21.6330 H   0  0  0  0  0  0  0  0  0  0  0  0
  -18.0740  -28.2320   22.8000 C   0  0  0  0  0  0  0  0  0  0  0  0
  -20.6480  -28.3630   22.9970 C   0  0  0  0  0  3  0  0  0  0  0  0
  -20.6700  -26.9850   22.2940 C   0  0  0  0  0  2  0  0  0  0  0  0
  -19.5210  -26.7960   21.3000 C   0  0  0  0  0  2  0  0  0  0  0  0
  -18.1700  -26.9390   22.0070 C   0  0  0  0  0  2  0  0  0  0  0  0
  -19.2390  -28.9080   23.2510 C   0  0  0  0  0  0  0  0  0  0  0  0
  -19.0950  -30.1250   23.9540 C   0  0  0  0  0  3  0  0  0  0  0  0
  -17.8200  -30.6620   24.2100 C   0  0  0  0  0  3  0  0  0  0  0  0
  -16.6700  -29.9800   23.7770 C   0  0  0  0  0  3  0  0  0  0  0  0
  -16.7990  -28.7660   23.0780 C   0  0  0  0  0  3  0  0  0  0  0  0
  -25.8710  -32.5230   23.9020 C   0  0  0  0  0  3  0  0  0  0  0  0
  -25.5360  -33.8990   24.2910 N   0  0  0  0  0  0  0  0  0  0  0  0
  -25.8470  -34.9880   23.5750 C   0  0  0  0  0  0  0  0  0  0  0  0
  -26.5150  -34.9400   22.5390 O   0  0  0  0  0  0  0  0  0  0  0  0
  -24.9410  -34.0090   25.0990 H   0  0  0  0  0  0  0  0  0  0  0  0
  -24.0820  -36.7570   23.2870 C   0  0  0  0  0  1  0  0  0  0  0  0
  -25.3280  -36.3450   24.0880 C   0  0  0  0  0  3  0  0  0  0  0  0
  -27.4350  -37.2410   24.9770 C   0  0  0  0  0  1  0  0  0  0  0  0
  -26.3400  -37.4230   24.0260 N   0  0  0  0  0  0  0  0  0  0  0  0
  -25.9130  -38.3280   24.2050 H   0  0  0  0  0  0  0  0  0  0  0  0
  -26.3820  -31.6970   25.1450 C   0  0  1  0  0  0  0  0  0  0  0  0
  -25.2750  -31.3790   26.1770 C   0  0  0  0  0  1  0  0  0  0  0  0
  -27.0010  -30.3550   24.6880 C   0  0  0  0  0  1  0  0  0  0  0  0
  -27.5020  -32.4770   25.8710 C   0  0  0  0  0  1  0  0  0  0  0  0
  -28.4910  -21.8840   19.0530 C   0  0  0  0  0  1  0  0  0  0  0  0
  -28.4530  -20.8800   20.2270 C   0  0  0  0  0  3  0  0  0  0  0  0
  -28.8980  -19.5510   19.7300 N   0  0  0  0  0  4  0  0  0  0  0  0
  -28.4300  -19.3720   18.8540 H   0  0  0  0  0  0  0  0  0  0  0  0
  -29.8840  -19.6090   19.5310 H   0  0  0  0  0  0  0  0  0  0  0  0
  -28.6700  -18.3820   20.6120 C   0  0  0  0  0  2  0  0  0  0  0  0
  -29.3380  -17.1160   20.0300 C   0  0  0  0  0  2  0  0  0  0  0  0
  -30.5130  -14.3930   19.3660 C   0  0  0  0  0  0  0  0  0  0  0  0
  -29.9820  -12.2770   18.2010 C   0  0  0  0  0  2  0  0  0  0  0  0
  -28.8340  -12.4120   17.1850 C   0  0  0  0  0  2  0  0  0  0  0  0
  -27.4710  -12.2120   17.8760 C   0  0  0  0  0  2  0  0  0  0  0  0
  -27.3320  -13.0870   19.1510 C   0  0  0  0  0  3  0  0  0  0  0  0
  -28.5680  -12.9390   20.0630 C   0  0  0  0  0  2  0  0  0  0  0  0
  -29.7780  -13.2510   19.2800 N   0  0  0  0  0  0  0  0  0  0  0  0
  -31.3030  -14.7500   18.4830 O   0  0  0  0  0  0  0  0  0  0  0  0
  -31.4540  -15.5770   22.7210 C   0  0  0  0  0  2  0  0  0  0  0  0
  -30.5240  -16.6870   22.2730 C   0  0  0  0  0  2  0  0  0  0  0  0
  -31.7650  -14.8460   21.4170 C   0  0  0  0  0  2  0  0  0  0  0  0
  -29.7250  -16.0700   21.1030 C   0  0  0  0  0  3  0  0  0  0  0  0
  -30.5500  -14.9430   20.6040 N   0  0  0  0  0  0  0  0  0  0  0  0
  -25.1260  -13.6510   20.3540 C   0  0  0  0  0  0  0  0  0  0  0  0
  -24.1430  -12.8590   20.8800 C   0  0  0  0  0  0  0  0  0  0  0  0
  -24.5650  -11.5110   20.6700 C   0  0  0  0  0  0  0  0  0  0  0  0
  -26.0940  -12.7860   19.8680 N   0  0  0  0  0  0  0  0  0  0  0  0
  -25.7700  -11.4900   20.1120 N   0  0  0  0  0  0  0  0  0  0  0  0
  -23.8780  -10.2410   20.9290 C   0  0  0  0  0  0  0  0  0  0  0  0
  -24.3570   -9.3270   21.8930 C   0  0  0  0  0  3  0  0  0  0  0  0
  -23.6670   -8.1200   22.1370 C   0  0  0  0  0  3  0  0  0  0  0  0
  -22.4880   -7.8170   21.4180 C   0  0  0  0  0  0  0  0  0  0  0  0
  -22.0260   -8.7230   20.4450 C   0  0  0  0  0  3  0  0  0  0  0  0
  -22.7150   -9.9220   20.1970 C   0  0  0  0  0  3  0  0  0  0  0  0
  -21.7660   -6.6570   21.5690 O   0  0  0  0  0  0  0  0  0  0  0  0
  -21.6560   -6.0280   22.7850 C   0  0  0  0  0  0  0  0  0  0  0  0
  -21.0910   -6.6720   23.9050 C   0  0  0  0  0  3  0  0  0  0  0  0
  -20.9250   -5.9680   25.1120 C   0  0  0  0  0  3  0  0  0  0  0  0
  -21.3230   -4.6220   25.2080 C   0  0  0  0  0  0  0  0  0  0  0  0
  -21.8850   -3.9760   24.0930 C   0  0  0  0  0  3  0  0  0  0  0  0
  -22.0490   -4.6760   22.8840 C   0  0  0  0  0  0  0  0  0  0  0  0
  -22.5700   -4.0400   21.8050 F   0  0  0  0  0  0  0  0  0  0  0  0
  -21.1570   -3.9470   26.3690 F   0  0  0  0  0  0  0  0  0  0  0  0
  -22.8370  -13.3190   21.4650 C   0  0  0  0  0  0  0  0  0  0  0  0
  -22.3410  -12.6230   22.4780 N   0  0  0  0  0  0  0  0  0  0  0  0
  -22.2790  -14.3370   21.0540 O   0  0  0  0  0  0  0  0  0  0  0  0
  -22.8130  -11.8030   22.8290 H   0  0  0  0  0  0  0  0  0  0  0  0
  -21.4730  -12.9090   22.9090 H   0  0  0  0  0  0  0  0  0  0  0  0
  -25.2720  -15.0290   20.2280 N   0  0  0  0  0  0  0  0  0  0  0  0
  -24.5610  -15.6770   20.5480 H   0  0  0  0  0  0  0  0  0  0  0  0
  -26.0380  -15.4860   19.7560 H   0  0  0  0  0  0  0  0  0  0  0  0
  1  7  1  0
  3  5  2  0
  3  7  1  0
  4  2  2  0
  4  6  1  0
  5  4  1  0
  7  2  1  0
  8  5  1  0
  9  8  1  0
 10 12  1  0
 10  9  1  0
 11 22  2  0
 12 17  1  0
 13 21  1  0
 13 23  1  0
 14 20  1  0
 14 16  1  0
 15 21  1  0
 16 15  1  0
 17 16  2  0
 18 19  1  0
 18 12  2  0
 19 14  2  0
 20 13  1  0
 21 11  1  0
 23 25  2  0
 24 23  1  0
 26 24  1  0
 27 36  2  0
 27 32  1  0
 28 24  1  0
 28 32  1  0
 29 28  1  0
 30 31  1  0
 30 29  1  0
 31 27  1  0
 32 33  2  0
 33 34  1  0
 35 34  2  0
 36 35  1  0
 37 11  1  0
 37 38  1  0
 37 47  1  0
 38 41  1  0
 39 43  1  0
 39 38  1  0
 40 39  2  0
 43 42  1  0
 45 43  1  0
 45 46  1  0
 45 44  1  0
 47 50  1  1
 47 48  1  0
 49 47  1  0
 52 51  1  0
 52  1  1  0
 53 52  1  0
 53 56  1  0
 54 53  1  0
 55 53  1  0
 57 56  1  0
 58 70  1  0
 59 64  1  0
 60 61  1  0
 60 59  1  0
 62 61  1  0
 62 74  1  0
 62 63  1  0
 64 58  1  0
 64 63  1  0
 65 58  2  0
 67 66  1  0
 68 66  1  0
 69 57  1  0
 69 67  1  0
 70 69  1  0
 70 68  1  0
 71 72  2  0
 72 91  1  0
 73 72  1  0
 73 76  1  0
 74 75  1  0
 74 71  1  0
 75 73  2  0
 76 77  1  0
 77 78  2  0
 79 82  1  0
 79 78  1  0
 80 79  2  0
 81 80  1  0
 81 76  2  0
 82 83  1  0
 83 88  2  0
 83 84  1  0
 84 85  2  0
 85 86  1  0
 86 90  1  0
 87 86  2  0
 88 87  1  0
 89 88  1  0
 91 92  1  0
 92 94  1  0
 92 95  1  0
 93 91  2  0
 96 71  1  0
 96 97  1  0
 98 96  1  0
M  ISO  4   9 101  10 101  58 100  70 100
M  END
>  <TORSDO>  (59) 
F 23

>  <SCORE>  (59) 
-10.119

>  <name>  (59) 
58

>  <ligand_id>  (59) 
58

>  <original_smiles>  (59) 
[H]c1c([H])c([H])c2c(c1[H])C([H])([H])C([H])([H])C([H])([H])C2([H])N([H])C(=O)C1([H])N(C(=O)C([H])(N([H])C(=O)C([H])(N([H])C([H])([H])[H])C([H])([H])[H])C(C([H])([H])[H])(C([H])([H])[H])C([H])([H])[H])C([H])([H])c2c([H])c(OC([H])([H])C([H])([H])c3c(C([H])([H])[H])c([H])n(C([H])([H])C([H])(C([H])([H])[H])[N+]([H])([H])C([H])([H])C([H])([H])C4([H])N(C(=O)N5C([H])([H])C([H])([H])C([H])([H])C([H])(n6nc(-c7c([H])c([H])c(Oc8c([H])c([H])c(F)c([H])c8F)c([H])c7[H])c(C(=O)N([H])[H])c6N([H])[H])C5([H])[H])C([H])([H])C([H])([H])C4([H])[H])c3[H])c([H])c([H])c2C1([H])[H]

>  <smiles>  (59) 
[H]c1c([H])c([H])c2c(c1[H])C([H])([H])C([H])([H])C([H])([H])C2([H])N([H])C(=O)C1([H])N(C(=O)C([H])(N([H])C(=O)C([H])(N([H])C([H])([H])[H])C([H])([H])[H])C(C([H])([H])[H])(C([H])([H])[H])C([H])([H])[H])C([H])([H])c2c([H])c(OC([H])([H])C([H])([H])c3c(C([H])([H])[H])c([H])n(C([H])([H])C([H])(C([H])([H])[H])[N+]([H])([H])C([H])([H])C([H])([H])C4([H])N(C(=O)N5C([H])([H])C([H])([H])C([H])([H])C([H])(n6nc(-c7c([H])c([H])c(Oc8c([H])c([H])c(F)c([H])c8F)c([H])c7[H])c(C(=O)N([H])[H])c6N([H])[H])C5([H])[H])C([H])([H])C([H])([H])C4([H])[H])c3[H])c([H])c([H])c2C1([H])[H]

$$$$
59:0:0
     RDKit          3D

 91 99  0  0  1  0  0  0  0  0999 V2000
  -28.8120  -18.7160   20.7880 C   0  0  0  0  0  3  0  0  0  0  0  0
  -28.3050  -20.0390   20.8300 C   0  0  0  0  0  3  0  0  0  0  0  0
  -30.8890  -19.6720   20.1080 C   0  0  0  0  0  3  0  0  0  0  0  0
  -30.1530  -18.4840   20.4120 C   0  0  0  0  0  0  0  0  0  0  0  0
  -29.1060  -21.1670   20.4940 C   0  0  0  0  0  0  0  0  0  0  0  0
  -30.4020  -20.9540   20.1410 N   0  0  0  0  0  0  0  0  0  0  0  0
  -28.4450  -22.5670   20.5290 C   0  0  0  0  0  0  0  0  0  0  0  0
  -27.2430  -22.6430   20.8140 O   0  0  0  0  0  0  0  0  0  0  0  0
  -29.1810  -23.9380   20.2480 C   0  0  0  0  0  2  0  0  0  0  0  0
  -28.2000  -25.1300   19.8270 C   0  0  0  0  0  2  0  0  0  0  0  0
  -28.4830  -26.5760   20.0110 O   0  0  0  0  0  0  0  0  0  0  0  0
  -24.6630  -31.8210   23.1680 C   0  0  0  0  0  0  0  0  0  0  0  0
  -27.3660  -27.4330   19.9560 C   0  0  0  0  0  0  0  0  0  0  0  0
  -23.4940  -30.4810   21.4560 C   0  0  0  0  0  3  0  0  0  0  0  0
  -24.9810  -29.0180   19.9820 C   0  0  0  0  0  0  0  0  0  0  0  0
  -26.0310  -30.8380   21.3180 C   0  0  0  0  0  2  0  0  0  0  0  0
  -26.1380  -29.4920   20.6140 C   0  0  0  0  0  0  0  0  0  0  0  0
  -27.3330  -28.7120   20.5930 C   0  0  0  0  0  3  0  0  0  0  0  0
  -26.1850  -27.0250   19.2870 C   0  0  0  0  0  3  0  0  0  0  0  0
  -25.0070  -27.7900   19.3110 C   0  0  0  0  0  3  0  0  0  0  0  0
  -23.7310  -29.8700   20.0510 C   0  0  0  0  0  2  0  0  0  0  0  0
  -24.7470  -31.0620   22.0370 N   0  0  0  0  0  0  0  0  0  0  0  0
  -23.5700  -32.0650   23.7000 O   0  0  0  0  0  0  0  0  0  0  0  0
  -22.8330  -29.4160   22.3620 C   0  0  0  0  0  0  0  0  0  0  0  0
  -21.5030  -29.2590   22.2410 N   0  0  0  0  0  0  0  0  0  0  0  0
  -23.5130  -28.7370   23.1360 O   0  0  0  0  0  0  0  0  0  0  0  0
  -21.0120  -29.8590   21.5930 H   0  0  0  0  0  0  0  0  0  0  0  0
  -18.1110  -28.1280   22.7810 C   0  0  0  0  0  0  0  0  0  0  0  0
  -20.6840  -28.2870   22.9680 C   0  0  0  0  0  3  0  0  0  0  0  0
  -20.7160  -26.9030   22.2770 C   0  0  0  0  0  2  0  0  0  0  0  0
  -19.5660  -26.6970   21.2860 C   0  0  0  0  0  2  0  0  0  0  0  0
  -18.2150  -26.8320   21.9940 C   0  0  0  0  0  2  0  0  0  0  0  0
  -19.2690  -28.8190   23.2250 C   0  0  0  0  0  0  0  0  0  0  0  0
  -19.1160  -30.0360   23.9240 C   0  0  0  0  0  3  0  0  0  0  0  0
  -17.8360  -30.5610   24.1820 C   0  0  0  0  0  3  0  0  0  0  0  0
  -16.6920  -29.8670   23.7540 C   0  0  0  0  0  3  0  0  0  0  0  0
  -16.8310  -28.6510   23.0600 C   0  0  0  0  0  3  0  0  0  0  0  0
  -25.9320  -32.4400   23.8320 C   0  0  0  0  0  3  0  0  0  0  0  0
  -26.4080  -31.6530   25.1140 C   0  0  1  0  0  0  0  0  0  0  0  0
  -25.2820  -31.4100   26.1470 C   0  0  0  0  0  1  0  0  0  0  0  0
  -26.9960  -30.2760   24.7260 C   0  0  0  0  0  1  0  0  0  0  0  0
  -27.5460  -32.4340   25.8140 C   0  0  0  0  0  1  0  0  0  0  0  0
  -25.6190  -33.8360   24.1670 N   0  0  0  0  0  0  0  0  0  0  0  0
  -25.9460  -34.8930   23.4100 C   0  0  0  0  0  0  0  0  0  0  0  0
  -26.6120  -34.7940   22.3760 O   0  0  0  0  0  0  0  0  0  0  0  0
  -25.0300  -33.9880   24.9720 H   0  0  0  0  0  0  0  0  0  0  0  0
  -24.2080  -36.6800   23.0750 C   0  0  0  0  0  1  0  0  0  0  0  0
  -25.4590  -36.2780   23.8750 C   0  0  0  0  0  3  0  0  0  0  0  0
  -27.5850  -37.1820   24.7050 C   0  0  0  0  0  1  0  0  0  0  0  0
  -26.4860  -37.3360   23.7550 N   0  0  0  0  0  0  0  0  0  0  0  0
  -26.0740  -38.2550   23.8920 H   0  0  0  0  0  0  0  0  0  0  0  0
  -30.7700  -17.1890   20.3570 N   0  0  0  0  0  0  0  0  0  0  0  0
  -31.7450  -17.1600   20.0550 H   0  0  0  0  0  0  0  0  0  0  0  0
  -30.7980  -14.7290   20.0530 C   0  0  0  0  0  0  0  0  0  0  0  0
  -30.4440  -12.5210   18.9810 C   0  0  0  0  0  2  0  0  0  0  0  0
  -29.4430  -12.6580   17.8150 C   0  0  0  0  0  2  0  0  0  0  0  0
  -27.9990  -12.5050   18.3240 C   0  0  0  0  0  2  0  0  0  0  0  0
  -27.7080  -13.3760   19.5760 C   0  0  0  0  0  3  0  0  0  0  0  0
  -28.8230  -13.2420   20.6390 C   0  0  0  0  0  2  0  0  0  0  0  0
  -30.1040  -13.5490   19.9870 N   0  0  0  0  0  0  0  0  0  0  0  0
  -31.9390  -14.8310   19.5920 O   0  0  0  0  0  0  0  0  0  0  0  0
  -30.1470  -15.8670   20.4590 N   0  0  0  0  0  0  0  0  0  0  0  0
  -29.1920  -15.8280   20.7930 H   0  0  0  0  0  0  0  0  0  0  0  0
  -25.3650  -13.9760   20.4380 C   0  0  0  0  0  0  0  0  0  0  0  0
  -24.3120  -13.2030   20.8470 C   0  0  0  0  0  0  0  0  0  0  0  0
  -24.7630  -11.8480   20.7680 C   0  0  0  0  0  0  0  0  0  0  0  0
  -26.3880  -13.0930   20.1310 N   0  0  0  0  0  0  0  0  0  0  0  0
  -26.0340  -11.8070   20.3910 N   0  0  0  0  0  0  0  0  0  0  0  0
  -24.0380  -10.5870   20.9730 C   0  0  0  0  0  0  0  0  0  0  0  0
  -24.4860   -9.6210   21.9020 C   0  0  0  0  0  3  0  0  0  0  0  0
  -23.7610   -8.4240   22.0960 C   0  0  0  0  0  3  0  0  0  0  0  0
  -22.5750   -8.1860   21.3620 C   0  0  0  0  0  0  0  0  0  0  0  0
  -22.1460   -9.1420   20.4210 C   0  0  0  0  0  3  0  0  0  0  0  0
  -22.8710  -10.3290   20.2270 C   0  0  0  0  0  3  0  0  0  0  0  0
  -21.8200   -7.0430   21.4650 O   0  0  0  0  0  0  0  0  0  0  0  0
  -21.7590   -6.3250   22.6320 C   0  0  0  0  0  0  0  0  0  0  0  0
  -21.2400   -6.8800   23.8220 C   0  0  0  0  0  3  0  0  0  0  0  0
  -21.1290   -6.0860   24.9810 C   0  0  0  0  0  3  0  0  0  0  0  0
  -21.5290   -4.7360   24.9500 C   0  0  0  0  0  0  0  0  0  0  0  0
  -22.0400   -4.1790   23.7630 C   0  0  0  0  0  3  0  0  0  0  0  0
  -22.1510   -4.9720   22.6070 C   0  0  0  0  0  0  0  0  0  0  0  0
  -22.6240   -4.4250   21.4620 F   0  0  0  0  0  0  0  0  0  0  0  0
  -21.4160   -3.9690   26.0590 F   0  0  0  0  0  0  0  0  0  0  0  0
  -22.9350  -13.6840   21.2010 C   0  0  0  0  0  0  0  0  0  0  0  0
  -22.2510  -12.9790   22.0970 N   0  0  0  0  0  0  0  0  0  0  0  0
  -22.4740  -14.7180   20.7180 O   0  0  0  0  0  0  0  0  0  0  0  0
  -22.6370  -12.1420   22.5060 H   0  0  0  0  0  0  0  0  0  0  0  0
  -21.3290  -13.2830   22.3770 H   0  0  0  0  0  0  0  0  0  0  0  0
  -25.5340  -15.3490   20.2810 N   0  0  0  0  0  0  0  0  0  0  0  0
  -24.7920  -16.0150   20.4650 H   0  0  0  0  0  0  0  0  0  0  0  0
  -26.3770  -15.7820   19.9250 H   0  0  0  0  0  0  0  0  0  0  0  0
  1  2  1  0
  3  6  2  0
  3  4  1  0
  4  1  2  0
  5  7  1  0
  5  2  2  0
  6  5  1  0
  7  8  2  0
  9  7  1  0
 10 11  1  0
 10  9  1  0
 12 23  2  0
 13 11  1  0
 13 18  1  0
 14 22  1  0
 14 24  1  0
 15 21  1  0
 15 17  1  0
 16 22  1  0
 17 16  1  0
 18 17  2  0
 19 20  1  0
 19 13  2  0
 20 15  2  0
 21 14  1  0
 22 12  1  0
 24 26  2  0
 25 24  1  0
 27 25  1  0
 28 37  2  0
 28 33  1  0
 29 25  1  0
 29 33  1  0
 30 29  1  0
 31 32  1  0
 31 30  1  0
 32 28  1  0
 33 34  2  0
 34 35  1  0
 36 35  2  0
 37 36  1  0
 38 12  1  0
 38 43  1  0
 38 39  1  0
 39 42  1  1
 39 40  1  0
 41 39  1  0
 43 46  1  0
 44 48  1  0
 44 43  1  0
 45 44  2  0
 48 47  1  0
 50 48  1  0
 50 51  1  0
 50 49  1  0
 52  4  1  0
 52 62  1  0
 53 52  1  0
 54 62  1  0
 55 60  1  0
 56 57  1  0
 56 55  1  0
 58 57  1  0
 58 67  1  0
 58 59  1  0
 60 54  1  0
 60 59  1  0
 61 54  2  0
 62 63  1  0
 64 65  2  0
 65 84  1  0
 66 65  1  0
 66 69  1  0
 67 68  1  0
 67 64  1  0
 68 66  2  0
 69 70  1  0
 70 71  2  0
 72 75  1  0
 72 71  1  0
 73 72  2  0
 74 73  1  0
 74 69  2  0
 75 76  1  0
 76 77  1  0
 77 78  2  0
 79 78  1  0
 79 83  1  0
 80 79  2  0
 81 76  2  0
 81 80  1  0
 82 81  1  0
 84 85  1  0
 85 88  1  0
 85 87  1  0
 86 84  2  0
 89 64  1  0
 89 90  1  0
 91 89  1  0
M  ISO  4  10 101  11 101  54 100  62 100
M  END
>  <TORSDO>  (60) 
F 20

>  <SCORE>  (60) 
-13.449

>  <name>  (60) 
59

>  <ligand_id>  (60) 
59

>  <original_smiles>  (60) 
[H]c1nc(C(=O)C([H])([H])C([H])([H])Oc2c([H])c([H])c3c(c2[H])C([H])([H])N(C(=O)C([H])(N([H])C(=O)C([H])(N([H])C([H])([H])[H])C([H])([H])[H])C(C([H])([H])[H])(C([H])([H])[H])C([H])([H])[H])C([H])(C(=O)N([H])C2([H])c4c([H])c([H])c([H])c([H])c4C([H])([H])C([H])([H])C2([H])[H])C3([H])[H])c([H])c([H])c1N([H])N([H])C(=O)N1C([H])([H])C([H])([H])C([H])([H])C([H])(n2nc(-c3c([H])c([H])c(Oc4c([H])c([H])c(F)c([H])c4F)c([H])c3[H])c(C(=O)N([H])[H])c2N([H])[H])C1([H])[H]

>  <smiles>  (60) 
[H]c1nc(C(=O)C([H])([H])C([H])([H])Oc2c([H])c([H])c3c(c2[H])C([H])([H])N(C(=O)C([H])(N([H])C(=O)C([H])(N([H])C([H])([H])[H])C([H])([H])[H])C(C([H])([H])[H])(C([H])([H])[H])C([H])([H])[H])C([H])(C(=O)N([H])C2([H])c4c([H])c([H])c([H])c([H])c4C([H])([H])C([H])([H])C2([H])[H])C3([H])[H])c([H])c([H])c1N([H])N([H])C(=O)N1C([H])([H])C([H])([H])C([H])([H])C([H])(n2nc(-c3c([H])c([H])c(Oc4c([H])c([H])c(F)c([H])c4F)c([H])c3[H])c(C(=O)N([H])[H])c2N([H])[H])C1([H])[H]

$$$$
60:0:0
     RDKit          3D

 87 95  0  0  1  0  0  0  0  0999 V2000
  -28.3430  -20.3520   20.7730 C   0  0  0  0  0  3  0  0  0  0  0  0
  -30.2020  -20.9310   19.5460 C   0  0  0  0  0  3  0  0  0  0  0  0
  -27.9200  -21.7790   20.7390 C   0  0  0  0  0  3  0  0  0  0  0  0
  -29.7780  -22.3530   19.5100 C   0  0  0  0  0  3  0  0  0  0  0  0
  -29.5340  -19.7860   20.1610 C   0  0  0  0  0  0  0  0  0  0  0  0
  -28.5900  -22.9230   20.1160 C   0  0  0  0  0  0  0  0  0  0  0  0
  -30.2450  -18.2000   20.1870 C   0  0  0  0  0  2  0  0  0  0  0  0
  -30.5290  -15.3550   20.1680 C   0  0  0  0  0  0  0  0  0  0  0  0
  -30.4510  -12.9400   19.2640 C   0  0  0  0  0  2  0  0  0  0  0  0
  -29.5010  -12.7760   18.0520 C   0  0  0  0  0  2  0  0  0  0  0  0
  -28.0610  -12.5130   18.5250 C   0  0  0  0  0  2  0  0  0  0  0  0
  -27.6440  -13.4600   19.6780 C   0  0  0  0  0  3  0  0  0  0  0  0
  -28.7200  -13.5800   20.7780 C   0  0  0  0  0  2  0  0  0  0  0  0
  -29.9420  -14.0670   20.1200 N   0  0  0  0  0  0  0  0  0  0  0  0
  -31.7390  -15.3570   19.9040 O   0  0  0  0  0  0  0  0  0  0  0  0
  -29.7970  -16.6240   20.3000 N   0  0  0  0  0  0  0  0  0  0  0  0
  -28.8100  -16.4950   20.4660 H   0  0  0  0  0  0  0  0  0  0  0  0
  -25.2930  -14.0040   20.5030 C   0  0  0  0  0  0  0  0  0  0  0  0
  -24.2410  -13.2200   20.8860 C   0  0  0  0  0  0  0  0  0  0  0  0
  -24.7090  -11.8700   20.8170 C   0  0  0  0  0  0  0  0  0  0  0  0
  -26.3300  -13.1360   20.2160 N   0  0  0  0  0  0  0  0  0  0  0  0
  -25.9930  -11.8450   20.4720 N   0  0  0  0  0  0  0  0  0  0  0  0
  -23.9870  -10.6030   21.0000 C   0  0  0  0  0  0  0  0  0  0  0  0
  -24.4180   -9.6360   21.9340 C   0  0  0  0  0  3  0  0  0  0  0  0
  -23.6950   -8.4360   22.1060 C   0  0  0  0  0  3  0  0  0  0  0  0
  -22.5270   -8.1960   21.3440 C   0  0  0  0  0  0  0  0  0  0  0  0
  -22.1150   -9.1520   20.3990 C   0  0  0  0  0  3  0  0  0  0  0  0
  -22.8400  -10.3430   20.2250 C   0  0  0  0  0  3  0  0  0  0  0  0
  -21.7730   -7.0490   21.4270 O   0  0  0  0  0  0  0  0  0  0  0  0
  -21.6850   -6.3290   22.5910 C   0  0  0  0  0  0  0  0  0  0  0  0
  -21.1370   -6.8810   23.7690 C   0  0  0  0  0  3  0  0  0  0  0  0
  -21.0010   -6.0840   24.9240 C   0  0  0  0  0  3  0  0  0  0  0  0
  -21.4010   -4.7350   24.9000 C   0  0  0  0  0  0  0  0  0  0  0  0
  -21.9410   -4.1810   23.7260 C   0  0  0  0  0  3  0  0  0  0  0  0
  -22.0800   -4.9760   22.5730 C   0  0  0  0  0  0  0  0  0  0  0  0
  -22.5810   -4.4310   21.4390 F   0  0  0  0  0  0  0  0  0  0  0  0
  -21.2630   -3.9660   26.0050 F   0  0  0  0  0  0  0  0  0  0  0  0
  -22.8510  -13.6890   21.1970 C   0  0  0  0  0  0  0  0  0  0  0  0
  -22.1460  -12.9780   22.0690 N   0  0  0  0  0  0  0  0  0  0  0  0
  -22.4010  -14.7220   20.7020 O   0  0  0  0  0  0  0  0  0  0  0  0
  -22.5260  -12.1440   22.4900 H   0  0  0  0  0  0  0  0  0  0  0  0
  -21.2140  -13.2750   22.3220 H   0  0  0  0  0  0  0  0  0  0  0  0
  -25.4470  -15.3790   20.3460 N   0  0  0  0  0  0  0  0  0  0  0  0
  -24.6770  -16.0250   20.4830 H   0  0  0  0  0  0  0  0  0  0  0  0
  -26.2740  -15.8250   19.9720 H   0  0  0  0  0  0  0  0  0  0  0  0
  -27.8620  -24.4830   19.8860 C   0  0  0  0  0  2  0  0  0  0  0  0
  -28.2330  -26.0370   20.1780 O   0  0  0  0  0  0  0  0  0  0  0  0
  -24.6920  -31.9260   23.2300 C   0  0  0  0  0  0  0  0  0  0  0  0
  -27.2340  -27.1330   20.1210 C   0  0  0  0  0  0  0  0  0  0  0  0
  -23.4840  -30.5440   21.5900 C   0  0  0  0  0  3  0  0  0  0  0  0
  -24.9230  -28.9780   20.1270 C   0  0  0  0  0  0  0  0  0  0  0  0
  -26.0450  -30.7820   21.4120 C   0  0  0  0  0  2  0  0  0  0  0  0
  -26.1150  -29.3860   20.7380 C   0  0  0  0  0  0  0  0  0  0  0  0
  -27.2660  -28.4830   20.7160 C   0  0  0  0  0  3  0  0  0  0  0  0
  -26.0130  -26.8730   19.4600 C   0  0  0  0  0  3  0  0  0  0  0  0
  -24.8940  -27.7400   19.4670 C   0  0  0  0  0  3  0  0  0  0  0  0
  -23.6980  -29.8840   20.2010 C   0  0  0  0  0  2  0  0  0  0  0  0
  -24.7610  -31.1090   22.1310 N   0  0  0  0  0  0  0  0  0  0  0  0
  -23.6080  -32.2010   23.7700 O   0  0  0  0  0  0  0  0  0  0  0  0
  -22.8100  -29.5280   22.5500 C   0  0  0  0  0  0  0  0  0  0  0  0
  -21.4850  -29.3350   22.4190 N   0  0  0  0  0  0  0  0  0  0  0  0
  -23.4870  -28.9170   23.3810 O   0  0  0  0  0  0  0  0  0  0  0  0
  -20.9910  -29.8800   21.7270 H   0  0  0  0  0  0  0  0  0  0  0  0
  -18.1240  -28.0690   22.9290 C   0  0  0  0  0  0  0  0  0  0  0  0
  -20.6790  -28.3800   23.1880 C   0  0  0  0  0  3  0  0  0  0  0  0
  -20.8050  -26.9520   22.6080 C   0  0  0  0  0  2  0  0  0  0  0  0
  -19.7070  -26.6140   21.5940 C   0  0  0  0  0  2  0  0  0  0  0  0
  -18.3240  -26.7280   22.2430 C   0  0  0  0  0  2  0  0  0  0  0  0
  -19.2290  -28.8510   23.3590 C   0  0  0  0  0  0  0  0  0  0  0  0
  -18.9860  -30.1030   23.9630 C   0  0  0  0  0  3  0  0  0  0  0  0
  -17.6710  -30.5750   24.1380 C   0  0  0  0  0  3  0  0  0  0  0  0
  -16.5810  -29.7910   23.7240 C   0  0  0  0  0  3  0  0  0  0  0  0
  -16.8080  -28.5400   23.1250 C   0  0  0  0  0  3  0  0  0  0  0  0
  -25.9680  -32.5680   23.8520 C   0  0  0  0  0  3  0  0  0  0  0  0
  -25.6500  -33.9640   24.1980 N   0  0  0  0  0  0  0  0  0  0  0  0
  -25.9410  -35.0280   23.4380 C   0  0  0  0  0  0  0  0  0  0  0  0
  -26.5700  -34.9390   22.3810 O   0  0  0  0  0  0  0  0  0  0  0  0
  -25.0870  -34.1050   25.0250 H   0  0  0  0  0  0  0  0  0  0  0  0
  -24.1820  -36.8090   23.1780 C   0  0  0  0  0  1  0  0  0  0  0  0
  -25.4620  -36.4100   23.9280 C   0  0  0  0  0  3  0  0  0  0  0  0
  -27.6120  -37.3250   24.6820 C   0  0  0  0  0  1  0  0  0  0  0  0
  -26.4770  -37.4760   23.7750 N   0  0  0  0  0  0  0  0  0  0  0  0
  -26.0640  -38.3910   23.9330 H   0  0  0  0  0  0  0  0  0  0  0  0
  -26.4890  -31.7970   25.1280 C   0  0  1  0  0  0  0  0  0  0  0  0
  -25.3970  -31.5480   26.1950 C   0  0  0  0  0  1  0  0  0  0  0  0
  -27.0830  -30.4240   24.7400 C   0  0  0  0  0  1  0  0  0  0  0  0
  -27.6310  -32.5980   25.7940 C   0  0  0  0  0  1  0  0  0  0  0  0
  2  5  1  0
  3  1  1  0
  4  2  2  0
  4  6  1  0
  5  7  1  0
  5  1  2  0
  6  3  2  0
  7 16  1  0
  8 16  1  0
  9 14  1  0
 10 11  1  0
 10  9  1  0
 12 11  1  0
 12 21  1  0
 12 13  1  0
 14  8  1  0
 14 13  1  0
 15  8  2  0
 16 17  1  0
 18 19  2  0
 19 38  1  0
 20 19  1  0
 20 23  1  0
 21 22  1  0
 21 18  1  0
 22 20  2  0
 23 24  1  0
 24 25  2  0
 26 29  1  0
 26 25  1  0
 27 26  2  0
 28 27  1  0
 28 23  2  0
 29 30  1  0
 30 31  1  0
 31 32  2  0
 33 32  1  0
 33 37  1  0
 34 33  2  0
 35 30  2  0
 35 34  1  0
 36 35  1  0
 38 39  1  0
 39 42  1  0
 39 41  1  0
 40 38  2  0
 43 44  1  0
 43 18  1  0
 45 43  1  0
 46  6  1  0
 46 47  1  0
 48 59  2  0
 49 47  1  0
 49 54  1  0
 50 58  1  0
 50 60  1  0
 51 57  1  0
 51 53  1  0
 52 58  1  0
 53 52  1  0
 54 53  2  0
 55 56  1  0
 55 49  2  0
 56 51  2  0
 57 50  1  0
 58 48  1  0
 60 62  2  0
 61 60  1  0
 63 61  1  0
 64 73  2  0
 64 69  1  0
 65 61  1  0
 65 69  1  0
 66 65  1  0
 67 68  1  0
 67 66  1  0
 68 64  1  0
 69 70  2  0
 70 71  1  0
 72 71  2  0
 73 72  1  0
 74 48  1  0
 74 75  1  0
 74 84  1  0
 75 78  1  0
 76 80  1  0
 76 75  1  0
 77 76  2  0
 80 79  1  0
 82 80  1  0
 82 83  1  0
 82 81  1  0
 84 87  1  1
 84 85  1  0
 86 84  1  0
M  ISO  4   8 100  16 100  46 101  47 101
M  END
>  <TORSDO>  (61) 
F 18

>  <SCORE>  (61) 
-15.768

>  <name>  (61) 
60

>  <ligand_id>  (61) 
60

>  <original_smiles>  (61) 
[H]c1c([H])c([H])c2c(c1[H])C([H])([H])C([H])([H])C([H])([H])C2([H])N([H])C(=O)C1([H])N(C(=O)C([H])(N([H])C(=O)C([H])(N([H])C([H])([H])[H])C([H])([H])[H])C(C([H])([H])[H])(C([H])([H])[H])C([H])([H])[H])C([H])([H])c2c([H])c(OC([H])([H])c3c([H])c([H])c(C([H])([H])N([H])C(=O)N4C([H])([H])C([H])([H])C([H])([H])C([H])(n5nc(-c6c([H])c([H])c(Oc7c([H])c([H])c(F)c([H])c7F)c([H])c6[H])c(C(=O)N([H])[H])c5N([H])[H])C4([H])[H])c([H])c3[H])c([H])c([H])c2C1([H])[H]

>  <smiles>  (61) 
[H]c1c([H])c([H])c2c(c1[H])C([H])([H])C([H])([H])C([H])([H])C2([H])N([H])C(=O)C1([H])N(C(=O)C([H])(N([H])C(=O)C([H])(N([H])C([H])([H])[H])C([H])([H])[H])C(C([H])([H])[H])(C([H])([H])[H])C([H])([H])[H])C([H])([H])c2c([H])c(OC([H])([H])c3c([H])c([H])c(C([H])([H])N([H])C(=O)N4C([H])([H])C([H])([H])C([H])([H])C([H])(n5nc(-c6c([H])c([H])c(Oc7c([H])c([H])c(F)c([H])c7F)c([H])c6[H])c(C(=O)N([H])[H])c5N([H])[H])C4([H])[H])c([H])c3[H])c([H])c([H])c2C1([H])[H]

$$$$
61:0:0
     RDKit          3D

 98108  0  0  1  0  0  0  0  0999 V2000
  -30.9960  -21.4960   19.8600 C   0  0  0  0  0  2  0  0  0  0  0  0
  -28.7570  -21.4750   21.0460 C   0  0  0  0  0  2  0  0  0  0  0  0
  -30.9470  -23.0340   19.8800 C   0  0  0  0  0  2  0  0  0  0  0  0
  -28.7880  -23.0110   21.0470 C   0  0  0  0  0  2  0  0  0  0  0  0
  -30.1730  -20.8670   21.0020 C   0  0  0  0  0  3  0  0  0  0  0  0
  -29.5480  -23.5370   19.8820 N   0  0  1  0  0  4  0  0  0  0  0  0
  -29.1220  -23.1650   19.0440 H   0  0  0  0  0  0  0  0  0  0  0  0
  -30.9670  -18.5080   21.6320 C   0  0  0  0  0  3  0  0  0  0  0  0
  -30.8550  -17.1080   21.4980 C   0  0  0  0  0  0  0  0  0  0  0  0
  -29.8710  -16.6100   20.6100 C   0  0  0  0  0  0  0  0  0  0  0  0
  -30.1170  -19.3470   20.8870 C   0  0  0  0  0  0  0  0  0  0  0  0
  -29.0660  -17.5320   19.9040 C   0  0  0  0  0  0  0  0  0  0  0  0
  -27.9660  -17.0880   18.9640 C   0  0  0  0  0  1  0  0  0  0  0  0
  -29.1960  -18.8630   20.0320 N   0  0  0  0  0  0  0  0  0  0  0  0
  -29.8990  -14.5620   19.3010 C   0  0  0  0  0  0  0  0  0  0  0  0
  -29.2880  -12.6290   17.8960 C   0  0  0  0  0  2  0  0  0  0  0  0
  -28.0730  -12.9620   17.0100 C   0  0  0  0  0  2  0  0  0  0  0  0
  -26.7580  -12.6800   17.7600 C   0  0  0  0  0  2  0  0  0  0  0  0
  -26.7330  -13.3200   19.1720 C   0  0  0  0  0  3  0  0  0  0  0  0
  -28.0300  -12.9910   19.9460 C   0  0  0  0  0  2  0  0  0  0  0  0
  -29.1880  -13.4160   19.1340 N   0  0  0  0  0  0  0  0  0  0  0  0
  -30.7250  -14.9760   18.4830 O   0  0  0  0  0  0  0  0  0  0  0  0
  -29.6620  -15.2170   20.4450 N   0  0  0  0  0  0  0  0  0  0  0  0
  -29.0130  -14.7730   21.0760 H   0  0  0  0  0  0  0  0  0  0  0  0
  -24.5290  -13.7090   20.4520 C   0  0  0  0  0  0  0  0  0  0  0  0
  -23.6210  -12.8410   20.9960 C   0  0  0  0  0  0  0  0  0  0  0  0
  -24.1320  -11.5310   20.7450 C   0  0  0  0  0  0  0  0  0  0  0  0
  -25.5390  -12.9230   19.9180 N   0  0  0  0  0  0  0  0  0  0  0  0
  -25.3130  -11.6040   20.1440 N   0  0  0  0  0  0  0  0  0  0  0  0
  -23.5380  -10.2110   20.9870 C   0  0  0  0  0  0  0  0  0  0  0  0
  -24.0720   -9.3270   21.9510 C   0  0  0  0  0  3  0  0  0  0  0  0
  -23.4710   -8.0700   22.1790 C   0  0  0  0  0  3  0  0  0  0  0  0
  -22.3250   -7.6870   21.4420 C   0  0  0  0  0  0  0  0  0  0  0  0
  -21.8120   -8.5620   20.4680 C   0  0  0  0  0  3  0  0  0  0  0  0
  -22.4140   -9.8100   20.2390 C   0  0  0  0  0  3  0  0  0  0  0  0
  -21.6910   -6.4760   21.5780 O   0  0  0  0  0  0  0  0  0  0  0  0
  -21.5750   -5.8570   22.7970 C   0  0  0  0  0  0  0  0  0  0  0  0
  -20.8910   -6.4600   23.8760 C   0  0  0  0  0  3  0  0  0  0  0  0
  -20.7350   -5.7590   25.0890 C   0  0  0  0  0  3  0  0  0  0  0  0
  -21.2520   -4.4570   25.2220 C   0  0  0  0  0  0  0  0  0  0  0  0
  -21.9290   -3.8550   24.1470 C   0  0  0  0  0  3  0  0  0  0  0  0
  -22.0870   -4.5520   22.9370 C   0  0  0  0  0  0  0  0  0  0  0  0
  -22.7220   -3.9590   21.8970 F   0  0  0  0  0  0  0  0  0  0  0  0
  -21.0970   -3.7810   26.3840 F   0  0  0  0  0  0  0  0  0  0  0  0
  -22.3040  -13.1980   21.6240 C   0  0  0  0  0  0  0  0  0  0  0  0
  -21.8640  -12.4200   22.6060 N   0  0  0  0  0  0  0  0  0  0  0  0
  -21.6830  -14.2020   21.2790 O   0  0  0  0  0  0  0  0  0  0  0  0
  -22.3840  -11.6070   22.9030 H   0  0  0  0  0  0  0  0  0  0  0  0
  -20.9920  -12.6390   23.0670 H   0  0  0  0  0  0  0  0  0  0  0  0
  -24.5650  -15.0960   20.3500 N   0  0  0  0  0  0  0  0  0  0  0  0
  -23.7920  -15.6740   20.6600 H   0  0  0  0  0  0  0  0  0  0  0  0
  -25.2430  -15.6040   19.8010 H   0  0  0  0  0  0  0  0  0  0  0  0
  -31.2670  -14.8970   22.8560 C   0  0  0  0  0  2  0  0  0  0  0  0
  -31.6710  -16.0330   23.7670 C   0  0  0  0  0  2  0  0  0  0  0  0
  -31.7680  -16.1940   22.2650 C   0  0  0  0  0  3  0  0  0  0  0  0
  -29.4810  -25.0200   19.7730 C   0  0  0  0  0  2  0  0  0  0  0  0
  -28.1300  -25.5200   19.2300 C   0  0  0  0  0  2  0  0  0  0  0  0
  -28.1100  -26.9310   19.3950 O   0  0  0  0  0  0  0  0  0  0  0  0
  -24.3430  -31.6770   23.0650 C   0  0  0  0  0  0  0  0  0  0  0  0
  -26.8900  -27.5490   19.5250 C   0  0  0  0  0  0  0  0  0  0  0  0
  -23.0600  -30.3470   21.4170 C   0  0  0  0  0  3  0  0  0  0  0  0
  -24.4500  -28.9460   19.8010 C   0  0  0  0  0  0  0  0  0  0  0  0
  -25.5510  -30.8020   21.0720 C   0  0  0  0  0  2  0  0  0  0  0  0
  -25.6280  -29.4810   20.3380 C   0  0  0  0  0  0  0  0  0  0  0  0
  -26.8490  -28.7910   20.1920 C   0  0  0  0  0  3  0  0  0  0  0  0
  -25.6920  -27.0130   18.9980 C   0  0  0  0  0  3  0  0  0  0  0  0
  -24.4740  -27.7100   19.1310 C   0  0  0  0  0  3  0  0  0  0  0  0
  -23.1890  -29.7590   19.9850 C   0  0  0  0  0  2  0  0  0  0  0  0
  -24.3390  -30.9530   21.9090 N   0  0  0  0  0  0  0  0  0  0  0  0
  -23.2970  -31.8830   23.6930 O   0  0  0  0  0  0  0  0  0  0  0  0
  -22.5040  -29.2480   22.3500 C   0  0  0  0  0  0  0  0  0  0  0  0
  -21.1910  -28.9890   22.2470 N   0  0  0  0  0  0  0  0  0  0  0  0
  -23.2500  -28.6330   23.1180 O   0  0  0  0  0  0  0  0  0  0  0  0
  -20.6500  -29.5410   21.5970 H   0  0  0  0  0  0  0  0  0  0  0  0
  -17.9150  -27.5540   22.7540 C   0  0  0  0  0  0  0  0  0  0  0  0
  -20.4540  -27.9710   22.9950 C   0  0  0  0  0  3  0  0  0  0  0  0
  -20.6420  -26.5730   22.3610 C   0  0  0  0  0  2  0  0  0  0  0  0
  -19.5440  -26.2160   21.3540 C   0  0  0  0  0  2  0  0  0  0  0  0
  -18.1680  -26.2440   22.0260 C   0  0  0  0  0  2  0  0  0  0  0  0
  -18.9880  -28.3720   23.1940 C   0  0  0  0  0  0  0  0  0  0  0  0
  -18.7000  -29.5980   23.8340 C   0  0  0  0  0  3  0  0  0  0  0  0
  -17.3690  -30.0060   24.0400 C   0  0  0  0  0  3  0  0  0  0  0  0
  -16.3100  -29.1840   23.6180 C   0  0  0  0  0  3  0  0  0  0  0  0
  -16.5830  -27.9610   22.9800 C   0  0  0  0  0  3  0  0  0  0  0  0
  -25.6550  -32.3000   23.6370 C   0  0  0  0  0  3  0  0  0  0  0  0
  -26.2710  -31.4690   24.8290 C   0  0  1  0  0  0  0  0  0  0  0  0
  -25.2540  -31.1390   25.9440 C   0  0  0  0  0  1  0  0  0  0  0  0
  -26.8630  -30.1370   24.3140 C   0  0  0  0  0  1  0  0  0  0  0  0
  -27.4400  -32.2570   25.4680 C   0  0  0  0  0  1  0  0  0  0  0  0
  -25.3430  -33.6690   24.0660 N   0  0  0  0  0  0  0  0  0  0  0  0
  -25.5920  -34.7680   23.3420 C   0  0  0  0  0  0  0  0  0  0  0  0
  -26.1840  -34.7390   22.2610 O   0  0  0  0  0  0  0  0  0  0  0  0
  -24.8110  -33.7650   24.9180 H   0  0  0  0  0  0  0  0  0  0  0  0
  -23.8090  -36.5340   23.2080 C   0  0  0  0  0  1  0  0  0  0  0  0
  -25.1090  -36.1160   23.9110 C   0  0  0  0  0  3  0  0  0  0  0  0
  -27.2670  -37.0110   24.6630 C   0  0  0  0  0  1  0  0  0  0  0  0
  -26.1090  -37.1980   23.7920 N   0  0  0  0  0  0  0  0  0  0  0  0
  -25.6930  -38.1000   24.0090 H   0  0  0  0  0  0  0  0  0  0  0  0
  1  3  1  0
  1  5  1  0
  2  4  1  0
  3  6  1  0
  5 11  1  0
  5  2  1  0
  6  4  1  0
  6  7  1  6
  9  8  1  0
  9 55  1  0
 10  9  2  0
 11  8  2  0
 12 14  2  0
 12 10  1  0
 13 12  1  0
 14 11  1  0
 15 23  1  0
 16 21  1  0
 17 18  1  0
 17 16  1  0
 19 18  1  0
 19 28  1  0
 19 20  1  0
 21 15  1  0
 21 20  1  0
 22 15  2  0
 23 10  1  0
 23 24  1  0
 25 26  2  0
 26 45  1  0
 27 30  1  0
 27 26  1  0
 28 29  1  0
 28 25  1  0
 29 27  2  0
 30 31  1  0
 31 32  2  0
 33 36  1  0
 33 32  1  0
 34 33  2  0
 35 34  1  0
 35 30  2  0
 36 37  1  0
 37 42  2  0
 37 38  1  0
 38 39  2  0
 39 40  1  0
 40 44  1  0
 41 40  2  0
 42 41  1  0
 43 42  1  0
 45 46  1  0
 46 48  1  0
 46 49  1  0
 47 45  2  0
 50 25  1  0
 50 51  1  0
 52 50  1  0
 53 54  1  0
 55 53  1  0
 55 54  1  0
 56  6  1  0
 57 58  1  0
 57 56  1  0
 58 60  1  0
 59 70  2  0
 60 65  1  0
 61 69  1  0
 61 71  1  0
 62 68  1  0
 62 64  1  0
 63 69  1  0
 64 63  1  0
 65 64  2  0
 66 67  1  0
 66 60  2  0
 67 62  2  0
 68 61  1  0
 69 59  1  0
 71 73  2  0
 72 71  1  0
 74 72  1  0
 75 84  2  0
 75 80  1  0
 76 72  1  0
 76 80  1  0
 77 76  1  0
 78 79  1  0
 78 77  1  0
 79 75  1  0
 80 81  2  0
 81 82  1  0
 83 82  2  0
 84 83  1  0
 85 59  1  0
 85 90  1  0
 85 86  1  0
 86 89  1  1
 86 87  1  0
 88 86  1  0
 90 93  1  0
 91 95  1  0
 91 90  1  0
 92 91  2  0
 95 94  1  0
 97 95  1  0
 97 98  1  0
 97 96  1  0
M  ISO  4  15 100  23 100  57 101  58 101
M  END
>  <TORSDO>  (62) 
F 20

>  <SCORE>  (62) 
-4.763

>  <name>  (62) 
61

>  <ligand_id>  (62) 
61

>  <original_smiles>  (62) 
[H]c1c([H])c([H])c2c(c1[H])C([H])([H])C([H])([H])C([H])([H])C2([H])N([H])C(=O)C1([H])N(C(=O)C([H])(N([H])C(=O)C([H])(N([H])C([H])([H])[H])C([H])([H])[H])C(C([H])([H])[H])(C([H])([H])[H])C([H])([H])[H])C([H])([H])c2c([H])c(OC([H])([H])C([H])([H])[N+]3([H])C([H])([H])C([H])([H])C([H])(c4nc(C([H])([H])[H])c(N([H])C(=O)N5C([H])([H])C([H])([H])C([H])([H])C([H])(n6nc(-c7c([H])c([H])c(Oc8c([H])c([H])c(F)c([H])c8F)c([H])c7[H])c(C(=O)N([H])[H])c6N([H])[H])C5([H])[H])c(C5([H])C([H])([H])C5([H])[H])c4[H])C([H])([H])C3([H])[H])c([H])c([H])c2C1([H])[H]

>  <smiles>  (62) 
[H]c1c([H])c([H])c2c(c1[H])C([H])([H])C([H])([H])C([H])([H])C2([H])N([H])C(=O)C1([H])N(C(=O)C([H])(N([H])C(=O)C([H])(N([H])C([H])([H])[H])C([H])([H])[H])C(C([H])([H])[H])(C([H])([H])[H])C([H])([H])[H])C([H])([H])c2c([H])c(OC([H])([H])C([H])([H])[N+]3([H])C([H])([H])C([H])([H])C([H])(c4nc(C([H])([H])[H])c(N([H])C(=O)N5C([H])([H])C([H])([H])C([H])([H])C([H])(n6nc(-c7c([H])c([H])c(Oc8c([H])c([H])c(F)c([H])c8F)c([H])c7[H])c(C(=O)N([H])[H])c6N([H])[H])C5([H])[H])c(C5([H])C([H])([H])C5([H])[H])c4[H])C([H])([H])C3([H])[H])c([H])c([H])c2C1([H])[H]

$$$$
62:0:0
     RDKit          3D

 91 99  0  0  1  0  0  0  0  0999 V2000
  -28.3100  -22.3290   21.9150 C   0  0  0  0  0  2  0  0  0  0  0  0
  -29.8340  -22.5920   19.9590 C   0  0  0  0  0  2  0  0  0  0  0  0
  -28.2610  -20.8070   21.6560 C   0  0  0  0  0  2  0  0  0  0  0  0
  -29.7810  -21.0540   19.7430 C   0  0  0  0  0  2  0  0  0  0  0  0
  -28.5500  -23.1390   20.6250 C   0  0  0  0  0  3  0  0  0  0  0  0
  -29.5050  -20.3110   21.0070 N   0  0  2  0  0  4  0  0  0  0  0  0
  -30.2530  -20.5380   21.6470 H   0  0  0  0  0  0  0  0  0  0  0  0
  -28.5640  -24.6630   20.9430 C   0  0  0  0  0  2  0  0  0  0  0  0
  -28.8330  -25.6220   19.7600 C   0  0  0  0  0  2  0  0  0  0  0  0
  -28.7150  -27.0010   20.1580 O   0  0  0  0  0  0  0  0  0  0  0  0
  -24.6950  -31.9710   23.3070 C   0  0  0  0  0  0  0  0  0  0  0  0
  -27.4900  -27.6490   20.1670 C   0  0  0  0  0  0  0  0  0  0  0  0
  -23.5420  -30.5730   21.6230 C   0  0  0  0  0  3  0  0  0  0  0  0
  -25.0500  -29.1000   20.1850 C   0  0  0  0  0  0  0  0  0  0  0  0
  -26.0600  -31.0000   21.4600 C   0  0  0  0  0  2  0  0  0  0  0  0
  -26.1870  -29.6420   20.7940 C   0  0  0  0  0  0  0  0  0  0  0  0
  -27.4070  -28.9240   20.7810 C   0  0  0  0  0  3  0  0  0  0  0  0
  -26.3240  -27.1180   19.5670 C   0  0  0  0  0  3  0  0  0  0  0  0
  -25.1140  -27.8380   19.5700 C   0  0  0  0  0  3  0  0  0  0  0  0
  -23.7830  -29.9280   20.2320 C   0  0  0  0  0  2  0  0  0  0  0  0
  -24.7830  -31.1950   22.1890 N   0  0  0  0  0  0  0  0  0  0  0  0
  -23.6000  -32.2050   23.8390 O   0  0  0  0  0  0  0  0  0  0  0  0
  -22.9060  -29.5160   22.5550 C   0  0  0  0  0  0  0  0  0  0  0  0
  -21.5900  -29.2970   22.4010 N   0  0  0  0  0  0  0  0  0  0  0  0
  -23.5940  -28.8960   23.3710 O   0  0  0  0  0  0  0  0  0  0  0  0
  -21.0970  -29.8500   21.7140 H   0  0  0  0  0  0  0  0  0  0  0  0
  -18.2400  -28.0110   22.8210 C   0  0  0  0  0  0  0  0  0  0  0  0
  -20.7860  -28.3220   23.1360 C   0  0  0  0  0  3  0  0  0  0  0  0
  -20.9320  -26.9090   22.5250 C   0  0  0  0  0  2  0  0  0  0  0  0
  -19.8510  -26.5840   21.4880 C   0  0  0  0  0  2  0  0  0  0  0  0
  -18.4580  -26.6810   22.1180 C   0  0  0  0  0  2  0  0  0  0  0  0
  -19.3340  -28.7880   23.2850 C   0  0  0  0  0  0  0  0  0  0  0  0
  -19.0800  -30.0320   23.9010 C   0  0  0  0  0  3  0  0  0  0  0  0
  -17.7620  -30.5010   24.0590 C   0  0  0  0  0  3  0  0  0  0  0  0
  -16.6820  -29.7190   23.6170 C   0  0  0  0  0  3  0  0  0  0  0  0
  -16.9210  -28.4760   23.0030 C   0  0  0  0  0  3  0  0  0  0  0  0
  -25.9570  -32.6200   23.9570 C   0  0  0  0  0  3  0  0  0  0  0  0
  -25.6310  -34.0200   24.2580 N   0  0  0  0  0  0  0  0  0  0  0  0
  -25.9770  -35.0620   23.4920 C   0  0  0  0  0  0  0  0  0  0  0  0
  -26.6770  -34.9490   22.4820 O   0  0  0  0  0  0  0  0  0  0  0  0
  -25.0170  -34.1830   25.0430 H   0  0  0  0  0  0  0  0  0  0  0  0
  -24.2440  -36.8300   23.0620 C   0  0  0  0  0  1  0  0  0  0  0  0
  -25.4660  -36.4540   23.9130 C   0  0  0  0  0  3  0  0  0  0  0  0
  -27.5680  -37.3730   24.7900 C   0  0  0  0  0  1  0  0  0  0  0  0
  -26.4930  -37.5130   23.8100 N   0  0  0  0  0  0  0  0  0  0  0  0
  -26.0750  -38.4320   23.9270 H   0  0  0  0  0  0  0  0  0  0  0  0
  -26.4440  -31.8680   25.2550 C   0  0  1  0  0  0  0  0  0  0  0  0
  -25.3180  -31.6080   26.2840 C   0  0  0  0  0  1  0  0  0  0  0  0
  -27.0720  -30.5040   24.8870 C   0  0  0  0  0  1  0  0  0  0  0  0
  -27.5520  -32.6910   25.9530 C   0  0  0  0  0  1  0  0  0  0  0  0
  -29.5140  -18.8180   20.8730 C   0  0  0  0  0  2  0  0  0  0  0  0
  -30.9300  -18.2070   20.6770 C   0  0  0  0  0  2  0  0  0  0  0  0
  -31.2490  -16.9190   21.4920 C   0  0  0  0  0  2  0  0  0  0  0  0
  -31.2110  -14.6930   20.3230 C   0  0  0  0  0  0  0  0  0  0  0  0
  -30.8730  -12.5040   19.2220 C   0  0  0  0  0  2  0  0  0  0  0  0
  -29.9310  -12.6550   18.0130 C   0  0  0  0  0  2  0  0  0  0  0  0
  -28.4580  -12.5460   18.4530 C   0  0  0  0  0  2  0  0  0  0  0  0
  -28.1310  -13.4500   19.6710 C   0  0  0  0  0  3  0  0  0  0  0  0
  -29.1800  -13.2680   20.7890 C   0  0  0  0  0  2  0  0  0  0  0  0
  -30.5080  -13.5330   20.2100 N   0  0  0  0  0  0  0  0  0  0  0  0
  -32.3050  -14.8700   19.7820 O   0  0  0  0  0  0  0  0  0  0  0  0
  -30.6150  -15.6710   21.0320 N   0  0  0  0  0  0  0  0  0  0  0  0
  -29.7130  -15.4400   21.4210 H   0  0  0  0  0  0  0  0  0  0  0  0
  -25.7590  -14.1310   20.4030 C   0  0  0  0  0  0  0  0  0  0  0  0
  -24.6700  -13.3920   20.7780 C   0  0  0  0  0  0  0  0  0  0  0  0
  -25.0880  -12.0260   20.7370 C   0  0  0  0  0  0  0  0  0  0  0  0
  -26.7740  -13.2180   20.1590 N   0  0  0  0  0  0  0  0  0  0  0  0
  -26.3730  -11.9470   20.4160 N   0  0  0  0  0  0  0  0  0  0  0  0
  -24.3250  -10.7860   20.9280 C   0  0  0  0  0  0  0  0  0  0  0  0
  -24.6970   -9.8320   21.9010 C   0  0  0  0  0  3  0  0  0  0  0  0
  -23.9370   -8.6560   22.0780 C   0  0  0  0  0  3  0  0  0  0  0  0
  -22.7910   -8.4250   21.2800 C   0  0  0  0  0  0  0  0  0  0  0  0
  -22.4390   -9.3660   20.2970 C   0  0  0  0  0  3  0  0  0  0  0  0
  -23.1990  -10.5340   20.1200 C   0  0  0  0  0  3  0  0  0  0  0  0
  -22.0080   -7.2980   21.3630 O   0  0  0  0  0  0  0  0  0  0  0  0
  -21.8420   -6.6230   22.5450 C   0  0  0  0  0  0  0  0  0  0  0  0
  -21.3020   -7.2490   23.6910 C   0  0  0  0  0  3  0  0  0  0  0  0
  -21.0840   -6.5000   24.8650 C   0  0  0  0  0  3  0  0  0  0  0  0
  -21.3940   -5.1270   24.8930 C   0  0  0  0  0  0  0  0  0  0  0  0
  -21.9260   -4.5020   23.7510 C   0  0  0  0  0  3  0  0  0  0  0  0
  -22.1460   -5.2480   22.5800 C   0  0  0  0  0  0  0  0  0  0  0  0
  -22.6390   -4.6360   21.4760 F   0  0  0  0  0  0  0  0  0  0  0  0
  -21.1770   -4.4050   26.0170 F   0  0  0  0  0  0  0  0  0  0  0  0
  -23.2920  -13.9100   21.0680 C   0  0  0  0  0  0  0  0  0  0  0  0
  -22.5590  -13.2420   21.9500 N   0  0  0  0  0  0  0  0  0  0  0  0
  -22.8760  -14.9440   20.5450 O   0  0  0  0  0  0  0  0  0  0  0  0
  -22.9070  -12.4040   22.3910 H   0  0  0  0  0  0  0  0  0  0  0  0
  -21.6340  -13.5730   22.1890 H   0  0  0  0  0  0  0  0  0  0  0  0
  -25.9670  -15.4970   20.2300 N   0  0  0  0  0  0  0  0  0  0  0  0
  -25.2220  -16.1760   20.3370 H   0  0  0  0  0  0  0  0  0  0  0  0
  -26.8260  -15.9020   19.8810 H   0  0  0  0  0  0  0  0  0  0  0  0
  2  5  1  0
  3  1  1  0
  4  2  1  0
  4  6  1  0
  5  8  1  0
  5  1  1  0
  6  7  1  1
  6  3  1  0
  9 10  1  0
  9  8  1  0
 10 12  1  0
 11 22  2  0
 12 17  1  0
 13 21  1  0
 13 23  1  0
 14 20  1  0
 14 16  1  0
 15 21  1  0
 16 15  1  0
 17 16  2  0
 18 19  1  0
 18 12  2  0
 19 14  2  0
 20 13  1  0
 21 11  1  0
 23 25  2  0
 24 23  1  0
 26 24  1  0
 27 36  2  0
 27 32  1  0
 28 24  1  0
 28 32  1  0
 29 28  1  0
 30 31  1  0
 30 29  1  0
 31 27  1  0
 32 33  2  0
 33 34  1  0
 35 34  2  0
 36 35  1  0
 37 11  1  0
 37 38  1  0
 37 47  1  0
 38 41  1  0
 39 43  1  0
 39 38  1  0
 40 39  2  0
 43 42  1  0
 45 43  1  0
 45 46  1  0
 45 44  1  0
 47 50  1  1
 47 48  1  0
 49 47  1  0
 51  6  1  0
 52 51  1  0
 52 53  1  0
 54 62  1  0
 55 60  1  0
 56 57  1  0
 56 55  1  0
 58 57  1  0
 58 67  1  0
 58 59  1  0
 60 54  1  0
 60 59  1  0
 61 54  2  0
 62 63  1  0
 62 53  1  0
 64 65  2  0
 65 84  1  0
 66 65  1  0
 66 69  1  0
 67 64  1  0
 67 68  1  0
 68 66  2  0
 69 70  1  0
 70 71  2  0
 72 75  1  0
 72 71  1  0
 73 72  2  0
 74 73  1  0
 74 69  2  0
 75 76  1  0
 76 81  2  0
 76 77  1  0
 77 78  2  0
 78 79  1  0
 79 83  1  0
 80 79  2  0
 81 80  1  0
 82 81  1  0
 84 85  1  0
 85 88  1  0
 85 87  1  0
 86 84  2  0
 89 90  1  0
 89 64  1  0
 91 89  1  0
M  ISO  4   9 101  10 101  54 100  62 100
M  END
>  <TORSDO>  (63) 
F 21

>  <SCORE>  (63) 
-12.479

>  <name>  (63) 
62

>  <ligand_id>  (63) 
62

>  <original_smiles>  (63) 
[H]c1c([H])c([H])c2c(c1[H])C([H])([H])C([H])([H])C([H])([H])C2([H])N([H])C(=O)C1([H])N(C(=O)C([H])(N([H])C(=O)C([H])(N([H])C([H])([H])[H])C([H])([H])[H])C(C([H])([H])[H])(C([H])([H])[H])C([H])([H])[H])C([H])([H])c2c([H])c(OC([H])([H])C([H])([H])C3([H])C([H])([H])C([H])([H])[N+]([H])(C([H])([H])C([H])([H])C([H])([H])N([H])C(=O)N4C([H])([H])C([H])([H])C([H])([H])C([H])(n5nc(-c6c([H])c([H])c(Oc7c([H])c([H])c(F)c([H])c7F)c([H])c6[H])c(C(=O)N([H])[H])c5N([H])[H])C4([H])[H])C([H])([H])C3([H])[H])c([H])c([H])c2C1([H])[H]

>  <smiles>  (63) 
[H]c1c([H])c([H])c2c(c1[H])C([H])([H])C([H])([H])C([H])([H])C2([H])N([H])C(=O)C1([H])N(C(=O)C([H])(N([H])C(=O)C([H])(N([H])C([H])([H])[H])C([H])([H])[H])C(C([H])([H])[H])(C([H])([H])[H])C([H])([H])[H])C([H])([H])c2c([H])c(OC([H])([H])C([H])([H])C3([H])C([H])([H])C([H])([H])[N+]([H])(C([H])([H])C([H])([H])C([H])([H])N([H])C(=O)N4C([H])([H])C([H])([H])C([H])([H])C([H])(n5nc(-c6c([H])c([H])c(Oc7c([H])c([H])c(F)c([H])c7F)c([H])c6[H])c(C(=O)N([H])[H])c5N([H])[H])C4([H])[H])C([H])([H])C3([H])[H])c([H])c([H])c2C1([H])[H]

$$$$
63:0:0
     RDKit          3D

 99 98  0  0  1  0  0  0  0  0999 V2000
  -27.6200  -15.0810   21.8260 C   0  0  0  0  0 15  0  0  0  0  0  0
  -27.8290  -12.9850   20.6480 C   0  0  0  0  0 15  0  0  0  0  0  0
  -27.3050  -17.1520   21.2090 C   0  0  0  0  0 15  0  0  0  0  0  0
  -26.5990  -13.3710   18.4960 C   0  0  0  0  0 15  0  0  0  0  0  0
  -26.3450  -17.1280   18.5310 C   0  0  0  0  0 15  0  0  0  0  0  0
  -26.9980  -18.7130   19.7630 C   0  0  0  0  0  1  0  0  0  0  0  0
  -25.9990  -15.2490   18.2160 N   0  0  0  0  0  2  0  0  0  0  0  0
  -25.7540  -15.2340   17.2410 H   0  0  0  0  0  0  0  0  0  0  0  0
  -25.1030  -15.2030   18.6860 H   0  0  0  0  0  0  0  0  0  0  0  0
  -28.3640  -19.0670   19.0470 C   0  0  0  0  0  2  0  0  0  0  0  0
  -30.5900  -17.8440   19.0570 C   0  0  0  0  0  3  0  0  0  0  0  0
  -30.2370  -19.6060   20.7010 C   0  0  0  0  0  3  0  0  0  0  0  0
  -29.7350  -18.8050   19.6470 C   0  0  0  0  0  0  0  0  0  0  0  0
  -31.9110  -17.7230   19.5350 C   0  0  0  0  0  0  0  0  0  0  0  0
  -31.5410  -19.3580   21.1720 C   0  0  0  0  0  0  0  0  0  0  0  0
  -32.3690  -18.4920   20.5490 N   0  0  0  0  0  0  0  0  0  0  0  0
  -33.1800  -19.5270   22.9760 C   0  0  0  0  0  1  0  0  0  0  0  0
  -32.0290  -20.0340   22.2780 O   0  0  0  0  0  0  0  0  0  0  0  0
  -32.8420  -16.5830   19.0700 C   0  0  0  0  0  2  0  0  0  0  0  0
  -31.9310  -15.0240   20.6850 C   0  0  0  0  0  0  0  0  0  0  0  0
  -30.9590  -12.9950   20.0650 C   0  0  0  0  0  2  0  0  0  0  0  0
  -30.0190  -13.0710   18.9030 C   0  0  0  0  0  2  0  0  0  0  0  0
  -29.3910  -14.5470   18.7690 C   0  0  0  0  0  2  0  0  0  0  0  0
  -28.2840  -15.3180   19.8800 C   0  0  0  0  0  2  0  0  0  0  0  0
  -29.7080  -15.2490   20.9080 C   0  0  0  0  0  2  0  0  0  0  0  0
  -30.8630  -14.2820   20.7650 N   0  0  0  0  0  0  0  0  0  0  0  0
  -32.3600  -15.6400   21.6000 O   0  0  0  0  0  0  0  0  0  0  0  0
  -32.3450  -15.2690   19.4360 N   0  0  0  0  0  0  0  0  0  0  0  0
  -31.9330  -14.7070   18.7020 H   0  0  0  0  0  0  0  0  0  0  0  0
  -24.9300  -14.8570   20.7590 C   0  0  0  0  0  0  0  0  0  0  0  0
  -24.0610  -13.7820   21.0160 C   0  0  0  0  0  0  0  0  0  0  0  0
  -24.6280  -12.5000   20.9500 C   0  0  0  0  0  0  0  0  0  0  0  0
  -26.1530  -14.5150   20.5240 N   0  0  0  0  0  2  0  0  0  0  0  0
  -25.7250  -12.9790   20.5270 N   0  0  0  0  0  0  0  0  0  0  0  0
  -24.1540  -11.0180   21.0090 C   0  0  0  0  0  0  0  0  0  0  0  0
  -24.5690  -10.0210   21.9500 C   0  0  0  0  0  3  0  0  0  0  0  0
  -23.9230   -8.7440   22.0640 C   0  0  0  0  0  3  0  0  0  0  0  0
  -22.8320   -8.4000   21.2210 C   0  0  0  0  0  0  0  0  0  0  0  0
  -22.4770   -9.3440   20.2320 C   0  0  0  0  0  3  0  0  0  0  0  0
  -23.1240  -10.6010   20.1310 C   0  0  0  0  0  3  0  0  0  0  0  0
  -22.1280   -7.2000   21.2450 O   0  0  0  0  0  0  0  0  0  0  0  0
  -21.8860   -6.4650   22.3960 C   0  0  0  0  0  0  0  0  0  0  0  0
  -21.2750   -7.0310   23.5390 C   0  0  0  0  0  3  0  0  0  0  0  0
  -20.9830   -6.2260   24.6630 C   0  0  0  0  0  3  0  0  0  0  0  0
  -21.3020   -4.8560   24.6570 C   0  0  0  0  0  0  0  0  0  0  0  0
  -21.8900   -4.2820   23.5160 C   0  0  0  0  0  3  0  0  0  0  0  0
  -22.1670   -5.0800   22.3880 C   0  0  0  0  0  0  0  0  0  0  0  0
  -22.6920   -4.5010   21.2830 F   0  0  0  0  0  0  0  0  0  0  0  0
  -21.0480   -4.0890   25.7440 F   0  0  0  0  0  0  0  0  0  0  0  0
  -22.6350  -13.9570   21.1550 C   0  0  0  0  0  0  0  0  0  0  0  0
  -22.0000  -13.1340   21.9780 N   0  0  0  0  0  0  0  0  0  0  0  0
  -22.1080  -14.8670   20.5380 O   0  0  0  0  0  0  0  0  0  0  0  0
  -22.5000  -12.4230   22.4920 H   0  0  0  0  0  0  0  0  0  0  0  0
  -20.9970  -13.1960   22.0970 H   0  0  0  0  0  0  0  0  0  0  0  0
  -24.8770  -16.1920   20.6220 N   0  0  0  0  0  0  0  0  0  0  0  0
  -24.0350  -16.6050   21.0130 H   0  0  0  0  0  0  0  0  0  0  0  0
  -25.6870  -16.6230   21.0600 H   0  0  0  0  0  0  0  0  0  0  0  0
  -26.6510  -21.3250   19.6850 C   0  0  0  0  0 15  0  0  0  0  0  0
  -27.0380  -23.6280   19.6500 O   0  0  0  0  0  1  0  0  0  0  0  0
  -24.5650  -31.4870   22.6170 C   0  0  0  0  0  0  0  0  0  0  0  0
  -26.4800  -25.4050   19.6560 C   0  0  0  0  0  0  0  0  0  0  0  0
  -23.3190  -30.0600   21.0770 C   0  0  0  0  0  3  0  0  0  0  0  0
  -24.6170  -28.2040   19.6290 C   0  0  0  0  0  0  0  0  0  0  0  0
  -25.9000  -29.8480   20.9230 C   0  0  0  0  0  2  0  0  0  0  0  0
  -25.8410  -28.2980   20.2820 C   0  0  0  0  0  0  0  0  0  0  0  0
  -26.7360  -26.9580   20.2380 C   0  0  0  0  0  3  0  0  0  0  0  0
  -25.3380  -25.8340   18.8720 C   0  0  0  0  0  3  0  0  0  0  0  0
  -24.4750  -27.0180   18.8800 C   0  0  0  0  0  3  0  0  0  0  0  0
  -23.5110  -29.3110   19.7130 C   0  0  0  0  0  2  0  0  0  0  0  0
  -24.6450  -30.5310   21.5870 N   0  0  0  0  0  0  0  0  0  0  0  0
  -23.4790  -31.8160   23.1380 O   0  0  0  0  0  0  0  0  0  0  0  0
  -22.6090  -29.1440   22.1140 C   0  0  0  0  0  0  0  0  0  0  0  0
  -21.2690  -29.0190   22.0780 N   0  0  0  0  0  0  0  0  0  0  0  0
  -23.2920  -28.5400   22.9430 O   0  0  0  0  0  0  0  0  0  0  0  0
  -20.7510  -29.5670   21.4060 H   0  0  0  0  0  0  0  0  0  0  0  0
  -17.9350  -27.7290   22.8020 C   0  0  0  0  0  0  0  0  0  0  0  0
  -20.4980  -28.0820   22.9110 C   0  0  0  0  0  3  0  0  0  0  0  0
  -20.6040  -26.6380   22.3630 C   0  0  0  0  0  2  0  0  0  0  0  0
  -19.4630  -26.2750   21.4080 C   0  0  0  0  0  2  0  0  0  0  0  0
  -18.1150  -26.3830   22.1230 C   0  0  0  0  0  2  0  0  0  0  0  0
  -19.0500  -28.5350   23.1580 C   0  0  0  0  0  0  0  0  0  0  0  0
  -18.8230  -29.7880   23.7700 C   0  0  0  0  0  3  0  0  0  0  0  0
  -17.5120  -30.2380   24.0180 C   0  0  0  0  0  3  0  0  0  0  0  0
  -16.4130  -29.4330   23.6700 C   0  0  0  0  0  3  0  0  0  0  0  0
  -16.6280  -28.1790   23.0700 C   0  0  0  0  0  3  0  0  0  0  0  0
  -25.8050  -32.2310   23.2130 C   0  0  0  0  0  3  0  0  0  0  0  0
  -25.3910  -33.5680   23.7290 N   0  0  0  0  0  0  0  0  0  0  0  0
  -25.6370  -34.7570   23.1550 C   0  0  0  0  0  0  0  0  0  0  0  0
  -26.2670  -34.8540   22.1010 O   0  0  0  0  0  0  0  0  0  0  0  0
  -24.8170  -33.5590   24.5600 H   0  0  0  0  0  0  0  0  0  0  0  0
  -23.8110  -36.5110   23.1810 C   0  0  0  0  0  1  0  0  0  0  0  0
  -25.1150  -36.0430   23.8490 C   0  0  0  0  0  3  0  0  0  0  0  0
  -27.2430  -36.9470   24.6940 C   0  0  0  0  0  1  0  0  0  0  0  0
  -26.0810  -37.1660   23.8380 N   0  0  0  0  0  0  0  0  0  0  0  0
  -25.6340  -38.0300   24.1300 H   0  0  0  0  0  0  0  0  0  0  0  0
  -26.4820  -31.4310   24.3930 C   0  0  1  0  0  0  0  0  0  0  0  0
  -25.5090  -31.0470   25.5350 C   0  0  0  0  0  1  0  0  0  0  0  0
  -27.1280  -30.1270   23.8880 C   0  0  0  0  0  1  0  0  0  0  0  0
  -27.6320  -32.2630   25.0090 C   0  0  0  0  0  1  0  0  0  0  0  0
  7  9  1  0
  8  7  1  0
 10 13  1  0
 10  6  1  0
 11 14  2  0
 11 13  1  0
 12 15  1  0
 13 12  2  0
 14 16  1  0
 15 18  1  0
 16 15  2  0
 18 17  1  0
 19 28  1  0
 19 14  1  0
 20 26  1  0
 20 27  2  0
 21 26  1  0
 22 21  1  0
 23 22  1  0
 23 24  1  0
 24 25  1  0
 26 25  1  0
 28 20  1  0
 29 28  1  0
 30 31  2  0
 31 50  1  0
 32 35  1  0
 32 31  1  0
 33 34  1  0
 33 30  1  0
 34 32  2  0
 35 36  1  0
 36 37  2  0
 38 41  1  0
 38 37  1  0
 39 38  2  0
 40 39  1  0
 40 35  2  0
 41 42  1  0
 42 43  1  0
 43 44  2  0
 45 44  1  0
 45 49  1  0
 46 45  2  0
 47 42  2  0
 47 46  1  0
 48 47  1  0
 50 51  1  0
 51 54  1  0
 51 53  1  0
 52 50  2  0
 55 30  1  0
 55 56  1  0
 55 57  1  0
 59 61  1  0
 60 71  2  0
 61 66  1  0
 62 70  1  0
 62 72  1  0
 63 69  1  0
 63 65  1  0
 64 70  1  0
 65 64  1  0
 66 65  2  0
 67 68  1  0
 67 61  2  0
 68 63  2  0
 69 62  1  0
 70 60  1  0
 72 74  2  0
 73 72  1  0
 75 73  1  0
 76 85  2  0
 76 81  1  0
 77 73  1  0
 77 81  1  0
 78 77  1  0
 79 80  1  0
 79 78  1  0
 80 76  1  0
 81 82  2  0
 82 83  1  0
 84 83  2  0
 85 84  1  0
 86 60  1  0
 86 87  1  0
 86 96  1  0
 87 90  1  0
 88 87  1  0
 88 92  1  0
 89 88  2  0
 92 91  1  0
 94 92  1  0
 94 95  1  0
 94 93  1  0
 96 99  1  1
 96 97  1  0
 98 96  1  0
M  ISO  4  20 100  28 100  58 101  59 101
M  END
>  <TORSDO>  (64) 
F 21

>  <SCORE>  (64) 
-3.931

>  <name>  (64) 
63

>  <ligand_id>  (64) 
63

>  <original_smiles>  (64) 
[H]c1c([H])c([H])c2c(c1[H])C([H])([H])C([H])([H])C([H])([H])C2([H])N([H])C(=O)C1([H])N(C(=O)C([H])(N([H])C(=O)C([H])(N([H])C([H])([H])[H])C([H])([H])[H])C(C([H])([H])[H])(C([H])([H])[H])C([H])([H])[H])C([H])([H])c2c([H])c(OC([H])([H])C3(C([H])([H])c4c([H])c(OC([H])([H])[H])nc(C([H])([H])N([H])C(=O)N5C([H])([H])C([H])([H])C([H])([H])C([H])(n6nc(-c7c([H])c([H])c(Oc8c([H])c([H])c(F)c([H])c8F)c([H])c7[H])c(C(=O)N([H])[H])c6N([H])[H])C5([H])[H])c4[H])C([H])([H])C([H])([H])C([H])([H])C([H])([H])[N+]([H])([H])C3([H])[H])c([H])c([H])c2C1([H])[H]

>  <smiles>  (64) 
[H]c1c([H])c([H])c2c(c1[H])C([H])([H])C([H])([H])C([H])([H])C2([H])N([H])C(=O)C1([H])N(C(=O)C([H])(N([H])C(=O)C([H])(N([H])C([H])([H])[H])C([H])([H])[H])C(C([H])([H])[H])(C([H])([H])[H])C([H])([H])[H])C([H])([H])c2c([H])c(OC([H])([H])C3(C([H])([H])c4c([H])c(OC([H])([H])[H])nc(C([H])([H])N([H])C(=O)N5C([H])([H])C([H])([H])C([H])([H])C([H])(n6nc(-c7c([H])c([H])c(Oc8c([H])c([H])c(F)c([H])c8F)c([H])c7[H])c(C(=O)N([H])[H])c6N([H])[H])C5([H])[H])c4[H])C([H])([H])C([H])([H])C([H])([H])C([H])([H])[N+]([H])([H])C3([H])[H])c([H])c([H])c2C1([H])[H]

$$$$
64:0:0
     RDKit          3D

 99107  0  0  1  0  0  0  0  0999 V2000
  -34.2310  -19.8340   21.0870 C   0  0  0  0  0  2  0  0  0  0  0  0
  -34.1120  -21.3620   21.1550 C   0  0  0  0  0  2  0  0  0  0  0  0
  -33.4740  -19.2650   19.8720 C   0  0  0  0  0  2  0  0  0  0  0  0
  -32.6420  -21.8170   21.1000 C   0  0  0  0  0  2  0  0  0  0  0  0
  -31.9960  -19.7210   19.8180 C   0  0  0  0  0  3  0  0  0  0  0  0
  -31.8940  -21.2800   19.8480 C   0  0  0  0  0  3  0  0  0  0  0  0
  -31.8090  -21.3630   17.2290 C   0  0  0  0  0  1  0  0  0  0  0  0
  -32.3300  -22.0110   18.5300 C   0  0  0  0  0  3  0  0  0  0  0  0
  -32.0030  -23.5310   18.5370 C   0  0  0  0  0  2  0  0  0  0  0  0
  -30.5520  -23.8150   18.6800 N   0  0  0  0  0  4  0  0  0  0  0  0
  -30.1220  -23.7130   17.7740 H   0  0  0  0  0  0  0  0  0  0  0  0
  -30.1540  -23.1180   19.2880 H   0  0  0  0  0  0  0  0  0  0  0  0
  -30.2470  -25.1550   19.2370 C   0  0  0  0  0  2  0  0  0  0  0  0
  -28.7370  -25.4690   19.2800 C   0  0  0  0  0  2  0  0  0  0  0  0
  -28.5750  -26.7130   19.9610 O   0  0  0  0  0  0  0  0  0  0  0  0
  -24.5960  -31.6790   23.1040 C   0  0  0  0  0  0  0  0  0  0  0  0
  -27.3480  -27.3420   19.9680 C   0  0  0  0  0  0  0  0  0  0  0  0
  -23.4230  -30.2850   21.4270 C   0  0  0  0  0  3  0  0  0  0  0  0
  -24.9110  -28.7820   20.0000 C   0  0  0  0  0  0  0  0  0  0  0  0
  -25.9400  -30.6850   21.2560 C   0  0  0  0  0  2  0  0  0  0  0  0
  -26.0510  -29.3240   20.6040 C   0  0  0  0  0  0  0  0  0  0  0  0
  -27.2660  -28.6080   20.5890 C   0  0  0  0  0  3  0  0  0  0  0  0
  -26.1810  -26.7990   19.3800 C   0  0  0  0  0  3  0  0  0  0  0  0
  -24.9680  -27.5150   19.3900 C   0  0  0  0  0  3  0  0  0  0  0  0
  -23.6530  -29.6200   20.0410 C   0  0  0  0  0  2  0  0  0  0  0  0
  -24.6700  -30.8980   21.9880 N   0  0  0  0  0  0  0  0  0  0  0  0
  -23.5070  -31.9280   23.6400 O   0  0  0  0  0  0  0  0  0  0  0  0
  -22.7780  -29.2440   22.3690 C   0  0  0  0  0  0  0  0  0  0  0  0
  -21.4540  -29.0620   22.2400 N   0  0  0  0  0  0  0  0  0  0  0  0
  -23.4650  -28.6040   23.1710 O   0  0  0  0  0  0  0  0  0  0  0  0
  -20.9600  -29.6300   21.5660 H   0  0  0  0  0  0  0  0  0  0  0  0
  -18.0820  -27.8600   22.7250 C   0  0  0  0  0  0  0  0  0  0  0  0
  -20.6410  -28.1050   22.9910 C   0  0  0  0  0  3  0  0  0  0  0  0
  -20.7380  -26.6890   22.3780 C   0  0  0  0  0  2  0  0  0  0  0  0
  -19.6320  -26.3940   21.3610 C   0  0  0  0  0  2  0  0  0  0  0  0
  -18.2540  -26.5270   22.0160 C   0  0  0  0  0  2  0  0  0  0  0  0
  -19.2040  -28.6080   23.1700 C   0  0  0  0  0  0  0  0  0  0  0  0
  -18.9920  -29.8560   23.7920 C   0  0  0  0  0  3  0  0  0  0  0  0
  -17.6910  -30.3590   23.9760 C   0  0  0  0  0  3  0  0  0  0  0  0
  -16.5820  -29.6070   23.5470 C   0  0  0  0  0  3  0  0  0  0  0  0
  -16.7790  -28.3600   22.9280 C   0  0  0  0  0  3  0  0  0  0  0  0
  -25.8690  -32.3170   23.7430 C   0  0  0  0  0  3  0  0  0  0  0  0
  -26.3810  -31.5410   25.0180 C   0  0  1  0  0  0  0  0  0  0  0  0
  -25.2780  -31.2850   26.0730 C   0  0  0  0  0  1  0  0  0  0  0  0
  -26.9790  -30.1730   24.6190 C   0  0  0  0  0  1  0  0  0  0  0  0
  -27.5160  -32.3390   25.6990 C   0  0  0  0  0  1  0  0  0  0  0  0
  -25.5470  -33.7100   24.0780 N   0  0  0  0  0  0  0  0  0  0  0  0
  -25.8850  -34.7690   23.3320 C   0  0  0  0  0  0  0  0  0  0  0  0
  -26.5730  -34.6770   22.3110 O   0  0  0  0  0  0  0  0  0  0  0  0
  -24.9420  -33.8560   24.8720 H   0  0  0  0  0  0  0  0  0  0  0  0
  -24.1480  -36.5470   22.9560 C   0  0  0  0  0  1  0  0  0  0  0  0
  -25.3770  -36.1500   23.7900 C   0  0  0  0  0  3  0  0  0  0  0  0
  -27.4890  -37.0420   24.6670 C   0  0  0  0  0  1  0  0  0  0  0  0
  -26.4030  -37.2120   23.7050 N   0  0  0  0  0  0  0  0  0  0  0  0
  -25.9880  -38.1280   23.8550 H   0  0  0  0  0  0  0  0  0  0  0  0
  -31.1270  -19.0740   20.9300 C   0  0  0  0  0  2  0  0  0  0  0  0
  -30.8670  -17.6360   20.7050 N   0  0  0  0  0  4  0  0  0  0  0  0
  -31.7460  -17.1620   20.5690 H   0  0  0  0  0  0  0  0  0  0  0  0
  -30.3230  -17.5450   19.8620 H   0  0  0  0  0  0  0  0  0  0  0  0
  -30.1330  -17.0100   21.8290 C   0  0  0  0  0  2  0  0  0  0  0  0
  -29.5500  -15.6140   21.5130 C   0  0  0  0  0  2  0  0  0  0  0  0
  -30.5550  -14.1360   19.8030 C   0  0  0  0  0  0  0  0  0  0  0  0
  -29.9840  -12.1280   18.4830 C   0  0  0  0  0  2  0  0  0  0  0  0
  -28.9080  -12.4080   17.4200 C   0  0  0  0  0  2  0  0  0  0  0  0
  -27.4970  -12.2570   18.0220 C   0  0  0  0  0  2  0  0  0  0  0  0
  -27.3320  -13.0530   19.3440 C   0  0  0  0  0  3  0  0  0  0  0  0
  -28.5020  -12.7510   20.3070 C   0  0  0  0  0  2  0  0  0  0  0  0
  -29.7720  -13.0410   19.6160 N   0  0  0  0  0  0  0  0  0  0  0  0
  -31.4190  -14.5040   19.0000 O   0  0  0  0  0  0  0  0  0  0  0  0
  -31.7350  -14.4930   21.8980 C   0  0  0  0  0  1  0  0  0  0  0  0
  -30.5430  -14.6290   21.0600 N   0  0  0  0  0  0  0  0  0  0  0  0
  -25.0310  -13.6830   20.3180 C   0  0  0  0  0  0  0  0  0  0  0  0
  -24.0050  -12.9200   20.8040 C   0  0  0  0  0  0  0  0  0  0  0  0
  -24.4430  -11.5650   20.7130 C   0  0  0  0  0  0  0  0  0  0  0  0
  -26.0350  -12.7930   19.9670 N   0  0  0  0  0  0  0  0  0  0  0  0
  -25.6870  -11.5130   20.2560 N   0  0  0  0  0  0  0  0  0  0  0  0
  -23.7320  -10.3100   20.9830 C   0  0  0  0  0  0  0  0  0  0  0  0
  -24.2400   -9.3550   21.8920 C   0  0  0  0  0  3  0  0  0  0  0  0
  -23.5300   -8.1620   22.1480 C   0  0  0  0  0  3  0  0  0  0  0  0
  -22.2970   -7.9170   21.5000 C   0  0  0  0  0  0  0  0  0  0  0  0
  -21.8060   -8.8600   20.5800 C   0  0  0  0  0  3  0  0  0  0  0  0
  -22.5160  -10.0440   20.3200 C   0  0  0  0  0  3  0  0  0  0  0  0
  -21.5510   -6.7750   21.6680 O   0  0  0  0  0  0  0  0  0  0  0  0
  -21.5860   -6.0580   22.8360 C   0  0  0  0  0  0  0  0  0  0  0  0
  -21.2560   -6.6420   24.0790 C   0  0  0  0  0  3  0  0  0  0  0  0
  -21.2350   -5.8520   25.2440 C   0  0  0  0  0  3  0  0  0  0  0  0
  -21.5350   -4.4770   25.1720 C   0  0  0  0  0  0  0  0  0  0  0  0
  -21.8580   -3.8940   23.9360 C   0  0  0  0  0  3  0  0  0  0  0  0
  -21.8810   -4.6810   22.7710 C   0  0  0  0  0  0  0  0  0  0  0  0
  -22.1730   -4.1080   21.5780 F   0  0  0  0  0  0  0  0  0  0  0  0
  -21.5080   -3.7180   26.2910 F   0  0  0  0  0  0  0  0  0  0  0  0
  -22.6550  -13.4120   21.2390 C   0  0  0  0  0  0  0  0  0  0  0  0
  -22.0340  -12.7300   22.1960 N   0  0  0  0  0  0  0  0  0  0  0  0
  -22.1610  -14.4330   20.7630 O   0  0  0  0  0  0  0  0  0  0  0  0
  -22.4470  -11.9030   22.6000 H   0  0  0  0  0  0  0  0  0  0  0  0
  -21.1310  -13.0430   22.5270 H   0  0  0  0  0  0  0  0  0  0  0  0
  -25.1880  -15.0530   20.1270 N   0  0  0  0  0  0  0  0  0  0  0  0
  -24.4380  -15.7060   20.3260 H   0  0  0  0  0  0  0  0  0  0  0  0
  -25.9850  -15.4890   19.6830 H   0  0  0  0  0  0  0  0  0  0  0  0
  1  2  1  0
  3  1  1  0
  4  2  1  0
  5  6  1  0
  5  3  1  0
  5 56  1  0
  6  8  1  0
  6  4  1  0
  8  7  1  0
  8  9  1  0
  9 10  1  0
 10 13  1  0
 10 12  1  0
 11 10  1  0
 13 14  1  0
 14 15  1  0
 15 17  1  0
 16 27  2  0
 17 22  1  0
 18 26  1  0
 18 28  1  0
 19 25  1  0
 19 21  1  0
 20 26  1  0
 21 20  1  0
 22 21  2  0
 23 24  1  0
 23 17  2  0
 24 19  2  0
 25 18  1  0
 26 16  1  0
 28 30  2  0
 29 28  1  0
 31 29  1  0
 32 41  2  0
 32 37  1  0
 33 29  1  0
 33 37  1  0
 34 33  1  0
 35 36  1  0
 35 34  1  0
 36 32  1  0
 37 38  2  0
 38 39  1  0
 40 39  2  0
 41 40  1  0
 42 16  1  0
 42 47  1  0
 42 43  1  0
 43 46  1  1
 43 44  1  0
 45 43  1  0
 47 50  1  0
 48 52  1  0
 48 47  1  0
 49 48  2  0
 52 51  1  0
 54 52  1  0
 54 55  1  0
 54 53  1  0
 57 56  1  0
 57 60  1  0
 58 57  1  0
 59 57  1  0
 61 60  1  0
 62 71  1  0
 63 68  1  0
 64 65  1  0
 64 63  1  0
 66 65  1  0
 66 75  1  0
 66 67  1  0
 68 62  1  0
 68 67  1  0
 69 62  2  0
 71 61  1  0
 71 70  1  0
 72 73  2  0
 73 92  1  0
 74 73  1  0
 74 77  1  0
 75 76  1  0
 75 72  1  0
 76 74  2  0
 77 78  1  0
 78 79  2  0
 80 83  1  0
 80 79  1  0
 81 80  2  0
 82 81  1  0
 82 77  2  0
 83 84  1  0
 84 85  1  0
 85 86  2  0
 87 86  1  0
 87 91  1  0
 88 87  2  0
 89 84  2  0
 89 88  1  0
 90 89  1  0
 92 93  1  0
 93 96  1  0
 93 95  1  0
 94 92  2  0
 97 72  1  0
 97 98  1  0
 99 97  1  0
M  ISO  4  14 101  15 101  62 100  71 100
M  END
>  <TORSDO>  (65) 
F 25

>  <SCORE>  (65) 
-10.548

>  <name>  (65) 
64

>  <ligand_id>  (65) 
64

>  <original_smiles>  (65) 
[H]c1c([H])c([H])c2c(c1[H])C([H])([H])C([H])([H])C([H])([H])C2([H])N([H])C(=O)C1([H])N(C(=O)C([H])(N([H])C(=O)C([H])(N([H])C([H])([H])[H])C([H])([H])[H])C(C([H])([H])[H])(C([H])([H])[H])C([H])([H])[H])C([H])([H])c2c([H])c(OC([H])([H])C([H])([H])[N+]([H])([H])C([H])([H])C([H])(C([H])([H])[H])C3([H])C([H])([H])C([H])([H])C([H])([H])C([H])([H])C3([H])C([H])([H])[N+]([H])([H])C([H])([H])C([H])([H])N(C(=O)N3C([H])([H])C([H])([H])C([H])([H])C([H])(n4nc(-c5c([H])c([H])c(Oc6c([H])c([H])c(F)c([H])c6F)c([H])c5[H])c(C(=O)N([H])[H])c4N([H])[H])C3([H])[H])C([H])([H])[H])c([H])c([H])c2C1([H])[H]

>  <smiles>  (65) 
[H]c1c([H])c([H])c2c(c1[H])C([H])([H])C([H])([H])C([H])([H])C2([H])N([H])C(=O)C1([H])N(C(=O)C([H])(N([H])C(=O)C([H])(N([H])C([H])([H])[H])C([H])([H])[H])C(C([H])([H])[H])(C([H])([H])[H])C([H])([H])[H])C([H])([H])c2c([H])c(OC([H])([H])C([H])([H])[N+]([H])([H])C([H])([H])C([H])(C([H])([H])[H])C3([H])C([H])([H])C([H])([H])C([H])([H])C([H])([H])C3([H])C([H])([H])[N+]([H])([H])C([H])([H])C([H])([H])N(C(=O)N3C([H])([H])C([H])([H])C([H])([H])C([H])(n4nc(-c5c([H])c([H])c(Oc6c([H])c([H])c(F)c([H])c6F)c([H])c5[H])c(C(=O)N([H])[H])c4N([H])[H])C3([H])[H])C([H])([H])[H])c([H])c([H])c2C1([H])[H]

$$$$
65:0:0
     RDKit          3D

 91 99  0  0  1  0  0  0  0  0999 V2000
  -29.0220  -21.3320   22.9170 C   0  0  0  0  0  2  0  0  0  0  0  0
  -30.2050  -21.6280   21.9890 C   0  0  0  0  0  2  0  0  0  0  0  0
  -27.9530  -20.7350   22.0120 C   0  0  0  0  0  2  0  0  0  0  0  0
  -29.6790  -21.5410   20.5330 C   0  0  1  0  0  0  0  0  0  0  0  0
  -28.2250  -21.3000   20.6840 N   0  0  0  0  0  4  0  0  0  0  0  0
  -27.7480  -22.1850   20.6380 H   0  0  0  0  0  0  0  0  0  0  0  0
  -27.8500  -20.7220   19.9460 H   0  0  0  0  0  0  0  0  0  0  0  0
  -31.2780  -23.5260   19.8060 C   0  0  0  0  0  1  0  0  0  0  0  0
  -29.7700  -23.1840   19.8590 C   0  0  0  0  0  3  0  0  0  0  0  0
  -28.8820  -24.7090   20.1950 C   0  0  0  0  0  2  0  0  0  0  0  0
  -28.8950  -26.3320   20.0630 O   0  0  0  0  0  0  0  0  0  0  0  0
  -24.7870  -31.7940   23.1260 C   0  0  0  0  0  0  0  0  0  0  0  0
  -27.7700  -27.2830   20.0310 C   0  0  0  0  0  0  0  0  0  0  0  0
  -23.7380  -30.3800   21.4030 C   0  0  0  0  0  3  0  0  0  0  0  0
  -25.3330  -28.9390   19.9740 C   0  0  0  0  0  0  0  0  0  0  0  0
  -26.2790  -30.8020   21.3260 C   0  0  0  0  0  2  0  0  0  0  0  0
  -26.4700  -29.4290   20.6320 C   0  0  0  0  0  0  0  0  0  0  0  0
  -27.6860  -28.6250   20.6260 C   0  0  0  0  0  3  0  0  0  0  0  0
  -26.5980  -26.9200   19.3350 C   0  0  0  0  0  3  0  0  0  0  0  0
  -25.4190  -27.7060   19.3050 C   0  0  0  0  0  3  0  0  0  0  0  0
  -24.0490  -29.7630   20.0120 C   0  0  0  0  0  2  0  0  0  0  0  0
  -24.9520  -31.0180   22.0080 N   0  0  0  0  0  0  0  0  0  0  0  0
  -23.6660  -31.9820   23.6300 O   0  0  0  0  0  0  0  0  0  0  0  0
  -23.0980  -29.3000   22.3120 C   0  0  0  0  0  0  0  0  0  0  0  0
  -21.7810  -29.0670   22.1620 N   0  0  0  0  0  0  0  0  0  0  0  0
  -23.7910  -28.6740   23.1180 O   0  0  0  0  0  0  0  0  0  0  0  0
  -21.2760  -29.6240   21.4870 H   0  0  0  0  0  0  0  0  0  0  0  0
  -18.4540  -27.6970   22.6160 C   0  0  0  0  0  0  0  0  0  0  0  0
  -21.0020  -28.0530   22.8800 C   0  0  0  0  0  3  0  0  0  0  0  0
  -21.1560  -26.6620   22.2200 C   0  0  0  0  0  2  0  0  0  0  0  0
  -20.0610  -26.3590   21.1920 C   0  0  0  0  0  2  0  0  0  0  0  0
  -18.6800  -26.4050   21.8500 C   0  0  0  0  0  2  0  0  0  0  0  0
  -19.5420  -28.4780   23.0860 C   0  0  0  0  0  0  0  0  0  0  0  0
  -19.2760  -29.6860   23.7660 C   0  0  0  0  0  3  0  0  0  0  0  0
  -17.9530  -30.1160   23.9760 C   0  0  0  0  0  3  0  0  0  0  0  0
  -16.8770  -29.3320   23.5200 C   0  0  0  0  0  3  0  0  0  0  0  0
  -17.1290  -28.1240   22.8470 C   0  0  0  0  0  3  0  0  0  0  0  0
  -25.9920  -32.4960   23.8210 C   0  0  0  0  0  3  0  0  0  0  0  0
  -26.4800  -31.7480   25.1240 C   0  0  1  0  0  0  0  0  0  0  0  0
  -25.3440  -31.4360   26.1280 C   0  0  0  0  0  1  0  0  0  0  0  0
  -27.1680  -30.4110   24.7640 C   0  0  0  0  0  1  0  0  0  0  0  0
  -27.5420  -32.6040   25.8520 C   0  0  0  0  0  1  0  0  0  0  0  0
  -25.5860  -33.8730   24.1480 N   0  0  0  0  0  0  0  0  0  0  0  0
  -25.8880  -34.9560   23.4190 C   0  0  0  0  0  0  0  0  0  0  0  0
  -26.6030  -34.9040   22.4140 O   0  0  0  0  0  0  0  0  0  0  0  0
  -24.9500  -33.9830   24.9230 H   0  0  0  0  0  0  0  0  0  0  0  0
  -24.0730  -36.6580   23.0300 C   0  0  0  0  0  1  0  0  0  0  0  0
  -25.3100  -36.3130   23.8730 C   0  0  0  0  0  3  0  0  0  0  0  0
  -27.3660  -37.3110   24.7740 C   0  0  0  0  0  1  0  0  0  0  0  0
  -26.2840  -37.4230   23.7980 N   0  0  0  0  0  0  0  0  0  0  0  0
  -25.8250  -38.3170   23.9360 H   0  0  0  0  0  0  0  0  0  0  0  0
  -30.3300  -20.0090   19.8690 C   0  0  0  0  0  2  0  0  0  0  0  0
  -30.8830  -18.4800   20.6010 C   0  0  0  0  0  2  0  0  0  0  0  0
  -31.3270  -15.6040   20.2370 C   0  0  0  0  0  0  0  0  0  0  0  0
  -31.2090  -13.1780   19.3500 C   0  0  0  0  0  2  0  0  0  0  0  0
  -30.2880  -12.9830   18.1190 C   0  0  0  0  0  2  0  0  0  0  0  0
  -28.8270  -12.7780   18.5560 C   0  0  0  0  0  2  0  0  0  0  0  0
  -28.3980  -13.7890   19.6460 C   0  0  0  0  0  3  0  0  0  0  0  0
  -29.4350  -13.9100   20.7800 C   0  0  0  0  0  2  0  0  0  0  0  0
  -30.6950  -14.3400   20.1540 N   0  0  0  0  0  0  0  0  0  0  0  0
  -32.5580  -15.5630   20.1010 O   0  0  0  0  0  0  0  0  0  0  0  0
  -30.6000  -16.8810   20.2700 N   0  0  0  0  0  0  0  0  0  0  0  0
  -29.6100  -16.7010   20.2010 H   0  0  0  0  0  0  0  0  0  0  0  0
  -26.0540  -14.4610   20.4060 C   0  0  0  0  0  0  0  0  0  0  0  0
  -24.9480  -13.7330   20.7460 C   0  0  0  0  0  0  0  0  0  0  0  0
  -25.3440  -12.3610   20.6820 C   0  0  0  0  0  0  0  0  0  0  0  0
  -27.0500  -13.5370   20.1420 N   0  0  0  0  0  0  0  0  0  0  0  0
  -26.6340  -12.2660   20.3800 N   0  0  0  0  0  0  0  0  0  0  0  0
  -24.5500  -11.1340   20.8320 C   0  0  0  0  0  0  0  0  0  0  0  0
  -24.9000  -10.1370   21.7680 C   0  0  0  0  0  3  0  0  0  0  0  0
  -24.1080   -8.9760   21.9070 C   0  0  0  0  0  3  0  0  0  0  0  0
  -22.9520   -8.8060   21.1090 C   0  0  0  0  0  0  0  0  0  0  0  0
  -22.6210   -9.7930   20.1630 C   0  0  0  0  0  3  0  0  0  0  0  0
  -23.4130  -10.9440   20.0230 C   0  0  0  0  0  3  0  0  0  0  0  0
  -22.1370   -7.7010   21.1590 O   0  0  0  0  0  0  0  0  0  0  0  0
  -21.9520   -6.9940   22.3200 C   0  0  0  0  0  0  0  0  0  0  0  0
  -21.4530   -7.6060   23.4910 C   0  0  0  0  0  3  0  0  0  0  0  0
  -21.2090   -6.8300   24.6420 C   0  0  0  0  0  3  0  0  0  0  0  0
  -21.4550   -5.4430   24.6230 C   0  0  0  0  0  0  0  0  0  0  0  0
  -21.9450   -4.8310   23.4550 C   0  0  0  0  0  3  0  0  0  0  0  0
  -22.1910   -5.6050   22.3080 C   0  0  0  0  0  0  0  0  0  0  0  0
  -22.6430   -5.0080   21.1780 F   0  0  0  0  0  0  0  0  0  0  0  0
  -21.2160   -4.6950   25.7250 F   0  0  0  0  0  0  0  0  0  0  0  0
  -23.5770  -14.2770   21.0150 C   0  0  0  0  0  0  0  0  0  0  0  0
  -22.8100  -13.6100   21.8710 N   0  0  0  0  0  0  0  0  0  0  0  0
  -23.1940  -15.3290   20.5030 O   0  0  0  0  0  0  0  0  0  0  0  0
  -23.1380  -12.7600   22.3050 H   0  0  0  0  0  0  0  0  0  0  0  0
  -21.8840  -13.9500   22.0880 H   0  0  0  0  0  0  0  0  0  0  0  0
  -26.2900  -15.8250   20.2700 N   0  0  0  0  0  0  0  0  0  0  0  0
  -25.5570  -16.5170   20.3860 H   0  0  0  0  0  0  0  0  0  0  0  0
  -27.1700  -16.2260   19.9710 H   0  0  0  0  0  0  0  0  0  0  0  0
  2  1  1  0
  3  1  1  0
  4 52  1  6
  4  5  1  0
  4  2  1  0
  5  3  1  0
  6  5  1  0
  7  5  1  0
  9  8  1  0
  9 10  1  0
  9  4  1  0
 11 10  1  0
 12 23  2  0
 13 11  1  0
 13 18  1  0
 14 22  1  0
 14 24  1  0
 15 21  1  0
 15 17  1  0
 16 22  1  0
 17 16  1  0
 18 17  2  0
 19 13  2  0
 20 19  1  0
 20 15  2  0
 21 14  1  0
 22 12  1  0
 24 26  2  0
 25 24  1  0
 27 25  1  0
 28 37  2  0
 28 33  1  0
 29 25  1  0
 29 33  1  0
 30 29  1  0
 31 32  1  0
 31 30  1  0
 32 28  1  0
 33 34  2  0
 34 35  1  0
 36 35  2  0
 37 36  1  0
 38 12  1  0
 38 43  1  0
 38 39  1  0
 39 42  1  1
 39 40  1  0
 41 39  1  0
 43 46  1  0
 44 48  1  0
 44 43  1  0
 45 44  2  0
 48 47  1  0
 50 48  1  0
 50 51  1  0
 50 49  1  0
 52 53  1  0
 54 62  1  0
 55 60  1  0
 56 57  1  0
 56 55  1  0
 58 57  1  0
 58 67  1  0
 58 59  1  0
 60 54  1  0
 60 59  1  0
 61 54  2  0
 62 53  1  0
 63 62  1  0
 64 65  2  0
 65 84  1  0
 66 65  1  0
 66 69  1  0
 67 68  1  0
 67 64  1  0
 68 66  2  0
 69 70  1  0
 70 71  2  0
 72 75  1  0
 72 71  1  0
 73 72  2  0
 74 73  1  0
 74 69  2  0
 75 76  1  0
 76 77  1  0
 77 78  2  0
 79 78  1  0
 79 83  1  0
 80 79  2  0
 81 76  2  0
 81 80  1  0
 82 81  1  0
 84 85  1  0
 85 88  1  0
 85 87  1  0
 86 84  2  0
 89 90  1  0
 89 64  1  0
 91 89  1  0
M  ISO  4  10 101  11 101  54 100  62 100
M  END
>  <TORSDO>  (66) 
F 20

>  <SCORE>  (66) 
-11.828

>  <name>  (66) 
65

>  <ligand_id>  (66) 
65

>  <original_smiles>  (66) 
[H]c1c([H])c([H])c2c(c1[H])C([H])([H])C([H])([H])C([H])([H])C2([H])N([H])C(=O)C1([H])N(C(=O)C([H])(N([H])C(=O)C([H])(N([H])C([H])([H])[H])C([H])([H])[H])C(C([H])([H])[H])(C([H])([H])[H])C([H])([H])[H])C([H])([H])c2c([H])c(OC([H])([H])C([H])(C([H])([H])[H])C3(C([H])([H])C([H])([H])N([H])C(=O)N4C([H])([H])C([H])([H])C([H])([H])C([H])(n5nc(-c6c([H])c([H])c(Oc7c([H])c([H])c(F)c([H])c7F)c([H])c6[H])c(C(=O)N([H])[H])c5N([H])[H])C4([H])[H])C([H])([H])C([H])([H])C([H])([H])[N+]3([H])[H])c([H])c([H])c2C1([H])[H]

>  <smiles>  (66) 
[H]c1c([H])c([H])c2c(c1[H])C([H])([H])C([H])([H])C([H])([H])C2([H])N([H])C(=O)C1([H])N(C(=O)C([H])(N([H])C(=O)C([H])(N([H])C([H])([H])[H])C([H])([H])[H])C(C([H])([H])[H])(C([H])([H])[H])C([H])([H])[H])C([H])([H])c2c([H])c(OC([H])([H])C([H])(C([H])([H])[H])C3(C([H])([H])C([H])([H])N([H])C(=O)N4C([H])([H])C([H])([H])C([H])([H])C([H])(n5nc(-c6c([H])c([H])c(Oc7c([H])c([H])c(F)c([H])c7F)c([H])c6[H])c(C(=O)N([H])[H])c5N([H])[H])C4([H])[H])C([H])([H])C([H])([H])C([H])([H])[N+]3([H])[H])c([H])c([H])c2C1([H])[H]

$$$$
66:0:0
     RDKit          3D

 89 98  0  0  1  0  0  0  0  0999 V2000
  -30.4670  -20.1800   22.3080 C   0  0  0  0  0  3  0  0  0  0  0  0
  -30.0550  -21.3690   21.6530 C   0  0  0  0  0  3  0  0  0  0  0  0
  -29.4570  -19.9470   19.7730 C   0  0  0  0  0  3  0  0  0  0  0  0
  -30.3740  -18.8930   21.7220 C   0  0  0  0  0  0  0  0  0  0  0  0
  -29.9360  -18.6290   20.4180 C   0  0  0  0  0  0  0  0  0  0  0  0
  -29.4920  -21.3820   20.3590 C   0  0  0  0  0  0  0  0  0  0  0  0
  -30.5050  -17.6340   22.5290 C   0  0  0  0  0  2  0  0  0  0  0  0
  -29.5830  -16.6380   21.8080 C   0  0  0  0  0  2  0  0  0  0  0  0
  -29.7190  -16.8900   20.2780 C   0  0  0  0  0  3  0  0  0  0  0  0
  -30.6260  -15.4460   19.8230 C   0  0  0  0  0  0  0  0  0  0  0  0
  -30.6280  -12.9970   18.9200 C   0  0  0  0  0  2  0  0  0  0  0  0
  -29.6110  -12.7930   17.7640 C   0  0  0  0  0  2  0  0  0  0  0  0
  -28.1990  -12.5010   18.3060 C   0  0  0  0  0  2  0  0  0  0  0  0
  -27.8260  -13.4500   19.4700 C   0  0  0  0  0  3  0  0  0  0  0  0
  -28.9540  -13.5680   20.5110 C   0  0  0  0  0  2  0  0  0  0  0  0
  -30.1410  -14.1040   19.8190 N   0  0  0  0  0  0  0  0  0  0  0  0
  -31.7940  -15.5220   19.4100 O   0  0  0  0  0  0  0  0  0  0  0  0
  -25.5410  -13.9920   20.4710 C   0  0  0  0  0  0  0  0  0  0  0  0
  -24.5070  -13.2060   20.8960 C   0  0  0  0  0  0  0  0  0  0  0  0
  -24.9480  -11.8550   20.7460 C   0  0  0  0  0  0  0  0  0  0  0  0
  -26.5430  -13.1220   20.0790 N   0  0  0  0  0  0  0  0  0  0  0  0
  -26.2040  -11.8260   20.3120 N   0  0  0  0  0  0  0  0  0  0  0  0
  -24.2240  -10.5910   20.9340 C   0  0  0  0  0  0  0  0  0  0  0  0
  -24.6590   -9.6180   21.8590 C   0  0  0  0  0  3  0  0  0  0  0  0
  -23.9330   -8.4210   22.0350 C   0  0  0  0  0  3  0  0  0  0  0  0
  -22.7540   -8.1890   21.2850 C   0  0  0  0  0  0  0  0  0  0  0  0
  -22.3370   -9.1500   20.3480 C   0  0  0  0  0  3  0  0  0  0  0  0
  -23.0650  -10.3390   20.1700 C   0  0  0  0  0  3  0  0  0  0  0  0
  -22.0000   -7.0430   21.3690 O   0  0  0  0  0  0  0  0  0  0  0  0
  -21.8500   -6.3660   22.5530 C   0  0  0  0  0  0  0  0  0  0  0  0
  -21.2960   -6.9790   23.6980 C   0  0  0  0  0  3  0  0  0  0  0  0
  -21.0960   -6.2260   24.8730 C   0  0  0  0  0  3  0  0  0  0  0  0
  -21.4390   -4.8620   24.9020 C   0  0  0  0  0  0  0  0  0  0  0  0
  -21.9860   -4.2480   23.7600 C   0  0  0  0  0  3  0  0  0  0  0  0
  -22.1870   -4.9980   22.5880 C   0  0  0  0  0  0  0  0  0  0  0  0
  -22.6940   -4.3960   21.4860 F   0  0  0  0  0  0  0  0  0  0  0  0
  -21.2400   -4.1360   26.0270 F   0  0  0  0  0  0  0  0  0  0  0  0
  -23.1470  -13.6810   21.3180 C   0  0  0  0  0  0  0  0  0  0  0  0
  -22.4980  -12.9570   22.2240 N   0  0  0  0  0  0  0  0  0  0  0  0
  -22.6720  -14.7280   20.8810 O   0  0  0  0  0  0  0  0  0  0  0  0
  -22.8980  -12.1100   22.5980 H   0  0  0  0  0  0  0  0  0  0  0  0
  -21.5900  -13.2570   22.5470 H   0  0  0  0  0  0  0  0  0  0  0  0
  -25.7060  -15.3700   20.3590 N   0  0  0  0  0  0  0  0  0  0  0  0
  -24.9610  -16.0200   20.5820 H   0  0  0  0  0  0  0  0  0  0  0  0
  -26.5200  -15.8230   19.9660 H   0  0  0  0  0  0  0  0  0  0  0  0
  -28.2860  -22.7800   18.4680 C   0  0  0  0  0  1  0  0  0  0  0  0
  -29.1130  -22.9730   19.7450 C   0  0  0  0  0  3  0  0  0  0  0  0
  -28.4980  -24.4790   20.5180 C   0  0  0  0  0  2  0  0  0  0  0  0
  -28.5880  -26.0980   20.2200 O   0  0  0  0  0  0  0  0  0  0  0  0
  -24.7370  -31.8950   23.1860 C   0  0  0  0  0  0  0  0  0  0  0  0
  -27.5120  -27.1250   20.2200 C   0  0  0  0  0  0  0  0  0  0  0  0
  -23.6260  -30.4790   21.5060 C   0  0  0  0  0  3  0  0  0  0  0  0
  -25.1560  -28.9210   20.1210 C   0  0  0  0  0  0  0  0  0  0  0  0
  -26.1860  -30.7690   21.4280 C   0  0  0  0  0  2  0  0  0  0  0  0
  -26.3150  -29.3650   20.7690 C   0  0  0  0  0  0  0  0  0  0  0  0
  -27.4910  -28.4910   20.7870 C   0  0  0  0  0  3  0  0  0  0  0  0
  -26.3160  -26.8200   19.5360 C   0  0  0  0  0  3  0  0  0  0  0  0
  -25.1790  -27.6690   19.4840 C   0  0  0  0  0  3  0  0  0  0  0  0
  -23.9110  -29.8080   20.1350 C   0  0  0  0  0  2  0  0  0  0  0  0
  -24.8690  -31.0750   22.0950 N   0  0  0  0  0  0  0  0  0  0  0  0
  -23.6260  -32.1500   23.6800 O   0  0  0  0  0  0  0  0  0  0  0  0
  -22.9340  -29.4580   22.4470 C   0  0  0  0  0  0  0  0  0  0  0  0
  -21.6120  -29.2600   22.2870 N   0  0  0  0  0  0  0  0  0  0  0  0
  -23.5940  -28.8430   23.2880 O   0  0  0  0  0  0  0  0  0  0  0  0
  -21.1330  -29.8090   21.5870 H   0  0  0  0  0  0  0  0  0  0  0  0
  -18.2490  -27.9640   22.7020 C   0  0  0  0  0  0  0  0  0  0  0  0
  -20.7940  -28.2950   23.0290 C   0  0  0  0  0  3  0  0  0  0  0  0
  -20.9470  -26.8720   22.4450 C   0  0  0  0  0  2  0  0  0  0  0  0
  -19.8780  -26.5290   21.4010 C   0  0  0  0  0  2  0  0  0  0  0  0
  -18.4780  -26.6280   22.0140 C   0  0  0  0  0  2  0  0  0  0  0  0
  -19.3360  -28.7530   23.1640 C   0  0  0  0  0  0  0  0  0  0  0  0
  -19.0660  -30.0000   23.7690 C   0  0  0  0  0  3  0  0  0  0  0  0
  -17.7440  -30.4600   23.9150 C   0  0  0  0  0  3  0  0  0  0  0  0
  -16.6720  -29.6690   23.4670 C   0  0  0  0  0  3  0  0  0  0  0  0
  -16.9250  -28.4220   22.8660 C   0  0  0  0  0  3  0  0  0  0  0  0
  -25.9720  -32.5670   23.8580 C   0  0  0  0  0  3  0  0  0  0  0  0
  -25.6160  -33.9630   24.1700 N   0  0  0  0  0  0  0  0  0  0  0  0
  -25.9490  -35.0250   23.4240 C   0  0  0  0  0  0  0  0  0  0  0  0
  -26.6490  -34.9350   22.4130 O   0  0  0  0  0  0  0  0  0  0  0  0
  -24.9940  -34.1050   24.9520 H   0  0  0  0  0  0  0  0  0  0  0  0
  -24.1890  -36.7850   23.0330 C   0  0  0  0  0  1  0  0  0  0  0  0
  -25.4230  -36.4060   23.8680 C   0  0  0  0  0  3  0  0  0  0  0  0
  -27.5170  -37.3480   24.7430 C   0  0  0  0  0  1  0  0  0  0  0  0
  -26.4340  -37.4820   23.7710 N   0  0  0  0  0  0  0  0  0  0  0  0
  -26.0040  -38.3930   23.9000 H   0  0  0  0  0  0  0  0  0  0  0  0
  -26.4460  -31.8240   25.1690 C   0  0  1  0  0  0  0  0  0  0  0  0
  -25.3060  -31.5550   26.1800 C   0  0  0  0  0  1  0  0  0  0  0  0
  -27.0980  -30.4640   24.8270 C   0  0  0  0  0  1  0  0  0  0  0  0
  -27.5310  -32.6620   25.8840 C   0  0  0  0  0  1  0  0  0  0  0  0
  2  1  2  0
  3  6  2  0
  3  5  1  0
  4  1  1  0
  4  7  1  0
  5  4  2  0
  6  2  1  0
  8  7  1  0
  9 10  1  0
  9  5  1  0
  9  8  1  0
 11 16  1  0
 12 13  1  0
 12 11  1  0
 14 13  1  0
 14 21  1  0
 14 15  1  0
 16 10  1  0
 16 15  1  0
 17 10  2  0
 18 19  2  0
 19 38  1  0
 20 19  1  0
 20 23  1  0
 21 22  1  0
 21 18  1  0
 22 20  2  0
 23 24  1  0
 24 25  2  0
 26 29  1  0
 26 25  1  0
 27 26  2  0
 28 27  1  0
 28 23  2  0
 29 30  1  0
 30 35  2  0
 30 31  1  0
 31 32  2  0
 32 33  1  0
 33 37  1  0
 34 33  2  0
 35 34  1  0
 36 35  1  0
 38 39  1  0
 39 42  1  0
 39 41  1  0
 40 38  2  0
 43 18  1  0
 43 44  1  0
 45 43  1  0
 47 46  1  0
 47  6  1  0
 47 48  1  0
 49 48  1  0
 50 61  2  0
 51 49  1  0
 51 56  1  0
 52 60  1  0
 52 62  1  0
 53 59  1  0
 53 55  1  0
 54 60  1  0
 55 56  2  0
 55 54  1  0
 57 51  2  0
 58 57  1  0
 58 53  2  0
 59 52  1  0
 60 50  1  0
 62 64  2  0
 63 62  1  0
 65 63  1  0
 66 75  2  0
 66 71  1  0
 67 63  1  0
 67 71  1  0
 68 67  1  0
 69 70  1  0
 69 68  1  0
 70 66  1  0
 71 72  2  0
 72 73  1  0
 74 73  2  0
 75 74  1  0
 76 50  1  0
 76 77  1  0
 76 86  1  0
 77 80  1  0
 78 82  1  0
 78 77  1  0
 79 78  2  0
 82 81  1  0
 84 82  1  0
 84 85  1  0
 84 83  1  0
 86 89  1  1
 86 87  1  0
 88 86  1  0
M  ISO  4   9 100  10 100  48 101  49 101
M  END
>  <TORSDO>  (67) 
F 18

>  <SCORE>  (67) 
-15.115

>  <name>  (67) 
66

>  <ligand_id>  (67) 
66

>  <original_smiles>  (67) 
[H]c1c([H])c([H])c2c(c1[H])C([H])([H])C([H])([H])C([H])([H])C2([H])N([H])C(=O)C1([H])N(C(=O)C([H])(N([H])C(=O)C([H])(N([H])C([H])([H])[H])C([H])([H])[H])C(C([H])([H])[H])(C([H])([H])[H])C([H])([H])[H])C([H])([H])c2c([H])c(OC([H])([H])C([H])(c3c([H])c([H])c4c(c3[H])C([H])(C(=O)N3C([H])([H])C([H])([H])C([H])([H])C([H])(n5nc(-c6c([H])c([H])c(Oc7c([H])c([H])c(F)c([H])c7F)c([H])c6[H])c(C(=O)N([H])[H])c5N([H])[H])C3([H])[H])C([H])([H])C4([H])[H])C([H])([H])[H])c([H])c([H])c2C1([H])[H]

>  <smiles>  (67) 
[H]c1c([H])c([H])c2c(c1[H])C([H])([H])C([H])([H])C([H])([H])C2([H])N([H])C(=O)C1([H])N(C(=O)C([H])(N([H])C(=O)C([H])(N([H])C([H])([H])[H])C([H])([H])[H])C(C([H])([H])[H])(C([H])([H])[H])C([H])([H])[H])C([H])([H])c2c([H])c(OC([H])([H])C([H])(c3c([H])c([H])c4c(c3[H])C([H])(C(=O)N3C([H])([H])C([H])([H])C([H])([H])C([H])(n5nc(-c6c([H])c([H])c(Oc7c([H])c([H])c(F)c([H])c7F)c([H])c6[H])c(C(=O)N([H])[H])c5N([H])[H])C3([H])[H])C([H])([H])C4([H])[H])C([H])([H])[H])c([H])c([H])c2C1([H])[H]

$$$$
67:0:0
     RDKit          3D

 94103  0  0  1  0  0  0  0  0999 V2000
  -28.0560  -22.8080   20.8150 C   0  0  0  0  0  3  0  0  0  0  0  0
  -28.5550  -21.4980   20.6040 C   0  0  0  0  0  0  0  0  0  0  0  0
  -29.8560  -21.3170   20.0400 C   0  0  0  0  0  0  0  0  0  0  0  0
  -28.7790  -23.9570   20.4320 C   0  0  0  0  0  0  0  0  0  0  0  0
  -30.4280  -22.5360   19.5200 C   0  0  0  0  0  0  0  0  0  0  0  0
  -27.6180  -20.3570   20.9510 C   0  0  0  0  0  1  0  0  0  0  0  0
  -31.6580  -22.5520   18.6140 C   0  0  0  0  0  1  0  0  0  0  0  0
  -29.9340  -23.7940   19.7420 N   0  0  0  0  0  0  0  0  0  0  0  0
  -32.0520  -20.2320   20.7160 C   0  0  0  0  0  1  0  0  0  0  0  0
  -30.6960  -19.9540   20.0140 C   0  0  0  0  0  3  0  0  0  0  0  0
  -30.0870  -18.2430   22.0140 C   0  0  0  0  0  2  0  0  0  0  0  0
  -31.3340  -17.3650   21.8960 C   0  0  0  0  0  2  0  0  0  0  0  0
  -30.1270  -18.5320   20.4970 C   0  0  0  0  0  3  0  0  0  0  0  0
  -31.0130  -17.2000   20.4080 C   0  0  0  0  0  3  0  0  0  0  0  0
  -31.0280  -14.7050   19.9690 C   0  0  0  0  0  0  0  0  0  0  0  0
  -30.6800  -12.4660   18.9870 C   0  0  0  0  0  2  0  0  0  0  0  0
  -29.7080  -12.5720   17.7940 C   0  0  0  0  0  2  0  0  0  0  0  0
  -28.2530  -12.4410   18.2780 C   0  0  0  0  0  2  0  0  0  0  0  0
  -27.9370  -13.3590   19.4900 C   0  0  0  0  0  3  0  0  0  0  0  0
  -29.0290  -13.2640   20.5780 C   0  0  0  0  0  2  0  0  0  0  0  0
  -30.3230  -13.5370   19.9340 N   0  0  0  0  0  0  0  0  0  0  0  0
  -32.2000  -14.7600   19.5920 O   0  0  0  0  0  0  0  0  0  0  0  0
  -30.3540  -15.8570   20.2460 N   0  0  0  0  0  0  0  0  0  0  0  0
  -29.3730  -15.7730   20.4660 H   0  0  0  0  0  0  0  0  0  0  0  0
  -25.5800  -13.9920   20.2960 C   0  0  0  0  0  0  0  0  0  0  0  0
  -24.5150  -13.2320   20.7030 C   0  0  0  0  0  0  0  0  0  0  0  0
  -24.9560  -11.8760   20.6560 C   0  0  0  0  0  0  0  0  0  0  0  0
  -26.6040  -13.0960   20.0280 N   0  0  0  0  0  0  0  0  0  0  0  0
  -26.2350  -11.8190   20.3070 N   0  0  0  0  0  0  0  0  0  0  0  0
  -24.2170  -10.6250   20.8690 C   0  0  0  0  0  0  0  0  0  0  0  0
  -24.6260   -9.6810   21.8360 C   0  0  0  0  0  3  0  0  0  0  0  0
  -23.8880   -8.4930   22.0340 C   0  0  0  0  0  3  0  0  0  0  0  0
  -22.7260   -8.2420   21.2640 C   0  0  0  0  0  0  0  0  0  0  0  0
  -22.3370   -9.1740   20.2870 C   0  0  0  0  0  3  0  0  0  0  0  0
  -23.0760  -10.3530   20.0870 C   0  0  0  0  0  3  0  0  0  0  0  0
  -21.9620   -7.1040   21.3720 O   0  0  0  0  0  0  0  0  0  0  0  0
  -21.8330   -6.4320   22.5600 C   0  0  0  0  0  0  0  0  0  0  0  0
  -21.3250   -7.0580   23.7200 C   0  0  0  0  0  3  0  0  0  0  0  0
  -21.1440   -6.3110   24.9000 C   0  0  0  0  0  3  0  0  0  0  0  0
  -21.4610   -4.9390   24.9230 C   0  0  0  0  0  0  0  0  0  0  0  0
  -21.9610   -4.3130   23.7680 C   0  0  0  0  0  3  0  0  0  0  0  0
  -22.1440   -5.0570   22.5890 C   0  0  0  0  0  0  0  0  0  0  0  0
  -22.6060   -4.4450   21.4720 F   0  0  0  0  0  0  0  0  0  0  0  0
  -21.2800   -4.2200   26.0550 F   0  0  0  0  0  0  0  0  0  0  0  0
  -23.1350  -13.7320   21.0170 C   0  0  0  0  0  0  0  0  0  0  0  0
  -22.4300  -13.0560   21.9190 N   0  0  0  0  0  0  0  0  0  0  0  0
  -22.6940  -14.7570   20.5010 O   0  0  0  0  0  0  0  0  0  0  0  0
  -22.8020  -12.2300   22.3610 H   0  0  0  0  0  0  0  0  0  0  0  0
  -21.5050  -13.3720   22.1710 H   0  0  0  0  0  0  0  0  0  0  0  0
  -25.7540  -15.3590   20.1080 N   0  0  0  0  0  0  0  0  0  0  0  0
  -24.9910  -16.0150   20.2300 H   0  0  0  0  0  0  0  0  0  0  0  0
  -26.5810  -15.7890   19.7150 H   0  0  0  0  0  0  0  0  0  0  0  0
  -28.3160  -25.3660   20.9560 C   0  0  0  0  0  2  0  0  0  0  0  0
  -28.4970  -26.6010   20.1830 O   0  0  0  0  0  0  0  0  0  0  0  0
  -24.6400  -31.8830   23.2490 C   0  0  0  0  0  0  0  0  0  0  0  0
  -27.3760  -27.4330   20.1710 C   0  0  0  0  0  0  0  0  0  0  0  0
  -23.4800  -30.4800   21.5740 C   0  0  0  0  0  3  0  0  0  0  0  0
  -24.9760  -28.9680   20.1580 C   0  0  0  0  0  0  0  0  0  0  0  0
  -26.0130  -30.8510   21.4290 C   0  0  0  0  0  2  0  0  0  0  0  0
  -26.1270  -29.4830   20.7710 C   0  0  0  0  0  0  0  0  0  0  0  0
  -27.3340  -28.7260   20.7690 C   0  0  0  0  0  3  0  0  0  0  0  0
  -26.2040  -26.9540   19.5500 C   0  0  0  0  0  3  0  0  0  0  0  0
  -25.0120  -27.7050   19.5430 C   0  0  0  0  0  3  0  0  0  0  0  0
  -23.7230  -29.8150   20.1930 C   0  0  0  0  0  2  0  0  0  0  0  0
  -24.7280  -31.0870   22.1420 N   0  0  0  0  0  0  0  0  0  0  0  0
  -23.5460  -32.1410   23.7710 O   0  0  0  0  0  0  0  0  0  0  0  0
  -22.8180  -29.4480   22.5170 C   0  0  0  0  0  0  0  0  0  0  0  0
  -21.5000  -29.2450   22.3580 N   0  0  0  0  0  0  0  0  0  0  0  0
  -23.4900  -28.8340   23.3480 O   0  0  0  0  0  0  0  0  0  0  0  0
  -21.0200  -29.7890   21.6570 H   0  0  0  0  0  0  0  0  0  0  0  0
  -18.1400  -27.9620   22.7510 C   0  0  0  0  0  0  0  0  0  0  0  0
  -20.6800  -28.2900   23.1060 C   0  0  0  0  0  3  0  0  0  0  0  0
  -20.8400  -26.8600   22.5400 C   0  0  0  0  0  2  0  0  0  0  0  0
  -19.7810  -26.5040   21.4910 C   0  0  0  0  0  2  0  0  0  0  0  0
  -18.3750  -26.6150   22.0880 C   0  0  0  0  0  2  0  0  0  0  0  0
  -19.2230  -28.7550   23.2140 C   0  0  0  0  0  0  0  0  0  0  0  0
  -18.9500  -30.0150   23.7920 C   0  0  0  0  0  3  0  0  0  0  0  0
  -17.6280  -30.4810   23.9120 C   0  0  0  0  0  3  0  0  0  0  0  0
  -16.5600  -29.6850   23.4650 C   0  0  0  0  0  3  0  0  0  0  0  0
  -16.8160  -28.4270   22.8900 C   0  0  0  0  0  3  0  0  0  0  0  0
  -25.9060  -32.5220   23.8960 C   0  0  0  0  0  3  0  0  0  0  0  0
  -26.3930  -31.7640   25.1910 C   0  0  1  0  0  0  0  0  0  0  0  0
  -25.2740  -31.5300   26.2320 C   0  0  0  0  0  1  0  0  0  0  0  0
  -26.9920  -30.3860   24.8250 C   0  0  0  0  0  1  0  0  0  0  0  0
  -27.5260  -32.5680   25.8730 C   0  0  0  0  0  1  0  0  0  0  0  0
  -25.5860  -33.9230   24.2060 N   0  0  0  0  0  0  0  0  0  0  0  0
  -25.9410  -34.9710   23.4500 C   0  0  0  0  0  0  0  0  0  0  0  0
  -26.6410  -34.8610   22.4390 O   0  0  0  0  0  0  0  0  0  0  0  0
  -24.9670  -34.0830   24.9870 H   0  0  0  0  0  0  0  0  0  0  0  0
  -24.2220  -36.7580   23.0300 C   0  0  0  0  0  1  0  0  0  0  0  0
  -25.4390  -36.3620   23.8810 C   0  0  0  0  0  3  0  0  0  0  0  0
  -27.5460  -37.2560   24.7690 C   0  0  0  0  0  1  0  0  0  0  0  0
  -26.4750  -37.4140   23.7890 N   0  0  0  0  0  0  0  0  0  0  0  0
  -26.0650  -38.3350   23.9160 H   0  0  0  0  0  0  0  0  0  0  0  0
  2  1  1  0
  2  6  1  0
  3  2  2  0
  4  1  2  0
  4 53  1  0
  5  8  2  0
  5  3  1  0
  7  5  1  0
  8  4  1  0
 10  3  1  0
 10  9  1  0
 12 11  1  0
 13 10  1  0
 13 11  1  0
 14 23  1  0
 14 13  1  0
 14 12  1  0
 15 23  1  0
 16 21  1  0
 17 18  1  0
 17 16  1  0
 19 18  1  0
 19 28  1  0
 19 20  1  0
 21 15  1  0
 21 20  1  0
 22 15  2  0
 23 24  1  0
 25 26  2  0
 26 45  1  0
 27 26  1  0
 27 30  1  0
 28 25  1  0
 28 29  1  0
 29 27  2  0
 30 31  1  0
 31 32  2  0
 33 36  1  0
 33 32  1  0
 34 33  2  0
 35 34  1  0
 35 30  2  0
 36 37  1  0
 37 42  2  0
 37 38  1  0
 38 39  2  0
 39 40  1  0
 40 44  1  0
 41 40  2  0
 42 41  1  0
 43 42  1  0
 45 46  1  0
 46 49  1  0
 46 48  1  0
 47 45  2  0
 50 51  1  0
 50 25  1  0
 52 50  1  0
 54 53  1  0
 55 66  2  0
 56 54  1  0
 56 61  1  0
 57 65  1  0
 57 67  1  0
 58 64  1  0
 58 60  1  0
 59 65  1  0
 60 59  1  0
 61 60  2  0
 62 56  2  0
 63 62  1  0
 63 58  2  0
 64 57  1  0
 65 55  1  0
 67 69  2  0
 68 67  1  0
 70 68  1  0
 71 80  2  0
 71 76  1  0
 72 68  1  0
 72 76  1  0
 73 72  1  0
 74 75  1  0
 74 73  1  0
 75 71  1  0
 76 77  2  0
 77 78  1  0
 79 78  2  0
 80 79  1  0
 81 55  1  0
 81 86  1  0
 81 82  1  0
 82 85  1  1
 82 83  1  0
 84 82  1  0
 86 89  1  0
 87 91  1  0
 87 86  1  0
 88 87  2  0
 91 90  1  0
 93 91  1  0
 93 94  1  0
 93 92  1  0
M  ISO  4  15 100  23 100  53 101  54 101
M  END
>  <TORSDO>  (68) 
F 19

>  <SCORE>  (68) 
-13.025

>  <name>  (68) 
67

>  <ligand_id>  (68) 
67

>  <original_smiles>  (68) 
[H]c1c([H])c([H])c2c(c1[H])C([H])([H])C([H])([H])C([H])([H])C2([H])N([H])C(=O)C1([H])N(C(=O)C([H])(N([H])C(=O)C([H])(N([H])C([H])([H])[H])C([H])([H])[H])C(C([H])([H])[H])(C([H])([H])[H])C([H])([H])[H])C([H])([H])c2c([H])c(OC([H])([H])c3nc(C([H])([H])[H])c(C([H])(C([H])([H])[H])C4([H])C([H])([H])C([H])([H])C4([H])N([H])C(=O)N4C([H])([H])C([H])([H])C([H])([H])C([H])(n5nc(-c6c([H])c([H])c(Oc7c([H])c([H])c(F)c([H])c7F)c([H])c6[H])c(C(=O)N([H])[H])c5N([H])[H])C4([H])[H])c(C([H])([H])[H])c3[H])c([H])c([H])c2C1([H])[H]

>  <smiles>  (68) 
[H]c1c([H])c([H])c2c(c1[H])C([H])([H])C([H])([H])C([H])([H])C2([H])N([H])C(=O)C1([H])N(C(=O)C([H])(N([H])C(=O)C([H])(N([H])C([H])([H])[H])C([H])([H])[H])C(C([H])([H])[H])(C([H])([H])[H])C([H])([H])[H])C([H])([H])c2c([H])c(OC([H])([H])c3nc(C([H])([H])[H])c(C([H])(C([H])([H])[H])C4([H])C([H])([H])C([H])([H])C4([H])N([H])C(=O)N4C([H])([H])C([H])([H])C([H])([H])C([H])(n5nc(-c6c([H])c([H])c(Oc7c([H])c([H])c(F)c([H])c7F)c([H])c6[H])c(C(=O)N([H])[H])c5N([H])[H])C4([H])[H])c(C([H])([H])[H])c3[H])c([H])c([H])c2C1([H])[H]

$$$$
68:0:0
     RDKit          3D

 99108  0  0  1  0  0  0  0  0999 V2000
  -29.4420  -19.8780   21.9470 C   0  0  0  0  0  2  0  0  0  0  0  0
  -29.7170  -18.3640   21.8580 C   0  0  0  0  0  2  0  0  0  0  0  0
  -29.8800  -20.0180   19.4150 C   0  0  0  0  0  2  0  0  0  0  0  0
  -29.0110  -20.4980   20.6000 C   0  0  0  0  0  3  0  0  0  0  0  0
  -30.7620  -18.0660   20.7600 C   0  0  0  0  0  3  0  0  0  0  0  0
  -30.1650  -18.4910   19.3790 C   0  0  0  0  0  3  0  0  0  0  0  0
  -30.0870  -24.0070   20.9470 C   0  0  0  0  0  3  0  0  0  0  0  0
  -27.7490  -23.9750   20.5240 C   0  0  0  0  0  3  0  0  0  0  0  0
  -28.9070  -24.7340   20.7530 C   0  0  0  0  0  0  0  0  0  0  0  0
  -28.9560  -22.0320   20.6660 C   0  0  0  0  0  0  0  0  0  0  0  0
  -30.1050  -22.6620   20.9010 N   0  0  0  0  0  0  0  0  0  0  0  0
  -27.7810  -22.6250   20.4770 N   0  0  0  0  0  0  0  0  0  0  0  0
  -28.8850  -26.2540   20.8550 C   0  0  0  0  0  2  0  0  0  0  0  0
  -28.4780  -26.8770   19.6380 O   0  0  0  0  0  0  0  0  0  0  0  0
  -24.6430  -31.8220   23.0540 C   0  0  0  0  0  0  0  0  0  0  0  0
  -27.3130  -27.5950   19.7280 C   0  0  0  0  0  0  0  0  0  0  0  0
  -23.4270  -30.4520   21.3890 C   0  0  0  0  0  3  0  0  0  0  0  0
  -24.8830  -29.0140   19.8650 C   0  0  0  0  0  0  0  0  0  0  0  0
  -25.9330  -30.8910   21.1400 C   0  0  0  0  0  2  0  0  0  0  0  0
  -26.0380  -29.5490   20.4490 C   0  0  0  0  0  0  0  0  0  0  0  0
  -27.2580  -28.8410   20.3890 C   0  0  0  0  0  3  0  0  0  0  0  0
  -26.1500  -27.0730   19.1290 C   0  0  0  0  0  3  0  0  0  0  0  0
  -24.9310  -27.7730   19.2050 C   0  0  0  0  0  3  0  0  0  0  0  0
  -23.6160  -29.8320   19.9780 C   0  0  0  0  0  2  0  0  0  0  0  0
  -24.6860  -31.0680   21.9200 N   0  0  0  0  0  0  0  0  0  0  0  0
  -23.5710  -32.0450   23.6340 O   0  0  0  0  0  0  0  0  0  0  0  0
  -22.8320  -29.3770   22.3260 C   0  0  0  0  0  0  0  0  0  0  0  0
  -21.5080  -29.1690   22.2290 N   0  0  0  0  0  0  0  0  0  0  0  0
  -23.5540  -28.7350   23.0930 O   0  0  0  0  0  0  0  0  0  0  0  0
  -20.9860  -29.7400   21.5800 H   0  0  0  0  0  0  0  0  0  0  0  0
  -18.1750  -27.8940   22.7890 C   0  0  0  0  0  0  0  0  0  0  0  0
  -20.7360  -28.1820   22.9830 C   0  0  0  0  0  3  0  0  0  0  0  0
  -20.8410  -26.7830   22.3350 C   0  0  0  0  0  2  0  0  0  0  0  0
  -19.7080  -26.4890   21.3470 C   0  0  0  0  0  2  0  0  0  0  0  0
  -18.3480  -26.5800   22.0460 C   0  0  0  0  0  2  0  0  0  0  0  0
  -19.2970  -28.6540   23.2160 C   0  0  0  0  0  0  0  0  0  0  0  0
  -19.0810  -29.8830   23.8730 C   0  0  0  0  0  3  0  0  0  0  0  0
  -17.7770  -30.3570   24.1080 C   0  0  0  0  0  3  0  0  0  0  0  0
  -16.6700  -29.5930   23.6990 C   0  0  0  0  0  3  0  0  0  0  0  0
  -16.8700  -28.3630   23.0470 C   0  0  0  0  0  3  0  0  0  0  0  0
  -25.9300  -32.4620   23.6610 C   0  0  0  0  0  3  0  0  0  0  0  0
  -25.5960  -33.8350   24.0590 N   0  0  0  0  0  0  0  0  0  0  0  0
  -25.8900  -34.9260   23.3400 C   0  0  0  0  0  0  0  0  0  0  0  0
  -26.5420  -34.8840   22.2920 O   0  0  0  0  0  0  0  0  0  0  0  0
  -25.0150  -33.9400   24.8780 H   0  0  0  0  0  0  0  0  0  0  0  0
  -24.1210  -36.6950   23.0840 C   0  0  0  0  0  1  0  0  0  0  0  0
  -25.3770  -36.2810   23.8670 C   0  0  0  0  0  3  0  0  0  0  0  0
  -27.4920  -37.1770   24.7330 C   0  0  0  0  0  1  0  0  0  0  0  0
  -26.3860  -37.3590   23.7960 N   0  0  0  0  0  0  0  0  0  0  0  0
  -25.9610  -38.2650   23.9820 H   0  0  0  0  0  0  0  0  0  0  0  0
  -26.5100  -31.6510   24.8840 C   0  0  1  0  0  0  0  0  0  0  0  0
  -25.4480  -31.2960   25.9530 C   0  0  0  0  0  1  0  0  0  0  0  0
  -27.1580  -30.3300   24.4070 C   0  0  0  0  0  1  0  0  0  0  0  0
  -27.6300  -32.4660   25.5710 C   0  0  0  0  0  1  0  0  0  0  0  0
  -32.0560  -16.3550   22.2260 C   0  0  0  0  0  1  0  0  0  0  0  0
  -31.4080  -16.6470   20.8600 C   0  0  0  0  0  3  0  0  0  0  0  0
  -30.9030  -14.5710   19.6080 C   0  0  0  0  0  0  0  0  0  0  0  0
  -30.3520  -12.4670   18.4620 C   0  0  0  0  0  2  0  0  0  0  0  0
  -29.2680  -12.7030   17.3950 C   0  0  0  0  0  2  0  0  0  0  0  0
  -27.8690  -12.5600   18.0190 C   0  0  0  0  0  2  0  0  0  0  0  0
  -27.7090  -13.3820   19.3270 C   0  0  0  0  0  3  0  0  0  0  0  0
  -28.9050  -13.1690   20.2840 C   0  0  0  0  0  2  0  0  0  0  0  0
  -30.1440  -13.4460   19.5400 N   0  0  0  0  0  0  0  0  0  0  0  0
  -31.8830  -14.7430   18.8820 O   0  0  0  0  0  0  0  0  0  0  0  0
  -30.5370  -15.5190   20.4880 N   0  0  0  0  0  0  0  0  0  0  0  0
  -29.7030  -15.3560   21.0330 H   0  0  0  0  0  0  0  0  0  0  0  0
  -25.4590  -13.9670   20.4270 C   0  0  0  0  0  0  0  0  0  0  0  0
  -24.4360  -13.1860   20.8920 C   0  0  0  0  0  0  0  0  0  0  0  0
  -24.8500  -11.8330   20.6940 C   0  0  0  0  0  0  0  0  0  0  0  0
  -26.4360  -13.0910   19.9810 N   0  0  0  0  0  0  0  0  0  0  0  0
  -26.0800  -11.7970   20.1950 N   0  0  0  0  0  0  0  0  0  0  0  0
  -24.1260  -10.5710   20.8960 C   0  0  0  0  0  0  0  0  0  0  0  0
  -24.5830   -9.5930   21.8050 C   0  0  0  0  0  3  0  0  0  0  0  0
  -23.8570   -8.3970   21.9950 C   0  0  0  0  0  3  0  0  0  0  0  0
  -22.6590   -8.1720   21.2760 C   0  0  0  0  0  0  0  0  0  0  0  0
  -22.2210   -9.1390   20.3540 C   0  0  0  0  0  3  0  0  0  0  0  0
  -22.9470  -10.3260   20.1610 C   0  0  0  0  0  3  0  0  0  0  0  0
  -21.9030   -7.0290   21.3760 O   0  0  0  0  0  0  0  0  0  0  0  0
  -21.7950   -6.3390   22.5570 C   0  0  0  0  0  0  0  0  0  0  0  0
  -21.2370   -6.9250   23.7140 C   0  0  0  0  0  3  0  0  0  0  0  0
  -21.0800   -6.1590   24.8870 C   0  0  0  0  0  3  0  0  0  0  0  0
  -21.4720   -4.8070   24.9020 C   0  0  0  0  0  0  0  0  0  0  0  0
  -22.0220   -4.2200   23.7490 C   0  0  0  0  0  3  0  0  0  0  0  0
  -22.1800   -4.9830   22.5790 C   0  0  0  0  0  0  0  0  0  0  0  0
  -22.6920   -4.4070   21.4650 F   0  0  0  0  0  0  0  0  0  0  0  0
  -21.3140   -4.0680   26.0250 F   0  0  0  0  0  0  0  0  0  0  0  0
  -23.1080  -13.6640   21.4040 C   0  0  0  0  0  0  0  0  0  0  0  0
  -22.5000  -12.9170   22.3200 N   0  0  0  0  0  0  0  0  0  0  0  0
  -22.6230  -14.7300   21.0270 O   0  0  0  0  0  0  0  0  0  0  0  0
  -22.9090  -12.0540   22.6440 H   0  0  0  0  0  0  0  0  0  0  0  0
  -21.6150  -13.2160   22.7040 H   0  0  0  0  0  0  0  0  0  0  0  0
  -25.6340  -15.3440   20.3280 N   0  0  0  0  0  0  0  0  0  0  0  0
  -24.9110  -16.0020   20.5950 H   0  0  0  0  0  0  0  0  0  0  0  0
  -26.4450  -15.7910   19.9210 H   0  0  0  0  0  0  0  0  0  0  0  0
  -31.0610  -18.1610   18.1530 C   0  0  0  0  0  2  0  0  0  0  0  0
  -31.1730  -18.0790   15.6710 C   0  0  0  0  0  1  0  0  0  0  0  0
  -30.4030  -18.4800   16.8650 N   0  0  0  0  0  4  0  0  0  0  0  0
  -29.5070  -18.0230   16.8220 H   0  0  0  0  0  0  0  0  0  0  0  0
  -30.2400  -19.4730   16.8120 H   0  0  0  0  0  0  0  0  0  0  0  0
  2  1  1  0
  3  4  1  0
  4 10  1  0
  4  1  1  0
  5 56  1  0
  5  2  1  0
  6 95  1  0
  6  3  1  0
  6  5  1  0
  8  9  1  0
  9 13  1  0
  9  7  2  0
 10 11  2  0
 11  7  1  0
 12  8  2  0
 12 10  1  0
 14 16  1  0
 14 13  1  0
 15 26  2  0
 16 21  1  0
 17 25  1  0
 17 27  1  0
 18 24  1  0
 18 20  1  0
 19 25  1  0
 20 19  1  0
 21 20  2  0
 22 23  1  0
 22 16  2  0
 23 18  2  0
 24 17  1  0
 25 15  1  0
 27 29  2  0
 28 27  1  0
 30 28  1  0
 31 40  2  0
 31 36  1  0
 32 28  1  0
 32 36  1  0
 33 32  1  0
 34 35  1  0
 34 33  1  0
 35 31  1  0
 36 37  2  0
 37 38  1  0
 39 38  2  0
 40 39  1  0
 41 15  1  0
 41 42  1  0
 41 51  1  0
 42 45  1  0
 43 47  1  0
 43 42  1  0
 44 43  2  0
 47 46  1  0
 49 47  1  0
 49 50  1  0
 49 48  1  0
 51 54  1  1
 51 52  1  0
 53 51  1  0
 56 55  1  0
 57 65  1  0
 58 63  1  0
 59 60  1  0
 59 58  1  0
 61 60  1  0
 61 70  1  0
 61 62  1  0
 63 57  1  0
 63 62  1  0
 64 57  2  0
 65 56  1  0
 65 66  1  0
 67 68  2  0
 68 87  1  0
 69 68  1  0
 69 72  1  0
 70 71  1  0
 70 67  1  0
 71 69  2  0
 72 73  1  0
 73 74  2  0
 75 78  1  0
 75 74  1  0
 76 75  2  0
 77 76  1  0
 77 72  2  0
 78 79  1  0
 79 84  2  0
 79 80  1  0
 80 81  2  0
 81 82  1  0
 82 86  1  0
 83 82  2  0
 84 83  1  0
 85 84  1  0
 87 88  1  0
 88 90  1  0
 88 91  1  0
 89 87  2  0
 92 67  1  0
 92 93  1  0
 94 92  1  0
 96 97  1  0
 97 95  1  0
 98 97  1  0
 99 97  1  0
M  ISO  4  13 101  14 101  57 100  65 100
M  END
>  <TORSDO>  (69) 
F 21

>  <SCORE>  (69) 
-9.894

>  <name>  (69) 
68

>  <ligand_id>  (69) 
68

>  <original_smiles>  (69) 
[H]c1nc(C2([H])C([H])([H])C([H])([H])C([H])(C([H])(N([H])C(=O)N3C([H])([H])C([H])([H])C([H])([H])C([H])(n4nc(-c5c([H])c([H])c(Oc6c([H])c([H])c(F)c([H])c6F)c([H])c5[H])c(C(=O)N([H])[H])c4N([H])[H])C3([H])[H])C([H])([H])[H])C([H])(C([H])([H])[N+]([H])([H])C([H])([H])[H])C2([H])[H])nc([H])c1C([H])([H])Oc1c([H])c([H])c2c(c1[H])C([H])([H])N(C(=O)C([H])(N([H])C(=O)C([H])(N([H])C([H])([H])[H])C([H])([H])[H])C(C([H])([H])[H])(C([H])([H])[H])C([H])([H])[H])C([H])(C(=O)N([H])C1([H])c3c([H])c([H])c([H])c([H])c3C([H])([H])C([H])([H])C1([H])[H])C2([H])[H]

>  <smiles>  (69) 
[H]c1nc(C2([H])C([H])([H])C([H])([H])C([H])(C([H])(N([H])C(=O)N3C([H])([H])C([H])([H])C([H])([H])C([H])(n4nc(-c5c([H])c([H])c(Oc6c([H])c([H])c(F)c([H])c6F)c([H])c5[H])c(C(=O)N([H])[H])c4N([H])[H])C3([H])[H])C([H])([H])[H])C([H])(C([H])([H])[N+]([H])([H])C([H])([H])[H])C2([H])[H])nc([H])c1C([H])([H])Oc1c([H])c([H])c2c(c1[H])C([H])([H])N(C(=O)C([H])(N([H])C(=O)C([H])(N([H])C([H])([H])[H])C([H])([H])[H])C(C([H])([H])[H])(C([H])([H])[H])C([H])([H])[H])C([H])(C(=O)N([H])C1([H])c3c([H])c([H])c([H])c([H])c3C([H])([H])C([H])([H])C1([H])[H])C2([H])[H]

$$$$
69:0:0
     RDKit          3D

 97106  0  0  1  0  0  0  0  0999 V2000
  -29.0260  -20.8700   19.8090 C   0  0  0  0  0  3  0  0  0  0  0  0
  -30.4420  -22.1910   20.8570 C   0  0  0  0  0  3  0  0  0  0  0  0
  -29.2730  -22.2770   20.1610 C   0  0  0  0  0  0  0  0  0  0  0  0
  -29.9530  -19.9770   20.3720 C   0  0  0  0  0  0  0  0  0  0  0  0
  -30.8120  -20.8600   21.0690 N   0  0  0  0  0  0  0  0  0  0  0  0
  -30.9210  -14.6530   19.2480 C   0  0  0  0  0  0  0  0  0  0  0  0
  -30.4560  -12.4520   18.1180 C   0  0  0  0  0  2  0  0  0  0  0  0
  -29.3090  -12.6120   17.0950 C   0  0  0  0  0  2  0  0  0  0  0  0
  -27.9350  -12.4400   17.7700 C   0  0  0  0  0  2  0  0  0  0  0  0
  -27.8270  -13.2470   19.0890 C   0  0  0  0  0  3  0  0  0  0  0  0
  -29.0630  -13.0430   19.9840 C   0  0  0  0  0  2  0  0  0  0  0  0
  -30.2470  -13.4410   19.2080 N   0  0  0  0  0  0  0  0  0  0  0  0
  -31.9300  -14.7950   18.5470 O   0  0  0  0  0  0  0  0  0  0  0  0
  -29.2540  -16.4360   22.0430 C   0  0  0  0  0  2  0  0  0  0  0  0
  -29.0110  -17.8720   21.5230 C   0  0  0  0  0  2  0  0  0  0  0  0
  -30.4480  -15.7180   21.3800 C   0  0  0  0  0  2  0  0  0  0  0  0
  -30.2810  -17.2230   19.4190 C   0  0  0  0  0  2  0  0  0  0  0  0
  -30.0890  -18.3800   20.5490 C   0  0  0  0  0  3  0  0  0  0  0  0
  -30.3570  -15.7510   19.9130 N   0  0  0  0  0  0  0  0  0  0  0  0
  -25.6600  -13.8460   20.3210 C   0  0  0  0  0  0  0  0  0  0  0  0
  -24.6480  -13.0770   20.8280 C   0  0  0  0  0  0  0  0  0  0  0  0
  -25.0260  -11.7190   20.5910 C   0  0  0  0  0  0  0  0  0  0  0  0
  -26.5900  -12.9580   19.8060 N   0  0  0  0  0  0  0  0  0  0  0  0
  -26.2270  -11.6680   20.0260 N   0  0  0  0  0  0  0  0  0  0  0  0
  -24.2870  -10.4700   20.8120 C   0  0  0  0  0  0  0  0  0  0  0  0
  -24.7520   -9.4830   21.7100 C   0  0  0  0  0  3  0  0  0  0  0  0
  -24.0120   -8.2990   21.9180 C   0  0  0  0  0  3  0  0  0  0  0  0
  -22.7920   -8.0930   21.2310 C   0  0  0  0  0  0  0  0  0  0  0  0
  -22.3450   -9.0690   20.3220 C   0  0  0  0  0  3  0  0  0  0  0  0
  -23.0850  -10.2430   20.1100 C   0  0  0  0  0  3  0  0  0  0  0  0
  -22.0180   -6.9650   21.3520 O   0  0  0  0  0  0  0  0  0  0  0  0
  -21.9040   -6.2950   22.5440 C   0  0  0  0  0  0  0  0  0  0  0  0
  -21.4350   -6.9330   23.7140 C   0  0  0  0  0  3  0  0  0  0  0  0
  -21.2640   -6.1900   24.9000 C   0  0  0  0  0  3  0  0  0  0  0  0
  -21.5550   -4.8120   24.9160 C   0  0  0  0  0  0  0  0  0  0  0  0
  -22.0190   -4.1760   23.7530 C   0  0  0  0  0  3  0  0  0  0  0  0
  -22.1900   -4.9150   22.5680 C   0  0  0  0  0  0  0  0  0  0  0  0
  -22.6160   -4.2940   21.4430 F   0  0  0  0  0  0  0  0  0  0  0  0
  -21.3840   -4.0960   26.0520 F   0  0  0  0  0  0  0  0  0  0  0  0
  -23.3570  -13.5730   21.4100 C   0  0  0  0  0  0  0  0  0  0  0  0
  -22.8000  -12.8510   22.3750 N   0  0  0  0  0  0  0  0  0  0  0  0
  -22.8590  -14.6380   21.0430 O   0  0  0  0  0  0  0  0  0  0  0  0
  -23.2180  -11.9880   22.6900 H   0  0  0  0  0  0  0  0  0  0  0  0
  -21.9440  -13.1680   22.8060 H   0  0  0  0  0  0  0  0  0  0  0  0
  -25.8570  -15.2210   20.2360 N   0  0  0  0  0  0  0  0  0  0  0  0
  -25.1640  -15.8860   20.5640 H   0  0  0  0  0  0  0  0  0  0  0  0
  -26.6550  -15.6620   19.8010 H   0  0  0  0  0  0  0  0  0  0  0  0
  -31.7160  -21.1980   23.3570 C   0  0  0  0  0  1  0  0  0  0  0  0
  -33.2710  -20.9670   21.3560 C   0  0  0  0  0  1  0  0  0  0  0  0
  -31.9290  -20.5480   21.9770 C   0  0  0  0  0  3  0  0  0  0  0  0
  -28.3790  -23.5990   20.0000 C   0  0  0  0  0  3  0  0  0  0  0  0
  -27.6060  -23.7800   21.2390 N   0  0  0  0  0  4  0  0  0  0  0  0
  -28.1800  -24.1860   21.9570 H   0  0  0  0  0  0  0  0  0  0  0  0
  -27.2760  -22.8870   21.5590 H   0  0  0  0  0  0  0  0  0  0  0  0
  -26.8100  -24.3730   21.0860 H   0  0  0  0  0  0  0  0  0  0  0  0
  -28.9020  -25.0380   19.4300 C   0  0  0  0  0  2  0  0  0  0  0  0
  -28.7540  -26.4030   20.0550 O   0  0  0  0  0  0  0  0  0  0  0  0
  -24.9510  -31.6940   23.1940 C   0  0  0  0  0  0  0  0  0  0  0  0
  -27.6230  -27.2460   19.9700 C   0  0  0  0  0  0  0  0  0  0  0  0
  -23.7620  -30.3220   21.5220 C   0  0  0  0  0  3  0  0  0  0  0  0
  -25.2300  -28.8370   20.0290 C   0  0  0  0  0  0  0  0  0  0  0  0
  -26.2940  -30.6840   21.3290 C   0  0  0  0  0  2  0  0  0  0  0  0
  -26.3910  -29.3220   20.6380 C   0  0  0  0  0  0  0  0  0  0  0  0
  -27.5840  -28.5350   20.6060 C   0  0  0  0  0  3  0  0  0  0  0  0
  -26.4430  -26.8330   19.3160 C   0  0  0  0  0  3  0  0  0  0  0  0
  -25.2590  -27.6020   19.3590 C   0  0  0  0  0  3  0  0  0  0  0  0
  -23.9770  -29.6900   20.1190 C   0  0  0  0  0  2  0  0  0  0  0  0
  -25.0220  -30.9190   22.0710 N   0  0  0  0  0  0  0  0  0  0  0  0
  -23.8670  -31.9330   23.7470 O   0  0  0  0  0  0  0  0  0  0  0  0
  -23.1280  -29.2660   22.4590 C   0  0  0  0  0  0  0  0  0  0  0  0
  -21.8180  -29.0170   22.2960 N   0  0  0  0  0  0  0  0  0  0  0  0
  -23.8170  -28.6700   23.2920 O   0  0  0  0  0  0  0  0  0  0  0  0
  -21.3170  -29.5510   21.5980 H   0  0  0  0  0  0  0  0  0  0  0  0
  -18.5140  -27.5840   22.6570 C   0  0  0  0  0  0  0  0  0  0  0  0
  -21.0320  -28.0300   23.0380 C   0  0  0  0  0  3  0  0  0  0  0  0
  -21.2630  -26.6060   22.4850 C   0  0  0  0  0  2  0  0  0  0  0  0
  -20.2360  -26.1970   21.4230 C   0  0  0  0  0  2  0  0  0  0  0  0
  -18.8180  -26.2470   22.0010 C   0  0  0  0  0  2  0  0  0  0  0  0
  -19.5550  -28.4280   23.1290 C   0  0  0  0  0  0  0  0  0  0  0  0
  -19.2190  -29.6750   23.6990 C   0  0  0  0  0  3  0  0  0  0  0  0
  -17.8770  -30.0820   23.8010 C   0  0  0  0  0  3  0  0  0  0  0  0
  -16.8490  -29.2380   23.3430 C   0  0  0  0  0  3  0  0  0  0  0  0
  -17.1690  -27.9910   22.7780 C   0  0  0  0  0  3  0  0  0  0  0  0
  -26.2240  -32.3370   23.8250 C   0  0  0  0  0  3  0  0  0  0  0  0
  -26.8190  -31.4940   25.0190 C   0  0  1  0  0  0  0  0  0  0  0  0
  -25.7740  -31.1090   26.0920 C   0  0  0  0  0  1  0  0  0  0  0  0
  -27.4640  -30.1870   24.5010 C   0  0  0  0  0  1  0  0  0  0  0  0
  -27.9460  -32.2930   25.7150 C   0  0  0  0  0  1  0  0  0  0  0  0
  -25.8650  -33.6900   24.2770 N   0  0  0  0  0  0  0  0  0  0  0  0
  -26.1200  -34.8150   23.5960 C   0  0  0  0  0  0  0  0  0  0  0  0
  -26.7510  -34.8250   22.5360 O   0  0  0  0  0  0  0  0  0  0  0  0
  -25.2970  -33.7510   25.1090 H   0  0  0  0  0  0  0  0  0  0  0  0
  -24.3030  -36.5510   23.4480 C   0  0  0  0  0  1  0  0  0  0  0  0
  -25.5900  -36.1390   24.1820 C   0  0  0  0  0  3  0  0  0  0  0  0
  -27.7100  -37.0540   25.0160 C   0  0  0  0  0  1  0  0  0  0  0  0
  -26.5720  -37.2440   24.1210 N   0  0  0  0  0  0  0  0  0  0  0  0
  -26.1300  -38.1300   24.3530 H   0  0  0  0  0  0  0  0  0  0  0  0
  1  3  1  0
  1  4  2  0
  2  5  1  0
  3  2  2  0
  4  5  1  0
  5 50  1  0
  6 19  1  0
  7 12  1  0
  8  9  1  0
  8  7  1  0
 10  9  1  0
 10 23  1  0
 10 11  1  0
 12  6  1  0
 12 11  1  0
 13  6  2  0
 15 14  1  0
 16 14  1  0
 17 19  1  0
 17 18  1  0
 18  4  1  0
 18 15  1  0
 19 16  1  0
 20 21  2  0
 21 40  1  0
 22 25  1  0
 22 21  1  0
 23 24  1  0
 23 20  1  0
 24 22  2  0
 25 26  1  0
 26 27  2  0
 28 31  1  0
 28 27  1  0
 29 28  2  0
 30 29  1  0
 30 25  2  0
 31 32  1  0
 32 37  2  0
 32 33  1  0
 33 34  2  0
 34 35  1  0
 35 39  1  0
 36 35  2  0
 37 36  1  0
 38 37  1  0
 40 41  1  0
 41 43  1  0
 41 44  1  0
 42 40  2  0
 45 20  1  0
 45 46  1  0
 47 45  1  0
 49 50  1  0
 50 48  1  0
 51 56  1  0
 51  3  1  0
 51 52  1  0
 52 54  1  0
 52 53  1  0
 55 52  1  0
 56 57  1  0
 58 69  2  0
 59 57  1  0
 59 64  1  0
 60 68  1  0
 60 70  1  0
 61 67  1  0
 61 63  1  0
 62 68  1  0
 63 62  1  0
 64 63  2  0
 65 66  1  0
 65 59  2  0
 66 61  2  0
 67 60  1  0
 68 58  1  0
 70 72  2  0
 71 70  1  0
 73 71  1  0
 74 83  2  0
 74 79  1  0
 75 71  1  0
 75 79  1  0
 76 75  1  0
 77 78  1  0
 77 76  1  0
 78 74  1  0
 79 80  2  0
 80 81  1  0
 82 81  2  0
 83 82  1  0
 84 58  1  0
 84 89  1  0
 84 85  1  0
 85 88  1  1
 85 86  1  0
 87 85  1  0
 89 92  1  0
 90 94  1  0
 90 89  1  0
 91 90  2  0
 94 93  1  0
 96 94  1  0
 96 97  1  0
 96 95  1  0
M  ISO  4   6 100  19 100  56 101  57 101
M  END
>  <TORSDO>  (70) 
F 20

>  <SCORE>  (70) 
-10.426

>  <name>  (70) 
69

>  <ligand_id>  (70) 
69

>  <original_smiles>  (70) 
[H]c1c([H])c([H])c2c(c1[H])C([H])([H])C([H])([H])C([H])([H])C2([H])N([H])C(=O)C1([H])N(C(=O)C([H])(N([H])C(=O)C([H])(N([H])C([H])([H])[H])C([H])([H])[H])C(C([H])([H])[H])(C([H])([H])[H])C([H])([H])[H])C([H])([H])c2c([H])c(OC([H])([H])C([H])(c3c([H])c(C4([H])C([H])([H])N(C(=O)N5C([H])([H])C([H])([H])C([H])([H])C([H])(n6nc(-c7c([H])c([H])c(Oc8c([H])c([H])c(F)c([H])c8F)c([H])c7[H])c(C(=O)N([H])[H])c6N([H])[H])C5([H])[H])C([H])([H])C([H])([H])C4([H])[H])n(C([H])(C([H])([H])[H])C([H])([H])[H])c3[H])[N+]([H])([H])[H])c([H])c([H])c2C1([H])[H]

>  <smiles>  (70) 
[H]c1c([H])c([H])c2c(c1[H])C([H])([H])C([H])([H])C([H])([H])C2([H])N([H])C(=O)C1([H])N(C(=O)C([H])(N([H])C(=O)C([H])(N([H])C([H])([H])[H])C([H])([H])[H])C(C([H])([H])[H])(C([H])([H])[H])C([H])([H])[H])C([H])([H])c2c([H])c(OC([H])([H])C([H])(c3c([H])c(C4([H])C([H])([H])N(C(=O)N5C([H])([H])C([H])([H])C([H])([H])C([H])(n6nc(-c7c([H])c([H])c(Oc8c([H])c([H])c(F)c([H])c8F)c([H])c7[H])c(C(=O)N([H])[H])c6N([H])[H])C5([H])[H])C([H])([H])C([H])([H])C4([H])[H])n(C([H])(C([H])([H])[H])C([H])([H])[H])c3[H])[N+]([H])([H])[H])c([H])c([H])c2C1([H])[H]

$$$$
70:0:0
     RDKit          3D

102111  0  0  1  0  0  0  0  0999 V2000
  -27.7770  -17.9130   20.1060 C   0  0  0  0  0  2  0  0  0  0  0  0
  -26.8680  -18.8060   19.2700 C   0  0  0  0  0  2  0  0  0  0  0  0
  -28.9400  -19.9930   19.5530 C   0  0  0  0  0  3  0  0  0  0  0  0
  -28.8450  -18.8710   20.6450 C   0  0  0  0  0  3  0  0  0  0  0  0
  -27.7440  -19.8410   18.6800 N   0  0  1  0  0  4  0  0  0  0  0  0
  -27.2580  -20.7220   18.7530 H   0  0  0  0  0  0  0  0  0  0  0  0
  -27.8170  -21.9600   20.7740 C   0  0  0  0  0  3  0  0  0  0  0  0
  -27.6800  -23.3310   21.0820 C   0  0  0  0  0  3  0  0  0  0  0  0
  -29.7800  -23.7860   19.9670 C   0  0  0  0  0  3  0  0  0  0  0  0
  -28.9250  -21.4690   20.0360 C   0  0  0  0  0  0  0  0  0  0  0  0
  -28.6510  -24.2680   20.6640 C   0  0  0  0  0  0  0  0  0  0  0  0
  -29.9270  -22.4090   19.6560 C   0  0  0  0  0  0  0  0  0  0  0  0
  -31.1760  -21.9800   18.9020 C   0  0  0  0  0  1  0  0  0  0  0  0
  -28.5230  -25.7550   21.0290 C   0  0  0  0  0  2  0  0  0  0  0  0
  -28.3940  -26.6530   19.9100 O   0  0  0  0  0  0  0  0  0  0  0  0
  -24.5380  -31.6910   23.1810 C   0  0  0  0  0  0  0  0  0  0  0  0
  -27.2440  -27.4110   19.9320 C   0  0  0  0  0  0  0  0  0  0  0  0
  -23.3510  -30.3340   21.4850 C   0  0  0  0  0  3  0  0  0  0  0  0
  -24.8280  -28.8800   19.9940 C   0  0  0  0  0  0  0  0  0  0  0  0
  -25.8680  -30.7440   21.2960 C   0  0  0  0  0  2  0  0  0  0  0  0
  -25.9790  -29.4020   20.6010 C   0  0  0  0  0  0  0  0  0  0  0  0
  -27.1920  -28.6740   20.5690 C   0  0  0  0  0  3  0  0  0  0  0  0
  -26.0830  -26.9070   19.3120 C   0  0  0  0  0  3  0  0  0  0  0  0
  -24.8760  -27.6330   19.3440 C   0  0  0  0  0  3  0  0  0  0  0  0
  -23.5670  -29.7120   20.0790 C   0  0  0  0  0  2  0  0  0  0  0  0
  -24.6030  -30.9370   22.0460 N   0  0  0  0  0  0  0  0  0  0  0  0
  -23.4550  -31.9210   23.7350 O   0  0  0  0  0  0  0  0  0  0  0  0
  -22.7200  -29.2660   22.4060 C   0  0  0  0  0  0  0  0  0  0  0  0
  -21.3990  -29.0610   22.2720 N   0  0  0  0  0  0  0  0  0  0  0  0
  -23.4170  -28.6240   23.1980 O   0  0  0  0  0  0  0  0  0  0  0  0
  -20.8980  -29.6370   21.6090 H   0  0  0  0  0  0  0  0  0  0  0  0
  -18.0560  -27.7520   22.6840 C   0  0  0  0  0  0  0  0  0  0  0  0
  -20.6010  -28.0760   23.0010 C   0  0  0  0  0  3  0  0  0  0  0  0
  -20.7530  -26.6650   22.3860 C   0  0  0  0  0  2  0  0  0  0  0  0
  -19.6770  -26.3410   21.3460 C   0  0  0  0  0  2  0  0  0  0  0  0
  -18.2820  -26.4280   21.9740 C   0  0  0  0  0  2  0  0  0  0  0  0
  -19.1460  -28.5340   23.1500 C   0  0  0  0  0  0  0  0  0  0  0  0
  -18.8850  -29.7730   23.7720 C   0  0  0  0  0  3  0  0  0  0  0  0
  -17.5630  -30.2320   23.9330 C   0  0  0  0  0  3  0  0  0  0  0  0
  -16.4880  -29.4470   23.4850 C   0  0  0  0  0  3  0  0  0  0  0  0
  -16.7340  -28.2090   22.8660 C   0  0  0  0  0  3  0  0  0  0  0  0
  -25.8160  -32.3180   23.8200 C   0  0  0  0  0  3  0  0  0  0  0  0
  -26.3230  -31.5340   25.0920 C   0  0  1  0  0  0  0  0  0  0  0  0
  -25.2230  -31.2940   26.1540 C   0  0  0  0  0  1  0  0  0  0  0  0
  -26.9010  -30.1560   24.6880 C   0  0  0  0  0  1  0  0  0  0  0  0
  -27.4750  -32.3170   25.7670 C   0  0  0  0  0  1  0  0  0  0  0  0
  -25.5020  -33.7100   24.1630 N   0  0  0  0  0  0  0  0  0  0  0  0
  -25.8370  -34.7710   23.4150 C   0  0  0  0  0  0  0  0  0  0  0  0
  -26.5130  -34.6800   22.3870 O   0  0  0  0  0  0  0  0  0  0  0  0
  -24.8990  -33.8530   24.9590 H   0  0  0  0  0  0  0  0  0  0  0  0
  -24.0920  -36.5520   23.0790 C   0  0  0  0  0  1  0  0  0  0  0  0
  -25.3410  -36.1520   23.8800 C   0  0  0  0  0  3  0  0  0  0  0  0
  -27.4710  -37.0530   24.7050 C   0  0  0  0  0  1  0  0  0  0  0  0
  -26.3630  -37.2160   23.7680 N   0  0  0  0  0  0  0  0  0  0  0  0
  -25.9490  -38.1310   23.9240 H   0  0  0  0  0  0  0  0  0  0  0  0
  -26.8180  -19.9280   16.3460 C   0  0  0  0  0  1  0  0  0  0  0  0
  -28.0420  -19.6580   17.2360 C   0  0  0  0  0  2  0  0  0  0  0  0
  -30.1730  -18.1600   21.0940 C   0  0  0  0  0  3  0  0  0  0  0  0
  -30.7320  -17.0200   20.1610 C   0  0  0  0  0  2  0  0  0  0  0  0
  -30.9230  -14.5310   19.9620 C   0  0  0  0  0  0  0  0  0  0  0  0
  -30.5770  -12.2830   19.0060 C   0  0  0  0  0  2  0  0  0  0  0  0
  -29.5910  -12.3790   17.8240 C   0  0  0  0  0  2  0  0  0  0  0  0
  -28.1370  -12.2720   18.3220 C   0  0  0  0  0  2  0  0  0  0  0  0
  -27.8420  -13.2120   19.5220 C   0  0  0  0  0  3  0  0  0  0  0  0
  -28.9400  -13.1020   20.6030 C   0  0  0  0  0  2  0  0  0  0  0  0
  -30.2370  -13.3540   19.9580 N   0  0  0  0  0  0  0  0  0  0  0  0
  -32.0430  -14.6440   19.4610 O   0  0  0  0  0  0  0  0  0  0  0  0
  -30.2500  -15.6300   20.3840 N   0  0  0  0  0  0  0  0  0  0  0  0
  -29.3090  -15.4850   20.7150 H   0  0  0  0  0  0  0  0  0  0  0  0
  -25.5140  -13.8860   20.3810 C   0  0  0  0  0  0  0  0  0  0  0  0
  -24.4430  -13.1470   20.8010 C   0  0  0  0  0  0  0  0  0  0  0  0
  -24.8500  -11.7800   20.7160 C   0  0  0  0  0  0  0  0  0  0  0  0
  -26.5110  -12.9730   20.0740 N   0  0  0  0  0  0  0  0  0  0  0  0
  -26.1190  -11.7010   20.3350 N   0  0  0  0  0  0  0  0  0  0  0  0
  -24.0880  -10.5420   20.9200 C   0  0  0  0  0  0  0  0  0  0  0  0
  -24.5110   -9.5590   21.8420 C   0  0  0  0  0  3  0  0  0  0  0  0
  -23.7510   -8.3850   22.0350 C   0  0  0  0  0  3  0  0  0  0  0  0
  -22.5550   -8.1860   21.3060 C   0  0  0  0  0  0  0  0  0  0  0  0
  -22.1520   -9.1570   20.3720 C   0  0  0  0  0  3  0  0  0  0  0  0
  -22.9120  -10.3220   20.1770 C   0  0  0  0  0  3  0  0  0  0  0  0
  -21.7660   -7.0660   21.4090 O   0  0  0  0  0  0  0  0  0  0  0  0
  -21.6800   -6.3520   22.5770 C   0  0  0  0  0  0  0  0  0  0  0  0
  -21.2410   -6.9440   23.7820 C   0  0  0  0  0  3  0  0  0  0  0  0
  -21.1010   -6.1570   24.9420 C   0  0  0  0  0  3  0  0  0  0  0  0
  -21.3900   -4.7810   24.9000 C   0  0  0  0  0  0  0  0  0  0  0  0
  -21.8220   -4.1890   23.7000 C   0  0  0  0  0  3  0  0  0  0  0  0
  -21.9640   -4.9720   22.5410 C   0  0  0  0  0  0  0  0  0  0  0  0
  -22.3610   -4.3920   21.3820 F   0  0  0  0  0  0  0  0  0  0  0  0
  -21.2480   -4.0220   26.0120 F   0  0  0  0  0  0  0  0  0  0  0  0
  -23.0820  -13.6680   21.1600 C   0  0  0  0  0  0  0  0  0  0  0  0
  -22.3830  -12.9880   22.0610 N   0  0  0  0  0  0  0  0  0  0  0  0
  -22.6500  -14.7160   20.6780 O   0  0  0  0  0  0  0  0  0  0  0  0
  -22.7460  -12.1410   22.4720 H   0  0  0  0  0  0  0  0  0  0  0  0
  -21.4700  -13.3160   22.3440 H   0  0  0  0  0  0  0  0  0  0  0  0
  -25.7180  -15.2510   20.2110 N   0  0  0  0  0  0  0  0  0  0  0  0
  -24.9650  -15.9190   20.3380 H   0  0  0  0  0  0  0  0  0  0  0  0
  -26.5240  -15.6370   19.7410 H   0  0  0  0  0  0  0  0  0  0  0  0
  -30.1010  -17.7520   22.5890 C   0  0  0  0  0  2  0  0  0  0  0  0
  -31.4060  -17.3610   23.1530 N   0  0  0  0  0  4  0  0  0  0  0  0
  -31.7780  -16.5520   22.6900 H   0  0  0  0  0  0  0  0  0  0  0  0
  -31.2990  -17.1340   24.1260 H   0  0  0  0  0  0  0  0  0  0  0  0
  -32.0730  -18.1090   23.0850 H   0  0  0  0  0  0  0  0  0  0  0  0
  1  4  1  0
  2  1  1  0
  3 10  1  0
  3  4  1  0
  4 58  1  0
  5  6  1  6
  5  2  1  0
  5  3  1  0
  7  8  1  0
  9 11  1  0
 10  7  2  0
 11 14  1  0
 11  8  2  0
 12  9  2  0
 12 10  1  0
 13 12  1  0
 15 17  1  0
 15 14  1  0
 16 27  2  0
 17 22  1  0
 18 26  1  0
 18 28  1  0
 19 25  1  0
 19 21  1  0
 20 26  1  0
 21 20  1  0
 22 21  2  0
 23 24  1  0
 23 17  2  0
 24 19  2  0
 25 18  1  0
 26 16  1  0
 28 30  2  0
 29 28  1  0
 31 29  1  0
 32 41  2  0
 32 37  1  0
 33 29  1  0
 33 37  1  0
 34 33  1  0
 35 36  1  0
 35 34  1  0
 36 32  1  0
 37 38  2  0
 38 39  1  0
 40 39  2  0
 41 40  1  0
 42 16  1  0
 42 47  1  0
 42 43  1  0
 43 46  1  1
 43 44  1  0
 45 43  1  0
 47 50  1  0
 48 52  1  0
 48 47  1  0
 49 48  2  0
 52 51  1  0
 54 52  1  0
 54 55  1  0
 54 53  1  0
 56 57  1  0
 57  5  1  0
 58 59  1  0
 58 98  1  0
 59 68  1  0
 60 68  1  0
 61 66  1  0
 62 63  1  0
 62 61  1  0
 64 63  1  0
 64 73  1  0
 64 65  1  0
 66 60  1  0
 66 65  1  0
 67 60  2  0
 68 69  1  0
 70 71  2  0
 71 90  1  0
 72 71  1  0
 72 75  1  0
 73 74  1  0
 73 70  1  0
 74 72  2  0
 75 76  1  0
 76 77  2  0
 78 81  1  0
 78 77  1  0
 79 78  2  0
 80 79  1  0
 80 75  2  0
 81 82  1  0
 82 83  1  0
 83 84  2  0
 85 84  1  0
 85 89  1  0
 86 85  2  0
 87 82  2  0
 87 86  1  0
 88 87  1  0
 90 91  1  0
 91 94  1  0
 91 93  1  0
 92 90  2  0
 95 96  1  0
 95 70  1  0
 97 95  1  0
 98 99  1  0
 99101  1  0
100 99  1  0
102 99  1  0
M  ISO  4  14 101  15 101  60 100  68 100
M  END
>  <TORSDO>  (71) 
F 23

>  <SCORE>  (71) 
-11.534

>  <name>  (71) 
70

>  <ligand_id>  (71) 
70

>  <original_smiles>  (71) 
[H]c1c([H])c([H])c2c(c1[H])C([H])([H])C([H])([H])C([H])([H])C2([H])N([H])C(=O)C1([H])N(C(=O)C([H])(N([H])C(=O)C([H])(N([H])C([H])([H])[H])C([H])([H])[H])C(C([H])([H])[H])(C([H])([H])[H])C([H])([H])[H])C([H])([H])c2c([H])c(OC([H])([H])c3c([H])c([H])c(C4([H])C([H])(C([H])(C([H])([H])N([H])C(=O)N5C([H])([H])C([H])([H])C([H])([H])C([H])(n6nc(-c7c([H])c([H])c(Oc8c([H])c([H])c(F)c([H])c8F)c([H])c7[H])c(C(=O)N([H])[H])c6N([H])[H])C5([H])[H])C([H])([H])[N+]([H])([H])[H])C([H])([H])C([H])([H])[N+]4([H])C([H])([H])C([H])([H])[H])c(C([H])([H])[H])c3[H])c([H])c([H])c2C1([H])[H]

>  <smiles>  (71) 
[H]c1c([H])c([H])c2c(c1[H])C([H])([H])C([H])([H])C([H])([H])C2([H])N([H])C(=O)C1([H])N(C(=O)C([H])(N([H])C(=O)C([H])(N([H])C([H])([H])[H])C([H])([H])[H])C(C([H])([H])[H])(C([H])([H])[H])C([H])([H])[H])C([H])([H])c2c([H])c(OC([H])([H])c3c([H])c([H])c(C4([H])C([H])(C([H])(C([H])([H])N([H])C(=O)N5C([H])([H])C([H])([H])C([H])([H])C([H])(n6nc(-c7c([H])c([H])c(Oc8c([H])c([H])c(F)c([H])c8F)c([H])c7[H])c(C(=O)N([H])[H])c6N([H])[H])C5([H])[H])C([H])([H])[N+]([H])([H])[H])C([H])([H])C([H])([H])[N+]4([H])C([H])([H])C([H])([H])[H])c(C([H])([H])[H])c3[H])c([H])c([H])c2C1([H])[H]

$$$$
71:0:0
     RDKit          3D

 94102  0  0  1  0  0  0  0  0999 V2000
  -30.2160  -19.7260   19.0910 C   0  0  0  0  0  2  0  0  0  0  0  0
  -28.6660  -20.2590   20.9500 C   0  0  0  0  0  2  0  0  0  0  0  0
  -30.9890  -18.7540   20.0110 C   0  0  0  0  0  2  0  0  0  0  0  0
  -29.4460  -19.3020   21.8700 C   0  0  0  0  0  2  0  0  0  0  0  0
  -29.5910  -20.8850   19.8870 C   0  0  0  0  0  3  0  0  0  0  0  0
  -30.1530  -18.2200   21.1270 N   0  0  2  0  0  4  0  0  0  0  0  0
  -29.4430  -17.6320   20.7130 H   0  0  0  0  0  0  0  0  0  0  0  0
  -28.8620  -21.9110   18.9840 C   0  0  0  0  0  2  0  0  0  0  0  0
  -28.3330  -23.0520   19.7710 N   0  0  0  0  0  4  0  0  0  0  0  0
  -28.4640  -22.8400   20.7480 H   0  0  0  0  0  0  0  0  0  0  0  0
  -27.3350  -23.0980   19.6150 H   0  0  0  0  0  0  0  0  0  0  0  0
  -28.9220  -24.3890   19.4820 C   0  0  0  0  0  2  0  0  0  0  0  0
  -28.5510  -25.4200   20.5720 C   0  0  0  0  0  2  0  0  0  0  0  0
  -28.6770  -26.7760   20.1180 O   0  0  0  0  0  0  0  0  0  0  0  0
  -24.6820  -31.7580   23.2490 C   0  0  0  0  0  0  0  0  0  0  0  0
  -27.5020  -27.4900   20.0880 C   0  0  0  0  0  0  0  0  0  0  0  0
  -23.5520  -30.3950   21.5220 C   0  0  0  0  0  3  0  0  0  0  0  0
  -25.0770  -28.9380   20.0880 C   0  0  0  0  0  0  0  0  0  0  0  0
  -26.0730  -30.8120   21.4100 C   0  0  0  0  0  2  0  0  0  0  0  0
  -26.2070  -29.4690   20.7210 C   0  0  0  0  0  0  0  0  0  0  0  0
  -27.4260  -28.7550   20.7140 C   0  0  0  0  0  3  0  0  0  0  0  0
  -26.3540  -26.9730   19.4470 C   0  0  0  0  0  3  0  0  0  0  0  0
  -25.1450  -27.6880   19.4500 C   0  0  0  0  0  3  0  0  0  0  0  0
  -23.8150  -29.7680   20.1270 C   0  0  0  0  0  2  0  0  0  0  0  0
  -24.7850  -30.9980   22.1210 N   0  0  0  0  0  0  0  0  0  0  0  0
  -23.5820  -31.9920   23.7670 O   0  0  0  0  0  0  0  0  0  0  0  0
  -22.8900  -29.3300   22.4240 C   0  0  0  0  0  0  0  0  0  0  0  0
  -21.5670  -29.1520   22.2680 N   0  0  0  0  0  0  0  0  0  0  0  0
  -23.5630  -28.6650   23.2200 O   0  0  0  0  0  0  0  0  0  0  0  0
  -21.0870  -29.7320   21.5930 H   0  0  0  0  0  0  0  0  0  0  0  0
  -18.1830  -27.9680   22.7020 C   0  0  0  0  0  0  0  0  0  0  0  0
  -20.7440  -28.1800   22.9840 C   0  0  0  0  0  3  0  0  0  0  0  0
  -20.8300  -26.7860   22.3200 C   0  0  0  0  0  2  0  0  0  0  0  0
  -19.7230  -26.5370   21.2900 C   0  0  0  0  0  2  0  0  0  0  0  0
  -18.3430  -26.6600   21.9450 C   0  0  0  0  0  2  0  0  0  0  0  0
  -19.3110  -28.6900   23.1750 C   0  0  0  0  0  0  0  0  0  0  0  0
  -19.1100  -29.9170   23.8410 C   0  0  0  0  0  3  0  0  0  0  0  0
  -17.8120  -30.4250   24.0350 C   0  0  0  0  0  3  0  0  0  0  0  0
  -16.6980  -29.6970   23.5810 C   0  0  0  0  0  3  0  0  0  0  0  0
  -16.8840  -28.4710   22.9200 C   0  0  0  0  0  3  0  0  0  0  0  0
  -25.9370  -32.3880   23.9270 C   0  0  0  0  0  3  0  0  0  0  0  0
  -25.5970  -33.7700   24.2910 N   0  0  0  0  0  0  0  0  0  0  0  0
  -25.9330  -34.8490   23.5720 C   0  0  0  0  0  0  0  0  0  0  0  0
  -26.6310  -34.7870   22.5570 O   0  0  0  0  0  0  0  0  0  0  0  0
  -24.9780  -33.8990   25.0780 H   0  0  0  0  0  0  0  0  0  0  0  0
  -24.1860  -36.6240   23.2210 C   0  0  0  0  0  1  0  0  0  0  0  0
  -25.4070  -36.2140   24.0580 C   0  0  0  0  0  3  0  0  0  0  0  0
  -27.4940  -37.1070   24.9940 C   0  0  0  0  0  1  0  0  0  0  0  0
  -26.4240  -37.2870   24.0140 N   0  0  0  0  0  0  0  0  0  0  0  0
  -25.9980  -38.1960   24.1720 H   0  0  0  0  0  0  0  0  0  0  0  0
  -26.4300  -31.5800   25.1910 C   0  0  1  0  0  0  0  0  0  0  0  0
  -25.3050  -31.2710   26.2080 C   0  0  0  0  0  1  0  0  0  0  0  0
  -27.0560  -30.2320   24.7630 C   0  0  0  0  0  1  0  0  0  0  0  0
  -27.5430  -32.3720   25.9160 C   0  0  0  0  0  1  0  0  0  0  0  0
  -30.9140  -17.3660   22.0810 C   0  0  0  0  0  2  0  0  0  0  0  0
  -31.6310  -16.1440   21.4680 C   0  0  0  0  0  2  0  0  0  0  0  0
  -31.0180  -14.2720   19.9680 C   0  0  0  0  0  0  0  0  0  0  0  0
  -30.5060  -12.1600   18.8080 C   0  0  0  0  0  2  0  0  0  0  0  0
  -29.4670  -12.3560   17.6890 C   0  0  0  0  0  2  0  0  0  0  0  0
  -28.0380  -12.2390   18.2520 C   0  0  0  0  0  2  0  0  0  0  0  0
  -27.8240  -13.1120   19.5170 C   0  0  0  0  0  3  0  0  0  0  0  0
  -28.9650  -12.9060   20.5380 C   0  0  0  0  0  2  0  0  0  0  0  0
  -30.2520  -13.1560   19.8600 N   0  0  0  0  0  0  0  0  0  0  0  0
  -31.9700  -14.5090   19.2210 O   0  0  0  0  0  0  0  0  0  0  0  0
  -30.7280  -15.0890   20.9890 N   0  0  0  0  0  0  0  0  0  0  0  0
  -29.9650  -14.8090   21.5870 H   0  0  0  0  0  0  0  0  0  0  0  0
  -25.5350  -13.7740   20.4940 C   0  0  0  0  0  0  0  0  0  0  0  0
  -24.4730  -13.0260   20.9250 C   0  0  0  0  0  0  0  0  0  0  0  0
  -24.8640  -11.6600   20.7690 C   0  0  0  0  0  0  0  0  0  0  0  0
  -26.5110  -12.8660   20.1120 N   0  0  0  0  0  0  0  0  0  0  0  0
  -26.1150  -11.5860   20.3310 N   0  0  0  0  0  0  0  0  0  0  0  0
  -24.1010  -10.4200   20.9580 C   0  0  0  0  0  0  0  0  0  0  0  0
  -24.5250   -9.4230   21.8660 C   0  0  0  0  0  3  0  0  0  0  0  0
  -23.7650   -8.2470   22.0440 C   0  0  0  0  0  3  0  0  0  0  0  0
  -22.5680   -8.0600   21.3130 C   0  0  0  0  0  0  0  0  0  0  0  0
  -22.1630   -9.0430   20.3940 C   0  0  0  0  0  3  0  0  0  0  0  0
  -22.9230  -10.2110   20.2140 C   0  0  0  0  0  3  0  0  0  0  0  0
  -21.7780   -6.9390   21.4040 O   0  0  0  0  0  0  0  0  0  0  0  0
  -21.6600   -6.2320   22.5740 C   0  0  0  0  0  0  0  0  0  0  0  0
  -21.1510   -6.8200   23.7520 C   0  0  0  0  0  3  0  0  0  0  0  0
  -20.9820   -6.0380   24.9130 C   0  0  0  0  0  3  0  0  0  0  0  0
  -21.3120   -4.6690   24.8950 C   0  0  0  0  0  0  0  0  0  0  0  0
  -21.8150   -4.0820   23.7200 C   0  0  0  0  0  3  0  0  0  0  0  0
  -21.9860   -4.8610   22.5630 C   0  0  0  0  0  0  0  0  0  0  0  0
  -22.4490   -4.2830   21.4290 F   0  0  0  0  0  0  0  0  0  0  0  0
  -21.1430   -3.9180   26.0070 F   0  0  0  0  0  0  0  0  0  0  0  0
  -23.1340  -13.5410   21.3650 C   0  0  0  0  0  0  0  0  0  0  0  0
  -22.4690  -12.8300   22.2680 N   0  0  0  0  0  0  0  0  0  0  0  0
  -22.6890  -14.6090   20.9440 O   0  0  0  0  0  0  0  0  0  0  0  0
  -22.8430  -11.9650   22.6290 H   0  0  0  0  0  0  0  0  0  0  0  0
  -21.5730  -13.1540   22.6040 H   0  0  0  0  0  0  0  0  0  0  0  0
  -25.7460  -15.1450   20.3790 N   0  0  0  0  0  0  0  0  0  0  0  0
  -25.0190  -15.8200   20.5890 H   0  0  0  0  0  0  0  0  0  0  0  0
  -26.5710  -15.5640   19.9680 H   0  0  0  0  0  0  0  0  0  0  0  0
  1  5  1  0
  1  3  1  0
  2  4  1  0
  3  6  1  0
  5  8  1  0
  5  2  1  0
  6  4  1  0
  6 55  1  0
  6  7  1  6
  8  9  1  0
  9 10  1  0
 11  9  1  0
 12  9  1  0
 12 13  1  0
 14 13  1  0
 15 26  2  0
 16 14  1  0
 16 21  1  0
 17 25  1  0
 17 27  1  0
 18 24  1  0
 18 20  1  0
 19 25  1  0
 20 19  1  0
 21 20  2  0
 22 23  1  0
 22 16  2  0
 23 18  2  0
 24 17  1  0
 25 15  1  0
 27 29  2  0
 28 27  1  0
 30 28  1  0
 31 40  2  0
 31 36  1  0
 32 28  1  0
 32 36  1  0
 33 32  1  0
 34 35  1  0
 34 33  1  0
 35 31  1  0
 36 37  2  0
 37 38  1  0
 39 38  2  0
 40 39  1  0
 41 15  1  0
 41 42  1  0
 41 51  1  0
 42 45  1  0
 43 47  1  0
 43 42  1  0
 44 43  2  0
 47 46  1  0
 49 47  1  0
 49 50  1  0
 49 48  1  0
 51 54  1  1
 51 52  1  0
 53 51  1  0
 56 55  1  0
 57 65  1  0
 58 63  1  0
 59 60  1  0
 59 58  1  0
 61 60  1  0
 61 70  1  0
 61 62  1  0
 63 57  1  0
 63 62  1  0
 64 57  2  0
 65 56  1  0
 65 66  1  0
 67 68  2  0
 68 87  1  0
 69 68  1  0
 69 72  1  0
 70 71  1  0
 70 67  1  0
 71 69  2  0
 72 73  1  0
 73 74  2  0
 75 78  1  0
 75 74  1  0
 76 75  2  0
 77 76  1  0
 77 72  2  0
 78 79  1  0
 79 80  1  0
 80 81  2  0
 82 81  1  0
 82 86  1  0
 83 82  2  0
 84 79  2  0
 84 83  1  0
 85 84  1  0
 87 88  1  0
 88 91  1  0
 88 90  1  0
 89 87  2  0
 92 67  1  0
 92 93  1  0
 94 92  1  0
M  ISO  4  13 101  14 101  57 100  65 100
M  END
>  <TORSDO>  (72) 
F 22

>  <SCORE>  (72) 
-11.627

>  <name>  (72) 
71

>  <ligand_id>  (72) 
71

>  <original_smiles>  (72) 
[H]c1c([H])c([H])c2c(c1[H])C([H])([H])C([H])([H])C([H])([H])C2([H])N([H])C(=O)C1([H])N(C(=O)C([H])(N([H])C(=O)C([H])(N([H])C([H])([H])[H])C([H])([H])[H])C(C([H])([H])[H])(C([H])([H])[H])C([H])([H])[H])C([H])([H])c2c([H])c(OC([H])([H])C([H])([H])[N+]([H])([H])C([H])([H])C3([H])C([H])([H])C([H])([H])[N+]([H])(C([H])([H])C([H])([H])N([H])C(=O)N4C([H])([H])C([H])([H])C([H])([H])C([H])(n5nc(-c6c([H])c([H])c(Oc7c([H])c([H])c(F)c([H])c7F)c([H])c6[H])c(C(=O)N([H])[H])c5N([H])[H])C4([H])[H])C([H])([H])C3([H])[H])c([H])c([H])c2C1([H])[H]

>  <smiles>  (72) 
[H]c1c([H])c([H])c2c(c1[H])C([H])([H])C([H])([H])C([H])([H])C2([H])N([H])C(=O)C1([H])N(C(=O)C([H])(N([H])C(=O)C([H])(N([H])C([H])([H])[H])C([H])([H])[H])C(C([H])([H])[H])(C([H])([H])[H])C([H])([H])[H])C([H])([H])c2c([H])c(OC([H])([H])C([H])([H])[N+]([H])([H])C([H])([H])C3([H])C([H])([H])C([H])([H])[N+]([H])(C([H])([H])C([H])([H])N([H])C(=O)N4C([H])([H])C([H])([H])C([H])([H])C([H])(n5nc(-c6c([H])c([H])c(Oc7c([H])c([H])c(F)c([H])c7F)c([H])c6[H])c(C(=O)N([H])[H])c5N([H])[H])C4([H])[H])C([H])([H])C3([H])[H])c([H])c([H])c2C1([H])[H]

$$$$
72:0:0
     RDKit          3D

 93101  0  0  1  0  0  0  0  0999 V2000
  -29.5800  -20.5500   18.8990 C   0  0  0  0  0  0  0  0  0  0  0  0
  -29.4540  -21.0920   17.4850 C   0  0  0  0  0  2  0  0  0  0  0  0
  -29.7630  -21.6920   19.9610 C   0  0  0  0  0  2  0  0  0  0  0  0
  -28.4210  -22.2120   17.3990 C   0  0  0  0  0  2  0  0  0  0  0  0
  -28.8520  -23.3720   18.2950 C   0  0  0  0  0  2  0  0  0  0  0  0
  -29.5630  -19.2570   18.9730 N   0  0  0  0  0  0  0  0  0  0  0  0
  -28.9530  -22.9680   19.7230 N   0  0  2  0  0  4  0  0  0  0  0  0
  -28.0170  -22.7160   20.0090 H   0  0  0  0  0  0  0  0  0  0  0  0
  -29.8400  -18.3220   20.0770 C   0  0  0  0  0  2  0  0  0  0  0  0
  -30.9370  -16.7350   18.3220 C   0  0  0  0  0  1  0  0  0  0  0  0
  -29.8910  -16.8600   19.4620 C   0  0  0  0  0  0  0  0  0  0  0  0
  -30.6540  -14.5880   20.4330 C   0  0  0  0  0  0  0  0  0  0  0  0
  -30.4100  -12.3600   19.4330 C   0  0  0  0  0  2  0  0  0  0  0  0
  -29.4950  -12.5290   18.1980 C   0  0  0  0  0  2  0  0  0  0  0  0
  -28.0140  -12.3840   18.6000 C   0  0  0  0  0  2  0  0  0  0  0  0
  -27.6380  -13.2620   19.8240 C   0  0  0  0  0  3  0  0  0  0  0  0
  -28.6740  -13.1050   20.9640 C   0  0  0  0  0  2  0  0  0  0  0  0
  -30.0050  -13.3870   20.4090 N   0  0  0  0  0  0  0  0  0  0  0  0
  -31.8550  -14.6830   20.1810 O   0  0  0  0  0  0  0  0  0  0  0  0
  -29.8410  -15.6800   20.3910 N   0  0  0  0  0  4  0  0  0  0  0  0
  -28.9080  -15.4800   20.7160 H   0  0  0  0  0  0  0  0  0  0  0  0
  -25.2250  -13.8820   20.4690 C   0  0  0  0  0  0  0  0  0  0  0  0
  -24.1480  -13.1180   20.8210 C   0  0  0  0  0  0  0  0  0  0  0  0
  -24.6090  -11.7650   20.8260 C   0  0  0  0  0  0  0  0  0  0  0  0
  -26.2750  -12.9970   20.2800 N   0  0  0  0  0  0  0  0  0  0  0  0
  -25.9070  -11.7190   20.5550 N   0  0  0  0  0  0  0  0  0  0  0  0
  -23.8750  -10.5070   21.0160 C   0  0  0  0  0  0  0  0  0  0  0  0
  -24.2880   -9.5490   21.9680 C   0  0  0  0  0  3  0  0  0  0  0  0
  -23.5540   -8.3570   22.1490 C   0  0  0  0  0  3  0  0  0  0  0  0
  -22.3930   -8.1160   21.3750 C   0  0  0  0  0  0  0  0  0  0  0  0
  -22.0010   -9.0620   20.4110 C   0  0  0  0  0  3  0  0  0  0  0  0
  -22.7360  -10.2450   20.2290 C   0  0  0  0  0  3  0  0  0  0  0  0
  -21.6330   -6.9740   21.4640 O   0  0  0  0  0  0  0  0  0  0  0  0
  -21.5690   -6.2400   22.6210 C   0  0  0  0  0  0  0  0  0  0  0  0
  -21.1390   -6.8060   23.8420 C   0  0  0  0  0  3  0  0  0  0  0  0
  -21.0160   -5.9960   24.9890 C   0  0  0  0  0  3  0  0  0  0  0  0
  -21.3190   -4.6240   24.9180 C   0  0  0  0  0  0  0  0  0  0  0  0
  -21.7470   -4.0580   23.7030 C   0  0  0  0  0  3  0  0  0  0  0  0
  -21.8670   -4.8640   22.5570 C   0  0  0  0  0  0  0  0  0  0  0  0
  -22.2570   -4.3090   21.3840 F   0  0  0  0  0  0  0  0  0  0  0  0
  -21.1970   -3.8440   26.0170 F   0  0  0  0  0  0  0  0  0  0  0  0
  -22.7440  -13.6000   21.0500 C   0  0  0  0  0  0  0  0  0  0  0  0
  -21.9950  -12.9190   21.9090 N   0  0  0  0  0  0  0  0  0  0  0  0
  -22.3190  -14.6200   20.5060 O   0  0  0  0  0  0  0  0  0  0  0  0
  -22.3550  -12.0950   22.3700 H   0  0  0  0  0  0  0  0  0  0  0  0
  -21.0520  -13.2230   22.1100 H   0  0  0  0  0  0  0  0  0  0  0  0
  -25.3880  -15.2480   20.2710 N   0  0  0  0  0  0  0  0  0  0  0  0
  -24.6020  -15.8850   20.3390 H   0  0  0  0  0  0  0  0  0  0  0  0
  -26.2370  -15.6960   19.9480 H   0  0  0  0  0  0  0  0  0  0  0  0
  -29.3540  -24.1690   20.5540 C   0  0  0  0  0  2  0  0  0  0  0  0
  -28.0480  -25.4260   22.3520 C   0  0  0  0  0  1  0  0  0  0  0  0
  -28.2080  -25.2280   20.8320 C   0  0  0  0  0  3  0  0  0  0  0  0
  -28.3950  -26.5640   20.2480 O   0  0  0  0  0  0  0  0  0  0  0  0
  -24.6330  -31.8850   23.2510 C   0  0  0  0  0  0  0  0  0  0  0  0
  -27.2620  -27.3770   20.2000 C   0  0  0  0  0  0  0  0  0  0  0  0
  -23.4260  -30.4750   21.6180 C   0  0  0  0  0  3  0  0  0  0  0  0
  -24.8810  -28.9330   20.1910 C   0  0  0  0  0  0  0  0  0  0  0  0
  -25.9580  -30.8240   21.4170 C   0  0  0  0  0  2  0  0  0  0  0  0
  -26.0450  -29.4460   20.7780 C   0  0  0  0  0  0  0  0  0  0  0  0
  -27.2410  -28.6800   20.7700 C   0  0  0  0  0  3  0  0  0  0  0  0
  -26.0810  -26.9040   19.5880 C   0  0  0  0  0  3  0  0  0  0  0  0
  -24.8980  -27.6660   19.5860 C   0  0  0  0  0  3  0  0  0  0  0  0
  -23.6390  -29.7950   20.2390 C   0  0  0  0  0  2  0  0  0  0  0  0
  -24.6900  -31.0780   22.1530 N   0  0  0  0  0  0  0  0  0  0  0  0
  -23.5510  -32.1590   23.7900 O   0  0  0  0  0  0  0  0  0  0  0  0
  -22.7740  -29.4580   22.5840 C   0  0  0  0  0  0  0  0  0  0  0  0
  -21.4480  -29.2770   22.4620 N   0  0  0  0  0  0  0  0  0  0  0  0
  -23.4580  -28.8360   23.4000 O   0  0  0  0  0  0  0  0  0  0  0  0
  -20.9560  -29.8350   21.7780 H   0  0  0  0  0  0  0  0  0  0  0  0
  -18.0750  -28.0770   22.9700 C   0  0  0  0  0  0  0  0  0  0  0  0
  -20.6320  -28.3420   23.2390 C   0  0  0  0  0  3  0  0  0  0  0  0
  -20.7380  -26.9080   22.6710 C   0  0  0  0  0  2  0  0  0  0  0  0
  -19.6370  -26.5780   21.6590 C   0  0  0  0  0  2  0  0  0  0  0  0
  -18.2550  -26.7230   22.3030 C   0  0  0  0  0  2  0  0  0  0  0  0
  -19.1920  -28.8430   23.3950 C   0  0  0  0  0  0  0  0  0  0  0  0
  -18.9700  -30.1100   23.9790 C   0  0  0  0  0  3  0  0  0  0  0  0
  -17.6650  -30.6090   24.1430 C   0  0  0  0  0  3  0  0  0  0  0  0
  -16.5620  -29.8380   23.7340 C   0  0  0  0  0  3  0  0  0  0  0  0
  -16.7680  -28.5750   23.1520 C   0  0  0  0  0  3  0  0  0  0  0  0
  -25.9170  -32.5220   23.8650 C   0  0  0  0  0  3  0  0  0  0  0  0
  -26.4400  -31.7580   25.1440 C   0  0  1  0  0  0  0  0  0  0  0  0
  -25.3510  -31.5260   26.2170 C   0  0  0  0  0  1  0  0  0  0  0  0
  -27.0200  -30.3770   24.7560 C   0  0  0  0  0  1  0  0  0  0  0  0
  -27.5940  -32.5540   25.7970 C   0  0  0  0  0  1  0  0  0  0  0  0
  -25.6090  -33.9220   24.1870 N   0  0  0  0  0  0  0  0  0  0  0  0
  -25.9440  -34.9700   23.4220 C   0  0  0  0  0  0  0  0  0  0  0  0
  -26.6150  -34.8590   22.3920 O   0  0  0  0  0  0  0  0  0  0  0  0
  -25.0120  -34.0830   24.9870 H   0  0  0  0  0  0  0  0  0  0  0  0
  -24.2190  -36.7630   23.0550 C   0  0  0  0  0  1  0  0  0  0  0  0
  -25.4570  -36.3610   23.8710 C   0  0  0  0  0  3  0  0  0  0  0  0
  -27.5930  -37.2440   24.7020 C   0  0  0  0  0  1  0  0  0  0  0  0
  -26.4930  -37.4130   23.7560 N   0  0  0  0  0  0  0  0  0  0  0  0
  -26.0860  -38.3320   23.9020 H   0  0  0  0  0  0  0  0  0  0  0  0
  1  6  2  0
  1  3  1  0
  2  1  1  0
  4  2  1  0
  4  5  1  0
  5  7  1  0
  6  9  1  0
  7  3  1  0
  7  8  1  1
  7 50  1  0
 10 11  1  0
 11  9  1  0
 11 20  2  0
 13 18  1  0
 14 15  1  0
 14 13  1  0
 16 15  1  0
 16 25  1  0
 16 17  1  0
 18 12  1  0
 18 17  1  0
 19 12  2  0
 20 12  1  0
 20 21  1  0
 22 23  2  0
 23 24  1  0
 23 42  1  0
 24 27  1  0
 25 22  1  0
 25 26  1  0
 26 24  2  0
 27 28  1  0
 28 29  2  0
 30 33  1  0
 30 29  1  0
 31 30  2  0
 32 31  1  0
 32 27  2  0
 33 34  1  0
 34 35  1  0
 35 36  2  0
 37 36  1  0
 37 41  1  0
 38 37  2  0
 39 34  2  0
 39 38  1  0
 40 39  1  0
 42 43  1  0
 43 46  1  0
 43 45  1  0
 44 42  2  0
 47 48  1  0
 47 22  1  0
 49 47  1  0
 50 52  1  0
 52 51  1  0
 53 52  1  0
 54 65  2  0
 55 53  1  0
 55 60  1  0
 56 64  1  0
 56 66  1  0
 57 63  1  0
 57 59  1  0
 58 64  1  0
 59 58  1  0
 60 59  2  0
 61 55  2  0
 62 61  1  0
 62 57  2  0
 63 56  1  0
 64 54  1  0
 66 68  2  0
 67 66  1  0
 69 67  1  0
 70 79  2  0
 70 75  1  0
 71 67  1  0
 71 75  1  0
 72 71  1  0
 73 74  1  0
 73 72  1  0
 74 70  1  0
 75 76  2  0
 76 77  1  0
 78 77  2  0
 79 78  1  0
 80 54  1  0
 80 85  1  0
 80 81  1  0
 81 84  1  1
 81 82  1  0
 83 81  1  0
 85 88  1  0
 86 90  1  0
 86 85  1  0
 87 86  2  0
 90 89  1  0
 92 90  1  0
 92 93  1  0
 92 91  1  0
M  ISO  4  12 100  20 100  52 101  53 101
M  END
>  <TORSDO>  (73) 
F 20

>  <SCORE>  (73) 
-13.582

>  <name>  (73) 
72

>  <ligand_id>  (73) 
72

>  <original_smiles>  (73) 
[H]c1c([H])c([H])c2c(c1[H])C([H])([H])C([H])([H])C([H])([H])C2([H])N([H])C(=O)C1([H])N(C(=O)C([H])(N([H])C(=O)C([H])(N([H])C([H])([H])[H])C([H])([H])[H])C(C([H])([H])[H])(C([H])([H])[H])C([H])([H])[H])C([H])([H])c2c([H])c(OC([H])(C([H])([H])[H])C([H])([H])[N+]3([H])C([H])([H])C(=NC([H])([H])C([H])(N([H])C(=O)N4C([H])([H])C([H])([H])C([H])([H])C([H])(n5nc(-c6c([H])c([H])c(Oc7c([H])c([H])c(F)c([H])c7F)c([H])c6[H])c(C(=O)N([H])[H])c5N([H])[H])C4([H])[H])C([H])([H])[H])C([H])([H])C([H])([H])C3([H])[H])c([H])c([H])c2C1([H])[H]

>  <smiles>  (73) 
[H]c1c([H])c([H])c2c(c1[H])C([H])([H])C([H])([H])C([H])([H])C2([H])N([H])C(=O)C1([H])N(C(=O)C([H])(N([H])C(=O)C([H])(N([H])C([H])([H])[H])C([H])([H])[H])C(C([H])([H])[H])(C([H])([H])[H])C([H])([H])[H])C([H])([H])c2c([H])c(OC([H])(C([H])([H])[H])C([H])([H])[N+]3([H])C([H])([H])C(=NC([H])([H])C([H])(N([H])C(=O)N4C([H])([H])C([H])([H])C([H])([H])C([H])(n5nc(-c6c([H])c([H])c(Oc7c([H])c([H])c(F)c([H])c7F)c([H])c6[H])c(C(=O)N([H])[H])c5N([H])[H])C4([H])[H])C([H])([H])[H])C([H])([H])C([H])([H])C3([H])[H])c([H])c([H])c2C1([H])[H]

$$$$
73:0:0
     RDKit          3D

 92101  0  0  1  0  0  0  0  0999 V2000
  -29.2630  -21.5780   19.3110 C   0  0  0  0  0  3  0  0  0  0  0  0
  -28.8950  -22.9640   19.3270 C   0  0  0  0  0  3  0  0  0  0  0  0
  -29.5860  -20.8790   20.5120 C   0  0  0  0  0  0  0  0  0  0  0  0
  -28.8690  -23.7080   20.5400 C   0  0  0  0  0  0  0  0  0  0  0  0
  -29.5860  -21.7180   21.6680 C   0  0  0  0  0  0  0  0  0  0  0  0
  -29.9090  -21.1640   23.0500 C   0  0  0  0  0  1  0  0  0  0  0  0
  -29.2700  -23.0490   21.6660 N   0  0  0  0  0  0  0  0  0  0  0  0
  -30.9640  -14.9000   20.1560 C   0  0  0  0  0  0  0  0  0  0  0  0
  -30.6000  -12.6560   19.1310 C   0  0  0  0  0  2  0  0  0  0  0  0
  -29.6210  -12.6920   17.9460 C   0  0  0  0  0  2  0  0  0  0  0  0
  -28.1740  -12.5280   18.4370 C   0  0  0  0  0  2  0  0  0  0  0  0
  -27.8440  -13.4290   19.6550 C   0  0  0  0  0  3  0  0  0  0  0  0
  -28.9530  -13.3910   20.7280 C   0  0  0  0  0  2  0  0  0  0  0  0
  -30.2050  -13.7520   20.0530 N   0  0  0  0  0  0  0  0  0  0  0  0
  -32.1630  -14.7960   19.8870 O   0  0  0  0  0  0  0  0  0  0  0  0
  -28.8360  -18.2710   20.7070 C   0  0  0  0  0  2  0  0  0  0  0  0
  -30.8030  -18.7530   19.4170 C   0  0  0  0  0  2  0  0  0  0  0  0
  -29.2980  -16.7630   20.9580 C   0  0  0  0  0  2  0  0  0  0  0  0
  -31.3510  -17.3020   19.6830 C   0  0  0  0  0  2  0  0  0  0  0  0
  -29.9750  -19.3280   20.5790 C   0  0  0  0  0  3  0  0  0  0  0  0
  -30.4180  -16.2050   20.1340 N   0  0  0  0  0  0  0  0  0  0  0  0
  -25.4940  -13.9980   20.4980 C   0  0  0  0  0  0  0  0  0  0  0  0
  -24.4410  -13.2170   20.8900 C   0  0  0  0  0  0  0  0  0  0  0  0
  -24.8970  -11.8680   20.8000 C   0  0  0  0  0  0  0  0  0  0  0  0
  -26.5270  -13.1240   20.2020 N   0  0  0  0  0  0  0  0  0  0  0  0
  -26.1770  -11.8350   20.4460 N   0  0  0  0  0  0  0  0  0  0  0  0
  -24.1720  -10.6010   20.9780 C   0  0  0  0  0  0  0  0  0  0  0  0
  -24.5870   -9.6370   21.9230 C   0  0  0  0  0  3  0  0  0  0  0  0
  -23.8600   -8.4390   22.0900 C   0  0  0  0  0  3  0  0  0  0  0  0
  -22.7030   -8.1940   21.3120 C   0  0  0  0  0  0  0  0  0  0  0  0
  -22.3070   -9.1470   20.3550 C   0  0  0  0  0  3  0  0  0  0  0  0
  -23.0350  -10.3360   20.1870 C   0  0  0  0  0  3  0  0  0  0  0  0
  -21.9500   -7.0470   21.3880 O   0  0  0  0  0  0  0  0  0  0  0  0
  -21.8030   -6.3590   22.5650 C   0  0  0  0  0  0  0  0  0  0  0  0
  -21.2510   -6.9620   23.7180 C   0  0  0  0  0  3  0  0  0  0  0  0
  -21.0530   -6.1980   24.8870 C   0  0  0  0  0  3  0  0  0  0  0  0
  -21.4010   -4.8330   24.9030 C   0  0  0  0  0  0  0  0  0  0  0  0
  -21.9490   -4.2320   23.7570 C   0  0  0  0  0  3  0  0  0  0  0  0
  -22.1450   -4.9920   22.5910 C   0  0  0  0  0  0  0  0  0  0  0  0
  -22.6530   -4.4020   21.4800 F   0  0  0  0  0  0  0  0  0  0  0  0
  -21.2050   -4.0960   26.0220 F   0  0  0  0  0  0  0  0  0  0  0  0
  -23.0560  -13.6930   21.2220 C   0  0  0  0  0  0  0  0  0  0  0  0
  -22.3600  -12.9800   22.0980 N   0  0  0  0  0  0  0  0  0  0  0  0
  -22.5990  -14.7310   20.7380 O   0  0  0  0  0  0  0  0  0  0  0  0
  -22.7400  -12.1410   22.5120 H   0  0  0  0  0  0  0  0  0  0  0  0
  -21.4290  -13.2710   22.3580 H   0  0  0  0  0  0  0  0  0  0  0  0
  -25.6520  -15.3710   20.3430 N   0  0  0  0  0  0  0  0  0  0  0  0
  -24.8770  -16.0150   20.4620 H   0  0  0  0  0  0  0  0  0  0  0  0
  -26.4860  -15.8090   19.9740 H   0  0  0  0  0  0  0  0  0  0  0  0
  -27.5780  -25.2070   22.2170 C   0  0  0  0  0  1  0  0  0  0  0  0
  -28.0550  -25.0770   20.7400 C   0  0  0  0  0  3  0  0  0  0  0  0
  -28.4970  -26.4450   20.2570 O   0  0  0  0  0  0  0  0  0  0  0  0
  -24.6580  -31.8730   23.1640 C   0  0  0  0  0  0  0  0  0  0  0  0
  -27.4490  -27.3890   20.1090 C   0  0  0  0  0  0  0  0  0  0  0  0
  -23.5360  -30.4640   21.4780 C   0  0  0  0  0  3  0  0  0  0  0  0
  -25.0660  -28.9850   20.0600 C   0  0  0  0  0  0  0  0  0  0  0  0
  -26.0750  -30.8430   21.3710 C   0  0  0  0  0  2  0  0  0  0  0  0
  -26.2090  -29.4730   20.7070 C   0  0  0  0  0  0  0  0  0  0  0  0
  -27.4050  -28.6850   20.7290 C   0  0  0  0  0  3  0  0  0  0  0  0
  -26.2990  -27.0060   19.3810 C   0  0  0  0  0  3  0  0  0  0  0  0
  -25.1190  -27.7590   19.3870 C   0  0  0  0  0  3  0  0  0  0  0  0
  -23.8050  -29.8220   20.0930 C   0  0  0  0  0  2  0  0  0  0  0  0
  -24.7730  -31.0810   22.0600 N   0  0  0  0  0  0  0  0  0  0  0  0
  -23.5540  -32.1110   23.6780 O   0  0  0  0  0  0  0  0  0  0  0  0
  -22.8830  -29.4130   22.4100 C   0  0  0  0  0  0  0  0  0  0  0  0
  -21.5610  -29.2110   22.2580 N   0  0  0  0  0  0  0  0  0  0  0  0
  -23.5620  -28.7890   23.2290 O   0  0  0  0  0  0  0  0  0  0  0  0
  -21.0790  -29.7560   21.5550 H   0  0  0  0  0  0  0  0  0  0  0  0
  -18.1970  -27.9460   22.7080 C   0  0  0  0  0  0  0  0  0  0  0  0
  -20.7490  -28.2440   22.9970 C   0  0  0  0  0  3  0  0  0  0  0  0
  -20.8780  -26.8330   22.3760 C   0  0  0  0  0  2  0  0  0  0  0  0
  -19.7840  -26.5210   21.3510 C   0  0  0  0  0  2  0  0  0  0  0  0
  -18.4030  -26.6160   22.0010 C   0  0  0  0  0  2  0  0  0  0  0  0
  -19.2980  -28.7170   23.1650 C   0  0  0  0  0  0  0  0  0  0  0  0
  -19.0550  -29.9570   23.7930 C   0  0  0  0  0  3  0  0  0  0  0  0
  -17.7380  -30.4360   23.9590 C   0  0  0  0  0  3  0  0  0  0  0  0
  -16.6510  -29.6650   23.5130 C   0  0  0  0  0  3  0  0  0  0  0  0
  -16.8830  -28.4210   22.8950 C   0  0  0  0  0  3  0  0  0  0  0  0
  -25.9030  -32.5320   23.8290 C   0  0  0  0  0  3  0  0  0  0  0  0
  -25.5440  -33.9160   24.1670 N   0  0  0  0  0  0  0  0  0  0  0  0
  -25.8520  -34.9880   23.4230 C   0  0  0  0  0  0  0  0  0  0  0  0
  -26.5350  -34.9160   22.3980 O   0  0  0  0  0  0  0  0  0  0  0  0
  -24.9280  -34.0400   24.9570 H   0  0  0  0  0  0  0  0  0  0  0  0
  -24.0570  -36.7200   23.0920 C   0  0  0  0  0  1  0  0  0  0  0  0
  -25.3190  -36.3550   23.8910 C   0  0  0  0  0  3  0  0  0  0  0  0
  -27.4240  -37.3150   24.7160 C   0  0  0  0  0  1  0  0  0  0  0  0
  -26.3130  -37.4440   23.7760 N   0  0  0  0  0  0  0  0  0  0  0  0
  -25.8760  -38.3510   23.9260 H   0  0  0  0  0  0  0  0  0  0  0  0
  -26.4100  -31.7610   25.1130 C   0  0  1  0  0  0  0  0  0  0  0  0
  -25.2930  -31.4840   26.1470 C   0  0  0  0  0  1  0  0  0  0  0  0
  -27.0380  -30.4020   24.7230 C   0  0  0  0  0  1  0  0  0  0  0  0
  -27.5190  -32.5830   25.8150 C   0  0  0  0  0  1  0  0  0  0  0  0
  1  2  2  0
  1  3  1  0
  2  4  1  0
  3  5  2  0
  4 51  1  0
  4  7  2  0
  5  6  1  0
  7  5  1  0
  9 14  1  0
 10 11  1  0
 10  9  1  0
 12 11  1  0
 12 25  1  0
 12 13  1  0
 14  8  1  0
 14 13  1  0
 15  8  2  0
 16 18  1  0
 17 19  1  0
 17 20  1  0
 19 21  1  0
 20  3  1  0
 20 16  1  0
 21  8  1  0
 21 18  1  0
 22 23  2  0
 23 42  1  0
 24 23  1  0
 24 27  1  0
 25 26  1  0
 25 22  1  0
 26 24  2  0
 27 28  1  0
 28 29  2  0
 30 33  1  0
 30 29  1  0
 31 30  2  0
 32 31  1  0
 32 27  2  0
 33 34  1  0
 34 39  2  0
 34 35  1  0
 35 36  2  0
 36 37  1  0
 37 41  1  0
 38 37  2  0
 39 38  1  0
 40 39  1  0
 42 43  1  0
 43 46  1  0
 43 45  1  0
 44 42  2  0
 47 48  1  0
 47 22  1  0
 49 47  1  0
 51 50  1  0
 52 51  1  0
 53 64  2  0
 54 52  1  0
 54 59  1  0
 55 63  1  0
 55 65  1  0
 56 62  1  0
 56 58  1  0
 57 63  1  0
 58 59  2  0
 58 57  1  0
 60 61  1  0
 60 54  2  0
 61 56  2  0
 62 55  1  0
 63 53  1  0
 65 67  2  0
 66 65  1  0
 68 66  1  0
 69 78  2  0
 69 74  1  0
 70 66  1  0
 70 74  1  0
 71 70  1  0
 72 73  1  0
 72 71  1  0
 73 69  1  0
 74 75  2  0
 75 76  1  0
 77 76  2  0
 78 77  1  0
 79 53  1  0
 79 80  1  0
 79 89  1  0
 80 83  1  0
 81 85  1  0
 81 80  1  0
 82 81  2  0
 85 84  1  0
 87 85  1  0
 87 88  1  0
 87 86  1  0
 89 92  1  1
 89 90  1  0
 91 89  1  0
M  ISO  4   8 100  21 100  51 101  52 101
M  END
>  <TORSDO>  (74) 
F 17

>  <SCORE>  (74) 
-15.077

>  <name>  (74) 
73

>  <ligand_id>  (74) 
73

>  <original_smiles>  (74) 
[H]c1c(C([H])(Oc2c([H])c([H])c3c(c2[H])C([H])([H])N(C(=O)C([H])(N([H])C(=O)C([H])(N([H])C([H])([H])[H])C([H])([H])[H])C(C([H])([H])[H])(C([H])([H])[H])C([H])([H])[H])C([H])(C(=O)N([H])C2([H])c4c([H])c([H])c([H])c([H])c4C([H])([H])C([H])([H])C2([H])[H])C3([H])[H])C([H])([H])[H])nc(C([H])([H])[H])c(C2([H])C([H])([H])C([H])([H])N(C(=O)N3C([H])([H])C([H])([H])C([H])([H])C([H])(n4nc(-c5c([H])c([H])c(Oc6c([H])c([H])c(F)c([H])c6F)c([H])c5[H])c(C(=O)N([H])[H])c4N([H])[H])C3([H])[H])C([H])([H])C2([H])[H])c1[H]

>  <smiles>  (74) 
[H]c1c(C([H])(Oc2c([H])c([H])c3c(c2[H])C([H])([H])N(C(=O)C([H])(N([H])C(=O)C([H])(N([H])C([H])([H])[H])C([H])([H])[H])C(C([H])([H])[H])(C([H])([H])[H])C([H])([H])[H])C([H])(C(=O)N([H])C2([H])c4c([H])c([H])c([H])c([H])c4C([H])([H])C([H])([H])C2([H])[H])C3([H])[H])C([H])([H])[H])nc(C([H])([H])[H])c(C2([H])C([H])([H])C([H])([H])N(C(=O)N3C([H])([H])C([H])([H])C([H])([H])C([H])(n4nc(-c5c([H])c([H])c(Oc6c([H])c([H])c(F)c([H])c6F)c([H])c5[H])c(C(=O)N([H])[H])c4N([H])[H])C3([H])[H])C([H])([H])C2([H])[H])c1[H]

$$$$
74:0:0
     RDKit          3D

 92100  0  0  1  0  0  0  0  0999 V2000
  -28.4710  -21.9490   18.9740 C   0  0  0  0  0  3  0  0  0  0  0  0
  -30.4630  -22.5970   20.2030 C   0  0  0  0  0  3  0  0  0  0  0  0
  -28.1080  -23.3090   18.8460 C   0  0  0  0  0  3  0  0  0  0  0  0
  -30.0950  -23.9610   20.0750 C   0  0  0  0  0  3  0  0  0  0  0  0
  -29.6700  -21.5760   19.6230 C   0  0  0  0  0  0  0  0  0  0  0  0
  -28.9300  -24.3340   19.3650 C   0  0  0  0  0  0  0  0  0  0  0  0
  -30.1680  -20.1210   19.5280 C   0  0  0  0  0  2  0  0  0  0  0  0
  -29.8050  -19.2070   20.6420 N   0  0  0  0  0  4  0  0  0  0  0  0
  -28.8620  -19.4130   20.9310 H   0  0  0  0  0  0  0  0  0  0  0  0
  -30.4090  -19.4070   21.4200 H   0  0  0  0  0  0  0  0  0  0  0  0
  -29.8860  -17.7590   20.2770 C   0  0  0  0  0  2  0  0  0  0  0  0
  -30.1140  -16.8000   21.4780 C   0  0  0  0  0  2  0  0  0  0  0  0
  -30.6260  -14.4700   20.5240 C   0  0  0  0  0  0  0  0  0  0  0  0
  -30.3840  -12.3440   19.2740 C   0  0  0  0  0  2  0  0  0  0  0  0
  -29.4260  -12.5720   18.0860 C   0  0  0  0  0  2  0  0  0  0  0  0
  -27.9500  -12.4330   18.5140 C   0  0  0  0  0  2  0  0  0  0  0  0
  -27.6240  -13.2250   19.8090 C   0  0  0  0  0  3  0  0  0  0  0  0
  -28.6790  -12.9240   20.8950 C   0  0  0  0  0  2  0  0  0  0  0  0
  -29.9990  -13.2760   20.3430 N   0  0  0  0  0  0  0  0  0  0  0  0
  -31.7280  -14.7440   20.0400 O   0  0  0  0  0  0  0  0  0  0  0  0
  -29.8720  -15.3780   21.1730 N   0  0  0  0  0  0  0  0  0  0  0  0
  -28.9850  -15.0150   21.4940 H   0  0  0  0  0  0  0  0  0  0  0  0
  -25.2220  -13.8430   20.5020 C   0  0  0  0  0  0  0  0  0  0  0  0
  -24.1520  -13.0730   20.8750 C   0  0  0  0  0  0  0  0  0  0  0  0
  -24.6150  -11.7220   20.8530 C   0  0  0  0  0  0  0  0  0  0  0  0
  -26.2670  -12.9600   20.2800 N   0  0  0  0  0  0  0  0  0  0  0  0
  -25.9040  -11.6800   20.5470 N   0  0  0  0  0  0  0  0  0  0  0  0
  -23.8900  -10.4610   21.0510 C   0  0  0  0  0  0  0  0  0  0  0  0
  -24.3300   -9.4950   21.9820 C   0  0  0  0  0  3  0  0  0  0  0  0
  -23.6050   -8.2970   22.1670 C   0  0  0  0  0  3  0  0  0  0  0  0
  -22.4280   -8.0570   21.4200 C   0  0  0  0  0  0  0  0  0  0  0  0
  -22.0050   -9.0130   20.4790 C   0  0  0  0  0  3  0  0  0  0  0  0
  -22.7320  -10.2020   20.2920 C   0  0  0  0  0  3  0  0  0  0  0  0
  -21.6770   -6.9110   21.5120 O   0  0  0  0  0  0  0  0  0  0  0  0
  -21.6430   -6.1630   22.6610 C   0  0  0  0  0  0  0  0  0  0  0  0
  -21.2360   -6.7110   23.8970 C   0  0  0  0  0  3  0  0  0  0  0  0
  -21.1490   -5.8900   25.0380 C   0  0  0  0  0  3  0  0  0  0  0  0
  -21.4620   -4.5200   24.9440 C   0  0  0  0  0  0  0  0  0  0  0  0
  -21.8650   -3.9710   23.7140 C   0  0  0  0  0  3  0  0  0  0  0  0
  -21.9510   -4.7900   22.5760 C   0  0  0  0  0  0  0  0  0  0  0  0
  -22.3180   -4.2520   21.3860 F   0  0  0  0  0  0  0  0  0  0  0  0
  -21.3710   -3.7280   26.0380 F   0  0  0  0  0  0  0  0  0  0  0  0
  -22.7540  -13.5530   21.1450 C   0  0  0  0  0  0  0  0  0  0  0  0
  -22.0240  -12.8610   22.0140 N   0  0  0  0  0  0  0  0  0  0  0  0
  -22.3170  -14.5740   20.6190 O   0  0  0  0  0  0  0  0  0  0  0  0
  -22.3920  -12.0350   22.4650 H   0  0  0  0  0  0  0  0  0  0  0  0
  -21.0890  -13.1680   22.2400 H   0  0  0  0  0  0  0  0  0  0  0  0
  -25.3850  -15.2120   20.3170 N   0  0  0  0  0  0  0  0  0  0  0  0
  -24.6030  -15.8540   20.4080 H   0  0  0  0  0  0  0  0  0  0  0  0
  -26.2210  -15.6520   19.9540 H   0  0  0  0  0  0  0  0  0  0  0  0
  -28.6580  -25.8080   19.0160 C   0  0  0  0  0  2  0  0  0  0  0  0
  -28.3770  -26.6880   20.1240 O   0  0  0  0  0  0  0  0  0  0  0  0
  -24.5530  -31.8690   23.2390 C   0  0  0  0  0  0  0  0  0  0  0  0
  -27.1970  -27.4150   20.1260 C   0  0  0  0  0  0  0  0  0  0  0  0
  -23.3470  -30.4710   21.5960 C   0  0  0  0  0  3  0  0  0  0  0  0
  -24.7980  -28.9330   20.1670 C   0  0  0  0  0  0  0  0  0  0  0  0
  -25.8770  -30.8160   21.4060 C   0  0  0  0  0  2  0  0  0  0  0  0
  -25.9580  -29.4460   20.7590 C   0  0  0  0  0  0  0  0  0  0  0  0
  -27.1550  -28.6910   20.7440 C   0  0  0  0  0  3  0  0  0  0  0  0
  -26.0050  -26.9110   19.5540 C   0  0  0  0  0  3  0  0  0  0  0  0
  -24.8160  -27.6630   19.5670 C   0  0  0  0  0  3  0  0  0  0  0  0
  -23.5550  -29.7930   20.2160 C   0  0  0  0  0  2  0  0  0  0  0  0
  -24.6110  -31.0680   22.1370 N   0  0  0  0  0  0  0  0  0  0  0  0
  -23.4700  -32.1420   23.7770 O   0  0  0  0  0  0  0  0  0  0  0  0
  -22.6910  -29.4500   22.5550 C   0  0  0  0  0  0  0  0  0  0  0  0
  -21.3660  -29.2690   22.4220 N   0  0  0  0  0  0  0  0  0  0  0  0
  -23.3710  -28.8240   23.3730 O   0  0  0  0  0  0  0  0  0  0  0  0
  -20.8780  -29.8260   21.7340 H   0  0  0  0  0  0  0  0  0  0  0  0
  -17.9900  -28.0760   22.9050 C   0  0  0  0  0  0  0  0  0  0  0  0
  -20.5460  -28.3320   23.1890 C   0  0  0  0  0  3  0  0  0  0  0  0
  -20.6510  -26.9010   22.6100 C   0  0  0  0  0  2  0  0  0  0  0  0
  -19.5530  -26.5820   21.5910 C   0  0  0  0  0  2  0  0  0  0  0  0
  -18.1690  -26.7270   22.2310 C   0  0  0  0  0  2  0  0  0  0  0  0
  -19.1070  -28.8370   23.3410 C   0  0  0  0  0  0  0  0  0  0  0  0
  -18.8870  -30.1010   23.9290 C   0  0  0  0  0  3  0  0  0  0  0  0
  -17.5830  -30.6050   24.0880 C   0  0  0  0  0  3  0  0  0  0  0  0
  -16.4800  -29.8400   23.6710 C   0  0  0  0  0  3  0  0  0  0  0  0
  -16.6850  -28.5780   23.0860 C   0  0  0  0  0  3  0  0  0  0  0  0
  -25.8390  -32.4980   23.8600 C   0  0  0  0  0  3  0  0  0  0  0  0
  -25.5340  -33.8970   24.1840 N   0  0  0  0  0  0  0  0  0  0  0  0
  -25.8770  -34.9470   23.4270 C   0  0  0  0  0  0  0  0  0  0  0  0
  -26.5540  -34.8380   22.4010 O   0  0  0  0  0  0  0  0  0  0  0  0
  -24.9310  -34.0540   24.9790 H   0  0  0  0  0  0  0  0  0  0  0  0
  -24.1610  -36.7470   23.0490 C   0  0  0  0  0  1  0  0  0  0  0  0
  -25.3910  -36.3390   23.8760 C   0  0  0  0  0  3  0  0  0  0  0  0
  -27.5200  -37.2120   24.7300 C   0  0  0  0  0  1  0  0  0  0  0  0
  -26.4310  -37.3850   23.7720 N   0  0  0  0  0  0  0  0  0  0  0  0
  -26.0290  -38.3080   23.9140 H   0  0  0  0  0  0  0  0  0  0  0  0
  -26.3510  -31.7280   25.1400 C   0  0  1  0  0  0  0  0  0  0  0  0
  -25.2570  -31.4980   26.2070 C   0  0  0  0  0  1  0  0  0  0  0  0
  -26.9300  -30.3480   24.7530 C   0  0  0  0  0  1  0  0  0  0  0  0
  -27.5020  -32.5220   25.8020 C   0  0  0  0  0  1  0  0  0  0  0  0
  1  5  1  0
  3  1  2  0
  3  6  1  0
  4  2  1  0
  5  2  2  0
  6  4  2  0
  7  5  1  0
  7  8  1  0
  8  9  1  0
  8 10  1  0
 11  8  1  0
 11 12  1  0
 13 21  1  0
 14 19  1  0
 15 16  1  0
 15 14  1  0
 17 16  1  0
 17 26  1  0
 17 18  1  0
 19 13  1  0
 19 18  1  0
 20 13  2  0
 21 12  1  0
 21 22  1  0
 23 24  2  0
 24 43  1  0
 25 24  1  0
 25 28  1  0
 26 23  1  0
 26 27  1  0
 27 25  2  0
 28 29  1  0
 29 30  2  0
 31 34  1  0
 31 30  1  0
 32 31  2  0
 33 32  1  0
 33 28  2  0
 34 35  1  0
 35 36  1  0
 36 37  2  0
 38 37  1  0
 38 42  1  0
 39 38  2  0
 40 35  2  0
 40 39  1  0
 41 40  1  0
 43 44  1  0
 44 47  1  0
 44 46  1  0
 45 43  2  0
 48 49  1  0
 48 23  1  0
 50 48  1  0
 51  6  1  0
 51 52  1  0
 52 54  1  0
 53 64  2  0
 54 59  1  0
 55 63  1  0
 55 65  1  0
 56 62  1  0
 56 58  1  0
 57 63  1  0
 58 57  1  0
 59 58  2  0
 60 61  1  0
 60 54  2  0
 61 56  2  0
 62 55  1  0
 63 53  1  0
 65 67  2  0
 66 65  1  0
 68 66  1  0
 69 78  2  0
 69 74  1  0
 70 66  1  0
 70 74  1  0
 71 70  1  0
 72 73  1  0
 72 71  1  0
 73 69  1  0
 74 75  2  0
 75 76  1  0
 77 76  2  0
 78 77  1  0
 79 53  1  0
 79 80  1  0
 79 89  1  0
 80 83  1  0
 81 85  1  0
 81 80  1  0
 82 81  2  0
 85 84  1  0
 87 85  1  0
 87 88  1  0
 87 86  1  0
 89 92  1  1
 89 90  1  0
 91 89  1  0
M  ISO  4  13 100  21 100  51 101  52 101
M  END
>  <TORSDO>  (75) 
F 21

>  <SCORE>  (75) 
-13.516

>  <name>  (75) 
74

>  <ligand_id>  (75) 
74

>  <original_smiles>  (75) 
[H]c1c([H])c([H])c2c(c1[H])C([H])([H])C([H])([H])C([H])([H])C2([H])N([H])C(=O)C1([H])N(C(=O)C([H])(N([H])C(=O)C([H])(N([H])C([H])([H])[H])C([H])([H])[H])C(C([H])([H])[H])(C([H])([H])[H])C([H])([H])[H])C([H])([H])c2c([H])c(OC([H])([H])c3c([H])c([H])c(C([H])([H])[N+]([H])([H])C([H])([H])C([H])([H])N([H])C(=O)N4C([H])([H])C([H])([H])C([H])([H])C([H])(n5nc(-c6c([H])c([H])c(Oc7c([H])c([H])c(F)c([H])c7F)c([H])c6[H])c(C(=O)N([H])[H])c5N([H])[H])C4([H])[H])c([H])c3[H])c([H])c([H])c2C1([H])[H]

>  <smiles>  (75) 
[H]c1c([H])c([H])c2c(c1[H])C([H])([H])C([H])([H])C([H])([H])C2([H])N([H])C(=O)C1([H])N(C(=O)C([H])(N([H])C(=O)C([H])(N([H])C([H])([H])[H])C([H])([H])[H])C(C([H])([H])[H])(C([H])([H])[H])C([H])([H])[H])C([H])([H])c2c([H])c(OC([H])([H])c3c([H])c([H])c(C([H])([H])[N+]([H])([H])C([H])([H])C([H])([H])N([H])C(=O)N4C([H])([H])C([H])([H])C([H])([H])C([H])(n5nc(-c6c([H])c([H])c(Oc7c([H])c([H])c(F)c([H])c7F)c([H])c6[H])c(C(=O)N([H])[H])c5N([H])[H])C4([H])[H])c([H])c3[H])c([H])c([H])c2C1([H])[H]

$$$$
75:0:0
     RDKit          3D

 92100  0  0  1  0  0  0  0  0999 V2000
  -29.8460  -21.5570   21.6460 C   0  0  0  0  0  3  0  0  0  0  0  0
  -29.1360  -21.8670   20.4510 C   0  0  0  0  0  0  0  0  0  0  0  0
  -30.0130  -20.2030   21.7490 C   0  0  0  0  0  0  0  0  0  0  0  0
  -28.9200  -20.6480   19.8370 C   0  0  0  0  0  0  0  0  0  0  0  0
  -30.6490  -19.4260   22.8630 C   0  0  0  0  0  1  0  0  0  0  0  0
  -28.1950  -20.3700   18.5550 C   0  0  0  0  0  1  0  0  0  0  0  0
  -29.4280  -19.6060   20.6340 N   0  0  0  0  0  0  0  0  0  0  0  0
  -28.6380  -23.2580   19.9900 C   0  0  0  0  0  2  0  0  0  0  0  0
  -29.3430  -24.5310   20.5780 C   0  0  0  0  0  2  0  0  0  0  0  0
  -28.8340  -26.1950   22.4470 C   0  0  0  0  0  1  0  0  0  0  0  0
  -28.4270  -25.7200   21.0390 C   0  0  0  0  0  3  0  0  0  0  0  0
  -28.4930  -26.8980   20.1940 O   0  0  0  0  0  0  0  0  0  0  0  0
  -24.6800  -32.0280   23.4070 C   0  0  0  0  0  0  0  0  0  0  0  0
  -27.3500  -27.6780   20.1990 C   0  0  0  0  0  0  0  0  0  0  0  0
  -23.4780  -30.6490   21.7450 C   0  0  0  0  0  3  0  0  0  0  0  0
  -24.9410  -29.1700   20.2640 C   0  0  0  0  0  0  0  0  0  0  0  0
  -25.9990  -31.0470   21.5290 C   0  0  0  0  0  2  0  0  0  0  0  0
  -26.1020  -29.6950   20.8480 C   0  0  0  0  0  0  0  0  0  0  0  0
  -27.3130  -28.9590   20.8060 C   0  0  0  0  0  3  0  0  0  0  0  0
  -26.1770  -27.1780   19.6000 C   0  0  0  0  0  3  0  0  0  0  0  0
  -24.9760  -27.9120   19.6360 C   0  0  0  0  0  3  0  0  0  0  0  0
  -23.6840  -30.0080   20.3460 C   0  0  0  0  0  2  0  0  0  0  0  0
  -24.7380  -31.2550   22.2850 N   0  0  0  0  0  0  0  0  0  0  0  0
  -23.6020  -32.2720   23.9670 O   0  0  0  0  0  0  0  0  0  0  0  0
  -22.8540  -29.5950   22.6890 C   0  0  0  0  0  0  0  0  0  0  0  0
  -21.5440  -29.3490   22.5300 N   0  0  0  0  0  0  0  0  0  0  0  0
  -23.5480  -28.9990   23.5180 O   0  0  0  0  0  0  0  0  0  0  0  0
  -21.0420  -29.8870   21.8390 H   0  0  0  0  0  0  0  0  0  0  0  0
  -18.2300  -27.9580   22.9050 C   0  0  0  0  0  0  0  0  0  0  0  0
  -20.7540  -28.3710   23.2790 C   0  0  0  0  0  3  0  0  0  0  0  0
  -20.9640  -26.9430   22.7250 C   0  0  0  0  0  2  0  0  0  0  0  0
  -19.9270  -26.5470   21.6690 C   0  0  0  0  0  2  0  0  0  0  0  0
  -18.5140  -26.6140   22.2550 C   0  0  0  0  0  2  0  0  0  0  0  0
  -19.2820  -28.7900   23.3720 C   0  0  0  0  0  0  0  0  0  0  0  0
  -18.9640  -30.0440   23.9370 C   0  0  0  0  0  3  0  0  0  0  0  0
  -17.6270  -30.4680   24.0440 C   0  0  0  0  0  3  0  0  0  0  0  0
  -16.5880  -29.6330   23.5960 C   0  0  0  0  0  3  0  0  0  0  0  0
  -16.8900  -28.3810   23.0320 C   0  0  0  0  0  3  0  0  0  0  0  0
  -25.9630  -32.6650   24.0260 C   0  0  0  0  0  3  0  0  0  0  0  0
  -25.6530  -34.0660   24.3430 N   0  0  0  0  0  0  0  0  0  0  0  0
  -25.9960  -35.1120   23.5800 C   0  0  0  0  0  0  0  0  0  0  0  0
  -26.6770  -35.0000   22.5570 O   0  0  0  0  0  0  0  0  0  0  0  0
  -25.0470  -34.2260   25.1340 H   0  0  0  0  0  0  0  0  0  0  0  0
  -24.2760  -36.9050   23.1890 C   0  0  0  0  0  1  0  0  0  0  0  0
  -25.5050  -36.5040   24.0210 C   0  0  0  0  0  3  0  0  0  0  0  0
  -27.6220  -37.3970   24.8860 C   0  0  0  0  0  1  0  0  0  0  0  0
  -26.5410  -37.5540   23.9160 N   0  0  0  0  0  0  0  0  0  0  0  0
  -26.1340  -38.4770   24.0420 H   0  0  0  0  0  0  0  0  0  0  0  0
  -26.4770  -31.9030   25.3090 C   0  0  1  0  0  0  0  0  0  0  0  0
  -25.3720  -31.6370   26.3570 C   0  0  0  0  0  1  0  0  0  0  0  0
  -27.1000  -30.5410   24.9240 C   0  0  0  0  0  1  0  0  0  0  0  0
  -27.6000  -32.7210   25.9900 C   0  0  0  0  0  1  0  0  0  0  0  0
  -29.2610  -18.1410   20.4210 C   0  0  0  0  0  2  0  0  0  0  0  0
  -30.5530  -17.2600   20.4030 C   0  0  0  0  0  2  0  0  0  0  0  0
  -31.0370  -14.7750   20.0800 C   0  0  0  0  0  0  0  0  0  0  0  0
  -30.7960  -12.5330   19.0660 C   0  0  0  0  0  2  0  0  0  0  0  0
  -29.8170  -12.6510   17.8780 C   0  0  0  0  0  2  0  0  0  0  0  0
  -28.3580  -12.5010   18.3540 C   0  0  0  0  0  2  0  0  0  0  0  0
  -28.0380  -13.3930   19.5830 C   0  0  0  0  0  3  0  0  0  0  0  0
  -29.1250  -13.2430   20.6710 C   0  0  0  0  0  2  0  0  0  0  0  0
  -30.4220  -13.5610   20.0510 N   0  0  0  0  0  0  0  0  0  0  0  0
  -32.1600  -14.9670   19.6010 O   0  0  0  0  0  0  0  0  0  0  0  0
  -30.2660  -15.8050   20.4950 N   0  0  0  0  0  0  0  0  0  0  0  0
  -29.3600  -15.5470   20.8600 H   0  0  0  0  0  0  0  0  0  0  0  0
  -25.6780  -14.0130   20.4010 C   0  0  0  0  0  0  0  0  0  0  0  0
  -24.6150  -13.2450   20.7900 C   0  0  0  0  0  0  0  0  0  0  0  0
  -25.0550  -11.8890   20.7050 C   0  0  0  0  0  0  0  0  0  0  0  0
  -26.7010  -13.1260   20.1060 N   0  0  0  0  0  0  0  0  0  0  0  0
  -26.3300  -11.8410   20.3430 N   0  0  0  0  0  0  0  0  0  0  0  0
  -24.3210  -10.6320   20.8920 C   0  0  0  0  0  0  0  0  0  0  0  0
  -24.6940   -9.7000   21.8860 C   0  0  0  0  0  3  0  0  0  0  0  0
  -23.9610   -8.5060   22.0570 C   0  0  0  0  0  3  0  0  0  0  0  0
  -22.8430   -8.2350   21.2330 C   0  0  0  0  0  0  0  0  0  0  0  0
  -22.4910   -9.1560   20.2310 C   0  0  0  0  0  3  0  0  0  0  0  0
  -23.2240  -10.3420   20.0580 C   0  0  0  0  0  3  0  0  0  0  0  0
  -22.0880   -7.0900   21.3090 O   0  0  0  0  0  0  0  0  0  0  0  0
  -21.8420   -6.4680   22.5070 C   0  0  0  0  0  0  0  0  0  0  0  0
  -21.1420   -7.1100   23.5510 C   0  0  0  0  0  3  0  0  0  0  0  0
  -20.8520   -6.4100   24.7390 C   0  0  0  0  0  3  0  0  0  0  0  0
  -21.2540   -5.0680   24.8810 C   0  0  0  0  0  0  0  0  0  0  0  0
  -21.9480   -4.4250   23.8410 C   0  0  0  0  0  3  0  0  0  0  0  0
  -22.2400   -5.1240   22.6550 C   0  0  0  0  0  0  0  0  0  0  0  0
  -22.8890   -4.4940   21.6470 F   0  0  0  0  0  0  0  0  0  0  0  0
  -20.9700   -4.3920   26.0200 F   0  0  0  0  0  0  0  0  0  0  0  0
  -23.2370  -13.7300   21.1360 C   0  0  0  0  0  0  0  0  0  0  0  0
  -22.5450  -13.0220   22.0220 N   0  0  0  0  0  0  0  0  0  0  0  0
  -22.7860  -14.7710   20.6590 O   0  0  0  0  0  0  0  0  0  0  0  0
  -22.9250  -12.1790   22.4280 H   0  0  0  0  0  0  0  0  0  0  0  0
  -21.6220  -13.3250   22.2990 H   0  0  0  0  0  0  0  0  0  0  0  0
  -25.8510  -15.3860   20.2560 N   0  0  0  0  0  0  0  0  0  0  0  0
  -25.0900  -16.0360   20.4070 H   0  0  0  0  0  0  0  0  0  0  0  0
  -26.6740  -15.8260   19.8650 H   0  0  0  0  0  0  0  0  0  0  0  0
  1  3  2  0
  2  1  1  0
  3  5  1  0
  4  2  2  0
  4  7  1  0
  6  4  1  0
  7  3  1  0
  8  2  1  0
  8  9  1  0
  9 11  1  0
 11 10  1  0
 12 14  1  0
 12 11  1  0
 13 24  2  0
 14 19  1  0
 15 23  1  0
 15 25  1  0
 16 22  1  0
 16 18  1  0
 17 23  1  0
 18 17  1  0
 19 18  2  0
 20 21  1  0
 20 14  2  0
 21 16  2  0
 22 15  1  0
 23 13  1  0
 25 27  2  0
 26 25  1  0
 28 26  1  0
 29 38  2  0
 29 34  1  0
 30 26  1  0
 30 34  1  0
 31 30  1  0
 32 33  1  0
 32 31  1  0
 33 29  1  0
 34 35  2  0
 35 36  1  0
 37 36  2  0
 38 37  1  0
 39 13  1  0
 39 40  1  0
 39 49  1  0
 40 43  1  0
 41 45  1  0
 41 40  1  0
 42 41  2  0
 45 44  1  0
 47 45  1  0
 47 48  1  0
 47 46  1  0
 49 52  1  1
 49 50  1  0
 51 49  1  0
 53  7  1  0
 54 53  1  0
 54 63  1  0
 55 63  1  0
 56 61  1  0
 57 58  1  0
 57 56  1  0
 59 58  1  0
 59 68  1  0
 59 60  1  0
 61 55  1  0
 61 60  1  0
 62 55  2  0
 63 64  1  0
 65 66  2  0
 66 85  1  0
 67 66  1  0
 67 70  1  0
 68 69  1  0
 68 65  1  0
 69 67  2  0
 70 71  1  0
 71 72  2  0
 73 76  1  0
 73 72  1  0
 74 73  2  0
 75 74  1  0
 75 70  2  0
 76 77  1  0
 77 82  2  0
 77 78  1  0
 78 79  2  0
 79 80  1  0
 80 84  1  0
 81 80  2  0
 82 81  1  0
 83 82  1  0
 85 86  1  0
 86 89  1  0
 86 88  1  0
 87 85  2  0
 90 65  1  0
 90 91  1  0
 92 90  1  0
M  ISO  4  11 101  12 101  55 100  63 100
M  END
>  <TORSDO>  (76) 
F 21

>  <SCORE>  (76) 
-12.662

>  <name>  (76) 
75

>  <ligand_id>  (76) 
75

>  <original_smiles>  (76) 
[H]c1c([H])c([H])c2c(c1[H])C([H])([H])C([H])([H])C([H])([H])C2([H])N([H])C(=O)C1([H])N(C(=O)C([H])(N([H])C(=O)C([H])(N([H])C([H])([H])[H])C([H])([H])[H])C(C([H])([H])[H])(C([H])([H])[H])C([H])([H])[H])C([H])([H])c2c([H])c(OC([H])(C([H])([H])[H])C([H])([H])C([H])([H])c3c([H])c(C([H])([H])[H])n(C([H])([H])C([H])([H])N([H])C(=O)N4C([H])([H])C([H])([H])C([H])([H])C([H])(n5nc(-c6c([H])c([H])c(Oc7c([H])c([H])c(F)c([H])c7F)c([H])c6[H])c(C(=O)N([H])[H])c5N([H])[H])C4([H])[H])c3C([H])([H])[H])c([H])c([H])c2C1([H])[H]

>  <smiles>  (76) 
[H]c1c([H])c([H])c2c(c1[H])C([H])([H])C([H])([H])C([H])([H])C2([H])N([H])C(=O)C1([H])N(C(=O)C([H])(N([H])C(=O)C([H])(N([H])C([H])([H])[H])C([H])([H])[H])C(C([H])([H])[H])(C([H])([H])[H])C([H])([H])[H])C([H])([H])c2c([H])c(OC([H])(C([H])([H])[H])C([H])([H])C([H])([H])c3c([H])c(C([H])([H])[H])n(C([H])([H])C([H])([H])N([H])C(=O)N4C([H])([H])C([H])([H])C([H])([H])C([H])(n5nc(-c6c([H])c([H])c(Oc7c([H])c([H])c(F)c([H])c7F)c([H])c6[H])c(C(=O)N([H])[H])c5N([H])[H])C4([H])[H])c3C([H])([H])[H])c([H])c([H])c2C1([H])[H]

$$$$
76:0:0
     RDKit          3D

 97106  0  0  1  0  0  0  0  0999 V2000
  -27.2040  -23.1650   20.8210 C   0  0  0  0  0  3  0  0  0  0  0  0
  -29.0740  -22.1090   21.9190 C   0  0  0  0  0  3  0  0  0  0  0  0
  -27.1240  -22.0620   19.9450 C   0  0  0  0  0  0  0  0  0  0  0  0
  -28.2170  -23.2160   21.8030 C   0  0  0  0  0  0  0  0  0  0  0  0
  -28.0880  -21.0400   20.1030 C   0  0  0  0  0  0  0  0  0  0  0  0
  -29.0290  -21.0530   21.0800 N   0  0  0  0  0  0  0  0  0  0  0  0
  -24.7570  -22.7580   19.0090 C   0  0  0  0  0  2  0  0  0  0  0  0
  -24.7880  -21.2460   19.0070 C   0  0  0  0  0  2  0  0  0  0  0  0
  -26.0750  -22.0290   18.8590 C   0  0  0  0  0  3  0  0  0  0  0  0
  -28.1740  -19.8570   19.1460 C   0  0  0  0  0  2  0  0  0  0  0  0
  -29.5710  -19.4020   19.1030 N   0  0  0  0  0  4  0  0  0  0  0  0
  -29.9440  -19.6340   18.1970 H   0  0  0  0  0  0  0  0  0  0  0  0
  -30.0290  -19.9930   19.7840 H   0  0  0  0  0  0  0  0  0  0  0  0
  -29.7740  -17.9780   19.4030 C   0  0  0  0  0  2  0  0  0  0  0  0
  -31.2670  -17.6090   19.5210 C   0  0  0  0  0  2  0  0  0  0  0  0
  -31.9970  -15.2550   19.7680 C   0  0  0  0  0  0  0  0  0  0  0  0
  -31.8170  -12.8040   19.5740 C   0  0  0  0  0  2  0  0  0  0  0  0
  -30.9080  -12.4100   18.3900 C   0  0  0  0  0  2  0  0  0  0  0  0
  -29.4200  -12.4350   18.7880 C   0  0  0  0  0  2  0  0  0  0  0  0
  -29.0130  -13.7440   19.5160 C   0  0  0  0  0  3  0  0  0  0  0  0
  -30.0080  -14.0140   20.6680 C   0  0  0  0  0  2  0  0  0  0  0  0
  -31.3700  -14.0990   20.1010 N   0  0  0  0  0  0  0  0  0  0  0  0
  -33.0050  -15.3200   19.0590 O   0  0  0  0  0  0  0  0  0  0  0  0
  -31.3770  -16.3420   20.2340 N   0  0  0  0  0  0  0  0  0  0  0  0
  -30.6690  -16.1560   20.9280 H   0  0  0  0  0  0  0  0  0  0  0  0
  -26.7600  -14.7150   20.3270 C   0  0  0  0  0  0  0  0  0  0  0  0
  -25.5810  -14.1110   20.6790 C   0  0  0  0  0  0  0  0  0  0  0  0
  -25.8000  -12.7080   20.5330 C   0  0  0  0  0  0  0  0  0  0  0  0
  -27.6360  -13.6870   20.0040 N   0  0  0  0  0  0  0  0  0  0  0  0
  -27.0570  -12.4720   20.1780 N   0  0  0  0  0  0  0  0  0  0  0  0
  -24.8680  -11.5760   20.6470 C   0  0  0  0  0  0  0  0  0  0  0  0
  -25.1660  -10.4550   21.4560 C   0  0  0  0  0  3  0  0  0  0  0  0
  -24.2490   -9.3880   21.5690 C   0  0  0  0  0  3  0  0  0  0  0  0
  -23.0190   -9.4330   20.8720 C   0  0  0  0  0  0  0  0  0  0  0  0
  -22.7360  -10.5390   20.0510 C   0  0  0  0  0  3  0  0  0  0  0  0
  -23.6510  -11.5980   19.9350 C   0  0  0  0  0  3  0  0  0  0  0  0
  -22.0820   -8.4290   20.8990 O   0  0  0  0  0  0  0  0  0  0  0  0
  -21.9550   -7.5920   21.9780 C   0  0  0  0  0  0  0  0  0  0  0  0
  -21.7260   -8.0830   23.2820 C   0  0  0  0  0  3  0  0  0  0  0  0
  -21.5360   -7.1850   24.3520 C   0  0  0  0  0  3  0  0  0  0  0  0
  -21.5630   -5.7970   24.1170 C   0  0  0  0  0  0  0  0  0  0  0  0
  -21.7820   -5.3050   22.8190 C   0  0  0  0  0  3  0  0  0  0  0  0
  -21.9750   -6.2000   21.7530 C   0  0  0  0  0  0  0  0  0  0  0  0
  -22.1650   -5.7230   20.4990 F   0  0  0  0  0  0  0  0  0  0  0  0
  -21.3720   -4.9320   25.1420 F   0  0  0  0  0  0  0  0  0  0  0  0
  -24.2880  -14.7960   21.0220 C   0  0  0  0  0  0  0  0  0  0  0  0
  -23.4700  -14.1770   21.8660 N   0  0  0  0  0  0  0  0  0  0  0  0
  -24.0140  -15.9100   20.5770 O   0  0  0  0  0  0  0  0  0  0  0  0
  -23.6970  -13.2710   22.2500 H   0  0  0  0  0  0  0  0  0  0  0  0
  -22.6020  -14.6200   22.1340 H   0  0  0  0  0  0  0  0  0  0  0  0
  -27.1470  -16.0470   20.2260 N   0  0  0  0  0  0  0  0  0  0  0  0
  -26.4140  -16.7470   20.2660 H   0  0  0  0  0  0  0  0  0  0  0  0
  -27.8800  -16.2920   19.5740 H   0  0  0  0  0  0  0  0  0  0  0  0
  -28.4210  -24.2920   22.6340 O   0  0  0  0  0  0  0  0  0  0  0  0
  -28.1800  -25.5740   22.0580 C   0  0  0  0  0  2  0  0  0  0  0  0
  -29.5130  -26.2960   21.7810 C   0  0  0  0  0  2  0  0  0  0  0  0
  -29.4400  -27.0880   20.5940 O   0  0  0  0  0  0  0  0  0  0  0  0
  -25.2000  -31.7980   23.7450 C   0  0  0  0  0  0  0  0  0  0  0  0
  -28.2770  -27.8030   20.5200 C   0  0  0  0  0  0  0  0  0  0  0  0
  -24.1840  -30.4940   21.9010 C   0  0  0  0  0  3  0  0  0  0  0  0
  -25.8140  -29.1540   20.4690 C   0  0  0  0  0  0  0  0  0  0  0  0
  -26.6900  -30.9910   21.9270 C   0  0  0  0  0  2  0  0  0  0  0  0
  -26.8920  -29.6890   21.1870 C   0  0  0  0  0  0  0  0  0  0  0  0
  -28.1280  -29.0200   21.2150 C   0  0  0  0  0  3  0  0  0  0  0  0
  -27.1970  -27.2750   19.7860 C   0  0  0  0  0  3  0  0  0  0  0  0
  -25.9580  -27.9430   19.7670 C   0  0  0  0  0  3  0  0  0  0  0  0
  -24.5260  -29.9410   20.4910 C   0  0  0  0  0  2  0  0  0  0  0  0
  -25.3720  -31.1020   22.5870 N   0  0  0  0  0  0  0  0  0  0  0  0
  -24.0720  -31.9780   24.2240 O   0  0  0  0  0  0  0  0  0  0  0  0
  -23.5170  -29.3680   22.7240 C   0  0  0  0  0  0  0  0  0  0  0  0
  -22.2240  -29.1200   22.4550 N   0  0  0  0  0  0  0  0  0  0  0  0
  -24.1620  -28.7260   23.5550 O   0  0  0  0  0  0  0  0  0  0  0  0
  -21.7700  -29.6770   21.7450 H   0  0  0  0  0  0  0  0  0  0  0  0
  -18.8820  -27.7660   22.6120 C   0  0  0  0  0  0  0  0  0  0  0  0
  -21.4030  -28.0830   23.0770 C   0  0  0  0  0  3  0  0  0  0  0  0
  -21.6000  -26.7220   22.3720 C   0  0  0  0  0  2  0  0  0  0  0  0
  -20.5820  -26.4650   21.2580 C   0  0  0  0  0  2  0  0  0  0  0  0
  -19.1580  -26.4970   21.8210 C   0  0  0  0  0  2  0  0  0  0  0  0
  -19.9380  -28.5200   23.1890 C   0  0  0  0  0  0  0  0  0  0  0  0
  -19.6310  -29.7110   23.8810 C   0  0  0  0  0  3  0  0  0  0  0  0
  -18.2990  -30.1470   24.0080 C   0  0  0  0  0  3  0  0  0  0  0  0
  -17.2560  -29.3880   23.4470 C   0  0  0  0  0  3  0  0  0  0  0  0
  -17.5470  -28.1990   22.7550 C   0  0  0  0  0  3  0  0  0  0  0  0
  -26.4060  -32.4250   24.5140 C   0  0  0  0  0  3  0  0  0  0  0  0
  -26.0450  -33.8070   24.8560 N   0  0  0  0  0  0  0  0  0  0  0  0
  -26.3960  -34.8830   24.1420 C   0  0  0  0  0  0  0  0  0  0  0  0
  -27.1280  -34.8180   23.1490 O   0  0  0  0  0  0  0  0  0  0  0  0
  -25.4020  -33.9290   25.6250 H   0  0  0  0  0  0  0  0  0  0  0  0
  -24.6220  -36.6200   23.7440 C   0  0  0  0  0  1  0  0  0  0  0  0
  -25.8450  -36.2480   24.5960 C   0  0  0  0  0  3  0  0  0  0  0  0
  -27.9410  -37.1710   25.4810 C   0  0  0  0  0  1  0  0  0  0  0  0
  -26.8440  -37.3360   24.5320 N   0  0  0  0  0  0  0  0  0  0  0  0
  -26.4090  -38.2370   24.7070 H   0  0  0  0  0  0  0  0  0  0  0  0
  -26.8100  -31.6150   25.8060 C   0  0  1  0  0  0  0  0  0  0  0  0
  -25.6070  -31.2300   26.6990 C   0  0  0  0  0  1  0  0  0  0  0  0
  -27.5510  -30.3120   25.4240 C   0  0  0  0  0  1  0  0  0  0  0  0
  -27.7920  -32.4500   26.6610 C   0  0  0  0  0  1  0  0  0  0  0  0
  1  4  1  0
  3  5  1  0
  3  1  2  0
  4  2  2  0
  4 54  1  0
  5  6  2  0
  6  2  1  0
  8  7  1  0
  9  8  1  0
  9  7  1  0
  9  3  1  0
 10  5  1  0
 11 10  1  0
 11 14  1  0
 11 13  1  0
 12 11  1  0
 14 15  1  0
 15 24  1  0
 16 22  1  0
 16 24  1  0
 17 22  1  0
 18 19  1  0
 18 17  1  0
 20 19  1  0
 20 29  1  0
 20 21  1  0
 22 21  1  0
 23 16  2  0
 24 25  1  0
 26 27  2  0
 27 46  1  0
 28 31  1  0
 28 27  1  0
 29 30  1  0
 29 26  1  0
 30 28  2  0
 31 32  1  0
 32 33  2  0
 34 37  1  0
 34 33  1  0
 35 34  2  0
 36 35  1  0
 36 31  2  0
 37 38  1  0
 38 39  1  0
 39 40  2  0
 41 40  1  0
 41 45  1  0
 42 41  2  0
 43 38  2  0
 43 42  1  0
 44 43  1  0
 46 47  1  0
 47 50  1  0
 47 49  1  0
 48 46  2  0
 51 52  1  0
 51 26  1  0
 53 51  1  0
 55 54  1  0
 56 55  1  0
 57 56  1  0
 58 69  2  0
 59 57  1  0
 59 64  1  0
 60 68  1  0
 60 70  1  0
 61 67  1  0
 61 63  1  0
 62 68  1  0
 63 64  2  0
 63 62  1  0
 65 59  2  0
 66 65  1  0
 66 61  2  0
 67 60  1  0
 68 58  1  0
 70 72  2  0
 71 70  1  0
 73 71  1  0
 74 83  2  0
 74 79  1  0
 75 71  1  0
 75 79  1  0
 76 75  1  0
 77 78  1  0
 77 76  1  0
 78 74  1  0
 79 80  2  0
 80 81  1  0
 82 81  2  0
 83 82  1  0
 84 58  1  0
 84 85  1  0
 84 94  1  0
 85 88  1  0
 86 90  1  0
 86 85  1  0
 87 86  2  0
 90 89  1  0
 92 90  1  0
 92 93  1  0
 92 91  1  0
 94 97  1  1
 94 95  1  0
 96 94  1  0
M  ISO  4  16 100  24 100  56 101  57 101
M  END
>  <TORSDO>  (77) 
F 24

>  <SCORE>  (77) 
-9.166

>  <name>  (77) 
76

>  <ligand_id>  (77) 
76

>  <original_smiles>  (77) 
[H]c1nc(C([H])([H])[N+]([H])([H])C([H])([H])C([H])([H])N([H])C(=O)N2C([H])([H])C([H])([H])C([H])([H])C([H])(n3nc(-c4c([H])c([H])c(Oc5c([H])c([H])c(F)c([H])c5F)c([H])c4[H])c(C(=O)N([H])[H])c3N([H])[H])C2([H])[H])c(C2([H])C([H])([H])C2([H])[H])c([H])c1OC([H])([H])C([H])([H])Oc1c([H])c([H])c2c(c1[H])C([H])([H])N(C(=O)C([H])(N([H])C(=O)C([H])(N([H])C([H])([H])[H])C([H])([H])[H])C(C([H])([H])[H])(C([H])([H])[H])C([H])([H])[H])C([H])(C(=O)N([H])C1([H])c3c([H])c([H])c([H])c([H])c3C([H])([H])C([H])([H])C1([H])[H])C2([H])[H]

>  <smiles>  (77) 
[H]c1nc(C([H])([H])[N+]([H])([H])C([H])([H])C([H])([H])N([H])C(=O)N2C([H])([H])C([H])([H])C([H])([H])C([H])(n3nc(-c4c([H])c([H])c(Oc5c([H])c([H])c(F)c([H])c5F)c([H])c4[H])c(C(=O)N([H])[H])c3N([H])[H])C2([H])[H])c(C2([H])C([H])([H])C2([H])[H])c([H])c1OC([H])([H])C([H])([H])Oc1c([H])c([H])c2c(c1[H])C([H])([H])N(C(=O)C([H])(N([H])C(=O)C([H])(N([H])C([H])([H])[H])C([H])([H])[H])C(C([H])([H])[H])(C([H])([H])[H])C([H])([H])[H])C([H])(C(=O)N([H])C1([H])c3c([H])c([H])c([H])c([H])c3C([H])([H])C([H])([H])C1([H])[H])C2([H])[H]

$$$$
77:0:0
     RDKit          3D

 97101  0  0  1  0  0  0  0  0999 V2000
  -28.5120  -16.8200   20.6400 C   0  0  0  0  0  2  0  0  0  0  0  0
  -28.2650  -15.3810   21.4640 C   0  0  0  0  0  0  0  0  0  0  0  0
  -27.7780  -15.4520   22.5960 O   0  0  0  0  0  0  0  0  0  0  0  0
  -30.4130  -14.2640   18.9370 C   0  0  0  0  0  0  0  0  0  0  0  0
  -31.6560  -12.3450   17.9440 C   0  0  0  0  0  2  0  0  0  0  0  0
  -30.6500  -11.6690   16.9880 C   0  0  0  0  0  2  0  0  0  0  0  0
  -29.6820  -10.9940   18.0130 C   0  0  0  0  0  2  0  0  0  0  0  0
  -29.0540  -12.0160   19.1770 C   0  0  0  0  0  2  0  0  0  0  0  0
  -30.4270  -12.1480   19.9380 C   0  0  0  0  0  2  0  0  0  0  0  0
  -31.0090  -13.0600   19.0770 N   0  0  0  0  0  0  0  0  0  0  0  0
  -31.2760  -15.0760   18.5600 O   0  0  0  0  0  0  0  0  0  0  0  0
  -27.2590  -11.4180   17.7940 C   0  0  0  0  0 15  0  0  0  0  0  0
  -27.7380  -10.3120   19.7820 C   0  0  0  0  0 15  0  0  0  0  0  0
  -27.7870  -13.5220   17.7600 C   0  0  0  0  0  1  0  0  0  0  0  0
  -28.7090  -13.8720   20.8020 C   0  0  0  0  0  2  0  0  0  0  0  0
  -28.3490  -11.7420   21.3970 C   0  0  0  0  0  1  0  0  0  0  0  0
  -28.9060  -14.3190   19.0850 N   0  0  0  0  0  0  0  0  0  0  0  0
  -25.9600  -13.4700   20.2620 C   0  0  2  0  0  0  0  0  0  0  0  0
  -24.9650  -12.7140   20.9200 C   0  0  0  0  0  3  0  0  0  0  0  0
  -25.2960  -11.3690   20.7930 C   0  0  0  0  0  3  0  0  0  0  0  0
  -26.9400  -12.5580   19.7830 N   0  0  0  0  0  2  0  0  0  0  0  0
  -25.8030  -11.7000   19.7080 N   0  0  0  0  0  0  0  0  0  0  0  0
  -24.6890  -10.0040   20.9330 C   0  0  0  0  0  0  0  0  0  0  0  0
  -25.1410   -9.0710   21.9030 C   0  0  0  0  0  3  0  0  0  0  0  0
  -24.5330   -7.8040   22.0570 C   0  0  0  0  0  3  0  0  0  0  0  0
  -23.4340   -7.4510   21.2420 C   0  0  0  0  0  0  0  0  0  0  0  0
  -23.0360   -8.3390   20.2240 C   0  0  0  0  0  3  0  0  0  0  0  0
  -23.6670   -9.5880   20.0580 C   0  0  0  0  0  3  0  0  0  0  0  0
  -22.7390   -6.2690   21.3450 O   0  0  0  0  0  0  0  0  0  0  0  0
  -22.3410   -5.7590   22.5600 C   0  0  0  0  0  0  0  0  0  0  0  0
  -21.6030   -6.5210   23.4920 C   0  0  0  0  0  3  0  0  0  0  0  0
  -21.1630   -5.9320   24.6960 C   0  0  0  0  0  3  0  0  0  0  0  0
  -21.4500   -4.5800   24.9660 C   0  0  0  0  0  0  0  0  0  0  0  0
  -22.1750   -3.8160   24.0340 C   0  0  0  0  0  3  0  0  0  0  0  0
  -22.6140   -4.4030   22.8340 C   0  0  0  0  0  0  0  0  0  0  0  0
  -23.2920   -3.6550   21.9310 F   0  0  0  0  0  0  0  0  0  0  0  0
  -21.0250   -4.0120   26.1180 F   0  0  0  0  0  0  0  0  0  0  0  0
  -23.6050  -13.1200   21.3290 C   0  0  0  0  0  0  0  0  0  0  0  0
  -22.9910  -12.3320   22.2060 N   0  0  0  0  0  0  0  0  0  0  0  0
  -23.0730  -14.1130   20.8490 O   0  0  0  0  0  0  0  0  0  0  0  0
  -23.4370  -11.5080   22.5820 H   0  0  0  0  0  0  0  0  0  0  0  0
  -22.0540  -12.5570   22.5080 H   0  0  0  0  0  0  0  0  0  0  0  0
  -25.9810  -14.8160   19.9550 N   0  0  0  0  0  0  0  0  0  0  0  0
  -25.1350  -15.3640   20.0710 H   0  0  0  0  0  0  0  0  0  0  0  0
  -26.5550  -15.1270   19.1830 H   0  0  0  0  0  0  0  0  0  0  0  0
  -27.7570  -11.6460   22.8340 C   0  0  0  0  0  2  0  0  0  0  0  0
  -29.6180  -10.5390   24.2320 C   0  0  0  0  0  1  0  0  0  0  0  0
  -27.1990  -10.1480   24.8160 C   0  0  0  0  0  1  0  0  0  0  0  0
  -28.1890  -10.4070   23.6680 C   0  0  0  0  0  3  0  0  0  0  0  0
  -28.0770  -18.4110   21.0430 C   0  0  0  0  0  3  0  0  0  0  0  0
  -28.3820  -19.7910   20.0930 C   0  0  0  0  0  3  0  0  0  0  0  0
  -28.0590  -21.2950   20.5170 N   0  0  0  0  0  4  0  0  0  0  0  0
  -28.5660  -21.4540   21.3730 H   0  0  0  0  0  0  0  0  0  0  0  0
  -27.0830  -21.3140   20.7680 H   0  0  0  0  0  0  0  0  0  0  0  0
  -28.3180  -22.5750   19.5920 C   0  0  0  0  0  3  0  0  0  0  0  0
  -28.0580  -24.1720   20.1030 C   0  0  0  0  0  3  0  0  0  0  0  0
  -28.4320  -25.5470   19.4400 O   0  0  0  0  0  0  0  0  0  0  0  0
  -24.9610  -31.1450   22.6340 C   0  0  0  0  0  0  0  0  0  0  0  0
  -27.4670  -26.6030   19.3870 C   0  0  0  0  0  0  0  0  0  0  0  0
  -23.7560  -29.8480   20.9210 C   0  0  0  0  0  3  0  0  0  0  0  0
  -25.1960  -28.3820   19.3880 C   0  0  0  0  0  0  0  0  0  0  0  0
  -26.3050  -30.1380   20.7590 C   0  0  0  0  0  2  0  0  0  0  0  0
  -26.3750  -28.7860   20.0310 C   0  0  0  0  0  0  0  0  0  0  0  0
  -27.5240  -27.9120   20.0120 C   0  0  0  0  0  3  0  0  0  0  0  0
  -26.2910  -26.3180   18.6740 C   0  0  0  0  0  3  0  0  0  0  0  0
  -25.1700  -27.1680   18.6860 C   0  0  0  0  0  3  0  0  0  0  0  0
  -23.9700  -29.2710   19.4960 C   0  0  0  0  0  2  0  0  0  0  0  0
  -25.0270  -30.3960   21.4940 N   0  0  0  0  0  0  0  0  0  0  0  0
  -23.8770  -31.3870   23.1890 O   0  0  0  0  0  0  0  0  0  0  0  0
  -23.0990  -28.7710   21.8200 C   0  0  0  0  0  0  0  0  0  0  0  0
  -21.7650  -28.6340   21.7340 N   0  0  0  0  0  0  0  0  0  0  0  0
  -23.7900  -28.0650   22.5590 O   0  0  0  0  0  0  0  0  0  0  0  0
  -21.2630  -29.2530   21.1110 H   0  0  0  0  0  0  0  0  0  0  0  0
  -18.3720  -27.5280   22.3480 C   0  0  0  0  0  0  0  0  0  0  0  0
  -20.9530  -27.6550   22.4610 C   0  0  0  0  0  3  0  0  0  0  0  0
  -20.9490  -26.2900   21.7350 C   0  0  0  0  0  2  0  0  0  0  0  0
  -19.7700  -26.1230   20.7730 C   0  0  0  0  0  2  0  0  0  0  0  0
  -18.4400  -26.2530   21.5240 C   0  0  0  0  0  2  0  0  0  0  0  0
  -19.5520  -28.1950   22.7740 C   0  0  0  0  0  0  0  0  0  0  0  0
  -19.4320  -29.3930   23.5110 C   0  0  0  0  0  3  0  0  0  0  0  0
  -18.1660  -29.9240   23.8220 C   0  0  0  0  0  3  0  0  0  0  0  0
  -17.0020  -29.2520   23.4100 C   0  0  0  0  0  3  0  0  0  0  0  0
  -17.1060  -28.0560   22.6780 C   0  0  0  0  0  3  0  0  0  0  0  0
  -26.2410  -31.7510   23.2870 C   0  0  0  0  0  3  0  0  0  0  0  0
  -25.8710  -33.0480   23.8740 N   0  0  0  0  0  0  0  0  0  0  0  0
  -26.1070  -34.2390   23.3070 C   0  0  0  0  0  0  0  0  0  0  0  0
  -26.7290  -34.3620   22.2480 O   0  0  0  0  0  0  0  0  0  0  0  0
  -25.3110  -33.0210   24.7130 H   0  0  0  0  0  0  0  0  0  0  0  0
  -24.2630  -35.9510   23.3630 C   0  0  0  0  0  1  0  0  0  0  0  0
  -25.5710  -35.4900   24.0280 C   0  0  0  0  0  3  0  0  0  0  0  0
  -27.6950  -36.3570   24.9040 C   0  0  0  0  0  1  0  0  0  0  0  0
  -26.5330  -36.6130   24.0570 N   0  0  0  0  0  0  0  0  0  0  0  0
  -26.0840  -37.4640   24.3860 H   0  0  0  0  0  0  0  0  0  0  0  0
  -26.8800  -30.8120   24.3850 C   0  0  1  0  0  0  0  0  0  0  0  0
  -25.8640  -30.3040   25.4340 C   0  0  0  0  0  1  0  0  0  0  0  0
  -27.5450  -29.5760   23.7380 C   0  0  0  0  0  1  0  0  0  0  0  0
  -28.0000  -31.5700   25.1370 C   0  0  0  0  0  1  0  0  0  0  0  0
  1 50  1  0
  1  2  1  0
  2  3  2  0
  4 10  1  0
  4 17  1  0
  5 10  1  0
  6  5  1  0
  6  7  1  0
  7  8  1  0
  8  9  1  0
 10  9  1  0
 11  4  2  0
 14 17  1  0
 15  2  1  0
 16 46  1  0
 17 15  1  0
 18 43  1  1
 18 19  1  0
 19 38  1  0
 20 19  1  0
 20 23  1  0
 21 18  1  0
 22 21  1  0
 22 18  1  0
 22 20  1  0
 23 24  1  0
 24 25  2  0
 26 29  1  0
 26 25  1  0
 27 26  2  0
 28 27  1  0
 28 23  2  0
 29 30  1  0
 30 35  2  0
 30 31  1  0
 31 32  2  0
 32 33  1  0
 33 37  1  0
 34 33  2  0
 35 34  1  0
 36 35  1  0
 38 39  1  0
 39 42  1  0
 39 41  1  0
 40 38  2  0
 43 44  1  0
 45 43  1  0
 46 49  1  0
 49 47  1  0
 49 48  1  0
 51 52  1  0
 51 50  2  0
 52 54  1  0
 52 53  1  0
 55 56  2  0
 55 52  1  0
 57 56  1  0
 58 69  2  0
 59 57  1  0
 59 64  1  0
 60 68  1  0
 60 70  1  0
 61 67  1  0
 61 63  1  0
 62 68  1  0
 63 62  1  0
 64 63  2  0
 65 66  1  0
 65 59  2  0
 66 61  2  0
 67 60  1  0
 68 58  1  0
 70 72  2  0
 71 70  1  0
 73 71  1  0
 74 83  2  0
 74 79  1  0
 75 71  1  0
 75 79  1  0
 76 75  1  0
 77 78  1  0
 77 76  1  0
 78 74  1  0
 79 80  2  0
 80 81  1  0
 82 81  2  0
 83 82  1  0
 84 58  1  0
 84 85  1  0
 84 94  1  0
 85 88  1  0
 86 85  1  0
 86 90  1  0
 87 86  2  0
 90 89  1  0
 90 92  1  0
 92 93  1  0
 92 91  1  0
 94 97  1  1
 94 95  1  0
 96 94  1  0
M  ISO  4   4 100  17 100  56 101  57 101
M  END
>  <TORSDO>  (78) 
F 24

>  <SCORE>  (78) 
0.850

>  <name>  (78) 
77

>  <ligand_id>  (78) 
77

>  <original_smiles>  (78) 
[H]c1c([H])c([H])c2c(c1[H])C([H])([H])C([H])([H])C([H])([H])C2([H])N([H])C(=O)C1([H])N(C(=O)C([H])(N([H])C(=O)C([H])(N([H])C([H])([H])[H])C([H])([H])[H])C(C([H])([H])[H])(C([H])([H])[H])C([H])([H])[H])C([H])([H])c2c([H])c(OC([H])([H])C([H])([H])[N+]([H])([H])C([H])([H])C([H])([H])C([H])([H])C(=O)C3([H])N(C(=O)N4C([H])([H])C([H])([H])C([H])([H])C([H])(n5nc(-c6c([H])c([H])c(Oc7c([H])c([H])c(F)c([H])c7F)c([H])c6[H])c(C(=O)N([H])[H])c5N([H])[H])C4([H])[H])C([H])([H])C([H])([H])C([H])([H])C3([H])C([H])([H])C([H])(C([H])([H])[H])C([H])([H])[H])c([H])c([H])c2C1([H])[H]

>  <smiles>  (78) 
[H]c1c([H])c([H])c2c(c1[H])C([H])([H])C([H])([H])C([H])([H])C2([H])N([H])C(=O)C1([H])N(C(=O)C([H])(N([H])C(=O)C([H])(N([H])C([H])([H])[H])C([H])([H])[H])C(C([H])([H])[H])(C([H])([H])[H])C([H])([H])[H])C([H])([H])c2c([H])c(OC([H])([H])C([H])([H])[N+]([H])([H])C([H])([H])C([H])([H])C([H])([H])C(=O)C3([H])N(C(=O)N4C([H])([H])C([H])([H])C([H])([H])C([H])(n5nc(-c6c([H])c([H])c(Oc7c([H])c([H])c(F)c([H])c7F)c([H])c6[H])c(C(=O)N([H])[H])c5N([H])[H])C4([H])[H])C([H])([H])C([H])([H])C([H])([H])C3([H])C([H])([H])C([H])(C([H])([H])[H])C([H])([H])[H])c([H])c([H])c2C1([H])[H]

$$$$
78:0:0
     RDKit          3D

 96104  0  0  1  0  0  0  0  0999 V2000
  -30.8810  -21.8760   20.1180 N   0  0  0  0  0  4  0  0  0  0  0  0
  -30.8610  -22.0730   19.1300 H   0  0  0  0  0  0  0  0  0  0  0  0
  -31.8290  -22.0270   20.4290 H   0  0  0  0  0  0  0  0  0  0  0  0
  -30.6040  -20.4310   20.3060 C   0  0  0  0  0  2  0  0  0  0  0  0
  -26.9410  -19.0400   18.3590 C   0  0  0  0  0  3  0  0  0  0  0  0
  -27.5680  -20.2210   17.9310 C   0  0  0  0  0  3  0  0  0  0  0  0
  -27.5160  -18.2850   19.3960 C   0  0  0  0  0  3  0  0  0  0  0  0
  -28.7540  -20.6510   18.5520 C   0  0  0  0  0  3  0  0  0  0  0  0
  -28.7080  -18.6970   20.0300 C   0  0  0  0  0  0  0  0  0  0  0  0
  -29.3280  -19.9170   19.6240 C   0  0  0  0  0  0  0  0  0  0  0  0
  -29.2660  -17.7870   21.1310 C   0  0  0  0  0  2  0  0  0  0  0  0
  -30.3730  -16.8170   20.6470 C   0  0  0  0  0  2  0  0  0  0  0  0
  -30.7010  -14.3780   20.2720 C   0  0  0  0  0  0  0  0  0  0  0  0
  -30.3540  -12.2350   19.1200 C   0  0  0  0  0  2  0  0  0  0  0  0
  -29.4010  -12.4850   17.9350 C   0  0  0  0  0  2  0  0  0  0  0  0
  -27.9310  -12.3750   18.3830 C   0  0  0  0  0  2  0  0  0  0  0  0
  -27.6270  -13.1950   19.6660 C   0  0  0  0  0  3  0  0  0  0  0  0
  -28.6950  -12.9290   20.7500 C   0  0  0  0  0  2  0  0  0  0  0  0
  -30.0170  -13.2100   20.1650 N   0  0  0  0  0  0  0  0  0  0  0  0
  -31.8240  -14.5560   19.7940 O   0  0  0  0  0  0  0  0  0  0  0  0
  -29.9910  -15.4040   20.7680 N   0  0  0  0  0  0  0  0  0  0  0  0
  -29.0700  -15.1910   21.1180 H   0  0  0  0  0  0  0  0  0  0  0  0
  -25.2480  -13.8320   20.4020 C   0  0  0  0  0  0  0  0  0  0  0  0
  -24.1740  -13.0770   20.7910 C   0  0  0  0  0  0  0  0  0  0  0  0
  -24.6170  -11.7200   20.7630 C   0  0  0  0  0  0  0  0  0  0  0  0
  -26.2770  -12.9360   20.1600 N   0  0  0  0  0  0  0  0  0  0  0  0
  -25.9020  -11.6620   20.4360 N   0  0  0  0  0  0  0  0  0  0  0  0
  -23.8780  -10.4680   20.9720 C   0  0  0  0  0  0  0  0  0  0  0  0
  -24.3190   -9.5010   21.9030 C   0  0  0  0  0  3  0  0  0  0  0  0
  -23.5840   -8.3120   22.0980 C   0  0  0  0  0  3  0  0  0  0  0  0
  -22.3960   -8.0840   21.3650 C   0  0  0  0  0  0  0  0  0  0  0  0
  -21.9770   -9.0390   20.4220 C   0  0  0  0  0  3  0  0  0  0  0  0
  -22.7110  -10.2190   20.2240 C   0  0  0  0  0  3  0  0  0  0  0  0
  -21.6290   -6.9480   21.4700 O   0  0  0  0  0  0  0  0  0  0  0  0
  -21.5970   -6.2080   22.6240 C   0  0  0  0  0  0  0  0  0  0  0  0
  -21.2090   -6.7680   23.8610 C   0  0  0  0  0  3  0  0  0  0  0  0
  -21.1290   -5.9520   25.0090 C   0  0  0  0  0  3  0  0  0  0  0  0
  -21.4190   -4.5780   24.9210 C   0  0  0  0  0  0  0  0  0  0  0  0
  -21.8000   -4.0180   23.6870 C   0  0  0  0  0  3  0  0  0  0  0  0
  -21.8860   -4.8310   22.5430 C   0  0  0  0  0  0  0  0  0  0  0  0
  -22.2320   -4.2820   21.3530 F   0  0  0  0  0  0  0  0  0  0  0  0
  -21.3300   -3.7920   26.0190 F   0  0  0  0  0  0  0  0  0  0  0  0
  -22.7870  -13.5740   21.0740 C   0  0  0  0  0  0  0  0  0  0  0  0
  -22.0600  -12.8940   21.9540 N   0  0  0  0  0  0  0  0  0  0  0  0
  -22.3540  -14.5990   20.5450 O   0  0  0  0  0  0  0  0  0  0  0  0
  -22.4220  -12.0650   22.4020 H   0  0  0  0  0  0  0  0  0  0  0  0
  -21.1260  -13.2040   22.1810 H   0  0  0  0  0  0  0  0  0  0  0  0
  -25.4270  -15.1970   20.2130 N   0  0  0  0  0  0  0  0  0  0  0  0
  -24.6610  -15.8570   20.2900 H   0  0  0  0  0  0  0  0  0  0  0  0
  -26.2610  -15.6000   19.8060 H   0  0  0  0  0  0  0  0  0  0  0  0
  -29.9930  -22.8050   20.8610 C   0  0  0  0  0  2  0  0  0  0  0  0
  -30.4130  -24.2910   20.7210 C   0  0  0  0  0  2  0  0  0  0  0  0
  -30.9420  -26.0930   18.9810 C   0  0  0  0  0  1  0  0  0  0  0  0
  -29.9700  -24.9770   19.4060 C   0  0  0  0  0  3  0  0  0  0  0  0
  -28.5160  -25.5100   19.4500 C   0  0  0  0  0  2  0  0  0  0  0  0
  -28.4300  -26.7350   20.1870 O   0  0  0  0  0  0  0  0  0  0  0  0
  -24.5820  -31.8870   23.2350 C   0  0  0  0  0  0  0  0  0  0  0  0
  -27.2340  -27.4280   20.1770 C   0  0  0  0  0  0  0  0  0  0  0  0
  -23.3800  -30.4820   21.5930 C   0  0  0  0  0  3  0  0  0  0  0  0
  -24.8340  -28.9360   20.1820 C   0  0  0  0  0  0  0  0  0  0  0  0
  -25.9060  -30.8360   21.4030 C   0  0  0  0  0  2  0  0  0  0  0  0
  -25.9900  -29.4600   20.7740 C   0  0  0  0  0  0  0  0  0  0  0  0
  -27.1880  -28.7090   20.7740 C   0  0  0  0  0  3  0  0  0  0  0  0
  -26.0490  -26.9120   19.5990 C   0  0  0  0  0  3  0  0  0  0  0  0
  -24.8560  -27.6590   19.6000 C   0  0  0  0  0  3  0  0  0  0  0  0
  -23.5930  -29.7990   20.2170 C   0  0  0  0  0  2  0  0  0  0  0  0
  -24.6400  -31.0840   22.1360 N   0  0  0  0  0  0  0  0  0  0  0  0
  -23.5010  -32.1640   23.7710 O   0  0  0  0  0  0  0  0  0  0  0  0
  -22.7230  -29.4670   22.5540 C   0  0  0  0  0  0  0  0  0  0  0  0
  -21.4000  -29.2830   22.4180 N   0  0  0  0  0  0  0  0  0  0  0  0
  -23.4020  -28.8450   23.3760 O   0  0  0  0  0  0  0  0  0  0  0  0
  -20.9150  -29.8330   21.7230 H   0  0  0  0  0  0  0  0  0  0  0  0
  -18.0240  -28.0900   22.8990 C   0  0  0  0  0  0  0  0  0  0  0  0
  -20.5790  -28.3500   23.1890 C   0  0  0  0  0  3  0  0  0  0  0  0
  -20.6870  -26.9170   22.6220 C   0  0  0  0  0  2  0  0  0  0  0  0
  -19.5920  -26.5860   21.6030 C   0  0  0  0  0  2  0  0  0  0  0  0
  -18.2060  -26.7380   22.2330 C   0  0  0  0  0  2  0  0  0  0  0  0
  -19.1390  -28.8540   23.3350 C   0  0  0  0  0  0  0  0  0  0  0  0
  -18.9170  -30.1200   23.9170 C   0  0  0  0  0  3  0  0  0  0  0  0
  -17.6120  -30.6240   24.0690 C   0  0  0  0  0  3  0  0  0  0  0  0
  -16.5090  -29.8570   23.6490 C   0  0  0  0  0  3  0  0  0  0  0  0
  -16.7170  -28.5920   23.0700 C   0  0  0  0  0  3  0  0  0  0  0  0
  -25.8670  -32.5180   23.8570 C   0  0  0  0  0  3  0  0  0  0  0  0
  -25.5590  -33.9160   24.1830 N   0  0  0  0  0  0  0  0  0  0  0  0
  -25.9000  -34.9660   23.4250 C   0  0  0  0  0  0  0  0  0  0  0  0
  -26.5780  -34.8600   22.3990 O   0  0  0  0  0  0  0  0  0  0  0  0
  -24.9520  -34.0710   24.9750 H   0  0  0  0  0  0  0  0  0  0  0  0
  -24.1800  -36.7640   23.0490 C   0  0  0  0  0  1  0  0  0  0  0  0
  -25.4080  -36.3540   23.8750 C   0  0  0  0  0  3  0  0  0  0  0  0
  -27.5360  -37.2340   24.7310 C   0  0  0  0  0  1  0  0  0  0  0  0
  -26.4450  -37.4050   23.7760 N   0  0  0  0  0  0  0  0  0  0  0  0
  -26.0390  -38.3250   23.9200 H   0  0  0  0  0  0  0  0  0  0  0  0
  -26.3830  -31.7460   25.1340 C   0  0  1  0  0  0  0  0  0  0  0  0
  -25.2890  -31.5090   26.1990 C   0  0  0  0  0  1  0  0  0  0  0  0
  -26.9650  -30.3670   24.7420 C   0  0  0  0  0  1  0  0  0  0  0  0
  -27.5350  -32.5390   25.7960 C   0  0  0  0  0  1  0  0  0  0  0  0
  1  4  1  0
  1  3  1  0
  1 51  1  0
  2  1  1  0
  5  7  1  0
  6  5  2  0
  6  8  1  0
  7  9  2  0
  8 10  2  0
  9 11  1  0
 10  9  1  0
 10  4  1  0
 12 21  1  0
 12 11  1  0
 13 21  1  0
 14 19  1  0
 15 16  1  0
 15 14  1  0
 17 16  1  0
 17 26  1  0
 17 18  1  0
 19 13  1  0
 19 18  1  0
 20 13  2  0
 21 22  1  0
 23 24  2  0
 24 43  1  0
 25 24  1  0
 25 28  1  0
 26 23  1  0
 26 27  1  0
 27 25  2  0
 28 29  1  0
 29 30  2  0
 31 34  1  0
 31 30  1  0
 32 31  2  0
 33 32  1  0
 33 28  2  0
 34 35  1  0
 35 36  1  0
 36 37  2  0
 38 37  1  0
 38 42  1  0
 39 38  2  0
 40 35  2  0
 40 39  1  0
 41 40  1  0
 43 44  1  0
 44 47  1  0
 44 46  1  0
 45 43  2  0
 48 49  1  0
 48 23  1  0
 50 48  1  0
 52 51  1  0
 54 53  1  0
 54 55  1  0
 54 52  1  0
 55 56  1  0
 57 68  2  0
 58 56  1  0
 58 63  1  0
 59 67  1  0
 59 69  1  0
 60 66  1  0
 60 62  1  0
 61 67  1  0
 62 63  2  0
 62 61  1  0
 64 65  1  0
 64 58  2  0
 65 60  2  0
 66 59  1  0
 67 57  1  0
 69 71  2  0
 70 69  1  0
 72 70  1  0
 73 82  2  0
 73 78  1  0
 74 70  1  0
 74 78  1  0
 75 74  1  0
 76 77  1  0
 76 75  1  0
 77 73  1  0
 78 79  2  0
 79 80  1  0
 81 80  2  0
 82 81  1  0
 83 57  1  0
 83 84  1  0
 83 93  1  0
 84 87  1  0
 85 89  1  0
 85 84  1  0
 86 85  2  0
 89 88  1  0
 91 89  1  0
 91 92  1  0
 91 90  1  0
 93 96  1  1
 93 94  1  0
 95 93  1  0
M  ISO  4  13 100  21 100  55 101  56 101
M  END
>  <TORSDO>  (79) 
F 24

>  <SCORE>  (79) 
-12.550

>  <name>  (79) 
78

>  <ligand_id>  (79) 
78

>  <original_smiles>  (79) 
[H]c1c([H])c([H])c(C([H])([H])[N+]([H])([H])C([H])([H])C([H])([H])C([H])(C([H])([H])[H])C([H])([H])Oc2c([H])c([H])c3c(c2[H])C([H])([H])N(C(=O)C([H])(N([H])C(=O)C([H])(N([H])C([H])([H])[H])C([H])([H])[H])C(C([H])([H])[H])(C([H])([H])[H])C([H])([H])[H])C([H])(C(=O)N([H])C2([H])c4c([H])c([H])c([H])c([H])c4C([H])([H])C([H])([H])C2([H])[H])C3([H])[H])c(C([H])([H])C([H])([H])N([H])C(=O)N2C([H])([H])C([H])([H])C([H])([H])C([H])(n3nc(-c4c([H])c([H])c(Oc5c([H])c([H])c(F)c([H])c5F)c([H])c4[H])c(C(=O)N([H])[H])c3N([H])[H])C2([H])[H])c1[H]

>  <smiles>  (79) 
[H]c1c([H])c([H])c(C([H])([H])[N+]([H])([H])C([H])([H])C([H])([H])C([H])(C([H])([H])[H])C([H])([H])Oc2c([H])c([H])c3c(c2[H])C([H])([H])N(C(=O)C([H])(N([H])C(=O)C([H])(N([H])C([H])([H])[H])C([H])([H])[H])C(C([H])([H])[H])(C([H])([H])[H])C([H])([H])[H])C([H])(C(=O)N([H])C2([H])c4c([H])c([H])c([H])c([H])c4C([H])([H])C([H])([H])C2([H])[H])C3([H])[H])c(C([H])([H])C([H])([H])N([H])C(=O)N2C([H])([H])C([H])([H])C([H])([H])C([H])(n3nc(-c4c([H])c([H])c(Oc5c([H])c([H])c(F)c([H])c5F)c([H])c4[H])c(C(=O)N([H])[H])c3N([H])[H])C2([H])[H])c1[H]

$$$$
79:0:0
     RDKit          3D

 97105  0  0  1  0  0  0  0  0999 V2000
  -25.4310  -21.4910   19.8900 C   0  0  0  0  0  2  0  0  0  0  0  0
  -26.4660  -20.4130   19.5910 C   0  0  0  0  0  2  0  0  0  0  0  0
  -28.2890  -22.1920   19.6890 C   0  0  0  0  0  2  0  0  0  0  0  0
  -25.8380  -22.8120   19.2100 C   0  0  0  0  0  3  0  0  0  0  0  0
  -27.2000  -23.2870   19.8590 C   0  0  0  0  0  3  0  0  0  0  0  0
  -27.8600  -20.7720   20.1310 C   0  0  0  0  0  3  0  0  0  0  0  0
  -28.7940  -19.7560   19.6020 N   0  0  0  0  0  4  0  0  0  0  0  0
  -29.1860  -20.0680   18.7270 H   0  0  0  0  0  0  0  0  0  0  0  0
  -28.2150  -18.9590   19.3870 H   0  0  0  0  0  0  0  0  0  0  0  0
  -29.8670  -19.2690   20.4950 C   0  0  0  0  0  2  0  0  0  0  0  0
  -30.0690  -17.7590   20.2650 C   0  0  0  0  0  2  0  0  0  0  0  0
  -31.2090  -17.1030   21.0610 C   0  0  0  0  0  2  0  0  0  0  0  0
  -31.4770  -14.8010   20.1190 C   0  0  0  0  0  0  0  0  0  0  0  0
  -31.1070  -12.6150   19.0430 C   0  0  0  0  0  2  0  0  0  0  0  0
  -30.1350  -12.7630   17.8580 C   0  0  0  0  0  2  0  0  0  0  0  0
  -28.6750  -12.6410   18.3290 C   0  0  0  0  0  2  0  0  0  0  0  0
  -28.3720  -13.5690   19.5350 C   0  0  0  0  0  3  0  0  0  0  0  0
  -29.4440  -13.4040   20.6330 C   0  0  0  0  0  2  0  0  0  0  0  0
  -30.7760  -13.6400   20.0410 N   0  0  0  0  0  0  0  0  0  0  0  0
  -32.4460  -15.0770   19.4050 O   0  0  0  0  0  0  0  0  0  0  0  0
  -31.0140  -15.6550   21.0400 N   0  0  0  0  0  0  0  0  0  0  0  0
  -30.2970  -15.2860   21.6470 H   0  0  0  0  0  0  0  0  0  0  0  0
  -26.0540  -14.2610   20.4240 C   0  0  0  0  0  0  0  0  0  0  0  0
  -24.9670  -13.5230   20.8090 C   0  0  0  0  0  0  0  0  0  0  0  0
  -25.3450  -12.1530   20.6580 C   0  0  0  0  0  0  0  0  0  0  0  0
  -27.0290  -13.3430   20.0660 N   0  0  0  0  0  0  0  0  0  0  0  0
  -26.6080  -12.0670   20.2600 N   0  0  0  0  0  0  0  0  0  0  0  0
  -24.5600  -10.9220   20.8090 C   0  0  0  0  0  0  0  0  0  0  0  0
  -24.9060   -9.9340   21.7580 C   0  0  0  0  0  3  0  0  0  0  0  0
  -24.1220   -8.7690   21.8960 C   0  0  0  0  0  3  0  0  0  0  0  0
  -22.9790   -8.5810   21.0850 C   0  0  0  0  0  0  0  0  0  0  0  0
  -22.6520   -9.5570   20.1260 C   0  0  0  0  0  3  0  0  0  0  0  0
  -23.4360  -10.7150   19.9860 C   0  0  0  0  0  3  0  0  0  0  0  0
  -22.1760   -7.4680   21.1300 O   0  0  0  0  0  0  0  0  0  0  0  0
  -21.9290   -6.8060   22.3060 C   0  0  0  0  0  0  0  0  0  0  0  0
  -21.3220   -7.4480   23.4080 C   0  0  0  0  0  3  0  0  0  0  0  0
  -21.0240   -6.7140   24.5740 C   0  0  0  0  0  3  0  0  0  0  0  0
  -21.3190   -5.3390   24.6360 C   0  0  0  0  0  0  0  0  0  0  0  0
  -21.9170   -4.6970   23.5370 C   0  0  0  0  0  3  0  0  0  0  0  0
  -22.2200   -5.4290   22.3760 C   0  0  0  0  0  0  0  0  0  0  0  0
  -22.7790   -4.8020   21.3140 F   0  0  0  0  0  0  0  0  0  0  0  0
  -21.0260   -4.6320   25.7520 F   0  0  0  0  0  0  0  0  0  0  0  0
  -23.6180  -14.0540   21.2020 C   0  0  0  0  0  0  0  0  0  0  0  0
  -22.9060  -13.3480   22.0750 N   0  0  0  0  0  0  0  0  0  0  0  0
  -23.2040  -15.1300   20.7730 O   0  0  0  0  0  0  0  0  0  0  0  0
  -23.2460  -12.4740   22.4480 H   0  0  0  0  0  0  0  0  0  0  0  0
  -22.0070  -13.6950   22.3800 H   0  0  0  0  0  0  0  0  0  0  0  0
  -26.2900  -15.6310   20.3340 N   0  0  0  0  0  0  0  0  0  0  0  0
  -25.5720  -16.3150   20.5470 H   0  0  0  0  0  0  0  0  0  0  0  0
  -27.1410  -16.0370   19.9690 H   0  0  0  0  0  0  0  0  0  0  0  0
  -23.4210  -23.3110   18.3550 C   0  0  0  0  0  1  0  0  0  0  0  0
  -24.1760  -24.3260   20.5350 C   0  0  0  0  0  1  0  0  0  0  0  0
  -24.6340  -23.8230   19.1550 C   0  0  0  0  0  3  0  0  0  0  0  0
  -28.2960  -24.6690   17.9210 C   0  0  0  0  0  1  0  0  0  0  0  0
  -27.6860  -24.6720   19.3390 C   0  0  0  0  0  3  0  0  0  0  0  0
  -28.4180  -25.6410   20.3100 C   0  0  0  0  0  2  0  0  0  0  0  0
  -28.5280  -27.0110   19.8250 O   0  0  0  0  0  0  0  0  0  0  0  0
  -24.6610  -31.8750   23.3420 C   0  0  0  0  0  0  0  0  0  0  0  0
  -27.3800  -27.7850   19.8620 C   0  0  0  0  0  0  0  0  0  0  0  0
  -23.4850  -30.6130   21.5760 C   0  0  0  0  0  3  0  0  0  0  0  0
  -24.9690  -29.2680   20.0110 C   0  0  0  0  0  0  0  0  0  0  0  0
  -26.0100  -31.0180   21.4400 C   0  0  0  0  0  2  0  0  0  0  0  0
  -26.1130  -29.7160   20.6850 C   0  0  0  0  0  0  0  0  0  0  0  0
  -27.3150  -28.9630   20.6370 C   0  0  0  0  0  3  0  0  0  0  0  0
  -26.2530  -27.4640   19.0710 C   0  0  0  0  0  3  0  0  0  0  0  0
  -25.0330  -28.1320   19.2020 C   0  0  0  0  0  3  0  0  0  0  0  0
  -23.7120  -30.0910   20.1360 C   0  0  0  0  0  2  0  0  0  0  0  0
  -24.7340  -31.1800   22.1770 N   0  0  0  0  0  0  0  0  0  0  0  0
  -23.5710  -32.0840   23.8910 O   0  0  0  0  0  0  0  0  0  0  0  0
  -22.8590  -29.4830   22.4230 C   0  0  0  0  0  0  0  0  0  0  0  0
  -21.5450  -29.2720   22.2440 N   0  0  0  0  0  0  0  0  0  0  0  0
  -23.5460  -28.8120   23.1940 O   0  0  0  0  0  0  0  0  0  0  0  0
  -21.0580  -29.8630   21.5840 H   0  0  0  0  0  0  0  0  0  0  0  0
  -18.2020  -27.9270   22.5340 C   0  0  0  0  0  0  0  0  0  0  0  0
  -20.7400  -28.2500   22.9110 C   0  0  0  0  0  3  0  0  0  0  0  0
  -20.9150  -26.8790   22.2180 C   0  0  0  0  0  2  0  0  0  0  0  0
  -19.8550  -26.6100   21.1450 C   0  0  0  0  0  2  0  0  0  0  0  0
  -18.4510  -26.6440   21.7600 C   0  0  0  0  0  2  0  0  0  0  0  0
  -19.2780  -28.6900   23.0630 C   0  0  0  0  0  0  0  0  0  0  0  0
  -18.9930  -29.8920   23.7470 C   0  0  0  0  0  3  0  0  0  0  0  0
  -17.6660  -30.3360   23.8970 C   0  0  0  0  0  3  0  0  0  0  0  0
  -16.6050  -29.5710   23.3830 C   0  0  0  0  0  3  0  0  0  0  0  0
  -16.8730  -28.3650   22.7110 C   0  0  0  0  0  3  0  0  0  0  0  0
  -25.9350  -32.4670   24.0230 C   0  0  0  0  0  3  0  0  0  0  0  0
  -25.6280  -33.8530   24.3970 N   0  0  0  0  0  0  0  0  0  0  0  0
  -25.9930  -34.9270   23.6850 C   0  0  0  0  0  0  0  0  0  0  0  0
  -26.6970  -34.8570   22.6730 O   0  0  0  0  0  0  0  0  0  0  0  0
  -25.0160  -33.9870   25.1880 H   0  0  0  0  0  0  0  0  0  0  0  0
  -24.2920  -36.7450   23.3350 C   0  0  0  0  0  1  0  0  0  0  0  0
  -25.4980  -36.3020   24.1780 C   0  0  0  0  0  3  0  0  0  0  0  0
  -27.6020  -37.1350   25.1290 C   0  0  0  0  0  1  0  0  0  0  0  0
  -26.5420  -37.3480   24.1470 N   0  0  0  0  0  0  0  0  0  0  0  0
  -26.1370  -38.2660   24.3090 H   0  0  0  0  0  0  0  0  0  0  0  0
  -26.4090  -31.6350   25.2770 C   0  0  1  0  0  0  0  0  0  0  0  0
  -25.2830  -31.3660   26.2990 C   0  0  0  0  0  1  0  0  0  0  0  0
  -26.9890  -30.2670   24.8470 C   0  0  0  0  0  1  0  0  0  0  0  0
  -27.5470  -32.3890   26.0050 C   0  0  0  0  0  1  0  0  0  0  0  0
  2  1  1  0
  2  6  1  0
  3  5  1  0
  3  6  1  0
  4 53  1  0
  4  5  1  0
  4  1  1  0
  5 55  1  0
  6  7  1  0
  7 10  1  0
  8  7  1  0
  9  7  1  0
 11 10  1  0
 11 12  1  0
 13 21  1  0
 14 19  1  0
 15 16  1  0
 15 14  1  0
 17 16  1  0
 17 26  1  0
 17 18  1  0
 19 13  1  0
 19 18  1  0
 20 13  2  0
 21 12  1  0
 21 22  1  0
 23 24  2  0
 24 43  1  0
 25 24  1  0
 25 28  1  0
 26 27  1  0
 26 23  1  0
 27 25  2  0
 28 29  1  0
 29 30  2  0
 31 34  1  0
 31 30  1  0
 32 31  2  0
 33 32  1  0
 33 28  2  0
 34 35  1  0
 35 40  2  0
 35 36  1  0
 36 37  2  0
 37 38  1  0
 38 42  1  0
 39 38  2  0
 40 39  1  0
 41 40  1  0
 43 44  1  0
 44 47  1  0
 44 46  1  0
 45 43  2  0
 48 23  1  0
 48 49  1  0
 50 48  1  0
 51 53  1  0
 53 52  1  0
 55 54  1  0
 55 56  1  0
 57 59  1  0
 57 56  1  0
 58 69  2  0
 59 64  1  0
 60 68  1  0
 60 70  1  0
 61 67  1  0
 61 63  1  0
 62 68  1  0
 63 62  1  0
 64 63  2  0
 65 66  1  0
 65 59  2  0
 66 61  2  0
 67 60  1  0
 68 58  1  0
 70 72  2  0
 71 70  1  0
 73 71  1  0
 74 83  2  0
 74 79  1  0
 75 71  1  0
 75 79  1  0
 76 75  1  0
 77 78  1  0
 77 76  1  0
 78 74  1  0
 79 80  2  0
 80 81  1  0
 82 81  2  0
 83 82  1  0
 84 58  1  0
 84 85  1  0
 84 94  1  0
 85 88  1  0
 86 90  1  0
 86 85  1  0
 87 86  2  0
 90 89  1  0
 92 90  1  0
 92 93  1  0
 92 91  1  0
 94 97  1  1
 94 95  1  0
 96 94  1  0
M  ISO  4  13 100  21 100  56 101  57 101
M  END
>  <TORSDO>  (80) 
F 23

>  <SCORE>  (80) 
-10.117

>  <name>  (80) 
79

>  <ligand_id>  (80) 
79

>  <original_smiles>  (80) 
[H]c1c([H])c([H])c2c(c1[H])C([H])([H])C([H])([H])C([H])([H])C2([H])N([H])C(=O)C1([H])N(C(=O)C([H])(N([H])C(=O)C([H])(N([H])C([H])([H])[H])C([H])([H])[H])C(C([H])([H])[H])(C([H])([H])[H])C([H])([H])[H])C([H])([H])c2c([H])c(OC([H])([H])C([H])(C([H])([H])[H])C3([H])C([H])([H])C([H])([N+]([H])([H])C([H])([H])C([H])([H])C([H])([H])N([H])C(=O)N4C([H])([H])C([H])([H])C([H])([H])C([H])(n5nc(-c6c([H])c([H])c(Oc7c([H])c([H])c(F)c([H])c7F)c([H])c6[H])c(C(=O)N([H])[H])c5N([H])[H])C4([H])[H])C([H])([H])C([H])([H])C3([H])C([H])(C([H])([H])[H])C([H])([H])[H])c([H])c([H])c2C1([H])[H]

>  <smiles>  (80) 
[H]c1c([H])c([H])c2c(c1[H])C([H])([H])C([H])([H])C([H])([H])C2([H])N([H])C(=O)C1([H])N(C(=O)C([H])(N([H])C(=O)C([H])(N([H])C([H])([H])[H])C([H])([H])[H])C(C([H])([H])[H])(C([H])([H])[H])C([H])([H])[H])C([H])([H])c2c([H])c(OC([H])([H])C([H])(C([H])([H])[H])C3([H])C([H])([H])C([H])([N+]([H])([H])C([H])([H])C([H])([H])C([H])([H])N([H])C(=O)N4C([H])([H])C([H])([H])C([H])([H])C([H])(n5nc(-c6c([H])c([H])c(Oc7c([H])c([H])c(F)c([H])c7F)c([H])c6[H])c(C(=O)N([H])[H])c5N([H])[H])C4([H])[H])C([H])([H])C([H])([H])C3([H])C([H])(C([H])([H])[H])C([H])([H])[H])c([H])c([H])c2C1([H])[H]

$$$$
80:0:0
     RDKit          3D

 96105  0  0  1  0  0  0  0  0999 V2000
  -30.4480  -22.1040   20.6940 C   0  0  0  0  0  2  0  0  0  0  0  0
  -29.2400  -22.1990   18.4840 C   0  0  0  0  0  2  0  0  0  0  0  0
  -31.1570  -23.4220   20.3210 C   0  0  0  0  0  2  0  0  0  0  0  0
  -29.9960  -23.4960   18.1610 C   0  0  0  0  0  2  0  0  0  0  0  0
  -30.0260  -21.3030   19.4500 C   0  0  0  0  0  3  0  0  0  0  0  0
  -30.3320  -24.2490   19.3990 N   0  0  2  0  0  4  0  0  0  0  0  0
  -29.4650  -24.4470   19.8820 H   0  0  0  0  0  0  0  0  0  0  0  0
  -30.9380  -25.5800   19.1330 C   0  0  0  0  0  2  0  0  0  0  0  0
  -29.8770  -26.6850   19.0000 C   0  0  0  0  0  2  0  0  0  0  0  0
  -29.2130  -26.8080   20.2560 O   0  0  0  0  0  0  0  0  0  0  0  0
  -25.0460  -31.6620   23.3460 C   0  0  0  0  0  0  0  0  0  0  0  0
  -28.0120  -27.4720   20.2260 C   0  0  0  0  0  0  0  0  0  0  0  0
  -23.9770  -30.2950   21.5810 C   0  0  0  0  0  3  0  0  0  0  0  0
  -25.5570  -28.8610   20.1840 C   0  0  0  0  0  0  0  0  0  0  0  0
  -26.4920  -30.7430   21.5420 C   0  0  0  0  0  2  0  0  0  0  0  0
  -26.6590  -29.4030   20.8590 C   0  0  0  0  0  0  0  0  0  0  0  0
  -27.8850  -28.7080   20.8920 C   0  0  0  0  0  3  0  0  0  0  0  0
  -26.8910  -26.9210   19.5660 C   0  0  0  0  0  3  0  0  0  0  0  0
  -25.6650  -27.6130   19.5430 C   0  0  0  0  0  3  0  0  0  0  0  0
  -24.2850  -29.6750   20.1900 C   0  0  0  0  0  2  0  0  0  0  0  0
  -25.1850  -30.9120   22.2170 N   0  0  0  0  0  0  0  0  0  0  0  0
  -23.9290  -31.8800   23.8370 O   0  0  0  0  0  0  0  0  0  0  0  0
  -23.3050  -29.2180   22.4620 C   0  0  0  0  0  0  0  0  0  0  0  0
  -21.9860  -29.0380   22.2830 N   0  0  0  0  0  0  0  0  0  0  0  0
  -23.9670  -28.5510   23.2590 O   0  0  0  0  0  0  0  0  0  0  0  0
  -21.5140  -29.6290   21.6130 H   0  0  0  0  0  0  0  0  0  0  0  0
  -18.5940  -27.8650   22.6700 C   0  0  0  0  0  0  0  0  0  0  0  0
  -21.1540  -28.0550   22.9730 C   0  0  0  0  0  3  0  0  0  0  0  0
  -21.2350  -26.6740   22.2820 C   0  0  0  0  0  2  0  0  0  0  0  0
  -20.1350  -26.4550   21.2390 C   0  0  0  0  0  2  0  0  0  0  0  0
  -18.7520  -26.5710   21.8870 C   0  0  0  0  0  2  0  0  0  0  0  0
  -19.7230  -28.5690   23.1660 C   0  0  0  0  0  0  0  0  0  0  0  0
  -19.5240  -29.7850   23.8560 C   0  0  0  0  0  3  0  0  0  0  0  0
  -18.2280  -30.2970   24.0540 C   0  0  0  0  0  3  0  0  0  0  0  0
  -17.1130  -29.5870   23.5760 C   0  0  0  0  0  3  0  0  0  0  0  0
  -17.2960  -28.3720   22.8910 C   0  0  0  0  0  3  0  0  0  0  0  0
  -26.2790  -32.3010   24.0620 C   0  0  0  0  0  3  0  0  0  0  0  0
  -26.7760  -31.4710   25.3080 C   0  0  1  0  0  0  0  0  0  0  0  0
  -25.6460  -31.1010   26.2970 C   0  0  0  0  0  1  0  0  0  0  0  0
  -27.4540  -30.1570   24.8540 C   0  0  0  0  0  1  0  0  0  0  0  0
  -27.8460  -32.2740   26.0830 C   0  0  0  0  0  1  0  0  0  0  0  0
  -25.9000  -33.6630   24.4620 N   0  0  0  0  0  0  0  0  0  0  0  0
  -26.2100  -34.7700   23.7750 C   0  0  0  0  0  0  0  0  0  0  0  0
  -26.9160  -34.7550   22.7630 O   0  0  0  0  0  0  0  0  0  0  0  0
  -25.2700  -33.7450   25.2470 H   0  0  0  0  0  0  0  0  0  0  0  0
  -24.4020  -36.4930   23.4770 C   0  0  0  0  0  1  0  0  0  0  0  0
  -25.6460  -36.1080   24.2930 C   0  0  0  0  0  3  0  0  0  0  0  0
  -27.7200  -37.0460   25.2120 C   0  0  0  0  0  1  0  0  0  0  0  0
  -26.6260  -37.2150   24.2590 N   0  0  0  0  0  0  0  0  0  0  0  0
  -26.1720  -38.1030   24.4530 H   0  0  0  0  0  0  0  0  0  0  0  0
  -29.1230  -20.2690   19.8410 O   0  0  0  0  0  0  0  0  0  0  0  0
  -28.6340  -18.0850   20.6410 C   0  0  0  0  0  3  0  0  0  0  0  0
  -31.2300  -17.3860   20.0910 C   0  0  0  0  0  3  0  0  0  0  0  0
  -29.0260  -16.7590   20.8880 C   0  0  0  0  0  0  0  0  0  0  0  0
  -30.3540  -16.3880   20.5820 C   0  0  0  0  0  0  0  0  0  0  0  0
  -29.5650  -18.9950   20.1230 C   0  0  0  0  0  0  0  0  0  0  0  0
  -28.0140  -15.7710   21.4420 C   0  0  0  0  0  1  0  0  0  0  0  0
  -30.8480  -18.6630   19.8680 N   0  0  0  0  0  0  0  0  0  0  0  0
  -31.1500  -14.2200   19.7540 C   0  0  0  0  0  0  0  0  0  0  0  0
  -30.7340  -12.0660   18.6240 C   0  0  0  0  0  2  0  0  0  0  0  0
  -29.6680  -12.2490   17.5250 C   0  0  0  0  0  2  0  0  0  0  0  0
  -28.2450  -12.1210   18.1040 C   0  0  0  0  0  2  0  0  0  0  0  0
  -28.0380  -13.0010   19.3630 C   0  0  0  0  0  3  0  0  0  0  0  0
  -29.1900  -12.7640   20.3650 C   0  0  0  0  0  2  0  0  0  0  0  0
  -30.4730  -13.0450   19.6880 N   0  0  0  0  0  0  0  0  0  0  0  0
  -32.0920  -14.5120   19.0090 O   0  0  0  0  0  0  0  0  0  0  0  0
  -30.7370  -15.0290   20.7380 N   0  0  0  0  0  0  0  0  0  0  0  0
  -30.2040  -14.5300   21.4340 H   0  0  0  0  0  0  0  0  0  0  0  0
  -25.7560  -13.6660   20.3650 C   0  0  0  0  0  0  0  0  0  0  0  0
  -24.7030  -12.9160   20.8210 C   0  0  0  0  0  0  0  0  0  0  0  0
  -25.1010  -11.5510   20.6740 C   0  0  0  0  0  0  0  0  0  0  0  0
  -26.7320  -12.7600   19.9760 N   0  0  0  0  0  0  0  0  0  0  0  0
  -26.3430  -11.4810   20.2130 N   0  0  0  0  0  0  0  0  0  0  0  0
  -24.3500  -10.3080   20.8910 C   0  0  0  0  0  0  0  0  0  0  0  0
  -24.7550   -9.3590   21.8550 C   0  0  0  0  0  3  0  0  0  0  0  0
  -24.0080   -8.1790   22.0570 C   0  0  0  0  0  3  0  0  0  0  0  0
  -22.8410   -7.9390   21.2940 C   0  0  0  0  0  0  0  0  0  0  0  0
  -22.4530   -8.8770   20.3210 C   0  0  0  0  0  3  0  0  0  0  0  0
  -23.2000  -10.0490   20.1170 C   0  0  0  0  0  3  0  0  0  0  0  0
  -22.0660   -6.8100   21.4040 O   0  0  0  0  0  0  0  0  0  0  0  0
  -21.8890   -6.1720   22.6060 C   0  0  0  0  0  0  0  0  0  0  0  0
  -21.3410   -6.8330   23.7270 C   0  0  0  0  0  3  0  0  0  0  0  0
  -21.1120   -6.1210   24.9220 C   0  0  0  0  0  3  0  0  0  0  0  0
  -21.4200   -4.7490   24.9940 C   0  0  0  0  0  0  0  0  0  0  0  0
  -21.9590   -4.0880   23.8770 C   0  0  0  0  0  3  0  0  0  0  0  0
  -22.1910   -4.7980   22.6850 C   0  0  0  0  0  0  0  0  0  0  0  0
  -22.6910   -4.1510   21.6050 F   0  0  0  0  0  0  0  0  0  0  0  0
  -21.1930   -4.0620   26.1380 F   0  0  0  0  0  0  0  0  0  0  0  0
  -23.3670  -13.4290   21.2780 C   0  0  0  0  0  0  0  0  0  0  0  0
  -22.7370  -12.7450   22.2260 N   0  0  0  0  0  0  0  0  0  0  0  0
  -22.8950  -14.4720   20.8280 O   0  0  0  0  0  0  0  0  0  0  0  0
  -23.1320  -11.9020   22.6150 H   0  0  0  0  0  0  0  0  0  0  0  0
  -21.8450  -13.0740   22.5720 H   0  0  0  0  0  0  0  0  0  0  0  0
  -25.9570  -15.0360   20.2360 N   0  0  0  0  0  0  0  0  0  0  0  0
  -25.2380  -15.7130   20.4700 H   0  0  0  0  0  0  0  0  0  0  0  0
  -26.7900  -15.4600   19.8490 H   0  0  0  0  0  0  0  0  0  0  0  0
  2  5  1  0
  3  1  1  0
  4  2  1  0
  4  6  1  0
  5 51  1  0
  5  1  1  0
  6  7  1  1
  6  3  1  0
  8  6  1  0
  9  8  1  0
  9 10  1  0
 11 22  2  0
 12 10  1  0
 12 17  1  0
 13 21  1  0
 13 23  1  0
 14 20  1  0
 14 16  1  0
 15 21  1  0
 16 17  2  0
 16 15  1  0
 18 12  2  0
 19 18  1  0
 19 14  2  0
 20 13  1  0
 21 11  1  0
 23 25  2  0
 24 23  1  0
 26 24  1  0
 27 36  2  0
 27 32  1  0
 28 24  1  0
 28 32  1  0
 29 28  1  0
 30 31  1  0
 30 29  1  0
 31 27  1  0
 32 33  2  0
 33 34  1  0
 35 34  2  0
 36 35  1  0
 37 11  1  0
 37 42  1  0
 37 38  1  0
 38 41  1  1
 38 39  1  0
 40 38  1  0
 42 45  1  0
 43 47  1  0
 43 42  1  0
 44 43  2  0
 47 46  1  0
 49 47  1  0
 49 50  1  0
 49 48  1  0
 51 56  1  0
 52 54  2  0
 53 55  2  0
 54 57  1  0
 55 67  1  0
 55 54  1  0
 56 52  1  0
 58 53  1  0
 58 56  2  0
 59 67  1  0
 60 65  1  0
 61 62  1  0
 61 60  1  0
 63 62  1  0
 63 72  1  0
 63 64  1  0
 65 59  1  0
 65 64  1  0
 66 59  2  0
 67 68  1  0
 69 70  2  0
 70 89  1  0
 71 70  1  0
 71 74  1  0
 72 73  1  0
 72 69  1  0
 73 71  2  0
 74 75  1  0
 75 76  2  0
 77 80  1  0
 77 76  1  0
 78 77  2  0
 79 78  1  0
 79 74  2  0
 80 81  1  0
 81 86  2  0
 81 82  1  0
 82 83  2  0
 83 84  1  0
 84 88  1  0
 85 84  2  0
 86 85  1  0
 87 86  1  0
 89 90  1  0
 90 93  1  0
 90 92  1  0
 91 89  2  0
 94 69  1  0
 94 95  1  0
 96 94  1  0
M  ISO  4   9 101  10 101  59 100  67 100
M  END
>  <TORSDO>  (81) 
F 20

>  <SCORE>  (81) 
-11.307

>  <name>  (81) 
80

>  <ligand_id>  (81) 
80

>  <original_smiles>  (81) 
[H]c1nc(OC2([H])C([H])([H])C([H])([H])[N+]([H])(C([H])([H])C([H])([H])Oc3c([H])c([H])c4c(c3[H])C([H])([H])N(C(=O)C([H])(N([H])C(=O)C([H])(N([H])C([H])([H])[H])C([H])([H])[H])C(C([H])([H])[H])(C([H])([H])[H])C([H])([H])[H])C([H])(C(=O)N([H])C3([H])c5c([H])c([H])c([H])c([H])c5C([H])([H])C([H])([H])C3([H])[H])C4([H])[H])C([H])([H])C2([H])[H])c([H])c(C([H])([H])[H])c1N([H])C(=O)N1C([H])([H])C([H])([H])C([H])([H])C([H])(n2nc(-c3c([H])c([H])c(Oc4c([H])c([H])c(F)c([H])c4F)c([H])c3[H])c(C(=O)N([H])[H])c2N([H])[H])C1([H])[H]

>  <smiles>  (81) 
[H]c1nc(OC2([H])C([H])([H])C([H])([H])[N+]([H])(C([H])([H])C([H])([H])Oc3c([H])c([H])c4c(c3[H])C([H])([H])N(C(=O)C([H])(N([H])C(=O)C([H])(N([H])C([H])([H])[H])C([H])([H])[H])C(C([H])([H])[H])(C([H])([H])[H])C([H])([H])[H])C([H])(C(=O)N([H])C3([H])c5c([H])c([H])c([H])c([H])c5C([H])([H])C([H])([H])C3([H])[H])C4([H])[H])C([H])([H])C2([H])[H])c([H])c(C([H])([H])[H])c1N([H])C(=O)N1C([H])([H])C([H])([H])C([H])([H])C([H])(n2nc(-c3c([H])c([H])c(Oc4c([H])c([H])c(F)c([H])c4F)c([H])c3[H])c(C(=O)N([H])[H])c2N([H])[H])C1([H])[H]

$$$$
81:0:0
     RDKit          3D

102111  0  0  1  0  0  0  0  0999 V2000
  -28.4940  -20.0700   22.0540 C   0  0  0  0  0  2  0  0  0  0  0  0
  -30.0150  -19.8990   22.2270 C   0  0  0  0  0  3  0  0  0  0  0  0
  -30.0260  -19.9170   20.6630 C   0  0  0  0  0  3  0  0  0  0  0  0
  -28.6160  -19.4960   20.7080 N   0  0  0  0  0  0  0  0  0  0  0  0
  -30.3020  -18.6400   23.1070 C   0  0  0  0  0  0  0  0  0  0  0  0
  -30.3610  -17.3720   22.6680 N   0  0  0  0  0  0  0  0  0  0  0  0
  -30.5000  -18.8270   24.3070 O   0  0  0  0  0  0  0  0  0  0  0  0
  -30.5850  -16.7000   23.3900 H   0  0  0  0  0  0  0  0  0  0  0  0
  -30.1520  -16.7870   21.3530 C   0  0  0  0  0  2  0  0  0  0  0  0
  -30.9890  -15.5040   21.2280 C   0  0  0  0  0  2  0  0  0  0  0  0
  -30.9340  -13.1250   21.8310 C   0  0  0  0  0  0  0  0  0  0  0  0
  -30.7580  -10.6790   21.6790 C   0  0  0  0  0  2  0  0  0  0  0  0
  -30.2570  -10.2850   20.2760 C   0  0  0  0  0  2  0  0  0  0  0  0
  -28.7160  -10.2600   20.2430 C   0  0  0  0  0  2  0  0  0  0  0  0
  -28.0830  -11.5490   20.8350 C   0  0  0  0  0  3  0  0  0  0  0  0
  -28.7320  -11.9220   22.1890 C   0  0  0  0  0  2  0  0  0  0  0  0
  -30.1880  -11.9980   21.9960 N   0  0  0  0  0  0  0  0  0  0  0  0
  -32.1590  -13.1020   21.7200 O   0  0  0  0  0  0  0  0  0  0  0  0
  -30.2770  -14.2780   21.6290 N   0  0  0  0  0  0  0  0  0  0  0  0
  -29.2710  -14.2760   21.6740 H   0  0  0  0  0  0  0  0  0  0  0  0
  -25.6430  -12.3390   20.6350 C   0  0  0  0  0  0  0  0  0  0  0  0
  -24.4540  -11.6920   20.8360 C   0  0  0  0  0  0  0  0  0  0  0  0
  -24.7870  -10.3730   21.2700 C   0  0  0  0  0  0  0  0  0  0  0  0
  -26.6310  -11.4180   20.9470 N   0  0  0  0  0  0  0  0  0  0  0  0
  -26.1020  -10.2470   21.3860 N   0  0  0  0  0  0  0  0  0  0  0  0
  -23.9300   -9.2070   21.5290 C   0  0  0  0  0  0  0  0  0  0  0  0
  -23.8620   -8.6090   22.8060 C   0  0  0  0  0  3  0  0  0  0  0  0
  -23.0150   -7.5020   23.0350 C   0  0  0  0  0  3  0  0  0  0  0  0
  -22.2230   -6.9860   21.9810 C   0  0  0  0  0  0  0  0  0  0  0  0
  -22.3110   -7.5700   20.7060 C   0  0  0  0  0  3  0  0  0  0  0  0
  -23.1600   -8.6680   20.4800 C   0  0  0  0  0  3  0  0  0  0  0  0
  -21.3920   -5.8990   22.1040 O   0  0  0  0  0  0  0  0  0  0  0  0
  -20.5370   -5.7630   23.1680 C   0  0  0  0  0  0  0  0  0  0  0  0
  -19.7080   -6.8230   23.6000 C   0  0  0  0  0  3  0  0  0  0  0  0
  -18.7940   -6.6170   24.6530 C   0  0  0  0  0  3  0  0  0  0  0  0
  -18.7010   -5.3560   25.2690 C   0  0  0  0  0  0  0  0  0  0  0  0
  -19.5220   -4.2990   24.8380 C   0  0  0  0  0  3  0  0  0  0  0  0
  -20.4350   -4.5010   23.7880 C   0  0  0  0  0  0  0  0  0  0  0  0
  -21.2070   -3.4730   23.3600 F   0  0  0  0  0  0  0  0  0  0  0  0
  -17.8180   -5.1540   26.2760 F   0  0  0  0  0  0  0  0  0  0  0  0
  -23.0860  -12.2380   20.5510 C   0  0  0  0  0  0  0  0  0  0  0  0
  -22.0940  -11.8480   21.3450 N   0  0  0  0  0  0  0  0  0  0  0  0
  -22.9070  -13.0740   19.6670 O   0  0  0  0  0  0  0  0  0  0  0  0
  -22.2480  -11.1880   22.0910 H   0  0  0  0  0  0  0  0  0  0  0  0
  -21.1620  -12.2090   21.1980 H   0  0  0  0  0  0  0  0  0  0  0  0
  -25.9610  -13.6240   20.1930 N   0  0  0  0  0  0  0  0  0  0  0  0
  -25.3200  -13.8980   19.4530 H   0  0  0  0  0  0  0  0  0  0  0  0
  -26.9130  -13.6900   19.8510 H   0  0  0  0  0  0  0  0  0  0  0  0
  -30.4810  -20.9090   18.3790 C   0  0  0  0  0  1  0  0  0  0  0  0
  -30.1180  -21.2380   19.8360 C   0  0  0  0  0  3  0  0  0  0  0  0
  -31.0510  -22.3310   20.4330 C   0  0  0  0  0  2  0  0  0  0  0  0
  -30.8950  -23.7420   19.7970 C   0  0  0  0  0  2  0  0  0  0  0  0
  -31.4180  -24.9070   20.6760 C   0  0  0  0  0  2  0  0  0  0  0  0
  -31.1800  -26.2200   20.1460 O   0  0  0  0  0  0  0  0  0  0  0  0
  -25.8940  -29.2950   23.8110 C   0  0  0  0  0  0  0  0  0  0  0  0
  -29.8790  -26.6600   20.1650 C   0  0  0  0  0  0  0  0  0  0  0  0
  -25.2730  -28.3080   21.6280 C   0  0  0  0  0  3  0  0  0  0  0  0
  -27.2190  -27.6100   20.1340 C   0  0  0  0  0  0  0  0  0  0  0  0
  -27.6440  -29.1710   22.0410 C   0  0  0  0  0  2  0  0  0  0  0  0
  -28.1330  -28.1180   21.0670 C   0  0  0  0  0  0  0  0  0  0  0  0
  -29.4660  -27.6510   21.0830 C   0  0  0  0  0  3  0  0  0  0  0  0
  -28.9550  -26.1720   19.2190 C   0  0  0  0  0  3  0  0  0  0  0  0
  -27.6260  -26.6370   19.2050 C   0  0  0  0  0  3  0  0  0  0  0  0
  -25.8120  -28.1640   20.1800 C   0  0  0  0  0  2  0  0  0  0  0  0
  -26.2770  -28.9230   22.5570 N   0  0  0  0  0  0  0  0  0  0  0  0
  -24.7190  -29.1740   24.1850 O   0  0  0  0  0  0  0  0  0  0  0  0
  -24.7660  -26.9290   22.1060 C   0  0  0  0  0  0  0  0  0  0  0  0
  -23.6600  -26.4580   21.5060 N   0  0  0  0  0  0  0  0  0  0  0  0
  -25.3730  -26.2950   22.9730 O   0  0  0  0  0  0  0  0  0  0  0  0
  -23.2150  -27.0420   20.8120 H   0  0  0  0  0  0  0  0  0  0  0  0
  -20.9700  -24.2810   20.4710 C   0  0  0  0  0  0  0  0  0  0  0  0
  -23.0250  -25.1660   21.7630 C   0  0  0  0  0  3  0  0  0  0  0  0
  -23.8130  -24.0150   21.0960 C   0  0  0  0  0  2  0  0  0  0  0  0
  -23.2990  -23.6640   19.6970 C   0  0  0  0  0  2  0  0  0  0  0  0
  -21.8250  -23.2500   19.7540 C   0  0  0  0  0  2  0  0  0  0  0  0
  -21.5360  -25.1910   21.4020 C   0  0  0  0  0  0  0  0  0  0  0  0
  -20.7040  -26.1520   22.0140 C   0  0  0  0  0  3  0  0  0  0  0  0
  -19.3310  -26.2120   21.7130 C   0  0  0  0  0  3  0  0  0  0  0  0
  -18.7710  -25.2990   20.8030 C   0  0  0  0  0  3  0  0  0  0  0  0
  -19.5890  -24.3340   20.1870 C   0  0  0  0  0  3  0  0  0  0  0  0
  -26.9050  -29.9150   24.8250 C   0  0  0  0  0  3  0  0  0  0  0  0
  -27.0860  -29.0470   26.1310 C   0  0  1  0  0  0  0  0  0  0  0  0
  -25.7510  -28.6350   26.7950 C   0  0  0  0  0  1  0  0  0  0  0  0
  -27.8780  -27.7540   25.8230 C   0  0  0  0  0  1  0  0  0  0  0  0
  -27.9120  -29.8340   27.1750 C   0  0  0  0  0  1  0  0  0  0  0  0
  -26.4270  -31.2630   25.1590 N   0  0  0  0  0  0  0  0  0  0  0  0
  -26.9390  -32.3960   24.6590 C   0  0  0  0  0  0  0  0  0  0  0  0
  -27.9230  -32.4150   23.9160 O   0  0  0  0  0  0  0  0  0  0  0  0
  -25.5880  -31.3200   25.7170 H   0  0  0  0  0  0  0  0  0  0  0  0
  -25.3830  -34.2110   23.8770 C   0  0  0  0  0  1  0  0  0  0  0  0
  -26.2480  -33.7170   25.0480 C   0  0  0  0  0  3  0  0  0  0  0  0
  -27.8810  -34.4980   26.7060 C   0  0  0  0  0  1  0  0  0  0  0  0
  -27.1950  -34.7800   25.4480 N   0  0  0  0  0  0  0  0  0  0  0  0
  -26.7170  -35.6720   25.5390 H   0  0  0  0  0  0  0  0  0  0  0  0
  -28.4120  -18.0420   20.5650 C   0  0  0  0  0  2  0  0  0  0  0  0
  -25.0450  -16.6450   19.5110 C   0  0  0  0  0  2  0  0  0  0  0  0
  -25.8770  -17.5240   20.4390 C   0  0  0  0  0  2  0  0  0  0  0  0
  -26.0740  -15.7000   18.8850 C   0  0  0  0  0  2  0  0  0  0  0  0
  -27.2040  -17.6630   19.6770 C   0  0  0  0  0  3  0  0  0  0  0  0
  -27.3880  -16.3640   19.0000 N   0  0  0  0  0  4  0  0  0  0  0  0
  -27.8120  -16.4910   18.0950 H   0  0  0  0  0  0  0  0  0  0  0  0
  -27.9910  -15.7550   19.5490 H   0  0  0  0  0  0  0  0  0  0  0  0
  1  2  1  0
  2  5  1  0
  3 50  1  0
  3  4  1  0
  3  2  1  0
  4  1  1  0
  5  7  2  0
  6  5  1  0
  6  8  1  0
  9  6  1  0
 10  9  1  0
 10 19  1  0
 11 17  1  0
 12 17  1  0
 13 12  1  0
 14 13  1  0
 15 14  1  0
 15 24  1  0
 15 16  1  0
 17 16  1  0
 18 11  2  0
 19 20  1  0
 19 11  1  0
 21 22  2  0
 21 24  1  0
 22 23  1  0
 23 25  2  0
 23 26  1  0
 24 25  1  0
 26 27  1  0
 27 28  2  0
 29 32  1  0
 29 28  1  0
 30 29  2  0
 31 30  1  0
 31 26  2  0
 32 33  1  0
 33 34  2  0
 33 38  1  0
 34 35  1  0
 35 36  2  0
 36 40  1  0
 37 36  1  0
 38 37  2  0
 39 38  1  0
 41 22  1  0
 41 42  1  0
 42 44  1  0
 43 41  2  0
 45 42  1  0
 46 21  1  0
 47 46  1  0
 48 46  1  0
 50 49  1  0
 50 51  1  0
 52 51  1  0
 52 53  1  0
 54 56  1  0
 54 53  1  0
 55 66  2  0
 56 61  1  0
 57 67  1  0
 57 65  1  0
 58 64  1  0
 58 60  1  0
 59 65  1  0
 60 61  2  0
 60 59  1  0
 62 56  2  0
 63 62  1  0
 63 58  2  0
 64 57  1  0
 65 55  1  0
 67 69  2  0
 68 67  1  0
 70 68  1  0
 71 76  1  0
 72 68  1  0
 73 72  1  0
 74 75  1  0
 74 73  1  0
 75 71  1  0
 76 72  1  0
 76 77  2  0
 78 77  1  0
 79 78  2  0
 80 71  2  0
 80 79  1  0
 81 55  1  0
 81 86  1  0
 81 82  1  0
 82 83  1  1
 82 85  1  0
 84 82  1  0
 86 89  1  0
 87 91  1  0
 87 86  1  0
 88 87  2  0
 91 90  1  0
 91 93  1  0
 93 94  1  0
 93 92  1  0
 95  4  1  0
 96 97  1  0
 98100  1  0
 98 96  1  0
 99 97  1  0
 99 95  1  0
100102  1  0
100 99  1  0
101100  1  0
M  ISO  4  11 100  19 100  53 101  54 101
M  END
>  <TORSDO>  (82) 
F 25

>  <SCORE>  (82) 
-2.331

>  <name>  (82) 
81

>  <ligand_id>  (82) 
81

>  <original_smiles>  (82) 
[H]c1c([H])c([H])c2c(c1[H])C([H])([H])C([H])([H])C([H])([H])C2([H])N([H])C(=O)C1([H])N(C(=O)C([H])(N([H])C(=O)C([H])(N([H])C([H])([H])[H])C([H])([H])[H])C(C([H])([H])[H])(C([H])([H])[H])C([H])([H])[H])C([H])([H])c2c([H])c(OC([H])([H])C([H])([H])C([H])([H])C([H])(C([H])([H])[H])C3([H])N(C([H])([H])C4([H])C([H])([H])C([H])([H])C([H])([H])[N+]4([H])[H])C([H])([H])C3([H])C(=O)N([H])C([H])([H])C([H])([H])N([H])C(=O)N3C([H])([H])C([H])([H])C([H])([H])C([H])(n4nc(-c5c([H])c([H])c(Oc6c([H])c([H])c(F)c([H])c6F)c([H])c5[H])c(C(=O)N([H])[H])c4N([H])[H])C3([H])[H])c([H])c([H])c2C1([H])[H]

>  <smiles>  (82) 
[H]c1c([H])c([H])c2c(c1[H])C([H])([H])C([H])([H])C([H])([H])C2([H])N([H])C(=O)C1([H])N(C(=O)C([H])(N([H])C(=O)C([H])(N([H])C([H])([H])[H])C([H])([H])[H])C(C([H])([H])[H])(C([H])([H])[H])C([H])([H])[H])C([H])([H])c2c([H])c(OC([H])([H])C([H])([H])C([H])([H])C([H])(C([H])([H])[H])C3([H])N(C([H])([H])C4([H])C([H])([H])C([H])([H])C([H])([H])[N+]4([H])[H])C([H])([H])C3([H])C(=O)N([H])C([H])([H])C([H])([H])N([H])C(=O)N3C([H])([H])C([H])([H])C([H])([H])C([H])(n4nc(-c5c([H])c([H])c(Oc6c([H])c([H])c(F)c([H])c6F)c([H])c5[H])c(C(=O)N([H])[H])c4N([H])[H])C3([H])[H])c([H])c([H])c2C1([H])[H]

$$$$
82:0:0
     RDKit          3D

 96105  0  0  1  0  0  0  0  0999 V2000
  -29.8450  -20.8890   19.6180 C   0  0  0  0  0  3  0  0  0  0  0  0
  -28.2270  -21.9130   18.4910 C   0  0  0  0  0  3  0  0  0  0  0  0
  -29.4270  -22.1540   19.1020 C   0  0  0  0  0  0  0  0  0  0  0  0
  -28.9750  -19.9100   19.2230 C   0  0  0  0  0  0  0  0  0  0  0  0
  -27.9350  -20.5520   18.5520 N   0  0  0  0  0  0  0  0  0  0  0  0
  -30.9940  -14.6340   20.3110 C   0  0  0  0  0  0  0  0  0  0  0  0
  -30.7080  -12.3940   19.3530 C   0  0  0  0  0  2  0  0  0  0  0  0
  -29.7870  -12.5260   18.1220 C   0  0  0  0  0  2  0  0  0  0  0  0
  -28.3030  -12.4400   18.5350 C   0  0  0  0  0  2  0  0  0  0  0  0
  -27.9500  -13.3470   19.7450 C   0  0  0  0  0  3  0  0  0  0  0  0
  -28.9940  -13.2130   20.8770 C   0  0  0  0  0  2  0  0  0  0  0  0
  -30.3190  -13.4530   20.2930 N   0  0  0  0  0  0  0  0  0  0  0  0
  -32.1990  -14.7080   20.0590 O   0  0  0  0  0  0  0  0  0  0  0  0
  -30.3750  -17.8590   18.7320 C   0  0  0  0  0  2  0  0  0  0  0  0
  -28.9180  -17.8220   20.7820 C   0  0  0  0  0  2  0  0  0  0  0  0
  -30.3380  -16.3230   18.7200 C   0  0  0  0  0  2  0  0  0  0  0  0
  -29.8950  -16.6640   21.1600 C   0  0  0  0  0  2  0  0  0  0  0  0
  -29.0890  -18.4010   19.3580 C   0  0  0  0  0  3  0  0  0  0  0  0
  -30.2110  -15.7180   20.0670 N   0  0  0  0  0  0  0  0  0  0  0  0
  -25.5660  -14.0040   20.4500 C   0  0  0  0  0  0  0  0  0  0  0  0
  -24.4780  -13.2560   20.8110 C   0  0  0  0  0  0  0  0  0  0  0  0
  -24.9090  -11.8930   20.7830 C   0  0  0  0  0  0  0  0  0  0  0  0
  -26.5920  -13.1000   20.2230 N   0  0  0  0  0  0  0  0  0  0  0  0
  -26.2010  -11.8260   20.4830 N   0  0  0  0  0  0  0  0  0  0  0  0
  -24.1570  -10.6460   20.9670 C   0  0  0  0  0  0  0  0  0  0  0  0
  -24.5490   -9.6800   21.9190 C   0  0  0  0  0  3  0  0  0  0  0  0
  -23.7990   -8.4960   22.0910 C   0  0  0  0  0  3  0  0  0  0  0  0
  -22.6410   -8.2710   21.3080 C   0  0  0  0  0  0  0  0  0  0  0  0
  -22.2670   -9.2250   20.3460 C   0  0  0  0  0  3  0  0  0  0  0  0
  -23.0190  -10.4000   20.1720 C   0  0  0  0  0  3  0  0  0  0  0  0
  -21.8620   -7.1430   21.3890 O   0  0  0  0  0  0  0  0  0  0  0  0
  -21.7520   -6.4260   22.5540 C   0  0  0  0  0  0  0  0  0  0  0  0
  -21.2670   -7.0080   23.7450 C   0  0  0  0  0  3  0  0  0  0  0  0
  -21.1030   -6.2170   24.8990 C   0  0  0  0  0  3  0  0  0  0  0  0
  -21.4140   -4.8460   24.8650 C   0  0  0  0  0  0  0  0  0  0  0  0
  -21.8930   -4.2620   23.6780 C   0  0  0  0  0  3  0  0  0  0  0  0
  -22.0600   -5.0490   22.5260 C   0  0  0  0  0  0  0  0  0  0  0  0
  -22.5010   -4.4800   21.3800 F   0  0  0  0  0  0  0  0  0  0  0  0
  -21.2500   -4.0850   25.9720 F   0  0  0  0  0  0  0  0  0  0  0  0
  -23.0900  -13.7640   21.0760 C   0  0  0  0  0  0  0  0  0  0  0  0
  -22.3500  -13.0940   21.9520 N   0  0  0  0  0  0  0  0  0  0  0  0
  -22.6720  -14.7920   20.5440 O   0  0  0  0  0  0  0  0  0  0  0  0
  -22.7060  -12.2690   22.4120 H   0  0  0  0  0  0  0  0  0  0  0  0
  -21.4200  -13.4180   22.1760 H   0  0  0  0  0  0  0  0  0  0  0  0
  -25.7630  -15.3690   20.2730 N   0  0  0  0  0  0  0  0  0  0  0  0
  -25.0130  -16.0430   20.3720 H   0  0  0  0  0  0  0  0  0  0  0  0
  -26.6330  -15.7780   19.9550 H   0  0  0  0  0  0  0  0  0  0  0  0
  -27.1890  -19.2730   16.5710 C   0  0  0  0  0  1  0  0  0  0  0  0
  -25.5940  -20.8580   17.7290 C   0  0  0  0  0  1  0  0  0  0  0  0
  -26.7850  -19.9040   17.9150 C   0  0  0  0  0  3  0  0  0  0  0  0
  -31.0610  -23.5110   20.4520 C   0  0  0  0  0  1  0  0  0  0  0  0
  -31.2450  -23.3560   17.9720 C   0  0  0  0  0  1  0  0  0  0  0  0
  -30.2430  -23.4480   19.1450 C   0  0  1  0  0  0  0  0  0  0  0  0
  -29.4280  -24.7670   18.9270 C   0  0  0  0  0  2  0  0  0  0  0  0
  -28.5970  -25.3500   20.0950 C   0  0  0  0  0  2  0  0  0  0  0  0
  -28.5870  -26.7900   20.0240 O   0  0  0  0  0  0  0  0  0  0  0  0
  -24.5810  -31.7620   23.1580 C   0  0  0  0  0  0  0  0  0  0  0  0
  -27.3810  -27.4580   20.0170 C   0  0  0  0  0  0  0  0  0  0  0  0
  -23.4360  -30.3710   21.4630 C   0  0  0  0  0  3  0  0  0  0  0  0
  -24.9490  -28.9030   20.0250 C   0  0  0  0  0  0  0  0  0  0  0  0
  -25.9560  -30.7970   21.3150 C   0  0  0  0  0  2  0  0  0  0  0  0
  -26.0830  -29.4450   20.6420 C   0  0  0  0  0  0  0  0  0  0  0  0
  -27.3020  -28.7300   20.6290 C   0  0  0  0  0  3  0  0  0  0  0  0
  -26.2300  -26.9310   19.3910 C   0  0  0  0  0  3  0  0  0  0  0  0
  -25.0170  -27.6470   19.3970 C   0  0  0  0  0  3  0  0  0  0  0  0
  -23.6830  -29.7300   20.0710 C   0  0  0  0  0  2  0  0  0  0  0  0
  -24.6740  -30.9920   22.0370 N   0  0  0  0  0  0  0  0  0  0  0  0
  -23.4840  -31.9940   23.6860 O   0  0  0  0  0  0  0  0  0  0  0  0
  -22.7970  -29.3110   22.3880 C   0  0  0  0  0  0  0  0  0  0  0  0
  -21.4790  -29.1030   22.2380 N   0  0  0  0  0  0  0  0  0  0  0  0
  -23.4850  -28.6780   23.1950 O   0  0  0  0  0  0  0  0  0  0  0  0
  -20.9860  -29.6630   21.5580 H   0  0  0  0  0  0  0  0  0  0  0  0
  -18.1200  -27.8520   22.6860 C   0  0  0  0  0  0  0  0  0  0  0  0
  -20.6740  -28.1270   22.9730 C   0  0  0  0  0  3  0  0  0  0  0  0
  -20.7950  -26.7210   22.3420 C   0  0  0  0  0  2  0  0  0  0  0  0
  -19.6970  -26.4240   21.3140 C   0  0  0  0  0  2  0  0  0  0  0  0
  -18.3130  -26.5300   21.9610 C   0  0  0  0  0  2  0  0  0  0  0  0
  -19.2300  -28.6090   23.1470 C   0  0  0  0  0  0  0  0  0  0  0  0
  -18.9970  -29.8480   23.7830 C   0  0  0  0  0  3  0  0  0  0  0  0
  -17.6870  -30.3290   23.9650 C   0  0  0  0  0  3  0  0  0  0  0  0
  -16.5920  -29.5680   23.5210 C   0  0  0  0  0  3  0  0  0  0  0  0
  -16.8090  -28.3310   22.8880 C   0  0  0  0  0  3  0  0  0  0  0  0
  -25.8400  -32.4110   23.8130 C   0  0  0  0  0  3  0  0  0  0  0  0
  -26.3420  -31.6390   25.0950 C   0  0  1  0  0  0  0  0  0  0  0  0
  -25.2280  -31.3690   26.1330 C   0  0  0  0  0  1  0  0  0  0  0  0
  -26.9630  -30.2770   24.7050 C   0  0  0  0  0  1  0  0  0  0  0  0
  -27.4580  -32.4500   25.7920 C   0  0  0  0  0  1  0  0  0  0  0  0
  -25.4990  -33.8000   24.1450 N   0  0  0  0  0  0  0  0  0  0  0  0
  -25.8360  -34.8640   23.4050 C   0  0  0  0  0  0  0  0  0  0  0  0
  -26.5390  -34.7800   22.3920 O   0  0  0  0  0  0  0  0  0  0  0  0
  -24.8750  -33.9390   24.9270 H   0  0  0  0  0  0  0  0  0  0  0  0
  -24.0870  -36.6280   23.0160 C   0  0  0  0  0  1  0  0  0  0  0  0
  -25.3120  -36.2400   23.8580 C   0  0  0  0  0  3  0  0  0  0  0  0
  -27.4040  -37.1600   24.7580 C   0  0  0  0  0  1  0  0  0  0  0  0
  -26.3280  -37.3120   23.7800 N   0  0  0  0  0  0  0  0  0  0  0  0
  -25.9010  -38.2240   23.9170 H   0  0  0  0  0  0  0  0  0  0  0  0
  2  5  1  0
  2  3  2  0
  3 53  1  0
  3  1  1  0
  4  1  2  0
  5  4  1  0
  7 12  1  0
  8  9  1  0
  8  7  1  0
 10  9  1  0
 10 23  1  0
 10 11  1  0
 12  6  1  0
 12 11  1  0
 13  6  2  0
 14 18  1  0
 15 17  1  0
 16 14  1  0
 16 19  1  0
 18  4  1  0
 18 15  1  0
 19  6  1  0
 19 17  1  0
 20 21  2  0
 21 40  1  0
 22 21  1  0
 22 25  1  0
 23 20  1  0
 23 24  1  0
 24 22  2  0
 25 26  1  0
 26 27  2  0
 28 31  1  0
 28 27  1  0
 29 28  2  0
 30 29  1  0
 30 25  2  0
 31 32  1  0
 32 33  1  0
 33 34  2  0
 35 34  1  0
 35 39  1  0
 36 35  2  0
 37 32  2  0
 37 36  1  0
 38 37  1  0
 40 41  1  0
 41 44  1  0
 41 43  1  0
 42 40  2  0
 45 46  1  0
 45 20  1  0
 47 45  1  0
 48 50  1  0
 49 50  1  0
 50  5  1  0
 53 52  1  6
 53 51  1  0
 54 53  1  0
 54 55  1  0
 56 55  1  0
 57 68  2  0
 58 56  1  0
 58 63  1  0
 59 67  1  0
 59 69  1  0
 60 66  1  0
 60 62  1  0
 61 67  1  0
 62 61  1  0
 63 62  2  0
 64 65  1  0
 64 58  2  0
 65 60  2  0
 66 59  1  0
 67 57  1  0
 69 71  2  0
 70 69  1  0
 72 70  1  0
 73 82  2  0
 73 78  1  0
 74 70  1  0
 74 78  1  0
 75 74  1  0
 76 77  1  0
 76 75  1  0
 77 73  1  0
 78 79  2  0
 79 80  1  0
 81 80  2  0
 82 81  1  0
 83 57  1  0
 83 88  1  0
 83 84  1  0
 84 87  1  1
 84 85  1  0
 86 84  1  0
 88 91  1  0
 89 93  1  0
 89 88  1  0
 90 89  2  0
 93 92  1  0
 95 93  1  0
 95 96  1  0
 95 94  1  0
M  ISO  4   6 100  19 100  55 101  56 101
M  END
>  <TORSDO>  (83) 
F 20

>  <SCORE>  (83) 
-13.821

>  <name>  (83) 
82

>  <ligand_id>  (83) 
82

>  <original_smiles>  (83) 
[H]c1c([H])c([H])c2c(c1[H])C([H])([H])C([H])([H])C([H])([H])C2([H])N([H])C(=O)C1([H])N(C(=O)C([H])(N([H])C(=O)C([H])(N([H])C([H])([H])[H])C([H])([H])[H])C(C([H])([H])[H])(C([H])([H])[H])C([H])([H])[H])C([H])([H])c2c([H])c(OC([H])([H])C([H])([H])C(c3c([H])c(C4([H])C([H])([H])C([H])([H])N(C(=O)N5C([H])([H])C([H])([H])C([H])([H])C([H])(n6nc(-c7c([H])c([H])c(Oc8c([H])c([H])c(F)c([H])c8F)c([H])c7[H])c(C(=O)N([H])[H])c6N([H])[H])C5([H])[H])C([H])([H])C4([H])[H])n(C([H])(C([H])([H])[H])C([H])([H])[H])c3[H])(C([H])([H])[H])C([H])([H])[H])c([H])c([H])c2C1([H])[H]

>  <smiles>  (83) 
[H]c1c([H])c([H])c2c(c1[H])C([H])([H])C([H])([H])C([H])([H])C2([H])N([H])C(=O)C1([H])N(C(=O)C([H])(N([H])C(=O)C([H])(N([H])C([H])([H])[H])C([H])([H])[H])C(C([H])([H])[H])(C([H])([H])[H])C([H])([H])[H])C([H])([H])c2c([H])c(OC([H])([H])C([H])([H])C(c3c([H])c(C4([H])C([H])([H])C([H])([H])N(C(=O)N5C([H])([H])C([H])([H])C([H])([H])C([H])(n6nc(-c7c([H])c([H])c(Oc8c([H])c([H])c(F)c([H])c8F)c([H])c7[H])c(C(=O)N([H])[H])c6N([H])[H])C5([H])[H])C([H])([H])C4([H])[H])n(C([H])(C([H])([H])[H])C([H])([H])[H])c3[H])(C([H])([H])[H])C([H])([H])[H])c([H])c([H])c2C1([H])[H]

$$$$
83:0:0
     RDKit          3D

 98108  0  0  1  0  0  0  0  0999 V2000
  -28.0740  -23.0750   22.0620 C   0  0  0  0  0  2  0  0  0  0  0  0
  -27.1390  -23.7540   21.0340 C   0  0  0  0  0  2  0  0  0  0  0  0
  -28.2200  -22.7830   19.0550 C   0  0  0  0  0  2  0  0  0  0  0  0
  -30.1560  -22.2020   20.7140 C   0  0  0  0  0  3  0  0  0  0  0  0
  -28.8710  -21.9230   21.4740 C   0  0  0  0  0  3  0  0  0  0  0  0
  -28.9140  -21.7970   19.9690 C   0  0  0  0  0  3  0  0  0  0  0  0
  -27.8200  -24.0410   19.7400 N   0  0  1  0  0  4  0  0  0  0  0  0
  -28.6690  -24.5510   19.9450 H   0  0  0  0  0  0  0  0  0  0  0  0
  -32.2580  -21.0510   21.6210 C   0  0  0  0  0  3  0  0  0  0  0  0
  -31.5020  -20.6170   19.3800 C   0  0  0  0  0  3  0  0  0  0  0  0
  -31.3260  -21.2870   20.5960 C   0  0  0  0  0  0  0  0  0  0  0  0
  -33.3100  -20.1450   21.3820 C   0  0  0  0  0  0  0  0  0  0  0  0
  -32.5670  -19.7160   19.2240 C   0  0  0  0  0  0  0  0  0  0  0  0
  -34.3560  -19.8830   22.4450 C   0  0  0  0  0  1  0  0  0  0  0  0
  -33.4580  -19.4810   20.2140 N   0  0  0  0  0  0  0  0  0  0  0  0
  -31.5610  -19.0250   16.9510 C   0  0  0  0  0  1  0  0  0  0  0  0
  -32.7690  -18.9490   17.9190 C   0  0  0  0  0  3  0  0  0  0  0  0
  -33.9640  -16.8280   17.5060 C   0  0  0  0  0  0  0  0  0  0  0  0
  -34.5810  -14.5370   16.8740 C   0  0  0  0  0  2  0  0  0  0  0  0
  -33.4180  -13.9140   16.0800 C   0  0  0  0  0  2  0  0  0  0  0  0
  -32.4000  -13.2560   17.0300 C   0  0  0  0  0  2  0  0  0  0  0  0
  -31.9780  -14.1880   18.1990 C   0  0  0  0  0  3  0  0  0  0  0  0
  -33.2150  -14.8350   18.8630 C   0  0  0  0  0  2  0  0  0  0  0  0
  -34.0030  -15.5060   17.8150 N   0  0  0  0  0  0  0  0  0  0  0  0
  -34.5990  -17.3230   16.5730 O   0  0  0  0  0  0  0  0  0  0  0  0
  -33.1010  -17.5590   18.2080 N   0  0  0  0  0  0  0  0  0  0  0  0
  -32.6510  -17.1530   19.0130 H   0  0  0  0  0  0  0  0  0  0  0  0
  -29.8700  -13.7740   19.6220 C   0  0  0  0  0  0  0  0  0  0  0  0
  -29.5270  -12.7580   20.4730 C   0  0  0  0  0  0  0  0  0  0  0  0
  -30.6420  -11.8660   20.4920 C   0  0  0  0  0  0  0  0  0  0  0  0
  -31.1480  -13.4780   19.1720 N   0  0  0  0  0  0  0  0  0  0  0  0
  -31.6290  -12.3460   19.7460 N   0  0  0  0  0  0  0  0  0  0  0  0
  -30.8060  -10.5550   21.1330 C   0  0  0  0  0  0  0  0  0  0  0  0
  -32.0840  -10.0360   21.4370 C   0  0  0  0  0  3  0  0  0  0  0  0
  -32.2170   -8.7810   22.0700 C   0  0  0  0  0  3  0  0  0  0  0  0
  -31.0640   -8.0330   22.4100 C   0  0  0  0  0  0  0  0  0  0  0  0
  -29.7940   -8.5430   22.0850 C   0  0  0  0  0  3  0  0  0  0  0  0
  -29.6650   -9.7900   21.4490 C   0  0  0  0  0  3  0  0  0  0  0  0
  -31.0960   -6.7940   23.0050 O   0  0  0  0  0  0  0  0  0  0  0  0
  -32.2790   -6.1860   23.3410 C   0  0  0  0  0  0  0  0  0  0  0  0
  -33.5000   -6.8970   23.3740 C   0  0  0  0  0  3  0  0  0  0  0  0
  -34.6800   -6.2490   23.7930 C   0  0  0  0  0  3  0  0  0  0  0  0
  -34.6410   -4.8980   24.1840 C   0  0  0  0  0  0  0  0  0  0  0  0
  -33.4260   -4.1910   24.1580 C   0  0  0  0  0  3  0  0  0  0  0  0
  -32.2480   -4.8340   23.7390 C   0  0  0  0  0  0  0  0  0  0  0  0
  -31.0770   -4.1540   23.7350 F   0  0  0  0  0  0  0  0  0  0  0  0
  -35.7720   -4.2780   24.5940 F   0  0  0  0  0  0  0  0  0  0  0  0
  -28.2030  -12.5720   21.1570 C   0  0  0  0  0  0  0  0  0  0  0  0
  -28.1900  -11.8880   22.2960 N   0  0  0  0  0  0  0  0  0  0  0  0
  -27.1750  -13.0760   20.7070 O   0  0  0  0  0  0  0  0  0  0  0  0
  -29.0350  -11.4910   22.6800 H   0  0  0  0  0  0  0  0  0  0  0  0
  -27.3200  -11.7600   22.7910 H   0  0  0  0  0  0  0  0  0  0  0  0
  -29.1970  -14.9090   19.1790 N   0  0  0  0  0  0  0  0  0  0  0  0
  -28.2430  -15.1140   19.4580 H   0  0  0  0  0  0  0  0  0  0  0  0
  -29.5640  -15.5710   18.5050 H   0  0  0  0  0  0  0  0  0  0  0  0
  -27.0080  -24.8840   18.8210 C   0  0  0  0  0  2  0  0  0  0  0  0
  -27.6890  -26.1980   18.3800 C   0  0  0  0  0  2  0  0  0  0  0  0
  -26.8240  -26.9610   17.5330 O   0  0  0  0  0  0  0  0  0  0  0  0
  -25.1170  -30.6130   23.3790 C   0  0  0  0  0  0  0  0  0  0  0  0
  -25.8520  -27.6430   18.2170 C   0  0  0  0  0  0  0  0  0  0  0  0
  -23.2220  -29.9170   21.9460 C   0  0  0  0  0  3  0  0  0  0  0  0
  -23.8490  -29.0130   19.6490 C   0  0  0  0  0  0  0  0  0  0  0  0
  -25.5390  -30.3280   20.9430 C   0  0  0  0  0  2  0  0  0  0  0  0
  -25.2010  -29.2870   19.8980 C   0  0  0  0  0  0  0  0  0  0  0  0
  -26.2080  -28.6030   19.1870 C   0  0  0  0  0  3  0  0  0  0  0  0
  -24.4880  -27.3930   17.9570 C   0  0  0  0  0  3  0  0  0  0  0  0
  -23.4860  -28.0610   18.6820 C   0  0  0  0  0  3  0  0  0  0  0  0
  -22.8320  -29.7930   20.4490 C   0  0  0  0  0  2  0  0  0  0  0  0
  -24.6640  -30.2770   22.1370 N   0  0  0  0  0  0  0  0  0  0  0  0
  -24.3460  -30.6680   24.3470 O   0  0  0  0  0  0  0  0  0  0  0  0
  -22.8160  -28.6140   22.6700 C   0  0  0  0  0  0  0  0  0  0  0  0
  -21.6400  -28.0740   22.3150 N   0  0  0  0  0  0  0  0  0  0  0  0
  -23.5610  -28.0980   23.5070 O   0  0  0  0  0  0  0  0  0  0  0  0
  -21.0850  -28.5630   21.6250 H   0  0  0  0  0  0  0  0  0  0  0  0
  -19.2160  -25.4820   21.6430 C   0  0  0  0  0  0  0  0  0  0  0  0
  -21.0710  -26.8320   22.8340 C   0  0  0  0  0  3  0  0  0  0  0  0
  -21.9970  -25.6290   22.5400 C   0  0  0  0  0  2  0  0  0  0  0  0
  -21.6470  -24.9050   21.2350 C   0  0  0  0  0  2  0  0  0  0  0  0
  -20.2050  -24.3890   21.2770 C   0  0  0  0  0  2  0  0  0  0  0  0
  -19.6260  -26.6370   22.3610 C   0  0  0  0  0  0  0  0  0  0  0  0
  -18.6740  -27.6420   22.6430 C   0  0  0  0  0  3  0  0  0  0  0  0
  -17.3360  -27.5030   22.2300 C   0  0  0  0  0  3  0  0  0  0  0  0
  -16.9320  -26.3510   21.5330 C   0  0  0  0  0  3  0  0  0  0  0  0
  -17.8700  -25.3430   21.2440 C   0  0  0  0  0  3  0  0  0  0  0  0
  -26.6150  -30.9700   23.6340 C   0  0  0  0  0  3  0  0  0  0  0  0
  -27.3920  -29.8510   24.4300 C   0  0  1  0  0  0  0  0  0  0  0  0
  -26.6380  -29.3430   25.6810 C   0  0  0  0  0  1  0  0  0  0  0  0
  -27.6790  -28.6310   23.5240 C   0  0  0  0  0  1  0  0  0  0  0  0
  -28.7660  -30.3930   24.8890 C   0  0  0  0  0  1  0  0  0  0  0  0
  -26.6460  -32.2480   24.3570 N   0  0  0  0  0  0  0  0  0  0  0  0
  -27.0120  -33.4180   23.8180 C   0  0  0  0  0  0  0  0  0  0  0  0
  -27.4320  -33.5200   22.6620 O   0  0  0  0  0  0  0  0  0  0  0  0
  -26.2630  -32.2480   25.2920 H   0  0  0  0  0  0  0  0  0  0  0  0
  -25.6500  -35.4770   24.2890 C   0  0  0  0  0  1  0  0  0  0  0  0
  -26.8940  -34.6730   24.7020 C   0  0  0  0  0  3  0  0  0  0  0  0
  -29.2730  -34.9270   25.2490 C   0  0  0  0  0  1  0  0  0  0  0  0
  -28.0890  -35.5420   24.6540 N   0  0  0  0  0  0  0  0  0  0  0  0
  -27.9140  -36.4200   25.1350 H   0  0  0  0  0  0  0  0  0  0  0  0
  2  1  1  0
  3  7  1  0
  4 11  1  0
  4  5  1  0
  5  1  1  0
  6  3  1  0
  6  4  1  0
  6  5  1  0
  7  8  1  1
  7  2  1  0
 10 11  1  0
 11  9  2  0
 12  9  1  0
 12 14  1  0
 13 10  2  0
 13 15  1  0
 15 12  2  0
 17 16  1  0
 17 26  1  0
 17 13  1  0
 18 24  1  0
 18 26  1  0
 19 24  1  0
 20 19  1  0
 20 21  1  0
 22 21  1  0
 22 23  1  0
 22 31  1  0
 24 23  1  0
 25 18  2  0
 26 27  1  0
 28 29  2  0
 29 30  1  0
 29 48  1  0
 30 33  1  0
 31 28  1  0
 31 32  1  0
 32 30  2  0
 33 34  2  0
 33 38  1  0
 34 35  1  0
 35 36  2  0
 36 39  1  0
 37 36  1  0
 38 37  2  0
 39 40  1  0
 40 41  2  0
 40 45  1  0
 41 42  1  0
 42 43  2  0
 43 47  1  0
 44 43  1  0
 45 44  2  0
 46 45  1  0
 48 49  1  0
 49 51  1  0
 49 52  1  0
 50 48  2  0
 53 54  1  0
 53 28  1  0
 55 53  1  0
 56  7  1  0
 57 56  1  0
 58 60  1  0
 58 57  1  0
 59 70  2  0
 60 65  1  0
 61 69  1  0
 61 71  1  0
 62 64  1  0
 62 68  1  0
 63 69  1  0
 64 63  1  0
 65 64  2  0
 66 60  2  0
 66 67  1  0
 67 62  2  0
 68 61  1  0
 69 59  1  0
 71 73  2  0
 72 71  1  0
 74 72  1  0
 75 80  1  0
 76 72  1  0
 77 76  1  0
 78 79  1  0
 78 77  1  0
 79 75  1  0
 80 81  2  0
 80 76  1  0
 82 81  1  0
 83 82  2  0
 84 83  1  0
 84 75  2  0
 85 59  1  0
 85 90  1  0
 85 86  1  0
 86 89  1  1
 86 87  1  0
 88 86  1  0
 90 93  1  0
 91 90  1  0
 91 95  1  0
 92 91  2  0
 95 94  1  0
 97 95  1  0
 97 98  1  0
 97 96  1  0
M  ISO  4  18 100  26 100  57 101  58 101
M  END
>  <TORSDO>  (84) 
F 20

>  <SCORE>  (84) 
-8.082

>  <name>  (84) 
83

>  <ligand_id>  (84) 
83

>  <original_smiles>  (84) 
[H]c1c([H])c([H])c2c(c1[H])C([H])([H])C([H])([H])C([H])([H])C2([H])N([H])C(=O)C1([H])N(C(=O)C([H])(N([H])C(=O)C([H])(N([H])C([H])([H])[H])C([H])([H])[H])C(C([H])([H])[H])(C([H])([H])[H])C([H])([H])[H])C([H])([H])c2c([H])c(OC([H])([H])C([H])([H])[N+]3([H])C([H])([H])C([H])([H])C4([H])C([H])(c5c([H])c(C([H])([H])[H])nc(C([H])(N([H])C(=O)N6C([H])([H])C([H])([H])C([H])([H])C([H])(n7nc(-c8c([H])c([H])c(Oc9c([H])c([H])c(F)c([H])c9F)c([H])c8[H])c(C(=O)N([H])[H])c7N([H])[H])C6([H])[H])C([H])([H])[H])c5[H])C4([H])C3([H])[H])c([H])c([H])c2C1([H])[H]

>  <smiles>  (84) 
[H]c1c([H])c([H])c2c(c1[H])C([H])([H])C([H])([H])C([H])([H])C2([H])N([H])C(=O)C1([H])N(C(=O)C([H])(N([H])C(=O)C([H])(N([H])C([H])([H])[H])C([H])([H])[H])C(C([H])([H])[H])(C([H])([H])[H])C([H])([H])[H])C([H])([H])c2c([H])c(OC([H])([H])C([H])([H])[N+]3([H])C([H])([H])C([H])([H])C4([H])C([H])(c5c([H])c(C([H])([H])[H])nc(C([H])(N([H])C(=O)N6C([H])([H])C([H])([H])C([H])([H])C([H])(n7nc(-c8c([H])c([H])c(Oc9c([H])c([H])c(F)c([H])c9F)c([H])c8[H])c(C(=O)N([H])[H])c7N([H])[H])C6([H])[H])C([H])([H])[H])c5[H])C4([H])C3([H])[H])c([H])c([H])c2C1([H])[H]

$$$$
84:0:0
     RDKit          3D

 99108  0  0  1  0  0  0  0  0999 V2000
  -30.5500  -20.7540   21.8940 C   0  0  0  0  0  3  0  0  0  0  0  0
  -29.2890  -20.4330   21.3440 C   0  0  0  0  0  0  0  0  0  0  0  0
  -30.1650  -18.3830   20.5980 C   0  0  0  0  0  0  0  0  0  0  0  0
  -31.4570  -18.8480   20.9800 C   0  0  0  0  0  0  0  0  0  0  0  0
  -31.6380  -19.9810   21.6990 N   0  0  0  0  0  0  0  0  0  0  0  0
  -29.0770  -19.2130   20.7490 N   0  0  0  0  0  0  0  0  0  0  0  0
  -32.6230  -18.2790   20.4590 N   0  0  0  0  0  0  0  0  0  0  0  0
  -32.4910  -17.3170   20.1680 H   0  0  0  0  0  0  0  0  0  0  0  0
  -34.0900  -19.8760   16.6550 C   0  0  0  0  0  2  0  0  0  0  0  0
  -34.8480  -18.7460   17.3680 C   0  0  0  0  0  2  0  0  0  0  0  0
  -33.4890  -20.8670   17.6590 C   0  0  0  0  0  2  0  0  0  0  0  0
  -33.9610  -18.0510   18.4160 C   0  0  0  0  0  2  0  0  0  0  0  0
  -32.5970  -20.1530   18.6860 C   0  0  0  0  0  2  0  0  0  0  0  0
  -33.3840  -19.0400   19.4540 C   0  0  0  0  0  3  0  0  0  0  0  0
  -28.2000  -21.5320   21.3420 C   0  0  0  0  0  2  0  0  0  0  0  0
  -28.6320  -22.8350   20.5750 C   0  0  0  0  0  2  0  0  0  0  0  0
  -26.5660  -24.2260   21.2560 C   0  0  0  0  0  1  0  0  0  0  0  0
  -28.0830  -24.2460   20.9960 C   0  0  0  0  0  3  0  0  0  0  0  0
  -28.4890  -25.3120   19.9140 C   0  0  0  0  0  2  0  0  0  0  0  0
  -28.4520  -26.7270   20.2360 O   0  0  0  0  0  0  0  0  0  0  0  0
  -24.6430  -31.9100   23.2200 C   0  0  0  0  0  0  0  0  0  0  0  0
  -27.2880  -27.4700   20.1410 C   0  0  0  0  0  0  0  0  0  0  0  0
  -23.4360  -30.5180   21.5590 C   0  0  0  0  0  3  0  0  0  0  0  0
  -24.9000  -29.0070   20.1110 C   0  0  0  0  0  0  0  0  0  0  0  0
  -25.9530  -30.8920   21.3590 C   0  0  0  0  0  2  0  0  0  0  0  0
  -26.0500  -29.5220   20.7180 C   0  0  0  0  0  0  0  0  0  0  0  0
  -27.2450  -28.7610   20.7330 C   0  0  0  0  0  3  0  0  0  0  0  0
  -26.1300  -26.9940   19.4910 C   0  0  0  0  0  3  0  0  0  0  0  0
  -24.9410  -27.7510   19.4860 C   0  0  0  0  0  3  0  0  0  0  0  0
  -23.6480  -29.8550   20.1700 C   0  0  0  0  0  2  0  0  0  0  0  0
  -24.6950  -31.1220   22.1060 N   0  0  0  0  0  0  0  0  0  0  0  0
  -23.5640  -32.1680   23.7700 O   0  0  0  0  0  0  0  0  0  0  0  0
  -22.7950  -29.4840   22.5110 C   0  0  0  0  0  0  0  0  0  0  0  0
  -21.4670  -29.2990   22.4000 N   0  0  0  0  0  0  0  0  0  0  0  0
  -23.4900  -28.8490   23.3110 O   0  0  0  0  0  0  0  0  0  0  0  0
  -20.9560  -29.8770   21.7470 H   0  0  0  0  0  0  0  0  0  0  0  0
  -18.1060  -28.0900   22.9210 C   0  0  0  0  0  0  0  0  0  0  0  0
  -20.6660  -28.3470   23.1710 C   0  0  0  0  0  3  0  0  0  0  0  0
  -20.7600  -26.9200   22.5770 C   0  0  0  0  0  2  0  0  0  0  0  0
  -19.6500  -26.6120   21.5680 C   0  0  0  0  0  2  0  0  0  0  0  0
  -18.2740  -26.7500   22.2260 C   0  0  0  0  0  2  0  0  0  0  0  0
  -19.2290  -28.8460   23.3530 C   0  0  0  0  0  0  0  0  0  0  0  0
  -19.0130  -30.1030   23.9590 C   0  0  0  0  0  3  0  0  0  0  0  0
  -17.7090  -30.6020   24.1350 C   0  0  0  0  0  3  0  0  0  0  0  0
  -16.6030  -29.8390   23.7270 C   0  0  0  0  0  3  0  0  0  0  0  0
  -16.8020  -28.5860   23.1210 C   0  0  0  0  0  3  0  0  0  0  0  0
  -25.9280  -32.5490   23.8370 C   0  0  0  0  0  3  0  0  0  0  0  0
  -25.6120  -33.9420   24.1830 N   0  0  0  0  0  0  0  0  0  0  0  0
  -25.9250  -34.9980   23.4200 C   0  0  0  0  0  0  0  0  0  0  0  0
  -26.5820  -34.9060   22.3790 O   0  0  0  0  0  0  0  0  0  0  0  0
  -25.0460  -34.0910   25.0040 H   0  0  0  0  0  0  0  0  0  0  0  0
  -24.1800  -36.7750   23.0960 C   0  0  0  0  0  1  0  0  0  0  0  0
  -25.4310  -36.3770   23.8920 C   0  0  0  0  0  3  0  0  0  0  0  0
  -27.5640  -37.2760   24.7090 C   0  0  0  0  0  1  0  0  0  0  0  0
  -26.4510  -37.4430   23.7790 N   0  0  0  0  0  0  0  0  0  0  0  0
  -26.0330  -38.3540   23.9520 H   0  0  0  0  0  0  0  0  0  0  0  0
  -26.4590  -31.7730   25.1050 C   0  0  1  0  0  0  0  0  0  0  0  0
  -25.3720  -31.5220   26.1780 C   0  0  0  0  0  1  0  0  0  0  0  0
  -27.0490  -30.4040   24.6910 C   0  0  0  0  0  1  0  0  0  0  0  0
  -27.6070  -32.5700   25.7680 C   0  0  0  0  0  1  0  0  0  0  0  0
  -29.9840  -17.0650   19.7910 C   0  0  0  0  0  2  0  0  0  0  0  0
  -30.6660  -14.6670   20.2850 C   0  0  0  0  0  0  0  0  0  0  0  0
  -30.3940  -12.4400   19.2380 C   0  0  0  0  0  2  0  0  0  0  0  0
  -29.4580  -12.6200   18.0240 C   0  0  0  0  0  2  0  0  0  0  0  0
  -27.9830  -12.4820   18.4470 C   0  0  0  0  0  2  0  0  0  0  0  0
  -27.6470  -13.3240   19.7050 C   0  0  0  0  0  3  0  0  0  0  0  0
  -28.7060  -13.1490   20.8160 C   0  0  0  0  0  2  0  0  0  0  0  0
  -30.0210  -13.4600   20.2380 N   0  0  0  0  0  0  0  0  0  0  0  0
  -31.8280  -14.8040   19.8980 O   0  0  0  0  0  0  0  0  0  0  0  0
  -29.8710  -15.7520   20.5000 N   0  0  0  0  0  0  0  0  0  0  0  0
  -28.9510  -15.5460   20.8540 H   0  0  0  0  0  0  0  0  0  0  0  0
  -25.2630  -13.9260   20.4310 C   0  0  0  0  0  0  0  0  0  0  0  0
  -24.1970  -13.1540   20.8080 C   0  0  0  0  0  0  0  0  0  0  0  0
  -24.6600  -11.8050   20.7780 C   0  0  0  0  0  0  0  0  0  0  0  0
  -26.3060  -13.0440   20.1950 N   0  0  0  0  0  0  0  0  0  0  0  0
  -25.9510  -11.7650   20.4710 N   0  0  0  0  0  0  0  0  0  0  0  0
  -23.9400  -10.5390   20.9770 C   0  0  0  0  0  0  0  0  0  0  0  0
  -24.3830   -9.5800   21.9180 C   0  0  0  0  0  3  0  0  0  0  0  0
  -23.6630   -8.3800   22.1070 C   0  0  0  0  0  3  0  0  0  0  0  0
  -22.4880   -8.1310   21.3570 C   0  0  0  0  0  0  0  0  0  0  0  0
  -22.0660   -9.0780   20.4050 C   0  0  0  0  0  3  0  0  0  0  0  0
  -22.7860  -10.2690   20.2140 C   0  0  0  0  0  3  0  0  0  0  0  0
  -21.7400   -6.9830   21.4550 O   0  0  0  0  0  0  0  0  0  0  0  0
  -21.6940   -6.2500   22.6120 C   0  0  0  0  0  0  0  0  0  0  0  0
  -21.2720   -6.8130   23.8360 C   0  0  0  0  0  3  0  0  0  0  0  0
  -21.1780   -6.0050   24.9870 C   0  0  0  0  0  3  0  0  0  0  0  0
  -21.4900   -4.6350   24.9130 C   0  0  0  0  0  0  0  0  0  0  0  0
  -21.9010   -4.0710   23.6910 C   0  0  0  0  0  3  0  0  0  0  0  0
  -21.9990   -4.8760   22.5430 C   0  0  0  0  0  0  0  0  0  0  0  0
  -22.3760   -4.3230   21.3660 F   0  0  0  0  0  0  0  0  0  0  0  0
  -21.3860   -3.8560   26.0150 F   0  0  0  0  0  0  0  0  0  0  0  0
  -22.8000  -13.6260   21.0830 C   0  0  0  0  0  0  0  0  0  0  0  0
  -22.0810  -12.9300   21.9530 N   0  0  0  0  0  0  0  0  0  0  0  0
  -22.3550  -14.6480   20.5580 O   0  0  0  0  0  0  0  0  0  0  0  0
  -22.4580  -12.1020   22.3950 H   0  0  0  0  0  0  0  0  0  0  0  0
  -21.1420  -13.2200   22.1870 H   0  0  0  0  0  0  0  0  0  0  0  0
  -25.4280  -15.2950   20.2450 N   0  0  0  0  0  0  0  0  0  0  0  0
  -24.6750  -15.9590   20.3720 H   0  0  0  0  0  0  0  0  0  0  0  0
  -26.2860  -15.7280   19.9330 H   0  0  0  0  0  0  0  0  0  0  0  0
  2  1  2  0
  3  6  2  0
  3  4  1  0
  4  5  2  0
  5  1  1  0
  6  2  1  0
  7  4  1  0
  8  7  1  0
  9 10  1  0
  9 11  1  0
 10 12  1  0
 11 13  1  0
 12 14  1  0
 13 14  1  0
 14  7  1  0
 15  2  1  0
 16 18  1  0
 16 15  1  0
 18 17  1  0
 19 20  1  0
 19 18  1  0
 21 32  2  0
 22 20  1  0
 22 27  1  0
 23 31  1  0
 23 33  1  0
 24 30  1  0
 24 26  1  0
 25 31  1  0
 26 27  2  0
 26 25  1  0
 28 22  2  0
 29 28  1  0
 29 24  2  0
 30 23  1  0
 31 21  1  0
 33 35  2  0
 34 33  1  0
 36 34  1  0
 37 46  2  0
 37 42  1  0
 38 34  1  0
 38 42  1  0
 39 38  1  0
 40 41  1  0
 40 39  1  0
 41 37  1  0
 42 43  2  0
 43 44  1  0
 45 44  2  0
 46 45  1  0
 47 21  1  0
 47 48  1  0
 47 57  1  0
 48 51  1  0
 49 53  1  0
 49 48  1  0
 50 49  2  0
 53 52  1  0
 55 53  1  0
 55 56  1  0
 55 54  1  0
 57 60  1  1
 57 58  1  0
 59 57  1  0
 61 70  1  0
 61  3  1  0
 62 70  1  0
 63 68  1  0
 64 65  1  0
 64 63  1  0
 66 65  1  0
 66 75  1  0
 66 67  1  0
 68 62  1  0
 68 67  1  0
 69 62  2  0
 70 71  1  0
 72 73  2  0
 73 92  1  0
 74 73  1  0
 74 77  1  0
 75 72  1  0
 75 76  1  0
 76 74  2  0
 77 78  1  0
 78 79  2  0
 80 83  1  0
 80 79  1  0
 81 80  2  0
 82 81  1  0
 82 77  2  0
 83 84  1  0
 84 85  1  0
 85 86  2  0
 87 86  1  0
 87 91  1  0
 88 87  2  0
 89 84  2  0
 89 88  1  0
 90 89  1  0
 92 93  1  0
 93 96  1  0
 93 95  1  0
 94 92  2  0
 97 98  1  0
 97 72  1  0
 99 97  1  0
M  ISO  4  19 101  20 101  62 100  70 100
M  END
>  <TORSDO>  (85) 
F 22

>  <SCORE>  (85) 
-13.469

>  <name>  (85) 
84

>  <ligand_id>  (85) 
84

>  <original_smiles>  (85) 
[H]c1nc(N([H])C2([H])C([H])([H])C([H])([H])C([H])([H])C([H])([H])C2([H])[H])c(C([H])([H])N([H])C(=O)N2C([H])([H])C([H])([H])C([H])([H])C([H])(n3nc(-c4c([H])c([H])c(Oc5c([H])c([H])c(F)c([H])c5F)c([H])c4[H])c(C(=O)N([H])[H])c3N([H])[H])C2([H])[H])nc1C([H])([H])C([H])([H])C([H])(C([H])([H])[H])C([H])([H])Oc1c([H])c([H])c2c(c1[H])C([H])([H])N(C(=O)C([H])(N([H])C(=O)C([H])(N([H])C([H])([H])[H])C([H])([H])[H])C(C([H])([H])[H])(C([H])([H])[H])C([H])([H])[H])C([H])(C(=O)N([H])C1([H])c3c([H])c([H])c([H])c([H])c3C([H])([H])C([H])([H])C1([H])[H])C2([H])[H]

>  <smiles>  (85) 
[H]c1nc(N([H])C2([H])C([H])([H])C([H])([H])C([H])([H])C([H])([H])C2([H])[H])c(C([H])([H])N([H])C(=O)N2C([H])([H])C([H])([H])C([H])([H])C([H])(n3nc(-c4c([H])c([H])c(Oc5c([H])c([H])c(F)c([H])c5F)c([H])c4[H])c(C(=O)N([H])[H])c3N([H])[H])C2([H])[H])nc1C([H])([H])C([H])([H])C([H])(C([H])([H])[H])C([H])([H])Oc1c([H])c([H])c2c(c1[H])C([H])([H])N(C(=O)C([H])(N([H])C(=O)C([H])(N([H])C([H])([H])[H])C([H])([H])[H])C(C([H])([H])[H])(C([H])([H])[H])C([H])([H])[H])C([H])(C(=O)N([H])C1([H])c3c([H])c([H])c([H])c([H])c3C([H])([H])C([H])([H])C1([H])[H])C2([H])[H]

$$$$
85:0:0
     RDKit          3D

 96105  0  0  1  0  0  0  0  0999 V2000
  -30.1750  -21.7730   19.9300 C   0  0  0  0  0  2  0  0  0  0  0  0
  -28.0660  -20.8160   19.1260 C   0  0  0  0  0  2  0  0  0  0  0  0
  -29.5100  -23.2160   20.0930 C   0  0  0  0  0  2  0  0  0  0  0  0
  -27.4000  -22.2750   19.2010 C   0  0  0  0  0  2  0  0  0  0  0  0
  -29.2040  -20.5490   20.1670 C   0  0  0  0  0  3  0  0  0  0  0  0
  -28.2980  -23.5900   19.1610 C   0  0  0  0  0  3  0  0  0  0  0  0
  -31.9400  -18.0650   19.9980 C   0  0  0  0  0  2  0  0  0  0  0  0
  -29.7120  -19.0210   20.6570 C   0  0  0  0  0  3  0  0  0  0  0  0
  -30.4180  -17.8080   19.7920 C   0  0  0  0  0  3  0  0  0  0  0  0
  -30.8390  -19.3160   21.6940 C   0  0  0  0  0  3  0  0  0  0  0  0
  -32.0850  -19.1930   20.9200 N   0  0  0  0  0  4  0  0  0  0  0  0
  -32.2150  -20.0240   20.3680 H   0  0  0  0  0  0  0  0  0  0  0  0
  -32.8900  -19.0780   21.5160 H   0  0  0  0  0  0  0  0  0  0  0  0
  -30.7660  -15.1050   19.7940 C   0  0  0  0  0  0  0  0  0  0  0  0
  -30.5140  -12.7710   18.9280 C   0  0  0  0  0  2  0  0  0  0  0  0
  -29.5100  -12.7890   17.7570 C   0  0  0  0  0  2  0  0  0  0  0  0
  -28.0770  -12.5920   18.2900 C   0  0  0  0  0  2  0  0  0  0  0  0
  -27.7590  -13.4980   19.5120 C   0  0  0  0  0  3  0  0  0  0  0  0
  -28.9020  -13.5180   20.5540 C   0  0  0  0  0  2  0  0  0  0  0  0
  -30.1350  -13.8760   19.8460 N   0  0  0  0  0  0  0  0  0  0  0  0
  -31.9130  -15.1360   19.3510 O   0  0  0  0  0  0  0  0  0  0  0  0
  -30.0680  -16.2980   20.0330 N   0  0  0  0  0  0  0  0  0  0  0  0
  -29.1270  -16.1490   20.3600 H   0  0  0  0  0  0  0  0  0  0  0  0
  -25.4480  -14.0190   20.4880 C   0  0  0  0  0  0  0  0  0  0  0  0
  -24.4200  -13.2180   20.9040 C   0  0  0  0  0  0  0  0  0  0  0  0
  -24.8800  -11.8740   20.7560 C   0  0  0  0  0  0  0  0  0  0  0  0
  -26.4700  -13.1640   20.1110 N   0  0  0  0  0  0  0  0  0  0  0  0
  -26.1400  -11.8630   20.3320 N   0  0  0  0  0  0  0  0  0  0  0  0
  -24.1710  -10.5990   20.9330 C   0  0  0  0  0  0  0  0  0  0  0  0
  -24.5790   -9.6560   21.9030 C   0  0  0  0  0  3  0  0  0  0  0  0
  -23.8670   -8.4490   22.0750 C   0  0  0  0  0  3  0  0  0  0  0  0
  -22.7330   -8.1740   21.2720 C   0  0  0  0  0  0  0  0  0  0  0  0
  -22.3450   -9.1050   20.2930 C   0  0  0  0  0  3  0  0  0  0  0  0
  -23.0570  -10.3050   20.1200 C   0  0  0  0  0  3  0  0  0  0  0  0
  -21.9950   -7.0160   21.3480 O   0  0  0  0  0  0  0  0  0  0  0  0
  -21.8050   -6.3590   22.5360 C   0  0  0  0  0  0  0  0  0  0  0  0
  -21.1600   -6.9740   23.6330 C   0  0  0  0  0  3  0  0  0  0  0  0
  -20.9260   -6.2410   24.8130 C   0  0  0  0  0  3  0  0  0  0  0  0
  -21.3240   -4.8930   24.8960 C   0  0  0  0  0  0  0  0  0  0  0  0
  -21.9600   -4.2760   23.8030 C   0  0  0  0  0  3  0  0  0  0  0  0
  -22.1970   -5.0090   22.6260 C   0  0  0  0  0  0  0  0  0  0  0  0
  -22.7910   -4.4040   21.5690 F   0  0  0  0  0  0  0  0  0  0  0  0
  -21.0940   -4.1860   26.0270 F   0  0  0  0  0  0  0  0  0  0  0  0
  -23.0510  -13.6720   21.3190 C   0  0  0  0  0  0  0  0  0  0  0  0
  -22.3950  -12.9190   22.1960 N   0  0  0  0  0  0  0  0  0  0  0  0
  -22.5740  -14.7270   20.9050 O   0  0  0  0  0  0  0  0  0  0  0  0
  -22.7980  -12.0660   22.5530 H   0  0  0  0  0  0  0  0  0  0  0  0
  -21.4780  -13.1970   22.5100 H   0  0  0  0  0  0  0  0  0  0  0  0
  -25.5930  -15.3990   20.3720 N   0  0  0  0  0  0  0  0  0  0  0  0
  -24.8350  -16.0390   20.5770 H   0  0  0  0  0  0  0  0  0  0  0  0
  -26.4040  -15.8570   19.9780 H   0  0  0  0  0  0  0  0  0  0  0  0
  -31.3000  -17.0600   23.0230 C   0  0  0  0  0  1  0  0  0  0  0  0
  -31.6740  -19.2970   24.1240 C   0  0  0  0  0  1  0  0  0  0  0  0
  -30.8650  -18.5370   23.0500 C   0  0  0  0  0  3  0  0  0  0  0  0
  -27.4690  -24.9840   19.5050 C   0  0  0  0  0  2  0  0  0  0  0  0
  -27.7990  -26.4320   19.1420 O   0  0  0  0  0  0  0  0  0  0  0  0
  -24.6640  -31.7480   23.0480 C   0  0  0  0  0  0  0  0  0  0  0  0
  -26.7830  -27.4180   19.2960 C   0  0  0  0  0  0  0  0  0  0  0  0
  -23.2660  -30.5920   21.3740 C   0  0  0  0  0  3  0  0  0  0  0  0
  -24.5220  -29.1690   19.6540 C   0  0  0  0  0  0  0  0  0  0  0  0
  -25.7970  -30.8310   21.0020 C   0  0  0  0  0  2  0  0  0  0  0  0
  -25.7640  -29.5260   20.2000 C   0  0  0  0  0  0  0  0  0  0  0  0
  -26.8990  -28.6670   20.0050 C   0  0  0  0  0  3  0  0  0  0  0  0
  -25.5280  -27.1570   18.7100 C   0  0  0  0  0  3  0  0  0  0  0  0
  -24.4140  -27.9960   18.8920 C   0  0  0  0  0  3  0  0  0  0  0  0
  -23.3360  -30.0770   19.9110 C   0  0  0  0  0  2  0  0  0  0  0  0
  -24.6000  -31.0710   21.8640 N   0  0  0  0  0  0  0  0  0  0  0  0
  -23.6440  -31.9930   23.7100 O   0  0  0  0  0  0  0  0  0  0  0  0
  -22.6430  -29.4940   22.2730 C   0  0  0  0  0  0  0  0  0  0  0  0
  -21.3080  -29.3320   22.2060 N   0  0  0  0  0  0  0  0  0  0  0  0
  -23.3590  -28.7940   22.9920 O   0  0  0  0  0  0  0  0  0  0  0  0
  -20.7850  -29.9560   21.6070 H   0  0  0  0  0  0  0  0  0  0  0  0
  -17.9660  -28.0460   22.7300 C   0  0  0  0  0  0  0  0  0  0  0  0
  -20.5290  -28.3270   22.9320 C   0  0  0  0  0  3  0  0  0  0  0  0
  -20.6260  -26.9420   22.2480 C   0  0  0  0  0  2  0  0  0  0  0  0
  -19.4960  -26.6800   21.2480 C   0  0  0  0  0  2  0  0  0  0  0  0
  -18.1360  -26.7550   21.9480 C   0  0  0  0  0  2  0  0  0  0  0  0
  -19.0890  -28.7930   23.1790 C   0  0  0  0  0  0  0  0  0  0  0  0
  -18.8740  -30.0010   23.8730 C   0  0  0  0  0  3  0  0  0  0  0  0
  -17.5690  -30.4700   24.1200 C   0  0  0  0  0  3  0  0  0  0  0  0
  -16.4610  -29.7200   23.6870 C   0  0  0  0  0  3  0  0  0  0  0  0
  -16.6610  -28.5100   22.9990 C   0  0  0  0  0  3  0  0  0  0  0  0
  -26.0190  -32.2690   23.6190 C   0  0  0  0  0  3  0  0  0  0  0  0
  -26.5940  -31.3580   24.7730 C   0  0  1  0  0  0  0  0  0  0  0  0
  -25.5780  -31.0580   25.9000 C   0  0  0  0  0  1  0  0  0  0  0  0
  -27.0810  -30.0010   24.2110 C   0  0  0  0  0  1  0  0  0  0  0  0
  -27.8310  -32.0370   25.4080 C   0  0  0  0  0  1  0  0  0  0  0  0
  -25.8070  -33.6410   24.1030 N   0  0  0  0  0  0  0  0  0  0  0  0
  -26.1680  -34.7490   23.4430 C   0  0  0  0  0  0  0  0  0  0  0  0
  -26.7890  -34.7170   22.3750 O   0  0  0  0  0  0  0  0  0  0  0  0
  -25.2640  -33.7420   24.9480 H   0  0  0  0  0  0  0  0  0  0  0  0
  -24.5510  -36.6730   23.3310 C   0  0  0  0  0  1  0  0  0  0  0  0
  -25.7820  -36.1090   24.0580 C   0  0  0  0  0  3  0  0  0  0  0  0
  -27.9890  -36.7690   24.9090 C   0  0  0  0  0  1  0  0  0  0  0  0
  -26.8760  -37.1050   24.0270 N   0  0  0  0  0  0  0  0  0  0  0  0
  -26.5300  -38.0240   24.2920 H   0  0  0  0  0  0  0  0  0  0  0  0
  1  3  1  0
  1  5  1  0
  2  4  1  0
  5  2  1  0
  6  4  1  0
  6 55  1  0
  6  3  1  0
  7 11  1  0
  8  5  1  0
  8 10  1  0
  9  7  1  0
  9 22  1  0
  9  8  1  0
 10 54  1  0
 11 13  1  0
 11 10  1  0
 12 11  1  0
 14 20  1  0
 14 22  1  0
 15 20  1  0
 16 17  1  0
 16 15  1  0
 18 17  1  0
 18 27  1  0
 18 19  1  0
 20 19  1  0
 21 14  2  0
 22 23  1  0
 24 25  2  0
 25 44  1  0
 26 25  1  0
 26 29  1  0
 27 28  1  0
 27 24  1  0
 28 26  2  0
 29 30  1  0
 30 31  2  0
 32 35  1  0
 32 31  1  0
 33 32  2  0
 34 33  1  0
 34 29  2  0
 35 36  1  0
 36 41  2  0
 36 37  1  0
 37 38  2  0
 38 39  1  0
 39 43  1  0
 40 39  2  0
 41 40  1  0
 42 41  1  0
 44 45  1  0
 45 48  1  0
 45 47  1  0
 46 44  2  0
 49 24  1  0
 49 50  1  0
 51 49  1  0
 52 54  1  0
 54 53  1  0
 56 58  1  0
 56 55  1  0
 57 68  2  0
 58 63  1  0
 59 67  1  0
 59 69  1  0
 60 66  1  0
 60 62  1  0
 61 67  1  0
 62 61  1  0
 63 62  2  0
 64 65  1  0
 64 58  2  0
 65 60  2  0
 66 59  1  0
 67 57  1  0
 69 71  2  0
 70 69  1  0
 72 70  1  0
 73 82  2  0
 73 78  1  0
 74 70  1  0
 74 78  1  0
 75 74  1  0
 76 77  1  0
 76 75  1  0
 77 73  1  0
 78 79  2  0
 79 80  1  0
 81 80  2  0
 82 81  1  0
 83 57  1  0
 83 88  1  0
 83 84  1  0
 84 87  1  1
 84 85  1  0
 86 84  1  0
 88 91  1  0
 89 93  1  0
 89 88  1  0
 90 89  2  0
 93 92  1  0
 95 93  1  0
 95 96  1  0
 95 94  1  0
M  ISO  4  14 100  22 100  55 101  56 101
M  END
>  <TORSDO>  (86) 
F 19

>  <SCORE>  (86) 
-11.541

>  <name>  (86) 
85

>  <ligand_id>  (86) 
85

>  <original_smiles>  (86) 
[H]c1c([H])c([H])c2c(c1[H])C([H])([H])C([H])([H])C([H])([H])C2([H])N([H])C(=O)C1([H])N(C(=O)C([H])(N([H])C(=O)C([H])(N([H])C([H])([H])[H])C([H])([H])[H])C(C([H])([H])[H])(C([H])([H])[H])C([H])([H])[H])C([H])([H])c2c([H])c(OC([H])([H])C3([H])C([H])([H])C([H])([H])C([H])(C4([H])C([H])(N([H])C(=O)N5C([H])([H])C([H])([H])C([H])([H])C([H])(n6nc(-c7c([H])c([H])c(Oc8c([H])c([H])c(F)c([H])c8F)c([H])c7[H])c(C(=O)N([H])[H])c6N([H])[H])C5([H])[H])C([H])([H])[N+]([H])([H])C4([H])C([H])(C([H])([H])[H])C([H])([H])[H])C([H])([H])C3([H])[H])c([H])c([H])c2C1([H])[H]

>  <smiles>  (86) 
[H]c1c([H])c([H])c2c(c1[H])C([H])([H])C([H])([H])C([H])([H])C2([H])N([H])C(=O)C1([H])N(C(=O)C([H])(N([H])C(=O)C([H])(N([H])C([H])([H])[H])C([H])([H])[H])C(C([H])([H])[H])(C([H])([H])[H])C([H])([H])[H])C([H])([H])c2c([H])c(OC([H])([H])C3([H])C([H])([H])C([H])([H])C([H])(C4([H])C([H])(N([H])C(=O)N5C([H])([H])C([H])([H])C([H])([H])C([H])(n6nc(-c7c([H])c([H])c(Oc8c([H])c([H])c(F)c([H])c8F)c([H])c7[H])c(C(=O)N([H])[H])c6N([H])[H])C5([H])[H])C([H])([H])[N+]([H])([H])C4([H])C([H])(C([H])([H])[H])C([H])([H])[H])C([H])([H])C3([H])[H])c([H])c([H])c2C1([H])[H]

$$$$
86:0:0
     RDKit          3D

 92101  0  0  1  0  0  0  0  0999 V2000
  -30.9720  -21.6440   20.9030 C   0  0  0  0  0  3  0  0  0  0  0  0
  -28.9400  -20.5190   20.3150 C   0  0  0  0  0  3  0  0  0  0  0  0
  -29.6460  -21.7310   20.4530 C   0  0  0  0  0  0  0  0  0  0  0  0
  -31.5390  -20.3700   21.1660 C   0  0  0  0  0  0  0  0  0  0  0  0
  -30.7560  -19.1810   20.9700 C   0  0  0  0  0  0  0  0  0  0  0  0
  -32.9910  -20.3410   21.6230 C   0  0  0  0  0  1  0  0  0  0  0  0
  -29.4690  -19.3020   20.5590 N   0  0  0  0  0  0  0  0  0  0  0  0
  -31.2770  -17.7530   21.1890 C   0  0  0  0  0  0  0  0  0  0  0  0
  -32.4640  -17.4940   21.4300 O   0  0  0  0  0  0  0  0  0  0  0  0
  -30.9010  -14.4700   19.9910 C   0  0  0  0  0  0  0  0  0  0  0  0
  -30.4140  -12.3420   18.8450 C   0  0  0  0  0  2  0  0  0  0  0  0
  -29.4100  -12.5570   17.6920 C   0  0  0  0  0  2  0  0  0  0  0  0
  -27.9610  -12.4430   18.1930 C   0  0  0  0  0  2  0  0  0  0  0  0
  -27.7150  -13.2670   19.4830 C   0  0  0  0  0  3  0  0  0  0  0  0
  -28.8360  -13.0290   20.5200 C   0  0  0  0  0  2  0  0  0  0  0  0
  -30.1510  -13.3250   19.9210 N   0  0  0  0  0  0  0  0  0  0  0  0
  -31.7830  -14.7110   19.1610 O   0  0  0  0  0  0  0  0  0  0  0  0
  -30.2180  -15.5410   22.2730 C   0  0  0  0  0  2  0  0  0  0  0  0
  -30.2620  -16.6010   21.1540 C   0  0  0  0  0  3  0  0  0  0  0  0
  -30.8820  -15.3080   21.0480 N   0  0  0  0  0  0  0  0  0  0  0  0
  -25.3690  -13.8670   20.3640 C   0  0  0  0  0  0  0  0  0  0  0  0
  -24.3240  -13.0950   20.7890 C   0  0  0  0  0  0  0  0  0  0  0  0
  -24.7690  -11.7420   20.6980 C   0  0  0  0  0  0  0  0  0  0  0  0
  -26.3910  -12.9870   20.0460 N   0  0  0  0  0  0  0  0  0  0  0  0
  -26.0350  -11.6990   20.3020 N   0  0  0  0  0  0  0  0  0  0  0  0
  -24.0450  -10.4790   20.9100 C   0  0  0  0  0  0  0  0  0  0  0  0
  -24.4950   -9.5140   21.8380 C   0  0  0  0  0  3  0  0  0  0  0  0
  -23.7710   -8.3180   22.0340 C   0  0  0  0  0  3  0  0  0  0  0  0
  -22.5810   -8.0780   21.3040 C   0  0  0  0  0  0  0  0  0  0  0  0
  -22.1510   -9.0310   20.3650 C   0  0  0  0  0  3  0  0  0  0  0  0
  -22.8770  -10.2190   20.1660 C   0  0  0  0  0  3  0  0  0  0  0  0
  -21.8260   -6.9360   21.4140 O   0  0  0  0  0  0  0  0  0  0  0  0
  -21.7570   -6.2290   22.5880 C   0  0  0  0  0  0  0  0  0  0  0  0
  -21.2980   -6.8170   23.7880 C   0  0  0  0  0  3  0  0  0  0  0  0
  -21.1760   -6.0350   24.9520 C   0  0  0  0  0  3  0  0  0  0  0  0
  -21.5000   -4.6660   24.9190 C   0  0  0  0  0  0  0  0  0  0  0  0
  -21.9500   -4.0760   23.7230 C   0  0  0  0  0  3  0  0  0  0  0  0
  -22.0760   -4.8570   22.5600 C   0  0  0  0  0  0  0  0  0  0  0  0
  -22.4900   -4.2780   21.4080 F   0  0  0  0  0  0  0  0  0  0  0  0
  -21.3760   -3.9130   26.0360 F   0  0  0  0  0  0  0  0  0  0  0  0
  -22.9530  -13.5730   21.1720 C   0  0  0  0  0  0  0  0  0  0  0  0
  -22.2800  -12.8780   22.0830 N   0  0  0  0  0  0  0  0  0  0  0  0
  -22.4880  -14.6080   20.6970 O   0  0  0  0  0  0  0  0  0  0  0  0
  -22.6700  -12.0470   22.5020 H   0  0  0  0  0  0  0  0  0  0  0  0
  -21.3630  -13.1890   22.3700 H   0  0  0  0  0  0  0  0  0  0  0  0
  -25.5260  -15.2390   20.2090 N   0  0  0  0  0  0  0  0  0  0  0  0
  -24.7550  -15.8770   20.3680 H   0  0  0  0  0  0  0  0  0  0  0  0
  -26.3480  -15.6920   19.8310 H   0  0  0  0  0  0  0  0  0  0  0  0
  -28.9980  -23.0330   19.9480 C   0  0  0  0  0  2  0  0  0  0  0  0
  -29.2050  -24.4100   20.6470 C   0  0  0  0  0  2  0  0  0  0  0  0
  -28.4830  -25.4730   19.7740 C   0  0  0  0  0  2  0  0  0  0  0  0
  -28.4240  -26.8130   20.2920 O   0  0  0  0  0  0  0  0  0  0  0  0
  -24.5460  -31.9680   23.2340 C   0  0  0  0  0  0  0  0  0  0  0  0
  -27.2370  -27.5300   20.1970 C   0  0  0  0  0  0  0  0  0  0  0  0
  -23.3540  -30.5590   21.5890 C   0  0  0  0  0  3  0  0  0  0  0  0
  -24.8270  -29.0300   20.1720 C   0  0  0  0  0  0  0  0  0  0  0  0
  -25.8780  -30.9290   21.4070 C   0  0  0  0  0  2  0  0  0  0  0  0
  -25.9730  -29.5560   20.7750 C   0  0  0  0  0  0  0  0  0  0  0  0
  -27.1760  -28.8120   20.7940 C   0  0  0  0  0  3  0  0  0  0  0  0
  -26.0810  -27.0500   19.5350 C   0  0  0  0  0  3  0  0  0  0  0  0
  -24.8760  -27.7750   19.5430 C   0  0  0  0  0  3  0  0  0  0  0  0
  -23.5750  -29.8820   20.2090 C   0  0  0  0  0  2  0  0  0  0  0  0
  -24.6090  -31.1690   22.1330 N   0  0  0  0  0  0  0  0  0  0  0  0
  -23.4620  -32.2330   23.7720 O   0  0  0  0  0  0  0  0  0  0  0  0
  -22.7040  -29.5320   22.5470 C   0  0  0  0  0  0  0  0  0  0  0  0
  -21.3850  -29.3280   22.4000 N   0  0  0  0  0  0  0  0  0  0  0  0
  -23.3820  -28.9280   23.3820 O   0  0  0  0  0  0  0  0  0  0  0  0
  -20.8960  -29.8710   21.7040 H   0  0  0  0  0  0  0  0  0  0  0  0
  -18.0210  -28.0890   22.8510 C   0  0  0  0  0  0  0  0  0  0  0  0
  -20.5700  -28.3860   23.1670 C   0  0  0  0  0  3  0  0  0  0  0  0
  -20.7030  -26.9530   22.6050 C   0  0  0  0  0  2  0  0  0  0  0  0
  -19.6230  -26.6020   21.5760 C   0  0  0  0  0  2  0  0  0  0  0  0
  -18.2290  -26.7360   22.1930 C   0  0  0  0  0  2  0  0  0  0  0  0
  -19.1210  -28.8710   23.2940 C   0  0  0  0  0  0  0  0  0  0  0  0
  -18.8720  -30.1390   23.8630 C   0  0  0  0  0  3  0  0  0  0  0  0
  -17.5560  -30.6230   24.0010 C   0  0  0  0  0  3  0  0  0  0  0  0
  -16.4720  -29.8380   23.5730 C   0  0  0  0  0  3  0  0  0  0  0  0
  -16.7050  -28.5740   23.0040 C   0  0  0  0  0  3  0  0  0  0  0  0
  -25.8300  -32.6030   23.8580 C   0  0  0  0  0  3  0  0  0  0  0  0
  -26.3360  -31.8450   25.1460 C   0  0  1  0  0  0  0  0  0  0  0  0
  -25.2290  -31.6000   26.1980 C   0  0  0  0  0  1  0  0  0  0  0  0
  -26.9420  -30.4710   24.7710 C   0  0  0  0  0  1  0  0  0  0  0  0
  -27.4690  -32.6550   25.8200 C   0  0  0  0  0  1  0  0  0  0  0  0
  -25.5220  -34.0070   24.1670 N   0  0  0  0  0  0  0  0  0  0  0  0
  -25.8540  -35.0440   23.3900 C   0  0  0  0  0  0  0  0  0  0  0  0
  -26.5260  -34.9250   22.3600 O   0  0  0  0  0  0  0  0  0  0  0  0
  -24.9320  -34.1770   24.9680 H   0  0  0  0  0  0  0  0  0  0  0  0
  -24.1280  -36.8300   23.0000 C   0  0  0  0  0  1  0  0  0  0  0  0
  -25.3660  -36.4390   23.8230 C   0  0  0  0  0  3  0  0  0  0  0  0
  -27.4960  -37.3360   24.6520 C   0  0  0  0  0  1  0  0  0  0  0  0
  -26.4000  -37.4910   23.7000 N   0  0  0  0  0  0  0  0  0  0  0  0
  -25.9920  -38.4130   23.8300 H   0  0  0  0  0  0  0  0  0  0  0  0
  1  4  1  0
  2  3  1  0
  2  7  2  0
  3  1  2  0
  4  6  1  0
  5  4  2  0
  5  8  1  0
  7  5  1  0
  8  9  2  0
 10 20  1  0
 11 16  1  0
 12 13  1  0
 12 11  1  0
 14 13  1  0
 14 24  1  0
 14 15  1  0
 16 10  1  0
 16 15  1  0
 17 10  2  0
 19  8  1  0
 19 18  1  0
 20 19  1  0
 20 18  1  0
 21 22  2  0
 22 41  1  0
 23 22  1  0
 23 26  1  0
 24 25  1  0
 24 21  1  0
 25 23  2  0
 26 27  1  0
 27 28  2  0
 29 32  1  0
 29 28  1  0
 30 29  2  0
 31 30  1  0
 31 26  2  0
 32 33  1  0
 33 34  1  0
 34 35  2  0
 36 35  1  0
 36 40  1  0
 37 36  2  0
 38 33  2  0
 38 37  1  0
 39 38  1  0
 41 42  1  0
 42 45  1  0
 42 44  1  0
 43 41  2  0
 46 21  1  0
 46 47  1  0
 48 46  1  0
 49  3  1  0
 49 50  1  0
 51 52  1  0
 51 50  1  0
 53 64  2  0
 54 52  1  0
 54 59  1  0
 55 63  1  0
 55 65  1  0
 56 62  1  0
 56 58  1  0
 57 63  1  0
 58 59  2  0
 58 57  1  0
 60 61  1  0
 60 54  2  0
 61 56  2  0
 62 55  1  0
 63 53  1  0
 65 67  2  0
 66 65  1  0
 68 66  1  0
 69 78  2  0
 69 74  1  0
 70 66  1  0
 70 74  1  0
 71 70  1  0
 72 73  1  0
 72 71  1  0
 73 69  1  0
 74 75  2  0
 75 76  1  0
 77 76  2  0
 78 77  1  0
 79 53  1  0
 79 84  1  0
 79 80  1  0
 80 83  1  1
 80 81  1  0
 82 80  1  0
 84 87  1  0
 85 89  1  0
 85 84  1  0
 86 85  2  0
 89 88  1  0
 91 89  1  0
 91 92  1  0
 91 90  1  0
M  ISO  4  10 100  20 100  51 101  52 101
M  END
>  <TORSDO>  (87) 
F 20

>  <SCORE>  (87) 
-13.192

>  <name>  (87) 
86

>  <ligand_id>  (87) 
86

>  <original_smiles>  (87) 
[H]c1nc(C(=O)C2([H])N(C(=O)N3C([H])([H])C([H])([H])C([H])([H])C([H])(n4nc(-c5c([H])c([H])c(Oc6c([H])c([H])c(F)c([H])c6F)c([H])c5[H])c(C(=O)N([H])[H])c4N([H])[H])C3([H])[H])C2([H])[H])c(C([H])([H])[H])c([H])c1C([H])([H])C([H])([H])C([H])([H])Oc1c([H])c([H])c2c(c1[H])C([H])([H])N(C(=O)C([H])(N([H])C(=O)C([H])(N([H])C([H])([H])[H])C([H])([H])[H])C(C([H])([H])[H])(C([H])([H])[H])C([H])([H])[H])C([H])(C(=O)N([H])C1([H])c3c([H])c([H])c([H])c([H])c3C([H])([H])C([H])([H])C1([H])[H])C2([H])[H]

>  <smiles>  (87) 
[H]c1nc(C(=O)C2([H])N(C(=O)N3C([H])([H])C([H])([H])C([H])([H])C([H])(n4nc(-c5c([H])c([H])c(Oc6c([H])c([H])c(F)c([H])c6F)c([H])c5[H])c(C(=O)N([H])[H])c4N([H])[H])C3([H])[H])C2([H])[H])c(C([H])([H])[H])c([H])c1C([H])([H])C([H])([H])C([H])([H])Oc1c([H])c([H])c2c(c1[H])C([H])([H])N(C(=O)C([H])(N([H])C(=O)C([H])(N([H])C([H])([H])[H])C([H])([H])[H])C(C([H])([H])[H])(C([H])([H])[H])C([H])([H])[H])C([H])(C(=O)N([H])C1([H])c3c([H])c([H])c([H])c([H])c3C([H])([H])C([H])([H])C1([H])[H])C2([H])[H]

$$$$
87:0:0
     RDKit          3D

 97106  0  0  1  0  0  0  0  0999 V2000
  -31.7800  -20.5190   18.9060 C   0  0  0  0  0  3  0  0  0  0  0  0
  -30.6840  -21.1990   19.4230 C   0  0  0  0  0  3  0  0  0  0  0  0
  -32.9120  -18.5780   18.2220 C   0  0  0  0  0  3  0  0  0  0  0  0
  -31.7930  -19.1220   18.8500 C   0  0  0  0  0  0  0  0  0  0  0  0
  -30.7420  -18.3100   19.3930 C   0  0  0  0  0  0  0  0  0  0  0  0
  -29.5760  -20.4970   19.9260 C   0  0  0  0  0  0  0  0  0  0  0  0
  -29.6090  -19.0400   19.9370 C   0  0  0  0  0  0  0  0  0  0  0  0
  -32.9680  -17.2090   18.0560 C   0  0  0  0  0  0  0  0  0  0  0  0
  -30.9720  -16.8640   19.3020 C   0  0  0  0  0  0  0  0  0  0  0  0
  -28.3960  -18.2760   20.4600 C   0  0  0  0  0  1  0  0  0  0  0  0
  -34.1590  -16.5530   17.3860 C   0  0  0  0  0  1  0  0  0  0  0  0
  -32.0030  -16.4190   18.5290 N   0  0  0  0  0  0  0  0  0  0  0  0
  -30.7430  -14.5700   20.3010 C   0  0  0  0  0  0  0  0  0  0  0  0
  -30.3360  -12.3690   19.3020 C   0  0  0  0  0  2  0  0  0  0  0  0
  -29.4090  -12.5120   18.0830 C   0  0  0  0  0  2  0  0  0  0  0  0
  -27.9370  -12.3940   18.5240 C   0  0  0  0  0  2  0  0  0  0  0  0
  -27.5910  -13.2790   19.7580 C   0  0  0  0  0  3  0  0  0  0  0  0
  -28.6670  -13.1980   20.8630 C   0  0  0  0  0  2  0  0  0  0  0  0
  -29.9600  -13.4550   20.2240 N   0  0  0  0  0  0  0  0  0  0  0  0
  -31.9630  -14.4320   20.3620 O   0  0  0  0  0  0  0  0  0  0  0  0
  -30.2130  -15.7990   19.9780 N   0  0  0  0  0  0  0  0  0  0  0  0
  -29.2140  -15.9050   20.0150 H   0  0  0  0  0  0  0  0  0  0  0  0
  -25.2070  -13.8680   20.5050 C   0  0  0  0  0  0  0  0  0  0  0  0
  -24.1430  -13.0940   20.8780 C   0  0  0  0  0  0  0  0  0  0  0  0
  -24.6080  -11.7440   20.8520 C   0  0  0  0  0  0  0  0  0  0  0  0
  -26.2530  -12.9900   20.2680 N   0  0  0  0  0  0  0  0  0  0  0  0
  -25.8990  -11.7070   20.5430 N   0  0  0  0  0  0  0  0  0  0  0  0
  -23.8800  -10.4810   21.0420 C   0  0  0  0  0  0  0  0  0  0  0  0
  -24.3130   -9.5120   21.9750 C   0  0  0  0  0  3  0  0  0  0  0  0
  -23.5870   -8.3170   22.1560 C   0  0  0  0  0  3  0  0  0  0  0  0
  -22.4100   -8.0790   21.4040 C   0  0  0  0  0  0  0  0  0  0  0  0
  -21.9960   -9.0360   20.4610 C   0  0  0  0  0  3  0  0  0  0  0  0
  -22.7250  -10.2240   20.2790 C   0  0  0  0  0  3  0  0  0  0  0  0
  -21.6540   -6.9360   21.4960 O   0  0  0  0  0  0  0  0  0  0  0  0
  -21.6110   -6.1890   22.6460 C   0  0  0  0  0  0  0  0  0  0  0  0
  -21.1980   -6.7430   23.8770 C   0  0  0  0  0  3  0  0  0  0  0  0
  -21.1030   -5.9230   25.0210 C   0  0  0  0  0  3  0  0  0  0  0  0
  -21.4090   -4.5520   24.9320 C   0  0  0  0  0  0  0  0  0  0  0  0
  -21.8120   -3.9970   23.7040 C   0  0  0  0  0  3  0  0  0  0  0  0
  -21.9090   -4.8130   22.5640 C   0  0  0  0  0  0  0  0  0  0  0  0
  -22.2780   -4.2700   21.3780 F   0  0  0  0  0  0  0  0  0  0  0  0
  -21.3090   -3.7630   26.0270 F   0  0  0  0  0  0  0  0  0  0  0  0
  -22.7450  -13.5730   21.1440 C   0  0  0  0  0  0  0  0  0  0  0  0
  -22.0120  -12.8790   22.0080 N   0  0  0  0  0  0  0  0  0  0  0  0
  -22.3100  -14.5970   20.6200 O   0  0  0  0  0  0  0  0  0  0  0  0
  -22.3760  -12.0520   22.4590 H   0  0  0  0  0  0  0  0  0  0  0  0
  -21.0720  -13.1790   22.2230 H   0  0  0  0  0  0  0  0  0  0  0  0
  -25.3640  -15.2370   20.3190 N   0  0  0  0  0  0  0  0  0  0  0  0
  -24.5890  -15.8830   20.4250 H   0  0  0  0  0  0  0  0  0  0  0  0
  -26.2050  -15.6820   19.9760 H   0  0  0  0  0  0  0  0  0  0  0  0
  -28.3630  -21.3800   20.3580 C   0  0  0  0  0  2  0  0  0  0  0  0
  -28.6360  -22.7530   20.9170 N   0  0  0  0  0  4  0  0  0  0  0  0
  -29.5120  -22.7350   21.4180 H   0  0  0  0  0  0  0  0  0  0  0  0
  -27.9240  -22.8690   21.6210 H   0  0  0  0  0  0  0  0  0  0  0  0
  -28.5390  -23.9820   20.0390 C   0  0  0  0  0  2  0  0  0  0  0  0
  -28.1970  -25.2810   20.8600 C   0  0  0  0  0  2  0  0  0  0  0  0
  -28.3770  -26.5820   20.2220 O   0  0  0  0  0  0  0  0  0  0  0  0
  -24.6060  -31.8810   23.2470 C   0  0  0  0  0  0  0  0  0  0  0  0
  -27.2530  -27.3910   20.1980 C   0  0  0  0  0  0  0  0  0  0  0  0
  -23.4130  -30.4800   21.5970 C   0  0  0  0  0  3  0  0  0  0  0  0
  -24.8750  -28.9360   20.1850 C   0  0  0  0  0  0  0  0  0  0  0  0
  -25.9470  -30.8260   21.4200 C   0  0  0  0  0  2  0  0  0  0  0  0
  -26.0370  -29.4520   20.7770 C   0  0  0  0  0  0  0  0  0  0  0  0
  -27.2350  -28.6900   20.7740 C   0  0  0  0  0  3  0  0  0  0  0  0
  -26.0760  -26.9080   19.5870 C   0  0  0  0  0  3  0  0  0  0  0  0
  -24.8910  -27.6670   19.5840 C   0  0  0  0  0  3  0  0  0  0  0  0
  -23.6340  -29.8000   20.2200 C   0  0  0  0  0  2  0  0  0  0  0  0
  -24.6730  -31.0780   22.1450 N   0  0  0  0  0  0  0  0  0  0  0  0
  -23.5190  -32.1530   23.7770 O   0  0  0  0  0  0  0  0  0  0  0  0
  -22.7530  -29.4600   22.5550 C   0  0  0  0  0  0  0  0  0  0  0  0
  -21.4290  -29.2750   22.4180 N   0  0  0  0  0  0  0  0  0  0  0  0
  -23.4310  -28.8380   23.3770 O   0  0  0  0  0  0  0  0  0  0  0  0
  -20.9410  -29.8290   21.7300 H   0  0  0  0  0  0  0  0  0  0  0  0
  -18.0590  -28.0590   22.8760 C   0  0  0  0  0  0  0  0  0  0  0  0
  -20.6100  -28.3370   23.1850 C   0  0  0  0  0  3  0  0  0  0  0  0
  -20.7320  -26.9020   22.6220 C   0  0  0  0  0  2  0  0  0  0  0  0
  -19.6490  -26.5630   21.5930 C   0  0  0  0  0  2  0  0  0  0  0  0
  -18.2570  -26.7060   22.2140 C   0  0  0  0  0  2  0  0  0  0  0  0
  -19.1640  -28.8320   23.3170 C   0  0  0  0  0  0  0  0  0  0  0  0
  -18.9290  -30.1010   23.8930 C   0  0  0  0  0  3  0  0  0  0  0  0
  -17.6190  -30.5940   24.0340 C   0  0  0  0  0  3  0  0  0  0  0  0
  -16.5270  -29.8180   23.6080 C   0  0  0  0  0  3  0  0  0  0  0  0
  -16.7470  -28.5530   23.0350 C   0  0  0  0  0  3  0  0  0  0  0  0
  -25.8860  -32.5160   23.8760 C   0  0  0  0  0  3  0  0  0  0  0  0
  -26.3950  -31.7490   25.1570 C   0  0  1  0  0  0  0  0  0  0  0  0
  -25.2950  -31.5160   26.2190 C   0  0  0  0  0  1  0  0  0  0  0  0
  -26.9830  -30.3710   24.7720 C   0  0  0  0  0  1  0  0  0  0  0  0
  -27.5460  -32.5410   25.8210 C   0  0  0  0  0  1  0  0  0  0  0  0
  -25.5740  -33.9160   24.1970 N   0  0  0  0  0  0  0  0  0  0  0  0
  -25.9130  -34.9650   23.4370 C   0  0  0  0  0  0  0  0  0  0  0  0
  -26.5890  -34.8570   22.4100 O   0  0  0  0  0  0  0  0  0  0  0  0
  -24.9760  -34.0750   24.9960 H   0  0  0  0  0  0  0  0  0  0  0  0
  -24.1840  -36.7540   23.0630 C   0  0  0  0  0  1  0  0  0  0  0  0
  -25.4220  -36.3550   23.8840 C   0  0  0  0  0  3  0  0  0  0  0  0
  -27.5520  -37.2440   24.7210 C   0  0  0  0  0  1  0  0  0  0  0  0
  -26.4540  -37.4080   23.7710 N   0  0  0  0  0  0  0  0  0  0  0  0
  -26.0460  -38.3270   23.9140 H   0  0  0  0  0  0  0  0  0  0  0  0
  1  2  1  0
  2  6  2  0
  3  4  1  0
  4  1  2  0
  4  5  1  0
  5  7  2  0
  6  7  1  0
  6 51  1  0
  7 10  1  0
  8  3  2  0
  8 12  1  0
  9  5  1  0
  9 21  1  0
 11  8  1  0
 12  9  2  0
 13 20  2  0
 14 19  1  0
 15 16  1  0
 15 14  1  0
 17 16  1  0
 17 26  1  0
 17 18  1  0
 19 13  1  0
 19 18  1  0
 21 22  1  0
 21 13  1  0
 23 24  2  0
 24 43  1  0
 25 24  1  0
 25 28  1  0
 26 23  1  0
 26 27  1  0
 27 25  2  0
 28 29  1  0
 29 30  2  0
 31 34  1  0
 31 30  1  0
 32 31  2  0
 33 32  1  0
 33 28  2  0
 34 35  1  0
 35 36  1  0
 36 37  2  0
 38 37  1  0
 38 42  1  0
 39 38  2  0
 40 35  2  0
 40 39  1  0
 41 40  1  0
 43 44  1  0
 44 47  1  0
 44 46  1  0
 45 43  2  0
 48 49  1  0
 48 23  1  0
 50 48  1  0
 51 52  1  0
 52 53  1  0
 52 54  1  0
 55 56  1  0
 55 52  1  0
 57 56  1  0
 58 69  2  0
 59 57  1  0
 59 64  1  0
 60 68  1  0
 60 70  1  0
 61 67  1  0
 61 63  1  0
 62 68  1  0
 63 62  1  0
 64 63  2  0
 65 59  2  0
 66 65  1  0
 66 61  2  0
 67 60  1  0
 68 58  1  0
 70 72  2  0
 71 70  1  0
 73 71  1  0
 74 83  2  0
 74 79  1  0
 75 71  1  0
 75 79  1  0
 76 75  1  0
 77 78  1  0
 77 76  1  0
 78 74  1  0
 79 80  2  0
 80 81  1  0
 82 81  2  0
 83 82  1  0
 84 58  1  0
 84 89  1  0
 84 85  1  0
 85 88  1  1
 85 86  1  0
 87 85  1  0
 89 92  1  0
 90 94  1  0
 90 89  1  0
 91 90  2  0
 94 93  1  0
 96 94  1  0
 96 97  1  0
 96 95  1  0
M  ISO  4  13 100  21 100  56 101  57 101
M  END
>  <TORSDO>  (88) 
F 20

>  <SCORE>  (88) 
-14.125

>  <name>  (88) 
87

>  <ligand_id>  (88) 
87

>  <original_smiles>  (88) 
[H]c1c([H])c([H])c2c(c1[H])C([H])([H])C([H])([H])C([H])([H])C2([H])N([H])C(=O)C1([H])N(C(=O)C([H])(N([H])C(=O)C([H])(N([H])C([H])([H])[H])C([H])([H])[H])C(C([H])([H])[H])(C([H])([H])[H])C([H])([H])[H])C([H])([H])c2c([H])c(OC([H])([H])C([H])([H])[N+]([H])([H])C([H])([H])c3c([H])c([H])c4c([H])c(C([H])([H])[H])nc(N([H])C(=O)N5C([H])([H])C([H])([H])C([H])([H])C([H])(n6nc(-c7c([H])c([H])c(Oc8c([H])c([H])c(F)c([H])c8F)c([H])c7[H])c(C(=O)N([H])[H])c6N([H])[H])C5([H])[H])c4c3C([H])([H])[H])c([H])c([H])c2C1([H])[H]

>  <smiles>  (88) 
[H]c1c([H])c([H])c2c(c1[H])C([H])([H])C([H])([H])C([H])([H])C2([H])N([H])C(=O)C1([H])N(C(=O)C([H])(N([H])C(=O)C([H])(N([H])C([H])([H])[H])C([H])([H])[H])C(C([H])([H])[H])(C([H])([H])[H])C([H])([H])[H])C([H])([H])c2c([H])c(OC([H])([H])C([H])([H])[N+]([H])([H])C([H])([H])c3c([H])c([H])c4c([H])c(C([H])([H])[H])nc(N([H])C(=O)N5C([H])([H])C([H])([H])C([H])([H])C([H])(n6nc(-c7c([H])c([H])c(Oc8c([H])c([H])c(F)c([H])c8F)c([H])c7[H])c(C(=O)N([H])[H])c6N([H])[H])C5([H])[H])c4c3C([H])([H])[H])c([H])c([H])c2C1([H])[H]

$$$$
88:0:0
     RDKit          3D

 91 99  0  0  1  0  0  0  0  0999 V2000
  -29.4750  -19.1070   19.2800 C   0  0  0  0  0  3  0  0  0  0  0  0
  -29.8140  -20.5280   19.5980 C   0  0  0  0  0  0  0  0  0  0  0  0
  -31.0960  -20.3480   20.0990 C   0  0  0  0  0  0  0  0  0  0  0  0
  -30.4820  -18.1510   19.5830 C   0  0  0  0  0  0  0  0  0  0  0  0
  -31.9260  -21.4680   20.6600 C   0  0  0  0  0  1  0  0  0  0  0  0
  -31.4900  -18.9610   20.1400 N   0  0  0  0  0  0  0  0  0  0  0  0
  -31.2630  -15.5590   19.8570 C   0  0  0  0  0  0  0  0  0  0  0  0
  -31.2600  -13.0500   19.3740 C   0  0  0  0  0  2  0  0  0  0  0  0
  -30.3580  -12.6950   18.1660 C   0  0  0  0  0  2  0  0  0  0  0  0
  -28.8940  -12.5180   18.6090 C   0  0  0  0  0  2  0  0  0  0  0  0
  -28.4230  -13.6440   19.5670 C   0  0  0  0  0  3  0  0  0  0  0  0
  -29.4520  -13.9320   20.6830 C   0  0  0  0  0  2  0  0  0  0  0  0
  -30.7150  -14.2820   20.0180 N   0  0  0  0  0  0  0  0  0  0  0  0
  -32.4820  -15.6090   19.6520 O   0  0  0  0  0  0  0  0  0  0  0  0
  -30.4050  -16.6960   19.6520 N   0  0  0  0  0  0  0  0  0  0  0  0
  -29.4480  -16.3810   19.6210 H   0  0  0  0  0  0  0  0  0  0  0  0
  -26.0960  -14.3420   20.3750 C   0  0  0  0  0  0  0  0  0  0  0  0
  -24.9950  -13.6220   20.7500 C   0  0  0  0  0  0  0  0  0  0  0  0
  -25.3780  -12.2470   20.6720 C   0  0  0  0  0  0  0  0  0  0  0  0
  -27.0810  -13.4100   20.0870 N   0  0  0  0  0  0  0  0  0  0  0  0
  -26.6580  -12.1430   20.3300 N   0  0  0  0  0  0  0  0  0  0  0  0
  -24.5800  -11.0260   20.8370 C   0  0  0  0  0  0  0  0  0  0  0  0
  -24.9130  -10.0490   21.8010 C   0  0  0  0  0  3  0  0  0  0  0  0
  -24.1160   -8.8960   21.9580 C   0  0  0  0  0  3  0  0  0  0  0  0
  -22.9710   -8.7100   21.1480 C   0  0  0  0  0  0  0  0  0  0  0  0
  -22.6560   -9.6730   20.1720 C   0  0  0  0  0  3  0  0  0  0  0  0
  -23.4550  -10.8190   20.0140 C   0  0  0  0  0  3  0  0  0  0  0  0
  -22.1570   -7.6040   21.2080 O   0  0  0  0  0  0  0  0  0  0  0  0
  -21.9390   -6.9330   22.3850 C   0  0  0  0  0  0  0  0  0  0  0  0
  -21.3440   -7.5610   23.5010 C   0  0  0  0  0  3  0  0  0  0  0  0
  -21.0730   -6.8170   24.6680 C   0  0  0  0  0  3  0  0  0  0  0  0
  -21.3900   -5.4470   24.7180 C   0  0  0  0  0  0  0  0  0  0  0  0
  -21.9770   -4.8180   23.6070 C   0  0  0  0  0  3  0  0  0  0  0  0
  -22.2490   -5.5590   22.4420 C   0  0  0  0  0  0  0  0  0  0  0  0
  -22.7950   -4.9420   21.3670 F   0  0  0  0  0  0  0  0  0  0  0  0
  -21.1250   -4.7310   25.8360 F   0  0  0  0  0  0  0  0  0  0  0  0
  -23.6360  -14.1760   21.0650 C   0  0  0  0  0  0  0  0  0  0  0  0
  -22.8880  -13.5090   21.9370 N   0  0  0  0  0  0  0  0  0  0  0  0
  -23.2470  -15.2340   20.5700 O   0  0  0  0  0  0  0  0  0  0  0  0
  -23.2190  -12.6550   22.3590 H   0  0  0  0  0  0  0  0  0  0  0  0
  -21.9740  -13.8600   22.1880 H   0  0  0  0  0  0  0  0  0  0  0  0
  -26.3300  -15.7070   20.2270 N   0  0  0  0  0  0  0  0  0  0  0  0
  -25.5930  -16.3890   20.3610 H   0  0  0  0  0  0  0  0  0  0  0  0
  -27.1740  -16.1160   19.8500 H   0  0  0  0  0  0  0  0  0  0  0  0
  -32.8430  -18.9330   22.2320 C   0  0  0  0  0  1  0  0  0  0  0  0
  -33.9910  -18.5380   19.9540 C   0  0  0  0  0  1  0  0  0  0  0  0
  -32.6990  -18.4150   20.7890 C   0  0  0  0  0  3  0  0  0  0  0  0
  -28.8810  -21.9390   19.5390 C   0  0  0  0  0  2  0  0  0  0  0  0
  -29.2670  -23.6020   19.7070 C   0  0  0  0  0  3  0  0  0  0  0  0
  -28.1620  -24.9140   19.6080 C   0  0  0  0  0  3  0  0  0  0  0  0
  -28.3670  -26.4720   19.7600 O   0  0  0  0  0  0  0  0  0  0  0  0
  -24.6900  -31.9040   23.1980 C   0  0  0  0  0  0  0  0  0  0  0  0
  -27.2780  -27.4380   19.7870 C   0  0  0  0  0  0  0  0  0  0  0  0
  -23.4540  -30.5640   21.5330 C   0  0  0  0  0  3  0  0  0  0  0  0
  -24.8910  -29.1180   19.9540 C   0  0  0  0  0  0  0  0  0  0  0  0
  -25.9910  -30.9180   21.2740 C   0  0  0  0  0  2  0  0  0  0  0  0
  -26.0820  -29.5650   20.5390 C   0  0  0  0  0  0  0  0  0  0  0  0
  -27.2730  -28.7440   20.4380 C   0  0  0  0  0  3  0  0  0  0  0  0
  -26.0550  -27.1050   19.1640 C   0  0  0  0  0  3  0  0  0  0  0  0
  -24.8920  -27.9050   19.2490 C   0  0  0  0  0  3  0  0  0  0  0  0
  -23.6380  -29.9710   20.1080 C   0  0  0  0  0  2  0  0  0  0  0  0
  -24.7330  -31.1480   22.0560 N   0  0  0  0  0  0  0  0  0  0  0  0
  -23.6240  -32.1210   23.7950 O   0  0  0  0  0  0  0  0  0  0  0  0
  -22.8560  -29.4830   22.4670 C   0  0  0  0  0  0  0  0  0  0  0  0
  -21.5470  -29.2030   22.3250 N   0  0  0  0  0  0  0  0  0  0  0  0
  -23.5700  -28.9000   23.2890 O   0  0  0  0  0  0  0  0  0  0  0  0
  -21.0230  -29.7300   21.6400 H   0  0  0  0  0  0  0  0  0  0  0  0
  -18.3040  -27.6360   22.7100 C   0  0  0  0  0  0  0  0  0  0  0  0
  -20.8050  -28.1830   23.0710 C   0  0  0  0  0  3  0  0  0  0  0  0
  -21.0880  -26.7710   22.5090 C   0  0  0  0  0  2  0  0  0  0  0  0
  -20.0690  -26.3250   21.4550 C   0  0  0  0  0  2  0  0  0  0  0  0
  -18.6570  -26.3150   22.0460 C   0  0  0  0  0  2  0  0  0  0  0  0
  -19.3130  -28.5190   23.1780 C   0  0  0  0  0  0  0  0  0  0  0  0
  -18.9320  -29.7480   23.7600 C   0  0  0  0  0  3  0  0  0  0  0  0
  -17.5730  -30.0980   23.8750 C   0  0  0  0  0  3  0  0  0  0  0  0
  -16.5790  -29.2160   23.4200 C   0  0  0  0  0  3  0  0  0  0  0  0
  -16.9440  -27.9840   22.8460 C   0  0  0  0  0  3  0  0  0  0  0  0
  -25.9780  -32.5480   23.7960 C   0  0  0  0  0  3  0  0  0  0  0  0
  -26.5250  -31.7770   25.0610 C   0  0  1  0  0  0  0  0  0  0  0  0
  -25.4540  -31.5290   26.1480 C   0  0  0  0  0  1  0  0  0  0  0  0
  -27.1120  -30.4040   24.6610 C   0  0  0  0  0  1  0  0  0  0  0  0
  -27.6820  -32.5790   25.7040 C   0  0  0  0  0  1  0  0  0  0  0  0
  -25.6610  -33.9410   24.1470 N   0  0  0  0  0  0  0  0  0  0  0  0
  -25.9740  -35.0100   23.4030 C   0  0  0  0  0  0  0  0  0  0  0  0
  -26.6280  -34.9270   22.3610 O   0  0  0  0  0  0  0  0  0  0  0  0
  -25.0820  -34.0780   24.9620 H   0  0  0  0  0  0  0  0  0  0  0  0
  -24.2270  -36.7990   23.1020 C   0  0  0  0  0  1  0  0  0  0  0  0
  -25.4840  -36.3900   23.8890 C   0  0  0  0  0  3  0  0  0  0  0  0
  -27.6230  -37.2900   24.6970 C   0  0  0  0  0  1  0  0  0  0  0  0
  -26.5080  -37.4530   23.7680 N   0  0  0  0  0  0  0  0  0  0  0  0
  -26.0980  -38.3710   23.9230 H   0  0  0  0  0  0  0  0  0  0  0  0
  1  4  2  0
  1  2  1  0
  2  3  2  0
  3  6  1  0
  3  5  1  0
  4 15  1  0
  4  6  1  0
  6 47  1  0
  7 13  1  0
  8 13  1  0
  9 10  1  0
  9  8  1  0
 11 10  1  0
 11 20  1  0
 11 12  1  0
 13 12  1  0
 14  7  2  0
 15  7  1  0
 16 15  1  0
 17 18  2  0
 18 37  1  0
 19 18  1  0
 19 22  1  0
 20 21  1  0
 20 17  1  0
 21 19  2  0
 22 23  1  0
 23 24  2  0
 25 28  1  0
 25 24  1  0
 26 25  2  0
 27 26  1  0
 27 22  2  0
 28 29  1  0
 29 34  2  0
 29 30  1  0
 30 31  2  0
 31 32  1  0
 32 36  1  0
 33 32  2  0
 34 33  1  0
 35 34  1  0
 37 38  1  0
 38 41  1  0
 38 40  1  0
 39 37  2  0
 42 43  1  0
 42 17  1  0
 44 42  1  0
 46 47  1  0
 47 45  1  0
 48  2  1  0
 48 49  1  0
 50 49  2  0
 50 51  1  0
 51 53  1  0
 52 63  2  0
 53 58  1  0
 54 62  1  0
 54 64  1  0
 55 61  1  0
 55 57  1  0
 56 62  1  0
 57 56  1  0
 58 57  2  0
 59 60  1  0
 59 53  2  0
 60 55  2  0
 61 54  1  0
 62 52  1  0
 64 66  2  0
 65 64  1  0
 67 65  1  0
 68 77  2  0
 68 73  1  0
 69 65  1  0
 69 73  1  0
 70 69  1  0
 71 72  1  0
 71 70  1  0
 72 68  1  0
 73 74  2  0
 74 75  1  0
 76 75  2  0
 77 76  1  0
 78 52  1  0
 78 83  1  0
 78 79  1  0
 79 82  1  1
 79 80  1  0
 81 79  1  0
 83 86  1  0
 84 88  1  0
 84 83  1  0
 85 84  2  0
 88 87  1  0
 90 88  1  0
 90 91  1  0
 90 89  1  0
M  ISO  4   7 100  15 100  50 101  51 101
M  END
>  <TORSDO>  (89) 
F 20

>  <SCORE>  (89) 
-13.175

>  <name>  (89) 
88

>  <ligand_id>  (89) 
88

>  <original_smiles>  (89) 
[H]c1c([H])c([H])c2c(c1[H])C([H])([H])C([H])([H])C([H])([H])C2([H])N([H])C(=O)C1([H])N(C(=O)C([H])(N([H])C(=O)C([H])(N([H])C([H])([H])[H])C([H])([H])[H])C(C([H])([H])[H])(C([H])([H])[H])C([H])([H])[H])C([H])([H])c2c([H])c(OC([H])([H])C([H])([H])C([H])([H])c3c([H])c(N([H])C(=O)N4C([H])([H])C([H])([H])C([H])([H])C([H])(n5nc(-c6c([H])c([H])c(Oc7c([H])c([H])c(F)c([H])c7F)c([H])c6[H])c(C(=O)N([H])[H])c5N([H])[H])C4([H])[H])n(C([H])(C([H])([H])[H])C([H])([H])[H])c3C([H])([H])[H])c([H])c([H])c2C1([H])[H]

>  <smiles>  (89) 
[H]c1c([H])c([H])c2c(c1[H])C([H])([H])C([H])([H])C([H])([H])C2([H])N([H])C(=O)C1([H])N(C(=O)C([H])(N([H])C(=O)C([H])(N([H])C([H])([H])[H])C([H])([H])[H])C(C([H])([H])[H])(C([H])([H])[H])C([H])([H])[H])C([H])([H])c2c([H])c(OC([H])([H])C([H])([H])C([H])([H])c3c([H])c(N([H])C(=O)N4C([H])([H])C([H])([H])C([H])([H])C([H])(n5nc(-c6c([H])c([H])c(Oc7c([H])c([H])c(F)c([H])c7F)c([H])c6[H])c(C(=O)N([H])[H])c5N([H])[H])C4([H])[H])n(C([H])(C([H])([H])[H])C([H])([H])[H])c3C([H])([H])[H])c([H])c([H])c2C1([H])[H]

$$$$
89:0:0
     RDKit          3D

102112  0  0  1  0  0  0  0  0999 V2000
  -34.5770  -19.4400   20.0890 C   0  0  0  0  0  2  0  0  0  0  0  0
  -34.0040  -19.7560   21.4740 C   0  0  0  0  0  2  0  0  0  0  0  0
  -33.5230  -18.7540   19.2170 C   0  0  0  0  0  2  0  0  0  0  0  0
  -32.6930  -20.5570   21.3480 C   0  0  0  0  0  2  0  0  0  0  0  0
  -32.2280  -19.5940   19.1310 C   0  0  0  0  0  2  0  0  0  0  0  0
  -31.5450  -19.8810   20.5110 C   0  0  2  0  0  0  0  0  0  0  0  0
  -29.3380  -20.7600   19.2050 C   0  0  0  0  0  2  0  0  0  0  0  0
  -28.9680  -22.1560   18.6340 C   0  0  0  0  0  2  0  0  0  0  0  0
  -30.8150  -22.4640   20.0850 C   0  0  0  0  0  2  0  0  0  0  0  0
  -30.3990  -20.9810   20.3090 C   0  0  0  0  0  3  0  0  0  0  0  0
  -29.5500  -23.2040   19.5960 C   0  0  0  0  0  3  0  0  0  0  0  0
  -30.5980  -25.4970   20.0200 C   0  0  0  0  0  1  0  0  0  0  0  0
  -29.7660  -24.6590   19.0300 C   0  0  0  0  0  3  0  0  0  0  0  0
  -28.4400  -25.4140   18.6880 C   0  0  0  0  0  2  0  0  0  0  0  0
  -28.5190  -26.8650   18.7560 O   0  0  0  0  0  0  0  0  0  0  0  0
  -24.6100  -31.2780   22.8110 C   0  0  0  0  0  0  0  0  0  0  0  0
  -27.3220  -27.5520   18.9100 C   0  0  0  0  0  0  0  0  0  0  0  0
  -23.4010  -30.1130   20.9980 C   0  0  0  0  0  3  0  0  0  0  0  0
  -24.8610  -28.9270   19.2730 C   0  0  0  0  0  0  0  0  0  0  0  0
  -25.8990  -30.6350   20.7710 C   0  0  0  0  0  2  0  0  0  0  0  0
  -26.0230  -29.4010   19.8950 C   0  0  0  0  0  0  0  0  0  0  0  0
  -27.2550  -28.7270   19.7040 C   0  0  0  0  0  3  0  0  0  0  0  0
  -26.1340  -27.1050   18.2840 C   0  0  0  0  0  3  0  0  0  0  0  0
  -24.9140  -27.7820   18.4620 C   0  0  0  0  0  3  0  0  0  0  0  0
  -23.5810  -29.6960   19.5140 C   0  0  0  0  0  2  0  0  0  0  0  0
  -24.6580  -30.6800   21.5850 N   0  0  0  0  0  0  0  0  0  0  0  0
  -23.5420  -31.3910   23.4300 O   0  0  0  0  0  0  0  0  0  0  0  0
  -22.8450  -28.9050   21.7890 C   0  0  0  0  0  0  0  0  0  0  0  0
  -21.5190  -28.7020   21.7210 N   0  0  0  0  0  0  0  0  0  0  0  0
  -23.6000  -28.1640   22.4220 O   0  0  0  0  0  0  0  0  0  0  0  0
  -20.9670  -29.3620   21.1910 H   0  0  0  0  0  0  0  0  0  0  0  0
  -18.2120  -27.3530   22.2750 C   0  0  0  0  0  0  0  0  0  0  0  0
  -20.7830  -27.6080   22.3530 C   0  0  0  0  0  3  0  0  0  0  0  0
  -20.8330  -26.3290   21.4850 C   0  0  0  0  0  2  0  0  0  0  0  0
  -19.6390  -26.1980   20.5340 C   0  0  0  0  0  2  0  0  0  0  0  0
  -18.3250  -26.1760   21.3210 C   0  0  0  0  0  2  0  0  0  0  0  0
  -19.3650  -28.0340   22.7460 C   0  0  0  0  0  0  0  0  0  0  0  0
  -19.2010  -29.1440   23.6040 C   0  0  0  0  0  3  0  0  0  0  0  0
  -17.9170  -29.5720   23.9920 C   0  0  0  0  0  3  0  0  0  0  0  0
  -16.7800  -28.8840   23.5340 C   0  0  0  0  0  3  0  0  0  0  0  0
  -16.9290  -27.7760   22.6820 C   0  0  0  0  0  3  0  0  0  0  0  0
  -25.8900  -31.8660   23.4840 C   0  0  0  0  0  3  0  0  0  0  0  0
  -25.5500  -33.2000   23.9930 N   0  0  0  0  0  0  0  0  0  0  0  0
  -25.8140  -34.3480   23.3540 C   0  0  0  0  0  0  0  0  0  0  0  0
  -26.4420  -34.3950   22.2940 O   0  0  0  0  0  0  0  0  0  0  0  0
  -24.9850  -33.2350   24.8300 H   0  0  0  0  0  0  0  0  0  0  0  0
  -24.0060  -36.0950   23.2940 C   0  0  0  0  0  1  0  0  0  0  0  0
  -25.2990  -35.6520   23.9960 C   0  0  0  0  0  3  0  0  0  0  0  0
  -27.4350  -36.5250   24.8350 C   0  0  0  0  0  1  0  0  0  0  0  0
  -26.2870  -36.7520   23.9630 N   0  0  0  0  0  0  0  0  0  0  0  0
  -25.8540  -37.6320   24.2300 H   0  0  0  0  0  0  0  0  0  0  0  0
  -26.4590  -30.9550   24.6410 C   0  0  1  0  0  0  0  0  0  0  0  0
  -25.4000  -30.5560   25.6950 C   0  0  0  0  0  1  0  0  0  0  0  0
  -27.0640  -29.6550   24.0630 C   0  0  0  0  0  1  0  0  0  0  0  0
  -27.6070  -31.6910   25.3700 C   0  0  0  0  0  1  0  0  0  0  0  0
  -31.0440  -18.5180   21.2420 C   0  0  0  0  0  3  0  0  0  0  0  0
  -30.6200  -17.6910   23.7310 C   0  0  0  0  0  2  0  0  0  0  0  0
  -30.2330  -18.3620   25.0510 C   0  0  0  0  0  2  0  0  0  0  0  0
  -30.6970  -20.0250   23.4060 C   0  0  0  0  0  2  0  0  0  0  0  0
  -30.3340  -18.7370   22.6360 C   0  0  0  0  0  3  0  0  0  0  0  0
  -30.3290  -19.8090   24.8160 N   0  0  0  0  0  4  0  0  0  0  0  0
  -31.0080  -20.2330   25.4280 H   0  0  0  0  0  0  0  0  0  0  0  0
  -29.4340  -20.2290   25.0050 H   0  0  0  0  0  0  0  0  0  0  0  0
  -30.2220  -17.5200   20.3340 C   0  0  0  0  0  2  0  0  0  0  0  0
  -30.9330  -15.0810   20.5960 C   0  0  0  0  0  0  0  0  0  0  0  0
  -30.8340  -12.7650   19.7490 C   0  0  0  0  0  2  0  0  0  0  0  0
  -29.9810  -12.7680   18.4620 C   0  0  0  0  0  2  0  0  0  0  0  0
  -28.4830  -12.6160   18.7960 C   0  0  0  0  0  2  0  0  0  0  0  0
  -28.0170  -13.5870   19.9140 C   0  0  0  0  0  3  0  0  0  0  0  0
  -28.9910  -13.5570   21.1160 C   0  0  0  0  0  2  0  0  0  0  0  0
  -30.3430  -13.8530   20.6110 N   0  0  0  0  0  0  0  0  0  0  0  0
  -32.0940  -15.2590   20.2190 O   0  0  0  0  0  0  0  0  0  0  0  0
  -30.0910  -16.1180   20.8060 N   0  0  0  0  0  0  0  0  0  0  0  0
  -29.1700  -15.8460   21.1120 H   0  0  0  0  0  0  0  0  0  0  0  0
  -25.5830  -14.2000   20.4870 C   0  0  0  0  0  0  0  0  0  0  0  0
  -24.4970  -13.4310   20.8050 C   0  0  0  0  0  0  0  0  0  0  0  0
  -24.9590  -12.0780   20.8080 C   0  0  0  0  0  0  0  0  0  0  0  0
  -26.6390  -13.3170   20.3200 N   0  0  0  0  0  0  0  0  0  0  0  0
  -26.2640  -12.0370   20.5710 N   0  0  0  0  0  0  0  0  0  0  0  0
  -24.2230  -10.8170   20.9690 C   0  0  0  0  0  0  0  0  0  0  0  0
  -24.6100   -9.8530   21.9250 C   0  0  0  0  0  3  0  0  0  0  0  0
  -23.8760   -8.6560   22.0730 C   0  0  0  0  0  3  0  0  0  0  0  0
  -22.7410   -8.4160   21.2620 C   0  0  0  0  0  0  0  0  0  0  0  0
  -22.3730   -9.3690   20.2970 C   0  0  0  0  0  3  0  0  0  0  0  0
  -23.1070  -10.5570   20.1480 C   0  0  0  0  0  3  0  0  0  0  0  0
  -21.9830   -7.2710   21.3180 O   0  0  0  0  0  0  0  0  0  0  0  0
  -21.8600   -6.5450   22.4760 C   0  0  0  0  0  0  0  0  0  0  0  0
  -21.3380   -7.1110   23.6590 C   0  0  0  0  0  3  0  0  0  0  0  0
  -21.1650   -6.3100   24.8060 C   0  0  0  0  0  3  0  0  0  0  0  0
  -21.5020   -4.9430   24.7690 C   0  0  0  0  0  0  0  0  0  0  0  0
  -22.0170   -4.3770   23.5900 C   0  0  0  0  0  3  0  0  0  0  0  0
  -22.1930   -5.1750   22.4450 C   0  0  0  0  0  0  0  0  0  0  0  0
  -22.6690   -4.6190   21.3050 F   0  0  0  0  0  0  0  0  0  0  0  0
  -21.3290   -4.1720   25.8670 F   0  0  0  0  0  0  0  0  0  0  0  0
  -23.0860  -13.9090   20.9970 C   0  0  0  0  0  0  0  0  0  0  0  0
  -22.3210  -13.2340   21.8480 N   0  0  0  0  0  0  0  0  0  0  0  0
  -22.6710  -14.9180   20.4290 O   0  0  0  0  0  0  0  0  0  0  0  0
  -22.6690  -12.4180   22.3290 H   0  0  0  0  0  0  0  0  0  0  0  0
  -21.3740  -13.5380   22.0200 H   0  0  0  0  0  0  0  0  0  0  0  0
  -25.7590  -15.5680   20.3070 N   0  0  0  0  0  0  0  0  0  0  0  0
  -24.9840  -16.2210   20.3580 H   0  0  0  0  0  0  0  0  0  0  0  0
  -26.6180  -16.0010   19.9930 H   0  0  0  0  0  0  0  0  0  0  0  0
  1  2  1  0
  3  1  1  0
  4  2  1  0
  5  3  1  0
  5  6  1  0
  6 56  1  1
  6  4  1  0
  8  7  1  0
  8 11  1  0
  9 10  1  0
 10  7  1  0
 10  6  1  0
 11 13  1  0
 11  9  1  0
 13 12  1  0
 14 15  1  0
 14 13  1  0
 15 17  1  0
 16 27  2  0
 17 22  1  0
 18 26  1  0
 18 28  1  0
 19 25  1  0
 19 21  1  0
 20 26  1  0
 21 20  1  0
 22 21  2  0
 23 24  1  0
 23 17  2  0
 24 19  2  0
 25 18  1  0
 26 16  1  0
 28 30  2  0
 29 28  1  0
 31 29  1  0
 32 41  2  0
 32 37  1  0
 33 29  1  0
 33 37  1  0
 34 33  1  0
 35 36  1  0
 35 34  1  0
 36 32  1  0
 37 38  2  0
 38 39  1  0
 40 39  2  0
 41 40  1  0
 42 16  1  0
 42 43  1  0
 42 52  1  0
 43 46  1  0
 44 43  1  0
 44 48  1  0
 45 44  2  0
 48 47  1  0
 50 48  1  0
 50 51  1  0
 50 49  1  0
 52 55  1  1
 52 53  1  0
 54 52  1  0
 56 64  1  0
 57 58  1  0
 59 61  1  0
 60 56  1  0
 60 59  1  0
 60 57  1  0
 61 63  1  0
 61 58  1  0
 61 62  1  0
 64 73  1  0
 65 71  1  0
 65 73  1  0
 66 71  1  0
 67 68  1  0
 67 66  1  0
 69 68  1  0
 69 78  1  0
 69 70  1  0
 71 70  1  0
 72 65  2  0
 73 74  1  0
 75 76  2  0
 76 77  1  0
 76 95  1  0
 77 80  1  0
 78 75  1  0
 78 79  1  0
 79 77  2  0
 80 81  1  0
 81 82  2  0
 83 86  1  0
 83 82  1  0
 84 83  2  0
 85 84  1  0
 85 80  2  0
 86 87  1  0
 87 88  1  0
 88 89  2  0
 90 89  1  0
 90 94  1  0
 91 90  2  0
 92 87  2  0
 92 91  1  0
 93 92  1  0
 95 96  1  0
 96 99  1  0
 96 98  1  0
 97 95  2  0
100101  1  0
100 75  1  0
102100  1  0
M  ISO  4  14 101  15 101  65 100  73 100
M  END
>  <TORSDO>  (90) 
F 22

>  <SCORE>  (90) 
-8.324

>  <name>  (90) 
89

>  <ligand_id>  (90) 
89

>  <original_smiles>  (90) 
[H]c1c([H])c([H])c2c(c1[H])C([H])([H])C([H])([H])C([H])([H])C2([H])N([H])C(=O)C1([H])N(C(=O)C([H])(N([H])C(=O)C([H])(N([H])C([H])([H])[H])C([H])([H])[H])C(C([H])([H])[H])(C([H])([H])[H])C([H])([H])[H])C([H])([H])c2c([H])c(OC([H])([H])C([H])(C([H])([H])[H])C3([H])C([H])([H])C([H])([H])C([H])(C4(C([H])(C([H])([H])N([H])C(=O)N5C([H])([H])C([H])([H])C([H])([H])C([H])(n6nc(-c7c([H])c([H])c(Oc8c([H])c([H])c(F)c([H])c8F)c([H])c7[H])c(C(=O)N([H])[H])c6N([H])[H])C5([H])[H])C5([H])C([H])([H])C([H])([H])[N+]([H])([H])C5([H])[H])C([H])([H])C([H])([H])C([H])([H])C([H])([H])C4([H])[H])C3([H])[H])c([H])c([H])c2C1([H])[H]

>  <smiles>  (90) 
[H]c1c([H])c([H])c2c(c1[H])C([H])([H])C([H])([H])C([H])([H])C2([H])N([H])C(=O)C1([H])N(C(=O)C([H])(N([H])C(=O)C([H])(N([H])C([H])([H])[H])C([H])([H])[H])C(C([H])([H])[H])(C([H])([H])[H])C([H])([H])[H])C([H])([H])c2c([H])c(OC([H])([H])C([H])(C([H])([H])[H])C3([H])C([H])([H])C([H])([H])C([H])(C4(C([H])(C([H])([H])N([H])C(=O)N5C([H])([H])C([H])([H])C([H])([H])C([H])(n6nc(-c7c([H])c([H])c(Oc8c([H])c([H])c(F)c([H])c8F)c([H])c7[H])c(C(=O)N([H])[H])c6N([H])[H])C5([H])[H])C5([H])C([H])([H])C([H])([H])[N+]([H])([H])C5([H])[H])C([H])([H])C([H])([H])C([H])([H])C([H])([H])C4([H])[H])C3([H])[H])c([H])c([H])c2C1([H])[H]

$$$$
90:0:0
     RDKit          3D

 95104  0  0  1  0  0  0  0  0999 V2000
  -27.8310  -24.4960   20.9610 C   0  0  0  0  0  2  0  0  0  0  0  0
  -29.3180  -24.1200   18.9680 C   0  0  0  0  0  2  0  0  0  0  0  0
  -28.8560  -23.7690   21.8530 C   0  0  0  0  0  2  0  0  0  0  0  0
  -30.3410  -23.4150   19.8690 C   0  0  0  0  0  2  0  0  0  0  0  0
  -28.4840  -25.1620   19.7330 C   0  0  0  0  0  3  0  0  0  0  0  0
  -29.6640  -22.7060   21.0690 C   0  0  0  0  0  3  0  0  0  0  0  0
  -27.4740  -25.8350   18.7780 C   0  0  0  0  0  2  0  0  0  0  0  0
  -27.5510  -27.2570   18.8270 O   0  0  0  0  0  0  0  0  0  0  0  0
  -25.0720  -31.6730   23.7730 C   0  0  0  0  0  0  0  0  0  0  0  0
  -26.4700  -28.0160   19.2160 C   0  0  0  0  0  0  0  0  0  0  0  0
  -23.4170  -30.9380   22.0870 C   0  0  0  0  0  3  0  0  0  0  0  0
  -24.3670  -29.7040   20.0690 C   0  0  0  0  0  0  0  0  0  0  0  0
  -25.9060  -31.0490   21.5120 C   0  0  0  0  0  2  0  0  0  0  0  0
  -25.6690  -29.9130   20.5400 C   0  0  0  0  0  0  0  0  0  0  0  0
  -26.7190  -29.0750   20.1140 C   0  0  0  0  0  3  0  0  0  0  0  0
  -25.1470  -27.8110   18.7540 C   0  0  0  0  0  3  0  0  0  0  0  0
  -24.1000  -28.6510   19.1780 C   0  0  0  0  0  3  0  0  0  0  0  0
  -23.3000  -30.6510   20.5660 C   0  0  0  0  0  2  0  0  0  0  0  0
  -24.8280  -31.2160   22.5120 N   0  0  0  0  0  0  0  0  0  0  0  0
  -24.1460  -31.9050   24.5610 O   0  0  0  0  0  0  0  0  0  0  0  0
  -22.7650  -29.7690   22.8580 C   0  0  0  0  0  0  0  0  0  0  0  0
  -21.4420  -29.6130   22.6950 N   0  0  0  0  0  0  0  0  0  0  0  0
  -23.4450  -29.0130   23.5570 O   0  0  0  0  0  0  0  0  0  0  0  0
  -20.9560  -30.2770   22.1090 H   0  0  0  0  0  0  0  0  0  0  0  0
  -18.1520  -28.1220   22.6610 C   0  0  0  0  0  0  0  0  0  0  0  0
  -20.6190  -28.5610   23.2920 C   0  0  0  0  0  3  0  0  0  0  0  0
  -20.9230  -27.1870   22.6500 C   0  0  0  0  0  2  0  0  0  0  0  0
  -19.9950  -26.8500   21.4790 C   0  0  0  0  0  2  0  0  0  0  0  0
  -18.5330  -26.8410   21.9380 C   0  0  0  0  0  2  0  0  0  0  0  0
  -19.1340  -28.9380   23.2830 C   0  0  0  0  0  0  0  0  0  0  0  0
  -18.7310  -30.1360   23.9100 C   0  0  0  0  0  3  0  0  0  0  0  0
  -17.3770  -30.5210   23.9250 C   0  0  0  0  0  3  0  0  0  0  0  0
  -16.4070  -29.7000   23.3230 C   0  0  0  0  0  3  0  0  0  0  0  0
  -16.7940  -28.5020   22.6970 C   0  0  0  0  0  3  0  0  0  0  0  0
  -26.5250  -31.9510   24.2750 C   0  0  0  0  0  3  0  0  0  0  0  0
  -26.5220  -33.2650   24.9290 N   0  0  0  0  0  0  0  0  0  0  0  0
  -27.0290  -34.3820   24.3900 C   0  0  0  0  0  0  0  0  0  0  0  0
  -27.6220  -34.3940   23.3070 O   0  0  0  0  0  0  0  0  0  0  0  0
  -26.0080  -33.3380   25.7950 H   0  0  0  0  0  0  0  0  0  0  0  0
  -25.7200  -36.5220   24.5490 C   0  0  0  0  0  1  0  0  0  0  0  0
  -26.8510  -35.6940   25.1770 C   0  0  0  0  0  3  0  0  0  0  0  0
  -29.1390  -35.8910   26.0480 C   0  0  0  0  0  1  0  0  0  0  0  0
  -28.0850  -36.5090   25.2480 N   0  0  0  0  0  0  0  0  0  0  0  0
  -27.8870  -37.4260   25.6390 H   0  0  0  0  0  0  0  0  0  0  0  0
  -27.0660  -30.8400   25.2580 C   0  0  1  0  0  0  0  0  0  0  0  0
  -26.1000  -30.5120   26.4190 C   0  0  0  0  0  1  0  0  0  0  0  0
  -27.3480  -29.5250   24.4920 C   0  0  0  0  0  1  0  0  0  0  0  0
  -28.4140  -31.2920   25.8680 C   0  0  0  0  0  1  0  0  0  0  0  0
  -30.6570  -21.9050   21.9770 C   0  0  0  0  0  3  0  0  0  0  0  0
  -30.8090  -20.4900   24.1530 C   0  0  0  0  0  1  0  0  0  0  0  0
  -29.9130  -21.0560   23.0410 C   0  0  0  0  0  2  0  0  0  0  0  0
  -31.6700  -21.0390   21.1800 C   0  0  0  0  0  2  0  0  0  0  0  0
  -31.0310  -19.9690   20.2690 C   0  0  0  0  0  2  0  0  0  0  0  0
  -33.1310  -14.7980   19.0260 C   0  0  0  0  0  0  0  0  0  0  0  0
  -32.3510  -12.5830   18.2980 C   0  0  0  0  0  2  0  0  0  0  0  0
  -31.3070  -12.7610   17.1790 C   0  0  0  0  0  2  0  0  0  0  0  0
  -29.8950  -12.9430   17.7730 C   0  0  0  0  0  2  0  0  0  0  0  0
  -29.8510  -14.0110   18.9000 C   0  0  0  0  0  3  0  0  0  0  0  0
  -30.9940  -13.7890   19.9150 C   0  0  0  0  0  2  0  0  0  0  0  0
  -32.2650  -13.7600   19.1720 N   0  0  0  0  0  0  0  0  0  0  0  0
  -34.1820  -14.7130   18.3790 O   0  0  0  0  0  0  0  0  0  0  0  0
  -31.6750  -18.1600   18.6040 C   0  0  0  0  0  2  0  0  0  0  0  0
  -31.9490  -17.6910   21.0520 C   0  0  0  0  0  2  0  0  0  0  0  0
  -32.6830  -17.0440   18.3110 C   0  0  0  0  0  2  0  0  0  0  0  0
  -32.9230  -16.5480   20.6960 C   0  0  0  0  0  2  0  0  0  0  0  0
  -31.9720  -18.7880   19.9720 C   0  0  0  0  0  3  0  0  0  0  0  0
  -32.6390  -16.0110   19.3560 N   0  0  0  0  0  0  0  0  0  0  0  0
  -27.8350  -15.1190   20.0570 C   0  0  0  0  0  0  0  0  0  0  0  0
  -26.6410  -14.6140   20.4970 C   0  0  0  0  0  0  0  0  0  0  0  0
  -26.6830  -13.2120   20.2270 C   0  0  0  0  0  0  0  0  0  0  0  0
  -28.5450  -14.0390   19.5550 N   0  0  0  0  0  0  0  0  0  0  0  0
  -27.8580  -12.8770   19.7100 N   0  0  0  0  0  0  0  0  0  0  0  0
  -25.6510  -12.1780   20.3790 C   0  0  0  0  0  0  0  0  0  0  0  0
  -25.8890  -11.0000   21.1200 C   0  0  0  0  0  3  0  0  0  0  0  0
  -24.8750  -10.0290   21.2670 C   0  0  0  0  0  3  0  0  0  0  0  0
  -23.6070  -10.2320   20.6730 C   0  0  0  0  0  0  0  0  0  0  0  0
  -23.3830  -11.3970   19.9170 C   0  0  0  0  0  3  0  0  0  0  0  0
  -24.3940  -12.3600   19.7680 C   0  0  0  0  0  3  0  0  0  0  0  0
  -22.5710   -9.3320   20.7410 O   0  0  0  0  0  0  0  0  0  0  0  0
  -22.3640   -8.5560   21.8530 C   0  0  0  0  0  0  0  0  0  0  0  0
  -22.2150   -9.1210   23.1390 C   0  0  0  0  0  3  0  0  0  0  0  0
  -21.9340   -8.2920   24.2430 C   0  0  0  0  0  3  0  0  0  0  0  0
  -21.7900   -6.9040   24.0650 C   0  0  0  0  0  0  0  0  0  0  0  0
  -21.9310   -6.3410   22.7840 C   0  0  0  0  0  3  0  0  0  0  0  0
  -22.2130   -7.1650   21.6810 C   0  0  0  0  0  0  0  0  0  0  0  0
  -22.3270   -6.6200   20.4460 F   0  0  0  0  0  0  0  0  0  0  0  0
  -21.5120   -6.1080   25.1240 F   0  0  0  0  0  0  0  0  0  0  0  0
  -25.4870  -15.3980   21.0520 C   0  0  0  0  0  0  0  0  0  0  0  0
  -24.7330  -14.8100   21.9730 N   0  0  0  0  0  0  0  0  0  0  0  0
  -25.2770  -16.5600   20.7040 O   0  0  0  0  0  0  0  0  0  0  0  0
  -24.9180  -13.8640   22.2740 H   0  0  0  0  0  0  0  0  0  0  0  0
  -23.9600  -15.3130   22.3850 H   0  0  0  0  0  0  0  0  0  0  0  0
  -28.3670  -16.4050   20.0230 N   0  0  0  0  0  0  0  0  0  0  0  0
  -27.8510  -17.2160   20.3460 H   0  0  0  0  0  0  0  0  0  0  0  0
  -29.2820  -16.6340   19.6560 H   0  0  0  0  0  0  0  0  0  0  0  0
  1  3  1  0
  2  5  1  0
  2  4  1  0
  4  6  1  0
  5  7  1  0
  5  1  1  0
  6  3  1  0
  6 49  1  0
  7  8  1  0
  8 10  1  0
  9 20  2  0
 10 15  1  0
 11 19  1  0
 11 21  1  0
 12 14  1  0
 12 18  1  0
 13 19  1  0
 14 13  1  0
 15 14  2  0
 16 17  1  0
 16 10  2  0
 17 12  2  0
 18 11  1  0
 19  9  1  0
 21 23  2  0
 22 21  1  0
 24 22  1  0
 25 34  2  0
 25 30  1  0
 26 22  1  0
 27 26  1  0
 28 29  1  0
 28 27  1  0
 29 25  1  0
 30 26  1  0
 30 31  2  0
 31 32  1  0
 33 32  2  0
 34 33  1  0
 35  9  1  0
 35 36  1  0
 35 45  1  0
 36 39  1  0
 37 36  1  0
 37 41  1  0
 38 37  2  0
 41 40  1  0
 41 43  1  0
 43 44  1  0
 43 42  1  0
 45 48  1  1
 45 46  1  0
 47 45  1  0
 49 52  1  0
 49 51  1  0
 51 50  1  0
 53 52  1  0
 54 60  1  0
 54 67  1  0
 55 60  1  0
 56 57  1  0
 56 55  1  0
 58 57  1  0
 58 71  1  0
 58 59  1  0
 60 59  1  0
 61 54  2  0
 62 66  1  0
 64 62  1  0
 64 67  1  0
 65 63  1  0
 66 53  1  0
 66 63  1  0
 67 65  1  0
 68 69  2  0
 69 88  1  0
 70 73  1  0
 70 69  1  0
 71 72  1  0
 71 68  1  0
 72 70  2  0
 73 74  1  0
 74 75  2  0
 76 79  1  0
 76 75  1  0
 77 76  2  0
 78 77  1  0
 78 73  2  0
 79 80  1  0
 80 81  1  0
 81 82  2  0
 83 82  1  0
 83 87  1  0
 84 83  2  0
 85 80  2  0
 85 84  1  0
 86 85  1  0
 88 89  1  0
 89 91  1  0
 89 92  1  0
 90 88  2  0
 93 68  1  0
 93 94  1  0
 95 93  1  0
M  ISO  4   7 101   8 101  54 100  67 100
M  END
>  <TORSDO>  (91) 
F 21

>  <SCORE>  (91) 
-7.848

>  <name>  (91) 
90

>  <ligand_id>  (91) 
90

>  <original_smiles>  (91) 
[H]c1c([H])c([H])c2c(c1[H])C([H])([H])C([H])([H])C([H])([H])C2([H])N([H])C(=O)C1([H])N(C(=O)C([H])(N([H])C(=O)C([H])(N([H])C([H])([H])[H])C([H])([H])[H])C(C([H])([H])[H])(C([H])([H])[H])C([H])([H])[H])C([H])([H])c2c([H])c(OC([H])([H])C3([H])C([H])([H])C([H])([H])C([H])(C([H])(C([H])([H])C([H])([H])[H])C([H])([H])C([H])([H])C4([H])C([H])([H])C([H])([H])N(C(=O)N5C([H])([H])C([H])([H])C([H])([H])C([H])(n6nc(-c7c([H])c([H])c(Oc8c([H])c([H])c(F)c([H])c8F)c([H])c7[H])c(C(=O)N([H])[H])c6N([H])[H])C5([H])[H])C([H])([H])C4([H])[H])C([H])([H])C3([H])[H])c([H])c([H])c2C1([H])[H]

>  <smiles>  (91) 
[H]c1c([H])c([H])c2c(c1[H])C([H])([H])C([H])([H])C([H])([H])C2([H])N([H])C(=O)C1([H])N(C(=O)C([H])(N([H])C(=O)C([H])(N([H])C([H])([H])[H])C([H])([H])[H])C(C([H])([H])[H])(C([H])([H])[H])C([H])([H])[H])C([H])([H])c2c([H])c(OC([H])([H])C3([H])C([H])([H])C([H])([H])C([H])(C([H])(C([H])([H])C([H])([H])[H])C([H])([H])C([H])([H])C4([H])C([H])([H])C([H])([H])N(C(=O)N5C([H])([H])C([H])([H])C([H])([H])C([H])(n6nc(-c7c([H])c([H])c(Oc8c([H])c([H])c(F)c([H])c8F)c([H])c7[H])c(C(=O)N([H])[H])c6N([H])[H])C5([H])[H])C([H])([H])C4([H])[H])C([H])([H])C3([H])[H])c([H])c([H])c2C1([H])[H]

$$$$
91:0:0
     RDKit          3D

 97106  0  0  1  0  0  0  0  0999 V2000
  -28.6570  -17.5090   19.8250 C   0  0  0  0  0  2  0  0  0  0  0  0
  -30.1890  -19.2080   20.8540 C   0  0  0  0  0  2  0  0  0  0  0  0
  -28.0940  -18.7350   19.0620 C   0  0  0  0  0  2  0  0  0  0  0  0
  -30.0170  -20.2000   19.6630 C   0  0  0  0  0  3  0  0  0  0  0  0
  -30.0630  -17.7280   20.4220 C   0  0  0  0  0  3  0  0  0  0  0  0
  -29.1690  -19.6360   18.5510 N   0  0  2  0  0  4  0  0  0  0  0  0
  -29.7890  -18.9970   18.0740 H   0  0  0  0  0  0  0  0  0  0  0  0
  -30.4790  -22.7210   19.8900 C   0  0  0  0  0  3  0  0  0  0  0  0
  -28.3780  -21.8750   20.7610 C   0  0  0  0  0  3  0  0  0  0  0  0
  -30.1100  -24.0330   20.2630 C   0  0  0  0  0  3  0  0  0  0  0  0
  -28.0090  -23.1860   21.1330 C   0  0  0  0  0  3  0  0  0  0  0  0
  -29.6160  -21.6230   20.1220 C   0  0  0  0  0  0  0  0  0  0  0  0
  -28.8680  -24.2790   20.8860 C   0  0  0  0  0  0  0  0  0  0  0  0
  -28.4920  -25.6830   21.3620 C   0  0  0  0  0  2  0  0  0  0  0  0
  -28.4570  -26.6670   20.3210 O   0  0  0  0  0  0  0  0  0  0  0  0
  -24.5860  -31.8730   23.2880 C   0  0  0  0  0  0  0  0  0  0  0  0
  -27.3040  -27.4170   20.3090 C   0  0  0  0  0  0  0  0  0  0  0  0
  -23.4160  -30.4520   21.6360 C   0  0  0  0  0  3  0  0  0  0  0  0
  -24.9040  -28.9020   20.2580 C   0  0  0  0  0  0  0  0  0  0  0  0
  -25.9430  -30.8180   21.4850 C   0  0  0  0  0  2  0  0  0  0  0  0
  -26.0470  -29.4390   20.8640 C   0  0  0  0  0  0  0  0  0  0  0  0
  -27.2530  -28.7030   20.8900 C   0  0  0  0  0  3  0  0  0  0  0  0
  -26.1490  -26.8870   19.7000 C   0  0  0  0  0  3  0  0  0  0  0  0
  -24.9490  -27.6220   19.6740 C   0  0  0  0  0  3  0  0  0  0  0  0
  -23.6560  -29.7550   20.2680 C   0  0  0  0  0  2  0  0  0  0  0  0
  -24.6650  -31.0620   22.1950 N   0  0  0  0  0  0  0  0  0  0  0  0
  -23.4950  -32.1480   23.8060 O   0  0  0  0  0  0  0  0  0  0  0  0
  -22.7490  -29.4390   22.5940 C   0  0  0  0  0  0  0  0  0  0  0  0
  -21.4270  -29.2550   22.4450 N   0  0  0  0  0  0  0  0  0  0  0  0
  -23.4180  -28.8210   23.4260 O   0  0  0  0  0  0  0  0  0  0  0  0
  -20.9500  -29.8030   21.7430 H   0  0  0  0  0  0  0  0  0  0  0  0
  -18.0410  -28.0800   22.9000 C   0  0  0  0  0  0  0  0  0  0  0  0
  -20.5960  -28.3250   23.2080 C   0  0  0  0  0  3  0  0  0  0  0  0
  -20.6990  -26.8910   22.6400 C   0  0  0  0  0  2  0  0  0  0  0  0
  -19.6110  -26.5710   21.6100 C   0  0  0  0  0  2  0  0  0  0  0  0
  -18.2200  -26.7280   22.2320 C   0  0  0  0  0  2  0  0  0  0  0  0
  -19.1570  -28.8380   23.3440 C   0  0  0  0  0  0  0  0  0  0  0  0
  -18.9380  -30.1050   23.9250 C   0  0  0  0  0  3  0  0  0  0  0  0
  -17.6330  -30.6140   24.0700 C   0  0  0  0  0  3  0  0  0  0  0  0
  -16.5320  -29.8540   23.6440 C   0  0  0  0  0  3  0  0  0  0  0  0
  -16.7350  -28.5890   23.0640 C   0  0  0  0  0  3  0  0  0  0  0  0
  -25.8600  -32.5120   23.9280 C   0  0  0  0  0  3  0  0  0  0  0  0
  -26.3490  -31.7590   25.2250 C   0  0  1  0  0  0  0  0  0  0  0  0
  -25.2340  -31.5410   26.2740 C   0  0  0  0  0  1  0  0  0  0  0  0
  -26.9360  -30.3740   24.8640 C   0  0  0  0  0  1  0  0  0  0  0  0
  -27.4890  -32.5590   25.8980 C   0  0  0  0  0  1  0  0  0  0  0  0
  -25.5480  -33.9150   24.2270 N   0  0  0  0  0  0  0  0  0  0  0  0
  -25.8980  -34.9530   23.4550 C   0  0  0  0  0  0  0  0  0  0  0  0
  -26.5890  -34.8310   22.4400 O   0  0  0  0  0  0  0  0  0  0  0  0
  -24.9370  -34.0850   25.0110 H   0  0  0  0  0  0  0  0  0  0  0  0
  -24.1800  -36.7390   23.0270 C   0  0  0  0  0  1  0  0  0  0  0  0
  -25.4010  -36.3490   23.8770 C   0  0  0  0  0  3  0  0  0  0  0  0
  -27.5180  -37.2420   24.7410 C   0  0  0  0  0  1  0  0  0  0  0  0
  -26.4360  -37.4000   23.7730 N   0  0  0  0  0  0  0  0  0  0  0  0
  -26.0270  -38.3210   23.9060 H   0  0  0  0  0  0  0  0  0  0  0  0
  -27.7400  -20.0570   16.4650 C   0  0  0  0  0  1  0  0  0  0  0  0
  -29.9940  -21.1070   16.6770 C   0  0  0  0  0  1  0  0  0  0  0  0
  -28.7670  -20.6120   17.4770 C   0  0  0  0  0  3  0  0  0  0  0  0
  -30.4090  -16.7260   21.5600 C   0  0  0  0  0  2  0  0  0  0  0  0
  -30.6710  -14.4030   20.5900 C   0  0  0  0  0  0  0  0  0  0  0  0
  -30.3630  -12.2900   19.3480 C   0  0  0  0  0  2  0  0  0  0  0  0
  -29.4250  -12.5340   18.1480 C   0  0  0  0  0  2  0  0  0  0  0  0
  -27.9470  -12.3980   18.5670 C   0  0  0  0  0  2  0  0  0  0  0  0
  -27.6120  -13.2050   19.8500 C   0  0  0  0  0  3  0  0  0  0  0  0
  -28.6580  -12.9270   20.9530 C   0  0  0  0  0  2  0  0  0  0  0  0
  -29.9910  -13.2400   20.4070 N   0  0  0  0  0  0  0  0  0  0  0  0
  -31.7720  -14.6350   20.0820 O   0  0  0  0  0  0  0  0  0  0  0  0
  -30.0050  -15.3410   21.2830 N   0  0  0  0  0  0  0  0  0  0  0  0
  -29.1120  -15.0510   21.6530 H   0  0  0  0  0  0  0  0  0  0  0  0
  -25.2060  -13.8250   20.5270 C   0  0  0  0  0  0  0  0  0  0  0  0
  -24.1310  -13.0580   20.8870 C   0  0  0  0  0  0  0  0  0  0  0  0
  -24.5880  -11.7050   20.8650 C   0  0  0  0  0  0  0  0  0  0  0  0
  -26.2510  -12.9390   20.3120 N   0  0  0  0  0  0  0  0  0  0  0  0
  -25.8810  -11.6590   20.5710 N   0  0  0  0  0  0  0  0  0  0  0  0
  -23.8560  -10.4460   21.0510 C   0  0  0  0  0  0  0  0  0  0  0  0
  -24.2740   -9.4800   21.9930 C   0  0  0  0  0  3  0  0  0  0  0  0
  -23.5430   -8.2850   22.1670 C   0  0  0  0  0  3  0  0  0  0  0  0
  -22.3790   -8.0480   21.3970 C   0  0  0  0  0  0  0  0  0  0  0  0
  -21.9800   -9.0010   20.4450 C   0  0  0  0  0  3  0  0  0  0  0  0
  -22.7120  -10.1880   20.2700 C   0  0  0  0  0  3  0  0  0  0  0  0
  -21.6210   -6.9040   21.4800 O   0  0  0  0  0  0  0  0  0  0  0  0
  -21.5540   -6.1660   22.6350 C   0  0  0  0  0  0  0  0  0  0  0  0
  -21.1080   -6.7270   23.8510 C   0  0  0  0  0  3  0  0  0  0  0  0
  -20.9890   -5.9150   24.9980 C   0  0  0  0  0  3  0  0  0  0  0  0
  -21.3030   -4.5450   24.9280 C   0  0  0  0  0  0  0  0  0  0  0  0
  -21.7420   -3.9840   23.7150 C   0  0  0  0  0  3  0  0  0  0  0  0
  -21.8640   -4.7930   22.5720 C   0  0  0  0  0  0  0  0  0  0  0  0
  -22.2660   -4.2440   21.4000 F   0  0  0  0  0  0  0  0  0  0  0  0
  -21.1810   -3.7640   26.0260 F   0  0  0  0  0  0  0  0  0  0  0  0
  -22.7330  -13.5410   21.1450 C   0  0  0  0  0  0  0  0  0  0  0  0
  -21.9930  -12.8480   22.0040 N   0  0  0  0  0  0  0  0  0  0  0  0
  -22.3040  -14.5680   20.6200 O   0  0  0  0  0  0  0  0  0  0  0  0
  -22.3510  -12.0160   22.4490 H   0  0  0  0  0  0  0  0  0  0  0  0
  -21.0540  -13.1530   22.2170 H   0  0  0  0  0  0  0  0  0  0  0  0
  -25.3780  -15.1950   20.3470 N   0  0  0  0  0  0  0  0  0  0  0  0
  -24.6130  -15.8510   20.4410 H   0  0  0  0  0  0  0  0  0  0  0  0
  -26.2360  -15.6250   20.0300 H   0  0  0  0  0  0  0  0  0  0  0  0
  1  5  1  0
  3  1  1  0
  4 12  1  0
  4  2  1  0
  5  2  1  0
  5 59  1  0
  6  3  1  0
  6  4  1  0
  6  7  1  6
  8 12  2  0
  8 10  1  0
  9 11  2  0
 10 13  2  0
 12  9  1  0
 13 11  1  0
 13 14  1  0
 15 14  1  0
 16 27  2  0
 17 15  1  0
 17 22  1  0
 18 26  1  0
 18 28  1  0
 19 25  1  0
 19 21  1  0
 20 26  1  0
 21 22  2  0
 21 20  1  0
 23 17  2  0
 24 23  1  0
 24 19  2  0
 25 18  1  0
 26 16  1  0
 28 30  2  0
 29 28  1  0
 31 29  1  0
 32 41  2  0
 32 37  1  0
 33 29  1  0
 33 37  1  0
 34 33  1  0
 35 36  1  0
 35 34  1  0
 36 32  1  0
 37 38  2  0
 38 39  1  0
 40 39  2  0
 41 40  1  0
 42 16  1  0
 42 47  1  0
 42 43  1  0
 43 46  1  1
 43 44  1  0
 45 43  1  0
 47 50  1  0
 48 52  1  0
 48 47  1  0
 49 48  2  0
 52 51  1  0
 54 52  1  0
 54 55  1  0
 54 53  1  0
 56 58  1  0
 57 58  1  0
 58  6  1  0
 60 68  1  0
 61 66  1  0
 62 63  1  0
 62 61  1  0
 64 63  1  0
 64 73  1  0
 64 65  1  0
 66 60  1  0
 66 65  1  0
 67 60  2  0
 68 59  1  0
 68 69  1  0
 70 71  2  0
 71 90  1  0
 72 71  1  0
 72 75  1  0
 73 70  1  0
 73 74  1  0
 74 72  2  0
 75 76  1  0
 76 77  2  0
 78 81  1  0
 78 77  1  0
 79 78  2  0
 80 79  1  0
 80 75  2  0
 81 82  1  0
 82 83  1  0
 83 84  2  0
 85 84  1  0
 85 89  1  0
 86 85  2  0
 87 82  2  0
 87 86  1  0
 88 87  1  0
 90 91  1  0
 91 94  1  0
 91 93  1  0
 92 90  2  0
 95 96  1  0
 95 70  1  0
 97 95  1  0
M  ISO  4  14 101  15 101  60 100  68 100
M  END
>  <TORSDO>  (92) 
F 20

>  <SCORE>  (92) 
-14.139

>  <name>  (92) 
91

>  <ligand_id>  (92) 
91

>  <original_smiles>  (92) 
[H]c1c([H])c([H])c2c(c1[H])C([H])([H])C([H])([H])C([H])([H])C2([H])N([H])C(=O)C1([H])N(C(=O)C([H])(N([H])C(=O)C([H])(N([H])C([H])([H])[H])C([H])([H])[H])C(C([H])([H])[H])(C([H])([H])[H])C([H])([H])[H])C([H])([H])c2c([H])c(OC([H])([H])c3c([H])c([H])c(C4([H])C([H])([H])C([H])(C([H])([H])N([H])C(=O)N5C([H])([H])C([H])([H])C([H])([H])C([H])(n6nc(-c7c([H])c([H])c(Oc8c([H])c([H])c(F)c([H])c8F)c([H])c7[H])c(C(=O)N([H])[H])c6N([H])[H])C5([H])[H])C([H])([H])C([H])([H])[N+]4([H])C([H])(C([H])([H])[H])C([H])([H])[H])c([H])c3[H])c([H])c([H])c2C1([H])[H]

>  <smiles>  (92) 
[H]c1c([H])c([H])c2c(c1[H])C([H])([H])C([H])([H])C([H])([H])C2([H])N([H])C(=O)C1([H])N(C(=O)C([H])(N([H])C(=O)C([H])(N([H])C([H])([H])[H])C([H])([H])[H])C(C([H])([H])[H])(C([H])([H])[H])C([H])([H])[H])C([H])([H])c2c([H])c(OC([H])([H])c3c([H])c([H])c(C4([H])C([H])([H])C([H])(C([H])([H])N([H])C(=O)N5C([H])([H])C([H])([H])C([H])([H])C([H])(n6nc(-c7c([H])c([H])c(Oc8c([H])c([H])c(F)c([H])c8F)c([H])c7[H])c(C(=O)N([H])[H])c6N([H])[H])C5([H])[H])C([H])([H])C([H])([H])[N+]4([H])C([H])(C([H])([H])[H])C([H])([H])[H])c([H])c3[H])c([H])c([H])c2C1([H])[H]

$$$$
92:0:0
     RDKit          3D

 97101  0  0  1  0  0  0  0  0999 V2000
  -23.7660  -25.4290   23.6980 C   0  0  0  0  0  3  0  0  0  0  0  0
  -25.5900  -26.4390   24.0160 C   0  0  0  0  0  2  0  0  0  0  0  0
  -23.0200  -26.5000   24.5330 C   0  0  0  0  0  3  0  0  0  0  0  0
  -24.7950  -27.4630   24.9110 C   0  0  0  0  0  2  0  0  0  0  0  0
  -25.1700  -25.2660   23.1640 C   0  0  0  0  0  2  0  0  0  0  0  0
  -23.3180  -27.9110   25.0460 C   0  0  0  0  0  3  0  0  0  0  0  0
  -25.0130  -22.6120   22.4960 C   0  0  0  0  0  2  0  0  0  0  0  0
  -24.8580  -23.2280   21.1300 C   0  0  0  0  0  2  0  0  0  0  0  0
  -25.8930  -23.7760   22.0900 C   0  0  0  0  0  3  0  0  0  0  0  0
  -27.3780  -22.9790   21.4080 N   0  0  0  0  0  4  0  0  0  0  0  0
  -28.0090  -23.0650   22.1900 H   0  0  0  0  0  0  0  0  0  0  0  0
  -27.7440  -23.6390   20.7340 H   0  0  0  0  0  0  0  0  0  0  0  0
  -27.8520  -21.3320   20.7570 C   0  0  0  0  0  1  0  0  0  0  0  0
  -30.4850  -20.8520   21.4570 C   0  0  0  0  0  1  0  0  0  0  0  0
  -29.4610  -20.1130   20.5870 C   0  0  0  0  0  2  0  0  0  0  0  0
  -31.1580  -17.1710   20.8500 C   0  0  0  0  0  0  0  0  0  0  0  0
  -31.9450  -14.5450   20.7410 C   0  0  0  0  0  2  0  0  0  0  0  0
  -31.5140  -13.6590   19.5180 C   0  0  0  0  0  2  0  0  0  0  0  0
  -30.0430  -13.2370   19.6380 C   0  0  0  0  0  2  0  0  0  0  0  0
  -29.2130  -14.4310   20.1450 C   0  0  0  0  0  3  0  0  0  0  0  0
  -29.7610  -15.0710   21.4270 C   0  0  0  0  0  2  0  0  0  0  0  0
  -30.9770  -15.7300   21.0180 N   0  0  0  0  0  0  0  0  0  0  0  0
  -32.4140  -17.3030   20.7580 O   0  0  0  0  0  0  0  0  0  0  0  0
  -30.0800  -18.3560   20.6840 N   0  0  0  0  0  0  0  0  0  0  0  0
  -30.9200  -18.7620   20.2900 H   0  0  0  0  0  0  0  0  0  0  0  0
  -26.7790  -15.0490   20.2960 C   0  0  0  0  0  0  0  0  0  0  0  0
  -25.6550  -14.3060   20.5140 C   0  0  0  0  0  0  0  0  0  0  0  0
  -26.1000  -12.9590   20.7030 C   0  0  0  0  0  0  0  0  0  0  0  0
  -27.8200  -14.1460   20.3350 N   0  0  0  0  0  0  0  0  0  0  0  0
  -27.4210  -12.8930   20.6540 N   0  0  0  0  0  0  0  0  0  0  0  0
  -25.3370  -11.7200   20.8630 C   0  0  0  0  0  0  0  0  0  0  0  0
  -25.5070  -10.8870   21.9890 C   0  0  0  0  0  3  0  0  0  0  0  0
  -24.7440   -9.7080   22.1220 C   0  0  0  0  0  3  0  0  0  0  0  0
  -23.8020   -9.3590   21.1260 C   0  0  0  0  0  0  0  0  0  0  0  0
  -23.6570  -10.1810   19.9960 C   0  0  0  0  0  3  0  0  0  0  0  0
  -24.4200  -11.3510   19.8620 C   0  0  0  0  0  3  0  0  0  0  0  0
  -23.0320   -8.2220   21.1600 O   0  0  0  0  0  0  0  0  0  0  0  0
  -22.4940   -7.7540   22.3290 C   0  0  0  0  0  0  0  0  0  0  0  0
  -21.6740   -8.5610   23.1480 C   0  0  0  0  0  3  0  0  0  0  0  0
  -21.0840   -8.0170   24.3070 C   0  0  0  0  0  3  0  0  0  0  0  0
  -21.3020   -6.6660   24.6410 C   0  0  0  0  0  0  0  0  0  0  0  0
  -22.1120   -5.8590   23.8220 C   0  0  0  0  0  3  0  0  0  0  0  0
  -22.7030   -6.4010   22.6680 C   0  0  0  0  0  0  0  0  0  0  0  0
  -23.4650   -5.6150   21.8710 F   0  0  0  0  0  0  0  0  0  0  0  0
  -20.7280   -6.1400   25.7490 F   0  0  0  0  0  0  0  0  0  0  0  0
  -24.2470  -14.8090   20.4550 C   0  0  0  0  0  0  0  0  0  0  0  0
  -23.3670  -14.2510   21.2770 N   0  0  0  0  0  0  0  0  0  0  0  0
  -23.9320  -15.7390   19.7120 O   0  0  0  0  0  0  0  0  0  0  0  0
  -23.6330  -13.5030   21.9010 H   0  0  0  0  0  0  0  0  0  0  0  0
  -22.4110  -14.5770   21.2880 H   0  0  0  0  0  0  0  0  0  0  0  0
  -27.0140  -16.4010   20.0520 N   0  0  0  0  0  0  0  0  0  0  0  0
  -26.2710  -17.0850   19.9570 H   0  0  0  0  0  0  0  0  0  0  0  0
  -27.9360  -16.7980   19.9320 H   0  0  0  0  0  0  0  0  0  0  0  0
  -22.4680  -29.4990   24.7550 O   0  0  0  0  0  1  0  0  0  0  0  0
  -21.5980  -30.4530   22.9830 C   0  0  0  0  0 15  0  0  0  0  0  0
  -21.9890  -29.5480   20.9610 C   0  0  0  0  0 15  0  0  0  0  0  0
  -23.5090  -28.5100   20.3810 O   0  0  0  0  0  1  0  0  0  0  0  0
  -25.5330  -32.0990   23.9260 C   0  0  0  0  0  0  0  0  0  0  0  0
  -24.8060  -28.5690   19.6530 C   0  0  0  0  0  3  0  0  0  0  0  0
  -23.9170  -30.9280   22.5100 C   0  0  0  0  0  3  0  0  0  0  0  0
  -24.2410  -30.9790   20.0190 C   0  0  0  0  0  3  0  0  0  0  0  0
  -26.1370  -31.4150   21.5810 C   0  0  0  0  0  2  0  0  0  0  0  0
  -25.5230  -30.6290   20.4520 C   0  0  0  0  0  3  0  0  0  0  0  0
  -25.9220  -29.3370   20.1250 C   0  0  0  0  0  2  0  0  0  0  0  0
  -24.3310  -29.0730   18.4890 C   0  0  0  0  0  2  0  0  0  0  0  0
  -23.7140  -30.2890   18.8680 C   0  0  0  0  0  2  0  0  0  0  0  0
  -23.4920  -31.6770   21.1390 C   0  0  0  0  0  2  0  0  0  0  0  0
  -25.2300  -31.4920   22.7500 N   0  0  0  0  0  0  0  0  0  0  0  0
  -24.7140  -32.3480   24.8260 O   0  0  0  0  0  0  0  0  0  0  0  0
  -23.8180  -29.2050   22.7850 C   0  0  0  0  0  0  0  0  0  0  0  0
  -22.6610  -28.0930   22.4090 N   0  0  0  0  0  0  0  0  0  0  0  0
  -24.7390  -28.9520   23.4480 O   0  0  0  0  0  0  0  0  0  0  0  0
  -23.0640  -27.2160   22.1530 H   0  0  0  0  0  0  0  0  0  0  0  0
  -18.0870  -28.6370   22.7900 C   0  0  0  0  0  0  0  0  0  0  0  0
  -20.7870  -27.9340   22.6640 C   0  0  0  0  0  3  0  0  0  0  0  0
  -20.3950  -27.0100   21.6260 C   0  0  0  0  0  2  0  0  0  0  0  0
  -19.2030  -27.5330   20.8950 C   0  0  0  0  0  2  0  0  0  0  0  0
  -17.9830  -27.5230   21.8020 C   0  0  0  0  0  2  0  0  0  0  0  0
  -19.4090  -28.9700   23.2490 C   0  0  0  0  0  0  0  0  0  0  0  0
  -19.2960  -30.1570   24.1180 C   0  0  0  0  0  3  0  0  0  0  0  0
  -18.0750  -30.8630   24.4500 C   0  0  0  0  0  3  0  0  0  0  0  0
  -16.8270  -30.3970   23.9820 C   0  0  0  0  0  3  0  0  0  0  0  0
  -16.8560  -29.2840   23.1380 C   0  0  0  0  0  3  0  0  0  0  0  0
  -27.0070  -32.4190   24.1880 C   0  0  0  0  0  3  0  0  0  0  0  0
  -27.0680  -33.7970   24.6760 N   0  0  0  0  0  0  0  0  0  0  0  0
  -27.3910  -34.8520   23.9230 C   0  0  0  0  0  0  0  0  0  0  0  0
  -27.7480  -34.7600   22.7440 O   0  0  0  0  0  0  0  0  0  0  0  0
  -26.7680  -33.9600   25.6250 H   0  0  0  0  0  0  0  0  0  0  0  0
  -26.1280  -37.0190   24.0970 C   0  0  0  0  0  1  0  0  0  0  0  0
  -27.3530  -36.2380   24.5930 C   0  0  0  0  0  3  0  0  0  0  0  0
  -29.7540  -36.4850   25.0570 C   0  0  0  0  0  1  0  0  0  0  0  0
  -28.5790  -37.0330   24.3800 N   0  0  0  0  0  0  0  0  0  0  0  0
  -28.4450  -37.9970   24.6770 H   0  0  0  0  0  0  0  0  0  0  0  0
  -27.6290  -31.4110   25.2250 C   0  0  1  0  0  0  0  0  0  0  0  0
  -26.7740  -31.2210   26.5040 C   0  0  0  0  0  1  0  0  0  0  0  0
  -27.8860  -30.0190   24.6090 C   0  0  0  0  0  1  0  0  0  0  0  0
  -29.0240  -31.9430   25.6160 C   0  0  0  0  0  1  0  0  0  0  0  0
  1  3  2  0
  2  4  1  0
  3  6  1  0
  4  6  1  0
  5  1  1  0
  5  2  1  0
  6 54  1  0
  8  9  1  0
  8  7  1  0
  9  7  1  0
 10  9  1  0
 10 11  1  0
 12 10  1  0
 13 10  1  0
 15 24  1  0
 15 14  1  0
 16 22  1  0
 17 22  1  0
 18 19  1  0
 18 17  1  0
 20 19  1  0
 20 29  1  0
 20 21  1  0
 22 21  1  0
 23 16  2  0
 24 16  1  0
 25 24  1  0
 26 29  1  0
 26 27  2  0
 27 28  1  0
 28 31  1  0
 29 30  1  0
 30 28  2  0
 31 32  1  0
 32 33  2  0
 34 37  1  0
 34 33  1  0
 35 34  2  0
 36 35  1  0
 36 31  2  0
 37 38  1  0
 38 43  2  0
 38 39  1  0
 39 40  2  0
 40 41  1  0
 41 45  1  0
 42 41  2  0
 43 42  1  0
 44 43  1  0
 46 27  1  0
 46 47  1  0
 47 50  1  0
 47 49  1  0
 48 46  2  0
 51 26  1  0
 52 51  1  0
 53 51  1  0
 58 69  2  0
 59 64  1  0
 59 57  1  0
 60 68  1  0
 60 70  1  0
 61 66  1  0
 61 63  1  0
 61 67  1  0
 62 68  1  0
 63 64  1  0
 63 62  1  0
 65 66  1  0
 65 59  1  0
 67 60  1  0
 68 58  1  0
 70 72  2  0
 71 70  1  0
 73 71  1  0
 74 83  2  0
 74 79  1  0
 75 71  1  0
 75 79  1  0
 76 75  1  0
 77 76  1  0
 77 78  1  0
 78 74  1  0
 79 80  2  0
 80 81  1  0
 82 81  2  0
 83 82  1  0
 84 58  1  0
 84 85  1  0
 84 94  1  0
 85 88  1  0
 86 90  1  0
 86 85  1  0
 87 86  2  0
 90 89  1  0
 92 90  1  0
 92 93  1  0
 92 91  1  0
 94 97  1  1
 94 95  1  0
 96 94  1  0
M  ISO  4  16 100  24 100  56 101  57 101
M  END
>  <TORSDO>  (93) 
F 23

>  <SCORE>  (93) 
-7.045

>  <name>  (93) 
92

>  <ligand_id>  (93) 
92

>  <original_smiles>  (93) 
[H]c1c([H])c([H])c2c(c1[H])C([H])([H])C([H])([H])C([H])([H])C2([H])N([H])C(=O)C1([H])N(C(=O)C([H])(N([H])C(=O)C([H])(N([H])C([H])([H])[H])C([H])([H])[H])C(C([H])([H])[H])(C([H])([H])[H])C([H])([H])[H])C([H])([H])c2c([H])c(OC([H])([H])C([H])([H])Oc3c([H])c([H])c(C4([N+]([H])([H])C([H])([H])C([H])(N([H])C(=O)N5C([H])([H])C([H])([H])C([H])([H])C([H])(n6nc(-c7c([H])c([H])c(Oc8c([H])c([H])c(F)c([H])c8F)c([H])c7[H])c(C(=O)N([H])[H])c6N([H])[H])C5([H])[H])C([H])([H])[H])C([H])([H])C4([H])[H])c([H])c3[H])c([H])c([H])c2C1([H])[H]

>  <smiles>  (93) 
[H]c1c([H])c([H])c2c(c1[H])C([H])([H])C([H])([H])C([H])([H])C2([H])N([H])C(=O)C1([H])N(C(=O)C([H])(N([H])C(=O)C([H])(N([H])C([H])([H])[H])C([H])([H])[H])C(C([H])([H])[H])(C([H])([H])[H])C([H])([H])[H])C([H])([H])c2c([H])c(OC([H])([H])C([H])([H])Oc3c([H])c([H])c(C4([N+]([H])([H])C([H])([H])C([H])(N([H])C(=O)N5C([H])([H])C([H])([H])C([H])([H])C([H])(n6nc(-c7c([H])c([H])c(Oc8c([H])c([H])c(F)c([H])c8F)c([H])c7[H])c(C(=O)N([H])[H])c6N([H])[H])C5([H])[H])C([H])([H])[H])C([H])([H])C4([H])[H])c([H])c3[H])c([H])c([H])c2C1([H])[H]

$$$$
93:0:0
     RDKit          3D

101110  0  0  1  0  0  0  0  0999 V2000
  -28.2770  -23.7000   21.7600 C   0  0  0  0  0  2  0  0  0  0  0  0
  -30.2380  -22.7600   20.4670 C   0  0  0  0  0  2  0  0  0  0  0  0
  -29.0360  -25.0340   21.5760 C   0  0  0  0  0  2  0  0  0  0  0  0
  -29.7580  -23.8590   19.4960 C   0  0  0  0  0  2  0  0  0  0  0  0
  -29.2260  -22.4830   21.6150 C   0  0  0  0  0  3  0  0  0  0  0  0
  -29.5580  -25.1720   20.1830 N   0  0  2  0  0  4  0  0  0  0  0  0
  -28.8130  -25.6050   19.6560 H   0  0  0  0  0  0  0  0  0  0  0  0
  -28.4080  -21.1640   21.4770 C   0  0  0  0  0  2  0  0  0  0  0  0
  -29.1580  -19.9370   21.8480 N   0  0  0  0  0  4  0  0  0  0  0  0
  -28.4840  -19.2300   22.1010 H   0  0  0  0  0  0  0  0  0  0  0  0
  -29.7010  -20.1190   22.6790 H   0  0  0  0  0  0  0  0  0  0  0  0
  -30.0050  -19.3610   20.7750 C   0  0  0  0  0  2  0  0  0  0  0  0
  -31.3040  -18.7140   21.3150 C   0  0  0  0  0  2  0  0  0  0  0  0
  -32.7390  -17.1050   18.5470 C   0  0  0  0  0  3  0  0  0  0  0  0
  -32.0430  -16.3780   20.5290 C   0  0  0  0  0  3  0  0  0  0  0  0
  -32.5850  -15.9390   19.3490 C   0  0  0  0  0  0  0  0  0  0  0  0
  -32.3410  -18.1920   19.1890 N   0  0  0  0  0  0  0  0  0  0  0  0
  -31.8810  -17.7500   20.3860 N   0  0  0  0  0  0  0  0  0  0  0  0
  -33.5310  -13.6820   19.5620 C   0  0  0  0  0  0  0  0  0  0  0  0
  -32.9980  -11.2820   19.7050 C   0  0  0  0  0  2  0  0  0  0  0  0
  -31.9960  -10.9310   18.5830 C   0  0  0  0  0  2  0  0  0  0  0  0
  -30.5410  -11.2370   19.0020 C   0  0  0  0  0  2  0  0  0  0  0  0
  -30.3700  -12.6300   19.6710 C   0  0  0  0  0  3  0  0  0  0  0  0
  -31.4680  -12.8490   20.7370 C   0  0  0  0  0  2  0  0  0  0  0  0
  -32.7700  -12.6850   20.0840 N   0  0  0  0  0  0  0  0  0  0  0  0
  -34.7130  -13.5200   19.2440 O   0  0  0  0  0  0  0  0  0  0  0  0
  -32.8630  -14.4790   17.4250 C   0  0  0  0  0  1  0  0  0  0  0  0
  -32.7940  -14.6050   18.8870 N   0  0  0  0  0  0  0  0  0  0  0  0
  -28.4160  -13.9570   20.6770 C   0  0  0  0  0  0  0  0  0  0  0  0
  -27.1400  -13.5890   21.0180 C   0  0  0  0  0  0  0  0  0  0  0  0
  -27.0460  -12.1900   20.7480 C   0  0  0  0  0  0  0  0  0  0  0  0
  -29.0320  -12.8020   20.2280 N   0  0  0  0  0  0  0  0  0  0  0  0
  -28.2140  -11.7210   20.3240 N   0  0  0  0  0  0  0  0  0  0  0  0
  -25.8960  -11.2820   20.8050 C   0  0  0  0  0  0  0  0  0  0  0  0
  -25.9400  -10.0890   21.5580 C   0  0  0  0  0  3  0  0  0  0  0  0
  -24.8150   -9.2370   21.6120 C   0  0  0  0  0  3  0  0  0  0  0  0
  -23.6330   -9.5780   20.9160 C   0  0  0  0  0  0  0  0  0  0  0  0
  -23.6020  -10.7600   20.1530 C   0  0  0  0  0  3  0  0  0  0  0  0
  -24.7230  -11.6040   20.0940 C   0  0  0  0  0  3  0  0  0  0  0  0
  -22.5010   -8.8010   20.8950 O   0  0  0  0  0  0  0  0  0  0  0  0
  -22.1320   -8.0350   21.9740 C   0  0  0  0  0  0  0  0  0  0  0  0
  -21.9220   -8.6020   23.2490 C   0  0  0  0  0  3  0  0  0  0  0  0
  -21.4700   -7.7950   24.3120 C   0  0  0  0  0  3  0  0  0  0  0  0
  -21.2240   -6.4270   24.1060 C   0  0  0  0  0  0  0  0  0  0  0  0
  -21.4310   -5.8580   22.8350 C   0  0  0  0  0  3  0  0  0  0  0  0
  -21.8800   -6.6610   21.7730 C   0  0  0  0  0  0  0  0  0  0  0  0
  -22.0540   -6.1130   20.5460 F   0  0  0  0  0  0  0  0  0  0  0  0
  -20.7870   -5.6560   25.1280 F   0  0  0  0  0  0  0  0  0  0  0  0
  -26.0430  -14.5010   21.4830 C   0  0  0  0  0  0  0  0  0  0  0  0
  -25.1390  -14.0130   22.3250 N   0  0  0  0  0  0  0  0  0  0  0  0
  -26.0100  -15.6780   21.1330 O   0  0  0  0  0  0  0  0  0  0  0  0
  -25.1750  -13.0550   22.6360 H   0  0  0  0  0  0  0  0  0  0  0  0
  -24.4000  -14.6160   22.6600 H   0  0  0  0  0  0  0  0  0  0  0  0
  -29.0900  -15.1750   20.6940 N   0  0  0  0  0  0  0  0  0  0  0  0
  -28.6140  -16.0420   20.9210 H   0  0  0  0  0  0  0  0  0  0  0  0
  -30.0330  -15.3190   20.3530 H   0  0  0  0  0  0  0  0  0  0  0  0
  -30.7210  -26.1010   20.0560 C   0  0  0  0  0  2  0  0  0  0  0  0
  -30.3840  -27.5680   20.4360 C   0  0  0  0  0  3  0  0  0  0  0  0
  -32.7200  -28.5050   21.0030 C   0  0  0  0  0  1  0  0  0  0  0  0
  -31.5010  -28.5650   20.0700 C   0  0  0  0  0  2  0  0  0  0  0  0
  -29.2280  -27.9670   19.6870 O   0  0  0  0  0  0  0  0  0  0  0  0
  -26.5410  -30.7030   25.7230 C   0  0  0  0  0  0  0  0  0  0  0  0
  -28.2050  -28.6020   20.3530 C   0  0  0  0  0  0  0  0  0  0  0  0
  -24.9440  -30.3730   23.8620 C   0  0  0  0  0  3  0  0  0  0  0  0
  -25.9880  -29.8320   21.5970 C   0  0  0  0  0  0  0  0  0  0  0  0
  -27.4190  -30.8120   23.3970 C   0  0  0  0  0  2  0  0  0  0  0  0
  -27.2710  -29.9750   22.1480 C   0  0  0  0  0  0  0  0  0  0  0  0
  -28.3830  -29.3530   21.5390 C   0  0  0  0  0  3  0  0  0  0  0  0
  -26.9180  -28.5040   19.7870 C   0  0  0  0  0  3  0  0  0  0  0  0
  -25.8060  -29.0960   20.4140 C   0  0  0  0  0  3  0  0  0  0  0  0
  -24.8460  -30.5090   22.3180 C   0  0  0  0  0  2  0  0  0  0  0  0
  -26.3310  -30.6080   24.3810 N   0  0  0  0  0  0  0  0  0  0  0  0
  -25.5970  -30.6410   26.5240 O   0  0  0  0  0  0  0  0  0  0  0  0
  -24.3710  -28.9940   24.2620 C   0  0  0  0  0  0  0  0  0  0  0  0
  -23.2420  -28.6110   23.6420 N   0  0  0  0  0  0  0  0  0  0  0  0
  -24.9550  -28.2820   25.0820 O   0  0  0  0  0  0  0  0  0  0  0  0
  -22.8200  -29.2500   22.9840 H   0  0  0  0  0  0  0  0  0  0  0  0
  -20.8570  -26.3490   22.1530 C   0  0  0  0  0  0  0  0  0  0  0  0
  -22.5550  -27.3340   23.8290 C   0  0  0  0  0  3  0  0  0  0  0  0
  -23.4710  -26.1480   23.4490 C   0  0  0  0  0  2  0  0  0  0  0  0
  -23.3020  -25.7040   21.9910 C   0  0  0  0  0  2  0  0  0  0  0  0
  -21.8530  -25.2810   21.7260 C   0  0  0  0  0  2  0  0  0  0  0  0
  -21.1940  -27.3200   23.1310 C   0  0  0  0  0  0  0  0  0  0  0  0
  -20.2490  -28.3120   23.4660 C   0  0  0  0  0  3  0  0  0  0  0  0
  -18.9850  -28.3420   22.8450 C   0  0  0  0  0  3  0  0  0  0  0  0
  -18.6500  -27.3690   21.8870 C   0  0  0  0  0  3  0  0  0  0  0  0
  -19.5820  -26.3720   21.5480 C   0  0  0  0  0  3  0  0  0  0  0  0
  -27.9690  -30.9120   26.3160 C   0  0  0  0  0  3  0  0  0  0  0  0
  -27.9570  -32.1820   27.0600 N   0  0  0  0  0  0  0  0  0  0  0  0
  -28.6430  -33.2760   26.7060 C   0  0  0  0  0  0  0  0  0  0  0  0
  -29.4190  -33.2970   25.7470 O   0  0  0  0  0  0  0  0  0  0  0  0
  -27.3230  -32.2440   27.8410 H   0  0  0  0  0  0  0  0  0  0  0  0
  -27.5760  -35.5520   26.7710 C   0  0  0  0  0  1  0  0  0  0  0  0
  -28.4400  -34.5480   27.5500 C   0  0  0  0  0  3  0  0  0  0  0  0
  -30.5110  -34.3800   28.8640 C   0  0  0  0  0  1  0  0  0  0  0  0
  -29.7070  -35.1960   27.9580 N   0  0  0  0  0  0  0  0  0  0  0  0
  -29.5210  -36.0820   28.4170 H   0  0  0  0  0  0  0  0  0  0  0  0
  -28.4350  -29.7240   27.2440 C   0  0  1  0  0  0  0  0  0  0  0  0
  -27.3530  -29.2570   28.2440 C   0  0  0  0  0  1  0  0  0  0  0  0
  -28.8510  -28.4930   26.4080 C   0  0  0  0  0  1  0  0  0  0  0  0
  -29.6910  -30.1580   28.0430 C   0  0  0  0  0  1  0  0  0  0  0  0
  2  5  1  0
  3  1  1  0
  4  6  1  0
  4  2  1  0
  5  8  1  0
  5  1  1  0
  6  3  1  0
  6  7  1  6
  8  9  1  0
  9 10  1  0
  9 11  1  0
 12 13  1  0
 12  9  1  0
 14 17  2  0
 14 16  1  0
 16 15  2  0
 17 18  1  0
 18 15  1  0
 18 13  1  0
 19 25  1  0
 20 25  1  0
 21 22  1  0
 21 20  1  0
 23 22  1  0
 23 32  1  0
 23 24  1  0
 25 24  1  0
 26 19  2  0
 27 28  1  0
 28 16  1  0
 28 19  1  0
 29 54  1  0
 29 30  2  0
 30 49  1  0
 31 34  1  0
 31 30  1  0
 32 33  1  0
 32 29  1  0
 33 31  2  0
 34 35  1  0
 35 36  2  0
 37 36  1  0
 38 37  2  0
 39 38  1  0
 39 34  2  0
 40 37  1  0
 40 41  1  0
 41 42  1  0
 42 43  2  0
 44 43  1  0
 44 48  1  0
 45 44  2  0
 46 41  2  0
 46 45  1  0
 47 46  1  0
 49 50  1  0
 50 52  1  0
 50 53  1  0
 51 49  2  0
 54 55  1  0
 56 54  1  0
 57  6  1  0
 58 57  1  0
 60 58  1  0
 60 59  1  0
 61 63  1  0
 61 58  1  0
 62 73  2  0
 63 68  1  0
 64 74  1  0
 64 72  1  0
 65 67  1  0
 65 71  1  0
 66 72  1  0
 67 66  1  0
 68 67  2  0
 69 63  2  0
 69 70  1  0
 70 65  2  0
 71 64  1  0
 72 62  1  0
 74 76  2  0
 75 74  1  0
 77 75  1  0
 78 83  1  0
 79 75  1  0
 80 79  1  0
 81 80  1  0
 82 81  1  0
 82 78  1  0
 83 84  2  0
 83 79  1  0
 85 84  1  0
 86 85  2  0
 87 86  1  0
 87 78  2  0
 88 62  1  0
 88 89  1  0
 88 98  1  0
 89 92  1  0
 90 89  1  0
 90 94  1  0
 91 90  2  0
 94 93  1  0
 94 96  1  0
 96 97  1  0
 96 95  1  0
 98101  1  1
 98 99  1  0
100 98  1  0
M  ISO  4  19 100  28 100  58 101  61 101
M  END
>  <TORSDO>  (94) 
F 24

>  <SCORE>  (94) 
-6.356

>  <name>  (94) 
93

>  <ligand_id>  (94) 
93

>  <original_smiles>  (94) 
[H]c1nn(C([H])([H])C([H])([H])[N+]([H])([H])C([H])([H])C2([H])C([H])([H])C([H])([H])[N+]([H])(C([H])([H])C([H])(Oc3c([H])c([H])c4c(c3[H])C([H])([H])N(C(=O)C([H])(N([H])C(=O)C([H])(N([H])C([H])([H])[H])C([H])([H])[H])C(C([H])([H])[H])(C([H])([H])[H])C([H])([H])[H])C([H])(C(=O)N([H])C3([H])c5c([H])c([H])c([H])c([H])c5C([H])([H])C([H])([H])C3([H])[H])C4([H])[H])C([H])([H])C([H])([H])[H])C([H])([H])C2([H])[H])c([H])c1N(C(=O)N1C([H])([H])C([H])([H])C([H])([H])C([H])(n2nc(-c3c([H])c([H])c(Oc4c([H])c([H])c(F)c([H])c4F)c([H])c3[H])c(C(=O)N([H])[H])c2N([H])[H])C1([H])[H])C([H])([H])[H]

>  <smiles>  (94) 
[H]c1nn(C([H])([H])C([H])([H])[N+]([H])([H])C([H])([H])C2([H])C([H])([H])C([H])([H])[N+]([H])(C([H])([H])C([H])(Oc3c([H])c([H])c4c(c3[H])C([H])([H])N(C(=O)C([H])(N([H])C(=O)C([H])(N([H])C([H])([H])[H])C([H])([H])[H])C(C([H])([H])[H])(C([H])([H])[H])C([H])([H])[H])C([H])(C(=O)N([H])C3([H])c5c([H])c([H])c([H])c([H])c5C([H])([H])C([H])([H])C3([H])[H])C4([H])[H])C([H])([H])C([H])([H])[H])C([H])([H])C2([H])[H])c([H])c1N(C(=O)N1C([H])([H])C([H])([H])C([H])([H])C([H])(n2nc(-c3c([H])c([H])c(Oc4c([H])c([H])c(F)c([H])c4F)c([H])c3[H])c(C(=O)N([H])[H])c2N([H])[H])C1([H])[H])C([H])([H])[H]

$$$$
94:0:0
     RDKit          3D

 94103  0  0  1  0  0  0  0  0999 V2000
  -31.7140  -22.6840   21.1390 C   0  0  0  0  0  3  0  0  0  0  0  0
  -32.2150  -21.4260   21.5350 C   0  0  0  0  0  3  0  0  0  0  0  0
  -29.8210  -21.5910   20.0730 C   0  0  0  0  0  3  0  0  0  0  0  0
  -29.6590  -19.1530   20.1320 C   0  0  0  0  0  3  0  0  0  0  0  0
  -30.3320  -20.3390   20.4690 C   0  0  0  0  0  0  0  0  0  0  0  0
  -30.5040  -22.7750   20.4160 C   0  0  0  0  0  0  0  0  0  0  0  0
  -31.5330  -20.2330   21.2140 C   0  0  0  0  0  0  0  0  0  0  0  0
  -30.2130  -17.9350   20.5670 C   0  0  0  0  0  0  0  0  0  0  0  0
  -32.0060  -19.0180   21.6010 N   0  0  0  0  0  0  0  0  0  0  0  0
  -31.3610  -17.8840   21.2900 N   0  0  0  0  0  0  0  0  0  0  0  0
  -30.7190  -24.7560   18.8640 C   0  0  0  0  0  1  0  0  0  0  0  0
  -29.9180  -24.1260   20.0170 C   0  0  0  0  0  3  0  0  0  0  0  0
  -29.7810  -25.0770   21.2260 C   0  0  0  0  0  2  0  0  0  0  0  0
  -28.4780  -25.8900   21.2430 C   0  0  0  0  0  2  0  0  0  0  0  0
  -28.3960  -26.7780   20.1350 O   0  0  0  0  0  0  0  0  0  0  0  0
  -24.5600  -31.8860   23.2310 C   0  0  0  0  0  0  0  0  0  0  0  0
  -27.2300  -27.4970   20.1390 C   0  0  0  0  0  0  0  0  0  0  0  0
  -23.3580  -30.4820   21.5850 C   0  0  0  0  0  3  0  0  0  0  0  0
  -24.8200  -28.9520   20.1600 C   0  0  0  0  0  0  0  0  0  0  0  0
  -25.8770  -30.8630   21.3820 C   0  0  0  0  0  2  0  0  0  0  0  0
  -25.9710  -29.4940   20.7460 C   0  0  0  0  0  0  0  0  0  0  0  0
  -27.1810  -28.7710   20.7380 C   0  0  0  0  0  3  0  0  0  0  0  0
  -26.0690  -26.9550   19.5520 C   0  0  0  0  0  3  0  0  0  0  0  0
  -24.8600  -27.6780   19.5620 C   0  0  0  0  0  3  0  0  0  0  0  0
  -23.5690  -29.8000   20.2060 C   0  0  0  0  0  2  0  0  0  0  0  0
  -24.6160  -31.0910   22.1260 N   0  0  0  0  0  0  0  0  0  0  0  0
  -23.4790  -32.1520   23.7730 O   0  0  0  0  0  0  0  0  0  0  0  0
  -22.7120  -29.4580   22.5460 C   0  0  0  0  0  0  0  0  0  0  0  0
  -21.3880  -29.2720   22.4190 N   0  0  0  0  0  0  0  0  0  0  0  0
  -23.3990  -28.8320   23.3580 O   0  0  0  0  0  0  0  0  0  0  0  0
  -20.8970  -29.8300   21.7330 H   0  0  0  0  0  0  0  0  0  0  0  0
  -18.0160  -28.0810   22.9170 C   0  0  0  0  0  0  0  0  0  0  0  0
  -20.5740  -28.3330   23.1870 C   0  0  0  0  0  3  0  0  0  0  0  0
  -20.6740  -26.9050   22.6030 C   0  0  0  0  0  2  0  0  0  0  0  0
  -19.5690  -26.5890   21.5900 C   0  0  0  0  0  2  0  0  0  0  0  0
  -18.1890  -26.7330   22.2370 C   0  0  0  0  0  2  0  0  0  0  0  0
  -19.1370  -28.8390   23.3500 C   0  0  0  0  0  0  0  0  0  0  0  0
  -18.9200  -30.1010   23.9440 C   0  0  0  0  0  3  0  0  0  0  0  0
  -17.6180  -30.6040   24.1150 C   0  0  0  0  0  3  0  0  0  0  0  0
  -16.5110  -29.8430   23.6990 C   0  0  0  0  0  3  0  0  0  0  0  0
  -16.7120  -28.5830   23.1050 C   0  0  0  0  0  3  0  0  0  0  0  0
  -25.8460  -32.5190   23.8510 C   0  0  0  0  0  3  0  0  0  0  0  0
  -26.3660  -31.7480   25.1260 C   0  0  1  0  0  0  0  0  0  0  0  0
  -25.2740  -31.5090   26.1960 C   0  0  0  0  0  1  0  0  0  0  0  0
  -26.9500  -30.3720   24.7300 C   0  0  0  0  0  1  0  0  0  0  0  0
  -27.5160  -32.5440   25.7870 C   0  0  0  0  0  1  0  0  0  0  0  0
  -25.5370  -33.9160   24.1770 N   0  0  0  0  0  0  0  0  0  0  0  0
  -25.8790  -34.9660   23.4180 C   0  0  0  0  0  0  0  0  0  0  0  0
  -26.5600  -34.8600   22.3940 O   0  0  0  0  0  0  0  0  0  0  0  0
  -24.9310  -34.0730   24.9680 H   0  0  0  0  0  0  0  0  0  0  0  0
  -24.1630  -36.7640   23.0350 C   0  0  0  0  0  1  0  0  0  0  0  0
  -25.3890  -36.3560   23.8670 C   0  0  0  0  0  3  0  0  0  0  0  0
  -27.5140  -37.2330   24.7320 C   0  0  0  0  0  1  0  0  0  0  0  0
  -26.4280  -37.4050   23.7700 N   0  0  0  0  0  0  0  0  0  0  0  0
  -26.0230  -38.3260   23.9110 H   0  0  0  0  0  0  0  0  0  0  0  0
  -29.5240  -16.6410   20.1660 C   0  0  0  0  0  2  0  0  0  0  0  0
  -30.5770  -14.4580   20.4620 C   0  0  0  0  0  0  0  0  0  0  0  0
  -30.2920  -12.3180   19.2940 C   0  0  0  0  0  2  0  0  0  0  0  0
  -29.3390  -12.5710   18.1050 C   0  0  0  0  0  2  0  0  0  0  0  0
  -27.8650  -12.4320   18.5410 C   0  0  0  0  0  2  0  0  0  0  0  0
  -27.5450  -13.2340   19.8300 C   0  0  0  0  0  3  0  0  0  0  0  0
  -28.6070  -12.9590   20.9220 C   0  0  0  0  0  2  0  0  0  0  0  0
  -29.9380  -13.2640   20.3620 N   0  0  0  0  0  0  0  0  0  0  0  0
  -31.6670  -14.6980   19.9350 O   0  0  0  0  0  0  0  0  0  0  0  0
  -29.8060  -15.4360   20.9480 N   0  0  0  0  0  0  0  0  0  0  0  0
  -29.0300  -15.1120   21.5020 H   0  0  0  0  0  0  0  0  0  0  0  0
  -25.1470  -13.8430   20.5490 C   0  0  0  0  0  0  0  0  0  0  0  0
  -24.0810  -13.0690   20.9240 C   0  0  0  0  0  0  0  0  0  0  0  0
  -24.5400  -11.7180   20.8820 C   0  0  0  0  0  0  0  0  0  0  0  0
  -26.1910  -12.9620   20.3100 N   0  0  0  0  0  0  0  0  0  0  0  0
  -25.8280  -11.6780   20.5630 N   0  0  0  0  0  0  0  0  0  0  0  0
  -23.8180  -10.4540   21.0710 C   0  0  0  0  0  0  0  0  0  0  0  0
  -24.2610   -9.4810   21.9940 C   0  0  0  0  0  3  0  0  0  0  0  0
  -23.5400   -8.2810   22.1710 C   0  0  0  0  0  3  0  0  0  0  0  0
  -22.3600   -8.0450   21.4250 C   0  0  0  0  0  0  0  0  0  0  0  0
  -21.9360   -9.0080   20.4920 C   0  0  0  0  0  3  0  0  0  0  0  0
  -22.6580  -10.1990   20.3130 C   0  0  0  0  0  3  0  0  0  0  0  0
  -21.6100   -6.8980   21.5120 O   0  0  0  0  0  0  0  0  0  0  0  0
  -21.5790   -6.1430   22.6570 C   0  0  0  0  0  0  0  0  0  0  0  0
  -21.1660   -6.6840   23.8950 C   0  0  0  0  0  3  0  0  0  0  0  0
  -21.0830   -5.8550   25.0310 C   0  0  0  0  0  3  0  0  0  0  0  0
  -21.4010   -4.4870   24.9320 C   0  0  0  0  0  0  0  0  0  0  0  0
  -21.8070   -3.9460   23.6990 C   0  0  0  0  0  3  0  0  0  0  0  0
  -21.8920   -4.7720   22.5640 C   0  0  0  0  0  0  0  0  0  0  0  0
  -22.2630   -4.2420   21.3740 F   0  0  0  0  0  0  0  0  0  0  0  0
  -21.3130   -3.6890   26.0210 F   0  0  0  0  0  0  0  0  0  0  0  0
  -22.6850  -13.5450   21.2110 C   0  0  0  0  0  0  0  0  0  0  0  0
  -21.9610  -12.8420   22.0760 N   0  0  0  0  0  0  0  0  0  0  0  0
  -22.2420  -14.5750   20.7020 O   0  0  0  0  0  0  0  0  0  0  0  0
  -22.3300  -12.0090   22.5100 H   0  0  0  0  0  0  0  0  0  0  0  0
  -21.0260  -13.1460   22.3090 H   0  0  0  0  0  0  0  0  0  0  0  0
  -25.3100  -15.2140   20.3750 N   0  0  0  0  0  0  0  0  0  0  0  0
  -24.5440  -15.8690   20.4940 H   0  0  0  0  0  0  0  0  0  0  0  0
  -26.1480  -15.6500   20.0170 H   0  0  0  0  0  0  0  0  0  0  0  0
  1  2  1  0
  3  6  1  0
  3  5  2  0
  4  5  1  0
  4  8  2  0
  5  7  1  0
  6  1  2  0
  7  2  2  0
  7  9  1  0
  8 10  1  0
 10  9  2  0
 12 11  1  0
 12  6  1  0
 12 13  1  0
 13 14  1  0
 15 17  1  0
 15 14  1  0
 16 27  2  0
 17 22  1  0
 18 26  1  0
 18 28  1  0
 19 25  1  0
 19 21  1  0
 20 26  1  0
 21 20  1  0
 22 21  2  0
 23 24  1  0
 23 17  2  0
 24 19  2  0
 25 18  1  0
 26 16  1  0
 28 30  2  0
 29 28  1  0
 31 29  1  0
 32 41  2  0
 32 37  1  0
 33 29  1  0
 33 37  1  0
 34 33  1  0
 35 36  1  0
 35 34  1  0
 36 32  1  0
 37 38  2  0
 38 39  1  0
 40 39  2  0
 41 40  1  0
 42 16  1  0
 42 47  1  0
 42 43  1  0
 43 46  1  1
 43 44  1  0
 45 43  1  0
 47 50  1  0
 48 52  1  0
 48 47  1  0
 49 48  2  0
 52 51  1  0
 54 52  1  0
 54 55  1  0
 54 53  1  0
 56  8  1  0
 56 65  1  0
 57 65  1  0
 58 63  1  0
 59 60  1  0
 59 58  1  0
 61 60  1  0
 61 70  1  0
 61 62  1  0
 63 57  1  0
 63 62  1  0
 64 57  2  0
 65 66  1  0
 67 68  2  0
 68 87  1  0
 69 68  1  0
 69 72  1  0
 70 67  1  0
 70 71  1  0
 71 69  2  0
 72 73  1  0
 73 74  2  0
 75 78  1  0
 75 74  1  0
 76 75  2  0
 77 76  1  0
 77 72  2  0
 78 79  1  0
 79 80  1  0
 80 81  2  0
 82 81  1  0
 82 86  1  0
 83 82  2  0
 84 79  2  0
 84 83  1  0
 85 84  1  0
 87 88  1  0
 88 91  1  0
 88 90  1  0
 89 87  2  0
 92 93  1  0
 92 67  1  0
 94 92  1  0
M  ISO  4  14 101  15 101  57 100  65 100
M  END
>  <TORSDO>  (95) 
F 20

>  <SCORE>  (95) 
-13.968

>  <name>  (95) 
94

>  <ligand_id>  (95) 
94

>  <original_smiles>  (95) 
[H]c1c([H])c([H])c2c(c1[H])C([H])([H])C([H])([H])C([H])([H])C2([H])N([H])C(=O)C1([H])N(C(=O)C([H])(N([H])C(=O)C([H])(N([H])C([H])([H])[H])C([H])([H])[H])C(C([H])([H])[H])(C([H])([H])[H])C([H])([H])[H])C([H])([H])c2c([H])c(OC([H])([H])C([H])([H])C([H])(c3c([H])c([H])c4nnc(C([H])([H])N([H])C(=O)N5C([H])([H])C([H])([H])C([H])([H])C([H])(n6nc(-c7c([H])c([H])c(Oc8c([H])c([H])c(F)c([H])c8F)c([H])c7[H])c(C(=O)N([H])[H])c6N([H])[H])C5([H])[H])c([H])c4c3[H])C([H])([H])[H])c([H])c([H])c2C1([H])[H]

>  <smiles>  (95) 
[H]c1c([H])c([H])c2c(c1[H])C([H])([H])C([H])([H])C([H])([H])C2([H])N([H])C(=O)C1([H])N(C(=O)C([H])(N([H])C(=O)C([H])(N([H])C([H])([H])[H])C([H])([H])[H])C(C([H])([H])[H])(C([H])([H])[H])C([H])([H])[H])C([H])([H])c2c([H])c(OC([H])([H])C([H])([H])C([H])(c3c([H])c([H])c4nnc(C([H])([H])N([H])C(=O)N5C([H])([H])C([H])([H])C([H])([H])C([H])(n6nc(-c7c([H])c([H])c(Oc8c([H])c([H])c(F)c([H])c8F)c([H])c7[H])c(C(=O)N([H])[H])c6N([H])[H])C5([H])[H])c([H])c4c3[H])C([H])([H])[H])c([H])c([H])c2C1([H])[H]

$$$$
95:0:0
     RDKit          3D

 96105  0  0  1  0  0  0  0  0999 V2000
  -31.9000  -22.9100   20.0240 C   0  0  0  0  0  2  0  0  0  0  0  0
  -31.0810  -22.6390   21.2850 C   0  0  0  0  0  2  0  0  0  0  0  0
  -30.9080  -22.7390   18.8650 C   0  0  0  0  0  2  0  0  0  0  0  0
  -29.9530  -21.6980   20.8210 C   0  0  0  0  0  3  0  0  0  0  0  0
  -29.6810  -22.1070   19.4120 N   0  0  1  0  0  4  0  0  0  0  0  0
  -29.5850  -21.2510   18.8860 H   0  0  0  0  0  0  0  0  0  0  0  0
  -29.2540  -19.2260   20.9310 C   0  0  0  0  0  3  0  0  0  0  0  0
  -29.5690  -17.8670   21.1410 C   0  0  0  0  0  3  0  0  0  0  0  0
  -31.6010  -19.7120   21.1450 C   0  0  0  0  0  3  0  0  0  0  0  0
  -30.2860  -20.1930   20.9440 C   0  0  0  0  0  0  0  0  0  0  0  0
  -30.9080  -17.5070   21.3820 C   0  0  0  0  0  0  0  0  0  0  0  0
  -31.9040  -18.4150   21.3600 N   0  0  0  0  0  0  0  0  0  0  0  0
  -31.3100  -16.0940   21.7860 C   0  0  0  0  0  2  0  0  0  0  0  0
  -30.8400  -14.2630   20.1780 C   0  0  0  0  0  0  0  0  0  0  0  0
  -30.3720  -12.1860   18.9240 C   0  0  0  0  0  2  0  0  0  0  0  0
  -29.3830  -12.4230   17.7660 C   0  0  0  0  0  2  0  0  0  0  0  0
  -27.9290  -12.3110   18.2610 C   0  0  0  0  0  2  0  0  0  0  0  0
  -27.6700  -13.1570   19.5340 C   0  0  0  0  0  3  0  0  0  0  0  0
  -28.7580  -12.8960   20.5980 C   0  0  0  0  0  2  0  0  0  0  0  0
  -30.0760  -13.1540   19.9900 N   0  0  0  0  0  0  0  0  0  0  0  0
  -31.8330  -14.5230   19.4930 O   0  0  0  0  0  0  0  0  0  0  0  0
  -30.4930  -15.0240   21.2200 N   0  0  0  0  0  0  0  0  0  0  0  0
  -29.6700  -14.7560   21.7360 H   0  0  0  0  0  0  0  0  0  0  0  0
  -25.3200  -13.8320   20.3430 C   0  0  0  0  0  0  0  0  0  0  0  0
  -24.2450  -13.0890   20.7520 C   0  0  0  0  0  0  0  0  0  0  0  0
  -24.6650  -11.7250   20.6940 C   0  0  0  0  0  0  0  0  0  0  0  0
  -26.3290  -12.9220   20.0650 N   0  0  0  0  0  0  0  0  0  0  0  0
  -25.9380  -11.6490   20.3320 N   0  0  0  0  0  0  0  0  0  0  0  0
  -23.9110  -10.4840   20.9090 C   0  0  0  0  0  0  0  0  0  0  0  0
  -24.3320   -9.5150   21.8460 C   0  0  0  0  0  3  0  0  0  0  0  0
  -23.5800   -8.3360   22.0460 C   0  0  0  0  0  3  0  0  0  0  0  0
  -22.3930   -8.1190   21.3090 C   0  0  0  0  0  0  0  0  0  0  0  0
  -21.9900   -9.0760   20.3600 C   0  0  0  0  0  3  0  0  0  0  0  0
  -22.7420  -10.2450   20.1580 C   0  0  0  0  0  3  0  0  0  0  0  0
  -21.6130   -6.9930   21.4180 O   0  0  0  0  0  0  0  0  0  0  0  0
  -21.5410   -6.2770   22.5860 C   0  0  0  0  0  0  0  0  0  0  0  0
  -21.1240   -6.8690   23.7980 C   0  0  0  0  0  3  0  0  0  0  0  0
  -20.9990   -6.0800   24.9600 C   0  0  0  0  0  3  0  0  0  0  0  0
  -21.2810   -4.7020   24.9100 C   0  0  0  0  0  0  0  0  0  0  0  0
  -21.6910   -4.1100   23.7020 C   0  0  0  0  0  3  0  0  0  0  0  0
  -21.8180   -4.8960   22.5430 C   0  0  0  0  0  0  0  0  0  0  0  0
  -22.1930   -4.3170   21.3770 F   0  0  0  0  0  0  0  0  0  0  0  0
  -21.1520   -3.9430   26.0230 F   0  0  0  0  0  0  0  0  0  0  0  0
  -22.8760  -13.6050   21.0870 C   0  0  0  0  0  0  0  0  0  0  0  0
  -22.1650  -12.9230   21.9790 N   0  0  0  0  0  0  0  0  0  0  0  0
  -22.4470  -14.6480   20.5930 O   0  0  0  0  0  0  0  0  0  0  0  0
  -22.5240  -12.0800   22.4000 H   0  0  0  0  0  0  0  0  0  0  0  0
  -21.2470  -13.2510   22.2460 H   0  0  0  0  0  0  0  0  0  0  0  0
  -25.5190  -15.1990   20.1650 N   0  0  0  0  0  0  0  0  0  0  0  0
  -24.7790  -15.8770   20.3070 H   0  0  0  0  0  0  0  0  0  0  0  0
  -26.3730  -15.6120   19.8130 H   0  0  0  0  0  0  0  0  0  0  0  0
  -27.1870  -21.9270   19.3320 C   0  0  0  0  0  1  0  0  0  0  0  0
  -28.4030  -22.8530   19.1390 C   0  0  0  0  0  3  0  0  0  0  0  0
  -28.2020  -24.2030   19.9080 C   0  0  0  0  0  2  0  0  0  0  0  0
  -28.6290  -25.4790   19.1440 C   0  0  0  0  0  2  0  0  0  0  0  0
  -28.4520  -26.6720   19.9150 O   0  0  0  0  0  0  0  0  0  0  0  0
  -24.6050  -31.7170   23.1090 C   0  0  0  0  0  0  0  0  0  0  0  0
  -27.2440  -27.3420   19.9210 C   0  0  0  0  0  0  0  0  0  0  0  0
  -23.3900  -30.3480   21.4430 C   0  0  0  0  0  3  0  0  0  0  0  0
  -24.8380  -28.8360   19.9840 C   0  0  0  0  0  0  0  0  0  0  0  0
  -25.9140  -30.7090   21.2440 C   0  0  0  0  0  2  0  0  0  0  0  0
  -25.9950  -29.3490   20.5790 C   0  0  0  0  0  0  0  0  0  0  0  0
  -27.1940  -28.6070   20.5510 C   0  0  0  0  0  3  0  0  0  0  0  0
  -26.0620  -26.8350   19.3310 C   0  0  0  0  0  3  0  0  0  0  0  0
  -24.8650  -27.5750   19.3630 C   0  0  0  0  0  3  0  0  0  0  0  0
  -23.5940  -29.6920   20.0500 C   0  0  0  0  0  2  0  0  0  0  0  0
  -24.6540  -30.9390   21.9910 N   0  0  0  0  0  0  0  0  0  0  0  0
  -23.5260  -31.9800   23.6580 O   0  0  0  0  0  0  0  0  0  0  0  0
  -22.7430  -29.3090   22.3870 C   0  0  0  0  0  0  0  0  0  0  0  0
  -21.4160  -29.1380   22.2670 N   0  0  0  0  0  0  0  0  0  0  0  0
  -23.4300  -28.6610   23.1800 O   0  0  0  0  0  0  0  0  0  0  0  0
  -20.9220  -29.7150   21.6000 H   0  0  0  0  0  0  0  0  0  0  0  0
  -18.0390  -27.9530   22.7640 C   0  0  0  0  0  0  0  0  0  0  0  0
  -20.6010  -28.1860   23.0210 C   0  0  0  0  0  3  0  0  0  0  0  0
  -20.6880  -26.7680   22.4080 C   0  0  0  0  0  2  0  0  0  0  0  0
  -19.5760  -26.4790   21.3960 C   0  0  0  0  0  2  0  0  0  0  0  0
  -18.2000  -26.6190   22.0550 C   0  0  0  0  0  2  0  0  0  0  0  0
  -19.1670  -28.6970   23.2030 C   0  0  0  0  0  0  0  0  0  0  0  0
  -18.9650  -29.9470   23.8250 C   0  0  0  0  0  3  0  0  0  0  0  0
  -17.6660  -30.4560   24.0120 C   0  0  0  0  0  3  0  0  0  0  0  0
  -16.5530  -29.7090   23.5910 C   0  0  0  0  0  3  0  0  0  0  0  0
  -16.7400  -28.4600   22.9730 C   0  0  0  0  0  3  0  0  0  0  0  0
  -25.8940  -32.3330   23.7360 C   0  0  0  0  0  3  0  0  0  0  0  0
  -25.5900  -33.7240   24.0960 N   0  0  0  0  0  0  0  0  0  0  0  0
  -25.9260  -34.7910   23.3590 C   0  0  0  0  0  0  0  0  0  0  0  0
  -26.5970  -34.7080   22.3260 O   0  0  0  0  0  0  0  0  0  0  0  0
  -24.9980  -33.8640   24.9000 H   0  0  0  0  0  0  0  0  0  0  0  0
  -24.2040  -36.5940   23.0360 C   0  0  0  0  0  1  0  0  0  0  0  0
  -25.4410  -36.1700   23.8450 C   0  0  0  0  0  3  0  0  0  0  0  0
  -27.5720  -37.0300   24.7060 C   0  0  0  0  0  1  0  0  0  0  0  0
  -26.4760  -37.2220   23.7590 N   0  0  0  0  0  0  0  0  0  0  0  0
  -26.0710  -38.1410   23.9240 H   0  0  0  0  0  0  0  0  0  0  0  0
  -26.4190  -31.5340   24.9910 C   0  0  1  0  0  0  0  0  0  0  0  0
  -25.3330  -31.2740   26.0610 C   0  0  0  0  0  1  0  0  0  0  0  0
  -26.9980  -30.1660   24.5620 C   0  0  0  0  0  1  0  0  0  0  0  0
  -27.5760  -32.3120   25.6620 C   0  0  0  0  0  1  0  0  0  0  0  0
  1  2  1  0
  3  5  1  0
  3  1  1  0
  4 10  1  0
  4  2  1  0
  5  4  1  0
  5  6  1  6
  7 10  2  0
  7  8  1  0
  8 11  2  0
  9 12  2  0
 10  9  1  0
 11 13  1  0
 12 11  1  0
 14 22  1  0
 15 20  1  0
 16 17  1  0
 16 15  1  0
 18 17  1  0
 18 27  1  0
 18 19  1  0
 20 14  1  0
 20 19  1  0
 21 14  2  0
 22 23  1  0
 22 13  1  0
 24 25  2  0
 25 44  1  0
 26 25  1  0
 26 29  1  0
 27 28  1  0
 27 24  1  0
 28 26  2  0
 29 30  1  0
 30 31  2  0
 32 35  1  0
 32 31  1  0
 33 32  2  0
 34 33  1  0
 34 29  2  0
 35 36  1  0
 36 37  1  0
 37 38  2  0
 39 38  1  0
 39 43  1  0
 40 39  2  0
 41 36  2  0
 41 40  1  0
 42 41  1  0
 44 45  1  0
 45 48  1  0
 45 47  1  0
 46 44  2  0
 49 50  1  0
 49 24  1  0
 51 49  1  0
 53 52  1  0
 53  5  1  0
 53 54  1  0
 55 54  1  0
 55 56  1  0
 56 58  1  0
 57 68  2  0
 58 63  1  0
 59 67  1  0
 59 69  1  0
 60 66  1  0
 60 62  1  0
 61 67  1  0
 62 61  1  0
 63 62  2  0
 64 65  1  0
 64 58  2  0
 65 60  2  0
 66 59  1  0
 67 57  1  0
 69 71  2  0
 70 69  1  0
 72 70  1  0
 73 82  2  0
 73 78  1  0
 74 70  1  0
 74 78  1  0
 75 74  1  0
 76 77  1  0
 76 75  1  0
 77 73  1  0
 78 79  2  0
 79 80  1  0
 81 80  2  0
 82 81  1  0
 83 57  1  0
 83 84  1  0
 83 93  1  0
 84 87  1  0
 85 89  1  0
 85 84  1  0
 86 85  2  0
 89 88  1  0
 91 89  1  0
 91 92  1  0
 91 90  1  0
 93 96  1  1
 93 94  1  0
 95 93  1  0
M  ISO  4  14 100  22 100  55 101  56 101
M  END
>  <TORSDO>  (96) 
F 21

>  <SCORE>  (96) 
-13.230

>  <name>  (96) 
95

>  <ligand_id>  (96) 
95

>  <original_smiles>  (96) 
[H]c1nc(C([H])([H])N([H])C(=O)N2C([H])([H])C([H])([H])C([H])([H])C([H])(n3nc(-c4c([H])c([H])c(Oc5c([H])c([H])c(F)c([H])c5F)c([H])c4[H])c(C(=O)N([H])[H])c3N([H])[H])C2([H])[H])c([H])c([H])c1C1([H])C([H])([H])C([H])([H])C([H])([H])[N+]1([H])C([H])(C([H])([H])[H])C([H])([H])C([H])([H])Oc1c([H])c([H])c2c(c1[H])C([H])([H])N(C(=O)C([H])(N([H])C(=O)C([H])(N([H])C([H])([H])[H])C([H])([H])[H])C(C([H])([H])[H])(C([H])([H])[H])C([H])([H])[H])C([H])(C(=O)N([H])C1([H])c3c([H])c([H])c([H])c([H])c3C([H])([H])C([H])([H])C1([H])[H])C2([H])[H]

>  <smiles>  (96) 
[H]c1nc(C([H])([H])N([H])C(=O)N2C([H])([H])C([H])([H])C([H])([H])C([H])(n3nc(-c4c([H])c([H])c(Oc5c([H])c([H])c(F)c([H])c5F)c([H])c4[H])c(C(=O)N([H])[H])c3N([H])[H])C2([H])[H])c([H])c([H])c1C1([H])C([H])([H])C([H])([H])C([H])([H])[N+]1([H])C([H])(C([H])([H])[H])C([H])([H])C([H])([H])Oc1c([H])c([H])c2c(c1[H])C([H])([H])N(C(=O)C([H])(N([H])C(=O)C([H])(N([H])C([H])([H])[H])C([H])([H])[H])C(C([H])([H])[H])(C([H])([H])[H])C([H])([H])[H])C([H])(C(=O)N([H])C1([H])c3c([H])c([H])c([H])c([H])c3C([H])([H])C([H])([H])C1([H])[H])C2([H])[H]

$$$$
96:0:0
     RDKit          3D

 92100  0  0  1  0  0  0  0  0999 V2000
  -27.7320  -22.0190   20.5960 C   0  0  0  0  0  3  0  0  0  0  0  0
  -27.5590  -23.3670   20.9610 C   0  0  0  0  0  3  0  0  0  0  0  0
  -29.8830  -22.6320   19.6940 C   0  0  0  0  0  3  0  0  0  0  0  0
  -28.9300  -21.6270   19.9640 C   0  0  0  0  0  0  0  0  0  0  0  0
  -28.5830  -24.2940   20.6870 C   0  0  0  0  0  0  0  0  0  0  0  0
  -29.7220  -23.9310   20.0510 N   0  0  0  0  0  0  0  0  0  0  0  0
  -29.1380  -20.1730   19.5150 C   0  0  0  0  0  2  0  0  0  0  0  0
  -29.8670  -19.3170   20.4870 N   0  0  0  0  0  4  0  0  0  0  0  0
  -30.8520  -19.5200   20.4250 H   0  0  0  0  0  0  0  0  0  0  0  0
  -29.5630  -19.5530   21.4180 H   0  0  0  0  0  0  0  0  0  0  0  0
  -29.6560  -17.8560   20.2940 C   0  0  0  0  0  2  0  0  0  0  0  0
  -30.5260  -16.9690   21.2250 C   0  0  0  0  0  2  0  0  0  0  0  0
  -30.7350  -14.5360   20.5390 C   0  0  0  0  0  0  0  0  0  0  0  0
  -30.3590  -12.3600   19.4240 C   0  0  0  0  0  2  0  0  0  0  0  0
  -29.4960  -12.5190   18.1470 C   0  0  0  0  0  2  0  0  0  0  0  0
  -28.0090  -12.8500   18.4300 C   0  0  0  0  0  2  0  0  0  0  0  0
  -27.6650  -12.7650   19.9170 C   0  0  0  0  0  3  0  0  0  0  0  0
  -28.6520  -13.2270   20.9850 C   0  0  0  0  0  2  0  0  0  0  0  0
  -29.9930  -13.4070   20.3970 N   0  0  0  0  0  0  0  0  0  0  0  0
  -31.8490  -14.6780   20.0360 O   0  0  0  0  0  0  0  0  0  0  0  0
  -30.1230  -15.5570   21.1630 N   0  0  0  0  0  0  0  0  0  0  0  0
  -29.2280  -15.3280   21.5700 H   0  0  0  0  0  0  0  0  0  0  0  0
  -25.2600  -13.7890   20.4270 C   0  0  0  0  0  0  0  0  0  0  0  0
  -24.1340  -13.0850   20.7960 C   0  0  0  0  0  0  0  0  0  0  0  0
  -24.5230  -11.7170   20.8240 C   0  0  0  0  0  0  0  0  0  0  0  0
  -26.2560  -12.8150   20.2800 N   0  0  0  0  0  0  0  0  0  0  0  0
  -25.7880  -11.5900   20.5540 N   0  0  0  0  0  0  0  0  0  0  0  0
  -23.7940  -10.4750   21.0300 C   0  0  0  0  0  0  0  0  0  0  0  0
  -24.2460   -9.5180   21.9640 C   0  0  0  0  0  3  0  0  0  0  0  0
  -23.5370   -8.3140   22.1410 C   0  0  0  0  0  3  0  0  0  0  0  0
  -22.3690   -8.0690   21.3820 C   0  0  0  0  0  0  0  0  0  0  0  0
  -21.9480   -9.0130   20.4280 C   0  0  0  0  0  3  0  0  0  0  0  0
  -22.6570  -10.2090   20.2480 C   0  0  0  0  0  3  0  0  0  0  0  0
  -21.6220   -6.9240   21.4740 O   0  0  0  0  0  0  0  0  0  0  0  0
  -21.5830   -6.1890   22.6290 C   0  0  0  0  0  0  0  0  0  0  0  0
  -21.1800   -6.7530   23.8600 C   0  0  0  0  0  3  0  0  0  0  0  0
  -21.0910   -5.9410   25.0080 C   0  0  0  0  0  3  0  0  0  0  0  0
  -21.3900   -4.5680   24.9240 C   0  0  0  0  0  0  0  0  0  0  0  0
  -21.7850   -4.0050   23.6980 C   0  0  0  0  0  3  0  0  0  0  0  0
  -21.8800   -4.8150   22.5530 C   0  0  0  0  0  0  0  0  0  0  0  0
  -22.2430   -4.2660   21.3680 F   0  0  0  0  0  0  0  0  0  0  0  0
  -21.2940   -3.7860   26.0240 F   0  0  0  0  0  0  0  0  0  0  0  0
  -22.7440  -13.6050   21.0310 C   0  0  0  0  0  0  0  0  0  0  0  0
  -21.9840  -12.9360   21.8940 N   0  0  0  0  0  0  0  0  0  0  0  0
  -22.3320  -14.6230   20.4800 O   0  0  0  0  0  0  0  0  0  0  0  0
  -22.3270  -12.1100   22.3610 H   0  0  0  0  0  0  0  0  0  0  0  0
  -21.0460  -13.2550   22.0920 H   0  0  0  0  0  0  0  0  0  0  0  0
  -25.5040  -15.1400   20.2060 N   0  0  0  0  0  0  0  0  0  0  0  0
  -26.3850  -15.4940   19.8530 H   0  0  0  0  0  0  0  0  0  0  0  0
  -24.7740  -15.8430   20.2370 H   0  0  0  0  0  0  0  0  0  0  0  0
  -28.4820  -25.7410   21.1810 C   0  0  0  0  0  2  0  0  0  0  0  0
  -28.3910  -26.7210   20.1380 O   0  0  0  0  0  0  0  0  0  0  0  0
  -24.5800  -31.8890   23.2440 C   0  0  0  0  0  0  0  0  0  0  0  0
  -27.2320  -27.4570   20.1630 C   0  0  0  0  0  0  0  0  0  0  0  0
  -23.3750  -30.4800   21.6060 C   0  0  0  0  0  3  0  0  0  0  0  0
  -24.8310  -28.9400   20.1830 C   0  0  0  0  0  0  0  0  0  0  0  0
  -25.8980  -30.8470   21.4030 C   0  0  0  0  0  2  0  0  0  0  0  0
  -25.9880  -29.4750   20.7660 C   0  0  0  0  0  0  0  0  0  0  0  0
  -27.1940  -28.7400   20.7530 C   0  0  0  0  0  3  0  0  0  0  0  0
  -26.0640  -26.9290   19.5820 C   0  0  0  0  0  3  0  0  0  0  0  0
  -24.8620  -27.6650   19.5900 C   0  0  0  0  0  3  0  0  0  0  0  0
  -23.5840  -29.7940   20.2290 C   0  0  0  0  0  2  0  0  0  0  0  0
  -24.6370  -31.0850   22.1430 N   0  0  0  0  0  0  0  0  0  0  0  0
  -23.4990  -32.1600   23.7840 O   0  0  0  0  0  0  0  0  0  0  0  0
  -22.7260  -29.4600   22.5690 C   0  0  0  0  0  0  0  0  0  0  0  0
  -21.4010  -29.2770   22.4430 N   0  0  0  0  0  0  0  0  0  0  0  0
  -23.4120  -28.8360   23.3840 O   0  0  0  0  0  0  0  0  0  0  0  0
  -20.9110  -29.8310   21.7560 H   0  0  0  0  0  0  0  0  0  0  0  0
  -18.0290  -28.0820   22.9410 C   0  0  0  0  0  0  0  0  0  0  0  0
  -20.5850  -28.3400   23.2160 C   0  0  0  0  0  3  0  0  0  0  0  0
  -20.6890  -26.9090   22.6410 C   0  0  0  0  0  2  0  0  0  0  0  0
  -19.5890  -26.5840   21.6260 C   0  0  0  0  0  2  0  0  0  0  0  0
  -18.2070  -26.7310   22.2690 C   0  0  0  0  0  2  0  0  0  0  0  0
  -19.1460  -28.8450   23.3710 C   0  0  0  0  0  0  0  0  0  0  0  0
  -18.9280  -30.1100   23.9580 C   0  0  0  0  0  3  0  0  0  0  0  0
  -17.6240  -30.6130   24.1200 C   0  0  0  0  0  3  0  0  0  0  0  0
  -16.5190  -29.8460   23.7070 C   0  0  0  0  0  3  0  0  0  0  0  0
  -16.7230  -28.5820   23.1250 C   0  0  0  0  0  3  0  0  0  0  0  0
  -25.8660  -32.5210   23.8610 C   0  0  0  0  0  3  0  0  0  0  0  0
  -25.5570  -33.9190   24.1900 N   0  0  0  0  0  0  0  0  0  0  0  0
  -25.8930  -34.9700   23.4290 C   0  0  0  0  0  0  0  0  0  0  0  0
  -26.5660  -34.8660   22.4010 O   0  0  0  0  0  0  0  0  0  0  0  0
  -24.9580  -34.0760   24.9870 H   0  0  0  0  0  0  0  0  0  0  0  0
  -24.1660  -36.7610   23.0650 C   0  0  0  0  0  1  0  0  0  0  0  0
  -25.4040  -36.3590   23.8830 C   0  0  0  0  0  3  0  0  0  0  0  0
  -27.5350  -37.2420   24.7200 C   0  0  0  0  0  1  0  0  0  0  0  0
  -26.4370  -37.4100   23.7720 N   0  0  0  0  0  0  0  0  0  0  0  0
  -26.0310  -38.3310   23.9190 H   0  0  0  0  0  0  0  0  0  0  0  0
  -26.3900  -31.7510   25.1350 C   0  0  1  0  0  0  0  0  0  0  0  0
  -25.3020  -31.5120   26.2070 C   0  0  0  0  0  1  0  0  0  0  0  0
  -26.9720  -30.3740   24.7370 C   0  0  0  0  0  1  0  0  0  0  0  0
  -27.5440  -32.5440   25.7900 C   0  0  0  0  0  1  0  0  0  0  0  0
  1  2  1  0
  3  4  1  0
  3  6  2  0
  4  1  2  0
  5  2  2  0
  5 51  1  0
  6  5  1  0
  7  4  1  0
  7  8  1  0
  8 10  1  0
  9  8  1  0
 11  8  1  0
 11 12  1  0
 13 21  1  0
 14 19  1  0
 15 16  1  0
 15 14  1  0
 17 16  1  0
 17 26  1  0
 17 18  1  0
 19 13  1  0
 19 18  1  0
 20 13  2  0
 21 12  1  0
 21 22  1  0
 23 24  2  0
 24 25  1  0
 24 43  1  0
 25 28  1  0
 26 23  1  0
 26 27  1  0
 27 25  2  0
 28 29  1  0
 29 30  2  0
 31 34  1  0
 31 30  1  0
 32 31  2  0
 33 32  1  0
 33 28  2  0
 34 35  1  0
 35 36  1  0
 36 37  2  0
 38 37  1  0
 38 42  1  0
 39 38  2  0
 40 35  2  0
 40 39  1  0
 41 40  1  0
 43 44  1  0
 44 47  1  0
 44 46  1  0
 45 43  2  0
 48 50  1  0
 48 23  1  0
 49 48  1  0
 52 54  1  0
 52 51  1  0
 53 64  2  0
 54 59  1  0
 55 63  1  0
 55 65  1  0
 56 62  1  0
 56 58  1  0
 57 63  1  0
 58 57  1  0
 59 58  2  0
 60 61  1  0
 60 54  2  0
 61 56  2  0
 62 55  1  0
 63 53  1  0
 65 67  2  0
 66 65  1  0
 68 66  1  0
 69 78  2  0
 69 74  1  0
 70 66  1  0
 70 74  1  0
 71 70  1  0
 72 73  1  0
 72 71  1  0
 73 69  1  0
 74 75  2  0
 75 76  1  0
 77 76  2  0
 78 77  1  0
 79 53  1  0
 79 80  1  0
 79 89  1  0
 80 83  1  0
 81 85  1  0
 81 80  1  0
 82 81  2  0
 85 84  1  0
 87 85  1  0
 87 88  1  0
 87 86  1  0
 89 92  1  1
 89 90  1  0
 91 89  1  0
M  ISO  4  13 100  21 100  51 101  52 101
M  END
>  <TORSDO>  (97) 
F 21

>  <SCORE>  (97) 
-13.453

>  <name>  (97) 
96

>  <ligand_id>  (97) 
96

>  <original_smiles>  (97) 
[H]c1nc(C([H])([H])Oc2c([H])c([H])c3c(c2[H])C([H])([H])N(C(=O)C([H])(N([H])C(=O)C([H])(N([H])C([H])([H])[H])C([H])([H])[H])C(C([H])([H])[H])(C([H])([H])[H])C([H])([H])[H])C([H])(C(=O)N([H])C2([H])c4c([H])c([H])c([H])c([H])c4C([H])([H])C([H])([H])C2([H])[H])C3([H])[H])c([H])c([H])c1C([H])([H])[N+]([H])([H])C([H])([H])C([H])([H])N([H])C(=O)N1C([H])([H])C([H])([H])C([H])([H])C([H])(n2nc(-c3c([H])c([H])c(Oc4c([H])c([H])c(F)c([H])c4F)c([H])c3[H])c(C(=O)N([H])[H])c2N([H])[H])C1([H])[H]

>  <smiles>  (97) 
[H]c1nc(C([H])([H])Oc2c([H])c([H])c3c(c2[H])C([H])([H])N(C(=O)C([H])(N([H])C(=O)C([H])(N([H])C([H])([H])[H])C([H])([H])[H])C(C([H])([H])[H])(C([H])([H])[H])C([H])([H])[H])C([H])(C(=O)N([H])C2([H])c4c([H])c([H])c([H])c([H])c4C([H])([H])C([H])([H])C2([H])[H])C3([H])[H])c([H])c([H])c1C([H])([H])[N+]([H])([H])C([H])([H])C([H])([H])N([H])C(=O)N1C([H])([H])C([H])([H])C([H])([H])C([H])(n2nc(-c3c([H])c([H])c(Oc4c([H])c([H])c(F)c([H])c4F)c([H])c3[H])c(C(=O)N([H])[H])c2N([H])[H])C1([H])[H]

$$$$
97:0:0
     RDKit          3D

 94102  0  0  1  0  0  0  0  0999 V2000
  -29.6250  -21.5780   20.0070 C   0  0  0  0  0  2  0  0  0  0  0  0
  -28.8480  -22.7540   20.5070 N   0  0  0  0  0  4  0  0  0  0  0  0
  -28.9630  -22.7870   21.5090 H   0  0  0  0  0  0  0  0  0  0  0  0
  -27.8710  -22.5730   20.3260 H   0  0  0  0  0  0  0  0  0  0  0  0
  -29.1950  -24.1020   19.9500 C   0  0  0  0  0  2  0  0  0  0  0  0
  -28.7330  -25.5010   22.0650 C   0  0  0  0  0  1  0  0  0  0  0  0
  -28.3610  -25.2550   20.5940 C   0  0  0  0  0  3  0  0  0  0  0  0
  -28.5180  -26.5220   19.9100 O   0  0  0  0  0  0  0  0  0  0  0  0
  -24.7480  -31.7360   23.0140 C   0  0  0  0  0  0  0  0  0  0  0  0
  -27.3830  -27.3100   19.8970 C   0  0  0  0  0  0  0  0  0  0  0  0
  -23.5440  -30.3600   21.3500 C   0  0  0  0  0  3  0  0  0  0  0  0
  -24.9990  -28.8370   19.9090 C   0  0  0  0  0  0  0  0  0  0  0  0
  -26.0740  -30.7100   21.1660 C   0  0  0  0  0  2  0  0  0  0  0  0
  -26.1590  -29.3460   20.5090 C   0  0  0  0  0  0  0  0  0  0  0  0
  -27.3580  -28.5920   20.4960 C   0  0  0  0  0  3  0  0  0  0  0  0
  -26.2090  -26.8250   19.2790 C   0  0  0  0  0  3  0  0  0  0  0  0
  -25.0200  -27.5770   19.2900 C   0  0  0  0  0  3  0  0  0  0  0  0
  -23.7570  -29.6990   19.9620 C   0  0  0  0  0  2  0  0  0  0  0  0
  -24.8060  -30.9500   21.9020 N   0  0  0  0  0  0  0  0  0  0  0  0
  -23.6660  -32.0050   23.5540 O   0  0  0  0  0  0  0  0  0  0  0  0
  -22.8870  -29.3280   22.2950 C   0  0  0  0  0  0  0  0  0  0  0  0
  -21.5580  -29.1660   22.1760 N   0  0  0  0  0  0  0  0  0  0  0  0
  -23.5680  -28.6760   23.0910 O   0  0  0  0  0  0  0  0  0  0  0  0
  -21.0690  -29.7440   21.5080 H   0  0  0  0  0  0  0  0  0  0  0  0
  -18.1690  -28.0320   22.7030 C   0  0  0  0  0  0  0  0  0  0  0  0
  -20.7360  -28.2240   22.9350 C   0  0  0  0  0  3  0  0  0  0  0  0
  -20.7960  -26.8090   22.3170 C   0  0  0  0  0  2  0  0  0  0  0  0
  -19.6690  -26.5400   21.3140 C   0  0  0  0  0  2  0  0  0  0  0  0
  -18.3030  -26.6990   21.9870 C   0  0  0  0  0  2  0  0  0  0  0  0
  -19.3120  -28.7560   23.1340 C   0  0  0  0  0  0  0  0  0  0  0  0
  -19.1330  -30.0080   23.7620 C   0  0  0  0  0  3  0  0  0  0  0  0
  -17.8430  -30.5340   23.9650 C   0  0  0  0  0  3  0  0  0  0  0  0
  -16.7140  -29.8060   23.5500 C   0  0  0  0  0  3  0  0  0  0  0  0
  -16.8790  -28.5570   22.9240 C   0  0  0  0  0  3  0  0  0  0  0  0
  -26.0340  -32.3560   23.6440 C   0  0  0  0  0  3  0  0  0  0  0  0
  -25.7050  -33.7240   24.0660 N   0  0  0  0  0  0  0  0  0  0  0  0
  -25.9820  -34.8250   23.3560 C   0  0  0  0  0  0  0  0  0  0  0  0
  -26.6120  -34.7980   22.2950 O   0  0  0  0  0  0  0  0  0  0  0  0
  -25.1350  -33.8170   24.8940 H   0  0  0  0  0  0  0  0  0  0  0  0
  -24.1940  -36.5850   23.1720 C   0  0  0  0  0  1  0  0  0  0  0  0
  -25.4770  -36.1720   23.9090 C   0  0  0  0  0  3  0  0  0  0  0  0
  -27.6190  -37.0740   24.7020 C   0  0  0  0  0  1  0  0  0  0  0  0
  -26.4760  -37.2580   23.8120 N   0  0  0  0  0  0  0  0  0  0  0  0
  -26.0510  -38.1560   24.0230 H   0  0  0  0  0  0  0  0  0  0  0  0
  -26.5970  -31.5190   24.8570 C   0  0  1  0  0  0  0  0  0  0  0  0
  -25.5320  -31.1790   25.9260 C   0  0  0  0  0  1  0  0  0  0  0  0
  -27.2140  -30.1890   24.3640 C   0  0  0  0  0  1  0  0  0  0  0  0
  -27.7350  -32.3030   25.5530 C   0  0  0  0  0  1  0  0  0  0  0  0
  -29.1970  -20.2510   20.7090 C   0  0  0  0  0  2  0  0  0  0  0  0
  -31.5630  -17.6100   19.6810 C   0  0  0  0  0  3  0  0  0  0  0  0
  -31.1880  -18.9300   19.7340 C   0  0  0  0  0  3  0  0  0  0  0  0
  -30.5560  -16.8540   20.3510 C   0  0  0  0  0  0  0  0  0  0  0  0
  -29.6100  -17.7440   20.7890 C   0  0  0  0  0  0  0  0  0  0  0  0
  -29.9760  -19.0350   20.4130 N   0  0  0  0  0  0  0  0  0  0  0  0
  -31.0840  -14.4790   19.7690 C   0  0  0  0  0  0  0  0  0  0  0  0
  -30.6080  -12.4310   18.4810 C   0  0  0  0  0  2  0  0  0  0  0  0
  -29.5240  -12.7620   17.4340 C   0  0  0  0  0  2  0  0  0  0  0  0
  -28.1140  -12.5990   18.0360 C   0  0  0  0  0  2  0  0  0  0  0  0
  -27.9610  -13.3050   19.4100 C   0  0  0  0  0  3  0  0  0  0  0  0
  -29.1460  -12.9620   20.3420 C   0  0  0  0  0  2  0  0  0  0  0  0
  -30.3940  -13.3100   19.6430 N   0  0  0  0  0  0  0  0  0  0  0  0
  -32.1380  -14.6930   19.1640 O   0  0  0  0  0  0  0  0  0  0  0  0
  -30.4870  -15.4310   20.5180 N   0  0  0  0  0  0  0  0  0  0  0  0
  -29.7490  -15.0970   21.1190 H   0  0  0  0  0  0  0  0  0  0  0  0
  -25.6780  -13.8600   20.4640 C   0  0  0  0  0  0  0  0  0  0  0  0
  -24.6560  -13.0660   20.9070 C   0  0  0  0  0  0  0  0  0  0  0  0
  -25.0850  -11.7200   20.6970 C   0  0  0  0  0  0  0  0  0  0  0  0
  -26.6730  -12.9970   20.0300 N   0  0  0  0  0  0  0  0  0  0  0  0
  -26.3240  -11.7000   20.2230 N   0  0  0  0  0  0  0  0  0  0  0  0
  -24.3630  -10.4510   20.8650 C   0  0  0  0  0  0  0  0  0  0  0  0
  -24.8000   -9.4700   21.7820 C   0  0  0  0  0  3  0  0  0  0  0  0
  -24.0810   -8.2650   21.9400 C   0  0  0  0  0  3  0  0  0  0  0  0
  -22.9110   -8.0340   21.1790 C   0  0  0  0  0  0  0  0  0  0  0  0
  -22.4920   -9.0050   20.2500 C   0  0  0  0  0  3  0  0  0  0  0  0
  -23.2120  -10.2000   20.0910 C   0  0  0  0  0  3  0  0  0  0  0  0
  -22.1610   -6.8840   21.2460 O   0  0  0  0  0  0  0  0  0  0  0  0
  -21.9910   -6.2060   22.4260 C   0  0  0  0  0  0  0  0  0  0  0  0
  -21.4220   -6.8190   23.5640 C   0  0  0  0  0  3  0  0  0  0  0  0
  -21.2010   -6.0660   24.7340 C   0  0  0  0  0  3  0  0  0  0  0  0
  -21.5370   -4.6990   24.7670 C   0  0  0  0  0  0  0  0  0  0  0  0
  -22.0990   -4.0840   23.6330 C   0  0  0  0  0  3  0  0  0  0  0  0
  -22.3220   -4.8350   22.4660 C   0  0  0  0  0  0  0  0  0  0  0  0
  -22.8430   -4.2340   21.3700 F   0  0  0  0  0  0  0  0  0  0  0  0
  -21.3180   -3.9720   25.8870 F   0  0  0  0  0  0  0  0  0  0  0  0
  -23.3130  -13.5280   21.3970 C   0  0  0  0  0  0  0  0  0  0  0  0
  -22.6960  -12.7730   22.2990 N   0  0  0  0  0  0  0  0  0  0  0  0
  -22.8250  -14.5920   21.0160 O   0  0  0  0  0  0  0  0  0  0  0  0
  -23.1060  -11.9120   22.6280 H   0  0  0  0  0  0  0  0  0  0  0  0
  -21.8010  -13.0630   22.6650 H   0  0  0  0  0  0  0  0  0  0  0  0
  -25.8320  -15.2390   20.3680 N   0  0  0  0  0  0  0  0  0  0  0  0
  -25.0590  -15.8640   20.5700 H   0  0  0  0  0  0  0  0  0  0  0  0
  -26.5790  -15.6830   19.8500 H   0  0  0  0  0  0  0  0  0  0  0  0
  -27.4490  -16.8760   20.8180 C   0  0  0  0  0  1  0  0  0  0  0  0
  -28.4910  -17.5390   21.5150 O   0  0  0  0  0  0  0  0  0  0  0  0
  1  2  1  0
  1 49  1  0
  2  3  1  0
  4  2  1  0
  5  2  1  0
  5  7  1  0
  7  6  1  0
  8  7  1  0
  9 20  2  0
 10  8  1  0
 10 15  1  0
 11 19  1  0
 11 21  1  0
 12 18  1  0
 12 14  1  0
 13 19  1  0
 14 13  1  0
 15 14  2  0
 16 17  1  0
 16 10  2  0
 17 12  2  0
 18 11  1  0
 19  9  1  0
 21 23  2  0
 22 21  1  0
 24 22  1  0
 25 34  2  0
 25 30  1  0
 26 22  1  0
 26 30  1  0
 27 26  1  0
 28 29  1  0
 28 27  1  0
 29 25  1  0
 30 31  2  0
 31 32  1  0
 33 32  2  0
 34 33  1  0
 35  9  1  0
 35 36  1  0
 35 45  1  0
 36 39  1  0
 37 41  1  0
 37 36  1  0
 38 37  2  0
 41 40  1  0
 43 41  1  0
 43 44  1  0
 43 42  1  0
 45 48  1  1
 45 46  1  0
 47 45  1  0
 50 51  2  0
 50 52  1  0
 51 54  1  0
 52 63  1  0
 52 53  2  0
 53 94  1  0
 54 49  1  0
 54 53  1  0
 55 63  1  0
 56 61  1  0
 57 58  1  0
 57 56  1  0
 59 58  1  0
 59 68  1  0
 59 60  1  0
 61 55  1  0
 61 60  1  0
 62 55  2  0
 63 64  1  0
 65 66  2  0
 66 85  1  0
 67 70  1  0
 67 66  1  0
 68 69  1  0
 68 65  1  0
 69 67  2  0
 70 71  1  0
 71 72  2  0
 73 76  1  0
 73 72  1  0
 74 73  2  0
 75 74  1  0
 75 70  2  0
 76 77  1  0
 77 82  2  0
 77 78  1  0
 78 79  2  0
 79 80  1  0
 80 84  1  0
 81 80  2  0
 82 81  1  0
 83 82  1  0
 85 86  1  0
 86 88  1  0
 86 89  1  0
 87 85  2  0
 90 65  1  0
 90 91  1  0
 92 90  1  0
 93 94  1  0
M  ISO  4   7 101   8 101  55 100  63 100
M  END
>  <TORSDO>  (98) 
F 22

>  <SCORE>  (98) 
-10.900

>  <name>  (98) 
97

>  <ligand_id>  (98) 
97

>  <original_smiles>  (98) 
[H]c1c([H])c([H])c2c(c1[H])C([H])([H])C([H])([H])C([H])([H])C2([H])N([H])C(=O)C1([H])N(C(=O)C([H])(N([H])C(=O)C([H])(N([H])C([H])([H])[H])C([H])([H])[H])C(C([H])([H])[H])(C([H])([H])[H])C([H])([H])[H])C([H])([H])c2c([H])c(OC([H])(C([H])([H])[H])C([H])([H])[N+]([H])([H])C([H])([H])C([H])([H])n3c([H])c([H])c(N([H])C(=O)N4C([H])([H])C([H])([H])C([H])([H])C([H])(n5nc(-c6c([H])c([H])c(Oc7c([H])c([H])c(F)c([H])c7F)c([H])c6[H])c(C(=O)N([H])[H])c5N([H])[H])C4([H])[H])c3OC([H])([H])[H])c([H])c([H])c2C1([H])[H]

>  <smiles>  (98) 
[H]c1c([H])c([H])c2c(c1[H])C([H])([H])C([H])([H])C([H])([H])C2([H])N([H])C(=O)C1([H])N(C(=O)C([H])(N([H])C(=O)C([H])(N([H])C([H])([H])[H])C([H])([H])[H])C(C([H])([H])[H])(C([H])([H])[H])C([H])([H])[H])C([H])([H])c2c([H])c(OC([H])(C([H])([H])[H])C([H])([H])[N+]([H])([H])C([H])([H])C([H])([H])n3c([H])c([H])c(N([H])C(=O)N4C([H])([H])C([H])([H])C([H])([H])C([H])(n5nc(-c6c([H])c([H])c(Oc7c([H])c([H])c(F)c([H])c7F)c([H])c6[H])c(C(=O)N([H])[H])c5N([H])[H])C4([H])[H])c3OC([H])([H])[H])c([H])c([H])c2C1([H])[H]

$$$$
