0:0:0
     RDKit          3D

 93 95  0  0  1  0  0  0  0  0999 V2000
  -29.7210  -18.9080   20.1530 N   0  0  0  0  0  4  0  0  0  0  0  0
  -30.3740  -19.0410   20.9110 H   0  0  0  0  0  0  0  0  0  0  0  0
  -30.2360  -19.2460   19.3570 H   0  0  0  0  0  0  0  0  0  0  0  0
  -31.7990  -14.6790   17.6500 C   0  0  0  0  0 15  0  0  0  0  0  0
  -30.9700  -13.5910   21.2950 C   0  0  0  0  0 15  0  0  0  0  0  0
  -30.6500  -16.5250   18.0360 C   0  0  0  0  0 15  0  0  0  0  0  0
  -29.8100  -15.6100   21.5270 C   0  0  0  0  0 15  0  0  0  0  0  0
  -31.9720  -13.1950   19.2930 C   0  0  0  0  0  1  0  0  0  0  0  0
  -29.8240  -17.1470   19.9320 C   0  0  0  0  0  1  0  0  0  0  0  0
  -33.5100  -13.3090   19.3990 C   0  0  0  0  0  2  0  0  0  0  0  0
  -34.0180  -14.7560   19.6800 C   0  0  0  0  0  2  0  0  0  0  0  0
  -31.7090  -15.4980   20.0400 C   0  0  0  0  0  0  0  0  0  0  0  0
  -29.4920  -13.9090   18.2800 C   0  0  0  0  0  2  0  0  0  0  0  0
  -29.2500  -12.4390   17.9730 C   0  0  0  0  0  2  0  0  0  0  0  0
  -27.8820  -12.1680   18.5680 C   0  0  0  0  0  2  0  0  0  0  0  0
  -27.4740  -13.3430   19.5020 C   0  0  0  0  0  3  0  0  0  0  0  0
  -28.7890  -13.7930   20.2690 C   0  0  0  0  0  2  0  0  0  0  0  0
  -30.0810  -14.6190   19.5650 N   0  0  0  0  0  0  0  0  0  0  0  0
  -32.2250  -15.8080   21.0760 O   0  0  0  0  0  0  0  0  0  0  0  0
  -32.9300  -15.7560   19.4530 N   0  0  0  0  0  0  0  0  0  0  0  0
  -32.8430  -15.9770   18.4710 H   0  0  0  0  0  0  0  0  0  0  0  0
  -25.2740  -13.9440   20.5590 C   0  0  0  0  0  0  0  0  0  0  0  0
  -24.2090  -13.1740   20.9140 C   0  0  0  0  0  0  0  0  0  0  0  0
  -24.6510  -11.8200   20.8070 C   0  0  0  0  0  0  0  0  0  0  0  0
  -26.2920  -13.0580   20.2740 N   0  0  0  0  0  0  0  0  0  0  0  0
  -25.9330  -11.7710   20.4800 N   0  0  0  0  0  0  0  0  0  0  0  0
  -23.9320  -10.5590   20.9570 C   0  0  0  0  0  0  0  0  0  0  0  0
  -24.3750   -9.5670   21.8570 C   0  0  0  0  0  3  0  0  0  0  0  0
  -23.6500   -8.3620   21.9960 C   0  0  0  0  0  3  0  0  0  0  0  0
  -22.4720   -8.1510   21.2340 C   0  0  0  0  0  0  0  0  0  0  0  0
  -22.0580   -9.1390   20.3230 C   0  0  0  0  0  3  0  0  0  0  0  0
  -22.7830  -10.3330   20.1850 C   0  0  0  0  0  3  0  0  0  0  0  0
  -21.7120   -7.0100   21.3020 O   0  0  0  0  0  0  0  0  0  0  0  0
  -21.6300   -6.2640   22.4550 C   0  0  0  0  0  0  0  0  0  0  0  0
  -21.1640   -6.8210   23.6660 C   0  0  0  0  0  3  0  0  0  0  0  0
  -21.0300   -6.0060   24.8080 C   0  0  0  0  0  3  0  0  0  0  0  0
  -21.3570   -4.6380   24.7390 C   0  0  0  0  0  0  0  0  0  0  0  0
  -21.8190   -4.0830   23.5320 C   0  0  0  0  0  3  0  0  0  0  0  0
  -21.9550   -4.8940   22.3940 C   0  0  0  0  0  0  0  0  0  0  0  0
  -22.3780   -4.3520   21.2250 F   0  0  0  0  0  0  0  0  0  0  0  0
  -21.2200   -3.8550   25.8300 F   0  0  0  0  0  0  0  0  0  0  0  0
  -22.8310  -13.6680   21.2170 C   0  0  0  0  0  0  0  0  0  0  0  0
  -22.1190  -12.9470   22.0760 N   0  0  0  0  0  0  0  0  0  0  0  0
  -22.4060  -14.7250   20.7540 O   0  0  0  0  0  0  0  0  0  0  0  0
  -22.4890  -12.1110   22.5040 H   0  0  0  0  0  0  0  0  0  0  0  0
  -21.1830  -13.2410   22.2970 H   0  0  0  0  0  0  0  0  0  0  0  0
  -25.4260  -15.3160   20.3800 N   0  0  0  0  0  0  0  0  0  0  0  0
  -24.6390  -15.9570   20.4470 H   0  0  0  0  0  0  0  0  0  0  0  0
  -26.2990  -15.7670   20.1400 H   0  0  0  0  0  0  0  0  0  0  0  0
  -28.6850  -20.2840   20.4360 C   0  0  0  0  0  2  0  0  0  0  0  0
  -28.9270  -22.1900   20.2910 C   0  0  0  0  0  3  0  0  0  0  0  0
  -27.9950  -23.8560   20.5120 C   0  0  0  0  0  3  0  0  0  0  0  0
  -28.2000  -25.5780   20.4100 O   0  0  0  0  0  0  0  0  0  0  0  0
  -24.5940  -31.8190   23.1900 C   0  0  0  0  0  0  0  0  0  0  0  0
  -27.2090  -26.7530   20.3530 C   0  0  0  0  0  0  0  0  0  0  0  0
  -23.4410  -30.3820   21.5670 C   0  0  0  0  0  3  0  0  0  0  0  0
  -24.9200  -28.7250   20.2080 C   0  0  0  0  0  0  0  0  0  0  0  0
  -26.0170  -30.5650   21.4600 C   0  0  0  0  0  2  0  0  0  0  0  0
  -26.1060  -29.1220   20.8440 C   0  0  0  0  0  0  0  0  0  0  0  0
  -27.2410  -28.1630   20.8820 C   0  0  0  0  0  3  0  0  0  0  0  0
  -25.9930  -26.5500   19.6600 C   0  0  0  0  0  3  0  0  0  0  0  0
  -24.9030  -27.4620   19.5930 C   0  0  0  0  0  3  0  0  0  0  0  0
  -23.7010  -29.6580   20.2140 C   0  0  0  0  0  2  0  0  0  0  0  0
  -24.7090  -30.9540   22.1250 N   0  0  0  0  0  0  0  0  0  0  0  0
  -23.4940  -32.1170   23.6850 O   0  0  0  0  0  0  0  0  0  0  0  0
  -22.7250  -29.4120   22.5470 C   0  0  0  0  0  0  0  0  0  0  0  0
  -21.3920  -29.2560   22.4210 N   0  0  0  0  0  0  0  0  0  0  0  0
  -23.3810  -28.7930   23.3890 O   0  0  0  0  0  0  0  0  0  0  0  0
  -20.9140  -29.8080   21.7220 H   0  0  0  0  0  0  0  0  0  0  0  0
  -18.0000  -28.0780   22.9600 C   0  0  0  0  0  0  0  0  0  0  0  0
  -20.5620  -28.3300   23.2050 C   0  0  0  0  0  3  0  0  0  0  0  0
  -20.6500  -26.8940   22.6360 C   0  0  0  0  0  2  0  0  0  0  0  0
  -19.5430  -26.5750   21.6290 C   0  0  0  0  0  2  0  0  0  0  0  0
  -18.1670  -26.7270   22.2820 C   0  0  0  0  0  2  0  0  0  0  0  0
  -19.1240  -28.8400   23.3770 C   0  0  0  0  0  0  0  0  0  0  0  0
  -18.9130  -30.1010   23.9750 C   0  0  0  0  0  3  0  0  0  0  0  0
  -17.6110  -30.6020   24.1550 C   0  0  0  0  0  3  0  0  0  0  0  0
  -16.5020  -29.8420   23.7500 C   0  0  0  0  0  3  0  0  0  0  0  0
  -16.6970  -28.5810   23.1590 C   0  0  0  0  0  3  0  0  0  0  0  0
  -25.8480  -32.4900   23.8300 C   0  0  0  0  0  3  0  0  0  0  0  0
  -25.5090  -33.8910   24.1440 N   0  0  0  0  0  0  0  0  0  0  0  0
  -25.8510  -34.9510   23.3980 C   0  0  0  0  0  0  0  0  0  0  0  0
  -26.5450  -34.8530   22.3830 O   0  0  0  0  0  0  0  0  0  0  0  0
  -24.8910  -34.0390   24.9270 H   0  0  0  0  0  0  0  0  0  0  0  0
  -24.1290  -36.7500   23.0080 C   0  0  0  0  0  1  0  0  0  0  0  0
  -25.3490  -36.3410   23.8460 C   0  0  0  0  0  3  0  0  0  0  0  0
  -27.4580  -37.2410   24.7320 C   0  0  0  0  0  1  0  0  0  0  0  0
  -26.3800  -37.3970   23.7600 N   0  0  0  0  0  0  0  0  0  0  0  0
  -25.9670  -38.3170   23.8900 H   0  0  0  0  0  0  0  0  0  0  0  0
  -26.3400  -31.7550   25.1390 C   0  0  1  0  0  0  0  0  0  0  0  0
  -25.2250  -31.5340   26.1880 C   0  0  0  0  0  1  0  0  0  0  0  0
  -26.9420  -30.3700   24.8050 C   0  0  0  0  0  1  0  0  0  0  0  0
  -27.4720  -32.5720   25.8090 C   0  0  0  0  0  1  0  0  0  0  0  0
  1 50  1  0
  1  2  1  0
  3  1  1  0
  8 10  1  0
  9  1  1  0
 10 11  1  0
 12 19  2  0
 13 18  1  0
 14 13  1  0
 14 15  1  0
 16 15  1  0
 16 17  1  0
 16 25  1  0
 18 12  1  0
 18 17  1  0
 20 11  1  0
 20 12  1  0
 21 20  1  0
 22 23  2  0
 23 42  1  0
 24 23  1  0
 24 27  1  0
 25 26  1  0
 25 22  1  0
 26 24  2  0
 27 28  1  0
 28 29  2  0
 30 33  1  0
 30 29  1  0
 31 30  2  0
 32 31  1  0
 32 27  2  0
 33 34  1  0
 34 35  1  0
 35 36  2  0
 37 36  1  0
 37 41  1  0
 38 37  2  0
 39 34  2  0
 39 38  1  0
 40 39  1  0
 42 43  1  0
 43 46  1  0
 43 45  1  0
 44 42  2  0
 47 48  1  0
 47 22  1  0
 49 47  1  0
 51 50  1  0
 51 52  2  0
 53 52  1  0
 54 65  2  0
 55 53  1  0
 55 60  1  0
 56 64  1  0
 56 66  1  0
 57 63  1  0
 57 59  1  0
 58 64  1  0
 59 60  2  0
 59 58  1  0
 61 55  2  0
 62 61  1  0
 62 57  2  0
 63 56  1  0
 64 54  1  0
 66 68  2  0
 67 66  1  0
 69 67  1  0
 70 79  2  0
 70 75  1  0
 71 67  1  0
 71 75  1  0
 72 71  1  0
 73 74  1  0
 73 72  1  0
 74 70  1  0
 75 76  2  0
 76 77  1  0
 78 77  2  0
 79 78  1  0
 80 54  1  0
 80 81  1  0
 80 90  1  0
 81 84  1  0
 82 86  1  0
 82 81  1  0
 83 82  2  0
 86 85  1  0
 88 86  1  0
 88 89  1  0
 88 87  1  0
 90 93  1  1
 90 91  1  0
 92 90  1  0
M  ISO  4  12 100  20 100  52 101  53 101
M  END
>  <TORSDO>  (1) 
F 22

>  <SCORE>  (1) 
-14.511

>  <name>  (1) 
0

>  <ligand_id>  (1) 
0

>  <original_smiles>  (1) 
[H]c1c([H])c([H])c2c(c1[H])C([H])([H])C([H])([H])C([H])([H])C2([H])N([H])C(=O)C1([H])N(C(=O)C([H])(N([H])C(=O)C([H])(N([H])C([H])([H])[H])C([H])([H])[H])C(C([H])([H])[H])(C([H])([H])[H])C([H])([H])[H])C([H])([H])c2c([H])c(OC([H])([H])C([H])([H])C([H])([H])[N+]([H])([H])C3([H])C([H])([H])C([H])([H])C([H])(C([H])([H])C([H])([H])N([H])C(=O)N4C([H])([H])C([H])([H])C([H])([H])C([H])(n5nc(-c6c([H])c([H])c(Oc7c([H])c([H])c(F)c([H])c7F)c([H])c6[H])c(C(=O)N([H])[H])c5N([H])[H])C4([H])[H])C([H])([H])C3([H])[H])c([H])c([H])c2C1([H])[H]

>  <smiles>  (1) 
[H]c1c([H])c([H])c2c(c1[H])C([H])([H])C([H])([H])C([H])([H])C2([H])N([H])C(=O)C1([H])N(C(=O)C([H])(N([H])C(=O)C([H])(N([H])C([H])([H])[H])C([H])([H])[H])C(C([H])([H])[H])(C([H])([H])[H])C([H])([H])[H])C([H])([H])c2c([H])c(OC([H])([H])C([H])([H])C([H])([H])[N+]([H])([H])C3([H])C([H])([H])C([H])([H])C([H])(C([H])([H])C([H])([H])N([H])C(=O)N4C([H])([H])C([H])([H])C([H])([H])C([H])(n5nc(-c6c([H])c([H])c(Oc7c([H])c([H])c(F)c([H])c7F)c([H])c6[H])c(C(=O)N([H])[H])c5N([H])[H])C4([H])[H])C([H])([H])C3([H])[H])c([H])c([H])c2C1([H])[H]

$$$$
1:0:0
     RDKit          3D

 92101  0  0  1  0  0  0  0  0999 V2000
  -30.6040  -21.8920   18.7250 C   0  0  0  0  0  1  0  0  0  0  0  0
  -29.9760  -21.7880   20.1320 C   0  0  0  0  0  3  0  0  0  0  0  0
  -28.7800  -17.9650   19.9180 C   0  0  0  0  0  2  0  0  0  0  0  0
  -30.6750  -18.0850   21.4570 C   0  0  0  0  0  2  0  0  0  0  0  0
  -29.0080  -19.4670   19.4920 C   0  0  0  0  0  2  0  0  0  0  0  0
  -30.8950  -19.5890   21.0410 C   0  0  0  0  0  2  0  0  0  0  0  0
  -30.0780  -17.2040   20.3310 C   0  0  0  0  0  3  0  0  0  0  0  0
  -29.6810  -20.3250   20.5290 N   0  0  1  0  0  4  0  0  0  0  0  0
  -29.0530  -20.3770   21.3170 H   0  0  0  0  0  0  0  0  0  0  0  0
  -30.6340  -14.6550   20.4130 C   0  0  0  0  0  0  0  0  0  0  0  0
  -30.4150  -12.4120   19.3770 C   0  0  0  0  0  2  0  0  0  0  0  0
  -29.4710  -12.5390   18.1620 C   0  0  0  0  0  2  0  0  0  0  0  0
  -27.9990  -12.3750   18.5910 C   0  0  0  0  0  2  0  0  0  0  0  0
  -27.6400  -13.2370   19.8310 C   0  0  0  0  0  3  0  0  0  0  0  0
  -28.7030  -13.0990   20.9450 C   0  0  0  0  0  2  0  0  0  0  0  0
  -30.0090  -13.4360   20.3610 N   0  0  0  0  0  0  0  0  0  0  0  0
  -31.7940  -14.7950   20.0200 O   0  0  0  0  0  0  0  0  0  0  0  0
  -29.8490  -15.7480   20.6880 N   0  0  0  0  0  0  0  0  0  0  0  0
  -28.9250  -15.5190   21.0190 H   0  0  0  0  0  0  0  0  0  0  0  0
  -25.2500  -13.8240   20.5640 C   0  0  0  0  0  0  0  0  0  0  0  0
  -24.1850  -13.0460   20.9270 C   0  0  0  0  0  0  0  0  0  0  0  0
  -24.6490  -11.6950   20.8860 C   0  0  0  0  0  0  0  0  0  0  0  0
  -26.2940  -12.9470   20.3180 N   0  0  0  0  0  0  0  0  0  0  0  0
  -25.9380  -11.6620   20.5730 N   0  0  0  0  0  0  0  0  0  0  0  0
  -23.9240  -10.4320   21.0700 C   0  0  0  0  0  0  0  0  0  0  0  0
  -24.3620   -9.4570   21.9940 C   0  0  0  0  0  3  0  0  0  0  0  0
  -23.6390   -8.2560   22.1650 C   0  0  0  0  0  3  0  0  0  0  0  0
  -22.4640   -8.0230   21.4110 C   0  0  0  0  0  0  0  0  0  0  0  0
  -22.0460   -8.9850   20.4760 C   0  0  0  0  0  3  0  0  0  0  0  0
  -22.7690  -10.1770   20.3030 C   0  0  0  0  0  3  0  0  0  0  0  0
  -21.7110   -6.8760   21.4940 O   0  0  0  0  0  0  0  0  0  0  0  0
  -21.6670   -6.1250   22.6410 C   0  0  0  0  0  0  0  0  0  0  0  0
  -21.2290   -6.6660   23.8700 C   0  0  0  0  0  3  0  0  0  0  0  0
  -21.1330   -5.8410   25.0070 C   0  0  0  0  0  3  0  0  0  0  0  0
  -21.4640   -4.4750   24.9180 C   0  0  0  0  0  0  0  0  0  0  0  0
  -21.8940   -3.9330   23.6930 C   0  0  0  0  0  3  0  0  0  0  0  0
  -21.9930   -4.7560   22.5570 C   0  0  0  0  0  0  0  0  0  0  0  0
  -22.3890   -4.2250   21.3750 F   0  0  0  0  0  0  0  0  0  0  0  0
  -21.3630   -3.6790   26.0080 F   0  0  0  0  0  0  0  0  0  0  0  0
  -22.7870  -13.5190   21.2070 C   0  0  0  0  0  0  0  0  0  0  0  0
  -22.0640  -12.8170   22.0720 N   0  0  0  0  0  0  0  0  0  0  0  0
  -22.3470  -14.5460   20.6950 O   0  0  0  0  0  0  0  0  0  0  0  0
  -22.4340  -11.9860   22.5080 H   0  0  0  0  0  0  0  0  0  0  0  0
  -21.1270  -13.1180   22.3020 H   0  0  0  0  0  0  0  0  0  0  0  0
  -25.4130  -15.1970   20.4020 N   0  0  0  0  0  0  0  0  0  0  0  0
  -24.6480  -15.8500   20.5340 H   0  0  0  0  0  0  0  0  0  0  0  0
  -26.2580  -15.6430   20.0730 H   0  0  0  0  0  0  0  0  0  0  0  0
  -28.4640  -24.0050   19.2970 C   0  0  0  0  0  2  0  0  0  0  0  0
  -29.1510  -24.1850   21.2270 C   0  0  0  0  0  2  0  0  0  0  0  0
  -28.8540  -22.9100   20.3610 C   0  0  0  0  0  3  0  0  0  0  0  0
  -28.1070  -25.0150   20.4260 C   0  0  0  0  0  3  0  0  0  0  0  0
  -28.3390  -26.4710   20.2400 O   0  0  0  0  0  0  0  0  0  0  0  0
  -24.6160  -31.8680   23.2570 C   0  0  0  0  0  0  0  0  0  0  0  0
  -27.2190  -27.3170   20.1910 C   0  0  0  0  0  0  0  0  0  0  0  0
  -23.4050  -30.4740   21.6170 C   0  0  0  0  0  3  0  0  0  0  0  0
  -24.8500  -28.9230   20.1830 C   0  0  0  0  0  0  0  0  0  0  0  0
  -25.9430  -30.7920   21.4270 C   0  0  0  0  0  2  0  0  0  0  0  0
  -26.0200  -29.4150   20.7770 C   0  0  0  0  0  0  0  0  0  0  0  0
  -27.2080  -28.6250   20.7670 C   0  0  0  0  0  3  0  0  0  0  0  0
  -26.0280  -26.8760   19.5720 C   0  0  0  0  0  3  0  0  0  0  0  0
  -24.8570  -27.6580   19.5710 C   0  0  0  0  0  3  0  0  0  0  0  0
  -23.6130  -29.7970   20.2360 C   0  0  0  0  0  2  0  0  0  0  0  0
  -24.6730  -31.0620   22.1570 N   0  0  0  0  0  0  0  0  0  0  0  0
  -23.5360  -32.1470   23.7960 O   0  0  0  0  0  0  0  0  0  0  0  0
  -22.7420  -29.4600   22.5790 C   0  0  0  0  0  0  0  0  0  0  0  0
  -21.4170  -29.2790   22.4480 N   0  0  0  0  0  0  0  0  0  0  0  0
  -23.4200  -28.8380   23.4010 O   0  0  0  0  0  0  0  0  0  0  0  0
  -20.9300  -29.8320   21.7580 H   0  0  0  0  0  0  0  0  0  0  0  0
  -18.0420  -28.0720   22.9370 C   0  0  0  0  0  0  0  0  0  0  0  0
  -20.5970  -28.3430   23.2190 C   0  0  0  0  0  3  0  0  0  0  0  0
  -20.7070  -26.9090   22.6520 C   0  0  0  0  0  2  0  0  0  0  0  0
  -19.6120  -26.5780   21.6330 C   0  0  0  0  0  2  0  0  0  0  0  0
  -18.2260  -26.7220   22.2680 C   0  0  0  0  0  2  0  0  0  0  0  0
  -19.1550  -28.8410   23.3690 C   0  0  0  0  0  0  0  0  0  0  0  0
  -18.9300  -30.1060   23.9540 C   0  0  0  0  0  3  0  0  0  0  0  0
  -17.6230  -30.6030   24.1130 C   0  0  0  0  0  3  0  0  0  0  0  0
  -16.5230  -29.8320   23.6970 C   0  0  0  0  0  3  0  0  0  0  0  0
  -16.7340  -28.5680   23.1160 C   0  0  0  0  0  3  0  0  0  0  0  0
  -25.9030  -32.4970   23.8760 C   0  0  0  0  0  3  0  0  0  0  0  0
  -25.5990  -33.8950   24.2090 N   0  0  0  0  0  0  0  0  0  0  0  0
  -25.9210  -34.9480   23.4440 C   0  0  0  0  0  0  0  0  0  0  0  0
  -26.5750  -34.8430   22.4040 O   0  0  0  0  0  0  0  0  0  0  0  0
  -25.0210  -34.0510   25.0220 H   0  0  0  0  0  0  0  0  0  0  0  0
  -24.1840  -36.7390   23.1210 C   0  0  0  0  0  1  0  0  0  0  0  0
  -25.4410  -36.3370   23.9090 C   0  0  0  0  0  3  0  0  0  0  0  0
  -27.5890  -37.2260   24.7000 C   0  0  0  0  0  1  0  0  0  0  0  0
  -26.4710  -37.3910   23.7750 N   0  0  0  0  0  0  0  0  0  0  0  0
  -26.0660  -38.3100   23.9280 H   0  0  0  0  0  0  0  0  0  0  0  0
  -26.4210  -31.7220   25.1520 C   0  0  1  0  0  0  0  0  0  0  0  0
  -25.3310  -31.4860   26.2230 C   0  0  0  0  0  1  0  0  0  0  0  0
  -27.0000  -30.3440   24.7580 C   0  0  0  0  0  1  0  0  0  0  0  0
  -27.5770  -32.5120   25.8090 C   0  0  0  0  0  1  0  0  0  0  0  0
  2  1  1  0
  2  8  1  0
  3  7  1  0
  5  3  1  0
  5  8  1  0
  6  4  1  0
  7 18  1  0
  7  4  1  0
  8  6  1  0
  8  9  1  1
 10 18  1  0
 11 16  1  0
 12 13  1  0
 12 11  1  0
 14 13  1  0
 14 23  1  0
 14 15  1  0
 16 10  1  0
 16 15  1  0
 17 10  2  0
 18 19  1  0
 20 21  2  0
 21 40  1  0
 22 21  1  0
 22 25  1  0
 23 20  1  0
 23 24  1  0
 24 22  2  0
 25 26  1  0
 26 27  2  0
 28 31  1  0
 28 27  1  0
 29 28  2  0
 30 29  1  0
 30 25  2  0
 31 32  1  0
 32 33  1  0
 33 34  2  0
 35 34  1  0
 35 39  1  0
 36 35  2  0
 37 32  2  0
 37 36  1  0
 38 37  1  0
 40 41  1  0
 41 44  1  0
 41 43  1  0
 42 40  2  0
 45 46  1  0
 45 20  1  0
 47 45  1  0
 48 50  1  0
 48 51  1  0
 50  2  1  0
 50 49  1  0
 51 52  1  0
 51 49  1  0
 53 64  2  0
 54 52  1  0
 54 59  1  0
 55 63  1  0
 55 65  1  0
 56 62  1  0
 56 58  1  0
 57 63  1  0
 58 57  1  0
 59 58  2  0
 60 54  2  0
 61 60  1  0
 61 56  2  0
 62 55  1  0
 63 53  1  0
 65 67  2  0
 66 65  1  0
 68 66  1  0
 69 78  2  0
 69 74  1  0
 70 66  1  0
 70 74  1  0
 71 70  1  0
 72 73  1  0
 72 71  1  0
 73 69  1  0
 74 75  2  0
 75 76  1  0
 77 76  2  0
 78 77  1  0
 79 53  1  0
 79 80  1  0
 79 89  1  0
 80 83  1  0
 81 85  1  0
 81 80  1  0
 82 81  2  0
 85 84  1  0
 87 85  1  0
 87 88  1  0
 87 86  1  0
 89 92  1  1
 89 90  1  0
 91 89  1  0
M  ISO  4  10 100  18 100  51 101  52 101
M  END
>  <TORSDO>  (2) 
F 18

>  <SCORE>  (2) 
-14.764

>  <name>  (2) 
1

>  <ligand_id>  (2) 
1

>  <original_smiles>  (2) 
[H]c1c([H])c([H])c2c(c1[H])C([H])([H])C([H])([H])C([H])([H])C2([H])N([H])C(=O)C1([H])N(C(=O)C([H])(N([H])C(=O)C([H])(N([H])C([H])([H])[H])C([H])([H])[H])C(C([H])([H])[H])(C([H])([H])[H])C([H])([H])[H])C([H])([H])c2c([H])c(OC3([H])C([H])([H])C([H])(C([H])(C([H])([H])[H])[N+]4([H])C([H])([H])C([H])([H])C([H])(N([H])C(=O)N5C([H])([H])C([H])([H])C([H])([H])C([H])(n6nc(-c7c([H])c([H])c(Oc8c([H])c([H])c(F)c([H])c8F)c([H])c7[H])c(C(=O)N([H])[H])c6N([H])[H])C5([H])[H])C([H])([H])C4([H])[H])C3([H])[H])c([H])c([H])c2C1([H])[H]

>  <smiles>  (2) 
[H]c1c([H])c([H])c2c(c1[H])C([H])([H])C([H])([H])C([H])([H])C2([H])N([H])C(=O)C1([H])N(C(=O)C([H])(N([H])C(=O)C([H])(N([H])C([H])([H])[H])C([H])([H])[H])C(C([H])([H])[H])(C([H])([H])[H])C([H])([H])[H])C([H])([H])c2c([H])c(OC3([H])C([H])([H])C([H])(C([H])(C([H])([H])[H])[N+]4([H])C([H])([H])C([H])([H])C([H])(N([H])C(=O)N5C([H])([H])C([H])([H])C([H])([H])C([H])(n6nc(-c7c([H])c([H])c(Oc8c([H])c([H])c(F)c([H])c8F)c([H])c7[H])c(C(=O)N([H])[H])c6N([H])[H])C5([H])[H])C([H])([H])C4([H])[H])C3([H])[H])c([H])c([H])c2C1([H])[H]

$$$$
2:0:0
     RDKit          3D

100109  0  0  1  0  0  0  0  0999 V2000
  -29.7380  -20.3930   20.5270 N   0  0  0  0  0  4  0  0  0  0  0  0
  -30.0010  -21.1910   21.0810 H   0  0  0  0  0  0  0  0  0  0  0  0
  -28.7640  -20.2130   20.7070 H   0  0  0  0  0  0  0  0  0  0  0  0
  -31.6920  -18.0790   22.9540 C   0  0  0  0  0  2  0  0  0  0  0  0
  -31.0130  -16.7590   22.5730 C   0  0  0  0  0  2  0  0  0  0  0  0
  -29.9030  -17.8910   20.6110 C   0  0  0  0  0  2  0  0  0  0  0  0
  -30.8830  -19.3210   22.5010 C   0  0  0  0  0  3  0  0  0  0  0  0
  -30.7630  -16.6920   21.0610 C   0  0  0  0  0  3  0  0  0  0  0  0
  -30.5710  -19.2440   20.9710 C   0  0  0  0  0  3  0  0  0  0  0  0
  -30.4940  -14.5930   19.7330 C   0  0  0  0  0  0  0  0  0  0  0  0
  -30.0840  -12.4270   18.6270 C   0  0  0  0  0  2  0  0  0  0  0  0
  -29.0160  -12.5600   17.5250 C   0  0  0  0  0  2  0  0  0  0  0  0
  -27.6020  -12.3980   18.1120 C   0  0  0  0  0  2  0  0  0  0  0  0
  -27.3730  -13.2860   19.3640 C   0  0  0  0  0  3  0  0  0  0  0  0
  -28.5370  -13.1330   20.3670 C   0  0  0  0  0  2  0  0  0  0  0  0
  -29.8010  -13.4280   19.6650 N   0  0  0  0  0  0  0  0  0  0  0  0
  -31.4200  -14.8770   18.9660 O   0  0  0  0  0  0  0  0  0  0  0  0
  -30.1290  -15.4160   20.7230 N   0  0  0  0  0  0  0  0  0  0  0  0
  -29.3760  -15.0960   21.3150 H   0  0  0  0  0  0  0  0  0  0  0  0
  -25.0820  -13.8780   20.3830 C   0  0  0  0  0  0  0  0  0  0  0  0
  -24.0570  -13.0950   20.8420 C   0  0  0  0  0  0  0  0  0  0  0  0
  -24.4920  -11.7430   20.6890 C   0  0  0  0  0  0  0  0  0  0  0  0
  -26.0810  -13.0010   19.9860 N   0  0  0  0  0  0  0  0  0  0  0  0
  -25.7340  -11.7100   20.2230 N   0  0  0  0  0  0  0  0  0  0  0  0
  -23.7770  -10.4790   20.9050 C   0  0  0  0  0  0  0  0  0  0  0  0
  -24.2430   -9.5170   21.8280 C   0  0  0  0  0  3  0  0  0  0  0  0
  -23.5310   -8.3150   22.0310 C   0  0  0  0  0  3  0  0  0  0  0  0
  -22.3380   -8.0680   21.3110 C   0  0  0  0  0  0  0  0  0  0  0  0
  -21.8900   -9.0190   20.3770 C   0  0  0  0  0  3  0  0  0  0  0  0
  -22.6030  -10.2120   20.1730 C   0  0  0  0  0  3  0  0  0  0  0  0
  -21.5930   -6.9190   21.4240 O   0  0  0  0  0  0  0  0  0  0  0  0
  -21.5070   -6.2300   22.6060 C   0  0  0  0  0  0  0  0  0  0  0  0
  -20.9880   -6.8230   23.7770 C   0  0  0  0  0  3  0  0  0  0  0  0
  -20.8540   -6.0600   24.9540 C   0  0  0  0  0  3  0  0  0  0  0  0
  -21.2260   -4.7030   24.9600 C   0  0  0  0  0  0  0  0  0  0  0  0
  -21.7380   -4.1080   23.7920 C   0  0  0  0  0  3  0  0  0  0  0  0
  -21.8750   -4.8700   22.6190 C   0  0  0  0  0  0  0  0  0  0  0  0
  -22.3490   -4.2870   21.4910 F   0  0  0  0  0  0  0  0  0  0  0  0
  -21.0900   -3.9670   26.0880 F   0  0  0  0  0  0  0  0  0  0  0  0
  -22.7100  -13.5690   21.3100 C   0  0  0  0  0  0  0  0  0  0  0  0
  -22.0870  -12.8380   22.2270 N   0  0  0  0  0  0  0  0  0  0  0  0
  -22.2220  -14.6200   20.8970 O   0  0  0  0  0  0  0  0  0  0  0  0
  -22.4930  -11.9820   22.5780 H   0  0  0  0  0  0  0  0  0  0  0  0
  -21.1890  -13.1330   22.5820 H   0  0  0  0  0  0  0  0  0  0  0  0
  -25.2450  -15.2540   20.2540 N   0  0  0  0  0  0  0  0  0  0  0  0
  -24.5110  -15.9140   20.4870 H   0  0  0  0  0  0  0  0  0  0  0  0
  -26.0630  -15.6970   19.8530 H   0  0  0  0  0  0  0  0  0  0  0  0
  -31.2860  -20.9610   24.4340 C   0  0  0  0  0  1  0  0  0  0  0  0
  -31.5690  -20.6500   22.9490 C   0  0  0  0  0  3  0  0  0  0  0  0
  -33.6800  -22.1180   22.6990 C   0  0  0  0  0  1  0  0  0  0  0  0
  -33.0890  -20.7030   22.6510 C   0  0  0  0  0  2  0  0  0  0  0  0
  -29.9070  -20.7920   19.1150 C   0  0  0  0  0  2  0  0  0  0  0  0
  -28.2180  -22.5330   18.3280 C   0  0  0  0  0  3  0  0  0  0  0  0
  -30.3670  -23.2930   19.1920 C   0  0  0  0  0  3  0  0  0  0  0  0
  -27.8520  -23.8710   18.0680 C   0  0  0  0  0  3  0  0  0  0  0  0
  -29.9970  -24.6290   18.9380 C   0  0  0  0  0  3  0  0  0  0  0  0
  -29.4820  -22.2370   18.8840 C   0  0  0  0  0  0  0  0  0  0  0  0
  -28.7430  -24.9240   18.3650 C   0  0  0  0  0  0  0  0  0  0  0  0
  -28.3740  -26.3640   18.0410 C   0  0  0  0  0  2  0  0  0  0  0  0
  -28.1770  -27.1500   19.2170 O   0  0  0  0  0  0  0  0  0  0  0  0
  -24.5540  -31.8130   23.1580 C   0  0  0  0  0  0  0  0  0  0  0  0
  -26.9750  -27.7990   19.3880 C   0  0  0  0  0  0  0  0  0  0  0  0
  -23.2220  -30.5620   21.4900 C   0  0  0  0  0  3  0  0  0  0  0  0
  -24.5600  -29.2120   19.7900 C   0  0  0  0  0  0  0  0  0  0  0  0
  -25.7120  -30.9980   21.1100 C   0  0  0  0  0  2  0  0  0  0  0  0
  -25.7560  -29.7030   20.3280 C   0  0  0  0  0  0  0  0  0  0  0  0
  -26.9610  -28.9950   20.1370 C   0  0  0  0  0  3  0  0  0  0  0  0
  -25.7550  -27.3020   18.8730 C   0  0  0  0  0  3  0  0  0  0  0  0
  -24.5520  -28.0070   19.0660 C   0  0  0  0  0  3  0  0  0  0  0  0
  -23.3140  -30.0310   20.0330 C   0  0  0  0  0  2  0  0  0  0  0  0
  -24.5180  -31.1340   21.9770 N   0  0  0  0  0  0  0  0  0  0  0  0
  -23.5240  -32.0050   23.8180 O   0  0  0  0  0  0  0  0  0  0  0  0
  -22.6730  -29.4340   22.3920 C   0  0  0  0  0  0  0  0  0  0  0  0
  -21.3630  -29.1630   22.2790 N   0  0  0  0  0  0  0  0  0  0  0  0
  -23.4220  -28.8080   23.1470 O   0  0  0  0  0  0  0  0  0  0  0  0
  -20.8150  -29.7310   21.6470 H   0  0  0  0  0  0  0  0  0  0  0  0
  -18.1220  -27.6150   22.6610 C   0  0  0  0  0  0  0  0  0  0  0  0
  -20.6340  -28.1200   22.9980 C   0  0  0  0  0  3  0  0  0  0  0  0
  -20.8920  -26.7280   22.3750 C   0  0  0  0  0  2  0  0  0  0  0  0
  -19.8500  -26.3350   21.3240 C   0  0  0  0  0  2  0  0  0  0  0  0
  -18.4470  -26.3170   21.9400 C   0  0  0  0  0  2  0  0  0  0  0  0
  -19.1500  -28.4690   23.1420 C   0  0  0  0  0  0  0  0  0  0  0  0
  -18.7930  -29.6810   23.7730 C   0  0  0  0  0  3  0  0  0  0  0  0
  -17.4400  -30.0420   23.9260 C   0  0  0  0  0  3  0  0  0  0  0  0
  -16.4280  -29.1840   23.4620 C   0  0  0  0  0  3  0  0  0  0  0  0
  -16.7690  -27.9730   22.8350 C   0  0  0  0  0  3  0  0  0  0  0  0
  -25.8850  -32.4020   23.7250 C   0  0  0  0  0  3  0  0  0  0  0  0
  -25.6120  -33.7820   24.1510 N   0  0  0  0  0  0  0  0  0  0  0  0
  -25.9150  -34.8710   23.4330 C   0  0  0  0  0  0  0  0  0  0  0  0
  -26.5270  -34.8210   22.3620 O   0  0  0  0  0  0  0  0  0  0  0  0
  -25.0630  -33.8970   24.9910 H   0  0  0  0  0  0  0  0  0  0  0  0
  -24.1880  -36.6910   23.2770 C   0  0  0  0  0  1  0  0  0  0  0  0
  -25.4690  -36.2360   23.9920 C   0  0  0  0  0  3  0  0  0  0  0  0
  -27.6530  -37.0620   24.7550 C   0  0  0  0  0  1  0  0  0  0  0  0
  -26.5060  -37.2850   23.8790 N   0  0  0  0  0  0  0  0  0  0  0  0
  -26.1170  -38.2000   24.0950 H   0  0  0  0  0  0  0  0  0  0  0  0
  -26.4810  -31.5580   24.9180 C   0  0  1  0  0  0  0  0  0  0  0  0
  -25.4580  -31.2530   26.0370 C   0  0  0  0  0  1  0  0  0  0  0  0
  -27.0360  -30.2090   24.4050 C   0  0  0  0  0  1  0  0  0  0  0  0
  -27.6750  -32.3130   25.5500 C   0  0  0  0  0  1  0  0  0  0  0  0
  1  3  1  0
  1  2  1  0
  5  4  1  0
  6  9  1  0
  6  8  1  0
  7 49  1  0
  7  4  1  0
  8 18  1  0
  8  5  1  0
  9  1  1  0
  9  7  1  0
 10 18  1  0
 11 16  1  0
 12 13  1  0
 12 11  1  0
 14 13  1  0
 14 23  1  0
 14 15  1  0
 16 10  1  0
 16 15  1  0
 17 10  2  0
 18 19  1  0
 20 21  2  0
 21 40  1  0
 22 21  1  0
 22 25  1  0
 23 24  1  0
 23 20  1  0
 24 22  2  0
 25 26  1  0
 26 27  2  0
 28 31  1  0
 28 27  1  0
 29 28  2  0
 30 29  1  0
 30 25  2  0
 31 32  1  0
 32 37  2  0
 32 33  1  0
 33 34  2  0
 34 35  1  0
 35 39  1  0
 36 35  2  0
 37 36  1  0
 38 37  1  0
 40 41  1  0
 41 43  1  0
 41 44  1  0
 42 40  2  0
 45 20  1  0
 45 46  1  0
 47 45  1  0
 49 48  1  0
 51 50  1  0
 51 49  1  0
 52  1  1  0
 53 57  1  0
 55 53  2  0
 55 58  1  0
 56 54  1  0
 57 52  1  0
 57 54  2  0
 58 56  2  0
 59 58  1  0
 59 60  1  0
 60 62  1  0
 61 72  2  0
 62 67  1  0
 63 71  1  0
 63 73  1  0
 64 70  1  0
 64 66  1  0
 65 71  1  0
 66 65  1  0
 67 66  2  0
 68 69  1  0
 68 62  2  0
 69 64  2  0
 70 63  1  0
 71 61  1  0
 73 75  2  0
 74 73  1  0
 76 74  1  0
 77 86  2  0
 77 82  1  0
 78 74  1  0
 78 82  1  0
 79 78  1  0
 80 81  1  0
 80 79  1  0
 81 77  1  0
 82 83  2  0
 83 84  1  0
 85 84  2  0
 86 85  1  0
 87 61  1  0
 87 88  1  0
 87 97  1  0
 88 91  1  0
 89 93  1  0
 89 88  1  0
 90 89  2  0
 93 92  1  0
 95 93  1  0
 95 96  1  0
 95 94  1  0
 97100  1  1
 97 98  1  0
 99 97  1  0
M  ISO  4  10 100  18 100  59 101  60 101
M  END
>  <TORSDO>  (3) 
F 22

>  <SCORE>  (3) 
-10.166

>  <name>  (3) 
2

>  <ligand_id>  (3) 
2

>  <original_smiles>  (3) 
[H]c1c([H])c([H])c2c(c1[H])C([H])([H])C([H])([H])C([H])([H])C2([H])N([H])C(=O)C1([H])N(C(=O)C([H])(N([H])C(=O)C([H])(N([H])C([H])([H])[H])C([H])([H])[H])C(C([H])([H])[H])(C([H])([H])[H])C([H])([H])[H])C([H])([H])c2c([H])c(OC([H])([H])c3c([H])c([H])c(C([H])([H])[N+]([H])([H])C4([H])C([H])([H])C([H])(N([H])C(=O)N5C([H])([H])C([H])([H])C([H])([H])C([H])(n6nc(-c7c([H])c([H])c(Oc8c([H])c([H])c(F)c([H])c8F)c([H])c7[H])c(C(=O)N([H])[H])c6N([H])[H])C5([H])[H])C([H])([H])C([H])([H])C4([H])C([H])(C([H])([H])[H])C([H])([H])C([H])([H])[H])c([H])c3[H])c([H])c([H])c2C1([H])[H]

>  <smiles>  (3) 
[H]c1c([H])c([H])c2c(c1[H])C([H])([H])C([H])([H])C([H])([H])C2([H])N([H])C(=O)C1([H])N(C(=O)C([H])(N([H])C(=O)C([H])(N([H])C([H])([H])[H])C([H])([H])[H])C(C([H])([H])[H])(C([H])([H])[H])C([H])([H])[H])C([H])([H])c2c([H])c(OC([H])([H])c3c([H])c([H])c(C([H])([H])[N+]([H])([H])C4([H])C([H])([H])C([H])(N([H])C(=O)N5C([H])([H])C([H])([H])C([H])([H])C([H])(n6nc(-c7c([H])c([H])c(Oc8c([H])c([H])c(F)c([H])c8F)c([H])c7[H])c(C(=O)N([H])[H])c6N([H])[H])C5([H])[H])C([H])([H])C([H])([H])C4([H])C([H])(C([H])([H])[H])C([H])([H])C([H])([H])[H])c([H])c3[H])c([H])c([H])c2C1([H])[H]

$$$$
3:0:0
     RDKit          3D

 91 99  0  0  1  0  0  0  0  0999 V2000
  -29.0410  -18.1090   20.5330 C   0  0  0  0  0  0  0  0  0  0  0  0
  -28.0600  -21.7920   20.1390 C   0  0  0  0  0  2  0  0  0  0  0  0
  -27.9310  -20.3390   20.6950 C   0  0  0  0  0  2  0  0  0  0  0  0
  -30.3890  -20.2200   20.9470 C   0  0  0  0  0  2  0  0  0  0  0  0
  -29.2530  -22.5900   20.7080 C   0  0  0  0  0  3  0  0  0  0  0  0
  -30.4970  -21.6910   20.3960 C   0  0  0  0  0  3  0  0  0  0  0  0
  -31.8140  -22.3110   20.8930 C   0  0  0  0  0  1  0  0  0  0  0  0
  -29.1480  -19.4860   20.6220 N   0  0  0  0  0  0  0  0  0  0  0  0
  -27.9460  -17.5650   20.3510 O   0  0  0  0  0  0  0  0  0  0  0  0
  -30.2620  -17.1390   20.6800 C   0  0  0  0  0  2  0  0  0  0  0  0
  -30.6310  -14.6090   20.3880 C   0  0  0  0  0  0  0  0  0  0  0  0
  -30.3660  -12.3980   19.2950 C   0  0  0  0  0  2  0  0  0  0  0  0
  -29.4260  -12.5580   18.0810 C   0  0  0  0  0  2  0  0  0  0  0  0
  -27.9520  -12.4190   18.5090 C   0  0  0  0  0  2  0  0  0  0  0  0
  -27.6060  -13.2780   19.7560 C   0  0  0  0  0  3  0  0  0  0  0  0
  -28.6610  -13.0990   20.8710 C   0  0  0  0  0  2  0  0  0  0  0  0
  -29.9750  -13.4130   20.2920 N   0  0  0  0  0  0  0  0  0  0  0  0
  -31.7910  -14.7480   19.9880 O   0  0  0  0  0  0  0  0  0  0  0  0
  -29.8910  -15.6870   20.7580 N   0  0  0  0  0  0  0  0  0  0  0  0
  -28.9280  -15.5110   21.0040 H   0  0  0  0  0  0  0  0  0  0  0  0
  -25.2140  -13.8960   20.4640 C   0  0  0  0  0  0  0  0  0  0  0  0
  -24.1400  -13.1310   20.8310 C   0  0  0  0  0  0  0  0  0  0  0  0
  -24.5940  -11.7760   20.8080 C   0  0  0  0  0  0  0  0  0  0  0  0
  -26.2540  -13.0080   20.2380 N   0  0  0  0  0  0  0  0  0  0  0  0
  -25.8860  -11.7290   20.5050 N   0  0  0  0  0  0  0  0  0  0  0  0
  -23.8590  -10.5190   21.0010 C   0  0  0  0  0  0  0  0  0  0  0  0
  -24.2820   -9.5520   21.9400 C   0  0  0  0  0  3  0  0  0  0  0  0
  -23.5460   -8.3610   22.1200 C   0  0  0  0  0  3  0  0  0  0  0  0
  -22.3750   -8.1270   21.3610 C   0  0  0  0  0  0  0  0  0  0  0  0
  -21.9720   -9.0820   20.4120 C   0  0  0  0  0  3  0  0  0  0  0  0
  -22.7070  -10.2660   20.2290 C   0  0  0  0  0  3  0  0  0  0  0  0
  -21.6130   -6.9870   21.4510 O   0  0  0  0  0  0  0  0  0  0  0  0
  -21.5500   -6.2530   22.6080 C   0  0  0  0  0  0  0  0  0  0  0  0
  -21.1110   -6.8160   23.8250 C   0  0  0  0  0  3  0  0  0  0  0  0
  -20.9940   -6.0080   24.9740 C   0  0  0  0  0  3  0  0  0  0  0  0
  -21.3060   -4.6370   24.9050 C   0  0  0  0  0  0  0  0  0  0  0  0
  -21.7390   -4.0730   23.6930 C   0  0  0  0  0  3  0  0  0  0  0  0
  -21.8570   -4.8780   22.5460 C   0  0  0  0  0  0  0  0  0  0  0  0
  -22.2530   -4.3250   21.3750 F   0  0  0  0  0  0  0  0  0  0  0  0
  -21.1880   -3.8590   26.0070 F   0  0  0  0  0  0  0  0  0  0  0  0
  -22.7450  -13.6170   21.0970 C   0  0  0  0  0  0  0  0  0  0  0  0
  -22.0100  -12.9290   21.9630 N   0  0  0  0  0  0  0  0  0  0  0  0
  -22.3150  -14.6440   20.5720 O   0  0  0  0  0  0  0  0  0  0  0  0
  -22.3710  -12.0990   22.4110 H   0  0  0  0  0  0  0  0  0  0  0  0
  -21.0740  -13.2380   22.1850 H   0  0  0  0  0  0  0  0  0  0  0  0
  -25.3880  -15.2670   20.2870 N   0  0  0  0  0  0  0  0  0  0  0  0
  -24.6260  -15.9240   20.4160 H   0  0  0  0  0  0  0  0  0  0  0  0
  -26.2550  -15.7240   20.0250 H   0  0  0  0  0  0  0  0  0  0  0  0
  -29.3430  -24.1000   20.1850 C   0  0  0  0  0  3  0  0  0  0  0  0
  -28.2320  -25.1330   20.6190 C   0  0  0  0  0  3  0  0  0  0  0  0
  -28.4230  -26.5400   20.2130 O   0  0  0  0  0  0  0  0  0  0  0  0
  -24.6380  -31.8790   23.2240 C   0  0  0  0  0  0  0  0  0  0  0  0
  -27.2910  -27.3570   20.1850 C   0  0  0  0  0  0  0  0  0  0  0  0
  -23.4480  -30.4710   21.5810 C   0  0  0  0  0  3  0  0  0  0  0  0
  -24.9130  -28.9320   20.1640 C   0  0  0  0  0  0  0  0  0  0  0  0
  -25.9830  -30.8140   21.4040 C   0  0  0  0  0  2  0  0  0  0  0  0
  -26.0740  -29.4360   20.7620 C   0  0  0  0  0  0  0  0  0  0  0  0
  -27.2680  -28.6610   20.7640 C   0  0  0  0  0  3  0  0  0  0  0  0
  -26.1130  -26.9050   19.5520 C   0  0  0  0  0  3  0  0  0  0  0  0
  -24.9320  -27.6700   19.5500 C   0  0  0  0  0  3  0  0  0  0  0  0
  -23.6690  -29.7950   20.2030 C   0  0  0  0  0  2  0  0  0  0  0  0
  -24.7080  -31.0710   22.1270 N   0  0  0  0  0  0  0  0  0  0  0  0
  -23.5530  -32.1500   23.7550 O   0  0  0  0  0  0  0  0  0  0  0  0
  -22.7900  -29.4500   22.5400 C   0  0  0  0  0  0  0  0  0  0  0  0
  -21.4650  -29.2700   22.4130 N   0  0  0  0  0  0  0  0  0  0  0  0
  -23.4710  -28.8240   23.3560 O   0  0  0  0  0  0  0  0  0  0  0  0
  -20.9760  -29.8280   21.7270 H   0  0  0  0  0  0  0  0  0  0  0  0
  -18.0850  -28.0910   22.9290 C   0  0  0  0  0  0  0  0  0  0  0  0
  -20.6470  -28.3310   23.1820 C   0  0  0  0  0  3  0  0  0  0  0  0
  -20.7350  -26.9040   22.5940 C   0  0  0  0  0  2  0  0  0  0  0  0
  -19.6240  -26.5960   21.5860 C   0  0  0  0  0  2  0  0  0  0  0  0
  -18.2480  -26.7460   22.2430 C   0  0  0  0  0  2  0  0  0  0  0  0
  -19.2130  -28.8430   23.3570 C   0  0  0  0  0  0  0  0  0  0  0  0
  -19.0060  -30.1020   23.9590 C   0  0  0  0  0  3  0  0  0  0  0  0
  -17.7060  -30.6120   24.1380 C   0  0  0  0  0  3  0  0  0  0  0  0
  -16.5930  -29.8570   23.7280 C   0  0  0  0  0  3  0  0  0  0  0  0
  -16.7840  -28.5980   23.1290 C   0  0  0  0  0  3  0  0  0  0  0  0
  -25.9160  -32.5180   23.8500 C   0  0  0  0  0  3  0  0  0  0  0  0
  -26.4370  -31.7460   25.1240 C   0  0  1  0  0  0  0  0  0  0  0  0
  -25.3440  -31.4970   26.1890 C   0  0  0  0  0  1  0  0  0  0  0  0
  -27.0320  -30.3750   24.7280 C   0  0  0  0  0  1  0  0  0  0  0  0
  -27.5810  -32.5470   25.7900 C   0  0  0  0  0  1  0  0  0  0  0  0
  -25.5970  -33.9130   24.1840 N   0  0  0  0  0  0  0  0  0  0  0  0
  -25.9170  -34.9700   23.4260 C   0  0  0  0  0  0  0  0  0  0  0  0
  -26.5840  -34.8740   22.3920 O   0  0  0  0  0  0  0  0  0  0  0  0
  -25.0040  -34.0610   24.9870 H   0  0  0  0  0  0  0  0  0  0  0  0
  -24.1730  -36.7490   23.0820 C   0  0  0  0  0  1  0  0  0  0  0  0
  -25.4200  -36.3530   23.8880 C   0  0  0  0  0  3  0  0  0  0  0  0
  -27.5500  -37.2560   24.7140 C   0  0  0  0  0  1  0  0  0  0  0  0
  -26.4430  -37.4150   23.7740 N   0  0  0  0  0  0  0  0  0  0  0  0
  -26.0300  -38.3320   23.9230 H   0  0  0  0  0  0  0  0  0  0  0  0
  1  8  1  0
  1 10  1  0
  2  3  1  0
  2  5  1  0
  5 49  1  0
  6  5  1  0
  6  7  1  0
  6  4  1  0
  8  3  1  0
  8  4  1  0
  9  1  2  0
 10 19  1  0
 11 19  1  0
 12 17  1  0
 13 14  1  0
 13 12  1  0
 15 14  1  0
 15 24  1  0
 15 16  1  0
 17 11  1  0
 17 16  1  0
 18 11  2  0
 19 20  1  0
 21 22  2  0
 22 41  1  0
 23 22  1  0
 23 26  1  0
 24 21  1  0
 24 25  1  0
 25 23  2  0
 26 27  1  0
 27 28  2  0
 29 32  1  0
 29 28  1  0
 30 29  2  0
 31 30  1  0
 31 26  2  0
 32 33  1  0
 33 34  1  0
 34 35  2  0
 36 35  1  0
 36 40  1  0
 37 36  2  0
 38 33  2  0
 38 37  1  0
 39 38  1  0
 41 42  1  0
 42 45  1  0
 42 44  1  0
 43 41  2  0
 46 47  1  0
 46 21  1  0
 48 46  1  0
 49 50  2  0
 51 50  1  0
 52 63  2  0
 53 51  1  0
 53 58  1  0
 54 62  1  0
 54 64  1  0
 55 61  1  0
 55 57  1  0
 56 62  1  0
 57 58  2  0
 57 56  1  0
 59 53  2  0
 60 59  1  0
 60 55  2  0
 61 54  1  0
 62 52  1  0
 64 66  2  0
 65 64  1  0
 67 65  1  0
 68 77  2  0
 68 73  1  0
 69 65  1  0
 69 73  1  0
 70 69  1  0
 71 72  1  0
 71 70  1  0
 72 68  1  0
 73 74  2  0
 74 75  1  0
 76 75  2  0
 77 76  1  0
 78 52  1  0
 78 83  1  0
 78 79  1  0
 79 82  1  1
 79 80  1  0
 81 79  1  0
 83 86  1  0
 84 88  1  0
 84 83  1  0
 85 84  2  0
 88 87  1  0
 90 88  1  0
 90 91  1  0
 90 89  1  0
M  ISO  4  11 100  19 100  50 101  51 101
M  END
>  <TORSDO>  (4) 
F 19

>  <SCORE>  (4) 
-14.213

>  <name>  (4) 
3

>  <ligand_id>  (4) 
3

>  <original_smiles>  (4) 
[H]c1c([H])c([H])c2c(c1[H])C([H])([H])C([H])([H])C([H])([H])C2([H])N([H])C(=O)C1([H])N(C(=O)C([H])(N([H])C(=O)C([H])(N([H])C([H])([H])[H])C([H])([H])[H])C(C([H])([H])[H])(C([H])([H])[H])C([H])([H])[H])C([H])([H])c2c([H])c(OC([H])([H])C([H])([H])C3([H])C([H])([H])C([H])([H])N(C(=O)C([H])([H])N([H])C(=O)N4C([H])([H])C([H])([H])C([H])([H])C([H])(n5nc(-c6c([H])c([H])c(Oc7c([H])c([H])c(F)c([H])c7F)c([H])c6[H])c(C(=O)N([H])[H])c5N([H])[H])C4([H])[H])C([H])([H])C3([H])C([H])([H])[H])c([H])c([H])c2C1([H])[H]

>  <smiles>  (4) 
[H]c1c([H])c([H])c2c(c1[H])C([H])([H])C([H])([H])C([H])([H])C2([H])N([H])C(=O)C1([H])N(C(=O)C([H])(N([H])C(=O)C([H])(N([H])C([H])([H])[H])C([H])([H])[H])C(C([H])([H])[H])(C([H])([H])[H])C([H])([H])[H])C([H])([H])c2c([H])c(OC([H])([H])C([H])([H])C3([H])C([H])([H])C([H])([H])N(C(=O)C([H])([H])N([H])C(=O)N4C([H])([H])C([H])([H])C([H])([H])C([H])(n5nc(-c6c([H])c([H])c(Oc7c([H])c([H])c(F)c([H])c7F)c([H])c6[H])c(C(=O)N([H])[H])c5N([H])[H])C4([H])[H])C([H])([H])C3([H])C([H])([H])[H])c([H])c([H])c2C1([H])[H]

$$$$
4:0:0
     RDKit          3D

 94102  0  0  1  0  0  0  0  0999 V2000
  -30.4150  -20.8360   20.7790 C   0  0  0  0  0  2  0  0  0  0  0  0
  -28.3600  -20.6150   19.4880 C   0  0  0  0  0  2  0  0  0  0  0  0
  -29.0960  -21.5850   20.4530 C   0  0  0  0  0  3  0  0  0  0  0  0
  -30.2170  -19.4350   21.4550 C   0  0  0  0  0  3  0  0  0  0  0  0
  -29.2060  -18.4750   20.7000 C   0  0  0  0  0  3  0  0  0  0  0  0
  -28.0810  -19.2750   20.1040 N   0  0  0  0  0  4  0  0  0  0  0  0
  -27.5880  -18.7070   19.4350 H   0  0  0  0  0  0  0  0  0  0  0  0
  -27.4300  -19.4430   20.8540 H   0  0  0  0  0  0  0  0  0  0  0  0
  -32.5330  -19.7500   22.5920 C   0  0  0  0  0  1  0  0  0  0  0  0
  -31.3530  -17.5610   22.8220 C   0  0  0  0  0  1  0  0  0  0  0  0
  -31.5660  -18.7730   21.8940 C   0  0  0  0  0  3  0  0  0  0  0  0
  -29.3580  -23.0820   19.9570 C   0  0  0  0  0  2  0  0  0  0  0  0
  -28.2020  -24.1710   19.9310 C   0  0  0  0  0  2  0  0  0  0  0  0
  -28.4120  -25.5560   20.6870 C   0  0  0  0  0  2  0  0  0  0  0  0
  -28.4320  -26.8370   19.9690 O   0  0  0  0  0  0  0  0  0  0  0  0
  -24.5650  -31.9590   23.2470 C   0  0  0  0  0  0  0  0  0  0  0  0
  -27.2820  -27.6210   20.0190 C   0  0  0  0  0  0  0  0  0  0  0  0
  -23.3930  -30.6010   21.5490 C   0  0  0  0  0  3  0  0  0  0  0  0
  -24.8770  -29.1410   20.0670 C   0  0  0  0  0  0  0  0  0  0  0  0
  -25.9170  -30.9990   21.3740 C   0  0  0  0  0  2  0  0  0  0  0  0
  -26.0300  -29.6500   20.6780 C   0  0  0  0  0  0  0  0  0  0  0  0
  -27.2390  -28.9010   20.6400 C   0  0  0  0  0  3  0  0  0  0  0  0
  -26.1110  -27.1450   19.3990 C   0  0  0  0  0  3  0  0  0  0  0  0
  -24.9170  -27.8930   19.4190 C   0  0  0  0  0  3  0  0  0  0  0  0
  -23.6210  -29.9840   20.1440 C   0  0  0  0  0  2  0  0  0  0  0  0
  -24.6440  -31.2000   22.1160 N   0  0  0  0  0  0  0  0  0  0  0  0
  -23.4760  -32.1910   23.7920 O   0  0  0  0  0  0  0  0  0  0  0  0
  -22.7520  -29.5330   22.4690 C   0  0  0  0  0  0  0  0  0  0  0  0
  -21.4310  -29.3320   22.3300 N   0  0  0  0  0  0  0  0  0  0  0  0
  -23.4420  -28.8920   23.2650 O   0  0  0  0  0  0  0  0  0  0  0  0
  -20.9330  -29.9070   21.6650 H   0  0  0  0  0  0  0  0  0  0  0  0
  -18.0740  -28.0730   22.7940 C   0  0  0  0  0  0  0  0  0  0  0  0
  -20.6300  -28.3470   23.0600 C   0  0  0  0  0  3  0  0  0  0  0  0
  -20.7450  -26.9480   22.4140 C   0  0  0  0  0  2  0  0  0  0  0  0
  -19.6380  -26.6610   21.3950 C   0  0  0  0  0  2  0  0  0  0  0  0
  -18.2610  -26.7590   22.0560 C   0  0  0  0  0  2  0  0  0  0  0  0
  -19.1870  -28.8250   23.2530 C   0  0  0  0  0  0  0  0  0  0  0  0
  -18.9600  -30.0540   23.9090 C   0  0  0  0  0  3  0  0  0  0  0  0
  -17.6520  -30.5320   24.1100 C   0  0  0  0  0  3  0  0  0  0  0  0
  -16.5510  -29.7740   23.6710 C   0  0  0  0  0  3  0  0  0  0  0  0
  -16.7640  -28.5460   23.0170 C   0  0  0  0  0  3  0  0  0  0  0  0
  -25.8350  -32.5930   23.8960 C   0  0  0  0  0  3  0  0  0  0  0  0
  -25.5250  -33.9960   24.2030 N   0  0  0  0  0  0  0  0  0  0  0  0
  -25.8830  -35.0390   23.4420 C   0  0  0  0  0  0  0  0  0  0  0  0
  -26.5770  -34.9200   22.4280 O   0  0  0  0  0  0  0  0  0  0  0  0
  -24.9110  -34.1620   24.9870 H   0  0  0  0  0  0  0  0  0  0  0  0
  -24.1780  -36.8400   23.0210 C   0  0  0  0  0  1  0  0  0  0  0  0
  -25.3920  -36.4350   23.8720 C   0  0  0  0  0  3  0  0  0  0  0  0
  -27.5020  -37.3190   24.7600 C   0  0  0  0  0  1  0  0  0  0  0  0
  -26.4340  -37.4800   23.7770 N   0  0  0  0  0  0  0  0  0  0  0  0
  -26.0290  -38.4050   23.8980 H   0  0  0  0  0  0  0  0  0  0  0  0
  -26.3150  -31.8310   25.1940 C   0  0  1  0  0  0  0  0  0  0  0  0
  -25.1860  -31.5800   26.2220 C   0  0  0  0  0  1  0  0  0  0  0  0
  -26.9310  -30.4620   24.8260 C   0  0  0  0  0  1  0  0  0  0  0  0
  -27.4300  -32.6440   25.8950 C   0  0  0  0  0  1  0  0  0  0  0  0
  -29.7610  -17.3270   19.7390 C   0  0  0  0  0  2  0  0  0  0  0  0
  -30.4970  -14.8600   19.9360 C   0  0  0  0  0  0  0  0  0  0  0  0
  -30.3000  -12.6040   18.9350 C   0  0  0  0  0  2  0  0  0  0  0  0
  -29.2650  -12.6730   17.7920 C   0  0  0  0  0  2  0  0  0  0  0  0
  -27.8360  -12.4610   18.3310 C   0  0  0  0  0  2  0  0  0  0  0  0
  -27.5320  -13.3270   19.5820 C   0  0  0  0  0  3  0  0  0  0  0  0
  -28.6760  -13.2440   20.6200 C   0  0  0  0  0  2  0  0  0  0  0  0
  -29.9250  -13.6170   19.9400 N   0  0  0  0  0  0  0  0  0  0  0  0
  -31.6180  -15.0540   19.4620 O   0  0  0  0  0  0  0  0  0  0  0  0
  -29.6690  -15.9060   20.2360 N   0  0  0  0  0  0  0  0  0  0  0  0
  -28.7810  -15.6320   20.6280 H   0  0  0  0  0  0  0  0  0  0  0  0
  -25.2000  -13.8370   20.5360 C   0  0  0  0  0  0  0  0  0  0  0  0
  -24.1850  -13.0230   20.9610 C   0  0  0  0  0  0  0  0  0  0  0  0
  -24.6690  -11.6860   20.8240 C   0  0  0  0  0  0  0  0  0  0  0  0
  -26.2360  -12.9930   20.1690 N   0  0  0  0  0  0  0  0  0  0  0  0
  -25.9270  -11.6920   20.4020 N   0  0  0  0  0  0  0  0  0  0  0  0
  -23.9870  -10.3990   21.0130 C   0  0  0  0  0  0  0  0  0  0  0  0
  -24.4470   -9.4510   21.9530 C   0  0  0  0  0  3  0  0  0  0  0  0
  -23.7640   -8.2280   22.1290 C   0  0  0  0  0  3  0  0  0  0  0  0
  -22.6070   -7.9440   21.3660 C   0  0  0  0  0  0  0  0  0  0  0  0
  -22.1650   -8.8820   20.4170 C   0  0  0  0  0  3  0  0  0  0  0  0
  -22.8490  -10.0960   20.2380 C   0  0  0  0  0  3  0  0  0  0  0  0
  -21.8940   -6.7740   21.4530 O   0  0  0  0  0  0  0  0  0  0  0  0
  -21.7840   -6.0840   22.6340 C   0  0  0  0  0  0  0  0  0  0  0  0
  -21.1910   -6.6560   23.7790 C   0  0  0  0  0  3  0  0  0  0  0  0
  -21.0360   -5.8880   24.9500 C   0  0  0  0  0  3  0  0  0  0  0  0
  -21.4630   -4.5470   24.9760 C   0  0  0  0  0  0  0  0  0  0  0  0
  -22.0490   -3.9730   23.8340 C   0  0  0  0  0  3  0  0  0  0  0  0
  -22.2060   -4.7400   22.6660 C   0  0  0  0  0  0  0  0  0  0  0  0
  -22.7520   -4.1750   21.5610 F   0  0  0  0  0  0  0  0  0  0  0  0
  -21.3070   -3.8060   26.0980 F   0  0  0  0  0  0  0  0  0  0  0  0
  -22.8060  -13.4530   21.3730 C   0  0  0  0  0  0  0  0  0  0  0  0
  -22.1640  -12.6920   22.2510 N   0  0  0  0  0  0  0  0  0  0  0  0
  -22.3110  -14.4980   20.9510 O   0  0  0  0  0  0  0  0  0  0  0  0
  -22.5810  -11.8470   22.6130 H   0  0  0  0  0  0  0  0  0  0  0  0
  -21.2420  -12.9590   22.5660 H   0  0  0  0  0  0  0  0  0  0  0  0
  -25.3210  -15.2170   20.4060 N   0  0  0  0  0  0  0  0  0  0  0  0
  -24.5360  -15.8360   20.5780 H   0  0  0  0  0  0  0  0  0  0  0  0
  -26.0790  -15.6680   19.9120 H   0  0  0  0  0  0  0  0  0  0  0  0
  1  4  1  0
  2  6  1  0
  2  3  1  0
  3 12  1  0
  3  1  1  0
  4 11  1  0
  5 56  1  0
  5  4  1  0
  6  5  1  0
  6  8  1  0
  7  6  1  0
 11  9  1  0
 11 10  1  0
 13 12  1  0
 13 14  1  0
 15 17  1  0
 15 14  1  0
 16 27  2  0
 17 22  1  0
 18 26  1  0
 18 28  1  0
 19 25  1  0
 19 21  1  0
 20 26  1  0
 21 20  1  0
 22 21  2  0
 23 24  1  0
 23 17  2  0
 24 19  2  0
 25 18  1  0
 26 16  1  0
 28 30  2  0
 29 28  1  0
 31 29  1  0
 32 41  2  0
 32 37  1  0
 33 29  1  0
 33 37  1  0
 34 33  1  0
 35 36  1  0
 35 34  1  0
 36 32  1  0
 37 38  2  0
 38 39  1  0
 40 39  2  0
 41 40  1  0
 42 16  1  0
 42 43  1  0
 42 52  1  0
 43 46  1  0
 44 48  1  0
 44 43  1  0
 45 44  2  0
 48 47  1  0
 50 48  1  0
 50 51  1  0
 50 49  1  0
 52 55  1  1
 52 53  1  0
 54 52  1  0
 56 65  1  0
 57 63  1  0
 57 65  1  0
 58 63  1  0
 59 60  1  0
 59 58  1  0
 61 60  1  0
 61 70  1  0
 61 62  1  0
 63 62  1  0
 64 57  2  0
 65 66  1  0
 67 68  2  0
 68 87  1  0
 69 68  1  0
 69 72  1  0
 70 71  1  0
 70 67  1  0
 71 69  2  0
 72 73  1  0
 73 74  2  0
 75 78  1  0
 75 74  1  0
 76 75  2  0
 77 76  1  0
 77 72  2  0
 78 79  1  0
 79 84  2  0
 79 80  1  0
 80 81  2  0
 81 82  1  0
 82 86  1  0
 83 82  2  0
 84 83  1  0
 85 84  1  0
 87 88  1  0
 88 91  1  0
 88 90  1  0
 89 87  2  0
 92 67  1  0
 92 93  1  0
 94 92  1  0
M  ISO  4  14 101  15 101  57 100  65 100
M  END
>  <TORSDO>  (5) 
F 21

>  <SCORE>  (5) 
-12.888

>  <name>  (5) 
4

>  <ligand_id>  (5) 
4

>  <original_smiles>  (5) 
[H]c1c([H])c([H])c2c(c1[H])C([H])([H])C([H])([H])C([H])([H])C2([H])N([H])C(=O)C1([H])N(C(=O)C([H])(N([H])C(=O)C([H])(N([H])C([H])([H])[H])C([H])([H])[H])C(C([H])([H])[H])(C([H])([H])[H])C([H])([H])[H])C([H])([H])c2c([H])c(OC([H])([H])C([H])([H])C([H])([H])C3([H])C([H])([H])C([H])(C([H])(C([H])([H])[H])C([H])([H])[H])C([H])(C([H])([H])N([H])C(=O)N4C([H])([H])C([H])([H])C([H])([H])C([H])(n5nc(-c6c([H])c([H])c(Oc7c([H])c([H])c(F)c([H])c7F)c([H])c6[H])c(C(=O)N([H])[H])c5N([H])[H])C4([H])[H])[N+]([H])([H])C3([H])[H])c([H])c([H])c2C1([H])[H]

>  <smiles>  (5) 
[H]c1c([H])c([H])c2c(c1[H])C([H])([H])C([H])([H])C([H])([H])C2([H])N([H])C(=O)C1([H])N(C(=O)C([H])(N([H])C(=O)C([H])(N([H])C([H])([H])[H])C([H])([H])[H])C(C([H])([H])[H])(C([H])([H])[H])C([H])([H])[H])C([H])([H])c2c([H])c(OC([H])([H])C([H])([H])C([H])([H])C3([H])C([H])([H])C([H])(C([H])(C([H])([H])[H])C([H])([H])[H])C([H])(C([H])([H])N([H])C(=O)N4C([H])([H])C([H])([H])C([H])([H])C([H])(n5nc(-c6c([H])c([H])c(Oc7c([H])c([H])c(F)c([H])c7F)c([H])c6[H])c(C(=O)N([H])[H])c5N([H])[H])C4([H])[H])[N+]([H])([H])C3([H])[H])c([H])c([H])c2C1([H])[H]

$$$$
5:0:0
     RDKit          3D

 96105  0  0  1  0  0  0  0  0999 V2000
  -30.5680  -22.3950   19.6990 C   0  0  0  0  0  2  0  0  0  0  0  0
  -28.1520  -21.7020   19.6090 C   0  0  0  0  0  2  0  0  0  0  0  0
  -30.1620  -23.6820   20.4680 C   0  0  0  0  0  2  0  0  0  0  0  0
  -27.7790  -22.9580   20.4330 C   0  0  0  0  0  2  0  0  0  0  0  0
  -29.5930  -21.1920   19.8760 C   0  0  0  0  0  3  0  0  0  0  0  0
  -28.7200  -24.1560   20.1590 C   0  0  0  0  0  3  0  0  0  0  0  0
  -29.0170  -19.8360   16.9420 C   0  0  0  0  0  2  0  0  0  0  0  0
  -28.5520  -18.6310   17.7470 C   0  0  0  0  0  3  0  0  0  0  0  0
  -30.0610  -19.9180   19.0550 C   0  0  0  0  0  3  0  0  0  0  0  0
  -27.0280  -18.4650   17.8210 C   0  0  0  0  0  1  0  0  0  0  0  0
  -29.1350  -18.7510   19.1030 N   0  0  0  0  0  0  0  0  0  0  0  0
  -30.2340  -20.2510   17.6310 N   0  0  0  0  0  4  0  0  0  0  0  0
  -30.4310  -21.2280   17.4960 H   0  0  0  0  0  0  0  0  0  0  0  0
  -31.0080  -19.7200   17.2670 H   0  0  0  0  0  0  0  0  0  0  0  0
  -29.7560  -17.4250   19.3540 C   0  0  0  0  0  2  0  0  0  0  0  0
  -30.0620  -17.0120   20.8150 C   0  0  0  0  0  2  0  0  0  0  0  0
  -30.6890  -14.5530   20.5220 C   0  0  0  0  0  0  0  0  0  0  0  0
  -30.4480  -12.3910   19.3540 C   0  0  0  0  0  2  0  0  0  0  0  0
  -29.5190  -12.6100   18.1380 C   0  0  0  0  0  2  0  0  0  0  0  0
  -28.0370  -12.4670   18.5440 C   0  0  0  0  0  2  0  0  0  0  0  0
  -27.6820  -13.2830   19.8160 C   0  0  0  0  0  3  0  0  0  0  0  0
  -28.7210  -13.0320   20.9340 C   0  0  0  0  0  2  0  0  0  0  0  0
  -30.0530  -13.3550   20.3940 N   0  0  0  0  0  0  0  0  0  0  0  0
  -31.8150  -14.7710   20.0670 O   0  0  0  0  0  0  0  0  0  0  0  0
  -29.9140  -15.5510   20.9970 N   0  0  0  0  0  0  0  0  0  0  0  0
  -29.0270  -15.2490   21.3720 H   0  0  0  0  0  0  0  0  0  0  0  0
  -25.2660  -13.8900   20.4610 C   0  0  0  0  0  0  0  0  0  0  0  0
  -24.1930  -13.1190   20.8190 C   0  0  0  0  0  0  0  0  0  0  0  0
  -24.6600  -11.7690   20.8140 C   0  0  0  0  0  0  0  0  0  0  0  0
  -26.3200  -13.0100   20.2670 N   0  0  0  0  0  0  0  0  0  0  0  0
  -25.9560  -11.7300   20.5350 N   0  0  0  0  0  0  0  0  0  0  0  0
  -23.9340  -10.5070   21.0050 C   0  0  0  0  0  0  0  0  0  0  0  0
  -24.3500   -9.5540   21.9610 C   0  0  0  0  0  3  0  0  0  0  0  0
  -23.6250   -8.3560   22.1390 C   0  0  0  0  0  3  0  0  0  0  0  0
  -22.4700   -8.1030   21.3610 C   0  0  0  0  0  0  0  0  0  0  0  0
  -22.0740   -9.0450   20.3960 C   0  0  0  0  0  3  0  0  0  0  0  0
  -22.7990  -10.2340   20.2160 C   0  0  0  0  0  3  0  0  0  0  0  0
  -21.7210   -6.9560   21.4460 O   0  0  0  0  0  0  0  0  0  0  0  0
  -21.6470   -6.2280   22.6070 C   0  0  0  0  0  0  0  0  0  0  0  0
  -21.1810   -6.7930   23.8140 C   0  0  0  0  0  3  0  0  0  0  0  0
  -21.0580   -5.9920   24.9660 C   0  0  0  0  0  3  0  0  0  0  0  0
  -21.3900   -4.6250   24.9130 C   0  0  0  0  0  0  0  0  0  0  0  0
  -21.8480   -4.0580   23.7110 C   0  0  0  0  0  3  0  0  0  0  0  0
  -21.9740   -4.8580   22.5600 C   0  0  0  0  0  0  0  0  0  0  0  0
  -22.3970   -4.3020   21.3980 F   0  0  0  0  0  0  0  0  0  0  0  0
  -21.2650   -3.8510   26.0170 F   0  0  0  0  0  0  0  0  0  0  0  0
  -22.7890  -13.5940   21.0570 C   0  0  0  0  0  0  0  0  0  0  0  0
  -22.0460  -12.9030   21.9160 N   0  0  0  0  0  0  0  0  0  0  0  0
  -22.3570  -14.6120   20.5180 O   0  0  0  0  0  0  0  0  0  0  0  0
  -22.4070  -12.0800   22.3740 H   0  0  0  0  0  0  0  0  0  0  0  0
  -21.1030  -13.2050   22.1200 H   0  0  0  0  0  0  0  0  0  0  0  0
  -25.4290  -15.2600   20.2690 N   0  0  0  0  0  0  0  0  0  0  0  0
  -24.6540  -15.9100   20.3490 H   0  0  0  0  0  0  0  0  0  0  0  0
  -26.2820  -15.7010   19.9520 H   0  0  0  0  0  0  0  0  0  0  0  0
  -28.3060  -25.4280   20.9720 C   0  0  0  0  0  2  0  0  0  0  0  0
  -28.4370  -26.6910   20.2760 O   0  0  0  0  0  0  0  0  0  0  0  0
  -24.5560  -31.8900   23.2590 C   0  0  0  0  0  0  0  0  0  0  0  0
  -27.2840  -27.4510   20.2370 C   0  0  0  0  0  0  0  0  0  0  0  0
  -23.3870  -30.4710   21.6040 C   0  0  0  0  0  3  0  0  0  0  0  0
  -24.8770  -28.9430   20.2020 C   0  0  0  0  0  0  0  0  0  0  0  0
  -25.9120  -30.8530   21.4390 C   0  0  0  0  0  2  0  0  0  0  0  0
  -26.0230  -29.4800   20.8020 C   0  0  0  0  0  0  0  0  0  0  0  0
  -27.2330  -28.7430   20.8130 C   0  0  0  0  0  3  0  0  0  0  0  0
  -26.1240  -26.9330   19.6230 C   0  0  0  0  0  3  0  0  0  0  0  0
  -24.9240  -27.6690   19.6060 C   0  0  0  0  0  3  0  0  0  0  0  0
  -23.6230  -29.7880   20.2300 C   0  0  0  0  0  2  0  0  0  0  0  0
  -24.6360  -31.0870   22.1600 N   0  0  0  0  0  0  0  0  0  0  0  0
  -23.4640  -32.1520   23.7840 O   0  0  0  0  0  0  0  0  0  0  0  0
  -22.7320  -29.4480   22.5600 C   0  0  0  0  0  0  0  0  0  0  0  0
  -21.4100  -29.2550   22.4160 N   0  0  0  0  0  0  0  0  0  0  0  0
  -23.4100  -28.8300   23.3850 O   0  0  0  0  0  0  0  0  0  0  0  0
  -20.9240  -29.8060   21.7230 H   0  0  0  0  0  0  0  0  0  0  0  0
  -18.0400  -28.0360   22.8760 C   0  0  0  0  0  0  0  0  0  0  0  0
  -20.5920  -28.3110   23.1770 C   0  0  0  0  0  3  0  0  0  0  0  0
  -20.7100  -26.8800   22.6010 C   0  0  0  0  0  2  0  0  0  0  0  0
  -19.6210  -26.5500   21.5750 C   0  0  0  0  0  2  0  0  0  0  0  0
  -18.2310  -26.6880   22.2030 C   0  0  0  0  0  2  0  0  0  0  0  0
  -19.1480  -28.8050   23.3190 C   0  0  0  0  0  0  0  0  0  0  0  0
  -18.9140  -30.0670   23.9060 C   0  0  0  0  0  3  0  0  0  0  0  0
  -17.6040  -30.5600   24.0570 C   0  0  0  0  0  3  0  0  0  0  0  0
  -16.5090  -29.7870   23.6310 C   0  0  0  0  0  3  0  0  0  0  0  0
  -16.7290  -28.5270   23.0460 C   0  0  0  0  0  3  0  0  0  0  0  0
  -25.8270  -32.5350   23.8950 C   0  0  0  0  0  3  0  0  0  0  0  0
  -26.3270  -31.7820   25.1880 C   0  0  1  0  0  0  0  0  0  0  0  0
  -25.2180  -31.5490   26.2400 C   0  0  0  0  0  1  0  0  0  0  0  0
  -26.9250  -30.4040   24.8190 C   0  0  0  0  0  1  0  0  0  0  0  0
  -27.4620  -32.5890   25.8600 C   0  0  0  0  0  1  0  0  0  0  0  0
  -25.5060  -33.9360   24.2010 N   0  0  0  0  0  0  0  0  0  0  0  0
  -25.8530  -34.9800   23.4380 C   0  0  0  0  0  0  0  0  0  0  0  0
  -26.5480  -34.8670   22.4240 O   0  0  0  0  0  0  0  0  0  0  0  0
  -24.8930  -34.0980   24.9870 H   0  0  0  0  0  0  0  0  0  0  0  0
  -24.1370  -36.7670   23.0090 C   0  0  0  0  0  1  0  0  0  0  0  0
  -25.3500  -36.3720   23.8660 C   0  0  0  0  0  3  0  0  0  0  0  0
  -27.4540  -37.2670   24.7610 C   0  0  0  0  0  1  0  0  0  0  0  0
  -26.3850  -37.4250   23.7780 N   0  0  0  0  0  0  0  0  0  0  0  0
  -25.9740  -38.3460   23.9030 H   0  0  0  0  0  0  0  0  0  0  0  0
  1  5  1  0
  1  3  1  0
  2  4  1  0
  5  2  1  0
  6  4  1  0
  6  3  1  0
  6 55  1  0
  7 12  1  0
  7  8  1  0
  8 10  1  0
  8 11  1  0
  9 11  1  0
  9  5  1  0
 11 15  1  0
 12  9  1  0
 13 12  1  0
 14 12  1  0
 15 16  1  0
 16 25  1  0
 17 25  1  0
 18 23  1  0
 19 20  1  0
 19 18  1  0
 21 20  1  0
 21 30  1  0
 21 22  1  0
 23 17  1  0
 23 22  1  0
 24 17  2  0
 25 26  1  0
 27 28  2  0
 28 47  1  0
 29 28  1  0
 29 32  1  0
 30 27  1  0
 30 31  1  0
 31 29  2  0
 32 33  1  0
 33 34  2  0
 35 38  1  0
 35 34  1  0
 36 35  2  0
 37 36  1  0
 37 32  2  0
 38 39  1  0
 39 40  1  0
 40 41  2  0
 42 41  1  0
 42 46  1  0
 43 42  2  0
 44 39  2  0
 44 43  1  0
 45 44  1  0
 47 48  1  0
 48 51  1  0
 48 50  1  0
 49 47  2  0
 52 53  1  0
 52 27  1  0
 54 52  1  0
 56 55  1  0
 57 68  2  0
 58 56  1  0
 58 63  1  0
 59 67  1  0
 59 69  1  0
 60 66  1  0
 60 62  1  0
 61 67  1  0
 62 63  2  0
 62 61  1  0
 64 58  2  0
 65 64  1  0
 65 60  2  0
 66 59  1  0
 67 57  1  0
 69 71  2  0
 70 69  1  0
 72 70  1  0
 73 82  2  0
 73 78  1  0
 74 70  1  0
 74 78  1  0
 75 74  1  0
 76 77  1  0
 76 75  1  0
 77 73  1  0
 78 79  2  0
 79 80  1  0
 81 80  2  0
 82 81  1  0
 83 57  1  0
 83 88  1  0
 83 84  1  0
 84 87  1  1
 84 85  1  0
 86 84  1  0
 88 91  1  0
 89 93  1  0
 89 88  1  0
 90 89  2  0
 93 92  1  0
 95 93  1  0
 95 96  1  0
 95 94  1  0
M  ISO  4  17 100  25 100  55 101  56 101
M  END
>  <TORSDO>  (6) 
F 20

>  <SCORE>  (6) 
-13.671

>  <name>  (6) 
5

>  <ligand_id>  (6) 
5

>  <original_smiles>  (6) 
[H]c1c([H])c([H])c2c(c1[H])C([H])([H])C([H])([H])C([H])([H])C2([H])N([H])C(=O)C1([H])N(C(=O)C([H])(N([H])C(=O)C([H])(N([H])C([H])([H])[H])C([H])([H])[H])C(C([H])([H])[H])(C([H])([H])[H])C([H])([H])[H])C([H])([H])c2c([H])c(OC([H])([H])C3([H])C([H])([H])C([H])([H])C([H])(C4([H])N(C([H])([H])C([H])([H])N([H])C(=O)N5C([H])([H])C([H])([H])C([H])([H])C([H])(n6nc(-c7c([H])c([H])c(Oc8c([H])c([H])c(F)c([H])c8F)c([H])c7[H])c(C(=O)N([H])[H])c6N([H])[H])C5([H])[H])C([H])(C([H])([H])[H])C([H])([H])[N+]4([H])[H])C([H])([H])C3([H])[H])c([H])c([H])c2C1([H])[H]

>  <smiles>  (6) 
[H]c1c([H])c([H])c2c(c1[H])C([H])([H])C([H])([H])C([H])([H])C2([H])N([H])C(=O)C1([H])N(C(=O)C([H])(N([H])C(=O)C([H])(N([H])C([H])([H])[H])C([H])([H])[H])C(C([H])([H])[H])(C([H])([H])[H])C([H])([H])[H])C([H])([H])c2c([H])c(OC([H])([H])C3([H])C([H])([H])C([H])([H])C([H])(C4([H])N(C([H])([H])C([H])([H])N([H])C(=O)N5C([H])([H])C([H])([H])C([H])([H])C([H])(n6nc(-c7c([H])c([H])c(Oc8c([H])c([H])c(F)c([H])c8F)c([H])c7[H])c(C(=O)N([H])[H])c6N([H])[H])C5([H])[H])C([H])(C([H])([H])[H])C([H])([H])[N+]4([H])[H])C([H])([H])C3([H])[H])c([H])c([H])c2C1([H])[H]

$$$$
6:0:0
     RDKit          3D

 92100  0  0  1  0  0  0  0  0999 V2000
  -30.3380  -21.0000   20.2990 C   0  0  0  0  0  3  0  0  0  0  0  0
  -28.5830  -18.8950   20.3830 C   0  0  0  0  0  3  0  0  0  0  0  0
  -30.8350  -19.6710   20.1580 C   0  0  0  0  0  0  0  0  0  0  0  0
  -29.9420  -18.5510   20.1790 C   0  0  0  0  0  0  0  0  0  0  0  0
  -28.9590  -21.2330   20.4670 C   0  0  0  0  0  0  0  0  0  0  0  0
  -32.3290  -19.4940   19.9320 C   0  0  0  0  0  1  0  0  0  0  0  0
  -28.1150  -20.1750   20.5300 N   0  0  0  0  0  0  0  0  0  0  0  0
  -28.3620  -22.5240   20.5970 N   0  0  0  0  0  0  0  0  0  0  0  0
  -27.3570  -22.5140   20.7320 H   0  0  0  0  0  0  0  0  0  0  0  0
  -30.1680  -16.9330   18.2530 C   0  0  0  0  0  1  0  0  0  0  0  0
  -30.4230  -17.0950   19.7660 C   0  0  0  0  0  3  0  0  0  0  0  0
  -30.7010  -14.6510   20.3960 C   0  0  0  0  0  0  0  0  0  0  0  0
  -30.4170  -12.4200   19.3800 C   0  0  0  0  0  2  0  0  0  0  0  0
  -29.5080  -12.5630   18.1420 C   0  0  0  0  0  2  0  0  0  0  0  0
  -28.0300  -12.4240   18.5490 C   0  0  0  0  0  2  0  0  0  0  0  0
  -27.6570  -13.2940   19.7800 C   0  0  0  0  0  3  0  0  0  0  0  0
  -28.6990  -13.1720   20.9150 C   0  0  0  0  0  2  0  0  0  0  0  0
  -30.0160  -13.4680   20.3400 N   0  0  0  0  0  0  0  0  0  0  0  0
  -31.8990  -14.6920   20.1100 O   0  0  0  0  0  0  0  0  0  0  0  0
  -29.9760  -15.8210   20.4490 N   0  0  0  0  0  0  0  0  0  0  0  0
  -28.9970  -15.7280   20.6720 H   0  0  0  0  0  0  0  0  0  0  0  0
  -25.2540  -13.8900   20.4530 C   0  0  0  0  0  0  0  0  0  0  0  0
  -24.1850  -13.1190   20.8190 C   0  0  0  0  0  0  0  0  0  0  0  0
  -24.6510  -11.7680   20.8180 C   0  0  0  0  0  0  0  0  0  0  0  0
  -26.3040  -13.0110   20.2500 N   0  0  0  0  0  0  0  0  0  0  0  0
  -25.9480  -11.7310   20.5320 N   0  0  0  0  0  0  0  0  0  0  0  0
  -23.9250  -10.5070   21.0160 C   0  0  0  0  0  0  0  0  0  0  0  0
  -24.3470   -9.5540   21.9680 C   0  0  0  0  0  3  0  0  0  0  0  0
  -23.6210   -8.3570   22.1520 C   0  0  0  0  0  3  0  0  0  0  0  0
  -22.4590   -8.1060   21.3840 C   0  0  0  0  0  0  0  0  0  0  0  0
  -22.0580   -9.0480   20.4190 C   0  0  0  0  0  3  0  0  0  0  0  0
  -22.7840  -10.2360   20.2340 C   0  0  0  0  0  3  0  0  0  0  0  0
  -21.7060   -6.9610   21.4770 O   0  0  0  0  0  0  0  0  0  0  0  0
  -21.6430   -6.2330   22.6390 C   0  0  0  0  0  0  0  0  0  0  0  0
  -21.2040   -6.8020   23.8530 C   0  0  0  0  0  3  0  0  0  0  0  0
  -21.0890   -6.0000   25.0060 C   0  0  0  0  0  3  0  0  0  0  0  0
  -21.4040   -4.6290   24.9450 C   0  0  0  0  0  0  0  0  0  0  0  0
  -21.8370   -4.0600   23.7350 C   0  0  0  0  0  3  0  0  0  0  0  0
  -21.9540   -4.8590   22.5850 C   0  0  0  0  0  0  0  0  0  0  0  0
  -22.3520   -4.3010   21.4160 F   0  0  0  0  0  0  0  0  0  0  0  0
  -21.2860   -3.8560   26.0500 F   0  0  0  0  0  0  0  0  0  0  0  0
  -22.7810  -13.5970   21.0560 C   0  0  0  0  0  0  0  0  0  0  0  0
  -22.0390  -12.9110   21.9180 N   0  0  0  0  0  0  0  0  0  0  0  0
  -22.3510  -14.6130   20.5110 O   0  0  0  0  0  0  0  0  0  0  0  0
  -22.4000  -12.0910   22.3830 H   0  0  0  0  0  0  0  0  0  0  0  0
  -21.0960  -13.2130   22.1180 H   0  0  0  0  0  0  0  0  0  0  0  0
  -25.4150  -15.2580   20.2520 N   0  0  0  0  0  0  0  0  0  0  0  0
  -24.6330  -15.8990   20.3110 H   0  0  0  0  0  0  0  0  0  0  0  0
  -26.2520  -15.6850   19.8780 H   0  0  0  0  0  0  0  0  0  0  0  0
  -28.9330  -23.8570   20.2280 C   0  0  0  0  0  2  0  0  0  0  0  0
  -28.0220  -25.0940   20.6620 C   0  0  0  0  0  2  0  0  0  0  0  0
  -28.2970  -26.4740   20.1910 O   0  0  0  0  0  0  0  0  0  0  0  0
  -24.6030  -31.8820   23.2280 C   0  0  0  0  0  0  0  0  0  0  0  0
  -27.1960  -27.3410   20.1520 C   0  0  0  0  0  0  0  0  0  0  0  0
  -23.3910  -30.4860   21.5930 C   0  0  0  0  0  3  0  0  0  0  0  0
  -24.8360  -28.9480   20.1520 C   0  0  0  0  0  0  0  0  0  0  0  0
  -25.9270  -30.8120   21.3940 C   0  0  0  0  0  2  0  0  0  0  0  0
  -26.0070  -29.4360   20.7460 C   0  0  0  0  0  0  0  0  0  0  0  0
  -27.1940  -28.6440   20.7370 C   0  0  0  0  0  3  0  0  0  0  0  0
  -26.0100  -26.9170   19.5110 C   0  0  0  0  0  3  0  0  0  0  0  0
  -24.8400  -27.6970   19.5220 C   0  0  0  0  0  3  0  0  0  0  0  0
  -23.5970  -29.8190   20.2070 C   0  0  0  0  0  2  0  0  0  0  0  0
  -24.6590  -31.0760   22.1280 N   0  0  0  0  0  0  0  0  0  0  0  0
  -23.5240  -32.1570   23.7710 O   0  0  0  0  0  0  0  0  0  0  0  0
  -22.7380  -29.4610   22.5520 C   0  0  0  0  0  0  0  0  0  0  0  0
  -21.4120  -29.2810   22.4330 N   0  0  0  0  0  0  0  0  0  0  0  0
  -23.4240  -28.8350   23.3630 O   0  0  0  0  0  0  0  0  0  0  0  0
  -20.9200  -29.8430   21.7520 H   0  0  0  0  0  0  0  0  0  0  0  0
  -18.0400  -28.0790   22.9460 C   0  0  0  0  0  0  0  0  0  0  0  0
  -20.5990  -28.3420   23.2070 C   0  0  0  0  0  3  0  0  0  0  0  0
  -20.7010  -26.9110   22.6320 C   0  0  0  0  0  2  0  0  0  0  0  0
  -19.5960  -26.5850   21.6230 C   0  0  0  0  0  2  0  0  0  0  0  0
  -18.2160  -26.7290   22.2710 C   0  0  0  0  0  2  0  0  0  0  0  0
  -19.1590  -28.8430   23.3730 C   0  0  0  0  0  0  0  0  0  0  0  0
  -18.9430  -30.1060   23.9650 C   0  0  0  0  0  3  0  0  0  0  0  0
  -17.6380  -30.6070   24.1350 C   0  0  0  0  0  3  0  0  0  0  0  0
  -16.5320  -29.8400   23.7250 C   0  0  0  0  0  3  0  0  0  0  0  0
  -16.7350  -28.5780   23.1380 C   0  0  0  0  0  3  0  0  0  0  0  0
  -25.8910  -32.5140   23.8420 C   0  0  0  0  0  3  0  0  0  0  0  0
  -26.4150  -31.7420   25.1140 C   0  0  1  0  0  0  0  0  0  0  0  0
  -25.3290  -31.5040   26.1880 C   0  0  0  0  0  1  0  0  0  0  0  0
  -26.9960  -30.3640   24.7170 C   0  0  0  0  0  1  0  0  0  0  0  0
  -27.5690  -32.5380   25.7710 C   0  0  0  0  0  1  0  0  0  0  0  0
  -25.5830  -33.9120   24.1750 N   0  0  0  0  0  0  0  0  0  0  0  0
  -25.9120  -34.9660   23.4170 C   0  0  0  0  0  0  0  0  0  0  0  0
  -26.5810  -34.8660   22.3830 O   0  0  0  0  0  0  0  0  0  0  0  0
  -24.9830  -34.0660   24.9720 H   0  0  0  0  0  0  0  0  0  0  0  0
  -24.1860  -36.7620   23.0660 C   0  0  0  0  0  1  0  0  0  0  0  0
  -25.4250  -36.3530   23.8770 C   0  0  0  0  0  3  0  0  0  0  0  0
  -27.5590  -37.2330   24.7140 C   0  0  0  0  0  1  0  0  0  0  0  0
  -26.4580  -37.4050   23.7690 N   0  0  0  0  0  0  0  0  0  0  0  0
  -26.0540  -38.3240   23.9210 H   0  0  0  0  0  0  0  0  0  0  0  0
  1  5  1  0
  2  7  1  0
  3  4  1  0
  3  1  2  0
  4  2  2  0
  5  7  2  0
  5  8  1  0
  6  3  1  0
  8  9  1  0
 11 10  1  0
 11  4  1  0
 11 20  1  0
 12 20  1  0
 13 18  1  0
 14 15  1  0
 14 13  1  0
 16 15  1  0
 16 25  1  0
 16 17  1  0
 18 12  1  0
 18 17  1  0
 19 12  2  0
 20 21  1  0
 22 23  2  0
 23 42  1  0
 24 23  1  0
 24 27  1  0
 25 22  1  0
 25 26  1  0
 26 24  2  0
 27 28  1  0
 28 29  2  0
 30 33  1  0
 30 29  1  0
 31 30  2  0
 32 31  1  0
 32 27  2  0
 33 34  1  0
 34 35  1  0
 35 36  2  0
 37 36  1  0
 37 41  1  0
 38 37  2  0
 39 34  2  0
 39 38  1  0
 40 39  1  0
 42 43  1  0
 43 46  1  0
 43 45  1  0
 44 42  2  0
 47 48  1  0
 47 22  1  0
 49 47  1  0
 50  8  1  0
 50 51  1  0
 52 51  1  0
 53 64  2  0
 54 52  1  0
 54 59  1  0
 55 63  1  0
 55 65  1  0
 56 62  1  0
 56 58  1  0
 57 63  1  0
 58 57  1  0
 59 58  2  0
 60 61  1  0
 60 54  2  0
 61 56  2  0
 62 55  1  0
 63 53  1  0
 65 67  2  0
 66 65  1  0
 68 66  1  0
 69 78  2  0
 69 74  1  0
 70 66  1  0
 70 74  1  0
 71 70  1  0
 72 73  1  0
 72 71  1  0
 73 69  1  0
 74 75  2  0
 75 76  1  0
 77 76  2  0
 78 77  1  0
 79 53  1  0
 79 84  1  0
 79 80  1  0
 80 83  1  1
 80 81  1  0
 82 80  1  0
 84 87  1  0
 85 89  1  0
 85 84  1  0
 86 85  2  0
 89 88  1  0
 91 89  1  0
 91 92  1  0
 91 90  1  0
M  ISO  4  12 100  20 100  51 101  52 101
M  END
>  <TORSDO>  (7) 
F 19

>  <SCORE>  (7) 
-14.078

>  <name>  (7) 
6

>  <ligand_id>  (7) 
6

>  <original_smiles>  (7) 
[H]c1nc(N([H])C([H])([H])C([H])([H])Oc2c([H])c([H])c3c(c2[H])C([H])([H])N(C(=O)C([H])(N([H])C(=O)C([H])(N([H])C([H])([H])[H])C([H])([H])[H])C(C([H])([H])[H])(C([H])([H])[H])C([H])([H])[H])C([H])(C(=O)N([H])C2([H])c4c([H])c([H])c([H])c([H])c4C([H])([H])C([H])([H])C2([H])[H])C3([H])[H])c([H])c(C([H])([H])[H])c1C([H])(N([H])C(=O)N1C([H])([H])C([H])([H])C([H])([H])C([H])(n2nc(-c3c([H])c([H])c(Oc4c([H])c([H])c(F)c([H])c4F)c([H])c3[H])c(C(=O)N([H])[H])c2N([H])[H])C1([H])[H])C([H])([H])[H]

>  <smiles>  (7) 
[H]c1nc(N([H])C([H])([H])C([H])([H])Oc2c([H])c([H])c3c(c2[H])C([H])([H])N(C(=O)C([H])(N([H])C(=O)C([H])(N([H])C([H])([H])[H])C([H])([H])[H])C(C([H])([H])[H])(C([H])([H])[H])C([H])([H])[H])C([H])(C(=O)N([H])C2([H])c4c([H])c([H])c([H])c([H])c4C([H])([H])C([H])([H])C2([H])[H])C3([H])[H])c([H])c(C([H])([H])[H])c1C([H])(N([H])C(=O)N1C([H])([H])C([H])([H])C([H])([H])C([H])(n2nc(-c3c([H])c([H])c(Oc4c([H])c([H])c(F)c([H])c4F)c([H])c3[H])c(C(=O)N([H])[H])c2N([H])[H])C1([H])[H])C([H])([H])[H]

$$$$
7:0:0
     RDKit          3D

 96105  0  0  1  0  0  0  0  0999 V2000
  -28.6800  -23.2360   18.8790 C   0  0  0  0  0  3  0  0  0  0  0  0
  -29.0480  -21.9450   19.3140 C   0  0  0  0  0  3  0  0  0  0  0  0
  -29.6960  -24.1910   20.8620 C   0  0  0  0  0  3  0  0  0  0  0  0
  -29.0030  -24.3720   19.6490 C   0  0  0  0  0  0  0  0  0  0  0  0
  -30.0780  -22.9000   21.3020 C   0  0  0  0  0  0  0  0  0  0  0  0
  -29.7580  -21.7540   20.5250 C   0  0  0  0  0  0  0  0  0  0  0  0
  -29.9330  -22.4770   23.8030 C   0  0  0  0  0  1  0  0  0  0  0  0
  -30.8470  -22.7940   22.6130 C   0  0  0  0  0  2  0  0  0  0  0  0
  -30.1510  -20.4740   20.9770 N   0  0  0  0  0  0  0  0  0  0  0  0
  -30.6710  -20.4120   21.8450 H   0  0  0  0  0  0  0  0  0  0  0  0
  -31.1020  -17.7340   18.4500 C   0  0  0  0  0  2  0  0  0  0  0  0
  -30.9300  -19.1670   18.9990 C   0  0  0  0  0  2  0  0  0  0  0  0
  -29.8720  -16.8500   18.7150 C   0  0  0  0  0  2  0  0  0  0  0  0
  -30.0740  -17.9530   21.0520 C   0  0  0  0  0  2  0  0  0  0  0  0
  -29.9590  -19.2460   20.2000 C   0  0  0  0  0  3  0  0  0  0  0  0
  -29.5350  -16.7470   20.2320 C   0  0  0  0  0  3  0  0  0  0  0  0
  -30.5700  -14.4260   20.4640 C   0  0  0  0  0  0  0  0  0  0  0  0
  -30.3220  -12.2630   19.3210 C   0  0  0  0  0  2  0  0  0  0  0  0
  -29.3660  -12.4850   18.1270 C   0  0  0  0  0  2  0  0  0  0  0  0
  -27.8920  -12.3440   18.5590 C   0  0  0  0  0  2  0  0  0  0  0  0
  -27.5630  -13.1580   19.8390 C   0  0  0  0  0  3  0  0  0  0  0  0
  -28.6260  -12.8990   20.9360 C   0  0  0  0  0  2  0  0  0  0  0  0
  -29.9510  -13.2180   20.3740 N   0  0  0  0  0  0  0  0  0  0  0  0
  -31.6950  -14.6480   20.0080 O   0  0  0  0  0  0  0  0  0  0  0  0
  -29.7380  -15.4150   20.8400 N   0  0  0  0  0  0  0  0  0  0  0  0
  -28.9190  -15.0650   21.3160 H   0  0  0  0  0  0  0  0  0  0  0  0
  -25.1600  -13.7620   20.5430 C   0  0  0  0  0  0  0  0  0  0  0  0
  -24.0950  -12.9860   20.9140 C   0  0  0  0  0  0  0  0  0  0  0  0
  -24.5610  -11.6360   20.8840 C   0  0  0  0  0  0  0  0  0  0  0  0
  -26.2090  -12.8830   20.3160 N   0  0  0  0  0  0  0  0  0  0  0  0
  -25.8520  -11.6000   20.5760 N   0  0  0  0  0  0  0  0  0  0  0  0
  -23.8410  -10.3720   21.0750 C   0  0  0  0  0  0  0  0  0  0  0  0
  -24.2890   -9.3990   21.9940 C   0  0  0  0  0  3  0  0  0  0  0  0
  -23.5700   -8.1970   22.1740 C   0  0  0  0  0  3  0  0  0  0  0  0
  -22.3890   -7.9620   21.4340 C   0  0  0  0  0  0  0  0  0  0  0  0
  -21.9590   -8.9230   20.5010 C   0  0  0  0  0  3  0  0  0  0  0  0
  -22.6800  -10.1150   20.3200 C   0  0  0  0  0  3  0  0  0  0  0  0
  -21.6380   -6.8130   21.5250 O   0  0  0  0  0  0  0  0  0  0  0  0
  -21.6220   -6.0540   22.6660 C   0  0  0  0  0  0  0  0  0  0  0  0
  -21.2300   -6.5900   23.9130 C   0  0  0  0  0  3  0  0  0  0  0  0
  -21.1600   -5.7560   25.0470 C   0  0  0  0  0  3  0  0  0  0  0  0
  -21.4710   -4.3870   24.9350 C   0  0  0  0  0  0  0  0  0  0  0  0
  -21.8560   -3.8500   23.6940 C   0  0  0  0  0  3  0  0  0  0  0  0
  -21.9280   -4.6810   22.5620 C   0  0  0  0  0  0  0  0  0  0  0  0
  -22.2780   -4.1560   21.3640 F   0  0  0  0  0  0  0  0  0  0  0  0
  -21.3960   -3.5830   26.0220 F   0  0  0  0  0  0  0  0  0  0  0  0
  -22.6960  -13.4570   21.1890 C   0  0  0  0  0  0  0  0  0  0  0  0
  -21.9750  -12.7590   22.0600 N   0  0  0  0  0  0  0  0  0  0  0  0
  -22.2490  -14.4770   20.6670 O   0  0  0  0  0  0  0  0  0  0  0  0
  -22.3480  -11.9310   22.5020 H   0  0  0  0  0  0  0  0  0  0  0  0
  -21.0360  -13.0530   22.2860 H   0  0  0  0  0  0  0  0  0  0  0  0
  -25.3170  -15.1330   20.3590 N   0  0  0  0  0  0  0  0  0  0  0  0
  -24.5420  -15.7800   20.4550 H   0  0  0  0  0  0  0  0  0  0  0  0
  -26.1560  -15.5740   20.0070 H   0  0  0  0  0  0  0  0  0  0  0  0
  -28.6890  -25.7740   19.1260 C   0  0  0  0  0  2  0  0  0  0  0  0
  -28.3900  -26.7270   20.1550 O   0  0  0  0  0  0  0  0  0  0  0  0
  -24.5610  -31.8750   23.2210 C   0  0  0  0  0  0  0  0  0  0  0  0
  -27.1920  -27.4150   20.1380 C   0  0  0  0  0  0  0  0  0  0  0  0
  -23.3450  -30.4700   21.5860 C   0  0  0  0  0  3  0  0  0  0  0  0
  -24.7890  -28.9190   20.1660 C   0  0  0  0  0  0  0  0  0  0  0  0
  -25.8700  -30.8170   21.3840 C   0  0  0  0  0  2  0  0  0  0  0  0
  -25.9480  -29.4420   20.7520 C   0  0  0  0  0  0  0  0  0  0  0  0
  -27.1450  -28.6920   20.7440 C   0  0  0  0  0  3  0  0  0  0  0  0
  -26.0050  -26.8940   19.5710 C   0  0  0  0  0  3  0  0  0  0  0  0
  -24.8110  -27.6420   19.5780 C   0  0  0  0  0  3  0  0  0  0  0  0
  -23.5470  -29.7800   20.2110 C   0  0  0  0  0  2  0  0  0  0  0  0
  -24.6110  -31.0700   22.1220 N   0  0  0  0  0  0  0  0  0  0  0  0
  -23.4820  -32.1550   23.7610 O   0  0  0  0  0  0  0  0  0  0  0  0
  -22.6900  -29.4590   22.5530 C   0  0  0  0  0  0  0  0  0  0  0  0
  -21.3630  -29.2890   22.4350 N   0  0  0  0  0  0  0  0  0  0  0  0
  -23.3730  -28.8260   23.3640 O   0  0  0  0  0  0  0  0  0  0  0  0
  -20.8750  -29.8520   21.7510 H   0  0  0  0  0  0  0  0  0  0  0  0
  -17.9790  -28.1400   22.9570 C   0  0  0  0  0  0  0  0  0  0  0  0
  -20.5420  -28.3620   23.2100 C   0  0  0  0  0  3  0  0  0  0  0  0
  -20.6210  -26.9300   22.6300 C   0  0  0  0  0  2  0  0  0  0  0  0
  -19.5070  -26.6260   21.6230 C   0  0  0  0  0  2  0  0  0  0  0  0
  -18.1320  -26.7900   22.2780 C   0  0  0  0  0  2  0  0  0  0  0  0
  -19.1120  -28.8850   23.3800 C   0  0  0  0  0  0  0  0  0  0  0  0
  -18.9160  -30.1510   23.9740 C   0  0  0  0  0  3  0  0  0  0  0  0
  -17.6200  -30.6710   24.1500 C   0  0  0  0  0  3  0  0  0  0  0  0
  -16.5020  -29.9210   23.7430 C   0  0  0  0  0  3  0  0  0  0  0  0
  -16.6830  -28.6580   23.1530 C   0  0  0  0  0  3  0  0  0  0  0  0
  -25.8520  -32.5000   23.8370 C   0  0  0  0  0  3  0  0  0  0  0  0
  -26.3740  -31.7260   25.1080 C   0  0  1  0  0  0  0  0  0  0  0  0
  -25.2850  -31.4890   26.1820 C   0  0  0  0  0  1  0  0  0  0  0  0
  -26.9480  -30.3470   24.7090 C   0  0  0  0  0  1  0  0  0  0  0  0
  -27.5320  -32.5130   25.7640 C   0  0  0  0  0  1  0  0  0  0  0  0
  -25.5490  -33.8990   24.1670 N   0  0  0  0  0  0  0  0  0  0  0  0
  -25.8940  -34.9500   23.4100 C   0  0  0  0  0  0  0  0  0  0  0  0
  -26.5690  -34.8450   22.3830 O   0  0  0  0  0  0  0  0  0  0  0  0
  -24.9480  -34.0570   24.9620 H   0  0  0  0  0  0  0  0  0  0  0  0
  -24.1810  -36.7550   23.0410 C   0  0  0  0  0  1  0  0  0  0  0  0
  -25.4100  -36.3410   23.8660 C   0  0  0  0  0  3  0  0  0  0  0  0
  -27.5430  -37.2060   24.7210 C   0  0  0  0  0  1  0  0  0  0  0  0
  -26.4500  -37.3880   23.7690 N   0  0  0  0  0  0  0  0  0  0  0  0
  -26.0490  -38.3090   23.9200 H   0  0  0  0  0  0  0  0  0  0  0  0
  1  2  2  0
  1  4  1  0
  2  6  1  0
  3  5  1  0
  4  3  2  0
  5  8  1  0
  6  9  1  0
  6  5  2  0
  8  7  1  0
  9 10  1  0
 11 13  1  0
 11 12  1  0
 12 15  1  0
 13 16  1  0
 15  9  1  0
 15 14  1  0
 16 25  1  0
 16 14  1  0
 17 25  1  0
 18 23  1  0
 19 20  1  0
 19 18  1  0
 21 20  1  0
 21 30  1  0
 21 22  1  0
 23 17  1  0
 23 22  1  0
 24 17  2  0
 25 26  1  0
 27 28  2  0
 28 47  1  0
 29 28  1  0
 29 32  1  0
 30 27  1  0
 30 31  1  0
 31 29  2  0
 32 33  1  0
 33 34  2  0
 35 38  1  0
 35 34  1  0
 36 35  2  0
 37 36  1  0
 37 32  2  0
 38 39  1  0
 39 40  1  0
 40 41  2  0
 42 41  1  0
 42 46  1  0
 43 42  2  0
 44 39  2  0
 44 43  1  0
 45 44  1  0
 47 48  1  0
 48 51  1  0
 48 50  1  0
 49 47  2  0
 52 53  1  0
 52 27  1  0
 54 52  1  0
 55  4  1  0
 55 56  1  0
 57 68  2  0
 58 56  1  0
 58 63  1  0
 59 67  1  0
 59 69  1  0
 60 66  1  0
 60 62  1  0
 61 67  1  0
 62 61  1  0
 63 62  2  0
 64 65  1  0
 64 58  2  0
 65 60  2  0
 66 59  1  0
 67 57  1  0
 69 71  2  0
 70 69  1  0
 72 70  1  0
 73 82  2  0
 73 78  1  0
 74 70  1  0
 74 78  1  0
 75 74  1  0
 76 77  1  0
 76 75  1  0
 77 73  1  0
 78 79  2  0
 79 80  1  0
 81 80  2  0
 82 81  1  0
 83 57  1  0
 83 88  1  0
 83 84  1  0
 84 87  1  1
 84 85  1  0
 86 84  1  0
 88 91  1  0
 89 93  1  0
 89 88  1  0
 90 89  2  0
 93 92  1  0
 95 93  1  0
 95 96  1  0
 95 94  1  0
M  ISO  4  17 100  25 100  55 101  56 101
M  END
>  <TORSDO>  (8) 
F 20

>  <SCORE>  (8) 
-13.822

>  <name>  (8) 
7

>  <ligand_id>  (8) 
7

>  <original_smiles>  (8) 
[H]c1c([H])c([H])c2c(c1[H])C([H])([H])C([H])([H])C([H])([H])C2([H])N([H])C(=O)C1([H])N(C(=O)C([H])(N([H])C(=O)C([H])(N([H])C([H])([H])[H])C([H])([H])[H])C(C([H])([H])[H])(C([H])([H])[H])C([H])([H])[H])C([H])([H])c2c([H])c(OC([H])([H])c3c([H])c([H])c(N([H])C4([H])C([H])([H])C([H])([H])C([H])([H])C([H])(N([H])C(=O)N5C([H])([H])C([H])([H])C([H])([H])C([H])(n6nc(-c7c([H])c([H])c(Oc8c([H])c([H])c(F)c([H])c8F)c([H])c7[H])c(C(=O)N([H])[H])c6N([H])[H])C5([H])[H])C4([H])[H])c(C([H])([H])C([H])([H])[H])c3[H])c([H])c([H])c2C1([H])[H]

>  <smiles>  (8) 
[H]c1c([H])c([H])c2c(c1[H])C([H])([H])C([H])([H])C([H])([H])C2([H])N([H])C(=O)C1([H])N(C(=O)C([H])(N([H])C(=O)C([H])(N([H])C([H])([H])[H])C([H])([H])[H])C(C([H])([H])[H])(C([H])([H])[H])C([H])([H])[H])C([H])([H])c2c([H])c(OC([H])([H])c3c([H])c([H])c(N([H])C4([H])C([H])([H])C([H])([H])C([H])([H])C([H])(N([H])C(=O)N5C([H])([H])C([H])([H])C([H])([H])C([H])(n6nc(-c7c([H])c([H])c(Oc8c([H])c([H])c(F)c([H])c8F)c([H])c7[H])c(C(=O)N([H])[H])c6N([H])[H])C5([H])[H])C4([H])[H])c(C([H])([H])C([H])([H])[H])c3[H])c([H])c([H])c2C1([H])[H]

$$$$
8:0:0
     RDKit          3D

 96105  0  0  1  0  0  0  0  0999 V2000
  -28.7860  -22.7170   20.9870 C   0  0  0  0  0  3  0  0  0  0  0  0
  -30.7860  -19.7780   22.4220 C   0  0  0  0  0  2  0  0  0  0  0  0
  -30.0070  -21.0690   22.6240 C   0  0  0  0  0  2  0  0  0  0  0  0
  -30.2660  -19.2360   21.0800 C   0  0  0  0  0  3  0  0  0  0  0  0
  -29.8950  -21.6310   21.2020 C   0  0  0  0  0  3  0  0  0  0  0  0
  -29.7290  -20.4260   20.3550 N   0  0  0  0  0  4  0  0  0  0  0  0
  -28.7480  -20.2900   20.1770 H   0  0  0  0  0  0  0  0  0  0  0  0
  -30.1780  -20.5770   19.4650 H   0  0  0  0  0  0  0  0  0  0  0  0
  -31.3350  -18.4480   20.2720 C   0  0  0  0  0  2  0  0  0  0  0  0
  -31.9290  -17.1720   20.9410 C   0  0  0  0  0  2  0  0  0  0  0  0
  -31.7800  -14.8590   19.9890 C   0  0  0  0  0  0  0  0  0  0  0  0
  -31.3840  -12.5820   19.1190 C   0  0  0  0  0  2  0  0  0  0  0  0
  -30.4310  -12.6380   17.9080 C   0  0  0  0  0  2  0  0  0  0  0  0
  -28.9610  -12.6040   18.3720 C   0  0  0  0  0  2  0  0  0  0  0  0
  -28.6640  -13.6250   19.5030 C   0  0  0  0  0  3  0  0  0  0  0  0
  -29.7270  -13.5320   20.6200 C   0  0  0  0  0  2  0  0  0  0  0  0
  -31.0520  -13.7100   20.0020 N   0  0  0  0  0  0  0  0  0  0  0  0
  -32.8560  -14.9650   19.3930 O   0  0  0  0  0  0  0  0  0  0  0  0
  -31.2400  -15.9050   20.6420 N   0  0  0  0  0  0  0  0  0  0  0  0
  -30.3480  -15.7430   21.0860 H   0  0  0  0  0  0  0  0  0  0  0  0
  -26.3800  -14.4310   20.3710 C   0  0  0  0  0  0  0  0  0  0  0  0
  -25.2520  -13.7520   20.7440 C   0  0  0  0  0  0  0  0  0  0  0  0
  -25.5590  -12.3650   20.5970 C   0  0  0  0  0  0  0  0  0  0  0  0
  -27.3110  -13.4620   20.0280 N   0  0  0  0  0  0  0  0  0  0  0  0
  -26.8220  -12.2100   20.2190 N   0  0  0  0  0  0  0  0  0  0  0  0
  -24.7080  -11.1760   20.7400 C   0  0  0  0  0  0  0  0  0  0  0  0
  -25.0430  -10.1300   21.6290 C   0  0  0  0  0  3  0  0  0  0  0  0
  -24.2000   -9.0060   21.7620 C   0  0  0  0  0  3  0  0  0  0  0  0
  -23.0060   -8.9210   21.0060 C   0  0  0  0  0  0  0  0  0  0  0  0
  -22.6880   -9.9540   20.1080 C   0  0  0  0  0  3  0  0  0  0  0  0
  -23.5310  -11.0700   19.9720 C   0  0  0  0  0  3  0  0  0  0  0  0
  -22.1390   -7.8560   21.0520 O   0  0  0  0  0  0  0  0  0  0  0  0
  -21.9170   -7.1560   22.2110 C   0  0  0  0  0  0  0  0  0  0  0  0
  -21.4300   -7.7840   23.3780 C   0  0  0  0  0  3  0  0  0  0  0  0
  -21.1500   -7.0160   24.5260 C   0  0  0  0  0  3  0  0  0  0  0  0
  -21.3470   -5.6220   24.5070 C   0  0  0  0  0  0  0  0  0  0  0  0
  -21.8280   -4.9950   23.3430 C   0  0  0  0  0  3  0  0  0  0  0  0
  -22.1090   -5.7600   22.1980 C   0  0  0  0  0  0  0  0  0  0  0  0
  -22.5510   -5.1480   21.0730 F   0  0  0  0  0  0  0  0  0  0  0  0
  -21.0720   -4.8830   25.6050 F   0  0  0  0  0  0  0  0  0  0  0  0
  -23.9290  -14.3540   21.1230 C   0  0  0  0  0  0  0  0  0  0  0  0
  -23.1830  -13.6920   22.0000 N   0  0  0  0  0  0  0  0  0  0  0  0
  -23.5710  -15.4430   20.6770 O   0  0  0  0  0  0  0  0  0  0  0  0
  -23.4850  -12.8070   22.3810 H   0  0  0  0  0  0  0  0  0  0  0  0
  -22.2960  -14.0750   22.2940 H   0  0  0  0  0  0  0  0  0  0  0  0
  -26.6880  -15.7850   20.2790 N   0  0  0  0  0  0  0  0  0  0  0  0
  -26.0030  -16.5090   20.4660 H   0  0  0  0  0  0  0  0  0  0  0  0
  -27.5630  -16.1490   19.9230 H   0  0  0  0  0  0  0  0  0  0  0  0
  -27.5680  -24.6570   22.3430 C   0  0  0  0  0  2  0  0  0  0  0  0
  -27.7850  -23.5270   23.3070 C   0  0  0  0  0  2  0  0  0  0  0  0
  -28.7400  -23.7150   22.1440 C   0  0  0  0  0  3  0  0  0  0  0  0
  -29.0870  -23.4340   19.7410 N   0  0  0  0  0  0  0  0  0  0  0  0
  -30.0270  -23.8190   19.7620 H   0  0  0  0  0  0  0  0  0  0  0  0
  -28.1450  -24.4870   19.3240 C   0  0  0  0  0  2  0  0  0  0  0  0
  -28.5160  -25.9010   19.8490 C   0  0  0  0  0  2  0  0  0  0  0  0
  -28.1610  -26.9530   18.9470 O   0  0  0  0  0  0  0  0  0  0  0  0
  -24.4260  -31.5430   22.9330 C   0  0  0  0  0  0  0  0  0  0  0  0
  -26.9670  -27.5940   19.1780 C   0  0  0  0  0  0  0  0  0  0  0  0
  -23.1440  -30.3050   21.2170 C   0  0  0  0  0  3  0  0  0  0  0  0
  -24.5350  -28.9910   19.5280 C   0  0  0  0  0  0  0  0  0  0  0  0
  -25.6370  -30.7740   20.8940 C   0  0  0  0  0  2  0  0  0  0  0  0
  -25.7150  -29.4890   20.0950 C   0  0  0  0  0  0  0  0  0  0  0  0
  -26.9340  -28.8000   19.9160 C   0  0  0  0  0  3  0  0  0  0  0  0
  -25.7730  -27.1010   18.6140 C   0  0  0  0  0  3  0  0  0  0  0  0
  -24.5580  -27.7950   18.7860 C   0  0  0  0  0  3  0  0  0  0  0  0
  -23.2740  -29.7960   19.7560 C   0  0  0  0  0  2  0  0  0  0  0  0
  -24.4250  -30.8820   21.7390 N   0  0  0  0  0  0  0  0  0  0  0  0
  -23.3790  -31.7130   23.5720 O   0  0  0  0  0  0  0  0  0  0  0  0
  -22.5890  -29.1570   22.0900 C   0  0  0  0  0  0  0  0  0  0  0  0
  -21.2740  -28.9030   21.9790 N   0  0  0  0  0  0  0  0  0  0  0  0
  -23.3350  -28.5010   22.8220 O   0  0  0  0  0  0  0  0  0  0  0  0
  -20.7300  -29.4920   21.3630 H   0  0  0  0  0  0  0  0  0  0  0  0
  -18.0190  -27.3820   22.3480 C   0  0  0  0  0  0  0  0  0  0  0  0
  -20.5410  -27.8450   22.6720 C   0  0  0  0  0  3  0  0  0  0  0  0
  -20.7750  -26.4730   21.9990 C   0  0  0  0  0  2  0  0  0  0  0  0
  -19.7130  -26.1260   20.9510 C   0  0  0  0  0  2  0  0  0  0  0  0
  -18.3180  -26.1040   21.5840 C   0  0  0  0  0  2  0  0  0  0  0  0
  -19.0620  -28.2060   22.8460 C   0  0  0  0  0  0  0  0  0  0  0  0
  -18.7290  -29.4010   23.5190 C   0  0  0  0  0  3  0  0  0  0  0  0
  -17.3840  -29.7740   23.7020 C   0  0  0  0  0  3  0  0  0  0  0  0
  -16.3550  -28.9450   23.2240 C   0  0  0  0  0  3  0  0  0  0  0  0
  -16.6720  -27.7510   22.5510 C   0  0  0  0  0  3  0  0  0  0  0  0
  -25.7380  -32.1370   23.5370 C   0  0  0  0  0  3  0  0  0  0  0  0
  -25.4280  -33.4870   24.0260 N   0  0  0  0  0  0  0  0  0  0  0  0
  -25.7320  -34.6180   23.3790 C   0  0  0  0  0  0  0  0  0  0  0  0
  -26.3750  -34.6350   22.3260 O   0  0  0  0  0  0  0  0  0  0  0  0
  -24.8540  -33.5470   24.8550 H   0  0  0  0  0  0  0  0  0  0  0  0
  -23.9840  -36.4220   23.2580 C   0  0  0  0  0  1  0  0  0  0  0  0
  -25.2440  -35.9430   23.9970 C   0  0  0  0  0  3  0  0  0  0  0  0
  -27.3880  -36.7490   24.8800 C   0  0  0  0  0  1  0  0  0  0  0  0
  -26.2680  -37.0110   23.9810 N   0  0  0  0  0  0  0  0  0  0  0  0
  -25.8590  -37.9070   24.2360 H   0  0  0  0  0  0  0  0  0  0  0  0
  -26.3480  -31.2510   24.6920 C   0  0  1  0  0  0  0  0  0  0  0  0
  -25.3320  -30.8900   25.8000 C   0  0  0  0  0  1  0  0  0  0  0  0
  -26.9170  -29.9310   24.1220 C   0  0  0  0  0  1  0  0  0  0  0  0
  -27.5320  -31.9940   25.3530 C   0  0  0  0  0  1  0  0  0  0  0  0
  1 52  1  0
  1 51  1  0
  2  3  1  0
  4  9  1  0
  4  2  1  0
  5  1  1  0
  5  3  1  0
  6  4  1  0
  6  5  1  0
  7  6  1  0
  8  6  1  0
  9 10  1  0
 11 17  1  0
 11 19  1  0
 12 17  1  0
 13 14  1  0
 13 12  1  0
 15 14  1  0
 15 24  1  0
 15 16  1  0
 17 16  1  0
 18 11  2  0
 19 10  1  0
 19 20  1  0
 21 22  2  0
 22 41  1  0
 23 26  1  0
 23 22  1  0
 24 25  1  0
 24 21  1  0
 25 23  2  0
 26 27  1  0
 27 28  2  0
 29 32  1  0
 29 28  1  0
 30 29  2  0
 31 30  1  0
 31 26  2  0
 32 33  1  0
 33 34  1  0
 34 35  2  0
 36 35  1  0
 36 40  1  0
 37 36  2  0
 38 33  2  0
 38 37  1  0
 39 38  1  0
 41 42  1  0
 42 45  1  0
 42 44  1  0
 43 41  2  0
 46 21  1  0
 46 47  1  0
 48 46  1  0
 49 50  1  0
 51 49  1  0
 51 50  1  0
 52 53  1  0
 54 52  1  0
 54 55  1  0
 56 58  1  0
 56 55  1  0
 57 68  2  0
 58 63  1  0
 59 67  1  0
 59 69  1  0
 60 66  1  0
 60 62  1  0
 61 67  1  0
 62 61  1  0
 63 62  2  0
 64 65  1  0
 64 58  2  0
 65 60  2  0
 66 59  1  0
 67 57  1  0
 69 71  2  0
 70 69  1  0
 72 70  1  0
 73 82  2  0
 73 78  1  0
 74 70  1  0
 74 78  1  0
 75 74  1  0
 76 77  1  0
 76 75  1  0
 77 73  1  0
 78 79  2  0
 79 80  1  0
 81 80  2  0
 82 81  1  0
 83 57  1  0
 83 84  1  0
 83 93  1  0
 84 87  1  0
 85 89  1  0
 85 84  1  0
 86 85  2  0
 89 88  1  0
 91 89  1  0
 91 92  1  0
 91 90  1  0
 93 96  1  1
 93 94  1  0
 95 93  1  0
M  ISO  4  11 100  19 100  55 101  56 101
M  END
>  <TORSDO>  (9) 
F 23

>  <SCORE>  (9) 
-8.736

>  <name>  (9) 
8

>  <ligand_id>  (9) 
8

>  <original_smiles>  (9) 
[H]c1c([H])c([H])c2c(c1[H])C([H])([H])C([H])([H])C([H])([H])C2([H])N([H])C(=O)C1([H])N(C(=O)C([H])(N([H])C(=O)C([H])(N([H])C([H])([H])[H])C([H])([H])[H])C(C([H])([H])[H])(C([H])([H])[H])C([H])([H])[H])C([H])([H])c2c([H])c(OC([H])([H])C([H])([H])N([H])C([H])(C3([H])C([H])([H])C3([H])[H])C3([H])C([H])([H])C([H])([H])C([H])(C([H])([H])C([H])([H])N([H])C(=O)N4C([H])([H])C([H])([H])C([H])([H])C([H])(n5nc(-c6c([H])c([H])c(Oc7c([H])c([H])c(F)c([H])c7F)c([H])c6[H])c(C(=O)N([H])[H])c5N([H])[H])C4([H])[H])[N+]3([H])[H])c([H])c([H])c2C1([H])[H]

>  <smiles>  (9) 
[H]c1c([H])c([H])c2c(c1[H])C([H])([H])C([H])([H])C([H])([H])C2([H])N([H])C(=O)C1([H])N(C(=O)C([H])(N([H])C(=O)C([H])(N([H])C([H])([H])[H])C([H])([H])[H])C(C([H])([H])[H])(C([H])([H])[H])C([H])([H])[H])C([H])([H])c2c([H])c(OC([H])([H])C([H])([H])N([H])C([H])(C3([H])C([H])([H])C3([H])[H])C3([H])C([H])([H])C([H])([H])C([H])(C([H])([H])C([H])([H])N([H])C(=O)N4C([H])([H])C([H])([H])C([H])([H])C([H])(n5nc(-c6c([H])c([H])c(Oc7c([H])c([H])c(F)c([H])c7F)c([H])c6[H])c(C(=O)N([H])[H])c5N([H])[H])C4([H])[H])[N+]3([H])[H])c([H])c([H])c2C1([H])[H]

$$$$
9:0:0
     RDKit          3D

100109  0  0  1  0  0  0  0  0999 V2000
  -28.6270  -19.9910   17.9000 C   0  0  0  0  0  2  0  0  0  0  0  0
  -27.3580  -16.9740   19.9680 C   0  0  0  0  0  3  0  0  0  0  0  0
  -28.5680  -16.3030   20.2230 C   0  0  0  0  0  3  0  0  0  0  0  0
  -29.7620  -18.0140   18.9760 C   0  0  0  0  0  3  0  0  0  0  0  0
  -27.3280  -18.1510   19.1880 C   0  0  0  0  0  0  0  0  0  0  0  0
  -29.7760  -16.8110   19.7100 C   0  0  0  0  0  0  0  0  0  0  0  0
  -28.5520  -18.6970   18.7110 C   0  0  0  0  0  0  0  0  0  0  0  0
  -23.8680  -18.9390   19.2510 C   0  0  0  0  0  2  0  0  0  0  0  0
  -24.7440  -17.9030   18.5400 C   0  0  0  0  0  2  0  0  0  0  0  0
  -25.1210  -19.3760   20.0180 C   0  0  0  0  0  2  0  0  0  0  0  0
  -25.9660  -18.7750   18.8830 C   0  0  0  0  0  3  0  0  0  0  0  0
  -31.0790  -16.0540   19.9290 C   0  0  0  0  0  2  0  0  0  0  0  0
  -31.3430  -13.5850   19.5910 C   0  0  0  0  0  0  0  0  0  0  0  0
  -30.9160  -11.2290   18.9910 C   0  0  0  0  0  2  0  0  0  0  0  0
  -29.8940  -11.1800   17.8390 C   0  0  0  0  0  2  0  0  0  0  0  0
  -28.4520  -11.2080   18.3870 C   0  0  0  0  0  2  0  0  0  0  0  0
  -28.2300  -12.3480   19.4160 C   0  0  0  0  0  3  0  0  0  0  0  0
  -29.3500  -12.3320   20.4790 C   0  0  0  0  0  2  0  0  0  0  0  0
  -30.6470  -12.4350   19.7830 N   0  0  0  0  0  0  0  0  0  0  0  0
  -32.3410  -13.6670   18.8650 O   0  0  0  0  0  0  0  0  0  0  0  0
  -30.8150  -14.6480   20.2080 N   0  0  0  0  0  0  0  0  0  0  0  0
  -30.0240  -14.4590   20.8030 H   0  0  0  0  0  0  0  0  0  0  0  0
  -26.0300  -13.2840   20.3770 C   0  0  0  0  0  0  0  0  0  0  0  0
  -24.9080  -12.6650   20.8540 C   0  0  0  0  0  0  0  0  0  0  0  0
  -25.1610  -11.2620   20.7650 C   0  0  0  0  0  0  0  0  0  0  0  0
  -26.9060  -12.2660   20.0300 N   0  0  0  0  0  0  0  0  0  0  0  0
  -26.3900  -11.0440   20.3160 N   0  0  0  0  0  0  0  0  0  0  0  0
  -24.2850  -10.1130   21.0290 C   0  0  0  0  0  0  0  0  0  0  0  0
  -24.6380   -9.1110   21.9580 C   0  0  0  0  0  3  0  0  0  0  0  0
  -23.7720   -8.0250   22.2030 C   0  0  0  0  0  3  0  0  0  0  0  0
  -22.5360   -7.9340   21.5200 C   0  0  0  0  0  0  0  0  0  0  0  0
  -22.1990   -8.9220   20.5770 C   0  0  0  0  0  3  0  0  0  0  0  0
  -23.0660  -10.0000   20.3310 C   0  0  0  0  0  3  0  0  0  0  0  0
  -21.6420   -6.9020   21.6770 O   0  0  0  0  0  0  0  0  0  0  0  0
  -21.4910   -6.2580   22.8780 C   0  0  0  0  0  0  0  0  0  0  0  0
  -21.0440   -6.9350   24.0350 C   0  0  0  0  0  3  0  0  0  0  0  0
  -20.8300   -6.2200   25.2310 C   0  0  0  0  0  3  0  0  0  0  0  0
  -21.0610   -4.8320   25.2720 C   0  0  0  0  0  0  0  0  0  0  0  0
  -21.5040   -4.1550   24.1230 C   0  0  0  0  0  3  0  0  0  0  0  0
  -21.7150   -4.8670   22.9280 C   0  0  0  0  0  0  0  0  0  0  0  0
  -22.1230   -4.2080   21.8170 F   0  0  0  0  0  0  0  0  0  0  0  0
  -20.8460   -4.1450   26.4190 F   0  0  0  0  0  0  0  0  0  0  0  0
  -23.6340  -13.3320   21.2890 C   0  0  0  0  0  0  0  0  0  0  0  0
  -22.9070  -12.7200   22.2180 N   0  0  0  0  0  0  0  0  0  0  0  0
  -23.3020  -14.4290   20.8420 O   0  0  0  0  0  0  0  0  0  0  0  0
  -23.1880  -11.8290   22.5980 H   0  0  0  0  0  0  0  0  0  0  0  0
  -22.0570  -13.1490   22.5560 H   0  0  0  0  0  0  0  0  0  0  0  0
  -26.3670  -14.6200   20.1960 N   0  0  0  0  0  0  0  0  0  0  0  0
  -25.7180  -15.3670   20.4170 H   0  0  0  0  0  0  0  0  0  0  0  0
  -27.2670  -14.9640   19.8840 H   0  0  0  0  0  0  0  0  0  0  0  0
  -28.4580  -21.2770   18.7420 C   0  0  0  0  0  2  0  0  0  0  0  0
  -28.5580  -22.4890   17.8990 N   0  0  0  0  0  4  0  0  0  0  0  0
  -28.1330  -22.3150   17.0020 H   0  0  0  0  0  0  0  0  0  0  0  0
  -29.5320  -22.7260   17.7600 H   0  0  0  0  0  0  0  0  0  0  0  0
  -27.9790  -23.7270   18.4570 C   0  0  0  0  0  2  0  0  0  0  0  0
  -29.0700  -24.7600   18.8550 C   0  0  0  0  0  3  0  0  0  0  0  0
  -30.3640  -24.2350   18.5700 O   0  0  0  0  0  0  0  0  0  0  0  0
  -30.9990  -24.9140   18.7900 H   0  0  0  0  0  0  0  0  0  0  0  0
  -28.9970  -25.2510   20.3250 C   0  0  0  0  0  2  0  0  0  0  0  0
  -28.9750  -26.6820   20.4400 O   0  0  0  0  0  0  0  0  0  0  0  0
  -24.8280  -31.8340   23.0830 C   0  0  0  0  0  0  0  0  0  0  0  0
  -27.7570  -27.3280   20.3680 C   0  0  0  0  0  0  0  0  0  0  0  0
  -23.7380  -30.2720   21.5090 C   0  0  0  0  0  3  0  0  0  0  0  0
  -25.2950  -28.7180   20.2310 C   0  0  0  0  0  0  0  0  0  0  0  0
  -26.2500  -30.7350   21.3560 C   0  0  0  0  0  2  0  0  0  0  0  0
  -26.4130  -29.3320   20.8090 C   0  0  0  0  0  0  0  0  0  0  0  0
  -27.6460  -28.6440   20.8710 C   0  0  0  0  0  3  0  0  0  0  0  0
  -26.6130  -26.7300   19.7900 C   0  0  0  0  0  3  0  0  0  0  0  0
  -25.3900  -27.4170   19.7190 C   0  0  0  0  0  3  0  0  0  0  0  0
  -24.0150  -29.5140   20.1850 C   0  0  0  0  0  2  0  0  0  0  0  0
  -24.9550  -30.9660   22.0390 N   0  0  0  0  0  0  0  0  0  0  0  0
  -23.7200  -32.0910   23.5720 O   0  0  0  0  0  0  0  0  0  0  0  0
  -23.1070  -29.2860   22.5180 C   0  0  0  0  0  0  0  0  0  0  0  0
  -21.8030  -29.0120   22.3500 N   0  0  0  0  0  0  0  0  0  0  0  0
  -23.7890  -28.7650   23.4060 O   0  0  0  0  0  0  0  0  0  0  0  0
  -21.3150  -29.4830   21.6030 H   0  0  0  0  0  0  0  0  0  0  0  0
  -18.4760  -27.6770   22.8220 C   0  0  0  0  0  0  0  0  0  0  0  0
  -21.0060  -28.0870   23.1560 C   0  0  0  0  0  3  0  0  0  0  0  0
  -21.1990  -26.6260   22.6840 C   0  0  0  0  0  2  0  0  0  0  0  0
  -20.1540  -26.1810   21.6570 C   0  0  0  0  0  2  0  0  0  0  0  0
  -18.7460  -26.2970   22.2460 C   0  0  0  0  0  2  0  0  0  0  0  0
  -19.5390  -28.5240   23.2320 C   0  0  0  0  0  0  0  0  0  0  0  0
  -19.2390  -29.8120   23.7250 C   0  0  0  0  0  3  0  0  0  0  0  0
  -17.9080  -30.2570   23.8120 C   0  0  0  0  0  3  0  0  0  0  0  0
  -16.8560  -29.4090   23.4190 C   0  0  0  0  0  3  0  0  0  0  0  0
  -17.1410  -28.1190   22.9350 C   0  0  0  0  0  3  0  0  0  0  0  0
  -26.0650  -32.5630   23.6940 C   0  0  0  0  0  3  0  0  0  0  0  0
  -26.7420  -31.7620   24.8720 C   0  0  1  0  0  0  0  0  0  0  0  0
  -25.7360  -31.2230   25.9150 C   0  0  0  0  0  1  0  0  0  0  0  0
  -27.5430  -30.5600   24.3230 C   0  0  0  0  0  1  0  0  0  0  0  0
  -27.7590  -32.6700   25.6050 C   0  0  0  0  0  1  0  0  0  0  0  0
  -25.6180  -33.8850   24.1520 N   0  0  0  0  0  0  0  0  0  0  0  0
  -25.7390  -35.0160   23.4440 C   0  0  0  0  0  0  0  0  0  0  0  0
  -26.3140  -35.0650   22.3530 O   0  0  0  0  0  0  0  0  0  0  0  0
  -25.0890  -33.9130   25.0130 H   0  0  0  0  0  0  0  0  0  0  0  0
  -23.7620  -36.5670   23.3850 C   0  0  0  0  0  1  0  0  0  0  0  0
  -25.1240  -36.2950   24.0410 C   0  0  0  0  0  3  0  0  0  0  0  0
  -27.2000  -37.4180   24.7200 C   0  0  0  0  0  1  0  0  0  0  0  0
  -25.9930  -37.4850   23.9000 N   0  0  0  0  0  0  0  0  0  0  0  0
  -25.4870  -38.3300   24.1510 H   0  0  0  0  0  0  0  0  0  0  0  0
  1  7  1  0
  1 51  1  0
  2  3  1  0
  4  6  1  0
  5  2  2  0
  6 12  1  0
  6  3  2  0
  7  4  2  0
  7  5  1  0
  8 10  1  0
  9 11  1  0
  9  8  1  0
 11  5  1  0
 11 10  1  0
 12 21  1  0
 13 19  1  0
 13 21  1  0
 14 19  1  0
 15 16  1  0
 15 14  1  0
 17 16  1  0
 17 26  1  0
 17 18  1  0
 19 18  1  0
 20 13  2  0
 21 22  1  0
 23 24  2  0
 24 43  1  0
 25 24  1  0
 25 28  1  0
 26 27  1  0
 26 23  1  0
 27 25  2  0
 28 29  1  0
 29 30  2  0
 31 34  1  0
 31 30  1  0
 32 31  2  0
 33 32  1  0
 33 28  2  0
 34 35  1  0
 35 40  2  0
 35 36  1  0
 36 37  2  0
 37 38  1  0
 38 42  1  0
 39 38  2  0
 40 39  1  0
 41 40  1  0
 43 44  1  0
 44 47  1  0
 44 46  1  0
 45 43  2  0
 48 23  1  0
 48 49  1  0
 50 48  1  0
 52 55  1  0
 52 51  1  0
 53 52  1  0
 54 52  1  0
 56 55  1  0
 56 59  1  0
 57 58  1  0
 57 56  1  0
 59 60  1  0
 61 72  2  0
 62 60  1  0
 62 67  1  0
 63 71  1  0
 63 73  1  0
 64 66  1  0
 65 71  1  0
 66 67  2  0
 66 65  1  0
 68 62  2  0
 69 68  1  0
 69 64  2  0
 70 64  1  0
 70 63  1  0
 71 61  1  0
 73 75  2  0
 74 73  1  0
 76 74  1  0
 77 86  2  0
 77 82  1  0
 78 74  1  0
 78 82  1  0
 79 78  1  0
 80 81  1  0
 80 79  1  0
 81 77  1  0
 82 83  2  0
 83 84  1  0
 85 84  2  0
 86 85  1  0
 87 61  1  0
 87 92  1  0
 87 88  1  0
 88 91  1  1
 88 89  1  0
 90 88  1  0
 92 95  1  0
 93 97  1  0
 93 92  1  0
 94 93  2  0
 97 96  1  0
 99 97  1  0
 99100  1  0
 99 98  1  0
M  ISO  4  13 100  21 100  59 101  60 101
M  END
>  <TORSDO>  (10) 
F 25

>  <SCORE>  (10) 
-5.398

>  <name>  (10) 
9

>  <ligand_id>  (10) 
9

>  <original_smiles>  (10) 
[H]OC([H])(C([H])([H])Oc1c([H])c([H])c2c(c1[H])C([H])([H])N(C(=O)C([H])(N([H])C(=O)C([H])(N([H])C([H])([H])[H])C([H])([H])[H])C(C([H])([H])[H])(C([H])([H])[H])C([H])([H])[H])C([H])(C(=O)N([H])C1([H])c3c([H])c([H])c([H])c([H])c3C([H])([H])C([H])([H])C1([H])[H])C2([H])[H])C([H])([H])[N+]([H])([H])C([H])([H])C([H])([H])c1c([H])c(C([H])([H])N([H])C(=O)N2C([H])([H])C([H])([H])C([H])([H])C([H])(n3nc(-c4c([H])c([H])c(Oc5c([H])c([H])c(F)c([H])c5F)c([H])c4[H])c(C(=O)N([H])[H])c3N([H])[H])C2([H])[H])c([H])c([H])c1C1([H])C([H])([H])C([H])([H])C1([H])[H]

>  <smiles>  (10) 
[H]OC([H])(C([H])([H])Oc1c([H])c([H])c2c(c1[H])C([H])([H])N(C(=O)C([H])(N([H])C(=O)C([H])(N([H])C([H])([H])[H])C([H])([H])[H])C(C([H])([H])[H])(C([H])([H])[H])C([H])([H])[H])C([H])(C(=O)N([H])C1([H])c3c([H])c([H])c([H])c([H])c3C([H])([H])C([H])([H])C1([H])[H])C2([H])[H])C([H])([H])[N+]([H])([H])C([H])([H])C([H])([H])c1c([H])c(C([H])([H])N([H])C(=O)N2C([H])([H])C([H])([H])C([H])([H])C([H])(n3nc(-c4c([H])c([H])c(Oc5c([H])c([H])c(F)c([H])c5F)c([H])c4[H])c(C(=O)N([H])[H])c3N([H])[H])C2([H])[H])c([H])c([H])c1C1([H])C([H])([H])C([H])([H])C1([H])[H]

$$$$
10:0:0
     RDKit          3D

 92101  0  0  1  0  0  0  0  0999 V2000
  -31.4760  -20.5790   21.5070 C   0  0  0  0  0  3  0  0  0  0  0  0
  -31.3630  -18.2650   21.1710 C   0  0  0  0  0  3  0  0  0  0  0  0
  -30.2130  -20.8660   20.9650 C   0  0  0  0  0  0  0  0  0  0  0  0
  -29.5010  -19.6850   20.4500 C   0  0  0  0  0  0  0  0  0  0  0  0
  -30.0820  -18.2230   20.5700 C   0  0  0  0  0  0  0  0  0  0  0  0
  -28.2620  -20.3450   19.8250 C   0  0  0  0  0  3  0  0  0  0  0  0
  -29.7290  -22.4050   21.0110 C   0  0  0  0  0  0  0  0  0  0  0  0
  -27.8920  -21.7180   19.7790 C   0  0  0  0  0  0  0  0  0  0  0  0
  -26.6410  -22.1110   19.0110 C   0  0  0  0  0  1  0  0  0  0  0  0
  -32.0270  -19.3550   21.6000 N   0  0  0  0  0  0  0  0  0  0  0  0
  -28.5870  -22.8880   20.3700 N   0  0  0  0  0  0  0  0  0  0  0  0
  -30.4100  -23.1940   21.6750 O   0  0  0  0  0  0  0  0  0  0  0  0
  -30.4010  -15.3760   20.1960 C   0  0  0  0  0  0  0  0  0  0  0  0
  -30.3330  -12.9570   19.2360 C   0  0  0  0  0  2  0  0  0  0  0  0
  -29.3840  -12.7610   18.0270 C   0  0  0  0  0  2  0  0  0  0  0  0
  -27.9540  -12.4640   18.5060 C   0  0  0  0  0  2  0  0  0  0  0  0
  -27.5240  -13.4060   19.6580 C   0  0  0  0  0  3  0  0  0  0  0  0
  -28.6000  -13.5560   20.7540 C   0  0  0  0  0  2  0  0  0  0  0  0
  -29.8050  -14.0840   20.0920 N   0  0  0  0  0  0  0  0  0  0  0  0
  -31.6200  -15.3440   19.9750 O   0  0  0  0  0  0  0  0  0  0  0  0
  -29.6760  -16.6790   20.2850 N   0  0  0  0  0  0  0  0  0  0  0  0
  -28.6800  -16.5390   20.2150 H   0  0  0  0  0  0  0  0  0  0  0  0
  -25.1650  -13.9280   20.4650 C   0  0  0  0  0  0  0  0  0  0  0  0
  -24.1200  -13.1350   20.8500 C   0  0  0  0  0  0  0  0  0  0  0  0
  -24.6060  -11.7920   20.8050 C   0  0  0  0  0  0  0  0  0  0  0  0
  -26.2140  -13.0680   20.1980 N   0  0  0  0  0  0  0  0  0  0  0  0
  -25.8920  -11.7770   20.4700 N   0  0  0  0  0  0  0  0  0  0  0  0
  -23.8980  -10.5180   21.0020 C   0  0  0  0  0  0  0  0  0  0  0  0
  -24.3450   -9.5620   21.9400 C   0  0  0  0  0  3  0  0  0  0  0  0
  -23.6340   -8.3560   22.1270 C   0  0  0  0  0  3  0  0  0  0  0  0
  -22.4630   -8.0980   21.3730 C   0  0  0  0  0  0  0  0  0  0  0  0
  -22.0360   -9.0440   20.4240 C   0  0  0  0  0  3  0  0  0  0  0  0
  -22.7470  -10.2410   20.2370 C   0  0  0  0  0  3  0  0  0  0  0  0
  -21.7230   -6.9440   21.4690 O   0  0  0  0  0  0  0  0  0  0  0  0
  -21.6700   -6.2180   22.6320 C   0  0  0  0  0  0  0  0  0  0  0  0
  -21.2010   -6.7790   23.8400 C   0  0  0  0  0  3  0  0  0  0  0  0
  -21.0970   -5.9770   24.9950 C   0  0  0  0  0  3  0  0  0  0  0  0
  -21.4500   -4.6160   24.9410 C   0  0  0  0  0  0  0  0  0  0  0  0
  -21.9100   -4.0530   23.7380 C   0  0  0  0  0  3  0  0  0  0  0  0
  -22.0170   -4.8530   22.5850 C   0  0  0  0  0  0  0  0  0  0  0  0
  -22.4420   -4.3020   21.4230 F   0  0  0  0  0  0  0  0  0  0  0  0
  -21.3430   -3.8440   26.0480 F   0  0  0  0  0  0  0  0  0  0  0  0
  -22.7220  -13.5920   21.1420 C   0  0  0  0  0  0  0  0  0  0  0  0
  -22.0140  -12.8830   22.0140 N   0  0  0  0  0  0  0  0  0  0  0  0
  -22.2660  -14.6150   20.6320 O   0  0  0  0  0  0  0  0  0  0  0  0
  -22.3950  -12.0550   22.4460 H   0  0  0  0  0  0  0  0  0  0  0  0
  -21.0760  -13.1740   22.2520 H   0  0  0  0  0  0  0  0  0  0  0  0
  -25.3030  -15.3010   20.2900 N   0  0  0  0  0  0  0  0  0  0  0  0
  -24.5230  -15.9400   20.4050 H   0  0  0  0  0  0  0  0  0  0  0  0
  -26.1300  -15.7510   19.9220 H   0  0  0  0  0  0  0  0  0  0  0  0
  -27.8640  -24.3820   20.6640 C   0  0  0  0  0  2  0  0  0  0  0  0
  -28.2420  -25.9160   20.3090 O   0  0  0  0  0  0  0  0  0  0  0  0
  -24.6530  -31.9330   23.2310 C   0  0  0  0  0  0  0  0  0  0  0  0
  -27.2340  -27.0240   20.2830 C   0  0  0  0  0  0  0  0  0  0  0  0
  -23.4690  -30.5180   21.6020 C   0  0  0  0  0  3  0  0  0  0  0  0
  -24.9290  -28.9010   20.2080 C   0  0  0  0  0  0  0  0  0  0  0  0
  -26.0360  -30.7350   21.4620 C   0  0  0  0  0  2  0  0  0  0  0  0
  -26.1160  -29.3160   20.8250 C   0  0  0  0  0  0  0  0  0  0  0  0
  -27.2650  -28.4000   20.8330 C   0  0  0  0  0  3  0  0  0  0  0  0
  -26.0150  -26.7690   19.6110 C   0  0  0  0  0  3  0  0  0  0  0  0
  -24.9040  -27.6470   19.5780 C   0  0  0  0  0  3  0  0  0  0  0  0
  -23.7070  -29.8180   20.2360 C   0  0  0  0  0  2  0  0  0  0  0  0
  -24.7410  -31.0890   22.1520 N   0  0  0  0  0  0  0  0  0  0  0  0
  -23.5610  -32.2250   23.7450 O   0  0  0  0  0  0  0  0  0  0  0  0
  -22.7700  -29.5310   22.5760 C   0  0  0  0  0  0  0  0  0  0  0  0
  -21.4410  -29.3630   22.4470 N   0  0  0  0  0  0  0  0  0  0  0  0
  -23.4320  -28.9170   23.4150 O   0  0  0  0  0  0  0  0  0  0  0  0
  -20.9590  -29.9120   21.7490 H   0  0  0  0  0  0  0  0  0  0  0  0
  -18.0590  -28.1500   22.9550 C   0  0  0  0  0  0  0  0  0  0  0  0
  -20.6170  -28.4300   23.2240 C   0  0  0  0  0  3  0  0  0  0  0  0
  -20.7240  -26.9910   22.6670 C   0  0  0  0  0  2  0  0  0  0  0  0
  -19.6290  -26.6530   21.6510 C   0  0  0  0  0  2  0  0  0  0  0  0
  -18.2440  -26.7960   22.2890 C   0  0  0  0  0  2  0  0  0  0  0  0
  -19.1720  -28.9230   23.3800 C   0  0  0  0  0  0  0  0  0  0  0  0
  -18.9430  -30.1860   23.9660 C   0  0  0  0  0  3  0  0  0  0  0  0
  -17.6330  -30.6790   24.1280 C   0  0  0  0  0  3  0  0  0  0  0  0
  -16.5350  -29.9040   23.7180 C   0  0  0  0  0  3  0  0  0  0  0  0
  -16.7490  -28.6400   23.1390 C   0  0  0  0  0  3  0  0  0  0  0  0
  -25.9190  -32.5850   23.8640 C   0  0  0  0  0  3  0  0  0  0  0  0
  -25.5930  -33.9840   24.1930 N   0  0  0  0  0  0  0  0  0  0  0  0
  -25.9070  -35.0450   23.4370 C   0  0  0  0  0  0  0  0  0  0  0  0
  -26.5650  -34.9480   22.3980 O   0  0  0  0  0  0  0  0  0  0  0  0
  -25.0070  -34.1300   25.0020 H   0  0  0  0  0  0  0  0  0  0  0  0
  -24.1580  -36.8290   23.1220 C   0  0  0  0  0  1  0  0  0  0  0  0
  -25.4180  -36.4320   23.9050 C   0  0  0  0  0  3  0  0  0  0  0  0
  -27.5600  -37.3410   24.6940 C   0  0  0  0  0  1  0  0  0  0  0  0
  -26.4400  -37.4940   23.7700 N   0  0  0  0  0  0  0  0  0  0  0  0
  -26.0290  -38.4120   23.9200 H   0  0  0  0  0  0  0  0  0  0  0  0
  -26.4240  -31.8290   25.1550 C   0  0  1  0  0  0  0  0  0  0  0  0
  -25.3200  -31.5970   26.2140 C   0  0  0  0  0  1  0  0  0  0  0  0
  -27.0160  -30.4480   24.7890 C   0  0  0  0  0  1  0  0  0  0  0  0
  -27.5680  -32.6330   25.8180 C   0  0  0  0  0  1  0  0  0  0  0  0
  1 10  1  0
  2 10  2  0
  3  7  1  0
  3  1  2  0
  4  5  2  0
  4  3  1  0
  5  2  1  0
  6  4  1  0
  7 12  2  0
  8  6  2  0
  8 11  1  0
  9  8  1  0
 11 51  1  0
 11  7  1  0
 13 21  1  0
 14 19  1  0
 15 16  1  0
 15 14  1  0
 17 16  1  0
 17 26  1  0
 17 18  1  0
 19 13  1  0
 19 18  1  0
 20 13  2  0
 21  5  1  0
 22 21  1  0
 23 24  2  0
 24 43  1  0
 25 24  1  0
 25 28  1  0
 26 23  1  0
 26 27  1  0
 27 25  2  0
 28 29  1  0
 29 30  2  0
 31 34  1  0
 31 30  1  0
 32 31  2  0
 33 32  1  0
 33 28  2  0
 34 35  1  0
 35 36  1  0
 36 37  2  0
 38 37  1  0
 38 42  1  0
 39 38  2  0
 40 35  2  0
 40 39  1  0
 41 40  1  0
 43 44  1  0
 44 47  1  0
 44 46  1  0
 45 43  2  0
 48 49  1  0
 48 23  1  0
 50 48  1  0
 52 51  1  0
 53 64  2  0
 54 52  1  0
 54 59  1  0
 55 63  1  0
 55 65  1  0
 56 62  1  0
 56 58  1  0
 57 63  1  0
 58 59  2  0
 58 57  1  0
 60 54  2  0
 61 60  1  0
 61 56  2  0
 62 55  1  0
 63 53  1  0
 65 67  2  0
 66 65  1  0
 68 66  1  0
 69 78  2  0
 69 74  1  0
 70 66  1  0
 70 74  1  0
 71 70  1  0
 72 73  1  0
 72 71  1  0
 73 69  1  0
 74 75  2  0
 75 76  1  0
 77 76  2  0
 78 77  1  0
 79 53  1  0
 79 80  1  0
 79 89  1  0
 80 83  1  0
 81 85  1  0
 81 80  1  0
 82 81  2  0
 85 84  1  0
 87 85  1  0
 87 88  1  0
 87 86  1  0
 89 92  1  1
 89 90  1  0
 91 89  1  0
M  ISO  4  13 100  21 100  51 101  52 101
M  END
>  <TORSDO>  (11) 
F 17

>  <SCORE>  (11) 
-16.264

>  <name>  (11) 
10

>  <ligand_id>  (11) 
10

>  <original_smiles>  (11) 
[H]c1nc([H])c2c(=O)n(C([H])([H])Oc3c([H])c([H])c4c(c3[H])C([H])([H])N(C(=O)C([H])(N([H])C(=O)C([H])(N([H])C([H])([H])[H])C([H])([H])[H])C(C([H])([H])[H])(C([H])([H])[H])C([H])([H])[H])C([H])(C(=O)N([H])C3([H])c5c([H])c([H])c([H])c([H])c5C([H])([H])C([H])([H])C3([H])[H])C4([H])[H])c(C([H])([H])[H])c([H])c2c1N([H])C(=O)N1C([H])([H])C([H])([H])C([H])([H])C([H])(n2nc(-c3c([H])c([H])c(Oc4c([H])c([H])c(F)c([H])c4F)c([H])c3[H])c(C(=O)N([H])[H])c2N([H])[H])C1([H])[H]

>  <smiles>  (11) 
[H]c1nc([H])c2c(=O)n(C([H])([H])Oc3c([H])c([H])c4c(c3[H])C([H])([H])N(C(=O)C([H])(N([H])C(=O)C([H])(N([H])C([H])([H])[H])C([H])([H])[H])C(C([H])([H])[H])(C([H])([H])[H])C([H])([H])[H])C([H])(C(=O)N([H])C3([H])c5c([H])c([H])c([H])c([H])c5C([H])([H])C([H])([H])C3([H])[H])C4([H])[H])c(C([H])([H])[H])c([H])c2c1N([H])C(=O)N1C([H])([H])C([H])([H])C([H])([H])C([H])(n2nc(-c3c([H])c([H])c(Oc4c([H])c([H])c(F)c([H])c4F)c([H])c3[H])c(C(=O)N([H])[H])c2N([H])[H])C1([H])[H]

$$$$
11:0:0
     RDKit          3D

 91 99  0  0  1  0  0  0  0  0999 V2000
  -30.2520  -23.4300   20.0210 C   0  0  0  0  0  2  0  0  0  0  0  0
  -27.8390  -22.8180   19.9380 C   0  0  0  0  0  2  0  0  0  0  0  0
  -30.5600  -22.0650   20.7090 C   0  0  0  0  0  2  0  0  0  0  0  0
  -28.1610  -21.4430   20.6240 C   0  0  0  0  0  2  0  0  0  0  0  0
  -28.8220  -23.9850   20.2720 C   0  0  0  0  0  3  0  0  0  0  0  0
  -29.5910  -20.9080   20.3230 C   0  0  0  0  0  3  0  0  0  0  0  0
  -29.9700  -19.6270   21.0370 N   0  0  0  0  0  4  0  0  0  0  0  0
  -29.7220  -19.7080   22.0100 H   0  0  0  0  0  0  0  0  0  0  0  0
  -30.9760  -19.5890   21.0020 H   0  0  0  0  0  0  0  0  0  0  0  0
  -29.5080  -18.2800   20.5340 C   0  0  0  0  0  2  0  0  0  0  0  0
  -30.3250  -17.0670   21.1500 C   0  0  0  0  0  2  0  0  0  0  0  0
  -30.5980  -14.5980   20.4760 C   0  0  0  0  0  0  0  0  0  0  0  0
  -30.3490  -12.3910   19.3720 C   0  0  0  0  0  2  0  0  0  0  0  0
  -29.4130  -12.5380   18.1540 C   0  0  0  0  0  2  0  0  0  0  0  0
  -27.9390  -12.3850   18.5760 C   0  0  0  0  0  2  0  0  0  0  0  0
  -27.5780  -13.2440   19.8170 C   0  0  0  0  0  3  0  0  0  0  0  0
  -28.6300  -13.0800   20.9370 C   0  0  0  0  0  2  0  0  0  0  0  0
  -29.9440  -13.4050   20.3630 N   0  0  0  0  0  0  0  0  0  0  0  0
  -31.7610  -14.7400   20.0940 O   0  0  0  0  0  0  0  0  0  0  0  0
  -29.8560  -15.6710   20.8740 N   0  0  0  0  0  0  0  0  0  0  0  0
  -28.8960  -15.4670   21.1080 H   0  0  0  0  0  0  0  0  0  0  0  0
  -25.1790  -13.8460   20.5130 C   0  0  0  0  0  0  0  0  0  0  0  0
  -24.1100  -13.0730   20.8790 C   0  0  0  0  0  0  0  0  0  0  0  0
  -24.5750  -11.7220   20.8600 C   0  0  0  0  0  0  0  0  0  0  0  0
  -26.2260  -12.9650   20.2940 N   0  0  0  0  0  0  0  0  0  0  0  0
  -25.8670  -11.6840   20.5620 N   0  0  0  0  0  0  0  0  0  0  0  0
  -23.8490  -10.4600   21.0500 C   0  0  0  0  0  0  0  0  0  0  0  0
  -24.2890   -9.4870   21.9750 C   0  0  0  0  0  3  0  0  0  0  0  0
  -23.5640   -8.2890   22.1520 C   0  0  0  0  0  3  0  0  0  0  0  0
  -22.3840   -8.0560   21.4060 C   0  0  0  0  0  0  0  0  0  0  0  0
  -21.9640   -9.0170   20.4710 C   0  0  0  0  0  3  0  0  0  0  0  0
  -22.6890  -10.2060   20.2910 C   0  0  0  0  0  3  0  0  0  0  0  0
  -21.6300   -6.9120   21.4950 O   0  0  0  0  0  0  0  0  0  0  0  0
  -21.6040   -6.1520   22.6380 C   0  0  0  0  0  0  0  0  0  0  0  0
  -21.2200   -6.6950   23.8830 C   0  0  0  0  0  3  0  0  0  0  0  0
  -21.1410   -5.8630   25.0190 C   0  0  0  0  0  3  0  0  0  0  0  0
  -21.4350   -4.4900   24.9090 C   0  0  0  0  0  0  0  0  0  0  0  0
  -21.8130   -3.9490   23.6680 C   0  0  0  0  0  3  0  0  0  0  0  0
  -21.8940   -4.7770   22.5350 C   0  0  0  0  0  0  0  0  0  0  0  0
  -22.2380   -4.2450   21.3370 F   0  0  0  0  0  0  0  0  0  0  0  0
  -21.3520   -3.6900   25.9970 F   0  0  0  0  0  0  0  0  0  0  0  0
  -22.7100  -13.5490   21.1370 C   0  0  0  0  0  0  0  0  0  0  0  0
  -21.9770  -12.8570   22.0000 N   0  0  0  0  0  0  0  0  0  0  0  0
  -22.2750  -14.5710   20.6070 O   0  0  0  0  0  0  0  0  0  0  0  0
  -22.3410  -12.0310   22.4500 H   0  0  0  0  0  0  0  0  0  0  0  0
  -21.0360  -13.1580   22.2160 H   0  0  0  0  0  0  0  0  0  0  0  0
  -25.3420  -15.2150   20.3270 N   0  0  0  0  0  0  0  0  0  0  0  0
  -24.5670  -15.8640   20.4130 H   0  0  0  0  0  0  0  0  0  0  0  0
  -26.1810  -15.6480   19.9630 H   0  0  0  0  0  0  0  0  0  0  0  0
  -28.5420  -25.3240   19.4570 C   0  0  0  0  0  2  0  0  0  0  0  0
  -28.4010  -26.5930   20.1780 O   0  0  0  0  0  0  0  0  0  0  0  0
  -24.6300  -31.8840   23.2370 C   0  0  0  0  0  0  0  0  0  0  0  0
  -27.2320  -27.3610   20.1400 C   0  0  0  0  0  0  0  0  0  0  0  0
  -23.4110  -30.4830   21.6090 C   0  0  0  0  0  3  0  0  0  0  0  0
  -24.8480  -28.9370   20.1710 C   0  0  0  0  0  0  0  0  0  0  0  0
  -25.9440  -30.8150   21.3960 C   0  0  0  0  0  2  0  0  0  0  0  0
  -26.0190  -29.4400   20.7510 C   0  0  0  0  0  0  0  0  0  0  0  0
  -27.2090  -28.6600   20.7280 C   0  0  0  0  0  3  0  0  0  0  0  0
  -26.0240  -26.8900   19.5700 C   0  0  0  0  0  3  0  0  0  0  0  0
  -24.8500  -27.6660   19.5780 C   0  0  0  0  0  3  0  0  0  0  0  0
  -23.6100  -29.8060   20.2270 C   0  0  0  0  0  2  0  0  0  0  0  0
  -24.6810  -31.0780   22.1380 N   0  0  0  0  0  0  0  0  0  0  0  0
  -23.5520  -32.1590   23.7830 O   0  0  0  0  0  0  0  0  0  0  0  0
  -22.7620  -29.4660   22.5750 C   0  0  0  0  0  0  0  0  0  0  0  0
  -21.4360  -29.2830   22.4570 N   0  0  0  0  0  0  0  0  0  0  0  0
  -23.4490  -28.8410   23.3880 O   0  0  0  0  0  0  0  0  0  0  0  0
  -20.9410  -29.8390   21.7730 H   0  0  0  0  0  0  0  0  0  0  0  0
  -18.0670  -28.0740   22.9700 C   0  0  0  0  0  0  0  0  0  0  0  0
  -20.6240  -28.3460   23.2340 C   0  0  0  0  0  3  0  0  0  0  0  0
  -20.7320  -26.9120   22.6660 C   0  0  0  0  0  2  0  0  0  0  0  0
  -19.6300  -26.5790   21.6560 C   0  0  0  0  0  2  0  0  0  0  0  0
  -18.2480  -26.7220   22.3010 C   0  0  0  0  0  2  0  0  0  0  0  0
  -19.1820  -28.8440   23.3930 C   0  0  0  0  0  0  0  0  0  0  0  0
  -18.9590  -30.1100   23.9770 C   0  0  0  0  0  3  0  0  0  0  0  0
  -17.6530  -30.6060   24.1420 C   0  0  0  0  0  3  0  0  0  0  0  0
  -16.5510  -29.8340   23.7350 C   0  0  0  0  0  3  0  0  0  0  0  0
  -16.7590  -28.5690   23.1540 C   0  0  0  0  0  3  0  0  0  0  0  0
  -25.9200  -32.5160   23.8470 C   0  0  0  0  0  3  0  0  0  0  0  0
  -26.4530  -31.7410   25.1150 C   0  0  1  0  0  0  0  0  0  0  0  0
  -25.3740  -31.4970   26.1950 C   0  0  0  0  0  1  0  0  0  0  0  0
  -27.0330  -30.3660   24.7090 C   0  0  0  0  0  1  0  0  0  0  0  0
  -27.6110  -32.5340   25.7650 C   0  0  0  0  0  1  0  0  0  0  0  0
  -25.6110  -33.9120   24.1880 N   0  0  0  0  0  0  0  0  0  0  0  0
  -25.9290  -34.9690   23.4290 C   0  0  0  0  0  0  0  0  0  0  0  0
  -26.5850  -34.8720   22.3870 O   0  0  0  0  0  0  0  0  0  0  0  0
  -25.0260  -34.0610   24.9970 H   0  0  0  0  0  0  0  0  0  0  0  0
  -24.1880  -36.7560   23.1100 C   0  0  0  0  0  1  0  0  0  0  0  0
  -25.4440  -36.3540   23.8990 C   0  0  0  0  0  3  0  0  0  0  0  0
  -27.5900  -37.2430   24.6940 C   0  0  0  0  0  1  0  0  0  0  0  0
  -26.4700  -37.4110   23.7720 N   0  0  0  0  0  0  0  0  0  0  0  0
  -26.0630  -38.3300   23.9330 H   0  0  0  0  0  0  0  0  0  0  0  0
  1  5  1  0
  1  3  1  0
  2  5  1  0
  2  4  1  0
  5 50  1  0
  6  4  1  0
  6  3  1  0
  6  7  1  0
  7  8  1  0
  9  7  1  0
 10  7  1  0
 10 11  1  0
 12 20  1  0
 13 18  1  0
 14 15  1  0
 14 13  1  0
 16 15  1  0
 16 25  1  0
 16 17  1  0
 18 12  1  0
 18 17  1  0
 19 12  2  0
 20 21  1  0
 20 11  1  0
 22 23  2  0
 23 42  1  0
 24 23  1  0
 24 27  1  0
 25 22  1  0
 25 26  1  0
 26 24  2  0
 27 28  1  0
 28 29  2  0
 30 33  1  0
 30 29  1  0
 31 30  2  0
 32 31  1  0
 32 27  2  0
 33 34  1  0
 34 35  1  0
 35 36  2  0
 37 36  1  0
 37 41  1  0
 38 37  2  0
 39 34  2  0
 39 38  1  0
 40 39  1  0
 42 43  1  0
 43 46  1  0
 43 45  1  0
 44 42  2  0
 47 48  1  0
 47 22  1  0
 49 47  1  0
 50 51  1  0
 52 63  2  0
 53 51  1  0
 53 58  1  0
 54 62  1  0
 54 64  1  0
 55 61  1  0
 55 57  1  0
 56 62  1  0
 57 56  1  0
 58 57  2  0
 59 60  1  0
 59 53  2  0
 60 55  2  0
 61 54  1  0
 62 52  1  0
 64 66  2  0
 65 64  1  0
 67 65  1  0
 68 77  2  0
 68 73  1  0
 69 65  1  0
 69 73  1  0
 70 69  1  0
 71 72  1  0
 71 70  1  0
 72 68  1  0
 73 74  2  0
 74 75  1  0
 76 75  2  0
 77 76  1  0
 78 52  1  0
 78 83  1  0
 78 79  1  0
 79 82  1  1
 79 80  1  0
 81 79  1  0
 83 86  1  0
 84 88  1  0
 84 83  1  0
 85 84  2  0
 88 87  1  0
 90 88  1  0
 90 91  1  0
 90 89  1  0
M  ISO  4  12 100  20 100  50 101  51 101
M  END
>  <TORSDO>  (12) 
F 20

>  <SCORE>  (12) 
-13.890

>  <name>  (12) 
11

>  <ligand_id>  (12) 
11

>  <original_smiles>  (12) 
[H]c1c([H])c([H])c2c(c1[H])C([H])([H])C([H])([H])C([H])([H])C2([H])N([H])C(=O)C1([H])N(C(=O)C([H])(N([H])C(=O)C([H])(N([H])C([H])([H])[H])C([H])([H])[H])C(C([H])([H])[H])(C([H])([H])[H])C([H])([H])[H])C([H])([H])c2c([H])c(OC([H])([H])C3([H])C([H])([H])C([H])([H])C([H])([N+]([H])([H])C([H])([H])C([H])([H])N([H])C(=O)N4C([H])([H])C([H])([H])C([H])([H])C([H])(n5nc(-c6c([H])c([H])c(Oc7c([H])c([H])c(F)c([H])c7F)c([H])c6[H])c(C(=O)N([H])[H])c5N([H])[H])C4([H])[H])C([H])([H])C3([H])[H])c([H])c([H])c2C1([H])[H]

>  <smiles>  (12) 
[H]c1c([H])c([H])c2c(c1[H])C([H])([H])C([H])([H])C([H])([H])C2([H])N([H])C(=O)C1([H])N(C(=O)C([H])(N([H])C(=O)C([H])(N([H])C([H])([H])[H])C([H])([H])[H])C(C([H])([H])[H])(C([H])([H])[H])C([H])([H])[H])C([H])([H])c2c([H])c(OC([H])([H])C3([H])C([H])([H])C([H])([H])C([H])([N+]([H])([H])C([H])([H])C([H])([H])N([H])C(=O)N4C([H])([H])C([H])([H])C([H])([H])C([H])(n5nc(-c6c([H])c([H])c(Oc7c([H])c([H])c(F)c([H])c7F)c([H])c6[H])c(C(=O)N([H])[H])c5N([H])[H])C4([H])[H])C([H])([H])C3([H])[H])c([H])c([H])c2C1([H])[H]

$$$$
12:0:0
     RDKit          3D

 91100  0  0  1  0  0  0  0  0999 V2000
  -28.5430  -23.7140   20.4220 C   0  0  0  0  0  0  0  0  0  0  0  0
  -29.4520  -22.7080   20.8110 C   0  0  0  0  0  0  0  0  0  0  0  0
  -28.1010  -21.8060   19.3850 C   0  0  0  0  0  0  0  0  0  0  0  0
  -30.5670  -22.8730   21.7970 C   0  0  0  0  0  1  0  0  0  0  0  0
  -27.4520  -20.8610   18.4270 C   0  0  0  0  0  1  0  0  0  0  0  0
  -27.6830  -23.0770   19.5250 N   0  0  0  0  0  0  0  0  0  0  0  0
  -29.1810  -21.4660   20.1290 N   0  0  0  0  0  0  0  0  0  0  0  0
  -28.2680  -25.1830   20.9890 C   0  0  0  0  0  2  0  0  0  0  0  0
  -28.3260  -26.4300   20.1650 O   0  0  0  0  0  0  0  0  0  0  0  0
  -24.6110  -31.9010   23.2410 C   0  0  0  0  0  0  0  0  0  0  0  0
  -27.2220  -27.3050   20.1970 C   0  0  0  0  0  0  0  0  0  0  0  0
  -23.4130  -30.5010   21.5990 C   0  0  0  0  0  3  0  0  0  0  0  0
  -24.8610  -28.9350   20.1820 C   0  0  0  0  0  0  0  0  0  0  0  0
  -25.9540  -30.8090   21.4190 C   0  0  0  0  0  2  0  0  0  0  0  0
  -26.0340  -29.4240   20.7740 C   0  0  0  0  0  0  0  0  0  0  0  0
  -27.2220  -28.6240   20.7580 C   0  0  0  0  0  3  0  0  0  0  0  0
  -26.0250  -26.8710   19.5920 C   0  0  0  0  0  3  0  0  0  0  0  0
  -24.8600  -27.6650   19.5800 C   0  0  0  0  0  3  0  0  0  0  0  0
  -23.6300  -29.8180   20.2210 C   0  0  0  0  0  2  0  0  0  0  0  0
  -24.6790  -31.0890   22.1420 N   0  0  0  0  0  0  0  0  0  0  0  0
  -23.5260  -32.1770   23.7760 O   0  0  0  0  0  0  0  0  0  0  0  0
  -22.7390  -29.4930   22.5630 C   0  0  0  0  0  0  0  0  0  0  0  0
  -21.4110  -29.3250   22.4360 N   0  0  0  0  0  0  0  0  0  0  0  0
  -23.4120  -28.8690   23.3860 O   0  0  0  0  0  0  0  0  0  0  0  0
  -20.9280  -29.8840   21.7470 H   0  0  0  0  0  0  0  0  0  0  0  0
  -18.0250  -28.1460   22.9430 C   0  0  0  0  0  0  0  0  0  0  0  0
  -20.5860  -28.3890   23.2050 C   0  0  0  0  0  3  0  0  0  0  0  0
  -20.6790  -26.9610   22.6210 C   0  0  0  0  0  2  0  0  0  0  0  0
  -19.5700  -26.6470   21.6110 C   0  0  0  0  0  2  0  0  0  0  0  0
  -18.1910  -26.7980   22.2600 C   0  0  0  0  0  2  0  0  0  0  0  0
  -19.1490  -28.8990   23.3720 C   0  0  0  0  0  0  0  0  0  0  0  0
  -18.9400  -30.1600   23.9710 C   0  0  0  0  0  3  0  0  0  0  0  0
  -17.6370  -30.6660   24.1440 C   0  0  0  0  0  3  0  0  0  0  0  0
  -16.5280  -29.9090   23.7300 C   0  0  0  0  0  3  0  0  0  0  0  0
  -16.7230  -28.6500   23.1330 C   0  0  0  0  0  3  0  0  0  0  0  0
  -25.8910  -32.5310   23.8700 C   0  0  0  0  0  3  0  0  0  0  0  0
  -25.5850  -33.9320   24.1990 N   0  0  0  0  0  0  0  0  0  0  0  0
  -25.9260  -34.9840   23.4420 C   0  0  0  0  0  0  0  0  0  0  0  0
  -26.6000  -34.8760   22.4140 O   0  0  0  0  0  0  0  0  0  0  0  0
  -24.9870  -34.0880   24.9980 H   0  0  0  0  0  0  0  0  0  0  0  0
  -24.2150  -36.7920   23.0760 C   0  0  0  0  0  1  0  0  0  0  0  0
  -25.4440  -36.3760   23.9000 C   0  0  0  0  0  3  0  0  0  0  0  0
  -27.5730  -37.2430   24.7600 C   0  0  0  0  0  1  0  0  0  0  0  0
  -26.4860  -37.4210   23.8010 N   0  0  0  0  0  0  0  0  0  0  0  0
  -26.0850  -38.3430   23.9420 H   0  0  0  0  0  0  0  0  0  0  0  0
  -26.3980  -31.7620   25.1510 C   0  0  1  0  0  0  0  0  0  0  0  0
  -25.3040  -31.5330   26.2180 C   0  0  0  0  0  1  0  0  0  0  0  0
  -26.9780  -30.3810   24.7660 C   0  0  0  0  0  1  0  0  0  0  0  0
  -27.5490  -32.5560   25.8110 C   0  0  0  0  0  1  0  0  0  0  0  0
  -30.0090  -20.1570   20.0550 C   0  0  0  0  0  2  0  0  0  0  0  0
  -30.6450  -14.8720   20.3420 C   0  0  0  0  0  0  0  0  0  0  0  0
  -30.4170  -12.5780   19.3540 C   0  0  0  0  0  2  0  0  0  0  0  0
  -29.4690  -12.5720   18.1360 C   0  0  0  0  0  2  0  0  0  0  0  0
  -28.0120  -12.3500   18.5770 C   0  0  0  0  0  2  0  0  0  0  0  0
  -27.6150  -13.2520   19.7690 C   0  0  0  0  0  3  0  0  0  0  0  0
  -28.6870  -13.2840   20.8820 C   0  0  0  0  0  2  0  0  0  0  0  0
  -29.9640  -13.6650   20.2580 N   0  0  0  0  0  0  0  0  0  0  0  0
  -31.8580  -14.8650   20.1100 O   0  0  0  0  0  0  0  0  0  0  0  0
  -28.4180  -17.9780   19.9990 C   0  0  0  0  0  2  0  0  0  0  0  0
  -28.6040  -16.4460   20.1720 C   0  0  0  0  0  2  0  0  0  0  0  0
  -30.6490  -17.4820   20.5980 C   0  0  0  0  0  2  0  0  0  0  0  0
  -29.5950  -18.6920   20.6560 C   0  0  0  0  0  3  0  0  0  0  0  0
  -29.9940  -16.1150   20.5060 N   0  0  0  0  0  0  0  0  0  0  0  0
  -25.2450  -13.8500   20.5290 C   0  0  0  0  0  0  0  0  0  0  0  0
  -24.1890  -13.0790   20.9100 C   0  0  0  0  0  0  0  0  0  0  0  0
  -24.6590  -11.7280   20.8860 C   0  0  0  0  0  0  0  0  0  0  0  0
  -26.2880  -12.9700   20.2850 N   0  0  0  0  0  0  0  0  0  0  0  0
  -25.9460  -11.6910   20.5660 N   0  0  0  0  0  0  0  0  0  0  0  0
  -23.9420  -10.4660   21.0840 C   0  0  0  0  0  0  0  0  0  0  0  0
  -24.3800   -9.5060   22.0230 C   0  0  0  0  0  3  0  0  0  0  0  0
  -23.6630   -8.3070   22.2060 C   0  0  0  0  0  3  0  0  0  0  0  0
  -22.4940   -8.0560   21.4490 C   0  0  0  0  0  0  0  0  0  0  0  0
  -22.0760   -9.0040   20.4970 C   0  0  0  0  0  3  0  0  0  0  0  0
  -22.7940  -10.1960   20.3120 C   0  0  0  0  0  3  0  0  0  0  0  0
  -21.7470   -6.9080   21.5440 O   0  0  0  0  0  0  0  0  0  0  0  0
  -21.6960   -6.1780   22.7030 C   0  0  0  0  0  0  0  0  0  0  0  0
  -21.2420   -6.7390   23.9170 C   0  0  0  0  0  3  0  0  0  0  0  0
  -21.1380   -5.9340   25.0680 C   0  0  0  0  0  3  0  0  0  0  0  0
  -21.4800   -4.5690   25.0090 C   0  0  0  0  0  0  0  0  0  0  0  0
  -21.9270   -4.0080   23.8000 C   0  0  0  0  0  3  0  0  0  0  0  0
  -22.0310   -4.8100   22.6490 C   0  0  0  0  0  0  0  0  0  0  0  0
  -22.4450   -4.2610   21.4830 F   0  0  0  0  0  0  0  0  0  0  0  0
  -21.3730   -3.7930   26.1130 F   0  0  0  0  0  0  0  0  0  0  0  0
  -22.7890  -13.5530   21.1800 C   0  0  0  0  0  0  0  0  0  0  0  0
  -22.0630  -12.8570   22.0470 N   0  0  0  0  0  0  0  0  0  0  0  0
  -22.3470  -14.5760   20.6560 O   0  0  0  0  0  0  0  0  0  0  0  0
  -22.4290  -12.0320   22.4970 H   0  0  0  0  0  0  0  0  0  0  0  0
  -21.1230  -13.1590   22.2670 H   0  0  0  0  0  0  0  0  0  0  0  0
  -25.3960  -15.2200   20.3400 N   0  0  0  0  0  0  0  0  0  0  0  0
  -24.6220  -15.8680   20.4420 H   0  0  0  0  0  0  0  0  0  0  0  0
  -26.2370  -15.6610   19.9970 H   0  0  0  0  0  0  0  0  0  0  0  0
  1  2  2  0
  1  8  1  0
  2  4  1  0
  3  6  2  0
  3  7  1  0
  5  3  1  0
  6  1  1  0
  7  2  1  0
  9 11  1  0
  9  8  1  0
 10 21  2  0
 11 16  1  0
 12 20  1  0
 12 22  1  0
 13 19  1  0
 13 15  1  0
 14 20  1  0
 15 14  1  0
 16 15  2  0
 17 11  2  0
 18 17  1  0
 18 13  2  0
 19 12  1  0
 20 10  1  0
 22 24  2  0
 23 22  1  0
 25 23  1  0
 26 35  2  0
 26 31  1  0
 27 23  1  0
 27 31  1  0
 28 27  1  0
 29 30  1  0
 29 28  1  0
 30 26  1  0
 31 32  2  0
 32 33  1  0
 34 33  2  0
 35 34  1  0
 36 10  1  0
 36 37  1  0
 36 46  1  0
 37 40  1  0
 38 42  1  0
 38 37  1  0
 39 38  2  0
 42 41  1  0
 44 42  1  0
 44 45  1  0
 44 43  1  0
 46 49  1  1
 46 47  1  0
 48 46  1  0
 50  7  1  0
 51 63  1  0
 52 57  1  0
 53 54  1  0
 53 52  1  0
 55 54  1  0
 55 67  1  0
 55 56  1  0
 57 51  1  0
 57 56  1  0
 58 51  2  0
 59 60  1  0
 59 62  1  0
 60 63  1  0
 61 62  1  0
 62 50  1  0
 63 61  1  0
 64 65  2  0
 65 84  1  0
 66 65  1  0
 66 69  1  0
 67 64  1  0
 67 68  1  0
 68 66  2  0
 69 70  1  0
 70 71  2  0
 72 75  1  0
 72 71  1  0
 73 72  2  0
 74 73  1  0
 74 69  2  0
 75 76  1  0
 76 77  1  0
 77 78  2  0
 79 78  1  0
 79 83  1  0
 80 79  2  0
 81 76  2  0
 81 80  1  0
 82 81  1  0
 84 85  1  0
 85 88  1  0
 85 87  1  0
 86 84  2  0
 89 90  1  0
 89 64  1  0
 91 89  1  0
M  ISO  4   8 101   9 101  51 100  63 100
M  END
>  <TORSDO>  (13) 
F 18

>  <SCORE>  (13) 
-14.956

>  <name>  (13) 
12

>  <ligand_id>  (13) 
12

>  <original_smiles>  (13) 
[H]c1c([H])c([H])c2c(c1[H])C([H])([H])C([H])([H])C([H])([H])C2([H])N([H])C(=O)C1([H])N(C(=O)C([H])(N([H])C(=O)C([H])(N([H])C([H])([H])[H])C([H])([H])[H])C(C([H])([H])[H])(C([H])([H])[H])C([H])([H])[H])C([H])([H])c2c([H])c(OC([H])([H])c3nc(C([H])([H])[H])n(C([H])([H])C4([H])C([H])([H])N(C(=O)N5C([H])([H])C([H])([H])C([H])([H])C([H])(n6nc(-c7c([H])c([H])c(Oc8c([H])c([H])c(F)c([H])c8F)c([H])c7[H])c(C(=O)N([H])[H])c6N([H])[H])C5([H])[H])C([H])([H])C4([H])[H])c3C([H])([H])[H])c([H])c([H])c2C1([H])[H]

>  <smiles>  (13) 
[H]c1c([H])c([H])c2c(c1[H])C([H])([H])C([H])([H])C([H])([H])C2([H])N([H])C(=O)C1([H])N(C(=O)C([H])(N([H])C(=O)C([H])(N([H])C([H])([H])[H])C([H])([H])[H])C(C([H])([H])[H])(C([H])([H])[H])C([H])([H])[H])C([H])([H])c2c([H])c(OC([H])([H])c3nc(C([H])([H])[H])n(C([H])([H])C4([H])C([H])([H])N(C(=O)N5C([H])([H])C([H])([H])C([H])([H])C([H])(n6nc(-c7c([H])c([H])c(Oc8c([H])c([H])c(F)c([H])c8F)c([H])c7[H])c(C(=O)N([H])[H])c6N([H])[H])C5([H])[H])C([H])([H])C4([H])[H])c3C([H])([H])[H])c([H])c([H])c2C1([H])[H]

$$$$
13:0:0
     RDKit          3D

 92101  0  0  1  0  0  0  0  0999 V2000
  -28.3910  -21.8860   18.6030 C   0  0  0  0  0  3  0  0  0  0  0  0
  -29.2810  -22.2560   20.8210 C   0  0  0  0  0  3  0  0  0  0  0  0
  -28.3290  -23.2830   18.3950 C   0  0  0  0  0  3  0  0  0  0  0  0
  -29.2110  -23.6610   20.6140 C   0  0  0  0  0  3  0  0  0  0  0  0
  -28.8890  -21.3380   19.8100 C   0  0  0  0  0  0  0  0  0  0  0  0
  -28.7450  -24.1960   19.3890 C   0  0  0  0  0  0  0  0  0  0  0  0
  -29.5390  -19.2700   21.3070 C   0  0  0  0  0  2  0  0  0  0  0  0
  -29.7650  -19.1040   18.8260 C   0  0  0  0  0  2  0  0  0  0  0  0
  -29.5170  -17.7200   21.4140 C   0  0  0  0  0  2  0  0  0  0  0  0
  -29.7500  -17.5520   18.9090 C   0  0  0  0  0  2  0  0  0  0  0  0
  -28.9700  -19.7920   19.9650 C   0  0  0  0  0  3  0  0  0  0  0  0
  -30.2570  -16.9890   20.2630 C   0  0  0  0  0  3  0  0  0  0  0  0
  -30.8140  -14.4960   19.9720 C   0  0  0  0  0  0  0  0  0  0  0  0
  -30.4960  -12.2970   18.8960 C   0  0  0  0  0  2  0  0  0  0  0  0
  -29.4790  -12.4890   17.7500 C   0  0  0  0  0  2  0  0  0  0  0  0
  -28.0310  -12.3610   18.2700 C   0  0  0  0  0  2  0  0  0  0  0  0
  -27.7750  -13.2020   19.5490 C   0  0  0  0  0  3  0  0  0  0  0  0
  -28.8990  -12.9800   20.5880 C   0  0  0  0  0  2  0  0  0  0  0  0
  -30.1810  -13.2910   19.9330 N   0  0  0  0  0  0  0  0  0  0  0  0
  -31.9360  -14.6780   19.4900 O   0  0  0  0  0  0  0  0  0  0  0  0
  -30.0350  -15.5270   20.3770 N   0  0  0  0  0  0  0  0  0  0  0  0
  -29.1340  -15.2450   20.7330 H   0  0  0  0  0  0  0  0  0  0  0  0
  -25.4490  -13.8380   20.4450 C   0  0  0  0  0  0  0  0  0  0  0  0
  -24.3910  -13.0760   20.8620 C   0  0  0  0  0  0  0  0  0  0  0  0
  -24.8150  -11.7160   20.7500 C   0  0  0  0  0  0  0  0  0  0  0  0
  -26.4530  -12.9410   20.1120 N   0  0  0  0  0  0  0  0  0  0  0  0
  -26.0790  -11.6590   20.3520 N   0  0  0  0  0  0  0  0  0  0  0  0
  -24.0730  -10.4650   20.9480 C   0  0  0  0  0  0  0  0  0  0  0  0
  -24.5070   -9.4860   21.8680 C   0  0  0  0  0  3  0  0  0  0  0  0
  -23.7670   -8.2980   22.0530 C   0  0  0  0  0  3  0  0  0  0  0  0
  -22.5780   -8.0820   21.3180 C   0  0  0  0  0  0  0  0  0  0  0  0
  -22.1610   -9.0500   20.3860 C   0  0  0  0  0  3  0  0  0  0  0  0
  -22.9020  -10.2290   20.2000 C   0  0  0  0  0  3  0  0  0  0  0  0
  -21.8080   -6.9480   21.4130 O   0  0  0  0  0  0  0  0  0  0  0  0
  -21.7180   -6.2350   22.5800 C   0  0  0  0  0  0  0  0  0  0  0  0
  -21.2460   -6.8190   23.7760 C   0  0  0  0  0  3  0  0  0  0  0  0
  -21.1060   -6.0310   24.9360 C   0  0  0  0  0  3  0  0  0  0  0  0
  -21.4250   -4.6610   24.9010 C   0  0  0  0  0  0  0  0  0  0  0  0
  -21.8890   -4.0770   23.7090 C   0  0  0  0  0  3  0  0  0  0  0  0
  -22.0320   -4.8600   22.5510 C   0  0  0  0  0  0  0  0  0  0  0  0
  -22.4600   -4.2870   21.4000 F   0  0  0  0  0  0  0  0  0  0  0  0
  -21.2820   -3.9030   26.0120 F   0  0  0  0  0  0  0  0  0  0  0  0
  -23.0280  -13.5740   21.2480 C   0  0  0  0  0  0  0  0  0  0  0  0
  -22.3490  -12.8640   22.1430 N   0  0  0  0  0  0  0  0  0  0  0  0
  -22.5770  -14.6250   20.7930 O   0  0  0  0  0  0  0  0  0  0  0  0
  -22.7320  -12.0140   22.5280 H   0  0  0  0  0  0  0  0  0  0  0  0
  -21.4360  -13.1750   22.4450 H   0  0  0  0  0  0  0  0  0  0  0  0
  -25.6330  -15.2100   20.3000 N   0  0  0  0  0  0  0  0  0  0  0  0
  -24.8830  -15.8700   20.4740 H   0  0  0  0  0  0  0  0  0  0  0  0
  -26.4530  -15.6400   19.8920 H   0  0  0  0  0  0  0  0  0  0  0  0
  -28.8210  -25.7000   19.0400 C   0  0  0  0  0  2  0  0  0  0  0  0
  -28.5280  -26.6650   20.0740 O   0  0  0  0  0  0  0  0  0  0  0  0
  -24.6230  -31.7870   23.1490 C   0  0  0  0  0  0  0  0  0  0  0  0
  -27.3420  -27.3810   20.0410 C   0  0  0  0  0  0  0  0  0  0  0  0
  -23.4430  -30.3880   21.4840 C   0  0  0  0  0  3  0  0  0  0  0  0
  -24.9250  -28.8730   20.0560 C   0  0  0  0  0  0  0  0  0  0  0  0
  -25.9680  -30.7710   21.3090 C   0  0  0  0  0  2  0  0  0  0  0  0
  -26.0730  -29.4010   20.6590 C   0  0  0  0  0  0  0  0  0  0  0  0
  -27.2790  -28.6580   20.6550 C   0  0  0  0  0  3  0  0  0  0  0  0
  -26.1670  -26.8670   19.4450 C   0  0  0  0  0  3  0  0  0  0  0  0
  -24.9680  -27.6060   19.4490 C   0  0  0  0  0  3  0  0  0  0  0  0
  -23.6720  -29.7200   20.1010 C   0  0  0  0  0  2  0  0  0  0  0  0
  -24.6960  -30.9980   22.0390 N   0  0  0  0  0  0  0  0  0  0  0  0
  -23.5350  -32.0420   23.6860 O   0  0  0  0  0  0  0  0  0  0  0  0
  -22.7950  -29.3530   22.4330 C   0  0  0  0  0  0  0  0  0  0  0  0
  -21.4750  -29.1540   22.2940 N   0  0  0  0  0  0  0  0  0  0  0  0
  -23.4800  -28.7330   23.2500 O   0  0  0  0  0  0  0  0  0  0  0  0
  -20.9820  -29.7080   21.6070 H   0  0  0  0  0  0  0  0  0  0  0  0
  -18.1160  -27.8980   22.7440 C   0  0  0  0  0  0  0  0  0  0  0  0
  -20.6650  -28.1990   23.0500 C   0  0  0  0  0  3  0  0  0  0  0  0
  -20.8000  -26.7730   22.4690 C   0  0  0  0  0  2  0  0  0  0  0  0
  -19.7160  -26.4360   21.4400 C   0  0  0  0  0  2  0  0  0  0  0  0
  -18.3240  -26.5550   22.0650 C   0  0  0  0  0  2  0  0  0  0  0  0
  -19.2160  -28.6770   23.1930 C   0  0  0  0  0  0  0  0  0  0  0  0
  -18.9680  -29.9350   23.7850 C   0  0  0  0  0  3  0  0  0  0  0  0
  -17.6520  -30.4120   23.9360 C   0  0  0  0  0  3  0  0  0  0  0  0
  -16.5670  -29.6310   23.5050 C   0  0  0  0  0  3  0  0  0  0  0  0
  -16.8000  -28.3760   22.9140 C   0  0  0  0  0  3  0  0  0  0  0  0
  -25.8970  -32.4290   23.7830 C   0  0  0  0  0  3  0  0  0  0  0  0
  -25.5690  -33.8190   24.1290 N   0  0  0  0  0  0  0  0  0  0  0  0
  -25.8870  -34.8840   23.3810 C   0  0  0  0  0  0  0  0  0  0  0  0
  -26.5580  -34.8010   22.3490 O   0  0  0  0  0  0  0  0  0  0  0  0
  -24.9730  -33.9560   24.9320 H   0  0  0  0  0  0  0  0  0  0  0  0
  -24.1330  -36.6560   23.0450 C   0  0  0  0  0  1  0  0  0  0  0  0
  -25.3800  -36.2610   23.8530 C   0  0  0  0  0  3  0  0  0  0  0  0
  -27.4970  -37.1720   24.6990 C   0  0  0  0  0  1  0  0  0  0  0  0
  -26.3970  -37.3300   23.7510 N   0  0  0  0  0  0  0  0  0  0  0  0
  -25.9770  -38.2430   23.9010 H   0  0  0  0  0  0  0  0  0  0  0  0
  -26.4200  -31.6490   25.0510 C   0  0  1  0  0  0  0  0  0  0  0  0
  -25.3280  -31.3790   26.1120 C   0  0  0  0  0  1  0  0  0  0  0  0
  -27.0280  -30.2870   24.6410 C   0  0  0  0  0  1  0  0  0  0  0  0
  -27.5550  -32.4500   25.7310 C   0  0  0  0  0  1  0  0  0  0  0  0
  1  5  1  0
  3  1  2  0
  3  6  1  0
  4  2  1  0
  5  2  2  0
  6  4  2  0
  7  9  1  0
  8 10  1  0
  8 11  1  0
 10 12  1  0
 11  5  1  0
 11  7  1  0
 12 21  1  0
 12  9  1  0
 13 21  1  0
 14 19  1  0
 15 16  1  0
 15 14  1  0
 17 16  1  0
 17 26  1  0
 17 18  1  0
 19 13  1  0
 19 18  1  0
 20 13  2  0
 21 22  1  0
 23 24  2  0
 24 43  1  0
 25 24  1  0
 25 28  1  0
 26 27  1  0
 26 23  1  0
 27 25  2  0
 28 29  1  0
 29 30  2  0
 31 34  1  0
 31 30  1  0
 32 31  2  0
 33 32  1  0
 33 28  2  0
 34 35  1  0
 35 36  1  0
 36 37  2  0
 38 37  1  0
 38 42  1  0
 39 38  2  0
 40 35  2  0
 40 39  1  0
 41 40  1  0
 43 44  1  0
 44 47  1  0
 44 46  1  0
 45 43  2  0
 48 23  1  0
 48 49  1  0
 50 48  1  0
 51  6  1  0
 51 52  1  0
 53 64  2  0
 54 52  1  0
 54 59  1  0
 55 63  1  0
 55 65  1  0
 56 62  1  0
 56 58  1  0
 57 63  1  0
 58 57  1  0
 59 58  2  0
 60 61  1  0
 60 54  2  0
 61 56  2  0
 62 55  1  0
 63 53  1  0
 65 67  2  0
 66 65  1  0
 68 66  1  0
 69 78  2  0
 69 74  1  0
 70 66  1  0
 70 74  1  0
 71 70  1  0
 72 73  1  0
 72 71  1  0
 73 69  1  0
 74 75  2  0
 75 76  1  0
 77 76  2  0
 78 77  1  0
 79 53  1  0
 79 80  1  0
 79 89  1  0
 80 83  1  0
 81 85  1  0
 81 80  1  0
 82 81  2  0
 85 84  1  0
 87 85  1  0
 87 88  1  0
 87 86  1  0
 89 92  1  1
 89 90  1  0
 91 89  1  0
M  ISO  4  13 100  21 100  51 101  52 101
M  END
>  <TORSDO>  (14) 
F 18

>  <SCORE>  (14) 
-13.951

>  <name>  (14) 
13

>  <ligand_id>  (14) 
13

>  <original_smiles>  (14) 
[H]c1c([H])c([H])c2c(c1[H])C([H])([H])C([H])([H])C([H])([H])C2([H])N([H])C(=O)C1([H])N(C(=O)C([H])(N([H])C(=O)C([H])(N([H])C([H])([H])[H])C([H])([H])[H])C(C([H])([H])[H])(C([H])([H])[H])C([H])([H])[H])C([H])([H])c2c([H])c(OC([H])([H])c3c([H])c([H])c(C4([H])C([H])([H])C([H])([H])C([H])(N([H])C(=O)N5C([H])([H])C([H])([H])C([H])([H])C([H])(n6nc(-c7c([H])c([H])c(Oc8c([H])c([H])c(F)c([H])c8F)c([H])c7[H])c(C(=O)N([H])[H])c6N([H])[H])C5([H])[H])C([H])([H])C4([H])[H])c([H])c3[H])c([H])c([H])c2C1([H])[H]

>  <smiles>  (14) 
[H]c1c([H])c([H])c2c(c1[H])C([H])([H])C([H])([H])C([H])([H])C2([H])N([H])C(=O)C1([H])N(C(=O)C([H])(N([H])C(=O)C([H])(N([H])C([H])([H])[H])C([H])([H])[H])C(C([H])([H])[H])(C([H])([H])[H])C([H])([H])[H])C([H])([H])c2c([H])c(OC([H])([H])c3c([H])c([H])c(C4([H])C([H])([H])C([H])([H])C([H])(N([H])C(=O)N5C([H])([H])C([H])([H])C([H])([H])C([H])(n6nc(-c7c([H])c([H])c(Oc8c([H])c([H])c(F)c([H])c8F)c([H])c7[H])c(C(=O)N([H])[H])c6N([H])[H])C5([H])[H])C([H])([H])C4([H])[H])c([H])c3[H])c([H])c([H])c2C1([H])[H]

$$$$
14:0:0
     RDKit          3D

 93102  0  0  1  0  0  0  0  0999 V2000
  -30.9410  -22.6460   19.8740 C   0  0  0  0  0  2  0  0  0  0  0  0
  -29.3380  -23.8450   18.6530 C   0  0  0  0  0  2  0  0  0  0  0  0
  -29.5830  -22.2230   20.5060 C   0  0  0  0  0  3  0  0  0  0  0  0
  -28.5720  -23.4160   19.9020 C   0  0  0  0  0  3  0  0  0  0  0  0
  -30.7340  -23.8760   19.0970 N   0  0  0  0  0  4  0  0  0  0  0  0
  -31.3700  -23.9360   18.3180 H   0  0  0  0  0  0  0  0  0  0  0  0
  -30.8780  -24.6780   19.6880 H   0  0  0  0  0  0  0  0  0  0  0  0
  -30.4980  -14.9210   20.3190 C   0  0  0  0  0  0  0  0  0  0  0  0
  -30.4020  -12.5940   19.3340 C   0  0  0  0  0  2  0  0  0  0  0  0
  -29.4500  -12.5920   18.1140 C   0  0  0  0  0  2  0  0  0  0  0  0
  -27.9900  -12.3750   18.5600 C   0  0  0  0  0  2  0  0  0  0  0  0
  -27.5980  -13.2810   19.7570 C   0  0  0  0  0  3  0  0  0  0  0  0
  -28.6640  -13.2330   20.8730 C   0  0  0  0  0  2  0  0  0  0  0  0
  -29.9360  -13.6520   20.2690 N   0  0  0  0  0  0  0  0  0  0  0  0
  -31.6910  -15.0360   20.0080 O   0  0  0  0  0  0  0  0  0  0  0  0
  -28.3490  -19.7290   20.3840 C   0  0  0  0  0  3  0  0  0  0  0  0
  -28.4390  -18.2800   20.3990 C   0  0  0  0  0  3  0  0  0  0  0  0
  -30.6790  -19.7410   20.5590 C   0  0  0  0  0  3  0  0  0  0  0  0
  -29.5010  -20.5680   20.4540 C   0  0  0  0  0  0  0  0  0  0  0  0
  -29.6700  -17.5400   20.4730 C   0  0  0  0  0  0  0  0  0  0  0  0
  -30.7660  -18.3540   20.5480 N   0  0  0  0  0  0  0  0  0  0  0  0
  -29.6300  -16.0200   20.5130 N   0  0  0  0  0  0  0  0  0  0  0  0
  -28.6960  -15.6820   20.6750 H   0  0  0  0  0  0  0  0  0  0  0  0
  -25.2220  -13.8610   20.5180 C   0  0  0  0  0  0  0  0  0  0  0  0
  -24.1620  -13.0850   20.8990 C   0  0  0  0  0  0  0  0  0  0  0  0
  -24.6270  -11.7340   20.8560 C   0  0  0  0  0  0  0  0  0  0  0  0
  -26.2630  -12.9830   20.2620 N   0  0  0  0  0  0  0  0  0  0  0  0
  -25.9140  -11.6990   20.5300 N   0  0  0  0  0  0  0  0  0  0  0  0
  -23.9040  -10.4700   21.0490 C   0  0  0  0  0  0  0  0  0  0  0  0
  -24.3470   -9.4990   21.9740 C   0  0  0  0  0  3  0  0  0  0  0  0
  -23.6240   -8.3000   22.1530 C   0  0  0  0  0  3  0  0  0  0  0  0
  -22.4460   -8.0630   21.4070 C   0  0  0  0  0  0  0  0  0  0  0  0
  -22.0220   -9.0230   20.4710 C   0  0  0  0  0  3  0  0  0  0  0  0
  -22.7450  -10.2140   20.2900 C   0  0  0  0  0  3  0  0  0  0  0  0
  -21.6940   -6.9170   21.4960 O   0  0  0  0  0  0  0  0  0  0  0  0
  -21.6590   -6.1670   22.6440 C   0  0  0  0  0  0  0  0  0  0  0  0
  -21.2480   -6.7140   23.8790 C   0  0  0  0  0  3  0  0  0  0  0  0
  -21.1610   -5.8890   25.0190 C   0  0  0  0  0  3  0  0  0  0  0  0
  -21.4740   -4.5200   24.9250 C   0  0  0  0  0  0  0  0  0  0  0  0
  -21.8800   -3.9740   23.6940 C   0  0  0  0  0  3  0  0  0  0  0  0
  -21.9690   -4.7950   22.5570 C   0  0  0  0  0  0  0  0  0  0  0  0
  -22.3390   -4.2590   21.3680 F   0  0  0  0  0  0  0  0  0  0  0  0
  -21.3840   -3.7260   26.0170 F   0  0  0  0  0  0  0  0  0  0  0  0
  -22.7670  -13.5600   21.1830 C   0  0  0  0  0  0  0  0  0  0  0  0
  -22.0440  -12.8590   22.0480 N   0  0  0  0  0  0  0  0  0  0  0  0
  -22.3260  -14.5880   20.6700 O   0  0  0  0  0  0  0  0  0  0  0  0
  -22.4110  -12.0260   22.4850 H   0  0  0  0  0  0  0  0  0  0  0  0
  -21.1090  -13.1610   22.2800 H   0  0  0  0  0  0  0  0  0  0  0  0
  -25.3790  -15.2320   20.3410 N   0  0  0  0  0  0  0  0  0  0  0  0
  -24.5950  -15.8680   20.4430 H   0  0  0  0  0  0  0  0  0  0  0  0
  -26.1710  -15.6540   19.8760 H   0  0  0  0  0  0  0  0  0  0  0  0
  -28.2070  -24.8330   20.7210 C   0  0  0  0  0  2  0  0  0  0  0  0
  -28.3270  -26.2890   20.2260 O   0  0  0  0  0  0  0  0  0  0  0  0
  -24.6240  -31.8760   23.2430 C   0  0  0  0  0  0  0  0  0  0  0  0
  -27.2300  -27.2060   20.2360 C   0  0  0  0  0  0  0  0  0  0  0  0
  -23.4260  -30.4730   21.6040 C   0  0  0  0  0  3  0  0  0  0  0  0
  -24.8820  -28.8980   20.1930 C   0  0  0  0  0  0  0  0  0  0  0  0
  -25.9740  -30.7630   21.4330 C   0  0  0  0  0  2  0  0  0  0  0  0
  -26.0560  -29.3690   20.7940 C   0  0  0  0  0  0  0  0  0  0  0  0
  -27.2340  -28.5410   20.7950 C   0  0  0  0  0  3  0  0  0  0  0  0
  -26.0290  -26.8110   19.6140 C   0  0  0  0  0  3  0  0  0  0  0  0
  -24.8770  -27.6280   19.5910 C   0  0  0  0  0  3  0  0  0  0  0  0
  -23.6480  -29.7860   20.2300 C   0  0  0  0  0  2  0  0  0  0  0  0
  -24.6950  -31.0590   22.1490 N   0  0  0  0  0  0  0  0  0  0  0  0
  -23.5380  -32.1570   23.7720 O   0  0  0  0  0  0  0  0  0  0  0  0
  -22.7550  -29.4670   22.5700 C   0  0  0  0  0  0  0  0  0  0  0  0
  -21.4280  -29.2920   22.4420 N   0  0  0  0  0  0  0  0  0  0  0  0
  -23.4290  -28.8440   23.3930 O   0  0  0  0  0  0  0  0  0  0  0  0
  -20.9390  -29.8460   21.7540 H   0  0  0  0  0  0  0  0  0  0  0  0
  -18.0500  -28.0890   22.9480 C   0  0  0  0  0  0  0  0  0  0  0  0
  -20.6090  -28.3560   23.2150 C   0  0  0  0  0  3  0  0  0  0  0  0
  -20.7130  -26.9220   22.6430 C   0  0  0  0  0  2  0  0  0  0  0  0
  -19.6100  -26.5960   21.6290 C   0  0  0  0  0  2  0  0  0  0  0  0
  -18.2290  -26.7390   22.2720 C   0  0  0  0  0  2  0  0  0  0  0  0
  -19.1680  -28.8530   23.3760 C   0  0  0  0  0  0  0  0  0  0  0  0
  -18.9470  -30.1160   23.9690 C   0  0  0  0  0  3  0  0  0  0  0  0
  -17.6410  -30.6130   24.1380 C   0  0  0  0  0  3  0  0  0  0  0  0
  -16.5380  -29.8470   23.7250 C   0  0  0  0  0  3  0  0  0  0  0  0
  -16.7440  -28.5860   23.1350 C   0  0  0  0  0  3  0  0  0  0  0  0
  -25.9020  -32.5150   23.8690 C   0  0  0  0  0  3  0  0  0  0  0  0
  -25.5890  -33.9160   24.1910 N   0  0  0  0  0  0  0  0  0  0  0  0
  -25.9220  -34.9680   23.4290 C   0  0  0  0  0  0  0  0  0  0  0  0
  -26.5910  -34.8600   22.3980 O   0  0  0  0  0  0  0  0  0  0  0  0
  -24.9950  -34.0730   24.9900 H   0  0  0  0  0  0  0  0  0  0  0  0
  -24.1960  -36.7640   23.0710 C   0  0  0  0  0  1  0  0  0  0  0  0
  -25.4360  -36.3590   23.8830 C   0  0  0  0  0  3  0  0  0  0  0  0
  -27.5740  -37.2470   24.7060 C   0  0  0  0  0  1  0  0  0  0  0  0
  -26.4690  -37.4110   23.7640 N   0  0  0  0  0  0  0  0  0  0  0  0
  -26.0630  -38.3310   23.9100 H   0  0  0  0  0  0  0  0  0  0  0  0
  -26.4090  -31.7550   25.1560 C   0  0  1  0  0  0  0  0  0  0  0  0
  -25.3080  -31.5330   26.2210 C   0  0  0  0  0  1  0  0  0  0  0  0
  -26.9920  -30.3710   24.7860 C   0  0  0  0  0  1  0  0  0  0  0  0
  -27.5560  -32.5540   25.8180 C   0  0  0  0  0  1  0  0  0  0  0  0
  1  3  1  0
  2  5  1  0
  2  4  1  0
  3 19  1  0
  4  3  1  0
  4 52  1  0
  5  7  1  0
  5  1  1  0
  6  5  1  0
  8 22  1  0
  9 14  1  0
 10 11  1  0
 10  9  1  0
 12 11  1  0
 12 27  1  0
 12 13  1  0
 14  8  1  0
 14 13  1  0
 15  8  2  0
 16 17  2  0
 16 19  1  0
 17 20  1  0
 19 18  2  0
 20 22  1  0
 20 21  2  0
 21 18  1  0
 22 23  1  0
 24 25  2  0
 25 44  1  0
 26 25  1  0
 26 29  1  0
 27 24  1  0
 27 28  1  0
 28 26  2  0
 29 30  1  0
 30 31  2  0
 32 35  1  0
 32 31  1  0
 33 32  2  0
 34 33  1  0
 34 29  2  0
 35 36  1  0
 36 37  1  0
 37 38  2  0
 39 38  1  0
 39 43  1  0
 40 39  2  0
 41 36  2  0
 41 40  1  0
 42 41  1  0
 44 45  1  0
 45 48  1  0
 45 47  1  0
 46 44  2  0
 49 50  1  0
 49 24  1  0
 51 49  1  0
 53 55  1  0
 53 52  1  0
 54 65  2  0
 55 60  1  0
 56 64  1  0
 56 66  1  0
 57 63  1  0
 57 59  1  0
 58 64  1  0
 59 60  2  0
 59 58  1  0
 61 55  2  0
 62 61  1  0
 62 57  2  0
 63 56  1  0
 64 54  1  0
 66 68  2  0
 67 66  1  0
 69 67  1  0
 70 79  2  0
 70 75  1  0
 71 67  1  0
 71 75  1  0
 72 71  1  0
 73 74  1  0
 73 72  1  0
 74 70  1  0
 75 76  2  0
 76 77  1  0
 78 77  2  0
 79 78  1  0
 80 54  1  0
 80 81  1  0
 80 90  1  0
 81 84  1  0
 82 86  1  0
 82 81  1  0
 83 82  2  0
 86 85  1  0
 88 86  1  0
 88 89  1  0
 88 87  1  0
 90 93  1  1
 90 91  1  0
 92 90  1  0
M  ISO  4   8 100  22 100  52 101  53 101
M  END
>  <TORSDO>  (15) 
F 17

>  <SCORE>  (15) 
-15.240

>  <name>  (15) 
14

>  <ligand_id>  (15) 
14

>  <original_smiles>  (15) 
[H]c1nc(N([H])C(=O)N2C([H])([H])C([H])([H])C([H])([H])C([H])(n3nc(-c4c([H])c([H])c(Oc5c([H])c([H])c(F)c([H])c5F)c([H])c4[H])c(C(=O)N([H])[H])c3N([H])[H])C2([H])[H])c([H])c([H])c1C1([H])C([H])(C([H])([H])Oc2c([H])c([H])c3c(c2[H])C([H])([H])N(C(=O)C([H])(N([H])C(=O)C([H])(N([H])C([H])([H])[H])C([H])([H])[H])C(C([H])([H])[H])(C([H])([H])[H])C([H])([H])[H])C([H])(C(=O)N([H])C2([H])c4c([H])c([H])c([H])c([H])c4C([H])([H])C([H])([H])C2([H])[H])C3([H])[H])C([H])([H])[N+]([H])([H])C1([H])[H]

>  <smiles>  (15) 
[H]c1nc(N([H])C(=O)N2C([H])([H])C([H])([H])C([H])([H])C([H])(n3nc(-c4c([H])c([H])c(Oc5c([H])c([H])c(F)c([H])c5F)c([H])c4[H])c(C(=O)N([H])[H])c3N([H])[H])C2([H])[H])c([H])c([H])c1C1([H])C([H])(C([H])([H])Oc2c([H])c([H])c3c(c2[H])C([H])([H])N(C(=O)C([H])(N([H])C(=O)C([H])(N([H])C([H])([H])[H])C([H])([H])[H])C(C([H])([H])[H])(C([H])([H])[H])C([H])([H])[H])C([H])(C(=O)N([H])C2([H])c4c([H])c([H])c([H])c([H])c4C([H])([H])C([H])([H])C2([H])[H])C3([H])[H])C([H])([H])[N+]([H])([H])C1([H])[H]

$$$$
15:0:0
     RDKit          3D

 90 99  0  0  1  0  0  0  0  0999 V2000
  -28.2820  -20.2920   19.5960 C   0  0  0  0  0  3  0  0  0  0  0  0
  -29.4900  -22.3600   20.8720 C   0  0  0  0  0  3  0  0  0  0  0  0
  -27.8530  -21.7000   19.3930 C   0  0  0  0  0  0  0  0  0  0  0  0
  -28.4490  -22.8930   20.0140 C   0  0  0  0  0  0  0  0  0  0  0  0
  -29.3270  -19.8570   20.4870 C   0  0  0  0  0  0  0  0  0  0  0  0
  -29.8700  -21.0020   21.0850 N   0  0  0  0  0  0  0  0  0  0  0  0
  -25.3090  -22.1190   19.0090 C   0  0  0  0  0  2  0  0  0  0  0  0
  -25.6110  -20.9380   18.1210 C   0  0  0  0  0  2  0  0  0  0  0  0
  -26.7020  -21.9380   18.4480 C   0  0  0  0  0  3  0  0  0  0  0  0
  -27.9620  -24.5180   19.5890 C   0  0  0  0  0  2  0  0  0  0  0  0
  -28.2760  -26.0600   20.0230 O   0  0  0  0  0  0  0  0  0  0  0  0
  -24.5640  -31.8450   23.1200 C   0  0  0  0  0  0  0  0  0  0  0  0
  -27.2620  -27.1480   19.9680 C   0  0  0  0  0  0  0  0  0  0  0  0
  -23.4080  -30.4440   21.4630 C   0  0  0  0  0  3  0  0  0  0  0  0
  -24.9010  -28.9390   19.9890 C   0  0  0  0  0  0  0  0  0  0  0  0
  -25.9670  -30.7590   21.3010 C   0  0  0  0  0  2  0  0  0  0  0  0
  -26.0800  -29.3700   20.6110 C   0  0  0  0  0  0  0  0  0  0  0  0
  -27.2520  -28.4920   20.5830 C   0  0  0  0  0  3  0  0  0  0  0  0
  -26.0520  -26.8780   19.2890 C   0  0  0  0  0  3  0  0  0  0  0  0
  -24.9120  -27.7140   19.3070 C   0  0  0  0  0  3  0  0  0  0  0  0
  -23.6490  -29.8080   20.0670 C   0  0  0  0  0  2  0  0  0  0  0  0
  -24.6690  -31.0420   22.0130 N   0  0  0  0  0  0  0  0  0  0  0  0
  -23.4680  -32.0810   23.6560 O   0  0  0  0  0  0  0  0  0  0  0  0
  -22.7660  -29.3960   22.4100 C   0  0  0  0  0  0  0  0  0  0  0  0
  -21.4390  -29.1980   22.3110 N   0  0  0  0  0  0  0  0  0  0  0  0
  -23.4690  -28.7640   23.2030 O   0  0  0  0  0  0  0  0  0  0  0  0
  -20.9240  -29.7580   21.6460 H   0  0  0  0  0  0  0  0  0  0  0  0
  -18.0940  -27.9160   22.8880 C   0  0  0  0  0  0  0  0  0  0  0  0
  -20.6590  -28.2190   23.0740 C   0  0  0  0  0  3  0  0  0  0  0  0
  -20.7630  -26.8100   22.4440 C   0  0  0  0  0  2  0  0  0  0  0  0
  -19.6340  -26.5050   21.4570 C   0  0  0  0  0  2  0  0  0  0  0  0
  -18.2710  -26.6000   22.1490 C   0  0  0  0  0  2  0  0  0  0  0  0
  -19.2140  -28.6840   23.3080 C   0  0  0  0  0  0  0  0  0  0  0  0
  -18.9920  -29.9150   23.9620 C   0  0  0  0  0  3  0  0  0  0  0  0
  -17.6840  -30.3800   24.1970 C   0  0  0  0  0  3  0  0  0  0  0  0
  -16.5800  -29.6100   23.7900 C   0  0  0  0  0  3  0  0  0  0  0  0
  -16.7870  -28.3800   23.1420 C   0  0  0  0  0  3  0  0  0  0  0  0
  -25.8170  -32.5280   23.7510 C   0  0  0  0  0  3  0  0  0  0  0  0
  -26.3420  -31.7780   25.0380 C   0  0  1  0  0  0  0  0  0  0  0  0
  -25.2480  -31.5240   26.1020 C   0  0  0  0  0  1  0  0  0  0  0  0
  -26.9600  -30.4110   24.6680 C   0  0  0  0  0  1  0  0  0  0  0  0
  -27.4690  -32.6050   25.7000 C   0  0  0  0  0  1  0  0  0  0  0  0
  -25.4550  -33.9150   24.0870 N   0  0  0  0  0  0  0  0  0  0  0  0
  -25.7820  -34.9910   23.3600 C   0  0  0  0  0  0  0  0  0  0  0  0
  -26.4840  -34.9220   22.3480 O   0  0  0  0  0  0  0  0  0  0  0  0
  -24.8380  -34.0410   24.8740 H   0  0  0  0  0  0  0  0  0  0  0  0
  -24.0250  -36.7570   22.9900 C   0  0  0  0  0  1  0  0  0  0  0  0
  -25.2500  -36.3610   23.8300 C   0  0  0  0  0  3  0  0  0  0  0  0
  -27.3390  -37.2820   24.7390 C   0  0  0  0  0  1  0  0  0  0  0  0
  -26.2610  -37.4420   23.7670 N   0  0  0  0  0  0  0  0  0  0  0  0
  -25.8280  -38.3490   23.9190 H   0  0  0  0  0  0  0  0  0  0  0  0
  -30.0060  -18.2930   20.8350 C   0  0  0  0  0  2  0  0  0  0  0  0
  -30.3650  -15.4470   20.6340 C   0  0  0  0  0  0  0  0  0  0  0  0
  -30.3900  -13.0610   19.6430 C   0  0  0  0  0  2  0  0  0  0  0  0
  -29.5200  -12.9000   18.3720 C   0  0  0  0  0  2  0  0  0  0  0  0
  -28.0550  -12.6140   18.7480 C   0  0  0  0  0  2  0  0  0  0  0  0
  -27.5500  -13.5340   19.8880 C   0  0  0  0  0  3  0  0  0  0  0  0
  -28.5500  -13.6290   21.0580 C   0  0  0  0  0  2  0  0  0  0  0  0
  -29.8020  -14.1550   20.4930 N   0  0  0  0  0  0  0  0  0  0  0  0
  -31.5940  -15.4680   20.4830 O   0  0  0  0  0  0  0  0  0  0  0  0
  -29.5990  -16.7020   20.7350 N   0  0  0  0  0  0  0  0  0  0  0  0
  -28.6010  -16.5550   20.7590 H   0  0  0  0  0  0  0  0  0  0  0  0
  -25.1550  -14.0420   20.6010 C   0  0  0  0  0  0  0  0  0  0  0  0
  -24.0820  -13.2400   20.8760 C   0  0  0  0  0  0  0  0  0  0  0  0
  -24.5540  -11.8970   20.7620 C   0  0  0  0  0  0  0  0  0  0  0  0
  -26.2070  -13.1870   20.3290 N   0  0  0  0  0  0  0  0  0  0  0  0
  -25.8560  -11.8850   20.4960 N   0  0  0  0  0  0  0  0  0  0  0  0
  -23.8250  -10.6230   20.8290 C   0  0  0  0  0  0  0  0  0  0  0  0
  -24.2460   -9.5710   21.6740 C   0  0  0  0  0  3  0  0  0  0  0  0
  -23.5120   -8.3670   21.7360 C   0  0  0  0  0  3  0  0  0  0  0  0
  -22.3450   -8.2050   20.9520 C   0  0  0  0  0  0  0  0  0  0  0  0
  -21.9460   -9.2450   20.0950 C   0  0  0  0  0  3  0  0  0  0  0  0
  -22.6790  -10.4410   20.0300 C   0  0  0  0  0  3  0  0  0  0  0  0
  -21.5850   -7.0600   20.9290 O   0  0  0  0  0  0  0  0  0  0  0  0
  -21.5690   -6.1850   21.9860 C   0  0  0  0  0  0  0  0  0  0  0  0
  -21.1750   -6.5890   23.2810 C   0  0  0  0  0  3  0  0  0  0  0  0
  -21.1050   -5.6420   24.3220 C   0  0  0  0  0  3  0  0  0  0  0  0
  -21.4210   -4.2930   24.0710 C   0  0  0  0  0  0  0  0  0  0  0  0
  -21.8090   -3.8900   22.7810 C   0  0  0  0  0  3  0  0  0  0  0  0
  -21.8800   -4.8330   21.7420 C   0  0  0  0  0  0  0  0  0  0  0  0
  -22.2330   -4.4340   20.4940 F   0  0  0  0  0  0  0  0  0  0  0  0
  -21.3470   -3.3820   25.0690 F   0  0  0  0  0  0  0  0  0  0  0  0
  -22.6740  -13.6970   21.1240 C   0  0  0  0  0  0  0  0  0  0  0  0
  -21.9200  -12.9450   21.9150 N   0  0  0  0  0  0  0  0  0  0  0  0
  -22.2550  -14.7540   20.6560 O   0  0  0  0  0  0  0  0  0  0  0  0
  -22.2730  -12.0870   22.3140 H   0  0  0  0  0  0  0  0  0  0  0  0
  -20.9740  -13.2300   22.1270 H   0  0  0  0  0  0  0  0  0  0  0  0
  -25.3180  -15.4230   20.5280 N   0  0  0  0  0  0  0  0  0  0  0  0
  -24.5430  -16.0630   20.6520 H   0  0  0  0  0  0  0  0  0  0  0  0
  -26.1630  -15.8840   20.2160 H   0  0  0  0  0  0  0  0  0  0  0  0
  1  5  1  0
  2  6  1  0
  3  1  2  0
  3  4  1  0
  4  2  2  0
  5 52  1  0
  5  6  2  0
  8  9  1  0
  8  7  1  0
  9  7  1  0
  9  3  1  0
 10  4  1  0
 10 11  1  0
 12 23  2  0
 13 11  1  0
 13 18  1  0
 14 22  1  0
 14 24  1  0
 15 21  1  0
 15 17  1  0
 16 22  1  0
 17 16  1  0
 18 17  2  0
 19 20  1  0
 19 13  2  0
 20 15  2  0
 21 14  1  0
 22 12  1  0
 24 26  2  0
 25 24  1  0
 27 25  1  0
 28 37  2  0
 28 33  1  0
 29 25  1  0
 29 33  1  0
 30 29  1  0
 31 32  1  0
 31 30  1  0
 32 28  1  0
 33 34  2  0
 34 35  1  0
 36 35  2  0
 37 36  1  0
 38 12  1  0
 38 43  1  0
 38 39  1  0
 39 42  1  1
 39 40  1  0
 41 39  1  0
 43 46  1  0
 44 48  1  0
 44 43  1  0
 45 44  2  0
 48 47  1  0
 50 48  1  0
 50 51  1  0
 50 49  1  0
 53 61  1  0
 54 59  1  0
 55 56  1  0
 55 54  1  0
 57 56  1  0
 57 66  1  0
 57 58  1  0
 59 53  1  0
 59 58  1  0
 60 53  2  0
 61 62  1  0
 61 52  1  0
 63 64  2  0
 64 83  1  0
 65 68  1  0
 65 64  1  0
 66 67  1  0
 66 63  1  0
 67 65  2  0
 68 69  1  0
 69 70  2  0
 71 70  1  0
 72 71  2  0
 73 72  1  0
 73 68  2  0
 74 71  1  0
 74 75  1  0
 75 76  1  0
 76 77  2  0
 78 77  1  0
 78 82  1  0
 79 78  2  0
 80 75  2  0
 80 79  1  0
 81 80  1  0
 83 84  1  0
 84 87  1  0
 84 86  1  0
 85 83  2  0
 88 63  1  0
 88 89  1  0
 90 88  1  0
M  ISO  4  10 101  11 101  53 100  61 100
M  END
>  <TORSDO>  (16) 
F 19

>  <SCORE>  (16) 
-15.168

>  <name>  (16) 
15

>  <ligand_id>  (16) 
15

>  <original_smiles>  (16) 
[H]c1nc(C([H])([H])N([H])C(=O)N2C([H])([H])C([H])([H])C([H])([H])C([H])(n3nc(-c4c([H])c([H])c(Oc5c([H])c([H])c(F)c([H])c5F)c([H])c4[H])c(C(=O)N([H])[H])c3N([H])[H])C2([H])[H])c([H])c(C2([H])C([H])([H])C2([H])[H])c1C([H])([H])Oc1c([H])c([H])c2c(c1[H])C([H])([H])N(C(=O)C([H])(N([H])C(=O)C([H])(N([H])C([H])([H])[H])C([H])([H])[H])C(C([H])([H])[H])(C([H])([H])[H])C([H])([H])[H])C([H])(C(=O)N([H])C1([H])c3c([H])c([H])c([H])c([H])c3C([H])([H])C([H])([H])C1([H])[H])C2([H])[H]

>  <smiles>  (16) 
[H]c1nc(C([H])([H])N([H])C(=O)N2C([H])([H])C([H])([H])C([H])([H])C([H])(n3nc(-c4c([H])c([H])c(Oc5c([H])c([H])c(F)c([H])c5F)c([H])c4[H])c(C(=O)N([H])[H])c3N([H])[H])C2([H])[H])c([H])c(C2([H])C([H])([H])C2([H])[H])c1C([H])([H])Oc1c([H])c([H])c2c(c1[H])C([H])([H])N(C(=O)C([H])(N([H])C(=O)C([H])(N([H])C([H])([H])[H])C([H])([H])[H])C(C([H])([H])[H])(C([H])([H])[H])C([H])([H])[H])C([H])(C(=O)N([H])C1([H])c3c([H])c([H])c([H])c([H])c3C([H])([H])C([H])([H])C1([H])[H])C2([H])[H]

$$$$
16:0:0
     RDKit          3D

 93101  0  0  1  0  0  0  0  0999 V2000
  -28.9540  -20.4220   20.8790 C   0  0  0  0  0  2  0  0  0  0  0  0
  -30.4530  -19.3370   19.1570 C   0  0  0  0  0  2  0  0  0  0  0  0
  -30.0000  -19.1580   20.6050 C   0  0  0  0  0  3  0  0  0  0  0  0
  -29.3750  -21.9880   20.4670 C   0  0  0  0  0  3  0  0  0  0  0  0
  -30.1010  -21.9030   19.0670 C   0  0  0  0  0  3  0  0  0  0  0  0
  -31.0070  -20.7120   18.9430 N   0  0  0  0  0  4  0  0  0  0  0  0
  -31.4080  -20.7400   18.0190 H   0  0  0  0  0  0  0  0  0  0  0  0
  -31.7720  -20.8370   19.5860 H   0  0  0  0  0  0  0  0  0  0  0  0
  -29.0920  -23.5770   17.3800 C   0  0  0  0  0  1  0  0  0  0  0  0
  -29.6300  -21.3130   16.5440 C   0  0  0  0  0  1  0  0  0  0  0  0
  -29.1880  -22.0920   17.8060 C   0  0  0  0  0  3  0  0  0  0  0  0
  -28.2980  -23.2930   20.5890 C   0  0  0  0  0  2  0  0  0  0  0  0
  -28.5360  -24.9010   21.0630 C   0  0  0  0  0  2  0  0  0  0  0  0
  -28.4680  -26.2860   20.3730 O   0  0  0  0  0  0  0  0  0  0  0  0
  -24.6550  -31.9300   23.2700 C   0  0  0  0  0  0  0  0  0  0  0  0
  -27.3610  -27.2000   20.4100 C   0  0  0  0  0  0  0  0  0  0  0  0
  -23.5090  -30.4880   21.6310 C   0  0  0  0  0  3  0  0  0  0  0  0
  -25.0070  -28.8940   20.2830 C   0  0  0  0  0  0  0  0  0  0  0  0
  -26.0590  -30.7860   21.5150 C   0  0  0  0  0  2  0  0  0  0  0  0
  -26.1660  -29.3790   20.9040 C   0  0  0  0  0  0  0  0  0  0  0  0
  -27.3480  -28.5500   20.9430 C   0  0  0  0  0  3  0  0  0  0  0  0
  -26.1740  -26.8000   19.7650 C   0  0  0  0  0  3  0  0  0  0  0  0
  -25.0230  -27.6160   19.7000 C   0  0  0  0  0  3  0  0  0  0  0  0
  -23.7700  -29.7790   20.2740 C   0  0  0  0  0  2  0  0  0  0  0  0
  -24.7600  -31.0920   22.1940 N   0  0  0  0  0  0  0  0  0  0  0  0
  -23.5540  -32.2110   23.7680 O   0  0  0  0  0  0  0  0  0  0  0  0
  -22.8190  -29.4940   22.5980 C   0  0  0  0  0  0  0  0  0  0  0  0
  -21.4940  -29.3140   22.4500 N   0  0  0  0  0  0  0  0  0  0  0  0
  -23.4790  -28.8850   23.4430 O   0  0  0  0  0  0  0  0  0  0  0  0
  -21.0190  -29.8570   21.7430 H   0  0  0  0  0  0  0  0  0  0  0  0
  -18.1050  -28.1350   22.9390 C   0  0  0  0  0  0  0  0  0  0  0  0
  -20.6640  -28.3850   23.2210 C   0  0  0  0  0  3  0  0  0  0  0  0
  -20.7620  -26.9490   22.6530 C   0  0  0  0  0  2  0  0  0  0  0  0
  -19.6650  -26.6270   21.6340 C   0  0  0  0  0  2  0  0  0  0  0  0
  -18.2800  -26.7820   22.2690 C   0  0  0  0  0  2  0  0  0  0  0  0
  -19.2250  -28.8940   23.3710 C   0  0  0  0  0  0  0  0  0  0  0  0
  -19.0070  -30.1590   23.9590 C   0  0  0  0  0  3  0  0  0  0  0  0
  -17.7030  -30.6650   24.1180 C   0  0  0  0  0  3  0  0  0  0  0  0
  -16.5980  -29.9030   23.7000 C   0  0  0  0  0  3  0  0  0  0  0  0
  -16.8000  -28.6390   23.1170 C   0  0  0  0  0  3  0  0  0  0  0  0
  -25.9110  -32.5920   23.9140 C   0  0  0  0  0  3  0  0  0  0  0  0
  -26.4010  -31.8510   25.2200 C   0  0  1  0  0  0  0  0  0  0  0  0
  -25.2790  -31.6070   26.2570 C   0  0  0  0  0  1  0  0  0  0  0  0
  -27.0230  -30.4790   24.8710 C   0  0  0  0  0  1  0  0  0  0  0  0
  -27.5150  -32.6770   25.9050 C   0  0  0  0  0  1  0  0  0  0  0  0
  -25.5750  -33.9920   24.2170 N   0  0  0  0  0  0  0  0  0  0  0  0
  -25.9080  -35.0400   23.4510 C   0  0  0  0  0  0  0  0  0  0  0  0
  -26.5960  -34.9310   22.4340 O   0  0  0  0  0  0  0  0  0  0  0  0
  -24.9640  -34.1500   25.0060 H   0  0  0  0  0  0  0  0  0  0  0  0
  -24.1680  -36.8130   23.0440 C   0  0  0  0  0  1  0  0  0  0  0  0
  -25.3980  -36.4300   23.8830 C   0  0  0  0  0  3  0  0  0  0  0  0
  -27.5030  -37.3550   24.7460 C   0  0  0  0  0  1  0  0  0  0  0  0
  -26.4220  -37.4920   23.7740 N   0  0  0  0  0  0  0  0  0  0  0  0
  -26.0030  -38.4100   23.8930 H   0  0  0  0  0  0  0  0  0  0  0  0
  -29.9010  -17.5760   21.2170 C   0  0  0  0  0  2  0  0  0  0  0  0
  -30.5110  -15.0030   20.3610 C   0  0  0  0  0  0  0  0  0  0  0  0
  -30.3600  -12.7310   19.2340 C   0  0  0  0  0  2  0  0  0  0  0  0
  -29.3810  -12.7690   18.0380 C   0  0  0  0  0  2  0  0  0  0  0  0
  -27.9310  -12.5340   18.5060 C   0  0  0  0  0  2  0  0  0  0  0  0
  -27.5670  -13.3800   19.7540 C   0  0  0  0  0  3  0  0  0  0  0  0
  -28.6600  -13.3080   20.8400 C   0  0  0  0  0  2  0  0  0  0  0  0
  -29.9070  -13.7590   20.2090 N   0  0  0  0  0  0  0  0  0  0  0  0
  -31.7250  -15.0820   20.1470 O   0  0  0  0  0  0  0  0  0  0  0  0
  -29.7120  -16.1650   20.5330 N   0  0  0  0  0  0  0  0  0  0  0  0
  -28.7350  -15.9270   20.4470 H   0  0  0  0  0  0  0  0  0  0  0  0
  -25.1970  -13.9140   20.5570 C   0  0  0  0  0  0  0  0  0  0  0  0
  -24.1500  -13.1180   20.9320 C   0  0  0  0  0  0  0  0  0  0  0  0
  -24.6300  -11.7740   20.8600 C   0  0  0  0  0  0  0  0  0  0  0  0
  -26.2450  -13.0550   20.2760 N   0  0  0  0  0  0  0  0  0  0  0  0
  -25.9150  -11.7610   20.5250 N   0  0  0  0  0  0  0  0  0  0  0  0
  -23.9220  -10.5000   21.0330 C   0  0  0  0  0  0  0  0  0  0  0  0
  -24.3610   -9.5300   21.9620 C   0  0  0  0  0  3  0  0  0  0  0  0
  -23.6520   -8.3200   22.1230 C   0  0  0  0  0  3  0  0  0  0  0  0
  -22.4890   -8.0710   21.3570 C   0  0  0  0  0  0  0  0  0  0  0  0
  -22.0690   -9.0300   20.4170 C   0  0  0  0  0  3  0  0  0  0  0  0
  -22.7790  -10.2310   20.2540 C   0  0  0  0  0  3  0  0  0  0  0  0
  -21.7500   -6.9160   21.4290 O   0  0  0  0  0  0  0  0  0  0  0  0
  -21.6850   -6.1750   22.5820 C   0  0  0  0  0  0  0  0  0  0  0  0
  -21.1850   -6.7130   23.7880 C   0  0  0  0  0  3  0  0  0  0  0  0
  -21.0710   -5.8960   24.9290 C   0  0  0  0  0  3  0  0  0  0  0  0
  -21.4470   -4.5410   24.8660 C   0  0  0  0  0  0  0  0  0  0  0  0
  -21.9390   -4.0010   23.6650 C   0  0  0  0  0  3  0  0  0  0  0  0
  -22.0550   -4.8160   22.5260 C   0  0  0  0  0  0  0  0  0  0  0  0
  -22.5120   -4.2850   21.3650 F   0  0  0  0  0  0  0  0  0  0  0  0
  -21.3290   -3.7530   25.9610 F   0  0  0  0  0  0  0  0  0  0  0  0
  -22.7520  -13.5710   21.2360 C   0  0  0  0  0  0  0  0  0  0  0  0
  -22.0440  -12.8450   22.0930 N   0  0  0  0  0  0  0  0  0  0  0  0
  -22.2960  -14.6060   20.7500 O   0  0  0  0  0  0  0  0  0  0  0  0
  -22.4240  -12.0070   22.5080 H   0  0  0  0  0  0  0  0  0  0  0  0
  -21.1070  -13.1310   22.3390 H   0  0  0  0  0  0  0  0  0  0  0  0
  -25.3360  -15.2910   20.4050 N   0  0  0  0  0  0  0  0  0  0  0  0
  -24.5550  -15.9240   20.5410 H   0  0  0  0  0  0  0  0  0  0  0  0
  -26.1530  -15.7510   20.0280 H   0  0  0  0  0  0  0  0  0  0  0  0
  2  3  1  0
  3  1  1  0
  3 55  1  0
  4 12  1  0
  4  1  1  0
  5 11  1  0
  5  4  1  0
  6  5  1  0
  6  2  1  0
  6  8  1  0
  7  6  1  0
  9 11  1  0
 10 11  1  0
 12 13  1  0
 14 16  1  0
 14 13  1  0
 15 26  2  0
 16 21  1  0
 17 25  1  0
 17 27  1  0
 18 20  1  0
 19 25  1  0
 20 21  2  0
 20 19  1  0
 22 16  2  0
 23 22  1  0
 23 18  2  0
 24 18  1  0
 24 17  1  0
 25 15  1  0
 27 29  2  0
 28 27  1  0
 30 28  1  0
 31 40  2  0
 31 36  1  0
 32 28  1  0
 32 36  1  0
 33 32  1  0
 34 35  1  0
 34 33  1  0
 35 31  1  0
 36 37  2  0
 37 38  1  0
 39 38  2  0
 40 39  1  0
 41 15  1  0
 41 46  1  0
 41 42  1  0
 42 45  1  1
 42 43  1  0
 44 42  1  0
 46 49  1  0
 47 51  1  0
 47 46  1  0
 48 47  2  0
 51 50  1  0
 53 51  1  0
 53 54  1  0
 53 52  1  0
 56 64  1  0
 57 62  1  0
 58 59  1  0
 58 57  1  0
 60 59  1  0
 60 69  1  0
 60 61  1  0
 62 56  1  0
 62 61  1  0
 63 56  2  0
 64 55  1  0
 65 64  1  0
 66 67  2  0
 67 86  1  0
 68 67  1  0
 68 71  1  0
 69 70  1  0
 69 66  1  0
 70 68  2  0
 71 72  1  0
 72 73  2  0
 74 77  1  0
 74 73  1  0
 75 74  2  0
 76 75  1  0
 76 71  2  0
 77 78  1  0
 78 79  1  0
 79 80  2  0
 81 80  1  0
 81 85  1  0
 82 81  2  0
 83 78  2  0
 83 82  1  0
 84 83  1  0
 86 87  1  0
 87 90  1  0
 87 89  1  0
 88 86  2  0
 91 92  1  0
 91 66  1  0
 93 91  1  0
M  ISO  4  13 101  14 101  56 100  64 100
M  END
>  <TORSDO>  (17) 
F 20

>  <SCORE>  (17) 
-15.206

>  <name>  (17) 
16

>  <ligand_id>  (17) 
16

>  <original_smiles>  (17) 
[H]c1c([H])c([H])c2c(c1[H])C([H])([H])C([H])([H])C([H])([H])C2([H])N([H])C(=O)C1([H])N(C(=O)C([H])(N([H])C(=O)C([H])(N([H])C([H])([H])[H])C([H])([H])[H])C(C([H])([H])[H])(C([H])([H])[H])C([H])([H])[H])C([H])([H])c2c([H])c(OC([H])([H])C([H])([H])C3([H])C([H])([H])C([H])(C([H])([H])N([H])C(=O)N4C([H])([H])C([H])([H])C([H])([H])C([H])(n5nc(-c6c([H])c([H])c(Oc7c([H])c([H])c(F)c([H])c7F)c([H])c6[H])c(C(=O)N([H])[H])c5N([H])[H])C4([H])[H])C([H])([H])[N+]([H])([H])C3([H])C([H])(C([H])([H])[H])C([H])([H])[H])c([H])c([H])c2C1([H])[H]

>  <smiles>  (17) 
[H]c1c([H])c([H])c2c(c1[H])C([H])([H])C([H])([H])C([H])([H])C2([H])N([H])C(=O)C1([H])N(C(=O)C([H])(N([H])C(=O)C([H])(N([H])C([H])([H])[H])C([H])([H])[H])C(C([H])([H])[H])(C([H])([H])[H])C([H])([H])[H])C([H])([H])c2c([H])c(OC([H])([H])C([H])([H])C3([H])C([H])([H])C([H])(C([H])([H])N([H])C(=O)N4C([H])([H])C([H])([H])C([H])([H])C([H])(n5nc(-c6c([H])c([H])c(Oc7c([H])c([H])c(F)c([H])c7F)c([H])c6[H])c(C(=O)N([H])[H])c5N([H])[H])C4([H])[H])C([H])([H])[N+]([H])([H])C3([H])C([H])(C([H])([H])[H])C([H])([H])[H])c([H])c([H])c2C1([H])[H]

$$$$
17:0:0
     RDKit          3D

 99108  0  0  1  0  0  0  0  0999 V2000
  -29.8970  -20.4590   21.5100 N   0  0  0  0  0  4  0  0  0  0  0  0
  -28.9450  -20.1860   21.6820 H   0  0  0  0  0  0  0  0  0  0  0  0
  -30.2720  -20.6950   22.4150 H   0  0  0  0  0  0  0  0  0  0  0  0
  -28.6890  -22.1720   19.7720 C   0  0  0  0  0  2  0  0  0  0  0  0
  -29.7840  -23.0720   21.7490 C   0  0  0  0  0  2  0  0  0  0  0  0
  -28.5960  -23.6690   19.1690 C   0  0  0  0  0  2  0  0  0  0  0  0
  -29.6790  -24.5480   21.1500 C   0  0  0  0  0  2  0  0  0  0  0  0
  -29.8810  -21.8400   20.7600 C   0  0  0  0  0  3  0  0  0  0  0  0
  -28.4770  -24.8770   20.1920 C   0  0  0  0  0  3  0  0  0  0  0  0
  -28.4830  -26.3430   19.7400 O   0  0  0  0  0  0  0  0  0  0  0  0
  -24.7690  -31.7610   22.9830 C   0  0  0  0  0  0  0  0  0  0  0  0
  -27.3470  -27.2030   19.7940 C   0  0  0  0  0  0  0  0  0  0  0  0
  -23.5310  -30.3410   21.3890 C   0  0  0  0  0  3  0  0  0  0  0  0
  -24.9550  -28.8200   19.8930 C   0  0  0  0  0  0  0  0  0  0  0  0
  -26.0590  -30.7020   21.0990 C   0  0  0  0  0  2  0  0  0  0  0  0
  -26.1430  -29.3210   20.4390 C   0  0  0  0  0  0  0  0  0  0  0  0
  -27.3420  -28.5290   20.3670 C   0  0  0  0  0  3  0  0  0  0  0  0
  -26.1280  -26.7750   19.2330 C   0  0  0  0  0  3  0  0  0  0  0  0
  -24.9540  -27.5580   19.2760 C   0  0  0  0  0  3  0  0  0  0  0  0
  -23.7040  -29.6750   19.9990 C   0  0  0  0  0  2  0  0  0  0  0  0
  -24.8080  -30.9550   21.8790 N   0  0  0  0  0  0  0  0  0  0  0  0
  -23.7030  -32.0080   23.5660 O   0  0  0  0  0  0  0  0  0  0  0  0
  -22.9330  -29.3070   22.3750 C   0  0  0  0  0  0  0  0  0  0  0  0
  -21.6270  -29.0170   22.2360 N   0  0  0  0  0  0  0  0  0  0  0  0
  -23.6440  -28.7660   23.2240 O   0  0  0  0  0  0  0  0  0  0  0  0
  -21.1060  -29.5090   21.5240 H   0  0  0  0  0  0  0  0  0  0  0  0
  -18.3430  -27.5870   22.7640 C   0  0  0  0  0  0  0  0  0  0  0  0
  -20.8750  -28.0390   23.0260 C   0  0  0  0  0  3  0  0  0  0  0  0
  -21.0810  -26.6070   22.4790 C   0  0  0  0  0  2  0  0  0  0  0  0
  -20.0070  -26.1870   21.4710 C   0  0  0  0  0  2  0  0  0  0  0  0
  -18.6180  -26.2420   22.1130 C   0  0  0  0  0  2  0  0  0  0  0  0
  -19.4030  -28.4380   23.1780 C   0  0  0  0  0  0  0  0  0  0  0  0
  -19.0910  -29.6910   23.7480 C   0  0  0  0  0  3  0  0  0  0  0  0
  -17.7530  -30.0980   23.9070 C   0  0  0  0  0  3  0  0  0  0  0  0
  -16.7080  -29.2470   23.5080 C   0  0  0  0  0  3  0  0  0  0  0  0
  -17.0030  -27.9930   22.9430 C   0  0  0  0  0  3  0  0  0  0  0  0
  -26.0580  -32.4270   23.5530 C   0  0  0  0  0  3  0  0  0  0  0  0
  -25.6910  -33.7620   24.0470 N   0  0  0  0  0  0  0  0  0  0  0  0
  -25.9070  -34.9070   23.3870 C   0  0  0  0  0  0  0  0  0  0  0  0
  -26.5060  -34.9530   22.3080 O   0  0  0  0  0  0  0  0  0  0  0  0
  -25.1470  -33.7950   24.8970 H   0  0  0  0  0  0  0  0  0  0  0  0
  -24.0690  -36.6260   23.3260 C   0  0  0  0  0  1  0  0  0  0  0  0
  -25.3760  -36.2090   24.0200 C   0  0  0  0  0  3  0  0  0  0  0  0
  -27.5140  -37.1170   24.8180 C   0  0  0  0  0  1  0  0  0  0  0  0
  -26.3440  -37.3270   23.9690 N   0  0  0  0  0  0  0  0  0  0  0  0
  -25.9020  -38.1980   24.2480 H   0  0  0  0  0  0  0  0  0  0  0  0
  -26.7370  -31.5810   24.7010 C   0  0  1  0  0  0  0  0  0  0  0  0
  -25.7440  -31.0850   25.7780 C   0  0  0  0  0  1  0  0  0  0  0  0
  -27.4570  -30.3440   24.1190 C   0  0  0  0  0  1  0  0  0  0  0  0
  -27.8210  -32.4300   25.4060 C   0  0  0  0  0  1  0  0  0  0  0  0
  -30.7000  -19.1680   21.1430 C   0  0  0  0  0  3  0  0  0  0  0  0
  -29.7800  -18.2450   17.5230 C   0  0  0  0  0  3  0  0  0  0  0  0
  -32.1760  -18.6580   17.6460 C   0  0  0  0  0  3  0  0  0  0  0  0
  -29.6500  -18.5600   18.8900 C   0  0  0  0  0  3  0  0  0  0  0  0
  -32.0450  -18.9970   19.0050 C   0  0  0  0  0  3  0  0  0  0  0  0
  -31.0440  -18.2700   16.8980 C   0  0  0  0  0  0  0  0  0  0  0  0
  -30.7870  -18.9310   19.6410 C   0  0  0  0  0  0  0  0  0  0  0  0
  -32.0510  -16.5720   15.3350 C   0  0  0  0  0  1  0  0  0  0  0  0
  -31.7220  -18.9700   14.5540 C   0  0  0  0  0  1  0  0  0  0  0  0
  -31.1880  -17.8380   15.4460 C   0  0  0  0  0  3  0  0  0  0  0  0
  -30.3300  -17.7470   21.9150 C   0  0  0  0  0  2  0  0  0  0  0  0
  -30.8490  -15.3040   20.8100 C   0  0  0  0  0  0  0  0  0  0  0  0
  -30.6820  -13.2490   19.3610 C   0  0  0  0  0  2  0  0  0  0  0  0
  -29.7440  -13.5140   18.1620 C   0  0  0  0  0  2  0  0  0  0  0  0
  -28.2730  -13.2550   18.5440 C   0  0  0  0  0  2  0  0  0  0  0  0
  -27.8870  -13.9060   19.8990 C   0  0  0  0  0  3  0  0  0  0  0  0
  -28.9420  -13.6270   20.9900 C   0  0  0  0  0  2  0  0  0  0  0  0
  -30.2300  -14.1130   20.4770 N   0  0  0  0  0  0  0  0  0  0  0  0
  -32.0550  -15.4390   20.5870 O   0  0  0  0  0  0  0  0  0  0  0  0
  -30.0560  -16.3840   21.2140 N   0  0  0  0  0  0  0  0  0  0  0  0
  -29.0730  -16.1610   21.1820 H   0  0  0  0  0  0  0  0  0  0  0  0
  -25.4380  -14.3440   20.5170 C   0  0  0  0  0  0  0  0  0  0  0  0
  -24.4020  -13.5070   20.8250 C   0  0  0  0  0  0  0  0  0  0  0  0
  -24.9460  -12.1860   20.8110 C   0  0  0  0  0  0  0  0  0  0  0  0
  -26.5420  -13.5300   20.3240 N   0  0  0  0  0  0  0  0  0  0  0  0
  -26.2510  -12.2270   20.5680 N   0  0  0  0  0  0  0  0  0  0  0  0
  -24.2850  -10.8830   20.9570 C   0  0  0  0  0  0  0  0  0  0  0  0
  -24.6500   -9.9790   21.9780 C   0  0  0  0  0  3  0  0  0  0  0  0
  -23.9870   -8.7400   22.1090 C   0  0  0  0  0  3  0  0  0  0  0  0
  -22.9430   -8.3960   21.2170 C   0  0  0  0  0  0  0  0  0  0  0  0
  -22.5980   -9.2910   20.1880 C   0  0  0  0  0  3  0  0  0  0  0  0
  -23.2630  -10.5200   20.0560 C   0  0  0  0  0  3  0  0  0  0  0  0
  -22.2580   -7.2050   21.2530 O   0  0  0  0  0  0  0  0  0  0  0  0
  -22.0460   -6.5330   22.4300 C   0  0  0  0  0  0  0  0  0  0  0  0
  -21.4160   -7.1470   23.5360 C   0  0  0  0  0  3  0  0  0  0  0  0
  -21.1540   -6.3990   24.7010 C   0  0  0  0  0  3  0  0  0  0  0  0
  -21.5100   -5.0380   24.7600 C   0  0  0  0  0  0  0  0  0  0  0  0
  -22.1330   -4.4240   23.6580 C   0  0  0  0  0  3  0  0  0  0  0  0
  -22.3960   -5.1700   22.4960 C   0  0  0  0  0  0  0  0  0  0  0  0
  -22.9760   -4.5680   21.4290 F   0  0  0  0  0  0  0  0  0  0  0  0
  -21.2520   -4.3160   25.8750 F   0  0  0  0  0  0  0  0  0  0  0  0
  -22.9670  -13.9010   21.0200 C   0  0  0  0  0  0  0  0  0  0  0  0
  -22.2550  -13.2100   21.9030 N   0  0  0  0  0  0  0  0  0  0  0  0
  -22.4820  -14.8620   20.4230 O   0  0  0  0  0  0  0  0  0  0  0  0
  -22.6600  -12.4360   22.4090 H   0  0  0  0  0  0  0  0  0  0  0  0
  -21.2920  -13.4590   22.0770 H   0  0  0  0  0  0  0  0  0  0  0  0
  -25.5240  -15.7220   20.3600 N   0  0  0  0  0  0  0  0  0  0  0  0
  -24.6920  -16.2970   20.4100 H   0  0  0  0  0  0  0  0  0  0  0  0
  -26.3120  -16.2100   19.9530 H   0  0  0  0  0  0  0  0  0  0  0  0
  1  2  1  0
  1  3  1  0
  4  8  1  0
  6  4  1  0
  6  9  1  0
  7  5  1  0
  8  1  1  0
  8  5  1  0
  9 10  1  0
  9  7  1  0
 10 12  1  0
 11 22  2  0
 12 17  1  0
 13 21  1  0
 13 23  1  0
 14 20  1  0
 14 16  1  0
 15 21  1  0
 16 15  1  0
 17 16  2  0
 18 19  1  0
 18 12  2  0
 19 14  2  0
 20 13  1  0
 21 11  1  0
 23 25  2  0
 24 23  1  0
 26 24  1  0
 27 36  2  0
 27 32  1  0
 28 24  1  0
 28 32  1  0
 29 28  1  0
 30 31  1  0
 30 29  1  0
 31 27  1  0
 32 33  2  0
 33 34  1  0
 35 34  2  0
 36 35  1  0
 37 11  1  0
 37 38  1  0
 37 47  1  0
 38 41  1  0
 39 43  1  0
 39 38  1  0
 40 39  2  0
 43 42  1  0
 45 43  1  0
 45 46  1  0
 45 44  1  0
 47 50  1  1
 47 48  1  0
 49 47  1  0
 51  1  1  0
 51 61  1  0
 52 54  1  0
 53 55  2  0
 54 57  2  0
 55 57  1  0
 56 52  2  0
 56 53  1  0
 57 51  1  0
 58 60  1  0
 59 60  1  0
 60 56  1  0
 62 70  1  0
 63 68  1  0
 64 65  1  0
 64 63  1  0
 66 65  1  0
 66 75  1  0
 66 67  1  0
 68 62  1  0
 68 67  1  0
 69 62  2  0
 70 61  1  0
 71 70  1  0
 72 73  2  0
 73 92  1  0
 74 73  1  0
 74 77  1  0
 75 72  1  0
 75 76  1  0
 76 74  2  0
 77 78  1  0
 78 79  2  0
 80 83  1  0
 80 79  1  0
 81 80  2  0
 82 81  1  0
 82 77  2  0
 83 84  1  0
 84 89  2  0
 84 85  1  0
 85 86  2  0
 86 87  1  0
 87 91  1  0
 88 87  2  0
 89 88  1  0
 90 89  1  0
 92 93  1  0
 93 96  1  0
 93 95  1  0
 94 92  2  0
 97 98  1  0
 97 72  1  0
 99 97  1  0
M  ISO  4   9 101  10 101  62 100  70 100
M  END
>  <TORSDO>  (18) 
F 21

>  <SCORE>  (18) 
-12.776

>  <name>  (18) 
17

>  <ligand_id>  (18) 
17

>  <original_smiles>  (18) 
[H]c1c([H])c([H])c2c(c1[H])C([H])([H])C([H])([H])C([H])([H])C2([H])N([H])C(=O)C1([H])N(C(=O)C([H])(N([H])C(=O)C([H])(N([H])C([H])([H])[H])C([H])([H])[H])C(C([H])([H])[H])(C([H])([H])[H])C([H])([H])[H])C([H])([H])c2c([H])c(OC3([H])C([H])([H])C([H])([H])C([H])([N+]([H])([H])C([H])(c4c([H])c([H])c(C([H])(C([H])([H])[H])C([H])([H])[H])c([H])c4[H])C([H])([H])N([H])C(=O)N4C([H])([H])C([H])([H])C([H])([H])C([H])(n5nc(-c6c([H])c([H])c(Oc7c([H])c([H])c(F)c([H])c7F)c([H])c6[H])c(C(=O)N([H])[H])c5N([H])[H])C4([H])[H])C([H])([H])C3([H])[H])c([H])c([H])c2C1([H])[H]

>  <smiles>  (18) 
[H]c1c([H])c([H])c2c(c1[H])C([H])([H])C([H])([H])C([H])([H])C2([H])N([H])C(=O)C1([H])N(C(=O)C([H])(N([H])C(=O)C([H])(N([H])C([H])([H])[H])C([H])([H])[H])C(C([H])([H])[H])(C([H])([H])[H])C([H])([H])[H])C([H])([H])c2c([H])c(OC3([H])C([H])([H])C([H])([H])C([H])([N+]([H])([H])C([H])(c4c([H])c([H])c(C([H])(C([H])([H])[H])C([H])([H])[H])c([H])c4[H])C([H])([H])N([H])C(=O)N4C([H])([H])C([H])([H])C([H])([H])C([H])(n5nc(-c6c([H])c([H])c(Oc7c([H])c([H])c(F)c([H])c7F)c([H])c6[H])c(C(=O)N([H])[H])c5N([H])[H])C4([H])[H])C([H])([H])C3([H])[H])c([H])c([H])c2C1([H])[H]

$$$$
18:0:0
     RDKit          3D

 88 96  0  0  1  0  0  0  0  0999 V2000
  -29.9190  -22.2910   20.5810 C   0  0  0  0  0  3  0  0  0  0  0  0
  -30.3360  -20.8740   20.5270 C   0  0  0  0  0  3  0  0  0  0  0  0
  -27.8030  -21.5610   20.1160 C   0  0  0  0  0  3  0  0  0  0  0  0
  -28.5780  -22.7880   20.3610 C   0  0  0  0  0  0  0  0  0  0  0  0
  -29.4940  -19.7130   20.2880 C   0  0  0  0  0  0  0  0  0  0  0  0
  -28.2010  -20.1820   20.0640 N   0  0  0  0  0  0  0  0  0  0  0  0
  -27.9700  -24.5180   22.1990 C   0  0  0  0  0  1  0  0  0  0  0  0
  -27.8960  -24.3650   20.6750 C   0  0  0  0  0  3  0  0  0  0  0  0
  -28.2120  -25.9080   20.2400 O   0  0  0  0  0  0  0  0  0  0  0  0
  -24.5980  -31.8650   23.1790 C   0  0  0  0  0  0  0  0  0  0  0  0
  -27.2000  -27.0000   20.2240 C   0  0  0  0  0  0  0  0  0  0  0  0
  -23.4220  -30.4540   21.5380 C   0  0  0  0  0  3  0  0  0  0  0  0
  -24.8900  -28.8520   20.1390 C   0  0  0  0  0  0  0  0  0  0  0  0
  -25.9870  -30.6840   21.4080 C   0  0  0  0  0  2  0  0  0  0  0  0
  -26.0700  -29.2710   20.7690 C   0  0  0  0  0  0  0  0  0  0  0  0
  -27.2200  -28.3630   20.7930 C   0  0  0  0  0  3  0  0  0  0  0  0
  -25.9900  -26.7310   19.5450 C   0  0  0  0  0  3  0  0  0  0  0  0
  -24.8720  -27.5990   19.5090 C   0  0  0  0  0  3  0  0  0  0  0  0
  -23.6650  -29.7630   20.1690 C   0  0  0  0  0  2  0  0  0  0  0  0
  -24.6910  -31.0290   22.0950 N   0  0  0  0  0  0  0  0  0  0  0  0
  -23.5050  -32.1510   23.6920 O   0  0  0  0  0  0  0  0  0  0  0  0
  -22.7290  -29.4600   22.5070 C   0  0  0  0  0  0  0  0  0  0  0  0
  -21.4000  -29.2910   22.3830 N   0  0  0  0  0  0  0  0  0  0  0  0
  -23.3960  -28.8390   23.3380 O   0  0  0  0  0  0  0  0  0  0  0  0
  -20.9130  -29.8460   21.6930 H   0  0  0  0  0  0  0  0  0  0  0  0
  -18.0200  -28.0770   22.9000 C   0  0  0  0  0  0  0  0  0  0  0  0
  -20.5810  -28.3550   23.1600 C   0  0  0  0  0  3  0  0  0  0  0  0
  -20.6860  -26.9190   22.5900 C   0  0  0  0  0  2  0  0  0  0  0  0
  -19.5820  -26.5900   21.5790 C   0  0  0  0  0  2  0  0  0  0  0  0
  -18.2010  -26.7280   22.2250 C   0  0  0  0  0  2  0  0  0  0  0  0
  -19.1360  -28.8460   23.3260 C   0  0  0  0  0  0  0  0  0  0  0  0
  -18.9080  -30.1070   23.9200 C   0  0  0  0  0  3  0  0  0  0  0  0
  -17.6000  -30.5990   24.0890 C   0  0  0  0  0  3  0  0  0  0  0  0
  -16.5000  -29.8260   23.6750 C   0  0  0  0  0  3  0  0  0  0  0  0
  -16.7110  -28.5680   23.0880 C   0  0  0  0  0  3  0  0  0  0  0  0
  -25.8620  -32.5180   23.8170 C   0  0  0  0  0  3  0  0  0  0  0  0
  -25.5340  -33.9160   24.1480 N   0  0  0  0  0  0  0  0  0  0  0  0
  -25.8580  -34.9790   23.3970 C   0  0  0  0  0  0  0  0  0  0  0  0
  -26.5260  -34.8850   22.3640 O   0  0  0  0  0  0  0  0  0  0  0  0
  -24.9420  -34.0610   24.9520 H   0  0  0  0  0  0  0  0  0  0  0  0
  -24.1180  -36.7670   23.0600 C   0  0  0  0  0  1  0  0  0  0  0  0
  -25.3650  -36.3630   23.8640 C   0  0  0  0  0  3  0  0  0  0  0  0
  -27.4910  -37.2710   24.6950 C   0  0  0  0  0  1  0  0  0  0  0  0
  -26.3920  -37.4220   23.7450 N   0  0  0  0  0  0  0  0  0  0  0  0
  -25.9800  -38.3420   23.8750 H   0  0  0  0  0  0  0  0  0  0  0  0
  -26.3660  -31.7600   25.1070 C   0  0  1  0  0  0  0  0  0  0  0  0
  -25.2660  -31.5260   26.1680 C   0  0  0  0  0  1  0  0  0  0  0  0
  -26.9640  -30.3830   24.7370 C   0  0  0  0  0  1  0  0  0  0  0  0
  -27.5030  -32.5670   25.7780 C   0  0  0  0  0  1  0  0  0  0  0  0
  -30.1470  -18.1050   20.0970 C   0  0  0  0  0  2  0  0  0  0  0  0
  -30.4440  -15.2520   20.1910 C   0  0  0  0  0  0  0  0  0  0  0  0
  -30.3550  -12.8370   19.2680 C   0  0  0  0  0  2  0  0  0  0  0  0
  -29.4020  -12.6910   18.0560 C   0  0  0  0  0  2  0  0  0  0  0  0
  -27.9600  -12.4340   18.5270 C   0  0  0  0  0  2  0  0  0  0  0  0
  -27.5520  -13.3700   19.6910 C   0  0  0  0  0  3  0  0  0  0  0  0
  -28.6310  -13.4630   20.7920 C   0  0  0  0  0  2  0  0  0  0  0  0
  -29.8520  -13.9620   20.1390 N   0  0  0  0  0  0  0  0  0  0  0  0
  -31.6530  -15.2430   19.9250 O   0  0  0  0  0  0  0  0  0  0  0  0
  -29.7210  -16.5290   20.3260 N   0  0  0  0  0  0  0  0  0  0  0  0
  -28.7390  -16.4110   20.5220 H   0  0  0  0  0  0  0  0  0  0  0  0
  -25.1890  -13.9200   20.4800 C   0  0  0  0  0  0  0  0  0  0  0  0
  -24.1360  -13.1370   20.8650 C   0  0  0  0  0  0  0  0  0  0  0  0
  -24.6080  -11.7900   20.8250 C   0  0  0  0  0  0  0  0  0  0  0  0
  -26.2320  -13.0490   20.2210 N   0  0  0  0  0  0  0  0  0  0  0  0
  -25.8960  -11.7620   20.4960 N   0  0  0  0  0  0  0  0  0  0  0  0
  -23.8900  -10.5220   21.0180 C   0  0  0  0  0  0  0  0  0  0  0  0
  -24.3360   -9.5510   21.9410 C   0  0  0  0  0  3  0  0  0  0  0  0
  -23.6110   -8.3530   22.1250 C   0  0  0  0  0  3  0  0  0  0  0  0
  -22.4280   -8.1180   21.3860 C   0  0  0  0  0  0  0  0  0  0  0  0
  -22.0020   -9.0770   20.4510 C   0  0  0  0  0  3  0  0  0  0  0  0
  -22.7270  -10.2660   20.2650 C   0  0  0  0  0  3  0  0  0  0  0  0
  -21.6750   -6.9730   21.4800 O   0  0  0  0  0  0  0  0  0  0  0  0
  -21.6450   -6.2240   22.6300 C   0  0  0  0  0  0  0  0  0  0  0  0
  -21.2250   -6.7690   23.8640 C   0  0  0  0  0  3  0  0  0  0  0  0
  -21.1410   -5.9460   25.0050 C   0  0  0  0  0  3  0  0  0  0  0  0
  -21.4690   -4.5810   24.9150 C   0  0  0  0  0  0  0  0  0  0  0  0
  -21.8830   -4.0350   23.6880 C   0  0  0  0  0  3  0  0  0  0  0  0
  -21.9670   -4.8540   22.5480 C   0  0  0  0  0  0  0  0  0  0  0  0
  -22.3450   -4.3170   21.3620 F   0  0  0  0  0  0  0  0  0  0  0  0
  -21.3820   -3.7890   26.0100 F   0  0  0  0  0  0  0  0  0  0  0  0
  -22.7410  -13.6090   21.1520 C   0  0  0  0  0  0  0  0  0  0  0  0
  -22.0240  -12.9130   22.0260 N   0  0  0  0  0  0  0  0  0  0  0  0
  -22.2940  -14.6310   20.6330 O   0  0  0  0  0  0  0  0  0  0  0  0
  -22.3990  -12.0860   22.4680 H   0  0  0  0  0  0  0  0  0  0  0  0
  -21.0880  -13.2150   22.2590 H   0  0  0  0  0  0  0  0  0  0  0  0
  -25.3380  -15.2900   20.2940 N   0  0  0  0  0  0  0  0  0  0  0  0
  -24.5600  -15.9330   20.3930 H   0  0  0  0  0  0  0  0  0  0  0  0
  -26.1510  -15.7210   19.8720 H   0  0  0  0  0  0  0  0  0  0  0  0
  2  1  1  0
  3  4  1  0
  4  1  2  0
  4  8  1  0
  5  2  2  0
  6  3  2  0
  6  5  1  0
  8  7  1  0
  9  8  1  0
 10 21  2  0
 11  9  1  0
 11 16  1  0
 12 20  1  0
 12 22  1  0
 13 19  1  0
 13 15  1  0
 14 20  1  0
 15 16  2  0
 15 14  1  0
 17 11  2  0
 18 17  1  0
 18 13  2  0
 19 12  1  0
 20 10  1  0
 22 24  2  0
 23 22  1  0
 25 23  1  0
 26 35  2  0
 26 31  1  0
 27 23  1  0
 27 31  1  0
 28 27  1  0
 29 30  1  0
 29 28  1  0
 30 26  1  0
 31 32  2  0
 32 33  1  0
 34 33  2  0
 35 34  1  0
 36 10  1  0
 36 37  1  0
 36 46  1  0
 37 40  1  0
 38 42  1  0
 38 37  1  0
 39 38  2  0
 42 41  1  0
 44 42  1  0
 44 45  1  0
 44 43  1  0
 46 49  1  1
 46 47  1  0
 48 46  1  0
 50  5  1  0
 50 59  1  0
 51 59  1  0
 52 57  1  0
 53 54  1  0
 53 52  1  0
 55 54  1  0
 55 64  1  0
 55 56  1  0
 57 51  1  0
 57 56  1  0
 58 51  2  0
 59 60  1  0
 61 62  2  0
 62 81  1  0
 63 62  1  0
 63 66  1  0
 64 61  1  0
 64 65  1  0
 65 63  2  0
 66 67  1  0
 67 68  2  0
 69 72  1  0
 69 68  1  0
 70 69  2  0
 71 70  1  0
 71 66  2  0
 72 73  1  0
 73 74  1  0
 74 75  2  0
 76 75  1  0
 76 80  1  0
 77 76  2  0
 78 73  2  0
 78 77  1  0
 79 78  1  0
 81 82  1  0
 82 85  1  0
 82 84  1  0
 83 81  2  0
 86 87  1  0
 86 61  1  0
 88 86  1  0
M  ISO  4   8 101   9 101  51 100  59 100
M  END
>  <TORSDO>  (19) 
F 18

>  <SCORE>  (19) 
-15.607

>  <name>  (19) 
18

>  <ligand_id>  (19) 
18

>  <original_smiles>  (19) 
[H]c1nc(C([H])([H])N([H])C(=O)N2C([H])([H])C([H])([H])C([H])([H])C([H])(n3nc(-c4c([H])c([H])c(Oc5c([H])c([H])c(F)c([H])c5F)c([H])c4[H])c(C(=O)N([H])[H])c3N([H])[H])C2([H])[H])c([H])c([H])c1C([H])(Oc1c([H])c([H])c2c(c1[H])C([H])([H])N(C(=O)C([H])(N([H])C(=O)C([H])(N([H])C([H])([H])[H])C([H])([H])[H])C(C([H])([H])[H])(C([H])([H])[H])C([H])([H])[H])C([H])(C(=O)N([H])C1([H])c3c([H])c([H])c([H])c([H])c3C([H])([H])C([H])([H])C1([H])[H])C2([H])[H])C([H])([H])[H]

>  <smiles>  (19) 
[H]c1nc(C([H])([H])N([H])C(=O)N2C([H])([H])C([H])([H])C([H])([H])C([H])(n3nc(-c4c([H])c([H])c(Oc5c([H])c([H])c(F)c([H])c5F)c([H])c4[H])c(C(=O)N([H])[H])c3N([H])[H])C2([H])[H])c([H])c([H])c1C([H])(Oc1c([H])c([H])c2c(c1[H])C([H])([H])N(C(=O)C([H])(N([H])C(=O)C([H])(N([H])C([H])([H])[H])C([H])([H])[H])C(C([H])([H])[H])(C([H])([H])[H])C([H])([H])[H])C([H])(C(=O)N([H])C1([H])c3c([H])c([H])c([H])c([H])c3C([H])([H])C([H])([H])C1([H])[H])C2([H])[H])C([H])([H])[H]

$$$$
19:0:0
     RDKit          3D

103112  0  0  1  0  0  0  0  0999 V2000
  -30.7840  -14.6310   20.1360 C   0  0  0  0  0  0  0  0  0  0  0  0
  -30.4850  -12.3730   19.1300 C   0  0  0  0  0  2  0  0  0  0  0  0
  -29.5140  -12.4650   17.9360 C   0  0  0  0  0  2  0  0  0  0  0  0
  -28.0550  -12.3250   18.4100 C   0  0  0  0  0  2  0  0  0  0  0  0
  -27.7320  -13.2220   19.6350 C   0  0  0  0  0  3  0  0  0  0  0  0
  -28.8250  -13.1230   20.7230 C   0  0  0  0  0  2  0  0  0  0  0  0
  -30.1150  -13.4320   20.0920 N   0  0  0  0  0  0  0  0  0  0  0  0
  -31.9000  -14.7410   19.6220 O   0  0  0  0  0  0  0  0  0  0  0  0
  -31.6210  -17.3200   21.9410 C   0  0  0  0  0  2  0  0  0  0  0  0
  -30.5710  -16.1830   21.9940 C   0  0  0  0  0  2  0  0  0  0  0  0
  -29.6380  -16.8990   19.8390 C   0  0  0  0  0  2  0  0  0  0  0  0
  -29.8580  -18.3750   20.4220 C   0  0  0  0  0  3  0  0  0  0  0  0
  -31.3200  -18.4650   20.9230 C   0  0  0  0  0  3  0  0  0  0  0  0
  -30.1450  -15.7330   20.6630 N   0  0  0  0  0  0  0  0  0  0  0  0
  -25.3810  -13.8340   20.4660 C   0  0  0  0  0  0  0  0  0  0  0  0
  -24.3180  -13.0710   20.8640 C   0  0  0  0  0  0  0  0  0  0  0  0
  -24.7540  -11.7130   20.7850 C   0  0  0  0  0  0  0  0  0  0  0  0
  -26.4010  -12.9440   20.1710 N   0  0  0  0  0  0  0  0  0  0  0  0
  -26.0320  -11.6600   20.4210 N   0  0  0  0  0  0  0  0  0  0  0  0
  -24.0130  -10.4580   20.9770 C   0  0  0  0  0  0  0  0  0  0  0  0
  -24.4330   -9.4880   21.9120 C   0  0  0  0  0  3  0  0  0  0  0  0
  -23.6950   -8.2990   22.0910 C   0  0  0  0  0  3  0  0  0  0  0  0
  -22.5200   -8.0730   21.3380 C   0  0  0  0  0  0  0  0  0  0  0  0
  -22.1200   -9.0300   20.3890 C   0  0  0  0  0  3  0  0  0  0  0  0
  -22.8590  -10.2110   20.2060 C   0  0  0  0  0  3  0  0  0  0  0  0
  -21.7520   -6.9370   21.4270 O   0  0  0  0  0  0  0  0  0  0  0  0
  -21.6550   -6.2270   22.5960 C   0  0  0  0  0  0  0  0  0  0  0  0
  -21.1940   -6.8170   23.7940 C   0  0  0  0  0  3  0  0  0  0  0  0
  -21.0420   -6.0310   24.9540 C   0  0  0  0  0  3  0  0  0  0  0  0
  -21.3410   -4.6560   24.9190 C   0  0  0  0  0  0  0  0  0  0  0  0
  -21.7940   -4.0650   23.7250 C   0  0  0  0  0  3  0  0  0  0  0  0
  -21.9470   -4.8490   22.5670 C   0  0  0  0  0  0  0  0  0  0  0  0
  -22.3630   -4.2680   21.4170 F   0  0  0  0  0  0  0  0  0  0  0  0
  -21.1870   -3.8980   26.0300 F   0  0  0  0  0  0  0  0  0  0  0  0
  -22.9410  -13.5660   21.2030 C   0  0  0  0  0  0  0  0  0  0  0  0
  -22.2410  -12.8760   22.0940 N   0  0  0  0  0  0  0  0  0  0  0  0
  -22.5000  -14.6070   20.7160 O   0  0  0  0  0  0  0  0  0  0  0  0
  -22.6080  -12.0340   22.5120 H   0  0  0  0  0  0  0  0  0  0  0  0
  -21.3210  -13.1940   22.3630 H   0  0  0  0  0  0  0  0  0  0  0  0
  -25.5640  -15.2060   20.3130 N   0  0  0  0  0  0  0  0  0  0  0  0
  -24.8200  -15.8760   20.4720 H   0  0  0  0  0  0  0  0  0  0  0  0
  -26.4180  -15.6360   19.9820 H   0  0  0  0  0  0  0  0  0  0  0  0
  -32.2220  -18.3950   19.7760 N   0  0  0  0  0  0  0  0  0  0  0  0
  -31.9160  -19.0750   19.0890 H   0  0  0  0  0  0  0  0  0  0  0  0
  -33.8800  -21.0360   19.2510 C   0  0  0  0  0  2  0  0  0  0  0  0
  -34.8480  -20.5620   18.1580 C   0  0  0  0  0  2  0  0  0  0  0  0
  -33.9030  -20.0950   20.4660 C   0  0  0  0  0  2  0  0  0  0  0  0
  -34.5440  -19.1150   17.7360 C   0  0  0  0  0  2  0  0  0  0  0  0
  -33.6320  -18.6240   20.0930 C   0  0  0  0  0  3  0  0  0  0  0  0
  -34.5210  -18.1230   18.9240 C   0  0  0  0  0  3  0  0  0  0  0  0
  -35.8780  -17.8160   19.4330 N   0  0  0  0  0  4  0  0  0  0  0  0
  -35.7850  -17.2120   20.2320 H   0  0  0  0  0  0  0  0  0  0  0  0
  -36.2820  -18.6780   19.7650 H   0  0  0  0  0  0  0  0  0  0  0  0
  -36.4500  -15.7120   18.1960 C   0  0  0  0  0  1  0  0  0  0  0  0
  -38.2600  -17.2760   19.0180 C   0  0  0  0  0  1  0  0  0  0  0  0
  -36.8200  -17.1820   18.4790 C   0  0  0  0  0  3  0  0  0  0  0  0
  -29.2880  -19.6070   19.5570 C   0  0  0  0  0  2  0  0  0  0  0  0
  -30.7930  -21.4720   18.7140 C   0  0  0  0  0  1  0  0  0  0  0  0
  -29.7490  -21.1290   19.7900 C   0  0  0  0  0  3  0  0  0  0  0  0
  -28.6380  -22.2830   19.7460 C   0  0  0  0  0  2  0  0  0  0  0  0
  -29.0750  -23.8180   19.9410 C   0  0  0  0  0  3  0  0  0  0  0  0
  -27.9880  -24.9350   19.6240 C   0  0  0  0  0  3  0  0  0  0  0  0
  -28.2520  -26.3870   19.8170 O   0  0  0  0  0  0  0  0  0  0  0  0
  -24.5290  -31.6560   23.0750 C   0  0  0  0  0  0  0  0  0  0  0  0
  -27.1370  -27.2460   19.8000 C   0  0  0  0  0  0  0  0  0  0  0  0
  -23.3100  -30.2960   21.4150 C   0  0  0  0  0  3  0  0  0  0  0  0
  -24.7510  -28.8310   19.8970 C   0  0  0  0  0  0  0  0  0  0  0  0
  -25.8430  -30.6560   21.1940 C   0  0  0  0  0  2  0  0  0  0  0  0
  -25.9260  -29.3080   20.4910 C   0  0  0  0  0  0  0  0  0  0  0  0
  -27.1220  -28.5280   20.4360 C   0  0  0  0  0  3  0  0  0  0  0  0
  -25.9380  -26.8380   19.1680 C   0  0  0  0  0  3  0  0  0  0  0  0
  -24.7610  -27.6040   19.2210 C   0  0  0  0  0  3  0  0  0  0  0  0
  -23.5000  -29.6770   20.0060 C   0  0  0  0  0  2  0  0  0  0  0  0
  -24.5800  -30.8860   21.9490 N   0  0  0  0  0  0  0  0  0  0  0  0
  -23.4540  -31.8970   23.6440 O   0  0  0  0  0  0  0  0  0  0  0  0
  -22.6900  -29.2330   22.3520 C   0  0  0  0  0  0  0  0  0  0  0  0
  -21.3680  -29.0210   22.2330 N   0  0  0  0  0  0  0  0  0  0  0  0
  -23.3950  -28.6040   23.1440 O   0  0  0  0  0  0  0  0  0  0  0  0
  -20.8570  -29.5840   21.5660 H   0  0  0  0  0  0  0  0  0  0  0  0
  -18.0340  -27.7040   22.7220 C   0  0  0  0  0  0  0  0  0  0  0  0
  -20.5840  -28.0420   22.9860 C   0  0  0  0  0  3  0  0  0  0  0  0
  -20.7300  -26.6270   22.3810 C   0  0  0  0  0  2  0  0  0  0  0  0
  -19.6340  -26.2900   21.3650 C   0  0  0  0  0  2  0  0  0  0  0  0
  -18.2510  -26.3760   22.0160 C   0  0  0  0  0  2  0  0  0  0  0  0
  -19.1300  -28.4940   23.1630 C   0  0  0  0  0  0  0  0  0  0  0  0
  -18.8720  -29.7360   23.7840 C   0  0  0  0  0  3  0  0  0  0  0  0
  -17.5530  -30.1900   23.9670 C   0  0  0  0  0  3  0  0  0  0  0  0
  -16.4730  -29.3980   23.5410 C   0  0  0  0  0  3  0  0  0  0  0  0
  -16.7140  -28.1580   22.9260 C   0  0  0  0  0  3  0  0  0  0  0  0
  -25.8160  -32.2870   23.6890 C   0  0  0  0  0  3  0  0  0  0  0  0
  -25.4890  -33.6650   24.0790 N   0  0  0  0  0  0  0  0  0  0  0  0
  -25.7830  -34.7540   23.3540 C   0  0  0  0  0  0  0  0  0  0  0  0
  -26.4300  -34.7020   22.3050 O   0  0  0  0  0  0  0  0  0  0  0  0
  -24.9090  -33.7780   24.8980 H   0  0  0  0  0  0  0  0  0  0  0  0
  -24.0060  -36.5200   23.1210 C   0  0  0  0  0  1  0  0  0  0  0  0
  -25.2820  -36.1150   23.8760 C   0  0  0  0  0  3  0  0  0  0  0  0
  -27.4230  -37.0180   24.6660 C   0  0  0  0  0  1  0  0  0  0  0  0
  -26.2870  -37.1930   23.7660 N   0  0  0  0  0  0  0  0  0  0  0  0
  -25.8670  -38.0990   23.9570 H   0  0  0  0  0  0  0  0  0  0  0  0
  -26.3760  -31.4790   24.9240 C   0  0  1  0  0  0  0  0  0  0  0  0
  -25.3120  -31.1850   26.0070 C   0  0  0  0  0  1  0  0  0  0  0  0
  -26.9730  -30.1250   24.4740 C   0  0  0  0  0  1  0  0  0  0  0  0
  -27.5310  -32.2690   25.5850 C   0  0  0  0  0  1  0  0  0  0  0  0
  1 14  1  0
  2  7  1  0
  3  4  1  0
  3  2  1  0
  5  4  1  0
  5 18  1  0
  5  6  1  0
  7  1  1  0
  7  6  1  0
  8  1  2  0
  9 10  1  0
 11 12  1  0
 11 14  1  0
 12 57  1  0
 12 13  1  0
 13 43  1  0
 13  9  1  0
 14 10  1  0
 15 16  2  0
 16 35  1  0
 17 16  1  0
 17 20  1  0
 18 19  1  0
 18 15  1  0
 19 17  2  0
 20 21  1  0
 21 22  2  0
 23 26  1  0
 23 22  1  0
 24 23  2  0
 25 24  1  0
 25 20  2  0
 26 27  1  0
 27 28  1  0
 28 29  2  0
 30 29  1  0
 30 34  1  0
 31 30  2  0
 32 27  2  0
 32 31  1  0
 33 32  1  0
 35 36  1  0
 36 39  1  0
 36 38  1  0
 37 35  2  0
 40 15  1  0
 40 41  1  0
 42 40  1  0
 44 43  1  0
 45 47  1  0
 46 45  1  0
 48 46  1  0
 48 50  1  0
 49 43  1  0
 49 47  1  0
 50 51  1  0
 50 49  1  0
 51 53  1  0
 51 52  1  0
 54 56  1  0
 56 55  1  0
 56 51  1  0
 57 59  1  0
 59 58  1  0
 60 59  1  0
 60 61  1  0
 62 63  1  0
 62 61  2  0
 64 75  2  0
 65 63  1  0
 65 70  1  0
 66 74  1  0
 66 76  1  0
 67 73  1  0
 67 69  1  0
 68 74  1  0
 69 68  1  0
 70 69  2  0
 71 72  1  0
 71 65  2  0
 72 67  2  0
 73 66  1  0
 74 64  1  0
 76 78  2  0
 77 76  1  0
 79 77  1  0
 80 89  2  0
 80 85  1  0
 81 77  1  0
 81 85  1  0
 82 81  1  0
 83 84  1  0
 83 82  1  0
 84 80  1  0
 85 86  2  0
 86 87  1  0
 88 87  2  0
 89 88  1  0
 90 64  1  0
 90 91  1  0
 90100  1  0
 91 94  1  0
 92 96  1  0
 92 91  1  0
 93 92  2  0
 96 95  1  0
 98 96  1  0
 98 99  1  0
 98 97  1  0
100103  1  1
100101  1  0
102100  1  0
M  ISO  4   1 100  14 100  62 101  63 101
M  END
>  <TORSDO>  (20) 
F 24

>  <SCORE>  (20) 
-12.095

>  <name>  (20) 
19

>  <ligand_id>  (20) 
19

>  <original_smiles>  (20) 
[H]c1c([H])c([H])c2c(c1[H])C([H])([H])C([H])([H])C([H])([H])C2([H])N([H])C(=O)C1([H])N(C(=O)C([H])(N([H])C(=O)C([H])(N([H])C([H])([H])[H])C([H])([H])[H])C(C([H])([H])[H])(C([H])([H])[H])C([H])([H])[H])C([H])([H])c2c([H])c(OC([H])([H])C([H])([H])C([H])([H])C([H])(C([H])([H])[H])C([H])([H])C3([H])C([H])([H])N(C(=O)N4C([H])([H])C([H])([H])C([H])([H])C([H])(n5nc(-c6c([H])c([H])c(Oc7c([H])c([H])c(F)c([H])c7F)c([H])c6[H])c(C(=O)N([H])[H])c5N([H])[H])C4([H])[H])C([H])([H])C([H])([H])C3([H])N([H])C3([H])C([H])([H])C([H])([H])C([H])([H])C([H])([H])C3([H])[N+]([H])([H])C([H])(C([H])([H])[H])C([H])([H])[H])c([H])c([H])c2C1([H])[H]

>  <smiles>  (20) 
[H]c1c([H])c([H])c2c(c1[H])C([H])([H])C([H])([H])C([H])([H])C2([H])N([H])C(=O)C1([H])N(C(=O)C([H])(N([H])C(=O)C([H])(N([H])C([H])([H])[H])C([H])([H])[H])C(C([H])([H])[H])(C([H])([H])[H])C([H])([H])[H])C([H])([H])c2c([H])c(OC([H])([H])C([H])([H])C([H])([H])C([H])(C([H])([H])[H])C([H])([H])C3([H])C([H])([H])N(C(=O)N4C([H])([H])C([H])([H])C([H])([H])C([H])(n5nc(-c6c([H])c([H])c(Oc7c([H])c([H])c(F)c([H])c7F)c([H])c6[H])c(C(=O)N([H])[H])c5N([H])[H])C4([H])[H])C([H])([H])C([H])([H])C3([H])N([H])C3([H])C([H])([H])C([H])([H])C([H])([H])C([H])([H])C3([H])[N+]([H])([H])C([H])(C([H])([H])[H])C([H])([H])[H])c([H])c([H])c2C1([H])[H]

$$$$
20:0:0
     RDKit          3D

 97106  0  0  1  0  0  0  0  0999 V2000
  -26.2580  -22.6770   19.1430 C   0  0  0  0  0  2  0  0  0  0  0  0
  -26.1130  -23.6180   20.3470 C   0  0  0  0  0  2  0  0  0  0  0  0
  -28.3740  -23.0530   20.2860 C   0  0  0  0  0  2  0  0  0  0  0  0
  -27.7670  -22.3570   19.0610 C   0  0  0  0  0  3  0  0  0  0  0  0
  -27.4650  -24.1820   20.5110 N   0  0  2  0  0  4  0  0  0  0  0  0
  -27.6010  -24.8050   19.7270 H   0  0  0  0  0  0  0  0  0  0  0  0
  -28.0680  -20.8590   18.9630 C   0  0  0  0  0  2  0  0  0  0  0  0
  -29.4280  -20.5990   19.2990 O   0  0  0  0  0  0  0  0  0  0  0  0
  -30.7360  -14.4320   20.4750 C   0  0  0  0  0  0  0  0  0  0  0  0
  -30.3830  -12.3070   19.3000 C   0  0  0  0  0  2  0  0  0  0  0  0
  -29.4360  -12.5670   18.1100 C   0  0  0  0  0  2  0  0  0  0  0  0
  -27.9650  -12.4450   18.5510 C   0  0  0  0  0  2  0  0  0  0  0  0
  -27.6520  -13.2610   19.8300 C   0  0  0  0  0  3  0  0  0  0  0  0
  -28.7110  -12.9960   20.9260 C   0  0  0  0  0  2  0  0  0  0  0  0
  -30.0440  -13.2700   20.3550 N   0  0  0  0  0  0  0  0  0  0  0  0
  -31.8330  -14.6330   19.9480 O   0  0  0  0  0  0  0  0  0  0  0  0
  -29.1640  -18.2130   18.9180 C   0  0  0  0  0  3  0  0  0  0  0  0
  -29.3440  -16.9120   19.4060 C   0  0  0  0  0  3  0  0  0  0  0  0
  -29.6540  -19.2960   19.6750 C   0  0  0  0  0  0  0  0  0  0  0  0
  -30.0070  -16.7140   20.6340 C   0  0  0  0  0  0  0  0  0  0  0  0
  -30.3490  -19.0090   20.8670 C   0  0  0  0  0  0  0  0  0  0  0  0
  -30.4910  -17.7510   21.3500 N   0  0  0  0  0  0  0  0  0  0  0  0
  -30.0870  -15.4010   21.1270 N   0  0  0  0  0  0  0  0  0  0  0  0
  -29.2690  -15.0840   21.6230 H   0  0  0  0  0  0  0  0  0  0  0  0
  -25.2560  -13.8840   20.5400 C   0  0  0  0  0  0  0  0  0  0  0  0
  -24.1820  -13.1170   20.9060 C   0  0  0  0  0  0  0  0  0  0  0  0
  -24.6350  -11.7610   20.8660 C   0  0  0  0  0  0  0  0  0  0  0  0
  -26.2950  -12.9970   20.3050 N   0  0  0  0  0  0  0  0  0  0  0  0
  -25.9240  -11.7160   20.5540 N   0  0  0  0  0  0  0  0  0  0  0  0
  -23.9020  -10.5020   21.0500 C   0  0  0  0  0  0  0  0  0  0  0  0
  -24.3270   -9.5310   21.9830 C   0  0  0  0  0  3  0  0  0  0  0  0
  -23.5990   -8.3330   22.1520 C   0  0  0  0  0  3  0  0  0  0  0  0
  -22.4290   -8.1030   21.3910 C   0  0  0  0  0  0  0  0  0  0  0  0
  -22.0190   -9.0650   20.4490 C   0  0  0  0  0  3  0  0  0  0  0  0
  -22.7510  -10.2520   20.2770 C   0  0  0  0  0  3  0  0  0  0  0  0
  -21.6670   -6.9610   21.4760 O   0  0  0  0  0  0  0  0  0  0  0  0
  -21.6000   -6.2240   22.6320 C   0  0  0  0  0  0  0  0  0  0  0  0
  -21.1480   -6.7820   23.8480 C   0  0  0  0  0  3  0  0  0  0  0  0
  -21.0290   -5.9690   24.9940 C   0  0  0  0  0  3  0  0  0  0  0  0
  -21.3540   -4.6020   24.9230 C   0  0  0  0  0  0  0  0  0  0  0  0
  -21.8000   -4.0440   23.7110 C   0  0  0  0  0  3  0  0  0  0  0  0
  -21.9200   -4.8530   22.5680 C   0  0  0  0  0  0  0  0  0  0  0  0
  -22.3290   -4.3050   21.3990 F   0  0  0  0  0  0  0  0  0  0  0  0
  -21.2320   -3.8190   26.0210 F   0  0  0  0  0  0  0  0  0  0  0  0
  -22.7900  -13.6010   21.1890 C   0  0  0  0  0  0  0  0  0  0  0  0
  -22.0620  -12.9030   22.0560 N   0  0  0  0  0  0  0  0  0  0  0  0
  -22.3560  -14.6310   20.6790 O   0  0  0  0  0  0  0  0  0  0  0  0
  -22.4220  -12.0650   22.4880 H   0  0  0  0  0  0  0  0  0  0  0  0
  -21.1310  -13.2150   22.2930 H   0  0  0  0  0  0  0  0  0  0  0  0
  -25.4310  -15.2540   20.3680 N   0  0  0  0  0  0  0  0  0  0  0  0
  -24.6640  -15.9100   20.4750 H   0  0  0  0  0  0  0  0  0  0  0  0
  -26.2880  -15.6900   20.0510 H   0  0  0  0  0  0  0  0  0  0  0  0
  -31.5650  -19.7430   22.8100 C   0  0  0  0  0  1  0  0  0  0  0  0
  -30.8720  -20.0520   21.6020 O   0  0  0  0  0  0  0  0  0  0  0  0
  -27.7140  -25.0220   21.7050 C   0  0  0  0  0  2  0  0  0  0  0  0
  -28.7160  -26.1390   21.3470 C   0  0  0  0  0  2  0  0  0  0  0  0
  -28.3610  -26.7440   20.0990 O   0  0  0  0  0  0  0  0  0  0  0  0
  -24.5700  -31.8760   23.2510 C   0  0  0  0  0  0  0  0  0  0  0  0
  -27.2140  -27.4960   20.1290 C   0  0  0  0  0  0  0  0  0  0  0  0
  -23.3580  -30.4850   21.5980 C   0  0  0  0  0  3  0  0  0  0  0  0
  -24.8130  -28.9650   20.1580 C   0  0  0  0  0  0  0  0  0  0  0  0
  -25.8770  -30.8580   21.3970 C   0  0  0  0  0  2  0  0  0  0  0  0
  -25.9650  -29.4890   20.7600 C   0  0  0  0  0  0  0  0  0  0  0  0
  -27.1700  -28.7550   20.7610 C   0  0  0  0  0  3  0  0  0  0  0  0
  -26.0610  -26.9960   19.4890 C   0  0  0  0  0  3  0  0  0  0  0  0
  -24.8520  -27.7110   19.5250 C   0  0  0  0  0  3  0  0  0  0  0  0
  -23.5660  -29.8150   20.2120 C   0  0  0  0  0  2  0  0  0  0  0  0
  -24.6190  -31.0860   22.1430 N   0  0  0  0  0  0  0  0  0  0  0  0
  -23.4920  -32.1450   23.7950 O   0  0  0  0  0  0  0  0  0  0  0  0
  -22.7110  -29.4570   22.5540 C   0  0  0  0  0  0  0  0  0  0  0  0
  -21.3870  -29.2780   22.4280 N   0  0  0  0  0  0  0  0  0  0  0  0
  -23.3980  -28.8230   23.3600 O   0  0  0  0  0  0  0  0  0  0  0  0
  -20.8970  -29.8420   21.7470 H   0  0  0  0  0  0  0  0  0  0  0  0
  -18.0070  -28.1020   22.9230 C   0  0  0  0  0  0  0  0  0  0  0  0
  -20.5670  -28.3350   23.1900 C   0  0  0  0  0  3  0  0  0  0  0  0
  -20.6590  -26.9120   22.5920 C   0  0  0  0  0  2  0  0  0  0  0  0
  -19.5490  -26.6110   21.5800 C   0  0  0  0  0  2  0  0  0  0  0  0
  -18.1720  -26.7580   22.2330 C   0  0  0  0  0  2  0  0  0  0  0  0
  -19.1340  -28.8490   23.3580 C   0  0  0  0  0  0  0  0  0  0  0  0
  -18.9300  -30.1080   23.9630 C   0  0  0  0  0  3  0  0  0  0  0  0
  -17.6320  -30.6180   24.1440 C   0  0  0  0  0  3  0  0  0  0  0  0
  -16.5190  -29.8660   23.7270 C   0  0  0  0  0  3  0  0  0  0  0  0
  -16.7070  -28.6110   23.1220 C   0  0  0  0  0  3  0  0  0  0  0  0
  -25.8620  -32.4990   23.8700 C   0  0  0  0  0  3  0  0  0  0  0  0
  -25.5620  -33.8980   24.2030 N   0  0  0  0  0  0  0  0  0  0  0  0
  -25.8900  -34.9480   23.4370 C   0  0  0  0  0  0  0  0  0  0  0  0
  -26.5520  -34.8400   22.4000 O   0  0  0  0  0  0  0  0  0  0  0  0
  -24.9800  -34.0570   25.0120 H   0  0  0  0  0  0  0  0  0  0  0  0
  -24.1630  -36.7400   23.0870 C   0  0  0  0  0  1  0  0  0  0  0  0
  -25.4080  -36.3380   23.8930 C   0  0  0  0  0  3  0  0  0  0  0  0
  -27.5460  -37.2220   24.7150 C   0  0  0  0  0  1  0  0  0  0  0  0
  -26.4420  -37.3880   23.7720 N   0  0  0  0  0  0  0  0  0  0  0  0
  -26.0370  -38.3090   23.9180 H   0  0  0  0  0  0  0  0  0  0  0  0
  -26.3800  -31.7180   25.1390 C   0  0  1  0  0  0  0  0  0  0  0  0
  -25.2890  -31.4750   26.2060 C   0  0  0  0  0  1  0  0  0  0  0  0
  -26.9550  -30.3400   24.7320 C   0  0  0  0  0  1  0  0  0  0  0  0
  -27.5360  -32.5040   25.8050 C   0  0  0  0  0  1  0  0  0  0  0  0
  1  2  1  0
  2  5  1  0
  3  5  1  0
  4  7  1  0
  4  1  1  0
  4  3  1  0
  5 55  1  0
  5  6  1  6
  7  8  1  0
  8 19  1  0
  9 23  1  0
 10 15  1  0
 11 12  1  0
 11 10  1  0
 13 12  1  0
 13 28  1  0
 13 14  1  0
 15  9  1  0
 15 14  1  0
 16  9  2  0
 17 18  1  0
 17 19  2  0
 18 20  2  0
 19 21  1  0
 20 23  1  0
 20 22  1  0
 21 22  2  0
 21 54  1  0
 23 24  1  0
 25 26  2  0
 26 45  1  0
 27 26  1  0
 27 30  1  0
 28 25  1  0
 28 29  1  0
 29 27  2  0
 30 31  1  0
 31 32  2  0
 33 36  1  0
 33 32  1  0
 34 33  2  0
 35 34  1  0
 35 30  2  0
 36 37  1  0
 37 38  1  0
 38 39  2  0
 40 39  1  0
 40 44  1  0
 41 40  2  0
 42 37  2  0
 42 41  1  0
 43 42  1  0
 45 46  1  0
 46 49  1  0
 46 48  1  0
 47 45  2  0
 50 51  1  0
 50 25  1  0
 52 50  1  0
 54 53  1  0
 56 55  1  0
 57 59  1  0
 57 56  1  0
 58 69  2  0
 59 64  1  0
 60 68  1  0
 60 70  1  0
 61 67  1  0
 61 63  1  0
 62 68  1  0
 63 64  2  0
 63 62  1  0
 65 66  1  0
 65 59  2  0
 66 61  2  0
 67 60  1  0
 68 58  1  0
 70 72  2  0
 71 70  1  0
 73 71  1  0
 74 83  2  0
 74 79  1  0
 75 71  1  0
 75 79  1  0
 76 75  1  0
 77 78  1  0
 77 76  1  0
 78 74  1  0
 79 80  2  0
 80 81  1  0
 82 81  2  0
 83 82  1  0
 84 58  1  0
 84 85  1  0
 84 94  1  0
 85 88  1  0
 86 90  1  0
 86 85  1  0
 87 86  2  0
 90 89  1  0
 92 90  1  0
 92 93  1  0
 92 91  1  0
 94 97  1  1
 94 95  1  0
 96 94  1  0
M  ISO  4   9 100  23 100  56 101  57 101
M  END
>  <TORSDO>  (21) 
F 21

>  <SCORE>  (21) 
-14.117

>  <name>  (21) 
20

>  <ligand_id>  (21) 
20

>  <original_smiles>  (21) 
[H]c1c(N([H])C(=O)N2C([H])([H])C([H])([H])C([H])([H])C([H])(n3nc(-c4c([H])c([H])c(Oc5c([H])c([H])c(F)c([H])c5F)c([H])c4[H])c(C(=O)N([H])[H])c3N([H])[H])C2([H])[H])nc(OC([H])([H])[H])c(OC([H])([H])C2([H])C([H])([H])C([H])([H])[N+]([H])(C([H])([H])C([H])([H])Oc3c([H])c([H])c4c(c3[H])C([H])([H])N(C(=O)C([H])(N([H])C(=O)C([H])(N([H])C([H])([H])[H])C([H])([H])[H])C(C([H])([H])[H])(C([H])([H])[H])C([H])([H])[H])C([H])(C(=O)N([H])C3([H])c5c([H])c([H])c([H])c([H])c5C([H])([H])C([H])([H])C3([H])[H])C4([H])[H])C2([H])[H])c1[H]

>  <smiles>  (21) 
[H]c1c(N([H])C(=O)N2C([H])([H])C([H])([H])C([H])([H])C([H])(n3nc(-c4c([H])c([H])c(Oc5c([H])c([H])c(F)c([H])c5F)c([H])c4[H])c(C(=O)N([H])[H])c3N([H])[H])C2([H])[H])nc(OC([H])([H])[H])c(OC([H])([H])C2([H])C([H])([H])C([H])([H])[N+]([H])(C([H])([H])C([H])([H])Oc3c([H])c([H])c4c(c3[H])C([H])([H])N(C(=O)C([H])(N([H])C(=O)C([H])(N([H])C([H])([H])[H])C([H])([H])[H])C(C([H])([H])[H])(C([H])([H])[H])C([H])([H])[H])C([H])(C(=O)N([H])C3([H])c5c([H])c([H])c([H])c([H])c5C([H])([H])C([H])([H])C3([H])[H])C4([H])[H])C2([H])[H])c1[H]

$$$$
21:0:0
     RDKit          3D

 96105  0  0  1  0  0  0  0  0999 V2000
  -29.1840  -22.6850   20.3320 N   0  0  0  0  0  4  0  0  0  0  0  0
  -29.3460  -22.5810   21.3220 H   0  0  0  0  0  0  0  0  0  0  0  0
  -28.2100  -22.4940   20.1600 H   0  0  0  0  0  0  0  0  0  0  0  0
  -29.9760  -21.6270   19.5880 C   0  0  0  0  0  2  0  0  0  0  0  0
  -30.7480  -14.7260   20.0680 C   0  0  0  0  0  0  0  0  0  0  0  0
  -30.4960  -12.5040   18.9840 C   0  0  0  0  0  2  0  0  0  0  0  0
  -29.5120  -12.6520   17.8020 C   0  0  0  0  0  2  0  0  0  0  0  0
  -28.0540  -12.4880   18.2760 C   0  0  0  0  0  2  0  0  0  0  0  0
  -27.7370  -13.3360   19.5390 C   0  0  0  0  0  3  0  0  0  0  0  0
  -28.8320  -13.1620   20.6160 C   0  0  0  0  0  2  0  0  0  0  0  0
  -30.1250  -13.5050   20.0030 N   0  0  0  0  0  0  0  0  0  0  0  0
  -31.8950  -14.8750   19.6340 O   0  0  0  0  0  0  0  0  0  0  0  0
  -28.8760  -17.9580   20.6280 C   0  0  0  0  0  3  0  0  0  0  0  0
  -28.8050  -19.3700   20.4410 C   0  0  0  0  0  0  0  0  0  0  0  0
  -29.9410  -20.0810   19.9580 C   0  0  0  0  0  0  0  0  0  0  0  0
  -31.0750  -19.2520   19.6860 C   0  0  0  0  0  0  0  0  0  0  0  0
  -30.0390  -17.2080   20.3160 C   0  0  0  0  0  0  0  0  0  0  0  0
  -27.4900  -20.0660   20.7420 C   0  0  0  0  0  1  0  0  0  0  0  0
  -32.3600  -19.8220   19.1080 C   0  0  0  0  0  1  0  0  0  0  0  0
  -31.1150  -17.8960   19.8630 N   0  0  0  0  0  0  0  0  0  0  0  0
  -29.9630  -15.7650   20.4930 N   0  0  0  0  0  0  0  0  0  0  0  0
  -29.0820  -15.4470   20.8620 H   0  0  0  0  0  0  0  0  0  0  0  0
  -25.3660  -13.9270   20.3330 C   0  0  0  0  0  0  0  0  0  0  0  0
  -24.3140  -13.1490   20.7350 C   0  0  0  0  0  0  0  0  0  0  0  0
  -24.7780  -11.7990   20.6830 C   0  0  0  0  0  0  0  0  0  0  0  0
  -26.4040  -13.0490   20.0620 N   0  0  0  0  0  0  0  0  0  0  0  0
  -26.0580  -11.7650   20.3330 N   0  0  0  0  0  0  0  0  0  0  0  0
  -24.0620  -10.5340   20.8910 C   0  0  0  0  0  0  0  0  0  0  0  0
  -24.4990   -9.5850   21.8420 C   0  0  0  0  0  3  0  0  0  0  0  0
  -23.7820   -8.3840   22.0360 C   0  0  0  0  0  3  0  0  0  0  0  0
  -22.6160   -8.1230   21.2780 C   0  0  0  0  0  0  0  0  0  0  0  0
  -22.1970   -9.0620   20.3170 C   0  0  0  0  0  3  0  0  0  0  0  0
  -22.9140  -10.2540   20.1220 C   0  0  0  0  0  3  0  0  0  0  0  0
  -21.8700   -6.9740   21.3810 O   0  0  0  0  0  0  0  0  0  0  0  0
  -21.7790   -6.2780   22.5600 C   0  0  0  0  0  0  0  0  0  0  0  0
  -21.2610   -6.8650   23.7350 C   0  0  0  0  0  3  0  0  0  0  0  0
  -21.1210   -6.0930   24.9060 C   0  0  0  0  0  3  0  0  0  0  0  0
  -21.4900   -4.7350   24.9020 C   0  0  0  0  0  0  0  0  0  0  0  0
  -22.0010   -4.1460   23.7320 C   0  0  0  0  0  3  0  0  0  0  0  0
  -22.1420   -4.9150   22.5630 C   0  0  0  0  0  0  0  0  0  0  0  0
  -22.6160   -4.3380   21.4320 F   0  0  0  0  0  0  0  0  0  0  0  0
  -21.3480   -3.9900   26.0240 F   0  0  0  0  0  0  0  0  0  0  0  0
  -22.9240  -13.6210   21.0520 C   0  0  0  0  0  0  0  0  0  0  0  0
  -22.2280  -12.9240   21.9430 N   0  0  0  0  0  0  0  0  0  0  0  0
  -22.4650  -14.6430   20.5440 O   0  0  0  0  0  0  0  0  0  0  0  0
  -22.6120  -12.0980   22.3760 H   0  0  0  0  0  0  0  0  0  0  0  0
  -21.2970  -13.2220   22.1970 H   0  0  0  0  0  0  0  0  0  0  0  0
  -25.5200  -15.2980   20.1520 N   0  0  0  0  0  0  0  0  0  0  0  0
  -24.7420  -15.9390   20.2680 H   0  0  0  0  0  0  0  0  0  0  0  0
  -26.3290  -15.7340   19.7310 H   0  0  0  0  0  0  0  0  0  0  0  0
  -29.4460  -24.1400   19.9510 C   0  0  0  0  0  3  0  0  0  0  0  0
  -32.0730  -24.5120   20.0120 C   0  0  0  0  0  2  0  0  0  0  0  0
  -31.4330  -25.8750   20.1060 C   0  0  0  0  0  2  0  0  0  0  0  0
  -30.7020  -24.6610   20.6380 C   0  0  0  0  0  3  0  0  0  0  0  0
  -28.2210  -25.1280   20.1810 C   0  0  0  0  0  2  0  0  0  0  0  0
  -28.4330  -26.5890   20.0410 O   0  0  0  0  0  0  0  0  0  0  0  0
  -24.6940  -31.8860   23.2030 C   0  0  0  0  0  0  0  0  0  0  0  0
  -27.3000  -27.4150   20.0340 C   0  0  0  0  0  0  0  0  0  0  0  0
  -23.4810  -30.5160   21.5470 C   0  0  0  0  0  3  0  0  0  0  0  0
  -24.9250  -29.0060   20.0790 C   0  0  0  0  0  0  0  0  0  0  0  0
  -26.0160  -30.8560   21.3440 C   0  0  0  0  0  2  0  0  0  0  0  0
  -26.0970  -29.4910   20.6740 C   0  0  0  0  0  0  0  0  0  0  0  0
  -27.2880  -28.7080   20.6420 C   0  0  0  0  0  3  0  0  0  0  0  0
  -26.1040  -26.9890   19.4090 C   0  0  0  0  0  3  0  0  0  0  0  0
  -24.9300  -27.7600   19.4400 C   0  0  0  0  0  3  0  0  0  0  0  0
  -23.6850  -29.8710   20.1520 C   0  0  0  0  0  2  0  0  0  0  0  0
  -24.7510  -31.1020   22.0890 N   0  0  0  0  0  0  0  0  0  0  0  0
  -23.6150  -32.1470   23.7540 O   0  0  0  0  0  0  0  0  0  0  0  0
  -22.8350  -29.4740   22.4920 C   0  0  0  0  0  0  0  0  0  0  0  0
  -21.5080  -29.2930   22.3720 N   0  0  0  0  0  0  0  0  0  0  0  0
  -23.5240  -28.8350   23.2900 O   0  0  0  0  0  0  0  0  0  0  0  0
  -21.0110  -29.8590   21.7000 H   0  0  0  0  0  0  0  0  0  0  0  0
  -18.1400  -28.0820   22.8860 C   0  0  0  0  0  0  0  0  0  0  0  0
  -20.7010  -28.3380   23.1330 C   0  0  0  0  0  3  0  0  0  0  0  0
  -20.7990  -26.9190   22.5260 C   0  0  0  0  0  2  0  0  0  0  0  0
  -19.6860  -26.6160   21.5180 C   0  0  0  0  0  2  0  0  0  0  0  0
  -18.3110  -26.7460   22.1790 C   0  0  0  0  0  2  0  0  0  0  0  0
  -19.2620  -28.8350   23.3200 C   0  0  0  0  0  0  0  0  0  0  0  0
  -19.0480  -30.0850   23.9400 C   0  0  0  0  0  3  0  0  0  0  0  0
  -17.7450  -30.5820   24.1300 C   0  0  0  0  0  3  0  0  0  0  0  0
  -16.6370  -29.8250   23.7110 C   0  0  0  0  0  3  0  0  0  0  0  0
  -16.8360  -28.5760   23.0960 C   0  0  0  0  0  3  0  0  0  0  0  0
  -25.9810  -32.5110   23.8260 C   0  0  0  0  0  3  0  0  0  0  0  0
  -26.5090  -31.7190   25.0840 C   0  0  1  0  0  0  0  0  0  0  0  0
  -25.4240  -31.4590   26.1550 C   0  0  0  0  0  1  0  0  0  0  0  0
  -27.0930  -30.3500   24.6640 C   0  0  0  0  0  1  0  0  0  0  0  0
  -27.6600  -32.5070   25.7530 C   0  0  0  0  0  1  0  0  0  0  0  0
  -25.6700  -33.9030   24.1810 N   0  0  0  0  0  0  0  0  0  0  0  0
  -25.9860  -34.9680   23.4340 C   0  0  0  0  0  0  0  0  0  0  0  0
  -26.6410  -34.8830   22.3910 O   0  0  0  0  0  0  0  0  0  0  0  0
  -25.0860  -34.0410   24.9940 H   0  0  0  0  0  0  0  0  0  0  0  0
  -24.2510  -36.7630   23.1240 C   0  0  0  0  0  1  0  0  0  0  0  0
  -25.4990  -36.3470   23.9190 C   0  0  0  0  0  3  0  0  0  0  0  0
  -27.6330  -37.2260   24.7570 C   0  0  0  0  0  1  0  0  0  0  0  0
  -26.5280  -37.4040   23.8190 N   0  0  0  0  0  0  0  0  0  0  0  0
  -26.1200  -38.3200   23.9790 H   0  0  0  0  0  0  0  0  0  0  0  0
  1  2  1  0
  3  1  1  0
  4 15  1  0
  4  1  1  0
  5 21  1  0
  6 11  1  0
  7  8  1  0
  7  6  1  0
  9  8  1  0
  9 26  1  0
  9 10  1  0
 11  5  1  0
 11 10  1  0
 12  5  2  0
 14 13  1  0
 14 18  1  0
 15 14  2  0
 16 20  2  0
 16 15  1  0
 17 21  1  0
 17 13  2  0
 19 16  1  0
 20 17  1  0
 21 22  1  0
 23 24  2  0
 24 43  1  0
 25 24  1  0
 25 28  1  0
 26 27  1  0
 26 23  1  0
 27 25  2  0
 28 29  1  0
 29 30  2  0
 31 34  1  0
 31 30  1  0
 32 31  2  0
 33 32  1  0
 33 28  2  0
 34 35  1  0
 35 40  2  0
 35 36  1  0
 36 37  2  0
 38 37  1  0
 38 42  1  0
 39 38  2  0
 40 39  1  0
 41 40  1  0
 43 44  1  0
 44 47  1  0
 44 46  1  0
 45 43  2  0
 48 49  1  0
 48 23  1  0
 50 48  1  0
 51 55  1  0
 51  1  1  0
 51 54  1  0
 52 53  1  0
 52 54  1  0
 53 54  1  0
 56 55  1  0
 57 68  2  0
 58 56  1  0
 58 63  1  0
 59 67  1  0
 59 69  1  0
 60 66  1  0
 60 62  1  0
 61 67  1  0
 62 61  1  0
 63 62  2  0
 64 65  1  0
 64 58  2  0
 65 60  2  0
 66 59  1  0
 67 57  1  0
 69 71  2  0
 70 69  1  0
 72 70  1  0
 73 82  2  0
 73 78  1  0
 74 70  1  0
 74 78  1  0
 75 74  1  0
 76 77  1  0
 76 75  1  0
 77 73  1  0
 78 79  2  0
 79 80  1  0
 81 80  2  0
 82 81  1  0
 83 57  1  0
 83 88  1  0
 83 84  1  0
 84 87  1  1
 84 85  1  0
 86 84  1  0
 88 91  1  0
 89 93  1  0
 89 88  1  0
 90 89  2  0
 93 92  1  0
 95 93  1  0
 95 96  1  0
 95 94  1  0
M  ISO  4   5 100  21 100  55 101  56 101
M  END
>  <TORSDO>  (22) 
F 20

>  <SCORE>  (22) 
-13.204

>  <name>  (22) 
21

>  <ligand_id>  (22) 
21

>  <original_smiles>  (22) 
[H]c1c([H])c([H])c2c(c1[H])C([H])([H])C([H])([H])C([H])([H])C2([H])N([H])C(=O)C1([H])N(C(=O)C([H])(N([H])C(=O)C([H])(N([H])C([H])([H])[H])C([H])([H])[H])C(C([H])([H])[H])(C([H])([H])[H])C([H])([H])[H])C([H])([H])c2c([H])c(OC([H])([H])C([H])(C3([H])C([H])([H])C3([H])[H])[N+]([H])([H])C([H])([H])c3c(C([H])([H])[H])nc(N([H])C(=O)N4C([H])([H])C([H])([H])C([H])([H])C([H])(n5nc(-c6c([H])c([H])c(Oc7c([H])c([H])c(F)c([H])c7F)c([H])c6[H])c(C(=O)N([H])[H])c5N([H])[H])C4([H])[H])c([H])c3C([H])([H])[H])c([H])c([H])c2C1([H])[H]

>  <smiles>  (22) 
[H]c1c([H])c([H])c2c(c1[H])C([H])([H])C([H])([H])C([H])([H])C2([H])N([H])C(=O)C1([H])N(C(=O)C([H])(N([H])C(=O)C([H])(N([H])C([H])([H])[H])C([H])([H])[H])C(C([H])([H])[H])(C([H])([H])[H])C([H])([H])[H])C([H])([H])c2c([H])c(OC([H])([H])C([H])(C3([H])C([H])([H])C3([H])[H])[N+]([H])([H])C([H])([H])c3c(C([H])([H])[H])nc(N([H])C(=O)N4C([H])([H])C([H])([H])C([H])([H])C([H])(n5nc(-c6c([H])c([H])c(Oc7c([H])c([H])c(F)c([H])c7F)c([H])c6[H])c(C(=O)N([H])[H])c5N([H])[H])C4([H])[H])c([H])c3C([H])([H])[H])c([H])c([H])c2C1([H])[H]

$$$$
22:0:0
     RDKit          3D

 94 90  0  0  1  0  0  0  0  0999 V2000
  -26.1930  -19.1690   18.8970 C   0  0  0  0  0  3  0  0  0  0  0  0
  -28.1840  -20.0110   19.5820 C   0  0  0  0  0  3  0  0  0  0  0  0
  -27.1060  -20.6460   18.9510 C   0  0  0  0  0  3  0  0  0  0  0  0
  -26.4870  -17.6680   19.3650 C   0  0  0  0  0  3  0  0  0  0  0  0
  -28.1260  -18.1750   19.9190 S   0  0  0  0  0  0  0  0  0  0  0  0
  -26.6260  -13.7750   18.2110 C   0  0  0  0  0 15  0  0  0  0  0  0
  -26.0480  -14.9920   22.0520 C   0  0  0  0  0 15  0  0  0  0  0  0
  -27.5290  -11.5510   19.0660 C   0  0  0  0  0 15  0  0  0  0  0  0
  -27.2230  -12.9040   22.6480 C   0  0  0  0  0 15  0  0  0  0  0  0
  -25.9030  -15.7240   19.6560 C   0  0  0  0  0 15  0  0  0  0  0  0
  -27.9850  -11.3870   21.2650 N   0  0  0  0  0  2  0  0  0  0  0  0
  -28.6300  -12.1240   21.0260 H   0  0  0  0  0  0  0  0  0  0  0  0
  -29.2290  -10.6970   21.7310 C   0  0  0  0  0  2  0  0  0  0  0  0
  -30.7510  -11.1050   21.2260 C   0  0  0  0  0  1  0  0  0  0  0  0
  -32.4990  -13.7910   20.8600 C   0  0  0  0  0  3  0  0  0  0  0  0
  -33.0270  -11.2170   20.5560 C   0  0  0  0  0  1  0  0  0  0  0  0
  -31.8990  -10.9300   18.9940 C   0  0  0  0  0  3  0  0  0  0  0  0
  -30.1620  -11.6450   18.9320 C   0  0  0  0  0  3  0  0  0  0  0  0
  -29.5090  -12.9780   20.1020 C   0  0  0  0  0  3  0  0  0  0  0  0
  -30.3930  -13.3800   21.7850 C   0  0  0  0  0  1  0  0  0  0  0  0
  -32.1930  -12.7620   21.4920 N   0  0  0  0  0  2  0  0  0  0  0  0
  -33.4970  -14.1980   20.2720 O   0  0  0  0  0  1  0  0  0  0  0  0
  -31.7850  -12.8840   20.2680 N   0  0  0  0  0  0  0  0  0  0  0  0
  -31.8650  -12.8570   19.2630 H   0  0  0  0  0  0  0  0  0  0  0  0
  -27.2760  -13.9310   20.4100 C   0  0  0  0  0  0  0  0  0  0  0  0
  -25.6730  -13.3210   20.5440 C   0  0  0  0  0  0  0  0  0  0  0  0
  -25.6830  -12.0030   20.8240 C   0  0  0  0  0  2  0  0  0  0  0  0
  -28.1060  -13.3440   20.0990 N   0  0  0  0  0  2  0  0  0  0  0  0
  -26.6040  -13.0460   20.4810 N   0  0  0  0  0  2  0  0  0  0  0  0
  -25.2290  -10.5140   21.0990 C   0  0  0  0  0  3  0  0  0  0  0  0
  -25.4600   -9.7090   22.2780 C   0  0  0  0  0  3  0  0  0  0  0  0
  -24.7700   -8.4760   22.5280 C   0  0  0  0  0  3  0  0  0  0  0  0
  -23.8240   -7.9800   21.5950 C   0  0  0  0  0  0  0  0  0  0  0  0
  -23.6720   -8.7020   20.3950 C   0  0  0  0  0  3  0  0  0  0  0  0
  -24.3540   -9.9180   20.1630 C   0  0  0  0  0  3  0  0  0  0  0  0
  -23.0730   -6.8200   21.7260 O   0  0  0  0  0  0  0  0  0  0  0  0
  -22.3990   -6.4630   22.8760 C   0  0  0  0  0  0  0  0  0  0  0  0
  -21.6310   -7.3840   23.6240 C   0  0  0  0  0  3  0  0  0  0  0  0
  -20.9150   -6.9520   24.7630 C   0  0  0  0  0  3  0  0  0  0  0  0
  -20.9480   -5.6000   25.1510 C   0  0  0  0  0  0  0  0  0  0  0  0
  -21.6880   -4.6760   24.3950 C   0  0  0  0  0  3  0  0  0  0  0  0
  -22.4040   -5.1020   23.2610 C   0  0  0  0  0  0  0  0  0  0  0  0
  -23.0930   -4.1940   22.5300 F   0  0  0  0  0  0  0  0  0  0  0  0
  -20.2710   -5.1880   26.2490 F   0  0  0  0  0  0  0  0  0  0  0  0
  -24.1630  -13.7010   20.4900 C   0  0  0  0  0  0  0  0  0  0  0  0
  -23.3630  -13.2130   21.4500 N   0  0  0  0  0  0  0  0  0  0  0  0
  -23.6880  -14.2440   19.5100 O   0  0  0  0  0  0  0  0  0  0  0  0
  -23.7320  -12.7430   22.2620 H   0  0  0  0  0  0  0  0  0  0  0  0
  -22.3690  -13.3900   21.4070 H   0  0  0  0  0  0  0  0  0  0  0  0
  -28.2480  -15.0450   20.4300 N   0  0  0  0  0  4  0  0  0  0  0  0
  -27.6930  -15.8520   20.6830 H   0  0  0  0  0  0  0  0  0  0  0  0
  -28.5590  -15.2050   19.4790 H   0  0  0  0  0  0  0  0  0  0  0  0
  -27.0240  -22.6450   18.5750 C   0  0  0  0  0 15  0  0  0  0  0  0
  -27.8230  -24.3640   18.7890 O   0  0  0  0  0  1  0  0  0  0  0  0
  -24.7530  -30.4100   22.7090 C   0  0  0  0  0  0  0  0  0  0  0  0
  -27.2650  -25.8580   18.8780 C   0  0  0  0  0  0  0  0  0  0  0  0
  -23.6970  -29.2460   20.8410 C   0  0  0  0  0  3  0  0  0  0  0  0
  -25.2190  -28.0570   19.1060 C   0  0  0  0  0  0  0  0  0  0  0  0
  -26.2610  -29.5240   20.7920 C   0  0  0  0  0  2  0  0  0  0  0  0
  -26.3780  -28.2270   19.8680 C   0  0  0  0  0  0  0  0  0  0  0  0
  -27.4160  -27.1390   19.7360 C   0  0  0  0  0  3  0  0  0  0  0  0
  -26.2140  -26.0800   17.9930 C   0  0  0  0  0  3  0  0  0  0  0  0
  -25.2090  -27.0600   18.1300 C   0  0  0  0  0  3  0  0  0  0  0  0
  -23.9760  -28.9160   19.3510 C   0  0  0  0  0  2  0  0  0  0  0  0
  -24.9330  -29.7630   21.5040 N   0  0  0  0  0  0  0  0  0  0  0  0
  -23.6330  -30.5060   23.2430 O   0  0  0  0  0  0  0  0  0  0  0  0
  -23.1100  -28.0120   21.5820 C   0  0  0  0  0  0  0  0  0  0  0  0
  -21.7990  -27.7460   21.4320 N   0  0  0  0  0  0  0  0  0  0  0  0
  -23.8440  -27.3100   22.2790 O   0  0  0  0  0  0  0  0  0  0  0  0
  -21.2430  -28.3810   20.8740 H   0  0  0  0  0  0  0  0  0  0  0  0
  -18.5660  -26.1130   21.7020 C   0  0  0  0  0  0  0  0  0  0  0  0
  -21.0910  -26.5960   22.0050 C   0  0  0  0  0  3  0  0  0  0  0  0
  -21.3240  -25.3200   21.1610 C   0  0  0  0  0  2  0  0  0  0  0  0
  -20.2380  -25.0880   20.1050 C   0  0  0  0  0  2  0  0  0  0  0  0
  -18.8660  -24.9540   20.7700 C   0  0  0  0  0  2  0  0  0  0  0  0
  -19.6080  -26.8940   22.2720 C   0  0  0  0  0  0  0  0  0  0  0  0
  -19.2690  -27.9810   23.1090 C   0  0  0  0  0  3  0  0  0  0  0  0
  -17.9230  -28.2900   23.3760 C   0  0  0  0  0  3  0  0  0  0  0  0
  -16.8960  -27.5060   22.8190 C   0  0  0  0  0  3  0  0  0  0  0  0
  -17.2200  -26.4170   21.9900 C   0  0  0  0  0  3  0  0  0  0  0  0
  -25.9340  -31.0720   23.4750 C   0  0  0  0  0  3  0  0  0  0  0  0
  -26.3400  -30.2810   24.7810 C   0  0  1  0  0  0  0  0  0  0  0  0
  -25.1520  -29.9830   25.7290 C   0  0  0  0  0  1  0  0  0  0  0  0
  -26.9990  -28.9290   24.4310 C   0  0  0  0  0  1  0  0  0  0  0  0
  -27.3870  -31.0910   25.5800 C   0  0  0  0  0  1  0  0  0  0  0  0
  -25.5320  -32.4480   23.8380 N   0  0  0  0  0  0  0  0  0  0  0  0
  -26.0530  -33.5710   23.3300 C   0  0  0  0  0  0  0  0  0  0  0  0
  -26.9790  -33.5600   22.5150 O   0  0  0  0  0  0  0  0  0  0  0  0
  -24.7300  -32.5340   24.4480 H   0  0  0  0  0  0  0  0  0  0  0  0
  -24.6340  -35.5530   22.6660 C   0  0  0  0  0  1  0  0  0  0  0  0
  -25.4630  -34.9210   23.7950 C   0  0  0  0  0  3  0  0  0  0  0  0
  -27.1210  -35.5270   25.5050 C   0  0  0  0  0  1  0  0  0  0  0  0
  -26.4870  -35.8900   24.2420 N   0  0  0  0  0  0  0  0  0  0  0  0
  -26.0860  -36.8190   24.3400 H   0  0  0  0  0  0  0  0  0  0  0  0
  1  3  1  0
  1  4  2  0
  2  5  1  0
  3  2  2  0
  4  5  1  0
 11 13  1  0
 12 11  1  0
 14 13  1  0
 15 22  1  0
 15 21  1  0
 17 16  1  0
 18 17  2  0
 18 19  1  0
 19 20  1  0
 23 15  1  0
 23 21  1  0
 24 23  1  0
 25 50  2  0
 25 29  1  0
 26 27  2  0
 28 19  1  0
 28 25  1  0
 29 26  1  0
 30 31  1  0
 31 32  2  0
 33 36  1  0
 33 32  1  0
 34 33  2  0
 35 34  1  0
 35 30  2  0
 36 37  1  0
 37 42  2  0
 37 38  1  0
 38 39  2  0
 39 40  1  0
 40 44  1  0
 41 40  2  0
 42 41  1  0
 43 42  1  0
 45 26  1  0
 45 46  1  0
 46 48  1  0
 47 45  2  0
 49 46  1  0
 50 51  1  0
 52 50  1  0
 54 56  1  0
 55 66  2  0
 56 61  1  0
 57 65  1  0
 57 67  1  0
 58 64  1  0
 58 60  1  0
 59 65  1  0
 60 59  1  0
 61 60  2  0
 62 63  1  0
 62 56  2  0
 63 58  2  0
 64 57  1  0
 65 55  1  0
 67 69  2  0
 68 67  1  0
 70 68  1  0
 71 80  2  0
 71 76  1  0
 72 68  1  0
 72 76  1  0
 73 72  1  0
 74 75  1  0
 74 73  1  0
 75 71  1  0
 76 77  2  0
 77 78  1  0
 79 78  2  0
 80 79  1  0
 81 55  1  0
 81 86  1  0
 81 82  1  0
 82 85  1  1
 82 83  1  0
 84 82  1  0
 86 89  1  0
 87 91  1  0
 87 86  1  0
 88 87  2  0
 91 90  1  0
 91 93  1  0
 93 94  1  0
 93 92  1  0
M  ISO  4  15 100  23 100  53 101  54 101
M  END
>  <TORSDO>  (23) 
F 20

>  <SCORE>  (23) 
-5.689

>  <name>  (23) 
22

>  <ligand_id>  (23) 
22

>  <original_smiles>  (23) 
[H]c1sc(C2([H])C([H])([H])C([H])([H])[N+]([H])(C([H])([H])C([H])([H])N([H])C(=O)N3C([H])([H])C([H])([H])C([H])([H])C([H])(n4nc(-c5c([H])c([H])c(Oc6c([H])c([H])c(F)c([H])c6F)c([H])c5[H])c(C(=O)N([H])[H])c4N([H])[H])C3([H])[H])C([H])([H])C2([H])[H])c([H])c1C([H])([H])Oc1c([H])c([H])c2c(c1[H])C([H])([H])N(C(=O)C([H])(N([H])C(=O)C([H])(N([H])C([H])([H])[H])C([H])([H])[H])C(C([H])([H])[H])(C([H])([H])[H])C([H])([H])[H])C([H])(C(=O)N([H])C1([H])c3c([H])c([H])c([H])c([H])c3C([H])([H])C([H])([H])C1([H])[H])C2([H])[H]

>  <smiles>  (23) 
[H]c1sc(C2([H])C([H])([H])C([H])([H])[N+]([H])(C([H])([H])C([H])([H])N([H])C(=O)N3C([H])([H])C([H])([H])C([H])([H])C([H])(n4nc(-c5c([H])c([H])c(Oc6c([H])c([H])c(F)c([H])c6F)c([H])c5[H])c(C(=O)N([H])[H])c4N([H])[H])C3([H])[H])C([H])([H])C2([H])[H])c([H])c1C([H])([H])Oc1c([H])c([H])c2c(c1[H])C([H])([H])N(C(=O)C([H])(N([H])C(=O)C([H])(N([H])C([H])([H])[H])C([H])([H])[H])C(C([H])([H])[H])(C([H])([H])[H])C([H])([H])[H])C([H])(C(=O)N([H])C1([H])c3c([H])c([H])c([H])c([H])c3C([H])([H])C([H])([H])C1([H])[H])C2([H])[H]

$$$$
23:0:0
     RDKit          3D

 89 97  0  0  1  0  0  0  0  0999 V2000
  -27.2490  -21.9620   21.4850 C   0  0  0  0  0  1  0  0  0  0  0  0
  -28.6900  -22.0710   20.9520 C   0  0  0  0  0  3  0  0  0  0  0  0
  -30.5920  -15.0020   20.2810 C   0  0  0  0  0  0  0  0  0  0  0  0
  -30.5000  -12.6780   19.2960 C   0  0  0  0  0  2  0  0  0  0  0  0
  -29.5470  -12.6830   18.0770 C   0  0  0  0  0  2  0  0  0  0  0  0
  -28.0840  -12.4720   18.5160 C   0  0  0  0  0  2  0  0  0  0  0  0
  -27.6920  -13.3650   19.7210 C   0  0  0  0  0  3  0  0  0  0  0  0
  -28.7590  -13.3190   20.8370 C   0  0  0  0  0  2  0  0  0  0  0  0
  -30.0350  -13.7320   20.2340 N   0  0  0  0  0  0  0  0  0  0  0  0
  -31.7890  -15.1300   19.9930 O   0  0  0  0  0  0  0  0  0  0  0  0
  -28.3100  -19.6450   19.8010 C   0  0  0  0  0  3  0  0  0  0  0  0
  -28.5650  -18.2280   19.7480 C   0  0  0  0  0  3  0  0  0  0  0  0
  -30.2910  -19.8550   21.0360 C   0  0  0  0  0  3  0  0  0  0  0  0
  -29.1520  -20.5560   20.5060 C   0  0  0  0  0  0  0  0  0  0  0  0
  -29.6910  -17.5950   20.3570 C   0  0  0  0  0  0  0  0  0  0  0  0
  -30.5470  -18.4840   20.9640 N   0  0  0  0  0  0  0  0  0  0  0  0
  -29.7000  -16.0820   20.4190 N   0  0  0  0  0  0  0  0  0  0  0  0
  -28.7670  -15.7150   20.5060 H   0  0  0  0  0  0  0  0  0  0  0  0
  -25.3050  -13.9340   20.4650 C   0  0  0  0  0  0  0  0  0  0  0  0
  -24.2490  -13.1510   20.8400 C   0  0  0  0  0  0  0  0  0  0  0  0
  -24.7250  -11.8040   20.8080 C   0  0  0  0  0  0  0  0  0  0  0  0
  -26.3550  -13.0630   20.2200 N   0  0  0  0  0  0  0  0  0  0  0  0
  -26.0140  -11.7770   20.4920 N   0  0  0  0  0  0  0  0  0  0  0  0
  -24.0090  -10.5360   20.9990 C   0  0  0  0  0  0  0  0  0  0  0  0
  -24.4420   -9.5790   21.9440 C   0  0  0  0  0  3  0  0  0  0  0  0
  -23.7260   -8.3760   22.1240 C   0  0  0  0  0  3  0  0  0  0  0  0
  -22.5620   -8.1210   21.3590 C   0  0  0  0  0  0  0  0  0  0  0  0
  -22.1490   -9.0670   20.4040 C   0  0  0  0  0  3  0  0  0  0  0  0
  -22.8670  -10.2610   20.2230 C   0  0  0  0  0  3  0  0  0  0  0  0
  -21.8190   -6.9710   21.4470 O   0  0  0  0  0  0  0  0  0  0  0  0
  -21.7560   -6.2410   22.6080 C   0  0  0  0  0  0  0  0  0  0  0  0
  -21.2850   -6.8010   23.8150 C   0  0  0  0  0  3  0  0  0  0  0  0
  -21.1730   -5.9980   24.9670 C   0  0  0  0  0  3  0  0  0  0  0  0
  -21.5190   -4.6350   24.9140 C   0  0  0  0  0  0  0  0  0  0  0  0
  -21.9830   -4.0740   23.7100 C   0  0  0  0  0  3  0  0  0  0  0  0
  -22.0980   -4.8740   22.5600 C   0  0  0  0  0  0  0  0  0  0  0  0
  -22.5250   -4.3240   21.3990 F   0  0  0  0  0  0  0  0  0  0  0  0
  -21.4040   -3.8600   26.0170 F   0  0  0  0  0  0  0  0  0  0  0  0
  -22.8480  -13.6170   21.1150 C   0  0  0  0  0  0  0  0  0  0  0  0
  -22.1280  -12.9160   21.9820 N   0  0  0  0  0  0  0  0  0  0  0  0
  -22.4020  -14.6390   20.5960 O   0  0  0  0  0  0  0  0  0  0  0  0
  -22.5030  -12.0890   22.4250 H   0  0  0  0  0  0  0  0  0  0  0  0
  -21.1890  -13.2100   22.2080 H   0  0  0  0  0  0  0  0  0  0  0  0
  -25.4530  -15.3060   20.2860 N   0  0  0  0  0  0  0  0  0  0  0  0
  -24.6700  -15.9410   20.4000 H   0  0  0  0  0  0  0  0  0  0  0  0
  -26.2700  -15.7570   19.8990 H   0  0  0  0  0  0  0  0  0  0  0  0
  -28.8200  -23.5060   20.1130 C   0  0  0  0  0  3  0  0  0  0  0  0
  -28.1240  -24.9170   20.6840 C   0  0  0  0  0  3  0  0  0  0  0  0
  -28.3380  -26.3700   20.2270 O   0  0  0  0  0  0  0  0  0  0  0  0
  -24.6230  -31.9430   23.2430 C   0  0  0  0  0  0  0  0  0  0  0  0
  -27.2520  -27.3000   20.2160 C   0  0  0  0  0  0  0  0  0  0  0  0
  -23.4330  -30.5370   21.6030 C   0  0  0  0  0  3  0  0  0  0  0  0
  -24.8970  -28.9790   20.1820 C   0  0  0  0  0  0  0  0  0  0  0  0
  -25.9800  -30.8420   21.4320 C   0  0  0  0  0  2  0  0  0  0  0  0
  -26.0700  -29.4530   20.7850 C   0  0  0  0  0  0  0  0  0  0  0  0
  -27.2510  -28.6300   20.7830 C   0  0  0  0  0  3  0  0  0  0  0  0
  -26.0560  -26.9110   19.5780 C   0  0  0  0  0  3  0  0  0  0  0  0
  -24.9000  -27.7180   19.5640 C   0  0  0  0  0  3  0  0  0  0  0  0
  -23.6590  -29.8590   20.2250 C   0  0  0  0  0  2  0  0  0  0  0  0
  -24.6980  -31.1280   22.1480 N   0  0  0  0  0  0  0  0  0  0  0  0
  -23.5350  -32.2170   23.7730 O   0  0  0  0  0  0  0  0  0  0  0  0
  -22.7670  -29.5230   22.5650 C   0  0  0  0  0  0  0  0  0  0  0  0
  -21.4430  -29.3320   22.4310 N   0  0  0  0  0  0  0  0  0  0  0  0
  -23.4430  -28.9080   23.3940 O   0  0  0  0  0  0  0  0  0  0  0  0
  -20.9530  -29.8810   21.7380 H   0  0  0  0  0  0  0  0  0  0  0  0
  -18.0760  -28.0890   22.9120 C   0  0  0  0  0  0  0  0  0  0  0  0
  -20.6290  -28.3870   23.1990 C   0  0  0  0  0  3  0  0  0  0  0  0
  -20.7550  -26.9540   22.6320 C   0  0  0  0  0  2  0  0  0  0  0  0
  -19.6650  -26.6110   21.6120 C   0  0  0  0  0  2  0  0  0  0  0  0
  -18.2760  -26.7390   22.2440 C   0  0  0  0  0  2  0  0  0  0  0  0
  -19.1800  -28.8700   23.3470 C   0  0  0  0  0  0  0  0  0  0  0  0
  -18.9380  -30.1310   23.9320 C   0  0  0  0  0  3  0  0  0  0  0  0
  -17.6250  -30.6130   24.0870 C   0  0  0  0  0  3  0  0  0  0  0  0
  -16.5350  -29.8300   23.6680 C   0  0  0  0  0  3  0  0  0  0  0  0
  -16.7620  -28.5700   23.0880 C   0  0  0  0  0  3  0  0  0  0  0  0
  -25.8970  -32.5870   23.8690 C   0  0  0  0  0  3  0  0  0  0  0  0
  -25.5780  -33.9880   24.1900 N   0  0  0  0  0  0  0  0  0  0  0  0
  -25.9120  -35.0400   23.4310 C   0  0  0  0  0  0  0  0  0  0  0  0
  -26.5880  -34.9340   22.4050 O   0  0  0  0  0  0  0  0  0  0  0  0
  -24.9780  -34.1430   24.9870 H   0  0  0  0  0  0  0  0  0  0  0  0
  -24.1860  -36.8340   23.0570 C   0  0  0  0  0  1  0  0  0  0  0  0
  -25.4190  -36.4290   23.8810 C   0  0  0  0  0  3  0  0  0  0  0  0
  -27.5440  -37.3210   24.7350 C   0  0  0  0  0  1  0  0  0  0  0  0
  -26.4530  -37.4830   23.7770 N   0  0  0  0  0  0  0  0  0  0  0  0
  -26.0440  -38.4040   23.9150 H   0  0  0  0  0  0  0  0  0  0  0  0
  -26.4050  -31.8310   25.1580 C   0  0  1  0  0  0  0  0  0  0  0  0
  -25.3050  -31.6000   26.2210 C   0  0  0  0  0  1  0  0  0  0  0  0
  -26.9950  -30.4500   24.7880 C   0  0  0  0  0  1  0  0  0  0  0  0
  -27.5480  -32.6350   25.8220 C   0  0  0  0  0  1  0  0  0  0  0  0
  2  1  1  0
  3 17  1  0
  4  9  1  0
  5  6  1  0
  5  4  1  0
  7  6  1  0
  7 22  1  0
  7  8  1  0
  9  3  1  0
  9  8  1  0
 10  3  2  0
 11 14  1  0
 12 11  2  0
 12 15  1  0
 14  2  1  0
 14 13  2  0
 15 17  1  0
 15 16  2  0
 16 13  1  0
 17 18  1  0
 19 20  2  0
 20 39  1  0
 21 20  1  0
 21 24  1  0
 22 19  1  0
 22 23  1  0
 23 21  2  0
 24 25  1  0
 25 26  2  0
 27 30  1  0
 27 26  1  0
 28 27  2  0
 29 28  1  0
 29 24  2  0
 30 31  1  0
 31 32  1  0
 32 33  2  0
 34 33  1  0
 34 38  1  0
 35 34  2  0
 36 31  2  0
 36 35  1  0
 37 36  1  0
 39 40  1  0
 40 43  1  0
 40 42  1  0
 41 39  2  0
 44 45  1  0
 44 19  1  0
 46 44  1  0
 47 48  2  0
 47  2  1  0
 49 48  1  0
 50 61  2  0
 51 49  1  0
 51 56  1  0
 52 60  1  0
 52 62  1  0
 53 59  1  0
 53 55  1  0
 54 60  1  0
 55 54  1  0
 56 55  2  0
 57 51  2  0
 58 57  1  0
 58 53  2  0
 59 52  1  0
 60 50  1  0
 62 64  2  0
 63 62  1  0
 65 63  1  0
 66 75  2  0
 66 71  1  0
 67 63  1  0
 67 71  1  0
 68 67  1  0
 69 70  1  0
 69 68  1  0
 70 66  1  0
 71 72  2  0
 72 73  1  0
 74 73  2  0
 75 74  1  0
 76 50  1  0
 76 77  1  0
 76 86  1  0
 77 80  1  0
 78 82  1  0
 78 77  1  0
 79 78  2  0
 82 81  1  0
 84 82  1  0
 84 85  1  0
 84 83  1  0
 86 89  1  1
 86 87  1  0
 88 86  1  0
M  ISO  4   3 100  17 100  48 101  49 101
M  END
>  <TORSDO>  (24) 
F 18

>  <SCORE>  (24) 
-14.415

>  <name>  (24) 
23

>  <ligand_id>  (24) 
23

>  <original_smiles>  (24) 
[H]c1nc(N([H])C(=O)N2C([H])([H])C([H])([H])C([H])([H])C([H])(n3nc(-c4c([H])c([H])c(Oc5c([H])c([H])c(F)c([H])c5F)c([H])c4[H])c(C(=O)N([H])[H])c3N([H])[H])C2([H])[H])c([H])c([H])c1C([H])(C([H])([H])[H])C([H])([H])C([H])([H])Oc1c([H])c([H])c2c(c1[H])C([H])([H])N(C(=O)C([H])(N([H])C(=O)C([H])(N([H])C([H])([H])[H])C([H])([H])[H])C(C([H])([H])[H])(C([H])([H])[H])C([H])([H])[H])C([H])(C(=O)N([H])C1([H])c3c([H])c([H])c([H])c([H])c3C([H])([H])C([H])([H])C1([H])[H])C2([H])[H]

>  <smiles>  (24) 
[H]c1nc(N([H])C(=O)N2C([H])([H])C([H])([H])C([H])([H])C([H])(n3nc(-c4c([H])c([H])c(Oc5c([H])c([H])c(F)c([H])c5F)c([H])c4[H])c(C(=O)N([H])[H])c3N([H])[H])C2([H])[H])c([H])c([H])c1C([H])(C([H])([H])[H])C([H])([H])C([H])([H])Oc1c([H])c([H])c2c(c1[H])C([H])([H])N(C(=O)C([H])(N([H])C(=O)C([H])(N([H])C([H])([H])[H])C([H])([H])[H])C(C([H])([H])[H])(C([H])([H])[H])C([H])([H])[H])C([H])(C(=O)N([H])C1([H])c3c([H])c([H])c([H])c([H])c3C([H])([H])C([H])([H])C1([H])[H])C2([H])[H]

$$$$
24:0:0
     RDKit          3D

 91 99  0  0  1  0  0  0  0  0999 V2000
  -27.8390  -24.0590   20.4410 C   0  0  0  0  0  2  0  0  0  0  0  0
  -29.6860  -24.4730   19.7120 C   0  0  0  0  0  2  0  0  0  0  0  0
  -28.3650  -25.2590   19.6100 C   0  0  0  0  0  3  0  0  0  0  0  0
  -28.8860  -23.2330   19.8000 N   0  0  1  0  0  4  0  0  0  0  0  0
  -28.6050  -22.9670   18.8680 H   0  0  0  0  0  0  0  0  0  0  0  0
  -28.3730  -26.6040   20.1850 O   0  0  0  0  0  0  0  0  0  0  0  0
  -24.5920  -31.8800   23.2450 C   0  0  0  0  0  0  0  0  0  0  0  0
  -27.2130  -27.3800   20.1550 C   0  0  0  0  0  0  0  0  0  0  0  0
  -23.3850  -30.4900   21.5990 C   0  0  0  0  0  3  0  0  0  0  0  0
  -24.8330  -28.9490   20.1670 C   0  0  0  0  0  0  0  0  0  0  0  0
  -25.9190  -30.8220   21.4110 C   0  0  0  0  0  2  0  0  0  0  0  0
  -25.9980  -29.4490   20.7620 C   0  0  0  0  0  0  0  0  0  0  0  0
  -27.1880  -28.6720   20.7510 C   0  0  0  0  0  3  0  0  0  0  0  0
  -26.0190  -26.9130   19.5560 C   0  0  0  0  0  3  0  0  0  0  0  0
  -24.8420  -27.6840   19.5610 C   0  0  0  0  0  3  0  0  0  0  0  0
  -23.5960  -29.8190   20.2150 C   0  0  0  0  0  2  0  0  0  0  0  0
  -24.6510  -31.0800   22.1420 N   0  0  0  0  0  0  0  0  0  0  0  0
  -23.5090  -32.1550   23.7830 O   0  0  0  0  0  0  0  0  0  0  0  0
  -22.7250  -29.4670   22.5540 C   0  0  0  0  0  0  0  0  0  0  0  0
  -21.4020  -29.2810   22.4170 N   0  0  0  0  0  0  0  0  0  0  0  0
  -23.4030  -28.8450   23.3760 O   0  0  0  0  0  0  0  0  0  0  0  0
  -20.9160  -29.8360   21.7270 H   0  0  0  0  0  0  0  0  0  0  0  0
  -18.0300  -28.0650   22.8820 C   0  0  0  0  0  0  0  0  0  0  0  0
  -20.5830  -28.3410   23.1810 C   0  0  0  0  0  3  0  0  0  0  0  0
  -20.7010  -26.9090   22.6100 C   0  0  0  0  0  2  0  0  0  0  0  0
  -19.6120  -26.5750   21.5850 C   0  0  0  0  0  2  0  0  0  0  0  0
  -18.2220  -26.7140   22.2130 C   0  0  0  0  0  2  0  0  0  0  0  0
  -19.1380  -28.8350   23.3220 C   0  0  0  0  0  0  0  0  0  0  0  0
  -18.9050  -30.0990   23.9060 C   0  0  0  0  0  3  0  0  0  0  0  0
  -17.5960  -30.5940   24.0550 C   0  0  0  0  0  3  0  0  0  0  0  0
  -16.5010  -29.8200   23.6320 C   0  0  0  0  0  3  0  0  0  0  0  0
  -16.7190  -28.5580   23.0510 C   0  0  0  0  0  3  0  0  0  0  0  0
  -25.8760  -32.5080   23.8700 C   0  0  0  0  0  3  0  0  0  0  0  0
  -26.3870  -31.7350   25.1480 C   0  0  1  0  0  0  0  0  0  0  0  0
  -25.2920  -31.5020   26.2130 C   0  0  0  0  0  1  0  0  0  0  0  0
  -26.9660  -30.3540   24.7560 C   0  0  0  0  0  1  0  0  0  0  0  0
  -27.5400  -32.5240   25.8120 C   0  0  0  0  0  1  0  0  0  0  0  0
  -25.5720  -33.9070   24.1990 N   0  0  0  0  0  0  0  0  0  0  0  0
  -25.9040  -34.9580   23.4360 C   0  0  0  0  0  0  0  0  0  0  0  0
  -26.5700  -34.8510   22.4030 O   0  0  0  0  0  0  0  0  0  0  0  0
  -24.9810  -34.0640   25.0020 H   0  0  0  0  0  0  0  0  0  0  0  0
  -24.1770  -36.7530   23.0880 C   0  0  0  0  0  1  0  0  0  0  0  0
  -25.4220  -36.3480   23.8930 C   0  0  0  0  0  3  0  0  0  0  0  0
  -27.5620  -37.2310   24.7110 C   0  0  0  0  0  1  0  0  0  0  0  0
  -26.4550  -37.3990   23.7730 N   0  0  0  0  0  0  0  0  0  0  0  0
  -26.0510  -38.3190   23.9210 H   0  0  0  0  0  0  0  0  0  0  0  0
  -29.5000  -22.0580   20.5260 C   0  0  0  0  0  3  0  0  0  0  0  0
  -28.9370  -20.6340   20.1340 C   0  0  0  0  0  3  0  0  0  0  0  0
  -29.3950  -18.1410   20.4900 C   0  0  0  0  0  0  0  0  0  0  0  0
  -29.6810  -19.4570   20.6840 N   0  0  0  0  0  0  0  0  0  0  0  0
  -28.4030  -17.7830   19.8530 O   0  0  0  0  0  0  0  0  0  0  0  0
  -30.5130  -19.6580   21.2260 H   0  0  0  0  0  0  0  0  0  0  0  0
  -30.3480  -17.0610   21.0850 C   0  0  0  0  0  2  0  0  0  0  0  0
  -30.6300  -14.5920   20.4930 C   0  0  0  0  0  0  0  0  0  0  0  0
  -30.3800  -12.4020   19.3610 C   0  0  0  0  0  2  0  0  0  0  0  0
  -29.4410  -12.5660   18.1460 C   0  0  0  0  0  2  0  0  0  0  0  0
  -27.9670  -12.4080   18.5710 C   0  0  0  0  0  2  0  0  0  0  0  0
  -27.6110  -13.2500   19.8250 C   0  0  0  0  0  3  0  0  0  0  0  0
  -28.6630  -13.0680   20.9400 C   0  0  0  0  0  2  0  0  0  0  0  0
  -29.9770  -13.3990   20.3690 N   0  0  0  0  0  0  0  0  0  0  0  0
  -31.7810  -14.7510   20.0770 O   0  0  0  0  0  0  0  0  0  0  0  0
  -29.9040  -15.6420   20.9530 N   0  0  0  0  0  0  0  0  0  0  0  0
  -28.9420  -15.4580   21.1940 H   0  0  0  0  0  0  0  0  0  0  0  0
  -25.2060  -13.8340   20.5210 C   0  0  0  0  0  0  0  0  0  0  0  0
  -24.1430  -13.0530   20.8860 C   0  0  0  0  0  0  0  0  0  0  0  0
  -24.6170  -11.7060   20.8660 C   0  0  0  0  0  0  0  0  0  0  0  0
  -26.2600  -12.9620   20.3000 N   0  0  0  0  0  0  0  0  0  0  0  0
  -25.9100  -11.6780   20.5670 N   0  0  0  0  0  0  0  0  0  0  0  0
  -23.9000  -10.4380   21.0580 C   0  0  0  0  0  0  0  0  0  0  0  0
  -24.3440   -9.4710   21.9870 C   0  0  0  0  0  3  0  0  0  0  0  0
  -23.6280   -8.2680   22.1660 C   0  0  0  0  0  3  0  0  0  0  0  0
  -22.4530   -8.0240   21.4160 C   0  0  0  0  0  0  0  0  0  0  0  0
  -22.0280   -8.9790   20.4770 C   0  0  0  0  0  3  0  0  0  0  0  0
  -22.7450  -10.1730   20.2950 C   0  0  0  0  0  3  0  0  0  0  0  0
  -21.7070   -6.8740   21.5050 O   0  0  0  0  0  0  0  0  0  0  0  0
  -21.6780   -6.1210   22.6520 C   0  0  0  0  0  0  0  0  0  0  0  0
  -21.2660   -6.6630   23.8890 C   0  0  0  0  0  3  0  0  0  0  0  0
  -21.1840   -5.8360   25.0270 C   0  0  0  0  0  3  0  0  0  0  0  0
  -21.5060   -4.4690   24.9310 C   0  0  0  0  0  0  0  0  0  0  0  0
  -21.9130   -3.9270   23.6980 C   0  0  0  0  0  3  0  0  0  0  0  0
  -21.9960   -4.7500   22.5620 C   0  0  0  0  0  0  0  0  0  0  0  0
  -22.3680   -4.2180   21.3730 F   0  0  0  0  0  0  0  0  0  0  0  0
  -21.4210   -3.6740   26.0220 F   0  0  0  0  0  0  0  0  0  0  0  0
  -22.7390  -13.5190   21.1450 C   0  0  0  0  0  0  0  0  0  0  0  0
  -22.0110  -12.8210   22.0090 N   0  0  0  0  0  0  0  0  0  0  0  0
  -22.2960  -14.5390   20.6170 O   0  0  0  0  0  0  0  0  0  0  0  0
  -22.3810  -11.9970   22.4590 H   0  0  0  0  0  0  0  0  0  0  0  0
  -21.0680  -13.1160   22.2250 H   0  0  0  0  0  0  0  0  0  0  0  0
  -25.3600  -15.2060   20.3390 N   0  0  0  0  0  0  0  0  0  0  0  0
  -24.5860  -15.8540   20.4460 H   0  0  0  0  0  0  0  0  0  0  0  0
  -26.2060  -15.6570   20.0130 H   0  0  0  0  0  0  0  0  0  0  0  0
  2  4  1  0
  3  2  1  0
  3  6  1  0
  3  1  1  0
  4  1  1  0
  4 47  1  0
  4  5  1  6
  7 18  2  0
  8  6  1  0
  8 13  1  0
  9 17  1  0
  9 19  1  0
 10 16  1  0
 10 12  1  0
 11 17  1  0
 12 11  1  0
 13 12  2  0
 14 15  1  0
 14  8  2  0
 15 10  2  0
 16  9  1  0
 17  7  1  0
 19 21  2  0
 20 19  1  0
 22 20  1  0
 23 32  2  0
 23 28  1  0
 24 20  1  0
 24 28  1  0
 25 24  1  0
 26 27  1  0
 26 25  1  0
 27 23  1  0
 28 29  2  0
 29 30  1  0
 31 30  2  0
 32 31  1  0
 33  7  1  0
 33 38  1  0
 33 34  1  0
 34 37  1  1
 34 35  1  0
 36 34  1  0
 38 41  1  0
 39 43  1  0
 39 38  1  0
 40 39  2  0
 43 42  1  0
 45 43  1  0
 45 46  1  0
 45 44  1  0
 48 47  2  0
 48 50  1  0
 49 50  1  0
 49 53  1  0
 50 52  1  0
 51 49  2  0
 54 62  1  0
 55 60  1  0
 56 57  1  0
 56 55  1  0
 58 57  1  0
 58 67  1  0
 58 59  1  0
 60 54  1  0
 60 59  1  0
 61 54  2  0
 62 53  1  0
 62 63  1  0
 64 65  2  0
 65 84  1  0
 66 65  1  0
 66 69  1  0
 67 64  1  0
 67 68  1  0
 68 66  2  0
 69 70  1  0
 70 71  2  0
 72 75  1  0
 72 71  1  0
 73 72  2  0
 74 73  1  0
 74 69  2  0
 75 76  1  0
 76 77  1  0
 77 78  2  0
 79 78  1  0
 79 83  1  0
 80 79  2  0
 81 76  2  0
 81 80  1  0
 82 81  1  0
 84 85  1  0
 85 88  1  0
 85 87  1  0
 86 84  2  0
 89 90  1  0
 89 64  1  0
 91 89  1  0
M  ISO  4   3 101   6 101  54 100  62 100
M  END
>  <TORSDO>  (25) 
F 20

>  <SCORE>  (25) 
-13.912

>  <name>  (25) 
24

>  <ligand_id>  (25) 
24

>  <original_smiles>  (25) 
[H]c1c([H])c([H])c2c(c1[H])C([H])([H])C([H])([H])C([H])([H])C2([H])N([H])C(=O)C1([H])N(C(=O)C([H])(N([H])C(=O)C([H])(N([H])C([H])([H])[H])C([H])([H])[H])C(C([H])([H])[H])(C([H])([H])[H])C([H])([H])[H])C([H])([H])c2c([H])c(OC3([H])C([H])([H])[N+]([H])(C([H])([H])C([H])([H])N([H])C(=O)C([H])([H])N([H])C(=O)N4C([H])([H])C([H])([H])C([H])([H])C([H])(n5nc(-c6c([H])c([H])c(Oc7c([H])c([H])c(F)c([H])c7F)c([H])c6[H])c(C(=O)N([H])[H])c5N([H])[H])C4([H])[H])C3([H])[H])c([H])c([H])c2C1([H])[H]

>  <smiles>  (25) 
[H]c1c([H])c([H])c2c(c1[H])C([H])([H])C([H])([H])C([H])([H])C2([H])N([H])C(=O)C1([H])N(C(=O)C([H])(N([H])C(=O)C([H])(N([H])C([H])([H])[H])C([H])([H])[H])C(C([H])([H])[H])(C([H])([H])[H])C([H])([H])[H])C([H])([H])c2c([H])c(OC3([H])C([H])([H])[N+]([H])(C([H])([H])C([H])([H])N([H])C(=O)C([H])([H])N([H])C(=O)N4C([H])([H])C([H])([H])C([H])([H])C([H])(n5nc(-c6c([H])c([H])c(Oc7c([H])c([H])c(F)c([H])c7F)c([H])c6[H])c(C(=O)N([H])[H])c5N([H])[H])C4([H])[H])C3([H])[H])c([H])c([H])c2C1([H])[H]

$$$$
25:0:0
     RDKit          3D

 92101  0  0  1  0  0  0  0  0999 V2000
  -29.6720  -22.2390   19.4290 C   0  0  0  0  0  3  0  0  0  0  0  0
  -29.6210  -21.8930   21.8200 C   0  0  0  0  0  3  0  0  0  0  0  0
  -29.1420  -23.5520   19.5970 C   0  0  0  0  0  3  0  0  0  0  0  0
  -29.0920  -23.1980   21.9840 C   0  0  0  0  0  3  0  0  0  0  0  0
  -29.9400  -21.3910   20.5390 C   0  0  0  0  0  0  0  0  0  0  0  0
  -28.8670  -24.0680   20.8870 C   0  0  0  0  0  0  0  0  0  0  0  0
  -30.7390  -20.0640   20.3840 C   0  0  0  0  0  2  0  0  0  0  0  0
  -30.6850  -14.6170   20.1000 C   0  0  0  0  0  0  0  0  0  0  0  0
  -30.3620  -12.4560   18.9370 C   0  0  0  0  0  2  0  0  0  0  0  0
  -29.3520  -12.6690   17.7890 C   0  0  0  0  0  2  0  0  0  0  0  0
  -27.9050  -12.5030   18.2970 C   0  0  0  0  0  2  0  0  0  0  0  0
  -27.6300  -13.3040   19.5990 C   0  0  0  0  0  3  0  0  0  0  0  0
  -28.7500  -13.0870   20.6410 C   0  0  0  0  0  2  0  0  0  0  0  0
  -30.0280  -13.4240   19.9970 N   0  0  0  0  0  0  0  0  0  0  0  0
  -31.8330  -14.7710   19.6740 O   0  0  0  0  0  0  0  0  0  0  0  0
  -29.7980  -16.4340   21.5870 C   0  0  0  0  0  2  0  0  0  0  0  0
  -29.4710  -16.5740   19.1790 C   0  0  0  0  0  2  0  0  0  0  0  0
  -30.4420  -17.8630   21.5710 C   0  0  0  0  0  2  0  0  0  0  0  0
  -30.1520  -17.9730   19.1530 C   0  0  0  0  0  2  0  0  0  0  0  0
  -29.8920  -15.7140   20.3050 N   0  0  0  0  0  0  0  0  0  0  0  0
  -30.0180  -18.7350   20.4290 N   0  0  2  0  0  4  0  0  0  0  0  0
  -29.0400  -18.9510   20.5530 H   0  0  0  0  0  0  0  0  0  0  0  0
  -25.2740  -13.8790   20.4470 C   0  0  0  0  0  0  0  0  0  0  0  0
  -24.2300  -13.0930   20.8540 C   0  0  0  0  0  0  0  0  0  0  0  0
  -24.6970  -11.7450   20.7750 C   0  0  0  0  0  0  0  0  0  0  0  0
  -26.3090  -13.0080   20.1460 N   0  0  0  0  0  0  0  0  0  0  0  0
  -25.9700  -11.7200   20.4010 N   0  0  0  0  0  0  0  0  0  0  0  0
  -23.9880  -10.4750   20.9730 C   0  0  0  0  0  0  0  0  0  0  0  0
  -24.4480   -9.5110   21.8980 C   0  0  0  0  0  3  0  0  0  0  0  0
  -23.7390   -8.3050   22.0870 C   0  0  0  0  0  3  0  0  0  0  0  0
  -22.5570   -8.0550   21.3510 C   0  0  0  0  0  0  0  0  0  0  0  0
  -22.1170   -9.0080   20.4150 C   0  0  0  0  0  3  0  0  0  0  0  0
  -22.8260  -10.2050   20.2240 C   0  0  0  0  0  3  0  0  0  0  0  0
  -21.8170   -6.9010   21.4510 O   0  0  0  0  0  0  0  0  0  0  0  0
  -21.7590   -6.1810   22.6170 C   0  0  0  0  0  0  0  0  0  0  0  0
  -21.2850   -6.7470   23.8210 C   0  0  0  0  0  3  0  0  0  0  0  0
  -21.1800   -5.9520   24.9800 C   0  0  0  0  0  3  0  0  0  0  0  0
  -21.5350   -4.5910   24.9330 C   0  0  0  0  0  0  0  0  0  0  0  0
  -22.0010   -4.0230   23.7350 C   0  0  0  0  0  3  0  0  0  0  0  0
  -22.1100   -4.8160   22.5800 C   0  0  0  0  0  0  0  0  0  0  0  0
  -22.5390   -4.2600   21.4200 F   0  0  0  0  0  0  0  0  0  0  0  0
  -21.4260   -3.8240   26.0440 F   0  0  0  0  0  0  0  0  0  0  0  0
  -22.8450  -13.5560   21.2030 C   0  0  0  0  0  0  0  0  0  0  0  0
  -22.1640  -12.8360   22.0890 N   0  0  0  0  0  0  0  0  0  0  0  0
  -22.3760  -14.5890   20.7270 O   0  0  0  0  0  0  0  0  0  0  0  0
  -22.5580  -12.0000   22.4950 H   0  0  0  0  0  0  0  0  0  0  0  0
  -21.2370  -13.1250   22.3650 H   0  0  0  0  0  0  0  0  0  0  0  0
  -25.4230  -15.2540   20.2880 N   0  0  0  0  0  0  0  0  0  0  0  0
  -24.6620  -15.9050   20.4480 H   0  0  0  0  0  0  0  0  0  0  0  0
  -26.2600  -15.7000   19.9390 H   0  0  0  0  0  0  0  0  0  0  0  0
  -28.2430  -25.4640   21.1700 C   0  0  0  0  0  2  0  0  0  0  0  0
  -28.4510  -26.5780   20.2520 O   0  0  0  0  0  0  0  0  0  0  0  0
  -24.6390  -31.8890   23.2260 C   0  0  0  0  0  0  0  0  0  0  0  0
  -27.3460  -27.4200   20.1930 C   0  0  0  0  0  0  0  0  0  0  0  0
  -23.4680  -30.4720   21.5740 C   0  0  0  0  0  3  0  0  0  0  0  0
  -24.9530  -28.9470   20.1630 C   0  0  0  0  0  0  0  0  0  0  0  0
  -25.9980  -30.8430   21.4080 C   0  0  0  0  0  2  0  0  0  0  0  0
  -26.1050  -29.4690   20.7670 C   0  0  0  0  0  0  0  0  0  0  0  0
  -27.3090  -28.7140   20.7770 C   0  0  0  0  0  3  0  0  0  0  0  0
  -26.1810  -26.9330   19.5650 C   0  0  0  0  0  3  0  0  0  0  0  0
  -24.9890  -27.6810   19.5550 C   0  0  0  0  0  3  0  0  0  0  0  0
  -23.7000  -29.7960   20.1970 C   0  0  0  0  0  2  0  0  0  0  0  0
  -24.7190  -31.0840   22.1280 N   0  0  0  0  0  0  0  0  0  0  0  0
  -23.5480  -32.1530   23.7500 O   0  0  0  0  0  0  0  0  0  0  0  0
  -22.8100  -29.4480   22.5290 C   0  0  0  0  0  0  0  0  0  0  0  0
  -21.4840  -29.2750   22.4060 N   0  0  0  0  0  0  0  0  0  0  0  0
  -23.4920  -28.8120   23.3360 O   0  0  0  0  0  0  0  0  0  0  0  0
  -20.9940  -29.8430   21.7300 H   0  0  0  0  0  0  0  0  0  0  0  0
  -18.1010  -28.1060   22.9210 C   0  0  0  0  0  0  0  0  0  0  0  0
  -20.6640  -28.3340   23.1700 C   0  0  0  0  0  3  0  0  0  0  0  0
  -20.7450  -26.9110   22.5710 C   0  0  0  0  0  2  0  0  0  0  0  0
  -19.6300  -26.6160   21.5620 C   0  0  0  0  0  2  0  0  0  0  0  0
  -18.2560  -26.7660   22.2230 C   0  0  0  0  0  2  0  0  0  0  0  0
  -19.2320  -28.8500   23.3510 C   0  0  0  0  0  0  0  0  0  0  0  0
  -19.0330  -30.1070   23.9620 C   0  0  0  0  0  3  0  0  0  0  0  0
  -17.7370  -30.6200   24.1470 C   0  0  0  0  0  3  0  0  0  0  0  0
  -16.6200  -29.8730   23.7360 C   0  0  0  0  0  3  0  0  0  0  0  0
  -16.8030  -28.6180   23.1270 C   0  0  0  0  0  3  0  0  0  0  0  0
  -25.9110  -32.5330   23.8620 C   0  0  0  0  0  3  0  0  0  0  0  0
  -25.5860  -33.9300   24.1830 N   0  0  0  0  0  0  0  0  0  0  0  0
  -25.9150  -34.9820   23.4220 C   0  0  0  0  0  0  0  0  0  0  0  0
  -26.5940  -34.8800   22.3970 O   0  0  0  0  0  0  0  0  0  0  0  0
  -24.9860  -34.0830   24.9800 H   0  0  0  0  0  0  0  0  0  0  0  0
  -24.1760  -36.7570   23.0400 C   0  0  0  0  0  1  0  0  0  0  0  0
  -25.4100  -36.3670   23.8690 C   0  0  0  0  0  3  0  0  0  0  0  0
  -27.5260  -37.2730   24.7240 C   0  0  0  0  0  1  0  0  0  0  0  0
  -26.4340  -37.4290   23.7660 N   0  0  0  0  0  0  0  0  0  0  0  0
  -26.0180  -38.3460   23.9060 H   0  0  0  0  0  0  0  0  0  0  0  0
  -26.4190  -31.7690   25.1460 C   0  0  1  0  0  0  0  0  0  0  0  0
  -25.3150  -31.5230   26.2010 C   0  0  0  0  0  1  0  0  0  0  0  0
  -27.0190  -30.3980   24.7620 C   0  0  0  0  0  1  0  0  0  0  0  0
  -27.5540  -32.5750   25.8200 C   0  0  0  0  0  1  0  0  0  0  0  0
  1  3  2  0
  1  5  1  0
  2  4  1  0
  3  6  1  0
  5  2  2  0
  6 51  1  0
  6  4  2  0
  7 21  1  0
  7  5  1  0
  8 20  1  0
  9 14  1  0
 10 11  1  0
 10  9  1  0
 12 11  1  0
 12 26  1  0
 12 13  1  0
 14  8  1  0
 14 13  1  0
 15  8  2  0
 17 20  1  0
 18 16  1  0
 19 17  1  0
 19 21  1  0
 20 16  1  0
 21 22  1  1
 21 18  1  0
 23 24  2  0
 24 43  1  0
 25 24  1  0
 25 28  1  0
 26 27  1  0
 26 23  1  0
 27 25  2  0
 28 29  1  0
 29 30  2  0
 31 34  1  0
 31 30  1  0
 32 31  2  0
 33 32  1  0
 33 28  2  0
 34 35  1  0
 35 36  1  0
 36 37  2  0
 38 37  1  0
 38 42  1  0
 39 38  2  0
 40 35  2  0
 40 39  1  0
 41 40  1  0
 43 44  1  0
 44 47  1  0
 44 46  1  0
 45 43  2  0
 48 23  1  0
 48 49  1  0
 50 48  1  0
 52 51  1  0
 53 64  2  0
 54 52  1  0
 54 59  1  0
 55 63  1  0
 55 65  1  0
 56 62  1  0
 56 58  1  0
 57 63  1  0
 58 59  2  0
 58 57  1  0
 60 54  2  0
 61 60  1  0
 61 56  2  0
 62 55  1  0
 63 53  1  0
 65 67  2  0
 66 65  1  0
 68 66  1  0
 69 78  2  0
 69 74  1  0
 70 66  1  0
 70 74  1  0
 71 70  1  0
 72 73  1  0
 72 71  1  0
 73 69  1  0
 74 75  2  0
 75 76  1  0
 77 76  2  0
 78 77  1  0
 79 53  1  0
 79 80  1  0
 79 89  1  0
 80 83  1  0
 81 85  1  0
 81 80  1  0
 82 81  2  0
 85 84  1  0
 87 85  1  0
 87 88  1  0
 87 86  1  0
 89 92  1  1
 89 90  1  0
 91 89  1  0
M  ISO  4   8 100  20 100  51 101  52 101
M  END
>  <TORSDO>  (26) 
F 18

>  <SCORE>  (26) 
-14.731

>  <name>  (26) 
25

>  <ligand_id>  (26) 
25

>  <original_smiles>  (26) 
[H]c1c([H])c([H])c2c(c1[H])C([H])([H])C([H])([H])C([H])([H])C2([H])N([H])C(=O)C1([H])N(C(=O)C([H])(N([H])C(=O)C([H])(N([H])C([H])([H])[H])C([H])([H])[H])C(C([H])([H])[H])(C([H])([H])[H])C([H])([H])[H])C([H])([H])c2c([H])c(OC([H])([H])c3c([H])c([H])c(C([H])([H])[N+]4([H])C([H])([H])C([H])([H])N(C(=O)N5C([H])([H])C([H])([H])C([H])([H])C([H])(n6nc(-c7c([H])c([H])c(Oc8c([H])c([H])c(F)c([H])c8F)c([H])c7[H])c(C(=O)N([H])[H])c6N([H])[H])C5([H])[H])C([H])([H])C4([H])[H])c([H])c3[H])c([H])c([H])c2C1([H])[H]

>  <smiles>  (26) 
[H]c1c([H])c([H])c2c(c1[H])C([H])([H])C([H])([H])C([H])([H])C2([H])N([H])C(=O)C1([H])N(C(=O)C([H])(N([H])C(=O)C([H])(N([H])C([H])([H])[H])C([H])([H])[H])C(C([H])([H])[H])(C([H])([H])[H])C([H])([H])[H])C([H])([H])c2c([H])c(OC([H])([H])c3c([H])c([H])c(C([H])([H])[N+]4([H])C([H])([H])C([H])([H])N(C(=O)N5C([H])([H])C([H])([H])C([H])([H])C([H])(n6nc(-c7c([H])c([H])c(Oc8c([H])c([H])c(F)c([H])c8F)c([H])c7[H])c(C(=O)N([H])[H])c6N([H])[H])C5([H])[H])C([H])([H])C4([H])[H])c([H])c3[H])c([H])c([H])c2C1([H])[H]

$$$$
26:0:0
     RDKit          3D

100109  0  0  1  0  0  0  0  0999 V2000
  -27.5510  -24.4640   20.2610 C   0  0  0  0  0  3  0  0  0  0  0  0
  -30.0610  -23.4390   20.5450 C   0  0  0  0  0  3  0  0  0  0  0  0
  -27.7340  -23.0500   20.1280 C   0  0  0  0  0  0  0  0  0  0  0  0
  -29.0440  -22.4910   20.2620 C   0  0  0  0  0  0  0  0  0  0  0  0
  -28.6500  -25.3340   20.4820 C   0  0  0  0  0  0  0  0  0  0  0  0
  -29.8790  -24.7880   20.6510 N   0  0  0  0  0  0  0  0  0  0  0  0
  -25.1300  -22.6500   20.0870 C   0  0  0  0  0  2  0  0  0  0  0  0
  -24.1970  -22.0570   19.0100 C   0  0  0  0  0  2  0  0  0  0  0  0
  -26.4820  -21.8680   18.2330 C   0  0  0  0  0  2  0  0  0  0  0  0
  -26.5500  -22.1600   19.7360 C   0  0  0  0  0  3  0  0  0  0  0  0
  -25.0960  -21.2370   18.0650 C   0  0  0  0  0  3  0  0  0  0  0  0
  -24.6240  -21.2040   16.6670 N   0  0  0  0  0  4  0  0  0  0  0  0
  -24.5240  -22.1280   16.2860 H   0  0  0  0  0  0  0  0  0  0  0  0
  -23.7330  -20.7410   16.6070 H   0  0  0  0  0  0  0  0  0  0  0  0
  -25.2700  -20.6950   16.0900 H   0  0  0  0  0  0  0  0  0  0  0  0
  -28.6170  -26.7490   20.5750 O   0  0  0  0  0  0  0  0  0  0  0  0
  -24.7900  -32.0820   23.5790 C   0  0  0  0  0  0  0  0  0  0  0  0
  -27.4680  -27.5520   20.5480 C   0  0  0  0  0  0  0  0  0  0  0  0
  -23.6280  -30.7100   21.8850 C   0  0  0  0  0  3  0  0  0  0  0  0
  -25.1110  -29.1670   20.4850 C   0  0  0  0  0  0  0  0  0  0  0  0
  -26.1700  -31.0140   21.7870 C   0  0  0  0  0  2  0  0  0  0  0  0
  -26.2580  -29.6420   21.1320 C   0  0  0  0  0  0  0  0  0  0  0  0
  -27.4360  -28.8420   21.1610 C   0  0  0  0  0  3  0  0  0  0  0  0
  -26.3110  -27.1410   19.8540 C   0  0  0  0  0  3  0  0  0  0  0  0
  -25.1360  -27.9190   19.8410 C   0  0  0  0  0  3  0  0  0  0  0  0
  -23.8800  -30.0490   20.5030 C   0  0  0  0  0  2  0  0  0  0  0  0
  -24.8790  -31.2880   22.4730 N   0  0  0  0  0  0  0  0  0  0  0  0
  -23.6940  -32.3600   24.0850 O   0  0  0  0  0  0  0  0  0  0  0  0
  -22.9330  -29.6850   22.8120 C   0  0  0  0  0  0  0  0  0  0  0  0
  -21.6190  -29.4850   22.6130 N   0  0  0  0  0  0  0  0  0  0  0  0
  -23.5770  -29.0740   23.6710 O   0  0  0  0  0  0  0  0  0  0  0  0
  -21.1620  -30.0320   21.8980 H   0  0  0  0  0  0  0  0  0  0  0  0
  -18.2350  -28.2530   22.9390 C   0  0  0  0  0  0  0  0  0  0  0  0
  -20.7730  -28.5380   23.3380 C   0  0  0  0  0  3  0  0  0  0  0  0
  -20.9180  -27.1080   22.7670 C   0  0  0  0  0  2  0  0  0  0  0  0
  -19.8720  -26.7760   21.6980 C   0  0  0  0  0  2  0  0  0  0  0  0
  -18.4580  -26.9060   22.2720 C   0  0  0  0  0  2  0  0  0  0  0  0
  -19.3230  -29.0260   23.4250 C   0  0  0  0  0  0  0  0  0  0  0  0
  -19.0610  -30.2860   24.0050 C   0  0  0  0  0  3  0  0  0  0  0  0
  -17.7440  -30.7730   24.1080 C   0  0  0  0  0  3  0  0  0  0  0  0
  -16.6690  -29.9960   23.6380 C   0  0  0  0  0  3  0  0  0  0  0  0
  -16.9160  -28.7390   23.0590 C   0  0  0  0  0  3  0  0  0  0  0  0
  -26.0600  -32.6970   24.2480 C   0  0  0  0  0  3  0  0  0  0  0  0
  -25.7700  -34.1080   24.5340 N   0  0  0  0  0  0  0  0  0  0  0  0
  -26.1360  -35.1340   23.7550 C   0  0  0  0  0  0  0  0  0  0  0  0
  -26.8220  -34.9910   22.7400 O   0  0  0  0  0  0  0  0  0  0  0  0
  -25.1650  -34.2950   25.3210 H   0  0  0  0  0  0  0  0  0  0  0  0
  -24.4340  -36.9400   23.3330 C   0  0  0  0  0  1  0  0  0  0  0  0
  -25.6650  -36.5430   24.1640 C   0  0  0  0  0  3  0  0  0  0  0  0
  -27.8090  -37.4240   24.9770 C   0  0  0  0  0  1  0  0  0  0  0  0
  -26.7140  -37.5780   24.0240 N   0  0  0  0  0  0  0  0  0  0  0  0
  -26.3200  -38.5080   24.1380 H   0  0  0  0  0  0  0  0  0  0  0  0
  -26.4950  -31.9420   25.5650 C   0  0  1  0  0  0  0  0  0  0  0  0
  -25.3380  -31.7190   26.5660 C   0  0  0  0  0  1  0  0  0  0  0  0
  -27.1000  -30.5590   25.2290 C   0  0  0  0  0  1  0  0  0  0  0  0
  -27.6020  -32.7450   26.2870 C   0  0  0  0  0  1  0  0  0  0  0  0
  -29.4240  -20.9980   19.8840 C   0  0  0  0  0  2  0  0  0  0  0  0
  -29.6950  -19.9270   20.9250 N   0  0  0  0  0  4  0  0  0  0  0  0
  -29.0150  -20.0040   21.6640 H   0  0  0  0  0  0  0  0  0  0  0  0
  -30.6000  -20.1140   21.3280 H   0  0  0  0  0  0  0  0  0  0  0  0
  -29.6860  -18.4860   20.4250 C   0  0  0  0  0  3  0  0  0  0  0  0
  -30.4050  -17.3790   21.3180 C   0  0  0  0  0  3  0  0  0  0  0  0
  -30.8640  -14.8750   20.7070 C   0  0  0  0  0  0  0  0  0  0  0  0
  -30.6940  -12.6700   19.5670 C   0  0  0  0  0  2  0  0  0  0  0  0
  -29.8050  -12.8360   18.3160 C   0  0  0  0  0  2  0  0  0  0  0  0
  -28.3120  -12.6720   18.6760 C   0  0  0  0  0  2  0  0  0  0  0  0
  -27.9020  -13.4950   19.9290 C   0  0  0  0  0  3  0  0  0  0  0  0
  -28.9140  -13.3070   21.0800 C   0  0  0  0  0  2  0  0  0  0  0  0
  -30.2430  -13.6630   20.5610 N   0  0  0  0  0  0  0  0  0  0  0  0
  -32.0420  -15.0400   20.3840 O   0  0  0  0  0  0  0  0  0  0  0  0
  -30.0650  -15.9320   21.0570 N   0  0  0  0  0  0  0  0  0  0  0  0
  -29.1100  -15.6750   21.2550 H   0  0  0  0  0  0  0  0  0  0  0  0
  -25.4770  -14.0710   20.5540 C   0  0  0  0  0  0  0  0  0  0  0  0
  -24.4010  -13.2870   20.8740 C   0  0  0  0  0  0  0  0  0  0  0  0
  -24.8730  -11.9390   20.8450 C   0  0  0  0  0  0  0  0  0  0  0  0
  -26.5350  -13.1980   20.3520 N   0  0  0  0  0  0  0  0  0  0  0  0
  -26.1740  -11.9110   20.5850 N   0  0  0  0  0  0  0  0  0  0  0  0
  -24.1480  -10.6710   20.9880 C   0  0  0  0  0  0  0  0  0  0  0  0
  -24.5360   -9.6990   21.9370 C   0  0  0  0  0  3  0  0  0  0  0  0
  -23.8090   -8.4960   22.0690 C   0  0  0  0  0  3  0  0  0  0  0  0
  -22.6780   -8.2570   21.2520 C   0  0  0  0  0  0  0  0  0  0  0  0
  -22.3100   -9.2190   20.2940 C   0  0  0  0  0  3  0  0  0  0  0  0
  -23.0390  -10.4130   20.1610 C   0  0  0  0  0  3  0  0  0  0  0  0
  -21.9290   -7.1060   21.2900 O   0  0  0  0  0  0  0  0  0  0  0  0
  -21.8010   -6.3690   22.4400 C   0  0  0  0  0  0  0  0  0  0  0  0
  -21.2960   -6.9300   23.6330 C   0  0  0  0  0  3  0  0  0  0  0  0
  -21.1150   -6.1180   24.7710 C   0  0  0  0  0  3  0  0  0  0  0  0
  -21.4300   -4.7480   24.7170 C   0  0  0  0  0  0  0  0  0  0  0  0
  -21.9280   -4.1860   23.5280 C   0  0  0  0  0  3  0  0  0  0  0  0
  -22.1100   -4.9950   22.3930 C   0  0  0  0  0  0  0  0  0  0  0  0
  -22.5700   -4.4430   21.2440 F   0  0  0  0  0  0  0  0  0  0  0  0
  -21.2500   -3.9660   25.8080 F   0  0  0  0  0  0  0  0  0  0  0  0
  -22.9910  -13.7550   21.0950 C   0  0  0  0  0  0  0  0  0  0  0  0
  -22.2380  -13.0600   21.9400 N   0  0  0  0  0  0  0  0  0  0  0  0
  -22.5620  -14.7730   20.5550 O   0  0  0  0  0  0  0  0  0  0  0  0
  -22.5970  -12.2410   22.4100 H   0  0  0  0  0  0  0  0  0  0  0  0
  -21.2890  -13.3540   22.1250 H   0  0  0  0  0  0  0  0  0  0  0  0
  -25.6380  -15.4430   20.3960 N   0  0  0  0  0  0  0  0  0  0  0  0
  -24.8470  -16.0770   20.4420 H   0  0  0  0  0  0  0  0  0  0  0  0
  -26.4750  -15.8800   20.0340 H   0  0  0  0  0  0  0  0  0  0  0  0
  1  5  1  0
  2  6  1  0
  3  1  2  0
  3  4  1  0
  4  2  2  0
  5 16  1  0
  5  6  2  0
  8  7  1  0
  9 10  1  0
 10  7  1  0
 10  3  1  0
 11 12  1  0
 11  9  1  0
 11  8  1  0
 13 12  1  0
 14 12  1  0
 15 12  1  0
 17 28  2  0
 18 16  1  0
 18 23  1  0
 19 27  1  0
 19 29  1  0
 20 26  1  0
 20 22  1  0
 21 27  1  0
 22 23  2  0
 22 21  1  0
 24 18  2  0
 25 24  1  0
 25 20  2  0
 26 19  1  0
 27 17  1  0
 29 31  2  0
 30 29  1  0
 32 30  1  0
 33 42  2  0
 33 38  1  0
 34 30  1  0
 34 38  1  0
 35 34  1  0
 36 37  1  0
 36 35  1  0
 37 33  1  0
 38 39  2  0
 39 40  1  0
 41 40  2  0
 42 41  1  0
 43 17  1  0
 43 44  1  0
 43 53  1  0
 44 47  1  0
 45 49  1  0
 45 44  1  0
 46 45  2  0
 49 48  1  0
 51 52  1  0
 51 49  1  0
 51 50  1  0
 53 56  1  1
 53 54  1  0
 55 53  1  0
 57  4  1  0
 57 58  1  0
 58 60  1  0
 58 59  1  0
 61 58  1  0
 61 62  2  0
 63 71  1  0
 64 69  1  0
 65 66  1  0
 65 64  1  0
 67 66  1  0
 67 76  1  0
 67 68  1  0
 69 63  1  0
 69 68  1  0
 70 63  2  0
 71 72  1  0
 71 62  1  0
 73 74  2  0
 74 93  1  0
 75 74  1  0
 75 78  1  0
 76 73  1  0
 76 77  1  0
 77 75  2  0
 78 79  1  0
 79 80  2  0
 81 84  1  0
 81 80  1  0
 82 81  2  0
 83 82  1  0
 83 78  2  0
 84 85  1  0
 85 86  1  0
 86 87  2  0
 88 87  1  0
 88 92  1  0
 89 88  2  0
 90 85  2  0
 90 89  1  0
 91 90  1  0
 93 94  1  0
 94 97  1  0
 94 96  1  0
 95 93  2  0
 98 99  1  0
 98 73  1  0
100 98  1  0
M  ISO  4   5 101  16 101  63 100  71 100
M  END
>  <TORSDO>  (27) 
F 22

>  <SCORE>  (27) 
-12.653

>  <name>  (27) 
26

>  <ligand_id>  (27) 
26

>  <original_smiles>  (27) 
[H]c1nc(Oc2c([H])c([H])c3c(c2[H])C([H])([H])N(C(=O)C([H])(N([H])C(=O)C([H])(N([H])C([H])([H])[H])C([H])([H])[H])C(C([H])([H])[H])(C([H])([H])[H])C([H])([H])[H])C([H])(C(=O)N([H])C2([H])c4c([H])c([H])c([H])c([H])c4C([H])([H])C([H])([H])C2([H])[H])C3([H])[H])c([H])c(C2([H])C([H])([H])C([H])([H])C([H])([N+]([H])([H])[H])C2([H])[H])c1C([H])([H])[N+]([H])([H])C([H])([H])C([H])([H])N([H])C(=O)N1C([H])([H])C([H])([H])C([H])([H])C([H])(n2nc(-c3c([H])c([H])c(Oc4c([H])c([H])c(F)c([H])c4F)c([H])c3[H])c(C(=O)N([H])[H])c2N([H])[H])C1([H])[H]

>  <smiles>  (27) 
[H]c1nc(Oc2c([H])c([H])c3c(c2[H])C([H])([H])N(C(=O)C([H])(N([H])C(=O)C([H])(N([H])C([H])([H])[H])C([H])([H])[H])C(C([H])([H])[H])(C([H])([H])[H])C([H])([H])[H])C([H])(C(=O)N([H])C2([H])c4c([H])c([H])c([H])c([H])c4C([H])([H])C([H])([H])C2([H])[H])C3([H])[H])c([H])c(C2([H])C([H])([H])C([H])([H])C([H])([N+]([H])([H])[H])C2([H])[H])c1C([H])([H])[N+]([H])([H])C([H])([H])C([H])([H])N([H])C(=O)N1C([H])([H])C([H])([H])C([H])([H])C([H])(n2nc(-c3c([H])c([H])c(Oc4c([H])c([H])c(F)c([H])c4F)c([H])c3[H])c(C(=O)N([H])[H])c2N([H])[H])C1([H])[H]

$$$$
27:0:0
     RDKit          3D

 90 99  0  0  1  0  0  0  0  0999 V2000
  -30.3680  -15.7390   20.1980 C   0  0  0  0  0  0  0  0  0  0  0  0
  -30.4900  -13.1360   19.5790 C   0  0  0  0  0  2  0  0  0  0  0  0
  -29.6300  -12.6670   18.3690 C   0  0  0  0  0  2  0  0  0  0  0  0
  -28.1900  -12.3540   18.8030 C   0  0  0  0  0  2  0  0  0  0  0  0
  -27.6600  -13.4230   19.7840 C   0  0  0  0  0  3  0  0  0  0  0  0
  -28.6590  -13.7950   20.9050 C   0  0  0  0  0  2  0  0  0  0  0  0
  -29.8610  -14.3650   20.2490 N   0  0  0  0  0  0  0  0  0  0  0  0
  -31.5980  -15.6740   19.9950 O   0  0  0  0  0  0  0  0  0  0  0  0
  -28.6720  -19.7120   20.9200 C   0  0  0  0  0  3  0  0  0  0  0  0
  -28.7790  -22.1620   19.7390 C   0  0  0  0  0  0  0  0  0  0  0  0
  -28.3620  -21.2030   20.7940 C   0  0  0  0  0  0  0  0  0  0  0  0
  -29.5460  -21.1850   18.9050 C   0  0  0  0  0  0  0  0  0  0  0  0
  -29.4660  -18.7900   20.0660 C   0  0  0  0  0  0  0  0  0  0  0  0
  -30.0190  -21.7480   17.5690 C   0  0  0  0  0  2  0  0  0  0  0  0
  -29.8350  -23.2820   17.3850 C   0  0  0  0  0  2  0  0  0  0  0  0
  -28.4300  -23.8310   17.7370 C   0  0  0  0  0  2  0  0  0  0  0  0
  -28.1700  -23.8610   19.2550 C   0  0  0  0  0  3  0  0  0  0  0  0
  -27.4440  -21.7690   21.8590 C   0  0  0  0  0  1  0  0  0  0  0  0
  -29.8590  -19.7440   19.0640 N   0  0  0  0  0  0  0  0  0  0  0  0
  -29.5670  -17.0750   20.2620 N   0  0  0  0  0  0  0  0  0  0  0  0
  -28.6630  -16.7730   20.5880 H   0  0  0  0  0  0  0  0  0  0  0  0
  -25.2990  -14.0170   20.5100 C   0  0  0  0  0  0  0  0  0  0  0  0
  -24.2180  -13.2670   20.8720 C   0  0  0  0  0  0  0  0  0  0  0  0
  -24.6570  -11.9070   20.8590 C   0  0  0  0  0  0  0  0  0  0  0  0
  -26.3260  -13.1200   20.2870 N   0  0  0  0  0  0  0  0  0  0  0  0
  -25.9530  -11.8440   20.5650 N   0  0  0  0  0  0  0  0  0  0  0  0
  -23.8970  -10.6630   21.0500 C   0  0  0  0  0  0  0  0  0  0  0  0
  -24.3080   -9.6790   21.9760 C   0  0  0  0  0  3  0  0  0  0  0  0
  -23.5460   -8.5040   22.1580 C   0  0  0  0  0  3  0  0  0  0  0  0
  -22.3580   -8.3060   21.4150 C   0  0  0  0  0  0  0  0  0  0  0  0
  -21.9650   -9.2780   20.4790 C   0  0  0  0  0  3  0  0  0  0  0  0
  -22.7270  -10.4430   20.2950 C   0  0  0  0  0  3  0  0  0  0  0  0
  -21.5690   -7.1850   21.5070 O   0  0  0  0  0  0  0  0  0  0  0  0
  -21.5320   -6.4210   22.6470 C   0  0  0  0  0  0  0  0  0  0  0  0
  -21.1760   -6.9670   23.8980 C   0  0  0  0  0  3  0  0  0  0  0  0
  -21.0830   -6.1330   25.0300 C   0  0  0  0  0  3  0  0  0  0  0  0
  -21.3370   -4.7540   24.9110 C   0  0  0  0  0  0  0  0  0  0  0  0
  -21.6870   -4.2060   23.6640 C   0  0  0  0  0  3  0  0  0  0  0  0
  -21.7800   -5.0380   22.5350 C   0  0  0  0  0  0  0  0  0  0  0  0
  -22.0960   -4.5020   21.3310 F   0  0  0  0  0  0  0  0  0  0  0  0
  -21.2410   -3.9500   25.9970 F   0  0  0  0  0  0  0  0  0  0  0  0
  -22.8280  -13.7780   21.1100 C   0  0  0  0  0  0  0  0  0  0  0  0
  -22.0720  -13.1180   21.9790 N   0  0  0  0  0  0  0  0  0  0  0  0
  -22.4230  -14.8030   20.5620 O   0  0  0  0  0  0  0  0  0  0  0  0
  -22.4140  -12.2910   22.4460 H   0  0  0  0  0  0  0  0  0  0  0  0
  -21.1380  -13.4450   22.1830 H   0  0  0  0  0  0  0  0  0  0  0  0
  -25.4920  -15.3840   20.3190 N   0  0  0  0  0  0  0  0  0  0  0  0
  -24.7310  -16.0490   20.4060 H   0  0  0  0  0  0  0  0  0  0  0  0
  -26.3320  -15.7930   19.9360 H   0  0  0  0  0  0  0  0  0  0  0  0
  -28.3530  -25.5770   19.5920 O   0  0  0  0  0  0  0  0  0  0  0  0
  -24.7360  -31.6060   22.8850 C   0  0  0  0  0  0  0  0  0  0  0  0
  -27.3660  -26.7840   19.5690 C   0  0  0  0  0  0  0  0  0  0  0  0
  -23.5620  -30.2620   21.1940 C   0  0  0  0  0  3  0  0  0  0  0  0
  -25.0340  -28.7450   19.6630 C   0  0  0  0  0  0  0  0  0  0  0  0
  -26.1320  -30.4930   21.0380 C   0  0  0  0  0  2  0  0  0  0  0  0
  -26.2280  -29.1020   20.3010 C   0  0  0  0  0  0  0  0  0  0  0  0
  -27.3740  -28.1480   20.2290 C   0  0  0  0  0  3  0  0  0  0  0  0
  -26.1330  -26.6450   18.8800 C   0  0  0  0  0  3  0  0  0  0  0  0
  -25.0250  -27.5460   18.9310 C   0  0  0  0  0  3  0  0  0  0  0  0
  -23.7980  -29.6510   19.7820 C   0  0  0  0  0  2  0  0  0  0  0  0
  -24.8340  -30.8180   21.7590 N   0  0  0  0  0  0  0  0  0  0  0  0
  -23.6440  -31.8430   23.4290 O   0  0  0  0  0  0  0  0  0  0  0  0
  -22.8940  -29.2120   22.1220 C   0  0  0  0  0  0  0  0  0  0  0  0
  -21.5580  -29.0540   22.0430 N   0  0  0  0  0  0  0  0  0  0  0  0
  -23.5890  -28.5380   22.8860 O   0  0  0  0  0  0  0  0  0  0  0  0
  -21.0460  -29.6500   21.4080 H   0  0  0  0  0  0  0  0  0  0  0  0
  -18.2000  -27.7980   22.6390 C   0  0  0  0  0  0  0  0  0  0  0  0
  -20.7720  -28.0580   22.7830 C   0  0  0  0  0  3  0  0  0  0  0  0
  -20.8420  -26.6750   22.0950 C   0  0  0  0  0  2  0  0  0  0  0  0
  -19.6880  -26.4280   21.1180 C   0  0  0  0  0  2  0  0  0  0  0  0
  -18.3430  -26.5110   21.8430 C   0  0  0  0  0  2  0  0  0  0  0  0
  -19.3400  -28.5330   23.0660 C   0  0  0  0  0  0  0  0  0  0  0  0
  -19.1470  -29.7360   23.7770 C   0  0  0  0  0  3  0  0  0  0  0  0
  -17.8510  -30.2070   24.0610 C   0  0  0  0  0  3  0  0  0  0  0  0
  -16.7280  -29.4710   23.6450 C   0  0  0  0  0  3  0  0  0  0  0  0
  -16.9040  -28.2670   22.9410 C   0  0  0  0  0  3  0  0  0  0  0  0
  -25.9910  -32.2610   23.5390 C   0  0  0  0  0  3  0  0  0  0  0  0
  -25.6080  -33.5980   24.0350 N   0  0  0  0  0  0  0  0  0  0  0  0
  -25.8540  -34.7560   23.4050 C   0  0  0  0  0  0  0  0  0  0  0  0
  -26.4840  -34.8130   22.3470 O   0  0  0  0  0  0  0  0  0  0  0  0
  -25.0380  -33.6210   24.8670 H   0  0  0  0  0  0  0  0  0  0  0  0
  -24.0140  -36.4790   23.3560 C   0  0  0  0  0  1  0  0  0  0  0  0
  -25.3210  -36.0550   24.0470 C   0  0  0  0  0  3  0  0  0  0  0  0
  -27.4480  -36.9740   24.8660 C   0  0  0  0  0  1  0  0  0  0  0  0
  -26.2860  -37.1760   24.0040 N   0  0  0  0  0  0  0  0  0  0  0  0
  -25.8380  -38.0480   24.2750 H   0  0  0  0  0  0  0  0  0  0  0  0
  -26.5880  -31.4050   24.7240 C   0  0  1  0  0  0  0  0  0  0  0  0
  -25.5460  -31.0200   25.8030 C   0  0  0  0  0  1  0  0  0  0  0  0
  -27.2190  -30.0950   24.2020 C   0  0  0  0  0  1  0  0  0  0  0  0
  -27.7250  -32.1900   25.4180 C   0  0  0  0  0  1  0  0  0  0  0  0
  1  7  1  0
  1 20  1  0
  2  7  1  0
  3  4  1  0
  3  2  1  0
  5  4  1  0
  5 25  1  0
  5  6  1  0
  7  6  1  0
  8  1  2  0
 10 11  2  0
 11  9  1  0
 11 18  1  0
 12 19  2  0
 12 10  1  0
 13 20  1  0
 13  9  2  0
 14 12  1  0
 15 14  1  0
 15 16  1  0
 16 17  1  0
 17 50  1  0
 17 10  1  0
 19 13  1  0
 20 21  1  0
 22 23  2  0
 23 42  1  0
 24 23  1  0
 24 27  1  0
 25 22  1  0
 25 26  1  0
 26 24  2  0
 27 28  1  0
 28 29  2  0
 30 33  1  0
 30 29  1  0
 31 30  2  0
 32 31  1  0
 32 27  2  0
 33 34  1  0
 34 35  1  0
 35 36  2  0
 37 36  1  0
 37 41  1  0
 38 37  2  0
 39 34  2  0
 39 38  1  0
 40 39  1  0
 42 43  1  0
 43 46  1  0
 43 45  1  0
 44 42  2  0
 47 48  1  0
 47 22  1  0
 49 47  1  0
 51 62  2  0
 52 50  1  0
 52 57  1  0
 53 61  1  0
 53 63  1  0
 54 60  1  0
 54 56  1  0
 55 61  1  0
 56 55  1  0
 57 56  2  0
 58 59  1  0
 58 52  2  0
 59 54  2  0
 60 53  1  0
 61 51  1  0
 63 65  2  0
 64 63  1  0
 66 64  1  0
 67 76  2  0
 67 72  1  0
 68 64  1  0
 68 72  1  0
 69 68  1  0
 70 71  1  0
 70 69  1  0
 71 67  1  0
 72 73  2  0
 73 74  1  0
 75 74  2  0
 76 75  1  0
 77 51  1  0
 77 78  1  0
 77 87  1  0
 78 81  1  0
 79 78  1  0
 79 83  1  0
 80 79  2  0
 83 82  1  0
 85 83  1  0
 85 86  1  0
 85 84  1  0
 87 90  1  1
 87 88  1  0
 89 87  1  0
M  ISO  4   1 100  17 101  20 100  50 101
M  END
>  <TORSDO>  (28) 
F 15

>  <SCORE>  (28) 
-14.877

>  <name>  (28) 
27

>  <ligand_id>  (28) 
27

>  <original_smiles>  (28) 
[H]c1c([H])c([H])c2c(c1[H])C([H])([H])C([H])([H])C([H])([H])C2([H])N([H])C(=O)C1([H])N(C(=O)C([H])(N([H])C(=O)C([H])(N([H])C([H])([H])[H])C([H])([H])[H])C(C([H])([H])[H])(C([H])([H])[H])C([H])([H])[H])C([H])([H])c2c([H])c(OC3([H])c4c(nc(N([H])C(=O)N5C([H])([H])C([H])([H])C([H])([H])C([H])(n6nc(-c7c([H])c([H])c(Oc8c([H])c([H])c(F)c([H])c8F)c([H])c7[H])c(C(=O)N([H])[H])c6N([H])[H])C5([H])[H])c([H])c4C([H])([H])[H])C([H])([H])C([H])([H])C3([H])[H])c([H])c([H])c2C1([H])[H]

>  <smiles>  (28) 
[H]c1c([H])c([H])c2c(c1[H])C([H])([H])C([H])([H])C([H])([H])C2([H])N([H])C(=O)C1([H])N(C(=O)C([H])(N([H])C(=O)C([H])(N([H])C([H])([H])[H])C([H])([H])[H])C(C([H])([H])[H])(C([H])([H])[H])C([H])([H])[H])C([H])([H])c2c([H])c(OC3([H])c4c(nc(N([H])C(=O)N5C([H])([H])C([H])([H])C([H])([H])C([H])(n6nc(-c7c([H])c([H])c(Oc8c([H])c([H])c(F)c([H])c8F)c([H])c7[H])c(C(=O)N([H])[H])c6N([H])[H])C5([H])[H])c([H])c4C([H])([H])[H])C([H])([H])C([H])([H])C3([H])[H])c([H])c([H])c2C1([H])[H]

$$$$
28:0:0
     RDKit          3D

103113  0  0  1  0  0  0  0  0999 V2000
  -27.2280  -24.0890   17.4180 C   0  0  0  0  0  2  0  0  0  0  0  0
  -25.8140  -19.5760   18.1440 C   0  0  0  0  0  2  0  0  0  0  0  0
  -28.4850  -23.7990   18.2620 C   0  0  0  0  0  2  0  0  0  0  0  0
  -26.9490  -19.2850   19.1440 C   0  0  0  0  0  2  0  0  0  0  0  0
  -25.9810  -23.3080   17.8880 C   0  0  0  0  0  2  0  0  0  0  0  0
  -25.2440  -20.9830   18.3300 C   0  0  0  0  0  2  0  0  0  0  0  0
  -28.1910  -23.1050   19.6140 C   0  0  0  0  0  3  0  0  0  0  0  0
  -28.0380  -20.4020   19.2310 C   0  0  0  0  0  3  0  0  0  0  0  0
  -27.3140  -21.7960   19.4270 C   0  0  0  0  0  3  0  0  0  0  0  0
  -26.3700  -21.9370   18.2630 N   0  0  2  0  0  4  0  0  0  0  0  0
  -26.8970  -21.6390   17.4560 H   0  0  0  0  0  0  0  0  0  0  0  0
  -27.5870  -24.0740   20.6930 C   0  0  0  0  0  2  0  0  0  0  0  0
  -28.3390  -25.3890   21.0810 C   0  0  0  0  0  2  0  0  0  0  0  0
  -28.2790  -26.4830   20.1520 O   0  0  0  0  0  0  0  0  0  0  0  0
  -24.5800  -31.7410   23.3300 C   0  0  0  0  0  0  0  0  0  0  0  0
  -27.1540  -27.2760   20.2190 C   0  0  0  0  0  0  0  0  0  0  0  0
  -23.3730  -30.4010   21.6420 C   0  0  0  0  0  3  0  0  0  0  0  0
  -24.8130  -28.8610   20.2210 C   0  0  0  0  0  0  0  0  0  0  0  0
  -25.9140  -30.6930   21.5050 C   0  0  0  0  0  2  0  0  0  0  0  0
  -25.9780  -29.3300   20.8470 C   0  0  0  0  0  0  0  0  0  0  0  0
  -27.1570  -28.5440   20.8470 C   0  0  0  0  0  3  0  0  0  0  0  0
  -25.9800  -26.8420   19.5800 C   0  0  0  0  0  3  0  0  0  0  0  0
  -24.8070  -27.6110   19.5840 C   0  0  0  0  0  3  0  0  0  0  0  0
  -23.5960  -29.7540   20.2530 C   0  0  0  0  0  2  0  0  0  0  0  0
  -24.6410  -30.9570   22.2170 N   0  0  0  0  0  0  0  0  0  0  0  0
  -23.4940  -32.0350   23.8480 O   0  0  0  0  0  0  0  0  0  0  0  0
  -22.6740  -29.3760   22.5630 C   0  0  0  0  0  0  0  0  0  0  0  0
  -21.3440  -29.2580   22.4230 N   0  0  0  0  0  0  0  0  0  0  0  0
  -23.3250  -28.6930   23.3580 O   0  0  0  0  0  0  0  0  0  0  0  0
  -20.8830  -29.8630   21.7560 H   0  0  0  0  0  0  0  0  0  0  0  0
  -17.9070  -28.2230   22.8760 C   0  0  0  0  0  0  0  0  0  0  0  0
  -20.4730  -28.3370   23.1590 C   0  0  0  0  0  3  0  0  0  0  0  0
  -20.5020  -26.9210   22.5330 C   0  0  0  0  0  2  0  0  0  0  0  0
  -19.3870  -26.6910   21.5080 C   0  0  0  0  0  2  0  0  0  0  0  0
  -18.0140  -26.8870   22.1570 C   0  0  0  0  0  2  0  0  0  0  0  0
  -19.0630  -28.9100   23.3320 C   0  0  0  0  0  0  0  0  0  0  0  0
  -18.9090  -30.1640   23.9620 C   0  0  0  0  0  3  0  0  0  0  0  0
  -17.6330  -30.7300   24.1400 C   0  0  0  0  0  3  0  0  0  0  0  0
  -16.4900  -30.0350   23.7040 C   0  0  0  0  0  3  0  0  0  0  0  0
  -16.6280  -28.7830   23.0810 C   0  0  0  0  0  3  0  0  0  0  0  0
  -25.8690  -32.3240   23.9890 C   0  0  0  0  0  3  0  0  0  0  0  0
  -25.6050  -33.7340   24.3040 N   0  0  0  0  0  0  0  0  0  0  0  0
  -25.9990  -34.7660   23.5470 C   0  0  0  0  0  0  0  0  0  0  0  0
  -26.6950  -34.6310   22.5350 O   0  0  0  0  0  0  0  0  0  0  0  0
  -24.9910  -33.9140   25.0850 H   0  0  0  0  0  0  0  0  0  0  0  0
  -24.3410  -36.6150   23.1440 C   0  0  0  0  0  1  0  0  0  0  0  0
  -25.5530  -36.1750   23.9810 C   0  0  0  0  0  3  0  0  0  0  0  0
  -27.7010  -36.9880   24.8450 C   0  0  0  0  0  1  0  0  0  0  0  0
  -26.6240  -37.1890   23.8790 N   0  0  0  0  0  0  0  0  0  0  0  0
  -26.2490  -38.1240   24.0180 H   0  0  0  0  0  0  0  0  0  0  0  0
  -26.3200  -31.5340   25.2770 C   0  0  1  0  0  0  0  0  0  0  0  0
  -25.1910  -31.3340   26.3150 C   0  0  0  0  0  1  0  0  0  0  0  0
  -26.8600  -30.1370   24.8940 C   0  0  0  0  0  1  0  0  0  0  0  0
  -27.4850  -32.2820   25.9700 C   0  0  0  0  0  1  0  0  0  0  0  0
  -29.0930  -19.9390   20.2900 C   0  0  0  0  0  2  0  0  0  0  0  0
  -29.7470  -18.6510   19.8870 N   0  0  0  0  0  4  0  0  0  0  0  0
  -30.2700  -18.8360   19.0440 H   0  0  0  0  0  0  0  0  0  0  0  0
  -29.0250  -17.9940   19.6400 H   0  0  0  0  0  0  0  0  0  0  0  0
  -30.6490  -17.9650   20.8660 C   0  0  0  0  0  3  0  0  0  0  0  0
  -33.5090  -20.7530   22.6260 C   0  0  0  0  0  3  0  0  0  0  0  0
  -32.3900  -20.3220   23.3630 C   0  0  0  0  0  3  0  0  0  0  0  0
  -33.7190  -20.2660   21.3230 C   0  0  0  0  0  3  0  0  0  0  0  0
  -31.4710  -19.4220   22.7890 C   0  0  0  0  0  3  0  0  0  0  0  0
  -32.8020  -19.3640   20.7470 C   0  0  0  0  0  3  0  0  0  0  0  0
  -31.6630  -18.9410   21.4740 C   0  0  0  0  0  0  0  0  0  0  0  0
  -31.3660  -16.7320   20.2350 C   0  0  0  0  0  2  0  0  0  0  0  0
  -30.7490  -15.4480   20.4380 O   0  0  0  0  0  0  0  0  0  0  0  0
  -31.3910  -14.3650   19.9150 C   0  0  0  0  0  0  0  0  0  0  0  0
  -30.9340  -12.0780   19.0480 C   0  0  0  0  0  2  0  0  0  0  0  0
  -29.9860  -12.1850   17.8370 C   0  0  0  0  0  2  0  0  0  0  0  0
  -28.5170  -12.1600   18.3030 C   0  0  0  0  0  2  0  0  0  0  0  0
  -28.2340  -13.1650   19.4520 C   0  0  0  0  0  3  0  0  0  0  0  0
  -29.2950  -13.0650   20.5700 C   0  0  0  0  0  2  0  0  0  0  0  0
  -30.6200  -13.1910   19.9530 N   0  0  0  0  0  0  0  0  0  0  0  0
  -32.4930  -14.4530   19.3710 O   0  0  0  0  0  0  0  0  0  0  0  0
  -25.9300  -13.9650   20.2670 C   0  0  0  0  0  0  0  0  0  0  0  0
  -24.8110  -13.2850   20.6630 C   0  0  0  0  0  0  0  0  0  0  0  0
  -25.1470  -11.8980   20.5890 C   0  0  0  0  0  0  0  0  0  0  0  0
  -26.8810  -13.0010   19.9770 N   0  0  0  0  0  0  0  0  0  0  0  0
  -26.4160  -11.7510   20.2280 N   0  0  0  0  0  0  0  0  0  0  0  0
  -24.3170  -10.7030   20.7850 C   0  0  0  0  0  0  0  0  0  0  0  0
  -24.6920   -9.6850   21.6900 C   0  0  0  0  0  3  0  0  0  0  0  0
  -23.8700   -8.5520   21.8740 C   0  0  0  0  0  3  0  0  0  0  0  0
  -22.6570   -8.4310   21.1560 C   0  0  0  0  0  0  0  0  0  0  0  0
  -22.3010   -9.4350   20.2380 C   0  0  0  0  0  3  0  0  0  0  0  0
  -23.1220  -10.5590   20.0520 C   0  0  0  0  0  3  0  0  0  0  0  0
  -21.8080   -7.3550   21.2500 O   0  0  0  0  0  0  0  0  0  0  0  0
  -21.6980   -6.6250   22.4070 C   0  0  0  0  0  0  0  0  0  0  0  0
  -21.3400   -7.2250   23.6350 C   0  0  0  0  0  3  0  0  0  0  0  0
  -21.1710   -6.4280   24.7850 C   0  0  0  0  0  3  0  0  0  0  0  0
  -21.3490   -5.0340   24.7090 C   0  0  0  0  0  0  0  0  0  0  0  0
  -21.7000   -4.4340   23.4870 C   0  0  0  0  0  3  0  0  0  0  0  0
  -21.8720   -5.2280   22.3390 C   0  0  0  0  0  0  0  0  0  0  0  0
  -22.1890   -4.6440   21.1590 F   0  0  0  0  0  0  0  0  0  0  0  0
  -21.1790   -4.2670   25.8110 F   0  0  0  0  0  0  0  0  0  0  0  0
  -23.4740  -13.8780   21.0000 C   0  0  0  0  0  0  0  0  0  0  0  0
  -22.7320  -13.2450   21.9010 N   0  0  0  0  0  0  0  0  0  0  0  0
  -23.1010  -14.9410   20.5000 O   0  0  0  0  0  0  0  0  0  0  0  0
  -23.0500  -12.3860   22.3280 H   0  0  0  0  0  0  0  0  0  0  0  0
  -21.8330  -13.6220   22.1670 H   0  0  0  0  0  0  0  0  0  0  0  0
  -26.2130  -15.3190   20.1060 N   0  0  0  0  0  0  0  0  0  0  0  0
  -25.5200  -16.0420   20.2600 H   0  0  0  0  0  0  0  0  0  0  0  0
  -27.0940  -15.6750   19.7550 H   0  0  0  0  0  0  0  0  0  0  0  0
  1  5  1  0
  1  3  1  0
  2  6  1  0
  2  4  1  0
  3  7  1  0
  4  8  1  0
  5 10  1  0
  7 12  1  0
  8  9  1  0
  8 55  1  0
  9  7  1  0
 10  6  1  0
 10  9  1  0
 10 11  1  6
 12 13  1  0
 14 16  1  0
 14 13  1  0
 15 26  2  0
 15 41  1  0
 16 21  1  0
 17 25  1  0
 17 27  1  0
 18 24  1  0
 18 20  1  0
 19 25  1  0
 20 21  2  0
 20 19  1  0
 22 23  1  0
 22 16  2  0
 23 18  2  0
 24 17  1  0
 25 15  1  0
 27 29  2  0
 28 27  1  0
 28 32  1  0
 30 28  1  0
 31 40  2  0
 31 36  1  0
 32 36  1  0
 33 32  1  0
 34 35  1  0
 34 33  1  0
 35 31  1  0
 36 37  2  0
 37 38  1  0
 39 38  2  0
 40 39  1  0
 41 42  1  0
 41 51  1  0
 42 45  1  0
 43 47  1  0
 43 42  1  0
 44 43  2  0
 46 47  1  0
 49 47  1  0
 49 50  1  0
 49 48  1  0
 51 54  1  1
 51 52  1  0
 53 51  1  0
 56 55  1  0
 56 59  1  0
 57 56  1  0
 58 56  1  0
 59 65  1  0
 60 61  1  0
 62 60  2  0
 63 61  2  0
 64 62  1  0
 64 65  2  0
 65 63  1  0
 66 67  1  0
 66 59  1  0
 68 74  1  0
 68 67  1  0
 69 74  1  0
 70 71  1  0
 70 69  1  0
 71 72  1  0
 72 79  1  0
 72 73  1  0
 74 73  1  0
 75 68  2  0
 76 77  2  0
 77 96  1  0
 78 77  1  0
 78 81  1  0
 79 80  1  0
 79 76  1  0
 80 78  2  0
 81 82  1  0
 82 83  2  0
 84 87  1  0
 84 83  1  0
 85 84  2  0
 86 85  1  0
 86 81  2  0
 87 88  1  0
 88 89  1  0
 89 90  2  0
 91 90  1  0
 91 95  1  0
 92 91  2  0
 93 88  2  0
 93 92  1  0
 94 93  1  0
 96 97  1  0
 97100  1  0
 97 99  1  0
 98 96  2  0
101102  1  0
101 76  1  0
103101  1  0
M  ISO  4  13 101  14 101  67 100  68 100
M  END
>  <TORSDO>  (29) 
F 24

>  <SCORE>  (29) 
-12.335

>  <name>  (29) 
28

>  <ligand_id>  (29) 
28

>  <original_smiles>  (29) 
[H]c1c([H])c([H])c(C([H])(C([H])([H])OC(=O)N2C([H])([H])C([H])([H])C([H])([H])C([H])(n3nc(-c4c([H])c([H])c(Oc5c([H])c([H])c(F)c([H])c5F)c([H])c4[H])c(C(=O)N([H])[H])c3N([H])[H])C2([H])[H])[N+]([H])([H])C([H])([H])C2([H])C([H])([H])C([H])([H])C([H])([H])[N+]3([H])C([H])([H])C([H])([H])C([H])([H])C([H])(C([H])([H])C([H])([H])Oc4c([H])c([H])c5c(c4[H])C([H])([H])N(C(=O)C([H])(N([H])C(=O)C([H])(N([H])C([H])([H])[H])C([H])([H])[H])C(C([H])([H])[H])(C([H])([H])[H])C([H])([H])[H])C([H])(C(=O)N([H])C4([H])c6c([H])c([H])c([H])c([H])c6C([H])([H])C([H])([H])C4([H])[H])C5([H])[H])C23[H])c([H])c1[H]

>  <smiles>  (29) 
[H]c1c([H])c([H])c(C([H])(C([H])([H])OC(=O)N2C([H])([H])C([H])([H])C([H])([H])C([H])(n3nc(-c4c([H])c([H])c(Oc5c([H])c([H])c(F)c([H])c5F)c([H])c4[H])c(C(=O)N([H])[H])c3N([H])[H])C2([H])[H])[N+]([H])([H])C([H])([H])C2([H])C([H])([H])C([H])([H])C([H])([H])[N+]3([H])C([H])([H])C([H])([H])C([H])([H])C([H])(C([H])([H])C([H])([H])Oc4c([H])c([H])c5c(c4[H])C([H])([H])N(C(=O)C([H])(N([H])C(=O)C([H])(N([H])C([H])([H])[H])C([H])([H])[H])C(C([H])([H])[H])(C([H])([H])[H])C([H])([H])[H])C([H])(C(=O)N([H])C4([H])c6c([H])c([H])c([H])c([H])c6C([H])([H])C([H])([H])C4([H])[H])C5([H])[H])C23[H])c([H])c1[H]

$$$$
29:0:0
     RDKit          3D

 98107  0  0  1  0  0  0  0  0999 V2000
  -30.2540  -24.5560   20.7690 C   0  0  0  0  0  3  0  0  0  0  0  0
  -30.9190  -23.4620   21.3460 C   0  0  0  0  0  0  0  0  0  0  0  0
  -30.3780  -22.1620   21.1810 C   0  0  0  0  0  0  0  0  0  0  0  0
  -29.0750  -24.3390   20.0400 C   0  0  0  0  0  0  0  0  0  0  0  0
  -29.1680  -22.0500   20.4340 C   0  0  0  0  0  0  0  0  0  0  0  0
  -32.2050  -23.7050   22.1190 C   0  0  0  0  0  1  0  0  0  0  0  0
  -28.4800  -20.7230   20.1720 C   0  0  0  0  0  1  0  0  0  0  0  0
  -28.5380  -23.1130   19.8810 N   0  0  0  0  0  0  0  0  0  0  0  0
  -30.7850  -19.2270   23.2440 C   0  0  0  0  0  2  0  0  0  0  0  0
  -30.9010  -20.7560   23.1630 C   0  0  0  0  0  2  0  0  0  0  0  0
  -31.1620  -19.8400   20.9630 C   0  0  0  0  0  2  0  0  0  0  0  0
  -31.5240  -18.7520   21.9850 C   0  0  0  0  0  3  0  0  0  0  0  0
  -31.0650  -21.0680   21.7450 N   0  0  0  0  0  0  0  0  0  0  0  0
  -31.1930  -17.3700   21.5620 N   0  0  0  0  0  4  0  0  0  0  0  0
  -30.2340  -17.3100   21.2610 H   0  0  0  0  0  0  0  0  0  0  0  0
  -31.2920  -16.7780   22.3700 H   0  0  0  0  0  0  0  0  0  0  0  0
  -32.0680  -16.8200   20.5020 C   0  0  0  0  0  2  0  0  0  0  0  0
  -32.4270  -15.3410   20.7440 C   0  0  0  0  0  2  0  0  0  0  0  0
  -31.3800  -13.6280   19.2850 C   0  0  0  0  0  0  0  0  0  0  0  0
  -30.7530  -11.3820   18.4860 C   0  0  0  0  0  2  0  0  0  0  0  0
  -29.6640  -11.3860   17.4020 C   0  0  0  0  0  2  0  0  0  0  0  0
  -28.2640  -11.4020   18.0400 C   0  0  0  0  0  2  0  0  0  0  0  0
  -28.1160  -12.5130   19.1090 C   0  0  0  0  0  3  0  0  0  0  0  0
  -29.2940  -12.4850   20.1080 C   0  0  0  0  0  2  0  0  0  0  0  0
  -30.5620  -12.5510   19.3560 N   0  0  0  0  0  0  0  0  0  0  0  0
  -32.2140  -13.8000   18.3890 O   0  0  0  0  0  0  0  0  0  0  0  0
  -31.3630  -14.4040   20.3740 N   0  0  0  0  0  0  0  0  0  0  0  0
  -30.7050  -14.1320   21.0910 H   0  0  0  0  0  0  0  0  0  0  0  0
  -25.9960  -13.4410   20.2430 C   0  0  0  0  0  0  0  0  0  0  0  0
  -24.8850  -12.8220   20.7520 C   0  0  0  0  0  0  0  0  0  0  0  0
  -25.1010  -11.4210   20.5780 C   0  0  0  0  0  0  0  0  0  0  0  0
  -26.8270  -12.4250   19.7970 N   0  0  0  0  0  0  0  0  0  0  0  0
  -26.2990  -11.2000   20.0520 N   0  0  0  0  0  0  0  0  0  0  0  0
  -24.2120  -10.2790   20.8290 C   0  0  0  0  0  0  0  0  0  0  0  0
  -24.5650   -9.2550   21.7360 C   0  0  0  0  0  3  0  0  0  0  0  0
  -23.6860   -8.1760   21.9750 C   0  0  0  0  0  3  0  0  0  0  0  0
  -22.4400   -8.1150   21.3070 C   0  0  0  0  0  0  0  0  0  0  0  0
  -22.1040   -9.1250   20.3880 C   0  0  0  0  0  3  0  0  0  0  0  0
  -22.9820  -10.1950   20.1470 C   0  0  0  0  0  3  0  0  0  0  0  0
  -21.5360   -7.0910   21.4550 O   0  0  0  0  0  0  0  0  0  0  0  0
  -21.3680   -6.4480   22.6550 C   0  0  0  0  0  0  0  0  0  0  0  0
  -20.9900   -7.1400   23.8260 C   0  0  0  0  0  3  0  0  0  0  0  0
  -20.7600   -6.4290   25.0210 C   0  0  0  0  0  3  0  0  0  0  0  0
  -20.8980   -5.0280   25.0460 C   0  0  0  0  0  0  0  0  0  0  0  0
  -21.2700   -4.3360   23.8790 C   0  0  0  0  0  3  0  0  0  0  0  0
  -21.5000   -5.0450   22.6860 C   0  0  0  0  0  0  0  0  0  0  0  0
  -21.8360   -4.3720   21.5600 F   0  0  0  0  0  0  0  0  0  0  0  0
  -20.6690   -4.3440   26.1910 F   0  0  0  0  0  0  0  0  0  0  0  0
  -23.6500  -13.4930   21.2800 C   0  0  0  0  0  0  0  0  0  0  0  0
  -22.9830  -12.8760   22.2500 N   0  0  0  0  0  0  0  0  0  0  0  0
  -23.2950  -14.5960   20.8670 O   0  0  0  0  0  0  0  0  0  0  0  0
  -23.2860  -11.9800   22.6040 H   0  0  0  0  0  0  0  0  0  0  0  0
  -22.1570  -13.3050   22.6400 H   0  0  0  0  0  0  0  0  0  0  0  0
  -26.3590  -14.7780   20.1040 N   0  0  0  0  0  0  0  0  0  0  0  0
  -25.7370  -15.5340   20.3650 H   0  0  0  0  0  0  0  0  0  0  0  0
  -27.2020  -15.0960   19.6440 H   0  0  0  0  0  0  0  0  0  0  0  0
  -28.3830  -25.5160   19.3670 C   0  0  0  0  0  2  0  0  0  0  0  0
  -28.1500  -26.5870   20.2830 O   0  0  0  0  0  0  0  0  0  0  0  0
  -24.5910  -31.8310   23.4640 C   0  0  0  0  0  0  0  0  0  0  0  0
  -26.9560  -27.2730   20.3230 C   0  0  0  0  0  0  0  0  0  0  0  0
  -23.2850  -30.5070   21.8310 C   0  0  0  0  0  3  0  0  0  0  0  0
  -24.6290  -28.8840   20.3950 C   0  0  0  0  0  0  0  0  0  0  0  0
  -25.8210  -30.7240   21.6010 C   0  0  0  0  0  2  0  0  0  0  0  0
  -25.8190  -29.3500   20.9640 C   0  0  0  0  0  0  0  0  0  0  0  0
  -26.9790  -28.5500   20.9300 C   0  0  0  0  0  3  0  0  0  0  0  0
  -25.7370  -26.8060   19.7760 C   0  0  0  0  0  3  0  0  0  0  0  0
  -24.5790  -27.6070   19.8080 C   0  0  0  0  0  3  0  0  0  0  0  0
  -23.4390  -29.8150   20.4510 C   0  0  0  0  0  2  0  0  0  0  0  0
  -24.5850  -31.0350   22.3570 N   0  0  0  0  0  0  0  0  0  0  0  0
  -23.5350  -32.1620   24.0200 O   0  0  0  0  0  0  0  0  0  0  0  0
  -22.5880  -29.5250   22.7990 C   0  0  0  0  0  0  0  0  0  0  0  0
  -21.2700  -29.3420   22.6180 N   0  0  0  0  0  0  0  0  0  0  0  0
  -23.2330  -28.9260   23.6660 O   0  0  0  0  0  0  0  0  0  0  0  0
  -20.8130  -29.8670   21.8870 H   0  0  0  0  0  0  0  0  0  0  0  0
  -17.8980  -28.0950   22.9300 C   0  0  0  0  0  0  0  0  0  0  0  0
  -20.4180  -28.4360   23.3870 C   0  0  0  0  0  3  0  0  0  0  0  0
  -20.6000  -26.9750   22.9150 C   0  0  0  0  0  2  0  0  0  0  0  0
  -19.5890  -26.5590   21.8420 C   0  0  0  0  0  2  0  0  0  0  0  0
  -18.1580  -26.7100   22.3620 C   0  0  0  0  0  2  0  0  0  0  0  0
  -18.9610  -28.9120   23.3970 C   0  0  0  0  0  0  0  0  0  0  0  0
  -18.6680  -30.2060   23.8800 C   0  0  0  0  0  3  0  0  0  0  0  0
  -17.3440  -30.6820   23.9100 C   0  0  0  0  0  3  0  0  0  0  0  0
  -16.2930  -29.8620   23.4620 C   0  0  0  0  0  3  0  0  0  0  0  0
  -16.5710  -28.5730   22.9750 C   0  0  0  0  0  3  0  0  0  0  0  0
  -25.9200  -32.3830   24.0680 C   0  0  0  0  0  3  0  0  0  0  0  0
  -25.6930  -33.7890   24.4260 N   0  0  0  0  0  0  0  0  0  0  0  0
  -26.0530  -34.8340   23.6690 C   0  0  0  0  0  0  0  0  0  0  0  0
  -26.6840  -34.7120   22.6150 O   0  0  0  0  0  0  0  0  0  0  0  0
  -25.1400  -33.9620   25.2520 H   0  0  0  0  0  0  0  0  0  0  0  0
  -24.4080  -36.7120   23.3860 C   0  0  0  0  0  1  0  0  0  0  0  0
  -25.6480  -36.2370   24.1590 C   0  0  0  0  0  3  0  0  0  0  0  0
  -27.8390  -37.0070   24.9500 C   0  0  0  0  0  1  0  0  0  0  0  0
  -26.7280  -37.2390   24.0330 N   0  0  0  0  0  0  0  0  0  0  0  0
  -26.3690  -38.1760   24.1980 H   0  0  0  0  0  0  0  0  0  0  0  0
  -26.4220  -31.5630   25.3200 C   0  0  1  0  0  0  0  0  0  0  0  0
  -25.3300  -31.3300   26.3900 C   0  0  0  0  0  1  0  0  0  0  0  0
  -26.9560  -30.1800   24.8840 C   0  0  0  0  0  1  0  0  0  0  0  0
  -27.6030  -32.3000   25.9930 C   0  0  0  0  0  1  0  0  0  0  0  0
  1  2  1  0
  2  6  1  0
  3  2  2  0
  3 13  1  0
  4  1  2  0
  5  3  1  0
  7  5  1  0
  8  4  1  0
  8  5  2  0
 10  9  1  0
 11 13  1  0
 11 12  1  0
 12 14  1  0
 12  9  1  0
 13 10  1  0
 14 16  1  0
 15 14  1  0
 17 18  1  0
 17 14  1  0
 19 25  1  0
 19 27  1  0
 20 25  1  0
 21 22  1  0
 21 20  1  0
 23 22  1  0
 23 32  1  0
 23 24  1  0
 25 24  1  0
 26 19  2  0
 27 18  1  0
 27 28  1  0
 29 30  2  0
 30 49  1  0
 31 30  1  0
 31 34  1  0
 32 33  1  0
 32 29  1  0
 33 31  2  0
 34 35  1  0
 35 36  2  0
 37 40  1  0
 37 36  1  0
 38 37  2  0
 39 38  1  0
 39 34  2  0
 40 41  1  0
 41 46  2  0
 41 42  1  0
 42 43  2  0
 43 44  1  0
 44 48  1  0
 45 44  2  0
 46 45  1  0
 47 46  1  0
 49 50  1  0
 50 52  1  0
 50 53  1  0
 51 49  2  0
 54 29  1  0
 54 55  1  0
 56 54  1  0
 57  4  1  0
 57 58  1  0
 58 60  1  0
 59 70  2  0
 60 65  1  0
 61 69  1  0
 61 71  1  0
 62 68  1  0
 62 64  1  0
 63 69  1  0
 64 63  1  0
 65 64  2  0
 66 67  1  0
 66 60  2  0
 67 62  2  0
 68 61  1  0
 69 59  1  0
 71 73  2  0
 72 71  1  0
 74 72  1  0
 75 84  2  0
 75 80  1  0
 76 72  1  0
 76 80  1  0
 77 76  1  0
 78 79  1  0
 78 77  1  0
 79 75  1  0
 80 81  2  0
 81 82  1  0
 83 82  2  0
 84 83  1  0
 85 59  1  0
 85 86  1  0
 85 95  1  0
 86 89  1  0
 87 91  1  0
 87 86  1  0
 88 87  2  0
 91 90  1  0
 93 91  1  0
 93 94  1  0
 93 92  1  0
 95 98  1  1
 95 96  1  0
 97 95  1  0
M  ISO  4  19 100  27 100  57 101  58 101
M  END
>  <TORSDO>  (30) 
F 21

>  <SCORE>  (30) 
-8.545

>  <name>  (30) 
29

>  <ligand_id>  (30) 
29

>  <original_smiles>  (30) 
[H]c1c([H])c([H])c2c(c1[H])C([H])([H])C([H])([H])C([H])([H])C2([H])N([H])C(=O)C1([H])N(C(=O)C([H])(N([H])C(=O)C([H])(N([H])C([H])([H])[H])C([H])([H])[H])C(C([H])([H])[H])(C([H])([H])[H])C([H])([H])[H])C([H])([H])c2c([H])c(OC([H])([H])c3nc(C([H])([H])[H])c(N4C([H])([H])C([H])([H])C([H])([N+]([H])([H])C([H])([H])C([H])([H])N([H])C(=O)N5C([H])([H])C([H])([H])C([H])([H])C([H])(n6nc(-c7c([H])c([H])c(Oc8c([H])c([H])c(F)c([H])c8F)c([H])c7[H])c(C(=O)N([H])[H])c6N([H])[H])C5([H])[H])C4([H])[H])c(C([H])([H])[H])c3[H])c([H])c([H])c2C1([H])[H]

>  <smiles>  (30) 
[H]c1c([H])c([H])c2c(c1[H])C([H])([H])C([H])([H])C([H])([H])C2([H])N([H])C(=O)C1([H])N(C(=O)C([H])(N([H])C(=O)C([H])(N([H])C([H])([H])[H])C([H])([H])[H])C(C([H])([H])[H])(C([H])([H])[H])C([H])([H])[H])C([H])([H])c2c([H])c(OC([H])([H])c3nc(C([H])([H])[H])c(N4C([H])([H])C([H])([H])C([H])([N+]([H])([H])C([H])([H])C([H])([H])N([H])C(=O)N5C([H])([H])C([H])([H])C([H])([H])C([H])(n6nc(-c7c([H])c([H])c(Oc8c([H])c([H])c(F)c([H])c8F)c([H])c7[H])c(C(=O)N([H])[H])c6N([H])[H])C5([H])[H])C4([H])[H])c(C([H])([H])[H])c3[H])c([H])c([H])c2C1([H])[H]

$$$$
30:0:0
     RDKit          3D

 90 98  0  0  1  0  0  0  0  0999 V2000
  -29.3250  -22.6340   21.3880 C   0  0  0  0  0  2  0  0  0  0  0  0
  -28.5640  -22.3750   19.0520 C   0  0  0  0  0  2  0  0  0  0  0  0
  -28.5050  -24.0060   21.5390 C   0  0  0  0  0  2  0  0  0  0  0  0
  -28.6880  -23.9790   19.0630 C   0  0  0  0  0  2  0  0  0  0  0  0
  -28.7900  -21.5390   20.3840 C   0  0  0  0  0  3  0  0  0  0  0  0
  -28.0420  -24.7880   20.2460 C   0  0  0  0  0  3  0  0  0  0  0  0
  -29.6680  -20.2470   20.2500 N   0  0  0  0  0  4  0  0  0  0  0  0
  -30.4370  -20.3780   20.8890 H   0  0  0  0  0  0  0  0  0  0  0  0
  -30.0760  -20.2670   19.3300 H   0  0  0  0  0  0  0  0  0  0  0  0
  -29.1610  -18.7890   20.4860 C   0  0  0  0  0  3  0  0  0  0  0  0
  -30.2070  -17.5140   20.3080 C   0  0  0  0  0  3  0  0  0  0  0  0
  -30.5580  -14.8630   20.3180 C   0  0  0  0  0  0  0  0  0  0  0  0
  -30.3800  -12.5580   19.3350 C   0  0  0  0  0  2  0  0  0  0  0  0
  -29.4350  -12.5800   18.1120 C   0  0  0  0  0  2  0  0  0  0  0  0
  -27.9740  -12.3820   18.5570 C   0  0  0  0  0  2  0  0  0  0  0  0
  -27.5900  -13.2890   19.7570 C   0  0  0  0  0  3  0  0  0  0  0  0
  -28.6550  -13.2470   20.8740 C   0  0  0  0  0  2  0  0  0  0  0  0
  -29.9370  -13.6280   20.2660 N   0  0  0  0  0  0  0  0  0  0  0  0
  -31.7450  -14.9470   19.9930 O   0  0  0  0  0  0  0  0  0  0  0  0
  -29.8020  -16.0260   20.5130 N   0  0  0  0  0  0  0  0  0  0  0  0
  -28.8370  -15.8690   20.7600 H   0  0  0  0  0  0  0  0  0  0  0  0
  -25.2100  -13.8620   20.5140 C   0  0  0  0  0  0  0  0  0  0  0  0
  -24.1510  -13.0830   20.8920 C   0  0  0  0  0  0  0  0  0  0  0  0
  -24.6200  -11.7340   20.8520 C   0  0  0  0  0  0  0  0  0  0  0  0
  -26.2540  -12.9890   20.2640 N   0  0  0  0  0  0  0  0  0  0  0  0
  -25.9080  -11.7030   20.5330 N   0  0  0  0  0  0  0  0  0  0  0  0
  -23.9000  -10.4670   21.0430 C   0  0  0  0  0  0  0  0  0  0  0  0
  -24.3440   -9.4970   21.9680 C   0  0  0  0  0  3  0  0  0  0  0  0
  -23.6260   -8.2960   22.1480 C   0  0  0  0  0  3  0  0  0  0  0  0
  -22.4460   -8.0560   21.4020 C   0  0  0  0  0  0  0  0  0  0  0  0
  -22.0220   -9.0140   20.4650 C   0  0  0  0  0  3  0  0  0  0  0  0
  -22.7420  -10.2070   20.2840 C   0  0  0  0  0  3  0  0  0  0  0  0
  -21.6970   -6.9080   21.4910 O   0  0  0  0  0  0  0  0  0  0  0  0
  -21.6600   -6.1610   22.6420 C   0  0  0  0  0  0  0  0  0  0  0  0
  -21.2390   -6.7080   23.8730 C   0  0  0  0  0  3  0  0  0  0  0  0
  -21.1480   -5.8860   25.0140 C   0  0  0  0  0  3  0  0  0  0  0  0
  -21.4690   -4.5190   24.9250 C   0  0  0  0  0  0  0  0  0  0  0  0
  -21.8830   -3.9710   23.6980 C   0  0  0  0  0  3  0  0  0  0  0  0
  -21.9760   -4.7900   22.5590 C   0  0  0  0  0  0  0  0  0  0  0  0
  -22.3550   -4.2530   21.3750 F   0  0  0  0  0  0  0  0  0  0  0  0
  -21.3750   -3.7270   26.0190 F   0  0  0  0  0  0  0  0  0  0  0  0
  -22.7530  -13.5530   21.1700 C   0  0  0  0  0  0  0  0  0  0  0  0
  -22.0310  -12.8550   22.0390 N   0  0  0  0  0  0  0  0  0  0  0  0
  -22.3110  -14.5780   20.6520 O   0  0  0  0  0  0  0  0  0  0  0  0
  -22.4010  -12.0310   22.4880 H   0  0  0  0  0  0  0  0  0  0  0  0
  -21.0910  -13.1540   22.2610 H   0  0  0  0  0  0  0  0  0  0  0  0
  -25.3660  -15.2330   20.3360 N   0  0  0  0  0  0  0  0  0  0  0  0
  -24.5910  -15.8780   20.4360 H   0  0  0  0  0  0  0  0  0  0  0  0
  -26.1870  -15.6620   19.9290 H   0  0  0  0  0  0  0  0  0  0  0  0
  -28.2490  -26.3100   20.2510 O   0  0  0  0  0  0  0  0  0  0  0  0
  -24.6370  -31.9160   23.2330 C   0  0  0  0  0  0  0  0  0  0  0  0
  -27.1710  -27.2410   20.1920 C   0  0  0  0  0  0  0  0  0  0  0  0
  -23.4170  -30.5240   21.6040 C   0  0  0  0  0  3  0  0  0  0  0  0
  -24.8460  -28.9520   20.1690 C   0  0  0  0  0  0  0  0  0  0  0  0
  -25.9650  -30.7960   21.4150 C   0  0  0  0  0  2  0  0  0  0  0  0
  -26.0260  -29.4060   20.7710 C   0  0  0  0  0  0  0  0  0  0  0  0
  -27.1900  -28.5650   20.7680 C   0  0  0  0  0  3  0  0  0  0  0  0
  -25.9750  -26.8790   19.5360 C   0  0  0  0  0  3  0  0  0  0  0  0
  -24.8300  -27.6990   19.5360 C   0  0  0  0  0  3  0  0  0  0  0  0
  -23.6240  -29.8500   20.2210 C   0  0  0  0  0  2  0  0  0  0  0  0
  -24.6930  -31.0990   22.1390 N   0  0  0  0  0  0  0  0  0  0  0  0
  -23.5570  -32.2050   23.7690 O   0  0  0  0  0  0  0  0  0  0  0  0
  -22.7460  -29.5140   22.5680 C   0  0  0  0  0  0  0  0  0  0  0  0
  -21.4170  -29.3490   22.4520 N   0  0  0  0  0  0  0  0  0  0  0  0
  -23.4220  -28.8860   23.3870 O   0  0  0  0  0  0  0  0  0  0  0  0
  -20.9290  -29.9140   21.7700 H   0  0  0  0  0  0  0  0  0  0  0  0
  -18.0340  -28.1670   22.9690 C   0  0  0  0  0  0  0  0  0  0  0  0
  -20.5950  -28.4180   23.2290 C   0  0  0  0  0  3  0  0  0  0  0  0
  -20.6870  -26.9840   22.6600 C   0  0  0  0  0  2  0  0  0  0  0  0
  -19.5800  -26.6610   21.6510 C   0  0  0  0  0  2  0  0  0  0  0  0
  -18.2020  -26.8140   22.2980 C   0  0  0  0  0  2  0  0  0  0  0  0
  -19.1570  -28.9270   23.3910 C   0  0  0  0  0  0  0  0  0  0  0  0
  -18.9440  -30.1930   23.9800 C   0  0  0  0  0  3  0  0  0  0  0  0
  -17.6420  -30.7010   24.1460 C   0  0  0  0  0  3  0  0  0  0  0  0
  -16.5340  -29.9380   23.7380 C   0  0  0  0  0  3  0  0  0  0  0  0
  -16.7310  -28.6720   23.1570 C   0  0  0  0  0  3  0  0  0  0  0  0
  -25.9250  -32.5450   23.8480 C   0  0  0  0  0  3  0  0  0  0  0  0
  -26.4470  -31.7680   25.1190 C   0  0  1  0  0  0  0  0  0  0  0  0
  -25.3620  -31.5330   26.1950 C   0  0  0  0  0  1  0  0  0  0  0  0
  -27.0200  -30.3890   24.7190 C   0  0  0  0  0  1  0  0  0  0  0  0
  -27.6050  -32.5560   25.7760 C   0  0  0  0  0  1  0  0  0  0  0  0
  -25.6210  -33.9420   24.1900 N   0  0  0  0  0  0  0  0  0  0  0  0
  -25.9330  -35.0000   23.4290 C   0  0  0  0  0  0  0  0  0  0  0  0
  -26.5760  -34.9000   22.3800 O   0  0  0  0  0  0  0  0  0  0  0  0
  -25.0490  -34.0940   25.0080 H   0  0  0  0  0  0  0  0  0  0  0  0
  -24.1890  -36.7890   23.1350 C   0  0  0  0  0  1  0  0  0  0  0  0
  -25.4570  -36.3860   23.9040 C   0  0  0  0  0  3  0  0  0  0  0  0
  -27.6160  -37.2740   24.6680 C   0  0  0  0  0  1  0  0  0  0  0  0
  -26.4830  -37.4420   23.7610 N   0  0  0  0  0  0  0  0  0  0  0  0
  -26.0800  -38.3610   23.9250 H   0  0  0  0  0  0  0  0  0  0  0  0
  1  3  1  0
  2  4  1  0
  2  5  1  0
  4  6  1  0
  5  7  1  0
  5  1  1  0
  6 50  1  0
  6  3  1  0
  7 10  1  0
  7  8  1  0
  9  7  1  0
 11 10  2  0
 11 20  1  0
 12 20  1  0
 13 18  1  0
 14 15  1  0
 14 13  1  0
 16 15  1  0
 16 25  1  0
 16 17  1  0
 18 12  1  0
 18 17  1  0
 19 12  2  0
 20 21  1  0
 22 23  2  0
 23 42  1  0
 24 23  1  0
 24 27  1  0
 25 22  1  0
 25 26  1  0
 26 24  2  0
 27 28  1  0
 28 29  2  0
 30 33  1  0
 30 29  1  0
 31 30  2  0
 32 31  1  0
 32 27  2  0
 33 34  1  0
 34 35  1  0
 35 36  2  0
 37 36  1  0
 37 41  1  0
 38 37  2  0
 39 34  2  0
 39 38  1  0
 40 39  1  0
 42 43  1  0
 43 46  1  0
 43 45  1  0
 44 42  2  0
 47 48  1  0
 47 22  1  0
 49 47  1  0
 51 62  2  0
 52 50  1  0
 52 57  1  0
 53 61  1  0
 53 63  1  0
 54 60  1  0
 54 56  1  0
 55 61  1  0
 56 55  1  0
 57 56  2  0
 58 59  1  0
 58 52  2  0
 59 54  2  0
 60 53  1  0
 61 51  1  0
 63 65  2  0
 64 63  1  0
 66 64  1  0
 67 76  2  0
 67 72  1  0
 68 64  1  0
 68 72  1  0
 69 68  1  0
 70 71  1  0
 70 69  1  0
 71 67  1  0
 72 73  2  0
 73 74  1  0
 75 74  2  0
 76 75  1  0
 77 51  1  0
 77 82  1  0
 77 78  1  0
 78 81  1  1
 78 79  1  0
 80 78  1  0
 82 85  1  0
 83 87  1  0
 83 82  1  0
 84 83  2  0
 87 86  1  0
 89 87  1  0
 89 90  1  0
 89 88  1  0
M  ISO  4   6 101  12 100  20 100  50 101
M  END
>  <TORSDO>  (31) 
F 19

>  <SCORE>  (31) 
-14.098

>  <name>  (31) 
30

>  <ligand_id>  (31) 
30

>  <original_smiles>  (31) 
[H]c1c([H])c([H])c2c(c1[H])C([H])([H])C([H])([H])C([H])([H])C2([H])N([H])C(=O)C1([H])N(C(=O)C([H])(N([H])C(=O)C([H])(N([H])C([H])([H])[H])C([H])([H])[H])C(C([H])([H])[H])(C([H])([H])[H])C([H])([H])[H])C([H])([H])c2c([H])c(OC3([H])C([H])([H])C([H])([H])C([H])([N+]([H])([H])C([H])([H])C([H])([H])N([H])C(=O)N4C([H])([H])C([H])([H])C([H])([H])C([H])(n5nc(-c6c([H])c([H])c(Oc7c([H])c([H])c(F)c([H])c7F)c([H])c6[H])c(C(=O)N([H])[H])c5N([H])[H])C4([H])[H])C([H])([H])C3([H])[H])c([H])c([H])c2C1([H])[H]

>  <smiles>  (31) 
[H]c1c([H])c([H])c2c(c1[H])C([H])([H])C([H])([H])C([H])([H])C2([H])N([H])C(=O)C1([H])N(C(=O)C([H])(N([H])C(=O)C([H])(N([H])C([H])([H])[H])C([H])([H])[H])C(C([H])([H])[H])(C([H])([H])[H])C([H])([H])[H])C([H])([H])c2c([H])c(OC3([H])C([H])([H])C([H])([H])C([H])([N+]([H])([H])C([H])([H])C([H])([H])N([H])C(=O)N4C([H])([H])C([H])([H])C([H])([H])C([H])(n5nc(-c6c([H])c([H])c(Oc7c([H])c([H])c(F)c([H])c7F)c([H])c6[H])c(C(=O)N([H])[H])c5N([H])[H])C4([H])[H])C([H])([H])C3([H])[H])c([H])c([H])c2C1([H])[H]

$$$$
31:0:0
     RDKit          3D

 92100  0  0  1  0  0  0  0  0999 V2000
  -28.9770  -23.7280   19.7450 C   0  0  0  0  0  3  0  0  0  0  0  0
  -28.6610  -19.5650   20.7190 C   0  0  0  0  0  2  0  0  0  0  0  0
  -30.9520  -20.0730   20.1050 C   0  0  0  0  0  2  0  0  0  0  0  0
  -28.2160  -21.0370   20.2430 C   0  0  0  0  0  2  0  0  0  0  0  0
  -30.5260  -21.5180   19.6170 C   0  0  0  0  0  2  0  0  0  0  0  0
  -29.9030  -18.9040   20.0020 C   0  0  0  0  0  3  0  0  0  0  0  0
  -29.2910  -22.1970   20.3150 C   0  0  0  0  0  3  0  0  0  0  0  0
  -30.5500  -17.4790   20.5360 C   0  0  0  0  0  2  0  0  0  0  0  0
  -30.6970  -14.8680   20.1260 C   0  0  0  0  0  0  0  0  0  0  0  0
  -30.4480  -12.5800   19.1240 C   0  0  0  0  0  2  0  0  0  0  0  0
  -29.4760  -12.6210   17.9260 C   0  0  0  0  0  2  0  0  0  0  0  0
  -28.0240  -12.4400   18.4070 C   0  0  0  0  0  2  0  0  0  0  0  0
  -27.6800  -13.3430   19.6220 C   0  0  0  0  0  3  0  0  0  0  0  0
  -28.7730  -13.2940   20.7110 C   0  0  0  0  0  2  0  0  0  0  0  0
  -30.0410  -13.6540   20.0650 N   0  0  0  0  0  0  0  0  0  0  0  0
  -31.8880  -14.9150   19.8060 O   0  0  0  0  0  0  0  0  0  0  0  0
  -29.9860  -16.0520   20.3520 N   0  0  0  0  0  0  0  0  0  0  0  0
  -28.9980  -15.9410   20.5250 H   0  0  0  0  0  0  0  0  0  0  0  0
  -25.3210  -13.9300   20.4320 C   0  0  0  0  0  0  0  0  0  0  0  0
  -24.2650  -13.1570   20.8260 C   0  0  0  0  0  0  0  0  0  0  0  0
  -24.7230  -11.8040   20.7720 C   0  0  0  0  0  0  0  0  0  0  0  0
  -26.3530  -13.0510   20.1550 N   0  0  0  0  0  0  0  0  0  0  0  0
  -26.0040  -11.7660   20.4260 N   0  0  0  0  0  0  0  0  0  0  0  0
  -23.9970  -10.5440   20.9710 C   0  0  0  0  0  0  0  0  0  0  0  0
  -24.4370   -9.5770   21.9030 C   0  0  0  0  0  3  0  0  0  0  0  0
  -23.7100   -8.3810   22.0910 C   0  0  0  0  0  3  0  0  0  0  0  0
  -22.5310   -8.1430   21.3480 C   0  0  0  0  0  0  0  0  0  0  0  0
  -22.1100   -9.0980   20.4040 C   0  0  0  0  0  3  0  0  0  0  0  0
  -22.8370  -10.2850   20.2150 C   0  0  0  0  0  3  0  0  0  0  0  0
  -21.7740   -7.0000   21.4460 O   0  0  0  0  0  0  0  0  0  0  0  0
  -21.7210   -6.2680   22.6050 C   0  0  0  0  0  0  0  0  0  0  0  0
  -21.2640   -6.8290   23.8190 C   0  0  0  0  0  3  0  0  0  0  0  0
  -21.1610   -6.0240   24.9710 C   0  0  0  0  0  3  0  0  0  0  0  0
  -21.5030   -4.6590   24.9100 C   0  0  0  0  0  0  0  0  0  0  0  0
  -21.9510   -4.0990   23.7010 C   0  0  0  0  0  3  0  0  0  0  0  0
  -22.0580   -4.9010   22.5510 C   0  0  0  0  0  0  0  0  0  0  0  0
  -22.4710   -4.3510   21.3840 F   0  0  0  0  0  0  0  0  0  0  0  0
  -21.3960   -3.8840   26.0140 F   0  0  0  0  0  0  0  0  0  0  0  0
  -22.8770  -13.6370   21.1390 C   0  0  0  0  0  0  0  0  0  0  0  0
  -22.1690  -12.9350   22.0180 N   0  0  0  0  0  0  0  0  0  0  0  0
  -22.4310  -14.6690   20.6400 O   0  0  0  0  0  0  0  0  0  0  0  0
  -22.5410  -12.0990   22.4410 H   0  0  0  0  0  0  0  0  0  0  0  0
  -21.2410  -13.2430   22.2740 H   0  0  0  0  0  0  0  0  0  0  0  0
  -25.4830  -15.3020   20.2580 N   0  0  0  0  0  0  0  0  0  0  0  0
  -24.7210  -15.9560   20.3950 H   0  0  0  0  0  0  0  0  0  0  0  0
  -26.3170  -15.7410   19.8910 H   0  0  0  0  0  0  0  0  0  0  0  0
  -28.4420  -23.6350   18.3710 N   0  0  0  0  0  4  0  0  0  0  0  0
  -27.5220  -23.2300   18.3600 H   0  0  0  0  0  0  0  0  0  0  0  0
  -29.0420  -23.0760   17.7900 H   0  0  0  0  0  0  0  0  0  0  0  0
  -28.3880  -24.5510   17.9560 H   0  0  0  0  0  0  0  0  0  0  0  0
  -28.1780  -24.9130   20.5480 C   0  0  0  0  0  2  0  0  0  0  0  0
  -28.3490  -26.3870   20.2070 O   0  0  0  0  0  0  0  0  0  0  0  0
  -24.6100  -31.8820   23.2450 C   0  0  0  0  0  0  0  0  0  0  0  0
  -27.2390  -27.2740   20.2020 C   0  0  0  0  0  0  0  0  0  0  0  0
  -23.4180  -30.4780   21.6030 C   0  0  0  0  0  3  0  0  0  0  0  0
  -24.8780  -28.9250   20.1790 C   0  0  0  0  0  0  0  0  0  0  0  0
  -25.9610  -30.7890   21.4290 C   0  0  0  0  0  2  0  0  0  0  0  0
  -26.0490  -29.4050   20.7790 C   0  0  0  0  0  0  0  0  0  0  0  0
  -27.2340  -28.5960   20.7720 C   0  0  0  0  0  3  0  0  0  0  0  0
  -26.0450  -26.8660   19.5720 C   0  0  0  0  0  3  0  0  0  0  0  0
  -24.8820  -27.6630   19.5630 C   0  0  0  0  0  3  0  0  0  0  0  0
  -23.6400  -29.8020   20.2240 C   0  0  0  0  0  2  0  0  0  0  0  0
  -24.6820  -31.0690   22.1480 N   0  0  0  0  0  0  0  0  0  0  0  0
  -23.5240  -32.1560   23.7760 O   0  0  0  0  0  0  0  0  0  0  0  0
  -22.7520  -29.4620   22.5620 C   0  0  0  0  0  0  0  0  0  0  0  0
  -21.4250  -29.2880   22.4380 N   0  0  0  0  0  0  0  0  0  0  0  0
  -23.4300  -28.8340   23.3780 O   0  0  0  0  0  0  0  0  0  0  0  0
  -20.9340  -29.8460   21.7540 H   0  0  0  0  0  0  0  0  0  0  0  0
  -18.0480  -28.0830   22.9450 C   0  0  0  0  0  0  0  0  0  0  0  0
  -20.6080  -28.3460   23.2090 C   0  0  0  0  0  3  0  0  0  0  0  0
  -20.7100  -26.9170   22.6270 C   0  0  0  0  0  2  0  0  0  0  0  0
  -19.6060  -26.5960   21.6140 C   0  0  0  0  0  2  0  0  0  0  0  0
  -18.2240  -26.7380   22.2620 C   0  0  0  0  0  2  0  0  0  0  0  0
  -19.1670  -28.8450   23.3750 C   0  0  0  0  0  0  0  0  0  0  0  0
  -18.9490  -30.1060   23.9730 C   0  0  0  0  0  3  0  0  0  0  0  0
  -17.6430  -30.6040   24.1460 C   0  0  0  0  0  3  0  0  0  0  0  0
  -16.5380  -29.8380   23.7340 C   0  0  0  0  0  3  0  0  0  0  0  0
  -16.7420  -28.5810   23.1380 C   0  0  0  0  0  3  0  0  0  0  0  0
  -25.8870  -32.5230   23.8710 C   0  0  0  0  0  3  0  0  0  0  0  0
  -26.3960  -31.7610   25.1570 C   0  0  1  0  0  0  0  0  0  0  0  0
  -25.2940  -31.5260   26.2170 C   0  0  0  0  0  1  0  0  0  0  0  0
  -26.9880  -30.3830   24.7810 C   0  0  0  0  0  1  0  0  0  0  0  0
  -27.5380  -32.5650   25.8220 C   0  0  0  0  0  1  0  0  0  0  0  0
  -25.5710  -33.9220   24.1940 N   0  0  0  0  0  0  0  0  0  0  0  0
  -25.9030  -34.9740   23.4350 C   0  0  0  0  0  0  0  0  0  0  0  0
  -26.5750  -34.8690   22.4050 O   0  0  0  0  0  0  0  0  0  0  0  0
  -24.9740  -34.0770   24.9930 H   0  0  0  0  0  0  0  0  0  0  0  0
  -24.1770  -36.7700   23.0700 C   0  0  0  0  0  1  0  0  0  0  0  0
  -25.4120  -36.3640   23.8890 C   0  0  0  0  0  3  0  0  0  0  0  0
  -27.5380  -37.2510   24.7400 C   0  0  0  0  0  1  0  0  0  0  0  0
  -26.4460  -37.4170   23.7840 N   0  0  0  0  0  0  0  0  0  0  0  0
  -26.0370  -38.3370   23.9270 H   0  0  0  0  0  0  0  0  0  0  0  0
  1 51  1  0
  4  7  1  0
  4  2  1  0
  5  3  1  0
  5  7  1  0
  6  3  1  0
  6  8  1  0
  6  2  1  0
  7  1  1  0
  9 17  1  0
 10 15  1  0
 11 12  1  0
 11 10  1  0
 13 12  1  0
 13 22  1  0
 13 14  1  0
 15  9  1  0
 15 14  1  0
 16  9  2  0
 17 18  1  0
 17  8  1  0
 19 20  2  0
 20 39  1  0
 21 20  1  0
 21 24  1  0
 22 23  1  0
 22 19  1  0
 23 21  2  0
 24 25  1  0
 25 26  2  0
 27 30  1  0
 27 26  1  0
 28 27  2  0
 29 28  1  0
 29 24  2  0
 30 31  1  0
 31 32  1  0
 32 33  2  0
 34 33  1  0
 34 38  1  0
 35 34  2  0
 36 31  2  0
 36 35  1  0
 37 36  1  0
 39 40  1  0
 40 43  1  0
 40 42  1  0
 41 39  2  0
 44 45  1  0
 44 19  1  0
 46 44  1  0
 47  1  1  0
 48 47  1  0
 49 47  1  0
 50 47  1  0
 52 51  1  0
 53 64  2  0
 54 52  1  0
 54 59  1  0
 55 63  1  0
 55 65  1  0
 56 62  1  0
 56 58  1  0
 57 63  1  0
 58 57  1  0
 59 58  2  0
 60 54  2  0
 61 60  1  0
 61 56  2  0
 62 55  1  0
 63 53  1  0
 65 67  2  0
 66 65  1  0
 68 66  1  0
 69 78  2  0
 69 74  1  0
 70 66  1  0
 70 74  1  0
 71 70  1  0
 72 73  1  0
 72 71  1  0
 73 69  1  0
 74 75  2  0
 75 76  1  0
 77 76  2  0
 78 77  1  0
 79 53  1  0
 79 84  1  0
 79 80  1  0
 80 83  1  1
 80 81  1  0
 82 80  1  0
 84 87  1  0
 85 89  1  0
 85 84  1  0
 86 85  2  0
 89 88  1  0
 91 89  1  0
 91 92  1  0
 91 90  1  0
M  ISO  4   9 100  17 100  51 101  52 101
M  END
>  <TORSDO>  (32) 
F 20

>  <SCORE>  (32) 
-13.871

>  <name>  (32) 
31

>  <ligand_id>  (32) 
31

>  <original_smiles>  (32) 
[H]c1c([H])c([H])c2c(c1[H])C([H])([H])C([H])([H])C([H])([H])C2([H])N([H])C(=O)C1([H])N(C(=O)C([H])(N([H])C(=O)C([H])(N([H])C([H])([H])[H])C([H])([H])[H])C(C([H])([H])[H])(C([H])([H])[H])C([H])([H])[H])C([H])([H])c2c([H])c(OC([H])([H])C([H])(C3([H])C([H])([H])C([H])([H])C([H])(C([H])([H])N([H])C(=O)N4C([H])([H])C([H])([H])C([H])([H])C([H])(n5nc(-c6c([H])c([H])c(Oc7c([H])c([H])c(F)c([H])c7F)c([H])c6[H])c(C(=O)N([H])[H])c5N([H])[H])C4([H])[H])C([H])([H])C3([H])[H])[N+]([H])([H])[H])c([H])c([H])c2C1([H])[H]

>  <smiles>  (32) 
[H]c1c([H])c([H])c2c(c1[H])C([H])([H])C([H])([H])C([H])([H])C2([H])N([H])C(=O)C1([H])N(C(=O)C([H])(N([H])C(=O)C([H])(N([H])C([H])([H])[H])C([H])([H])[H])C(C([H])([H])[H])(C([H])([H])[H])C([H])([H])[H])C([H])([H])c2c([H])c(OC([H])([H])C([H])(C3([H])C([H])([H])C([H])([H])C([H])(C([H])([H])N([H])C(=O)N4C([H])([H])C([H])([H])C([H])([H])C([H])(n5nc(-c6c([H])c([H])c(Oc7c([H])c([H])c(F)c([H])c7F)c([H])c6[H])c(C(=O)N([H])[H])c5N([H])[H])C4([H])[H])C([H])([H])C3([H])[H])[N+]([H])([H])[H])c([H])c([H])c2C1([H])[H]

$$$$
32:0:0
     RDKit          3D

 98107  0  0  1  0  0  0  0  0999 V2000
  -28.6590  -23.5890   21.4390 C   0  0  0  0  0  3  0  0  0  0  0  0
  -29.2010  -21.2090   21.4890 C   0  0  0  0  0  3  0  0  0  0  0  0
  -29.1840  -22.4730   22.1230 C   0  0  0  0  0  0  0  0  0  0  0  0
  -28.1660  -23.4470   20.1340 C   0  0  0  0  0  0  0  0  0  0  0  0
  -28.6980  -21.0560   20.1850 C   0  0  0  0  0  0  0  0  0  0  0  0
  -28.1940  -22.1790   19.5330 N   0  0  0  0  0  0  0  0  0  0  0  0
  -29.5930  -21.4410   24.4400 C   0  0  0  0  0  2  0  0  0  0  0  0
  -31.2500  -23.0600   23.4530 C   0  0  0  0  0  2  0  0  0  0  0  0
  -30.1800  -21.7290   25.8350 C   0  0  0  0  0  2  0  0  0  0  0  0
  -31.8160  -23.3100   24.8640 C   0  0  0  0  0  2  0  0  0  0  0  0
  -29.7650  -22.6650   23.5170 C   0  0  0  0  0  3  0  0  0  0  0  0
  -31.5990  -22.1400   25.7450 N   0  0  0  0  0  4  0  0  0  0  0  0
  -32.1530  -21.3660   25.4150 H   0  0  0  0  0  0  0  0  0  0  0  0
  -31.9340  -22.3660   26.6690 H   0  0  0  0  0  0  0  0  0  0  0  0
  -28.7400  -19.7530   19.5430 N   0  0  0  0  0  0  0  0  0  0  0  0
  -28.4870  -19.7360   18.5600 H   0  0  0  0  0  0  0  0  0  0  0  0
  -28.8320  -18.3900   20.2260 C   0  0  0  0  0  3  0  0  0  0  0  0
  -29.4950  -17.1320   19.4340 C   0  0  0  0  0  3  0  0  0  0  0  0
  -30.1390  -14.5860   19.7070 C   0  0  0  0  0  0  0  0  0  0  0  0
  -30.0140  -12.2330   18.8690 C   0  0  0  0  0  2  0  0  0  0  0  0
  -28.9660  -12.1610   17.7360 C   0  0  0  0  0  2  0  0  0  0  0  0
  -27.5580  -11.9200   18.3130 C   0  0  0  0  0  2  0  0  0  0  0  0
  -27.2350  -12.8580   19.5080 C   0  0  0  0  0  3  0  0  0  0  0  0
  -28.3950  -12.9160   20.5250 C   0  0  0  0  0  2  0  0  0  0  0  0
  -29.6020  -13.3180   19.7920 N   0  0  0  0  0  0  0  0  0  0  0  0
  -31.2700  -14.7380   19.2390 O   0  0  0  0  0  0  0  0  0  0  0  0
  -29.3150  -15.6860   19.9260 N   0  0  0  0  0  0  0  0  0  0  0  0
  -28.4090  -15.4660   20.3100 H   0  0  0  0  0  0  0  0  0  0  0  0
  -24.9310  -13.3490   20.5150 C   0  0  0  0  0  0  0  0  0  0  0  0
  -23.9400  -12.5320   20.9860 C   0  0  0  0  0  0  0  0  0  0  0  0
  -24.4380  -11.1980   20.8700 C   0  0  0  0  0  0  0  0  0  0  0  0
  -25.9670  -12.5110   20.1410 N   0  0  0  0  0  0  0  0  0  0  0  0
  -25.6860  -11.2120   20.4170 N   0  0  0  0  0  0  0  0  0  0  0  0
  -23.7790   -9.9080   21.1110 C   0  0  0  0  0  0  0  0  0  0  0  0
  -24.2880   -8.9810   22.0460 C   0  0  0  0  0  3  0  0  0  0  0  0
  -23.6240   -7.7560   22.2750 C   0  0  0  0  0  3  0  0  0  0  0  0
  -22.4370   -7.4490   21.5680 C   0  0  0  0  0  0  0  0  0  0  0  0
  -21.9480   -8.3670   20.6210 C   0  0  0  0  0  3  0  0  0  0  0  0
  -22.6120   -9.5830   20.3910 C   0  0  0  0  0  3  0  0  0  0  0  0
  -21.7410   -6.2740   21.7040 O   0  0  0  0  0  0  0  0  0  0  0  0
  -21.6990   -5.5960   22.8950 C   0  0  0  0  0  0  0  0  0  0  0  0
  -21.2080   -6.1930   24.0760 C   0  0  0  0  0  3  0  0  0  0  0  0
  -21.1190   -5.4380   25.2620 C   0  0  0  0  0  3  0  0  0  0  0  0
  -21.5120   -4.0870   25.2690 C   0  0  0  0  0  0  0  0  0  0  0  0
  -21.9970   -3.4880   24.0930 C   0  0  0  0  0  3  0  0  0  0  0  0
  -22.0870   -4.2410   22.9090 C   0  0  0  0  0  0  0  0  0  0  0  0
  -22.5350   -3.6530   21.7730 F   0  0  0  0  0  0  0  0  0  0  0  0
  -21.4200   -3.3590   26.4070 F   0  0  0  0  0  0  0  0  0  0  0  0
  -22.5680  -12.9560   21.4240 C   0  0  0  0  0  0  0  0  0  0  0  0
  -21.9720  -12.2250   22.3610 N   0  0  0  0  0  0  0  0  0  0  0  0
  -22.0370  -13.9700   20.9730 O   0  0  0  0  0  0  0  0  0  0  0  0
  -22.4190  -11.4050   22.7440 H   0  0  0  0  0  0  0  0  0  0  0  0
  -21.0580  -12.4910   22.7000 H   0  0  0  0  0  0  0  0  0  0  0  0
  -25.0280  -14.7270   20.3520 N   0  0  0  0  0  0  0  0  0  0  0  0
  -24.2510  -15.3480   20.5550 H   0  0  0  0  0  0  0  0  0  0  0  0
  -25.8030  -15.2000   19.9050 H   0  0  0  0  0  0  0  0  0  0  0  0
  -27.5530  -24.7310   19.3970 C   0  0  0  0  0  2  0  0  0  0  0  0
  -27.7180  -26.1380   19.9370 O   0  0  0  0  0  0  0  0  0  0  0  0
  -24.7920  -31.7750   23.4750 C   0  0  0  0  0  0  0  0  0  0  0  0
  -26.6910  -27.1170   19.9880 C   0  0  0  0  0  0  0  0  0  0  0  0
  -23.3470  -30.6110   21.8520 C   0  0  0  0  0  3  0  0  0  0  0  0
  -24.5270  -29.0070   20.2400 C   0  0  0  0  0  0  0  0  0  0  0  0
  -25.8930  -30.6610   21.5110 C   0  0  0  0  0  2  0  0  0  0  0  0
  -25.7800  -29.3210   20.7790 C   0  0  0  0  0  0  0  0  0  0  0  0
  -26.8610  -28.3890   20.6410 C   0  0  0  0  0  3  0  0  0  0  0  0
  -25.4110  -26.8740   19.4390 C   0  0  0  0  0  3  0  0  0  0  0  0
  -24.3490  -27.7930   19.5630 C   0  0  0  0  0  3  0  0  0  0  0  0
  -23.3980  -30.0050   20.4250 C   0  0  0  0  0  2  0  0  0  0  0  0
  -24.7020  -31.0290   22.3340 N   0  0  0  0  0  0  0  0  0  0  0  0
  -23.7800  -32.1290   24.0970 O   0  0  0  0  0  0  0  0  0  0  0  0
  -22.6420  -29.6090   22.8000 C   0  0  0  0  0  0  0  0  0  0  0  0
  -21.3170  -29.4480   22.6380 N   0  0  0  0  0  0  0  0  0  0  0  0
  -23.2880  -28.9790   23.6420 O   0  0  0  0  0  0  0  0  0  0  0  0
  -20.8550  -30.0070   21.9350 H   0  0  0  0  0  0  0  0  0  0  0  0
  -17.9510  -28.1480   22.9220 C   0  0  0  0  0  0  0  0  0  0  0  0
  -20.4650  -28.5270   23.3930 C   0  0  0  0  0  3  0  0  0  0  0  0
  -20.6670  -27.0690   22.9210 C   0  0  0  0  0  2  0  0  0  0  0  0
  -19.6710  -26.6410   21.8380 C   0  0  0  0  0  2  0  0  0  0  0  0
  -18.2340  -26.7690   22.3480 C   0  0  0  0  0  2  0  0  0  0  0  0
  -19.0000  -28.9800   23.3970 C   0  0  0  0  0  0  0  0  0  0  0  0
  -18.6850  -30.2650   23.8870 C   0  0  0  0  0  3  0  0  0  0  0  0
  -17.3530  -30.7210   23.9110 C   0  0  0  0  0  3  0  0  0  0  0  0
  -16.3180  -29.8890   23.4510 C   0  0  0  0  0  3  0  0  0  0  0  0
  -16.6170  -28.6050   22.9630 C   0  0  0  0  0  3  0  0  0  0  0  0
  -26.1700  -32.2380   24.0400 C   0  0  0  0  0  3  0  0  0  0  0  0
  -26.0160  -33.6250   24.5060 N   0  0  0  0  0  0  0  0  0  0  0  0
  -26.3960  -34.7090   23.8170 C   0  0  0  0  0  0  0  0  0  0  0  0
  -26.9820  -34.6400   22.7340 O   0  0  0  0  0  0  0  0  0  0  0  0
  -25.4920  -33.7590   25.3590 H   0  0  0  0  0  0  0  0  0  0  0  0
  -24.8250  -36.6740   23.7510 C   0  0  0  0  0  1  0  0  0  0  0  0
  -26.0760  -36.0880   24.4260 C   0  0  0  0  0  3  0  0  0  0  0  0
  -28.3370  -36.7030   25.1610 C   0  0  0  0  0  1  0  0  0  0  0  0
  -27.1940  -37.0520   24.3220 N   0  0  0  0  0  0  0  0  0  0  0  0
  -26.8870  -37.9860   24.5760 H   0  0  0  0  0  0  0  0  0  0  0  0
  -26.7040  -31.3190   25.2070 C   0  0  1  0  0  0  0  0  0  0  0  0
  -25.6700  -31.0780   26.3320 C   0  0  0  0  0  1  0  0  0  0  0  0
  -27.1380  -29.9380   24.6650 C   0  0  0  0  0  1  0  0  0  0  0  0
  -27.9610  -31.9590   25.8420 C   0  0  0  0  0  1  0  0  0  0  0  0
  1  3  1  0
  2  3  2  0
  3 11  1  0
  4  1  2  0
  5  2  1  0
  6  4  1  0
  6  5  2  0
  7  9  1  0
  8 11  1  0
  8 10  1  0
 10 12  1  0
 11  7  1  0
 12  9  1  0
 12 14  1  0
 13 12  1  0
 15  5  1  0
 15 17  1  0
 16 15  1  0
 18 27  1  0
 18 17  2  0
 19 25  1  0
 19 27  1  0
 20 25  1  0
 21 22  1  0
 21 20  1  0
 23 22  1  0
 23 32  1  0
 23 24  1  0
 25 24  1  0
 26 19  2  0
 27 28  1  0
 29 30  2  0
 30 49  1  0
 31 30  1  0
 31 34  1  0
 32 33  1  0
 32 29  1  0
 33 31  2  0
 34 35  1  0
 35 36  2  0
 37 40  1  0
 37 36  1  0
 38 37  2  0
 39 38  1  0
 39 34  2  0
 40 41  1  0
 41 46  2  0
 41 42  1  0
 42 43  2  0
 43 44  1  0
 44 48  1  0
 45 44  2  0
 46 45  1  0
 47 46  1  0
 49 50  1  0
 50 53  1  0
 50 52  1  0
 51 49  2  0
 54 29  1  0
 54 55  1  0
 56 54  1  0
 57 58  1  0
 57  4  1  0
 58 60  1  0
 59 70  2  0
 60 65  1  0
 61 69  1  0
 61 71  1  0
 62 68  1  0
 62 64  1  0
 63 69  1  0
 64 63  1  0
 65 64  2  0
 66 67  1  0
 66 60  2  0
 67 62  2  0
 68 61  1  0
 69 59  1  0
 71 73  2  0
 72 71  1  0
 74 72  1  0
 75 84  2  0
 75 80  1  0
 76 72  1  0
 76 80  1  0
 77 76  1  0
 78 79  1  0
 78 77  1  0
 79 75  1  0
 80 81  2  0
 81 82  1  0
 83 82  2  0
 84 83  1  0
 85 59  1  0
 85 86  1  0
 85 95  1  0
 86 89  1  0
 87 91  1  0
 87 86  1  0
 88 87  2  0
 91 90  1  0
 93 91  1  0
 93 94  1  0
 93 92  1  0
 95 98  1  1
 95 96  1  0
 97 95  1  0
M  ISO  4  19 100  27 100  57 101  58 101
M  END
>  <TORSDO>  (33) 
F 21

>  <SCORE>  (33) 
-4.948

>  <name>  (33) 
32

>  <ligand_id>  (33) 
32

>  <original_smiles>  (33) 
[H]c1c([H])c([H])c2c(c1[H])C([H])([H])C([H])([H])C([H])([H])C2([H])N([H])C(=O)C1([H])N(C(=O)C([H])(N([H])C(=O)C([H])(N([H])C([H])([H])[H])C([H])([H])[H])C(C([H])([H])[H])(C([H])([H])[H])C([H])([H])[H])C([H])([H])c2c([H])c(OC([H])([H])c3nc(N([H])C([H])([H])C([H])([H])N([H])C(=O)N4C([H])([H])C([H])([H])C([H])([H])C([H])(n5nc(-c6c([H])c([H])c(Oc7c([H])c([H])c(F)c([H])c7F)c([H])c6[H])c(C(=O)N([H])[H])c5N([H])[H])C4([H])[H])c([H])c(C4([H])C([H])([H])C([H])([H])[N+]([H])([H])C([H])([H])C4([H])[H])c3[H])c([H])c([H])c2C1([H])[H]

>  <smiles>  (33) 
[H]c1c([H])c([H])c2c(c1[H])C([H])([H])C([H])([H])C([H])([H])C2([H])N([H])C(=O)C1([H])N(C(=O)C([H])(N([H])C(=O)C([H])(N([H])C([H])([H])[H])C([H])([H])[H])C(C([H])([H])[H])(C([H])([H])[H])C([H])([H])[H])C([H])([H])c2c([H])c(OC([H])([H])c3nc(N([H])C([H])([H])C([H])([H])N([H])C(=O)N4C([H])([H])C([H])([H])C([H])([H])C([H])(n5nc(-c6c([H])c([H])c(Oc7c([H])c([H])c(F)c([H])c7F)c([H])c6[H])c(C(=O)N([H])[H])c5N([H])[H])C4([H])[H])c([H])c(C4([H])C([H])([H])C([H])([H])[N+]([H])([H])C([H])([H])C4([H])[H])c3[H])c([H])c([H])c2C1([H])[H]

$$$$
33:0:0
     RDKit          3D

 98107  0  0  1  0  0  0  0  0999 V2000
  -28.0230  -22.8740   19.4190 C   0  0  0  0  0  3  0  0  0  0  0  0
  -28.3500  -21.5420   19.7810 C   0  0  0  0  0  3  0  0  0  0  0  0
  -28.8040  -23.9850   19.8250 C   0  0  0  0  0  0  0  0  0  0  0  0
  -29.9350  -23.7150   20.6510 C   0  0  0  0  0  0  0  0  0  0  0  0
  -30.2650  -22.3680   21.0230 C   0  0  0  0  0  0  0  0  0  0  0  0
  -29.4830  -21.2590   20.5770 C   0  0  0  0  0  0  0  0  0  0  0  0
  -30.8360  -24.8610   21.1070 C   0  0  0  0  0  1  0  0  0  0  0  0
  -29.8630  -19.9410   20.9650 N   0  0  0  0  0  0  0  0  0  0  0  0
  -30.6660  -19.8960   21.5830 H   0  0  0  0  0  0  0  0  0  0  0  0
  -30.5480  -14.5030   19.9820 C   0  0  0  0  0  0  0  0  0  0  0  0
  -30.2190  -12.3100   18.8830 C   0  0  0  0  0  2  0  0  0  0  0  0
  -29.2000  -12.4920   17.7370 C   0  0  0  0  0  2  0  0  0  0  0  0
  -27.7570  -12.3370   18.2590 C   0  0  0  0  0  2  0  0  0  0  0  0
  -27.4920  -13.1630   19.5470 C   0  0  0  0  0  3  0  0  0  0  0  0
  -28.6210  -12.9590   20.5800 C   0  0  0  0  0  2  0  0  0  0  0  0
  -29.8880  -13.3060   19.9210 N   0  0  0  0  0  0  0  0  0  0  0  0
  -31.6900  -14.6200   19.5270 O   0  0  0  0  0  0  0  0  0  0  0  0
  -29.5190  -17.5860   21.6820 C   0  0  0  0  0  2  0  0  0  0  0  0
  -30.0710  -18.0510   19.3200 C   0  0  0  0  0  2  0  0  0  0  0  0
  -29.1280  -16.1210   21.3190 C   0  0  0  0  0  2  0  0  0  0  0  0
  -29.6460  -16.5950   18.9660 C   0  0  0  0  0  2  0  0  0  0  0  0
  -29.3300  -18.6260   20.5460 C   0  0  0  0  0  3  0  0  0  0  0  0
  -29.7580  -15.6240   20.0790 N   0  0  0  0  0  0  0  0  0  0  0  0
  -25.1450  -13.7480   20.4160 C   0  0  0  0  0  0  0  0  0  0  0  0
  -24.1070  -12.9670   20.8500 C   0  0  0  0  0  0  0  0  0  0  0  0
  -24.5760  -11.6180   20.7860 C   0  0  0  0  0  0  0  0  0  0  0  0
  -26.1780  -12.8740   20.1150 N   0  0  0  0  0  0  0  0  0  0  0  0
  -25.8440  -11.5890   20.3950 N   0  0  0  0  0  0  0  0  0  0  0  0
  -23.8720  -10.3500   21.0180 C   0  0  0  0  0  0  0  0  0  0  0  0
  -24.3380   -9.4090   21.9610 C   0  0  0  0  0  3  0  0  0  0  0  0
  -23.6340   -8.2060   22.1790 C   0  0  0  0  0  3  0  0  0  0  0  0
  -22.4490   -7.9350   21.4540 C   0  0  0  0  0  0  0  0  0  0  0  0
  -22.0020   -8.8650   20.5000 C   0  0  0  0  0  3  0  0  0  0  0  0
  -22.7070  -10.0600   20.2790 C   0  0  0  0  0  3  0  0  0  0  0  0
  -21.7140   -6.7810   21.5810 O   0  0  0  0  0  0  0  0  0  0  0  0
  -21.6690   -6.0820   22.7600 C   0  0  0  0  0  0  0  0  0  0  0  0
  -21.2240   -6.6760   23.9610 C   0  0  0  0  0  3  0  0  0  0  0  0
  -21.1260   -5.9020   25.1360 C   0  0  0  0  0  3  0  0  0  0  0  0
  -21.4660   -4.5370   25.1100 C   0  0  0  0  0  0  0  0  0  0  0  0
  -21.9050   -3.9430   23.9140 C   0  0  0  0  0  3  0  0  0  0  0  0
  -22.0030   -4.7130   22.7420 C   0  0  0  0  0  0  0  0  0  0  0  0
  -22.4070   -4.1300   21.5880 F   0  0  0  0  0  0  0  0  0  0  0  0
  -21.3650   -3.7910   26.2350 F   0  0  0  0  0  0  0  0  0  0  0  0
  -22.7270  -13.4340   21.2110 C   0  0  0  0  0  0  0  0  0  0  0  0
  -22.0660  -12.7380   22.1290 N   0  0  0  0  0  0  0  0  0  0  0  0
  -22.2460  -14.4500   20.7130 O   0  0  0  0  0  0  0  0  0  0  0  0
  -22.4680  -11.9160   22.5530 H   0  0  0  0  0  0  0  0  0  0  0  0
  -21.1420  -13.0330   22.4130 H   0  0  0  0  0  0  0  0  0  0  0  0
  -25.2880  -15.1190   20.2320 N   0  0  0  0  0  0  0  0  0  0  0  0
  -24.5260  -15.7680   20.3930 H   0  0  0  0  0  0  0  0  0  0  0  0
  -26.1150  -15.5640   19.8530 H   0  0  0  0  0  0  0  0  0  0  0  0
  -31.4950  -22.1010   21.9060 C   0  0  0  0  0  2  0  0  0  0  0  0
  -31.1280  -21.9670   23.4000 C   0  0  0  0  0  2  0  0  0  0  0  0
  -32.2700  -21.4170   24.2560 C   0  0  0  0  0  0  0  0  0  0  0  0
  -32.0810  -21.3260   25.4850 O   0  0  0  0  0  1  0  0  0  0  0  0
  -33.3450  -21.0800   23.7190 O   0  0  0  0  0  0  0  0  0  0  0  0
  -28.5050  -25.3860   19.2000 C   0  0  0  0  0  2  0  0  0  0  0  0
  -28.2560  -26.5210   20.0800 O   0  0  0  0  0  0  0  0  0  0  0  0
  -24.4080  -31.7470   23.0900 C   0  0  0  0  0  0  0  0  0  0  0  0
  -27.0840  -27.2720   20.0150 C   0  0  0  0  0  0  0  0  0  0  0  0
  -23.2200  -30.3440   21.4380 C   0  0  0  0  0  3  0  0  0  0  0  0
  -24.6880  -28.8160   20.0130 C   0  0  0  0  0  0  0  0  0  0  0  0
  -25.7510  -30.6990   21.2630 C   0  0  0  0  0  2  0  0  0  0  0  0
  -25.8440  -29.3270   20.6140 C   0  0  0  0  0  0  0  0  0  0  0  0
  -27.0400  -28.5620   20.6130 C   0  0  0  0  0  3  0  0  0  0  0  0
  -25.8960  -26.7850   19.4210 C   0  0  0  0  0  3  0  0  0  0  0  0
  -24.7120  -27.5470   19.4140 C   0  0  0  0  0  3  0  0  0  0  0  0
  -23.4420  -29.6740   20.0570 C   0  0  0  0  0  2  0  0  0  0  0  0
  -24.4780  -30.9470   21.9880 N   0  0  0  0  0  0  0  0  0  0  0  0
  -23.3210  -32.0130   23.6240 O   0  0  0  0  0  0  0  0  0  0  0  0
  -22.5660  -29.3180   22.3920 C   0  0  0  0  0  0  0  0  0  0  0  0
  -21.2420  -29.1350   22.2620 N   0  0  0  0  0  0  0  0  0  0  0  0
  -23.2470  -28.6880   23.2050 O   0  0  0  0  0  0  0  0  0  0  0  0
  -20.7520  -29.6950   21.5780 H   0  0  0  0  0  0  0  0  0  0  0  0
  -17.8670  -27.9360   22.7500 C   0  0  0  0  0  0  0  0  0  0  0  0
  -20.4240  -28.1920   23.0250 C   0  0  0  0  0  3  0  0  0  0  0  0
  -20.5280  -26.7650   22.4380 C   0  0  0  0  0  2  0  0  0  0  0  0
  -19.4270  -26.4500   21.4210 C   0  0  0  0  0  2  0  0  0  0  0  0
  -18.0450  -26.5900   22.0650 C   0  0  0  0  0  2  0  0  0  0  0  0
  -18.9850  -28.6940   23.1860 C   0  0  0  0  0  0  0  0  0  0  0  0
  -18.7650  -29.9530   23.7870 C   0  0  0  0  0  3  0  0  0  0  0  0
  -17.4610  -30.4530   23.9530 C   0  0  0  0  0  3  0  0  0  0  0  0
  -16.3570  -29.6910   23.5340 C   0  0  0  0  0  3  0  0  0  0  0  0
  -16.5610  -28.4340   22.9380 C   0  0  0  0  0  3  0  0  0  0  0  0
  -25.6850  -32.3840   23.7200 C   0  0  0  0  0  3  0  0  0  0  0  0
  -25.3560  -33.7690   24.0830 N   0  0  0  0  0  0  0  0  0  0  0  0
  -25.6610  -34.8430   23.3430 C   0  0  0  0  0  0  0  0  0  0  0  0
  -26.3200  -34.7730   22.3020 O   0  0  0  0  0  0  0  0  0  0  0  0
  -24.7680  -33.8960   24.8950 H   0  0  0  0  0  0  0  0  0  0  0  0
  -23.8970  -36.6110   23.0470 C   0  0  0  0  0  1  0  0  0  0  0  0
  -25.1550  -36.2130   23.8350 C   0  0  0  0  0  3  0  0  0  0  0  0
  -27.2820  -37.1180   24.6600 C   0  0  0  0  0  1  0  0  0  0  0  0
  -26.1660  -37.2860   23.7330 N   0  0  0  0  0  0  0  0  0  0  0  0
  -25.7450  -38.1950   23.9070 H   0  0  0  0  0  0  0  0  0  0  0  0
  -26.2200  -31.5920   24.9760 C   0  0  1  0  0  0  0  0  0  0  0  0
  -25.1360  -31.3130   26.0440 C   0  0  0  0  0  1  0  0  0  0  0  0
  -26.8230  -30.2330   24.5490 C   0  0  0  0  0  1  0  0  0  0  0  0
  -27.3620  -32.3890   25.6520 C   0  0  0  0  0  1  0  0  0  0  0  0
  1  2  2  0
  1  3  1  0
  2  6  1  0
  3  4  2  0
  4  5  1  0
  4  7  1  0
  5 52  1  0
  6  8  1  0
  6  5  2  0
  8  9  1  0
 10 23  1  0
 11 16  1  0
 12 13  1  0
 12 11  1  0
 14 13  1  0
 14 27  1  0
 14 15  1  0
 16 10  1  0
 16 15  1  0
 17 10  2  0
 19 22  1  0
 20 18  1  0
 21 19  1  0
 21 23  1  0
 22  8  1  0
 22 18  1  0
 23 20  1  0
 24 25  2  0
 25 44  1  0
 26 25  1  0
 26 29  1  0
 27 28  1  0
 27 24  1  0
 28 26  2  0
 29 30  1  0
 30 31  2  0
 32 35  1  0
 32 31  1  0
 33 32  2  0
 34 33  1  0
 34 29  2  0
 35 36  1  0
 36 37  1  0
 37 38  2  0
 39 38  1  0
 39 43  1  0
 40 39  2  0
 41 36  2  0
 41 40  1  0
 42 41  1  0
 44 45  1  0
 45 48  1  0
 45 47  1  0
 46 44  2  0
 49 50  1  0
 49 24  1  0
 51 49  1  0
 52 53  1  0
 53 54  1  0
 54 55  1  0
 56 54  2  0
 57  3  1  0
 57 58  1  0
 59 70  2  0
 60 58  1  0
 60 65  1  0
 61 69  1  0
 61 71  1  0
 62 68  1  0
 62 64  1  0
 63 69  1  0
 64 63  1  0
 65 64  2  0
 66 60  2  0
 67 66  1  0
 67 62  2  0
 68 61  1  0
 69 59  1  0
 71 73  2  0
 72 71  1  0
 74 72  1  0
 75 84  2  0
 75 80  1  0
 76 72  1  0
 76 80  1  0
 77 76  1  0
 78 79  1  0
 78 77  1  0
 79 75  1  0
 80 81  2  0
 81 82  1  0
 83 82  2  0
 84 83  1  0
 85 59  1  0
 85 86  1  0
 85 95  1  0
 86 89  1  0
 87 91  1  0
 87 86  1  0
 88 87  2  0
 91 90  1  0
 93 91  1  0
 93 94  1  0
 93 92  1  0
 95 98  1  1
 95 96  1  0
 97 95  1  0
M  ISO  4  10 100  23 100  57 101  58 101
M  END
>  <TORSDO>  (34) 
F 21

>  <SCORE>  (34) 
-12.350

>  <name>  (34) 
33

>  <ligand_id>  (34) 
33

>  <original_smiles>  (34) 
[H]c1c([H])c([H])c2c(c1[H])C([H])([H])C([H])([H])C([H])([H])C2([H])N([H])C(=O)C1([H])N(C(=O)C([H])(N([H])C(=O)C([H])(N([H])C([H])([H])[H])C([H])([H])[H])C(C([H])([H])[H])(C([H])([H])[H])C([H])([H])[H])C([H])([H])c2c([H])c(OC([H])([H])c3c([H])c([H])c(N([H])C4([H])C([H])([H])C([H])([H])N(C(=O)N5C([H])([H])C([H])([H])C([H])([H])C([H])(n6nc(-c7c([H])c([H])c(Oc8c([H])c([H])c(F)c([H])c8F)c([H])c7[H])c(C(=O)N([H])[H])c6N([H])[H])C5([H])[H])C([H])([H])C4([H])[H])c(C([H])([H])C([H])([H])C(=O)[O-])c3C([H])([H])[H])c([H])c([H])c2C1([H])[H]

>  <smiles>  (34) 
[H]c1c([H])c([H])c2c(c1[H])C([H])([H])C([H])([H])C([H])([H])C2([H])N([H])C(=O)C1([H])N(C(=O)C([H])(N([H])C(=O)C([H])(N([H])C([H])([H])[H])C([H])([H])[H])C(C([H])([H])[H])(C([H])([H])[H])C([H])([H])[H])C([H])([H])c2c([H])c(OC([H])([H])c3c([H])c([H])c(N([H])C4([H])C([H])([H])C([H])([H])N(C(=O)N5C([H])([H])C([H])([H])C([H])([H])C([H])(n6nc(-c7c([H])c([H])c(Oc8c([H])c([H])c(F)c([H])c8F)c([H])c7[H])c(C(=O)N([H])[H])c6N([H])[H])C5([H])[H])C([H])([H])C4([H])[H])c(C([H])([H])C([H])([H])C(=O)[O-])c3C([H])([H])[H])c([H])c([H])c2C1([H])[H]

$$$$
34:0:0
     RDKit          3D

 92101  0  0  1  0  0  0  0  0999 V2000
  -30.1400  -22.3270   21.6540 C   0  0  0  0  0  3  0  0  0  0  0  0
  -29.9870  -23.7280   21.7030 C   0  0  0  0  0  3  0  0  0  0  0  0
  -28.1070  -22.2320   20.3900 C   0  0  0  0  0  3  0  0  0  0  0  0
  -29.1740  -21.5240   21.0020 C   0  0  0  0  0  0  0  0  0  0  0  0
  -28.8660  -24.3330   21.0970 C   0  0  0  0  0  0  0  0  0  0  0  0
  -27.9560  -23.5840   20.4270 N   0  0  0  0  0  0  0  0  0  0  0  0
  -30.5990  -19.3350   21.4180 C   0  0  0  0  0  2  0  0  0  0  0  0
  -28.6830  -19.2330   19.7880 C   0  0  0  0  0  2  0  0  0  0  0  0
  -30.5550  -17.7900   21.5910 C   0  0  0  0  0  2  0  0  0  0  0  0
  -28.6320  -17.6860   19.9610 C   0  0  0  0  0  2  0  0  0  0  0  0
  -29.2140  -19.9610   21.0580 C   0  0  0  0  0  3  0  0  0  0  0  0
  -29.9940  -17.0530   20.3560 C   0  0  0  0  0  3  0  0  0  0  0  0
  -30.6420  -14.5880   20.1930 C   0  0  0  0  0  0  0  0  0  0  0  0
  -30.3760  -12.4160   19.0510 C   0  0  0  0  0  2  0  0  0  0  0  0
  -29.3920  -12.6430   17.8810 C   0  0  0  0  0  2  0  0  0  0  0  0
  -27.9300  -12.4930   18.3540 C   0  0  0  0  0  2  0  0  0  0  0  0
  -27.6330  -13.2930   19.6520 C   0  0  0  0  0  3  0  0  0  0  0  0
  -28.7260  -13.0470   20.7200 C   0  0  0  0  0  2  0  0  0  0  0  0
  -30.0240  -13.3780   20.1090 N   0  0  0  0  0  0  0  0  0  0  0  0
  -31.7680  -14.7960   19.7290 O   0  0  0  0  0  0  0  0  0  0  0  0
  -29.8400  -15.5990   20.6050 N   0  0  0  0  0  0  0  0  0  0  0  0
  -28.9360  -15.2980   20.9390 H   0  0  0  0  0  0  0  0  0  0  0  0
  -25.2600  -13.8900   20.4400 C   0  0  0  0  0  0  0  0  0  0  0  0
  -24.2040  -13.1120   20.8320 C   0  0  0  0  0  0  0  0  0  0  0  0
  -24.6660  -11.7610   20.7730 C   0  0  0  0  0  0  0  0  0  0  0  0
  -26.2960  -13.0100   20.1680 N   0  0  0  0  0  0  0  0  0  0  0  0
  -25.9450  -11.7260   20.4270 N   0  0  0  0  0  0  0  0  0  0  0  0
  -23.9490  -10.4940   20.9730 C   0  0  0  0  0  0  0  0  0  0  0  0
  -24.3980   -9.5320   21.9060 C   0  0  0  0  0  3  0  0  0  0  0  0
  -23.6820   -8.3330   22.0950 C   0  0  0  0  0  3  0  0  0  0  0  0
  -22.5030   -8.0830   21.3520 C   0  0  0  0  0  0  0  0  0  0  0  0
  -22.0740   -9.0320   20.4100 C   0  0  0  0  0  3  0  0  0  0  0  0
  -22.7900  -10.2250   20.2190 C   0  0  0  0  0  3  0  0  0  0  0  0
  -21.7580   -6.9330   21.4500 O   0  0  0  0  0  0  0  0  0  0  0  0
  -21.7060   -6.2060   22.6130 C   0  0  0  0  0  0  0  0  0  0  0  0
  -21.2530   -6.7720   23.8240 C   0  0  0  0  0  3  0  0  0  0  0  0
  -21.1510   -5.9720   24.9800 C   0  0  0  0  0  3  0  0  0  0  0  0
  -21.4870   -4.6060   24.9230 C   0  0  0  0  0  0  0  0  0  0  0  0
  -21.9310   -4.0390   23.7160 C   0  0  0  0  0  3  0  0  0  0  0  0
  -22.0370   -4.8380   22.5640 C   0  0  0  0  0  0  0  0  0  0  0  0
  -22.4450   -4.2830   21.3980 F   0  0  0  0  0  0  0  0  0  0  0  0
  -21.3810   -3.8340   26.0300 F   0  0  0  0  0  0  0  0  0  0  0  0
  -22.8160  -13.5830   21.1530 C   0  0  0  0  0  0  0  0  0  0  0  0
  -22.1130  -12.8720   22.0280 N   0  0  0  0  0  0  0  0  0  0  0  0
  -22.3610  -14.6180   20.6640 O   0  0  0  0  0  0  0  0  0  0  0  0
  -22.4880  -12.0320   22.4430 H   0  0  0  0  0  0  0  0  0  0  0  0
  -21.1840  -13.1700   22.2870 H   0  0  0  0  0  0  0  0  0  0  0  0
  -25.4200  -15.2630   20.2720 N   0  0  0  0  0  0  0  0  0  0  0  0
  -24.6650  -15.9170   20.4450 H   0  0  0  0  0  0  0  0  0  0  0  0
  -26.2600  -15.7110   19.9310 H   0  0  0  0  0  0  0  0  0  0  0  0
  -28.5500  -25.8260   21.3450 C   0  0  0  0  0  2  0  0  0  0  0  0
  -28.4370  -26.6770   20.1830 O   0  0  0  0  0  0  0  0  0  0  0  0
  -24.6140  -31.9110   23.2320 C   0  0  0  0  0  0  0  0  0  0  0  0
  -27.3070  -27.4720   20.1780 C   0  0  0  0  0  0  0  0  0  0  0  0
  -23.4270  -30.4990   21.5820 C   0  0  0  0  0  3  0  0  0  0  0  0
  -24.9030  -28.9700   20.1660 C   0  0  0  0  0  0  0  0  0  0  0  0
  -25.9500  -30.8760   21.3990 C   0  0  0  0  0  2  0  0  0  0  0  0
  -26.0540  -29.5000   20.7650 C   0  0  0  0  0  0  0  0  0  0  0  0
  -27.2600  -28.7550   20.7740 C   0  0  0  0  0  3  0  0  0  0  0  0
  -26.1460  -26.9660   19.5610 C   0  0  0  0  0  3  0  0  0  0  0  0
  -24.9470  -27.7030   19.5540 C   0  0  0  0  0  3  0  0  0  0  0  0
  -23.6510  -29.8190   20.2050 C   0  0  0  0  0  2  0  0  0  0  0  0
  -24.6800  -31.1100   22.1300 N   0  0  0  0  0  0  0  0  0  0  0  0
  -23.5300  -32.1710   23.7720 O   0  0  0  0  0  0  0  0  0  0  0  0
  -22.7770  -29.4750   22.5410 C   0  0  0  0  0  0  0  0  0  0  0  0
  -21.4510  -29.2930   22.4180 N   0  0  0  0  0  0  0  0  0  0  0  0
  -23.4610  -28.8440   23.3520 O   0  0  0  0  0  0  0  0  0  0  0  0
  -20.9570  -29.8560   21.7410 H   0  0  0  0  0  0  0  0  0  0  0  0
  -18.0770  -28.1050   22.9360 C   0  0  0  0  0  0  0  0  0  0  0  0
  -20.6380  -28.3490   23.1870 C   0  0  0  0  0  3  0  0  0  0  0  0
  -20.7260  -26.9230   22.5960 C   0  0  0  0  0  2  0  0  0  0  0  0
  -19.6150  -26.6160   21.5880 C   0  0  0  0  0  2  0  0  0  0  0  0
  -18.2410  -26.7610   22.2460 C   0  0  0  0  0  2  0  0  0  0  0  0
  -19.2030  -28.8560   23.3660 C   0  0  0  0  0  0  0  0  0  0  0  0
  -18.9960  -30.1160   23.9720 C   0  0  0  0  0  3  0  0  0  0  0  0
  -17.6950  -30.6220   24.1510 C   0  0  0  0  0  3  0  0  0  0  0  0
  -16.5830  -29.8660   23.7380 C   0  0  0  0  0  3  0  0  0  0  0  0
  -16.7740  -28.6080   23.1380 C   0  0  0  0  0  3  0  0  0  0  0  0
  -25.8930  -32.5520   23.8570 C   0  0  0  0  0  3  0  0  0  0  0  0
  -25.5770  -33.9510   24.1770 N   0  0  0  0  0  0  0  0  0  0  0  0
  -25.9120  -35.0010   23.4150 C   0  0  0  0  0  0  0  0  0  0  0  0
  -26.5950  -34.8940   22.3930 O   0  0  0  0  0  0  0  0  0  0  0  0
  -24.9710  -34.1090   24.9680 H   0  0  0  0  0  0  0  0  0  0  0  0
  -24.1790  -36.7830   23.0180 C   0  0  0  0  0  1  0  0  0  0  0  0
  -25.4050  -36.3890   23.8560 C   0  0  0  0  0  3  0  0  0  0  0  0
  -27.5410  -37.2620   24.7030 C   0  0  0  0  0  1  0  0  0  0  0  0
  -26.4260  -37.4570   23.7780 N   0  0  0  0  0  0  0  0  0  0  0  0
  -26.0090  -38.3620   23.9860 H   0  0  0  0  0  0  0  0  0  0  0  0
  -26.4050  -31.7880   25.1400 C   0  0  1  0  0  0  0  0  0  0  0  0
  -25.3070  -31.5450   26.2020 C   0  0  0  0  0  1  0  0  0  0  0  0
  -26.9950  -30.4110   24.7540 C   0  0  0  0  0  1  0  0  0  0  0  0
  -27.5500  -32.5860   25.8050 C   0  0  0  0  0  1  0  0  0  0  0  0
  1  2  1  0
  3  6  2  0
  3  4  1  0
  4  1  2  0
  5 51  1  0
  5  2  2  0
  6  5  1  0
  7  9  1  0
  8 10  1  0
  8 11  1  0
 10 12  1  0
 11  4  1  0
 11  7  1  0
 12 21  1  0
 12  9  1  0
 13 21  1  0
 14 19  1  0
 15 16  1  0
 15 14  1  0
 17 16  1  0
 17 26  1  0
 17 18  1  0
 19 13  1  0
 19 18  1  0
 20 13  2  0
 21 22  1  0
 23 24  2  0
 24 43  1  0
 25 24  1  0
 25 28  1  0
 26 27  1  0
 26 23  1  0
 27 25  2  0
 28 29  1  0
 29 30  2  0
 31 34  1  0
 31 30  1  0
 32 31  2  0
 33 32  1  0
 33 28  2  0
 34 35  1  0
 35 36  1  0
 36 37  2  0
 38 37  1  0
 38 42  1  0
 39 38  2  0
 40 35  2  0
 40 39  1  0
 41 40  1  0
 43 44  1  0
 44 47  1  0
 44 46  1  0
 45 43  2  0
 48 23  1  0
 48 49  1  0
 50 48  1  0
 52 51  1  0
 53 64  2  0
 54 52  1  0
 54 59  1  0
 55 63  1  0
 55 65  1  0
 56 62  1  0
 56 58  1  0
 57 63  1  0
 58 59  2  0
 58 57  1  0
 60 54  2  0
 61 60  1  0
 61 56  2  0
 62 55  1  0
 63 53  1  0
 65 67  2  0
 66 65  1  0
 68 66  1  0
 69 78  2  0
 69 74  1  0
 70 66  1  0
 70 74  1  0
 71 70  1  0
 72 73  1  0
 72 71  1  0
 73 69  1  0
 74 75  2  0
 75 76  1  0
 77 76  2  0
 78 77  1  0
 79 53  1  0
 79 80  1  0
 79 89  1  0
 80 83  1  0
 81 85  1  0
 81 80  1  0
 82 81  2  0
 85 84  1  0
 87 85  1  0
 87 88  1  0
 87 86  1  0
 89 92  1  1
 89 90  1  0
 91 89  1  0
M  ISO  4  13 100  21 100  51 101  52 101
M  END
>  <TORSDO>  (35) 
F 18

>  <SCORE>  (35) 
-14.921

>  <name>  (35) 
34

>  <ligand_id>  (35) 
34

>  <original_smiles>  (35) 
[H]c1nc(C([H])([H])Oc2c([H])c([H])c3c(c2[H])C([H])([H])N(C(=O)C([H])(N([H])C(=O)C([H])(N([H])C([H])([H])[H])C([H])([H])[H])C(C([H])([H])[H])(C([H])([H])[H])C([H])([H])[H])C([H])(C(=O)N([H])C2([H])c4c([H])c([H])c([H])c([H])c4C([H])([H])C([H])([H])C2([H])[H])C3([H])[H])c([H])c([H])c1C1([H])C([H])([H])C([H])([H])C([H])(N([H])C(=O)N2C([H])([H])C([H])([H])C([H])([H])C([H])(n3nc(-c4c([H])c([H])c(Oc5c([H])c([H])c(F)c([H])c5F)c([H])c4[H])c(C(=O)N([H])[H])c3N([H])[H])C2([H])[H])C([H])([H])C1([H])[H]

>  <smiles>  (35) 
[H]c1nc(C([H])([H])Oc2c([H])c([H])c3c(c2[H])C([H])([H])N(C(=O)C([H])(N([H])C(=O)C([H])(N([H])C([H])([H])[H])C([H])([H])[H])C(C([H])([H])[H])(C([H])([H])[H])C([H])([H])[H])C([H])(C(=O)N([H])C2([H])c4c([H])c([H])c([H])c([H])c4C([H])([H])C([H])([H])C2([H])[H])C3([H])[H])c([H])c([H])c1C1([H])C([H])([H])C([H])([H])C([H])(N([H])C(=O)N2C([H])([H])C([H])([H])C([H])([H])C([H])(n3nc(-c4c([H])c([H])c(Oc5c([H])c([H])c(F)c([H])c5F)c([H])c4[H])c(C(=O)N([H])[H])c3N([H])[H])C2([H])[H])C([H])([H])C1([H])[H]

$$$$
35:0:0
     RDKit          3D

 98107  0  0  1  0  0  0  0  0999 V2000
  -29.2140  -20.4470   21.2910 C   0  0  0  0  0  2  0  0  0  0  0  0
  -28.2300  -20.6470   19.0410 C   0  0  0  0  0  2  0  0  0  0  0  0
  -28.1510  -21.5110   21.9000 C   0  0  0  0  0  2  0  0  0  0  0  0
  -28.7540  -19.4630   20.1070 C   0  0  0  0  0  3  0  0  0  0  0  0
  -27.8110  -22.1910   19.5000 C   0  0  0  0  0  3  0  0  0  0  0  0
  -27.7520  -22.6230   20.9610 N   0  0  1  0  0  4  0  0  0  0  0  0
  -28.5950  -23.1240   21.0170 H   0  0  0  0  0  0  0  0  0  0  0  0
  -27.3080  -24.9100   22.1720 C   0  0  0  0  0  1  0  0  0  0  0  0
  -25.2060  -23.3660   21.4690 C   0  0  0  0  0  1  0  0  0  0  0  0
  -26.7270  -23.7540   21.3240 C   0  0  0  0  0  3  0  0  0  0  0  0
  -27.7590  -23.5260   18.5580 C   0  0  0  0  0  2  0  0  0  0  0  0
  -30.3290  -24.3040   18.0570 C   0  0  0  0  0  2  0  0  0  0  0  0
  -28.5600  -26.0530   18.1950 C   0  0  0  0  0  3  0  0  0  0  0  0
  -30.8600  -24.6320   19.4420 C   0  0  0  0  0  2  0  0  0  0  0  0
  -29.5320  -26.8410   19.1770 C   0  0  0  0  0  3  0  0  0  0  0  0
  -28.8200  -24.5130   17.8480 C   0  0  0  0  0  3  0  0  0  0  0  0
  -30.6300  -26.0340   19.9710 C   0  0  0  0  0  3  0  0  0  0  0  0
  -30.6940  -26.0660   21.6150 C   0  0  0  0  0  2  0  0  0  0  0  0
  -31.5030  -27.0680   22.4760 O   0  0  0  0  0  0  0  0  0  0  0  0
  -27.5570  -31.2210   26.5540 C   0  0  0  0  0  0  0  0  0  0  0  0
  -30.8700  -28.2930   22.5000 C   0  0  0  0  0  0  0  0  0  0  0  0
  -26.8370  -30.6560   24.2710 C   0  0  0  0  0  3  0  0  0  0  0  0
  -28.6200  -29.9140   22.6670 C   0  0  0  0  0  0  0  0  0  0  0  0
  -29.3110  -30.9780   24.7940 C   0  0  0  0  0  2  0  0  0  0  0  0
  -29.5990  -30.0190   23.6630 C   0  0  0  0  0  0  0  0  0  0  0  0
  -30.7280  -29.1730   23.5990 C   0  0  0  0  0  3  0  0  0  0  0  0
  -30.0140  -28.4730   21.4180 C   0  0  0  0  0  3  0  0  0  0  0  0
  -28.8080  -29.1230   21.5570 C   0  0  0  0  0  3  0  0  0  0  0  0
  -27.3410  -30.6860   22.8070 C   0  0  0  0  0  2  0  0  0  0  0  0
  -27.8960  -30.9210   25.2690 N   0  0  0  0  0  0  0  0  0  0  0  0
  -26.3610  -31.2680   26.9140 O   0  0  0  0  0  0  0  0  0  0  0  0
  -26.1020  -29.2980   24.4810 C   0  0  0  0  0  0  0  0  0  0  0  0
  -24.9790  -29.1180   23.8120 N   0  0  0  0  0  0  0  0  0  0  0  0
  -26.4880  -28.4040   25.3100 O   0  0  0  0  0  0  0  0  0  0  0  0
  -24.9760  -29.6670   22.9600 H   0  0  0  0  0  0  0  0  0  0  0  0
  -21.9030  -27.5160   22.6510 C   0  0  0  0  0  0  0  0  0  0  0  0
  -24.0410  -27.9530   24.0490 C   0  0  0  0  0  3  0  0  0  0  0  0
  -24.6610  -26.6480   23.5580 C   0  0  0  0  0  2  0  0  0  0  0  0
  -24.1740  -26.1750   22.1640 C   0  0  0  0  0  2  0  0  0  0  0  0
  -22.6030  -26.2230   22.1310 C   0  0  0  0  0  2  0  0  0  0  0  0
  -22.6290  -28.3050   23.5980 C   0  0  0  0  0  0  0  0  0  0  0  0
  -22.0420  -29.5420   24.0930 C   0  0  0  0  0  3  0  0  0  0  0  0
  -20.7070  -29.8440   23.7950 C   0  0  0  0  0  3  0  0  0  0  0  0
  -19.9250  -28.8520   23.0380 C   0  0  0  0  0  3  0  0  0  0  0  0
  -20.5550  -27.7910   22.3370 C   0  0  0  0  0  3  0  0  0  0  0  0
  -28.6340  -31.5700   27.6410 C   0  0  0  0  0  3  0  0  0  0  0  0
  -28.5450  -33.0250   27.8740 N   0  0  0  0  0  0  0  0  0  0  0  0
  -29.3370  -33.9310   27.3010 C   0  0  0  0  0  0  0  0  0  0  0  0
  -30.2520  -33.6120   26.5400 O   0  0  0  0  0  0  0  0  0  0  0  0
  -27.8240  -33.3460   28.5000 H   0  0  0  0  0  0  0  0  0  0  0  0
  -28.2130  -36.0380   26.5510 C   0  0  0  0  0  1  0  0  0  0  0  0
  -29.0820  -35.4060   27.6510 C   0  0  0  0  0  3  0  0  0  0  0  0
  -31.1310  -35.7930   28.9600 C   0  0  0  0  0  1  0  0  0  0  0  0
  -30.3220  -36.2050   27.8160 N   0  0  0  0  0  0  0  0  0  0  0  0
  -30.1130  -37.2010   27.9180 H   0  0  0  0  0  0  0  0  0  0  0  0
  -28.4250  -30.7600   28.9890 C   0  0  1  0  0  0  0  0  0  0  0  0
  -26.9860  -30.8350   29.5370 C   0  0  0  0  0  1  0  0  0  0  0  0
  -28.7600  -29.2700   28.7880 C   0  0  0  0  0  1  0  0  0  0  0  0
  -29.3740  -31.2830   30.0890 C   0  0  0  0  0  1  0  0  0  0  0  0
  -29.9310  -18.2190   19.6610 C   0  0  0  0  0  2  0  0  0  0  0  0
  -31.4580  -15.8820   20.4190 C   0  0  0  0  0  0  0  0  0  0  0  0
  -31.6520  -13.3020   20.3980 C   0  0  0  0  0  2  0  0  0  0  0  0
  -30.9660  -12.5890   19.2120 C   0  0  0  0  0  2  0  0  0  0  0  0
  -29.4400  -12.4940   19.4090 C   0  0  0  0  0  2  0  0  0  0  0  0
  -28.8510  -13.8350   19.9250 C   0  0  0  0  0  3  0  0  0  0  0  0
  -29.6020  -14.3460   21.1510 C   0  0  0  0  0  2  0  0  0  0  0  0
  -30.9570  -14.6060   20.7030 N   0  0  0  0  0  0  0  0  0  0  0  0
  -32.6570  -15.9120   20.0560 O   0  0  0  0  0  0  0  0  0  0  0  0
  -30.6300  -17.0830   20.5870 N   0  0  0  0  0  0  0  0  0  0  0  0
  -31.2110  -17.6550   21.2230 H   0  0  0  0  0  0  0  0  0  0  0  0
  -26.5400  -14.7720   20.3290 C   0  0  0  0  0  0  0  0  0  0  0  0
  -25.3290  -14.1760   20.5750 C   0  0  0  0  0  0  0  0  0  0  0  0
  -25.5960  -12.7780   20.6310 C   0  0  0  0  0  0  0  0  0  0  0  0
  -27.4480  -13.7410   20.2140 N   0  0  0  0  0  0  0  0  0  0  0  0
  -26.8940  -12.5390   20.4780 N   0  0  0  0  0  0  0  0  0  0  0  0
  -24.6860  -11.6360   20.7650 C   0  0  0  0  0  0  0  0  0  0  0  0
  -25.0110  -10.5220   21.5710 C   0  0  0  0  0  3  0  0  0  0  0  0
  -24.1120   -9.4390   21.6900 C   0  0  0  0  0  3  0  0  0  0  0  0
  -22.8680   -9.4710   21.0080 C   0  0  0  0  0  0  0  0  0  0  0  0
  -22.5720  -10.5660   20.1730 C   0  0  0  0  0  3  0  0  0  0  0  0
  -23.4730  -11.6380   20.0540 C   0  0  0  0  0  3  0  0  0  0  0  0
  -21.9400   -8.4550   21.0380 O   0  0  0  0  0  0  0  0  0  0  0  0
  -21.9410   -7.5170   22.0370 C   0  0  0  0  0  0  0  0  0  0  0  0
  -21.9090   -7.8820   23.4010 C   0  0  0  0  0  3  0  0  0  0  0  0
  -21.8380   -6.8850   24.3940 C   0  0  0  0  0  3  0  0  0  0  0  0
  -21.7920   -5.5260   24.0270 C   0  0  0  0  0  0  0  0  0  0  0  0
  -21.8240   -5.1620   22.6690 C   0  0  0  0  0  3  0  0  0  0  0  0
  -21.8960   -6.1560   21.6770 C   0  0  0  0  0  0  0  0  0  0  0  0
  -21.9000   -5.8040   20.3700 F   0  0  0  0  0  0  0  0  0  0  0  0
  -21.7200   -4.5640   24.9790 F   0  0  0  0  0  0  0  0  0  0  0  0
  -23.9920  -14.8530   20.6710 C   0  0  0  0  0  0  0  0  0  0  0  0
  -23.0900  -14.3060   21.4820 N   0  0  0  0  0  0  0  0  0  0  0  0
  -23.7750  -15.9020   20.0700 O   0  0  0  0  0  0  0  0  0  0  0  0
  -23.2900  -13.4590   21.9860 H   0  0  0  0  0  0  0  0  0  0  0  0
  -22.1920  -14.7450   21.5780 H   0  0  0  0  0  0  0  0  0  0  0  0
  -26.9240  -16.1000   20.1440 N   0  0  0  0  0  0  0  0  0  0  0  0
  -26.2780  -16.8880   20.1600 H   0  0  0  0  0  0  0  0  0  0  0  0
  -27.8800  -16.3810   19.9760 H   0  0  0  0  0  0  0  0  0  0  0  0
  1  3  1  0
  2  5  1  0
  2  4  1  0
  4 60  1  0
  4  1  1  0
  5 11  1  0
  5  6  1  0
  6  7  1  6
  6 10  1  0
  6  3  1  0
 10  9  1  0
 10  8  1  0
 12 14  1  0
 13 15  2  0
 14 17  1  0
 15 17  1  0
 16 12  1  0
 16 13  1  0
 16 11  1  0
 17 18  1  0
 18 19  1  0
 19 21  1  0
 20 31  2  0
 21 26  1  0
 22 32  1  0
 22 30  1  0
 23 29  1  0
 23 25  1  0
 24 30  1  0
 25 24  1  0
 26 25  2  0
 27 28  1  0
 27 21  2  0
 28 23  2  0
 29 22  1  0
 30 20  1  0
 32 34  2  0
 33 32  1  0
 35 33  1  0
 36 41  1  0
 37 33  1  0
 38 37  1  0
 39 38  1  0
 40 39  1  0
 40 36  1  0
 41 37  1  0
 41 42  2  0
 43 42  1  0
 44 43  2  0
 45 36  2  0
 45 44  1  0
 46 20  1  0
 46 47  1  0
 46 56  1  0
 47 50  1  0
 48 52  1  0
 48 47  1  0
 49 48  2  0
 52 51  1  0
 52 54  1  0
 54 55  1  0
 54 53  1  0
 56 57  1  1
 56 59  1  0
 58 56  1  0
 60 69  1  0
 61 69  1  0
 61 67  1  0
 62 67  1  0
 63 64  1  0
 63 62  1  0
 65 64  1  0
 65 74  1  0
 65 66  1  0
 67 66  1  0
 68 61  2  0
 69 70  1  0
 71 72  2  0
 72 73  1  0
 72 91  1  0
 73 76  1  0
 74 71  1  0
 74 75  1  0
 75 73  2  0
 76 77  1  0
 77 78  2  0
 79 82  1  0
 79 78  1  0
 80 79  2  0
 81 80  1  0
 81 76  2  0
 82 83  1  0
 83 84  1  0
 84 85  2  0
 86 85  1  0
 86 90  1  0
 87 86  2  0
 88 83  2  0
 88 87  1  0
 89 88  1  0
 91 92  1  0
 92 95  1  0
 92 94  1  0
 93 91  2  0
 96 97  1  0
 96 71  1  0
 98 96  1  0
M  ISO  4  18 101  19 101  61 100  69 100
M  END
>  <TORSDO>  (36) 
F 21

>  <SCORE>  (36) 
-9.089

>  <name>  (36) 
35

>  <ligand_id>  (36) 
35

>  <original_smiles>  (36) 
[H]c1c([H])c([H])c2c(c1[H])C([H])([H])C([H])([H])C([H])([H])C2([H])N([H])C(=O)C1([H])N(C(=O)C([H])(N([H])C(=O)C([H])(N([H])C([H])([H])[H])C([H])([H])[H])C(C([H])([H])[H])(C([H])([H])[H])C([H])([H])[H])C([H])([H])c2c([H])c(OC([H])([H])C3([H])C([H])([H])C([H])([H])C([H])(C([H])([H])C4([H])C([H])([H])C([H])(C([H])([H])N([H])C(=O)N5C([H])([H])C([H])([H])C([H])([H])C([H])(n6nc(-c7c([H])c([H])c(Oc8c([H])c([H])c(F)c([H])c8F)c([H])c7[H])c(C(=O)N([H])[H])c6N([H])[H])C5([H])[H])C([H])([H])C([H])([H])[N+]4([H])C([H])(C([H])([H])[H])C([H])([H])[H])C([H])([H])C3([H])[H])c([H])c([H])c2C1([H])[H]

>  <smiles>  (36) 
[H]c1c([H])c([H])c2c(c1[H])C([H])([H])C([H])([H])C([H])([H])C2([H])N([H])C(=O)C1([H])N(C(=O)C([H])(N([H])C(=O)C([H])(N([H])C([H])([H])[H])C([H])([H])[H])C(C([H])([H])[H])(C([H])([H])[H])C([H])([H])[H])C([H])([H])c2c([H])c(OC([H])([H])C3([H])C([H])([H])C([H])([H])C([H])(C([H])([H])C4([H])C([H])([H])C([H])(C([H])([H])N([H])C(=O)N5C([H])([H])C([H])([H])C([H])([H])C([H])(n6nc(-c7c([H])c([H])c(Oc8c([H])c([H])c(F)c([H])c8F)c([H])c7[H])c(C(=O)N([H])[H])c6N([H])[H])C5([H])[H])C([H])([H])C([H])([H])[N+]4([H])C([H])(C([H])([H])[H])C([H])([H])[H])C([H])([H])C3([H])[H])c([H])c([H])c2C1([H])[H]

$$$$
36:0:0
     RDKit          3D

 89 97  0  0  1  0  0  0  0  0999 V2000
  -28.5530  -21.6870   20.1920 O   0  0  0  0  0  0  0  0  0  0  0  0
  -31.1760  -18.3220   21.0070 C   0  0  0  0  0  3  0  0  0  0  0  0
  -29.0200  -19.0270   20.2730 C   0  0  0  0  0  3  0  0  0  0  0  0
  -31.4510  -19.7020   21.1820 C   0  0  0  0  0  3  0  0  0  0  0  0
  -29.9280  -17.8610   20.5360 C   0  0  0  0  0  0  0  0  0  0  0  0
  -29.3650  -20.4760   20.4600 C   0  0  0  0  0  0  0  0  0  0  0  0
  -30.6010  -20.7320   20.9270 N   0  0  0  0  0  0  0  0  0  0  0  0
  -30.4640  -15.1220   20.3190 C   0  0  0  0  0  0  0  0  0  0  0  0
  -30.3670  -12.7600   19.3480 C   0  0  0  0  0  2  0  0  0  0  0  0
  -29.4200  -12.6900   18.1270 C   0  0  0  0  0  2  0  0  0  0  0  0
  -27.9670  -12.4490   18.5770 C   0  0  0  0  0  2  0  0  0  0  0  0
  -27.5600  -13.3560   19.7680 C   0  0  0  0  0  3  0  0  0  0  0  0
  -28.6320  -13.3940   20.8760 C   0  0  0  0  0  2  0  0  0  0  0  0
  -29.8770  -13.8500   20.2450 N   0  0  0  0  0  0  0  0  0  0  0  0
  -31.6760  -15.1620   20.0670 O   0  0  0  0  0  0  0  0  0  0  0  0
  -29.6660  -16.3220   20.4240 N   0  0  0  0  0  0  0  0  0  0  0  0
  -28.6850  -16.0940   20.4290 H   0  0  0  0  0  0  0  0  0  0  0  0
  -25.1890  -13.8980   20.5510 C   0  0  0  0  0  0  0  0  0  0  0  0
  -24.1370  -13.1090   20.9280 C   0  0  0  0  0  0  0  0  0  0  0  0
  -24.6140  -11.7630   20.8750 C   0  0  0  0  0  0  0  0  0  0  0  0
  -26.2360  -13.0320   20.2850 N   0  0  0  0  0  0  0  0  0  0  0  0
  -25.9020  -11.7420   20.5480 N   0  0  0  0  0  0  0  0  0  0  0  0
  -23.9000  -10.4920   21.0600 C   0  0  0  0  0  0  0  0  0  0  0  0
  -24.3380   -9.5240   21.9900 C   0  0  0  0  0  3  0  0  0  0  0  0
  -23.6210   -8.3220   22.1650 C   0  0  0  0  0  3  0  0  0  0  0  0
  -22.4510   -8.0770   21.4070 C   0  0  0  0  0  0  0  0  0  0  0  0
  -22.0310   -9.0340   20.4660 C   0  0  0  0  0  3  0  0  0  0  0  0
  -22.7490  -10.2280   20.2900 C   0  0  0  0  0  3  0  0  0  0  0  0
  -21.7040   -6.9270   21.4900 O   0  0  0  0  0  0  0  0  0  0  0  0
  -21.6440   -6.1890   22.6460 C   0  0  0  0  0  0  0  0  0  0  0  0
  -21.1610   -6.7360   23.8540 C   0  0  0  0  0  3  0  0  0  0  0  0
  -21.0520   -5.9230   25.0000 C   0  0  0  0  0  3  0  0  0  0  0  0
  -21.4160   -4.5650   24.9380 C   0  0  0  0  0  0  0  0  0  0  0  0
  -21.8930   -4.0180   23.7340 C   0  0  0  0  0  3  0  0  0  0  0  0
  -22.0040   -4.8280   22.5900 C   0  0  0  0  0  0  0  0  0  0  0  0
  -22.4430   -4.2910   21.4270 F   0  0  0  0  0  0  0  0  0  0  0  0
  -21.3040   -3.7820   26.0360 F   0  0  0  0  0  0  0  0  0  0  0  0
  -22.7400  -13.5720   21.2170 C   0  0  0  0  0  0  0  0  0  0  0  0
  -22.0240  -12.8590   22.0800 N   0  0  0  0  0  0  0  0  0  0  0  0
  -22.2910  -14.6000   20.7130 O   0  0  0  0  0  0  0  0  0  0  0  0
  -22.4030  -12.0280   22.5080 H   0  0  0  0  0  0  0  0  0  0  0  0
  -21.0880  -13.1510   22.3170 H   0  0  0  0  0  0  0  0  0  0  0  0
  -25.3370  -15.2720   20.3850 N   0  0  0  0  0  0  0  0  0  0  0  0
  -24.5590  -15.9120   20.5070 H   0  0  0  0  0  0  0  0  0  0  0  0
  -26.1570  -15.7180   19.9980 H   0  0  0  0  0  0  0  0  0  0  0  0
  -28.8990  -23.1970   20.4870 C   0  0  0  0  0  2  0  0  0  0  0  0
  -28.2230  -24.5580   18.3950 C   0  0  0  0  0  1  0  0  0  0  0  0
  -28.0630  -24.5970   19.9240 C   0  0  0  0  0  3  0  0  0  0  0  0
  -28.2440  -26.1320   20.3080 O   0  0  0  0  0  0  0  0  0  0  0  0
  -24.6250  -31.9270   23.2330 C   0  0  0  0  0  0  0  0  0  0  0  0
  -27.2000  -27.1520   20.2230 C   0  0  0  0  0  0  0  0  0  0  0  0
  -23.4360  -30.5340   21.5890 C   0  0  0  0  0  3  0  0  0  0  0  0
  -24.8870  -28.9500   20.1760 C   0  0  0  0  0  0  0  0  0  0  0  0
  -25.9970  -30.7760   21.4470 C   0  0  0  0  0  2  0  0  0  0  0  0
  -26.0700  -29.3780   20.7930 C   0  0  0  0  0  0  0  0  0  0  0  0
  -27.2250  -28.4990   20.7950 C   0  0  0  0  0  3  0  0  0  0  0  0
  -25.9830  -26.8400   19.5780 C   0  0  0  0  0  3  0  0  0  0  0  0
  -24.8610  -27.6960   19.5510 C   0  0  0  0  0  3  0  0  0  0  0  0
  -23.6670  -29.8580   20.2120 C   0  0  0  0  0  2  0  0  0  0  0  0
  -24.7070  -31.1020   22.1430 N   0  0  0  0  0  0  0  0  0  0  0  0
  -23.5340  -32.2160   23.7490 O   0  0  0  0  0  0  0  0  0  0  0  0
  -22.7430  -29.5310   22.5460 C   0  0  0  0  0  0  0  0  0  0  0  0
  -21.4160  -29.3620   22.4080 N   0  0  0  0  0  0  0  0  0  0  0  0
  -23.4050  -28.9060   23.3800 O   0  0  0  0  0  0  0  0  0  0  0  0
  -20.9360  -29.9180   21.7130 H   0  0  0  0  0  0  0  0  0  0  0  0
  -18.0260  -28.1750   22.9000 C   0  0  0  0  0  0  0  0  0  0  0  0
  -20.5850  -28.4280   23.1740 C   0  0  0  0  0  3  0  0  0  0  0  0
  -20.6810  -26.9950   22.5990 C   0  0  0  0  0  2  0  0  0  0  0  0
  -19.5810  -26.6770   21.5820 C   0  0  0  0  0  2  0  0  0  0  0  0
  -18.1980  -26.8260   22.2210 C   0  0  0  0  0  2  0  0  0  0  0  0
  -19.1460  -28.9330   23.3330 C   0  0  0  0  0  0  0  0  0  0  0  0
  -18.9280  -30.1930   23.9320 C   0  0  0  0  0  3  0  0  0  0  0  0
  -17.6250  -30.6970   24.0970 C   0  0  0  0  0  3  0  0  0  0  0  0
  -16.5190  -29.9370   23.6760 C   0  0  0  0  0  3  0  0  0  0  0  0
  -16.7210  -28.6770   23.0850 C   0  0  0  0  0  3  0  0  0  0  0  0
  -25.8960  -32.5630   23.8710 C   0  0  0  0  0  3  0  0  0  0  0  0
  -26.3870  -31.8010   25.1640 C   0  0  1  0  0  0  0  0  0  0  0  0
  -25.2740  -31.5750   26.2150 C   0  0  0  0  0  1  0  0  0  0  0  0
  -26.9730  -30.4170   24.8000 C   0  0  0  0  0  1  0  0  0  0  0  0
  -27.5280  -32.5980   25.8380 C   0  0  0  0  0  1  0  0  0  0  0  0
  -25.5830  -33.9660   24.1910 N   0  0  0  0  0  0  0  0  0  0  0  0
  -25.9160  -35.0170   23.4300 C   0  0  0  0  0  0  0  0  0  0  0  0
  -26.5830  -34.9080   22.3980 O   0  0  0  0  0  0  0  0  0  0  0  0
  -24.9870  -34.1240   24.9900 H   0  0  0  0  0  0  0  0  0  0  0  0
  -24.1930  -36.8190   23.0770 C   0  0  0  0  0  1  0  0  0  0  0  0
  -25.4360  -36.4110   23.8850 C   0  0  0  0  0  3  0  0  0  0  0  0
  -27.5690  -37.3030   24.7110 C   0  0  0  0  0  1  0  0  0  0  0  0
  -26.4710  -37.4610   23.7610 N   0  0  0  0  0  0  0  0  0  0  0  0
  -26.0660  -38.3830   23.8950 H   0  0  0  0  0  0  0  0  0  0  0  0
  1  6  1  0
  1 46  1  0
  2  4  2  0
  3  6  1  0
  3  5  2  0
  5  2  1  0
  6  7  2  0
  7  4  1  0
  8 16  1  0
  9 14  1  0
 10 11  1  0
 10  9  1  0
 12 11  1  0
 12 21  1  0
 12 13  1  0
 14  8  1  0
 14 13  1  0
 15  8  2  0
 16 17  1  0
 16  5  1  0
 18 19  2  0
 19 38  1  0
 20 19  1  0
 20 23  1  0
 21 22  1  0
 21 18  1  0
 22 20  2  0
 23 24  1  0
 24 25  2  0
 26 29  1  0
 26 25  1  0
 27 26  2  0
 28 27  1  0
 28 23  2  0
 29 30  1  0
 30 31  1  0
 31 32  2  0
 33 32  1  0
 33 37  1  0
 34 33  2  0
 35 30  2  0
 35 34  1  0
 36 35  1  0
 38 39  1  0
 39 42  1  0
 39 41  1  0
 40 38  2  0
 43 44  1  0
 43 18  1  0
 45 43  1  0
 48 47  1  0
 48 49  1  0
 48 46  1  0
 50 61  2  0
 51 49  1  0
 51 56  1  0
 52 60  1  0
 52 62  1  0
 53 59  1  0
 53 55  1  0
 54 60  1  0
 55 56  2  0
 55 54  1  0
 57 51  2  0
 58 57  1  0
 58 53  2  0
 59 52  1  0
 60 50  1  0
 62 64  2  0
 63 62  1  0
 65 63  1  0
 66 75  2  0
 66 71  1  0
 67 63  1  0
 67 71  1  0
 68 67  1  0
 69 70  1  0
 69 68  1  0
 70 66  1  0
 71 72  2  0
 72 73  1  0
 74 73  2  0
 75 74  1  0
 76 50  1  0
 76 81  1  0
 76 77  1  0
 77 80  1  1
 77 78  1  0
 79 77  1  0
 81 84  1  0
 82 86  1  0
 82 81  1  0
 83 82  2  0
 86 85  1  0
 88 86  1  0
 88 89  1  0
 88 87  1  0
M  ISO  4   8 100  16 100  48 101  49 101
M  END
>  <TORSDO>  (37) 
F 19

>  <SCORE>  (37) 
-14.998

>  <name>  (37) 
36

>  <ligand_id>  (37) 
36

>  <original_smiles>  (37) 
[H]c1nc(OC([H])([H])C([H])(Oc2c([H])c([H])c3c(c2[H])C([H])([H])N(C(=O)C([H])(N([H])C(=O)C([H])(N([H])C([H])([H])[H])C([H])([H])[H])C(C([H])([H])[H])(C([H])([H])[H])C([H])([H])[H])C([H])(C(=O)N([H])C2([H])c4c([H])c([H])c([H])c([H])c4C([H])([H])C([H])([H])C2([H])[H])C3([H])[H])C([H])([H])[H])c([H])c(N([H])C(=O)N2C([H])([H])C([H])([H])C([H])([H])C([H])(n3nc(-c4c([H])c([H])c(Oc5c([H])c([H])c(F)c([H])c5F)c([H])c4[H])c(C(=O)N([H])[H])c3N([H])[H])C2([H])[H])c1[H]

>  <smiles>  (37) 
[H]c1nc(OC([H])([H])C([H])(Oc2c([H])c([H])c3c(c2[H])C([H])([H])N(C(=O)C([H])(N([H])C(=O)C([H])(N([H])C([H])([H])[H])C([H])([H])[H])C(C([H])([H])[H])(C([H])([H])[H])C([H])([H])[H])C([H])(C(=O)N([H])C2([H])c4c([H])c([H])c([H])c([H])c4C([H])([H])C([H])([H])C2([H])[H])C3([H])[H])C([H])([H])[H])c([H])c(N([H])C(=O)N2C([H])([H])C([H])([H])C([H])([H])C([H])(n3nc(-c4c([H])c([H])c(Oc5c([H])c([H])c(F)c([H])c5F)c([H])c4[H])c(C(=O)N([H])[H])c3N([H])[H])C2([H])[H])c1[H]

$$$$
37:0:0
     RDKit          3D

 91100  0  0  1  0  0  0  0  0999 V2000
  -29.5380  -21.3440   21.4390 C   0  0  0  0  0  2  0  0  0  0  0  0
  -29.5830  -21.6610   19.0090 C   0  0  0  0  0  2  0  0  0  0  0  0
  -28.8340  -22.7370   21.6050 C   0  0  0  0  0  2  0  0  0  0  0  0
  -28.9030  -23.0800   19.1620 C   0  0  0  0  0  2  0  0  0  0  0  0
  -29.2210  -20.6030   20.1070 C   0  0  0  0  0  3  0  0  0  0  0  0
  -29.1390  -23.8220   20.5190 C   0  0  0  0  0  3  0  0  0  0  0  0
  -30.9430  -14.7980   19.6760 C   0  0  0  0  0  0  0  0  0  0  0  0
  -30.5690  -12.5640   18.6550 C   0  0  0  0  0  2  0  0  0  0  0  0
  -29.5090  -12.6800   17.5420 C   0  0  0  0  0  2  0  0  0  0  0  0
  -28.0950  -12.5100   18.1300 C   0  0  0  0  0  2  0  0  0  0  0  0
  -27.8620  -13.3760   19.3980 C   0  0  0  0  0  3  0  0  0  0  0  0
  -29.0380  -13.2780   20.3930 C   0  0  0  0  0  2  0  0  0  0  0  0
  -30.2610  -13.6080   19.6550 N   0  0  0  0  0  0  0  0  0  0  0  0
  -32.0990  -14.8520   19.2450 O   0  0  0  0  0  0  0  0  0  0  0  0
  -29.3280  -18.2210   18.8410 C   0  0  0  0  0  2  0  0  0  0  0  0
  -30.0620  -16.8370   18.6710 C   0  0  0  0  0  2  0  0  0  0  0  0
  -30.7180  -16.8650   20.9840 C   0  0  0  0  0  2  0  0  0  0  0  0
  -29.9030  -19.1410   19.9550 C   0  0  0  0  0  3  0  0  0  0  0  0
  -29.9330  -18.2140   21.2170 C   0  0  0  0  0  3  0  0  0  0  0  0
  -28.5380  -17.9340   21.8070 C   0  0  0  0  0  1  0  0  0  0  0  0
  -30.2470  -15.9810   19.8830 N   0  0  0  0  0  0  0  0  0  0  0  0
  -25.5930  -13.9410   20.4530 C   0  0  0  0  0  0  0  0  0  0  0  0
  -24.5630  -13.1550   20.8930 C   0  0  0  0  0  0  0  0  0  0  0  0
  -24.9920  -11.8030   20.7140 C   0  0  0  0  0  0  0  0  0  0  0  0
  -26.5830  -13.0690   20.0320 N   0  0  0  0  0  0  0  0  0  0  0  0
  -26.2360  -11.7730   20.2500 N   0  0  0  0  0  0  0  0  0  0  0  0
  -24.2680  -10.5380   20.9030 C   0  0  0  0  0  0  0  0  0  0  0  0
  -24.7120   -9.5630   21.8230 C   0  0  0  0  0  3  0  0  0  0  0  0
  -23.9870   -8.3650   22.0010 C   0  0  0  0  0  3  0  0  0  0  0  0
  -22.8040   -8.1330   21.2570 C   0  0  0  0  0  0  0  0  0  0  0  0
  -22.3800   -9.0980   20.3270 C   0  0  0  0  0  3  0  0  0  0  0  0
  -23.1040  -10.2870   20.1480 C   0  0  0  0  0  3  0  0  0  0  0  0
  -22.0490   -6.9880   21.3460 O   0  0  0  0  0  0  0  0  0  0  0  0
  -21.8840   -6.3240   22.5350 C   0  0  0  0  0  0  0  0  0  0  0  0
  -21.3160   -6.9510   23.6650 C   0  0  0  0  0  3  0  0  0  0  0  0
  -21.1010   -6.2130   24.8470 C   0  0  0  0  0  3  0  0  0  0  0  0
  -21.4430   -4.8480   24.8960 C   0  0  0  0  0  0  0  0  0  0  0  0
  -22.0050   -4.2210   23.7700 C   0  0  0  0  0  3  0  0  0  0  0  0
  -22.2210   -4.9560   22.5910 C   0  0  0  0  0  0  0  0  0  0  0  0
  -22.7420   -4.3420   21.5020 F   0  0  0  0  0  0  0  0  0  0  0  0
  -21.2300   -4.1350   26.0270 F   0  0  0  0  0  0  0  0  0  0  0  0
  -23.2170  -13.6270   21.3620 C   0  0  0  0  0  0  0  0  0  0  0  0
  -22.5950  -12.8920   22.2760 N   0  0  0  0  0  0  0  0  0  0  0  0
  -22.7330  -14.6820   20.9550 O   0  0  0  0  0  0  0  0  0  0  0  0
  -23.0010  -12.0360   22.6240 H   0  0  0  0  0  0  0  0  0  0  0  0
  -21.6960  -13.1880   22.6310 H   0  0  0  0  0  0  0  0  0  0  0  0
  -25.7640  -15.3180   20.3510 N   0  0  0  0  0  0  0  0  0  0  0  0
  -25.0390  -15.9770   20.6100 H   0  0  0  0  0  0  0  0  0  0  0  0
  -26.5960  -15.7630   19.9860 H   0  0  0  0  0  0  0  0  0  0  0  0
  -28.2630  -25.1500   20.7750 C   0  0  0  0  0  2  0  0  0  0  0  0
  -28.5730  -26.5120   20.2580 O   0  0  0  0  0  0  0  0  0  0  0  0
  -24.6970  -31.8560   23.2260 C   0  0  0  0  0  0  0  0  0  0  0  0
  -27.4720  -27.3830   20.1920 C   0  0  0  0  0  0  0  0  0  0  0  0
  -23.5610  -30.4420   21.5530 C   0  0  0  0  0  3  0  0  0  0  0  0
  -25.0780  -28.9450   20.1390 C   0  0  0  0  0  0  0  0  0  0  0  0
  -26.0970  -30.8230   21.4230 C   0  0  0  0  0  2  0  0  0  0  0  0
  -26.2230  -29.4530   20.7680 C   0  0  0  0  0  0  0  0  0  0  0  0
  -27.4280  -28.6830   20.7870 C   0  0  0  0  0  3  0  0  0  0  0  0
  -26.3140  -26.9440   19.5190 C   0  0  0  0  0  3  0  0  0  0  0  0
  -25.1260  -27.6960   19.5030 C   0  0  0  0  0  3  0  0  0  0  0  0
  -23.8180  -29.7860   20.1710 C   0  0  0  0  0  2  0  0  0  0  0  0
  -24.8030  -31.0570   22.1240 N   0  0  0  0  0  0  0  0  0  0  0  0
  -23.5980  -32.1010   23.7430 O   0  0  0  0  0  0  0  0  0  0  0  0
  -22.9070  -29.4000   22.4910 C   0  0  0  0  0  0  0  0  0  0  0  0
  -21.5940  -29.1690   22.3190 N   0  0  0  0  0  0  0  0  0  0  0  0
  -23.5810  -28.8010   23.3340 O   0  0  0  0  0  0  0  0  0  0  0  0
  -21.1080  -29.7050   21.6130 H   0  0  0  0  0  0  0  0  0  0  0  0
  -18.2470  -27.8530   22.7150 C   0  0  0  0  0  0  0  0  0  0  0  0
  -20.7860  -28.2020   23.0640 C   0  0  0  0  0  3  0  0  0  0  0  0
  -20.9570  -26.7750   22.4930 C   0  0  0  0  0  2  0  0  0  0  0  0
  -19.8990  -26.4150   21.4460 C   0  0  0  0  0  2  0  0  0  0  0  0
  -18.4930  -26.5120   22.0450 C   0  0  0  0  0  2  0  0  0  0  0  0
  -19.3250  -28.6530   23.1790 C   0  0  0  0  0  0  0  0  0  0  0  0
  -19.0430  -29.9070   23.7630 C   0  0  0  0  0  3  0  0  0  0  0  0
  -17.7170  -30.3610   23.8890 C   0  0  0  0  0  3  0  0  0  0  0  0
  -16.6530  -29.5580   23.4410 C   0  0  0  0  0  3  0  0  0  0  0  0
  -16.9190  -28.3060   22.8600 C   0  0  0  0  0  3  0  0  0  0  0  0
  -25.9520  -32.5170   23.8770 C   0  0  0  0  0  3  0  0  0  0  0  0
  -25.6070  -33.9100   24.1910 N   0  0  0  0  0  0  0  0  0  0  0  0
  -25.9330  -34.9660   23.4330 C   0  0  0  0  0  0  0  0  0  0  0  0
  -26.6260  -34.8700   22.4170 O   0  0  0  0  0  0  0  0  0  0  0  0
  -24.9930  -34.0580   24.9790 H   0  0  0  0  0  0  0  0  0  0  0  0
  -24.1800  -36.7230   23.0320 C   0  0  0  0  0  1  0  0  0  0  0  0
  -25.4110  -36.3470   23.8730 C   0  0  0  0  0  3  0  0  0  0  0  0
  -27.5050  -37.2830   24.7490 C   0  0  0  0  0  1  0  0  0  0  0  0
  -26.4250  -37.4200   23.7760 N   0  0  0  0  0  0  0  0  0  0  0  0
  -25.9980  -38.3320   23.9040 H   0  0  0  0  0  0  0  0  0  0  0  0
  -26.4490  -31.7630   25.1700 C   0  0  1  0  0  0  0  0  0  0  0  0
  -25.3290  -31.4940   26.2020 C   0  0  0  0  0  1  0  0  0  0  0  0
  -27.0850  -30.4030   24.8020 C   0  0  0  0  0  1  0  0  0  0  0  0
  -27.5530  -32.5910   25.8680 C   0  0  0  0  0  1  0  0  0  0  0  0
  1  3  1  0
  2  4  1  0
  4  6  1  0
  5  2  1  0
  5  1  1  0
  6 50  1  0
  6  3  1  0
  7 21  1  0
  8 13  1  0
  9 10  1  0
  9  8  1  0
 11 10  1  0
 11 25  1  0
 11 12  1  0
 13  7  1  0
 13 12  1  0
 14  7  2  0
 16 15  1  0
 16 21  1  0
 17 19  1  0
 18 15  1  0
 18  5  1  0
 18 19  1  0
 19 20  1  0
 21 17  1  0
 22 23  2  0
 23 42  1  0
 24 23  1  0
 24 27  1  0
 25 26  1  0
 25 22  1  0
 26 24  2  0
 27 28  1  0
 28 29  2  0
 30 33  1  0
 30 29  1  0
 31 30  2  0
 32 31  1  0
 32 27  2  0
 33 34  1  0
 34 39  2  0
 34 35  1  0
 35 36  2  0
 36 37  1  0
 37 41  1  0
 38 37  2  0
 39 38  1  0
 40 39  1  0
 42 43  1  0
 43 45  1  0
 43 46  1  0
 44 42  2  0
 47 22  1  0
 47 48  1  0
 49 47  1  0
 51 50  1  0
 52 63  2  0
 53 51  1  0
 53 58  1  0
 54 62  1  0
 54 64  1  0
 55 61  1  0
 55 57  1  0
 56 62  1  0
 57 58  2  0
 57 56  1  0
 59 53  2  0
 60 59  1  0
 60 55  2  0
 61 54  1  0
 62 52  1  0
 64 66  2  0
 65 64  1  0
 67 65  1  0
 68 77  2  0
 68 73  1  0
 69 65  1  0
 69 73  1  0
 70 69  1  0
 71 72  1  0
 71 70  1  0
 72 68  1  0
 73 74  2  0
 74 75  1  0
 76 75  2  0
 77 76  1  0
 78 52  1  0
 78 79  1  0
 78 88  1  0
 79 82  1  0
 80 84  1  0
 80 79  1  0
 81 80  2  0
 84 83  1  0
 86 84  1  0
 86 87  1  0
 86 85  1  0
 88 91  1  1
 88 89  1  0
 90 88  1  0
M  ISO  4   7 100  21 100  50 101  51 101
M  END
>  <TORSDO>  (38) 
F 17

>  <SCORE>  (38) 
-12.200

>  <name>  (38) 
37

>  <ligand_id>  (38) 
37

>  <original_smiles>  (38) 
[H]c1c([H])c([H])c2c(c1[H])C([H])([H])C([H])([H])C([H])([H])C2([H])N([H])C(=O)C1([H])N(C(=O)C([H])(N([H])C(=O)C([H])(N([H])C([H])([H])[H])C([H])([H])[H])C(C([H])([H])[H])(C([H])([H])[H])C([H])([H])[H])C([H])([H])c2c([H])c(OC([H])([H])C3([H])C([H])([H])C([H])([H])C([H])(C4([H])C([H])([H])C([H])([H])N(C(=O)N5C([H])([H])C([H])([H])C([H])([H])C([H])(n6nc(-c7c([H])c([H])c(Oc8c([H])c([H])c(F)c([H])c8F)c([H])c7[H])c(C(=O)N([H])[H])c6N([H])[H])C5([H])[H])C([H])([H])C4([H])C([H])([H])[H])C([H])([H])C3([H])[H])c([H])c([H])c2C1([H])[H]

>  <smiles>  (38) 
[H]c1c([H])c([H])c2c(c1[H])C([H])([H])C([H])([H])C([H])([H])C2([H])N([H])C(=O)C1([H])N(C(=O)C([H])(N([H])C(=O)C([H])(N([H])C([H])([H])[H])C([H])([H])[H])C(C([H])([H])[H])(C([H])([H])[H])C([H])([H])[H])C([H])([H])c2c([H])c(OC([H])([H])C3([H])C([H])([H])C([H])([H])C([H])(C4([H])C([H])([H])C([H])([H])N(C(=O)N5C([H])([H])C([H])([H])C([H])([H])C([H])(n6nc(-c7c([H])c([H])c(Oc8c([H])c([H])c(F)c([H])c8F)c([H])c7[H])c(C(=O)N([H])[H])c6N([H])[H])C5([H])[H])C([H])([H])C4([H])C([H])([H])[H])C([H])([H])C3([H])[H])c([H])c([H])c2C1([H])[H]

$$$$
38:0:0
     RDKit          3D

 96105  0  0  1  0  0  0  0  0999 V2000
  -28.1530  -20.9830   19.9800 C   0  0  0  0  0  3  0  0  0  0  0  0
  -28.6230  -18.6420   19.4890 C   0  0  0  0  0  3  0  0  0  0  0  0
  -27.7290  -19.7380   19.4740 C   0  0  0  0  0  0  0  0  0  0  0  0
  -29.4490  -21.1490   20.4860 C   0  0  0  0  0  0  0  0  0  0  0  0
  -29.9140  -18.7980   20.0240 C   0  0  0  0  0  0  0  0  0  0  0  0
  -30.3060  -20.0490   20.5080 N   0  0  0  0  0  0  0  0  0  0  0  0
  -24.5950  -19.8180   17.1260 C   0  0  0  0  0  2  0  0  0  0  0  0
  -26.0840  -19.9080   17.4940 C   0  0  0  0  0  2  0  0  0  0  0  0
  -24.0180  -18.4410   17.4880 C   0  0  0  0  0  2  0  0  0  0  0  0
  -25.7060  -18.2340   19.3720 C   0  0  0  0  0  2  0  0  0  0  0  0
  -26.2880  -19.6100   18.9940 C   0  0  0  0  0  3  0  0  0  0  0  0
  -24.2220  -18.1030   18.9770 C   0  0  0  0  0  3  0  0  0  0  0  0
  -23.6740  -16.7050   19.3060 C   0  0  0  0  0  1  0  0  0  0  0  0
  -29.8180  -22.5440   21.1640 C   0  0  0  0  0  2  0  0  0  0  0  0
  -29.4800  -23.9800   20.4780 C   0  0  0  0  0  3  0  0  0  0  0  0
  -29.1300  -25.2520   21.4130 C   0  0  0  0  0  3  0  0  0  0  0  0
  -29.2170  -26.6680   20.9400 O   0  0  0  0  0  0  0  0  0  0  0  0
  -24.9030  -31.9030   23.5150 C   0  0  0  0  0  0  0  0  0  0  0  0
  -28.0480  -27.4400   20.8370 C   0  0  0  0  0  0  0  0  0  0  0  0
  -23.9320  -30.3830   21.8270 C   0  0  0  0  0  3  0  0  0  0  0  0
  -25.5940  -28.8920   20.5750 C   0  0  0  0  0  0  0  0  0  0  0  0
  -26.4530  -30.8680   21.8360 C   0  0  0  0  0  2  0  0  0  0  0  0
  -26.6770  -29.4780   21.2450 C   0  0  0  0  0  0  0  0  0  0  0  0
  -27.9120  -28.7680   21.3540 C   0  0  0  0  0  3  0  0  0  0  0  0
  -26.9420  -26.9000   20.1480 C   0  0  0  0  0  3  0  0  0  0  0  0
  -25.7310  -27.6110   20.0130 C   0  0  0  0  0  3  0  0  0  0  0  0
  -24.3030  -29.6840   20.4920 C   0  0  0  0  0  2  0  0  0  0  0  0
  -25.1090  -31.0720   22.4510 N   0  0  0  0  0  0  0  0  0  0  0  0
  -23.7630  -32.1200   23.9510 O   0  0  0  0  0  0  0  0  0  0  0  0
  -23.2600  -29.3510   22.7660 C   0  0  0  0  0  0  0  0  0  0  0  0
  -21.9720  -29.0560   22.5170 N   0  0  0  0  0  0  0  0  0  0  0  0
  -23.9010  -28.8170   23.6750 O   0  0  0  0  0  0  0  0  0  0  0  0
  -21.5130  -29.5420   21.7600 H   0  0  0  0  0  0  0  0  0  0  0  0
  -18.6680  -27.6000   22.7400 C   0  0  0  0  0  0  0  0  0  0  0  0
  -21.1590  -28.0810   23.2460 C   0  0  0  0  0  3  0  0  0  0  0  0
  -21.4310  -26.6440   22.7440 C   0  0  0  0  0  2  0  0  0  0  0  0
  -20.4640  -26.1940   21.6440 C   0  0  0  0  0  2  0  0  0  0  0  0
  -19.0180  -26.2470   22.1450 C   0  0  0  0  0  2  0  0  0  0  0  0
  -19.6740  -28.4670   23.2440 C   0  0  0  0  0  0  0  0  0  0  0  0
  -19.2970  -29.7270   23.7590 C   0  0  0  0  0  3  0  0  0  0  0  0
  -17.9460  -30.1210   23.7800 C   0  0  0  0  0  3  0  0  0  0  0  0
  -16.9540  -29.2520   23.2910 C   0  0  0  0  0  3  0  0  0  0  0  0
  -17.3140  -27.9950   22.7770 C   0  0  0  0  0  3  0  0  0  0  0  0
  -26.0850  -32.6380   24.2200 C   0  0  0  0  0  3  0  0  0  0  0  0
  -25.6840  -34.0390   24.4130 N   0  0  0  0  0  0  0  0  0  0  0  0
  -26.0310  -35.0490   23.6030 C   0  0  0  0  0  0  0  0  0  0  0  0
  -26.7860  -34.9040   22.6380 O   0  0  0  0  0  0  0  0  0  0  0  0
  -25.0150  -34.2200   25.1460 H   0  0  0  0  0  0  0  0  0  0  0  0
  -24.2460  -36.7140   22.9900 C   0  0  0  0  0  1  0  0  0  0  0  0
  -25.4460  -36.4420   23.9100 C   0  0  0  0  0  3  0  0  0  0  0  0
  -27.4630  -37.5120   24.8120 C   0  0  0  0  0  1  0  0  0  0  0  0
  -26.4330  -37.5360   23.7780 N   0  0  0  0  0  0  0  0  0  0  0  0
  -25.9740  -38.4420   23.8100 H   0  0  0  0  0  0  0  0  0  0  0  0
  -26.4900  -31.9820   25.5970 C   0  0  1  0  0  0  0  0  0  0  0  0
  -25.2910  -31.7370   26.5440 C   0  0  0  0  0  1  0  0  0  0  0  0
  -27.1940  -30.6250   25.3690 C   0  0  0  0  0  1  0  0  0  0  0  0
  -27.5060  -32.8900   26.3300 C   0  0  0  0  0  1  0  0  0  0  0  0
  -30.9010  -17.5480   20.0530 C   0  0  0  0  0  2  0  0  0  0  0  0
  -31.0840  -14.9490   19.7360 C   0  0  0  0  0  0  0  0  0  0  0  0
  -30.7110  -12.7020   18.7100 C   0  0  0  0  0  2  0  0  0  0  0  0
  -29.6610  -12.8320   17.5860 C   0  0  0  0  0  2  0  0  0  0  0  0
  -28.2300  -12.7190   18.1500 C   0  0  0  0  0  2  0  0  0  0  0  0
  -28.0100  -13.5920   19.4160 C   0  0  0  0  0  3  0  0  0  0  0  0
  -29.1670  -13.4260   20.4230 C   0  0  0  0  0  2  0  0  0  0  0  0
  -30.4090  -13.7500   19.7110 N   0  0  0  0  0  0  0  0  0  0  0  0
  -32.2370  -15.0110   19.2990 O   0  0  0  0  0  0  0  0  0  0  0  0
  -30.3930  -16.1050   20.0570 N   0  0  0  0  0  0  0  0  0  0  0  0
  -29.4310  -15.9880   20.3300 H   0  0  0  0  0  0  0  0  0  0  0  0
  -25.7600  -14.2520   20.4570 C   0  0  0  0  0  0  0  0  0  0  0  0
  -24.6880  -13.5140   20.8760 C   0  0  0  0  0  0  0  0  0  0  0  0
  -25.0470  -12.1480   20.6740 C   0  0  0  0  0  0  0  0  0  0  0  0
  -26.7090  -13.3400   20.0270 N   0  0  0  0  0  0  0  0  0  0  0  0
  -26.2930  -12.0620   20.2200 N   0  0  0  0  0  0  0  0  0  0  0  0
  -24.2540  -10.9210   20.8330 C   0  0  0  0  0  0  0  0  0  0  0  0
  -24.6540   -9.8920   21.7130 C   0  0  0  0  0  3  0  0  0  0  0  0
  -23.8620   -8.7330   21.8620 C   0  0  0  0  0  3  0  0  0  0  0  0
  -22.6570   -8.5950   21.1340 C   0  0  0  0  0  0  0  0  0  0  0  0
  -22.2750   -9.6140   20.2450 C   0  0  0  0  0  3  0  0  0  0  0  0
  -23.0660  -10.7660   20.0920 C   0  0  0  0  0  3  0  0  0  0  0  0
  -21.8410   -7.4940   21.1970 O   0  0  0  0  0  0  0  0  0  0  0  0
  -21.6750   -6.7870   22.3610 C   0  0  0  0  0  0  0  0  0  0  0  0
  -21.1570   -7.3870   23.5290 C   0  0  0  0  0  3  0  0  0  0  0  0
  -20.9380   -6.6090   24.6830 C   0  0  0  0  0  3  0  0  0  0  0  0
  -21.2260   -5.2310   24.6690 C   0  0  0  0  0  0  0  0  0  0  0  0
  -21.7360   -4.6300   23.5050 C   0  0  0  0  0  3  0  0  0  0  0  0
  -21.9570   -5.4060   22.3530 C   0  0  0  0  0  0  0  0  0  0  0  0
  -22.4310   -4.8190   21.2280 F   0  0  0  0  0  0  0  0  0  0  0  0
  -21.0060   -4.4790   25.7740 F   0  0  0  0  0  0  0  0  0  0  0  0
  -23.3670  -14.0530   21.3390 C   0  0  0  0  0  0  0  0  0  0  0  0
  -22.6890  -13.3340   22.2280 N   0  0  0  0  0  0  0  0  0  0  0  0
  -22.9510  -15.1430   20.9530 O   0  0  0  0  0  0  0  0  0  0  0  0
  -23.0410  -12.4500   22.5670 H   0  0  0  0  0  0  0  0  0  0  0  0
  -21.8050  -13.6780   22.5780 H   0  0  0  0  0  0  0  0  0  0  0  0
  -25.9970  -15.6190   20.3890 N   0  0  0  0  0  0  0  0  0  0  0  0
  -25.2660  -16.2850   20.6110 H   0  0  0  0  0  0  0  0  0  0  0  0
  -26.8130  -16.0490   19.9810 H   0  0  0  0  0  0  0  0  0  0  0  0
  1  4  1  0
  2  5  2  0
  3  2  1  0
  3  1  2  0
  4  6  2  0
  4 14  1  0
  5 58  1  0
  5  6  1  0
  7  9  1  0
  7  8  1  0
  8 11  1  0
  9 12  1  0
 11 10  1  0
 11  3  1  0
 12 13  1  0
 12 10  1  0
 15 14  1  0
 15 16  2  0
 17 16  1  0
 18 29  2  0
 19 17  1  0
 19 24  1  0
 20 28  1  0
 20 30  1  0
 21 23  1  0
 22 28  1  0
 23 24  2  0
 23 22  1  0
 25 19  2  0
 26 25  1  0
 26 21  2  0
 27 21  1  0
 27 20  1  0
 28 18  1  0
 30 32  2  0
 31 30  1  0
 33 31  1  0
 34 43  2  0
 34 39  1  0
 35 31  1  0
 36 35  1  0
 37 38  1  0
 37 36  1  0
 38 34  1  0
 39 35  1  0
 39 40  2  0
 40 41  1  0
 42 41  2  0
 43 42  1  0
 44 18  1  0
 44 45  1  0
 44 54  1  0
 45 48  1  0
 46 50  1  0
 46 45  1  0
 47 46  2  0
 50 49  1  0
 52 53  1  0
 52 50  1  0
 52 51  1  0
 54 57  1  1
 54 55  1  0
 56 54  1  0
 58 67  1  0
 59 67  1  0
 60 65  1  0
 61 62  1  0
 61 60  1  0
 63 62  1  0
 63 72  1  0
 63 64  1  0
 65 59  1  0
 65 64  1  0
 66 59  2  0
 67 68  1  0
 69 70  2  0
 70 89  1  0
 71 74  1  0
 71 70  1  0
 72 73  1  0
 72 69  1  0
 73 71  2  0
 74 75  1  0
 75 76  2  0
 77 80  1  0
 77 76  1  0
 78 77  2  0
 79 78  1  0
 79 74  2  0
 80 81  1  0
 81 82  1  0
 82 83  2  0
 84 83  1  0
 84 88  1  0
 85 84  2  0
 86 81  2  0
 86 85  1  0
 87 86  1  0
 89 90  1  0
 90 92  1  0
 90 93  1  0
 91 89  2  0
 94 69  1  0
 94 95  1  0
 96 94  1  0
M  ISO  4  16 101  17 101  59 100  67 100
M  END
>  <TORSDO>  (39) 
F 21

>  <SCORE>  (39) 
-5.081

>  <name>  (39) 
38

>  <ligand_id>  (39) 
38

>  <original_smiles>  (39) 
[H]c1c([H])c([H])c2c(c1[H])C([H])([H])C([H])([H])C([H])([H])C2([H])N([H])C(=O)C1([H])N(C(=O)C([H])(N([H])C(=O)C([H])(N([H])C([H])([H])[H])C([H])([H])[H])C(C([H])([H])[H])(C([H])([H])[H])C([H])([H])[H])C([H])([H])c2c([H])c(OC([H])([H])C([H])([H])C([H])([H])c3nc(C([H])([H])N([H])C(=O)N4C([H])([H])C([H])([H])C([H])([H])C([H])(n5nc(-c6c([H])c([H])c(Oc7c([H])c([H])c(F)c([H])c7F)c([H])c6[H])c(C(=O)N([H])[H])c5N([H])[H])C4([H])[H])c([H])c(C4([H])C([H])([H])C([H])([H])C([H])([H])C([H])(C([H])([H])[H])C4([H])[H])c3[H])c([H])c([H])c2C1([H])[H]

>  <smiles>  (39) 
[H]c1c([H])c([H])c2c(c1[H])C([H])([H])C([H])([H])C([H])([H])C2([H])N([H])C(=O)C1([H])N(C(=O)C([H])(N([H])C(=O)C([H])(N([H])C([H])([H])[H])C([H])([H])[H])C(C([H])([H])[H])(C([H])([H])[H])C([H])([H])[H])C([H])([H])c2c([H])c(OC([H])([H])C([H])([H])C([H])([H])c3nc(C([H])([H])N([H])C(=O)N4C([H])([H])C([H])([H])C([H])([H])C([H])(n5nc(-c6c([H])c([H])c(Oc7c([H])c([H])c(F)c([H])c7F)c([H])c6[H])c(C(=O)N([H])[H])c5N([H])[H])C4([H])[H])c([H])c(C4([H])C([H])([H])C([H])([H])C([H])([H])C([H])(C([H])([H])[H])C4([H])[H])c3[H])c([H])c([H])c2C1([H])[H]

$$$$
39:0:0
     RDKit          3D

 89 97  0  0  1  0  0  0  0  0999 V2000
  -28.3020  -19.0150   18.0000 C   0  0  0  0  0  2  0  0  0  0  0  0
  -29.7350  -18.6720   18.3720 C   0  0  0  0  0  2  0  0  0  0  0  0
  -28.0630  -20.3400   18.7320 C   0  0  0  0  0  2  0  0  0  0  0  0
  -29.8120  -19.0420   19.8600 C   0  0  0  0  0  3  0  0  0  0  0  0
  -28.8460  -20.3170   19.9980 N   0  0  1  0  0  4  0  0  0  0  0  0
  -28.1720  -20.0330   20.6940 H   0  0  0  0  0  0  0  0  0  0  0  0
  -29.6590  -17.6310   20.7810 C   0  0  0  0  0  2  0  0  0  0  0  0
  -30.4960  -14.9570   20.3320 C   0  0  0  0  0  0  0  0  0  0  0  0
  -30.3910  -12.6140   19.3620 C   0  0  0  0  0  2  0  0  0  0  0  0
  -29.4460  -12.5670   18.1400 C   0  0  0  0  0  2  0  0  0  0  0  0
  -27.9800  -12.3660   18.5750 C   0  0  0  0  0  2  0  0  0  0  0  0
  -27.5780  -13.2790   19.7650 C   0  0  0  0  0  3  0  0  0  0  0  0
  -28.6450  -13.2850   20.8770 C   0  0  0  0  0  2  0  0  0  0  0  0
  -29.9060  -13.7000   20.2510 N   0  0  0  0  0  0  0  0  0  0  0  0
  -31.7210  -15.0310   20.2010 O   0  0  0  0  0  0  0  0  0  0  0  0
  -29.6620  -16.1080   20.3190 N   0  0  0  0  0  0  0  0  0  0  0  0
  -28.7200  -15.8110   20.1230 H   0  0  0  0  0  0  0  0  0  0  0  0
  -25.2030  -13.8610   20.5180 C   0  0  0  0  0  0  0  0  0  0  0  0
  -24.1390  -13.0860   20.8930 C   0  0  0  0  0  0  0  0  0  0  0  0
  -24.6020  -11.7350   20.8620 C   0  0  0  0  0  0  0  0  0  0  0  0
  -26.2440  -12.9810   20.2740 N   0  0  0  0  0  0  0  0  0  0  0  0
  -25.8930  -11.6970   20.5470 N   0  0  0  0  0  0  0  0  0  0  0  0
  -23.8730  -10.4730   21.0480 C   0  0  0  0  0  0  0  0  0  0  0  0
  -24.3060   -9.5020   21.9780 C   0  0  0  0  0  3  0  0  0  0  0  0
  -23.5730   -8.3090   22.1570 C   0  0  0  0  0  3  0  0  0  0  0  0
  -22.3970   -8.0780   21.4080 C   0  0  0  0  0  0  0  0  0  0  0  0
  -21.9810   -9.0390   20.4700 C   0  0  0  0  0  3  0  0  0  0  0  0
  -22.7120  -10.2240   20.2890 C   0  0  0  0  0  3  0  0  0  0  0  0
  -21.6360   -6.9360   21.4970 O   0  0  0  0  0  0  0  0  0  0  0  0
  -21.5960   -6.1860   22.6430 C   0  0  0  0  0  0  0  0  0  0  0  0
  -21.1880   -6.7360   23.8780 C   0  0  0  0  0  3  0  0  0  0  0  0
  -21.0920   -5.9150   25.0190 C   0  0  0  0  0  3  0  0  0  0  0  0
  -21.3920   -4.5420   24.9260 C   0  0  0  0  0  0  0  0  0  0  0  0
  -21.7890   -3.9900   23.6950 C   0  0  0  0  0  3  0  0  0  0  0  0
  -21.8860   -4.8090   22.5560 C   0  0  0  0  0  0  0  0  0  0  0  0
  -22.2500   -4.2680   21.3690 F   0  0  0  0  0  0  0  0  0  0  0  0
  -21.2910   -3.7500   26.0190 F   0  0  0  0  0  0  0  0  0  0  0  0
  -22.7410  -13.5650   21.1600 C   0  0  0  0  0  0  0  0  0  0  0  0
  -22.0090  -12.8730   22.0270 N   0  0  0  0  0  0  0  0  0  0  0  0
  -22.3070  -14.5900   20.6360 O   0  0  0  0  0  0  0  0  0  0  0  0
  -22.3670  -12.0430   22.4750 H   0  0  0  0  0  0  0  0  0  0  0  0
  -21.0710  -13.1760   22.2420 H   0  0  0  0  0  0  0  0  0  0  0  0
  -25.3620  -15.2300   20.3290 N   0  0  0  0  0  0  0  0  0  0  0  0
  -24.5850  -15.8760   20.4300 H   0  0  0  0  0  0  0  0  0  0  0  0
  -26.1890  -15.6660   19.9450 H   0  0  0  0  0  0  0  0  0  0  0  0
  -29.2410  -21.8000   20.4500 C   0  0  0  0  0  2  0  0  0  0  0  0
  -28.6150  -23.2640   19.8100 C   0  0  0  0  0  2  0  0  0  0  0  0
  -28.2800  -24.7040   20.6420 C   0  0  0  0  0  2  0  0  0  0  0  0
  -28.3290  -26.1960   20.1780 O   0  0  0  0  0  0  0  0  0  0  0  0
  -24.6160  -31.8430   23.2170 C   0  0  0  0  0  0  0  0  0  0  0  0
  -27.2260  -27.1240   20.2190 C   0  0  0  0  0  0  0  0  0  0  0  0
  -23.4210  -30.4320   21.5840 C   0  0  0  0  0  3  0  0  0  0  0  0
  -24.8770  -28.8430   20.1770 C   0  0  0  0  0  0  0  0  0  0  0  0
  -25.9710  -30.7090   21.4140 C   0  0  0  0  0  2  0  0  0  0  0  0
  -26.0520  -29.3100   20.7790 C   0  0  0  0  0  0  0  0  0  0  0  0
  -27.2280  -28.4680   20.7740 C   0  0  0  0  0  3  0  0  0  0  0  0
  -26.0170  -26.7450   19.6000 C   0  0  0  0  0  3  0  0  0  0  0  0
  -24.8710  -27.5750   19.5710 C   0  0  0  0  0  3  0  0  0  0  0  0
  -23.6450  -29.7360   20.2130 C   0  0  0  0  0  2  0  0  0  0  0  0
  -24.6900  -31.0180   22.1260 N   0  0  0  0  0  0  0  0  0  0  0  0
  -23.5290  -32.1270   23.7430 O   0  0  0  0  0  0  0  0  0  0  0  0
  -22.7410  -29.4340   22.5550 C   0  0  0  0  0  0  0  0  0  0  0  0
  -21.4110  -29.2700   22.4340 N   0  0  0  0  0  0  0  0  0  0  0  0
  -23.4120  -28.8090   23.3790 O   0  0  0  0  0  0  0  0  0  0  0  0
  -20.9230  -29.8310   21.7490 H   0  0  0  0  0  0  0  0  0  0  0  0
  -18.0270  -28.0780   22.9450 C   0  0  0  0  0  0  0  0  0  0  0  0
  -20.5880  -28.3370   23.2070 C   0  0  0  0  0  3  0  0  0  0  0  0
  -20.6830  -26.9020   22.6360 C   0  0  0  0  0  2  0  0  0  0  0  0
  -19.5800  -26.5790   21.6240 C   0  0  0  0  0  2  0  0  0  0  0  0
  -18.1990  -26.7270   22.2700 C   0  0  0  0  0  2  0  0  0  0  0  0
  -19.1480  -28.8410   23.3690 C   0  0  0  0  0  0  0  0  0  0  0  0
  -18.9300  -30.1050   23.9600 C   0  0  0  0  0  3  0  0  0  0  0  0
  -17.6260  -30.6060   24.1290 C   0  0  0  0  0  3  0  0  0  0  0  0
  -16.5210  -29.8400   23.7200 C   0  0  0  0  0  3  0  0  0  0  0  0
  -16.7220  -28.5770   23.1330 C   0  0  0  0  0  3  0  0  0  0  0  0
  -25.8920  -32.4860   23.8440 C   0  0  0  0  0  3  0  0  0  0  0  0
  -26.4030  -31.7220   25.1280 C   0  0  1  0  0  0  0  0  0  0  0  0
  -25.3090  -31.4920   26.1970 C   0  0  0  0  0  1  0  0  0  0  0  0
  -26.9840  -30.3390   24.7500 C   0  0  0  0  0  1  0  0  0  0  0  0
  -27.5520  -32.5200   25.7890 C   0  0  0  0  0  1  0  0  0  0  0  0
  -25.5760  -33.8860   24.1730 N   0  0  0  0  0  0  0  0  0  0  0  0
  -25.9100  -34.9430   23.4190 C   0  0  0  0  0  0  0  0  0  0  0  0
  -26.5820  -34.8410   22.3900 O   0  0  0  0  0  0  0  0  0  0  0  0
  -24.9830  -34.0390   24.9750 H   0  0  0  0  0  0  0  0  0  0  0  0
  -24.1830  -36.7420   23.0670 C   0  0  0  0  0  1  0  0  0  0  0  0
  -25.4230  -36.3320   23.8790 C   0  0  0  0  0  3  0  0  0  0  0  0
  -27.5590  -37.2160   24.7110 C   0  0  0  0  0  1  0  0  0  0  0  0
  -26.4560  -37.3860   23.7690 N   0  0  0  0  0  0  0  0  0  0  0  0
  -26.0480  -38.3050   23.9170 H   0  0  0  0  0  0  0  0  0  0  0  0
  1  2  1  0
  1  3  1  0
  2  4  1  0
  3  5  1  0
  4  5  1  0
  4  7  1  0
  5 46  1  0
  5  6  1  1
  9 14  1  0
 10 11  1  0
 10  9  1  0
 12 11  1  0
 12 21  1  0
 12 13  1  0
 14  8  1  0
 14 13  1  0
 15  8  2  0
 16  8  1  0
 16  7  1  0
 17 16  1  0
 18 19  2  0
 19 38  1  0
 20 19  1  0
 20 23  1  0
 21 18  1  0
 21 22  1  0
 22 20  2  0
 23 24  1  0
 24 25  2  0
 26 29  1  0
 26 25  1  0
 27 26  2  0
 28 27  1  0
 28 23  2  0
 29 30  1  0
 30 31  1  0
 31 32  2  0
 33 32  1  0
 33 37  1  0
 34 33  2  0
 35 30  2  0
 35 34  1  0
 36 35  1  0
 38 39  1  0
 39 42  1  0
 39 41  1  0
 40 38  2  0
 43 44  1  0
 43 18  1  0
 45 43  1  0
 47 46  1  0
 47 48  1  0
 49 51  1  0
 49 48  1  0
 50 61  2  0
 51 56  1  0
 52 60  1  0
 52 62  1  0
 53 59  1  0
 53 55  1  0
 54 60  1  0
 55 54  1  0
 56 55  2  0
 57 51  2  0
 58 57  1  0
 58 53  2  0
 59 52  1  0
 60 50  1  0
 62 64  2  0
 63 62  1  0
 65 63  1  0
 66 75  2  0
 66 71  1  0
 67 63  1  0
 67 71  1  0
 68 67  1  0
 69 70  1  0
 69 68  1  0
 70 66  1  0
 71 72  2  0
 72 73  1  0
 74 73  2  0
 75 74  1  0
 76 50  1  0
 76 81  1  0
 76 77  1  0
 77 80  1  1
 77 78  1  0
 79 77  1  0
 81 84  1  0
 82 86  1  0
 82 81  1  0
 83 82  2  0
 86 85  1  0
 88 86  1  0
 88 89  1  0
 88 87  1  0
M  ISO  4   8 100  16 100  48 101  49 101
M  END
>  <TORSDO>  (40) 
F 20

>  <SCORE>  (40) 
-14.998

>  <name>  (40) 
39

>  <ligand_id>  (40) 
39

>  <original_smiles>  (40) 
[H]c1c([H])c([H])c2c(c1[H])C([H])([H])C([H])([H])C([H])([H])C2([H])N([H])C(=O)C1([H])N(C(=O)C([H])(N([H])C(=O)C([H])(N([H])C([H])([H])[H])C([H])([H])[H])C(C([H])([H])[H])(C([H])([H])[H])C([H])([H])[H])C([H])([H])c2c([H])c(OC([H])([H])C([H])([H])C([H])([H])[N+]3([H])C([H])([H])C([H])([H])C([H])([H])C3([H])C([H])([H])N([H])C(=O)N3C([H])([H])C([H])([H])C([H])([H])C([H])(n4nc(-c5c([H])c([H])c(Oc6c([H])c([H])c(F)c([H])c6F)c([H])c5[H])c(C(=O)N([H])[H])c4N([H])[H])C3([H])[H])c([H])c([H])c2C1([H])[H]

>  <smiles>  (40) 
[H]c1c([H])c([H])c2c(c1[H])C([H])([H])C([H])([H])C([H])([H])C2([H])N([H])C(=O)C1([H])N(C(=O)C([H])(N([H])C(=O)C([H])(N([H])C([H])([H])[H])C([H])([H])[H])C(C([H])([H])[H])(C([H])([H])[H])C([H])([H])[H])C([H])([H])c2c([H])c(OC([H])([H])C([H])([H])C([H])([H])[N+]3([H])C([H])([H])C([H])([H])C([H])([H])C3([H])C([H])([H])N([H])C(=O)N3C([H])([H])C([H])([H])C([H])([H])C([H])(n4nc(-c5c([H])c([H])c(Oc6c([H])c([H])c(F)c([H])c6F)c([H])c5[H])c(C(=O)N([H])[H])c4N([H])[H])C3([H])[H])c([H])c([H])c2C1([H])[H]

$$$$
40:0:0
     RDKit          3D

 91 94  0  0  1  0  0  0  0  0999 V2000
  -24.5030  -12.8160   21.0560 C   0  0  0  0  0  3  0  0  0  0  0  0
  -25.4060  -11.8110   19.8690 C   0  0  0  0  0  2  0  0  0  0  0  0
  -25.0380  -14.1670   21.7830 C   0  0  0  0  0  3  0  0  0  0  0  0
  -26.9870  -11.8950   19.8350 C   0  0  0  0  0  2  0  0  0  0  0  0
  -26.6400  -14.6190   21.6670 N   0  0  0  0  0  2  0  0  0  0  0  0
  -32.5070  -11.6510   21.1980 C   0  0  0  0  0  0  0  0  0  0  0  0
  -32.0520   -9.4480   21.7540 C   0  0  0  0  0  2  0  0  0  0  0  0
  -30.9190   -9.0740   20.8120 C   0  0  0  0  0  2  0  0  0  0  0  0
  -29.5850   -9.8810   21.0240 C   0  0  0  0  0  2  0  0  0  0  0  0
  -29.7320  -11.3920   21.4110 C   0  0  0  0  0  3  0  0  0  0  0  0
  -30.6320  -11.3550   22.6040 C   0  0  0  0  0  2  0  0  0  0  0  0
  -31.8560  -10.8440   22.0250 N   0  0  0  0  0  0  0  0  0  0  0  0
  -33.5190  -12.1230   21.7490 O   0  0  0  0  0  0  0  0  0  0  0  0
  -29.7330  -12.8560   18.3380 C   0  0  0  0  0  2  0  0  0  0  0  0
  -29.7280  -10.6540   18.4330 C   0  0  0  0  0  2  0  0  0  0  0  0
  -31.2730  -13.0160   19.1370 C   0  0  0  0  0  2  0  0  0  0  0  0
  -31.3940  -10.8900   18.7270 C   0  0  0  0  0  2  0  0  0  0  0  0
  -28.4470  -11.7440   18.6420 C   0  0  1  0  0  0  0  0  0  0  0  0
  -27.5960  -11.7110   17.3640 C   0  0  0  0  0  1  0  0  0  0  0  0
  -31.9530  -11.8250   19.8130 N   0  0  0  0  0  0  0  0  0  0  0  0
  -28.3440  -13.6160   20.4340 C   0  0  0  0  0  3  0  0  0  0  0  0
  -26.8130  -13.8630   20.2280 C   0  0  0  0  0  3  0  0  0  0  0  0
  -26.6570  -11.9640   22.0340 C   0  0  0  0  0  1  0  0  0  0  0  0
  -28.7030  -12.3520   21.4560 N   0  0  0  0  0  0  0  0  0  0  0  0
  -27.8640  -11.5480   22.2660 N   0  0  0  0  0  2  0  0  0  0  0  0
  -25.4750  -10.3650   21.9160 C   0  0  0  0  0  3  0  0  0  0  0  0
  -25.5090   -8.9630   22.4030 C   0  0  0  0  0  3  0  0  0  0  0  0
  -24.5250   -7.8470   22.2380 C   0  0  0  0  0  3  0  0  0  0  0  0
  -23.3610   -7.8820   21.3990 C   0  0  0  0  0  0  0  0  0  0  0  0
  -23.2930   -9.0830   20.7370 C   0  0  0  0  0  3  0  0  0  0  0  0
  -24.1470  -10.1460   21.1630 C   0  0  0  0  0  3  0  0  0  0  0  0
  -22.3450   -6.9330   21.1690 O   0  0  0  0  0  0  0  0  0  0  0  0
  -21.6860   -6.2360   22.1700 C   0  0  0  0  0  0  0  0  0  0  0  0
  -21.1450   -6.8760   23.3110 C   0  0  0  0  0  3  0  0  0  0  0  0
  -20.5440   -6.1170   24.3390 C   0  0  0  0  0  3  0  0  0  0  0  0
  -20.4640   -4.7170   24.2360 C   0  0  0  0  0  0  0  0  0  0  0  0
  -20.9300   -4.0770   23.0750 C   0  0  0  0  0  3  0  0  0  0  0  0
  -21.5130   -4.8340   22.0390 C   0  0  0  0  0  0  0  0  0  0  0  0
  -21.9320   -4.1960   20.9150 F   0  0  0  0  0  0  0  0  0  0  0  0
  -19.9310   -3.9880   25.2470 F   0  0  0  0  0  0  0  0  0  0  0  0
  -25.5760  -14.6740   19.6290 C   0  0  0  0  0  0  0  0  0  0  0  0
  -24.2650  -14.2820   19.4140 N   0  0  0  0  0  0  0  0  0  0  0  0
  -25.6300  -15.8290   19.6690 O   0  0  0  0  0  0  0  0  0  0  0  0
  -23.9840  -13.3850   19.7870 H   0  0  0  0  0  0  0  0  0  0  0  0
  -23.5700  -14.9750   19.1790 H   0  0  0  0  0  0  0  0  0  0  0  0
  -29.1930  -14.6100   20.3340 N   0  0  0  0  0  0  0  0  0  0  0  0
  -29.0600  -15.3530   19.6630 H   0  0  0  0  0  0  0  0  0  0  0  0
  -30.1670  -14.4570   20.5360 H   0  0  0  0  0  0  0  0  0  0  0  0
  -27.4950  -17.0770   21.2520 C   0  0  0  0  0 15  0  0  0  0  0  0
  -27.9860  -19.7620   20.2050 C   0  0  0  0  0 15  0  0  0  0  0  0
  -28.7540  -22.2000   19.8520 O   0  0  0  0  0 15  0  0  0  0  0  0
  -26.1440  -30.4850   21.8000 C   0  0  0  0  0  0  0  0  0  0  0  0
  -28.6020  -24.1670   19.6360 C   0  0  0  0  0  2  0  0  0  0  0  0
  -25.6700  -29.1990   19.7730 C   0  0  0  0  0  3  0  0  0  0  0  0
  -27.4000  -27.3270   18.8830 C   0  0  0  0  0  0  0  0  0  0  0  0
  -27.9970  -28.7630   20.7740 C   0  0  0  0  0  2  0  0  0  0  0  0
  -28.1140  -27.2230   20.0660 C   0  0  0  0  0  0  0  0  0  0  0  0
  -28.7130  -25.7250   20.3650 C   0  0  0  0  0  2  0  0  0  0  0  0
  -28.2100  -24.8800   18.3900 C   0  0  0  0  0  3  0  0  0  0  0  0
  -27.6200  -26.1990   18.0500 C   0  0  0  0  0  3  0  0  0  0  0  0
  -26.4330  -28.5320   18.5670 C   0  0  0  0  0  2  0  0  0  0  0  0
  -26.6400  -29.5650   20.8490 N   0  0  0  0  0  0  0  0  0  0  0  0
  -24.9440  -30.8310   21.8240 O   0  0  0  0  0  0  0  0  0  0  0  0
  -24.5930  -28.2430   20.3480 C   0  0  0  0  0  0  0  0  0  0  0  0
  -23.9920  -27.3510   19.5380 N   0  0  0  0  0  0  0  0  0  0  0  0
  -24.3060  -28.3200   21.5450 O   0  0  0  0  0  0  0  0  0  0  0  0
  -24.2350  -27.3460   18.5580 H   0  0  0  0  0  0  0  0  0  0  0  0
  -22.4090  -24.1890   18.6670 C   0  0  0  0  0  0  0  0  0  0  0  0
  -23.0730  -26.3010   20.0060 C   0  0  0  0  0  3  0  0  0  0  0  0
  -23.8000  -25.3260   20.9640 C   0  0  0  0  0  2  0  0  0  0  0  0
  -24.3820  -24.1050   20.2470 C   0  0  0  0  0  2  0  0  0  0  0  0
  -23.2700  -23.3120   19.5580 C   0  0  0  0  0  2  0  0  0  0  0  0
  -22.3300  -25.5950   18.8640 C   0  0  0  0  0  0  0  0  0  0  0  0
  -21.5340  -26.3650   17.9880 C   0  0  0  0  0  3  0  0  0  0  0  0
  -20.8280  -25.7540   16.9330 C   0  0  0  0  0  3  0  0  0  0  0  0
  -20.9050  -24.3620   16.7490 C   0  0  0  0  0  3  0  0  0  0  0  0
  -21.6880  -23.5830   17.6190 C   0  0  0  0  0  3  0  0  0  0  0  0
  -27.0070  -31.1730   22.9140 C   0  0  0  0  0  3  0  0  0  0  0  0
  -26.2730  -32.3440   23.4850 N   0  0  0  0  0  0  0  0  0  0  0  0
  -26.5730  -33.6440   23.3220 C   0  0  0  0  0  0  0  0  0  0  0  0
  -27.5350  -34.0100   22.6450 O   0  0  0  0  0  0  0  0  0  0  0  0
  -25.4310  -32.1240   23.9980 H   0  0  0  0  0  0  0  0  0  0  0  0
  -24.6970  -35.3090   22.9870 C   0  0  0  0  0  1  0  0  0  0  0  0
  -25.6780  -34.7090   24.0080 C   0  0  0  0  0  3  0  0  0  0  0  0
  -27.1350  -35.4040   25.8660 C   0  0  0  0  0  1  0  0  0  0  0  0
  -26.4360  -35.8100   24.6510 N   0  0  0  0  0  0  0  0  0  0  0  0
  -25.8170  -36.5820   24.8860 H   0  0  0  0  0  0  0  0  0  0  0  0
  -27.3580  -30.2000   24.1080 C   0  0  1  0  0  0  0  0  0  0  0  0
  -26.1330  -29.4590   24.7000 C   0  0  0  0  0  1  0  0  0  0  0  0
  -28.3660  -29.1240   23.6740 C   0  0  0  0  0  1  0  0  0  0  0  0
  -28.0450  -30.9840   25.2510 C   0  0  0  0  0  1  0  0  0  0  0  0
  1  3  2  0
  2  1  1  0
  4  2  1  0
  5  3  1  0
  6 13  2  0
  6 12  1  0
  7 12  1  0
  8  9  1  0
  8  7  1  0
 10  9  1  0
 10 24  1  0
 10 11  1  0
 12 11  1  0
 14 18  1  0
 14 16  1  0
 15 18  1  0
 15 17  1  0
 16 20  1  0
 17 20  1  0
 18 19  1  6
 18  4  1  0
 20  6  1  0
 21 46  1  0
 21 24  1  0
 22 41  1  0
 22 21  1  0
 22  5  1  0
 23 25  1  0
 24 25  1  0
 26 27  1  0
 28 27  2  0
 29 28  1  0
 30 31  1  0
 30 29  2  0
 31 26  2  0
 32 29  1  0
 32 33  1  0
 33 34  1  0
 34 35  2  0
 36 35  1  0
 36 40  1  0
 37 36  2  0
 38 33  2  0
 38 37  1  0
 39 38  1  0
 41 43  2  0
 42 41  1  0
 42 44  1  0
 45 42  1  0
 46 48  1  0
 47 46  1  0
 52 63  2  0
 53 58  1  0
 54 64  1  0
 54 62  1  0
 55 57  2  0
 56 62  1  0
 57 58  1  0
 57 56  1  0
 59 53  1  0
 60 59  2  0
 60 55  1  0
 61 55  1  0
 61 54  1  0
 62 52  1  0
 64 66  2  0
 65 64  1  0
 67 65  1  0
 68 73  1  0
 68 72  1  0
 69 65  1  0
 69 70  1  0
 71 70  1  0
 72 71  1  0
 73 69  1  0
 74 73  2  0
 75 74  1  0
 76 75  2  0
 76 77  1  0
 77 68  2  0
 78 52  1  0
 78 79  1  0
 78 88  1  0
 79 82  1  0
 80 79  1  0
 80 84  1  0
 81 80  2  0
 84 83  1  0
 84 86  1  0
 86 87  1  0
 86 85  1  0
 88 89  1  1
 88 91  1  0
 90 88  1  0
M  ISO  4   6 100  20 100  50 101  51 101
M  END
>  <TORSDO>  (41) 
F 18

>  <SCORE>  (41) 
-4.580

>  <name>  (41) 
40

>  <ligand_id>  (41) 
40

>  <original_smiles>  (41) 
[H]c1c([H])c([H])c2c(c1[H])C([H])([H])C([H])([H])C([H])([H])C2([H])N([H])C(=O)C1([H])N(C(=O)C([H])(N([H])C(=O)C([H])(N([H])C([H])([H])[H])C([H])([H])[H])C(C([H])([H])[H])(C([H])([H])[H])C([H])([H])[H])C([H])([H])c2c([H])c(OC([H])([H])C([H])([H])n3c([H])c([H])c([H])c3C3(C([H])([H])[H])C([H])([H])C([H])([H])N(C(=O)N4C([H])([H])C([H])([H])C([H])([H])C([H])(n5nc(-c6c([H])c([H])c(Oc7c([H])c([H])c(F)c([H])c7F)c([H])c6[H])c(C(=O)N([H])[H])c5N([H])[H])C4([H])[H])C([H])([H])C3([H])[H])c([H])c([H])c2C1([H])[H]

>  <smiles>  (41) 
[H]c1c([H])c([H])c2c(c1[H])C([H])([H])C([H])([H])C([H])([H])C2([H])N([H])C(=O)C1([H])N(C(=O)C([H])(N([H])C(=O)C([H])(N([H])C([H])([H])[H])C([H])([H])[H])C(C([H])([H])[H])(C([H])([H])[H])C([H])([H])[H])C([H])([H])c2c([H])c(OC([H])([H])C([H])([H])n3c([H])c([H])c([H])c3C3(C([H])([H])[H])C([H])([H])C([H])([H])N(C(=O)N4C([H])([H])C([H])([H])C([H])([H])C([H])(n5nc(-c6c([H])c([H])c(Oc7c([H])c([H])c(F)c([H])c7F)c([H])c6[H])c(C(=O)N([H])[H])c5N([H])[H])C4([H])[H])C([H])([H])C3([H])[H])c([H])c([H])c2C1([H])[H]

$$$$
41:0:0
     RDKit          3D

 98107  0  0  1  0  0  0  0  0999 V2000
  -27.8920  -24.1440   20.5860 C   0  0  0  0  0  3  0  0  0  0  0  0
  -27.5090  -24.6870   21.9920 C   0  0  0  0  0  2  0  0  0  0  0  0
  -23.4570  -24.9110   23.6840 C   0  0  0  0  0  2  0  0  0  0  0  0
  -23.6310  -24.1600   22.3560 C   0  0  0  0  0  2  0  0  0  0  0  0
  -24.3300  -26.1740   23.7080 C   0  0  0  0  0  2  0  0  0  0  0  0
  -25.1040  -23.8010   22.1200 C   0  0  0  0  0  2  0  0  0  0  0  0
  -25.8070  -25.8200   23.4800 C   0  0  0  0  0  2  0  0  0  0  0  0
  -26.0190  -25.0450   22.1620 C   0  0  0  0  0  3  0  0  0  0  0  0
  -28.6350  -22.7290   20.7650 C   0  0  0  0  0  2  0  0  0  0  0  0
  -28.5500  -21.6050   19.6550 C   0  0  0  0  0  2  0  0  0  0  0  0
  -28.5370  -17.6890   19.3530 C   0  0  0  0  0  2  0  0  0  0  0  0
  -28.5180  -19.1930   18.9350 C   0  0  0  0  0  2  0  0  0  0  0  0
  -30.0030  -19.7720   20.7730 C   0  0  0  0  0  2  0  0  0  0  0  0
  -30.0430  -18.2610   21.2390 C   0  0  0  0  0  3  0  0  0  0  0  0
  -29.8400  -17.2410   20.0700 C   0  0  0  0  0  3  0  0  0  0  0  0
  -31.3370  -17.9640   22.0170 C   0  0  0  0  0  1  0  0  0  0  0  0
  -28.7360  -20.1450   20.0700 N   0  0  1  0  0  4  0  0  0  0  0  0
  -27.9920  -19.9600   20.7270 H   0  0  0  0  0  0  0  0  0  0  0  0
  -30.5570  -14.7360   20.1610 C   0  0  0  0  0  0  0  0  0  0  0  0
  -30.3130  -12.5150   19.0930 C   0  0  0  0  0  2  0  0  0  0  0  0
  -29.3310  -12.6740   17.9100 C   0  0  0  0  0  2  0  0  0  0  0  0
  -27.8720  -12.5180   18.3820 C   0  0  0  0  0  2  0  0  0  0  0  0
  -27.5580  -13.3580   19.6470 C   0  0  0  0  0  3  0  0  0  0  0  0
  -28.6500  -13.1740   20.7280 C   0  0  0  0  0  2  0  0  0  0  0  0
  -29.9430  -13.5140   20.1150 N   0  0  0  0  0  0  0  0  0  0  0  0
  -31.6970  -14.9040   19.7220 O   0  0  0  0  0  0  0  0  0  0  0  0
  -29.7510  -15.7940   20.4850 N   0  0  0  0  0  0  0  0  0  0  0  0
  -28.8700  -15.5190   20.8910 H   0  0  0  0  0  0  0  0  0  0  0  0
  -25.1900  -13.9570   20.4470 C   0  0  0  0  0  0  0  0  0  0  0  0
  -24.1330  -13.1850   20.8410 C   0  0  0  0  0  0  0  0  0  0  0  0
  -24.5880  -11.8320   20.7750 C   0  0  0  0  0  0  0  0  0  0  0  0
  -26.2230  -13.0760   20.1680 N   0  0  0  0  0  0  0  0  0  0  0  0
  -25.8680  -11.7920   20.4250 N   0  0  0  0  0  0  0  0  0  0  0  0
  -23.8630  -10.5700   20.9690 C   0  0  0  0  0  0  0  0  0  0  0  0
  -24.3290   -9.5790   21.8600 C   0  0  0  0  0  3  0  0  0  0  0  0
  -23.6050   -8.3810   22.0420 C   0  0  0  0  0  3  0  0  0  0  0  0
  -22.3980   -8.1660   21.3330 C   0  0  0  0  0  0  0  0  0  0  0  0
  -21.9520   -9.1450   20.4280 C   0  0  0  0  0  3  0  0  0  0  0  0
  -22.6780  -10.3350   20.2450 C   0  0  0  0  0  3  0  0  0  0  0  0
  -21.6410   -7.0240   21.4270 O   0  0  0  0  0  0  0  0  0  0  0  0
  -21.6410   -6.2540   22.5620 C   0  0  0  0  0  0  0  0  0  0  0  0
  -21.2940   -6.7840   23.8230 C   0  0  0  0  0  3  0  0  0  0  0  0
  -21.2390   -5.9410   24.9510 C   0  0  0  0  0  3  0  0  0  0  0  0
  -21.5180   -4.5680   24.8180 C   0  0  0  0  0  0  0  0  0  0  0  0
  -21.8590   -4.0370   23.5620 C   0  0  0  0  0  3  0  0  0  0  0  0
  -21.9160   -4.8760   22.4360 C   0  0  0  0  0  0  0  0  0  0  0  0
  -22.2220   -4.3560   21.2240 F   0  0  0  0  0  0  0  0  0  0  0  0
  -21.4570   -3.7560   25.9000 F   0  0  0  0  0  0  0  0  0  0  0  0
  -22.7460  -13.6620   21.1650 C   0  0  0  0  0  0  0  0  0  0  0  0
  -22.0470  -12.9620   22.0510 N   0  0  0  0  0  0  0  0  0  0  0  0
  -22.2940  -14.6930   20.6680 O   0  0  0  0  0  0  0  0  0  0  0  0
  -22.4250  -12.1270   22.4740 H   0  0  0  0  0  0  0  0  0  0  0  0
  -21.1200  -13.2660   22.3110 H   0  0  0  0  0  0  0  0  0  0  0  0
  -25.3540  -15.3300   20.2800 N   0  0  0  0  0  0  0  0  0  0  0  0
  -24.5860  -15.9800   20.4130 H   0  0  0  0  0  0  0  0  0  0  0  0
  -26.1740  -15.7610   19.8780 H   0  0  0  0  0  0  0  0  0  0  0  0
  -28.6000  -25.2750   19.7190 C   0  0  0  0  0  2  0  0  0  0  0  0
  -28.5160  -26.6990   20.0990 O   0  0  0  0  0  0  0  0  0  0  0  0
  -24.6440  -31.9070   23.1870 C   0  0  0  0  0  0  0  0  0  0  0  0
  -27.3380  -27.4470   20.0720 C   0  0  0  0  0  0  0  0  0  0  0  0
  -23.4630  -30.5100   21.5250 C   0  0  0  0  0  3  0  0  0  0  0  0
  -24.9380  -28.9900   20.0910 C   0  0  0  0  0  0  0  0  0  0  0  0
  -25.9940  -30.8740   21.3510 C   0  0  0  0  0  2  0  0  0  0  0  0
  -26.0950  -29.5030   20.6910 C   0  0  0  0  0  0  0  0  0  0  0  0
  -27.2950  -28.7410   20.6740 C   0  0  0  0  0  3  0  0  0  0  0  0
  -26.1560  -26.9640   19.4730 C   0  0  0  0  0  3  0  0  0  0  0  0
  -24.9690  -27.7240   19.4790 C   0  0  0  0  0  3  0  0  0  0  0  0
  -23.6880  -29.8430   20.1410 C   0  0  0  0  0  2  0  0  0  0  0  0
  -24.7190  -31.1160   22.0760 N   0  0  0  0  0  0  0  0  0  0  0  0
  -23.5570  -32.1650   23.7220 O   0  0  0  0  0  0  0  0  0  0  0  0
  -22.8120  -29.4760   22.4730 C   0  0  0  0  0  0  0  0  0  0  0  0
  -21.4860  -29.2950   22.3490 N   0  0  0  0  0  0  0  0  0  0  0  0
  -23.4970  -28.8380   23.2770 O   0  0  0  0  0  0  0  0  0  0  0  0
  -20.9950  -29.8670   21.6760 H   0  0  0  0  0  0  0  0  0  0  0  0
  -18.1070  -28.1210   22.8790 C   0  0  0  0  0  0  0  0  0  0  0  0
  -20.6730  -28.3430   23.1060 C   0  0  0  0  0  3  0  0  0  0  0  0
  -20.7470  -26.9300   22.4850 C   0  0  0  0  0  2  0  0  0  0  0  0
  -19.6220  -26.6510   21.4840 C   0  0  0  0  0  2  0  0  0  0  0  0
  -18.2530  -26.7920   22.1580 C   0  0  0  0  0  2  0  0  0  0  0  0
  -19.2430  -28.8570   23.3080 C   0  0  0  0  0  0  0  0  0  0  0  0
  -19.0530  -30.1020   23.9440 C   0  0  0  0  0  3  0  0  0  0  0  0
  -17.7590  -30.6140   24.1550 C   0  0  0  0  0  3  0  0  0  0  0  0
  -16.6380  -29.8760   23.7400 C   0  0  0  0  0  3  0  0  0  0  0  0
  -16.8130  -28.6320   23.1090 C   0  0  0  0  0  3  0  0  0  0  0  0
  -25.9180  -32.5470   23.8210 C   0  0  0  0  0  3  0  0  0  0  0  0
  -25.5900  -33.9370   24.1660 N   0  0  0  0  0  0  0  0  0  0  0  0
  -25.9080  -35.0020   23.4180 C   0  0  0  0  0  0  0  0  0  0  0  0
  -26.5780  -34.9190   22.3860 O   0  0  0  0  0  0  0  0  0  0  0  0
  -24.9960  -34.0730   24.9700 H   0  0  0  0  0  0  0  0  0  0  0  0
  -24.1460  -36.7720   23.1000 C   0  0  0  0  0  1  0  0  0  0  0  0
  -25.4030  -36.3800   23.8930 C   0  0  0  0  0  3  0  0  0  0  0  0
  -27.5350  -37.2920   24.7050 C   0  0  0  0  0  1  0  0  0  0  0  0
  -26.4170  -37.4510   23.7770 N   0  0  0  0  0  0  0  0  0  0  0  0
  -26.0020  -38.3650   23.9380 H   0  0  0  0  0  0  0  0  0  0  0  0
  -26.4370  -31.7690   25.0930 C   0  0  1  0  0  0  0  0  0  0  0  0
  -25.3420  -31.5120   26.1540 C   0  0  0  0  0  1  0  0  0  0  0  0
  -27.0370  -30.4010   24.6920 C   0  0  0  0  0  1  0  0  0  0  0  0
  -27.5790  -32.5680   25.7670 C   0  0  0  0  0  1  0  0  0  0  0  0
  1 57  1  0
  1  9  1  0
  1  2  1  0
  2  8  1  0
  3  5  1  0
  4  3  1  0
  6  8  1  0
  6  4  1  0
  7  5  1  0
  8  7  1  0
 10 17  1  0
 10  9  1  0
 11 15  1  0
 12 11  1  0
 12 17  1  0
 13 14  1  0
 14 16  1  0
 15 27  1  0
 15 14  1  0
 17 18  1  1
 17 13  1  0
 19 27  1  0
 20 25  1  0
 21 22  1  0
 21 20  1  0
 23 22  1  0
 23 32  1  0
 23 24  1  0
 25 19  1  0
 25 24  1  0
 26 19  2  0
 27 28  1  0
 29 30  2  0
 30 49  1  0
 31 30  1  0
 31 34  1  0
 32 33  1  0
 32 29  1  0
 33 31  2  0
 34 35  1  0
 35 36  2  0
 37 40  1  0
 37 36  1  0
 38 37  2  0
 39 38  1  0
 39 34  2  0
 40 41  1  0
 41 42  1  0
 42 43  2  0
 44 43  1  0
 44 48  1  0
 45 44  2  0
 46 41  2  0
 46 45  1  0
 47 46  1  0
 49 50  1  0
 50 53  1  0
 50 52  1  0
 51 49  2  0
 54 55  1  0
 54 29  1  0
 56 54  1  0
 57 58  1  0
 59 70  2  0
 60 58  1  0
 60 65  1  0
 61 69  1  0
 61 71  1  0
 62 68  1  0
 62 64  1  0
 63 69  1  0
 64 63  1  0
 65 64  2  0
 66 67  1  0
 66 60  2  0
 67 62  2  0
 68 61  1  0
 69 59  1  0
 71 73  2  0
 72 71  1  0
 74 72  1  0
 75 84  2  0
 75 80  1  0
 76 72  1  0
 76 80  1  0
 77 76  1  0
 78 79  1  0
 78 77  1  0
 79 75  1  0
 80 81  2  0
 81 82  1  0
 83 82  2  0
 84 83  1  0
 85 59  1  0
 85 86  1  0
 85 95  1  0
 86 89  1  0
 87 91  1  0
 87 86  1  0
 88 87  2  0
 91 90  1  0
 93 91  1  0
 93 94  1  0
 93 92  1  0
 95 98  1  1
 95 96  1  0
 97 95  1  0
M  ISO  4  19 100  27 100  57 101  58 101
M  END
>  <TORSDO>  (42) 
F 22

>  <SCORE>  (42) 
-13.528

>  <name>  (42) 
41

>  <ligand_id>  (42) 
41

>  <original_smiles>  (42) 
[H]c1c([H])c([H])c2c(c1[H])C([H])([H])C([H])([H])C([H])([H])C2([H])N([H])C(=O)C1([H])N(C(=O)C([H])(N([H])C(=O)C([H])(N([H])C([H])([H])[H])C([H])([H])[H])C(C([H])([H])[H])(C([H])([H])[H])C([H])([H])[H])C([H])([H])c2c([H])c(OC([H])([H])C([H])(C([H])([H])C3([H])C([H])([H])C([H])([H])C([H])([H])C([H])([H])C3([H])[H])C([H])([H])C([H])([H])[N+]3([H])C([H])([H])C([H])([H])C([H])(N([H])C(=O)N4C([H])([H])C([H])([H])C([H])([H])C([H])(n5nc(-c6c([H])c([H])c(Oc7c([H])c([H])c(F)c([H])c7F)c([H])c6[H])c(C(=O)N([H])[H])c5N([H])[H])C4([H])[H])C([H])(C([H])([H])[H])C3([H])[H])c([H])c([H])c2C1([H])[H]

>  <smiles>  (42) 
[H]c1c([H])c([H])c2c(c1[H])C([H])([H])C([H])([H])C([H])([H])C2([H])N([H])C(=O)C1([H])N(C(=O)C([H])(N([H])C(=O)C([H])(N([H])C([H])([H])[H])C([H])([H])[H])C(C([H])([H])[H])(C([H])([H])[H])C([H])([H])[H])C([H])([H])c2c([H])c(OC([H])([H])C([H])(C([H])([H])C3([H])C([H])([H])C([H])([H])C([H])([H])C([H])([H])C3([H])[H])C([H])([H])C([H])([H])[N+]3([H])C([H])([H])C([H])([H])C([H])(N([H])C(=O)N4C([H])([H])C([H])([H])C([H])([H])C([H])(n5nc(-c6c([H])c([H])c(Oc7c([H])c([H])c(F)c([H])c7F)c([H])c6[H])c(C(=O)N([H])[H])c5N([H])[H])C4([H])[H])C([H])(C([H])([H])[H])C3([H])[H])c([H])c([H])c2C1([H])[H]

$$$$
42:0:0
     RDKit          3D

 95104  0  0  1  0  0  0  0  0999 V2000
  -29.3810  -18.8620   19.8220 C   0  0  0  0  0  3  0  0  0  0  0  0
  -26.9490  -17.5080   19.7600 C   0  0  0  0  0  3  0  0  0  0  0  0
  -28.2590  -19.4780   19.2330 C   0  0  0  0  0  0  0  0  0  0  0  0
  -27.0520  -18.7950   19.2130 C   0  0  0  0  0  0  0  0  0  0  0  0
  -29.2060  -17.5570   20.3510 C   0  0  0  0  0  0  0  0  0  0  0  0
  -25.9720  -19.5600   18.5040 C   0  0  0  0  0  3  0  0  0  0  0  0
  -26.7070  -20.7980   17.9360 C   0  0  0  0  0  3  0  0  0  0  0  0
  -28.1720  -20.7950   18.4740 C   0  0  0  0  0  3  0  0  0  0  0  0
  -28.0190  -16.8980   20.3140 N   0  0  0  0  0  0  0  0  0  0  0  0
  -28.4790  -21.9980   19.2890 N   0  0  0  0  0  4  0  0  0  0  0  0
  -29.4110  -21.8700   19.6470 H   0  0  0  0  0  0  0  0  0  0  0  0
  -27.8500  -22.0220   20.0740 H   0  0  0  0  0  0  0  0  0  0  0  0
  -28.4220  -23.2700   18.5120 C   0  0  0  0  0  2  0  0  0  0  0  0
  -29.1160  -24.5050   19.1470 C   0  0  0  0  0  2  0  0  0  0  0  0
  -28.3750  -25.1650   20.3300 C   0  0  0  0  0  2  0  0  0  0  0  0
  -28.5490  -26.5950   20.3650 O   0  0  0  0  0  0  0  0  0  0  0  0
  -24.5010  -31.7220   23.1770 C   0  0  0  0  0  0  0  0  0  0  0  0
  -27.3910  -27.3350   20.2520 C   0  0  0  0  0  0  0  0  0  0  0  0
  -23.4240  -30.3200   21.4470 C   0  0  0  0  0  3  0  0  0  0  0  0
  -24.9880  -28.8180   20.1070 C   0  0  0  0  0  0  0  0  0  0  0  0
  -25.9530  -30.7140   21.4210 C   0  0  0  0  0  2  0  0  0  0  0  0
  -26.0990  -29.3510   20.7730 C   0  0  0  0  0  0  0  0  0  0  0  0
  -27.3070  -28.6190   20.8380 C   0  0  0  0  0  3  0  0  0  0  0  0
  -26.2650  -26.8220   19.5690 C   0  0  0  0  0  3  0  0  0  0  0  0
  -25.0660  -27.5530   19.5000 C   0  0  0  0  0  3  0  0  0  0  0  0
  -23.7330  -29.6570   20.0790 C   0  0  0  0  0  2  0  0  0  0  0  0
  -24.6390  -30.9330   22.0750 N   0  0  0  0  0  0  0  0  0  0  0  0
  -23.3830  -31.9780   23.6470 O   0  0  0  0  0  0  0  0  0  0  0  0
  -22.7230  -29.2820   22.3530 C   0  0  0  0  0  0  0  0  0  0  0  0
  -21.3970  -29.1450   22.1920 N   0  0  0  0  0  0  0  0  0  0  0  0
  -23.3720  -28.6060   23.1570 O   0  0  0  0  0  0  0  0  0  0  0  0
  -20.9410  -29.7410   21.5160 H   0  0  0  0  0  0  0  0  0  0  0  0
  -17.9700  -28.0950   22.6370 C   0  0  0  0  0  0  0  0  0  0  0  0
  -20.5370  -28.2030   22.9070 C   0  0  0  0  0  3  0  0  0  0  0  0
  -20.5650  -26.8090   22.2380 C   0  0  0  0  0  2  0  0  0  0  0  0
  -19.4440  -26.6120   21.2120 C   0  0  0  0  0  2  0  0  0  0  0  0
  -18.0750  -26.7860   21.8740 C   0  0  0  0  0  2  0  0  0  0  0  0
  -19.1270  -28.7690   23.1090 C   0  0  0  0  0  0  0  0  0  0  0  0
  -18.9760  -30.0030   23.7790 C   0  0  0  0  0  3  0  0  0  0  0  0
  -17.6990  -30.5590   23.9830 C   0  0  0  0  0  3  0  0  0  0  0  0
  -16.5560  -29.8790   23.5300 C   0  0  0  0  0  3  0  0  0  0  0  0
  -16.6930  -28.6490   22.8620 C   0  0  0  0  0  3  0  0  0  0  0  0
  -25.7350  -32.3610   23.8880 C   0  0  0  0  0  3  0  0  0  0  0  0
  -25.4170  -33.7730   24.1390 N   0  0  0  0  0  0  0  0  0  0  0  0
  -25.8430  -34.7930   23.3810 C   0  0  0  0  0  0  0  0  0  0  0  0
  -26.6130  -34.6440   22.4280 O   0  0  0  0  0  0  0  0  0  0  0  0
  -24.7500  -33.9630   24.8710 H   0  0  0  0  0  0  0  0  0  0  0  0
  -24.1860  -36.5890   22.7910 C   0  0  0  0  0  1  0  0  0  0  0  0
  -25.3330  -36.2010   23.7370 C   0  0  0  0  0  3  0  0  0  0  0  0
  -27.3850  -37.0930   24.7500 C   0  0  0  0  0  1  0  0  0  0  0  0
  -26.3880  -37.2370   23.6920 N   0  0  0  0  0  0  0  0  0  0  0  0
  -25.9830  -38.1670   23.7630 H   0  0  0  0  0  0  0  0  0  0  0  0
  -26.1290  -31.6310   25.2300 C   0  0  1  0  0  0  0  0  0  0  0  0
  -24.9480  -31.4580   26.2130 C   0  0  0  0  0  1  0  0  0  0  0  0
  -26.7100  -30.2280   24.9370 C   0  0  0  0  0  1  0  0  0  0  0  0
  -27.2420  -32.4250   25.9540 C   0  0  0  0  0  1  0  0  0  0  0  0
  -30.3550  -16.7760   20.9770 C   0  0  0  0  0  2  0  0  0  0  0  0
  -30.6960  -14.3630   20.4400 C   0  0  0  0  0  0  0  0  0  0  0  0
  -30.3990  -12.1740   19.3540 C   0  0  0  0  0  2  0  0  0  0  0  0
  -29.4540  -12.3410   18.1450 C   0  0  0  0  0  2  0  0  0  0  0  0
  -27.9790  -12.2250   18.5800 C   0  0  0  0  0  2  0  0  0  0  0  0
  -27.6470  -13.1050   19.8150 C   0  0  0  0  0  3  0  0  0  0  0  0
  -28.7000  -12.9020   20.9280 C   0  0  0  0  0  2  0  0  0  0  0  0
  -30.0290  -13.1840   20.3550 N   0  0  0  0  0  0  0  0  0  0  0  0
  -31.7870  -14.5650   19.8980 O   0  0  0  0  0  0  0  0  0  0  0  0
  -30.0340  -15.3510   21.0510 N   0  0  0  0  0  0  0  0  0  0  0  0
  -29.1450  -15.1460   21.4840 H   0  0  0  0  0  0  0  0  0  0  0  0
  -25.2700  -13.7620   20.5560 C   0  0  0  0  0  0  0  0  0  0  0  0
  -24.1850  -13.0110   20.9180 C   0  0  0  0  0  0  0  0  0  0  0  0
  -24.6110  -11.6470   20.8590 C   0  0  0  0  0  0  0  0  0  0  0  0
  -26.2910  -12.8580   20.2990 N   0  0  0  0  0  0  0  0  0  0  0  0
  -25.8950  -11.5810   20.5330 N   0  0  0  0  0  0  0  0  0  0  0  0
  -23.8550  -10.4010   21.0380 C   0  0  0  0  0  0  0  0  0  0  0  0
  -24.2960   -9.3890   21.9210 C   0  0  0  0  0  3  0  0  0  0  0  0
  -23.5440   -8.2080   22.0890 C   0  0  0  0  0  3  0  0  0  0  0  0
  -22.3350   -8.0290   21.3740 C   0  0  0  0  0  0  0  0  0  0  0  0
  -21.9110   -9.0300   20.4820 C   0  0  0  0  0  3  0  0  0  0  0  0
  -22.6650  -10.2030   20.3120 C   0  0  0  0  0  3  0  0  0  0  0  0
  -21.5530   -6.9020   21.4540 O   0  0  0  0  0  0  0  0  0  0  0  0
  -21.5530   -6.1020   22.5680 C   0  0  0  0  0  0  0  0  0  0  0  0
  -21.2020   -6.5970   23.8420 C   0  0  0  0  0  3  0  0  0  0  0  0
  -21.1490   -5.7250   24.9480 C   0  0  0  0  0  3  0  0  0  0  0  0
  -21.4370   -4.3570   24.7800 C   0  0  0  0  0  0  0  0  0  0  0  0
  -21.7820   -3.8600   23.5110 C   0  0  0  0  0  3  0  0  0  0  0  0
  -21.8370   -4.7300   22.4080 C   0  0  0  0  0  0  0  0  0  0  0  0
  -22.1490   -4.2420   21.1830 F   0  0  0  0  0  0  0  0  0  0  0  0
  -21.3800   -3.5170   25.8400 F   0  0  0  0  0  0  0  0  0  0  0  0
  -22.8050  -13.5210   21.2160 C   0  0  0  0  0  0  0  0  0  0  0  0
  -22.0770  -12.8450   22.0980 N   0  0  0  0  0  0  0  0  0  0  0  0
  -22.3800  -14.5550   20.7020 O   0  0  0  0  0  0  0  0  0  0  0  0
  -22.4320  -12.0110   22.5400 H   0  0  0  0  0  0  0  0  0  0  0  0
  -21.1500  -13.1710   22.3370 H   0  0  0  0  0  0  0  0  0  0  0  0
  -25.4720  -15.1310   20.4100 N   0  0  0  0  0  0  0  0  0  0  0  0
  -24.7330  -15.8060   20.5670 H   0  0  0  0  0  0  0  0  0  0  0  0
  -26.3650  -15.5550   20.1950 H   0  0  0  0  0  0  0  0  0  0  0  0
  1  5  1  0
  2  9  1  0
  3  1  2  0
  4  3  1  0
  4  2  2  0
  5 57  1  0
  6  4  1  0
  7  8  1  0
  7  6  2  0
  8  3  1  0
  8 10  1  0
  9  5  2  0
 10 11  1  0
 10 12  1  0
 13 14  1  0
 13 10  1  0
 14 15  1  0
 15 16  1  0
 17 28  2  0
 18 16  1  0
 18 23  1  0
 19 27  1  0
 19 29  1  0
 20 22  1  0
 21 27  1  0
 22 23  2  0
 22 21  1  0
 24 18  2  0
 25 24  1  0
 25 20  2  0
 26 20  1  0
 26 19  1  0
 27 17  1  0
 29 31  2  0
 30 29  1  0
 32 30  1  0
 33 42  2  0
 33 38  1  0
 34 30  1  0
 34 38  1  0
 35 34  1  0
 36 37  1  0
 36 35  1  0
 37 33  1  0
 38 39  2  0
 39 40  1  0
 41 40  2  0
 42 41  1  0
 43 17  1  0
 43 44  1  0
 43 53  1  0
 44 47  1  0
 45 49  1  0
 45 44  1  0
 46 45  2  0
 49 48  1  0
 51 49  1  0
 51 52  1  0
 51 50  1  0
 53 56  1  1
 53 54  1  0
 55 53  1  0
 57 66  1  0
 58 66  1  0
 59 64  1  0
 60 61  1  0
 60 59  1  0
 62 61  1  0
 62 71  1  0
 62 63  1  0
 64 58  1  0
 64 63  1  0
 65 58  2  0
 66 67  1  0
 68 69  2  0
 69 88  1  0
 70 69  1  0
 70 73  1  0
 71 72  1  0
 71 68  1  0
 72 70  2  0
 73 74  1  0
 74 75  2  0
 76 79  1  0
 76 75  1  0
 77 76  2  0
 78 77  1  0
 78 73  2  0
 79 80  1  0
 80 81  1  0
 81 82  2  0
 83 82  1  0
 83 87  1  0
 84 83  2  0
 85 80  2  0
 85 84  1  0
 86 85  1  0
 88 89  1  0
 89 92  1  0
 89 91  1  0
 90 88  2  0
 93 68  1  0
 93 94  1  0
 95 93  1  0
M  ISO  4  15 101  16 101  58 100  66 100
M  END
>  <TORSDO>  (43) 
F 21

>  <SCORE>  (43) 
-13.264

>  <name>  (43) 
42

>  <ligand_id>  (43) 
42

>  <original_smiles>  (43) 
[H]c1nc(C([H])([H])N([H])C(=O)N2C([H])([H])C([H])([H])C([H])([H])C([H])(n3nc(-c4c([H])c([H])c(Oc5c([H])c([H])c(F)c([H])c5F)c([H])c4[H])c(C(=O)N([H])[H])c3N([H])[H])C2([H])[H])c([H])c2c1C([H])([H])C([H])([H])C2([H])[N+]([H])([H])C([H])([H])C([H])([H])C([H])([H])Oc1c([H])c([H])c2c(c1[H])C([H])([H])N(C(=O)C([H])(N([H])C(=O)C([H])(N([H])C([H])([H])[H])C([H])([H])[H])C(C([H])([H])[H])(C([H])([H])[H])C([H])([H])[H])C([H])(C(=O)N([H])C1([H])c3c([H])c([H])c([H])c([H])c3C([H])([H])C([H])([H])C1([H])[H])C2([H])[H]

>  <smiles>  (43) 
[H]c1nc(C([H])([H])N([H])C(=O)N2C([H])([H])C([H])([H])C([H])([H])C([H])(n3nc(-c4c([H])c([H])c(Oc5c([H])c([H])c(F)c([H])c5F)c([H])c4[H])c(C(=O)N([H])[H])c3N([H])[H])C2([H])[H])c([H])c2c1C([H])([H])C([H])([H])C2([H])[N+]([H])([H])C([H])([H])C([H])([H])C([H])([H])Oc1c([H])c([H])c2c(c1[H])C([H])([H])N(C(=O)C([H])(N([H])C(=O)C([H])(N([H])C([H])([H])[H])C([H])([H])[H])C(C([H])([H])[H])(C([H])([H])[H])C([H])([H])[H])C([H])(C(=O)N([H])C1([H])c3c([H])c([H])c([H])c([H])c3C([H])([H])C([H])([H])C1([H])[H])C2([H])[H]

$$$$
43:0:0
     RDKit          3D

 97108  0  0  1  0  0  0  0  0999 V2000
  -28.5460  -24.1480   17.9720 C   0  0  0  0  0  3  0  0  0  0  0  0
  -28.0330  -22.8830   17.6320 C   0  0  0  0  0  3  0  0  0  0  0  0
  -29.8310  -20.6480   19.9870 C   0  0  0  0  0  3  0  0  0  0  0  0
  -29.9090  -23.1080   19.7000 C   0  0  0  0  0  3  0  0  0  0  0  0
  -29.4080  -21.8320   19.3360 C   0  0  0  0  0  0  0  0  0  0  0  0
  -29.2950  -19.3960   19.5880 C   0  0  0  0  0  0  0  0  0  0  0  0
  -29.4900  -24.2770   19.0140 C   0  0  0  0  0  0  0  0  0  0  0  0
  -28.4600  -21.7180   18.2910 C   0  0  0  0  0  0  0  0  0  0  0  0
  -28.3780  -19.3970   18.5040 C   0  0  0  0  0  0  0  0  0  0  0  0
  -27.9680  -20.5290   17.8970 N   0  0  0  0  0  0  0  0  0  0  0  0
  -31.7300  -15.1150   20.5220 C   0  0  0  0  0  0  0  0  0  0  0  0
  -31.4480  -12.9610   19.3590 C   0  0  0  0  0  2  0  0  0  0  0  0
  -30.4730  -13.1670   18.1820 C   0  0  0  0  0  2  0  0  0  0  0  0
  -29.0100  -13.0020   18.6410 C   0  0  0  0  0  2  0  0  0  0  0  0
  -28.6860  -13.8120   19.9260 C   0  0  0  0  0  3  0  0  0  0  0  0
  -29.7740  -13.5860   21.0000 C   0  0  0  0  0  2  0  0  0  0  0  0
  -31.0780  -13.9250   20.4070 N   0  0  0  0  0  0  0  0  0  0  0  0
  -32.8600  -15.3090   20.0630 O   0  0  0  0  0  0  0  0  0  0  0  0
  -30.0320  -18.1500   21.7950 C   0  0  0  0  0  2  0  0  0  0  0  0
  -30.6660  -16.7690   22.0640 C   0  0  0  0  0  2  0  0  0  0  0  0
  -30.7390  -17.2140   19.7390 C   0  0  0  0  0  2  0  0  0  0  0  0
  -29.6250  -18.0820   20.3220 C   0  0  0  0  0  3  0  0  0  0  0  0
  -30.9190  -16.1710   20.7480 N   0  0  0  0  0  0  0  0  0  0  0  0
  -26.3130  -14.3660   20.7580 C   0  0  0  0  0  0  0  0  0  0  0  0
  -25.2530  -13.5680   21.0970 C   0  0  0  0  0  0  0  0  0  0  0  0
  -25.7120  -12.2240   20.9500 C   0  0  0  0  0  0  0  0  0  0  0  0
  -27.3480  -13.5050   20.4270 N   0  0  0  0  0  0  0  0  0  0  0  0
  -26.9910  -12.2070   20.5990 N   0  0  0  0  0  0  0  0  0  0  0  0
  -24.9910  -10.9500   21.0690 C   0  0  0  0  0  0  0  0  0  0  0  0
  -25.2570  -10.0440   22.1190 C   0  0  0  0  0  3  0  0  0  0  0  0
  -24.5350   -8.8370   22.2210 C   0  0  0  0  0  3  0  0  0  0  0  0
  -23.5320   -8.5260   21.2720 C   0  0  0  0  0  0  0  0  0  0  0  0
  -23.2900   -9.4190   20.2140 C   0  0  0  0  0  3  0  0  0  0  0  0
  -24.0130  -10.6190   20.1110 C   0  0  0  0  0  3  0  0  0  0  0  0
  -22.7980   -7.3650   21.2780 O   0  0  0  0  0  0  0  0  0  0  0  0
  -22.2220   -6.8830   22.4260 C   0  0  0  0  0  0  0  0  0  0  0  0
  -21.2700   -7.6320   23.1530 C   0  0  0  0  0  3  0  0  0  0  0  0
  -20.6500   -7.0700   24.2880 C   0  0  0  0  0  3  0  0  0  0  0  0
  -20.9720   -5.7600   24.6910 C   0  0  0  0  0  0  0  0  0  0  0  0
  -21.9150   -5.0120   23.9650 C   0  0  0  0  0  3  0  0  0  0  0  0
  -22.5360   -5.5710   22.8340 C   0  0  0  0  0  0  0  0  0  0  0  0
  -23.4270   -4.8360   22.1260 F   0  0  0  0  0  0  0  0  0  0  0  0
  -20.3730   -5.2190   25.7770 F   0  0  0  0  0  0  0  0  0  0  0  0
  -23.8670  -14.0240   21.4500 C   0  0  0  0  0  0  0  0  0  0  0  0
  -23.1920  -13.2980   22.3350 N   0  0  0  0  0  0  0  0  0  0  0  0
  -23.3900  -15.0550   20.9780 O   0  0  0  0  0  0  0  0  0  0  0  0
  -23.5940  -12.4640   22.7360 H   0  0  0  0  0  0  0  0  0  0  0  0
  -22.2640  -13.5810   22.6180 H   0  0  0  0  0  0  0  0  0  0  0  0
  -26.4760  -15.7440   20.6880 N   0  0  0  0  0  0  0  0  0  0  0  0
  -25.7250  -16.3890   20.9080 H   0  0  0  0  0  0  0  0  0  0  0  0
  -27.3410  -16.2040   20.4460 H   0  0  0  0  0  0  0  0  0  0  0  0
  -28.5570  -16.9730   17.5080 C   0  0  0  0  0  2  0  0  0  0  0  0
  -27.8420  -17.7930   16.4770 C   0  0  0  0  0  2  0  0  0  0  0  0
  -27.7250  -18.1610   17.9450 C   0  0  0  0  0  3  0  0  0  0  0  0
  -30.1510  -25.6300   19.3080 C   0  0  0  0  0  2  0  0  0  0  0  0
  -29.2680  -26.9080   19.2380 C   0  0  0  0  0  2  0  0  0  0  0  0
  -28.7160  -27.2720   20.5060 O   0  0  0  0  0  0  0  0  0  0  0  0
  -24.7960  -32.2690   23.7260 C   0  0  0  0  0  0  0  0  0  0  0  0
  -27.5440  -27.9920   20.4970 C   0  0  0  0  0  0  0  0  0  0  0  0
  -23.6250  -30.9070   22.0230 C   0  0  0  0  0  3  0  0  0  0  0  0
  -25.1170  -29.4440   20.5550 C   0  0  0  0  0  0  0  0  0  0  0  0
  -26.1460  -31.3110   21.8650 C   0  0  0  0  0  2  0  0  0  0  0  0
  -26.2590  -29.9660   21.1750 C   0  0  0  0  0  0  0  0  0  0  0  0
  -27.4720  -29.2400   21.1570 C   0  0  0  0  0  3  0  0  0  0  0  0
  -26.3820  -27.4740   19.8870 C   0  0  0  0  0  3  0  0  0  0  0  0
  -25.1710  -28.1940   19.9130 C   0  0  0  0  0  3  0  0  0  0  0  0
  -23.8580  -30.2800   20.6220 C   0  0  0  0  0  2  0  0  0  0  0  0
  -24.8720  -31.5100   22.5960 N   0  0  0  0  0  0  0  0  0  0  0  0
  -23.7050  -32.5060   24.2650 O   0  0  0  0  0  0  0  0  0  0  0  0
  -22.9810  -29.8440   22.9400 C   0  0  0  0  0  0  0  0  0  0  0  0
  -21.6780  -29.5900   22.7390 N   0  0  0  0  0  0  0  0  0  0  0  0
  -23.6530  -29.2510   23.7890 O   0  0  0  0  0  0  0  0  0  0  0  0
  -21.1950  -30.1240   22.0290 H   0  0  0  0  0  0  0  0  0  0  0  0
  -18.3790  -28.1350   22.9710 C   0  0  0  0  0  0  0  0  0  0  0  0
  -20.8740  -28.6030   23.4580 C   0  0  0  0  0  3  0  0  0  0  0  0
  -21.1410  -27.1760   22.9290 C   0  0  0  0  0  2  0  0  0  0  0  0
  -20.1640  -26.7480   21.8300 C   0  0  0  0  0  2  0  0  0  0  0  0
  -18.7220  -26.7920   22.3460 C   0  0  0  0  0  2  0  0  0  0  0  0
  -19.3910  -28.9920   23.4790 C   0  0  0  0  0  0  0  0  0  0  0  0
  -19.0220  -30.2440   24.0160 C   0  0  0  0  0  3  0  0  0  0  0  0
  -17.6720  -30.6420   24.0530 C   0  0  0  0  0  3  0  0  0  0  0  0
  -16.6740  -29.7830   23.5630 C   0  0  0  0  0  3  0  0  0  0  0  0
  -17.0270  -28.5320   23.0270 C   0  0  0  0  0  3  0  0  0  0  0  0
  -26.0670  -32.8960   24.3790 C   0  0  0  0  0  3  0  0  0  0  0  0
  -26.5090  -32.1660   25.7070 C   0  0  1  0  0  0  0  0  0  0  0  0
  -25.3530  -31.9500   26.7110 C   0  0  0  0  0  1  0  0  0  0  0  0
  -27.1250  -30.7820   25.3910 C   0  0  0  0  0  1  0  0  0  0  0  0
  -27.6100  -32.9880   26.4160 C   0  0  0  0  0  1  0  0  0  0  0  0
  -25.7780  -34.3130   24.6360 N   0  0  0  0  0  0  0  0  0  0  0  0
  -26.1840  -35.3240   23.8560 C   0  0  0  0  0  0  0  0  0  0  0  0
  -26.9090  -35.1630   22.8710 O   0  0  0  0  0  0  0  0  0  0  0  0
  -25.1420  -34.5150   25.3930 H   0  0  0  0  0  0  0  0  0  0  0  0
  -24.5280  -37.1430   23.3280 C   0  0  0  0  0  1  0  0  0  0  0  0
  -25.7080  -36.7410   24.2290 C   0  0  0  0  0  3  0  0  0  0  0  0
  -27.8130  -37.6060   25.1490 C   0  0  0  0  0  1  0  0  0  0  0  0
  -26.7730  -37.7630   24.1360 N   0  0  0  0  0  0  0  0  0  0  0  0
  -26.3830  -38.6980   24.2250 H   0  0  0  0  0  0  0  0  0  0  0  0
  1  7  1  0
  2  1  2  0
  2  8  1  0
  5  4  1  0
  5  3  2  0
  6  3  1  0
  7 55  1  0
  7  4  2  0
  8  5  1  0
  9  6  2  0
 10  8  2  0
 10  9  1  0
 11 23  1  0
 12 17  1  0
 13 14  1  0
 13 12  1  0
 15 14  1  0
 15 27  1  0
 15 16  1  0
 17 11  1  0
 17 16  1  0
 18 11  2  0
 19 20  1  0
 21 22  1  0
 21 23  1  0
 22  6  1  0
 22 19  1  0
 23 20  1  0
 24 25  2  0
 25 44  1  0
 26 29  1  0
 26 25  1  0
 27 28  1  0
 27 24  1  0
 28 26  2  0
 29 30  1  0
 30 31  2  0
 32 35  1  0
 32 31  1  0
 33 32  2  0
 34 33  1  0
 34 29  2  0
 35 36  1  0
 36 41  2  0
 36 37  1  0
 37 38  2  0
 38 39  1  0
 39 43  1  0
 40 39  2  0
 41 40  1  0
 42 41  1  0
 44 45  1  0
 45 48  1  0
 45 47  1  0
 46 44  2  0
 49 24  1  0
 49 50  1  0
 51 49  1  0
 52 54  1  0
 53 52  1  0
 53 54  1  0
 54  9  1  0
 56 55  1  0
 56 57  1  0
 58 69  2  0
 59 57  1  0
 59 64  1  0
 60 68  1  0
 60 70  1  0
 61 67  1  0
 61 63  1  0
 62 68  1  0
 63 62  1  0
 64 63  2  0
 65 66  1  0
 65 59  2  0
 66 61  2  0
 67 60  1  0
 68 58  1  0
 70 72  2  0
 71 70  1  0
 73 71  1  0
 74 83  2  0
 74 79  1  0
 75 71  1  0
 75 79  1  0
 76 75  1  0
 77 78  1  0
 77 76  1  0
 78 74  1  0
 79 80  2  0
 80 81  1  0
 82 81  2  0
 83 82  1  0
 84 58  1  0
 84 89  1  0
 84 85  1  0
 85 88  1  1
 85 86  1  0
 87 85  1  0
 89 92  1  0
 90 94  1  0
 90 89  1  0
 91 90  2  0
 94 93  1  0
 96 97  1  0
 96 94  1  0
 96 95  1  0
M  ISO  4  11 100  23 100  56 101  57 101
M  END
>  <TORSDO>  (44) 
F 19

>  <SCORE>  (44) 
-8.354

>  <name>  (44) 
43

>  <ligand_id>  (44) 
43

>  <original_smiles>  (44) 
[H]c1c([H])c([H])c2c(c1[H])C([H])([H])C([H])([H])C([H])([H])C2([H])N([H])C(=O)C1([H])N(C(=O)C([H])(N([H])C(=O)C([H])(N([H])C([H])([H])[H])C([H])([H])[H])C(C([H])([H])[H])(C([H])([H])[H])C([H])([H])[H])C([H])([H])c2c([H])c(OC([H])([H])C([H])([H])c3c([H])c([H])c4nc(C5([H])C([H])([H])C5([H])[H])c(C5([H])C([H])([H])N(C(=O)N6C([H])([H])C([H])([H])C([H])([H])C([H])(n7nc(-c8c([H])c([H])c(Oc9c([H])c([H])c(F)c([H])c9F)c([H])c8[H])c(C(=O)N([H])[H])c7N([H])[H])C6([H])[H])C([H])([H])C5([H])[H])c([H])c4c3[H])c([H])c([H])c2C1([H])[H]

>  <smiles>  (44) 
[H]c1c([H])c([H])c2c(c1[H])C([H])([H])C([H])([H])C([H])([H])C2([H])N([H])C(=O)C1([H])N(C(=O)C([H])(N([H])C(=O)C([H])(N([H])C([H])([H])[H])C([H])([H])[H])C(C([H])([H])[H])(C([H])([H])[H])C([H])([H])[H])C([H])([H])c2c([H])c(OC([H])([H])C([H])([H])c3c([H])c([H])c4nc(C5([H])C([H])([H])C5([H])[H])c(C5([H])C([H])([H])N(C(=O)N6C([H])([H])C([H])([H])C([H])([H])C([H])(n7nc(-c8c([H])c([H])c(Oc9c([H])c([H])c(F)c([H])c9F)c([H])c8[H])c(C(=O)N([H])[H])c7N([H])[H])C6([H])[H])C([H])([H])C5([H])[H])c([H])c4c3[H])c([H])c([H])c2C1([H])[H]

$$$$
44:0:0
     RDKit          3D

103112  0  0  1  0  0  0  0  0999 V2000
  -29.7510  -20.2810   16.8310 C   0  0  0  0  0  2  0  0  0  0  0  0
  -29.6590  -20.5690   19.3370 C   0  0  0  0  0  2  0  0  0  0  0  0
  -29.5080  -21.8120   16.8810 C   0  0  0  0  0  2  0  0  0  0  0  0
  -30.1730  -19.6720   18.1930 C   0  0  0  0  0  3  0  0  0  0  0  0
  -30.1390  -22.0540   19.2680 C   0  0  0  0  0  3  0  0  0  0  0  0
  -30.3910  -22.5130   17.8550 N   0  0  1  0  0  4  0  0  0  0  0  0
  -30.1180  -23.4860   17.8240 H   0  0  0  0  0  0  0  0  0  0  0  0
  -33.7100  -22.9450   15.9740 C   0  0  0  0  0  2  0  0  0  0  0  0
  -34.0250  -23.4840   17.3800 C   0  0  0  0  0  2  0  0  0  0  0  0
  -32.2310  -22.5160   16.0010 C   0  0  0  0  0  2  0  0  0  0  0  0
  -32.6610  -23.7140   18.0420 C   0  0  0  0  0  3  0  0  0  0  0  0
  -31.8520  -22.5190   17.4960 C   0  0  0  0  0  3  0  0  0  0  0  0
  -32.1220  -25.1020   17.6350 C   0  0  0  0  0  1  0  0  0  0  0  0
  -29.7160  -18.2640   18.3270 N   0  0  0  0  0  4  0  0  0  0  0  0
  -29.9060  -17.7880   17.4570 H   0  0  0  0  0  0  0  0  0  0  0  0
  -28.7170  -18.2480   18.4540 H   0  0  0  0  0  0  0  0  0  0  0  0
  -30.3540  -17.4650   19.4010 C   0  0  0  0  0  2  0  0  0  0  0  0
  -29.4230  -16.3280   19.8730 C   0  0  0  0  0  2  0  0  0  0  0  0
  -30.7190  -14.3760   20.4610 C   0  0  0  0  0  0  0  0  0  0  0  0
  -30.3470  -12.2400   19.2980 C   0  0  0  0  0  2  0  0  0  0  0  0
  -29.4110  -12.4860   18.1000 C   0  0  0  0  0  2  0  0  0  0  0  0
  -27.9340  -12.3730   18.5320 C   0  0  0  0  0  2  0  0  0  0  0  0
  -27.6100  -13.2030   19.8050 C   0  0  0  0  0  3  0  0  0  0  0  0
  -28.6720  -12.9750   20.9060 C   0  0  0  0  0  2  0  0  0  0  0  0
  -30.0010  -13.2310   20.3240 N   0  0  0  0  0  0  0  0  0  0  0  0
  -31.8640  -14.5300   20.0360 O   0  0  0  0  0  0  0  0  0  0  0  0
  -30.0300  -15.4430   20.8750 N   0  0  0  0  0  0  0  0  0  0  0  0
  -30.5580  -15.9770   21.5530 H   0  0  0  0  0  0  0  0  0  0  0  0
  -25.2210  -13.8440   20.5100 C   0  0  0  0  0  0  0  0  0  0  0  0
  -24.1410  -13.0860   20.8730 C   0  0  0  0  0  0  0  0  0  0  0  0
  -24.5870  -11.7290   20.8460 C   0  0  0  0  0  0  0  0  0  0  0  0
  -26.2560  -12.9490   20.2860 N   0  0  0  0  0  0  0  0  0  0  0  0
  -25.8770  -11.6720   20.5440 N   0  0  0  0  0  0  0  0  0  0  0  0
  -23.8470  -10.4770   21.0320 C   0  0  0  0  0  0  0  0  0  0  0  0
  -24.2580   -9.5110   21.9750 C   0  0  0  0  0  3  0  0  0  0  0  0
  -23.5190   -8.3210   22.1500 C   0  0  0  0  0  3  0  0  0  0  0  0
  -22.3540   -8.0910   21.3810 C   0  0  0  0  0  0  0  0  0  0  0  0
  -21.9640   -9.0450   20.4250 C   0  0  0  0  0  3  0  0  0  0  0  0
  -22.7040  -10.2260   20.2490 C   0  0  0  0  0  3  0  0  0  0  0  0
  -21.5860   -6.9560   21.4670 O   0  0  0  0  0  0  0  0  0  0  0  0
  -21.5120   -6.2210   22.6230 C   0  0  0  0  0  0  0  0  0  0  0  0
  -21.0600   -6.7840   23.8370 C   0  0  0  0  0  3  0  0  0  0  0  0
  -20.9360   -5.9760   24.9840 C   0  0  0  0  0  3  0  0  0  0  0  0
  -21.2500   -4.6060   24.9190 C   0  0  0  0  0  0  0  0  0  0  0  0
  -21.6930   -4.0420   23.7110 C   0  0  0  0  0  3  0  0  0  0  0  0
  -21.8230   -4.8480   22.5650 C   0  0  0  0  0  0  0  0  0  0  0  0
  -22.2310   -4.2950   21.3970 F   0  0  0  0  0  0  0  0  0  0  0  0
  -21.1230   -3.8280   26.0200 F   0  0  0  0  0  0  0  0  0  0  0  0
  -22.7490  -13.5800   21.1440 C   0  0  0  0  0  0  0  0  0  0  0  0
  -22.0120  -12.8860   22.0050 N   0  0  0  0  0  0  0  0  0  0  0  0
  -22.3250  -14.6130   20.6280 O   0  0  0  0  0  0  0  0  0  0  0  0
  -22.3690  -12.0470   22.4370 H   0  0  0  0  0  0  0  0  0  0  0  0
  -21.0800  -13.1960   22.2340 H   0  0  0  0  0  0  0  0  0  0  0  0
  -25.4020  -15.2140   20.3330 N   0  0  0  0  0  0  0  0  0  0  0  0
  -24.6420  -15.8760   20.4430 H   0  0  0  0  0  0  0  0  0  0  0  0
  -26.2710  -15.6530   20.0610 H   0  0  0  0  0  0  0  0  0  0  0  0
  -29.1320  -22.9610   20.0510 C   0  0  0  0  0  3  0  0  0  0  0  0
  -28.9790  -22.5190   21.5350 C   0  0  0  0  0  2  0  0  0  0  0  0
  -29.9920  -22.3210   23.8580 C   0  0  0  0  0  1  0  0  0  0  0  0
  -30.2610  -22.6190   22.3800 C   0  0  0  0  0  2  0  0  0  0  0  0
  -29.4090  -24.4810   19.9310 C   0  0  0  0  0  2  0  0  0  0  0  0
  -28.4240  -25.3620   20.7140 C   0  0  0  0  0  2  0  0  0  0  0  0
  -28.5170  -26.7070   20.2530 O   0  0  0  0  0  0  0  0  0  0  0  0
  -24.6010  -31.8310   23.2250 C   0  0  0  0  0  0  0  0  0  0  0  0
  -27.3330  -27.4020   20.2310 C   0  0  0  0  0  0  0  0  0  0  0  0
  -23.4380  -30.4160   21.5610 C   0  0  0  0  0  3  0  0  0  0  0  0
  -24.9280  -28.8720   20.1850 C   0  0  0  0  0  0  0  0  0  0  0  0
  -25.9640  -30.7850   21.4220 C   0  0  0  0  0  2  0  0  0  0  0  0
  -26.0670  -29.4110   20.7980 C   0  0  0  0  0  0  0  0  0  0  0  0
  -27.2750  -28.6810   20.8200 C   0  0  0  0  0  3  0  0  0  0  0  0
  -26.1840  -26.8760   19.6020 C   0  0  0  0  0  3  0  0  0  0  0  0
  -24.9780  -27.6010   19.5880 C   0  0  0  0  0  3  0  0  0  0  0  0
  -23.6800  -29.7250   20.1930 C   0  0  0  0  0  2  0  0  0  0  0  0
  -24.6850  -31.0240   22.1280 N   0  0  0  0  0  0  0  0  0  0  0  0
  -23.5070  -32.1040   23.7370 O   0  0  0  0  0  0  0  0  0  0  0  0
  -22.7670  -29.3990   22.5130 C   0  0  0  0  0  0  0  0  0  0  0  0
  -21.4400  -29.2410   22.3770 N   0  0  0  0  0  0  0  0  0  0  0  0
  -23.4370  -28.7550   23.3250 O   0  0  0  0  0  0  0  0  0  0  0  0
  -20.9640  -29.8100   21.6910 H   0  0  0  0  0  0  0  0  0  0  0  0
  -18.0360  -28.1490   22.8900 C   0  0  0  0  0  0  0  0  0  0  0  0
  -20.6030  -28.3130   23.1360 C   0  0  0  0  0  3  0  0  0  0  0  0
  -20.6520  -26.8940   22.5260 C   0  0  0  0  0  2  0  0  0  0  0  0
  -19.5280  -26.6310   21.5190 C   0  0  0  0  0  2  0  0  0  0  0  0
  -18.1580  -26.8090   22.1830 C   0  0  0  0  0  2  0  0  0  0  0  0
  -19.1830  -28.8630   23.3230 C   0  0  0  0  0  0  0  0  0  0  0  0
  -19.0150  -30.1200   23.9440 C   0  0  0  0  0  3  0  0  0  0  0  0
  -17.7310  -30.6630   24.1340 C   0  0  0  0  0  3  0  0  0  0  0  0
  -16.5980  -29.9440   23.7170 C   0  0  0  0  0  3  0  0  0  0  0  0
  -16.7500  -28.6900   23.1010 C   0  0  0  0  0  3  0  0  0  0  0  0
  -25.8730  -32.4660   23.8710 C   0  0  0  0  0  3  0  0  0  0  0  0
  -26.3660  -31.6960   25.1580 C   0  0  1  0  0  0  0  0  0  0  0  0
  -25.2530  -31.4520   26.2030 C   0  0  0  0  0  1  0  0  0  0  0  0
  -26.9630  -30.3230   24.7740 C   0  0  0  0  0  1  0  0  0  0  0  0
  -27.5020  -32.4940   25.8420 C   0  0  0  0  0  1  0  0  0  0  0  0
  -25.5540  -33.8640   24.1920 N   0  0  0  0  0  0  0  0  0  0  0  0
  -25.8960  -34.9120   23.4320 C   0  0  0  0  0  0  0  0  0  0  0  0
  -26.5830  -34.8070   22.4120 O   0  0  0  0  0  0  0  0  0  0  0  0
  -24.9490  -34.0210   24.9830 H   0  0  0  0  0  0  0  0  0  0  0  0
  -24.1690  -36.6960   23.0290 C   0  0  0  0  0  1  0  0  0  0  0  0
  -25.3930  -36.3010   23.8710 C   0  0  0  0  0  3  0  0  0  0  0  0
  -27.5040  -37.1970   24.7470 C   0  0  0  0  0  1  0  0  0  0  0  0
  -26.4260  -37.3560   23.7760 N   0  0  0  0  0  0  0  0  0  0  0  0
  -26.0140  -38.2770   23.9080 H   0  0  0  0  0  0  0  0  0  0  0  0
  1  3  1  0
  1  4  1  0
  3  6  1  0
  4 14  1  0
  4  2  1  0
  5  2  1  0
  5 57  1  0
  6  7  1  1
  6  5  1  0
  8 10  1  0
  8  9  1  0
  9 11  1  0
 11 13  1  0
 12 10  1  0
 12  6  1  0
 12 11  1  0
 14 16  1  0
 14 17  1  0
 15 14  1  0
 17 18  1  0
 18 27  1  0
 19 27  1  0
 20 25  1  0
 21 22  1  0
 21 20  1  0
 23 22  1  0
 23 32  1  0
 23 24  1  0
 25 19  1  0
 25 24  1  0
 26 19  2  0
 27 28  1  0
 29 30  2  0
 30 49  1  0
 31 30  1  0
 31 34  1  0
 32 29  1  0
 32 33  1  0
 33 31  2  0
 34 35  1  0
 35 36  2  0
 37 40  1  0
 37 36  1  0
 38 37  2  0
 39 38  1  0
 39 34  2  0
 40 41  1  0
 41 42  1  0
 42 43  2  0
 44 43  1  0
 44 48  1  0
 45 44  2  0
 46 41  2  0
 46 45  1  0
 47 46  1  0
 49 50  1  0
 50 53  1  0
 50 52  1  0
 51 49  2  0
 54 55  1  0
 54 29  1  0
 56 54  1  0
 57 61  1  0
 57 58  1  0
 58 60  1  0
 60 59  1  0
 61 62  1  0
 63 62  1  0
 64 75  2  0
 65 63  1  0
 65 70  1  0
 66 74  1  0
 66 76  1  0
 67 73  1  0
 67 69  1  0
 68 74  1  0
 69 70  2  0
 69 68  1  0
 71 65  2  0
 72 71  1  0
 72 67  2  0
 73 66  1  0
 74 64  1  0
 76 78  2  0
 77 76  1  0
 79 77  1  0
 80 89  2  0
 80 85  1  0
 81 77  1  0
 81 85  1  0
 82 81  1  0
 83 84  1  0
 83 82  1  0
 84 80  1  0
 85 86  2  0
 86 87  1  0
 88 87  2  0
 89 88  1  0
 90 64  1  0
 90 95  1  0
 90 91  1  0
 91 94  1  1
 91 92  1  0
 93 91  1  0
 95 98  1  0
 96100  1  0
 96 95  1  0
 97 96  2  0
100 99  1  0
102100  1  0
102103  1  0
102101  1  0
M  ISO  4  19 100  27 100  62 101  63 101
M  END
>  <TORSDO>  (45) 
F 25

>  <SCORE>  (45) 
-12.516

>  <name>  (45) 
44

>  <ligand_id>  (45) 
44

>  <original_smiles>  (45) 
[H]c1c([H])c([H])c2c(c1[H])C([H])([H])C([H])([H])C([H])([H])C2([H])N([H])C(=O)C1([H])N(C(=O)C([H])(N([H])C(=O)C([H])(N([H])C([H])([H])[H])C([H])([H])[H])C(C([H])([H])[H])(C([H])([H])[H])C([H])([H])[H])C([H])([H])c2c([H])c(OC([H])([H])C([H])([H])C([H])(C([H])([H])C([H])([H])C([H])([H])[H])C3([H])C([H])([H])C([H])([N+]([H])([H])C([H])([H])C([H])([H])N([H])C(=O)N4C([H])([H])C([H])([H])C([H])([H])C([H])(n5nc(-c6c([H])c([H])c(Oc7c([H])c([H])c(F)c([H])c7F)c([H])c6[H])c(C(=O)N([H])[H])c5N([H])[H])C4([H])[H])C([H])([H])C([H])([H])[N+]3([H])C3([H])C([H])([H])C([H])([H])C([H])([H])C3([H])C([H])([H])[H])c([H])c([H])c2C1([H])[H]

>  <smiles>  (45) 
[H]c1c([H])c([H])c2c(c1[H])C([H])([H])C([H])([H])C([H])([H])C2([H])N([H])C(=O)C1([H])N(C(=O)C([H])(N([H])C(=O)C([H])(N([H])C([H])([H])[H])C([H])([H])[H])C(C([H])([H])[H])(C([H])([H])[H])C([H])([H])[H])C([H])([H])c2c([H])c(OC([H])([H])C([H])([H])C([H])(C([H])([H])C([H])([H])C([H])([H])[H])C3([H])C([H])([H])C([H])([N+]([H])([H])C([H])([H])C([H])([H])N([H])C(=O)N4C([H])([H])C([H])([H])C([H])([H])C([H])(n5nc(-c6c([H])c([H])c(Oc7c([H])c([H])c(F)c([H])c7F)c([H])c6[H])c(C(=O)N([H])[H])c5N([H])[H])C4([H])[H])C([H])([H])C([H])([H])[N+]3([H])C3([H])C([H])([H])C([H])([H])C([H])([H])C3([H])C([H])([H])[H])c([H])c([H])c2C1([H])[H]

$$$$
45:0:0
     RDKit          3D

101111  0  0  1  0  0  0  0  0999 V2000
  -27.9750  -18.3730   19.4300 C   0  0  0  0  0  3  0  0  0  0  0  0
  -27.5330  -20.7190   19.7740 C   0  0  0  0  0  3  0  0  0  0  0  0
  -27.0770  -19.4520   19.3660 C   0  0  0  0  0  0  0  0  0  0  0  0
  -29.2770  -18.5840   19.9080 C   0  0  0  0  0  0  0  0  0  0  0  0
  -28.8560  -20.8570   20.2390 C   0  0  0  0  0  0  0  0  0  0  0  0
  -29.6980  -19.8030   20.3390 N   0  0  0  0  0  0  0  0  0  0  0  0
  -31.5390  -17.6400   19.1590 C   0  0  0  0  0  2  0  0  0  0  0  0
  -32.5380  -18.5940   19.8600 C   0  0  0  0  0  2  0  0  0  0  0  0
  -31.9210  -17.4420   21.9620 C   0  0  0  0  0  2  0  0  0  0  0  0
  -30.2510  -17.3950   19.9700 C   0  0  0  0  0  3  0  0  0  0  0  0
  -30.5590  -16.9050   21.4190 C   0  0  0  0  0  3  0  0  0  0  0  0
  -32.2890  -18.7200   21.3170 N   0  0  0  0  0  4  0  0  0  0  0  0
  -31.5260  -19.3740   21.4320 H   0  0  0  0  0  0  0  0  0  0  0  0
  -33.1070  -19.1140   21.7540 H   0  0  0  0  0  0  0  0  0  0  0  0
  -30.8900  -14.4590   20.8140 C   0  0  0  0  0  0  0  0  0  0  0  0
  -30.5940  -12.2410   19.7870 C   0  0  0  0  0  2  0  0  0  0  0  0
  -29.7290  -12.3830   18.5180 C   0  0  0  0  0  2  0  0  0  0  0  0
  -28.2370  -12.2550   18.8760 C   0  0  0  0  0  2  0  0  0  0  0  0
  -27.8300  -13.1780   20.0580 C   0  0  0  0  0  3  0  0  0  0  0  0
  -28.8250  -13.0580   21.2390 C   0  0  0  0  0  2  0  0  0  0  0  0
  -30.1930  -13.2930   20.7370 N   0  0  0  0  0  0  0  0  0  0  0  0
  -31.9320  -14.6450   20.1880 O   0  0  0  0  0  0  0  0  0  0  0  0
  -30.3480  -15.4400   21.5590 N   0  0  0  0  0  0  0  0  0  0  0  0
  -29.5650  -15.1580   22.1320 H   0  0  0  0  0  0  0  0  0  0  0  0
  -25.4100  -13.8110   20.6830 C   0  0  0  0  0  0  0  0  0  0  0  0
  -24.3180  -13.0530   21.0100 C   0  0  0  0  0  0  0  0  0  0  0  0
  -24.7580  -11.6940   20.9780 C   0  0  0  0  0  0  0  0  0  0  0  0
  -26.4520  -12.9180   20.4810 N   0  0  0  0  0  0  0  0  0  0  0  0
  -26.0580  -11.6380   20.7120 N   0  0  0  0  0  0  0  0  0  0  0  0
  -24.0030  -10.4430   21.1260 C   0  0  0  0  0  0  0  0  0  0  0  0
  -24.4380   -9.4170   21.9950 C   0  0  0  0  0  3  0  0  0  0  0  0
  -23.6870   -8.2310   22.1350 C   0  0  0  0  0  3  0  0  0  0  0  0
  -22.4850   -8.0620   21.4070 C   0  0  0  0  0  0  0  0  0  0  0  0
  -22.0690   -9.0740   20.5260 C   0  0  0  0  0  3  0  0  0  0  0  0
  -22.8190  -10.2530   20.3840 C   0  0  0  0  0  3  0  0  0  0  0  0
  -21.7040   -6.9330   21.4600 O   0  0  0  0  0  0  0  0  0  0  0  0
  -21.6360   -6.1550   22.5880 C   0  0  0  0  0  0  0  0  0  0  0  0
  -21.1460   -6.6600   23.8130 C   0  0  0  0  0  3  0  0  0  0  0  0
  -21.0320   -5.8070   24.9290 C   0  0  0  0  0  3  0  0  0  0  0  0
  -21.3940   -4.4520   24.8200 C   0  0  0  0  0  0  0  0  0  0  0  0
  -21.8720   -3.9450   23.6000 C   0  0  0  0  0  3  0  0  0  0  0  0
  -21.9900   -4.7940   22.4860 C   0  0  0  0  0  0  0  0  0  0  0  0
  -22.4360   -4.2970   21.3070 F   0  0  0  0  0  0  0  0  0  0  0  0
  -21.2730   -3.6310   25.8900 F   0  0  0  0  0  0  0  0  0  0  0  0
  -22.9210  -13.5510   21.2430 C   0  0  0  0  0  0  0  0  0  0  0  0
  -22.1560  -12.8670   22.0860 N   0  0  0  0  0  0  0  0  0  0  0  0
  -22.5160  -14.5850   20.7150 O   0  0  0  0  0  0  0  0  0  0  0  0
  -22.4960  -12.0300   22.5380 H   0  0  0  0  0  0  0  0  0  0  0  0
  -21.2160  -13.1830   22.2820 H   0  0  0  0  0  0  0  0  0  0  0  0
  -25.5980  -15.1770   20.5140 N   0  0  0  0  0  0  0  0  0  0  0  0
  -24.8160  -15.8210   20.5330 H   0  0  0  0  0  0  0  0  0  0  0  0
  -26.4310  -15.5740   20.0990 H   0  0  0  0  0  0  0  0  0  0  0  0
  -24.5590  -18.8820   19.7860 C   0  0  0  0  0  2  0  0  0  0  0  0
  -25.0770  -17.8540   18.8080 C   0  0  0  0  0  2  0  0  0  0  0  0
  -25.6870  -19.2380   18.8520 C   0  0  0  0  0  3  0  0  0  0  0  0
  -29.4280  -22.0830   20.6050 N   0  0  0  0  0  0  0  0  0  0  0  0
  -30.4260  -22.1830   20.4750 H   0  0  0  0  0  0  0  0  0  0  0  0
  -28.7000  -23.2640   21.0810 C   0  0  0  0  0  2  0  0  0  0  0  0
  -28.7220  -24.4230   20.0580 C   0  0  0  0  0  2  0  0  0  0  0  0
  -28.4220  -25.8090   20.6710 C   0  0  0  0  0  2  0  0  0  0  0  0
  -28.2180  -26.7570   19.6240 O   0  0  0  0  0  0  0  0  0  0  0  0
  -24.4840  -31.7200   23.1010 C   0  0  0  0  0  0  0  0  0  0  0  0
  -27.0570  -27.4780   19.7260 C   0  0  0  0  0  0  0  0  0  0  0  0
  -23.2390  -30.4430   21.3790 C   0  0  0  0  0  3  0  0  0  0  0  0
  -24.6640  -28.9640   19.8630 C   0  0  0  0  0  0  0  0  0  0  0  0
  -25.7640  -30.7890   21.1770 C   0  0  0  0  0  2  0  0  0  0  0  0
  -25.8310  -29.4560   20.4630 C   0  0  0  0  0  0  0  0  0  0  0  0
  -27.0320  -28.7190   20.3970 C   0  0  0  0  0  3  0  0  0  0  0  0
  -25.8790  -26.9880   19.1300 C   0  0  0  0  0  3  0  0  0  0  0  0
  -24.6800  -27.7230   19.2020 C   0  0  0  0  0  3  0  0  0  0  0  0
  -23.4300  -29.8320   19.9640 C   0  0  0  0  0  2  0  0  0  0  0  0
  -24.5150  -30.9940   21.9460 N   0  0  0  0  0  0  0  0  0  0  0  0
  -23.4130  -31.9720   23.6690 O   0  0  0  0  0  0  0  0  0  0  0  0
  -22.5800  -29.3780   22.2840 C   0  0  0  0  0  0  0  0  0  0  0  0
  -21.2430  -29.2620   22.1950 N   0  0  0  0  0  0  0  0  0  0  0  0
  -23.2630  -28.6580   23.0160 O   0  0  0  0  0  0  0  0  0  0  0  0
  -20.7520  -29.8940   21.5790 H   0  0  0  0  0  0  0  0  0  0  0  0
  -17.8390  -28.2060   22.7620 C   0  0  0  0  0  0  0  0  0  0  0  0
  -20.4170  -28.2980   22.9170 C   0  0  0  0  0  3  0  0  0  0  0  0
  -20.4070  -26.9260   22.2030 C   0  0  0  0  0  2  0  0  0  0  0  0
  -19.2390  -26.7640   21.2240 C   0  0  0  0  0  2  0  0  0  0  0  0
  -17.9030  -26.9210   21.9550 C   0  0  0  0  0  2  0  0  0  0  0  0
  -19.0190  -28.8610   23.2010 C   0  0  0  0  0  0  0  0  0  0  0  0
  -18.9060  -30.0740   23.9150 C   0  0  0  0  0  3  0  0  0  0  0  0
  -17.6430  -30.6270   24.1990 C   0  0  0  0  0  3  0  0  0  0  0  0
  -16.4760  -29.9640   23.7770 C   0  0  0  0  0  3  0  0  0  0  0  0
  -16.5760  -28.7570   23.0630 C   0  0  0  0  0  3  0  0  0  0  0  0
  -25.7870  -32.2870   23.7470 C   0  0  0  0  0  3  0  0  0  0  0  0
  -25.5290  -33.6870   24.1040 N   0  0  0  0  0  0  0  0  0  0  0  0
  -25.9400  -34.7410   23.3850 C   0  0  0  0  0  0  0  0  0  0  0  0
  -26.6420  -34.6320   22.3750 O   0  0  0  0  0  0  0  0  0  0  0  0
  -24.9180  -33.8530   24.8900 H   0  0  0  0  0  0  0  0  0  0  0  0
  -24.3440  -36.6400   22.9760 C   0  0  0  0  0  1  0  0  0  0  0  0
  -25.4990  -36.1390   23.8580 C   0  0  0  0  0  3  0  0  0  0  0  0
  -27.6030  -36.8830   24.8820 C   0  0  0  0  0  1  0  0  0  0  0  0
  -26.5950  -37.1330   23.8570 N   0  0  0  0  0  0  0  0  0  0  0  0
  -26.2280  -38.0720   23.9920 H   0  0  0  0  0  0  0  0  0  0  0  0
  -26.2660  -31.4660   25.0060 C   0  0  1  0  0  0  0  0  0  0  0  0
  -25.1650  -31.2720   26.0770 C   0  0  0  0  0  1  0  0  0  0  0  0
  -26.7690  -30.0650   24.5840 C   0  0  0  0  0  1  0  0  0  0  0  0
  -27.4620  -32.1820   25.6760 C   0  0  0  0  0  1  0  0  0  0  0  0
  1  4  1  0
  2  5  2  0
  3  1  2  0
  3  2  1  0
  4  6  2  0
  5  6  1  0
  5 56  1  0
  7  8  1  0
  7 10  1  0
  8 12  1  0
 10  4  1  0
 10 11  1  0
 11 23  1  0
 11  9  1  0
 12 13  1  0
 12 14  1  0
 12  9  1  0
 15 23  1  0
 16 21  1  0
 17 18  1  0
 17 16  1  0
 19 18  1  0
 19 28  1  0
 19 20  1  0
 21 15  1  0
 21 20  1  0
 22 15  2  0
 23 24  1  0
 25 26  2  0
 26 45  1  0
 27 26  1  0
 27 30  1  0
 28 25  1  0
 28 29  1  0
 29 27  2  0
 30 31  1  0
 31 32  2  0
 33 36  1  0
 33 32  1  0
 34 33  2  0
 35 34  1  0
 35 30  2  0
 36 37  1  0
 37 38  1  0
 38 39  2  0
 40 39  1  0
 40 44  1  0
 41 40  2  0
 42 37  2  0
 42 41  1  0
 43 42  1  0
 45 46  1  0
 46 49  1  0
 46 48  1  0
 47 45  2  0
 50 51  1  0
 50 25  1  0
 52 50  1  0
 54 55  1  0
 54 53  1  0
 55  3  1  0
 55 53  1  0
 56 58  1  0
 57 56  1  0
 59 60  1  0
 59 58  1  0
 61 63  1  0
 61 60  1  0
 62 73  2  0
 63 68  1  0
 64 72  1  0
 64 74  1  0
 65 71  1  0
 65 67  1  0
 66 72  1  0
 67 66  1  0
 68 67  2  0
 69 70  1  0
 69 63  2  0
 70 65  2  0
 71 64  1  0
 72 62  1  0
 74 76  2  0
 75 74  1  0
 77 75  1  0
 78 87  2  0
 78 83  1  0
 79 75  1  0
 79 83  1  0
 80 79  1  0
 81 82  1  0
 81 80  1  0
 82 78  1  0
 83 84  2  0
 84 85  1  0
 86 85  2  0
 87 86  1  0
 88 62  1  0
 88 89  1  0
 88 98  1  0
 89 92  1  0
 90 94  1  0
 90 89  1  0
 91 90  2  0
 94 93  1  0
 96 94  1  0
 96 97  1  0
 96 95  1  0
 98101  1  1
 98 99  1  0
100 98  1  0
M  ISO  4  15 100  23 100  60 101  61 101
M  END
>  <TORSDO>  (46) 
F 22

>  <SCORE>  (46) 
-9.257

>  <name>  (46) 
45

>  <ligand_id>  (46) 
45

>  <original_smiles>  (46) 
[H]c1c([H])c([H])c2c(c1[H])C([H])([H])C([H])([H])C([H])([H])C2([H])N([H])C(=O)C1([H])N(C(=O)C([H])(N([H])C(=O)C([H])(N([H])C([H])([H])[H])C([H])([H])[H])C(C([H])([H])[H])(C([H])([H])[H])C([H])([H])[H])C([H])([H])c2c([H])c(OC([H])([H])C([H])([H])C([H])([H])N([H])c3nc(C4([H])C([H])([H])C([H])([H])[N+]([H])([H])C([H])([H])C4([H])N([H])C(=O)N4C([H])([H])C([H])([H])C([H])([H])C([H])(n5nc(-c6c([H])c([H])c(Oc7c([H])c([H])c(F)c([H])c7F)c([H])c6[H])c(C(=O)N([H])[H])c5N([H])[H])C4([H])[H])c([H])c(C4([H])C([H])([H])C4([H])[H])c3[H])c([H])c([H])c2C1([H])[H]

>  <smiles>  (46) 
[H]c1c([H])c([H])c2c(c1[H])C([H])([H])C([H])([H])C([H])([H])C2([H])N([H])C(=O)C1([H])N(C(=O)C([H])(N([H])C(=O)C([H])(N([H])C([H])([H])[H])C([H])([H])[H])C(C([H])([H])[H])(C([H])([H])[H])C([H])([H])[H])C([H])([H])c2c([H])c(OC([H])([H])C([H])([H])C([H])([H])N([H])c3nc(C4([H])C([H])([H])C([H])([H])[N+]([H])([H])C([H])([H])C4([H])N([H])C(=O)N4C([H])([H])C([H])([H])C([H])([H])C([H])(n5nc(-c6c([H])c([H])c(Oc7c([H])c([H])c(F)c([H])c7F)c([H])c6[H])c(C(=O)N([H])[H])c5N([H])[H])C4([H])[H])c([H])c(C4([H])C([H])([H])C4([H])[H])c3[H])c([H])c([H])c2C1([H])[H]

$$$$
46:0:0
     RDKit          3D

 92101  0  0  1  0  0  0  0  0999 V2000
  -30.7230  -18.5590   21.1180 C   0  0  0  0  0  3  0  0  0  0  0  0
  -30.6170  -20.0010   21.2760 C   0  0  0  0  0  3  0  0  0  0  0  0
  -28.5400  -20.0160   20.1880 C   0  0  0  0  0  3  0  0  0  0  0  0
  -28.5830  -18.5580   20.0980 C   0  0  0  0  0  0  0  0  0  0  0  0
  -29.7030  -17.7330   20.5460 C   0  0  0  0  0  0  0  0  0  0  0  0
  -29.5230  -20.8240   20.8300 C   0  0  0  0  0  0  0  0  0  0  0  0
  -30.5770  -15.0850   20.4930 C   0  0  0  0  0  0  0  0  0  0  0  0
  -30.5360  -12.7560   19.4800 C   0  0  0  0  0  2  0  0  0  0  0  0
  -29.6050  -12.7340   18.2420 C   0  0  0  0  0  2  0  0  0  0  0  0
  -28.1380  -12.5030   18.6570 C   0  0  0  0  0  2  0  0  0  0  0  0
  -27.7160  -13.3970   19.8530 C   0  0  0  0  0  3  0  0  0  0  0  0
  -28.7620  -13.3540   20.9880 C   0  0  0  0  0  2  0  0  0  0  0  0
  -30.0330  -13.8060   20.4080 N   0  0  0  0  0  0  0  0  0  0  0  0
  -31.7890  -15.2030   20.2720 O   0  0  0  0  0  0  0  0  0  0  0  0
  -29.6850  -16.1920   20.5720 N   0  0  0  0  0  0  0  0  0  0  0  0
  -28.7440  -15.8370   20.5990 H   0  0  0  0  0  0  0  0  0  0  0  0
  -25.3140  -13.9500   20.5450 C   0  0  0  0  0  0  0  0  0  0  0  0
  -24.2450  -13.1700   20.8760 C   0  0  0  0  0  0  0  0  0  0  0  0
  -24.7250  -11.8290   20.8610 C   0  0  0  0  0  0  0  0  0  0  0  0
  -26.3720  -13.0870   20.3240 N   0  0  0  0  0  0  0  0  0  0  0  0
  -26.0250  -11.8020   20.5860 N   0  0  0  0  0  0  0  0  0  0  0  0
  -24.0070  -10.5650   21.0400 C   0  0  0  0  0  0  0  0  0  0  0  0
  -24.4280   -9.6120   21.9920 C   0  0  0  0  0  3  0  0  0  0  0  0
  -23.7100   -8.4100   22.1620 C   0  0  0  0  0  3  0  0  0  0  0  0
  -22.5600   -8.1540   21.3770 C   0  0  0  0  0  0  0  0  0  0  0  0
  -22.1590   -9.0980   20.4150 C   0  0  0  0  0  3  0  0  0  0  0  0
  -22.8770  -10.2920   20.2440 C   0  0  0  0  0  3  0  0  0  0  0  0
  -21.8140   -7.0040   21.4550 O   0  0  0  0  0  0  0  0  0  0  0  0
  -21.7540   -6.2620   22.6060 C   0  0  0  0  0  0  0  0  0  0  0  0
  -21.3050   -6.8170   23.8240 C   0  0  0  0  0  3  0  0  0  0  0  0
  -21.1940   -6.0030   24.9690 C   0  0  0  0  0  3  0  0  0  0  0  0
  -21.5210   -4.6350   24.8960 C   0  0  0  0  0  0  0  0  0  0  0  0
  -21.9600   -4.0790   23.6810 C   0  0  0  0  0  3  0  0  0  0  0  0
  -22.0730   -4.8910   22.5390 C   0  0  0  0  0  0  0  0  0  0  0  0
  -22.4800   -4.3490   21.3660 F   0  0  0  0  0  0  0  0  0  0  0  0
  -21.4040   -3.8480   25.9910 F   0  0  0  0  0  0  0  0  0  0  0  0
  -22.8360  -13.6390   21.1010 C   0  0  0  0  0  0  0  0  0  0  0  0
  -22.0910  -12.9500   21.9550 N   0  0  0  0  0  0  0  0  0  0  0  0
  -22.4060  -14.6530   20.5520 O   0  0  0  0  0  0  0  0  0  0  0  0
  -22.4470  -12.1280   22.4190 H   0  0  0  0  0  0  0  0  0  0  0  0
  -21.1440  -13.2510   22.1490 H   0  0  0  0  0  0  0  0  0  0  0  0
  -25.4670  -15.3140   20.4090 N   0  0  0  0  0  0  0  0  0  0  0  0
  -24.6910  -15.9530   20.5440 H   0  0  0  0  0  0  0  0  0  0  0  0
  -26.3390  -15.7810   20.2150 H   0  0  0  0  0  0  0  0  0  0  0  0
  -25.2710  -17.9290   18.9150 C   0  0  0  0  0  2  0  0  0  0  0  0
  -25.9410  -18.2810   20.2480 C   0  0  0  0  0  2  0  0  0  0  0  0
  -26.6150  -18.2820   18.2570 C   0  0  0  0  0  2  0  0  0  0  0  0
  -27.2920  -17.9110   19.5920 C   0  0  0  0  0  3  0  0  0  0  0  0
  -29.4360  -22.2420   21.1890 O   0  0  0  0  0  0  0  0  0  0  0  0
  -28.9300  -23.4730   20.4200 C   0  0  0  0  0  2  0  0  0  0  0  0
  -28.3680  -24.8780   21.1630 C   0  0  0  0  0  2  0  0  0  0  0  0
  -28.5810  -26.3700   20.7860 O   0  0  0  0  0  0  0  0  0  0  0  0
  -24.6790  -32.0410   23.4110 C   0  0  0  0  0  0  0  0  0  0  0  0
  -27.4880  -27.2960   20.6950 C   0  0  0  0  0  0  0  0  0  0  0  0
  -23.5790  -30.5560   21.7790 C   0  0  0  0  0  3  0  0  0  0  0  0
  -25.1190  -28.9580   20.4820 C   0  0  0  0  0  0  0  0  0  0  0  0
  -26.1290  -30.8810   21.7060 C   0  0  0  0  0  2  0  0  0  0  0  0
  -26.2600  -29.4680   21.1160 C   0  0  0  0  0  0  0  0  0  0  0  0
  -27.4490  -28.6570   21.1960 C   0  0  0  0  0  3  0  0  0  0  0  0
  -26.3220  -26.8750   20.0250 C   0  0  0  0  0  3  0  0  0  0  0  0
  -25.1620  -27.6750   19.9140 C   0  0  0  0  0  3  0  0  0  0  0  0
  -23.8760  -29.8330   20.4380 C   0  0  0  0  0  2  0  0  0  0  0  0
  -24.8120  -31.1830   22.3530 N   0  0  0  0  0  0  0  0  0  0  0  0
  -23.5670  -32.3200   23.8810 O   0  0  0  0  0  0  0  0  0  0  0  0
  -22.8840  -29.5680   22.7480 C   0  0  0  0  0  0  0  0  0  0  0  0
  -21.5680  -29.3570   22.5690 N   0  0  0  0  0  0  0  0  0  0  0  0
  -23.5310  -28.9910   23.6250 O   0  0  0  0  0  0  0  0  0  0  0  0
  -21.1000  -29.8850   21.8470 H   0  0  0  0  0  0  0  0  0  0  0  0
  -18.1940  -28.0940   22.9500 C   0  0  0  0  0  0  0  0  0  0  0  0
  -20.7290  -28.4310   23.3370 C   0  0  0  0  0  3  0  0  0  0  0  0
  -20.8900  -26.9790   22.8330 C   0  0  0  0  0  2  0  0  0  0  0  0
  -19.8500  -26.5870   21.7770 C   0  0  0  0  0  2  0  0  0  0  0  0
  -18.4360  -26.7220   22.3440 C   0  0  0  0  0  2  0  0  0  0  0  0
  -19.2710  -28.9040   23.4000 C   0  0  0  0  0  0  0  0  0  0  0  0
  -18.9890  -30.1860   23.9200 C   0  0  0  0  0  3  0  0  0  0  0  0
  -17.6640  -30.6560   24.0020 C   0  0  0  0  0  3  0  0  0  0  0  0
  -16.6020  -29.8440   23.5680 C   0  0  0  0  0  3  0  0  0  0  0  0
  -16.8690  -28.5660   23.0470 C   0  0  0  0  0  3  0  0  0  0  0  0
  -25.9160  -32.7260   24.0660 C   0  0  0  0  0  3  0  0  0  0  0  0
  -26.3710  -32.0280   25.4070 C   0  0  1  0  0  0  0  0  0  0  0  0
  -25.2220  -31.8230   26.4230 C   0  0  0  0  0  1  0  0  0  0  0  0
  -27.0040  -30.6470   25.1200 C   0  0  0  0  0  1  0  0  0  0  0  0
  -27.4650  -32.8790   26.0910 C   0  0  0  0  0  1  0  0  0  0  0  0
  -25.5720  -34.1320   24.3160 N   0  0  0  0  0  0  0  0  0  0  0  0
  -25.9210  -35.1570   23.5240 C   0  0  0  0  0  0  0  0  0  0  0  0
  -26.6350  -35.0150   22.5300 O   0  0  0  0  0  0  0  0  0  0  0  0
  -24.9490  -34.3130   25.0890 H   0  0  0  0  0  0  0  0  0  0  0  0
  -24.1780  -36.8960   23.0180 C   0  0  0  0  0  1  0  0  0  0  0  0
  -25.3930  -36.5560   23.8960 C   0  0  0  0  0  3  0  0  0  0  0  0
  -27.4830  -37.5160   24.7570 C   0  0  0  0  0  1  0  0  0  0  0  0
  -26.4110  -37.6230   23.7710 N   0  0  0  0  0  0  0  0  0  0  0  0
  -25.9840  -38.5420   23.8630 H   0  0  0  0  0  0  0  0  0  0  0  0
  1  2  1  0
  3  6  1  0
  4  3  2  0
  4  5  1  0
  5 15  1  0
  5  1  2  0
  6 49  1  0
  6  2  2  0
  7 15  1  0
  8 13  1  0
  9 10  1  0
  9  8  1  0
 11 10  1  0
 11 20  1  0
 11 12  1  0
 13  7  1  0
 13 12  1  0
 14  7  2  0
 15 16  1  0
 17 18  2  0
 18 37  1  0
 19 18  1  0
 19 22  1  0
 20 17  1  0
 20 21  1  0
 21 19  2  0
 22 23  1  0
 23 24  2  0
 25 28  1  0
 25 24  1  0
 26 25  2  0
 27 26  1  0
 27 22  2  0
 28 29  1  0
 29 30  1  0
 30 31  2  0
 32 31  1  0
 32 36  1  0
 33 32  2  0
 34 29  2  0
 34 33  1  0
 35 34  1  0
 37 38  1  0
 38 41  1  0
 38 40  1  0
 39 37  2  0
 42 43  1  0
 42 17  1  0
 44 42  1  0
 45 46  1  0
 47 45  1  0
 47 48  1  0
 48  4  1  0
 48 46  1  0
 50 51  1  0
 50 49  1  0
 52 51  1  0
 53 64  2  0
 54 52  1  0
 54 59  1  0
 55 63  1  0
 55 65  1  0
 56 58  1  0
 57 63  1  0
 58 59  2  0
 58 57  1  0
 60 54  2  0
 61 60  1  0
 61 56  2  0
 62 56  1  0
 62 55  1  0
 63 53  1  0
 65 67  2  0
 66 65  1  0
 68 66  1  0
 69 78  2  0
 69 74  1  0
 70 66  1  0
 70 74  1  0
 71 70  1  0
 72 73  1  0
 72 71  1  0
 73 69  1  0
 74 75  2  0
 75 76  1  0
 77 76  2  0
 78 77  1  0
 79 53  1  0
 79 84  1  0
 79 80  1  0
 80 83  1  1
 80 81  1  0
 82 80  1  0
 84 87  1  0
 85 89  1  0
 85 84  1  0
 86 85  2  0
 89 88  1  0
 91 92  1  0
 91 89  1  0
 91 90  1  0
M  ISO  4   7 100  15 100  51 101  52 101
M  END
>  <TORSDO>  (47) 
F 20

>  <SCORE>  (47) 
-11.840

>  <name>  (47) 
46

>  <ligand_id>  (47) 
46

>  <original_smiles>  (47) 
[H]c1c([H])c([H])c2c(c1[H])C([H])([H])C([H])([H])C([H])([H])C2([H])N([H])C(=O)C1([H])N(C(=O)C([H])(N([H])C(=O)C([H])(N([H])C([H])([H])[H])C([H])([H])[H])C(C([H])([H])[H])(C([H])([H])[H])C([H])([H])[H])C([H])([H])c2c([H])c(OC([H])([H])C([H])([H])Oc3c([H])c([H])c(N([H])C(=O)N4C([H])([H])C([H])([H])C([H])([H])C([H])(n5nc(-c6c([H])c([H])c(Oc7c([H])c([H])c(F)c([H])c7F)c([H])c6[H])c(C(=O)N([H])[H])c5N([H])[H])C4([H])[H])c(C4([H])C([H])([H])C([H])([H])C4([H])[H])c3[H])c([H])c([H])c2C1([H])[H]

>  <smiles>  (47) 
[H]c1c([H])c([H])c2c(c1[H])C([H])([H])C([H])([H])C([H])([H])C2([H])N([H])C(=O)C1([H])N(C(=O)C([H])(N([H])C(=O)C([H])(N([H])C([H])([H])[H])C([H])([H])[H])C(C([H])([H])[H])(C([H])([H])[H])C([H])([H])[H])C([H])([H])c2c([H])c(OC([H])([H])C([H])([H])Oc3c([H])c([H])c(N([H])C(=O)N4C([H])([H])C([H])([H])C([H])([H])C([H])(n5nc(-c6c([H])c([H])c(Oc7c([H])c([H])c(F)c([H])c7F)c([H])c6[H])c(C(=O)N([H])[H])c5N([H])[H])C4([H])[H])c(C4([H])C([H])([H])C([H])([H])C4([H])[H])c3[H])c([H])c([H])c2C1([H])[H]

$$$$
47:0:0
     RDKit          3D

 97106  0  0  1  0  0  0  0  0999 V2000
  -30.7770  -23.0870   20.1910 C   0  0  0  0  0  2  0  0  0  0  0  0
  -31.4450  -22.8530   18.8290 C   0  0  0  0  0  2  0  0  0  0  0  0
  -29.3280  -22.6190   19.9870 C   0  0  0  0  0  3  0  0  0  0  0  0
  -29.5340  -21.4100   19.0200 C   0  0  0  0  0  3  0  0  0  0  0  0
  -30.5980  -21.8800   18.1110 N   0  0  0  0  0  4  0  0  0  0  0  0
  -31.1440  -21.1120   17.7580 H   0  0  0  0  0  0  0  0  0  0  0  0
  -30.1770  -22.3520   17.3260 H   0  0  0  0  0  0  0  0  0  0  0  0
  -28.4420  -23.7730   19.3940 C   0  0  0  0  0  2  0  0  0  0  0  0
  -28.2430  -25.0110   20.3160 C   0  0  0  0  0  2  0  0  0  0  0  0
  -28.2520  -26.2760   19.6280 O   0  0  0  0  0  0  0  0  0  0  0  0
  -24.6500  -31.4480   22.9730 C   0  0  0  0  0  0  0  0  0  0  0  0
  -27.1030  -27.0320   19.7050 C   0  0  0  0  0  0  0  0  0  0  0  0
  -23.3690  -30.1300   21.3180 C   0  0  0  0  0  3  0  0  0  0  0  0
  -24.7490  -28.5970   19.8130 C   0  0  0  0  0  0  0  0  0  0  0  0
  -25.8970  -30.4320   21.0670 C   0  0  0  0  0  2  0  0  0  0  0  0
  -25.9340  -29.0780   20.3850 C   0  0  0  0  0  0  0  0  0  0  0  0
  -27.1160  -28.3060   20.3210 C   0  0  0  0  0  3  0  0  0  0  0  0
  -25.9030  -26.5630   19.1310 C   0  0  0  0  0  3  0  0  0  0  0  0
  -24.7290  -27.3400   19.1820 C   0  0  0  0  0  3  0  0  0  0  0  0
  -23.5280  -29.4860   19.9130 C   0  0  0  0  0  2  0  0  0  0  0  0
  -24.6590  -30.6830   21.8450 N   0  0  0  0  0  0  0  0  0  0  0  0
  -23.5900  -31.7290   23.5500 O   0  0  0  0  0  0  0  0  0  0  0  0
  -22.7150  -29.0960   22.2620 C   0  0  0  0  0  0  0  0  0  0  0  0
  -21.3790  -28.9740   22.1840 N   0  0  0  0  0  0  0  0  0  0  0  0
  -23.4030  -28.4080   23.0200 O   0  0  0  0  0  0  0  0  0  0  0  0
  -20.8860  -29.5810   21.5440 H   0  0  0  0  0  0  0  0  0  0  0  0
  -17.9770  -27.9220   22.7950 C   0  0  0  0  0  0  0  0  0  0  0  0
  -20.5550  -28.0380   22.9480 C   0  0  0  0  0  3  0  0  0  0  0  0
  -20.5550  -26.6370   22.2940 C   0  0  0  0  0  2  0  0  0  0  0  0
  -19.3890  -26.4240   21.3230 C   0  0  0  0  0  2  0  0  0  0  0  0
  -18.0500  -26.6020   22.0450 C   0  0  0  0  0  2  0  0  0  0  0  0
  -19.1540  -28.6030   23.2050 C   0  0  0  0  0  0  0  0  0  0  0  0
  -19.0310  -29.8440   23.8680 C   0  0  0  0  0  3  0  0  0  0  0  0
  -17.7630  -30.4000   24.1250 C   0  0  0  0  0  3  0  0  0  0  0  0
  -16.6020  -29.7130   23.7320 C   0  0  0  0  0  3  0  0  0  0  0  0
  -16.7100  -28.4760   23.0740 C   0  0  0  0  0  3  0  0  0  0  0  0
  -25.9660  -32.0250   23.5810 C   0  0  0  0  0  3  0  0  0  0  0  0
  -25.6890  -33.4030   24.0090 N   0  0  0  0  0  0  0  0  0  0  0  0
  -26.0340  -34.4980   23.3170 C   0  0  0  0  0  0  0  0  0  0  0  0
  -26.6890  -34.4510   22.2720 O   0  0  0  0  0  0  0  0  0  0  0  0
  -25.1110  -33.5150   24.8280 H   0  0  0  0  0  0  0  0  0  0  0  0
  -24.3430  -36.3440   23.0930 C   0  0  0  0  0  1  0  0  0  0  0  0
  -25.5780  -35.8610   23.8710 C   0  0  0  0  0  3  0  0  0  0  0  0
  -27.7310  -36.6420   24.7520 C   0  0  0  0  0  1  0  0  0  0  0  0
  -26.6310  -36.8970   23.8250 N   0  0  0  0  0  0  0  0  0  0  0  0
  -26.2450  -37.8140   24.0350 H   0  0  0  0  0  0  0  0  0  0  0  0
  -26.5250  -31.1700   24.7850 C   0  0  1  0  0  0  0  0  0  0  0  0
  -25.4740  -30.8800   25.8810 C   0  0  0  0  0  1  0  0  0  0  0  0
  -27.0690  -29.8120   24.2810 C   0  0  0  0  0  1  0  0  0  0  0  0
  -27.7150  -31.9060   25.4440 C   0  0  0  0  0  1  0  0  0  0  0  0
  -29.9810  -20.0530   19.6950 C   0  0  0  0  0  2  0  0  0  0  0  0
  -31.6540  -18.1230   17.8550 C   0  0  0  0  0  2  0  0  0  0  0  0
  -31.6530  -16.7580   18.5530 C   0  0  0  0  0  2  0  0  0  0  0  0
  -30.2120  -18.6200   17.6720 C   0  0  0  0  0  2  0  0  0  0  0  0
  -30.9390  -16.7920   19.9290 C   0  0  0  0  0  3  0  0  0  0  0  0
  -29.5800  -17.5540   19.7350 C   0  0  0  0  0  3  0  0  0  0  0  0
  -29.5770  -18.8150   18.9800 N   0  0  0  0  0  0  0  0  0  0  0  0
  -31.4100  -14.3060   20.0920 C   0  0  0  0  0  0  0  0  0  0  0  0
  -30.9510  -12.1890   18.9250 C   0  0  0  0  0  2  0  0  0  0  0  0
  -30.0100  -12.5100   17.7430 C   0  0  0  0  0  2  0  0  0  0  0  0
  -28.5350  -12.4860   18.1920 C   0  0  0  0  0  2  0  0  0  0  0  0
  -28.2890  -13.3040   19.4870 C   0  0  0  0  0  3  0  0  0  0  0  0
  -29.3380  -12.9590   20.5700 C   0  0  0  0  0  2  0  0  0  0  0  0
  -30.6740  -13.1670   19.9880 N   0  0  0  0  0  0  0  0  0  0  0  0
  -32.5690  -14.3940   19.6780 O   0  0  0  0  0  0  0  0  0  0  0  0
  -30.6930  -15.4090   20.3980 N   0  0  0  0  0  0  0  0  0  0  0  0
  -29.7790  -15.2370   20.7850 H   0  0  0  0  0  0  0  0  0  0  0  0
  -25.9490  -14.0900   20.2130 C   0  0  0  0  0  0  0  0  0  0  0  0
  -24.8340  -13.4010   20.6100 C   0  0  0  0  0  0  0  0  0  0  0  0
  -25.1990  -12.0200   20.5930 C   0  0  0  0  0  0  0  0  0  0  0  0
  -26.9250  -13.1320   19.9830 N   0  0  0  0  0  0  0  0  0  0  0  0
  -26.4780  -11.8830   20.2690 N   0  0  0  0  0  0  0  0  0  0  0  0
  -24.3870  -10.8150   20.8080 C   0  0  0  0  0  0  0  0  0  0  0  0
  -24.7380   -9.8550   21.7830 C   0  0  0  0  0  3  0  0  0  0  0  0
  -23.9320   -8.7130   21.9840 C   0  0  0  0  0  3  0  0  0  0  0  0
  -22.7630   -8.5240   21.2100 C   0  0  0  0  0  0  0  0  0  0  0  0
  -22.4310   -9.4710   20.2260 C   0  0  0  0  0  3  0  0  0  0  0  0
  -23.2360  -10.6050   20.0230 C   0  0  0  0  0  3  0  0  0  0  0  0
  -21.9340   -7.4320   21.3190 O   0  0  0  0  0  0  0  0  0  0  0  0
  -21.7820   -6.7590   22.5060 C   0  0  0  0  0  0  0  0  0  0  0  0
  -21.3510   -7.4110   23.6820 C   0  0  0  0  0  3  0  0  0  0  0  0
  -21.1420   -6.6680   24.8600 C   0  0  0  0  0  3  0  0  0  0  0  0
  -21.3530   -5.2760   24.8640 C   0  0  0  0  0  0  0  0  0  0  0  0
  -21.7770   -4.6260   23.6910 C   0  0  0  0  0  3  0  0  0  0  0  0
  -21.9880   -5.3650   22.5150 C   0  0  0  0  0  0  0  0  0  0  0  0
  -22.3750   -4.7310   21.3830 F   0  0  0  0  0  0  0  0  0  0  0  0
  -21.1440   -4.5610   25.9940 F   0  0  0  0  0  0  0  0  0  0  0  0
  -23.4780  -13.9800   20.8900 C   0  0  0  0  0  0  0  0  0  0  0  0
  -22.7190  -13.3590   21.7840 N   0  0  0  0  0  0  0  0  0  0  0  0
  -23.1010  -15.0190   20.3470 O   0  0  0  0  0  0  0  0  0  0  0  0
  -23.0340  -12.5180   22.2450 H   0  0  0  0  0  0  0  0  0  0  0  0
  -21.8070  -13.7290   22.0140 H   0  0  0  0  0  0  0  0  0  0  0  0
  -26.2080  -15.4410   20.0050 N   0  0  0  0  0  0  0  0  0  0  0  0
  -25.4690  -16.1340   20.0620 H   0  0  0  0  0  0  0  0  0  0  0  0
  -27.0360  -15.7810   19.5380 H   0  0  0  0  0  0  0  0  0  0  0  0
  -27.5560  -17.7740   20.9490 C   0  0  0  0  0  1  0  0  0  0  0  0
  -28.9760  -17.6800   20.9840 O   0  0  0  0  0  0  0  0  0  0  0  0
  2  1  1  0
  3  8  1  0
  3  1  1  0
  4 51  1  0
  4  3  1  0
  5  2  1  0
  5  4  1  0
  6  5  1  0
  7  5  1  0
  8  9  1  0
 10 12  1  0
 10  9  1  0
 11 22  2  0
 12 17  1  0
 13 21  1  0
 13 23  1  0
 14 20  1  0
 14 16  1  0
 15 21  1  0
 16 15  1  0
 17 16  2  0
 18 19  1  0
 18 12  2  0
 19 14  2  0
 20 13  1  0
 21 11  1  0
 23 25  2  0
 24 23  1  0
 26 24  1  0
 27 36  2  0
 27 32  1  0
 28 24  1  0
 28 32  1  0
 29 28  1  0
 30 31  1  0
 30 29  1  0
 31 27  1  0
 32 33  2  0
 33 34  1  0
 35 34  2  0
 36 35  1  0
 37 11  1  0
 37 38  1  0
 37 47  1  0
 38 41  1  0
 39 43  1  0
 39 38  1  0
 40 39  2  0
 43 42  1  0
 45 43  1  0
 45 46  1  0
 45 44  1  0
 47 50  1  1
 47 48  1  0
 49 47  1  0
 52 53  1  0
 53 55  1  0
 54 52  1  0
 54 57  1  0
 55 66  1  0
 56 55  1  0
 56 97  1  0
 57 51  1  0
 57 56  1  0
 58 66  1  0
 59 64  1  0
 60 61  1  0
 60 59  1  0
 62 61  1  0
 62 71  1  0
 62 63  1  0
 64 58  1  0
 64 63  1  0
 65 58  2  0
 66 67  1  0
 68 69  2  0
 69 88  1  0
 70 69  1  0
 70 73  1  0
 71 68  1  0
 71 72  1  0
 72 70  2  0
 73 74  1  0
 74 75  2  0
 76 79  1  0
 76 75  1  0
 77 76  2  0
 78 77  1  0
 78 73  2  0
 79 80  1  0
 80 85  2  0
 80 81  1  0
 81 82  2  0
 82 83  1  0
 83 87  1  0
 84 83  2  0
 85 84  1  0
 86 85  1  0
 88 89  1  0
 89 92  1  0
 89 91  1  0
 90 88  2  0
 93 94  1  0
 93 68  1  0
 95 93  1  0
 96 97  1  0
M  ISO  4   9 101  10 101  58 100  66 100
M  END
>  <TORSDO>  (48) 
F 21

>  <SCORE>  (48) 
-11.710

>  <name>  (48) 
47

>  <ligand_id>  (48) 
47

>  <original_smiles>  (48) 
[H]c1c([H])c([H])c2c(c1[H])C([H])([H])C([H])([H])C([H])([H])C2([H])N([H])C(=O)C1([H])N(C(=O)C([H])(N([H])C(=O)C([H])(N([H])C([H])([H])[H])C([H])([H])[H])C(C([H])([H])[H])(C([H])([H])[H])C([H])([H])[H])C([H])([H])c2c([H])c(OC([H])([H])C([H])([H])C3([H])C([H])([H])C([H])([H])[N+]([H])([H])C3([H])C([H])([H])N3C([H])([H])C([H])([H])C([H])([H])C([H])(N([H])C(=O)N4C([H])([H])C([H])([H])C([H])([H])C([H])(n5nc(-c6c([H])c([H])c(Oc7c([H])c([H])c(F)c([H])c7F)c([H])c6[H])c(C(=O)N([H])[H])c5N([H])[H])C4([H])[H])C3([H])OC([H])([H])[H])c([H])c([H])c2C1([H])[H]

>  <smiles>  (48) 
[H]c1c([H])c([H])c2c(c1[H])C([H])([H])C([H])([H])C([H])([H])C2([H])N([H])C(=O)C1([H])N(C(=O)C([H])(N([H])C(=O)C([H])(N([H])C([H])([H])[H])C([H])([H])[H])C(C([H])([H])[H])(C([H])([H])[H])C([H])([H])[H])C([H])([H])c2c([H])c(OC([H])([H])C([H])([H])C3([H])C([H])([H])C([H])([H])[N+]([H])([H])C3([H])C([H])([H])N3C([H])([H])C([H])([H])C([H])([H])C([H])(N([H])C(=O)N4C([H])([H])C([H])([H])C([H])([H])C([H])(n5nc(-c6c([H])c([H])c(Oc7c([H])c([H])c(F)c([H])c7F)c([H])c6[H])c(C(=O)N([H])[H])c5N([H])[H])C4([H])[H])C3([H])OC([H])([H])[H])c([H])c([H])c2C1([H])[H]

$$$$
48:0:0
     RDKit          3D

 99108  0  0  1  0  0  0  0  0999 V2000
  -30.7940  -14.6420   20.7990 C   0  0  0  0  0  0  0  0  0  0  0  0
  -30.5880  -12.4740   19.5150 C   0  0  0  0  0  2  0  0  0  0  0  0
  -29.7180  -12.7210   18.2620 C   0  0  0  0  0  2  0  0  0  0  0  0
  -28.2200  -12.5600   18.5960 C   0  0  0  0  0  2  0  0  0  0  0  0
  -27.8230  -13.3110   19.8930 C   0  0  0  0  0  3  0  0  0  0  0  0
  -28.8180  -13.0340   21.0430 C   0  0  0  0  0  2  0  0  0  0  0  0
  -30.1530  -13.4290   20.5690 N   0  0  0  0  0  0  0  0  0  0  0  0
  -32.0140  -14.7050   20.5690 O   0  0  0  0  0  0  0  0  0  0  0  0
  -29.0600  -18.1030   20.4910 C   0  0  0  0  0  3  0  0  0  0  0  0
  -29.9950  -20.3240   21.2720 C   0  0  0  0  0  0  0  0  0  0  0  0
  -29.0280  -19.5490   20.5510 C   0  0  0  0  0  0  0  0  0  0  0  0
  -30.9960  -19.4680   21.8690 C   0  0  0  0  0  3  0  0  0  0  0  0
  -30.0790  -17.2880   21.0880 C   0  0  0  0  0  0  0  0  0  0  0  0
  -32.1620  -20.0560   22.6380 C   0  0  0  0  0  1  0  0  0  0  0  0
  -31.0000  -18.0740   21.7510 N   0  0  0  0  0  0  0  0  0  0  0  0
  -29.9850  -15.7650   21.0740 N   0  0  0  0  0  0  0  0  0  0  0  0
  -31.7660  -17.5800   22.2240 H   0  0  0  0  0  0  0  0  0  0  0  0
  -29.0340  -15.4570   21.1520 H   0  0  0  0  0  0  0  0  0  0  0  0
  -25.4020  -13.9620   20.4210 C   0  0  0  0  0  0  0  0  0  0  0  0
  -24.2990  -13.2170   20.7320 C   0  0  0  0  0  0  0  0  0  0  0  0
  -24.7390  -11.8580   20.7690 C   0  0  0  0  0  0  0  0  0  0  0  0
  -26.4430  -13.0580   20.2870 N   0  0  0  0  0  0  0  0  0  0  0  0
  -26.0480  -11.7900   20.5610 N   0  0  0  0  0  0  0  0  0  0  0  0
  -23.9770  -10.6130   20.9330 C   0  0  0  0  0  0  0  0  0  0  0  0
  -24.3150   -9.6710   21.9310 C   0  0  0  0  0  3  0  0  0  0  0  0
  -23.5590   -8.4890   22.0840 C   0  0  0  0  0  3  0  0  0  0  0  0
  -22.4520   -8.2410   21.2380 C   0  0  0  0  0  0  0  0  0  0  0  0
  -22.1310   -9.1720   20.2330 C   0  0  0  0  0  3  0  0  0  0  0  0
  -22.8860  -10.3460   20.0800 C   0  0  0  0  0  3  0  0  0  0  0  0
  -21.6770   -7.1090   21.2940 O   0  0  0  0  0  0  0  0  0  0  0  0
  -21.5320   -6.3910   22.4550 C   0  0  0  0  0  0  0  0  0  0  0  0
  -21.0370   -6.9810   23.6370 C   0  0  0  0  0  3  0  0  0  0  0  0
  -20.8400   -6.1920   24.7880 C   0  0  0  0  0  3  0  0  0  0  0  0
  -21.1270   -4.8140   24.7550 C   0  0  0  0  0  0  0  0  0  0  0  0
  -21.6140   -4.2230   23.5750 C   0  0  0  0  0  3  0  0  0  0  0  0
  -21.8130   -5.0100   22.4270 C   0  0  0  0  0  0  0  0  0  0  0  0
  -22.2640   -4.4340   21.2870 F   0  0  0  0  0  0  0  0  0  0  0  0
  -20.9290   -4.0540   25.8570 F   0  0  0  0  0  0  0  0  0  0  0  0
  -22.8930  -13.7210   20.8720 C   0  0  0  0  0  0  0  0  0  0  0  0
  -22.0880  -13.0700   21.7050 N   0  0  0  0  0  0  0  0  0  0  0  0
  -22.5140  -14.7280   20.2740 O   0  0  0  0  0  0  0  0  0  0  0  0
  -22.4110  -12.2620   22.2170 H   0  0  0  0  0  0  0  0  0  0  0  0
  -21.1360  -13.3840   21.8270 H   0  0  0  0  0  0  0  0  0  0  0  0
  -25.6050  -15.3230   20.2100 N   0  0  0  0  0  0  0  0  0  0  0  0
  -24.8140  -15.9570   20.2020 H   0  0  0  0  0  0  0  0  0  0  0  0
  -26.3930  -15.6810   19.6920 H   0  0  0  0  0  0  0  0  0  0  0  0
  -28.0620  -20.2380   19.8010 N   0  0  0  0  0  0  0  0  0  0  0  0
  -27.9990  -21.2180   20.0530 H   0  0  0  0  0  0  0  0  0  0  0  0
  -27.9080  -21.3220   17.5690 C   0  0  0  0  0  2  0  0  0  0  0  0
  -28.6040  -21.0660   16.2140 C   0  0  0  0  0  2  0  0  0  0  0  0
  -29.3200  -19.3910   17.7330 C   0  0  0  0  0  2  0  0  0  0  0  0
  -28.0470  -20.0100   18.3500 C   0  0  0  0  0  3  0  0  0  0  0  0
  -29.2350  -19.7360   16.3060 N   0  0  0  0  0  4  0  0  0  0  0  0
  -30.1380  -19.7140   15.8590 H   0  0  0  0  0  0  0  0  0  0  0  0
  -28.6460  -19.0620   15.8420 H   0  0  0  0  0  0  0  0  0  0  0  0
  -30.1190  -21.9600   21.1410 C   0  0  0  0  0  2  0  0  0  0  0  0
  -29.2110  -23.1840   21.8050 C   0  0  0  0  0  2  0  0  0  0  0  0
  -29.1500  -24.6940   21.0910 C   0  0  0  0  0  2  0  0  0  0  0  0
  -28.7870  -26.0580   21.6980 O   0  0  0  0  0  0  0  0  0  0  0  0
  -24.6350  -31.8040   23.4570 C   0  0  0  0  0  0  0  0  0  0  0  0
  -27.6960  -26.9140   21.3400 C   0  0  0  0  0  0  0  0  0  0  0  0
  -23.6810  -30.1800   21.8630 C   0  0  0  0  0  3  0  0  0  0  0  0
  -25.3360  -28.5140   20.8190 C   0  0  0  0  0  0  0  0  0  0  0  0
  -26.2260  -30.5420   21.9710 C   0  0  0  0  0  2  0  0  0  0  0  0
  -26.4160  -29.0890   21.5010 C   0  0  0  0  0  0  0  0  0  0  0  0
  -27.5930  -28.3000   21.7440 C   0  0  0  0  0  3  0  0  0  0  0  0
  -26.5920  -26.4190   20.6100 C   0  0  0  0  0  3  0  0  0  0  0  0
  -25.4390  -27.1920   20.3580 C   0  0  0  0  0  3  0  0  0  0  0  0
  -24.0820  -29.3470   20.6160 C   0  0  0  0  0  2  0  0  0  0  0  0
  -24.8590  -30.8690   22.4840 N   0  0  0  0  0  0  0  0  0  0  0  0
  -23.4870  -32.1110   23.8070 O   0  0  0  0  0  0  0  0  0  0  0  0
  -22.9050  -29.2750   22.8510 C   0  0  0  0  0  0  0  0  0  0  0  0
  -21.5940  -29.0970   22.6150 N   0  0  0  0  0  0  0  0  0  0  0  0
  -23.4900  -28.7270   23.7890 O   0  0  0  0  0  0  0  0  0  0  0  0
  -21.1840  -29.5880   21.8340 H   0  0  0  0  0  0  0  0  0  0  0  0
  -18.1440  -28.0510   22.9520 C   0  0  0  0  0  0  0  0  0  0  0  0
  -20.6870  -28.2400   23.3830 C   0  0  0  0  0  3  0  0  0  0  0  0
  -20.7730  -26.7710   22.9040 C   0  0  0  0  0  2  0  0  0  0  0  0
  -19.7300  -26.4230   21.8390 C   0  0  0  0  0  2  0  0  0  0  0  0
  -18.3140  -26.6550   22.3760 C   0  0  0  0  0  2  0  0  0  0  0  0
  -19.2600  -28.8010   23.4090 C   0  0  0  0  0  0  0  0  0  0  0  0
  -19.0490  -30.1060   23.9010 C   0  0  0  0  0  3  0  0  0  0  0  0
  -17.7540  -30.6570   23.9520 C   0  0  0  0  0  3  0  0  0  0  0  0
  -16.6500  -29.9020   23.5190 C   0  0  0  0  0  3  0  0  0  0  0  0
  -16.8480  -28.6030   23.0190 C   0  0  0  0  0  3  0  0  0  0  0  0
  -25.8130  -32.5470   24.1610 C   0  0  0  0  0  3  0  0  0  0  0  0
  -26.1520  -31.9570   25.5840 C   0  0  1  0  0  0  0  0  0  0  0  0
  -24.9160  -31.7940   26.4990 C   0  0  0  0  0  1  0  0  0  0  0  0
  -26.8260  -30.5730   25.4580 C   0  0  0  0  0  1  0  0  0  0  0  0
  -27.1700  -32.8750   26.3000 C   0  0  0  0  0  1  0  0  0  0  0  0
  -25.4490  -33.9700   24.2670 N   0  0  0  0  0  0  0  0  0  0  0  0
  -25.8630  -34.9250   23.4230 C   0  0  0  0  0  0  0  0  0  0  0  0
  -26.6520  -34.7050   22.5020 O   0  0  0  0  0  0  0  0  0  0  0  0
  -24.7590  -34.2130   24.9630 H   0  0  0  0  0  0  0  0  0  0  0  0
  -24.1650  -36.6080   22.6480 C   0  0  0  0  0  1  0  0  0  0  0  0
  -25.3130  -36.3500   23.6360 C   0  0  0  0  0  3  0  0  0  0  0  0
  -27.3300  -37.3910   24.5750 C   0  0  0  0  0  1  0  0  0  0  0  0
  -26.3420  -37.4050   23.4960 N   0  0  0  0  0  0  0  0  0  0  0  0
  -25.9140  -38.3260   23.4720 H   0  0  0  0  0  0  0  0  0  0  0  0
  1 16  1  0
  2  7  1  0
  3  4  1  0
  3  2  1  0
  5  4  1  0
  5 22  1  0
  5  6  1  0
  7  1  1  0
  7  6  1  0
  8  1  2  0
  9 11  1  0
  9 13  2  0
 10 12  1  0
 11 10  2  0
 12 14  1  0
 13 15  1  0
 15 12  1  0
 15 17  1  0
 16 13  1  0
 16 18  1  0
 19 20  2  0
 20 21  1  0
 20 39  1  0
 21 24  1  0
 22 19  1  0
 22 23  1  0
 23 21  2  0
 24 25  1  0
 25 26  2  0
 27 30  1  0
 27 26  1  0
 28 27  2  0
 29 28  1  0
 29 24  2  0
 30 31  1  0
 31 32  1  0
 32 33  2  0
 34 33  1  0
 34 38  1  0
 35 34  2  0
 36 31  2  0
 36 35  1  0
 37 36  1  0
 39 40  1  0
 40 43  1  0
 40 42  1  0
 41 39  2  0
 44 19  1  0
 45 44  1  0
 46 44  1  0
 47 48  1  0
 47 11  1  0
 49 52  1  0
 50 53  1  0
 50 49  1  0
 51 52  1  0
 52 47  1  0
 53 51  1  0
 54 53  1  0
 55 53  1  0
 56 10  1  0
 56 57  1  0
 58 59  1  0
 58 57  1  0
 60 71  2  0
 61 59  1  0
 61 66  1  0
 62 70  1  0
 62 72  1  0
 63 65  1  0
 64 70  1  0
 65 66  2  0
 65 64  1  0
 67 61  2  0
 68 67  1  0
 68 63  2  0
 69 63  1  0
 69 62  1  0
 70 60  1  0
 72 74  2  0
 73 72  1  0
 75 73  1  0
 76 85  2  0
 76 81  1  0
 77 73  1  0
 77 81  1  0
 78 77  1  0
 79 80  1  0
 79 78  1  0
 80 76  1  0
 81 82  2  0
 82 83  1  0
 84 83  2  0
 85 84  1  0
 86 60  1  0
 86 91  1  0
 86 87  1  0
 87 90  1  1
 87 88  1  0
 89 87  1  0
 91 94  1  0
 92 96  1  0
 92 91  1  0
 93 92  2  0
 96 95  1  0
 98 96  1  0
 98 97  1  0
 99 98  1  0
M  ISO  4   1 100  16 100  58 101  59 101
M  END
>  <TORSDO>  (49) 
F 20

>  <SCORE>  (49) 
-12.770

>  <name>  (49) 
48

>  <ligand_id>  (49) 
48

>  <original_smiles>  (49) 
[H]c1c([H])c([H])c2c(c1[H])C([H])([H])C([H])([H])C([H])([H])C2([H])N([H])C(=O)C1([H])N(C(=O)C([H])(N([H])C(=O)C([H])(N([H])C([H])([H])[H])C([H])([H])[H])C(C([H])([H])[H])(C([H])([H])[H])C([H])([H])[H])C([H])([H])c2c([H])c(OC([H])([H])C([H])([H])C([H])([H])c3c(N([H])C4([H])C([H])([H])C([H])([H])[N+]([H])([H])C4([H])[H])c([H])c(N([H])C(=O)N4C([H])([H])C([H])([H])C([H])([H])C([H])(n5nc(-c6c([H])c([H])c(Oc7c([H])c([H])c(F)c([H])c7F)c([H])c6[H])c(C(=O)N([H])[H])c5N([H])[H])C4([H])[H])[n+]([H])c3C([H])([H])[H])c([H])c([H])c2C1([H])[H]

>  <smiles>  (49) 
[H]c1c([H])c([H])c2c(c1[H])C([H])([H])C([H])([H])C([H])([H])C2([H])N([H])C(=O)C1([H])N(C(=O)C([H])(N([H])C(=O)C([H])(N([H])C([H])([H])[H])C([H])([H])[H])C(C([H])([H])[H])(C([H])([H])[H])C([H])([H])[H])C([H])([H])c2c([H])c(OC([H])([H])C([H])([H])C([H])([H])c3c(N([H])C4([H])C([H])([H])C([H])([H])[N+]([H])([H])C4([H])[H])c([H])c(N([H])C(=O)N4C([H])([H])C([H])([H])C([H])([H])C([H])(n5nc(-c6c([H])c([H])c(Oc7c([H])c([H])c(F)c([H])c7F)c([H])c6[H])c(C(=O)N([H])[H])c5N([H])[H])C4([H])[H])[n+]([H])c3C([H])([H])[H])c([H])c([H])c2C1([H])[H]

$$$$
49:0:0
     RDKit          3D

 94103  0  0  1  0  0  0  0  0999 V2000
  -28.5720  -19.9910   19.6540 C   0  0  0  0  0  3  0  0  0  0  0  0
  -30.9840  -19.8680   19.9170 C   0  0  0  0  0  3  0  0  0  0  0  0
  -28.6830  -21.3380   19.2400 C   0  0  0  0  0  3  0  0  0  0  0  0
  -31.0950  -21.2150   19.5040 C   0  0  0  0  0  3  0  0  0  0  0  0
  -29.7220  -19.2300   19.9780 C   0  0  0  0  0  0  0  0  0  0  0  0
  -29.9490  -21.9570   19.1430 C   0  0  0  0  0  0  0  0  0  0  0  0
  -30.9030  -14.3880   19.3510 C   0  0  0  0  0  0  0  0  0  0  0  0
  -30.2710  -12.3410   18.1170 C   0  0  0  0  0  2  0  0  0  0  0  0
  -29.1320  -12.6460   17.1230 C   0  0  0  0  0  2  0  0  0  0  0  0
  -27.7600  -12.5080   17.8080 C   0  0  0  0  0  2  0  0  0  0  0  0
  -27.6910  -13.2690   19.1580 C   0  0  0  0  0  3  0  0  0  0  0  0
  -28.9210  -12.9550   20.0360 C   0  0  0  0  0  2  0  0  0  0  0  0
  -30.1350  -13.2640   19.2600 N   0  0  0  0  0  0  0  0  0  0  0  0
  -31.8590  -14.5900   18.5940 O   0  0  0  0  0  0  0  0  0  0  0  0
  -30.6890  -15.3290   21.5880 C   0  0  0  0  0  2  0  0  0  0  0  0
  -30.5500  -16.7860   19.6510 C   0  0  0  0  0  2  0  0  0  0  0  0
  -29.6790  -16.2170   22.3450 C   0  0  0  0  0  2  0  0  0  0  0  0
  -29.5850  -17.7540   20.3960 C   0  0  0  0  0  3  0  0  0  0  0  0
  -30.4440  -15.3920   20.1410 N   0  0  0  0  0  0  0  0  0  0  0  0
  -29.7150  -17.6160   21.8600 N   0  0  0  0  0  4  0  0  0  0  0  0
  -30.5820  -18.0370   22.1480 H   0  0  0  0  0  0  0  0  0  0  0  0
  -28.9740  -18.1370   22.3010 H   0  0  0  0  0  0  0  0  0  0  0  0
  -25.5090  -13.8850   20.3730 C   0  0  0  0  0  0  0  0  0  0  0  0
  -24.4950  -13.1170   20.8790 C   0  0  0  0  0  0  0  0  0  0  0  0
  -24.8730  -11.7590   20.6430 C   0  0  0  0  0  0  0  0  0  0  0  0
  -26.4430  -12.9960   19.8660 N   0  0  0  0  0  0  0  0  0  0  0  0
  -26.0760  -11.7070   20.0850 N   0  0  0  0  0  0  0  0  0  0  0  0
  -24.1360  -10.5090   20.8650 C   0  0  0  0  0  0  0  0  0  0  0  0
  -24.6210   -9.5080   21.7350 C   0  0  0  0  0  3  0  0  0  0  0  0
  -23.8850   -8.3220   21.9440 C   0  0  0  0  0  3  0  0  0  0  0  0
  -22.6480   -8.1280   21.2850 C   0  0  0  0  0  0  0  0  0  0  0  0
  -22.1800   -9.1170   20.4010 C   0  0  0  0  0  3  0  0  0  0  0  0
  -22.9170  -10.2950   20.1880 C   0  0  0  0  0  3  0  0  0  0  0  0
  -21.8780   -6.9980   21.4070 O   0  0  0  0  0  0  0  0  0  0  0  0
  -21.8150   -6.2930   22.5830 C   0  0  0  0  0  0  0  0  0  0  0  0
  -21.3900   -6.8920   23.7880 C   0  0  0  0  0  3  0  0  0  0  0  0
  -21.2740   -6.1150   24.9590 C   0  0  0  0  0  3  0  0  0  0  0  0
  -21.5730   -4.7400   24.9230 C   0  0  0  0  0  0  0  0  0  0  0  0
  -21.9910   -4.1410   23.7220 C   0  0  0  0  0  3  0  0  0  0  0  0
  -22.1090   -4.9150   22.5540 C   0  0  0  0  0  0  0  0  0  0  0  0
  -22.4920   -4.3280   21.3950 F   0  0  0  0  0  0  0  0  0  0  0  0
  -21.4540   -3.9910   26.0440 F   0  0  0  0  0  0  0  0  0  0  0  0
  -23.2010  -13.6110   21.4590 C   0  0  0  0  0  0  0  0  0  0  0  0
  -22.6410  -12.8830   22.4180 N   0  0  0  0  0  0  0  0  0  0  0  0
  -22.7030  -14.6760   21.0950 O   0  0  0  0  0  0  0  0  0  0  0  0
  -23.0600  -12.0190   22.7300 H   0  0  0  0  0  0  0  0  0  0  0  0
  -21.7820  -13.1940   22.8480 H   0  0  0  0  0  0  0  0  0  0  0  0
  -25.7060  -15.2600   20.2820 N   0  0  0  0  0  0  0  0  0  0  0  0
  -24.9870  -15.9200   20.5600 H   0  0  0  0  0  0  0  0  0  0  0  0
  -26.4550  -15.6880   19.7540 H   0  0  0  0  0  0  0  0  0  0  0  0
  -30.0960  -23.3550   18.5360 C   0  0  0  0  0  2  0  0  0  0  0  0
  -29.8440  -24.5680   19.4710 C   0  0  0  0  0  2  0  0  0  0  0  0
  -28.4750  -25.2570   19.2760 C   0  0  0  0  0  2  0  0  0  0  0  0
  -28.4790  -26.6100   19.7640 O   0  0  0  0  0  0  0  0  0  0  0  0
  -24.5960  -31.6310   23.0050 C   0  0  0  0  0  0  0  0  0  0  0  0
  -27.2810  -27.3070   19.7740 C   0  0  0  0  0  0  0  0  0  0  0  0
  -23.3910  -30.2380   21.3560 C   0  0  0  0  0  3  0  0  0  0  0  0
  -24.8520  -28.7690   19.8690 C   0  0  0  0  0  0  0  0  0  0  0  0
  -25.9060  -30.6550   21.1210 C   0  0  0  0  0  2  0  0  0  0  0  0
  -26.0100  -29.3010   20.4490 C   0  0  0  0  0  0  0  0  0  0  0  0
  -27.2250  -28.5770   20.3990 C   0  0  0  0  0  3  0  0  0  0  0  0
  -26.0970  -26.7950   19.1900 C   0  0  0  0  0  3  0  0  0  0  0  0
  -24.8910  -27.5150   19.2390 C   0  0  0  0  0  3  0  0  0  0  0  0
  -23.5900  -29.5960   19.9580 C   0  0  0  0  0  2  0  0  0  0  0  0
  -24.6500  -30.8550   21.8850 N   0  0  0  0  0  0  0  0  0  0  0  0
  -23.5180  -31.8660   23.5700 O   0  0  0  0  0  0  0  0  0  0  0  0
  -22.7830  -29.1790   22.3040 C   0  0  0  0  0  0  0  0  0  0  0  0
  -21.4680  -28.9390   22.1690 N   0  0  0  0  0  0  0  0  0  0  0  0
  -23.4910  -28.5770   23.1170 O   0  0  0  0  0  0  0  0  0  0  0  0
  -20.9570  -29.4800   21.4860 H   0  0  0  0  0  0  0  0  0  0  0  0
  -18.1530  -27.5740   22.6190 C   0  0  0  0  0  0  0  0  0  0  0  0
  -20.6900  -27.9600   22.9270 C   0  0  0  0  0  3  0  0  0  0  0  0
  -20.8730  -26.5370   22.3510 C   0  0  0  0  0  2  0  0  0  0  0  0
  -19.8030  -26.1600   21.3210 C   0  0  0  0  0  2  0  0  0  0  0  0
  -18.4070  -26.2360   21.9460 C   0  0  0  0  0  2  0  0  0  0  0  0
  -19.2250  -28.3910   23.0650 C   0  0  0  0  0  0  0  0  0  0  0  0
  -18.9360  -29.6420   23.6530 C   0  0  0  0  0  3  0  0  0  0  0  0
  -17.6050  -30.0770   23.7990 C   0  0  0  0  0  3  0  0  0  0  0  0
  -16.5470  -29.2590   23.3710 C   0  0  0  0  0  3  0  0  0  0  0  0
  -16.8210  -28.0090   22.7860 C   0  0  0  0  0  3  0  0  0  0  0  0
  -25.8780  -32.2790   23.6140 C   0  0  0  0  0  3  0  0  0  0  0  0
  -26.4770  -31.4560   24.8200 C   0  0  1  0  0  0  0  0  0  0  0  0
  -25.4340  -31.0880   25.9010 C   0  0  0  0  0  1  0  0  0  0  0  0
  -27.1200  -30.1420   24.3190 C   0  0  0  0  0  1  0  0  0  0  0  0
  -27.6040  -32.2680   25.5000 C   0  0  0  0  0  1  0  0  0  0  0  0
  -25.5260  -33.6410   24.0380 N   0  0  0  0  0  0  0  0  0  0  0  0
  -25.7780  -34.7470   23.3250 C   0  0  0  0  0  0  0  0  0  0  0  0
  -26.4020  -34.7310   22.2600 O   0  0  0  0  0  0  0  0  0  0  0  0
  -24.9630  -33.7240   24.8710 H   0  0  0  0  0  0  0  0  0  0  0  0
  -23.9600  -36.4760   23.1490 C   0  0  0  0  0  1  0  0  0  0  0  0
  -25.2530  -36.0840   23.8820 C   0  0  0  0  0  3  0  0  0  0  0  0
  -27.3810  -37.0180   24.6720 C   0  0  0  0  0  1  0  0  0  0  0  0
  -26.2330  -37.1880   23.7850 N   0  0  0  0  0  0  0  0  0  0  0  0
  -25.7940  -38.0790   24.0020 H   0  0  0  0  0  0  0  0  0  0  0  0
  1  5  1  0
  2  5  2  0
  3  1  2  0
  4  2  1  0
  6  3  1  0
  6  4  2  0
  7 19  1  0
  8 13  1  0
  9 10  1  0
  9  8  1  0
 11 10  1  0
 11 26  1  0
 11 12  1  0
 13  7  1  0
 13 12  1  0
 14  7  2  0
 15 17  1  0
 16 19  1  0
 16 18  1  0
 18  5  1  0
 18 20  1  0
 19 15  1  0
 20 21  1  0
 20 22  1  0
 20 17  1  0
 23 24  2  0
 24 43  1  0
 25 28  1  0
 25 24  1  0
 26 27  1  0
 26 23  1  0
 27 25  2  0
 28 29  1  0
 29 30  2  0
 31 34  1  0
 31 30  1  0
 32 31  2  0
 33 32  1  0
 33 28  2  0
 34 35  1  0
 35 36  1  0
 36 37  2  0
 38 37  1  0
 38 42  1  0
 39 38  2  0
 40 35  2  0
 40 39  1  0
 41 40  1  0
 43 44  1  0
 44 46  1  0
 44 47  1  0
 45 43  2  0
 48 23  1  0
 48 49  1  0
 50 48  1  0
 51  6  1  0
 51 52  1  0
 53 52  1  0
 53 54  1  0
 54 56  1  0
 55 66  2  0
 56 61  1  0
 57 65  1  0
 57 67  1  0
 58 64  1  0
 58 60  1  0
 59 65  1  0
 60 59  1  0
 61 60  2  0
 62 63  1  0
 62 56  2  0
 63 58  2  0
 64 57  1  0
 65 55  1  0
 67 69  2  0
 68 67  1  0
 70 68  1  0
 71 80  2  0
 71 76  1  0
 72 68  1  0
 72 76  1  0
 73 72  1  0
 74 75  1  0
 74 73  1  0
 75 71  1  0
 76 77  2  0
 77 78  1  0
 79 78  2  0
 80 79  1  0
 81 55  1  0
 81 86  1  0
 81 82  1  0
 82 85  1  1
 82 83  1  0
 84 82  1  0
 86 89  1  0
 87 91  1  0
 87 86  1  0
 88 87  2  0
 91 90  1  0
 93 91  1  0
 93 94  1  0
 93 92  1  0
M  ISO  4   7 100  19 100  53 101  54 101
M  END
>  <TORSDO>  (50) 
F 19

>  <SCORE>  (50) 
-11.287

>  <name>  (50) 
49

>  <ligand_id>  (50) 
49

>  <original_smiles>  (50) 
[H]c1c([H])c([H])c2c(c1[H])C([H])([H])C([H])([H])C([H])([H])C2([H])N([H])C(=O)C1([H])N(C(=O)C([H])(N([H])C(=O)C([H])(N([H])C([H])([H])[H])C([H])([H])[H])C(C([H])([H])[H])(C([H])([H])[H])C([H])([H])[H])C([H])([H])c2c([H])c(OC([H])([H])C([H])([H])C([H])([H])c3c([H])c([H])c(C4([H])C([H])([H])N(C(=O)N5C([H])([H])C([H])([H])C([H])([H])C([H])(n6nc(-c7c([H])c([H])c(Oc8c([H])c([H])c(F)c([H])c8F)c([H])c7[H])c(C(=O)N([H])[H])c6N([H])[H])C5([H])[H])C([H])([H])C([H])([H])[N+]4([H])[H])c([H])c3[H])c([H])c([H])c2C1([H])[H]

>  <smiles>  (50) 
[H]c1c([H])c([H])c2c(c1[H])C([H])([H])C([H])([H])C([H])([H])C2([H])N([H])C(=O)C1([H])N(C(=O)C([H])(N([H])C(=O)C([H])(N([H])C([H])([H])[H])C([H])([H])[H])C(C([H])([H])[H])(C([H])([H])[H])C([H])([H])[H])C([H])([H])c2c([H])c(OC([H])([H])C([H])([H])C([H])([H])c3c([H])c([H])c(C4([H])C([H])([H])N(C(=O)N5C([H])([H])C([H])([H])C([H])([H])C([H])(n6nc(-c7c([H])c([H])c(Oc8c([H])c([H])c(F)c([H])c8F)c([H])c7[H])c(C(=O)N([H])[H])c6N([H])[H])C5([H])[H])C([H])([H])C([H])([H])[N+]4([H])[H])c([H])c3[H])c([H])c([H])c2C1([H])[H]

$$$$
50:0:0
     RDKit          3D

 93101  0  0  1  0  0  0  0  0999 V2000
  -26.8050  -23.8900   20.7360 C   0  0  0  0  0  3  0  0  0  0  0  0
  -26.4100  -22.5860   20.3900 C   0  0  0  0  0  3  0  0  0  0  0  0
  -29.1310  -23.2000   20.5870 C   0  0  0  0  0  3  0  0  0  0  0  0
  -28.1690  -24.2330   20.8190 C   0  0  0  0  0  0  0  0  0  0  0  0
  -27.3630  -21.5760   20.1360 C   0  0  0  0  0  0  0  0  0  0  0  0
  -28.7500  -21.8610   20.2520 C   0  0  0  0  0  0  0  0  0  0  0  0
  -26.8560  -20.2040   19.7170 C   0  0  0  0  0  1  0  0  0  0  0  0
  -29.8100  -20.7740   19.9070 C   0  0  0  0  0  2  0  0  0  0  0  0
  -29.9980  -19.6700   20.9030 N   0  0  0  0  0  4  0  0  0  0  0  0
  -29.2910  -19.7630   21.6120 H   0  0  0  0  0  0  0  0  0  0  0  0
  -30.8840  -19.8380   21.3510 H   0  0  0  0  0  0  0  0  0  0  0  0
  -29.9860  -18.2580   20.3760 C   0  0  0  0  0  2  0  0  0  0  0  0
  -30.5440  -17.1790   21.3740 C   0  0  0  0  0  2  0  0  0  0  0  0
  -30.9850  -14.7430   20.6340 C   0  0  0  0  0  0  0  0  0  0  0  0
  -30.7720  -12.5500   19.4960 C   0  0  0  0  0  2  0  0  0  0  0  0
  -29.8750  -12.7210   18.2510 C   0  0  0  0  0  2  0  0  0  0  0  0
  -28.3830  -12.5930   18.6200 C   0  0  0  0  0  2  0  0  0  0  0  0
  -27.9960  -13.4510   19.8530 C   0  0  0  0  0  3  0  0  0  0  0  0
  -29.0010  -13.2330   21.0050 C   0  0  0  0  0  2  0  0  0  0  0  0
  -30.3430  -13.5480   20.4900 N   0  0  0  0  0  0  0  0  0  0  0  0
  -32.1480  -14.9250   20.2630 O   0  0  0  0  0  0  0  0  0  0  0  0
  -30.2050  -15.7630   21.0690 N   0  0  0  0  0  0  0  0  0  0  0  0
  -29.2620  -15.4850   21.2940 H   0  0  0  0  0  0  0  0  0  0  0  0
  -25.5770  -14.1020   20.4420 C   0  0  0  0  0  0  0  0  0  0  0  0
  -24.4840  -13.3490   20.7780 C   0  0  0  0  0  0  0  0  0  0  0  0
  -24.9300  -11.9920   20.7960 C   0  0  0  0  0  0  0  0  0  0  0  0
  -26.6210  -13.2030   20.2760 N   0  0  0  0  0  0  0  0  0  0  0  0
  -26.2320  -11.9320   20.5480 N   0  0  0  0  0  0  0  0  0  0  0  0
  -24.1820  -10.7430   20.9780 C   0  0  0  0  0  0  0  0  0  0  0  0
  -24.5510   -9.7960   21.9590 C   0  0  0  0  0  3  0  0  0  0  0  0
  -23.8050   -8.6110   22.1270 C   0  0  0  0  0  3  0  0  0  0  0  0
  -22.6740   -8.3630   21.3140 C   0  0  0  0  0  0  0  0  0  0  0  0
  -22.3230   -9.2980   20.3240 C   0  0  0  0  0  3  0  0  0  0  0  0
  -23.0700  -10.4750   20.1540 C   0  0  0  0  0  3  0  0  0  0  0  0
  -21.9040   -7.2270   21.3880 O   0  0  0  0  0  0  0  0  0  0  0  0
  -21.7680   -6.5260   22.5600 C   0  0  0  0  0  0  0  0  0  0  0  0
  -21.2620   -7.1270   23.7330 C   0  0  0  0  0  3  0  0  0  0  0  0
  -21.0730   -6.3520   24.8960 C   0  0  0  0  0  3  0  0  0  0  0  0
  -21.3790   -4.9780   24.8840 C   0  0  0  0  0  0  0  0  0  0  0  0
  -21.8780   -4.3770   23.7150 C   0  0  0  0  0  3  0  0  0  0  0  0
  -22.0690   -5.1490   22.5560 C   0  0  0  0  0  0  0  0  0  0  0  0
  -22.5300   -4.5600   21.4250 F   0  0  0  0  0  0  0  0  0  0  0  0
  -21.1900   -4.2320   25.9970 F   0  0  0  0  0  0  0  0  0  0  0  0
  -23.0810  -13.8480   20.9740 C   0  0  0  0  0  0  0  0  0  0  0  0
  -22.3100  -13.1840   21.8290 N   0  0  0  0  0  0  0  0  0  0  0  0
  -22.6770  -14.8620   20.4070 O   0  0  0  0  0  0  0  0  0  0  0  0
  -22.6480  -12.3640   22.3100 H   0  0  0  0  0  0  0  0  0  0  0  0
  -21.3670  -13.4990   22.0030 H   0  0  0  0  0  0  0  0  0  0  0  0
  -25.7660  -15.4660   20.2450 N   0  0  0  0  0  0  0  0  0  0  0  0
  -24.9980  -16.1270   20.3040 H   0  0  0  0  0  0  0  0  0  0  0  0
  -26.6260  -15.8880   19.9200 H   0  0  0  0  0  0  0  0  0  0  0  0
  -28.5590  -25.6630   21.2750 C   0  0  0  0  0  2  0  0  0  0  0  0
  -28.4250  -26.7520   20.3270 O   0  0  0  0  0  0  0  0  0  0  0  0
  -24.5670  -31.9760   23.4090 C   0  0  0  0  0  0  0  0  0  0  0  0
  -27.2730  -27.5180   20.3710 C   0  0  0  0  0  0  0  0  0  0  0  0
  -23.4040  -30.5950   21.7200 C   0  0  0  0  0  3  0  0  0  0  0  0
  -24.8920  -29.0610   20.3230 C   0  0  0  0  0  0  0  0  0  0  0  0
  -25.9390  -30.9380   21.5990 C   0  0  0  0  0  2  0  0  0  0  0  0
  -26.0370  -29.5670   20.9520 C   0  0  0  0  0  0  0  0  0  0  0  0
  -27.2330  -28.8030   20.9730 C   0  0  0  0  0  3  0  0  0  0  0  0
  -26.1150  -27.0420   19.7240 C   0  0  0  0  0  3  0  0  0  0  0  0
  -24.9260  -27.7980   19.7070 C   0  0  0  0  0  3  0  0  0  0  0  0
  -23.6520  -29.9300   20.3400 C   0  0  0  0  0  2  0  0  0  0  0  0
  -24.6540  -31.1850   22.3010 N   0  0  0  0  0  0  0  0  0  0  0  0
  -23.4720  -32.2470   23.9210 O   0  0  0  0  0  0  0  0  0  0  0  0
  -22.7220  -29.5670   22.6520 C   0  0  0  0  0  0  0  0  0  0  0  0
  -21.3990  -29.3960   22.4930 N   0  0  0  0  0  0  0  0  0  0  0  0
  -23.3820  -28.9260   23.4730 O   0  0  0  0  0  0  0  0  0  0  0  0
  -20.9280  -29.9640   21.8020 H   0  0  0  0  0  0  0  0  0  0  0  0
  -18.0050  -28.2250   22.9080 C   0  0  0  0  0  0  0  0  0  0  0  0
  -20.5590  -28.4520   23.2320 C   0  0  0  0  0  3  0  0  0  0  0  0
  -20.6590  -27.0310   22.6300 C   0  0  0  0  0  2  0  0  0  0  0  0
  -19.5720  -26.7390   21.5920 C   0  0  0  0  0  2  0  0  0  0  0  0
  -18.1790  -26.8870   22.2130 C   0  0  0  0  0  2  0  0  0  0  0  0
  -19.1230  -28.9670   23.3730 C   0  0  0  0  0  0  0  0  0  0  0  0
  -18.9060  -30.2220   23.9840 C   0  0  0  0  0  3  0  0  0  0  0  0
  -17.6040  -30.7330   24.1360 C   0  0  0  0  0  3  0  0  0  0  0  0
  -16.5000  -29.9870   23.6880 C   0  0  0  0  0  3  0  0  0  0  0  0
  -16.7010  -28.7350   23.0800 C   0  0  0  0  0  3  0  0  0  0  0  0
  -25.8360  -32.6000   24.0700 C   0  0  0  0  0  3  0  0  0  0  0  0
  -25.5300  -34.0030   24.3820 N   0  0  0  0  0  0  0  0  0  0  0  0
  -25.9020  -35.0470   23.6300 C   0  0  0  0  0  0  0  0  0  0  0  0
  -26.6100  -34.9300   22.6260 O   0  0  0  0  0  0  0  0  0  0  0  0
  -24.9100  -34.1690   25.1610 H   0  0  0  0  0  0  0  0  0  0  0  0
  -24.2070  -36.8530   23.2050 C   0  0  0  0  0  1  0  0  0  0  0  0
  -25.4130  -36.4420   24.0620 C   0  0  0  0  0  3  0  0  0  0  0  0
  -27.5280  -37.3090   24.9620 C   0  0  0  0  0  1  0  0  0  0  0  0
  -26.4590  -37.4860   23.9820 N   0  0  0  0  0  0  0  0  0  0  0  0
  -26.0570  -38.4100   24.1140 H   0  0  0  0  0  0  0  0  0  0  0  0
  -26.3020  -31.8290   25.3660 C   0  0  1  0  0  0  0  0  0  0  0  0
  -25.1680  -31.5930   26.3910 C   0  0  0  0  0  1  0  0  0  0  0  0
  -26.8980  -30.4500   24.9950 C   0  0  0  0  0  1  0  0  0  0  0  0
  -27.4280  -32.6230   26.0680 C   0  0  0  0  0  1  0  0  0  0  0  0
  1  4  1  0
  2  1  2  0
  3  4  2  0
  4 52  1  0
  5  6  2  0
  5  2  1  0
  6  3  1  0
  7  5  1  0
  8  6  1  0
  8  9  1  0
  9 11  1  0
  9 10  1  0
 12  9  1  0
 12 13  1  0
 14 22  1  0
 15 20  1  0
 16 17  1  0
 16 15  1  0
 18 17  1  0
 18 27  1  0
 18 19  1  0
 20 14  1  0
 20 19  1  0
 21 14  2  0
 22 23  1  0
 22 13  1  0
 24 25  2  0
 25 26  1  0
 25 44  1  0
 26 29  1  0
 27 24  1  0
 27 28  1  0
 28 26  2  0
 29 30  1  0
 30 31  2  0
 32 35  1  0
 32 31  1  0
 33 32  2  0
 34 33  1  0
 34 29  2  0
 35 36  1  0
 36 37  1  0
 37 38  2  0
 39 38  1  0
 39 43  1  0
 40 39  2  0
 41 36  2  0
 41 40  1  0
 42 41  1  0
 44 45  1  0
 45 48  1  0
 45 47  1  0
 46 44  2  0
 49 50  1  0
 49 24  1  0
 51 49  1  0
 53 55  1  0
 53 52  1  0
 54 65  2  0
 55 60  1  0
 56 64  1  0
 56 66  1  0
 57 63  1  0
 57 59  1  0
 58 64  1  0
 59 60  2  0
 59 58  1  0
 61 55  2  0
 62 61  1  0
 62 57  2  0
 63 56  1  0
 64 54  1  0
 66 68  2  0
 67 66  1  0
 69 67  1  0
 70 79  2  0
 70 75  1  0
 71 67  1  0
 71 75  1  0
 72 71  1  0
 73 74  1  0
 73 72  1  0
 74 70  1  0
 75 76  2  0
 76 77  1  0
 78 77  2  0
 79 78  1  0
 80 54  1  0
 80 81  1  0
 80 90  1  0
 81 84  1  0
 82 86  1  0
 82 81  1  0
 83 82  2  0
 86 85  1  0
 88 86  1  0
 88 89  1  0
 88 87  1  0
 90 93  1  1
 90 91  1  0
 92 90  1  0
M  ISO  4  14 100  22 100  52 101  53 101
M  END
>  <TORSDO>  (51) 
F 21

>  <SCORE>  (51) 
-12.438

>  <name>  (51) 
50

>  <ligand_id>  (51) 
50

>  <original_smiles>  (51) 
[H]c1c([H])c([H])c2c(c1[H])C([H])([H])C([H])([H])C([H])([H])C2([H])N([H])C(=O)C1([H])N(C(=O)C([H])(N([H])C(=O)C([H])(N([H])C([H])([H])[H])C([H])([H])[H])C(C([H])([H])[H])(C([H])([H])[H])C([H])([H])[H])C([H])([H])c2c([H])c(OC([H])([H])c3c([H])c([H])c(C([H])([H])[H])c(C([H])([H])[N+]([H])([H])C([H])([H])C([H])([H])N([H])C(=O)N4C([H])([H])C([H])([H])C([H])([H])C([H])(n5nc(-c6c([H])c([H])c(Oc7c([H])c([H])c(F)c([H])c7F)c([H])c6[H])c(C(=O)N([H])[H])c5N([H])[H])C4([H])[H])c3[H])c([H])c([H])c2C1([H])[H]

>  <smiles>  (51) 
[H]c1c([H])c([H])c2c(c1[H])C([H])([H])C([H])([H])C([H])([H])C2([H])N([H])C(=O)C1([H])N(C(=O)C([H])(N([H])C(=O)C([H])(N([H])C([H])([H])[H])C([H])([H])[H])C(C([H])([H])[H])(C([H])([H])[H])C([H])([H])[H])C([H])([H])c2c([H])c(OC([H])([H])c3c([H])c([H])c(C([H])([H])[H])c(C([H])([H])[N+]([H])([H])C([H])([H])C([H])([H])N([H])C(=O)N4C([H])([H])C([H])([H])C([H])([H])C([H])(n5nc(-c6c([H])c([H])c(Oc7c([H])c([H])c(F)c([H])c7F)c([H])c6[H])c(C(=O)N([H])[H])c5N([H])[H])C4([H])[H])c3[H])c([H])c([H])c2C1([H])[H]

$$$$
51:0:0
     RDKit          3D

 93101  0  0  1  0  0  0  0  0999 V2000
  -30.2000  -19.6320   19.1370 C   0  0  0  0  0  2  0  0  0  0  0  0
  -30.2090  -21.1180   19.5500 C   0  0  0  0  0  2  0  0  0  0  0  0
  -29.5870  -19.0600   21.5010 C   0  0  0  0  0  2  0  0  0  0  0  0
  -30.4940  -18.6720   20.3110 C   0  0  0  0  0  3  0  0  0  0  0  0
  -29.2510  -21.4190   20.7360 C   0  0  0  0  0  3  0  0  0  0  0  0
  -29.1030  -20.7280   23.2040 C   0  0  0  0  0  1  0  0  0  0  0  0
  -29.6960  -20.5120   21.8620 N   0  0  1  0  0  4  0  0  0  0  0  0
  -30.6800  -20.6940   21.9860 H   0  0  0  0  0  0  0  0  0  0  0  0
  -28.0430  -23.4160   21.9960 C   0  0  0  0  0  1  0  0  0  0  0  0
  -29.1550  -22.9920   21.0000 C   0  0  0  0  0  3  0  0  0  0  0  0
  -28.8680  -23.8020   19.6810 C   0  0  0  0  0  2  0  0  0  0  0  0
  -29.8110  -24.9880   19.3270 C   0  0  0  0  0  2  0  0  0  0  0  0
  -29.4970  -26.3410   20.0190 C   0  0  0  0  0  2  0  0  0  0  0  0
  -29.1730  -27.3820   19.0760 O   0  0  0  0  0  0  0  0  0  0  0  0
  -24.6540  -31.3040   22.9380 C   0  0  0  0  0  0  0  0  0  0  0  0
  -27.9020  -27.9020   19.2010 C   0  0  0  0  0  0  0  0  0  0  0  0
  -23.6370  -29.9340   21.1410 C   0  0  0  0  0  3  0  0  0  0  0  0
  -25.2750  -28.9080   19.4730 C   0  0  0  0  0  0  0  0  0  0  0  0
  -26.0390  -30.7920   20.9310 C   0  0  0  0  0  2  0  0  0  0  0  0
  -26.3440  -29.5620   20.1020 C   0  0  0  0  0  0  0  0  0  0  0  0
  -27.6630  -29.0710   19.9600 C   0  0  0  0  0  3  0  0  0  0  0  0
  -26.8210  -27.2600   18.5670 C   0  0  0  0  0  3  0  0  0  0  0  0
  -25.5090  -27.7610   18.6930 C   0  0  0  0  0  3  0  0  0  0  0  0
  -23.8940  -29.4900   19.6760 C   0  0  0  0  0  2  0  0  0  0  0  0
  -24.7940  -30.6890   21.7280 N   0  0  0  0  0  0  0  0  0  0  0  0
  -23.5750  -31.2900   23.5430 O   0  0  0  0  0  0  0  0  0  0  0  0
  -23.2330  -28.6900   21.9630 C   0  0  0  0  0  0  0  0  0  0  0  0
  -21.9760  -28.2470   21.8010 N   0  0  0  0  0  0  0  0  0  0  0  0
  -24.0470  -28.1360   22.7050 O   0  0  0  0  0  0  0  0  0  0  0  0
  -21.3680  -28.7660   21.1830 H   0  0  0  0  0  0  0  0  0  0  0  0
  -18.9660  -26.2730   22.0240 C   0  0  0  0  0  0  0  0  0  0  0  0
  -21.3910  -27.0630   22.4310 C   0  0  0  0  0  3  0  0  0  0  0  0
  -21.8270  -25.7730   21.6930 C   0  0  0  0  0  2  0  0  0  0  0  0
  -20.8400  -25.3170   20.6180 C   0  0  0  0  0  2  0  0  0  0  0  0
  -19.4530  -25.0800   21.2150 C   0  0  0  0  0  2  0  0  0  0  0  0
  -19.8750  -27.2090   22.5860 C   0  0  0  0  0  0  0  0  0  0  0  0
  -19.3610  -28.3220   23.2890 C   0  0  0  0  0  3  0  0  0  0  0  0
  -17.9730  -28.5030   23.4440 C   0  0  0  0  0  3  0  0  0  0  0  0
  -17.0800  -27.5660   22.8970 C   0  0  0  0  0  3  0  0  0  0  0  0
  -17.5780  -26.4540   22.1950 C   0  0  0  0  0  3  0  0  0  0  0  0
  -25.8370  -32.0700   23.6070 C   0  0  0  0  0  3  0  0  0  0  0  0
  -25.3140  -33.3570   24.0830 N   0  0  0  0  0  0  0  0  0  0  0  0
  -25.4890  -34.5280   23.4590 C   0  0  0  0  0  0  0  0  0  0  0  0
  -26.1770  -34.6500   22.4430 O   0  0  0  0  0  0  0  0  0  0  0  0
  -24.6900  -33.3230   24.8760 H   0  0  0  0  0  0  0  0  0  0  0  0
  -23.5070  -36.0620   23.2710 C   0  0  0  0  0  1  0  0  0  0  0  0
  -24.7900  -35.7640   24.0610 C   0  0  0  0  0  3  0  0  0  0  0  0
  -26.7610  -36.8610   25.0290 C   0  0  0  0  0  1  0  0  0  0  0  0
  -25.6470  -36.9680   24.0900 N   0  0  0  0  0  0  0  0  0  0  0  0
  -25.1050  -37.7930   24.3320 H   0  0  0  0  0  0  0  0  0  0  0  0
  -26.5130  -31.2720   24.7900 C   0  0  1  0  0  0  0  0  0  0  0  0
  -25.5050  -30.7530   25.8410 C   0  0  0  0  0  1  0  0  0  0  0  0
  -27.2990  -30.0560   24.2470 C   0  0  0  0  0  1  0  0  0  0  0  0
  -27.5390  -32.1730   25.5190 C   0  0  0  0  0  1  0  0  0  0  0  0
  -30.3530  -17.1970   19.8200 C   0  0  0  0  0  2  0  0  0  0  0  0
  -31.0470  -15.0630   20.8670 C   0  0  0  0  0  0  0  0  0  0  0  0
  -30.9620  -12.6800   20.2640 C   0  0  0  0  0  2  0  0  0  0  0  0
  -30.1700  -12.5520   18.9470 C   0  0  0  0  0  2  0  0  0  0  0  0
  -28.6620  -12.4290   19.2320 C   0  0  0  0  0  2  0  0  0  0  0  0
  -28.1470  -13.5150   20.2140 C   0  0  0  0  0  3  0  0  0  0  0  0
  -29.0650  -13.6160   21.4560 C   0  0  0  0  0  2  0  0  0  0  0  0
  -30.4410  -13.8510   20.9870 N   0  0  0  0  0  0  0  0  0  0  0  0
  -32.2320  -15.1880   20.5480 O   0  0  0  0  0  0  0  0  0  0  0  0
  -30.2100  -16.1210   20.8240 N   0  0  0  0  0  0  0  0  0  0  0  0
  -29.2740  -15.9190   21.1360 H   0  0  0  0  0  0  0  0  0  0  0  0
  -25.7340  -14.2030   20.7930 C   0  0  0  0  0  0  0  0  0  0  0  0
  -24.6090  -13.4660   21.0430 C   0  0  0  0  0  0  0  0  0  0  0  0
  -25.0080  -12.0960   20.9610 C   0  0  0  0  0  0  0  0  0  0  0  0
  -26.7510  -13.2830   20.5810 N   0  0  0  0  0  0  0  0  0  0  0  0
  -26.3130  -12.0080   20.7400 N   0  0  0  0  0  0  0  0  0  0  0  0
  -24.2170  -10.8620   21.0240 C   0  0  0  0  0  0  0  0  0  0  0  0
  -24.5740   -9.7990   21.8840 C   0  0  0  0  0  3  0  0  0  0  0  0
  -23.7870   -8.6290   21.9400 C   0  0  0  0  0  3  0  0  0  0  0  0
  -22.6290   -8.5120   21.1360 C   0  0  0  0  0  0  0  0  0  0  0  0
  -22.2930   -9.5610   20.2610 C   0  0  0  0  0  3  0  0  0  0  0  0
  -23.0800  -10.7240   20.2030 C   0  0  0  0  0  3  0  0  0  0  0  0
  -21.8190   -7.4030   21.1040 O   0  0  0  0  0  0  0  0  0  0  0  0
  -21.7270   -6.5490   22.1750 C   0  0  0  0  0  0  0  0  0  0  0  0
  -21.3230   -6.9950   23.4520 C   0  0  0  0  0  3  0  0  0  0  0  0
  -21.1760   -6.0730   24.5060 C   0  0  0  0  0  3  0  0  0  0  0  0
  -21.4210   -4.7040   24.2830 C   0  0  0  0  0  0  0  0  0  0  0  0
  -21.8190   -4.2580   23.0110 C   0  0  0  0  0  3  0  0  0  0  0  0
  -21.9680   -5.1770   21.9580 C   0  0  0  0  0  0  0  0  0  0  0  0
  -22.3300   -4.7400   20.7300 F   0  0  0  0  0  0  0  0  0  0  0  0
  -21.2710   -3.8140   25.2930 F   0  0  0  0  0  0  0  0  0  0  0  0
  -23.2180  -13.9920   21.2520 C   0  0  0  0  0  0  0  0  0  0  0  0
  -22.4050  -13.2850   22.0250 N   0  0  0  0  0  0  0  0  0  0  0  0
  -22.8600  -15.0620   20.7590 O   0  0  0  0  0  0  0  0  0  0  0  0
  -22.7060  -12.4170   22.4410 H   0  0  0  0  0  0  0  0  0  0  0  0
  -21.4680  -13.6160   22.2090 H   0  0  0  0  0  0  0  0  0  0  0  0
  -25.9750  -15.5700   20.7070 N   0  0  0  0  0  0  0  0  0  0  0  0
  -25.2220  -16.2480   20.7670 H   0  0  0  0  0  0  0  0  0  0  0  0
  -26.8450  -15.9720   20.3850 H   0  0  0  0  0  0  0  0  0  0  0  0
  1  2  1  0
  1  4  1  0
  2  5  1  0
  3  7  1  0
  4 55  1  0
  4  3  1  0
  5 10  1  0
  5  7  1  0
  7  8  1  1
  7  6  1  0
 10  9  1  0
 11 10  1  0
 12 11  1  0
 12 13  1  0
 14 16  1  0
 14 13  1  0
 15 26  2  0
 16 21  1  0
 17 25  1  0
 17 27  1  0
 18 24  1  0
 18 20  1  0
 19 25  1  0
 20 19  1  0
 21 20  2  0
 22 23  1  0
 22 16  2  0
 23 18  2  0
 24 17  1  0
 25 15  1  0
 27 29  2  0
 28 27  1  0
 30 28  1  0
 31 40  2  0
 31 36  1  0
 32 28  1  0
 32 36  1  0
 33 32  1  0
 34 35  1  0
 34 33  1  0
 35 31  1  0
 36 37  2  0
 37 38  1  0
 39 38  2  0
 40 39  1  0
 41 15  1  0
 41 42  1  0
 41 51  1  0
 42 45  1  0
 43 47  1  0
 43 42  1  0
 44 43  2  0
 47 46  1  0
 47 49  1  0
 49 50  1  0
 49 48  1  0
 51 54  1  1
 51 52  1  0
 53 51  1  0
 55 64  1  0
 56 62  1  0
 57 62  1  0
 58 59  1  0
 58 57  1  0
 60 59  1  0
 60 69  1  0
 60 61  1  0
 62 61  1  0
 63 56  2  0
 64 56  1  0
 64 65  1  0
 66 67  2  0
 67 86  1  0
 68 71  1  0
 68 67  1  0
 69 70  1  0
 69 66  1  0
 70 68  2  0
 71 72  1  0
 72 73  2  0
 74 73  1  0
 75 74  2  0
 76 75  1  0
 76 71  2  0
 77 74  1  0
 77 78  1  0
 78 79  1  0
 79 80  2  0
 81 80  1  0
 81 85  1  0
 82 81  2  0
 83 78  2  0
 83 82  1  0
 84 83  1  0
 86 87  1  0
 87 90  1  0
 87 89  1  0
 88 86  2  0
 91 92  1  0
 91 66  1  0
 93 91  1  0
M  ISO  4  13 101  14 101  56 100  64 100
M  END
>  <TORSDO>  (52) 
F 21

>  <SCORE>  (52) 
-7.499

>  <name>  (52) 
51

>  <ligand_id>  (52) 
51

>  <original_smiles>  (52) 
[H]c1c([H])c([H])c2c(c1[H])C([H])([H])C([H])([H])C([H])([H])C2([H])N([H])C(=O)C1([H])N(C(=O)C([H])(N([H])C(=O)C([H])(N([H])C([H])([H])[H])C([H])([H])[H])C(C([H])([H])[H])(C([H])([H])[H])C([H])([H])[H])C([H])([H])c2c([H])c(OC([H])([H])C([H])([H])C([H])([H])C([H])(C([H])([H])[H])C3([H])C([H])([H])C([H])([H])C([H])(C([H])([H])N([H])C(=O)N4C([H])([H])C([H])([H])C([H])([H])C([H])(n5nc(-c6c([H])c([H])c(Oc7c([H])c([H])c(F)c([H])c7F)c([H])c6[H])c(C(=O)N([H])[H])c5N([H])[H])C4([H])[H])C([H])([H])[N+]3([H])C([H])([H])[H])c([H])c([H])c2C1([H])[H]

>  <smiles>  (52) 
[H]c1c([H])c([H])c2c(c1[H])C([H])([H])C([H])([H])C([H])([H])C2([H])N([H])C(=O)C1([H])N(C(=O)C([H])(N([H])C(=O)C([H])(N([H])C([H])([H])[H])C([H])([H])[H])C(C([H])([H])[H])(C([H])([H])[H])C([H])([H])[H])C([H])([H])c2c([H])c(OC([H])([H])C([H])([H])C([H])([H])C([H])(C([H])([H])[H])C3([H])C([H])([H])C([H])([H])C([H])(C([H])([H])N([H])C(=O)N4C([H])([H])C([H])([H])C([H])([H])C([H])(n5nc(-c6c([H])c([H])c(Oc7c([H])c([H])c(F)c([H])c7F)c([H])c6[H])c(C(=O)N([H])[H])c5N([H])[H])C4([H])[H])C([H])([H])[N+]3([H])C([H])([H])[H])c([H])c([H])c2C1([H])[H]

$$$$
52:0:0
     RDKit          3D

 99108  0  0  1  0  0  0  0  0999 V2000
  -31.2850  -22.2790   21.7390 C   0  0  0  0  0  3  0  0  0  0  0  0
  -30.5270  -23.4730   21.7170 C   0  0  0  0  0  3  0  0  0  0  0  0
  -30.9880  -21.5640   20.6150 C   0  0  0  0  0  0  0  0  0  0  0  0
  -29.7990  -23.5130   20.5590 C   0  0  0  0  0  0  0  0  0  0  0  0
  -30.0990  -22.3340   19.8420 N   0  0  0  0  0  0  0  0  0  0  0  0
  -28.9070  -20.6470   18.3750 C   0  0  0  0  0  1  0  0  0  0  0  0
  -30.7700  -22.1740   17.4630 C   0  0  0  0  0  1  0  0  0  0  0  0
  -29.6290  -22.0060   18.4840 C   0  0  0  0  0  3  0  0  0  0  0  0
  -31.5160  -20.1930   20.2670 C   0  0  0  0  0  2  0  0  0  0  0  0
  -30.9140  -19.1860   21.1650 N   0  0  0  0  0  4  0  0  0  0  0  0
  -30.0490  -19.5750   21.5000 H   0  0  0  0  0  0  0  0  0  0  0  0
  -31.5340  -19.1070   21.9520 H   0  0  0  0  0  0  0  0  0  0  0  0
  -30.6750  -17.8310   20.6070 C   0  0  0  0  0  2  0  0  0  0  0  0
  -30.4860  -16.7960   21.7420 C   0  0  0  0  0  2  0  0  0  0  0  0
  -30.6880  -14.5760   20.5190 C   0  0  0  0  0  0  0  0  0  0  0  0
  -30.3940  -12.4590   19.2730 C   0  0  0  0  0  2  0  0  0  0  0  0
  -29.4380  -12.6710   18.0800 C   0  0  0  0  0  2  0  0  0  0  0  0
  -27.9680  -12.5180   18.5190 C   0  0  0  0  0  2  0  0  0  0  0  0
  -27.6350  -13.3350   19.7960 C   0  0  0  0  0  3  0  0  0  0  0  0
  -28.6920  -13.0790   20.8920 C   0  0  0  0  0  2  0  0  0  0  0  0
  -30.0190  -13.4060   20.3330 N   0  0  0  0  0  0  0  0  0  0  0  0
  -31.7560  -14.8490   19.9630 O   0  0  0  0  0  0  0  0  0  0  0  0
  -30.0610  -15.4560   21.3150 N   0  0  0  0  0  0  0  0  0  0  0  0
  -29.2030  -15.1170   21.7280 H   0  0  0  0  0  0  0  0  0  0  0  0
  -25.2360  -13.9360   20.5100 C   0  0  0  0  0  0  0  0  0  0  0  0
  -24.1680  -13.1560   20.8760 C   0  0  0  0  0  0  0  0  0  0  0  0
  -24.6320  -11.8070   20.8300 C   0  0  0  0  0  0  0  0  0  0  0  0
  -26.2820  -13.0570   20.2710 N   0  0  0  0  0  0  0  0  0  0  0  0
  -25.9210  -11.7720   20.5160 N   0  0  0  0  0  0  0  0  0  0  0  0
  -23.9080  -10.5410   21.0120 C   0  0  0  0  0  0  0  0  0  0  0  0
  -24.3540   -9.5610   21.9260 C   0  0  0  0  0  3  0  0  0  0  0  0
  -23.6320   -8.3600   22.0950 C   0  0  0  0  0  3  0  0  0  0  0  0
  -22.4520   -8.1310   21.3490 C   0  0  0  0  0  0  0  0  0  0  0  0
  -22.0260   -9.0990   20.4230 C   0  0  0  0  0  3  0  0  0  0  0  0
  -22.7480  -10.2930   20.2520 C   0  0  0  0  0  3  0  0  0  0  0  0
  -21.7000   -6.9830   21.4300 O   0  0  0  0  0  0  0  0  0  0  0  0
  -21.6720   -6.2190   22.5680 C   0  0  0  0  0  0  0  0  0  0  0  0
  -21.2830   -6.7540   23.8160 C   0  0  0  0  0  3  0  0  0  0  0  0
  -21.2020   -5.9160   24.9470 C   0  0  0  0  0  3  0  0  0  0  0  0
  -21.4990   -4.5460   24.8300 C   0  0  0  0  0  0  0  0  0  0  0  0
  -21.8790   -4.0090   23.5870 C   0  0  0  0  0  3  0  0  0  0  0  0
  -21.9640   -4.8440   22.4600 C   0  0  0  0  0  0  0  0  0  0  0  0
  -22.3120   -4.3190   21.2600 F   0  0  0  0  0  0  0  0  0  0  0  0
  -21.4130   -3.7390   25.9140 F   0  0  0  0  0  0  0  0  0  0  0  0
  -22.7720  -13.6300   21.1580 C   0  0  0  0  0  0  0  0  0  0  0  0
  -22.0480  -12.9240   22.0210 N   0  0  0  0  0  0  0  0  0  0  0  0
  -22.3290  -14.6570   20.6480 O   0  0  0  0  0  0  0  0  0  0  0  0
  -22.4180  -12.0920   22.4560 H   0  0  0  0  0  0  0  0  0  0  0  0
  -21.1100  -13.2210   22.2500 H   0  0  0  0  0  0  0  0  0  0  0  0
  -25.4000  -15.3060   20.3450 N   0  0  0  0  0  0  0  0  0  0  0  0
  -24.6390  -15.9660   20.4660 H   0  0  0  0  0  0  0  0  0  0  0  0
  -26.2540  -15.7420   20.0170 H   0  0  0  0  0  0  0  0  0  0  0  0
  -28.8400  -24.6160   20.1130 C   0  0  0  0  0  3  0  0  0  0  0  0
  -27.3630  -24.2560   20.4120 C   0  0  0  0  0  2  0  0  0  0  0  0
  -25.9060  -22.3530   19.3160 C   0  0  0  0  0  2  0  0  0  0  0  0
  -25.0610  -23.5990   19.3750 C   0  0  0  0  0  2  0  0  0  0  0  0
  -26.5650  -23.7110   19.2430 C   0  0  0  0  0  3  0  0  0  0  0  0
  -29.1410  -25.9960   20.7760 C   0  0  0  0  0  2  0  0  0  0  0  0
  -28.8000  -27.1060   19.9420 O   0  0  0  0  0  0  0  0  0  0  0  0
  -24.6890  -31.9070   23.3120 C   0  0  0  0  0  0  0  0  0  0  0  0
  -27.5770  -27.7210   20.1000 C   0  0  0  0  0  0  0  0  0  0  0  0
  -23.5760  -30.5480   21.5700 C   0  0  0  0  0  3  0  0  0  0  0  0
  -25.1220  -29.1240   20.1230 C   0  0  0  0  0  0  0  0  0  0  0  0
  -26.0890  -31.0010   21.4600 C   0  0  0  0  0  2  0  0  0  0  0  0
  -26.2430  -29.6610   20.7720 C   0  0  0  0  0  0  0  0  0  0  0  0
  -27.4720  -28.9630   20.7650 C   0  0  0  0  0  3  0  0  0  0  0  0
  -26.4430  -27.1920   19.4510 C   0  0  0  0  0  3  0  0  0  0  0  0
  -25.2120  -27.8810   19.4680 C   0  0  0  0  0  3  0  0  0  0  0  0
  -23.8470  -29.9360   20.1680 C   0  0  0  0  0  2  0  0  0  0  0  0
  -24.8000  -31.1640   22.1740 N   0  0  0  0  0  0  0  0  0  0  0  0
  -23.5850  -32.1200   23.8320 O   0  0  0  0  0  0  0  0  0  0  0  0
  -22.9320  -29.4650   22.4630 C   0  0  0  0  0  0  0  0  0  0  0  0
  -21.6080  -29.2800   22.3180 N   0  0  0  0  0  0  0  0  0  0  0  0
  -23.6170  -28.7960   23.2420 O   0  0  0  0  0  0  0  0  0  0  0  0
  -21.1150  -29.8780   21.6690 H   0  0  0  0  0  0  0  0  0  0  0  0
  -18.2370  -28.0510   22.7490 C   0  0  0  0  0  0  0  0  0  0  0  0
  -20.7970  -28.2850   23.0180 C   0  0  0  0  0  3  0  0  0  0  0  0
  -20.8950  -26.9040   22.3290 C   0  0  0  0  0  2  0  0  0  0  0  0
  -19.7830  -26.6620   21.3040 C   0  0  0  0  0  2  0  0  0  0  0  0
  -18.4060  -26.7580   21.9700 C   0  0  0  0  0  2  0  0  0  0  0  0
  -19.3610  -28.7770   23.2270 C   0  0  0  0  0  0  0  0  0  0  0  0
  -19.1530  -29.9900   23.9180 C   0  0  0  0  0  3  0  0  0  0  0  0
  -17.8520  -30.4810   24.1350 C   0  0  0  0  0  3  0  0  0  0  0  0
  -16.7410  -29.7510   23.6740 C   0  0  0  0  0  3  0  0  0  0  0  0
  -16.9340  -28.5380   22.9880 C   0  0  0  0  0  3  0  0  0  0  0  0
  -25.9350  -32.5460   23.9990 C   0  0  0  0  0  3  0  0  0  0  0  0
  -26.4200  -31.7510   25.2730 C   0  0  1  0  0  0  0  0  0  0  0  0
  -25.2920  -31.4610   26.2900 C   0  0  0  0  0  1  0  0  0  0  0  0
  -27.0410  -30.3960   24.8620 C   0  0  0  0  0  1  0  0  0  0  0  0
  -27.5280  -32.5510   25.9960 C   0  0  0  0  0  1  0  0  0  0  0  0
  -25.5910  -33.9300   24.3480 N   0  0  0  0  0  0  0  0  0  0  0  0
  -25.9320  -35.0040   23.6220 C   0  0  0  0  0  0  0  0  0  0  0  0
  -26.6420  -34.9350   22.6140 O   0  0  0  0  0  0  0  0  0  0  0  0
  -24.9690  -34.0600   25.1320 H   0  0  0  0  0  0  0  0  0  0  0  0
  -24.1790  -36.7690   23.2640 C   0  0  0  0  0  1  0  0  0  0  0  0
  -25.4080  -36.3720   24.0950 C   0  0  0  0  0  3  0  0  0  0  0  0
  -27.5030  -37.2820   24.9970 C   0  0  0  0  0  1  0  0  0  0  0  0
  -26.4220  -37.4460   24.0280 N   0  0  0  0  0  0  0  0  0  0  0  0
  -25.9930  -38.3520   24.1890 H   0  0  0  0  0  0  0  0  0  0  0  0
  2  1  1  0
  3  1  2  0
  4  2  2  0
  5  4  1  0
  5  3  1  0
  6  8  1  0
  7  8  1  0
  8  5  1  0
  9  3  1  0
  9 10  1  0
 10 11  1  0
 10 12  1  0
 13 10  1  0
 13 14  1  0
 15 23  1  0
 16 21  1  0
 17 18  1  0
 17 16  1  0
 19 18  1  0
 19 28  1  0
 19 20  1  0
 21 15  1  0
 21 20  1  0
 22 15  2  0
 23 24  1  0
 23 14  1  0
 25 26  2  0
 26 45  1  0
 27 26  1  0
 27 30  1  0
 28 25  1  0
 28 29  1  0
 29 27  2  0
 30 31  1  0
 31 32  2  0
 33 36  1  0
 33 32  1  0
 34 33  2  0
 35 34  1  0
 35 30  2  0
 36 37  1  0
 37 38  1  0
 38 39  2  0
 40 39  1  0
 40 44  1  0
 41 40  2  0
 42 37  2  0
 42 41  1  0
 43 42  1  0
 45 46  1  0
 46 49  1  0
 46 48  1  0
 47 45  2  0
 50 51  1  0
 50 25  1  0
 52 50  1  0
 53 54  1  0
 53  4  1  0
 53 58  1  0
 55 56  1  0
 57 55  1  0
 57 56  1  0
 57 54  1  0
 59 61  1  0
 59 58  1  0
 60 71  2  0
 61 66  1  0
 62 70  1  0
 62 72  1  0
 63 69  1  0
 63 65  1  0
 64 70  1  0
 65 64  1  0
 66 65  2  0
 67 68  1  0
 67 61  2  0
 68 63  2  0
 69 62  1  0
 70 60  1  0
 72 74  2  0
 73 72  1  0
 75 73  1  0
 76 85  2  0
 76 81  1  0
 77 73  1  0
 77 81  1  0
 78 77  1  0
 79 80  1  0
 79 78  1  0
 80 76  1  0
 81 82  2  0
 82 83  1  0
 84 83  2  0
 85 84  1  0
 86 60  1  0
 86 91  1  0
 86 87  1  0
 87 90  1  1
 87 88  1  0
 89 87  1  0
 91 94  1  0
 92 96  1  0
 92 91  1  0
 93 92  2  0
 96 95  1  0
 98 96  1  0
 98 99  1  0
 98 97  1  0
M  ISO  4  15 100  23 100  58 101  59 101
M  END
>  <TORSDO>  (53) 
F 25

>  <SCORE>  (53) 
-12.349

>  <name>  (53) 
52

>  <ligand_id>  (53) 
52

>  <original_smiles>  (53) 
[H]c1c([H])c([H])c2c(c1[H])C([H])([H])C([H])([H])C([H])([H])C2([H])N([H])C(=O)C1([H])N(C(=O)C([H])(N([H])C(=O)C([H])(N([H])C([H])([H])[H])C([H])([H])[H])C(C([H])([H])[H])(C([H])([H])[H])C([H])([H])[H])C([H])([H])c2c([H])c(OC([H])([H])C([H])(c3c([H])c([H])c(C([H])([H])[N+]([H])([H])C([H])([H])C([H])([H])N([H])C(=O)N4C([H])([H])C([H])([H])C([H])([H])C([H])(n5nc(-c6c([H])c([H])c(Oc7c([H])c([H])c(F)c([H])c7F)c([H])c6[H])c(C(=O)N([H])[H])c5N([H])[H])C4([H])[H])n3C([H])(C([H])([H])[H])C([H])([H])[H])C([H])([H])C3([H])C([H])([H])C3([H])[H])c([H])c([H])c2C1([H])[H]

>  <smiles>  (53) 
[H]c1c([H])c([H])c2c(c1[H])C([H])([H])C([H])([H])C([H])([H])C2([H])N([H])C(=O)C1([H])N(C(=O)C([H])(N([H])C(=O)C([H])(N([H])C([H])([H])[H])C([H])([H])[H])C(C([H])([H])[H])(C([H])([H])[H])C([H])([H])[H])C([H])([H])c2c([H])c(OC([H])([H])C([H])(c3c([H])c([H])c(C([H])([H])[N+]([H])([H])C([H])([H])C([H])([H])N([H])C(=O)N4C([H])([H])C([H])([H])C([H])([H])C([H])(n5nc(-c6c([H])c([H])c(Oc7c([H])c([H])c(F)c([H])c7F)c([H])c6[H])c(C(=O)N([H])[H])c5N([H])[H])C4([H])[H])n3C([H])(C([H])([H])[H])C([H])([H])[H])C([H])([H])C3([H])C([H])([H])C3([H])[H])c([H])c([H])c2C1([H])[H]

$$$$
53:0:0
     RDKit          3D

 88 96  0  0  1  0  0  0  0  0999 V2000
  -28.7740  -20.5870   21.0550 C   0  0  0  0  0  3  0  0  0  0  0  0
  -29.3240  -22.0210   18.8500 C   0  0  0  0  0  3  0  0  0  0  0  0
  -28.6460  -22.8930   19.7980 C   0  0  0  0  0  0  0  0  0  0  0  0
  -28.3860  -22.0140   20.9340 C   0  0  0  0  0  0  0  0  0  0  0  0
  -29.4520  -19.8010   20.0450 C   0  0  0  0  0  0  0  0  0  0  0  0
  -29.7000  -20.6500   18.9650 N   0  0  0  0  0  0  0  0  0  0  0  0
  -27.5030  -22.6830   22.2590 Cl  0  0  0  0  0  0  0  0  0  0  0  0
  -27.9170  -24.4450   19.4720 C   0  0  0  0  0  2  0  0  0  0  0  0
  -28.2440  -26.0180   19.7590 O   0  0  0  0  0  0  0  0  0  0  0  0
  -24.5260  -31.7000   23.0050 C   0  0  0  0  0  0  0  0  0  0  0  0
  -27.2170  -27.0940   19.7330 C   0  0  0  0  0  0  0  0  0  0  0  0
  -23.3660  -30.3530   21.3020 C   0  0  0  0  0  3  0  0  0  0  0  0
  -24.8590  -28.8840   19.7880 C   0  0  0  0  0  0  0  0  0  0  0  0
  -25.9210  -30.6660   21.1500 C   0  0  0  0  0  2  0  0  0  0  0  0
  -26.0340  -29.2960   20.4280 C   0  0  0  0  0  0  0  0  0  0  0  0
  -27.2090  -28.4200   20.3830 C   0  0  0  0  0  3  0  0  0  0  0  0
  -26.0100  -26.8380   19.0410 C   0  0  0  0  0  3  0  0  0  0  0  0
  -24.8700  -27.6770   19.0730 C   0  0  0  0  0  3  0  0  0  0  0  0
  -23.6090  -29.7540   19.8890 C   0  0  0  0  0  2  0  0  0  0  0  0
  -24.6250  -30.9310   21.8740 N   0  0  0  0  0  0  0  0  0  0  0  0
  -23.4310  -31.9240   23.5480 O   0  0  0  0  0  0  0  0  0  0  0  0
  -22.7150  -29.2820   22.2170 C   0  0  0  0  0  0  0  0  0  0  0  0
  -21.3860  -29.0930   22.1050 N   0  0  0  0  0  0  0  0  0  0  0  0
  -23.4100  -28.6260   22.9950 O   0  0  0  0  0  0  0  0  0  0  0  0
  -20.8760  -29.6810   21.4600 H   0  0  0  0  0  0  0  0  0  0  0  0
  -18.0360  -27.8120   22.6350 C   0  0  0  0  0  0  0  0  0  0  0  0
  -20.6000  -28.0930   22.8360 C   0  0  0  0  0  3  0  0  0  0  0  0
  -20.6990  -26.7070   22.1570 C   0  0  0  0  0  2  0  0  0  0  0  0
  -19.5660  -26.4430   21.1590 C   0  0  0  0  0  2  0  0  0  0  0  0
  -18.2050  -26.5190   21.8560 C   0  0  0  0  0  2  0  0  0  0  0  0
  -19.1580  -28.5590   23.0810 C   0  0  0  0  0  0  0  0  0  0  0  0
  -18.9410  -29.7690   23.7740 C   0  0  0  0  0  3  0  0  0  0  0  0
  -17.6340  -30.2330   24.0230 C   0  0  0  0  0  3  0  0  0  0  0  0
  -16.5280  -29.4840   23.5880 C   0  0  0  0  0  3  0  0  0  0  0  0
  -16.7300  -28.2740   22.9010 C   0  0  0  0  0  3  0  0  0  0  0  0
  -25.7800  -32.3520   23.6630 C   0  0  0  0  0  3  0  0  0  0  0  0
  -25.4280  -33.7320   24.0420 N   0  0  0  0  0  0  0  0  0  0  0  0
  -25.7160  -34.8210   23.3190 C   0  0  0  0  0  0  0  0  0  0  0  0
  -26.3640  -34.7720   22.2710 O   0  0  0  0  0  0  0  0  0  0  0  0
  -24.8520  -33.8400   24.8630 H   0  0  0  0  0  0  0  0  0  0  0  0
  -23.9200  -36.5700   23.0790 C   0  0  0  0  0  1  0  0  0  0  0  0
  -25.2010  -36.1800   23.8350 C   0  0  0  0  0  3  0  0  0  0  0  0
  -27.3270  -37.1200   24.6300 C   0  0  0  0  0  1  0  0  0  0  0  0
  -26.1940  -37.2720   23.7200 N   0  0  0  0  0  0  0  0  0  0  0  0
  -25.7610  -38.1740   23.9010 H   0  0  0  0  0  0  0  0  0  0  0  0
  -26.2980  -31.5560   24.9240 C   0  0  1  0  0  0  0  0  0  0  0  0
  -25.2020  -31.2700   25.9780 C   0  0  0  0  0  1  0  0  0  0  0  0
  -26.9110  -30.2000   24.5050 C   0  0  0  0  0  1  0  0  0  0  0  0
  -27.4290  -32.3540   25.6170 C   0  0  0  0  0  1  0  0  0  0  0  0
  -30.2130  -18.2410   20.1690 C   0  0  0  0  0  2  0  0  0  0  0  0
  -30.5150  -15.3850   20.1790 C   0  0  0  0  0  0  0  0  0  0  0  0
  -30.4560  -12.9390   19.3400 C   0  0  0  0  0  2  0  0  0  0  0  0
  -29.5220  -12.7360   18.1220 C   0  0  0  0  0  2  0  0  0  0  0  0
  -28.0760  -12.4830   18.5810 C   0  0  0  0  0  2  0  0  0  0  0  0
  -27.6420  -13.4640   19.6990 C   0  0  0  0  0  3  0  0  0  0  0  0
  -28.7010  -13.6180   20.8110 C   0  0  0  0  0  2  0  0  0  0  0  0
  -29.9310  -14.0920   20.1580 N   0  0  0  0  0  0  0  0  0  0  0  0
  -31.7280  -15.3780   19.9290 O   0  0  0  0  0  0  0  0  0  0  0  0
  -29.7800  -16.6570   20.2810 N   0  0  0  0  0  0  0  0  0  0  0  0
  -28.7930  -16.5350   20.4500 H   0  0  0  0  0  0  0  0  0  0  0  0
  -25.2920  -14.0430   20.4990 C   0  0  0  0  0  0  0  0  0  0  0  0
  -24.2270  -13.2740   20.8740 C   0  0  0  0  0  0  0  0  0  0  0  0
  -24.6750  -11.9180   20.8120 C   0  0  0  0  0  0  0  0  0  0  0  0
  -26.3190  -13.1590   20.2230 N   0  0  0  0  0  0  0  0  0  0  0  0
  -25.9610  -11.8740   20.4800 N   0  0  0  0  0  0  0  0  0  0  0  0
  -23.9360  -10.6620   20.9920 C   0  0  0  0  0  0  0  0  0  0  0  0
  -24.3540   -9.6830   21.9190 C   0  0  0  0  0  3  0  0  0  0  0  0
  -23.6120   -8.4930   22.0880 C   0  0  0  0  0  3  0  0  0  0  0  0
  -22.4380   -8.2740   21.3290 C   0  0  0  0  0  0  0  0  0  0  0  0
  -22.0390   -9.2430   20.3900 C   0  0  0  0  0  3  0  0  0  0  0  0
  -22.7810  -10.4230   20.2200 C   0  0  0  0  0  3  0  0  0  0  0  0
  -21.6680   -7.1400   21.4070 O   0  0  0  0  0  0  0  0  0  0  0  0
  -21.5870   -6.4040   22.5620 C   0  0  0  0  0  0  0  0  0  0  0  0
  -21.0950   -6.9560   23.7650 C   0  0  0  0  0  3  0  0  0  0  0  0
  -20.9630   -6.1460   24.9110 C   0  0  0  0  0  3  0  0  0  0  0  0
  -21.3140   -4.7840   24.8540 C   0  0  0  0  0  0  0  0  0  0  0  0
  -21.8010   -4.2310   23.6560 C   0  0  0  0  0  3  0  0  0  0  0  0
  -21.9340   -5.0390   22.5120 C   0  0  0  0  0  0  0  0  0  0  0  0
  -22.3820   -4.4960   21.3550 F   0  0  0  0  0  0  0  0  0  0  0  0
  -21.1820   -4.0020   25.9510 F   0  0  0  0  0  0  0  0  0  0  0  0
  -22.8410  -13.7630   21.1740 C   0  0  0  0  0  0  0  0  0  0  0  0
  -22.1240  -13.0720   22.0530 N   0  0  0  0  0  0  0  0  0  0  0  0
  -22.4040  -14.7940   20.6630 O   0  0  0  0  0  0  0  0  0  0  0  0
  -22.4930  -12.2380   22.4850 H   0  0  0  0  0  0  0  0  0  0  0  0
  -21.1950  -13.3820   22.3000 H   0  0  0  0  0  0  0  0  0  0  0  0
  -25.4680  -15.4150   20.3400 N   0  0  0  0  0  0  0  0  0  0  0  0
  -24.7040  -16.0720   20.4570 H   0  0  0  0  0  0  0  0  0  0  0  0
  -26.3040  -15.8440   19.9620 H   0  0  0  0  0  0  0  0  0  0  0  0
  2  6  2  0
  2  3  1  0
  3  4  2  0
  4  1  1  0
  4  7  1  0
  5 50  1  0
  5  1  2  0
  6  5  1  0
  8  9  1  0
  8  3  1  0
 10 21  2  0
 11  9  1  0
 11 16  1  0
 12 20  1  0
 12 22  1  0
 13 19  1  0
 13 15  1  0
 14 20  1  0
 15 14  1  0
 16 15  2  0
 17 18  1  0
 17 11  2  0
 18 13  2  0
 19 12  1  0
 20 10  1  0
 22 24  2  0
 23 22  1  0
 25 23  1  0
 26 35  2  0
 26 31  1  0
 27 23  1  0
 27 31  1  0
 28 27  1  0
 29 30  1  0
 29 28  1  0
 30 26  1  0
 31 32  2  0
 32 33  1  0
 34 33  2  0
 35 34  1  0
 36 10  1  0
 36 37  1  0
 36 46  1  0
 37 40  1  0
 38 42  1  0
 38 37  1  0
 39 38  2  0
 42 41  1  0
 44 42  1  0
 44 45  1  0
 44 43  1  0
 46 49  1  1
 46 47  1  0
 48 46  1  0
 50 59  1  0
 51 59  1  0
 52 57  1  0
 53 54  1  0
 53 52  1  0
 55 54  1  0
 55 64  1  0
 55 56  1  0
 57 51  1  0
 57 56  1  0
 58 51  2  0
 59 60  1  0
 61 62  2  0
 62 81  1  0
 63 62  1  0
 63 66  1  0
 64 65  1  0
 64 61  1  0
 65 63  2  0
 66 67  1  0
 67 68  2  0
 69 72  1  0
 69 68  1  0
 70 69  2  0
 71 70  1  0
 71 66  2  0
 72 73  1  0
 73 74  1  0
 74 75  2  0
 76 75  1  0
 76 80  1  0
 77 76  2  0
 78 73  2  0
 78 77  1  0
 79 78  1  0
 81 82  1  0
 82 85  1  0
 82 84  1  0
 83 81  2  0
 86 87  1  0
 86 61  1  0
 88 86  1  0
M  ISO  4   8 101   9 101  51 100  59 100
M  END
>  <TORSDO>  (54) 
F 18

>  <SCORE>  (54) 
-15.143

>  <name>  (54) 
53

>  <ligand_id>  (54) 
53

>  <original_smiles>  (54) 
[H]c1nc(C([H])([H])N([H])C(=O)N2C([H])([H])C([H])([H])C([H])([H])C([H])(n3nc(-c4c([H])c([H])c(Oc5c([H])c([H])c(F)c([H])c5F)c([H])c4[H])c(C(=O)N([H])[H])c3N([H])[H])C2([H])[H])c([H])c(Cl)c1C([H])([H])Oc1c([H])c([H])c2c(c1[H])C([H])([H])N(C(=O)C([H])(N([H])C(=O)C([H])(N([H])C([H])([H])[H])C([H])([H])[H])C(C([H])([H])[H])(C([H])([H])[H])C([H])([H])[H])C([H])(C(=O)N([H])C1([H])c3c([H])c([H])c([H])c([H])c3C([H])([H])C([H])([H])C1([H])[H])C2([H])[H]

>  <smiles>  (54) 
[H]c1nc(C([H])([H])N([H])C(=O)N2C([H])([H])C([H])([H])C([H])([H])C([H])(n3nc(-c4c([H])c([H])c(Oc5c([H])c([H])c(F)c([H])c5F)c([H])c4[H])c(C(=O)N([H])[H])c3N([H])[H])C2([H])[H])c([H])c(Cl)c1C([H])([H])Oc1c([H])c([H])c2c(c1[H])C([H])([H])N(C(=O)C([H])(N([H])C(=O)C([H])(N([H])C([H])([H])[H])C([H])([H])[H])C(C([H])([H])[H])(C([H])([H])[H])C([H])([H])[H])C([H])(C(=O)N([H])C1([H])c3c([H])c([H])c([H])c([H])c3C([H])([H])C([H])([H])C1([H])[H])C2([H])[H]

$$$$
54:0:0
     RDKit          3D

 97105  0  0  1  0  0  0  0  0999 V2000
  -26.3760  -18.7000   20.4350 O   0  0  0  0  0  0  0  0  0  0  0  0
  -26.5340  -17.0410   19.9630 C   0  0  0  0  0  0  0  0  0  0  0  0
  -26.9210  -16.8060   18.8150 O   0  0  0  0  0  0  0  0  0  0  0  0
  -26.7460  -14.6100   21.4450 C   0  0  0  0  0  3  0  0  0  0  0  0
  -24.8240  -13.4120   21.1670 C   0  0  0  0  0  2  0  0  0  0  0  0
  -25.7860  -15.6640   20.8400 C   0  0  0  0  0  3  0  0  0  0  0  0
  -26.3640  -13.2080   21.7600 C   0  0  0  0  0  0  0  0  0  0  0  0
  -24.6700  -14.7680   20.3710 N   0  0  0  0  0  4  0  0  0  0  0  0
  -23.7780  -15.2580   20.6540 H   0  0  0  0  0  0  0  0  0  0  0  0
  -24.7550  -14.3780   19.4250 H   0  0  0  0  0  0  0  0  0  0  0  0
  -27.4840  -12.2560   22.6270 C   0  0  0  0  0  2  0  0  0  0  0  0
  -30.1500  -10.8550   22.3900 C   0  0  0  0  0  0  0  0  0  0  0  0
  -30.6030   -8.3050   22.7080 C   0  0  0  0  0  2  0  0  0  0  0  0
  -30.2070   -7.5900   21.3700 C   0  0  0  0  0  2  0  0  0  0  0  0
  -28.6850   -7.6380   21.0530 C   0  0  0  0  0  2  0  0  0  0  0  0
  -28.1310   -9.0060   21.4040 C   0  0  0  0  0  3  0  0  0  0  0  0
  -28.4550   -9.2380   22.8610 C   0  0  0  0  0  2  0  0  0  0  0  0
  -29.8260   -9.5930   22.8240 N   0  0  0  0  0  0  0  0  0  0  0  0
  -31.3860  -11.0340   22.1540 O   0  0  0  0  0  0  0  0  0  0  0  0
  -29.0360  -11.8020   22.1360 N   0  0  0  0  0  0  0  0  0  0  0  0
  -29.4650  -12.6910   21.8300 H   0  0  0  0  0  0  0  0  0  0  0  0
  -26.0380  -10.0380   20.4190 C   0  0  0  0  0  0  0  0  0  0  0  0
  -24.7630   -9.6860   20.5310 C   0  0  0  0  0  3  0  0  0  0  0  0
  -24.6870   -8.6300   21.4680 C   0  0  0  0  0  0  0  0  0  0  0  0
  -26.7190   -9.1570   21.1990 N   0  0  0  0  0  0  0  0  0  0  0  0
  -25.8810   -8.3440   21.9220 N   0  0  0  0  0  0  0  0  0  0  0  0
  -23.5790   -7.8280   21.9830 C   0  0  0  0  0  0  0  0  0  0  0  0
  -23.3470   -7.5460   23.3740 C   0  0  0  0  0  3  0  0  0  0  0  0
  -22.3280   -6.6430   23.6970 C   0  0  0  0  0  3  0  0  0  0  0  0
  -21.5260   -6.0470   22.6890 C   0  0  0  0  0  0  0  0  0  0  0  0
  -21.7790   -6.3710   21.3350 C   0  0  0  0  0  3  0  0  0  0  0  0
  -22.7820   -7.2560   21.0200 C   0  0  0  0  0  3  0  0  0  0  0  0
  -20.5630   -5.1220   22.9230 O   0  0  0  0  0  0  0  0  0  0  0  0
  -19.7010   -5.2550   23.9810 C   0  0  0  0  0  0  0  0  0  0  0  0
  -18.8790   -6.3910   24.1460 C   0  0  0  0  0  3  0  0  0  0  0  0
  -17.9740   -6.4660   25.2230 C   0  0  0  0  0  3  0  0  0  0  0  0
  -17.8810   -5.4010   26.1370 C   0  0  0  0  0  0  0  0  0  0  0  0
  -18.6910   -4.2630   25.9830 C   0  0  0  0  0  3  0  0  0  0  0  0
  -19.6020   -4.1920   24.9040 C   0  0  0  0  0  0  0  0  0  0  0  0
  -20.3720   -3.0960   24.7420 F   0  0  0  0  0  0  0  0  0  0  0  0
  -17.0150   -5.4600   27.1700 F   0  0  0  0  0  0  0  0  0  0  0  0
  -23.5360  -10.3170   19.9910 C   0  0  0  0  0  2  0  0  0  0  0  0
  -23.5190  -11.1440   20.9210 N   0  0  0  0  0  0  0  0  0  0  0  0
  -23.3730  -10.9890   19.0380 O   0  0  0  0  0  1  0  0  0  0  0  0
  -24.3740  -10.5450   21.0930 H   0  0  0  0  0  0  0  0  0  0  0  0
  -23.8420  -12.0110   20.3340 H   0  0  0  0  0  0  0  0  0  0  0  0
  -26.7250  -11.1030   19.8130 N   0  0  0  0  0  0  0  0  0  0  0  0
  -26.3640  -11.6270   19.0190 H   0  0  0  0  0  0  0  0  0  0  0  0
  -27.7420  -10.9280   19.6710 H   0  0  0  0  0  0  0  0  0  0  0  0
  -27.2090  -20.1330   20.6480 C   0  0  0  0  0  2  0  0  0  0  0  0
  -25.0660  -22.4700   19.3650 C   0  0  0  0  0  2  0  0  0  0  0  0
  -25.9520  -22.3160   18.1260 C   0  0  0  0  0  2  0  0  0  0  0  0
  -26.0510  -22.7190   20.5600 C   0  0  0  0  0  2  0  0  0  0  0  0
  -27.3380  -21.8980   18.6350 C   0  0  0  0  0  2  0  0  0  0  0  0
  -27.3140  -21.9570   20.1720 C   0  0  2  0  0  0  0  0  0  0  0  0
  -28.5430  -23.2820   20.4540 C   0  0  0  0  0  2  0  0  0  0  0  0
  -28.6230  -24.9720   20.7360 O   0  0  0  0  0  0  0  0  0  0  0  0
  -24.9920  -31.0470   23.1580 C   0  0  0  0  0  0  0  0  0  0  0  0
  -27.7750  -26.1220   20.4660 C   0  0  0  0  0  0  0  0  0  0  0  0
  -23.9850  -29.4910   21.5560 C   0  0  0  0  0  3  0  0  0  0  0  0
  -25.5450  -27.8980   20.3930 C   0  0  0  0  0  0  0  0  0  0  0  0
  -26.5680  -29.8180   21.6340 C   0  0  0  0  0  2  0  0  0  0  0  0
  -26.7250  -28.3950   20.9520 C   0  0  0  0  0  0  0  0  0  0  0  0
  -27.8980  -27.5160   20.9290 C   0  0  0  0  0  3  0  0  0  0  0  0
  -26.6630  -25.7710   19.7780 C   0  0  0  0  0  3  0  0  0  0  0  0
  -25.5340  -26.5960   19.9090 C   0  0  0  0  0  3  0  0  0  0  0  0
  -24.3440  -28.7880   20.2660 C   0  0  0  0  0  2  0  0  0  0  0  0
  -25.1910  -30.1490   22.1540 N   0  0  0  0  0  0  0  0  0  0  0  0
  -23.8570  -31.2900   23.5770 O   0  0  0  0  0  0  0  0  0  0  0  0
  -23.2910  -28.4960   22.5350 C   0  0  0  0  0  0  0  0  0  0  0  0
  -22.0010  -28.1860   22.3010 N   0  0  0  0  0  0  0  0  0  0  0  0
  -23.9320  -27.9990   23.4610 O   0  0  0  0  0  0  0  0  0  0  0  0
  -21.5590  -28.6000   21.5000 H   0  0  0  0  0  0  0  0  0  0  0  0
  -18.6870  -26.6980   22.6730 C   0  0  0  0  0  0  0  0  0  0  0  0
  -21.1910  -27.2230   23.0730 C   0  0  0  0  0  3  0  0  0  0  0  0
  -21.4660  -25.7770   22.6110 C   0  0  0  0  0  2  0  0  0  0  0  0
  -20.4710  -25.2690   21.5620 C   0  0  0  0  0  2  0  0  0  0  0  0
  -19.0350  -25.3360   22.0910 C   0  0  0  0  0  2  0  0  0  0  0  0
  -19.7020  -27.5900   23.1120 C   0  0  0  0  0  0  0  0  0  0  0  0
  -19.3340  -28.8530   23.6200 C   0  0  0  0  0  3  0  0  0  0  0  0
  -17.9790  -29.2270   23.7070 C   0  0  0  0  0  3  0  0  0  0  0  0
  -16.9770  -28.3330   23.2980 C   0  0  0  0  0  3  0  0  0  0  0  0
  -17.3300  -27.0730   22.7850 C   0  0  0  0  0  3  0  0  0  0  0  0
  -26.1590  -31.8340   23.8240 C   0  0  0  0  0  3  0  0  0  0  0  0
  -25.6720  -33.2190   24.0540 N   0  0  0  0  0  0  0  0  0  0  0  0
  -25.9980  -34.2810   23.3140 C   0  0  0  0  0  0  0  0  0  0  0  0
  -26.7580  -34.2020   22.3490 O   0  0  0  0  0  0  0  0  0  0  0  0
  -24.9840  -33.3520   24.7820 H   0  0  0  0  0  0  0  0  0  0  0  0
  -24.1560  -35.9140   22.8020 C   0  0  0  0  0  1  0  0  0  0  0  0
  -25.3810  -35.6550   23.7000 C   0  0  0  0  0  3  0  0  0  0  0  0
  -27.3950  -36.6730   24.6560 C   0  0  0  0  0  1  0  0  0  0  0  0
  -26.3580  -36.7700   23.6260 N   0  0  0  0  0  0  0  0  0  0  0  0
  -25.9170  -37.6830   23.6990 H   0  0  0  0  0  0  0  0  0  0  0  0
  -26.6290  -31.2350   25.2020 C   0  0  1  0  0  0  0  0  0  0  0  0
  -25.4370  -30.9770   26.1630 C   0  0  0  0  0  1  0  0  0  0  0  0
  -27.4110  -29.9160   25.0940 C   0  0  0  0  0  1  0  0  0  0  0  0
  -27.6510  -32.2230   25.8340 C   0  0  0  0  0  1  0  0  0  0  0  0
  1 50  1  0
  2  1  1  0
  3  2  2  0
  4  7  2  0
  5  7  1  0
  6  2  1  0
  6  4  1  0
  7 11  1  0
  8  9  1  0
  8  6  1  0
  8  5  1  0
 10  8  1  0
 12 18  1  0
 13 18  1  0
 14 13  1  0
 15 14  1  0
 16 15  1  0
 16 17  1  0
 18 17  1  0
 19 12  2  0
 20 12  1  0
 20 11  1  0
 21 20  1  0
 22 23  2  0
 22 25  1  0
 23 24  1  0
 24 26  2  0
 24 27  1  0
 25 16  1  0
 25 26  1  0
 27 28  1  0
 28 29  2  0
 30 33  1  0
 30 29  1  0
 31 30  2  0
 32 31  1  0
 32 27  2  0
 33 34  1  0
 34 35  2  0
 34 39  1  0
 35 36  1  0
 36 37  2  0
 37 41  1  0
 38 37  1  0
 39 38  2  0
 40 39  1  0
 42 43  1  0
 43 45  1  0
 44 42  1  0
 46 43  1  0
 47 22  1  0
 48 47  1  0
 49 47  1  0
 51 53  1  0
 52 54  1  0
 52 51  1  0
 54 55  1  0
 55 56  1  1
 55 53  1  0
 55 50  1  0
 56 57  1  0
 58 69  2  0
 59 57  1  0
 59 64  1  0
 60 68  1  0
 60 70  1  0
 61 63  1  0
 62 68  1  0
 63 62  1  0
 64 63  2  0
 65 66  1  0
 65 59  2  0
 66 61  2  0
 67 61  1  0
 67 60  1  0
 68 58  1  0
 70 72  2  0
 71 70  1  0
 73 71  1  0
 74 83  2  0
 74 79  1  0
 75 71  1  0
 75 79  1  0
 76 75  1  0
 77 78  1  0
 77 76  1  0
 78 74  1  0
 79 80  2  0
 80 81  1  0
 82 81  2  0
 83 82  1  0
 84 58  1  0
 84 85  1  0
 84 94  1  0
 85 88  1  0
 86 90  1  0
 86 85  1  0
 87 86  2  0
 90 89  1  0
 92 93  1  0
 92 90  1  0
 92 91  1  0
 94 97  1  1
 94 95  1  0
 96 94  1  0
M  ISO  4  12 100  20 100  56 101  57 101
M  END
>  <TORSDO>  (55) 
F 22

>  <SCORE>  (55) 
-1.128

>  <name>  (55) 
54

>  <ligand_id>  (55) 
54

>  <original_smiles>  (55) 
[H]c1c([H])c([H])c2c(c1[H])C([H])([H])C([H])([H])C([H])([H])C2([H])N([H])C(=O)C1([H])N(C(=O)C([H])(N([H])C(=O)C([H])(N([H])C([H])([H])[H])C([H])([H])[H])C(C([H])([H])[H])(C([H])([H])[H])C([H])([H])[H])C([H])([H])c2c([H])c(OC([H])([H])C3(C([H])([H])OC(=O)C4([H])C([H])([H])C([H])(C([H])([H])N([H])C(=O)N5C([H])([H])C([H])([H])C([H])([H])C([H])(n6nc(-c7c([H])c([H])c(Oc8c([H])c([H])c(F)c([H])c8F)c([H])c7[H])c(C(=O)N([H])[H])c6N([H])[H])C5([H])[H])C([H])([H])[N+]4([H])[H])C([H])([H])C([H])([H])C([H])([H])C3([H])[H])c([H])c([H])c2C1([H])[H]

>  <smiles>  (55) 
[H]c1c([H])c([H])c2c(c1[H])C([H])([H])C([H])([H])C([H])([H])C2([H])N([H])C(=O)C1([H])N(C(=O)C([H])(N([H])C(=O)C([H])(N([H])C([H])([H])[H])C([H])([H])[H])C(C([H])([H])[H])(C([H])([H])[H])C([H])([H])[H])C([H])([H])c2c([H])c(OC([H])([H])C3(C([H])([H])OC(=O)C4([H])C([H])([H])C([H])(C([H])([H])N([H])C(=O)N5C([H])([H])C([H])([H])C([H])([H])C([H])(n6nc(-c7c([H])c([H])c(Oc8c([H])c([H])c(F)c([H])c8F)c([H])c7[H])c(C(=O)N([H])[H])c6N([H])[H])C5([H])[H])C([H])([H])[N+]4([H])[H])C([H])([H])C([H])([H])C([H])([H])C3([H])[H])c([H])c([H])c2C1([H])[H]

$$$$
55:0:0
     RDKit          3D

 94103  0  0  1  0  0  0  0  0999 V2000
  -26.9390  -23.4170   20.3730 C   0  0  0  0  0  2  0  0  0  0  0  0
  -26.4380  -22.5240   19.2240 C   0  0  0  0  0  2  0  0  0  0  0  0
  -28.8400  -22.5060   19.1860 C   0  0  0  0  0  3  0  0  0  0  0  0
  -28.3280  -23.8710   19.9090 C   0  0  0  0  0  3  0  0  0  0  0  0
  -27.6320  -21.9600   18.5570 N   0  0  0  0  0  4  0  0  0  0  0  0
  -27.6300  -22.1700   17.5740 H   0  0  0  0  0  0  0  0  0  0  0  0
  -27.6940  -20.9590   18.6710 H   0  0  0  0  0  0  0  0  0  0  0  0
  -30.1180  -20.2360   22.1030 C   0  0  0  0  0  3  0  0  0  0  0  0
  -29.6920  -21.3670   21.3790 C   0  0  0  0  0  3  0  0  0  0  0  0
  -30.2990  -19.0030   21.4480 C   0  0  0  0  0  3  0  0  0  0  0  0
  -29.4370  -21.2660   19.9990 C   0  0  0  0  0  0  0  0  0  0  0  0
  -30.0530  -18.9050   20.0690 C   0  0  0  0  0  0  0  0  0  0  0  0
  -29.6040  -20.0280   19.3760 N   0  0  0  0  0  0  0  0  0  0  0  0
  -30.3810  -17.5440   19.3190 C   0  0  0  0  0  2  0  0  0  0  0  0
  -30.9020  -15.0420   19.8010 C   0  0  0  0  0  0  0  0  0  0  0  0
  -30.7060  -12.6930   18.9920 C   0  0  0  0  0  2  0  0  0  0  0  0
  -29.7430  -12.6710   17.7850 C   0  0  0  0  0  2  0  0  0  0  0  0
  -28.2840  -12.5180   18.2610 C   0  0  0  0  0  2  0  0  0  0  0  0
  -27.9270  -13.4920   19.4150 C   0  0  0  0  0  3  0  0  0  0  0  0
  -29.0110  -13.5000   20.5160 C   0  0  0  0  0  2  0  0  0  0  0  0
  -30.2930  -13.8100   19.8730 N   0  0  0  0  0  0  0  0  0  0  0  0
  -32.0640  -15.1290   19.3990 O   0  0  0  0  0  0  0  0  0  0  0  0
  -30.1220  -16.1750   19.9390 N   0  0  0  0  0  0  0  0  0  0  0  0
  -29.1890  -16.0360   20.2960 H   0  0  0  0  0  0  0  0  0  0  0  0
  -25.5850  -14.1270   20.2470 C   0  0  0  0  0  0  0  0  0  0  0  0
  -24.5200  -13.3730   20.6560 C   0  0  0  0  0  0  0  0  0  0  0  0
  -24.9510  -12.0110   20.5920 C   0  0  0  0  0  0  0  0  0  0  0  0
  -26.5990  -13.2270   19.9590 N   0  0  0  0  0  0  0  0  0  0  0  0
  -26.2260  -11.9490   20.2280 N   0  0  0  0  0  0  0  0  0  0  0  0
  -24.2060  -10.7630   20.8000 C   0  0  0  0  0  0  0  0  0  0  0  0
  -24.5920   -9.8270   21.7850 C   0  0  0  0  0  3  0  0  0  0  0  0
  -23.8480   -8.6450   21.9800 C   0  0  0  0  0  3  0  0  0  0  0  0
  -22.7020   -8.3890   21.1890 C   0  0  0  0  0  0  0  0  0  0  0  0
  -22.3350   -9.3130   20.1960 C   0  0  0  0  0  3  0  0  0  0  0  0
  -23.0790  -10.4880   20.0000 C   0  0  0  0  0  3  0  0  0  0  0  0
  -21.9330   -7.2540   21.2900 O   0  0  0  0  0  0  0  0  0  0  0  0
  -21.7470   -6.6150   22.4890 C   0  0  0  0  0  0  0  0  0  0  0  0
  -21.1970   -7.2780   23.6090 C   0  0  0  0  0  3  0  0  0  0  0  0
  -20.9570   -6.5660   24.8010 C   0  0  0  0  0  3  0  0  0  0  0  0
  -21.2560   -5.1920   24.8740 C   0  0  0  0  0  0  0  0  0  0  0  0
  -21.7980   -4.5290   23.7580 C   0  0  0  0  0  3  0  0  0  0  0  0
  -22.0390   -5.2390   22.5680 C   0  0  0  0  0  0  0  0  0  0  0  0
  -22.5410   -4.5910   21.4910 F   0  0  0  0  0  0  0  0  0  0  0  0
  -21.0180   -4.5050   26.0160 F   0  0  0  0  0  0  0  0  0  0  0  0
  -23.1460  -13.8770   20.9900 C   0  0  0  0  0  0  0  0  0  0  0  0
  -22.4480  -13.2030   21.8960 N   0  0  0  0  0  0  0  0  0  0  0  0
  -22.7020  -14.9060   20.4810 O   0  0  0  0  0  0  0  0  0  0  0  0
  -22.8200  -12.3710   22.3300 H   0  0  0  0  0  0  0  0  0  0  0  0
  -21.5280  -13.5250   22.1600 H   0  0  0  0  0  0  0  0  0  0  0  0
  -25.7690  -15.4950   20.0730 N   0  0  0  0  0  0  0  0  0  0  0  0
  -25.0140  -16.1580   20.2090 H   0  0  0  0  0  0  0  0  0  0  0  0
  -26.6050  -15.9220   19.6940 H   0  0  0  0  0  0  0  0  0  0  0  0
  -28.1860  -25.2300   19.0250 C   0  0  0  0  0  2  0  0  0  0  0  0
  -28.1320  -26.6210   19.5840 O   0  0  0  0  0  0  0  0  0  0  0  0
  -24.5810  -31.8390   23.0990 C   0  0  0  0  0  0  0  0  0  0  0  0
  -26.9970  -27.4580   19.6110 C   0  0  0  0  0  0  0  0  0  0  0  0
  -23.2790  -30.5390   21.4520 C   0  0  0  0  0  3  0  0  0  0  0  0
  -24.6380  -29.0810   19.8410 C   0  0  0  0  0  0  0  0  0  0  0  0
  -25.8030  -30.8690   21.1350 C   0  0  0  0  0  2  0  0  0  0  0  0
  -25.8400  -29.5300   20.3990 C   0  0  0  0  0  0  0  0  0  0  0  0
  -27.0160  -28.7280   20.2780 C   0  0  0  0  0  3  0  0  0  0  0  0
  -25.7730  -27.0720   19.0250 C   0  0  0  0  0  3  0  0  0  0  0  0
  -24.6080  -27.8610   19.1440 C   0  0  0  0  0  3  0  0  0  0  0  0
  -23.4070  -29.9490   20.0210 C   0  0  0  0  0  2  0  0  0  0  0  0
  -24.5770  -31.0980   21.9520 N   0  0  0  0  0  0  0  0  0  0  0  0
  -23.5320  -32.0790   23.7150 O   0  0  0  0  0  0  0  0  0  0  0  0
  -22.6760  -29.4650   22.3890 C   0  0  0  0  0  0  0  0  0  0  0  0
  -21.3520  -29.2540   22.2960 N   0  0  0  0  0  0  0  0  0  0  0  0
  -23.3960  -28.8240   23.1590 O   0  0  0  0  0  0  0  0  0  0  0  0
  -20.8260  -29.8250   21.6480 H   0  0  0  0  0  0  0  0  0  0  0  0
  -18.0430  -27.8680   22.7700 C   0  0  0  0  0  0  0  0  0  0  0  0
  -20.5830  -28.2610   23.0490 C   0  0  0  0  0  3  0  0  0  0  0  0
  -20.7630  -26.8470   22.4480 C   0  0  0  0  0  2  0  0  0  0  0  0
  -19.6820  -26.4840   21.4270 C   0  0  0  0  0  2  0  0  0  0  0  0
  -18.2930  -26.5420   22.0710 C   0  0  0  0  0  2  0  0  0  0  0  0
  -19.1180  -28.6820   23.2150 C   0  0  0  0  0  0  0  0  0  0  0  0
  -18.8300  -29.9200   23.8290 C   0  0  0  0  0  3  0  0  0  0  0  0
  -17.5000  -30.3460   24.0020 C   0  0  0  0  0  3  0  0  0  0  0  0
  -16.4390  -29.5280   23.5730 C   0  0  0  0  0  3  0  0  0  0  0  0
  -16.7110  -28.2910   22.9630 C   0  0  0  0  0  3  0  0  0  0  0  0
  -25.9000  -32.4370   23.6810 C   0  0  0  0  0  3  0  0  0  0  0  0
  -26.5110  -31.5720   24.8510 C   0  0  1  0  0  0  0  0  0  0  0  0
  -25.5000  -31.2350   25.9710 C   0  0  0  0  0  1  0  0  0  0  0  0
  -27.0720  -30.2380   24.3080 C   0  0  0  0  0  1  0  0  0  0  0  0
  -27.7030  -32.3230   25.4900 C   0  0  0  0  0  1  0  0  0  0  0  0
  -25.6020  -33.7990   24.1490 N   0  0  0  0  0  0  0  0  0  0  0  0
  -25.9010  -34.9190   23.4770 C   0  0  0  0  0  0  0  0  0  0  0  0
  -26.5240  -34.9130   22.4120 O   0  0  0  0  0  0  0  0  0  0  0  0
  -25.0460  -33.8780   24.9880 H   0  0  0  0  0  0  0  0  0  0  0  0
  -24.1590  -36.7310   23.3610 C   0  0  0  0  0  1  0  0  0  0  0  0
  -25.4330  -36.2580   24.0800 C   0  0  0  0  0  3  0  0  0  0  0  0
  -27.6020  -37.0700   24.8980 C   0  0  0  0  0  1  0  0  0  0  0  0
  -26.4600  -37.3210   24.0210 N   0  0  0  0  0  0  0  0  0  0  0  0
  -26.0620  -38.2220   24.2710 H   0  0  0  0  0  0  0  0  0  0  0  0
  2  1  1  0
  3  4  1  0
  3 11  1  0
  4 53  1  0
  4  1  1  0
  5  7  1  0
  5  3  1  0
  5  2  1  0
  6  5  1  0
  9  8  2  0
 10  8  1  0
 11  9  1  0
 12 10  2  0
 13 11  2  0
 13 12  1  0
 14 23  1  0
 14 12  1  0
 15 21  1  0
 15 23  1  0
 16 21  1  0
 17 18  1  0
 17 16  1  0
 19 18  1  0
 19 28  1  0
 19 20  1  0
 21 20  1  0
 22 15  2  0
 23 24  1  0
 25 26  2  0
 26 45  1  0
 27 26  1  0
 27 30  1  0
 28 29  1  0
 28 25  1  0
 29 27  2  0
 30 31  1  0
 31 32  2  0
 33 36  1  0
 33 32  1  0
 34 33  2  0
 35 34  1  0
 35 30  2  0
 36 37  1  0
 37 42  2  0
 37 38  1  0
 38 39  2  0
 39 40  1  0
 40 44  1  0
 41 40  2  0
 42 41  1  0
 43 42  1  0
 45 46  1  0
 46 49  1  0
 46 48  1  0
 47 45  2  0
 50 51  1  0
 50 25  1  0
 52 50  1  0
 53 54  1  0
 54 56  1  0
 55 66  2  0
 56 61  1  0
 57 65  1  0
 57 67  1  0
 58 64  1  0
 58 60  1  0
 59 65  1  0
 60 59  1  0
 61 60  2  0
 62 63  1  0
 62 56  2  0
 63 58  2  0
 64 57  1  0
 65 55  1  0
 67 69  2  0
 68 67  1  0
 70 68  1  0
 71 80  2  0
 71 76  1  0
 72 68  1  0
 72 76  1  0
 73 72  1  0
 74 75  1  0
 74 73  1  0
 75 71  1  0
 76 77  2  0
 77 78  1  0
 79 78  2  0
 80 79  1  0
 81 55  1  0
 81 86  1  0
 81 82  1  0
 82 85  1  1
 82 83  1  0
 84 82  1  0
 86 89  1  0
 87 91  1  0
 87 86  1  0
 88 87  2  0
 91 90  1  0
 93 91  1  0
 93 94  1  0
 93 92  1  0
M  ISO  4  15 100  23 100  53 101  54 101
M  END
>  <TORSDO>  (56) 
F 19

>  <SCORE>  (56) 
-13.356

>  <name>  (56) 
55

>  <ligand_id>  (56) 
55

>  <original_smiles>  (56) 
[H]c1c(C([H])([H])N([H])C(=O)N2C([H])([H])C([H])([H])C([H])([H])C([H])(n3nc(-c4c([H])c([H])c(Oc5c([H])c([H])c(F)c([H])c5F)c([H])c4[H])c(C(=O)N([H])[H])c3N([H])[H])C2([H])[H])nc(C2([H])C([H])(C([H])([H])Oc3c([H])c([H])c4c(c3[H])C([H])([H])N(C(=O)C([H])(N([H])C(=O)C([H])(N([H])C([H])([H])[H])C([H])([H])[H])C(C([H])([H])[H])(C([H])([H])[H])C([H])([H])[H])C([H])(C(=O)N([H])C3([H])c5c([H])c([H])c([H])c([H])c5C([H])([H])C([H])([H])C3([H])[H])C4([H])[H])C([H])([H])C([H])([H])[N+]2([H])[H])c([H])c1[H]

>  <smiles>  (56) 
[H]c1c(C([H])([H])N([H])C(=O)N2C([H])([H])C([H])([H])C([H])([H])C([H])(n3nc(-c4c([H])c([H])c(Oc5c([H])c([H])c(F)c([H])c5F)c([H])c4[H])c(C(=O)N([H])[H])c3N([H])[H])C2([H])[H])nc(C2([H])C([H])(C([H])([H])Oc3c([H])c([H])c4c(c3[H])C([H])([H])N(C(=O)C([H])(N([H])C(=O)C([H])(N([H])C([H])([H])[H])C([H])([H])[H])C(C([H])([H])[H])(C([H])([H])[H])C([H])([H])[H])C([H])(C(=O)N([H])C3([H])c5c([H])c([H])c([H])c([H])c5C([H])([H])C([H])([H])C3([H])[H])C4([H])[H])C([H])([H])C([H])([H])[N+]2([H])[H])c([H])c1[H]

$$$$
56:0:0
     RDKit          3D

 95103  0  0  1  0  0  0  0  0999 V2000
  -30.4180  -19.7760   18.0790 C   0  0  0  0  0  3  0  0  0  0  0  0
  -30.4780  -18.6150   18.8700 C   0  0  0  0  0  3  0  0  0  0  0  0
  -29.8680  -20.9860   18.5690 C   0  0  0  0  0  0  0  0  0  0  0  0
  -30.0110  -18.6570   20.1890 C   0  0  0  0  0  0  0  0  0  0  0  0
  -29.4640  -21.0450   19.9360 C   0  0  0  0  0  0  0  0  0  0  0  0
  -29.5270  -19.8680   20.6960 N   0  0  0  0  0  0  0  0  0  0  0  0
  -31.0290  -22.7910   17.1840 C   0  0  0  0  0  1  0  0  0  0  0  0
  -29.6850  -22.1300   17.5560 C   0  0  0  0  0  3  0  0  0  0  0  0
  -28.9550  -21.6880   16.3470 N   0  0  0  0  0  4  0  0  0  0  0  0
  -29.4940  -21.0450   15.7940 H   0  0  0  0  0  0  0  0  0  0  0  0
  -28.7400  -22.4780   15.7620 H   0  0  0  0  0  0  0  0  0  0  0  0
  -28.0830  -21.2540   16.5900 H   0  0  0  0  0  0  0  0  0  0  0  0
  -30.1880  -17.3420   21.0790 C   0  0  0  0  0  2  0  0  0  0  0  0
  -30.6030  -14.7810   20.4240 C   0  0  0  0  0  0  0  0  0  0  0  0
  -30.3990  -12.5190   19.3540 C   0  0  0  0  0  2  0  0  0  0  0  0
  -29.4460  -12.5830   18.1390 C   0  0  0  0  0  2  0  0  0  0  0  0
  -27.9760  -12.4160   18.5720 C   0  0  0  0  0  2  0  0  0  0  0  0
  -27.6080  -13.2840   19.8040 C   0  0  0  0  0  3  0  0  0  0  0  0
  -28.6760  -13.1870   20.9150 C   0  0  0  0  0  2  0  0  0  0  0  0
  -29.9620  -13.5620   20.3080 N   0  0  0  0  0  0  0  0  0  0  0  0
  -31.8080  -14.8630   20.1810 O   0  0  0  0  0  0  0  0  0  0  0  0
  -29.8340  -15.9210   20.6140 N   0  0  0  0  0  0  0  0  0  0  0  0
  -28.8420  -15.7480   20.5970 H   0  0  0  0  0  0  0  0  0  0  0  0
  -25.2140  -13.8650   20.5170 C   0  0  0  0  0  0  0  0  0  0  0  0
  -24.1470  -13.0900   20.8740 C   0  0  0  0  0  0  0  0  0  0  0  0
  -24.6120  -11.7390   20.8460 C   0  0  0  0  0  0  0  0  0  0  0  0
  -26.2640  -12.9900   20.2910 N   0  0  0  0  0  0  0  0  0  0  0  0
  -25.9060  -11.7050   20.5510 N   0  0  0  0  0  0  0  0  0  0  0  0
  -23.8850  -10.4760   21.0250 C   0  0  0  0  0  0  0  0  0  0  0  0
  -24.2910   -9.5240   21.9840 C   0  0  0  0  0  3  0  0  0  0  0  0
  -23.5670   -8.3240   22.1550 C   0  0  0  0  0  3  0  0  0  0  0  0
  -22.4220   -8.0680   21.3650 C   0  0  0  0  0  0  0  0  0  0  0  0
  -22.0300   -9.0110   20.3990 C   0  0  0  0  0  3  0  0  0  0  0  0
  -22.7550  -10.2030   20.2270 C   0  0  0  0  0  3  0  0  0  0  0  0
  -21.6700   -6.9210   21.4420 O   0  0  0  0  0  0  0  0  0  0  0  0
  -21.5730   -6.2000   22.6060 C   0  0  0  0  0  0  0  0  0  0  0  0
  -21.0480   -6.7650   23.7900 C   0  0  0  0  0  3  0  0  0  0  0  0
  -20.9030   -5.9690   24.9440 C   0  0  0  0  0  3  0  0  0  0  0  0
  -21.2720   -4.6100   24.9150 C   0  0  0  0  0  0  0  0  0  0  0  0
  -21.7920   -4.0470   23.7360 C   0  0  0  0  0  3  0  0  0  0  0  0
  -21.9400   -4.8400   22.5850 C   0  0  0  0  0  0  0  0  0  0  0  0
  -22.4180   -4.2880   21.4450 F   0  0  0  0  0  0  0  0  0  0  0  0
  -21.1280   -3.8430   26.0210 F   0  0  0  0  0  0  0  0  0  0  0  0
  -22.7480  -13.5640   21.1360 C   0  0  0  0  0  0  0  0  0  0  0  0
  -22.0090  -12.8570   21.9840 N   0  0  0  0  0  0  0  0  0  0  0  0
  -22.3170  -14.5960   20.6220 O   0  0  0  0  0  0  0  0  0  0  0  0
  -22.3680  -12.0170   22.4130 H   0  0  0  0  0  0  0  0  0  0  0  0
  -21.0710  -13.1580   22.2110 H   0  0  0  0  0  0  0  0  0  0  0  0
  -25.3770  -15.2360   20.3360 N   0  0  0  0  0  0  0  0  0  0  0  0
  -24.6030  -15.8850   20.4310 H   0  0  0  0  0  0  0  0  0  0  0  0
  -26.2140  -15.6730   19.9740 H   0  0  0  0  0  0  0  0  0  0  0  0
  -28.8450  -22.1930   20.5430 O   0  0  0  0  0  0  0  0  0  0  0  0
  -29.2790  -23.6400   20.4410 C   0  0  0  0  0  3  0  0  0  0  0  0
  -28.1800  -24.8250   20.1460 C   0  0  0  0  0  3  0  0  0  0  0  0
  -28.3980  -26.3200   20.3570 O   0  0  0  0  0  0  0  0  0  0  0  0
  -24.5770  -31.8500   23.2360 C   0  0  0  0  0  0  0  0  0  0  0  0
  -27.3000  -27.2280   20.2690 C   0  0  0  0  0  0  0  0  0  0  0  0
  -23.4390  -30.4590   21.5490 C   0  0  0  0  0  3  0  0  0  0  0  0
  -24.9430  -28.9000   20.1750 C   0  0  0  0  0  0  0  0  0  0  0  0
  -25.9910  -30.7520   21.4680 C   0  0  0  0  0  2  0  0  0  0  0  0
  -26.0980  -29.3670   20.8210 C   0  0  0  0  0  0  0  0  0  0  0  0
  -27.2760  -28.5450   20.8550 C   0  0  0  0  0  3  0  0  0  0  0  0
  -26.1170  -26.8350   19.6010 C   0  0  0  0  0  3  0  0  0  0  0  0
  -24.9630  -27.6420   19.5540 C   0  0  0  0  0  3  0  0  0  0  0  0
  -23.7070  -29.7820   20.1770 C   0  0  0  0  0  2  0  0  0  0  0  0
  -24.6870  -31.0400   22.1410 N   0  0  0  0  0  0  0  0  0  0  0  0
  -23.4730  -32.1290   23.7290 O   0  0  0  0  0  0  0  0  0  0  0  0
  -22.7330  -29.4470   22.4840 C   0  0  0  0  0  0  0  0  0  0  0  0
  -21.4060  -29.3020   22.3300 N   0  0  0  0  0  0  0  0  0  0  0  0
  -23.3800  -28.7970   23.3090 O   0  0  0  0  0  0  0  0  0  0  0  0
  -20.9480  -29.8750   21.6340 H   0  0  0  0  0  0  0  0  0  0  0  0
  -17.9840  -28.2210   22.8180 C   0  0  0  0  0  0  0  0  0  0  0  0
  -20.5520  -28.3700   23.0710 C   0  0  0  0  0  3  0  0  0  0  0  0
  -20.5960  -26.9570   22.4430 C   0  0  0  0  0  2  0  0  0  0  0  0
  -19.4740  -26.7170   21.4290 C   0  0  0  0  0  2  0  0  0  0  0  0
  -18.1040  -26.8930   22.0870 C   0  0  0  0  0  2  0  0  0  0  0  0
  -19.1350  -28.9220   23.2630 C   0  0  0  0  0  0  0  0  0  0  0  0
  -18.9680  -30.1700   23.9040 C   0  0  0  0  0  3  0  0  0  0  0  0
  -17.6840  -30.7130   24.1020 C   0  0  0  0  0  3  0  0  0  0  0  0
  -16.5490  -30.0080   23.6670 C   0  0  0  0  0  3  0  0  0  0  0  0
  -16.6990  -28.7650   23.0290 C   0  0  0  0  0  3  0  0  0  0  0  0
  -25.8310  -32.4820   23.9130 C   0  0  0  0  0  3  0  0  0  0  0  0
  -25.5110  -33.8840   24.2210 N   0  0  0  0  0  0  0  0  0  0  0  0
  -25.8820  -34.9350   23.4740 C   0  0  0  0  0  0  0  0  0  0  0  0
  -26.5930  -34.8210   22.4710 O   0  0  0  0  0  0  0  0  0  0  0  0
  -24.8760  -34.0410   24.9900 H   0  0  0  0  0  0  0  0  0  0  0  0
  -24.1910  -36.7490   23.0350 C   0  0  0  0  0  1  0  0  0  0  0  0
  -25.3870  -36.3300   23.9060 C   0  0  0  0  0  3  0  0  0  0  0  0
  -27.4860  -37.2020   24.8400 C   0  0  0  0  0  1  0  0  0  0  0  0
  -26.4350  -37.3720   23.8400 N   0  0  0  0  0  0  0  0  0  0  0  0
  -26.0320  -38.2970   23.9600 H   0  0  0  0  0  0  0  0  0  0  0  0
  -26.2870  -31.7160   25.2160 C   0  0  1  0  0  0  0  0  0  0  0  0
  -25.1490  -31.4780   26.2370 C   0  0  0  0  0  1  0  0  0  0  0  0
  -26.8860  -30.3370   24.8560 C   0  0  0  0  0  1  0  0  0  0  0  0
  -27.4100  -32.5140   25.9190 C   0  0  0  0  0  1  0  0  0  0  0  0
  1  3  2  0
  1  2  1  0
  2  4  2  0
  3  5  1  0
  4  6  1  0
  4 13  1  0
  5 52  1  0
  5  6  2  0
  8  7  1  0
  8  3  1  0
  9 12  1  0
  9  8  1  0
 10  9  1  0
 11  9  1  0
 14 22  1  0
 15 20  1  0
 16 17  1  0
 16 15  1  0
 18 17  1  0
 18 27  1  0
 18 19  1  0
 20 14  1  0
 20 19  1  0
 21 14  2  0
 22 13  1  0
 23 22  1  0
 24 25  2  0
 25 44  1  0
 26 25  1  0
 26 29  1  0
 27 24  1  0
 27 28  1  0
 28 26  2  0
 29 30  1  0
 30 31  2  0
 32 35  1  0
 32 31  1  0
 33 32  2  0
 34 33  1  0
 34 29  2  0
 35 36  1  0
 36 37  1  0
 37 38  2  0
 39 38  1  0
 39 43  1  0
 40 39  2  0
 41 36  2  0
 41 40  1  0
 42 41  1  0
 44 45  1  0
 45 48  1  0
 45 47  1  0
 46 44  2  0
 49 50  1  0
 49 24  1  0
 51 49  1  0
 53 52  1  0
 54 55  1  0
 54 53  2  0
 56 67  2  0
 57 55  1  0
 57 62  1  0
 58 66  1  0
 58 68  1  0
 59 65  1  0
 59 61  1  0
 60 66  1  0
 61 62  2  0
 61 60  1  0
 63 57  2  0
 64 63  1  0
 64 59  2  0
 65 58  1  0
 66 56  1  0
 68 70  2  0
 69 68  1  0
 71 69  1  0
 72 81  2  0
 72 77  1  0
 73 69  1  0
 73 77  1  0
 74 73  1  0
 75 76  1  0
 75 74  1  0
 76 72  1  0
 77 78  2  0
 78 79  1  0
 80 79  2  0
 81 80  1  0
 82 56  1  0
 82 83  1  0
 82 92  1  0
 83 86  1  0
 84 88  1  0
 84 83  1  0
 85 84  2  0
 88 87  1  0
 90 88  1  0
 90 91  1  0
 90 89  1  0
 92 95  1  1
 92 93  1  0
 94 92  1  0
M  ISO  4  14 100  22 100  54 101  55 101
M  END
>  <TORSDO>  (57) 
F 22

>  <SCORE>  (57) 
-13.125

>  <name>  (57) 
56

>  <ligand_id>  (57) 
56

>  <original_smiles>  (57) 
[H]c1c(C([H])([H])N([H])C(=O)N2C([H])([H])C([H])([H])C([H])([H])C([H])(n3nc(-c4c([H])c([H])c(Oc5c([H])c([H])c(F)c([H])c5F)c([H])c4[H])c(C(=O)N([H])[H])c3N([H])[H])C2([H])[H])nc(OC([H])([H])C([H])([H])Oc2c([H])c([H])c3c(c2[H])C([H])([H])N(C(=O)C([H])(N([H])C(=O)C([H])(N([H])C([H])([H])[H])C([H])([H])[H])C(C([H])([H])[H])(C([H])([H])[H])C([H])([H])[H])C([H])(C(=O)N([H])C2([H])c4c([H])c([H])c([H])c([H])c4C([H])([H])C([H])([H])C2([H])[H])C3([H])[H])c(C([H])(C([H])([H])[H])[N+]([H])([H])[H])c1[H]

>  <smiles>  (57) 
[H]c1c(C([H])([H])N([H])C(=O)N2C([H])([H])C([H])([H])C([H])([H])C([H])(n3nc(-c4c([H])c([H])c(Oc5c([H])c([H])c(F)c([H])c5F)c([H])c4[H])c(C(=O)N([H])[H])c3N([H])[H])C2([H])[H])nc(OC([H])([H])C([H])([H])Oc2c([H])c([H])c3c(c2[H])C([H])([H])N(C(=O)C([H])(N([H])C(=O)C([H])(N([H])C([H])([H])[H])C([H])([H])[H])C(C([H])([H])[H])(C([H])([H])[H])C([H])([H])[H])C([H])(C(=O)N([H])C2([H])c4c([H])c([H])c([H])c([H])c4C([H])([H])C([H])([H])C2([H])[H])C3([H])[H])c(C([H])(C([H])([H])[H])[N+]([H])([H])[H])c1[H]

$$$$
57:0:0
     RDKit          3D

 95106  0  0  1  0  0  0  0  0999 V2000
  -28.2460  -21.8950   19.7540 C   0  0  0  0  0  3  0  0  0  0  0  0
  -28.4400  -23.3000   20.1790 C   0  0  0  0  0  0  0  0  0  0  0  0
  -29.1280  -20.9640   20.3380 C   0  0  0  0  0  0  0  0  0  0  0  0
  -29.4650  -23.1660   21.0800 C   0  0  0  0  0  0  0  0  0  0  0  0
  -29.9290  -21.8270   21.1170 N   0  0  0  0  0  0  0  0  0  0  0  0
  -30.4310  -14.8170   19.8640 C   0  0  0  0  0  0  0  0  0  0  0  0
  -30.1460  -12.5150   18.8780 C   0  0  0  0  0  2  0  0  0  0  0  0
  -29.1220  -12.5040   17.7260 C   0  0  0  0  0  2  0  0  0  0  0  0
  -27.7030  -12.2790   18.2800 C   0  0  0  0  0  2  0  0  0  0  0  0
  -27.3950  -13.1770   19.5080 C   0  0  0  0  0  3  0  0  0  0  0  0
  -28.5450  -13.1870   20.5370 C   0  0  0  0  0  2  0  0  0  0  0  0
  -29.7470  -13.6080   19.8110 N   0  0  0  0  0  0  0  0  0  0  0  0
  -31.6150  -14.7750   19.5070 O   0  0  0  0  0  0  0  0  0  0  0  0
  -28.4230  -18.2520   20.8340 C   0  0  0  0  0  2  0  0  0  0  0  0
  -29.8470  -18.6700   18.9800 C   0  0  0  0  0  2  0  0  0  0  0  0
  -28.9660  -16.7240   20.9590 C   0  0  0  0  0  2  0  0  0  0  0  0
  -30.4860  -17.2130   19.1080 C   0  0  0  0  0  2  0  0  0  0  0  0
  -29.4220  -19.3500   20.3120 C   0  0  0  0  0  3  0  0  0  0  0  0
  -29.7940  -16.0990   19.8610 N   0  0  0  0  0  0  0  0  0  0  0  0
  -25.0860  -13.6990   20.4730 C   0  0  0  0  0  0  0  0  0  0  0  0
  -24.0650  -12.8980   20.9040 C   0  0  0  0  0  0  0  0  0  0  0  0
  -24.5370  -11.5550   20.7870 C   0  0  0  0  0  0  0  0  0  0  0  0
  -26.1120  -12.8440   20.1140 N   0  0  0  0  0  0  0  0  0  0  0  0
  -25.7980  -11.5460   20.3680 N   0  0  0  0  0  0  0  0  0  0  0  0
  -23.8410  -10.2780   20.9920 C   0  0  0  0  0  0  0  0  0  0  0  0
  -24.3220   -9.3120   21.9020 C   0  0  0  0  0  3  0  0  0  0  0  0
  -23.6220   -8.1010   22.0980 C   0  0  0  0  0  3  0  0  0  0  0  0
  -22.4260   -7.8490   21.3850 C   0  0  0  0  0  0  0  0  0  0  0  0
  -21.9640   -8.8050   20.4620 C   0  0  0  0  0  3  0  0  0  0  0  0
  -22.6640  -10.0060   20.2640 C   0  0  0  0  0  3  0  0  0  0  0  0
  -21.6920   -6.6930   21.4920 O   0  0  0  0  0  0  0  0  0  0  0  0
  -21.6660   -5.9620   22.6540 C   0  0  0  0  0  0  0  0  0  0  0  0
  -21.1870   -6.5070   23.8660 C   0  0  0  0  0  3  0  0  0  0  0  0
  -21.1130   -5.7010   25.0190 C   0  0  0  0  0  3  0  0  0  0  0  0
  -21.5070   -4.3500   24.9600 C   0  0  0  0  0  0  0  0  0  0  0  0
  -21.9780   -3.8050   23.7530 C   0  0  0  0  0  3  0  0  0  0  0  0
  -22.0540   -4.6090   22.6020 C   0  0  0  0  0  0  0  0  0  0  0  0
  -22.4890   -4.0730   21.4370 F   0  0  0  0  0  0  0  0  0  0  0  0
  -21.4280   -3.5720   26.0650 F   0  0  0  0  0  0  0  0  0  0  0  0
  -22.6920  -13.3500   21.3060 C   0  0  0  0  0  0  0  0  0  0  0  0
  -22.0490  -12.6230   22.2140 N   0  0  0  0  0  0  0  0  0  0  0  0
  -22.1990  -14.3830   20.8520 O   0  0  0  0  0  0  0  0  0  0  0  0
  -22.4620  -11.7870   22.6010 H   0  0  0  0  0  0  0  0  0  0  0  0
  -21.1310  -12.9050   22.5250 H   0  0  0  0  0  0  0  0  0  0  0  0
  -25.2200  -15.0770   20.3300 N   0  0  0  0  0  0  0  0  0  0  0  0
  -24.4590  -15.7170   20.5310 H   0  0  0  0  0  0  0  0  0  0  0  0
  -26.0350  -15.5380   19.9470 H   0  0  0  0  0  0  0  0  0  0  0  0
  -29.8050  -24.3000   23.4270 C   0  0  0  0  0  2  0  0  0  0  0  0
  -29.2520  -25.3620   22.5100 C   0  0  0  0  0  2  0  0  0  0  0  0
  -30.0800  -24.2330   21.9400 C   0  0  0  0  0  3  0  0  0  0  0  0
  -32.4140  -21.8830   21.5520 C   0  0  0  0  0  2  0  0  0  0  0  0
  -32.0360  -20.4430   21.3360 C   0  0  0  0  0  2  0  0  0  0  0  0
  -31.0390  -21.3940   21.9720 C   0  0  0  0  0  3  0  0  0  0  0  0
  -27.6020  -24.6430   19.7660 C   0  0  0  0  0  2  0  0  0  0  0  0
  -27.9930  -26.1160   19.9810 O   0  0  0  0  0  0  0  0  0  0  0  0
  -24.5250  -31.8040   23.0460 C   0  0  0  0  0  0  0  0  0  0  0  0
  -26.9630  -27.1150   19.9150 C   0  0  0  0  0  0  0  0  0  0  0  0
  -23.2650  -30.4360   21.4290 C   0  0  0  0  0  3  0  0  0  0  0  0
  -24.6570  -28.8700   19.9500 C   0  0  0  0  0  0  0  0  0  0  0  0
  -25.8150  -30.6820   21.1990 C   0  0  0  0  0  2  0  0  0  0  0  0
  -25.8550  -29.3000   20.5350 C   0  0  0  0  0  0  0  0  0  0  0  0
  -27.0100  -28.4360   20.5070 C   0  0  0  0  0  3  0  0  0  0  0  0
  -25.7430  -26.7920   19.2760 C   0  0  0  0  0  3  0  0  0  0  0  0
  -24.6110  -27.6280   19.3050 C   0  0  0  0  0  3  0  0  0  0  0  0
  -23.4410  -29.7730   20.0380 C   0  0  0  0  0  2  0  0  0  0  0  0
  -24.5560  -30.9930   21.9460 N   0  0  0  0  0  0  0  0  0  0  0  0
  -23.4560  -32.0970   23.6050 O   0  0  0  0  0  0  0  0  0  0  0  0
  -22.6040  -29.4240   22.3980 C   0  0  0  0  0  0  0  0  0  0  0  0
  -21.2720  -29.2680   22.3040 N   0  0  0  0  0  0  0  0  0  0  0  0
  -23.2900  -28.7840   23.1980 O   0  0  0  0  0  0  0  0  0  0  0  0
  -20.7750  -29.8370   21.6320 H   0  0  0  0  0  0  0  0  0  0  0  0
  -17.8920  -28.0970   22.8740 C   0  0  0  0  0  0  0  0  0  0  0  0
  -20.4580  -28.3370   23.0890 C   0  0  0  0  0  3  0  0  0  0  0  0
  -20.5350  -26.9040   22.5110 C   0  0  0  0  0  2  0  0  0  0  0  0
  -19.4100  -26.5930   21.5190 C   0  0  0  0  0  2  0  0  0  0  0  0
  -18.0430  -26.7480   22.1910 C   0  0  0  0  0  2  0  0  0  0  0  0
  -19.0260  -28.8500   23.2820 C   0  0  0  0  0  0  0  0  0  0  0  0
  -18.8290  -30.1120   23.8830 C   0  0  0  0  0  3  0  0  0  0  0  0
  -17.5310  -30.6220   24.0780 C   0  0  0  0  0  3  0  0  0  0  0  0
  -16.4120  -29.8670   23.6860 C   0  0  0  0  0  3  0  0  0  0  0  0
  -16.5940  -28.6070   23.0900 C   0  0  0  0  0  3  0  0  0  0  0  0
  -25.8270  -32.4170   23.6420 C   0  0  0  0  0  3  0  0  0  0  0  0
  -26.4000  -31.5930   24.8600 C   0  0  1  0  0  0  0  0  0  0  0  0
  -25.3500  -31.2870   25.9540 C   0  0  0  0  0  1  0  0  0  0  0  0
  -26.9870  -30.2440   24.3850 C   0  0  0  0  0  1  0  0  0  0  0  0
  -27.5630  -32.3720   25.5190 C   0  0  0  0  0  1  0  0  0  0  0  0
  -25.5220  -33.7970   24.0540 N   0  0  0  0  0  0  0  0  0  0  0  0
  -25.8170  -34.8900   23.3380 C   0  0  0  0  0  0  0  0  0  0  0  0
  -26.4430  -34.8440   22.2750 O   0  0  0  0  0  0  0  0  0  0  0  0
  -24.9600  -33.9060   24.8850 H   0  0  0  0  0  0  0  0  0  0  0  0
  -24.0790  -36.6990   23.1380 C   0  0  0  0  0  1  0  0  0  0  0  0
  -25.3440  -36.2510   23.8860 C   0  0  0  0  0  3  0  0  0  0  0  0
  -27.4950  -37.1020   24.7110 C   0  0  0  0  0  1  0  0  0  0  0  0
  -26.3720  -37.3110   23.8000 N   0  0  0  0  0  0  0  0  0  0  0  0
  -25.9680  -38.2230   23.9990 H   0  0  0  0  0  0  0  0  0  0  0  0
  1  2  1  0
  1  3  2  0
  2  4  2  0
  3  5  1  0
  4  5  1  0
  4 50  1  0
  5 53  1  0
  7 12  1  0
  8  9  1  0
  8  7  1  0
 10  9  1  0
 10 23  1  0
 10 11  1  0
 12  6  1  0
 12 11  1  0
 13  6  2  0
 14 16  1  0
 15 17  1  0
 15 18  1  0
 17 19  1  0
 18  3  1  0
 18 14  1  0
 19  6  1  0
 19 16  1  0
 20 21  2  0
 21 40  1  0
 22 21  1  0
 22 25  1  0
 23 24  1  0
 23 20  1  0
 24 22  2  0
 25 26  1  0
 26 27  2  0
 28 31  1  0
 28 27  1  0
 29 28  2  0
 30 29  1  0
 30 25  2  0
 31 32  1  0
 32 33  1  0
 33 34  2  0
 35 34  1  0
 35 39  1  0
 36 35  2  0
 37 32  2  0
 37 36  1  0
 38 37  1  0
 40 41  1  0
 41 44  1  0
 41 43  1  0
 42 40  2  0
 45 20  1  0
 45 46  1  0
 47 45  1  0
 49 48  1  0
 50 49  1  0
 50 48  1  0
 51 53  1  0
 52 51  1  0
 52 53  1  0
 54 55  1  0
 54  2  1  0
 56 67  2  0
 57 55  1  0
 57 62  1  0
 58 66  1  0
 58 68  1  0
 59 65  1  0
 59 61  1  0
 60 66  1  0
 61 60  1  0
 62 61  2  0
 63 64  1  0
 63 57  2  0
 64 59  2  0
 65 58  1  0
 66 56  1  0
 68 70  2  0
 69 68  1  0
 71 69  1  0
 72 81  2  0
 72 77  1  0
 73 69  1  0
 73 77  1  0
 74 73  1  0
 75 76  1  0
 75 74  1  0
 76 72  1  0
 77 78  2  0
 78 79  1  0
 80 79  2  0
 81 80  1  0
 82 56  1  0
 82 87  1  0
 82 83  1  0
 83 86  1  1
 83 84  1  0
 85 83  1  0
 87 90  1  0
 88 92  1  0
 88 87  1  0
 89 88  2  0
 92 91  1  0
 94 92  1  0
 94 95  1  0
 94 93  1  0
M  ISO  4   6 100  19 100  54 101  55 101
M  END
>  <TORSDO>  (58) 
F 19

>  <SCORE>  (58) 
-13.658

>  <name>  (58) 
57

>  <ligand_id>  (58) 
57

>  <original_smiles>  (58) 
[H]c1c([H])c([H])c2c(c1[H])C([H])([H])C([H])([H])C([H])([H])C2([H])N([H])C(=O)C1([H])N(C(=O)C([H])(N([H])C(=O)C([H])(N([H])C([H])([H])[H])C([H])([H])[H])C(C([H])([H])[H])(C([H])([H])[H])C([H])([H])[H])C([H])([H])c2c([H])c(OC([H])([H])c3c([H])c(C4([H])C([H])([H])C([H])([H])N(C(=O)N5C([H])([H])C([H])([H])C([H])([H])C([H])(n6nc(-c7c([H])c([H])c(Oc8c([H])c([H])c(F)c([H])c8F)c([H])c7[H])c(C(=O)N([H])[H])c6N([H])[H])C5([H])[H])C([H])([H])C4([H])[H])n(C4([H])C([H])([H])C4([H])[H])c3C3([H])C([H])([H])C3([H])[H])c([H])c([H])c2C1([H])[H]

>  <smiles>  (58) 
[H]c1c([H])c([H])c2c(c1[H])C([H])([H])C([H])([H])C([H])([H])C2([H])N([H])C(=O)C1([H])N(C(=O)C([H])(N([H])C(=O)C([H])(N([H])C([H])([H])[H])C([H])([H])[H])C(C([H])([H])[H])(C([H])([H])[H])C([H])([H])[H])C([H])([H])c2c([H])c(OC([H])([H])c3c([H])c(C4([H])C([H])([H])C([H])([H])N(C(=O)N5C([H])([H])C([H])([H])C([H])([H])C([H])(n6nc(-c7c([H])c([H])c(Oc8c([H])c([H])c(F)c([H])c8F)c([H])c7[H])c(C(=O)N([H])[H])c6N([H])[H])C5([H])[H])C([H])([H])C4([H])[H])n(C4([H])C([H])([H])C4([H])[H])c3C3([H])C([H])([H])C3([H])[H])c([H])c([H])c2C1([H])[H]

$$$$
58:0:0
     RDKit          3D

 92100  0  0  1  0  0  0  0  0999 V2000
  -28.7050  -19.8950   19.5720 C   0  0  0  0  0  3  0  0  0  0  0  0
  -28.4170  -21.2840   19.5010 C   0  0  0  0  0  3  0  0  0  0  0  0
  -29.1690  -19.6220   20.8280 C   0  0  0  0  0  0  0  0  0  0  0  0
  -28.7210  -21.8540   20.7090 C   0  0  0  0  0  0  0  0  0  0  0  0
  -29.8100  -21.0040   22.8510 C   0  0  0  0  0  1  0  0  0  0  0  0
  -29.2570  -20.8360   21.5100 N   0  0  0  0  0  0  0  0  0  0  0  0
  -27.2360  -23.3930   22.0470 C   0  0  0  0  0  1  0  0  0  0  0  0
  -28.5310  -23.2740   21.2140 C   0  0  0  0  0  3  0  0  0  0  0  0
  -28.5010  -24.3630   20.1050 C   0  0  0  0  0  2  0  0  0  0  0  0
  -28.7000  -25.8040   20.6450 C   0  0  0  0  0  2  0  0  0  0  0  0
  -28.5750  -26.8090   19.6300 O   0  0  0  0  0  0  0  0  0  0  0  0
  -24.6600  -31.6670   23.0580 C   0  0  0  0  0  0  0  0  0  0  0  0
  -27.3950  -27.5080   19.6860 C   0  0  0  0  0  0  0  0  0  0  0  0
  -23.4710  -30.3200   21.3560 C   0  0  0  0  0  3  0  0  0  0  0  0
  -24.9510  -28.9160   19.8200 C   0  0  0  0  0  0  0  0  0  0  0  0
  -25.9770  -30.7770   21.1420 C   0  0  0  0  0  2  0  0  0  0  0  0
  -26.0990  -29.4490   20.4200 C   0  0  0  0  0  0  0  0  0  0  0  0
  -27.3260  -28.7550   20.3490 C   0  0  0  0  0  3  0  0  0  0  0  0
  -26.2370  -26.9880   19.0730 C   0  0  0  0  0  3  0  0  0  0  0  0
  -25.0160  -27.6870   19.1370 C   0  0  0  0  0  3  0  0  0  0  0  0
  -23.6770  -29.7230   19.9360 C   0  0  0  0  0  2  0  0  0  0  0  0
  -24.7210  -30.9330   21.9110 N   0  0  0  0  0  0  0  0  0  0  0  0
  -23.5810  -31.8750   23.6290 O   0  0  0  0  0  0  0  0  0  0  0  0
  -22.8710  -29.2260   22.2670 C   0  0  0  0  0  0  0  0  0  0  0  0
  -21.5470  -29.0240   22.1660 N   0  0  0  0  0  0  0  0  0  0  0  0
  -23.5920  -28.5650   23.0210 O   0  0  0  0  0  0  0  0  0  0  0  0
  -21.0240  -29.6240   21.5430 H   0  0  0  0  0  0  0  0  0  0  0  0
  -18.2200  -27.7070   22.6480 C   0  0  0  0  0  0  0  0  0  0  0  0
  -20.7750  -28.0150   22.8930 C   0  0  0  0  0  3  0  0  0  0  0  0
  -20.9060  -26.6240   22.2300 C   0  0  0  0  0  2  0  0  0  0  0  0
  -19.7940  -26.3400   21.2130 C   0  0  0  0  0  2  0  0  0  0  0  0
  -18.4220  -26.4060   21.8910 C   0  0  0  0  0  2  0  0  0  0  0  0
  -19.3260  -28.4700   23.1070 C   0  0  0  0  0  0  0  0  0  0  0  0
  -19.0890  -29.6900   23.7740 C   0  0  0  0  0  3  0  0  0  0  0  0
  -17.7770  -30.1470   23.9930 C   0  0  0  0  0  3  0  0  0  0  0  0
  -16.6830  -29.3820   23.5470 C   0  0  0  0  0  3  0  0  0  0  0  0
  -16.9060  -28.1650   22.8790 C   0  0  0  0  0  3  0  0  0  0  0  0
  -25.9390  -32.3030   23.6900 C   0  0  0  0  0  3  0  0  0  0  0  0
  -25.5980  -33.6720   24.0960 N   0  0  0  0  0  0  0  0  0  0  0  0
  -25.8920  -34.7710   23.3860 C   0  0  0  0  0  0  0  0  0  0  0  0
  -26.5500  -34.7370   22.3420 O   0  0  0  0  0  0  0  0  0  0  0  0
  -25.0110  -33.7700   24.9110 H   0  0  0  0  0  0  0  0  0  0  0  0
  -24.1040  -36.5210   23.1390 C   0  0  0  0  0  1  0  0  0  0  0  0
  -25.3700  -36.1210   23.9120 C   0  0  0  0  0  3  0  0  0  0  0  0
  -27.4890  -37.0300   24.7580 C   0  0  0  0  0  1  0  0  0  0  0  0
  -26.3700  -37.2080   23.8360 N   0  0  0  0  0  0  0  0  0  0  0  0
  -25.9400  -38.1100   24.0290 H   0  0  0  0  0  0  0  0  0  0  0  0
  -26.5000  -31.4810   24.9160 C   0  0  1  0  0  0  0  0  0  0  0  0
  -25.4340  -31.1660   25.9910 C   0  0  0  0  0  1  0  0  0  0  0  0
  -27.1050  -30.1360   24.4470 C   0  0  0  0  0  1  0  0  0  0  0  0
  -27.6470  -32.2650   25.5930 C   0  0  0  0  0  1  0  0  0  0  0  0
  -29.5060  -18.2980   21.4650 C   0  0  0  0  0  2  0  0  0  0  0  0
  -31.0130  -17.9990   21.6030 C   0  0  0  0  0  2  0  0  0  0  0  0
  -31.5470  -17.0050   20.5600 C   0  0  0  0  0  2  0  0  0  0  0  0
  -31.5000  -14.5850   20.1250 C   0  0  0  0  0  0  0  0  0  0  0  0
  -31.0870  -12.3360   19.2320 C   0  0  0  0  0  2  0  0  0  0  0  0
  -30.1410  -12.4160   18.0220 C   0  0  0  0  0  2  0  0  0  0  0  0
  -28.6720  -12.3660   18.4810 C   0  0  0  0  0  2  0  0  0  0  0  0
  -28.3600  -13.3670   19.6260 C   0  0  0  0  0  3  0  0  0  0  0  0
  -29.4230  -13.2820   20.7450 C   0  0  0  0  0  2  0  0  0  0  0  0
  -30.7550  -13.4490   20.1340 N   0  0  0  0  0  0  0  0  0  0  0  0
  -32.5880  -14.6740   19.5500 O   0  0  0  0  0  0  0  0  0  0  0  0
  -30.9520  -15.6690   20.6860 N   0  0  0  0  0  0  0  0  0  0  0  0
  -30.0520  -15.5650   21.1310 H   0  0  0  0  0  0  0  0  0  0  0  0
  -26.0380  -14.1150   20.4530 C   0  0  0  0  0  0  0  0  0  0  0  0
  -24.9230  -13.4090   20.8170 C   0  0  0  0  0  0  0  0  0  0  0  0
  -25.2740  -12.0280   20.6950 C   0  0  0  0  0  0  0  0  0  0  0  0
  -27.0040  -13.1720   20.1380 N   0  0  0  0  0  0  0  0  0  0  0  0
  -26.5470  -11.9080   20.3390 N   0  0  0  0  0  0  0  0  0  0  0  0
  -24.4540  -10.8170   20.8390 C   0  0  0  0  0  0  0  0  0  0  0  0
  -24.8020   -9.7930   21.7480 C   0  0  0  0  0  3  0  0  0  0  0  0
  -23.9900   -8.6460   21.8790 C   0  0  0  0  0  3  0  0  0  0  0  0
  -22.8120   -8.5160   21.1060 C   0  0  0  0  0  0  0  0  0  0  0  0
  -22.4830   -9.5250   20.1860 C   0  0  0  0  0  3  0  0  0  0  0  0
  -23.2960  -10.6630   20.0510 C   0  0  0  0  0  3  0  0  0  0  0  0
  -21.9740   -7.4280   21.1530 O   0  0  0  0  0  0  0  0  0  0  0  0
  -21.7850   -6.7120   22.3100 C   0  0  0  0  0  0  0  0  0  0  0  0
  -21.3120   -7.3190   23.4950 C   0  0  0  0  0  3  0  0  0  0  0  0
  -21.0700   -6.5330   24.6400 C   0  0  0  0  0  3  0  0  0  0  0  0
  -21.2900   -5.1440   24.6010 C   0  0  0  0  0  0  0  0  0  0  0  0
  -21.7560   -4.5380   23.4220 C   0  0  0  0  0  3  0  0  0  0  0  0
  -22.0030   -5.3210   22.2800 C   0  0  0  0  0  0  0  0  0  0  0  0
  -22.4320   -4.7270   21.1410 F   0  0  0  0  0  0  0  0  0  0  0  0
  -21.0490   -4.3880   25.6990 F   0  0  0  0  0  0  0  0  0  0  0  0
  -23.5770  -13.9730   21.1690 C   0  0  0  0  0  0  0  0  0  0  0  0
  -22.8320  -13.2960   22.0370 N   0  0  0  0  0  0  0  0  0  0  0  0
  -23.1970  -15.0490   20.7080 O   0  0  0  0  0  0  0  0  0  0  0  0
  -23.1490  -12.4220   22.4330 H   0  0  0  0  0  0  0  0  0  0  0  0
  -21.9250  -13.6510   22.3070 H   0  0  0  0  0  0  0  0  0  0  0  0
  -26.3060  -15.4770   20.3440 N   0  0  0  0  0  0  0  0  0  0  0  0
  -25.5980  -16.1840   20.5180 H   0  0  0  0  0  0  0  0  0  0  0  0
  -27.1780  -15.8650   20.0070 H   0  0  0  0  0  0  0  0  0  0  0  0
  1  3  2  0
  2  1  1  0
  2  4  2  0
  3 52  1  0
  3  6  1  0
  4  8  1  0
  4  6  1  0
  6  5  1  0
  8  7  1  0
  9 10  1  0
  9  8  1  0
 11 13  1  0
 11 10  1  0
 12 23  2  0
 13 18  1  0
 14 22  1  0
 14 24  1  0
 15 21  1  0
 15 17  1  0
 16 22  1  0
 17 16  1  0
 18 17  2  0
 19 20  1  0
 19 13  2  0
 20 15  2  0
 21 14  1  0
 22 12  1  0
 24 26  2  0
 25 24  1  0
 27 25  1  0
 28 37  2  0
 28 33  1  0
 29 25  1  0
 29 33  1  0
 30 29  1  0
 31 32  1  0
 31 30  1  0
 32 28  1  0
 33 34  2  0
 34 35  1  0
 36 35  2  0
 37 36  1  0
 38 12  1  0
 38 39  1  0
 38 48  1  0
 39 42  1  0
 40 44  1  0
 40 39  1  0
 41 40  2  0
 44 43  1  0
 46 44  1  0
 46 47  1  0
 46 45  1  0
 48 51  1  1
 48 49  1  0
 50 48  1  0
 52 53  1  0
 54 63  1  0
 54 53  1  0
 55 61  1  0
 55 63  1  0
 56 61  1  0
 57 58  1  0
 57 56  1  0
 59 58  1  0
 59 68  1  0
 59 60  1  0
 61 60  1  0
 62 55  2  0
 63 64  1  0
 65 66  2  0
 66 85  1  0
 67 66  1  0
 67 70  1  0
 68 69  1  0
 68 65  1  0
 69 67  2  0
 70 71  1  0
 71 72  2  0
 73 76  1  0
 73 72  1  0
 74 73  2  0
 75 74  1  0
 75 70  2  0
 76 77  1  0
 77 78  1  0
 78 79  2  0
 80 79  1  0
 80 84  1  0
 81 80  2  0
 82 77  2  0
 82 81  1  0
 83 82  1  0
 85 86  1  0
 86 89  1  0
 86 88  1  0
 87 85  2  0
 90 65  1  0
 90 91  1  0
 92 90  1  0
M  ISO  4  10 101  11 101  55 100  63 100
M  END
>  <TORSDO>  (59) 
F 22

>  <SCORE>  (59) 
-11.436

>  <name>  (59) 
58

>  <ligand_id>  (59) 
58

>  <original_smiles>  (59) 
[H]c1c([H])c([H])c2c(c1[H])C([H])([H])C([H])([H])C([H])([H])C2([H])N([H])C(=O)C1([H])N(C(=O)C([H])(N([H])C(=O)C([H])(N([H])C([H])([H])[H])C([H])([H])[H])C(C([H])([H])[H])(C([H])([H])[H])C([H])([H])[H])C([H])([H])c2c([H])c(OC([H])([H])C([H])([H])C([H])(c3c([H])c([H])c(C([H])([H])C([H])([H])C([H])([H])N([H])C(=O)N4C([H])([H])C([H])([H])C([H])([H])C([H])(n5nc(-c6c([H])c([H])c(Oc7c([H])c([H])c(F)c([H])c7F)c([H])c6[H])c(C(=O)N([H])[H])c5N([H])[H])C4([H])[H])n3C([H])([H])[H])C([H])([H])[H])c([H])c([H])c2C1([H])[H]

>  <smiles>  (59) 
[H]c1c([H])c([H])c2c(c1[H])C([H])([H])C([H])([H])C([H])([H])C2([H])N([H])C(=O)C1([H])N(C(=O)C([H])(N([H])C(=O)C([H])(N([H])C([H])([H])[H])C([H])([H])[H])C(C([H])([H])[H])(C([H])([H])[H])C([H])([H])[H])C([H])([H])c2c([H])c(OC([H])([H])C([H])([H])C([H])(c3c([H])c([H])c(C([H])([H])C([H])([H])C([H])([H])N([H])C(=O)N4C([H])([H])C([H])([H])C([H])([H])C([H])(n5nc(-c6c([H])c([H])c(Oc7c([H])c([H])c(F)c([H])c7F)c([H])c6[H])c(C(=O)N([H])[H])c5N([H])[H])C4([H])[H])n3C([H])([H])[H])C([H])([H])[H])c([H])c([H])c2C1([H])[H]

$$$$
59:0:0
     RDKit          3D

 96105  0  0  1  0  0  0  0  0999 V2000
  -29.9420  -22.5160   18.8980 C   0  0  0  0  0  3  0  0  0  0  0  0
  -29.7850  -23.9070   19.1730 C   0  0  0  0  0  3  0  0  0  0  0  0
  -29.6050  -23.3860   21.5080 C   0  0  0  0  0  3  0  0  0  0  0  0
  -29.8920  -21.5040   19.9110 C   0  0  0  0  0  0  0  0  0  0  0  0
  -29.5830  -24.3770   20.4880 C   0  0  0  0  0  0  0  0  0  0  0  0
  -29.7530  -21.9830   21.2460 C   0  0  0  0  0  0  0  0  0  0  0  0
  -30.2060  -19.6170   18.1350 C   0  0  0  0  0  2  0  0  0  0  0  0
  -31.6940  -19.2640   18.2970 C   0  0  0  0  0  2  0  0  0  0  0  0
  -29.7610  -19.9550   19.5670 C   0  0  0  0  0  3  0  0  0  0  0  0
  -30.5570  -18.8060   20.3440 C   0  0  0  0  0  3  0  0  0  0  0  0
  -31.8760  -18.7840   19.6880 N   0  0  0  0  0  4  0  0  0  0  0  0
  -32.4900  -19.4290   20.1640 H   0  0  0  0  0  0  0  0  0  0  0  0
  -32.2950  -17.8660   19.7280 H   0  0  0  0  0  0  0  0  0  0  0  0
  -29.8570  -17.3690   20.1940 C   0  0  0  0  0  2  0  0  0  0  0  0
  -30.9810  -15.0830   20.6230 C   0  0  0  0  0  0  0  0  0  0  0  0
  -30.8500  -12.7890   19.6680 C   0  0  0  0  0  2  0  0  0  0  0  0
  -29.9790  -12.8300   18.3870 C   0  0  0  0  0  2  0  0  0  0  0  0
  -28.4980  -12.6360   18.7550 C   0  0  0  0  0  2  0  0  0  0  0  0
  -28.0490  -13.5870   19.8920 C   0  0  0  0  0  3  0  0  0  0  0  0
  -29.0320  -13.5360   21.0860 C   0  0  0  0  0  2  0  0  0  0  0  0
  -30.3800  -13.8520   20.5890 N   0  0  0  0  0  0  0  0  0  0  0  0
  -32.1120  -15.2580   20.1600 O   0  0  0  0  0  0  0  0  0  0  0  0
  -30.2060  -16.1440   21.0050 N   0  0  0  0  0  0  0  0  0  0  0  0
  -29.4320  -15.8480   21.5780 H   0  0  0  0  0  0  0  0  0  0  0  0
  -25.6410  -14.2330   20.5150 C   0  0  0  0  0  0  0  0  0  0  0  0
  -24.5400  -13.4770   20.8150 C   0  0  0  0  0  0  0  0  0  0  0  0
  -24.9730  -12.1170   20.7690 C   0  0  0  0  0  0  0  0  0  0  0  0
  -26.6730  -13.3310   20.3030 N   0  0  0  0  0  0  0  0  0  0  0  0
  -26.2730  -12.0520   20.5200 N   0  0  0  0  0  0  0  0  0  0  0  0
  -24.2120  -10.8650   20.8970 C   0  0  0  0  0  0  0  0  0  0  0  0
  -24.5740   -9.8780   21.8370 C   0  0  0  0  0  3  0  0  0  0  0  0
  -23.8200   -8.6900   21.9570 C   0  0  0  0  0  3  0  0  0  0  0  0
  -22.6910   -8.4820   21.1300 C   0  0  0  0  0  0  0  0  0  0  0  0
  -22.3490   -9.4590   20.1790 C   0  0  0  0  0  3  0  0  0  0  0  0
  -23.1030  -10.6380   20.0610 C   0  0  0  0  0  3  0  0  0  0  0  0
  -21.9180   -7.3470   21.1570 O   0  0  0  0  0  0  0  0  0  0  0  0
  -21.7610   -6.6070   22.3000 C   0  0  0  0  0  0  0  0  0  0  0  0
  -21.2220   -7.1640   23.4800 C   0  0  0  0  0  3  0  0  0  0  0  0
  -21.0140   -6.3500   24.6110 C   0  0  0  0  0  3  0  0  0  0  0  0
  -21.3390   -4.9820   24.5640 C   0  0  0  0  0  0  0  0  0  0  0  0
  -21.8680   -4.4230   23.3880 C   0  0  0  0  0  3  0  0  0  0  0  0
  -22.0790   -5.2330   22.2590 C   0  0  0  0  0  0  0  0  0  0  0  0
  -22.5720   -4.6880   21.1210 F   0  0  0  0  0  0  0  0  0  0  0  0
  -21.1320   -4.1970   25.6470 F   0  0  0  0  0  0  0  0  0  0  0  0
  -23.1420  -13.9760   21.0410 C   0  0  0  0  0  0  0  0  0  0  0  0
  -22.3710  -13.2730   21.8640 N   0  0  0  0  0  0  0  0  0  0  0  0
  -22.7420  -15.0150   20.5220 O   0  0  0  0  0  0  0  0  0  0  0  0
  -22.7130  -12.4250   22.2920 H   0  0  0  0  0  0  0  0  0  0  0  0
  -21.4290  -13.5790   22.0640 H   0  0  0  0  0  0  0  0  0  0  0  0
  -25.8510  -15.6000   20.3810 N   0  0  0  0  0  0  0  0  0  0  0  0
  -25.1060  -16.2810   20.4550 H   0  0  0  0  0  0  0  0  0  0  0  0
  -26.7330  -16.0080   20.0970 H   0  0  0  0  0  0  0  0  0  0  0  0
  -29.4600  -21.4300   23.5800 C   0  0  0  0  0  1  0  0  0  0  0  0
  -29.7510  -21.0290   22.2430 O   0  0  0  0  0  0  0  0  0  0  0  0
  -29.4110  -25.8840   20.8950 C   0  0  0  0  0  2  0  0  0  0  0  0
  -29.2970  -26.9460   19.8920 O   0  0  0  0  0  0  0  0  0  0  0  0
  -24.9560  -31.5870   23.3040 C   0  0  0  0  0  0  0  0  0  0  0  0
  -28.1030  -27.6610   19.9370 C   0  0  0  0  0  0  0  0  0  0  0  0
  -23.9330  -30.2080   21.5290 C   0  0  0  0  0  3  0  0  0  0  0  0
  -25.5670  -28.9560   20.0130 C   0  0  0  0  0  0  0  0  0  0  0  0
  -26.4190  -30.8390   21.4220 C   0  0  0  0  0  2  0  0  0  0  0  0
  -26.6640  -29.5350   20.6690 C   0  0  0  0  0  0  0  0  0  0  0  0
  -27.9400  -28.9010   20.6210 C   0  0  0  0  0  3  0  0  0  0  0  0
  -26.9840  -27.1100   19.2820 C   0  0  0  0  0  3  0  0  0  0  0  0
  -25.7270  -27.7440   19.3170 C   0  0  0  0  0  3  0  0  0  0  0  0
  -24.2370  -29.6780   20.1030 C   0  0  0  0  0  2  0  0  0  0  0  0
  -25.1190  -30.8850   22.1430 N   0  0  0  0  0  0  0  0  0  0  0  0
  -23.8470  -31.6970   23.8440 O   0  0  0  0  0  0  0  0  0  0  0  0
  -23.3860  -29.0430   22.3880 C   0  0  0  0  0  0  0  0  0  0  0  0
  -22.1100  -28.6820   22.1660 N   0  0  0  0  0  0  0  0  0  0  0  0
  -24.1080  -28.4730   23.2080 O   0  0  0  0  0  0  0  0  0  0  0  0
  -21.5710  -29.2180   21.4990 H   0  0  0  0  0  0  0  0  0  0  0  0
  -18.9540  -26.9310   22.3250 C   0  0  0  0  0  0  0  0  0  0  0  0
  -21.4020  -27.5800   22.8150 C   0  0  0  0  0  3  0  0  0  0  0  0
  -21.7870  -26.2180   22.1940 C   0  0  0  0  0  2  0  0  0  0  0  0
  -20.8260  -25.7600   21.0900 C   0  0  0  0  0  2  0  0  0  0  0  0
  -19.4120  -25.6410   21.6630 C   0  0  0  0  0  2  0  0  0  0  0  0
  -19.8930  -27.8440   22.8640 C   0  0  0  0  0  0  0  0  0  0  0  0
  -19.4250  -29.0300   23.4710 C   0  0  0  0  0  3  0  0  0  0  0  0
  -18.0450  -29.3020   23.5490 C   0  0  0  0  0  3  0  0  0  0  0  0
  -17.1190  -28.3920   23.0130 C   0  0  0  0  0  3  0  0  0  0  0  0
  -17.5740  -27.2110   22.3990 C   0  0  0  0  0  3  0  0  0  0  0  0
  -26.1600  -32.3010   23.9980 C   0  0  0  0  0  3  0  0  0  0  0  0
  -26.6890  -31.5360   25.2720 C   0  0  1  0  0  0  0  0  0  0  0  0
  -25.5810  -31.1780   26.2880 C   0  0  0  0  0  1  0  0  0  0  0  0
  -27.3970  -30.2220   24.8710 C   0  0  0  0  0  1  0  0  0  0  0  0
  -27.7480  -32.3970   26.0020 C   0  0  0  0  0  1  0  0  0  0  0  0
  -25.7270  -33.6590   24.3540 N   0  0  0  0  0  0  0  0  0  0  0  0
  -26.0030  -34.7570   23.6410 C   0  0  0  0  0  0  0  0  0  0  0  0
  -26.7230  -34.7420   22.6380 O   0  0  0  0  0  0  0  0  0  0  0  0
  -25.0920  -33.7440   25.1350 H   0  0  0  0  0  0  0  0  0  0  0  0
  -24.1480  -36.4150   23.2620 C   0  0  0  0  0  1  0  0  0  0  0  0
  -25.3840  -36.0880   24.1160 C   0  0  0  0  0  3  0  0  0  0  0  0
  -27.4000  -37.1190   25.0680 C   0  0  0  0  0  1  0  0  0  0  0  0
  -26.3300  -37.2250   24.0780 N   0  0  0  0  0  0  0  0  0  0  0  0
  -25.8440  -38.1030   24.2330 H   0  0  0  0  0  0  0  0  0  0  0  0
  1  2  2  0
  1  4  1  0
  2  5  1  0
  4  6  2  0
  5 55  1  0
  5  3  2  0
  6  3  1  0
  6 54  1  0
  7  8  1  0
  7  9  1  0
  8 11  1  0
  9  4  1  0
  9 10  1  0
 10 14  1  0
 11 13  1  0
 11 12  1  0
 11 10  1  0
 14 23  1  0
 15 23  1  0
 16 21  1  0
 17 18  1  0
 17 16  1  0
 19 18  1  0
 19 28  1  0
 19 20  1  0
 21 15  1  0
 21 20  1  0
 22 15  2  0
 23 24  1  0
 25 26  2  0
 26 45  1  0
 27 26  1  0
 27 30  1  0
 28 25  1  0
 28 29  1  0
 29 27  2  0
 30 31  1  0
 31 32  2  0
 33 36  1  0
 33 32  1  0
 34 33  2  0
 35 34  1  0
 35 30  2  0
 36 37  1  0
 37 38  1  0
 38 39  2  0
 40 39  1  0
 40 44  1  0
 41 40  2  0
 42 37  2  0
 42 41  1  0
 43 42  1  0
 45 46  1  0
 46 49  1  0
 46 48  1  0
 47 45  2  0
 50 51  1  0
 50 25  1  0
 52 50  1  0
 54 53  1  0
 56 58  1  0
 56 55  1  0
 57 68  2  0
 58 63  1  0
 59 67  1  0
 59 69  1  0
 60 66  1  0
 60 62  1  0
 61 67  1  0
 62 61  1  0
 63 62  2  0
 64 65  1  0
 64 58  2  0
 65 60  2  0
 66 59  1  0
 67 57  1  0
 69 71  2  0
 70 69  1  0
 72 70  1  0
 73 82  2  0
 73 78  1  0
 74 70  1  0
 74 78  1  0
 75 74  1  0
 76 77  1  0
 76 75  1  0
 77 73  1  0
 78 79  2  0
 79 80  1  0
 81 80  2  0
 82 81  1  0
 83 57  1  0
 83 88  1  0
 83 84  1  0
 84 87  1  1
 84 85  1  0
 86 84  1  0
 88 91  1  0
 89 93  1  0
 89 88  1  0
 90 89  2  0
 93 92  1  0
 95 93  1  0
 95 96  1  0
 95 94  1  0
M  ISO  4  15 100  23 100  55 101  56 101
M  END
>  <TORSDO>  (60) 
F 20

>  <SCORE>  (60) 
-11.639

>  <name>  (60) 
59

>  <ligand_id>  (60) 
59

>  <original_smiles>  (60) 
[H]c1c([H])c([H])c2c(c1[H])C([H])([H])C([H])([H])C([H])([H])C2([H])N([H])C(=O)C1([H])N(C(=O)C([H])(N([H])C(=O)C([H])(N([H])C([H])([H])[H])C([H])([H])[H])C(C([H])([H])[H])(C([H])([H])[H])C([H])([H])[H])C([H])([H])c2c([H])c(OC([H])([H])c3c([H])c([H])c(C4([H])C([H])([H])C([H])([H])[N+]([H])([H])C4([H])C([H])([H])N([H])C(=O)N4C([H])([H])C([H])([H])C([H])([H])C([H])(n5nc(-c6c([H])c([H])c(Oc7c([H])c([H])c(F)c([H])c7F)c([H])c6[H])c(C(=O)N([H])[H])c5N([H])[H])C4([H])[H])c(OC([H])([H])[H])c3[H])c([H])c([H])c2C1([H])[H]

>  <smiles>  (60) 
[H]c1c([H])c([H])c2c(c1[H])C([H])([H])C([H])([H])C([H])([H])C2([H])N([H])C(=O)C1([H])N(C(=O)C([H])(N([H])C(=O)C([H])(N([H])C([H])([H])[H])C([H])([H])[H])C(C([H])([H])[H])(C([H])([H])[H])C([H])([H])[H])C([H])([H])c2c([H])c(OC([H])([H])c3c([H])c([H])c(C4([H])C([H])([H])C([H])([H])[N+]([H])([H])C4([H])C([H])([H])N([H])C(=O)N4C([H])([H])C([H])([H])C([H])([H])C([H])(n5nc(-c6c([H])c([H])c(Oc7c([H])c([H])c(F)c([H])c7F)c([H])c6[H])c(C(=O)N([H])[H])c5N([H])[H])C4([H])[H])c(OC([H])([H])[H])c3[H])c([H])c([H])c2C1([H])[H]

$$$$
60:0:0
     RDKit          3D

100109  0  0  1  0  0  0  0  0999 V2000
  -29.3540  -19.1090   20.6050 N   0  0  0  0  0  4  0  0  0  0  0  0
  -28.4970  -18.5920   20.7300 H   0  0  0  0  0  0  0  0  0  0  0  0
  -29.5540  -19.4940   21.5150 H   0  0  0  0  0  0  0  0  0  0  0  0
  -27.3540  -21.5900   18.3780 C   0  0  0  0  0  2  0  0  0  0  0  0
  -27.8490  -22.9480   18.9130 C   0  0  0  0  0  2  0  0  0  0  0  0
  -27.5860  -20.4060   19.3350 C   0  0  0  0  0  2  0  0  0  0  0  0
  -29.6410  -21.6550   20.2010 C   0  0  0  0  0  2  0  0  0  0  0  0
  -28.6510  -22.8670   20.2250 C   0  0  0  0  0  3  0  0  0  0  0  0
  -29.0860  -20.2710   19.6820 C   0  0  0  0  0  3  0  0  0  0  0  0
  -29.3550  -24.2360   20.5140 C   0  0  0  0  0  2  0  0  0  0  0  0
  -28.4500  -25.3590   21.0950 C   0  0  0  0  0  2  0  0  0  0  0  0
  -28.6960  -26.6790   20.5500 O   0  0  0  0  0  0  0  0  0  0  0  0
  -24.6060  -31.8260   23.3060 C   0  0  0  0  0  0  0  0  0  0  0  0
  -27.5580  -27.4440   20.4150 C   0  0  0  0  0  0  0  0  0  0  0  0
  -23.5550  -30.4000   21.5820 C   0  0  0  0  0  3  0  0  0  0  0  0
  -25.1430  -28.9110   20.2480 C   0  0  0  0  0  0  0  0  0  0  0  0
  -26.0830  -30.8170   21.5630 C   0  0  0  0  0  2  0  0  0  0  0  0
  -26.2470  -29.4540   20.9170 C   0  0  0  0  0  0  0  0  0  0  0  0
  -27.4610  -28.7310   20.9950 C   0  0  0  0  0  3  0  0  0  0  0  0
  -26.4420  -26.9250   19.7150 C   0  0  0  0  0  3  0  0  0  0  0  0
  -25.2370  -27.6450   19.6390 C   0  0  0  0  0  3  0  0  0  0  0  0
  -23.8760  -29.7350   20.2160 C   0  0  0  0  0  2  0  0  0  0  0  0
  -24.7630  -31.0310   22.2100 N   0  0  0  0  0  0  0  0  0  0  0  0
  -23.4840  -32.0670   23.7700 O   0  0  0  0  0  0  0  0  0  0  0  0
  -22.8660  -29.3590   22.4940 C   0  0  0  0  0  0  0  0  0  0  0  0
  -21.5510  -29.1670   22.2960 N   0  0  0  0  0  0  0  0  0  0  0  0
  -23.5140  -28.7240   23.3300 O   0  0  0  0  0  0  0  0  0  0  0  0
  -21.0940  -29.7260   21.5900 H   0  0  0  0  0  0  0  0  0  0  0  0
  -18.1490  -28.0060   22.6840 C   0  0  0  0  0  0  0  0  0  0  0  0
  -20.7050  -28.2090   23.0100 C   0  0  0  0  0  3  0  0  0  0  0  0
  -20.7970  -26.8040   22.3720 C   0  0  0  0  0  2  0  0  0  0  0  0
  -19.7080  -26.5450   21.3240 C   0  0  0  0  0  2  0  0  0  0  0  0
  -18.3170  -26.6850   21.9490 C   0  0  0  0  0  2  0  0  0  0  0  0
  -19.2720  -28.7290   23.1660 C   0  0  0  0  0  0  0  0  0  0  0  0
  -19.0640  -29.9680   23.8090 C   0  0  0  0  0  3  0  0  0  0  0  0
  -17.7640  -30.4840   23.9750 C   0  0  0  0  0  3  0  0  0  0  0  0
  -16.6550  -29.7560   23.5110 C   0  0  0  0  0  3  0  0  0  0  0  0
  -16.8490  -28.5180   22.8710 C   0  0  0  0  0  3  0  0  0  0  0  0
  -25.8290  -32.4910   24.0120 C   0  0  0  0  0  3  0  0  0  0  0  0
  -25.4880  -33.8990   24.2570 N   0  0  0  0  0  0  0  0  0  0  0  0
  -25.8770  -34.9210   23.4850 C   0  0  0  0  0  0  0  0  0  0  0  0
  -26.6270  -34.7790   22.5160 O   0  0  0  0  0  0  0  0  0  0  0  0
  -24.8320  -34.0830   25.0020 H   0  0  0  0  0  0  0  0  0  0  0  0
  -24.1730  -36.6810   22.9150 C   0  0  0  0  0  1  0  0  0  0  0  0
  -25.3440  -36.3230   23.8430 C   0  0  0  0  0  3  0  0  0  0  0  0
  -27.3890  -37.2640   24.8170 C   0  0  0  0  0  1  0  0  0  0  0  0
  -26.3780  -37.3790   23.7710 N   0  0  0  0  0  0  0  0  0  0  0  0
  -25.9560  -38.3020   23.8370 H   0  0  0  0  0  0  0  0  0  0  0  0
  -26.2310  -31.7720   25.3570 C   0  0  1  0  0  0  0  0  0  0  0  0
  -25.0480  -31.5520   26.3270 C   0  0  0  0  0  1  0  0  0  0  0  0
  -26.8610  -30.3900   25.0690 C   0  0  0  0  0  1  0  0  0  0  0  0
  -27.3130  -32.6020   26.0850 C   0  0  0  0  0  1  0  0  0  0  0  0
  -30.4400  -18.0990   20.3150 C   0  0  0  0  0  3  0  0  0  0  0  0
  -31.5800  -18.6840   19.4170 C   0  0  0  0  0  2  0  0  0  0  0  0
  -33.8890  -20.7810   20.0910 C   0  0  0  0  0  2  0  0  0  0  0  0
  -33.4030  -19.6180   20.9650 C   0  0  0  0  0  2  0  0  0  0  0  0
  -34.4300  -20.1030   18.8200 C   0  0  0  0  0  2  0  0  0  0  0  0
  -33.0190  -18.5200   19.9600 C   0  0  0  0  0  3  0  0  0  0  0  0
  -33.9970  -18.6910   18.8690 N   0  0  0  0  0  4  0  0  0  0  0  0
  -34.8100  -18.1310   19.0840 H   0  0  0  0  0  0  0  0  0  0  0  0
  -33.6400  -18.3780   17.9820 H   0  0  0  0  0  0  0  0  0  0  0  0
  -29.9110  -16.7300   19.7420 C   0  0  0  0  0  2  0  0  0  0  0  0
  -30.8610  -14.4940   20.4540 C   0  0  0  0  0  0  0  0  0  0  0  0
  -30.6570  -12.2950   19.3770 C   0  0  0  0  0  2  0  0  0  0  0  0
  -29.7410  -12.5160   18.1530 C   0  0  0  0  0  2  0  0  0  0  0  0
  -28.2540  -12.3910   18.5490 C   0  0  0  0  0  2  0  0  0  0  0  0
  -27.8990  -13.2110   19.8190 C   0  0  0  0  0  3  0  0  0  0  0  0
  -28.9340  -12.9620   20.9450 C   0  0  0  0  0  2  0  0  0  0  0  0
  -30.2630  -13.2730   20.4040 N   0  0  0  0  0  0  0  0  0  0  0  0
  -32.0230  -14.6820   20.0840 O   0  0  0  0  0  0  0  0  0  0  0  0
  -29.9880  -15.5210   20.6090 N   0  0  0  0  0  0  0  0  0  0  0  0
  -29.0930  -15.2110   20.9650 H   0  0  0  0  0  0  0  0  0  0  0  0
  -25.5020  -13.8600   20.4830 C   0  0  0  0  0  0  0  0  0  0  0  0
  -24.4190  -13.1080   20.8400 C   0  0  0  0  0  0  0  0  0  0  0  0
  -24.8610  -11.7490   20.8270 C   0  0  0  0  0  0  0  0  0  0  0  0
  -26.5360  -12.9620   20.2720 N   0  0  0  0  0  0  0  0  0  0  0  0
  -26.1540  -11.6890   20.5410 N   0  0  0  0  0  0  0  0  0  0  0  0
  -24.1160  -10.5020   21.0100 C   0  0  0  0  0  0  0  0  0  0  0  0
  -24.5010   -9.5540   21.9830 C   0  0  0  0  0  3  0  0  0  0  0  0
  -23.7610   -8.3630   22.1500 C   0  0  0  0  0  3  0  0  0  0  0  0
  -22.6240   -8.1150   21.3430 C   0  0  0  0  0  0  0  0  0  0  0  0
  -22.2620   -9.0520   20.3600 C   0  0  0  0  0  3  0  0  0  0  0  0
  -23.0020  -10.2340   20.1920 C   0  0  0  0  0  3  0  0  0  0  0  0
  -21.8560   -6.9790   21.4170 O   0  0  0  0  0  0  0  0  0  0  0  0
  -21.7270   -6.2760   22.5880 C   0  0  0  0  0  0  0  0  0  0  0  0
  -21.1810   -6.8580   23.7520 C   0  0  0  0  0  3  0  0  0  0  0  0
  -21.0010   -6.0780   24.9120 C   0  0  0  0  0  3  0  0  0  0  0  0
  -21.3590   -4.7160   24.9070 C   0  0  0  0  0  0  0  0  0  0  0  0
  -21.8970   -4.1330   23.7480 C   0  0  0  0  0  3  0  0  0  0  0  0
  -22.0790   -4.9110   22.5900 C   0  0  0  0  0  0  0  0  0  0  0  0
  -22.5800   -4.3390   21.4680 F   0  0  0  0  0  0  0  0  0  0  0  0
  -21.1770   -3.9640   26.0190 F   0  0  0  0  0  0  0  0  0  0  0  0
  -23.0250  -13.6070   21.0830 C   0  0  0  0  0  0  0  0  0  0  0  0
  -22.2770  -12.9300   21.9450 N   0  0  0  0  0  0  0  0  0  0  0  0
  -22.6140  -14.6360   20.5450 O   0  0  0  0  0  0  0  0  0  0  0  0
  -22.6260  -12.0950   22.3940 H   0  0  0  0  0  0  0  0  0  0  0  0
  -21.3420  -13.2460   22.1540 H   0  0  0  0  0  0  0  0  0  0  0  0
  -25.6800  -15.2300   20.3000 N   0  0  0  0  0  0  0  0  0  0  0  0
  -24.8780  -15.8490   20.3420 H   0  0  0  0  0  0  0  0  0  0  0  0
  -26.4720  -15.6450   19.8270 H   0  0  0  0  0  0  0  0  0  0  0  0
  1  2  1  0
  1  3  1  0
  4  5  1  0
  4  6  1  0
  5  8  1  0
  6  9  1  0
  7  8  1  0
  8 10  1  0
  9  7  1  0
  9  1  1  0
 10 11  1  0
 12 11  1  0
 13 24  2  0
 14 12  1  0
 14 19  1  0
 15 23  1  0
 15 25  1  0
 16 18  1  0
 17 23  1  0
 18 19  2  0
 18 17  1  0
 20 14  2  0
 21 20  1  0
 21 16  2  0
 22 16  1  0
 22 15  1  0
 23 13  1  0
 25 27  2  0
 26 25  1  0
 28 26  1  0
 29 38  2  0
 29 34  1  0
 30 26  1  0
 30 34  1  0
 31 30  1  0
 32 33  1  0
 32 31  1  0
 33 29  1  0
 34 35  2  0
 35 36  1  0
 37 36  2  0
 38 37  1  0
 39 13  1  0
 39 40  1  0
 39 49  1  0
 40 43  1  0
 41 45  1  0
 41 40  1  0
 42 41  2  0
 45 44  1  0
 47 48  1  0
 47 45  1  0
 47 46  1  0
 49 52  1  1
 49 50  1  0
 51 49  1  0
 53 54  1  0
 53  1  1  0
 55 56  1  0
 57 59  1  0
 57 55  1  0
 58 54  1  0
 58 56  1  0
 59 60  1  0
 59 58  1  0
 61 59  1  0
 62 53  1  0
 62 71  1  0
 63 71  1  0
 64 69  1  0
 65 66  1  0
 65 64  1  0
 67 66  1  0
 67 76  1  0
 67 68  1  0
 69 63  1  0
 69 68  1  0
 70 63  2  0
 71 72  1  0
 73 74  2  0
 74 93  1  0
 75 74  1  0
 75 78  1  0
 76 73  1  0
 76 77  1  0
 77 75  2  0
 78 79  1  0
 79 80  2  0
 81 84  1  0
 81 80  1  0
 82 81  2  0
 83 82  1  0
 83 78  2  0
 84 85  1  0
 85 90  2  0
 85 86  1  0
 86 87  2  0
 88 87  1  0
 88 92  1  0
 89 88  2  0
 90 89  1  0
 91 90  1  0
 93 94  1  0
 94 97  1  0
 94 96  1  0
 95 93  2  0
 98 99  1  0
 98 73  1  0
100 98  1  0
M  ISO  4  11 101  12 101  63 100  71 100
M  END
>  <TORSDO>  (61) 
F 23

>  <SCORE>  (61) 
-12.966

>  <name>  (61) 
60

>  <ligand_id>  (61) 
60

>  <original_smiles>  (61) 
[H]c1c([H])c([H])c2c(c1[H])C([H])([H])C([H])([H])C([H])([H])C2([H])N([H])C(=O)C1([H])N(C(=O)C([H])(N([H])C(=O)C([H])(N([H])C([H])([H])[H])C([H])([H])[H])C(C([H])([H])[H])(C([H])([H])[H])C([H])([H])[H])C([H])([H])c2c([H])c(OC([H])([H])C([H])([H])C3([H])C([H])([H])C([H])([H])C([H])([H])C([H])([N+]([H])([H])C([H])(C([H])([H])N([H])C(=O)N4C([H])([H])C([H])([H])C([H])([H])C([H])(n5nc(-c6c([H])c([H])c(Oc7c([H])c([H])c(F)c([H])c7F)c([H])c6[H])c(C(=O)N([H])[H])c5N([H])[H])C4([H])[H])C([H])([H])C4([H])C([H])([H])C([H])([H])C([H])([H])[N+]4([H])[H])C3([H])[H])c([H])c([H])c2C1([H])[H]

>  <smiles>  (61) 
[H]c1c([H])c([H])c2c(c1[H])C([H])([H])C([H])([H])C([H])([H])C2([H])N([H])C(=O)C1([H])N(C(=O)C([H])(N([H])C(=O)C([H])(N([H])C([H])([H])[H])C([H])([H])[H])C(C([H])([H])[H])(C([H])([H])[H])C([H])([H])[H])C([H])([H])c2c([H])c(OC([H])([H])C([H])([H])C3([H])C([H])([H])C([H])([H])C([H])([H])C([H])([N+]([H])([H])C([H])(C([H])([H])N([H])C(=O)N4C([H])([H])C([H])([H])C([H])([H])C([H])(n5nc(-c6c([H])c([H])c(Oc7c([H])c([H])c(F)c([H])c7F)c([H])c6[H])c(C(=O)N([H])[H])c5N([H])[H])C4([H])[H])C([H])([H])C4([H])C([H])([H])C([H])([H])C([H])([H])[N+]4([H])[H])C3([H])[H])c([H])c([H])c2C1([H])[H]

$$$$
61:0:0
     RDKit          3D

 92100  0  0  1  0  0  0  0  0999 V2000
  -27.9010  -21.9680   22.3240 C   0  0  0  0  0  2  0  0  0  0  0  0
  -29.4060  -21.9650   22.5140 C   0  0  0  0  0  2  0  0  0  0  0  0
  -27.6880  -22.7470   21.0220 C   0  0  0  0  0  2  0  0  0  0  0  0
  -29.9320  -22.0060   21.0720 C   0  0  0  0  0  3  0  0  0  0  0  0
  -29.0180  -22.9890   20.4310 N   0  0  0  0  0  0  0  0  0  0  0  0
  -29.8500  -20.6010   20.3610 C   0  0  0  0  0  2  0  0  0  0  0  0
  -30.4310  -19.4670   21.1430 N   0  0  0  0  0  4  0  0  0  0  0  0
  -30.1630  -19.6160   22.1020 H   0  0  0  0  0  0  0  0  0  0  0  0
  -31.4350  -19.5310   21.0920 H   0  0  0  0  0  0  0  0  0  0  0  0
  -29.9770  -18.0970   20.7350 C   0  0  0  0  0  2  0  0  0  0  0  0
  -30.7350  -16.9150   21.4230 C   0  0  0  0  0  2  0  0  0  0  0  0
  -30.7710  -14.6180   20.3190 C   0  0  0  0  0  0  0  0  0  0  0  0
  -30.4140  -12.4920   19.0940 C   0  0  0  0  0  2  0  0  0  0  0  0
  -29.4430  -12.7060   17.9160 C   0  0  0  0  0  2  0  0  0  0  0  0
  -27.9890  -12.5270   18.3920 C   0  0  0  0  0  2  0  0  0  0  0  0
  -27.6730  -13.3680   19.6560 C   0  0  0  0  0  3  0  0  0  0  0  0
  -28.7530  -13.1540   20.7430 C   0  0  0  0  0  2  0  0  0  0  0  0
  -30.0700  -13.4580   20.1540 N   0  0  0  0  0  0  0  0  0  0  0  0
  -31.8430  -14.8280   19.7460 O   0  0  0  0  0  0  0  0  0  0  0  0
  -30.1980  -15.5720   21.0880 N   0  0  0  0  0  0  0  0  0  0  0  0
  -29.3220  -15.3170   21.5220 H   0  0  0  0  0  0  0  0  0  0  0  0
  -25.2870  -13.9710   20.4100 C   0  0  0  0  0  0  0  0  0  0  0  0
  -24.2300  -13.1950   20.8110 C   0  0  0  0  0  0  0  0  0  0  0  0
  -24.6960  -11.8460   20.7760 C   0  0  0  0  0  0  0  0  0  0  0  0
  -26.3310  -13.0920   20.1640 N   0  0  0  0  0  0  0  0  0  0  0  0
  -25.9780  -11.8100   20.4370 N   0  0  0  0  0  0  0  0  0  0  0  0
  -23.9770  -10.5810   20.9800 C   0  0  0  0  0  0  0  0  0  0  0  0
  -24.4190   -9.6170   21.9120 C   0  0  0  0  0  3  0  0  0  0  0  0
  -23.6950   -8.4200   22.0990 C   0  0  0  0  0  3  0  0  0  0  0  0
  -22.5140   -8.1800   21.3560 C   0  0  0  0  0  0  0  0  0  0  0  0
  -22.0930   -9.1320   20.4110 C   0  0  0  0  0  3  0  0  0  0  0  0
  -22.8200  -10.3210   20.2210 C   0  0  0  0  0  3  0  0  0  0  0  0
  -21.7610   -7.0340   21.4580 O   0  0  0  0  0  0  0  0  0  0  0  0
  -21.7150   -6.3010   22.6170 C   0  0  0  0  0  0  0  0  0  0  0  0
  -21.2770   -6.8620   23.8370 C   0  0  0  0  0  3  0  0  0  0  0  0
  -21.1810   -6.0560   24.9880 C   0  0  0  0  0  3  0  0  0  0  0  0
  -21.5110   -4.6880   24.9210 C   0  0  0  0  0  0  0  0  0  0  0  0
  -21.9450   -4.1280   23.7060 C   0  0  0  0  0  3  0  0  0  0  0  0
  -22.0420   -4.9310   22.5560 C   0  0  0  0  0  0  0  0  0  0  0  0
  -22.4380   -4.3790   21.3850 F   0  0  0  0  0  0  0  0  0  0  0  0
  -21.4120   -3.9120   26.0260 F   0  0  0  0  0  0  0  0  0  0  0  0
  -22.8380  -13.6710   21.1160 C   0  0  0  0  0  0  0  0  0  0  0  0
  -22.1270  -12.9710   21.9960 N   0  0  0  0  0  0  0  0  0  0  0  0
  -22.3910  -14.6970   20.6110 O   0  0  0  0  0  0  0  0  0  0  0  0
  -22.4990  -12.1340   22.4210 H   0  0  0  0  0  0  0  0  0  0  0  0
  -21.1980  -13.2780   22.2430 H   0  0  0  0  0  0  0  0  0  0  0  0
  -25.4360  -15.3400   20.2080 N   0  0  0  0  0  0  0  0  0  0  0  0
  -24.6300  -15.9580   20.2110 H   0  0  0  0  0  0  0  0  0  0  0  0
  -26.2580  -15.7670   19.7990 H   0  0  0  0  0  0  0  0  0  0  0  0
  -29.3660  -24.4240   20.6200 C   0  0  0  0  0  2  0  0  0  0  0  0
  -28.6000  -25.3810   19.6460 C   0  0  0  0  0  2  0  0  0  0  0  0
  -28.5450  -26.7580   20.1090 O   0  0  0  0  0  0  0  0  0  0  0  0
  -24.6130  -31.8760   23.2040 C   0  0  0  0  0  0  0  0  0  0  0  0
  -27.3550  -27.4830   20.0670 C   0  0  0  0  0  0  0  0  0  0  0  0
  -23.4480  -30.4830   21.5260 C   0  0  0  0  0  3  0  0  0  0  0  0
  -24.9390  -29.0000   20.0820 C   0  0  0  0  0  0  0  0  0  0  0  0
  -25.9750  -30.8660   21.3740 C   0  0  0  0  0  2  0  0  0  0  0  0
  -26.0860  -29.5060   20.7060 C   0  0  0  0  0  0  0  0  0  0  0  0
  -27.2880  -28.7520   20.7010 C   0  0  0  0  0  3  0  0  0  0  0  0
  -26.1850  -27.0230   19.4080 C   0  0  0  0  0  3  0  0  0  0  0  0
  -24.9870  -27.7600   19.4300 C   0  0  0  0  0  3  0  0  0  0  0  0
  -23.6840  -29.8430   20.1350 C   0  0  0  0  0  2  0  0  0  0  0  0
  -24.6950  -31.0900   22.0920 N   0  0  0  0  0  0  0  0  0  0  0  0
  -23.5180  -32.1260   23.7310 O   0  0  0  0  0  0  0  0  0  0  0  0
  -22.7980  -29.4330   22.4560 C   0  0  0  0  0  0  0  0  0  0  0  0
  -21.4820  -29.2230   22.3000 N   0  0  0  0  0  0  0  0  0  0  0  0
  -23.4810  -28.8130   23.2760 O   0  0  0  0  0  0  0  0  0  0  0  0
  -20.9890  -29.7820   21.6160 H   0  0  0  0  0  0  0  0  0  0  0  0
  -18.1280  -27.9460   22.7140 C   0  0  0  0  0  0  0  0  0  0  0  0
  -20.6710  -28.2610   23.0450 C   0  0  0  0  0  3  0  0  0  0  0  0
  -20.8180  -26.8370   22.4600 C   0  0  0  0  0  2  0  0  0  0  0  0
  -19.7470  -26.5030   21.4160 C   0  0  0  0  0  2  0  0  0  0  0  0
  -18.3480  -26.6110   22.0260 C   0  0  0  0  0  2  0  0  0  0  0  0
  -19.2180  -28.7290   23.1760 C   0  0  0  0  0  0  0  0  0  0  0  0
  -18.9570  -29.9830   23.7710 C   0  0  0  0  0  3  0  0  0  0  0  0
  -17.6380  -30.4540   23.9120 C   0  0  0  0  0  3  0  0  0  0  0  0
  -16.5620  -29.6680   23.4700 C   0  0  0  0  0  3  0  0  0  0  0  0
  -16.8070  -28.4170   22.8770 C   0  0  0  0  0  3  0  0  0  0  0  0
  -25.8820  -32.5150   23.8470 C   0  0  0  0  0  3  0  0  0  0  0  0
  -25.5590  -33.9070   24.1790 N   0  0  0  0  0  0  0  0  0  0  0  0
  -25.8800  -34.9640   23.4220 C   0  0  0  0  0  0  0  0  0  0  0  0
  -26.5590  -34.8730   22.3940 O   0  0  0  0  0  0  0  0  0  0  0  0
  -24.9730  -34.0550   24.9850 H   0  0  0  0  0  0  0  0  0  0  0  0
  -24.1320  -36.7330   23.0530 C   0  0  0  0  0  1  0  0  0  0  0  0
  -25.3700  -36.3450   23.8760 C   0  0  0  0  0  3  0  0  0  0  0  0
  -27.4840  -37.2550   24.7320 C   0  0  0  0  0  1  0  0  0  0  0  0
  -26.3890  -37.4130   23.7770 N   0  0  0  0  0  0  0  0  0  0  0  0
  -25.9690  -38.3260   23.9290 H   0  0  0  0  0  0  0  0  0  0  0  0
  -26.3880  -31.7400   25.1260 C   0  0  1  0  0  0  0  0  0  0  0  0
  -25.2770  -31.4830   26.1700 C   0  0  0  0  0  1  0  0  0  0  0  0
  -26.9950  -30.3720   24.7350 C   0  0  0  0  0  1  0  0  0  0  0  0
  -27.5170  -32.5430   25.8120 C   0  0  0  0  0  1  0  0  0  0  0  0
  1  2  1  0
  3  1  1  0
  4  6  1  0
  4  2  1  0
  5 50  1  0
  5  3  1  0
  5  4  1  0
  6  7  1  0
  7  8  1  0
  9  7  1  0
 10  7  1  0
 10 11  1  0
 12 20  1  0
 13 18  1  0
 14 15  1  0
 14 13  1  0
 16 15  1  0
 16 25  1  0
 16 17  1  0
 18 12  1  0
 18 17  1  0
 19 12  2  0
 20 11  1  0
 20 21  1  0
 22 23  2  0
 23 42  1  0
 24 23  1  0
 24 27  1  0
 25 22  1  0
 25 26  1  0
 26 24  2  0
 27 28  1  0
 28 29  2  0
 30 33  1  0
 30 29  1  0
 31 30  2  0
 32 31  1  0
 32 27  2  0
 33 34  1  0
 34 35  1  0
 35 36  2  0
 37 36  1  0
 37 41  1  0
 38 37  2  0
 39 34  2  0
 39 38  1  0
 40 39  1  0
 42 43  1  0
 43 46  1  0
 43 45  1  0
 44 42  2  0
 47 48  1  0
 47 22  1  0
 49 47  1  0
 51 52  1  0
 51 50  1  0
 53 64  2  0
 54 52  1  0
 54 59  1  0
 55 63  1  0
 55 65  1  0
 56 62  1  0
 56 58  1  0
 57 63  1  0
 58 57  1  0
 59 58  2  0
 60 61  1  0
 60 54  2  0
 61 56  2  0
 62 55  1  0
 63 53  1  0
 65 67  2  0
 66 65  1  0
 68 66  1  0
 69 78  2  0
 69 74  1  0
 70 66  1  0
 70 74  1  0
 71 70  1  0
 72 73  1  0
 72 71  1  0
 73 69  1  0
 74 75  2  0
 75 76  1  0
 77 76  2  0
 78 77  1  0
 79 53  1  0
 79 80  1  0
 79 89  1  0
 80 83  1  0
 81 85  1  0
 81 80  1  0
 82 81  2  0
 85 84  1  0
 87 85  1  0
 87 88  1  0
 87 86  1  0
 89 92  1  1
 89 90  1  0
 91 89  1  0
M  ISO  4  12 100  20 100  51 101  52 101
M  END
>  <TORSDO>  (62) 
F 22

>  <SCORE>  (62) 
-12.790

>  <name>  (62) 
61

>  <ligand_id>  (62) 
61

>  <original_smiles>  (62) 
[H]c1c([H])c([H])c2c(c1[H])C([H])([H])C([H])([H])C([H])([H])C2([H])N([H])C(=O)C1([H])N(C(=O)C([H])(N([H])C(=O)C([H])(N([H])C([H])([H])[H])C([H])([H])[H])C(C([H])([H])[H])(C([H])([H])[H])C([H])([H])[H])C([H])([H])c2c([H])c(OC([H])([H])C([H])([H])N3C([H])([H])C([H])([H])C([H])([H])C3([H])C([H])([H])[N+]([H])([H])C([H])([H])C([H])([H])N([H])C(=O)N3C([H])([H])C([H])([H])C([H])([H])C([H])(n4nc(-c5c([H])c([H])c(Oc6c([H])c([H])c(F)c([H])c6F)c([H])c5[H])c(C(=O)N([H])[H])c4N([H])[H])C3([H])[H])c([H])c([H])c2C1([H])[H]

>  <smiles>  (62) 
[H]c1c([H])c([H])c2c(c1[H])C([H])([H])C([H])([H])C([H])([H])C2([H])N([H])C(=O)C1([H])N(C(=O)C([H])(N([H])C(=O)C([H])(N([H])C([H])([H])[H])C([H])([H])[H])C(C([H])([H])[H])(C([H])([H])[H])C([H])([H])[H])C([H])([H])c2c([H])c(OC([H])([H])C([H])([H])N3C([H])([H])C([H])([H])C([H])([H])C3([H])C([H])([H])[N+]([H])([H])C([H])([H])C([H])([H])N([H])C(=O)N3C([H])([H])C([H])([H])C([H])([H])C([H])(n4nc(-c5c([H])c([H])c(Oc6c([H])c([H])c(F)c([H])c6F)c([H])c5[H])c(C(=O)N([H])[H])c4N([H])[H])C3([H])[H])c([H])c([H])c2C1([H])[H]

$$$$
62:0:0
     RDKit          3D

 99108  0  0  1  0  0  0  0  0999 V2000
  -26.3780  -23.7220   22.3060 C   0  0  0  0  0  2  0  0  0  0  0  0
  -27.5280  -23.1610   21.4620 C   0  0  0  0  0  2  0  0  0  0  0  0
  -26.3390  -25.2440   22.1880 C   0  0  0  0  0  2  0  0  0  0  0  0
  -27.4710  -23.6000   19.9740 C   0  0  0  0  0  3  0  0  0  0  0  0
  -27.2780  -25.1600   19.8570 C   0  0  0  0  0  3  0  0  0  0  0  0
  -26.1960  -25.6240   20.7720 N   0  0  0  0  0  4  0  0  0  0  0  0
  -26.1590  -26.6320   20.7290 H   0  0  0  0  0  0  0  0  0  0  0  0
  -25.3040  -25.2840   20.4470 H   0  0  0  0  0  0  0  0  0  0  0  0
  -28.7190  -23.0750   19.1910 C   0  0  0  0  0  2  0  0  0  0  0  0
  -28.9560  -21.6080   19.2980 N   0  0  0  0  0  4  0  0  0  0  0  0
  -28.0810  -21.1550   19.5030 H   0  0  0  0  0  0  0  0  0  0  0  0
  -29.2370  -21.2830   18.3870 H   0  0  0  0  0  0  0  0  0  0  0  0
  -31.4330  -19.6430   18.7630 C   0  0  0  0  0  2  0  0  0  0  0  0
  -29.5840  -18.6060   20.1470 C   0  0  0  0  0  2  0  0  0  0  0  0
  -31.3720  -20.9210   19.6170 C   0  0  0  0  0  2  0  0  0  0  0  0
  -29.5430  -19.8770   21.0200 C   0  0  0  0  0  2  0  0  0  0  0  0
  -30.9760  -18.3770   19.5250 C   0  0  0  0  0  3  0  0  0  0  0  0
  -29.9900  -21.1510   20.2670 C   0  0  0  0  0  3  0  0  0  0  0  0
  -31.0250  -17.1740   18.5570 C   0  0  0  0  0  2  0  0  0  0  0  0
  -31.1330  -14.7340   18.7630 C   0  0  0  0  0  0  0  0  0  0  0  0
  -31.0750  -12.2720   18.8230 C   0  0  0  0  0  2  0  0  0  0  0  0
  -30.0990  -11.7260   17.7650 C   0  0  0  0  0  2  0  0  0  0  0  0
  -28.6760  -11.6370   18.3480 C   0  0  0  0  0  2  0  0  0  0  0  0
  -28.2330  -12.9560   19.0350 C   0  0  0  0  0  3  0  0  0  0  0  0
  -29.3200  -13.4800   20.0030 C   0  0  0  0  0  2  0  0  0  0  0  0
  -30.5860  -13.5930   19.2570 N   0  0  0  0  0  0  0  0  0  0  0  0
  -32.1220  -14.7320   18.0260 O   0  0  0  0  0  0  0  0  0  0  0  0
  -30.5430  -15.8960   19.0950 N   0  0  0  0  0  0  0  0  0  0  0  0
  -29.7450  -15.8800   19.7120 H   0  0  0  0  0  0  0  0  0  0  0  0
  -26.0360  -13.7620   20.1070 C   0  0  0  0  0  0  0  0  0  0  0  0
  -24.9630  -13.0780   20.6150 C   0  0  0  0  0  0  0  0  0  0  0  0
  -25.2800  -11.6910   20.4860 C   0  0  0  0  0  0  0  0  0  0  0  0
  -26.9450  -12.7940   19.7060 N   0  0  0  0  0  0  0  0  0  0  0  0
  -26.5000  -11.5420   19.9870 N   0  0  0  0  0  0  0  0  0  0  0  0
  -24.4710  -10.4960   20.7590 C   0  0  0  0  0  0  0  0  0  0  0  0
  -24.9100   -9.4950   21.6550 C   0  0  0  0  0  3  0  0  0  0  0  0
  -24.1050   -8.3660   21.9190 C   0  0  0  0  0  3  0  0  0  0  0  0
  -22.8480   -8.2280   21.2850 C   0  0  0  0  0  0  0  0  0  0  0  0
  -22.4260   -9.2150   20.3750 C   0  0  0  0  0  3  0  0  0  0  0  0
  -23.2300  -10.3370   20.1110 C   0  0  0  0  0  3  0  0  0  0  0  0
  -22.0140   -7.1500   21.4560 O   0  0  0  0  0  0  0  0  0  0  0  0
  -21.8460   -6.5570   22.6810 C   0  0  0  0  0  0  0  0  0  0  0  0
  -21.3950   -7.2830   23.8040 C   0  0  0  0  0  3  0  0  0  0  0  0
  -21.1690   -6.6200   25.0270 C   0  0  0  0  0  3  0  0  0  0  0  0
  -21.3840   -5.2320   25.1260 C   0  0  0  0  0  0  0  0  0  0  0  0
  -21.8310   -4.5070   24.0070 C   0  0  0  0  0  3  0  0  0  0  0  0
  -22.0570   -5.1670   22.7870 C   0  0  0  0  0  0  0  0  0  0  0  0
  -22.4650   -4.4600   21.7050 F   0  0  0  0  0  0  0  0  0  0  0  0
  -21.1630   -4.5920   26.2980 F   0  0  0  0  0  0  0  0  0  0  0  0
  -23.6760  -13.6740   21.1090 C   0  0  0  0  0  0  0  0  0  0  0  0
  -23.0770  -13.0720   22.1300 N   0  0  0  0  0  0  0  0  0  0  0  0
  -23.2180  -14.7070   20.6240 O   0  0  0  0  0  0  0  0  0  0  0  0
  -23.4660  -12.2330   22.5360 H   0  0  0  0  0  0  0  0  0  0  0  0
  -22.2200  -13.4520   22.5080 H   0  0  0  0  0  0  0  0  0  0  0  0
  -26.3050  -15.1160   19.9360 N   0  0  0  0  0  0  0  0  0  0  0  0
  -25.6340  -15.8390   20.1720 H   0  0  0  0  0  0  0  0  0  0  0  0
  -27.1480  -15.4840   19.5140 H   0  0  0  0  0  0  0  0  0  0  0  0
  -26.9980  -25.6580   18.3960 C   0  0  0  0  0  2  0  0  0  0  0  0
  -27.2150  -27.0700   18.1930 O   0  0  0  0  0  0  0  0  0  0  0  0
  -25.5100  -30.9020   23.8960 C   0  0  0  0  0  0  0  0  0  0  0  0
  -26.2960  -27.9570   18.7120 C   0  0  0  0  0  0  0  0  0  0  0  0
  -23.7020  -30.5880   22.2400 C   0  0  0  0  0  3  0  0  0  0  0  0
  -24.4180  -29.6460   19.9780 C   0  0  0  0  0  0  0  0  0  0  0  0
  -26.1530  -30.5940   21.5100 C   0  0  0  0  0  2  0  0  0  0  0  0
  -25.7600  -29.6660   20.3810 C   0  0  0  0  0  0  0  0  0  0  0  0
  -26.7030  -28.8290   19.7440 C   0  0  0  0  0  3  0  0  0  0  0  0
  -24.9440  -27.9770   18.2940 C   0  0  0  0  0  3  0  0  0  0  0  0
  -24.0060  -28.8070   18.9310 C   0  0  0  0  0  3  0  0  0  0  0  0
  -23.4720  -30.5740   20.7040 C   0  0  0  0  0  2  0  0  0  0  0  0
  -25.1530  -30.6790   22.6000 N   0  0  0  0  0  0  0  0  0  0  0  0
  -24.6550  -31.0750   24.7750 O   0  0  0  0  0  0  0  0  0  0  0  0
  -22.9920  -29.3630   22.8580 C   0  0  0  0  0  0  0  0  0  0  0  0
  -21.6580  -29.3180   22.7290 N   0  0  0  0  0  0  0  0  0  0  0  0
  -23.6400  -28.4690   23.4100 O   0  0  0  0  0  0  0  0  0  0  0  0
  -21.2030  -30.0860   22.2570 H   0  0  0  0  0  0  0  0  0  0  0  0
  -18.2840  -28.0380   22.5740 C   0  0  0  0  0  0  0  0  0  0  0  0
  -20.7820  -28.2480   23.2000 C   0  0  0  0  0  3  0  0  0  0  0  0
  -20.9930  -26.9580   22.3760 C   0  0  0  0  0  2  0  0  0  0  0  0
  -20.0280  -26.8320   21.1940 C   0  0  0  0  0  2  0  0  0  0  0  0
  -18.5770  -26.8430   21.6840 C   0  0  0  0  0  2  0  0  0  0  0  0
  -19.3220  -28.7070   23.2730 C   0  0  0  0  0  0  0  0  0  0  0  0
  -19.0030  -29.8370   24.0610 C   0  0  0  0  0  3  0  0  0  0  0  0
  -17.6740  -30.2870   24.1640 C   0  0  0  0  0  3  0  0  0  0  0  0
  -16.6460  -29.6080   23.4880 C   0  0  0  0  0  3  0  0  0  0  0  0
  -16.9510  -28.4870   22.6930 C   0  0  0  0  0  3  0  0  0  0  0  0
  -27.0080  -30.9760   24.3310 C   0  0  0  0  0  3  0  0  0  0  0  0
  -27.1990  -32.2430   25.0490 N   0  0  0  0  0  0  0  0  0  0  0  0
  -27.7070  -33.3560   24.5060 C   0  0  0  0  0  0  0  0  0  0  0  0
  -28.1390  -33.4010   23.3520 O   0  0  0  0  0  0  0  0  0  0  0  0
  -26.8170  -32.2990   25.9830 H   0  0  0  0  0  0  0  0  0  0  0  0
  -26.5590  -35.5340   25.0240 C   0  0  0  0  0  1  0  0  0  0  0  0
  -27.7400  -34.6200   25.3860 C   0  0  0  0  0  3  0  0  0  0  0  0
  -30.1470  -34.6830   25.8610 C   0  0  0  0  0  1  0  0  0  0  0  0
  -29.0040  -35.3800   25.2780 N   0  0  0  0  0  0  0  0  0  0  0  0
  -28.9200  -36.2840   25.7330 H   0  0  0  0  0  0  0  0  0  0  0  0
  -27.4590  -29.7530   25.2230 C   0  0  1  0  0  0  0  0  0  0  0  0
  -26.5130  -29.4700   26.4120 C   0  0  0  0  0  1  0  0  0  0  0  0
  -27.5520  -28.4610   24.3770 C   0  0  0  0  0  1  0  0  0  0  0  0
  -28.8760  -30.0110   25.7870 C   0  0  0  0  0  1  0  0  0  0  0  0
  2  1  1  0
  3  1  1  0
  4  9  1  0
  4  2  1  0
  5 58  1  0
  5  4  1  0
  5  6  1  0
  6  3  1  0
  7  6  1  0
  8  6  1  0
  9 10  1  0
 10 11  1  0
 12 10  1  0
 13 17  1  0
 13 15  1  0
 14 16  1  0
 15 18  1  0
 17 19  1  0
 17 14  1  0
 18 10  1  0
 18 16  1  0
 19 28  1  0
 20 28  1  0
 20 26  1  0
 21 26  1  0
 22 23  1  0
 22 21  1  0
 24 23  1  0
 24 33  1  0
 24 25  1  0
 26 25  1  0
 27 20  2  0
 28 29  1  0
 30 31  2  0
 31 50  1  0
 32 31  1  0
 32 35  1  0
 33 34  1  0
 33 30  1  0
 34 32  2  0
 35 36  1  0
 36 37  2  0
 38 41  1  0
 38 37  1  0
 39 38  2  0
 40 39  1  0
 40 35  2  0
 41 42  1  0
 42 47  2  0
 42 43  1  0
 43 44  2  0
 44 45  1  0
 45 49  1  0
 46 45  2  0
 47 46  1  0
 48 47  1  0
 50 51  1  0
 51 54  1  0
 51 53  1  0
 52 50  2  0
 55 30  1  0
 55 56  1  0
 57 55  1  0
 59 58  1  0
 59 61  1  0
 60 71  2  0
 61 66  1  0
 62 70  1  0
 62 72  1  0
 63 65  1  0
 63 69  1  0
 64 70  1  0
 65 64  1  0
 66 65  2  0
 67 61  2  0
 67 68  1  0
 68 63  2  0
 69 62  1  0
 70 60  1  0
 72 74  2  0
 73 72  1  0
 75 73  1  0
 76 85  2  0
 76 81  1  0
 77 73  1  0
 77 81  1  0
 78 77  1  0
 79 80  1  0
 79 78  1  0
 80 76  1  0
 81 82  2  0
 82 83  1  0
 84 83  2  0
 85 84  1  0
 86 60  1  0
 86 87  1  0
 86 96  1  0
 87 90  1  0
 88 87  1  0
 88 92  1  0
 89 88  2  0
 92 91  1  0
 94 92  1  0
 94 95  1  0
 94 93  1  0
 96 99  1  1
 96 97  1  0
 98 96  1  0
M  ISO  4  20 100  28 100  58 101  59 101
M  END
>  <TORSDO>  (63) 
F 21

>  <SCORE>  (63) 
-10.859

>  <name>  (63) 
62

>  <ligand_id>  (63) 
62

>  <original_smiles>  (63) 
[H]c1c([H])c([H])c2c(c1[H])C([H])([H])C([H])([H])C([H])([H])C2([H])N([H])C(=O)C1([H])N(C(=O)C([H])(N([H])C(=O)C([H])(N([H])C([H])([H])[H])C([H])([H])[H])C(C([H])([H])[H])(C([H])([H])[H])C([H])([H])[H])C([H])([H])c2c([H])c(OC([H])([H])C3([H])C([H])(C([H])([H])[N+]([H])([H])C4([H])C([H])([H])C([H])([H])C([H])(C([H])([H])N([H])C(=O)N5C([H])([H])C([H])([H])C([H])([H])C([H])(n6nc(-c7c([H])c([H])c(Oc8c([H])c([H])c(F)c([H])c8F)c([H])c7[H])c(C(=O)N([H])[H])c6N([H])[H])C5([H])[H])C([H])([H])C4([H])[H])C([H])([H])C([H])([H])C([H])([H])[N+]3([H])[H])c([H])c([H])c2C1([H])[H]

>  <smiles>  (63) 
[H]c1c([H])c([H])c2c(c1[H])C([H])([H])C([H])([H])C([H])([H])C2([H])N([H])C(=O)C1([H])N(C(=O)C([H])(N([H])C(=O)C([H])(N([H])C([H])([H])[H])C([H])([H])[H])C(C([H])([H])[H])(C([H])([H])[H])C([H])([H])[H])C([H])([H])c2c([H])c(OC([H])([H])C3([H])C([H])(C([H])([H])[N+]([H])([H])C4([H])C([H])([H])C([H])([H])C([H])(C([H])([H])N([H])C(=O)N5C([H])([H])C([H])([H])C([H])([H])C([H])(n6nc(-c7c([H])c([H])c(Oc8c([H])c([H])c(F)c([H])c8F)c([H])c7[H])c(C(=O)N([H])[H])c6N([H])[H])C5([H])[H])C([H])([H])C4([H])[H])C([H])([H])C([H])([H])C([H])([H])[N+]3([H])[H])c([H])c([H])c2C1([H])[H]

$$$$
63:0:0
     RDKit          3D

 96105  0  0  1  0  0  0  0  0999 V2000
  -31.2510  -21.2660   21.1420 C   0  0  0  0  0  2  0  0  0  0  0  0
  -31.8440  -18.8260   21.4650 C   0  0  0  0  0  3  0  0  0  0  0  0
  -31.5780  -17.4420   21.4230 C   0  0  0  0  0  3  0  0  0  0  0  0
  -29.7100  -19.2750   20.4360 C   0  0  0  0  0  3  0  0  0  0  0  0
  -29.4250  -17.8820   20.3700 C   0  0  0  0  0  0  0  0  0  0  0  0
  -30.9160  -19.7690   20.9760 C   0  0  0  0  0  0  0  0  0  0  0  0
  -30.3760  -16.9360   20.8660 C   0  0  0  0  0  0  0  0  0  0  0  0
  -30.7350  -14.5080   20.2030 C   0  0  0  0  0  0  0  0  0  0  0  0
  -30.3540  -12.3710   19.0190 C   0  0  0  0  0  2  0  0  0  0  0  0
  -29.3590  -12.6050   17.8630 C   0  0  0  0  0  2  0  0  0  0  0  0
  -27.9070  -12.4630   18.3570 C   0  0  0  0  0  2  0  0  0  0  0  0
  -27.6340  -13.2700   19.6550 C   0  0  0  0  0  3  0  0  0  0  0  0
  -28.7410  -13.0290   20.7080 C   0  0  0  0  0  2  0  0  0  0  0  0
  -30.0380  -13.3400   20.0840 N   0  0  0  0  0  0  0  0  0  0  0  0
  -31.8330  -14.6620   19.6650 O   0  0  0  0  0  0  0  0  0  0  0  0
  -30.0850  -15.5190   20.8320 N   0  0  0  0  0  0  0  0  0  0  0  0
  -29.1840  -15.2520   21.1930 H   0  0  0  0  0  0  0  0  0  0  0  0
  -25.2730  -13.8650   20.4870 C   0  0  0  0  0  0  0  0  0  0  0  0
  -24.2200  -13.0940   20.8940 C   0  0  0  0  0  0  0  0  0  0  0  0
  -24.6690  -11.7410   20.8030 C   0  0  0  0  0  0  0  0  0  0  0  0
  -26.3030  -12.9880   20.1880 N   0  0  0  0  0  0  0  0  0  0  0  0
  -25.9440  -11.7020   20.4340 N   0  0  0  0  0  0  0  0  0  0  0  0
  -23.9400  -10.4810   20.9890 C   0  0  0  0  0  0  0  0  0  0  0  0
  -24.4100   -9.4810   21.8680 C   0  0  0  0  0  3  0  0  0  0  0  0
  -23.6810   -8.2850   22.0450 C   0  0  0  0  0  3  0  0  0  0  0  0
  -22.4690   -8.0830   21.3440 C   0  0  0  0  0  0  0  0  0  0  0  0
  -22.0170   -9.0720   20.4530 C   0  0  0  0  0  3  0  0  0  0  0  0
  -22.7470  -10.2590   20.2740 C   0  0  0  0  0  3  0  0  0  0  0  0
  -21.7070   -6.9420   21.4340 O   0  0  0  0  0  0  0  0  0  0  0  0
  -21.7000   -6.1700   22.5680 C   0  0  0  0  0  0  0  0  0  0  0  0
  -21.3480   -6.7000   23.8290 C   0  0  0  0  0  3  0  0  0  0  0  0
  -21.2870   -5.8570   24.9550 C   0  0  0  0  0  3  0  0  0  0  0  0
  -21.5670   -4.4830   24.8230 C   0  0  0  0  0  0  0  0  0  0  0  0
  -21.9120   -3.9520   23.5680 C   0  0  0  0  0  3  0  0  0  0  0  0
  -21.9760   -4.7940   22.4440 C   0  0  0  0  0  0  0  0  0  0  0  0
  -22.2890   -4.2730   21.2330 F   0  0  0  0  0  0  0  0  0  0  0  0
  -21.5000   -3.6710   25.9030 F   0  0  0  0  0  0  0  0  0  0  0  0
  -22.8430  -13.5760   21.2470 C   0  0  0  0  0  0  0  0  0  0  0  0
  -22.1540  -12.8690   22.1350 N   0  0  0  0  0  0  0  0  0  0  0  0
  -22.3870  -14.6150   20.7700 O   0  0  0  0  0  0  0  0  0  0  0  0
  -22.5350  -12.0270   22.5420 H   0  0  0  0  0  0  0  0  0  0  0  0
  -21.2330  -13.1740   22.4140 H   0  0  0  0  0  0  0  0  0  0  0  0
  -25.4270  -15.2330   20.3200 N   0  0  0  0  0  0  0  0  0  0  0  0
  -24.6570  -15.8770   20.4680 H   0  0  0  0  0  0  0  0  0  0  0  0
  -26.2250  -15.6640   19.8760 H   0  0  0  0  0  0  0  0  0  0  0  0
  -27.4910  -18.1370   18.5710 C   0  0  0  0  0  2  0  0  0  0  0  0
  -26.8480  -18.2650   19.9340 C   0  0  0  0  0  2  0  0  0  0  0  0
  -28.1060  -17.4420   19.7710 C   0  0  0  0  0  3  0  0  0  0  0  0
  -30.1350  -22.3630   21.1370 C   0  0  0  0  0  2  0  0  0  0  0  0
  -29.9300  -23.0390   19.8210 N   0  0  0  0  0  4  0  0  0  0  0  0
  -29.1380  -22.6380   19.3440 H   0  0  0  0  0  0  0  0  0  0  0  0
  -30.7370  -22.8050   19.2660 H   0  0  0  0  0  0  0  0  0  0  0  0
  -29.8530  -24.5420   19.8250 C   0  0  0  0  0  2  0  0  0  0  0  0
  -27.8530  -24.8550   21.3910 C   0  0  0  0  0  1  0  0  0  0  0  0
  -28.4310  -25.1520   19.9960 C   0  0  0  0  0  3  0  0  0  0  0  0
  -28.4850  -26.5910   19.8020 O   0  0  0  0  0  0  0  0  0  0  0  0
  -24.5740  -31.6190   23.0280 C   0  0  0  0  0  0  0  0  0  0  0  0
  -27.2970  -27.3090   19.8040 C   0  0  0  0  0  0  0  0  0  0  0  0
  -23.3930  -30.2470   21.3450 C   0  0  0  0  0  3  0  0  0  0  0  0
  -24.8720  -28.7860   19.8670 C   0  0  0  0  0  0  0  0  0  0  0  0
  -25.9130  -30.6580   21.1540 C   0  0  0  0  0  2  0  0  0  0  0  0
  -26.0230  -29.3100   20.4660 C   0  0  0  0  0  0  0  0  0  0  0  0
  -27.2380  -28.5820   20.4250 C   0  0  0  0  0  3  0  0  0  0  0  0
  -26.1230  -26.8090   19.1930 C   0  0  0  0  0  3  0  0  0  0  0  0
  -24.9180  -27.5370   19.2260 C   0  0  0  0  0  3  0  0  0  0  0  0
  -23.6120  -29.6180   19.9450 C   0  0  0  0  0  2  0  0  0  0  0  0
  -24.6450  -30.8550   21.9000 N   0  0  0  0  0  0  0  0  0  0  0  0
  -23.4890  -31.8520   23.5790 O   0  0  0  0  0  0  0  0  0  0  0  0
  -22.7640  -29.1820   22.2740 C   0  0  0  0  0  0  0  0  0  0  0  0
  -21.4390  -28.9950   22.1610 N   0  0  0  0  0  0  0  0  0  0  0  0
  -23.4650  -28.5300   23.0510 O   0  0  0  0  0  0  0  0  0  0  0  0
  -20.9350  -29.5740   21.5050 H   0  0  0  0  0  0  0  0  0  0  0  0
  -18.0790  -27.7700   22.6810 C   0  0  0  0  0  0  0  0  0  0  0  0
  -20.6410  -28.0210   22.9040 C   0  0  0  0  0  3  0  0  0  0  0  0
  -20.7330  -26.6190   22.2590 C   0  0  0  0  0  2  0  0  0  0  0  0
  -19.6080  -26.3420   21.2560 C   0  0  0  0  0  2  0  0  0  0  0  0
  -18.2400  -26.4550   21.9380 C   0  0  0  0  0  2  0  0  0  0  0  0
  -19.2060  -28.5130   23.1190 C   0  0  0  0  0  0  0  0  0  0  0  0
  -19.0010  -29.7470   23.7740 C   0  0  0  0  0  3  0  0  0  0  0  0
  -17.7000  -30.2390   23.9930 C   0  0  0  0  0  3  0  0  0  0  0  0
  -16.5870  -29.4910   23.5720 C   0  0  0  0  0  3  0  0  0  0  0  0
  -16.7770  -28.2590   22.9200 C   0  0  0  0  0  3  0  0  0  0  0  0
  -25.8490  -32.2560   23.6650 C   0  0  0  0  0  3  0  0  0  0  0  0
  -25.5140  -33.6360   24.0400 N   0  0  0  0  0  0  0  0  0  0  0  0
  -25.8300  -34.7190   23.3160 C   0  0  0  0  0  0  0  0  0  0  0  0
  -26.5060  -34.6590   22.2850 O   0  0  0  0  0  0  0  0  0  0  0  0
  -24.9130  -33.7540   24.8420 H   0  0  0  0  0  0  0  0  0  0  0  0
  -24.0710  -36.4890   23.0110 C   0  0  0  0  0  1  0  0  0  0  0  0
  -25.3160  -36.0820   23.8160 C   0  0  0  0  0  3  0  0  0  0  0  0
  -27.4300  -36.9780   24.6830 C   0  0  0  0  0  1  0  0  0  0  0  0
  -26.3290  -37.1570   23.7410 N   0  0  0  0  0  0  0  0  0  0  0  0
  -25.9060  -38.0640   23.9160 H   0  0  0  0  0  0  0  0  0  0  0  0
  -26.3870  -31.4560   24.9140 C   0  0  1  0  0  0  0  0  0  0  0  0
  -25.3050  -31.1680   25.9820 C   0  0  0  0  0  1  0  0  0  0  0  0
  -26.9890  -30.1010   24.4750 C   0  0  0  0  0  1  0  0  0  0  0  0
  -27.5290  -32.2480   25.5920 C   0  0  0  0  0  1  0  0  0  0  0  0
  3  2  1  0
  4  6  1  0
  5  4  2  0
  5  7  1  0
  6  1  1  0
  6  2  2  0
  7  3  2  0
  8 16  1  0
  9 14  1  0
 10 11  1  0
 10  9  1  0
 12 11  1  0
 12 21  1  0
 12 13  1  0
 14  8  1  0
 14 13  1  0
 15  8  2  0
 16  7  1  0
 16 17  1  0
 18 19  2  0
 19 38  1  0
 20 19  1  0
 20 23  1  0
 21 22  1  0
 21 18  1  0
 22 20  2  0
 23 24  1  0
 24 25  2  0
 26 29  1  0
 26 25  1  0
 27 26  2  0
 28 27  1  0
 28 23  2  0
 29 30  1  0
 30 31  1  0
 31 32  2  0
 33 32  1  0
 33 37  1  0
 34 33  2  0
 35 30  2  0
 35 34  1  0
 36 35  1  0
 38 39  1  0
 39 42  1  0
 39 41  1  0
 40 38  2  0
 43 44  1  0
 43 18  1  0
 45 43  1  0
 46 48  1  0
 46 47  1  0
 48 47  1  0
 48  5  1  0
 49  1  1  0
 50 53  1  0
 50 49  1  0
 51 50  1  0
 52 50  1  0
 53 55  1  0
 55 54  1  0
 56 58  1  0
 56 55  1  0
 57 68  2  0
 58 63  1  0
 59 67  1  0
 59 69  1  0
 60 66  1  0
 60 62  1  0
 61 67  1  0
 62 61  1  0
 63 62  2  0
 64 65  1  0
 64 58  2  0
 65 60  2  0
 66 59  1  0
 67 57  1  0
 69 71  2  0
 70 69  1  0
 72 70  1  0
 73 82  2  0
 73 78  1  0
 74 70  1  0
 74 78  1  0
 75 74  1  0
 76 77  1  0
 76 75  1  0
 77 73  1  0
 78 79  2  0
 79 80  1  0
 81 80  2  0
 82 81  1  0
 83 57  1  0
 83 84  1  0
 83 93  1  0
 84 87  1  0
 85 89  1  0
 85 84  1  0
 86 85  2  0
 89 88  1  0
 91 89  1  0
 91 92  1  0
 91 90  1  0
 93 96  1  1
 93 94  1  0
 95 93  1  0
M  ISO  4   8 100  16 100  55 101  56 101
M  END
>  <TORSDO>  (64) 
F 22

>  <SCORE>  (64) 
-13.114

>  <name>  (64) 
63

>  <ligand_id>  (64) 
63

>  <original_smiles>  (64) 
[H]c1c([H])c([H])c2c(c1[H])C([H])([H])C([H])([H])C([H])([H])C2([H])N([H])C(=O)C1([H])N(C(=O)C([H])(N([H])C(=O)C([H])(N([H])C([H])([H])[H])C([H])([H])[H])C(C([H])([H])[H])(C([H])([H])[H])C([H])([H])[H])C([H])([H])c2c([H])c(OC([H])(C([H])([H])[H])C([H])([H])[N+]([H])([H])C([H])([H])C([H])([H])c3c([H])c([H])c(N([H])C(=O)N4C([H])([H])C([H])([H])C([H])([H])C([H])(n5nc(-c6c([H])c([H])c(Oc7c([H])c([H])c(F)c([H])c7F)c([H])c6[H])c(C(=O)N([H])[H])c5N([H])[H])C4([H])[H])c(C4([H])C([H])([H])C4([H])[H])c3[H])c([H])c([H])c2C1([H])[H]

>  <smiles>  (64) 
[H]c1c([H])c([H])c2c(c1[H])C([H])([H])C([H])([H])C([H])([H])C2([H])N([H])C(=O)C1([H])N(C(=O)C([H])(N([H])C(=O)C([H])(N([H])C([H])([H])[H])C([H])([H])[H])C(C([H])([H])[H])(C([H])([H])[H])C([H])([H])[H])C([H])([H])c2c([H])c(OC([H])(C([H])([H])[H])C([H])([H])[N+]([H])([H])C([H])([H])C([H])([H])c3c([H])c([H])c(N([H])C(=O)N4C([H])([H])C([H])([H])C([H])([H])C([H])(n5nc(-c6c([H])c([H])c(Oc7c([H])c([H])c(F)c([H])c7F)c([H])c6[H])c(C(=O)N([H])[H])c5N([H])[H])C4([H])[H])c(C4([H])C([H])([H])C4([H])[H])c3[H])c([H])c([H])c2C1([H])[H]

$$$$
64:0:0
     RDKit          3D

 99108  0  0  1  0  0  0  0  0999 V2000
  -30.6020  -18.7370   21.2760 C   0  0  0  0  0  2  0  0  0  0  0  0
  -30.9750  -15.0470   20.8710 C   0  0  0  0  0  0  0  0  0  0  0  0
  -30.8770  -12.6380   20.2540 C   0  0  0  0  0  2  0  0  0  0  0  0
  -30.1110  -12.4260   18.9240 C   0  0  0  0  0  2  0  0  0  0  0  0
  -28.5810  -12.3500   19.1930 C   0  0  0  0  0  2  0  0  0  0  0  0
  -28.0270  -13.3940   20.2140 C   0  0  0  0  0  3  0  0  0  0  0  0
  -28.9650  -13.5630   21.4310 C   0  0  0  0  0  2  0  0  0  0  0  0
  -30.3120  -13.8380   20.9030 N   0  0  0  0  0  0  0  0  0  0  0  0
  -32.1990  -15.0530   21.0210 O   0  0  0  0  0  0  0  0  0  0  0  0
  -30.3720  -16.5140   17.6400 C   0  0  0  0  0  2  0  0  0  0  0  0
  -29.6940  -15.9820   18.9420 C   0  0  0  0  0  2  0  0  0  0  0  0
  -31.8930  -16.2750   17.4880 C   0  0  0  0  0  2  0  0  0  0  0  0
  -30.9460  -17.6300   20.1720 C   0  0  0  0  0  3  0  0  0  0  0  0
  -32.4220  -17.6480   19.5870 C   0  0  0  0  0  3  0  0  0  0  0  0
  -30.3930  -16.1830   20.2520 N   0  0  0  0  0  0  0  0  0  0  0  0
  -32.7170  -16.4790   18.7100 N   0  0  0  0  0  4  0  0  0  0  0  0
  -33.6830  -16.5400   18.4280 H   0  0  0  0  0  0  0  0  0  0  0  0
  -32.6530  -15.6720   19.3220 H   0  0  0  0  0  0  0  0  0  0  0  0
  -25.5910  -14.0120   20.6900 C   0  0  0  0  0  0  0  0  0  0  0  0
  -24.4910  -13.2520   20.9520 C   0  0  0  0  0  0  0  0  0  0  0  0
  -24.9500  -11.8980   21.0080 C   0  0  0  0  0  0  0  0  0  0  0  0
  -26.6510  -13.1230   20.5920 N   0  0  0  0  0  0  0  0  0  0  0  0
  -26.2680  -11.8530   20.8600 N   0  0  0  0  0  0  0  0  0  0  0  0
  -24.2120  -10.6400   21.1440 C   0  0  0  0  0  0  0  0  0  0  0  0
  -24.5330   -9.6950   22.1450 C   0  0  0  0  0  3  0  0  0  0  0  0
  -23.7860   -8.5040   22.2740 C   0  0  0  0  0  3  0  0  0  0  0  0
  -22.7020   -8.2490   21.4000 C   0  0  0  0  0  0  0  0  0  0  0  0
  -22.3970   -9.1810   20.3940 C   0  0  0  0  0  3  0  0  0  0  0  0
  -23.1470  -10.3620   20.2660 C   0  0  0  0  0  3  0  0  0  0  0  0
  -21.9380   -7.1090   21.4400 O   0  0  0  0  0  0  0  0  0  0  0  0
  -21.7640   -6.4010   22.6020 C   0  0  0  0  0  0  0  0  0  0  0  0
  -21.1870   -6.9830   23.7540 C   0  0  0  0  0  3  0  0  0  0  0  0
  -20.9630   -6.1980   24.9010 C   0  0  0  0  0  3  0  0  0  0  0  0
  -21.3040   -4.8320   24.8960 C   0  0  0  0  0  0  0  0  0  0  0  0
  -21.8830   -4.2520   23.7550 C   0  0  0  0  0  3  0  0  0  0  0  0
  -22.1080   -5.0340   22.6080 C   0  0  0  0  0  0  0  0  0  0  0  0
  -22.6450   -4.4680   21.5010 F   0  0  0  0  0  0  0  0  0  0  0  0
  -21.0770   -4.0750   25.9940 F   0  0  0  0  0  0  0  0  0  0  0  0
  -23.0740  -13.7360   21.0420 C   0  0  0  0  0  0  0  0  0  0  0  0
  -22.2520  -13.0880   21.8560 N   0  0  0  0  0  0  0  0  0  0  0  0
  -22.6950  -14.7260   20.4140 O   0  0  0  0  0  0  0  0  0  0  0  0
  -22.5690  -12.2990   22.4010 H   0  0  0  0  0  0  0  0  0  0  0  0
  -21.3010  -13.4080   21.9780 H   0  0  0  0  0  0  0  0  0  0  0  0
  -25.7840  -15.3800   20.5050 N   0  0  0  0  0  0  0  0  0  0  0  0
  -25.0270  -16.0510   20.5440 H   0  0  0  0  0  0  0  0  0  0  0  0
  -26.6880  -15.7950   20.3200 H   0  0  0  0  0  0  0  0  0  0  0  0
  -34.2870  -18.8600   18.1970 C   0  0  0  0  0  1  0  0  0  0  0  0
  -32.9220  -18.9660   18.9180 C   0  0  0  0  0  3  0  0  0  0  0  0
  -32.0260  -19.4330   17.9310 O   0  0  0  0  0  0  0  0  0  0  0  0
  -32.2650  -20.3310   17.7320 H   0  0  0  0  0  0  0  0  0  0  0  0
  -29.3800  -19.7560   21.0490 C   0  0  0  0  0  2  0  0  0  0  0  0
  -29.0160  -22.2840   21.6830 C   0  0  0  0  0  3  0  0  0  0  0  0
  -29.9210  -21.8370   19.5130 C   0  0  0  0  0  3  0  0  0  0  0  0
  -28.8630  -23.6700   21.3590 C   0  0  0  0  0  3  0  0  0  0  0  0
  -29.7900  -23.2200   19.1910 C   0  0  0  0  0  3  0  0  0  0  0  0
  -29.5140  -21.3120   20.7660 C   0  0  0  0  0  0  0  0  0  0  0  0
  -29.2180  -24.1720   20.0810 C   0  0  0  0  0  0  0  0  0  0  0  0
  -28.9990  -25.6470   19.5540 C   0  0  0  0  0  2  0  0  0  0  0  0
  -28.6770  -26.7720   20.4410 O   0  0  0  0  0  0  0  0  0  0  0  0
  -24.6320  -31.9740   23.3040 C   0  0  0  0  0  0  0  0  0  0  0  0
  -27.5110  -27.5420   20.3020 C   0  0  0  0  0  0  0  0  0  0  0  0
  -23.5260  -30.5430   21.6170 C   0  0  0  0  0  3  0  0  0  0  0  0
  -25.0760  -29.0490   20.2250 C   0  0  0  0  0  0  0  0  0  0  0  0
  -26.0530  -30.9480   21.5160 C   0  0  0  0  0  2  0  0  0  0  0  0
  -26.2000  -29.5780   20.8710 C   0  0  0  0  0  0  0  0  0  0  0  0
  -27.4100  -28.8300   20.9100 C   0  0  0  0  0  3  0  0  0  0  0  0
  -26.3590  -27.0560   19.6390 C   0  0  0  0  0  3  0  0  0  0  0  0
  -25.1590  -27.7940   19.5990 C   0  0  0  0  0  3  0  0  0  0  0  0
  -23.8020  -29.8670   20.2450 C   0  0  0  0  0  2  0  0  0  0  0  0
  -24.7520  -31.1750   22.2020 N   0  0  0  0  0  0  0  0  0  0  0  0
  -23.5240  -32.2160   23.8060 O   0  0  0  0  0  0  0  0  0  0  0  0
  -22.8670  -29.5060   22.5590 C   0  0  0  0  0  0  0  0  0  0  0  0
  -21.5550  -29.2790   22.3800 N   0  0  0  0  0  0  0  0  0  0  0  0
  -23.5380  -28.9070   23.4040 O   0  0  0  0  0  0  0  0  0  0  0  0
  -21.0760  -29.8180   21.6720 H   0  0  0  0  0  0  0  0  0  0  0  0
  -18.2030  -27.9680   22.7520 C   0  0  0  0  0  0  0  0  0  0  0  0
  -20.7380  -28.3110   23.1160 C   0  0  0  0  0  3  0  0  0  0  0  0
  -20.9080  -26.8870   22.5370 C   0  0  0  0  0  2  0  0  0  0  0  0
  -19.8550  -26.5340   21.4830 C   0  0  0  0  0  2  0  0  0  0  0  0
  -18.4500  -26.6280   22.0800 C   0  0  0  0  0  2  0  0  0  0  0  0
  -19.2780  -28.7670   23.2240 C   0  0  0  0  0  0  0  0  0  0  0  0
  -18.9950  -30.0200   23.8110 C   0  0  0  0  0  3  0  0  0  0  0  0
  -17.6680  -30.4750   23.9300 C   0  0  0  0  0  3  0  0  0  0  0  0
  -16.6070  -29.6730   23.4750 C   0  0  0  0  0  3  0  0  0  0  0  0
  -16.8740  -28.4220   22.8940 C   0  0  0  0  0  3  0  0  0  0  0  0
  -25.8750  -32.6390   23.9710 C   0  0  0  0  0  3  0  0  0  0  0  0
  -25.5340  -34.0430   24.2520 N   0  0  0  0  0  0  0  0  0  0  0  0
  -25.9020  -35.0830   23.4910 C   0  0  0  0  0  0  0  0  0  0  0  0
  -26.6310  -34.9630   22.5020 O   0  0  0  0  0  0  0  0  0  0  0  0
  -24.8870  -34.2080   25.0100 H   0  0  0  0  0  0  0  0  0  0  0  0
  -24.1860  -36.8530   22.9940 C   0  0  0  0  0  1  0  0  0  0  0  0
  -25.3770  -36.4770   23.8890 C   0  0  0  0  0  3  0  0  0  0  0  0
  -27.4470  -37.3990   24.8360 C   0  0  0  0  0  1  0  0  0  0  0  0
  -26.4080  -37.5360   23.8180 N   0  0  0  0  0  0  0  0  0  0  0  0
  -25.9880  -38.4570   23.9140 H   0  0  0  0  0  0  0  0  0  0  0  0
  -26.3440  -31.9060   25.2880 C   0  0  1  0  0  0  0  0  0  0  0  0
  -25.2030  -31.6670   26.3070 C   0  0  0  0  0  1  0  0  0  0  0  0
  -26.9690  -30.5330   24.9540 C   0  0  0  0  0  1  0  0  0  0  0  0
  -27.4520  -32.7330   25.9810 C   0  0  0  0  0  1  0  0  0  0  0  0
  2  8  1  0
  2  9  2  0
  3  8  1  0
  4  5  1  0
  4  3  1  0
  6  5  1  0
  6 22  1  0
  6  7  1  0
  8  7  1  0
 10 11  1  0
 11 15  1  0
 12 10  1  0
 12 16  1  0
 13 15  1  0
 13  1  1  0
 14 48  1  0
 14 13  1  0
 15  2  1  0
 16 18  1  0
 16 14  1  0
 17 16  1  0
 19 20  2  0
 20 21  1  0
 20 39  1  0
 21 24  1  0
 22 19  1  0
 22 23  1  0
 23 21  2  0
 24 25  1  0
 25 26  2  0
 27 30  1  0
 27 26  1  0
 28 27  2  0
 29 28  1  0
 29 24  2  0
 30 31  1  0
 31 36  2  0
 31 32  1  0
 32 33  2  0
 34 33  1  0
 34 38  1  0
 35 34  2  0
 36 35  1  0
 37 36  1  0
 39 40  1  0
 40 43  1  0
 40 42  1  0
 41 39  2  0
 44 45  1  0
 44 19  1  0
 46 44  1  0
 48 47  1  0
 49 48  1  0
 50 49  1  0
 51  1  1  0
 53 56  1  0
 54 52  1  0
 55 53  2  0
 55 57  1  0
 56 51  1  0
 56 52  2  0
 57 54  2  0
 58 57  1  0
 58 59  1  0
 60 71  2  0
 61 59  1  0
 61 66  1  0
 62 70  1  0
 62 72  1  0
 63 69  1  0
 63 65  1  0
 64 70  1  0
 65 66  2  0
 65 64  1  0
 67 61  2  0
 68 67  1  0
 68 63  2  0
 69 62  1  0
 70 60  1  0
 72 74  2  0
 73 72  1  0
 75 73  1  0
 76 85  2  0
 76 81  1  0
 77 73  1  0
 77 81  1  0
 78 77  1  0
 79 80  1  0
 79 78  1  0
 80 76  1  0
 81 82  2  0
 82 83  1  0
 84 83  2  0
 85 84  1  0
 86 60  1  0
 86 87  1  0
 86 96  1  0
 87 90  1  0
 88 92  1  0
 88 87  1  0
 89 88  2  0
 92 91  1  0
 94 92  1  0
 94 95  1  0
 94 93  1  0
 96 99  1  1
 96 97  1  0
 98 96  1  0
M  ISO  4   2 100  15 100  58 101  59 101
M  END
>  <TORSDO>  (65) 
F 21

>  <SCORE>  (65) 
-12.371

>  <name>  (65) 
64

>  <ligand_id>  (65) 
64

>  <original_smiles>  (65) 
[H]OC([H])(C([H])([H])[H])C1([H])C([H])(C([H])([H])C([H])([H])c2c([H])c([H])c(C([H])([H])Oc3c([H])c([H])c4c(c3[H])C([H])([H])N(C(=O)C([H])(N([H])C(=O)C([H])(N([H])C([H])([H])[H])C([H])([H])[H])C(C([H])([H])[H])(C([H])([H])[H])C([H])([H])[H])C([H])(C(=O)N([H])C3([H])c5c([H])c([H])c([H])c([H])c5C([H])([H])C([H])([H])C3([H])[H])C4([H])[H])c([H])c2[H])N(C(=O)N2C([H])([H])C([H])([H])C([H])([H])C([H])(n3nc(-c4c([H])c([H])c(Oc5c([H])c([H])c(F)c([H])c5F)c([H])c4[H])c(C(=O)N([H])[H])c3N([H])[H])C2([H])[H])C([H])([H])C([H])([H])C([H])([H])[N+]1([H])[H]

>  <smiles>  (65) 
[H]OC([H])(C([H])([H])[H])C1([H])C([H])(C([H])([H])C([H])([H])c2c([H])c([H])c(C([H])([H])Oc3c([H])c([H])c4c(c3[H])C([H])([H])N(C(=O)C([H])(N([H])C(=O)C([H])(N([H])C([H])([H])[H])C([H])([H])[H])C(C([H])([H])[H])(C([H])([H])[H])C([H])([H])[H])C([H])(C(=O)N([H])C3([H])c5c([H])c([H])c([H])c([H])c5C([H])([H])C([H])([H])C3([H])[H])C4([H])[H])c([H])c2[H])N(C(=O)N2C([H])([H])C([H])([H])C([H])([H])C([H])(n3nc(-c4c([H])c([H])c(Oc5c([H])c([H])c(F)c([H])c5F)c([H])c4[H])c(C(=O)N([H])[H])c3N([H])[H])C2([H])[H])C([H])([H])C([H])([H])C([H])([H])[N+]1([H])[H]

$$$$
65:0:0
     RDKit          3D

 99109  0  0  1  0  0  0  0  0999 V2000
  -33.8390  -21.9930   20.6880 C   0  0  0  0  0  1  0  0  0  0  0  0
  -32.7200  -21.4360   19.7670 C   0  0  0  0  0  3  0  0  0  0  0  0
  -29.9490  -23.7210   18.1060 C   0  0  0  0  0  2  0  0  0  0  0  0
  -30.2000  -24.3650   20.5740 C   0  0  0  0  0  2  0  0  0  0  0  0
  -30.6500  -22.3900   18.4170 C   0  0  0  0  0  2  0  0  0  0  0  0
  -30.8720  -23.0010   20.8250 C   0  0  0  0  0  2  0  0  0  0  0  0
  -29.2820  -24.3920   19.3270 C   0  0  0  0  0  3  0  0  0  0  0  0
  -31.6530  -22.5640   19.5710 C   0  0  0  0  0  3  0  0  0  0  0  0
  -28.9060  -25.8400   18.9390 C   0  0  0  0  0  2  0  0  0  0  0  0
  -28.5010  -26.5990   20.0750 O   0  0  0  0  0  0  0  0  0  0  0  0
  -24.6170  -31.6600   23.1420 C   0  0  0  0  0  0  0  0  0  0  0  0
  -27.3080  -27.2800   20.0350 C   0  0  0  0  0  0  0  0  0  0  0  0
  -23.4390  -30.2970   21.4460 C   0  0  0  0  0  3  0  0  0  0  0  0
  -24.9140  -28.7740   20.0300 C   0  0  0  0  0  0  0  0  0  0  0  0
  -25.9670  -30.6480   21.3110 C   0  0  0  0  0  2  0  0  0  0  0  0
  -26.0570  -29.2870   20.6540 C   0  0  0  0  0  0  0  0  0  0  0  0
  -27.2520  -28.5410   20.6650 C   0  0  0  0  0  3  0  0  0  0  0  0
  -26.1430  -26.7630   19.4260 C   0  0  0  0  0  3  0  0  0  0  0  0
  -24.9480  -27.5070   19.4190 C   0  0  0  0  0  3  0  0  0  0  0  0
  -23.6750  -29.6390   20.0600 C   0  0  0  0  0  2  0  0  0  0  0  0
  -24.6910  -30.8810   22.0260 N   0  0  0  0  0  0  0  0  0  0  0  0
  -23.5260  -31.9310   23.6630 O   0  0  0  0  0  0  0  0  0  0  0  0
  -22.7610  -29.2630   22.3720 C   0  0  0  0  0  0  0  0  0  0  0  0
  -21.4320  -29.1200   22.2360 N   0  0  0  0  0  0  0  0  0  0  0  0
  -23.4260  -28.5920   23.1660 O   0  0  0  0  0  0  0  0  0  0  0  0
  -20.9590  -29.7120   21.5680 H   0  0  0  0  0  0  0  0  0  0  0  0
  -18.0200  -28.0480   22.7290 C   0  0  0  0  0  0  0  0  0  0  0  0
  -20.5890  -28.1800   22.9730 C   0  0  0  0  0  3  0  0  0  0  0  0
  -20.6220  -26.7760   22.3270 C   0  0  0  0  0  2  0  0  0  0  0  0
  -19.4930  -26.5520   21.3160 C   0  0  0  0  0  2  0  0  0  0  0  0
  -18.1280  -26.7260   21.9880 C   0  0  0  0  0  2  0  0  0  0  0  0
  -19.1760  -28.7390   23.1780 C   0  0  0  0  0  0  0  0  0  0  0  0
  -19.0230  -29.9810   23.8300 C   0  0  0  0  0  3  0  0  0  0  0  0
  -17.7440  -30.5310   24.0390 C   0  0  0  0  0  3  0  0  0  0  0  0
  -16.6010  -29.8360   23.6060 C   0  0  0  0  0  3  0  0  0  0  0  0
  -16.7400  -28.5950   22.9570 C   0  0  0  0  0  3  0  0  0  0  0  0
  -25.8940  -32.2700   23.8020 C   0  0  0  0  0  3  0  0  0  0  0  0
  -26.3550  -31.4940   25.0960 C   0  0  1  0  0  0  0  0  0  0  0  0
  -25.2230  -31.2730   26.1250 C   0  0  0  0  0  1  0  0  0  0  0  0
  -26.9330  -30.1090   24.7220 C   0  0  0  0  0  1  0  0  0  0  0  0
  -27.4930  -32.2720   25.7970 C   0  0  0  0  0  1  0  0  0  0  0  0
  -25.6010  -33.6750   24.1150 N   0  0  0  0  0  0  0  0  0  0  0  0
  -25.9810  -34.7160   23.3620 C   0  0  0  0  0  0  0  0  0  0  0  0
  -26.6850  -34.5930   22.3550 O   0  0  0  0  0  0  0  0  0  0  0  0
  -24.9830  -33.8460   24.8930 H   0  0  0  0  0  0  0  0  0  0  0  0
  -24.3200  -36.5480   22.9130 C   0  0  0  0  0  1  0  0  0  0  0  0
  -25.5030  -36.1160   23.7920 C   0  0  0  0  0  3  0  0  0  0  0  0
  -27.6010  -36.9600   24.7500 C   0  0  0  0  0  1  0  0  0  0  0  0
  -26.5670  -37.1430   23.7360 N   0  0  0  0  0  0  0  0  0  0  0  0
  -26.1740  -38.0750   23.8490 H   0  0  0  0  0  0  0  0  0  0  0  0
  -33.2690  -19.1620   20.9410 C   0  0  0  0  0  1  0  0  0  0  0  0
  -32.1980  -19.9850   20.1740 C   0  0  0  0  0  3  0  0  0  0  0  0
  -31.2530  -18.4420   16.8200 C   0  0  0  0  0  2  0  0  0  0  0  0
  -31.5370  -17.2180   17.6580 C   0  0  0  0  0  2  0  0  0  0  0  0
  -31.8550  -19.5240   17.6860 C   0  0  0  0  0  2  0  0  0  0  0  0
  -31.4700  -17.6710   19.1460 C   0  0  0  0  0  3  0  0  0  0  0  0
  -31.4860  -19.1870   19.0830 N   0  0  1  0  0  4  0  0  0  0  0  0
  -30.5190  -19.4680   19.1450 H   0  0  0  0  0  0  0  0  0  0  0  0
  -31.2030  -14.6700   20.1070 C   0  0  0  0  0  0  0  0  0  0  0  0
  -30.8850  -12.4610   19.0630 C   0  0  0  0  0  2  0  0  0  0  0  0
  -29.8910  -12.5730   17.8880 C   0  0  0  0  0  2  0  0  0  0  0  0
  -28.4420  -12.4090   18.3850 C   0  0  0  0  0  2  0  0  0  0  0  0
  -28.1260  -13.3070   19.6110 C   0  0  0  0  0  3  0  0  0  0  0  0
  -29.2300  -13.1880   20.6810 C   0  0  0  0  0  2  0  0  0  0  0  0
  -30.5220  -13.4950   20.0460 N   0  0  0  0  0  0  0  0  0  0  0  0
  -32.3040  -14.8160   19.5770 O   0  0  0  0  0  0  0  0  0  0  0  0
  -29.9610  -17.3780   22.2790 C   0  0  0  0  0  2  0  0  0  0  0  0
  -29.4890  -17.8540   20.9140 C   0  0  0  0  0  2  0  0  0  0  0  0
  -30.6130  -16.0190   22.0320 C   0  0  0  0  0  2  0  0  0  0  0  0
  -30.2300  -17.0050   19.8650 C   0  0  0  0  0  3  0  0  0  0  0  0
  -30.5260  -15.7380   20.5950 N   0  0  0  0  0  0  0  0  0  0  0  0
  -25.7860  -13.8910   20.5110 C   0  0  0  0  0  0  0  0  0  0  0  0
  -24.7390  -13.1070   20.9150 C   0  0  0  0  0  0  0  0  0  0  0  0
  -25.1840  -11.7560   20.7850 C   0  0  0  0  0  0  0  0  0  0  0  0
  -26.8060  -13.0170   20.1670 N   0  0  0  0  0  0  0  0  0  0  0  0
  -26.4500  -11.7260   20.3870 N   0  0  0  0  0  0  0  0  0  0  0  0
  -24.4600  -10.4900   20.9610 C   0  0  0  0  0  0  0  0  0  0  0  0
  -24.8270   -9.5620   21.9600 C   0  0  0  0  0  3  0  0  0  0  0  0
  -24.1030   -8.3590   22.1200 C   0  0  0  0  0  3  0  0  0  0  0  0
  -23.0000   -8.0760   21.2800 C   0  0  0  0  0  0  0  0  0  0  0  0
  -22.6540   -8.9930   20.2710 C   0  0  0  0  0  3  0  0  0  0  0  0
  -23.3780  -10.1860   20.1100 C   0  0  0  0  0  3  0  0  0  0  0  0
  -22.2560   -6.9230   21.3440 O   0  0  0  0  0  0  0  0  0  0  0  0
  -21.9650   -6.3240   22.5430 C   0  0  0  0  0  0  0  0  0  0  0  0
  -21.2290   -6.9870   23.5490 C   0  0  0  0  0  3  0  0  0  0  0  0
  -20.8920   -6.3100   24.7380 C   0  0  0  0  0  3  0  0  0  0  0  0
  -21.2790   -4.9680   24.9170 C   0  0  0  0  0  0  0  0  0  0  0  0
  -22.0070   -4.3040   23.9130 C   0  0  0  0  0  3  0  0  0  0  0  0
  -22.3460   -4.9800   22.7280 C   0  0  0  0  0  0  0  0  0  0  0  0
  -23.0310   -4.3310   21.7560 F   0  0  0  0  0  0  0  0  0  0  0  0
  -20.9480   -4.3120   26.0530 F   0  0  0  0  0  0  0  0  0  0  0  0
  -23.3700  -13.5800   21.3070 C   0  0  0  0  0  0  0  0  0  0  0  0
  -22.7130  -12.8760   22.2230 N   0  0  0  0  0  0  0  0  0  0  0  0
  -22.8920  -14.6110   20.8340 O   0  0  0  0  0  0  0  0  0  0  0  0
  -23.1110  -12.0420   22.6290 H   0  0  0  0  0  0  0  0  0  0  0  0
  -21.7970  -13.1760   22.5270 H   0  0  0  0  0  0  0  0  0  0  0  0
  -25.9480  -15.2680   20.3920 N   0  0  0  0  0  0  0  0  0  0  0  0
  -25.1890  -15.9180   20.5730 H   0  0  0  0  0  0  0  0  0  0  0  0
  -26.7810  -15.7230   20.0430 H   0  0  0  0  0  0  0  0  0  0  0  0
  2 52  1  0
  2  1  1  0
  3  5  1  0
  3  7  1  0
  4  6  1  0
  5  8  1  0
  7  9  1  0
  7  4  1  0
  8  2  1  0
  8  6  1  0
  9 10  1  0
 11 22  2  0
 12 10  1  0
 12 17  1  0
 13 21  1  0
 13 23  1  0
 14 20  1  0
 14 16  1  0
 15 21  1  0
 16 17  2  0
 16 15  1  0
 18 12  2  0
 19 18  1  0
 19 14  2  0
 20 13  1  0
 21 11  1  0
 23 25  2  0
 24 23  1  0
 26 24  1  0
 27 36  2  0
 27 32  1  0
 28 24  1  0
 28 32  1  0
 29 28  1  0
 30 31  1  0
 30 29  1  0
 31 27  1  0
 32 33  2  0
 33 34  1  0
 35 34  2  0
 36 35  1  0
 37 11  1  0
 37 42  1  0
 37 38  1  0
 38 41  1  1
 38 39  1  0
 40 38  1  0
 42 45  1  0
 43 47  1  0
 43 42  1  0
 44 43  2  0
 47 46  1  0
 49 47  1  0
 49 50  1  0
 49 48  1  0
 52 51  1  0
 53 54  1  0
 53 55  1  0
 55 57  1  0
 56 54  1  0
 56 70  1  0
 57 58  1  6
 57 56  1  0
 57 52  1  0
 59 71  1  0
 60 65  1  0
 61 62  1  0
 61 60  1  0
 63 62  1  0
 63 75  1  0
 63 64  1  0
 65 59  1  0
 65 64  1  0
 66 59  2  0
 68 67  1  0
 69 67  1  0
 70 71  1  0
 70 68  1  0
 71 69  1  0
 72 73  2  0
 73 92  1  0
 74 73  1  0
 74 77  1  0
 75 76  1  0
 75 72  1  0
 76 74  2  0
 77 78  1  0
 78 79  2  0
 80 83  1  0
 80 79  1  0
 81 80  2  0
 82 81  1  0
 82 77  2  0
 83 84  1  0
 84 89  2  0
 84 85  1  0
 85 86  2  0
 86 87  1  0
 87 91  1  0
 88 87  2  0
 89 88  1  0
 90 89  1  0
 92 93  1  0
 93 96  1  0
 93 95  1  0
 94 92  2  0
 97 72  1  0
 97 98  1  0
 99 97  1  0
M  ISO  4   9 101  10 101  59 100  71 100
M  END
>  <TORSDO>  (66) 
F 20

>  <SCORE>  (66) 
-12.690

>  <name>  (66) 
65

>  <ligand_id>  (66) 
65

>  <original_smiles>  (66) 
[H]c1c([H])c([H])c2c(c1[H])C([H])([H])C([H])([H])C([H])([H])C2([H])N([H])C(=O)C1([H])N(C(=O)C([H])(N([H])C(=O)C([H])(N([H])C([H])([H])[H])C([H])([H])[H])C(C([H])([H])[H])(C([H])([H])[H])C([H])([H])[H])C([H])([H])c2c([H])c(OC([H])([H])C3([H])C([H])([H])C([H])([H])C([H])(C([H])(C([H])([H])[H])C([H])(C([H])([H])[H])[N+]4([H])C([H])([H])C([H])([H])C([H])([H])C4([H])C4([H])N(C(=O)N5C([H])([H])C([H])([H])C([H])([H])C([H])(n6nc(-c7c([H])c([H])c(Oc8c([H])c([H])c(F)c([H])c8F)c([H])c7[H])c(C(=O)N([H])[H])c6N([H])[H])C5([H])[H])C([H])([H])C([H])([H])C4([H])[H])C([H])([H])C3([H])[H])c([H])c([H])c2C1([H])[H]

>  <smiles>  (66) 
[H]c1c([H])c([H])c2c(c1[H])C([H])([H])C([H])([H])C([H])([H])C2([H])N([H])C(=O)C1([H])N(C(=O)C([H])(N([H])C(=O)C([H])(N([H])C([H])([H])[H])C([H])([H])[H])C(C([H])([H])[H])(C([H])([H])[H])C([H])([H])[H])C([H])([H])c2c([H])c(OC([H])([H])C3([H])C([H])([H])C([H])([H])C([H])(C([H])(C([H])([H])[H])C([H])(C([H])([H])[H])[N+]4([H])C([H])([H])C([H])([H])C([H])([H])C4([H])C4([H])N(C(=O)N5C([H])([H])C([H])([H])C([H])([H])C([H])(n6nc(-c7c([H])c([H])c(Oc8c([H])c([H])c(F)c([H])c8F)c([H])c7[H])c(C(=O)N([H])[H])c6N([H])[H])C5([H])[H])C([H])([H])C([H])([H])C4([H])[H])C([H])([H])C3([H])[H])c([H])c([H])c2C1([H])[H]

$$$$
66:0:0
     RDKit          3D

 90 98  0  0  1  0  0  0  0  0999 V2000
  -27.3580  -22.3910   20.7100 C   0  0  0  0  0  2  0  0  0  0  0  0
  -27.6060  -20.8890   20.2740 C   0  0  0  0  0  2  0  0  0  0  0  0
  -29.7620  -22.7860   20.4920 C   0  0  0  0  0  2  0  0  0  0  0  0
  -28.3650  -23.4780   20.1830 C   0  0  0  0  0  3  0  0  0  0  0  0
  -29.0160  -20.2820   20.5890 C   0  0  0  0  0  3  0  0  0  0  0  0
  -29.9550  -21.3320   20.0370 N   0  0  0  0  0  4  0  0  0  0  0  0
  -30.8950  -21.0660   20.2800 H   0  0  0  0  0  0  0  0  0  0  0  0
  -29.8980  -21.3140   19.0320 H   0  0  0  0  0  0  0  0  0  0  0  0
  -28.0180  -24.9700   20.8120 C   0  0  0  0  0  2  0  0  0  0  0  0
  -28.3080  -26.3650   20.2790 O   0  0  0  0  0  0  0  0  0  0  0  0
  -24.5980  -31.9210   23.2420 C   0  0  0  0  0  0  0  0  0  0  0  0
  -27.2420  -27.3010   20.2380 C   0  0  0  0  0  0  0  0  0  0  0  0
  -23.4220  -30.5160   21.5930 C   0  0  0  0  0  3  0  0  0  0  0  0
  -24.8960  -28.9660   20.1800 C   0  0  0  0  0  0  0  0  0  0  0  0
  -25.9690  -30.8260   21.4420 C   0  0  0  0  0  2  0  0  0  0  0  0
  -26.0630  -29.4400   20.7980 C   0  0  0  0  0  0  0  0  0  0  0  0
  -27.2440  -28.6230   20.8120 C   0  0  0  0  0  3  0  0  0  0  0  0
  -26.0590  -26.9050   19.5820 C   0  0  0  0  0  3  0  0  0  0  0  0
  -24.9010  -27.7080   19.5590 C   0  0  0  0  0  3  0  0  0  0  0  0
  -23.6580  -29.8420   20.2160 C   0  0  0  0  0  2  0  0  0  0  0  0
  -24.6820  -31.1080   22.1480 N   0  0  0  0  0  0  0  0  0  0  0  0
  -23.5060  -32.1970   23.7610 O   0  0  0  0  0  0  0  0  0  0  0  0
  -22.7510  -29.5000   22.5480 C   0  0  0  0  0  0  0  0  0  0  0  0
  -21.4260  -29.3180   22.4080 N   0  0  0  0  0  0  0  0  0  0  0  0
  -23.4230  -28.8780   23.3750 O   0  0  0  0  0  0  0  0  0  0  0  0
  -20.9460  -29.8750   21.7150 H   0  0  0  0  0  0  0  0  0  0  0  0
  -18.0450  -28.1070   22.8760 C   0  0  0  0  0  0  0  0  0  0  0  0
  -20.6020  -28.3770   23.1690 C   0  0  0  0  0  3  0  0  0  0  0  0
  -20.7120  -26.9450   22.5950 C   0  0  0  0  0  2  0  0  0  0  0  0
  -19.6210  -26.6190   21.5710 C   0  0  0  0  0  2  0  0  0  0  0  0
  -18.2320  -26.7590   22.2010 C   0  0  0  0  0  2  0  0  0  0  0  0
  -19.1570  -28.8730   23.3160 C   0  0  0  0  0  0  0  0  0  0  0  0
  -18.9270  -30.1350   23.9060 C   0  0  0  0  0  3  0  0  0  0  0  0
  -17.6180  -30.6290   24.0630 C   0  0  0  0  0  3  0  0  0  0  0  0
  -16.5210  -29.8590   23.6390 C   0  0  0  0  0  3  0  0  0  0  0  0
  -16.7360  -28.6010   23.0510 C   0  0  0  0  0  3  0  0  0  0  0  0
  -25.8670  -32.5650   23.8810 C   0  0  0  0  0  3  0  0  0  0  0  0
  -26.3610  -31.8110   25.1770 C   0  0  1  0  0  0  0  0  0  0  0  0
  -25.2480  -31.5840   26.2270 C   0  0  0  0  0  1  0  0  0  0  0  0
  -26.9530  -30.4290   24.8120 C   0  0  0  0  0  1  0  0  0  0  0  0
  -27.4980  -32.6160   25.8490 C   0  0  0  0  0  1  0  0  0  0  0  0
  -25.5490  -33.9660   24.1930 N   0  0  0  0  0  0  0  0  0  0  0  0
  -25.8930  -35.0150   23.4340 C   0  0  0  0  0  0  0  0  0  0  0  0
  -26.5830  -34.9050   22.4180 O   0  0  0  0  0  0  0  0  0  0  0  0
  -24.9400  -34.1240   24.9820 H   0  0  0  0  0  0  0  0  0  0  0  0
  -24.1770  -36.8120   23.0320 C   0  0  0  0  0  1  0  0  0  0  0  0
  -25.3980  -36.4070   23.8740 C   0  0  0  0  0  3  0  0  0  0  0  0
  -27.5120  -37.2930   24.7550 C   0  0  0  0  0  1  0  0  0  0  0  0
  -26.4350  -37.4580   23.7830 N   0  0  0  0  0  0  0  0  0  0  0  0
  -26.0260  -38.3790   23.9150 H   0  0  0  0  0  0  0  0  0  0  0  0
  -29.1690  -18.7050   20.0770 C   0  0  0  0  0  2  0  0  0  0  0  0
  -30.1440  -17.5400   20.7080 C   0  0  0  0  0  2  0  0  0  0  0  0
  -30.6350  -14.9010   20.3320 C   0  0  0  0  0  0  0  0  0  0  0  0
  -30.4830  -12.6020   19.3230 C   0  0  0  0  0  2  0  0  0  0  0  0
  -29.5380  -12.6350   18.0990 C   0  0  0  0  0  2  0  0  0  0  0  0
  -28.0730  -12.4420   18.5370 C   0  0  0  0  0  2  0  0  0  0  0  0
  -27.6880  -13.3430   19.7400 C   0  0  0  0  0  3  0  0  0  0  0  0
  -28.7480  -13.2790   20.8610 C   0  0  0  0  0  2  0  0  0  0  0  0
  -30.0320  -13.6610   20.2590 N   0  0  0  0  0  0  0  0  0  0  0  0
  -31.8300  -15.0090   20.0400 O   0  0  0  0  0  0  0  0  0  0  0  0
  -29.8300  -16.0280   20.5400 N   0  0  0  0  0  0  0  0  0  0  0  0
  -28.8620  -15.7900   20.6930 H   0  0  0  0  0  0  0  0  0  0  0  0
  -25.3020  -13.9300   20.4670 C   0  0  0  0  0  0  0  0  0  0  0  0
  -24.2390  -13.1560   20.8400 C   0  0  0  0  0  0  0  0  0  0  0  0
  -24.7060  -11.8050   20.8170 C   0  0  0  0  0  0  0  0  0  0  0  0
  -26.3480  -13.0510   20.2340 N   0  0  0  0  0  0  0  0  0  0  0  0
  -25.9970  -11.7700   20.5090 N   0  0  0  0  0  0  0  0  0  0  0  0
  -23.9830  -10.5420   21.0080 C   0  0  0  0  0  0  0  0  0  0  0  0
  -24.4160   -9.5790   21.9460 C   0  0  0  0  0  3  0  0  0  0  0  0
  -23.6920   -8.3800   22.1280 C   0  0  0  0  0  3  0  0  0  0  0  0
  -22.5210   -8.1360   21.3710 C   0  0  0  0  0  0  0  0  0  0  0  0
  -22.1080   -9.0890   20.4220 C   0  0  0  0  0  3  0  0  0  0  0  0
  -22.8330  -10.2790   20.2390 C   0  0  0  0  0  3  0  0  0  0  0  0
  -21.7690   -6.9910   21.4600 O   0  0  0  0  0  0  0  0  0  0  0  0
  -21.7160   -6.2540   22.6160 C   0  0  0  0  0  0  0  0  0  0  0  0
  -21.2740   -6.8110   23.8360 C   0  0  0  0  0  3  0  0  0  0  0  0
  -21.1700   -6.0000   24.9840 C   0  0  0  0  0  3  0  0  0  0  0  0
  -21.4970   -4.6330   24.9130 C   0  0  0  0  0  0  0  0  0  0  0  0
  -21.9330   -4.0750   23.6970 C   0  0  0  0  0  3  0  0  0  0  0  0
  -22.0390   -4.8840   22.5520 C   0  0  0  0  0  0  0  0  0  0  0  0
  -22.4390   -4.3370   21.3780 F   0  0  0  0  0  0  0  0  0  0  0  0
  -21.3910   -3.8510   26.0120 F   0  0  0  0  0  0  0  0  0  0  0  0
  -22.8400  -13.6300   21.1060 C   0  0  0  0  0  0  0  0  0  0  0  0
  -22.1120  -12.9340   21.9720 N   0  0  0  0  0  0  0  0  0  0  0  0
  -22.4010  -14.6520   20.5810 O   0  0  0  0  0  0  0  0  0  0  0  0
  -22.4800  -12.1050   22.4170 H   0  0  0  0  0  0  0  0  0  0  0  0
  -21.1730  -13.2340   22.1960 H   0  0  0  0  0  0  0  0  0  0  0  0
  -25.4620  -15.3000   20.2810 N   0  0  0  0  0  0  0  0  0  0  0  0
  -24.6870  -15.9470   20.3710 H   0  0  0  0  0  0  0  0  0  0  0  0
  -26.2920  -15.7330   19.8970 H   0  0  0  0  0  0  0  0  0  0  0  0
  2  5  1  0
  2  1  1  0
  4  3  1  0
  4  1  1  0
  4  9  1  0
  5 51  1  0
  6  7  1  0
  6  3  1  0
  6  5  1  0
  8  6  1  0
 10  9  1  0
 11 22  2  0
 12 10  1  0
 12 17  1  0
 13 21  1  0
 13 23  1  0
 14 20  1  0
 14 16  1  0
 15 21  1  0
 16 17  2  0
 16 15  1  0
 18 12  2  0
 19 18  1  0
 19 14  2  0
 20 13  1  0
 21 11  1  0
 23 25  2  0
 24 23  1  0
 26 24  1  0
 27 36  2  0
 27 32  1  0
 28 24  1  0
 28 32  1  0
 29 28  1  0
 30 31  1  0
 30 29  1  0
 31 27  1  0
 32 33  2  0
 33 34  1  0
 35 34  2  0
 36 35  1  0
 37 11  1  0
 37 42  1  0
 37 38  1  0
 38 41  1  1
 38 39  1  0
 40 38  1  0
 42 45  1  0
 43 47  1  0
 43 42  1  0
 44 43  2  0
 47 46  1  0
 49 47  1  0
 49 50  1  0
 49 48  1  0
 51 52  1  0
 53 61  1  0
 54 59  1  0
 55 56  1  0
 55 54  1  0
 57 56  1  0
 57 66  1  0
 57 58  1  0
 59 53  1  0
 59 58  1  0
 60 53  2  0
 61 62  1  0
 61 52  1  0
 63 64  2  0
 64 83  1  0
 65 64  1  0
 65 68  1  0
 66 63  1  0
 66 67  1  0
 67 65  2  0
 68 69  1  0
 69 70  2  0
 71 74  1  0
 71 70  1  0
 72 71  2  0
 73 72  1  0
 73 68  2  0
 74 75  1  0
 75 76  1  0
 76 77  2  0
 78 77  1  0
 78 82  1  0
 79 78  2  0
 80 75  2  0
 80 79  1  0
 81 80  1  0
 83 84  1  0
 84 87  1  0
 84 86  1  0
 85 83  2  0
 88 89  1  0
 88 63  1  0
 90 88  1  0
M  ISO  4   9 101  10 101  53 100  61 100
M  END
>  <TORSDO>  (67) 
F 19

>  <SCORE>  (67) 
-13.973

>  <name>  (67) 
66

>  <ligand_id>  (67) 
66

>  <original_smiles>  (67) 
[H]c1c([H])c([H])c2c(c1[H])C([H])([H])C([H])([H])C([H])([H])C2([H])N([H])C(=O)C1([H])N(C(=O)C([H])(N([H])C(=O)C([H])(N([H])C([H])([H])[H])C([H])([H])[H])C(C([H])([H])[H])(C([H])([H])[H])C([H])([H])[H])C([H])([H])c2c([H])c(OC([H])([H])C3([H])C([H])([H])C([H])([H])C([H])(C([H])([H])C([H])([H])N([H])C(=O)N4C([H])([H])C([H])([H])C([H])([H])C([H])(n5nc(-c6c([H])c([H])c(Oc7c([H])c([H])c(F)c([H])c7F)c([H])c6[H])c(C(=O)N([H])[H])c5N([H])[H])C4([H])[H])[N+]([H])([H])C3([H])[H])c([H])c([H])c2C1([H])[H]

>  <smiles>  (67) 
[H]c1c([H])c([H])c2c(c1[H])C([H])([H])C([H])([H])C([H])([H])C2([H])N([H])C(=O)C1([H])N(C(=O)C([H])(N([H])C(=O)C([H])(N([H])C([H])([H])[H])C([H])([H])[H])C(C([H])([H])[H])(C([H])([H])[H])C([H])([H])[H])C([H])([H])c2c([H])c(OC([H])([H])C3([H])C([H])([H])C([H])([H])C([H])(C([H])([H])C([H])([H])N([H])C(=O)N4C([H])([H])C([H])([H])C([H])([H])C([H])(n5nc(-c6c([H])c([H])c(Oc7c([H])c([H])c(F)c([H])c7F)c([H])c6[H])c(C(=O)N([H])[H])c5N([H])[H])C4([H])[H])[N+]([H])([H])C3([H])[H])c([H])c([H])c2C1([H])[H]

$$$$
67:0:0
     RDKit          3D

 92101  0  0  1  0  0  0  0  0999 V2000
  -30.1980  -23.4330   19.1640 C   0  0  0  0  0  3  0  0  0  0  0  0
  -30.3410  -22.0400   19.4230 C   0  0  0  0  0  3  0  0  0  0  0  0
  -28.1510  -23.4830   20.4150 C   0  0  0  0  0  3  0  0  0  0  0  0
  -29.0960  -24.1920   19.6370 C   0  0  0  0  0  0  0  0  0  0  0  0
  -28.2920  -22.0860   20.6850 C   0  0  0  0  0  0  0  0  0  0  0  0
  -29.3830  -21.3150   20.1830 C   0  0  0  0  0  0  0  0  0  0  0  0
  -27.2280  -21.3960   21.5170 C   0  0  0  0  0  1  0  0  0  0  0  0
  -28.8830  -25.6650   19.1400 C   0  0  0  0  0  2  0  0  0  0  0  0
  -28.6210  -26.7530   20.0870 O   0  0  0  0  0  0  0  0  0  0  0  0
  -24.7140  -31.9160   23.2030 C   0  0  0  0  0  0  0  0  0  0  0  0
  -27.4490  -27.5170   20.0370 C   0  0  0  0  0  0  0  0  0  0  0  0
  -23.5400  -30.5170   21.5390 C   0  0  0  0  0  3  0  0  0  0  0  0
  -25.0270  -29.0310   20.0800 C   0  0  0  0  0  0  0  0  0  0  0  0
  -26.0650  -30.9140   21.3500 C   0  0  0  0  0  2  0  0  0  0  0  0
  -26.1800  -29.5520   20.6790 C   0  0  0  0  0  0  0  0  0  0  0  0
  -27.3890  -28.8020   20.6560 C   0  0  0  0  0  3  0  0  0  0  0  0
  -26.2630  -27.0280   19.4400 C   0  0  0  0  0  3  0  0  0  0  0  0
  -25.0670  -27.7730   19.4580 C   0  0  0  0  0  3  0  0  0  0  0  0
  -23.7640  -29.8660   20.1490 C   0  0  0  0  0  2  0  0  0  0  0  0
  -24.7920  -31.1320   22.0880 N   0  0  0  0  0  0  0  0  0  0  0  0
  -23.6250  -32.1550   23.7460 O   0  0  0  0  0  0  0  0  0  0  0  0
  -22.9090  -29.4660   22.4840 C   0  0  0  0  0  0  0  0  0  0  0  0
  -21.5870  -29.2590   22.3580 N   0  0  0  0  0  0  0  0  0  0  0  0
  -23.6060  -28.8430   23.2880 O   0  0  0  0  0  0  0  0  0  0  0  0
  -21.0830  -29.8180   21.6850 H   0  0  0  0  0  0  0  0  0  0  0  0
  -18.2420  -27.9750   22.8480 C   0  0  0  0  0  0  0  0  0  0  0  0
  -20.7940  -28.2870   23.1130 C   0  0  0  0  0  3  0  0  0  0  0  0
  -20.9260  -26.8710   22.5090 C   0  0  0  0  0  2  0  0  0  0  0  0
  -19.8270  -26.5430   21.4920 C   0  0  0  0  0  2  0  0  0  0  0  0
  -18.4450  -26.6440   22.1450 C   0  0  0  0  0  2  0  0  0  0  0  0
  -19.3450  -28.7540   23.2880 C   0  0  0  0  0  0  0  0  0  0  0  0
  -19.1000  -30.0000   23.9050 C   0  0  0  0  0  3  0  0  0  0  0  0
  -17.7850  -30.4680   24.0870 C   0  0  0  0  0  3  0  0  0  0  0  0
  -16.6970  -29.6850   23.6630 C   0  0  0  0  0  3  0  0  0  0  0  0
  -16.9260  -28.4410   23.0500 C   0  0  0  0  0  3  0  0  0  0  0  0
  -25.9830  -32.5700   23.8320 C   0  0  0  0  0  3  0  0  0  0  0  0
  -25.6490  -33.9630   24.1620 N   0  0  0  0  0  0  0  0  0  0  0  0
  -25.9710  -35.0230   23.4070 C   0  0  0  0  0  0  0  0  0  0  0  0
  -26.6510  -34.9310   22.3810 O   0  0  0  0  0  0  0  0  0  0  0  0
  -25.0470  -34.1080   24.9590 H   0  0  0  0  0  0  0  0  0  0  0  0
  -24.2260  -36.7950   23.0310 C   0  0  0  0  0  1  0  0  0  0  0  0
  -25.4580  -36.4030   23.8620 C   0  0  0  0  0  3  0  0  0  0  0  0
  -27.5640  -37.3150   24.7380 C   0  0  0  0  0  1  0  0  0  0  0  0
  -26.4790  -37.4700   23.7720 N   0  0  0  0  0  0  0  0  0  0  0  0
  -26.0580  -38.3840   23.9110 H   0  0  0  0  0  0  0  0  0  0  0  0
  -26.5040  -31.8080   25.1120 C   0  0  1  0  0  0  0  0  0  0  0  0
  -25.4080  -31.5490   26.1720 C   0  0  0  0  0  1  0  0  0  0  0  0
  -27.1140  -30.4420   24.7240 C   0  0  0  0  0  1  0  0  0  0  0  0
  -27.6350  -32.6220   25.7840 C   0  0  0  0  0  1  0  0  0  0  0  0
  -29.4180  -19.9270   20.4590 O   0  0  0  0  0  0  0  0  0  0  0  0
  -30.9070  -14.8300   20.0220 C   0  0  0  0  0  0  0  0  0  0  0  0
  -30.5900  -12.6200   18.9420 C   0  0  0  0  0  2  0  0  0  0  0  0
  -29.5800  -12.7820   17.7880 C   0  0  0  0  0  2  0  0  0  0  0  0
  -28.1330  -12.6340   18.3010 C   0  0  0  0  0  2  0  0  0  0  0  0
  -27.8560  -13.4720   19.5770 C   0  0  0  0  0  3  0  0  0  0  0  0
  -28.9810  -13.3080   20.6210 C   0  0  0  0  0  2  0  0  0  0  0  0
  -30.2500  -13.6320   19.9590 N   0  0  0  0  0  0  0  0  0  0  0  0
  -32.0710  -14.9480   19.6240 O   0  0  0  0  0  0  0  0  0  0  0  0
  -31.0760  -18.1560   21.1830 C   0  0  0  0  0  2  0  0  0  0  0  0
  -30.1190  -18.0690   18.8650 C   0  0  0  0  0  2  0  0  0  0  0  0
  -30.3530  -16.8060   21.4880 C   0  0  0  0  0  2  0  0  0  0  0  0
  -29.4360  -16.7200   19.2640 C   0  0  0  0  0  2  0  0  0  0  0  0
  -30.4900  -19.0260   20.0320 C   0  0  0  0  0  3  0  0  0  0  0  0
  -30.1540  -15.9460   20.3040 N   0  0  0  0  0  0  0  0  0  0  0  0
  -25.5250  -14.0750   20.4630 C   0  0  0  0  0  0  0  0  0  0  0  0
  -24.4710  -13.3020   20.8670 C   0  0  0  0  0  0  0  0  0  0  0  0
  -24.9130  -11.9480   20.7670 C   0  0  0  0  0  0  0  0  0  0  0  0
  -26.5390  -13.1900   20.1370 N   0  0  0  0  0  0  0  0  0  0  0  0
  -26.1810  -11.9030   20.3800 N   0  0  0  0  0  0  0  0  0  0  0  0
  -24.1830  -10.6890   20.9580 C   0  0  0  0  0  0  0  0  0  0  0  0
  -24.6150   -9.7190   21.8890 C   0  0  0  0  0  3  0  0  0  0  0  0
  -23.8840   -8.5250   22.0690 C   0  0  0  0  0  3  0  0  0  0  0  0
  -22.7100   -8.2910   21.3160 C   0  0  0  0  0  0  0  0  0  0  0  0
  -22.2990   -9.2480   20.3710 C   0  0  0  0  0  3  0  0  0  0  0  0
  -23.0290  -10.4350   20.1910 C   0  0  0  0  0  3  0  0  0  0  0  0
  -21.9510   -7.1500   21.4050 O   0  0  0  0  0  0  0  0  0  0  0  0
  -21.8500   -6.4430   22.5760 C   0  0  0  0  0  0  0  0  0  0  0  0
  -21.3280   -7.0230   23.7530 C   0  0  0  0  0  3  0  0  0  0  0  0
  -21.1760   -6.2410   24.9160 C   0  0  0  0  0  3  0  0  0  0  0  0
  -21.5370   -4.8800   24.9020 C   0  0  0  0  0  0  0  0  0  0  0  0
  -22.0520   -4.2990   23.7300 C   0  0  0  0  0  3  0  0  0  0  0  0
  -22.2050   -5.0790   22.5700 C   0  0  0  0  0  0  0  0  0  0  0  0
  -22.6810   -4.5100   21.4370 F   0  0  0  0  0  0  0  0  0  0  0  0
  -21.3810   -4.1270   26.0150 F   0  0  0  0  0  0  0  0  0  0  0  0
  -23.0990  -13.7860   21.2360 C   0  0  0  0  0  0  0  0  0  0  0  0
  -22.4130  -13.0670   22.1160 N   0  0  0  0  0  0  0  0  0  0  0  0
  -22.6480  -14.8360   20.7810 O   0  0  0  0  0  0  0  0  0  0  0  0
  -22.7950  -12.2170   22.5050 H   0  0  0  0  0  0  0  0  0  0  0  0
  -21.4940  -13.3690   22.4070 H   0  0  0  0  0  0  0  0  0  0  0  0
  -25.6970  -15.4490   20.3200 N   0  0  0  0  0  0  0  0  0  0  0  0
  -24.9490  -16.1110   20.4920 H   0  0  0  0  0  0  0  0  0  0  0  0
  -26.5410  -15.8850   19.9700 H   0  0  0  0  0  0  0  0  0  0  0  0
  1  2  2  0
  1  4  1  0
  2  6  1  0
  3  5  1  0
  4  3  2  0
  5  7  1  0
  6 50  1  0
  6  5  2  0
  8  4  1  0
  8  9  1  0
 10 21  2  0
 11  9  1  0
 11 16  1  0
 12 20  1  0
 12 22  1  0
 13 19  1  0
 13 15  1  0
 14 20  1  0
 15 14  1  0
 16 15  2  0
 17 18  1  0
 17 11  2  0
 18 13  2  0
 19 12  1  0
 20 10  1  0
 22 24  2  0
 23 22  1  0
 25 23  1  0
 26 35  2  0
 26 31  1  0
 27 23  1  0
 27 31  1  0
 28 27  1  0
 29 30  1  0
 29 28  1  0
 30 26  1  0
 31 32  2  0
 32 33  1  0
 34 33  2  0
 35 34  1  0
 36 10  1  0
 36 37  1  0
 36 46  1  0
 37 40  1  0
 38 42  1  0
 38 37  1  0
 39 38  2  0
 42 41  1  0
 44 42  1  0
 44 45  1  0
 44 43  1  0
 46 49  1  1
 46 47  1  0
 48 46  1  0
 51 64  1  0
 52 57  1  0
 53 54  1  0
 53 52  1  0
 55 54  1  0
 55 68  1  0
 55 56  1  0
 57 51  1  0
 57 56  1  0
 58 51  2  0
 59 61  1  0
 60 62  1  0
 60 63  1  0
 62 64  1  0
 63 50  1  0
 63 59  1  0
 64 61  1  0
 65 66  2  0
 66 85  1  0
 67 66  1  0
 67 70  1  0
 68 69  1  0
 68 65  1  0
 69 67  2  0
 70 71  1  0
 71 72  2  0
 73 76  1  0
 73 72  1  0
 74 73  2  0
 75 74  1  0
 75 70  2  0
 76 77  1  0
 77 78  1  0
 78 79  2  0
 80 79  1  0
 80 84  1  0
 81 80  2  0
 82 77  2  0
 82 81  1  0
 83 82  1  0
 85 86  1  0
 86 89  1  0
 86 88  1  0
 87 85  2  0
 90 65  1  0
 90 91  1  0
 92 90  1  0
M  ISO  4   8 101   9 101  51 100  64 100
M  END
>  <TORSDO>  (68) 
F 18

>  <SCORE>  (68) 
-13.401

>  <name>  (68) 
67

>  <ligand_id>  (68) 
67

>  <original_smiles>  (68) 
[H]c1c([H])c([H])c2c(c1[H])C([H])([H])C([H])([H])C([H])([H])C2([H])N([H])C(=O)C1([H])N(C(=O)C([H])(N([H])C(=O)C([H])(N([H])C([H])([H])[H])C([H])([H])[H])C(C([H])([H])[H])(C([H])([H])[H])C([H])([H])[H])C([H])([H])c2c([H])c(OC([H])([H])c3c([H])c([H])c(OC4([H])C([H])([H])C([H])([H])N(C(=O)N5C([H])([H])C([H])([H])C([H])([H])C([H])(n6nc(-c7c([H])c([H])c(Oc8c([H])c([H])c(F)c([H])c8F)c([H])c7[H])c(C(=O)N([H])[H])c6N([H])[H])C5([H])[H])C([H])([H])C4([H])[H])c(C([H])([H])[H])c3[H])c([H])c([H])c2C1([H])[H]

>  <smiles>  (68) 
[H]c1c([H])c([H])c2c(c1[H])C([H])([H])C([H])([H])C([H])([H])C2([H])N([H])C(=O)C1([H])N(C(=O)C([H])(N([H])C(=O)C([H])(N([H])C([H])([H])[H])C([H])([H])[H])C(C([H])([H])[H])(C([H])([H])[H])C([H])([H])[H])C([H])([H])c2c([H])c(OC([H])([H])c3c([H])c([H])c(OC4([H])C([H])([H])C([H])([H])N(C(=O)N5C([H])([H])C([H])([H])C([H])([H])C([H])(n6nc(-c7c([H])c([H])c(Oc8c([H])c([H])c(F)c([H])c8F)c([H])c7[H])c(C(=O)N([H])[H])c6N([H])[H])C5([H])[H])C([H])([H])C4([H])[H])c(C([H])([H])[H])c3[H])c([H])c([H])c2C1([H])[H]

$$$$
68:0:0
     RDKit          3D

101111  0  0  1  0  0  0  0  0999 V2000
  -28.4530  -23.6760   21.2330 C   0  0  0  0  0  3  0  0  0  0  0  0
  -28.5980  -22.4500   21.9330 C   0  0  0  0  0  3  0  0  0  0  0  0
  -29.2400  -22.5500   19.2350 C   0  0  0  0  0  2  0  0  0  0  0  0
  -29.6300  -18.9340   21.5130 C   0  0  0  0  0  3  0  0  0  0  0  0
  -29.4060  -21.2780   19.9250 C   0  0  0  0  0  0  0  0  0  0  0  0
  -28.7670  -23.7730   19.8620 C   0  0  0  0  0  0  0  0  0  0  0  0
  -30.0190  -18.8030   20.1620 C   0  0  0  0  0  0  0  0  0  0  0  0
  -29.0620  -21.2680   21.3000 C   0  0  0  0  0  0  0  0  0  0  0  0
  -29.8800  -20.0120   19.3590 C   0  0  0  0  0  0  0  0  0  0  0  0
  -29.1800  -20.1180   22.0060 N   0  0  0  0  0  0  0  0  0  0  0  0
  -28.9250  -20.1410   22.9950 H   0  0  0  0  0  0  0  0  0  0  0  0
  -32.0820  -19.9860   16.3910 C   0  0  0  0  0  2  0  0  0  0  0  0
  -31.3650  -20.7320   17.5240 C   0  0  0  0  0  2  0  0  0  0  0  0
  -31.0730  -19.5680   15.3050 C   0  0  0  0  0  2  0  0  0  0  0  0
  -29.2700  -19.3820   17.0360 C   0  0  0  0  0  3  0  0  0  0  0  0
  -28.2610  -20.4390   16.5530 C   0  0  0  0  0  1  0  0  0  0  0  0
  -30.2430  -19.9260   17.9970 N   0  0  0  0  0  0  0  0  0  0  0  0
  -29.9800  -18.7550   15.8890 N   0  0  0  0  0  4  0  0  0  0  0  0
  -30.3710  -17.8780   16.1880 H   0  0  0  0  0  0  0  0  0  0  0  0
  -29.3130  -18.5320   15.1660 H   0  0  0  0  0  0  0  0  0  0  0  0
  -30.6830  -17.4400   19.6420 C   0  0  0  0  0  2  0  0  0  0  0  0
  -31.1440  -14.8950   19.9360 C   0  0  0  0  0  0  0  0  0  0  0  0
  -30.8820  -12.6260   18.9340 C   0  0  0  0  0  2  0  0  0  0  0  0
  -29.8720  -12.7140   17.7690 C   0  0  0  0  0  2  0  0  0  0  0  0
  -28.4320  -12.5330   18.2870 C   0  0  0  0  0  2  0  0  0  0  0  0
  -28.1320  -13.4090   19.5330 C   0  0  0  0  0  3  0  0  0  0  0  0
  -29.2580  -13.3170   20.5880 C   0  0  0  0  0  2  0  0  0  0  0  0
  -30.5160  -13.6700   19.9200 N   0  0  0  0  0  0  0  0  0  0  0  0
  -32.2980  -14.9960   19.5110 O   0  0  0  0  0  0  0  0  0  0  0  0
  -30.3890  -16.0350   20.1770 N   0  0  0  0  0  0  0  0  0  0  0  0
  -29.4520  -15.8650   20.5080 H   0  0  0  0  0  0  0  0  0  0  0  0
  -25.8110  -13.9870   20.4560 C   0  0  0  0  0  0  0  0  0  0  0  0
  -24.7620  -13.2060   20.8610 C   0  0  0  0  0  0  0  0  0  0  0  0
  -25.2040  -11.8540   20.7300 C   0  0  0  0  0  0  0  0  0  0  0  0
  -26.8230  -13.1110   20.1030 N   0  0  0  0  0  0  0  0  0  0  0  0
  -26.4690  -11.8190   20.3300 N   0  0  0  0  0  0  0  0  0  0  0  0
  -24.4750  -10.5900   20.9060 C   0  0  0  0  0  0  0  0  0  0  0  0
  -24.8740   -9.6360   21.8670 C   0  0  0  0  0  3  0  0  0  0  0  0
  -24.1440   -8.4380   22.0310 C   0  0  0  0  0  3  0  0  0  0  0  0
  -23.0040   -8.1870   21.2320 C   0  0  0  0  0  0  0  0  0  0  0  0
  -22.6260   -9.1300   20.2600 C   0  0  0  0  0  3  0  0  0  0  0  0
  -23.3560  -10.3190   20.0940 C   0  0  0  0  0  3  0  0  0  0  0  0
  -22.2490   -7.0400   21.3030 O   0  0  0  0  0  0  0  0  0  0  0  0
  -22.0240   -6.4000   22.4950 C   0  0  0  0  0  0  0  0  0  0  0  0
  -21.3820   -7.0440   23.5760 C   0  0  0  0  0  3  0  0  0  0  0  0
  -21.1090   -6.3280   24.7580 C   0  0  0  0  0  3  0  0  0  0  0  0
  -21.4650   -4.9690   24.8580 C   0  0  0  0  0  0  0  0  0  0  0  0
  -22.0990   -4.3260   23.7810 C   0  0  0  0  0  3  0  0  0  0  0  0
  -22.3740   -5.0400   22.6010 C   0  0  0  0  0  0  0  0  0  0  0  0
  -22.9660   -4.4100   21.5580 F   0  0  0  0  0  0  0  0  0  0  0  0
  -21.1950   -4.2780   25.9910 F   0  0  0  0  0  0  0  0  0  0  0  0
  -23.3950  -13.6840   21.2510 C   0  0  0  0  0  0  0  0  0  0  0  0
  -22.7270  -12.9630   22.1450 N   0  0  0  0  0  0  0  0  0  0  0  0
  -22.9300  -14.7300   20.8000 O   0  0  0  0  0  0  0  0  0  0  0  0
  -23.1180  -12.1150   22.5290 H   0  0  0  0  0  0  0  0  0  0  0  0
  -21.8120  -13.2630   22.4510 H   0  0  0  0  0  0  0  0  0  0  0  0
  -25.9810  -15.3630   20.3320 N   0  0  0  0  0  0  0  0  0  0  0  0
  -25.2240  -16.0130   20.5150 H   0  0  0  0  0  0  0  0  0  0  0  0
  -26.7900  -15.8070   19.9190 H   0  0  0  0  0  0  0  0  0  0  0  0
  -28.5450  -25.1380   19.0620 C   0  0  0  0  0  2  0  0  0  0  0  0
  -28.4410  -26.4770   19.7360 O   0  0  0  0  0  0  0  0  0  0  0  0
  -24.6300  -31.6870   23.0370 C   0  0  0  0  0  0  0  0  0  0  0  0
  -27.2880  -27.2990   19.7200 C   0  0  0  0  0  0  0  0  0  0  0  0
  -23.4250  -30.3180   21.3740 C   0  0  0  0  0  3  0  0  0  0  0  0
  -24.8780  -28.8680   19.8440 C   0  0  0  0  0  0  0  0  0  0  0  0
  -25.9510  -30.7100   21.1380 C   0  0  0  0  0  2  0  0  0  0  0  0
  -26.0510  -29.3590   20.4310 C   0  0  0  0  0  0  0  0  0  0  0  0
  -27.2520  -28.5860   20.3600 C   0  0  0  0  0  3  0  0  0  0  0  0
  -26.0820  -26.8660   19.1250 C   0  0  0  0  0  3  0  0  0  0  0  0
  -24.8990  -27.6290   19.1840 C   0  0  0  0  0  3  0  0  0  0  0  0
  -23.6200  -29.7060   19.9620 C   0  0  0  0  0  2  0  0  0  0  0  0
  -24.6900  -30.9230   21.9060 N   0  0  0  0  0  0  0  0  0  0  0  0
  -23.5540  -31.9090   23.6100 O   0  0  0  0  0  0  0  0  0  0  0  0
  -22.8190  -29.2450   22.3110 C   0  0  0  0  0  0  0  0  0  0  0  0
  -21.4990  -29.0160   22.1940 N   0  0  0  0  0  0  0  0  0  0  0  0
  -23.5330  -28.6250   23.1020 O   0  0  0  0  0  0  0  0  0  0  0  0
  -20.9770  -29.5710   21.5310 H   0  0  0  0  0  0  0  0  0  0  0  0
  -18.1890  -27.6360   22.6760 C   0  0  0  0  0  0  0  0  0  0  0  0
  -20.7320  -28.0190   22.9450 C   0  0  0  0  0  3  0  0  0  0  0  0
  -20.9040  -26.6090   22.3350 C   0  0  0  0  0  2  0  0  0  0  0  0
  -19.8160  -26.2540   21.3170 C   0  0  0  0  0  2  0  0  0  0  0  0
  -18.4310  -26.3130   21.9680 C   0  0  0  0  0  2  0  0  0  0  0  0
  -19.2690  -28.4430   23.1200 C   0  0  0  0  0  0  0  0  0  0  0  0
  -18.9870  -29.6790   23.7440 C   0  0  0  0  0  3  0  0  0  0  0  0
  -17.6590  -30.1080   23.9270 C   0  0  0  0  0  3  0  0  0  0  0  0
  -16.5940  -29.2960   23.4980 C   0  0  0  0  0  3  0  0  0  0  0  0
  -16.8600  -28.0620   22.8780 C   0  0  0  0  0  3  0  0  0  0  0  0
  -25.9100  -32.3360   23.6500 C   0  0  0  0  0  3  0  0  0  0  0  0
  -26.4880  -31.5270   24.8770 C   0  0  1  0  0  0  0  0  0  0  0  0
  -25.4340  -31.2020   25.9610 C   0  0  0  0  0  1  0  0  0  0  0  0
  -27.1090  -30.1900   24.4080 C   0  0  0  0  0  1  0  0  0  0  0  0
  -27.6270  -32.3320   25.5450 C   0  0  0  0  0  1  0  0  0  0  0  0
  -25.5650  -33.7060   24.0540 N   0  0  0  0  0  0  0  0  0  0  0  0
  -25.8380  -34.8050   23.3370 C   0  0  0  0  0  0  0  0  0  0  0  0
  -26.4780  -34.7720   22.2830 O   0  0  0  0  0  0  0  0  0  0  0  0
  -24.9930  -33.8030   24.8800 H   0  0  0  0  0  0  0  0  0  0  0  0
  -24.0490  -36.5590   23.1150 C   0  0  0  0  0  1  0  0  0  0  0  0
  -25.3200  -36.1530   23.8750 C   0  0  0  0  0  3  0  0  0  0  0  0
  -27.4400  -37.0690   24.7130 C   0  0  0  0  0  1  0  0  0  0  0  0
  -26.3180  -37.2420   23.7940 N   0  0  0  0  0  0  0  0  0  0  0  0
  -25.8860  -38.1410   23.9900 H   0  0  0  0  0  0  0  0  0  0  0  0
  1  2  1  0
  3  6  1  0
  3  5  1  0
  4 10  1  0
  5  8  1  0
  6  1  2  0
  7  4  2  0
  8  2  2  0
  8 10  1  0
  9  5  2  0
  9  7  1  0
 10 11  1  0
 12 13  1  0
 13 17  1  0
 14 18  1  0
 14 12  1  0
 15 16  1  0
 15 17  1  0
 17  9  1  0
 18 19  1  0
 18 15  1  0
 20 18  1  0
 21  7  1  0
 21 30  1  0
 22 30  1  0
 23 28  1  0
 24 25  1  0
 24 23  1  0
 26 25  1  0
 26 35  1  0
 26 27  1  0
 28 22  1  0
 28 27  1  0
 29 22  2  0
 30 31  1  0
 32 33  2  0
 33 52  1  0
 34 33  1  0
 34 37  1  0
 35 36  1  0
 35 32  1  0
 36 34  2  0
 37 38  1  0
 38 39  2  0
 40 43  1  0
 40 39  1  0
 41 40  2  0
 42 41  1  0
 42 37  2  0
 43 44  1  0
 44 49  2  0
 44 45  1  0
 45 46  2  0
 46 47  1  0
 47 51  1  0
 48 47  2  0
 49 48  1  0
 50 49  1  0
 52 53  1  0
 53 56  1  0
 53 55  1  0
 54 52  2  0
 57 32  1  0
 57 58  1  0
 59 57  1  0
 60 61  1  0
 60  6  1  0
 62 73  2  0
 63 61  1  0
 63 68  1  0
 64 72  1  0
 64 74  1  0
 65 71  1  0
 65 67  1  0
 66 72  1  0
 67 66  1  0
 68 67  2  0
 69 70  1  0
 69 63  2  0
 70 65  2  0
 71 64  1  0
 72 62  1  0
 74 76  2  0
 75 74  1  0
 77 75  1  0
 78 87  2  0
 78 83  1  0
 79 75  1  0
 79 83  1  0
 80 79  1  0
 81 82  1  0
 81 80  1  0
 82 78  1  0
 83 84  2  0
 84 85  1  0
 86 85  2  0
 87 86  1  0
 88 62  1  0
 88 93  1  0
 88 89  1  0
 89 92  1  1
 89 90  1  0
 91 89  1  0
 93 96  1  0
 94 98  1  0
 94 93  1  0
 95 94  2  0
 98 97  1  0
100 98  1  0
100101  1  0
100 99  1  0
M  ISO  4  22 100  30 100  60 101  61 101
M  END
>  <TORSDO>  (69) 
F 19

>  <SCORE>  (69) 
-12.529

>  <name>  (69) 
68

>  <ligand_id>  (69) 
68

>  <original_smiles>  (69) 
[H]c1c([H])c([H])c2c(c1[H])C([H])([H])C([H])([H])C([H])([H])C2([H])N([H])C(=O)C1([H])N(C(=O)C([H])(N([H])C(=O)C([H])(N([H])C([H])([H])[H])C([H])([H])[H])C(C([H])([H])[H])(C([H])([H])[H])C([H])([H])[H])C([H])([H])c2c([H])c(OC([H])([H])c3c([H])c([H])c4c(c3[H])c(N3C([H])([H])C([H])([H])C([H])([H])[N+]([H])([H])C3([H])C([H])([H])[H])c(C([H])([H])N([H])C(=O)N3C([H])([H])C([H])([H])C([H])([H])C([H])(n5nc(-c6c([H])c([H])c(Oc7c([H])c([H])c(F)c([H])c7F)c([H])c6[H])c(C(=O)N([H])[H])c5N([H])[H])C3([H])[H])c([H])[n+]4[H])c([H])c([H])c2C1([H])[H]

>  <smiles>  (69) 
[H]c1c([H])c([H])c2c(c1[H])C([H])([H])C([H])([H])C([H])([H])C2([H])N([H])C(=O)C1([H])N(C(=O)C([H])(N([H])C(=O)C([H])(N([H])C([H])([H])[H])C([H])([H])[H])C(C([H])([H])[H])(C([H])([H])[H])C([H])([H])[H])C([H])([H])c2c([H])c(OC([H])([H])c3c([H])c([H])c4c(c3[H])c(N3C([H])([H])C([H])([H])C([H])([H])[N+]([H])([H])C3([H])C([H])([H])[H])c(C([H])([H])N([H])C(=O)N3C([H])([H])C([H])([H])C([H])([H])C([H])(n5nc(-c6c([H])c([H])c(Oc7c([H])c([H])c(F)c([H])c7F)c([H])c6[H])c(C(=O)N([H])[H])c5N([H])[H])C3([H])[H])c([H])[n+]4[H])c([H])c([H])c2C1([H])[H]

$$$$
69:0:0
     RDKit          3D

 93102  0  0  1  0  0  0  0  0999 V2000
  -29.8850  -20.2670   22.5880 C   0  0  0  0  0  3  0  0  0  0  0  0
  -29.4050  -21.3560   21.8490 C   0  0  0  0  0  3  0  0  0  0  0  0
  -30.2670  -19.0470   21.9800 C   0  0  0  0  0  0  0  0  0  0  0  0
  -29.2700  -21.2500   20.4630 C   0  0  0  0  0  0  0  0  0  0  0  0
  -30.0540  -18.9220   20.5680 C   0  0  0  0  0  0  0  0  0  0  0  0
  -29.5530  -20.0220   19.8660 N   0  0  0  0  0  0  0  0  0  0  0  0
  -32.0750  -17.1480   22.7110 C   0  0  0  0  0  2  0  0  0  0  0  0
  -30.6780  -16.5850   22.9360 C   0  0  0  0  0  2  0  0  0  0  0  0
  -30.9100  -18.0720   22.9650 C   0  0  0  0  0  3  0  0  0  0  0  0
  -29.1120  -22.4010   18.1740 C   0  0  0  0  0  1  0  0  0  0  0  0
  -28.6630  -22.4830   19.6450 C   0  0  0  0  0  3  0  0  0  0  0  0
  -28.8930  -24.0170   20.1490 C   0  0  0  0  0  3  0  0  0  0  0  0
  -27.9480  -25.1890   19.5700 C   0  0  0  0  0  3  0  0  0  0  0  0
  -28.2020  -26.6560   19.7840 O   0  0  0  0  0  0  0  0  0  0  0  0
  -24.6700  -31.8820   23.3330 C   0  0  0  0  0  0  0  0  0  0  0  0
  -27.1070  -27.5520   19.8080 C   0  0  0  0  0  0  0  0  0  0  0  0
  -23.3820  -30.6060   21.6600 C   0  0  0  0  0  3  0  0  0  0  0  0
  -24.7540  -29.1840   20.0370 C   0  0  0  0  0  0  0  0  0  0  0  0
  -25.9100  -30.9440   21.3670 C   0  0  0  0  0  2  0  0  0  0  0  0
  -25.9560  -29.6190   20.6100 C   0  0  0  0  0  0  0  0  0  0  0  0
  -27.1340  -28.8160   20.4880 C   0  0  0  0  0  3  0  0  0  0  0  0
  -25.8850  -27.2010   19.1870 C   0  0  0  0  0  3  0  0  0  0  0  0
  -24.7230  -27.9820   19.3160 C   0  0  0  0  0  3  0  0  0  0  0  0
  -23.5230  -30.0460   20.2210 C   0  0  0  0  0  2  0  0  0  0  0  0
  -24.6760  -31.1580   22.1770 N   0  0  0  0  0  0  0  0  0  0  0  0
  -23.6160  -32.1120   23.9450 O   0  0  0  0  0  0  0  0  0  0  0  0
  -22.7750  -29.5130   22.5740 C   0  0  0  0  0  0  0  0  0  0  0  0
  -21.4700  -29.2380   22.4050 N   0  0  0  0  0  0  0  0  0  0  0  0
  -23.4780  -28.9170   23.3930 O   0  0  0  0  0  0  0  0  0  0  0  0
  -20.9560  -29.7780   21.7240 H   0  0  0  0  0  0  0  0  0  0  0  0
  -18.2200  -27.6720   22.6830 C   0  0  0  0  0  0  0  0  0  0  0  0
  -20.7070  -28.2180   23.1300 C   0  0  0  0  0  3  0  0  0  0  0  0
  -21.0080  -26.8040   22.5830 C   0  0  0  0  0  2  0  0  0  0  0  0
  -20.0240  -26.3540   21.4980 C   0  0  0  0  0  2  0  0  0  0  0  0
  -18.5930  -26.3470   22.0410 C   0  0  0  0  0  2  0  0  0  0  0  0
  -19.2120  -28.5580   23.1810 C   0  0  0  0  0  0  0  0  0  0  0  0
  -18.8130  -29.7920   23.7400 C   0  0  0  0  0  3  0  0  0  0  0  0
  -17.4520  -30.1450   23.8040 C   0  0  0  0  0  3  0  0  0  0  0  0
  -16.4720  -29.2590   23.3220 C   0  0  0  0  0  3  0  0  0  0  0  0
  -16.8560  -28.0240   22.7700 C   0  0  0  0  0  3  0  0  0  0  0  0
  -25.9810  -32.4750   23.9290 C   0  0  0  0  0  3  0  0  0  0  0  0
  -25.7020  -33.8630   24.3280 N   0  0  0  0  0  0  0  0  0  0  0  0
  -26.0300  -34.9440   23.6060 C   0  0  0  0  0  0  0  0  0  0  0  0
  -26.6690  -34.8760   22.5540 O   0  0  0  0  0  0  0  0  0  0  0  0
  -25.1300  -33.9910   25.1490 H   0  0  0  0  0  0  0  0  0  0  0  0
  -24.3180  -36.7740   23.3830 C   0  0  0  0  0  1  0  0  0  0  0  0
  -25.5770  -36.3180   24.1380 C   0  0  0  0  0  3  0  0  0  0  0  0
  -27.7480  -37.1390   24.9410 C   0  0  0  0  0  1  0  0  0  0  0  0
  -26.6220  -37.3600   24.0380 N   0  0  0  0  0  0  0  0  0  0  0  0
  -26.2350  -38.2790   24.2340 H   0  0  0  0  0  0  0  0  0  0  0  0
  -26.5360  -31.6490   25.1550 C   0  0  1  0  0  0  0  0  0  0  0  0
  -25.4740  -31.3610   26.2420 C   0  0  0  0  0  1  0  0  0  0  0  0
  -27.1070  -30.2920   24.6860 C   0  0  0  0  0  1  0  0  0  0  0  0
  -27.7050  -32.4160   25.8170 C   0  0  0  0  0  1  0  0  0  0  0  0
  -30.5250  -17.6680   19.7000 C   0  0  0  0  0  2  0  0  0  0  0  0
  -30.8320  -15.0920   19.5940 C   0  0  0  0  0  0  0  0  0  0  0  0
  -30.5350  -12.8410   18.5670 C   0  0  0  0  0  2  0  0  0  0  0  0
  -29.4960  -12.9330   17.4290 C   0  0  0  0  0  2  0  0  0  0  0  0
  -28.0690  -12.7520   17.9830 C   0  0  0  0  0  2  0  0  0  0  0  0
  -27.8000  -13.6170   19.2440 C   0  0  0  0  0  3  0  0  0  0  0  0
  -28.9530  -13.5140   20.2660 C   0  0  0  0  0  2  0  0  0  0  0  0
  -30.1940  -13.8750   19.5690 N   0  0  0  0  0  0  0  0  0  0  0  0
  -31.9660  -15.2030   19.1210 O   0  0  0  0  0  0  0  0  0  0  0  0
  -30.1190  -16.2190   19.9490 N   0  0  0  0  0  0  0  0  0  0  0  0
  -29.1930  -16.0760   20.3200 H   0  0  0  0  0  0  0  0  0  0  0  0
  -25.4880  -14.1810   20.2040 C   0  0  0  0  0  0  0  0  0  0  0  0
  -24.4610  -13.3940   20.6480 C   0  0  0  0  0  0  0  0  0  0  0  0
  -24.9210  -12.0450   20.5380 C   0  0  0  0  0  0  0  0  0  0  0  0
  -26.5070  -13.3120   19.8480 N   0  0  0  0  0  0  0  0  0  0  0  0
  -26.1780  -12.0200   20.1100 N   0  0  0  0  0  0  0  0  0  0  0  0
  -24.2140  -10.7770   20.7580 C   0  0  0  0  0  0  0  0  0  0  0  0
  -24.6730   -9.8300   21.7010 C   0  0  0  0  0  3  0  0  0  0  0  0
  -23.9670   -8.6250   21.9090 C   0  0  0  0  0  3  0  0  0  0  0  0
  -22.7860   -8.3600   21.1750 C   0  0  0  0  0  0  0  0  0  0  0  0
  -22.3460   -9.2960   20.2220 C   0  0  0  0  0  3  0  0  0  0  0  0
  -23.0530  -10.4910   20.0130 C   0  0  0  0  0  3  0  0  0  0  0  0
  -22.0450   -7.2080   21.2950 O   0  0  0  0  0  0  0  0  0  0  0  0
  -21.9350   -6.5440   22.4910 C   0  0  0  0  0  0  0  0  0  0  0  0
  -21.4290   -7.1740   23.6490 C   0  0  0  0  0  3  0  0  0  0  0  0
  -21.2660   -6.4350   24.8380 C   0  0  0  0  0  3  0  0  0  0  0  0
  -21.5990   -5.0670   24.8700 C   0  0  0  0  0  0  0  0  0  0  0  0
  -22.0970   -4.4370   23.7160 C   0  0  0  0  0  3  0  0  0  0  0  0
  -22.2620   -5.1730   22.5300 C   0  0  0  0  0  0  0  0  0  0  0  0
  -22.7220   -4.5560   21.4140 F   0  0  0  0  0  0  0  0  0  0  0  0
  -21.4350   -4.3550   26.0080 F   0  0  0  0  0  0  0  0  0  0  0  0
  -23.0940  -13.8590   21.0590 C   0  0  0  0  0  0  0  0  0  0  0  0
  -22.4620  -13.1540   21.9910 N   0  0  0  0  0  0  0  0  0  0  0  0
  -22.5990  -14.8820   20.5870 O   0  0  0  0  0  0  0  0  0  0  0  0
  -22.8780  -12.3280   22.3930 H   0  0  0  0  0  0  0  0  0  0  0  0
  -21.5470  -13.4450   22.3060 H   0  0  0  0  0  0  0  0  0  0  0  0
  -25.6290  -15.5570   20.0490 N   0  0  0  0  0  0  0  0  0  0  0  0
  -24.8640  -16.1900   20.2550 H   0  0  0  0  0  0  0  0  0  0  0  0
  -26.4210  -16.0180   19.6230 H   0  0  0  0  0  0  0  0  0  0  0  0
  2  1  2  0
  3  1  1  0
  3  9  1  0
  4  2  1  0
  5  3  2  0
  6  4  2  0
  6  5  1  0
  7  8  1  0
  7  9  1  0
  8  9  1  0
 11 10  1  0
 11 12  1  0
 11  4  1  0
 13 14  1  0
 13 12  2  0
 14 16  1  0
 15 26  2  0
 16 21  1  0
 17 25  1  0
 17 27  1  0
 18 24  1  0
 18 20  1  0
 19 25  1  0
 20 19  1  0
 21 20  2  0
 22 23  1  0
 22 16  2  0
 23 18  2  0
 24 17  1  0
 25 15  1  0
 27 29  2  0
 28 27  1  0
 30 28  1  0
 31 40  2  0
 31 36  1  0
 32 28  1  0
 32 36  1  0
 33 32  1  0
 34 35  1  0
 34 33  1  0
 35 31  1  0
 36 37  2  0
 37 38  1  0
 39 38  2  0
 40 39  1  0
 41 15  1  0
 41 42  1  0
 41 51  1  0
 42 45  1  0
 43 47  1  0
 43 42  1  0
 44 43  2  0
 47 46  1  0
 49 47  1  0
 49 50  1  0
 49 48  1  0
 51 54  1  1
 51 52  1  0
 53 51  1  0
 55 64  1  0
 55  5  1  0
 56 64  1  0
 57 62  1  0
 58 59  1  0
 58 57  1  0
 60 59  1  0
 60 69  1  0
 60 61  1  0
 62 56  1  0
 62 61  1  0
 63 56  2  0
 64 65  1  0
 66 67  2  0
 67 86  1  0
 68 67  1  0
 68 71  1  0
 69 70  1  0
 69 66  1  0
 70 68  2  0
 71 72  1  0
 72 73  2  0
 74 77  1  0
 74 73  1  0
 75 74  2  0
 76 75  1  0
 76 71  2  0
 77 78  1  0
 78 83  2  0
 78 79  1  0
 79 80  2  0
 80 81  1  0
 81 85  1  0
 82 81  2  0
 83 82  1  0
 84 83  1  0
 86 87  1  0
 87 90  1  0
 87 89  1  0
 88 86  2  0
 91 66  1  0
 91 92  1  0
 93 91  1  0
M  ISO  4  13 101  14 101  56 100  64 100
M  END
>  <TORSDO>  (70) 
F 21

>  <SCORE>  (70) 
-8.899

>  <name>  (70) 
69

>  <ligand_id>  (70) 
69

>  <original_smiles>  (70) 
[H]c1c(C([H])(C([H])([H])[H])C([H])([H])C([H])([H])Oc2c([H])c([H])c3c(c2[H])C([H])([H])N(C(=O)C([H])(N([H])C(=O)C([H])(N([H])C([H])([H])[H])C([H])([H])[H])C(C([H])([H])[H])(C([H])([H])[H])C([H])([H])[H])C([H])(C(=O)N([H])C2([H])c4c([H])c([H])c([H])c([H])c4C([H])([H])C([H])([H])C2([H])[H])C3([H])[H])nc(C([H])([H])N([H])C(=O)N2C([H])([H])C([H])([H])C([H])([H])C([H])(n3nc(-c4c([H])c([H])c(Oc5c([H])c([H])c(F)c([H])c5F)c([H])c4[H])c(C(=O)N([H])[H])c3N([H])[H])C2([H])[H])c(C2([H])C([H])([H])C2([H])[H])c1[H]

>  <smiles>  (70) 
[H]c1c(C([H])(C([H])([H])[H])C([H])([H])C([H])([H])Oc2c([H])c([H])c3c(c2[H])C([H])([H])N(C(=O)C([H])(N([H])C(=O)C([H])(N([H])C([H])([H])[H])C([H])([H])[H])C(C([H])([H])[H])(C([H])([H])[H])C([H])([H])[H])C([H])(C(=O)N([H])C2([H])c4c([H])c([H])c([H])c([H])c4C([H])([H])C([H])([H])C2([H])[H])C3([H])[H])nc(C([H])([H])N([H])C(=O)N2C([H])([H])C([H])([H])C([H])([H])C([H])(n3nc(-c4c([H])c([H])c(Oc5c([H])c([H])c(F)c([H])c5F)c([H])c4[H])c(C(=O)N([H])[H])c3N([H])[H])C2([H])[H])c(C2([H])C([H])([H])C2([H])[H])c1[H]

$$$$
70:0:0
     RDKit          3D

 92100  0  0  1  0  0  0  0  0999 V2000
  -27.0870  -22.0180   18.9220 C   0  0  0  0  0  2  0  0  0  0  0  0
  -27.7590  -22.3690   21.3830 C   0  0  0  0  0  2  0  0  0  0  0  0
  -26.9220  -20.5480   19.3750 C   0  0  0  0  0  2  0  0  0  0  0  0
  -28.7090  -21.1950   21.1290 C   0  0  0  0  0  2  0  0  0  0  0  0
  -27.2780  -23.0460   20.0770 C   0  0  0  0  0  3  0  0  0  0  0  0
  -27.9560  -20.0510   20.4210 C   0  0  0  0  0  3  0  0  0  0  0  0
  -28.9280  -19.1000   19.8410 N   0  0  0  0  0  4  0  0  0  0  0  0
  -29.8360  -19.5140   19.9230 H   0  0  0  0  0  0  0  0  0  0  0  0
  -28.7150  -19.0180   18.8590 H   0  0  0  0  0  0  0  0  0  0  0  0
  -28.9260  -17.7480   20.4560 C   0  0  0  0  0  2  0  0  0  0  0  0
  -30.1950  -16.9350   20.1100 C   0  0  0  0  0  2  0  0  0  0  0  0
  -30.8480  -14.5190   20.1040 C   0  0  0  0  0  0  0  0  0  0  0  0
  -30.5670  -12.3410   19.0060 C   0  0  0  0  0  2  0  0  0  0  0  0
  -29.5640  -12.5480   17.8440 C   0  0  0  0  0  2  0  0  0  0  0  0
  -28.1070  -12.4160   18.3310 C   0  0  0  0  0  2  0  0  0  0  0  0
  -27.8280  -13.2490   19.6130 C   0  0  0  0  0  3  0  0  0  0  0  0
  -28.9350  -13.0000   20.6700 C   0  0  0  0  0  2  0  0  0  0  0  0
  -30.2290  -13.3150   20.0470 N   0  0  0  0  0  0  0  0  0  0  0  0
  -31.9750  -14.7430   19.6540 O   0  0  0  0  0  0  0  0  0  0  0  0
  -30.0160  -15.5200   20.4340 N   0  0  0  0  0  0  0  0  0  0  0  0
  -29.0800  -15.2170   20.6720 H   0  0  0  0  0  0  0  0  0  0  0  0
  -25.4740  -13.9050   20.4330 C   0  0  0  0  0  0  0  0  0  0  0  0
  -24.4030  -13.1430   20.8340 C   0  0  0  0  0  0  0  0  0  0  0  0
  -24.8360  -11.7860   20.7480 C   0  0  0  0  0  0  0  0  0  0  0  0
  -26.4870  -13.0000   20.1430 N   0  0  0  0  0  0  0  0  0  0  0  0
  -26.1110  -11.7230   20.3910 N   0  0  0  0  0  0  0  0  0  0  0  0
  -24.0960  -10.5300   20.9340 C   0  0  0  0  0  0  0  0  0  0  0  0
  -24.5170   -9.5620   21.8720 C   0  0  0  0  0  3  0  0  0  0  0  0
  -23.7840   -8.3670   22.0410 C   0  0  0  0  0  3  0  0  0  0  0  0
  -22.6170   -8.1370   21.2760 C   0  0  0  0  0  0  0  0  0  0  0  0
  -22.2170   -9.0940   20.3280 C   0  0  0  0  0  3  0  0  0  0  0  0
  -22.9500  -10.2800   20.1560 C   0  0  0  0  0  3  0  0  0  0  0  0
  -21.8560   -6.9960   21.3590 O   0  0  0  0  0  0  0  0  0  0  0  0
  -21.7440   -6.2900   22.5300 C   0  0  0  0  0  0  0  0  0  0  0  0
  -21.2240   -6.8740   23.7060 C   0  0  0  0  0  3  0  0  0  0  0  0
  -21.0610   -6.0930   24.8670 C   0  0  0  0  0  3  0  0  0  0  0  0
  -21.4100   -4.7300   24.8550 C   0  0  0  0  0  0  0  0  0  0  0  0
  -21.9190   -4.1440   23.6820 C   0  0  0  0  0  3  0  0  0  0  0  0
  -22.0850   -4.9220   22.5230 C   0  0  0  0  0  0  0  0  0  0  0  0
  -22.5600   -4.3490   21.3910 F   0  0  0  0  0  0  0  0  0  0  0  0
  -21.2430   -3.9770   25.9660 F   0  0  0  0  0  0  0  0  0  0  0  0
  -23.0270  -13.6370   21.1680 C   0  0  0  0  0  0  0  0  0  0  0  0
  -22.3130  -12.9290   22.0380 N   0  0  0  0  0  0  0  0  0  0  0  0
  -22.5920  -14.6870   20.6950 O   0  0  0  0  0  0  0  0  0  0  0  0
  -22.6720  -12.0800   22.4470 H   0  0  0  0  0  0  0  0  0  0  0  0
  -21.3910  -13.2400   22.3010 H   0  0  0  0  0  0  0  0  0  0  0  0
  -25.6580  -15.2700   20.2630 N   0  0  0  0  0  0  0  0  0  0  0  0
  -24.8810  -15.9130   20.3520 H   0  0  0  0  0  0  0  0  0  0  0  0
  -26.4100  -15.6400   19.6960 H   0  0  0  0  0  0  0  0  0  0  0  0
  -28.1450  -24.2530   19.6160 C   0  0  0  0  0  2  0  0  0  0  0  0
  -28.1950  -25.4360   20.6050 C   0  0  0  0  0  2  0  0  0  0  0  0
  -28.4320  -26.7130   19.9700 O   0  0  0  0  0  0  0  0  0  0  0  0
  -24.6360  -31.8040   23.1330 C   0  0  0  0  0  0  0  0  0  0  0  0
  -27.3020  -27.5000   19.9110 C   0  0  0  0  0  0  0  0  0  0  0  0
  -23.4470  -30.4480   21.4410 C   0  0  0  0  0  3  0  0  0  0  0  0
  -24.9130  -28.9990   19.9480 C   0  0  0  0  0  0  0  0  0  0  0  0
  -25.9670  -30.8520   21.2490 C   0  0  0  0  0  2  0  0  0  0  0  0
  -26.0650  -29.5100   20.5590 C   0  0  0  0  0  0  0  0  0  0  0  0
  -27.2660  -28.7620   20.5390 C   0  0  0  0  0  3  0  0  0  0  0  0
  -26.1430  -27.0190   19.2660 C   0  0  0  0  0  3  0  0  0  0  0  0
  -24.9490  -27.7610   19.2910 C   0  0  0  0  0  3  0  0  0  0  0  0
  -23.6550  -29.8250   20.0360 C   0  0  0  0  0  2  0  0  0  0  0  0
  -24.7020  -31.0500   21.9980 N   0  0  0  0  0  0  0  0  0  0  0  0
  -23.5530  -32.0370   23.6880 O   0  0  0  0  0  0  0  0  0  0  0  0
  -22.8200  -29.3800   22.3630 C   0  0  0  0  0  0  0  0  0  0  0  0
  -21.4900  -29.1990   22.2620 N   0  0  0  0  0  0  0  0  0  0  0  0
  -23.5280  -28.7220   23.1320 O   0  0  0  0  0  0  0  0  0  0  0  0
  -20.9760  -29.7850   21.6230 H   0  0  0  0  0  0  0  0  0  0  0  0
  -18.1300  -28.0240   22.8370 C   0  0  0  0  0  0  0  0  0  0  0  0
  -20.7000  -28.2360   23.0220 C   0  0  0  0  0  3  0  0  0  0  0  0
  -20.7660  -26.8310   22.3820 C   0  0  0  0  0  2  0  0  0  0  0  0
  -19.6270  -26.5830   21.3850 C   0  0  0  0  0  2  0  0  0  0  0  0
  -18.2600  -26.7170   22.0720 C   0  0  0  0  0  2  0  0  0  0  0  0
  -19.2770  -28.7490   23.2570 C   0  0  0  0  0  0  0  0  0  0  0  0
  -19.1130  -29.9870   23.9190 C   0  0  0  0  0  3  0  0  0  0  0  0
  -17.8300  -30.4980   24.1730 C   0  0  0  0  0  3  0  0  0  0  0  0
  -16.6930  -29.7750   23.7700 C   0  0  0  0  0  3  0  0  0  0  0  0
  -16.8420  -28.5430   23.1090 C   0  0  0  0  0  3  0  0  0  0  0  0
  -25.9160  -32.4340   23.7710 C   0  0  0  0  0  3  0  0  0  0  0  0
  -25.5860  -33.8190   24.1320 N   0  0  0  0  0  0  0  0  0  0  0  0
  -25.9170  -34.8940   23.4030 C   0  0  0  0  0  0  0  0  0  0  0  0
  -26.5900  -34.8240   22.3710 O   0  0  0  0  0  0  0  0  0  0  0  0
  -24.9810  -33.9400   24.9320 H   0  0  0  0  0  0  0  0  0  0  0  0
  -24.1700  -36.6750   23.0730 C   0  0  0  0  0  1  0  0  0  0  0  0
  -25.4070  -36.2640   23.8900 C   0  0  0  0  0  3  0  0  0  0  0  0
  -27.5210  -37.1440   24.7730 C   0  0  0  0  0  1  0  0  0  0  0  0
  -26.4310  -37.3290   23.8190 N   0  0  0  0  0  0  0  0  0  0  0  0
  -26.0160  -38.2420   23.9800 H   0  0  0  0  0  0  0  0  0  0  0  0
  -26.4450  -31.6320   25.0250 C   0  0  1  0  0  0  0  0  0  0  0  0
  -25.3570  -31.3500   26.0890 C   0  0  0  0  0  1  0  0  0  0  0  0
  -27.0430  -30.2720   24.5910 C   0  0  0  0  0  1  0  0  0  0  0  0
  -27.5910  -32.4180   25.7020 C   0  0  0  0  0  1  0  0  0  0  0  0
  1  3  1  0
  1  5  1  0
  3  6  1  0
  4  2  1  0
  5 50  1  0
  5  2  1  0
  6  7  1  0
  6  4  1  0
  7  8  1  0
  7 10  1  0
  9  7  1  0
 11 20  1  0
 11 10  1  0
 12 20  1  0
 13 18  1  0
 14 15  1  0
 14 13  1  0
 16 15  1  0
 16 25  1  0
 16 17  1  0
 18 12  1  0
 18 17  1  0
 19 12  2  0
 20 21  1  0
 22 23  2  0
 23 42  1  0
 24 23  1  0
 24 27  1  0
 25 26  1  0
 25 22  1  0
 26 24  2  0
 27 28  1  0
 28 29  2  0
 30 33  1  0
 30 29  1  0
 31 30  2  0
 32 31  1  0
 32 27  2  0
 33 34  1  0
 34 35  1  0
 35 36  2  0
 37 36  1  0
 37 41  1  0
 38 37  2  0
 39 34  2  0
 39 38  1  0
 40 39  1  0
 42 43  1  0
 43 46  1  0
 43 45  1  0
 44 42  2  0
 47 48  1  0
 47 22  1  0
 49 47  1  0
 50 51  1  0
 52 51  1  0
 53 64  2  0
 54 52  1  0
 54 59  1  0
 55 63  1  0
 55 65  1  0
 56 62  1  0
 56 58  1  0
 57 63  1  0
 58 57  1  0
 59 58  2  0
 60 61  1  0
 60 54  2  0
 61 56  2  0
 62 55  1  0
 63 53  1  0
 65 67  2  0
 66 65  1  0
 68 66  1  0
 69 78  2  0
 69 74  1  0
 70 66  1  0
 70 74  1  0
 71 70  1  0
 72 73  1  0
 72 71  1  0
 73 69  1  0
 74 75  2  0
 75 76  1  0
 77 76  2  0
 78 77  1  0
 79 53  1  0
 79 80  1  0
 79 89  1  0
 80 83  1  0
 81 85  1  0
 81 80  1  0
 82 81  2  0
 85 84  1  0
 87 85  1  0
 87 88  1  0
 87 86  1  0
 89 92  1  1
 89 90  1  0
 91 89  1  0
M  ISO  4  12 100  20 100  51 101  52 101
M  END
>  <TORSDO>  (71) 
F 21

>  <SCORE>  (71) 
-13.075

>  <name>  (71) 
70

>  <ligand_id>  (71) 
70

>  <original_smiles>  (71) 
[H]c1c([H])c([H])c2c(c1[H])C([H])([H])C([H])([H])C([H])([H])C2([H])N([H])C(=O)C1([H])N(C(=O)C([H])(N([H])C(=O)C([H])(N([H])C([H])([H])[H])C([H])([H])[H])C(C([H])([H])[H])(C([H])([H])[H])C([H])([H])[H])C([H])([H])c2c([H])c(OC([H])([H])C([H])([H])C3([H])C([H])([H])C([H])([H])C([H])([N+]([H])([H])C([H])([H])C([H])([H])N([H])C(=O)N4C([H])([H])C([H])([H])C([H])([H])C([H])(n5nc(-c6c([H])c([H])c(Oc7c([H])c([H])c(F)c([H])c7F)c([H])c6[H])c(C(=O)N([H])[H])c5N([H])[H])C4([H])[H])C([H])([H])C3([H])[H])c([H])c([H])c2C1([H])[H]

>  <smiles>  (71) 
[H]c1c([H])c([H])c2c(c1[H])C([H])([H])C([H])([H])C([H])([H])C2([H])N([H])C(=O)C1([H])N(C(=O)C([H])(N([H])C(=O)C([H])(N([H])C([H])([H])[H])C([H])([H])[H])C(C([H])([H])[H])(C([H])([H])[H])C([H])([H])[H])C([H])([H])c2c([H])c(OC([H])([H])C([H])([H])C3([H])C([H])([H])C([H])([H])C([H])([N+]([H])([H])C([H])([H])C([H])([H])N([H])C(=O)N4C([H])([H])C([H])([H])C([H])([H])C([H])(n5nc(-c6c([H])c([H])c(Oc7c([H])c([H])c(F)c([H])c7F)c([H])c6[H])c(C(=O)N([H])[H])c5N([H])[H])C4([H])[H])C([H])([H])C3([H])[H])c([H])c([H])c2C1([H])[H]

$$$$
71:0:0
     RDKit          3D

 99108  0  0  1  0  0  0  0  0999 V2000
  -25.9020  -23.2690   23.7290 C   0  0  0  0  0  3  0  0  0  0  0  0
  -27.6300  -22.7480   22.0980 C   0  0  0  0  0  3  0  0  0  0  0  0
  -24.9470  -23.3010   22.6960 C   0  0  0  0  0  3  0  0  0  0  0  0
  -26.6770  -22.7850   21.0690 C   0  0  0  0  0  3  0  0  0  0  0  0
  -27.2610  -23.0410   23.4250 C   0  0  0  0  0  0  0  0  0  0  0  0
  -25.3310  -23.1120   21.3540 C   0  0  0  0  0  0  0  0  0  0  0  0
  -29.0500  -22.0000   24.9820 C   0  0  0  0  0  2  0  0  0  0  0  0
  -29.2970  -24.3820   23.9790 C   0  0  0  0  0  2  0  0  0  0  0  0
  -30.2650  -21.5700   24.1400 C   0  0  0  0  0  2  0  0  0  0  0  0
  -30.7800  -24.1170   24.2600 C   0  0  0  0  0  2  0  0  0  0  0  0
  -28.3350  -23.2760   24.4790 C   0  0  0  0  0  3  0  0  0  0  0  0
  -31.2920  -22.7010   23.8830 C   0  0  0  0  0  3  0  0  0  0  0  0
  -31.8980  -22.5900   22.5230 N   0  0  0  0  0  4  0  0  0  0  0  0
  -32.4400  -23.4180   22.3280 H   0  0  0  0  0  0  0  0  0  0  0  0
  -31.1650  -22.5350   21.8340 H   0  0  0  0  0  0  0  0  0  0  0  0
  -32.8010  -21.4130   22.4220 C   0  0  0  0  0  2  0  0  0  0  0  0
  -33.8990  -21.4320   21.3260 C   0  0  0  0  0  2  0  0  0  0  0  0
  -35.2210  -19.5410   20.2900 C   0  0  0  0  0  0  0  0  0  0  0  0
  -35.7450  -17.4350   19.1000 C   0  0  0  0  0  2  0  0  0  0  0  0
  -35.1150  -17.3840   17.6920 C   0  0  0  0  0  2  0  0  0  0  0  0
  -33.6470  -16.9230   17.7320 C   0  0  0  0  0  2  0  0  0  0  0  0
  -32.8200  -17.6730   18.8080 C   0  0  0  0  0  3  0  0  0  0  0  0
  -33.5670  -17.6500   20.1580 C   0  0  0  0  0  2  0  0  0  0  0  0
  -34.9040  -18.2570   19.9790 N   0  0  0  0  0  0  0  0  0  0  0  0
  -36.1780  -20.1560   19.8130 O   0  0  0  0  0  0  0  0  0  0  0  0
  -34.4130  -20.0660   21.2220 N   0  0  0  0  0  0  0  0  0  0  0  0
  -33.8890  -19.3720   21.7340 H   0  0  0  0  0  0  0  0  0  0  0  0
  -30.2410  -17.7350   18.7460 C   0  0  0  0  0  0  0  0  0  0  0  0
  -29.3010  -16.7530   18.9010 C   0  0  0  0  0  0  0  0  0  0  0  0
  -30.0260  -15.5500   19.1700 C   0  0  0  0  0  0  0  0  0  0  0  0
  -31.4710  -17.1170   18.9240 N   0  0  0  0  0  0  0  0  0  0  0  0
  -31.3270  -15.8030   19.2310 N   0  0  0  0  0  0  0  0  0  0  0  0
  -29.5630  -14.1660   19.3170 C   0  0  0  0  0  0  0  0  0  0  0  0
  -29.5910  -13.5030   20.5640 C   0  0  0  0  0  3  0  0  0  0  0  0
  -29.1210  -12.1750   20.6850 C   0  0  0  0  0  3  0  0  0  0  0  0
  -28.6100  -11.5010   19.5490 C   0  0  0  0  0  0  0  0  0  0  0  0
  -28.6090  -12.1550   18.3060 C   0  0  0  0  0  3  0  0  0  0  0  0
  -29.0830  -13.4730   18.1890 C   0  0  0  0  0  3  0  0  0  0  0  0
  -28.1550  -10.2050   19.5650 O   0  0  0  0  0  0  0  0  0  0  0  0
  -27.2600   -9.7680   20.5070 C   0  0  0  0  0  0  0  0  0  0  0  0
  -26.0060  -10.3900   20.6910 C   0  0  0  0  0  3  0  0  0  0  0  0
  -25.0900   -9.8670   21.6260 C   0  0  0  0  0  3  0  0  0  0  0  0
  -25.4210   -8.7160   22.3670 C   0  0  0  0  0  0  0  0  0  0  0  0
  -26.6660   -8.0900   22.1800 C   0  0  0  0  0  3  0  0  0  0  0  0
  -27.5810   -8.6140   21.2500 C   0  0  0  0  0  0  0  0  0  0  0  0
  -28.7720   -7.9950   21.0620 F   0  0  0  0  0  0  0  0  0  0  0  0
  -24.5400   -8.2070   23.2600 F   0  0  0  0  0  0  0  0  0  0  0  0
  -27.8170  -16.8950   18.7290 C   0  0  0  0  0  0  0  0  0  0  0  0
  -27.0270  -16.1320   19.4780 N   0  0  0  0  0  0  0  0  0  0  0  0
  -27.3440  -17.7270   17.9550 O   0  0  0  0  0  0  0  0  0  0  0  0
  -27.4120  -15.4530   20.1200 H   0  0  0  0  0  0  0  0  0  0  0  0
  -26.0230  -16.2090   19.3920 H   0  0  0  0  0  0  0  0  0  0  0  0
  -30.1590  -19.0970   18.4660 N   0  0  0  0  0  0  0  0  0  0  0  0
  -29.2820  -19.5730   18.2740 H   0  0  0  0  0  0  0  0  0  0  0  0
  -30.9540  -19.7180   18.4180 H   0  0  0  0  0  0  0  0  0  0  0  0
  -24.3620  -23.2940   20.3910 O   0  0  0  0  0  0  0  0  0  0  0  0
  -24.7810  -23.5160   19.0470 C   0  0  0  0  0  2  0  0  0  0  0  0
  -23.6590  -23.1450   18.0630 C   0  0  0  0  0  2  0  0  0  0  0  0
  -23.2660  -24.2930   17.3160 O   0  0  0  0  0  0  0  0  0  0  0  0
  -24.4930  -28.7680   22.7010 C   0  0  0  0  0  0  0  0  0  0  0  0
  -22.8330  -25.3870   18.0240 C   0  0  0  0  0  0  0  0  0  0  0  0
  -22.3260  -29.0600   21.5370 C   0  0  0  0  0  3  0  0  0  0  0  0
  -22.0470  -27.7370   19.3770 C   0  0  0  0  0  0  0  0  0  0  0  0
  -24.3410  -28.0750   20.3150 C   0  0  0  0  0  2  0  0  0  0  0  0
  -23.3680  -27.2810   19.4700 C   0  0  0  0  0  0  0  0  0  0  0  0
  -23.7680  -26.1140   18.7870 C   0  0  0  0  0  3  0  0  0  0  0  0
  -21.5000  -25.8420   17.9470 C   0  0  0  0  0  3  0  0  0  0  0  0
  -21.1060  -27.0190   18.6180 C   0  0  0  0  0  3  0  0  0  0  0  0
  -21.7080  -29.0110   20.1130 C   0  0  0  0  0  2  0  0  0  0  0  0
  -23.7560  -28.6120   21.5660 N   0  0  0  0  0  0  0  0  0  0  0  0
  -24.0140  -29.3180   23.7040 O   0  0  0  0  0  0  0  0  0  0  0  0
  -21.4150  -28.2570   22.4910 C   0  0  0  0  0  0  0  0  0  0  0  0
  -20.1390  -28.6600   22.5710 N   0  0  0  0  0  0  0  0  0  0  0  0
  -21.8490  -27.2830   23.1100 O   0  0  0  0  0  0  0  0  0  0  0  0
  -19.8610  -29.4680   22.0310 H   0  0  0  0  0  0  0  0  0  0  0  0
  -16.5680  -28.5600   23.1200 C   0  0  0  0  0  0  0  0  0  0  0  0
  -19.0850  -28.0310   23.3690 C   0  0  0  0  0  3  0  0  0  0  0  0
  -18.7420  -26.6250   22.8240 C   0  0  0  0  0  2  0  0  0  0  0  0
  -17.5820  -26.6330   21.8250 C   0  0  0  0  0  2  0  0  0  0  0  0
  -16.3180  -27.2060   22.4740 C   0  0  0  0  0  2  0  0  0  0  0  0
  -17.8710  -28.9520   23.5250 C   0  0  0  0  0  0  0  0  0  0  0  0
  -18.0570  -30.2340   24.0870 C   0  0  0  0  0  3  0  0  0  0  0  0
  -16.9710  -31.1130   24.2490 C   0  0  0  0  0  3  0  0  0  0  0  0
  -15.6800  -30.7120   23.8630 C   0  0  0  0  0  3  0  0  0  0  0  0
  -15.4790  -29.4370   23.3040 C   0  0  0  0  0  3  0  0  0  0  0  0
  -25.9740  -28.2840   22.7910 C   0  0  0  0  0  3  0  0  0  0  0  0
  -26.7080  -29.2680   23.5960 N   0  0  0  0  0  0  0  0  0  0  0  0
  -27.6280  -30.1100   23.1130 C   0  0  0  0  0  0  0  0  0  0  0  0
  -28.0010  -30.0920   21.9350 O   0  0  0  0  0  0  0  0  0  0  0  0
  -26.4060  -29.3820   24.5530 H   0  0  0  0  0  0  0  0  0  0  0  0
  -27.6340  -32.5270   23.8090 C   0  0  0  0  0  1  0  0  0  0  0  0
  -28.2320  -31.1380   24.0870 C   0  0  0  0  0  3  0  0  0  0  0  0
  -30.3670  -30.0110   24.5310 C   0  0  0  0  0  1  0  0  0  0  0  0
  -29.7070  -31.2120   24.0270 N   0  0  0  0  0  0  0  0  0  0  0  0
  -30.0520  -32.0100   24.5550 H   0  0  0  0  0  0  0  0  0  0  0  0
  -26.1200  -26.8380   23.4070 C   0  0  1  0  0  0  0  0  0  0  0  0
  -25.3670  -26.6550   24.7470 C   0  0  0  0  0  1  0  0  0  0  0  0
  -25.5980  -25.7660   22.4220 C   0  0  0  0  0  1  0  0  0  0  0  0
  -27.6150  -26.5200   23.6510 C   0  0  0  0  0  1  0  0  0  0  0  0
  2  5  2  0
  3  1  2  0
  4  6  2  0
  4  2  1  0
  5  1  1  0
  6  3  1  0
  8 10  1  0
  8 11  1  0
  9  7  1  0
 11  5  1  0
 11  7  1  0
 12 13  1  0
 12  9  1  0
 12 10  1  0
 14 13  1  0
 15 13  1  0
 16 13  1  0
 17 16  1  0
 18 26  1  0
 19 24  1  0
 20 21  1  0
 20 19  1  0
 22 21  1  0
 22 31  1  0
 22 23  1  0
 24 23  1  0
 24 18  1  0
 25 18  2  0
 26 17  1  0
 26 27  1  0
 28 29  2  0
 28 31  1  0
 29 30  1  0
 30 32  2  0
 30 33  1  0
 31 32  1  0
 33 34  1  0
 34 35  2  0
 36 39  1  0
 36 35  1  0
 37 36  2  0
 38 37  1  0
 38 33  2  0
 39 40  1  0
 40 41  2  0
 40 45  1  0
 41 42  1  0
 42 43  2  0
 43 47  1  0
 44 43  1  0
 45 44  2  0
 46 45  1  0
 48 29  1  0
 48 49  1  0
 49 51  1  0
 50 48  2  0
 52 49  1  0
 53 28  1  0
 54 53  1  0
 55 53  1  0
 56  6  1  0
 57 56  1  0
 58 57  1  0
 59 61  1  0
 59 58  1  0
 60 71  2  0
 61 66  1  0
 62 70  1  0
 62 72  1  0
 63 65  1  0
 63 69  1  0
 64 70  1  0
 65 64  1  0
 66 65  2  0
 67 61  2  0
 67 68  1  0
 68 63  2  0
 69 62  1  0
 70 60  1  0
 72 73  1  0
 72 74  2  0
 75 73  1  0
 76 85  2  0
 76 81  1  0
 77 73  1  0
 77 81  1  0
 78 77  1  0
 79 80  1  0
 79 78  1  0
 80 76  1  0
 81 82  2  0
 82 83  1  0
 84 83  2  0
 85 84  1  0
 86 60  1  0
 86 96  1  0
 86 87  1  0
 87 90  1  0
 88 87  1  0
 88 92  1  0
 89 88  2  0
 92 91  1  0
 94 92  1  0
 94 93  1  0
 94 95  1  0
 96 99  1  1
 96 97  1  0
 98 96  1  0
M  ISO  4  18 100  26 100  58 101  59 101
M  END
>  <TORSDO>  (72) 
F 23

>  <SCORE>  (72) 
9.098

>  <name>  (72) 
71

>  <ligand_id>  (72) 
71

>  <original_smiles>  (72) 
[H]c1c([H])c([H])c2c(c1[H])C([H])([H])C([H])([H])C([H])([H])C2([H])N([H])C(=O)C1([H])N(C(=O)C([H])(N([H])C(=O)C([H])(N([H])C([H])([H])[H])C([H])([H])[H])C(C([H])([H])[H])(C([H])([H])[H])C([H])([H])[H])C([H])([H])c2c([H])c(OC([H])([H])C([H])([H])Oc3c([H])c([H])c(C4([H])C([H])([H])C([H])([H])C([H])([N+]([H])([H])C([H])([H])C([H])([H])N([H])C(=O)N5C([H])([H])C([H])([H])C([H])([H])C([H])(n6nc(-c7c([H])c([H])c(Oc8c([H])c([H])c(F)c([H])c8F)c([H])c7[H])c(C(=O)N([H])[H])c6N([H])[H])C5([H])[H])C([H])([H])C4([H])[H])c([H])c3[H])c([H])c([H])c2C1([H])[H]

>  <smiles>  (72) 
[H]c1c([H])c([H])c2c(c1[H])C([H])([H])C([H])([H])C([H])([H])C2([H])N([H])C(=O)C1([H])N(C(=O)C([H])(N([H])C(=O)C([H])(N([H])C([H])([H])[H])C([H])([H])[H])C(C([H])([H])[H])(C([H])([H])[H])C([H])([H])[H])C([H])([H])c2c([H])c(OC([H])([H])C([H])([H])Oc3c([H])c([H])c(C4([H])C([H])([H])C([H])([H])C([H])([N+]([H])([H])C([H])([H])C([H])([H])N([H])C(=O)N5C([H])([H])C([H])([H])C([H])([H])C([H])(n6nc(-c7c([H])c([H])c(Oc8c([H])c([H])c(F)c([H])c8F)c([H])c7[H])c(C(=O)N([H])[H])c6N([H])[H])C5([H])[H])C([H])([H])C4([H])[H])c([H])c3[H])c([H])c([H])c2C1([H])[H]

$$$$
72:0:0
     RDKit          3D

100110  0  0  1  0  0  0  0  0999 V2000
  -29.7040  -18.1060   18.6340 C   0  0  0  0  0  2  0  0  0  0  0  0
  -29.6950  -19.6460   18.6410 C   0  0  0  0  0  2  0  0  0  0  0  0
  -30.5800  -17.7590   19.8340 C   0  0  0  0  0  3  0  0  0  0  0  0
  -30.1600  -18.8490   20.8530 C   0  0  0  0  0  3  0  0  0  0  0  0
  -29.8700  -20.0810   20.0500 N   0  0  2  0  0  4  0  0  0  0  0  0
  -30.7030  -20.6500   20.0840 H   0  0  0  0  0  0  0  0  0  0  0  0
  -31.3050  -15.3630   20.1060 C   0  0  0  0  0  0  0  0  0  0  0  0
  -31.3410  -12.9650   19.5390 C   0  0  0  0  0  2  0  0  0  0  0  0
  -30.4130  -12.7330   18.3280 C   0  0  0  0  0  2  0  0  0  0  0  0
  -28.9610  -12.5030   18.7900 C   0  0  0  0  0  2  0  0  0  0  0  0
  -28.4800  -13.5730   19.8050 C   0  0  0  0  0  3  0  0  0  0  0  0
  -29.5230  -13.7810   20.9280 C   0  0  0  0  0  2  0  0  0  0  0  0
  -30.8110  -14.1110   20.2940 N   0  0  0  0  0  0  0  0  0  0  0  0
  -32.4100  -15.5800   19.6020 O   0  0  0  0  0  0  0  0  0  0  0  0
  -30.4310  -16.3680   20.3180 N   0  0  0  0  0  0  0  0  0  0  0  0
  -29.5490  -16.1050   20.7300 H   0  0  0  0  0  0  0  0  0  0  0  0
  -26.1140  -14.0910   20.6740 C   0  0  0  0  0  0  0  0  0  0  0  0
  -25.0850  -13.2770   21.0640 C   0  0  0  0  0  0  0  0  0  0  0  0
  -25.5700  -11.9390   20.9390 C   0  0  0  0  0  0  0  0  0  0  0  0
  -27.1630  -13.2460   20.3440 N   0  0  0  0  0  0  0  0  0  0  0  0
  -26.8420  -11.9440   20.5590 N   0  0  0  0  0  0  0  0  0  0  0  0
  -24.8820  -10.6530   21.1050 C   0  0  0  0  0  0  0  0  0  0  0  0
  -25.2500   -9.7450   22.1230 C   0  0  0  0  0  3  0  0  0  0  0  0
  -24.5600   -8.5220   22.2750 C   0  0  0  0  0  3  0  0  0  0  0  0
  -23.4900   -8.1990   21.4060 C   0  0  0  0  0  0  0  0  0  0  0  0
  -23.1430   -9.0970   20.3820 C   0  0  0  0  0  3  0  0  0  0  0  0
  -23.8330  -10.3100   20.2300 C   0  0  0  0  0  3  0  0  0  0  0  0
  -22.7810   -7.0230   21.4610 O   0  0  0  0  0  0  0  0  0  0  0  0
  -22.3140   -6.5190   22.6500 C   0  0  0  0  0  0  0  0  0  0  0  0
  -21.3430   -7.1980   23.4170 C   0  0  0  0  0  3  0  0  0  0  0  0
  -20.8410   -6.6100   24.5960 C   0  0  0  0  0  3  0  0  0  0  0  0
  -21.3010   -5.3440   25.0040 C   0  0  0  0  0  0  0  0  0  0  0  0
  -22.2660   -4.6650   24.2390 C   0  0  0  0  0  3  0  0  0  0  0  0
  -22.7680   -5.2510   23.0630 C   0  0  0  0  0  0  0  0  0  0  0  0
  -23.6820   -4.5810   22.3180 F   0  0  0  0  0  0  0  0  0  0  0  0
  -20.8150   -4.7760   26.1320 F   0  0  0  0  0  0  0  0  0  0  0  0
  -23.6960  -13.7090   21.4370 C   0  0  0  0  0  0  0  0  0  0  0  0
  -23.0440  -12.9670   22.3260 N   0  0  0  0  0  0  0  0  0  0  0  0
  -23.1990  -14.7360   20.9760 O   0  0  0  0  0  0  0  0  0  0  0  0
  -23.4580  -12.1350   22.7180 H   0  0  0  0  0  0  0  0  0  0  0  0
  -22.1150  -13.2360   22.6200 H   0  0  0  0  0  0  0  0  0  0  0  0
  -26.2410  -15.4720   20.5530 N   0  0  0  0  0  0  0  0  0  0  0  0
  -25.4590  -16.0970   20.7150 H   0  0  0  0  0  0  0  0  0  0  0  0
  -27.0450  -15.9400   20.1540 H   0  0  0  0  0  0  0  0  0  0  0  0
  -32.2560  -20.1680   21.6000 C   0  0  0  0  0  1  0  0  0  0  0  0
  -31.2390  -19.0590   21.9610 C   0  0  0  0  0  3  0  0  0  0  0  0
  -29.9050  -18.3080   25.4880 C   0  0  0  0  0  2  0  0  0  0  0  0
  -31.1610  -19.1270   25.8030 C   0  0  0  0  0  2  0  0  0  0  0  0
  -29.9400  -18.0550   23.9800 C   0  0  0  0  0  2  0  0  0  0  0  0
  -31.7580  -19.5380   24.4520 C   0  0  0  0  0  2  0  0  0  0  0  0
  -30.6750  -19.2670   23.3940 C   0  0  0  0  0  3  0  0  0  0  0  0
  -28.7470  -20.9240   20.5580 C   0  0  0  0  0  2  0  0  0  0  0  0
  -29.6260  -23.0810   21.6230 C   0  0  0  0  0  3  0  0  0  0  0  0
  -28.5050  -23.2540   19.4750 C   0  0  0  0  0  3  0  0  0  0  0  0
  -29.7310  -24.4900   21.6750 C   0  0  0  0  0  3  0  0  0  0  0  0
  -28.6140  -24.6660   19.5320 C   0  0  0  0  0  3  0  0  0  0  0  0
  -28.9950  -22.4450   20.5310 C   0  0  0  0  0  0  0  0  0  0  0  0
  -29.2140  -25.3020   20.6420 C   0  0  0  0  0  0  0  0  0  0  0  0
  -29.2960  -26.8340   20.7780 C   0  0  0  0  0  2  0  0  0  0  0  0
  -28.9370  -27.5820   19.6070 O   0  0  0  0  0  0  0  0  0  0  0  0
  -24.1950  -31.6750   23.0700 C   0  0  0  0  0  0  0  0  0  0  0  0
  -27.7020  -28.1910   19.6410 C   0  0  0  0  0  0  0  0  0  0  0  0
  -23.3580  -30.4690   21.0780 C   0  0  0  0  0  3  0  0  0  0  0  0
  -25.1420  -29.3900   19.6060 C   0  0  0  0  0  0  0  0  0  0  0  0
  -25.8200  -31.1390   21.2590 C   0  0  0  0  0  2  0  0  0  0  0  0
  -26.1520  -29.9230   20.4170 C   0  0  0  0  0  0  0  0  0  0  0  0
  -27.4350  -29.3280   20.4410 C   0  0  0  0  0  3  0  0  0  0  0  0
  -26.6810  -27.6750   18.8210 C   0  0  0  0  0  3  0  0  0  0  0  0
  -25.4010  -28.2630   18.8050 C   0  0  0  0  0  3  0  0  0  0  0  0
  -23.7970  -30.0800   19.6410 C   0  0  0  0  0  2  0  0  0  0  0  0
  -24.4680  -31.1010   21.8640 N   0  0  0  0  0  0  0  0  0  0  0  0
  -23.0390  -31.7200   23.5120 O   0  0  0  0  0  0  0  0  0  0  0  0
  -22.7540  -29.2230   21.7660 C   0  0  0  0  0  0  0  0  0  0  0  0
  -21.4500  -28.9900   21.5440 N   0  0  0  0  0  0  0  0  0  0  0  0
  -23.4570  -28.4800   22.4560 O   0  0  0  0  0  0  0  0  0  0  0  0
  -20.9390  -29.6530   20.9770 H   0  0  0  0  0  0  0  0  0  0  0  0
  -18.1610  -27.4950   21.6130 C   0  0  0  0  0  0  0  0  0  0  0  0
  -20.6820  -27.8550   22.0570 C   0  0  0  0  0  3  0  0  0  0  0  0
  -20.9100  -26.5930   21.1930 C   0  0  0  0  0  2  0  0  0  0  0  0
  -19.8700  -26.4260   20.0820 C   0  0  0  0  0  2  0  0  0  0  0  0
  -18.4600  -26.3390   20.6720 C   0  0  0  0  0  2  0  0  0  0  0  0
  -19.2050  -28.2160   22.2510 C   0  0  0  0  0  0  0  0  0  0  0  0
  -18.8750  -29.3040   23.0870 C   0  0  0  0  0  3  0  0  0  0  0  0
  -17.5330  -29.6750   23.2900 C   0  0  0  0  0  3  0  0  0  0  0  0
  -16.5030  -28.9480   22.6700 C   0  0  0  0  0  3  0  0  0  0  0  0
  -16.8160  -27.8590   21.8370 C   0  0  0  0  0  3  0  0  0  0  0  0
  -25.3180  -32.3220   23.9390 C   0  0  0  0  0  3  0  0  0  0  0  0
  -24.9690  -33.7360   24.1290 N   0  0  0  0  0  0  0  0  0  0  0  0
  -25.4670  -34.7470   23.4070 C   0  0  0  0  0  0  0  0  0  0  0  0
  -26.3350  -34.5890   22.5430 O   0  0  0  0  0  0  0  0  0  0  0  0
  -24.2270  -33.9340   24.7840 H   0  0  0  0  0  0  0  0  0  0  0  0
  -23.8610  -36.5170   22.6250 C   0  0  0  0  0  1  0  0  0  0  0  0
  -24.9160  -36.1590   23.6840 C   0  0  0  0  0  3  0  0  0  0  0  0
  -26.8430  -37.1030   24.8780 C   0  0  0  0  0  1  0  0  0  0  0  0
  -25.9610  -37.2060   23.7180 N   0  0  0  0  0  0  0  0  0  0  0  0
  -25.5430  -38.1320   23.7160 H   0  0  0  0  0  0  0  0  0  0  0  0
  -25.5160  -31.6040   25.3300 C   0  0  1  0  0  0  0  0  0  0  0  0
  -24.2090  -31.4590   26.1450 C   0  0  0  0  0  1  0  0  0  0  0  0
  -26.1110  -30.1900   25.1360 C   0  0  0  0  0  1  0  0  0  0  0  0
  -26.5260  -32.3980   26.1930 C   0  0  0  0  0  1  0  0  0  0  0  0
  1  2  1  0
  1  3  1  0
  2  5  1  0
  3 15  1  0
  3  4  1  0
  4 46  1  0
  5  6  1  6
  5 52  1  0
  5  4  1  0
  7 13  1  0
  7 15  1  0
  8 13  1  0
  9 10  1  0
  9  8  1  0
 11 10  1  0
 11 20  1  0
 11 12  1  0
 13 12  1  0
 14  7  2  0
 15 16  1  0
 17 18  2  0
 18 37  1  0
 19 18  1  0
 19 22  1  0
 20 21  1  0
 20 17  1  0
 21 19  2  0
 22 23  1  0
 23 24  2  0
 25 28  1  0
 25 24  1  0
 26 25  2  0
 27 26  1  0
 27 22  2  0
 28 29  1  0
 29 34  2  0
 29 30  1  0
 30 31  2  0
 31 32  1  0
 32 36  1  0
 33 32  2  0
 34 33  1  0
 35 34  1  0
 37 38  1  0
 38 41  1  0
 38 40  1  0
 39 37  2  0
 42 17  1  0
 42 43  1  0
 44 42  1  0
 46 45  1  0
 46 51  1  0
 47 48  1  0
 49 47  1  0
 50 48  1  0
 51 49  1  0
 51 50  1  0
 53 55  1  0
 54 56  2  0
 54 57  1  0
 56 58  1  0
 57 52  1  0
 57 53  2  0
 58 59  1  0
 58 55  2  0
 60 62  1  0
 60 59  1  0
 61 72  2  0
 62 67  1  0
 63 73  1  0
 63 71  1  0
 64 70  1  0
 64 66  1  0
 65 71  1  0
 66 67  2  0
 66 65  1  0
 68 62  2  0
 69 68  1  0
 69 64  2  0
 70 63  1  0
 71 61  1  0
 73 75  2  0
 74 73  1  0
 76 74  1  0
 77 86  2  0
 77 82  1  0
 78 74  1  0
 78 82  1  0
 79 78  1  0
 80 81  1  0
 80 79  1  0
 81 77  1  0
 82 83  2  0
 83 84  1  0
 85 84  2  0
 86 85  1  0
 87 61  1  0
 87 88  1  0
 87 97  1  0
 88 91  1  0
 89 93  1  0
 89 88  1  0
 90 89  2  0
 93 92  1  0
 93 95  1  0
 95 94  1  0
 96 95  1  0
 97 98  1  1
 97100  1  0
 99 97  1  0
M  ISO  4   7 100  15 100  59 101  60 101
M  END
>  <TORSDO>  (73) 
F 21

>  <SCORE>  (73) 
-0.339

>  <name>  (73) 
72

>  <ligand_id>  (73) 
72

>  <original_smiles>  (73) 
[H]c1c([H])c([H])c2c(c1[H])C([H])([H])C([H])([H])C([H])([H])C2([H])N([H])C(=O)C1([H])N(C(=O)C([H])(N([H])C(=O)C([H])(N([H])C([H])([H])[H])C([H])([H])[H])C(C([H])([H])[H])(C([H])([H])[H])C([H])([H])[H])C([H])([H])c2c([H])c(OC([H])([H])c3c([H])c([H])c(C([H])([H])[N+]4([H])C([H])([H])C([H])([H])C([H])(N([H])C(=O)N5C([H])([H])C([H])([H])C([H])([H])C([H])(n6nc(-c7c([H])c([H])c(Oc8c([H])c([H])c(F)c([H])c8F)c([H])c7[H])c(C(=O)N([H])[H])c6N([H])[H])C5([H])[H])C4([H])C([H])(C([H])([H])[H])C4([H])C([H])([H])C([H])([H])C([H])([H])C4([H])[H])c([H])c3[H])c([H])c([H])c2C1([H])[H]

>  <smiles>  (73) 
[H]c1c([H])c([H])c2c(c1[H])C([H])([H])C([H])([H])C([H])([H])C2([H])N([H])C(=O)C1([H])N(C(=O)C([H])(N([H])C(=O)C([H])(N([H])C([H])([H])[H])C([H])([H])[H])C(C([H])([H])[H])(C([H])([H])[H])C([H])([H])[H])C([H])([H])c2c([H])c(OC([H])([H])c3c([H])c([H])c(C([H])([H])[N+]4([H])C([H])([H])C([H])([H])C([H])(N([H])C(=O)N5C([H])([H])C([H])([H])C([H])([H])C([H])(n6nc(-c7c([H])c([H])c(Oc8c([H])c([H])c(F)c([H])c8F)c([H])c7[H])c(C(=O)N([H])[H])c6N([H])[H])C5([H])[H])C4([H])C([H])(C([H])([H])[H])C4([H])C([H])([H])C([H])([H])C([H])([H])C4([H])[H])c([H])c3[H])c([H])c([H])c2C1([H])[H]

$$$$
73:0:0
     RDKit          3D

 89 98  0  0  1  0  0  0  0  0999 V2000
  -29.2600  -23.1300   20.1750 C   0  0  0  0  0  3  0  0  0  0  0  0
  -29.4160  -21.8330   20.2360 N   0  0  0  0  0  0  0  0  0  0  0  0
  -27.4430  -24.6920   21.3850 C   0  0  0  0  0  2  0  0  0  0  0  0
  -28.8430  -24.1450   21.2810 C   0  0  0  0  0  3  0  0  0  0  0  0
  -28.5650  -25.7010   21.2440 C   0  0  0  0  0  3  0  0  0  0  0  0
  -28.3940  -26.5760   20.0880 O   0  0  0  0  0  0  0  0  0  0  0  0
  -24.6100  -31.8690   23.2420 C   0  0  0  0  0  0  0  0  0  0  0  0
  -27.2840  -27.4200   20.1190 C   0  0  0  0  0  0  0  0  0  0  0  0
  -23.4250  -30.4880   21.5710 C   0  0  0  0  0  3  0  0  0  0  0  0
  -24.8990  -28.9770   20.1300 C   0  0  0  0  0  0  0  0  0  0  0  0
  -25.9580  -30.8400   21.4060 C   0  0  0  0  0  2  0  0  0  0  0  0
  -26.0550  -29.4720   20.7470 C   0  0  0  0  0  0  0  0  0  0  0  0
  -27.2550  -28.7000   20.7440 C   0  0  0  0  0  3  0  0  0  0  0  0
  -26.1150  -26.9730   19.4710 C   0  0  0  0  0  3  0  0  0  0  0  0
  -24.9270  -27.7270   19.4870 C   0  0  0  0  0  3  0  0  0  0  0  0
  -23.6510  -29.8350   20.1820 C   0  0  0  0  0  2  0  0  0  0  0  0
  -24.6820  -31.0810   22.1310 N   0  0  0  0  0  0  0  0  0  0  0  0
  -23.5220  -32.1280   23.7760 O   0  0  0  0  0  0  0  0  0  0  0  0
  -22.7660  -29.4520   22.5110 C   0  0  0  0  0  0  0  0  0  0  0  0
  -21.4490  -29.2470   22.3540 N   0  0  0  0  0  0  0  0  0  0  0  0
  -23.4420  -28.8340   23.3390 O   0  0  0  0  0  0  0  0  0  0  0  0
  -20.9660  -29.7960   21.6560 H   0  0  0  0  0  0  0  0  0  0  0  0
  -18.0960  -27.9460   22.7310 C   0  0  0  0  0  0  0  0  0  0  0  0
  -20.6300  -28.2890   23.0990 C   0  0  0  0  0  3  0  0  0  0  0  0
  -20.8020  -26.8580   22.5380 C   0  0  0  0  0  2  0  0  0  0  0  0
  -19.7500  -26.4910   21.4860 C   0  0  0  0  0  2  0  0  0  0  0  0
  -18.3410  -26.5980   22.0740 C   0  0  0  0  0  2  0  0  0  0  0  0
  -19.1710  -28.7470   23.1980 C   0  0  0  0  0  0  0  0  0  0  0  0
  -18.8890  -30.0060   23.7700 C   0  0  0  0  0  3  0  0  0  0  0  0
  -17.5620  -30.4650   23.8820 C   0  0  0  0  0  3  0  0  0  0  0  0
  -16.5000  -29.6620   23.4330 C   0  0  0  0  0  3  0  0  0  0  0  0
  -16.7680  -28.4040   22.8620 C   0  0  0  0  0  3  0  0  0  0  0  0
  -25.8860  -32.4990   23.8820 C   0  0  0  0  0  3  0  0  0  0  0  0
  -26.3780  -31.7290   25.1690 C   0  0  1  0  0  0  0  0  0  0  0  0
  -25.2700  -31.4990   26.2220 C   0  0  0  0  0  1  0  0  0  0  0  0
  -26.9630  -30.3490   24.7890 C   0  0  0  0  0  1  0  0  0  0  0  0
  -27.5240  -32.5200   25.8460 C   0  0  0  0  0  1  0  0  0  0  0  0
  -25.5790  -33.8990   24.2040 N   0  0  0  0  0  0  0  0  0  0  0  0
  -25.9240  -34.9470   23.4430 C   0  0  0  0  0  0  0  0  0  0  0  0
  -26.6030  -34.8380   22.4190 O   0  0  0  0  0  0  0  0  0  0  0  0
  -24.9800  -34.0600   25.0010 H   0  0  0  0  0  0  0  0  0  0  0  0
  -24.2010  -36.7400   23.0710 C   0  0  0  0  0  1  0  0  0  0  0  0
  -25.4370  -36.3390   23.8900 C   0  0  0  0  0  3  0  0  0  0  0  0
  -27.5680  -37.2240   24.7250 C   0  0  0  0  0  1  0  0  0  0  0  0
  -26.4720  -37.3890   23.7750 N   0  0  0  0  0  0  0  0  0  0  0  0
  -26.0650  -38.3100   23.9160 H   0  0  0  0  0  0  0  0  0  0  0  0
  -30.4020  -20.5410   22.1150 C   0  0  0  0  0  2  0  0  0  0  0  0
  -29.4760  -19.4990   21.5250 C   0  0  0  0  0  3  0  0  0  0  0  0
  -29.1350  -21.0350   21.4480 C   0  0  0  0  0  3  0  0  0  0  0  0
  -29.9600  -18.4490   20.4620 C   0  0  0  0  0  2  0  0  0  0  0  0
  -30.6540  -17.1250   21.0380 C   0  0  0  0  0  2  0  0  0  0  0  0
  -30.8590  -14.7080   20.0860 C   0  0  0  0  0  0  0  0  0  0  0  0
  -30.5340  -12.5140   18.9420 C   0  0  0  0  0  2  0  0  0  0  0  0
  -29.5520  -12.6790   17.7630 C   0  0  0  0  0  2  0  0  0  0  0  0
  -28.0900  -12.5490   18.2390 C   0  0  0  0  0  2  0  0  0  0  0  0
  -27.7970  -13.3960   19.5080 C   0  0  0  0  0  3  0  0  0  0  0  0
  -28.8900  -13.1930   20.5790 C   0  0  0  0  0  2  0  0  0  0  0  0
  -30.1810  -13.5240   19.9600 N   0  0  0  0  0  0  0  0  0  0  0  0
  -32.0030  -14.8420   19.6470 O   0  0  0  0  0  0  0  0  0  0  0  0
  -30.1600  -15.7710   20.5960 N   0  0  0  0  0  0  0  0  0  0  0  0
  -29.2060  -15.5520   20.8470 H   0  0  0  0  0  0  0  0  0  0  0  0
  -25.4410  -14.0400   20.3060 C   0  0  0  0  0  0  0  0  0  0  0  0
  -24.3740  -13.2870   20.7120 C   0  0  0  0  0  0  0  0  0  0  0  0
  -24.8080  -11.9280   20.6650 C   0  0  0  0  0  0  0  0  0  0  0  0
  -26.4600  -13.1400   20.0370 N   0  0  0  0  0  0  0  0  0  0  0  0
  -26.0870  -11.8650   20.3160 N   0  0  0  0  0  0  0  0  0  0  0  0
  -24.0650  -10.6780   20.8820 C   0  0  0  0  0  0  0  0  0  0  0  0
  -24.5030   -9.7130   21.8150 C   0  0  0  0  0  3  0  0  0  0  0  0
  -23.7620   -8.5280   22.0210 C   0  0  0  0  0  3  0  0  0  0  0  0
  -22.5690   -8.2980   21.2940 C   0  0  0  0  0  0  0  0  0  0  0  0
  -22.1500   -9.2530   20.3500 C   0  0  0  0  0  3  0  0  0  0  0  0
  -22.8920  -10.4280   20.1420 C   0  0  0  0  0  3  0  0  0  0  0  0
  -21.8010   -7.1640   21.4070 O   0  0  0  0  0  0  0  0  0  0  0  0
  -21.7530   -6.4400   22.5710 C   0  0  0  0  0  0  0  0  0  0  0  0
  -21.3480   -7.0210   23.7930 C   0  0  0  0  0  3  0  0  0  0  0  0
  -21.2480   -6.2260   24.9510 C   0  0  0  0  0  3  0  0  0  0  0  0
  -21.5390   -4.8500   24.8880 C   0  0  0  0  0  0  0  0  0  0  0  0
  -21.9380   -4.2690   23.6710 C   0  0  0  0  0  3  0  0  0  0  0  0
  -22.0420   -5.0620   22.5160 C   0  0  0  0  0  0  0  0  0  0  0  0
  -22.4050   -4.4950   21.3390 F   0  0  0  0  0  0  0  0  0  0  0  0
  -21.4350   -4.0830   25.9980 F   0  0  0  0  0  0  0  0  0  0  0  0
  -22.9940  -13.7880   21.0300 C   0  0  0  0  0  0  0  0  0  0  0  0
  -22.2840  -13.1070   21.9240 N   0  0  0  0  0  0  0  0  0  0  0  0
  -22.5530  -14.8170   20.5190 O   0  0  0  0  0  0  0  0  0  0  0  0
  -22.6580  -12.2780   22.3640 H   0  0  0  0  0  0  0  0  0  0  0  0
  -21.3580  -13.4230   22.1750 H   0  0  0  0  0  0  0  0  0  0  0  0
  -25.6220  -15.4070   20.1190 N   0  0  0  0  0  0  0  0  0  0  0  0
  -24.8660  -16.0680   20.2600 H   0  0  0  0  0  0  0  0  0  0  0  0
  -26.4580  -15.8370   19.7460 H   0  0  0  0  0  0  0  0  0  0  0  0
  1  2  2  0
  4  1  1  0
  4  3  1  0
  5  6  1  0
  5  4  1  0
  5  3  1  0
  6  8  1  0
  7 18  2  0
  8 13  1  0
  9 17  1  0
  9 19  1  0
 10 16  1  0
 10 12  1  0
 11 17  1  0
 12 11  1  0
 13 12  2  0
 14 15  1  0
 14  8  2  0
 15 10  2  0
 16  9  1  0
 17  7  1  0
 19 21  2  0
 20 19  1  0
 22 20  1  0
 23 32  2  0
 23 28  1  0
 24 20  1  0
 24 28  1  0
 25 24  1  0
 26 27  1  0
 26 25  1  0
 27 23  1  0
 28 29  2  0
 29 30  1  0
 31 30  2  0
 32 31  1  0
 33  7  1  0
 33 38  1  0
 33 34  1  0
 34 37  1  1
 34 35  1  0
 36 34  1  0
 38 41  1  0
 39 43  1  0
 39 38  1  0
 40 39  2  0
 43 42  1  0
 45 43  1  0
 45 46  1  0
 45 44  1  0
 48 50  1  0
 48 47  1  0
 49  2  1  0
 49 48  1  0
 49 47  1  0
 50 51  1  0
 52 60  1  0
 53 58  1  0
 54 55  1  0
 54 53  1  0
 56 55  1  0
 56 65  1  0
 56 57  1  0
 58 52  1  0
 58 57  1  0
 59 52  2  0
 60 61  1  0
 60 51  1  0
 62 63  2  0
 63 82  1  0
 64 63  1  0
 64 67  1  0
 65 62  1  0
 65 66  1  0
 66 64  2  0
 67 68  1  0
 68 69  2  0
 70 73  1  0
 70 69  1  0
 71 70  2  0
 72 71  1  0
 72 67  2  0
 73 74  1  0
 74 75  1  0
 75 76  2  0
 77 76  1  0
 77 81  1  0
 78 77  2  0
 79 74  2  0
 79 78  1  0
 80 79  1  0
 82 83  1  0
 83 86  1  0
 83 85  1  0
 84 82  2  0
 87 88  1  0
 87 62  1  0
 89 87  1  0
M  ISO  4   5 101   6 101  52 100  60 100
M  END
>  <TORSDO>  (74) 
F 20

>  <SCORE>  (74) 
-13.080

>  <name>  (74) 
73

>  <ligand_id>  (74) 
73

>  <original_smiles>  (74) 
[H]C(=NC1([H])C([H])([H])C1([H])C([H])([H])C([H])([H])N([H])C(=O)N1C([H])([H])C([H])([H])C([H])([H])C([H])(n2nc(-c3c([H])c([H])c(Oc4c([H])c([H])c(F)c([H])c4F)c([H])c3[H])c(C(=O)N([H])[H])c2N([H])[H])C1([H])[H])C1([H])C([H])([H])C1([H])Oc1c([H])c([H])c2c(c1[H])C([H])([H])N(C(=O)C([H])(N([H])C(=O)C([H])(N([H])C([H])([H])[H])C([H])([H])[H])C(C([H])([H])[H])(C([H])([H])[H])C([H])([H])[H])C([H])(C(=O)N([H])C1([H])c3c([H])c([H])c([H])c([H])c3C([H])([H])C([H])([H])C1([H])[H])C2([H])[H]

>  <smiles>  (74) 
[H]C(=NC1([H])C([H])([H])C1([H])C([H])([H])C([H])([H])N([H])C(=O)N1C([H])([H])C([H])([H])C([H])([H])C([H])(n2nc(-c3c([H])c([H])c(Oc4c([H])c([H])c(F)c([H])c4F)c([H])c3[H])c(C(=O)N([H])[H])c2N([H])[H])C1([H])[H])C1([H])C([H])([H])C1([H])Oc1c([H])c([H])c2c(c1[H])C([H])([H])N(C(=O)C([H])(N([H])C(=O)C([H])(N([H])C([H])([H])[H])C([H])([H])[H])C(C([H])([H])[H])(C([H])([H])[H])C([H])([H])[H])C([H])(C(=O)N([H])C1([H])c3c([H])c([H])c([H])c([H])c3C([H])([H])C([H])([H])C1([H])[H])C2([H])[H]

$$$$
74:0:0
     RDKit          3D

 97106  0  0  1  0  0  0  0  0999 V2000
  -29.3420  -21.2340   21.8660 C   0  0  0  0  0  2  0  0  0  0  0  0
  -28.6760  -20.6570   19.4760 C   0  0  0  0  0  2  0  0  0  0  0  0
  -28.5650  -22.5170   21.4910 C   0  0  0  0  0  2  0  0  0  0  0  0
  -29.2040  -22.0670   19.1150 C   0  0  0  0  0  2  0  0  0  0  0  0
  -29.2060  -20.1010   20.8170 C   0  0  0  0  0  3  0  0  0  0  0  0
  -29.0520  -23.0850   20.2030 N   0  0  1  0  0  4  0  0  0  0  0  0
  -30.0010  -23.3840   20.3870 H   0  0  0  0  0  0  0  0  0  0  0  0
  -31.7370  -19.8310   20.3770 C   0  0  0  0  0  3  0  0  0  0  0  0
  -30.4980  -19.3160   20.6400 C   0  0  0  0  0  0  0  0  0  0  0  0
  -30.7150  -17.8940   20.6290 C   0  0  0  0  0  0  0  0  0  0  0  0
  -31.9890  -17.6040   20.4090 N   0  0  0  0  0  0  0  0  0  0  0  0
  -32.6130  -18.7850   20.2200 N   0  0  0  0  0  0  0  0  0  0  0  0
  -34.8210  -19.9050   20.4520 C   0  0  0  0  0  1  0  0  0  0  0  0
  -34.0360  -18.9480   18.2310 C   0  0  0  0  0  1  0  0  0  0  0  0
  -33.9940  -18.8070   19.7620 C   0  0  0  0  0  3  0  0  0  0  0  0
  -29.6730  -16.7840   20.6990 C   0  0  0  0  0  2  0  0  0  0  0  0
  -30.7110  -14.4880   20.4620 C   0  0  0  0  0  0  0  0  0  0  0  0
  -30.4130  -12.3430   19.2850 C   0  0  0  0  0  2  0  0  0  0  0  0
  -29.4770  -12.5890   18.0820 C   0  0  0  0  0  2  0  0  0  0  0  0
  -28.0000  -12.4640   18.5020 C   0  0  0  0  0  2  0  0  0  0  0  0
  -27.6720  -13.2720   19.7840 C   0  0  0  0  0  3  0  0  0  0  0  0
  -28.7170  -12.9990   20.8910 C   0  0  0  0  0  2  0  0  0  0  0  0
  -30.0550  -13.3010   20.3460 N   0  0  0  0  0  0  0  0  0  0  0  0
  -31.7760  -14.7110   19.8800 O   0  0  0  0  0  0  0  0  0  0  0  0
  -30.0450  -15.4290   21.1550 N   0  0  0  0  0  0  0  0  0  0  0  0
  -29.3410  -15.0230   21.7500 H   0  0  0  0  0  0  0  0  0  0  0  0
  -25.2600  -13.9030   20.4350 C   0  0  0  0  0  0  0  0  0  0  0  0
  -24.1830  -13.1400   20.7970 C   0  0  0  0  0  0  0  0  0  0  0  0
  -24.6390  -11.7850   20.7910 C   0  0  0  0  0  0  0  0  0  0  0  0
  -26.3070  -13.0140   20.2400 N   0  0  0  0  0  0  0  0  0  0  0  0
  -25.9340  -11.7360   20.5050 N   0  0  0  0  0  0  0  0  0  0  0  0
  -23.9040  -10.5290   20.9900 C   0  0  0  0  0  0  0  0  0  0  0  0
  -24.3210   -9.5690   21.9410 C   0  0  0  0  0  3  0  0  0  0  0  0
  -23.5880   -8.3770   22.1240 C   0  0  0  0  0  3  0  0  0  0  0  0
  -22.4240   -8.1350   21.3580 C   0  0  0  0  0  0  0  0  0  0  0  0
  -22.0260   -9.0820   20.3970 C   0  0  0  0  0  3  0  0  0  0  0  0
  -22.7600  -10.2660   20.2110 C   0  0  0  0  0  3  0  0  0  0  0  0
  -21.6650   -6.9940   21.4500 O   0  0  0  0  0  0  0  0  0  0  0  0
  -21.6020   -6.2620   22.6080 C   0  0  0  0  0  0  0  0  0  0  0  0
  -21.1620   -6.8300   23.8230 C   0  0  0  0  0  3  0  0  0  0  0  0
  -21.0450   -6.0270   24.9750 C   0  0  0  0  0  3  0  0  0  0  0  0
  -21.3620   -4.6550   24.9120 C   0  0  0  0  0  0  0  0  0  0  0  0
  -21.7960   -4.0860   23.7020 C   0  0  0  0  0  3  0  0  0  0  0  0
  -21.9140   -4.8870   22.5530 C   0  0  0  0  0  0  0  0  0  0  0  0
  -22.3130   -4.3320   21.3840 F   0  0  0  0  0  0  0  0  0  0  0  0
  -21.2430   -3.8810   26.0160 F   0  0  0  0  0  0  0  0  0  0  0  0
  -22.7840  -13.6260   21.0470 C   0  0  0  0  0  0  0  0  0  0  0  0
  -22.0430  -12.9410   21.9090 N   0  0  0  0  0  0  0  0  0  0  0  0
  -22.3580  -14.6480   20.5100 O   0  0  0  0  0  0  0  0  0  0  0  0
  -22.4050  -12.1150   22.3640 H   0  0  0  0  0  0  0  0  0  0  0  0
  -21.1060  -13.2470   22.1220 H   0  0  0  0  0  0  0  0  0  0  0  0
  -25.4350  -15.2690   20.2390 N   0  0  0  0  0  0  0  0  0  0  0  0
  -24.6710  -15.9290   20.3240 H   0  0  0  0  0  0  0  0  0  0  0  0
  -26.2920  -15.6920   19.9060 H   0  0  0  0  0  0  0  0  0  0  0  0
  -28.3430  -24.3260   19.7620 C   0  0  0  0  0  2  0  0  0  0  0  0
  -28.4810  -25.5160   20.7450 C   0  0  0  0  0  2  0  0  0  0  0  0
  -28.4410  -26.7930   20.0970 O   0  0  0  0  0  0  0  0  0  0  0  0
  -24.5750  -31.8930   23.2310 C   0  0  0  0  0  0  0  0  0  0  0  0
  -27.2500  -27.4800   20.1450 C   0  0  0  0  0  0  0  0  0  0  0  0
  -23.3770  -30.4870   21.5890 C   0  0  0  0  0  3  0  0  0  0  0  0
  -24.8390  -28.9510   20.1710 C   0  0  0  0  0  0  0  0  0  0  0  0
  -25.8990  -30.8660   21.3830 C   0  0  0  0  0  2  0  0  0  0  0  0
  -25.9960  -29.4940   20.7450 C   0  0  0  0  0  0  0  0  0  0  0  0
  -27.2080  -28.7690   20.7220 C   0  0  0  0  0  3  0  0  0  0  0  0
  -26.0760  -26.9400   19.5780 C   0  0  0  0  0  3  0  0  0  0  0  0
  -24.8730  -27.6710   19.5900 C   0  0  0  0  0  3  0  0  0  0  0  0
  -23.5880  -29.8000   20.2140 C   0  0  0  0  0  2  0  0  0  0  0  0
  -24.6370  -31.0950   22.1270 N   0  0  0  0  0  0  0  0  0  0  0  0
  -23.4920  -32.1600   23.7710 O   0  0  0  0  0  0  0  0  0  0  0  0
  -22.7310  -29.4630   22.5480 C   0  0  0  0  0  0  0  0  0  0  0  0
  -21.4070  -29.2800   22.4200 N   0  0  0  0  0  0  0  0  0  0  0  0
  -23.4180  -28.8320   23.3560 O   0  0  0  0  0  0  0  0  0  0  0  0
  -20.9180  -29.8410   21.7370 H   0  0  0  0  0  0  0  0  0  0  0  0
  -18.0340  -28.0970   22.9380 C   0  0  0  0  0  0  0  0  0  0  0  0
  -20.5930  -28.3380   23.1880 C   0  0  0  0  0  3  0  0  0  0  0  0
  -20.6830  -26.9140   22.5950 C   0  0  0  0  0  2  0  0  0  0  0  0
  -19.5680  -26.6080   21.5880 C   0  0  0  0  0  2  0  0  0  0  0  0
  -18.1930  -26.7540   22.2460 C   0  0  0  0  0  2  0  0  0  0  0  0
  -19.1590  -28.8490   23.3660 C   0  0  0  0  0  0  0  0  0  0  0  0
  -18.9550  -30.1070   23.9680 C   0  0  0  0  0  3  0  0  0  0  0  0
  -17.6540  -30.6170   24.1470 C   0  0  0  0  0  3  0  0  0  0  0  0
  -16.5430  -29.8630   23.7380 C   0  0  0  0  0  3  0  0  0  0  0  0
  -16.7320  -28.6040   23.1390 C   0  0  0  0  0  3  0  0  0  0  0  0
  -25.8570  -32.5260   23.8550 C   0  0  0  0  0  3  0  0  0  0  0  0
  -25.5480  -33.9250   24.1800 N   0  0  0  0  0  0  0  0  0  0  0  0
  -25.8860  -34.9730   23.4170 C   0  0  0  0  0  0  0  0  0  0  0  0
  -26.5670  -34.8680   22.3930 O   0  0  0  0  0  0  0  0  0  0  0  0
  -24.9450  -34.0860   24.9760 H   0  0  0  0  0  0  0  0  0  0  0  0
  -24.1680  -36.7650   23.0360 C   0  0  0  0  0  1  0  0  0  0  0  0
  -25.3960  -36.3620   23.8680 C   0  0  0  0  0  3  0  0  0  0  0  0
  -27.5210  -37.2400   24.7290 C   0  0  0  0  0  1  0  0  0  0  0  0
  -26.4330  -37.4130   23.7690 N   0  0  0  0  0  0  0  0  0  0  0  0
  -26.0260  -38.3340   23.9080 H   0  0  0  0  0  0  0  0  0  0  0  0
  -26.3790  -31.7580   25.1310 C   0  0  1  0  0  0  0  0  0  0  0  0
  -25.2870  -31.5110   26.1980 C   0  0  0  0  0  1  0  0  0  0  0  0
  -26.9710  -30.3860   24.7340 C   0  0  0  0  0  1  0  0  0  0  0  0
  -27.5280  -32.5560   25.7910 C   0  0  0  0  0  1  0  0  0  0  0  0
  2  5  1  0
  3  1  1  0
  4  2  1  0
  4  6  1  0
  5  9  1  0
  5  1  1  0
  6  7  1  1
  6  3  1  0
  8  9  2  0
 10  9  1  0
 10 16  1  0
 11 10  2  0
 12  8  1  0
 12 11  1  0
 14 15  1  0
 15 12  1  0
 15 13  1  0
 16 25  1  0
 17 25  1  0
 18 23  1  0
 19 20  1  0
 19 18  1  0
 21 20  1  0
 21 30  1  0
 21 22  1  0
 23 17  1  0
 23 22  1  0
 24 17  2  0
 25 26  1  0
 27 28  2  0
 28 47  1  0
 29 28  1  0
 29 32  1  0
 30 27  1  0
 30 31  1  0
 31 29  2  0
 32 33  1  0
 33 34  2  0
 35 38  1  0
 35 34  1  0
 36 35  2  0
 37 36  1  0
 37 32  2  0
 38 39  1  0
 39 40  1  0
 40 41  2  0
 42 41  1  0
 42 46  1  0
 43 42  2  0
 44 39  2  0
 44 43  1  0
 45 44  1  0
 47 48  1  0
 48 51  1  0
 48 50  1  0
 49 47  2  0
 52 53  1  0
 52 27  1  0
 54 52  1  0
 55  6  1  0
 55 56  1  0
 57 59  1  0
 57 56  1  0
 58 69  2  0
 59 64  1  0
 60 68  1  0
 60 70  1  0
 61 67  1  0
 61 63  1  0
 62 68  1  0
 63 62  1  0
 64 63  2  0
 65 66  1  0
 65 59  2  0
 66 61  2  0
 67 60  1  0
 68 58  1  0
 70 72  2  0
 71 70  1  0
 73 71  1  0
 74 83  2  0
 74 79  1  0
 75 71  1  0
 75 79  1  0
 76 75  1  0
 77 78  1  0
 77 76  1  0
 78 74  1  0
 79 80  2  0
 80 81  1  0
 82 81  2  0
 83 82  1  0
 84 58  1  0
 84 85  1  0
 84 94  1  0
 85 88  1  0
 86 90  1  0
 86 85  1  0
 87 86  2  0
 90 89  1  0
 92 90  1  0
 92 93  1  0
 92 91  1  0
 94 97  1  1
 94 95  1  0
 96 94  1  0
M  ISO  4  17 100  25 100  56 101  57 101
M  END
>  <TORSDO>  (75) 
F 21

>  <SCORE>  (75) 
-13.921

>  <name>  (75) 
74

>  <ligand_id>  (75) 
74

>  <original_smiles>  (75) 
[H]c1c([H])c([H])c2c(c1[H])C([H])([H])C([H])([H])C([H])([H])C2([H])N([H])C(=O)C1([H])N(C(=O)C([H])(N([H])C(=O)C([H])(N([H])C([H])([H])[H])C([H])([H])[H])C(C([H])([H])[H])(C([H])([H])[H])C([H])([H])[H])C([H])([H])c2c([H])c(OC([H])([H])C([H])([H])[N+]3([H])C([H])([H])C([H])([H])C([H])(c4c(C([H])([H])N([H])C(=O)N5C([H])([H])C([H])([H])C([H])([H])C([H])(n6nc(-c7c([H])c([H])c(Oc8c([H])c([H])c(F)c([H])c8F)c([H])c7[H])c(C(=O)N([H])[H])c6N([H])[H])C5([H])[H])nn(C([H])(C([H])([H])[H])C([H])([H])[H])c4[H])C([H])([H])C3([H])[H])c([H])c([H])c2C1([H])[H]

>  <smiles>  (75) 
[H]c1c([H])c([H])c2c(c1[H])C([H])([H])C([H])([H])C([H])([H])C2([H])N([H])C(=O)C1([H])N(C(=O)C([H])(N([H])C(=O)C([H])(N([H])C([H])([H])[H])C([H])([H])[H])C(C([H])([H])[H])(C([H])([H])[H])C([H])([H])[H])C([H])([H])c2c([H])c(OC([H])([H])C([H])([H])[N+]3([H])C([H])([H])C([H])([H])C([H])(c4c(C([H])([H])N([H])C(=O)N5C([H])([H])C([H])([H])C([H])([H])C([H])(n6nc(-c7c([H])c([H])c(Oc8c([H])c([H])c(F)c([H])c8F)c([H])c7[H])c(C(=O)N([H])[H])c6N([H])[H])C5([H])[H])nn(C([H])(C([H])([H])[H])C([H])([H])[H])c4[H])C([H])([H])C3([H])[H])c([H])c([H])c2C1([H])[H]

$$$$
75:0:0
     RDKit          3D

 96104  0  0  1  0  0  0  0  0999 V2000
  -30.6720  -22.4690   21.2430 C   0  0  0  0  0  3  0  0  0  0  0  0
  -29.5900  -23.2960   19.4800 C   0  0  0  0  0  3  0  0  0  0  0  0
  -30.4630  -23.6450   20.4640 C   0  0  0  0  0  0  0  0  0  0  0  0
  -29.9590  -21.4340   20.6940 C   0  0  0  0  0  0  0  0  0  0  0  0
  -29.3010  -21.9460   19.5710 N   0  0  0  0  0  0  0  0  0  0  0  0
  -28.9310  -21.3640   17.1930 C   0  0  0  0  0  1  0  0  0  0  0  0
  -26.9800  -21.8060   18.7720 C   0  0  0  0  0  1  0  0  0  0  0  0
  -28.4080  -21.2590   18.6370 C   0  0  0  0  0  3  0  0  0  0  0  0
  -31.0900  -25.0080   20.6370 C   0  0  0  0  0  2  0  0  0  0  0  0
  -30.4390  -25.8930   21.7140 C   0  0  0  0  0  2  0  0  0  0  0  0
  -28.9300  -26.1530   21.5430 C   0  0  0  0  0  2  0  0  0  0  0  0
  -28.6240  -26.7450   20.2760 O   0  0  0  0  0  0  0  0  0  0  0  0
  -24.6490  -31.8590   23.2210 C   0  0  0  0  0  0  0  0  0  0  0  0
  -27.4480  -27.4580   20.2590 C   0  0  0  0  0  0  0  0  0  0  0  0
  -23.5030  -30.4320   21.5520 C   0  0  0  0  0  3  0  0  0  0  0  0
  -25.0200  -28.9000   20.1810 C   0  0  0  0  0  0  0  0  0  0  0  0
  -26.0210  -30.8340   21.4150 C   0  0  0  0  0  2  0  0  0  0  0  0
  -26.1470  -29.4560   20.8020 C   0  0  0  0  0  0  0  0  0  0  0  0
  -27.3610  -28.7390   20.8460 C   0  0  0  0  0  3  0  0  0  0  0  0
  -26.3140  -26.9120   19.6230 C   0  0  0  0  0  3  0  0  0  0  0  0
  -25.0970  -27.6240   19.5910 C   0  0  0  0  0  3  0  0  0  0  0  0
  -23.7590  -29.7380   20.1840 C   0  0  0  0  0  2  0  0  0  0  0  0
  -24.7410  -31.0580   22.1220 N   0  0  0  0  0  0  0  0  0  0  0  0
  -23.5520  -32.1170   23.7330 O   0  0  0  0  0  0  0  0  0  0  0  0
  -22.8410  -29.4110   22.5040 C   0  0  0  0  0  0  0  0  0  0  0  0
  -21.5150  -29.2400   22.3700 N   0  0  0  0  0  0  0  0  0  0  0  0
  -23.5170  -28.7750   23.3180 O   0  0  0  0  0  0  0  0  0  0  0  0
  -21.0300  -29.8070   21.6890 H   0  0  0  0  0  0  0  0  0  0  0  0
  -18.1240  -28.1040   22.8800 C   0  0  0  0  0  0  0  0  0  0  0  0
  -20.6900  -28.3010   23.1290 C   0  0  0  0  0  3  0  0  0  0  0  0
  -20.7540  -26.8810   22.5190 C   0  0  0  0  0  2  0  0  0  0  0  0
  -19.6350  -26.6060   21.5100 C   0  0  0  0  0  2  0  0  0  0  0  0
  -18.2640  -26.7660   22.1730 C   0  0  0  0  0  2  0  0  0  0  0  0
  -19.2630  -28.8310   23.3160 C   0  0  0  0  0  0  0  0  0  0  0  0
  -19.0790  -30.0850   23.9360 C   0  0  0  0  0  3  0  0  0  0  0  0
  -17.7870  -30.6120   24.1270 C   0  0  0  0  0  3  0  0  0  0  0  0
  -16.6620  -29.8820   23.7070 C   0  0  0  0  0  3  0  0  0  0  0  0
  -16.8310  -28.6290   23.0900 C   0  0  0  0  0  3  0  0  0  0  0  0
  -25.9130  -32.5090   23.8690 C   0  0  0  0  0  3  0  0  0  0  0  0
  -25.5830  -33.9040   24.1850 N   0  0  0  0  0  0  0  0  0  0  0  0
  -25.9170  -34.9540   23.4240 C   0  0  0  0  0  0  0  0  0  0  0  0
  -26.6050  -34.8520   22.4060 O   0  0  0  0  0  0  0  0  0  0  0  0
  -24.9740  -34.0590   24.9760 H   0  0  0  0  0  0  0  0  0  0  0  0
  -24.1830  -36.7270   23.0120 C   0  0  0  0  0  1  0  0  0  0  0  0
  -25.4040  -36.3400   23.8590 C   0  0  0  0  0  3  0  0  0  0  0  0
  -27.5020  -37.2530   24.7500 C   0  0  0  0  0  1  0  0  0  0  0  0
  -26.4280  -37.4040   23.7730 N   0  0  0  0  0  0  0  0  0  0  0  0
  -26.0070  -38.3210   23.9020 H   0  0  0  0  0  0  0  0  0  0  0  0
  -26.4130  -31.7480   25.1580 C   0  0  1  0  0  0  0  0  0  0  0  0
  -25.3010  -31.4980   26.2030 C   0  0  0  0  0  1  0  0  0  0  0  0
  -27.0230  -30.3780   24.7780 C   0  0  0  0  0  1  0  0  0  0  0  0
  -27.5380  -32.5580   25.8440 C   0  0  0  0  0  1  0  0  0  0  0  0
  -29.8470  -20.0040   21.1770 C   0  0  0  0  0  2  0  0  0  0  0  0
  -31.1000  -19.2370   20.9830 N   0  0  0  0  0  4  0  0  0  0  0  0
  -31.8180  -19.7110   21.5050 H   0  0  0  0  0  0  0  0  0  0  0  0
  -31.3610  -19.2850   20.0120 H   0  0  0  0  0  0  0  0  0  0  0  0
  -31.0860  -17.8160   21.4350 C   0  0  0  0  0  2  0  0  0  0  0  0
  -30.0620  -16.9430   20.6690 C   0  0  0  0  0  2  0  0  0  0  0  0
  -30.8120  -14.5620   20.4690 C   0  0  0  0  0  0  0  0  0  0  0  0
  -30.5690  -12.4090   19.3050 C   0  0  0  0  0  2  0  0  0  0  0  0
  -29.6230  -12.6020   18.0990 C   0  0  0  0  0  2  0  0  0  0  0  0
  -28.1450  -12.4580   18.5200 C   0  0  0  0  0  2  0  0  0  0  0  0
  -27.7970  -13.2970   19.7800 C   0  0  0  0  0  3  0  0  0  0  0  0
  -28.8410  -13.0510   20.8920 C   0  0  0  0  0  2  0  0  0  0  0  0
  -30.1770  -13.3650   20.3490 N   0  0  0  0  0  0  0  0  0  0  0  0
  -31.9020  -14.8140   19.9480 O   0  0  0  0  0  0  0  0  0  0  0  0
  -30.0610  -15.5200   21.0300 N   0  0  0  0  0  0  0  0  0  0  0  0
  -29.2190  -15.1830   21.4730 H   0  0  0  0  0  0  0  0  0  0  0  0
  -25.3910  -13.9180   20.4730 C   0  0  0  0  0  0  0  0  0  0  0  0
  -24.3170  -13.1490   20.8350 C   0  0  0  0  0  0  0  0  0  0  0  0
  -24.7730  -11.7960   20.7980 C   0  0  0  0  0  0  0  0  0  0  0  0
  -26.4340  -13.0320   20.2440 N   0  0  0  0  0  0  0  0  0  0  0  0
  -26.0630  -11.7510   20.4960 N   0  0  0  0  0  0  0  0  0  0  0  0
  -24.0410  -10.5380   20.9810 C   0  0  0  0  0  0  0  0  0  0  0  0
  -24.4320   -9.5910   21.9540 C   0  0  0  0  0  3  0  0  0  0  0  0
  -23.7030   -8.3940   22.1240 C   0  0  0  0  0  3  0  0  0  0  0  0
  -22.5700   -8.1340   21.3170 C   0  0  0  0  0  0  0  0  0  0  0  0
  -22.1990   -9.0680   20.3340 C   0  0  0  0  0  3  0  0  0  0  0  0
  -22.9280  -10.2560   20.1630 C   0  0  0  0  0  3  0  0  0  0  0  0
  -21.8160   -6.9880   21.3930 O   0  0  0  0  0  0  0  0  0  0  0  0
  -21.6790   -6.2900   22.5670 C   0  0  0  0  0  0  0  0  0  0  0  0
  -21.1090   -6.8760   23.7180 C   0  0  0  0  0  3  0  0  0  0  0  0
  -20.9230   -6.1030   24.8820 C   0  0  0  0  0  3  0  0  0  0  0  0
  -21.2970   -4.7460   24.8940 C   0  0  0  0  0  0  0  0  0  0  0  0
  -21.8560   -4.1600   23.7470 C   0  0  0  0  0  3  0  0  0  0  0  0
  -22.0440   -4.9290   22.5850 C   0  0  0  0  0  0  0  0  0  0  0  0
  -22.5650   -4.3520   21.4750 F   0  0  0  0  0  0  0  0  0  0  0  0
  -21.1120   -4.0020   26.0080 F   0  0  0  0  0  0  0  0  0  0  0  0
  -22.9190  -13.6290   21.1000 C   0  0  0  0  0  0  0  0  0  0  0  0
  -22.1810  -12.9300   21.9550 N   0  0  0  0  0  0  0  0  0  0  0  0
  -22.4890  -14.6620   20.5880 O   0  0  0  0  0  0  0  0  0  0  0  0
  -22.5380  -12.0950   22.3980 H   0  0  0  0  0  0  0  0  0  0  0  0
  -21.2420  -13.2330   22.1700 H   0  0  0  0  0  0  0  0  0  0  0  0
  -25.5660  -15.2870   20.2990 N   0  0  0  0  0  0  0  0  0  0  0  0
  -24.8100  -15.9550   20.4150 H   0  0  0  0  0  0  0  0  0  0  0  0
  -26.4190  -15.7130   19.9620 H   0  0  0  0  0  0  0  0  0  0  0  0
  2  5  1  0
  2  3  2  0
  3  9  1  0
  3  1  1  0
  4 53  1  0
  4  1  2  0
  5  4  1  0
  6  8  1  0
  8  7  1  0
  8  5  1  0
  9 10  1  0
 11 10  1  0
 12 11  1  0
 13 24  2  0
 14 12  1  0
 14 19  1  0
 15 23  1  0
 15 25  1  0
 16 22  1  0
 16 18  1  0
 17 23  1  0
 18 19  2  0
 18 17  1  0
 20 14  2  0
 21 20  1  0
 21 16  2  0
 22 15  1  0
 23 13  1  0
 25 27  2  0
 26 25  1  0
 28 26  1  0
 29 38  2  0
 29 34  1  0
 30 26  1  0
 30 34  1  0
 31 30  1  0
 32 33  1  0
 32 31  1  0
 33 29  1  0
 34 35  2  0
 35 36  1  0
 37 36  2  0
 38 37  1  0
 39 13  1  0
 39 40  1  0
 39 49  1  0
 40 43  1  0
 41 45  1  0
 41 40  1  0
 42 41  2  0
 45 44  1  0
 47 45  1  0
 47 48  1  0
 47 46  1  0
 49 52  1  1
 49 50  1  0
 51 49  1  0
 54 53  1  0
 54 57  1  0
 54 55  1  0
 56 54  1  0
 58 67  1  0
 58 57  1  0
 59 67  1  0
 60 65  1  0
 61 62  1  0
 61 60  1  0
 63 62  1  0
 63 72  1  0
 63 64  1  0
 65 59  1  0
 65 64  1  0
 66 59  2  0
 67 68  1  0
 69 70  2  0
 70 89  1  0
 71 70  1  0
 71 74  1  0
 72 69  1  0
 72 73  1  0
 73 71  2  0
 74 75  1  0
 75 76  2  0
 77 80  1  0
 77 76  1  0
 78 77  2  0
 79 78  1  0
 79 74  2  0
 80 81  1  0
 81 86  2  0
 81 82  1  0
 82 83  2  0
 83 84  1  0
 84 88  1  0
 85 84  2  0
 86 85  1  0
 87 86  1  0
 89 90  1  0
 90 93  1  0
 90 92  1  0
 91 89  2  0
 94 95  1  0
 94 69  1  0
 96 94  1  0
M  ISO  4  11 101  12 101  59 100  67 100
M  END
>  <TORSDO>  (76) 
F 24

>  <SCORE>  (76) 
-12.754

>  <name>  (76) 
75

>  <ligand_id>  (76) 
75

>  <original_smiles>  (76) 
[H]c1c([H])c([H])c2c(c1[H])C([H])([H])C([H])([H])C([H])([H])C2([H])N([H])C(=O)C1([H])N(C(=O)C([H])(N([H])C(=O)C([H])(N([H])C([H])([H])[H])C([H])([H])[H])C(C([H])([H])[H])(C([H])([H])[H])C([H])([H])[H])C([H])([H])c2c([H])c(OC([H])([H])C([H])([H])C([H])([H])c3c([H])c(C([H])([H])[N+]([H])([H])C([H])([H])C([H])([H])N([H])C(=O)N4C([H])([H])C([H])([H])C([H])([H])C([H])(n5nc(-c6c([H])c([H])c(Oc7c([H])c([H])c(F)c([H])c7F)c([H])c6[H])c(C(=O)N([H])[H])c5N([H])[H])C4([H])[H])n(C([H])(C([H])([H])[H])C([H])([H])[H])c3[H])c([H])c([H])c2C1([H])[H]

>  <smiles>  (76) 
[H]c1c([H])c([H])c2c(c1[H])C([H])([H])C([H])([H])C([H])([H])C2([H])N([H])C(=O)C1([H])N(C(=O)C([H])(N([H])C(=O)C([H])(N([H])C([H])([H])[H])C([H])([H])[H])C(C([H])([H])[H])(C([H])([H])[H])C([H])([H])[H])C([H])([H])c2c([H])c(OC([H])([H])C([H])([H])C([H])([H])c3c([H])c(C([H])([H])[N+]([H])([H])C([H])([H])C([H])([H])N([H])C(=O)N4C([H])([H])C([H])([H])C([H])([H])C([H])(n5nc(-c6c([H])c([H])c(Oc7c([H])c([H])c(F)c([H])c7F)c([H])c6[H])c(C(=O)N([H])[H])c5N([H])[H])C4([H])[H])n(C([H])(C([H])([H])[H])C([H])([H])[H])c3[H])c([H])c([H])c2C1([H])[H]

$$$$
76:0:0
     RDKit          3D

 95104  0  0  1  0  0  0  0  0999 V2000
  -31.4880  -22.0750   21.7930 C   0  0  0  0  0  2  0  0  0  0  0  0
  -30.2640  -21.6120   22.5780 C   0  0  0  0  0  2  0  0  0  0  0  0
  -30.8790  -22.6560   20.5170 C   0  0  0  0  0  2  0  0  0  0  0  0
  -29.2800  -21.1330   21.4990 C   0  0  0  0  0  3  0  0  0  0  0  0
  -29.6050  -21.9320   20.2800 N   0  0  1  0  0  4  0  0  0  0  0  0
  -29.8410  -21.2040   19.6180 H   0  0  0  0  0  0  0  0  0  0  0  0
  -28.6710  -17.3700   21.9570 C   0  0  0  0  0  3  0  0  0  0  0  0
  -28.4850  -18.7620   21.9850 C   0  0  0  0  0  3  0  0  0  0  0  0
  -30.5940  -17.7290   20.5530 C   0  0  0  0  0  3  0  0  0  0  0  0
  -29.7560  -16.8200   21.2470 C   0  0  0  0  0  0  0  0  0  0  0  0
  -29.3870  -19.6000   21.3060 C   0  0  0  0  0  0  0  0  0  0  0  0
  -30.4130  -19.0830   20.5770 N   0  0  0  0  0  0  0  0  0  0  0  0
  -30.6350  -14.5110   20.5970 C   0  0  0  0  0  0  0  0  0  0  0  0
  -30.4460  -12.3400   19.4120 C   0  0  0  0  0  2  0  0  0  0  0  0
  -29.5010  -12.5270   18.2030 C   0  0  0  0  0  2  0  0  0  0  0  0
  -28.0220  -12.3740   18.6150 C   0  0  0  0  0  2  0  0  0  0  0  0
  -27.6670  -13.1960   19.8810 C   0  0  0  0  0  3  0  0  0  0  0  0
  -28.7090  -12.9340   20.9920 C   0  0  0  0  0  2  0  0  0  0  0  0
  -30.0390  -13.2920   20.4580 N   0  0  0  0  0  0  0  0  0  0  0  0
  -31.7250  -14.7940   20.0880 O   0  0  0  0  0  0  0  0  0  0  0  0
  -29.8890  -15.3900   21.3000 N   0  0  0  0  0  0  0  0  0  0  0  0
  -29.1290  -14.9250   21.7740 H   0  0  0  0  0  0  0  0  0  0  0  0
  -25.2620  -13.8130   20.5670 C   0  0  0  0  0  0  0  0  0  0  0  0
  -24.1860  -13.0430   20.9170 C   0  0  0  0  0  0  0  0  0  0  0  0
  -24.6390  -11.6890   20.8730 C   0  0  0  0  0  0  0  0  0  0  0  0
  -26.3050  -12.9280   20.3370 N   0  0  0  0  0  0  0  0  0  0  0  0
  -25.9310  -11.6450   20.5750 N   0  0  0  0  0  0  0  0  0  0  0  0
  -23.9050  -10.4290   21.0410 C   0  0  0  0  0  0  0  0  0  0  0  0
  -24.3610   -9.4200   21.9190 C   0  0  0  0  0  3  0  0  0  0  0  0
  -23.6290   -8.2240   22.0760 C   0  0  0  0  0  3  0  0  0  0  0  0
  -22.4270   -8.0280   21.3540 C   0  0  0  0  0  0  0  0  0  0  0  0
  -21.9900   -9.0250   20.4640 C   0  0  0  0  0  3  0  0  0  0  0  0
  -22.7230  -10.2130   20.3050 C   0  0  0  0  0  3  0  0  0  0  0  0
  -21.6640   -6.8870   21.4240 O   0  0  0  0  0  0  0  0  0  0  0  0
  -21.6850   -6.0730   22.5280 C   0  0  0  0  0  0  0  0  0  0  0  0
  -21.4010   -6.5640   23.8210 C   0  0  0  0  0  3  0  0  0  0  0  0
  -21.3660   -5.6790   24.9180 C   0  0  0  0  0  3  0  0  0  0  0  0
  -21.6050   -4.3050   24.7230 C   0  0  0  0  0  0  0  0  0  0  0  0
  -21.8820   -3.8140   23.4350 C   0  0  0  0  0  3  0  0  0  0  0  0
  -21.9190   -4.6960   22.3400 C   0  0  0  0  0  0  0  0  0  0  0  0
  -22.1660   -4.2150   21.0980 F   0  0  0  0  0  0  0  0  0  0  0  0
  -21.5630   -3.4540   25.7740 F   0  0  0  0  0  0  0  0  0  0  0  0
  -22.7880  -13.5240   21.1840 C   0  0  0  0  0  0  0  0  0  0  0  0
  -22.0510  -12.8230   22.0390 N   0  0  0  0  0  0  0  0  0  0  0  0
  -22.3570  -14.5550   20.6690 O   0  0  0  0  0  0  0  0  0  0  0  0
  -22.4110  -11.9890   22.4770 H   0  0  0  0  0  0  0  0  0  0  0  0
  -21.1130  -13.1270   22.2590 H   0  0  0  0  0  0  0  0  0  0  0  0
  -25.4370  -15.1850   20.4090 N   0  0  0  0  0  0  0  0  0  0  0  0
  -24.6690  -15.8410   20.5100 H   0  0  0  0  0  0  0  0  0  0  0  0
  -26.2870  -15.6200   20.0730 H   0  0  0  0  0  0  0  0  0  0  0  0
  -27.4200  -21.8700   19.0740 C   0  0  0  0  0  1  0  0  0  0  0  0
  -28.5230  -22.7790   19.6520 C   0  0  0  0  0  3  0  0  0  0  0  0
  -27.8830  -23.9210   20.5450 C   0  0  0  0  0  2  0  0  0  0  0  0
  -28.5550  -25.3440   20.6210 C   0  0  0  0  0  2  0  0  0  0  0  0
  -28.4260  -26.6820   20.0470 O   0  0  0  0  0  0  0  0  0  0  0  0
  -24.6170  -31.8650   23.2070 C   0  0  0  0  0  0  0  0  0  0  0  0
  -27.2410  -27.4060   20.1080 C   0  0  0  0  0  0  0  0  0  0  0  0
  -23.4070  -30.4860   21.5480 C   0  0  0  0  0  3  0  0  0  0  0  0
  -24.8540  -28.9390   20.1230 C   0  0  0  0  0  0  0  0  0  0  0  0
  -25.9380  -30.8210   21.3640 C   0  0  0  0  0  2  0  0  0  0  0  0
  -26.0160  -29.4510   20.7150 C   0  0  0  0  0  0  0  0  0  0  0  0
  -27.2130  -28.6950   20.6970 C   0  0  0  0  0  3  0  0  0  0  0  0
  -26.0600  -26.9070   19.5190 C   0  0  0  0  0  3  0  0  0  0  0  0
  -24.8720  -27.6670   19.5220 C   0  0  0  0  0  3  0  0  0  0  0  0
  -23.6180  -29.8100   20.1670 C   0  0  0  0  0  2  0  0  0  0  0  0
  -24.6720  -31.0730   22.0980 N   0  0  0  0  0  0  0  0  0  0  0  0
  -23.5360  -32.1420   23.7450 O   0  0  0  0  0  0  0  0  0  0  0  0
  -22.7420  -29.4650   22.4990 C   0  0  0  0  0  0  0  0  0  0  0  0
  -21.4140  -29.3030   22.3720 N   0  0  0  0  0  0  0  0  0  0  0  0
  -23.4180  -28.8200   23.3050 O   0  0  0  0  0  0  0  0  0  0  0  0
  -20.9310  -29.8750   21.6930 H   0  0  0  0  0  0  0  0  0  0  0  0
  -18.0270  -28.1380   22.8500 C   0  0  0  0  0  0  0  0  0  0  0  0
  -20.5860  -28.3670   23.1310 C   0  0  0  0  0  3  0  0  0  0  0  0
  -20.6760  -26.9400   22.5410 C   0  0  0  0  0  2  0  0  0  0  0  0
  -19.5740  -26.6380   21.5210 C   0  0  0  0  0  2  0  0  0  0  0  0
  -18.1920  -26.7930   22.1620 C   0  0  0  0  0  2  0  0  0  0  0  0
  -19.1520  -28.8840   23.2900 C   0  0  0  0  0  0  0  0  0  0  0  0
  -18.9450  -30.1450   23.8910 C   0  0  0  0  0  3  0  0  0  0  0  0
  -17.6450  -30.6590   24.0560 C   0  0  0  0  0  3  0  0  0  0  0  0
  -16.5340  -29.9090   23.6330 C   0  0  0  0  0  3  0  0  0  0  0  0
  -16.7260  -28.6500   23.0360 C   0  0  0  0  0  3  0  0  0  0  0  0
  -25.9050  -32.4810   23.8380 C   0  0  0  0  0  3  0  0  0  0  0  0
  -26.4480  -31.6590   25.0710 C   0  0  1  0  0  0  0  0  0  0  0  0
  -25.3740  -31.3680   26.1450 C   0  0  0  0  0  1  0  0  0  0  0  0
  -27.0330  -30.3030   24.6100 C   0  0  0  0  0  1  0  0  0  0  0  0
  -27.6050  -32.4310   25.7480 C   0  0  0  0  0  1  0  0  0  0  0  0
  -25.5900  -33.8610   24.2310 N   0  0  0  0  0  0  0  0  0  0  0  0
  -25.9040  -34.9470   23.5120 C   0  0  0  0  0  0  0  0  0  0  0  0
  -26.5600  -34.8920   22.4690 O   0  0  0  0  0  0  0  0  0  0  0  0
  -25.0060  -33.9770   25.0470 H   0  0  0  0  0  0  0  0  0  0  0  0
  -24.1490  -36.7300   23.2640 C   0  0  0  0  0  1  0  0  0  0  0  0
  -25.4110  -36.3100   24.0340 C   0  0  0  0  0  3  0  0  0  0  0  0
  -27.5580  -37.1810   24.8470 C   0  0  0  0  0  1  0  0  0  0  0  0
  -26.4300  -37.3790   23.9410 N   0  0  0  0  0  0  0  0  0  0  0  0
  -26.0180  -38.2870   24.1410 H   0  0  0  0  0  0  0  0  0  0  0  0
  1  2  1  0
  3  1  1  0
  4 11  1  0
  4  2  1  0
  5  3  1  0
  5  4  1  0
  5  6  1  6
  7  8  1  0
  9 12  2  0
  9 10  1  0
 10 21  1  0
 10  7  2  0
 11  8  2  0
 12 11  1  0
 13 21  1  0
 14 19  1  0
 15 16  1  0
 15 14  1  0
 17 16  1  0
 17 26  1  0
 17 18  1  0
 19 13  1  0
 19 18  1  0
 20 13  2  0
 21 22  1  0
 23 24  2  0
 24 43  1  0
 25 24  1  0
 25 28  1  0
 26 23  1  0
 26 27  1  0
 27 25  2  0
 28 29  1  0
 29 30  2  0
 31 34  1  0
 31 30  1  0
 32 31  2  0
 33 32  1  0
 33 28  2  0
 34 35  1  0
 35 36  1  0
 36 37  2  0
 38 37  1  0
 38 42  1  0
 39 38  2  0
 40 35  2  0
 40 39  1  0
 41 40  1  0
 43 44  1  0
 44 47  1  0
 44 46  1  0
 45 43  2  0
 48 49  1  0
 48 23  1  0
 50 48  1  0
 52 51  1  0
 52  5  1  0
 52 53  1  0
 53 54  1  0
 55 57  1  0
 55 54  1  0
 56 67  2  0
 57 62  1  0
 58 66  1  0
 58 68  1  0
 59 65  1  0
 59 61  1  0
 60 66  1  0
 61 60  1  0
 62 61  2  0
 63 64  1  0
 63 57  2  0
 64 59  2  0
 65 58  1  0
 66 56  1  0
 68 70  2  0
 69 68  1  0
 71 69  1  0
 72 81  2  0
 72 77  1  0
 73 69  1  0
 73 77  1  0
 74 73  1  0
 75 76  1  0
 75 74  1  0
 76 72  1  0
 77 78  2  0
 78 79  1  0
 80 79  2  0
 81 80  1  0
 82 56  1  0
 82 87  1  0
 82 83  1  0
 83 86  1  1
 83 84  1  0
 85 83  1  0
 87 90  1  0
 88 92  1  0
 88 87  1  0
 89 88  2  0
 92 91  1  0
 94 92  1  0
 94 95  1  0
 94 93  1  0
M  ISO  4  13 100  21 100  54 101  55 101
M  END
>  <TORSDO>  (77) 
F 20

>  <SCORE>  (77) 
-9.220

>  <name>  (77) 
76

>  <ligand_id>  (77) 
76

>  <original_smiles>  (77) 
[H]c1nc(C2([H])C([H])([H])C([H])([H])C([H])([H])[N+]2([H])C([H])(C([H])([H])[H])C([H])([H])C([H])([H])Oc2c([H])c([H])c3c(c2[H])C([H])([H])N(C(=O)C([H])(N([H])C(=O)C([H])(N([H])C([H])([H])[H])C([H])([H])[H])C(C([H])([H])[H])(C([H])([H])[H])C([H])([H])[H])C([H])(C(=O)N([H])C2([H])c4c([H])c([H])c([H])c([H])c4C([H])([H])C([H])([H])C2([H])[H])C3([H])[H])c([H])c([H])c1N([H])C(=O)N1C([H])([H])C([H])([H])C([H])([H])C([H])(n2nc(-c3c([H])c([H])c(Oc4c([H])c([H])c(F)c([H])c4F)c([H])c3[H])c(C(=O)N([H])[H])c2N([H])[H])C1([H])[H]

>  <smiles>  (77) 
[H]c1nc(C2([H])C([H])([H])C([H])([H])C([H])([H])[N+]2([H])C([H])(C([H])([H])[H])C([H])([H])C([H])([H])Oc2c([H])c([H])c3c(c2[H])C([H])([H])N(C(=O)C([H])(N([H])C(=O)C([H])(N([H])C([H])([H])[H])C([H])([H])[H])C(C([H])([H])[H])(C([H])([H])[H])C([H])([H])[H])C([H])(C(=O)N([H])C2([H])c4c([H])c([H])c([H])c([H])c4C([H])([H])C([H])([H])C2([H])[H])C3([H])[H])c([H])c([H])c1N([H])C(=O)N1C([H])([H])C([H])([H])C([H])([H])C([H])(n2nc(-c3c([H])c([H])c(Oc4c([H])c([H])c(F)c([H])c4F)c([H])c3[H])c(C(=O)N([H])[H])c2N([H])[H])C1([H])[H]

$$$$
77:0:0
     RDKit          3D

 96105  0  0  1  0  0  0  0  0999 V2000
  -31.7070  -17.5710   19.6670 C   0  0  0  0  0  2  0  0  0  0  0  0
  -31.9110  -19.0150   19.3000 C   0  0  0  0  0  2  0  0  0  0  0  0
  -30.3880  -17.5000   20.4600 C   0  0  0  0  0  3  0  0  0  0  0  0
  -29.5790  -18.8470   19.8820 C   0  0  0  0  0  3  0  0  0  0  0  0
  -30.5670  -19.5430   19.0070 N   0  0  2  0  0  4  0  0  0  0  0  0
  -30.5710  -20.5070   19.3160 H   0  0  0  0  0  0  0  0  0  0  0  0
  -30.5920  -14.8100   20.4050 C   0  0  0  0  0  0  0  0  0  0  0  0
  -30.3870  -12.5150   19.4320 C   0  0  0  0  0  2  0  0  0  0  0  0
  -29.4780  -12.5910   18.1870 C   0  0  0  0  0  2  0  0  0  0  0  0
  -27.9930  -12.4480   18.5760 C   0  0  0  0  0  2  0  0  0  0  0  0
  -27.6050  -13.3130   19.8060 C   0  0  0  0  0  3  0  0  0  0  0  0
  -28.6460  -13.2450   20.9420 C   0  0  0  0  0  2  0  0  0  0  0  0
  -29.9400  -13.5930   20.3510 N   0  0  0  0  0  0  0  0  0  0  0  0
  -31.8000  -14.8080   20.1690 O   0  0  0  0  0  0  0  0  0  0  0  0
  -29.8730  -16.0190   20.5020 N   0  0  0  0  0  0  0  0  0  0  0  0
  -28.8880  -15.9070   20.6930 H   0  0  0  0  0  0  0  0  0  0  0  0
  -25.2110  -13.8990   20.4960 C   0  0  0  0  0  0  0  0  0  0  0  0
  -24.1390  -13.1270   20.8530 C   0  0  0  0  0  0  0  0  0  0  0  0
  -24.6030  -11.7760   20.8410 C   0  0  0  0  0  0  0  0  0  0  0  0
  -26.2590  -13.0170   20.2850 N   0  0  0  0  0  0  0  0  0  0  0  0
  -25.8990  -11.7350   20.5530 N   0  0  0  0  0  0  0  0  0  0  0  0
  -23.8710  -10.5140   21.0340 C   0  0  0  0  0  0  0  0  0  0  0  0
  -24.2910   -9.5500   21.9750 C   0  0  0  0  0  3  0  0  0  0  0  0
  -23.5560   -8.3600   22.1590 C   0  0  0  0  0  3  0  0  0  0  0  0
  -22.3870   -8.1230   21.3990 C   0  0  0  0  0  0  0  0  0  0  0  0
  -21.9870   -9.0760   20.4440 C   0  0  0  0  0  3  0  0  0  0  0  0
  -22.7220  -10.2580   20.2590 C   0  0  0  0  0  3  0  0  0  0  0  0
  -21.6280   -6.9810   21.4820 O   0  0  0  0  0  0  0  0  0  0  0  0
  -21.5780   -6.2350   22.6330 C   0  0  0  0  0  0  0  0  0  0  0  0
  -21.1680   -6.7940   23.8620 C   0  0  0  0  0  3  0  0  0  0  0  0
  -21.0590   -5.9790   25.0070 C   0  0  0  0  0  3  0  0  0  0  0  0
  -21.3510   -4.6040   24.9210 C   0  0  0  0  0  0  0  0  0  0  0  0
  -21.7540   -4.0440   23.6960 C   0  0  0  0  0  3  0  0  0  0  0  0
  -21.8640   -4.8570   22.5550 C   0  0  0  0  0  0  0  0  0  0  0  0
  -22.2290   -4.3070   21.3730 F   0  0  0  0  0  0  0  0  0  0  0  0
  -21.2420   -3.8200   26.0190 F   0  0  0  0  0  0  0  0  0  0  0  0
  -22.7380  -13.6070   21.0950 C   0  0  0  0  0  0  0  0  0  0  0  0
  -21.9960  -12.9180   21.9570 N   0  0  0  0  0  0  0  0  0  0  0  0
  -22.3070  -14.6230   20.5550 O   0  0  0  0  0  0  0  0  0  0  0  0
  -22.3660  -12.1040   22.4260 H   0  0  0  0  0  0  0  0  0  0  0  0
  -21.0490  -13.2120   22.1510 H   0  0  0  0  0  0  0  0  0  0  0  0
  -25.3660  -15.2690   20.3060 N   0  0  0  0  0  0  0  0  0  0  0  0
  -24.5780  -15.9040   20.3790 H   0  0  0  0  0  0  0  0  0  0  0  0
  -26.1940  -15.7200   19.9370 H   0  0  0  0  0  0  0  0  0  0  0  0
  -29.0820  -20.0800   20.8420 C   0  0  0  0  0  2  0  0  0  0  0  0
  -27.7710  -22.4680   21.2800 C   0  0  0  0  0  2  0  0  0  0  0  0
  -29.6950  -22.5540   19.7350 C   0  0  0  0  0  2  0  0  0  0  0  0
  -27.2400  -23.8930   20.7710 C   0  0  0  0  0  2  0  0  0  0  0  0
  -29.5870  -24.1270   20.0070 C   0  0  0  0  0  2  0  0  0  0  0  0
  -28.5980  -21.5670   20.2850 C   0  0  0  0  0  3  0  0  0  0  0  0
  -28.1920  -24.8450   19.9400 C   0  0  0  0  0  3  0  0  0  0  0  0
  -28.2690  -26.3330   20.2620 O   0  0  0  0  0  0  0  0  0  0  0  0
  -24.6290  -31.8850   23.2390 C   0  0  0  0  0  0  0  0  0  0  0  0
  -27.1800  -27.2410   20.1840 C   0  0  0  0  0  0  0  0  0  0  0  0
  -23.4110  -30.4940   21.6070 C   0  0  0  0  0  3  0  0  0  0  0  0
  -24.8430  -28.9330   20.1640 C   0  0  0  0  0  0  0  0  0  0  0  0
  -25.9560  -30.7820   21.4100 C   0  0  0  0  0  2  0  0  0  0  0  0
  -26.0230  -29.3960   20.7610 C   0  0  0  0  0  0  0  0  0  0  0  0
  -27.1910  -28.5630   20.7590 C   0  0  0  0  0  3  0  0  0  0  0  0
  -25.9800  -26.8550   19.5510 C   0  0  0  0  0  3  0  0  0  0  0  0
  -24.8300  -27.6730   19.5470 C   0  0  0  0  0  3  0  0  0  0  0  0
  -23.6170  -29.8250   20.2200 C   0  0  0  0  0  2  0  0  0  0  0  0
  -24.6850  -31.0740   22.1410 N   0  0  0  0  0  0  0  0  0  0  0  0
  -23.5490  -32.1670   23.7790 O   0  0  0  0  0  0  0  0  0  0  0  0
  -22.7520  -29.4760   22.5690 C   0  0  0  0  0  0  0  0  0  0  0  0
  -21.4240  -29.3010   22.4520 N   0  0  0  0  0  0  0  0  0  0  0  0
  -23.4330  -28.8500   23.3840 O   0  0  0  0  0  0  0  0  0  0  0  0
  -20.9290  -29.8680   21.7760 H   0  0  0  0  0  0  0  0  0  0  0  0
  -18.0520  -28.0890   22.9630 C   0  0  0  0  0  0  0  0  0  0  0  0
  -20.6100  -28.3620   23.2260 C   0  0  0  0  0  3  0  0  0  0  0  0
  -20.7140  -26.9260   22.6590 C   0  0  0  0  0  2  0  0  0  0  0  0
  -19.6140  -26.5950   21.6450 C   0  0  0  0  0  2  0  0  0  0  0  0
  -18.2320  -26.7370   22.2900 C   0  0  0  0  0  2  0  0  0  0  0  0
  -19.1680  -28.8580   23.3860 C   0  0  0  0  0  0  0  0  0  0  0  0
  -18.9450  -30.1210   23.9760 C   0  0  0  0  0  3  0  0  0  0  0  0
  -17.6380  -30.6170   24.1430 C   0  0  0  0  0  3  0  0  0  0  0  0
  -16.5360  -29.8470   23.7330 C   0  0  0  0  0  3  0  0  0  0  0  0
  -16.7440  -28.5830   23.1510 C   0  0  0  0  0  3  0  0  0  0  0  0
  -25.9150  -32.5170   23.8550 C   0  0  0  0  0  3  0  0  0  0  0  0
  -26.4390  -31.7450   25.1290 C   0  0  1  0  0  0  0  0  0  0  0  0
  -25.3540  -31.5020   26.2040 C   0  0  0  0  0  1  0  0  0  0  0  0
  -27.0190  -30.3670   24.7330 C   0  0  0  0  0  1  0  0  0  0  0  0
  -27.5950  -32.5350   25.7850 C   0  0  0  0  0  1  0  0  0  0  0  0
  -25.6080  -33.9160   24.1910 N   0  0  0  0  0  0  0  0  0  0  0  0
  -25.9330  -34.9710   23.4310 C   0  0  0  0  0  0  0  0  0  0  0  0
  -26.5900  -34.8710   22.3920 O   0  0  0  0  0  0  0  0  0  0  0  0
  -25.0280  -34.0710   25.0020 H   0  0  0  0  0  0  0  0  0  0  0  0
  -24.1970  -36.7640   23.1060 C   0  0  0  0  0  1  0  0  0  0  0  0
  -25.4520  -36.3590   23.8970 C   0  0  0  0  0  3  0  0  0  0  0  0
  -27.5970  -37.2500   24.6920 C   0  0  0  0  0  1  0  0  0  0  0  0
  -26.4790  -37.4150   23.7660 N   0  0  0  0  0  0  0  0  0  0  0  0
  -26.0730  -38.3340   23.9220 H   0  0  0  0  0  0  0  0  0  0  0  0
  -30.1690  -19.6100   17.5690 C   0  0  0  0  0  2  0  0  0  0  0  0
  -30.5830  -20.3000   15.1780 C   0  0  0  0  0  1  0  0  0  0  0  0
  -31.9770  -21.4350   16.9660 C   0  0  0  0  0  1  0  0  0  0  0  0
  -31.2320  -20.1360   16.5640 C   0  0  0  0  0  3  0  0  0  0  0  0
  1  3  1  0
  2  1  1  0
  3 15  1  0
  4  3  1  0
  4 45  1  0
  5  2  1  0
  5  6  1  1
  5  4  1  0
  7 15  1  0
  8 13  1  0
  9 10  1  0
  9  8  1  0
 11 10  1  0
 11 20  1  0
 11 12  1  0
 13  7  1  0
 13 12  1  0
 14  7  2  0
 15 16  1  0
 17 18  2  0
 18 37  1  0
 19 18  1  0
 19 22  1  0
 20 17  1  0
 20 21  1  0
 21 19  2  0
 22 23  1  0
 23 24  2  0
 25 28  1  0
 25 24  1  0
 26 25  2  0
 27 26  1  0
 27 22  2  0
 28 29  1  0
 29 30  1  0
 30 31  2  0
 32 31  1  0
 32 36  1  0
 33 32  2  0
 34 29  2  0
 34 33  1  0
 35 34  1  0
 37 38  1  0
 38 41  1  0
 38 40  1  0
 39 37  2  0
 42 43  1  0
 42 17  1  0
 44 42  1  0
 47 49  1  0
 47 50  1  0
 48 46  1  0
 50 45  1  0
 50 46  1  0
 51 49  1  0
 51 52  1  0
 51 48  1  0
 53 64  2  0
 54 52  1  0
 54 59  1  0
 55 63  1  0
 55 65  1  0
 56 62  1  0
 56 58  1  0
 57 63  1  0
 58 57  1  0
 59 58  2  0
 60 54  2  0
 61 60  1  0
 61 56  2  0
 62 55  1  0
 63 53  1  0
 65 67  2  0
 66 65  1  0
 68 66  1  0
 69 78  2  0
 69 74  1  0
 70 66  1  0
 70 74  1  0
 71 70  1  0
 72 73  1  0
 72 71  1  0
 73 69  1  0
 74 75  2  0
 75 76  1  0
 77 76  2  0
 78 77  1  0
 79 53  1  0
 79 84  1  0
 79 80  1  0
 80 83  1  1
 80 81  1  0
 82 80  1  0
 84 87  1  0
 85 89  1  0
 85 84  1  0
 86 85  2  0
 89 88  1  0
 91 89  1  0
 91 92  1  0
 91 90  1  0
 93  5  1  0
 94 96  1  0
 96 95  1  0
 96 93  1  0
M  ISO  4   7 100  15 100  51 101  52 101
M  END
>  <TORSDO>  (78) 
F 20

>  <SCORE>  (78) 
-14.067

>  <name>  (78) 
77

>  <ligand_id>  (78) 
77

>  <original_smiles>  (78) 
[H]c1c([H])c([H])c2c(c1[H])C([H])([H])C([H])([H])C([H])([H])C2([H])N([H])C(=O)C1([H])N(C(=O)C([H])(N([H])C(=O)C([H])(N([H])C([H])([H])[H])C([H])([H])[H])C(C([H])([H])[H])(C([H])([H])[H])C([H])([H])[H])C([H])([H])c2c([H])c(OC3([H])C([H])([H])C([H])([H])C([H])(C([H])([H])C4([H])C([H])(N([H])C(=O)N5C([H])([H])C([H])([H])C([H])([H])C([H])(n6nc(-c7c([H])c([H])c(Oc8c([H])c([H])c(F)c([H])c8F)c([H])c7[H])c(C(=O)N([H])[H])c6N([H])[H])C5([H])[H])C([H])([H])C([H])([H])[N+]4([H])C([H])([H])C([H])(C([H])([H])[H])C([H])([H])[H])C([H])([H])C3([H])[H])c([H])c([H])c2C1([H])[H]

>  <smiles>  (78) 
[H]c1c([H])c([H])c2c(c1[H])C([H])([H])C([H])([H])C([H])([H])C2([H])N([H])C(=O)C1([H])N(C(=O)C([H])(N([H])C(=O)C([H])(N([H])C([H])([H])[H])C([H])([H])[H])C(C([H])([H])[H])(C([H])([H])[H])C([H])([H])[H])C([H])([H])c2c([H])c(OC3([H])C([H])([H])C([H])([H])C([H])(C([H])([H])C4([H])C([H])(N([H])C(=O)N5C([H])([H])C([H])([H])C([H])([H])C([H])(n6nc(-c7c([H])c([H])c(Oc8c([H])c([H])c(F)c([H])c8F)c([H])c7[H])c(C(=O)N([H])[H])c6N([H])[H])C5([H])[H])C([H])([H])C([H])([H])[N+]4([H])C([H])([H])C([H])(C([H])([H])[H])C([H])([H])[H])C([H])([H])C3([H])[H])c([H])c([H])c2C1([H])[H]

$$$$
78:0:0
     RDKit          3D

 93102  0  0  1  0  0  0  0  0999 V2000
  -30.0250  -20.9250   21.2350 C   0  0  0  0  0  3  0  0  0  0  0  0
  -30.4570  -19.6210   21.5830 C   0  0  0  0  0  3  0  0  0  0  0  0
  -29.3570  -21.1430   20.0100 C   0  0  0  0  0  0  0  0  0  0  0  0
  -30.2270  -18.5220   20.7240 C   0  0  0  0  0  0  0  0  0  0  0  0
  -29.1460  -19.9670   19.2130 C   0  0  0  0  0  0  0  0  0  0  0  0
  -29.5740  -18.7140   19.5580 N   0  0  0  0  0  0  0  0  0  0  0  0
  -28.8270  -22.5620   19.5760 C   0  0  0  0  0  2  0  0  0  0  0  0
  -29.2700  -23.9330   20.2580 C   0  0  0  0  0  2  0  0  0  0  0  0
  -28.3660  -25.1590   19.8010 C   0  0  0  0  0  2  0  0  0  0  0  0
  -28.5660  -26.5680   20.2300 O   0  0  0  0  0  0  0  0  0  0  0  0
  -24.6530  -31.8540   23.2330 C   0  0  0  0  0  0  0  0  0  0  0  0
  -27.4470  -27.4180   20.1490 C   0  0  0  0  0  0  0  0  0  0  0  0
  -23.5270  -30.4640   21.5340 C   0  0  0  0  0  3  0  0  0  0  0  0
  -25.0500  -28.9860   20.1150 C   0  0  0  0  0  0  0  0  0  0  0  0
  -26.0650  -30.8410   21.4290 C   0  0  0  0  0  2  0  0  0  0  0  0
  -26.1930  -29.4790   20.7580 C   0  0  0  0  0  0  0  0  0  0  0  0
  -27.3940  -28.7060   20.7710 C   0  0  0  0  0  3  0  0  0  0  0  0
  -26.2800  -26.9970   19.4630 C   0  0  0  0  0  3  0  0  0  0  0  0
  -25.0970  -27.7510   19.4590 C   0  0  0  0  0  3  0  0  0  0  0  0
  -23.7920  -29.8280   20.1470 C   0  0  0  0  0  2  0  0  0  0  0  0
  -24.7660  -31.0690   22.1230 N   0  0  0  0  0  0  0  0  0  0  0  0
  -23.5490  -32.0960   23.7430 O   0  0  0  0  0  0  0  0  0  0  0  0
  -22.8630  -29.4090   22.4540 C   0  0  0  0  0  0  0  0  0  0  0  0
  -21.5420  -29.2180   22.2980 N   0  0  0  0  0  0  0  0  0  0  0  0
  -23.5370  -28.7690   23.2660 O   0  0  0  0  0  0  0  0  0  0  0  0
  -21.0570  -29.7890   21.6210 H   0  0  0  0  0  0  0  0  0  0  0  0
  -18.1690  -27.9850   22.7290 C   0  0  0  0  0  0  0  0  0  0  0  0
  -20.7230  -28.2490   23.0300 C   0  0  0  0  0  3  0  0  0  0  0  0
  -20.8380  -26.8380   22.4080 C   0  0  0  0  0  2  0  0  0  0  0  0
  -19.7480  -26.5420   21.3750 C   0  0  0  0  0  2  0  0  0  0  0  0
  -18.3600  -26.6590   22.0100 C   0  0  0  0  0  2  0  0  0  0  0  0
  -19.2790  -28.7380   23.1940 C   0  0  0  0  0  0  0  0  0  0  0  0
  -19.0480  -29.9800   23.8240 C   0  0  0  0  0  3  0  0  0  0  0  0
  -17.7390  -30.4680   23.9960 C   0  0  0  0  0  3  0  0  0  0  0  0
  -16.6420  -29.7110   23.5460 C   0  0  0  0  0  3  0  0  0  0  0  0
  -16.8590  -28.4710   22.9180 C   0  0  0  0  0  3  0  0  0  0  0  0
  -25.9020  -32.5030   23.9030 C   0  0  0  0  0  3  0  0  0  0  0  0
  -25.5670  -33.9020   24.2060 N   0  0  0  0  0  0  0  0  0  0  0  0
  -25.9090  -34.9500   23.4450 C   0  0  0  0  0  0  0  0  0  0  0  0
  -26.6110  -34.8430   22.4360 O   0  0  0  0  0  0  0  0  0  0  0  0
  -24.9450  -34.0560   24.9860 H   0  0  0  0  0  0  0  0  0  0  0  0
  -24.1640  -36.7140   23.0280 C   0  0  0  0  0  1  0  0  0  0  0  0
  -25.3920  -36.3370   23.8730 C   0  0  0  0  0  3  0  0  0  0  0  0
  -27.4930  -37.2660   24.7400 C   0  0  0  0  0  1  0  0  0  0  0  0
  -26.4110  -37.4040   23.7690 N   0  0  0  0  0  0  0  0  0  0  0  0
  -25.9880  -38.3200   23.8930 H   0  0  0  0  0  0  0  0  0  0  0  0
  -26.3700  -31.7480   25.2060 C   0  0  1  0  0  0  0  0  0  0  0  0
  -25.2340  -31.5070   26.2280 C   0  0  0  0  0  1  0  0  0  0  0  0
  -26.9810  -30.3710   24.8520 C   0  0  0  0  0  1  0  0  0  0  0  0
  -27.4820  -32.5580   25.9110 C   0  0  0  0  0  1  0  0  0  0  0  0
  -28.4110  -19.9970   17.8770 C   0  0  0  0  0  2  0  0  0  0  0  0
  -25.8700  -20.6930   18.1480 C   0  0  0  0  0  2  0  0  0  0  0  0
  -25.9900  -19.9060   16.8680 C   0  0  0  0  0  2  0  0  0  0  0  0
  -26.9410  -19.6340   18.0130 C   0  0  0  0  0  3  0  0  0  0  0  0
  -30.8590  -17.1330   21.0500 C   0  0  0  0  0  2  0  0  0  0  0  0
  -30.7850  -14.7260   20.2990 C   0  0  0  0  0  0  0  0  0  0  0  0
  -30.4320  -12.5590   19.1440 C   0  0  0  0  0  2  0  0  0  0  0  0
  -29.4720  -12.7620   17.9560 C   0  0  0  0  0  2  0  0  0  0  0  0
  -28.0070  -12.6090   18.4120 C   0  0  0  0  0  2  0  0  0  0  0  0
  -27.6930  -13.4230   19.6980 C   0  0  0  0  0  3  0  0  0  0  0  0
  -28.7810  -13.2380   20.7810 C   0  0  0  0  0  2  0  0  0  0  0  0
  -30.0760  -13.5610   20.1690 N   0  0  0  0  0  0  0  0  0  0  0  0
  -31.9370  -14.8110   19.8690 O   0  0  0  0  0  0  0  0  0  0  0  0
  -30.1570  -15.8370   20.7770 N   0  0  0  0  0  0  0  0  0  0  0  0
  -29.1920  -15.7670   21.0630 H   0  0  0  0  0  0  0  0  0  0  0  0
  -25.3200  -14.0000   20.4840 C   0  0  0  0  0  0  0  0  0  0  0  0
  -24.2600  -13.2190   20.8570 C   0  0  0  0  0  0  0  0  0  0  0  0
  -24.7190  -11.8680   20.7830 C   0  0  0  0  0  0  0  0  0  0  0  0
  -26.3580  -13.1260   20.2080 N   0  0  0  0  0  0  0  0  0  0  0  0
  -26.0040  -11.8360   20.4480 N   0  0  0  0  0  0  0  0  0  0  0  0
  -23.9940  -10.6010   20.9570 C   0  0  0  0  0  0  0  0  0  0  0  0
  -24.4380   -9.6140   21.8630 C   0  0  0  0  0  3  0  0  0  0  0  0
  -23.7130   -8.4140   22.0270 C   0  0  0  0  0  3  0  0  0  0  0  0
  -22.5290   -8.1930   21.2850 C   0  0  0  0  0  0  0  0  0  0  0  0
  -22.1040   -9.1690   20.3650 C   0  0  0  0  0  3  0  0  0  0  0  0
  -22.8300  -10.3600   20.1990 C   0  0  0  0  0  3  0  0  0  0  0  0
  -21.7720   -7.0480   21.3600 O   0  0  0  0  0  0  0  0  0  0  0  0
  -21.7310   -6.2870   22.5000 C   0  0  0  0  0  0  0  0  0  0  0  0
  -21.3110   -6.8200   23.7380 C   0  0  0  0  0  3  0  0  0  0  0  0
  -21.2170   -5.9840   24.8690 C   0  0  0  0  0  3  0  0  0  0  0  0
  -21.5330   -4.6170   24.7620 C   0  0  0  0  0  0  0  0  0  0  0  0
  -21.9450   -4.0840   23.5290 C   0  0  0  0  0  3  0  0  0  0  0  0
  -22.0400   -4.9150   22.4000 C   0  0  0  0  0  0  0  0  0  0  0  0
  -22.4180   -4.3920   21.2090 F   0  0  0  0  0  0  0  0  0  0  0  0
  -21.4360   -3.8120   25.8460 F   0  0  0  0  0  0  0  0  0  0  0  0
  -22.8700  -13.6910   21.1710 C   0  0  0  0  0  0  0  0  0  0  0  0
  -22.1630  -12.9800   22.0420 N   0  0  0  0  0  0  0  0  0  0  0  0
  -22.4200  -14.7250   20.6760 O   0  0  0  0  0  0  0  0  0  0  0  0
  -22.5400  -12.1430   22.4620 H   0  0  0  0  0  0  0  0  0  0  0  0
  -21.2300  -13.2750   22.2920 H   0  0  0  0  0  0  0  0  0  0  0  0
  -25.4860  -15.3730   20.3350 N   0  0  0  0  0  0  0  0  0  0  0  0
  -24.7290  -16.0330   20.4750 H   0  0  0  0  0  0  0  0  0  0  0  0
  -26.3320  -15.8120   19.9970 H   0  0  0  0  0  0  0  0  0  0  0  0
  1  2  1  0
  3  1  2  0
  4 55  1  0
  4  2  2  0
  5  6  2  0
  5  3  1  0
  6  4  1  0
  7  3  1  0
  7  8  1  0
  9 10  1  0
  9  8  1  0
 11 22  2  0
 12 10  1  0
 12 17  1  0
 13 21  1  0
 13 23  1  0
 14 20  1  0
 14 16  1  0
 15 21  1  0
 16 17  2  0
 16 15  1  0
 18 12  2  0
 19 18  1  0
 19 14  2  0
 20 13  1  0
 21 11  1  0
 23 25  2  0
 24 23  1  0
 26 24  1  0
 27 36  2  0
 27 32  1  0
 28 24  1  0
 28 32  1  0
 29 28  1  0
 30 31  1  0
 30 29  1  0
 31 27  1  0
 32 33  2  0
 33 34  1  0
 35 34  2  0
 36 35  1  0
 37 11  1  0
 37 38  1  0
 37 47  1  0
 38 41  1  0
 39 43  1  0
 39 38  1  0
 40 39  2  0
 43 42  1  0
 45 43  1  0
 45 46  1  0
 45 44  1  0
 47 50  1  1
 47 48  1  0
 49 47  1  0
 51 54  1  0
 51  5  1  0
 53 54  1  0
 53 52  1  0
 54 52  1  0
 56 64  1  0
 57 62  1  0
 58 59  1  0
 58 57  1  0
 60 59  1  0
 60 69  1  0
 60 61  1  0
 62 56  1  0
 62 61  1  0
 63 56  2  0
 64 55  1  0
 64 65  1  0
 66 67  2  0
 67 86  1  0
 68 67  1  0
 68 71  1  0
 69 70  1  0
 69 66  1  0
 70 68  2  0
 71 72  1  0
 72 73  2  0
 74 77  1  0
 74 73  1  0
 75 74  2  0
 76 75  1  0
 76 71  2  0
 77 78  1  0
 78 79  1  0
 79 80  2  0
 81 80  1  0
 81 85  1  0
 82 81  2  0
 83 78  2  0
 83 82  1  0
 84 83  1  0
 86 87  1  0
 87 90  1  0
 87 89  1  0
 88 86  2  0
 91 92  1  0
 91 66  1  0
 93 91  1  0
M  ISO  4   9 101  10 101  56 100  64 100
M  END
>  <TORSDO>  (79) 
F 22

>  <SCORE>  (79) 
-12.976

>  <name>  (79) 
78

>  <ligand_id>  (79) 
78

>  <original_smiles>  (79) 
[H]c1c(C([H])([H])N([H])C(=O)N2C([H])([H])C([H])([H])C([H])([H])C([H])(n3nc(-c4c([H])c([H])c(Oc5c([H])c([H])c(F)c([H])c5F)c([H])c4[H])c(C(=O)N([H])[H])c3N([H])[H])C2([H])[H])nc(C([H])([H])C2([H])C([H])([H])C2([H])[H])c(C([H])([H])C([H])([H])C([H])([H])Oc2c([H])c([H])c3c(c2[H])C([H])([H])N(C(=O)C([H])(N([H])C(=O)C([H])(N([H])C([H])([H])[H])C([H])([H])[H])C(C([H])([H])[H])(C([H])([H])[H])C([H])([H])[H])C([H])(C(=O)N([H])C2([H])c4c([H])c([H])c([H])c([H])c4C([H])([H])C([H])([H])C2([H])[H])C3([H])[H])c1[H]

>  <smiles>  (79) 
[H]c1c(C([H])([H])N([H])C(=O)N2C([H])([H])C([H])([H])C([H])([H])C([H])(n3nc(-c4c([H])c([H])c(Oc5c([H])c([H])c(F)c([H])c5F)c([H])c4[H])c(C(=O)N([H])[H])c3N([H])[H])C2([H])[H])nc(C([H])([H])C2([H])C([H])([H])C2([H])[H])c(C([H])([H])C([H])([H])C([H])([H])Oc2c([H])c([H])c3c(c2[H])C([H])([H])N(C(=O)C([H])(N([H])C(=O)C([H])(N([H])C([H])([H])[H])C([H])([H])[H])C(C([H])([H])[H])(C([H])([H])[H])C([H])([H])[H])C([H])(C(=O)N([H])C2([H])c4c([H])c([H])c([H])c([H])c4C([H])([H])C([H])([H])C2([H])[H])C3([H])[H])c1[H]

$$$$
79:0:0
     RDKit          3D

 97106  0  0  1  0  0  0  0  0999 V2000
  -30.5430  -20.9410   21.0040 C   0  0  0  0  0  2  0  0  0  0  0  0
  -31.9050  -24.5100   20.6300 C   0  0  0  0  0  3  0  0  0  0  0  0
  -31.8500  -23.1110   20.8030 C   0  0  0  0  0  3  0  0  0  0  0  0
  -30.7150  -25.2540   20.4890 C   0  0  0  0  0  3  0  0  0  0  0  0
  -29.4210  -23.1990   20.6600 C   0  0  0  0  0  3  0  0  0  0  0  0
  -30.6060  -22.4500   20.8290 C   0  0  0  0  0  0  0  0  0  0  0  0
  -29.4650  -24.6010   20.5010 C   0  0  0  0  0  0  0  0  0  0  0  0
  -28.1580  -25.3730   20.3780 C   0  0  0  0  0  2  0  0  0  0  0  0
  -28.3020  -26.7620   20.0460 O   0  0  0  0  0  0  0  0  0  0  0  0
  -24.5440  -31.9150   23.1880 C   0  0  0  0  0  0  0  0  0  0  0  0
  -27.1290  -27.4900   20.0470 C   0  0  0  0  0  0  0  0  0  0  0  0
  -23.3030  -30.5180   21.5660 C   0  0  0  0  0  3  0  0  0  0  0  0
  -24.7300  -28.9900   20.1090 C   0  0  0  0  0  0  0  0  0  0  0  0
  -25.8240  -30.8840   21.3180 C   0  0  0  0  0  2  0  0  0  0  0  0
  -25.8990  -29.5180   20.6680 C   0  0  0  0  0  0  0  0  0  0  0  0
  -27.1050  -28.7770   20.6290 C   0  0  0  0  0  3  0  0  0  0  0  0
  -25.9360  -26.9770   19.4830 C   0  0  0  0  0  3  0  0  0  0  0  0
  -24.7430  -27.7190   19.5130 C   0  0  0  0  0  3  0  0  0  0  0  0
  -23.4840  -29.8420   20.1810 C   0  0  0  0  0  2  0  0  0  0  0  0
  -24.5760  -31.1210   22.0820 N   0  0  0  0  0  0  0  0  0  0  0  0
  -23.4740  -32.1870   23.7510 O   0  0  0  0  0  0  0  0  0  0  0  0
  -22.6710  -29.4930   22.5360 C   0  0  0  0  0  0  0  0  0  0  0  0
  -21.3460  -29.3080   22.4280 N   0  0  0  0  0  0  0  0  0  0  0  0
  -23.3710  -28.8670   23.3370 O   0  0  0  0  0  0  0  0  0  0  0  0
  -20.8450  -29.8670   21.7520 H   0  0  0  0  0  0  0  0  0  0  0  0
  -17.9840  -28.1010   22.9610 C   0  0  0  0  0  0  0  0  0  0  0  0
  -20.5420  -28.3700   23.2100 C   0  0  0  0  0  3  0  0  0  0  0  0
  -20.6460  -26.9380   22.6370 C   0  0  0  0  0  2  0  0  0  0  0  0
  -19.5380  -26.6060   21.6330 C   0  0  0  0  0  2  0  0  0  0  0  0
  -18.1600  -26.7500   22.2870 C   0  0  0  0  0  2  0  0  0  0  0  0
  -19.1020  -28.8690   23.3780 C   0  0  0  0  0  0  0  0  0  0  0  0
  -18.8840  -30.1330   23.9670 C   0  0  0  0  0  3  0  0  0  0  0  0
  -17.5790  -30.6290   24.1420 C   0  0  0  0  0  3  0  0  0  0  0  0
  -16.4740  -29.8580   23.7410 C   0  0  0  0  0  3  0  0  0  0  0  0
  -16.6770  -28.5950   23.1570 C   0  0  0  0  0  3  0  0  0  0  0  0
  -25.8430  -32.5440   23.7830 C   0  0  0  0  0  3  0  0  0  0  0  0
  -25.5440  -33.9390   24.1260 N   0  0  0  0  0  0  0  0  0  0  0  0
  -25.8850  -34.9960   23.3770 C   0  0  0  0  0  0  0  0  0  0  0  0
  -26.5560  -34.8980   22.3470 O   0  0  0  0  0  0  0  0  0  0  0  0
  -24.9490  -34.0880   24.9290 H   0  0  0  0  0  0  0  0  0  0  0  0
  -24.1860  -36.8130   23.0130 C   0  0  0  0  0  1  0  0  0  0  0  0
  -25.4030  -36.3820   23.8450 C   0  0  0  0  0  3  0  0  0  0  0  0
  -27.5290  -37.2270   24.7380 C   0  0  0  0  0  1  0  0  0  0  0  0
  -26.4500  -37.4230   23.7740 N   0  0  0  0  0  0  0  0  0  0  0  0
  -26.0520  -38.3460   23.9290 H   0  0  0  0  0  0  0  0  0  0  0  0
  -26.3910  -31.7650   25.0420 C   0  0  1  0  0  0  0  0  0  0  0  0
  -25.3230  -31.5300   26.1340 C   0  0  0  0  0  1  0  0  0  0  0  0
  -26.9610  -30.3880   24.6320 C   0  0  0  0  0  1  0  0  0  0  0  0
  -27.5610  -32.5530   25.6760 C   0  0  0  0  0  1  0  0  0  0  0  0
  -30.6980  -20.2700   19.7230 N   0  0  0  0  0  0  0  0  0  0  0  0
  -30.6310  -20.9080   18.9360 H   0  0  0  0  0  0  0  0  0  0  0  0
  -30.2110  -17.9720   20.5290 C   0  0  0  0  0  3  0  0  0  0  0  0
  -29.0790  -16.5020   18.9800 C   0  0  0  0  0  3  0  0  0  0  0  0
  -29.6700  -16.6990   20.2420 C   0  0  0  0  0  0  0  0  0  0  0  0
  -30.1660  -18.9820   19.5310 C   0  0  0  0  0  0  0  0  0  0  0  0
  -29.5620  -18.6510   18.2880 C   0  0  0  0  0  0  0  0  0  0  0  0
  -29.0200  -17.4470   18.0290 N   0  0  0  0  0  0  0  0  0  0  0  0
  -30.5380  -14.5770   20.9140 C   0  0  0  0  0  0  0  0  0  0  0  0
  -30.3990  -12.3450   19.9110 C   0  0  0  0  0  2  0  0  0  0  0  0
  -29.5090  -12.4290   18.6530 C   0  0  0  0  0  2  0  0  0  0  0  0
  -28.0210  -12.2620   19.0210 C   0  0  0  0  0  2  0  0  0  0  0  0
  -27.5820  -13.1460   20.2230 C   0  0  0  0  0  3  0  0  0  0  0  0
  -28.5940  -13.0430   21.3880 C   0  0  0  0  0  2  0  0  0  0  0  0
  -29.9310  -13.3640   20.8590 N   0  0  0  0  0  0  0  0  0  0  0  0
  -31.6950  -14.7830   20.5430 O   0  0  0  0  0  0  0  0  0  0  0  0
  -29.7190  -15.6120   21.1580 N   0  0  0  0  0  0  0  0  0  0  0  0
  -28.8250  -15.3200   21.5260 H   0  0  0  0  0  0  0  0  0  0  0  0
  -25.1390  -13.6850   20.8200 C   0  0  0  0  0  0  0  0  0  0  0  0
  -24.0840  -12.8830   21.1620 C   0  0  0  0  0  0  0  0  0  0  0  0
  -24.5910  -11.5470   21.1770 C   0  0  0  0  0  0  0  0  0  0  0  0
  -26.2220  -12.8360   20.6500 N   0  0  0  0  0  0  0  0  0  0  0  0
  -25.8930  -11.5450   20.9220 N   0  0  0  0  0  0  0  0  0  0  0  0
  -23.9010  -10.2650   21.3630 C   0  0  0  0  0  0  0  0  0  0  0  0
  -24.3410   -9.3230   22.3190 C   0  0  0  0  0  3  0  0  0  0  0  0
  -23.6550   -8.1030   22.4870 C   0  0  0  0  0  3  0  0  0  0  0  0
  -22.5160   -7.8140   21.7010 C   0  0  0  0  0  0  0  0  0  0  0  0
  -22.0940   -8.7440   20.7350 C   0  0  0  0  0  3  0  0  0  0  0  0
  -22.7810   -9.9570   20.5650 C   0  0  0  0  0  3  0  0  0  0  0  0
  -21.8020   -6.6420   21.7800 O   0  0  0  0  0  0  0  0  0  0  0  0
  -21.7580   -5.9030   22.9350 C   0  0  0  0  0  0  0  0  0  0  0  0
  -21.2670   -6.4380   24.1460 C   0  0  0  0  0  3  0  0  0  0  0  0
  -21.1730   -5.6200   25.2900 C   0  0  0  0  0  3  0  0  0  0  0  0
  -21.5640   -4.2670   25.2230 C   0  0  0  0  0  0  0  0  0  0  0  0
  -22.0470   -3.7330   24.0170 C   0  0  0  0  0  3  0  0  0  0  0  0
  -22.1400   -4.5470   22.8740 C   0  0  0  0  0  0  0  0  0  0  0  0
  -22.5860   -4.0210   21.7090 F   0  0  0  0  0  0  0  0  0  0  0  0
  -21.4670   -3.4790   26.3190 F   0  0  0  0  0  0  0  0  0  0  0  0
  -22.6610  -13.3170   21.3680 C   0  0  0  0  0  0  0  0  0  0  0  0
  -21.9190  -12.6120   22.2160 N   0  0  0  0  0  0  0  0  0  0  0  0
  -22.2120  -14.3190   20.8150 O   0  0  0  0  0  0  0  0  0  0  0  0
  -22.2870  -11.8020   22.6920 H   0  0  0  0  0  0  0  0  0  0  0  0
  -20.9660  -12.8940   22.3930 H   0  0  0  0  0  0  0  0  0  0  0  0
  -25.2700  -15.0580   20.6250 N   0  0  0  0  0  0  0  0  0  0  0  0
  -24.4920  -15.7040   20.6980 H   0  0  0  0  0  0  0  0  0  0  0  0
  -26.1290  -15.5110   20.3440 H   0  0  0  0  0  0  0  0  0  0  0  0
  -28.0480  -20.3240   17.1230 C   0  0  0  0  0  1  0  0  0  0  0  0
  -29.4270  -19.6480   17.1420 C   0  0  0  0  0  2  0  0  0  0  0  0
  2  3  1  0
  3  6  2  0
  4  7  1  0
  4  2  2  0
  5  6  1  0
  6  1  1  0
  7  5  2  0
  8  7  1  0
  9 11  1  0
  9  8  1  0
 10 21  2  0
 11 16  1  0
 12 20  1  0
 12 22  1  0
 13 19  1  0
 13 15  1  0
 14 20  1  0
 15 14  1  0
 16 15  2  0
 17 18  1  0
 17 11  2  0
 18 13  2  0
 19 12  1  0
 20 10  1  0
 22 24  2  0
 23 22  1  0
 25 23  1  0
 26 35  2  0
 26 31  1  0
 27 23  1  0
 27 31  1  0
 28 27  1  0
 29 30  1  0
 29 28  1  0
 30 26  1  0
 31 32  2  0
 32 33  1  0
 34 33  2  0
 35 34  1  0
 36 10  1  0
 36 37  1  0
 36 46  1  0
 37 40  1  0
 38 42  1  0
 38 37  1  0
 39 38  2  0
 42 41  1  0
 44 42  1  0
 44 45  1  0
 44 43  1  0
 46 49  1  1
 46 47  1  0
 48 46  1  0
 50  1  1  0
 51 50  1  0
 53 54  2  0
 54 52  1  0
 54 66  1  0
 55 50  1  0
 55 52  2  0
 56 55  1  0
 57 56  2  0
 57 53  1  0
 58 66  1  0
 59 64  1  0
 60 61  1  0
 60 59  1  0
 62 61  1  0
 62 71  1  0
 62 63  1  0
 64 58  1  0
 64 63  1  0
 65 58  2  0
 66 67  1  0
 68 69  2  0
 69 70  1  0
 69 88  1  0
 70 73  1  0
 71 68  1  0
 71 72  1  0
 72 70  2  0
 73 74  1  0
 74 75  2  0
 76 79  1  0
 76 75  1  0
 77 76  2  0
 78 77  1  0
 78 73  2  0
 79 80  1  0
 80 81  1  0
 81 82  2  0
 83 82  1  0
 83 87  1  0
 84 83  2  0
 85 80  2  0
 85 84  1  0
 86 85  1  0
 88 89  1  0
 89 92  1  0
 89 91  1  0
 90 88  2  0
 93 94  1  0
 93 68  1  0
 95 93  1  0
 96 97  1  0
 97 56  1  0
M  ISO  4   8 101   9 101  58 100  66 100
M  END
>  <TORSDO>  (80) 
F 21

>  <SCORE>  (80) 
-12.835

>  <name>  (80) 
79

>  <ligand_id>  (80) 
79

>  <original_smiles>  (80) 
[H]c1nc(C([H])([H])C([H])([H])[H])c(N([H])C([H])([H])c2c([H])c([H])c([H])c(C([H])([H])Oc3c([H])c([H])c4c(c3[H])C([H])([H])N(C(=O)C([H])(N([H])C(=O)C([H])(N([H])C([H])([H])[H])C([H])([H])[H])C(C([H])([H])[H])(C([H])([H])[H])C([H])([H])[H])C([H])(C(=O)N([H])C3([H])c5c([H])c([H])c([H])c([H])c5C([H])([H])C([H])([H])C3([H])[H])C4([H])[H])c2[H])c([H])c1N([H])C(=O)N1C([H])([H])C([H])([H])C([H])([H])C([H])(n2nc(-c3c([H])c([H])c(Oc4c([H])c([H])c(F)c([H])c4F)c([H])c3[H])c(C(=O)N([H])[H])c2N([H])[H])C1([H])[H]

>  <smiles>  (80) 
[H]c1nc(C([H])([H])C([H])([H])[H])c(N([H])C([H])([H])c2c([H])c([H])c([H])c(C([H])([H])Oc3c([H])c([H])c4c(c3[H])C([H])([H])N(C(=O)C([H])(N([H])C(=O)C([H])(N([H])C([H])([H])[H])C([H])([H])[H])C(C([H])([H])[H])(C([H])([H])[H])C([H])([H])[H])C([H])(C(=O)N([H])C3([H])c5c([H])c([H])c([H])c([H])c5C([H])([H])C([H])([H])C3([H])[H])C4([H])[H])c2[H])c([H])c1N([H])C(=O)N1C([H])([H])C([H])([H])C([H])([H])C([H])(n2nc(-c3c([H])c([H])c(Oc4c([H])c([H])c(F)c([H])c4F)c([H])c3[H])c(C(=O)N([H])[H])c2N([H])[H])C1([H])[H]

$$$$
80:0:0
     RDKit          3D

 94103  0  0  1  0  0  0  0  0999 V2000
  -29.0180  -22.0560   19.0580 C   0  0  0  0  0  3  0  0  0  0  0  0
  -28.8540  -23.5310   19.0790 C   0  0  0  0  0  3  0  0  0  0  0  0
  -29.6320  -23.5840   21.2320 C   0  0  0  0  0  3  0  0  0  0  0  0
  -29.8080  -22.0990   21.2320 C   0  0  0  0  0  0  0  0  0  0  0  0
  -29.5160  -21.1870   20.1170 C   0  0  0  0  0  0  0  0  0  0  0  0
  -29.1220  -24.4480   20.1760 C   0  0  0  0  0  0  0  0  0  0  0  0
  -29.7270  -22.0760   23.8210 C   0  0  0  0  0  2  0  0  0  0  0  0
  -30.7680  -21.7510   24.9050 C   0  0  0  0  0  2  0  0  0  0  0  0
  -31.8360  -21.6300   22.7640 C   0  0  0  0  0  2  0  0  0  0  0  0
  -30.3250  -21.4870   22.5390 C   0  0  0  0  0  3  0  0  0  0  0  0
  -32.0350  -21.4390   24.2110 N   0  0  0  0  0  4  0  0  0  0  0  0
  -32.2850  -20.4810   24.3980 H   0  0  0  0  0  0  0  0  0  0  0  0
  -32.7830  -22.0280   24.5420 H   0  0  0  0  0  0  0  0  0  0  0  0
  -29.1440  -25.9740   20.1100 O   0  0  0  0  0  0  0  0  0  0  0  0
  -25.5640  -31.3940   23.8950 C   0  0  0  0  0  0  0  0  0  0  0  0
  -28.1150  -27.0290   20.2200 C   0  0  0  0  0  0  0  0  0  0  0  0
  -24.4100  -30.3500   21.9840 C   0  0  0  0  0  3  0  0  0  0  0  0
  -25.8750  -28.9500   20.3800 C   0  0  0  0  0  0  0  0  0  0  0  0
  -26.9820  -30.4850   21.9970 C   0  0  0  0  0  2  0  0  0  0  0  0
  -27.0380  -29.2050   21.1180 C   0  0  0  0  0  0  0  0  0  0  0  0
  -28.1510  -28.2670   21.0200 C   0  0  0  0  0  3  0  0  0  0  0  0
  -26.9340  -26.9160   19.4570 C   0  0  0  0  0  3  0  0  0  0  0  0
  -25.8470  -27.8260   19.5360 C   0  0  0  0  0  3  0  0  0  0  0  0
  -24.6870  -29.8980   20.5240 C   0  0  0  0  0  2  0  0  0  0  0  0
  -25.6700  -30.7590   22.6840 N   0  0  0  0  0  0  0  0  0  0  0  0
  -24.4590  -31.6380   24.4080 O   0  0  0  0  0  0  0  0  0  0  0  0
  -23.6360  -29.2330   22.7320 C   0  0  0  0  0  0  0  0  0  0  0  0
  -22.3260  -29.0990   22.4570 N   0  0  0  0  0  0  0  0  0  0  0  0
  -24.2230  -28.4940   23.5250 O   0  0  0  0  0  0  0  0  0  0  0  0
  -21.9090  -29.7460   21.8040 H   0  0  0  0  0  0  0  0  0  0  0  0
  -18.9400  -27.8010   22.3860 C   0  0  0  0  0  0  0  0  0  0  0  0
  -21.4370  -28.0690   23.0050 C   0  0  0  0  0  3  0  0  0  0  0  0
  -21.6500  -26.7130   22.2920 C   0  0  0  0  0  2  0  0  0  0  0  0
  -20.6950  -26.4940   21.1150 C   0  0  0  0  0  2  0  0  0  0  0  0
  -19.2400  -26.5430   21.5880 C   0  0  0  0  0  2  0  0  0  0  0  0
  -19.9730  -28.5260   23.0380 C   0  0  0  0  0  0  0  0  0  0  0  0
  -19.6430  -29.7060   23.7400 C   0  0  0  0  0  3  0  0  0  0  0  0
  -18.3120  -30.1610   23.7960 C   0  0  0  0  0  3  0  0  0  0  0  0
  -17.2920  -29.4330   23.1590 C   0  0  0  0  0  3  0  0  0  0  0  0
  -17.6060  -28.2530   22.4620 C   0  0  0  0  0  3  0  0  0  0  0  0
  -26.8230  -31.8620   24.6880 C   0  0  0  0  0  3  0  0  0  0  0  0
  -27.2100  -30.8850   25.8670 C   0  0  1  0  0  0  0  0  0  0  0  0
  -26.0390  -30.5690   26.8270 C   0  0  0  0  0  1  0  0  0  0  0  0
  -27.7400  -29.5400   25.3190 C   0  0  0  0  0  1  0  0  0  0  0  0
  -28.3570  -31.5020   26.7020 C   0  0  0  0  0  1  0  0  0  0  0  0
  -26.5500  -33.2100   25.2150 N   0  0  0  0  0  0  0  0  0  0  0  0
  -26.9810  -34.3520   24.6640 C   0  0  0  0  0  0  0  0  0  0  0  0
  -27.7120  -34.3760   23.6710 O   0  0  0  0  0  0  0  0  0  0  0  0
  -25.9090  -33.2660   25.9930 H   0  0  0  0  0  0  0  0  0  0  0  0
  -25.3710  -36.2820   24.5060 C   0  0  0  0  0  1  0  0  0  0  0  0
  -26.5310  -35.6760   25.3130 C   0  0  0  0  0  3  0  0  0  0  0  0
  -28.6430  -36.2900   26.4100 C   0  0  0  0  0  1  0  0  0  0  0  0
  -27.6200  -36.6700   25.4400 N   0  0  0  0  0  0  0  0  0  0  0  0
  -27.2490  -37.5780   25.7100 H   0  0  0  0  0  0  0  0  0  0  0  0
  -29.4220  -19.4430   20.1240 C   0  0  0  0  0  3  0  0  0  0  0  0
  -30.5320  -18.0570   20.0280 C   0  0  0  0  0  3  0  0  0  0  0  0
  -30.9570  -15.1570   19.9590 C   0  0  0  0  0  0  0  0  0  0  0  0
  -30.8480  -12.7050   19.1410 C   0  0  0  0  0  2  0  0  0  0  0  0
  -29.9070  -12.5070   17.9270 C   0  0  0  0  0  2  0  0  0  0  0  0
  -28.4500  -12.3150   18.3850 C   0  0  0  0  0  2  0  0  0  0  0  0
  -28.0470  -13.3230   19.4890 C   0  0  0  0  0  3  0  0  0  0  0  0
  -29.1090  -13.4430   20.6010 C   0  0  0  0  0  2  0  0  0  0  0  0
  -30.3520  -13.8760   19.9470 N   0  0  0  0  0  0  0  0  0  0  0  0
  -32.1730  -15.1330   19.7250 O   0  0  0  0  0  0  0  0  0  0  0  0
  -30.2160  -16.4280   20.0380 N   0  0  0  0  0  0  0  0  0  0  0  0
  -29.2310  -16.2460   20.1640 H   0  0  0  0  0  0  0  0  0  0  0  0
  -25.7110  -13.9850   20.2670 C   0  0  0  0  0  0  0  0  0  0  0  0
  -24.6240  -13.2540   20.6580 C   0  0  0  0  0  0  0  0  0  0  0  0
  -25.0370  -11.8870   20.6330 C   0  0  0  0  0  0  0  0  0  0  0  0
  -26.7140  -13.0660   20.0170 N   0  0  0  0  0  0  0  0  0  0  0  0
  -26.3220  -11.7990   20.3060 N   0  0  0  0  0  0  0  0  0  0  0  0
  -24.2630  -10.6550   20.8410 C   0  0  0  0  0  0  0  0  0  0  0  0
  -24.6310   -9.7060   21.8200 C   0  0  0  0  0  3  0  0  0  0  0  0
  -23.8560   -8.5420   22.0160 C   0  0  0  0  0  3  0  0  0  0  0  0
  -22.7000   -8.3180   21.2310 C   0  0  0  0  0  0  0  0  0  0  0  0
  -22.3520   -9.2540   20.2410 C   0  0  0  0  0  3  0  0  0  0  0  0
  -23.1260  -10.4090   20.0440 C   0  0  0  0  0  3  0  0  0  0  0  0
  -21.9020   -7.2040   21.3340 O   0  0  0  0  0  0  0  0  0  0  0  0
  -21.7250   -6.5520   22.5280 C   0  0  0  0  0  0  0  0  0  0  0  0
  -21.2320   -7.2160   23.6720 C   0  0  0  0  0  3  0  0  0  0  0  0
  -21.0000   -6.4940   24.8600 C   0  0  0  0  0  3  0  0  0  0  0  0
  -21.2520   -5.1090   24.9030 C   0  0  0  0  0  0  0  0  0  0  0  0
  -21.7370   -4.4460   23.7620 C   0  0  0  0  0  3  0  0  0  0  0  0
  -21.9710   -5.1660   22.5780 C   0  0  0  0  0  0  0  0  0  0  0  0
  -22.4190   -4.5180   21.4760 F   0  0  0  0  0  0  0  0  0  0  0  0
  -21.0210   -4.4140   26.0400 F   0  0  0  0  0  0  0  0  0  0  0  0
  -23.2500  -13.7880   20.9380 C   0  0  0  0  0  0  0  0  0  0  0  0
  -22.5130  -13.1420   21.8340 N   0  0  0  0  0  0  0  0  0  0  0  0
  -22.8410  -14.8140   20.3950 O   0  0  0  0  0  0  0  0  0  0  0  0
  -22.8580  -12.3120   22.2930 H   0  0  0  0  0  0  0  0  0  0  0  0
  -21.5900  -13.4830   22.0660 H   0  0  0  0  0  0  0  0  0  0  0  0
  -25.9230  -15.3470   20.0710 N   0  0  0  0  0  0  0  0  0  0  0  0
  -25.1750  -16.0250   20.1690 H   0  0  0  0  0  0  0  0  0  0  0  0
  -26.7580  -15.7400   19.6590 H   0  0  0  0  0  0  0  0  0  0  0  0
  1  2  2  0
  1  5  1  0
  2  6  1  0
  4  3  1  0
  5 55  1  0
  5  4  2  0
  6  3  2  0
  7  8  1  0
  9 11  1  0
 10  4  1  0
 10  9  1  0
 10  7  1  0
 11 12  1  0
 11 13  1  0
 11  8  1  0
 14  6  1  0
 14 16  1  0
 15 26  2  0
 16 21  1  0
 17 25  1  0
 17 27  1  0
 18 24  1  0
 18 20  1  0
 19 25  1  0
 20 19  1  0
 21 20  2  0
 22 23  1  0
 22 16  2  0
 23 18  2  0
 24 17  1  0
 25 15  1  0
 27 29  2  0
 28 27  1  0
 30 28  1  0
 31 40  2  0
 31 36  1  0
 32 28  1  0
 32 36  1  0
 33 32  1  0
 34 35  1  0
 34 33  1  0
 35 31  1  0
 36 37  2  0
 37 38  1  0
 39 38  2  0
 40 39  1  0
 41 15  1  0
 41 46  1  0
 41 42  1  0
 42 45  1  1
 42 43  1  0
 44 42  1  0
 46 49  1  0
 47 46  1  0
 47 51  1  0
 48 47  2  0
 51 50  1  0
 51 53  1  0
 53 54  1  0
 53 52  1  0
 56 65  1  0
 56 55  2  0
 57 65  1  0
 58 63  1  0
 59 60  1  0
 59 58  1  0
 61 60  1  0
 61 70  1  0
 61 62  1  0
 63 57  1  0
 63 62  1  0
 64 57  2  0
 65 66  1  0
 67 68  2  0
 68 87  1  0
 69 68  1  0
 69 72  1  0
 70 67  1  0
 70 71  1  0
 71 69  2  0
 72 73  1  0
 73 74  2  0
 75 78  1  0
 75 74  1  0
 76 75  2  0
 77 76  1  0
 77 72  2  0
 78 79  1  0
 79 84  2  0
 79 80  1  0
 80 81  2  0
 81 82  1  0
 82 86  1  0
 83 82  2  0
 84 83  1  0
 85 84  1  0
 87 88  1  0
 88 91  1  0
 88 90  1  0
 89 87  2  0
 92 93  1  0
 92 67  1  0
 94 92  1  0
M  ISO  4   6 101  14 101  57 100  65 100
M  END
>  <TORSDO>  (81) 
F 19

>  <SCORE>  (81) 
-13.068

>  <name>  (81) 
80

>  <ligand_id>  (81) 
80

>  <original_smiles>  (81) 
[H]c1c([H])c([H])c2c(c1[H])C([H])([H])C([H])([H])C([H])([H])C2([H])N([H])C(=O)C1([H])N(C(=O)C([H])(N([H])C(=O)C([H])(N([H])C([H])([H])[H])C([H])([H])[H])C(C([H])([H])[H])(C([H])([H])[H])C([H])([H])[H])C([H])([H])c2c([H])c(Oc3c([H])c([H])c(C([H])([H])C([H])([H])N([H])C(=O)N4C([H])([H])C([H])([H])C([H])([H])C([H])(n5nc(-c6c([H])c([H])c(Oc7c([H])c([H])c(F)c([H])c7F)c([H])c6[H])c(C(=O)N([H])[H])c5N([H])[H])C4([H])[H])c(C4([H])C([H])([H])C([H])([H])[N+]([H])([H])C4([H])[H])c3[H])c([H])c([H])c2C1([H])[H]

>  <smiles>  (81) 
[H]c1c([H])c([H])c2c(c1[H])C([H])([H])C([H])([H])C([H])([H])C2([H])N([H])C(=O)C1([H])N(C(=O)C([H])(N([H])C(=O)C([H])(N([H])C([H])([H])[H])C([H])([H])[H])C(C([H])([H])[H])(C([H])([H])[H])C([H])([H])[H])C([H])([H])c2c([H])c(Oc3c([H])c([H])c(C([H])([H])C([H])([H])N([H])C(=O)N4C([H])([H])C([H])([H])C([H])([H])C([H])(n5nc(-c6c([H])c([H])c(Oc7c([H])c([H])c(F)c([H])c7F)c([H])c6[H])c(C(=O)N([H])[H])c5N([H])[H])C4([H])[H])c(C4([H])C([H])([H])C([H])([H])[N+]([H])([H])C4([H])[H])c3[H])c([H])c([H])c2C1([H])[H]

$$$$
81:0:0
     RDKit          3D

 95104  0  0  1  0  0  0  0  0999 V2000
  -29.9660  -22.2150   19.7210 C   0  0  0  0  0  3  0  0  0  0  0  0
  -28.4980  -21.5050   21.4940 C   0  0  0  0  0  3  0  0  0  0  0  0
  -29.4780  -23.5540   19.8280 C   0  0  0  0  0  3  0  0  0  0  0  0
  -28.0110  -22.8360   21.5960 C   0  0  0  0  0  3  0  0  0  0  0  0
  -29.5200  -21.1650   20.5770 C   0  0  0  0  0  0  0  0  0  0  0  0
  -28.5060  -23.9040   20.7960 C   0  0  0  0  0  0  0  0  0  0  0  0
  -32.1260  -18.5420   21.9430 C   0  0  0  0  0  2  0  0  0  0  0  0
  -31.3200  -17.2390   21.9150 C   0  0  0  0  0  2  0  0  0  0  0  0
  -29.5050  -18.4130   20.5770 C   0  0  0  0  0  2  0  0  0  0  0  0
  -30.2950  -19.7990   20.6680 C   0  0  0  0  0  3  0  0  0  0  0  0
  -31.2200  -19.7930   21.9270 C   0  0  0  0  0  3  0  0  0  0  0  0
  -30.4630  -17.1390   20.6420 C   0  0  0  0  0  3  0  0  0  0  0  0
  -30.5350  -14.6440   20.0890 C   0  0  0  0  0  0  0  0  0  0  0  0
  -30.1830  -12.4810   18.9290 C   0  0  0  0  0  2  0  0  0  0  0  0
  -29.1770  -12.6800   17.7760 C   0  0  0  0  0  2  0  0  0  0  0  0
  -27.7340  -12.5040   18.2850 C   0  0  0  0  0  2  0  0  0  0  0  0
  -27.4540  -13.3090   19.5830 C   0  0  0  0  0  3  0  0  0  0  0  0
  -28.5770  -13.1220   20.6280 C   0  0  0  0  0  2  0  0  0  0  0  0
  -29.8490  -13.4650   19.9780 N   0  0  0  0  0  0  0  0  0  0  0  0
  -31.6740  -14.7540   19.6300 O   0  0  0  0  0  0  0  0  0  0  0  0
  -29.8750  -15.7530   20.5520 N   0  0  0  0  0  0  0  0  0  0  0  0
  -28.9240  -15.6230   20.8630 H   0  0  0  0  0  0  0  0  0  0  0  0
  -25.0920  -13.8580   20.4280 C   0  0  0  0  0  0  0  0  0  0  0  0
  -24.0590  -13.0640   20.8430 C   0  0  0  0  0  0  0  0  0  0  0  0
  -24.5410  -11.7200   20.7770 C   0  0  0  0  0  0  0  0  0  0  0  0
  -26.1390  -12.9990   20.1340 N   0  0  0  0  0  0  0  0  0  0  0  0
  -25.8160  -11.7070   20.4050 N   0  0  0  0  0  0  0  0  0  0  0  0
  -23.8460  -10.4440   20.9900 C   0  0  0  0  0  0  0  0  0  0  0  0
  -24.3200   -9.4910   21.9180 C   0  0  0  0  0  3  0  0  0  0  0  0
  -23.6230   -8.2800   22.1190 C   0  0  0  0  0  3  0  0  0  0  0  0
  -22.4380   -8.0130   21.3920 C   0  0  0  0  0  0  0  0  0  0  0  0
  -21.9840   -8.9560   20.4530 C   0  0  0  0  0  3  0  0  0  0  0  0
  -22.6820  -10.1580   20.2500 C   0  0  0  0  0  3  0  0  0  0  0  0
  -21.7090   -6.8540   21.5040 O   0  0  0  0  0  0  0  0  0  0  0  0
  -21.6900   -6.1240   22.6650 C   0  0  0  0  0  0  0  0  0  0  0  0
  -21.2510   -6.6790   23.8870 C   0  0  0  0  0  3  0  0  0  0  0  0
  -21.1820   -5.8740   25.0410 C   0  0  0  0  0  3  0  0  0  0  0  0
  -21.5410   -4.5150   24.9760 C   0  0  0  0  0  0  0  0  0  0  0  0
  -21.9740   -3.9590   23.7590 C   0  0  0  0  0  3  0  0  0  0  0  0
  -22.0450   -4.7610   22.6060 C   0  0  0  0  0  0  0  0  0  0  0  0
  -22.4410   -4.2150   21.4310 F   0  0  0  0  0  0  0  0  0  0  0  0
  -21.4680   -3.7390   26.0820 F   0  0  0  0  0  0  0  0  0  0  0  0
  -22.6690  -13.5140   21.1870 C   0  0  0  0  0  0  0  0  0  0  0  0
  -21.9920  -12.7930   22.0730 N   0  0  0  0  0  0  0  0  0  0  0  0
  -22.1930  -14.5410   20.7060 O   0  0  0  0  0  0  0  0  0  0  0  0
  -22.3910  -11.9620   22.4840 H   0  0  0  0  0  0  0  0  0  0  0  0
  -21.0620  -13.0760   22.3460 H   0  0  0  0  0  0  0  0  0  0  0  0
  -25.2240  -15.2330   20.2540 N   0  0  0  0  0  0  0  0  0  0  0  0
  -24.4510  -15.8720   20.4040 H   0  0  0  0  0  0  0  0  0  0  0  0
  -26.0440  -15.6880   19.8730 H   0  0  0  0  0  0  0  0  0  0  0  0
  -32.0740  -21.0810   22.0720 C   0  0  0  0  0  2  0  0  0  0  0  0
  -32.8580  -21.0600   23.2540 O   0  0  0  0  0  0  0  0  0  0  0  0
  -32.2640  -21.0510   23.9980 H   0  0  0  0  0  0  0  0  0  0  0  0
  -27.9990  -25.3530   21.1080 C   0  0  0  0  0  2  0  0  0  0  0  0
  -28.2730  -26.5030   20.2350 O   0  0  0  0  0  0  0  0  0  0  0  0
  -24.5790  -31.9040   23.2370 C   0  0  0  0  0  0  0  0  0  0  0  0
  -27.1990  -27.3900   20.1720 C   0  0  0  0  0  0  0  0  0  0  0  0
  -23.3810  -30.5170   21.5820 C   0  0  0  0  0  3  0  0  0  0  0  0
  -24.8380  -28.9780   20.1520 C   0  0  0  0  0  0  0  0  0  0  0  0
  -25.9180  -30.8420   21.4120 C   0  0  0  0  0  2  0  0  0  0  0  0
  -26.0020  -29.4710   20.7580 C   0  0  0  0  0  0  0  0  0  0  0  0
  -27.1910  -28.6860   20.7620 C   0  0  0  0  0  3  0  0  0  0  0  0
  -26.0230  -26.9430   19.5370 C   0  0  0  0  0  3  0  0  0  0  0  0
  -24.8480  -27.7180   19.5320 C   0  0  0  0  0  3  0  0  0  0  0  0
  -23.5990  -29.8480   20.1990 C   0  0  0  0  0  2  0  0  0  0  0  0
  -24.6450  -31.1040   22.1340 N   0  0  0  0  0  0  0  0  0  0  0  0
  -23.4940  -32.1810   23.7690 O   0  0  0  0  0  0  0  0  0  0  0  0
  -22.7130  -29.4960   22.5330 C   0  0  0  0  0  0  0  0  0  0  0  0
  -21.3840  -29.3360   22.4100 N   0  0  0  0  0  0  0  0  0  0  0  0
  -23.3870  -28.8520   23.3410 O   0  0  0  0  0  0  0  0  0  0  0  0
  -20.8990  -29.9070   21.7310 H   0  0  0  0  0  0  0  0  0  0  0  0
  -17.9910  -28.1900   22.9200 C   0  0  0  0  0  0  0  0  0  0  0  0
  -20.5550  -28.4010   23.1730 C   0  0  0  0  0  3  0  0  0  0  0  0
  -20.6280  -26.9770   22.5750 C   0  0  0  0  0  2  0  0  0  0  0  0
  -19.5130  -26.6890   21.5650 C   0  0  0  0  0  2  0  0  0  0  0  0
  -18.1390  -26.8490   22.2230 C   0  0  0  0  0  2  0  0  0  0  0  0
  -19.1270  -28.9270   23.3510 C   0  0  0  0  0  0  0  0  0  0  0  0
  -18.9340  -30.1840   23.9640 C   0  0  0  0  0  3  0  0  0  0  0  0
  -17.6400  -30.7060   24.1470 C   0  0  0  0  0  3  0  0  0  0  0  0
  -16.5190  -29.9670   23.7320 C   0  0  0  0  0  3  0  0  0  0  0  0
  -16.6960  -28.7100   23.1230 C   0  0  0  0  0  3  0  0  0  0  0  0
  -25.8610  -32.5290   23.8700 C   0  0  0  0  0  3  0  0  0  0  0  0
  -26.3610  -31.7560   25.1510 C   0  0  1  0  0  0  0  0  0  0  0  0
  -25.2560  -31.5250   26.2090 C   0  0  0  0  0  1  0  0  0  0  0  0
  -26.9410  -30.3750   24.7670 C   0  0  0  0  0  1  0  0  0  0  0  0
  -27.5090  -32.5450   25.8240 C   0  0  0  0  0  1  0  0  0  0  0  0
  -25.5590  -33.9300   24.1940 N   0  0  0  0  0  0  0  0  0  0  0  0
  -25.9040  -34.9790   23.4350 C   0  0  0  0  0  0  0  0  0  0  0  0
  -26.5820  -34.8680   22.4090 O   0  0  0  0  0  0  0  0  0  0  0  0
  -24.9590  -34.0900   24.9900 H   0  0  0  0  0  0  0  0  0  0  0  0
  -24.1940  -36.7840   23.0610 C   0  0  0  0  0  1  0  0  0  0  0  0
  -25.4240  -36.3710   23.8850 C   0  0  0  0  0  3  0  0  0  0  0  0
  -27.5540  -37.2430   24.7390 C   0  0  0  0  0  1  0  0  0  0  0  0
  -26.4650  -37.4160   23.7820 N   0  0  0  0  0  0  0  0  0  0  0  0
  -26.0650  -38.3400   23.9200 H   0  0  0  0  0  0  0  0  0  0  0  0
  1  3  2  0
  1  5  1  0
  2  4  1  0
  3  6  1  0
  5  2  2  0
  6 54  1  0
  6  4  2  0
  8  7  1  0
  9 12  1  0
  9 10  1  0
 10  5  1  0
 10 11  1  0
 11  7  1  0
 11 51  1  0
 12 21  1  0
 12  8  1  0
 13 21  1  0
 14 19  1  0
 15 16  1  0
 15 14  1  0
 17 16  1  0
 17 26  1  0
 17 18  1  0
 19 13  1  0
 19 18  1  0
 20 13  2  0
 21 22  1  0
 23 24  2  0
 24 43  1  0
 25 24  1  0
 25 28  1  0
 26 27  1  0
 26 23  1  0
 27 25  2  0
 28 29  1  0
 29 30  2  0
 31 34  1  0
 31 30  1  0
 32 31  2  0
 33 32  1  0
 33 28  2  0
 34 35  1  0
 35 36  1  0
 36 37  2  0
 38 37  1  0
 38 42  1  0
 39 38  2  0
 40 35  2  0
 40 39  1  0
 41 40  1  0
 43 44  1  0
 44 47  1  0
 44 46  1  0
 45 43  2  0
 48 49  1  0
 48 23  1  0
 50 48  1  0
 51 52  1  0
 52 53  1  0
 55 54  1  0
 56 67  2  0
 57 55  1  0
 57 62  1  0
 58 66  1  0
 58 68  1  0
 59 65  1  0
 59 61  1  0
 60 66  1  0
 61 62  2  0
 61 60  1  0
 63 57  2  0
 64 63  1  0
 64 59  2  0
 65 58  1  0
 66 56  1  0
 68 70  2  0
 69 68  1  0
 71 69  1  0
 72 81  2  0
 72 77  1  0
 73 69  1  0
 73 77  1  0
 74 73  1  0
 75 76  1  0
 75 74  1  0
 76 72  1  0
 77 78  2  0
 78 79  1  0
 80 79  2  0
 81 80  1  0
 82 56  1  0
 82 87  1  0
 82 83  1  0
 83 86  1  1
 83 84  1  0
 85 83  1  0
 87 90  1  0
 88 92  1  0
 88 87  1  0
 89 88  2  0
 92 91  1  0
 94 92  1  0
 94 95  1  0
 94 93  1  0
M  ISO  4  13 100  21 100  54 101  55 101
M  END
>  <TORSDO>  (82) 
F 20

>  <SCORE>  (82) 
-14.236

>  <name>  (82) 
81

>  <ligand_id>  (82) 
81

>  <original_smiles>  (82) 
[H]OC([H])([H])C1([H])C([H])([H])C([H])([H])C([H])(N([H])C(=O)N2C([H])([H])C([H])([H])C([H])([H])C([H])(n3nc(-c4c([H])c([H])c(Oc5c([H])c([H])c(F)c([H])c5F)c([H])c4[H])c(C(=O)N([H])[H])c3N([H])[H])C2([H])[H])C([H])([H])C1([H])c1c([H])c([H])c(C([H])([H])Oc2c([H])c([H])c3c(c2[H])C([H])([H])N(C(=O)C([H])(N([H])C(=O)C([H])(N([H])C([H])([H])[H])C([H])([H])[H])C(C([H])([H])[H])(C([H])([H])[H])C([H])([H])[H])C([H])(C(=O)N([H])C2([H])c4c([H])c([H])c([H])c([H])c4C([H])([H])C([H])([H])C2([H])[H])C3([H])[H])c([H])c1[H]

>  <smiles>  (82) 
[H]OC([H])([H])C1([H])C([H])([H])C([H])([H])C([H])(N([H])C(=O)N2C([H])([H])C([H])([H])C([H])([H])C([H])(n3nc(-c4c([H])c([H])c(Oc5c([H])c([H])c(F)c([H])c5F)c([H])c4[H])c(C(=O)N([H])[H])c3N([H])[H])C2([H])[H])C([H])([H])C1([H])c1c([H])c([H])c(C([H])([H])Oc2c([H])c([H])c3c(c2[H])C([H])([H])N(C(=O)C([H])(N([H])C(=O)C([H])(N([H])C([H])([H])[H])C([H])([H])[H])C(C([H])([H])[H])(C([H])([H])[H])C([H])([H])[H])C([H])(C(=O)N([H])C2([H])c4c([H])c([H])c([H])c([H])c4C([H])([H])C([H])([H])C2([H])[H])C3([H])[H])c([H])c1[H]

$$$$
82:0:0
     RDKit          3D

101110  0  0  1  0  0  0  0  0999 V2000
  -32.3130  -20.5940   21.7510 C   0  0  0  0  0  2  0  0  0  0  0  0
  -32.2190  -22.9190   21.2310 C   0  0  0  0  0  2  0  0  0  0  0  0
  -31.1740  -20.2360   20.7580 C   0  0  0  0  0  3  0  0  0  0  0  0
  -31.0710  -22.6820   20.2220 C   0  0  0  0  0  3  0  0  0  0  0  0
  -33.0940  -21.7450   21.2970 N   0  0  0  0  0  0  0  0  0  0  0  0
  -30.3170  -21.4410   20.5620 N   0  0  0  0  0  4  0  0  0  0  0  0
  -33.4680  -21.5550   20.3690 H   0  0  0  0  0  0  0  0  0  0  0  0
  -29.8000  -21.6050   21.4100 H   0  0  0  0  0  0  0  0  0  0  0  0
  -29.6570  -21.2580   19.8220 H   0  0  0  0  0  0  0  0  0  0  0  0
  -30.3400  -19.0410   21.3190 C   0  0  0  0  0  2  0  0  0  0  0  0
  -28.7280  -17.2060   20.7880 C   0  0  0  0  0  1  0  0  0  0  0  0
  -30.1290  -17.7620   20.4490 C   0  0  0  0  0  3  0  0  0  0  0  0
  -31.2100  -16.6550   20.6490 C   0  0  0  0  0  2  0  0  0  0  0  0
  -31.2690  -14.2520   19.8380 C   0  0  0  0  0  0  0  0  0  0  0  0
  -30.9000  -11.9700   18.9510 C   0  0  0  0  0  2  0  0  0  0  0  0
  -29.8970  -11.9800   17.7770 C   0  0  0  0  0  2  0  0  0  0  0  0
  -28.4400  -11.9360   18.2800 C   0  0  0  0  0  2  0  0  0  0  0  0
  -28.1660  -12.9600   19.4130 C   0  0  0  0  0  3  0  0  0  0  0  0
  -29.2570  -12.8760   20.5010 C   0  0  0  0  0  2  0  0  0  0  0  0
  -30.5650  -13.0850   19.8510 N   0  0  0  0  0  0  0  0  0  0  0  0
  -32.3460  -14.3740   19.2460 O   0  0  0  0  0  0  0  0  0  0  0  0
  -30.6780  -15.2920   20.4600 N   0  0  0  0  0  0  0  0  0  0  0  0
  -29.7700  -15.1000   20.8590 H   0  0  0  0  0  0  0  0  0  0  0  0
  -25.8800  -13.7550   20.2820 C   0  0  0  0  0  0  0  0  0  0  0  0
  -24.7770  -13.0710   20.7160 C   0  0  0  0  0  0  0  0  0  0  0  0
  -25.1140  -11.6850   20.6290 C   0  0  0  0  0  0  0  0  0  0  0  0
  -26.8270  -12.7920   19.9700 N   0  0  0  0  0  0  0  0  0  0  0  0
  -26.3720  -11.5410   20.2320 N   0  0  0  0  0  0  0  0  0  0  0  0
  -24.2960  -10.4870   20.8450 C   0  0  0  0  0  0  0  0  0  0  0  0
  -24.6700   -9.4960   21.7780 C   0  0  0  0  0  3  0  0  0  0  0  0
  -23.8600   -8.3580   21.9780 C   0  0  0  0  0  3  0  0  0  0  0  0
  -22.6580   -8.2050   21.2470 C   0  0  0  0  0  0  0  0  0  0  0  0
  -22.3020   -9.1830   20.2990 C   0  0  0  0  0  3  0  0  0  0  0  0
  -23.1120  -10.3120   20.0970 C   0  0  0  0  0  3  0  0  0  0  0  0
  -21.8160   -7.1260   21.3610 O   0  0  0  0  0  0  0  0  0  0  0  0
  -21.6790   -6.4400   22.5430 C   0  0  0  0  0  0  0  0  0  0  0  0
  -21.2520   -7.0750   23.7300 C   0  0  0  0  0  3  0  0  0  0  0  0
  -21.0640   -6.3180   24.9050 C   0  0  0  0  0  3  0  0  0  0  0  0
  -21.2880   -4.9280   24.8890 C   0  0  0  0  0  0  0  0  0  0  0  0
  -21.7030   -4.2940   23.7070 C   0  0  0  0  0  3  0  0  0  0  0  0
  -21.8960   -5.0480   22.5360 C   0  0  0  0  0  0  0  0  0  0  0  0
  -22.2790   -4.4280   21.3940 F   0  0  0  0  0  0  0  0  0  0  0  0
  -21.0960   -4.1990   26.0150 F   0  0  0  0  0  0  0  0  0  0  0  0
  -23.4480  -13.6570   21.0930 C   0  0  0  0  0  0  0  0  0  0  0  0
  -22.7280  -13.0160   22.0070 N   0  0  0  0  0  0  0  0  0  0  0  0
  -23.0590  -14.7190   20.6090 O   0  0  0  0  0  0  0  0  0  0  0  0
  -23.0520  -12.1500   22.4160 H   0  0  0  0  0  0  0  0  0  0  0  0
  -21.8350  -13.3900   22.2960 H   0  0  0  0  0  0  0  0  0  0  0  0
  -26.1550  -15.1070   20.1050 N   0  0  0  0  0  0  0  0  0  0  0  0
  -25.4650  -15.8310   20.2730 H   0  0  0  0  0  0  0  0  0  0  0  0
  -27.0080  -15.4610   19.6930 H   0  0  0  0  0  0  0  0  0  0  0  0
  -30.1520  -23.9320   20.0350 C   0  0  0  0  0  3  0  0  0  0  0  0
  -26.9360  -22.7310   17.3600 C   0  0  0  0  0  3  0  0  0  0  0  0
  -28.1120  -23.3160   16.8570 C   0  0  0  0  0  3  0  0  0  0  0  0
  -26.7760  -22.5620   18.7490 C   0  0  0  0  0  3  0  0  0  0  0  0
  -29.1230  -23.7310   17.7420 C   0  0  0  0  0  3  0  0  0  0  0  0
  -27.7920  -22.9710   19.6350 C   0  0  0  0  0  3  0  0  0  0  0  0
  -28.9730  -23.5630   19.1340 C   0  0  0  0  0  0  0  0  0  0  0  0
  -29.8300  -24.7110   21.3480 C   0  0  0  0  0  2  0  0  0  0  0  0
  -28.6650  -25.7280   21.3690 C   0  0  0  0  0  2  0  0  0  0  0  0
  -28.8580  -26.9150   20.5930 O   0  0  0  0  0  0  0  0  0  0  0  0
  -24.7820  -32.0150   23.4260 C   0  0  0  0  0  0  0  0  0  0  0  0
  -27.6950  -27.6430   20.5010 C   0  0  0  0  0  0  0  0  0  0  0  0
  -23.6870  -30.5540   21.7580 C   0  0  0  0  0  3  0  0  0  0  0  0
  -25.2480  -29.0530   20.4070 C   0  0  0  0  0  0  0  0  0  0  0  0
  -26.2040  -30.9960   21.6530 C   0  0  0  0  0  2  0  0  0  0  0  0
  -26.3640  -29.6250   21.0320 C   0  0  0  0  0  0  0  0  0  0  0  0
  -27.5930  -28.9280   21.0790 C   0  0  0  0  0  3  0  0  0  0  0  0
  -26.5670  -27.0860   19.8580 C   0  0  0  0  0  3  0  0  0  0  0  0
  -25.3440  -27.7790   19.8180 C   0  0  0  0  0  3  0  0  0  0  0  0
  -23.9730  -29.8640   20.3970 C   0  0  0  0  0  2  0  0  0  0  0  0
  -24.9060  -31.2030   22.3390 N   0  0  0  0  0  0  0  0  0  0  0  0
  -23.6730  -32.2590   23.9200 O   0  0  0  0  0  0  0  0  0  0  0  0
  -23.0340  -29.5230   22.7060 C   0  0  0  0  0  0  0  0  0  0  0  0
  -21.7220  -29.2960   22.5300 N   0  0  0  0  0  0  0  0  0  0  0  0
  -23.7070  -28.9280   23.5520 O   0  0  0  0  0  0  0  0  0  0  0  0
  -21.2370  -29.8320   21.8230 H   0  0  0  0  0  0  0  0  0  0  0  0
  -18.3650  -28.0230   22.9250 C   0  0  0  0  0  0  0  0  0  0  0  0
  -20.9060  -28.3410   23.2790 C   0  0  0  0  0  3  0  0  0  0  0  0
  -21.0620  -26.9100   22.7150 C   0  0  0  0  0  2  0  0  0  0  0  0
  -20.0020  -26.5580   21.6670 C   0  0  0  0  0  2  0  0  0  0  0  0
  -18.5960  -26.6750   22.2630 C   0  0  0  0  0  2  0  0  0  0  0  0
  -19.4520  -28.8140   23.3860 C   0  0  0  0  0  0  0  0  0  0  0  0
  -19.1850  -30.0770   23.9560 C   0  0  0  0  0  3  0  0  0  0  0  0
  -17.8650  -30.5520   24.0740 C   0  0  0  0  0  3  0  0  0  0  0  0
  -16.7930  -29.7570   23.6310 C   0  0  0  0  0  3  0  0  0  0  0  0
  -17.0440  -28.4960   23.0610 C   0  0  0  0  0  3  0  0  0  0  0  0
  -26.0230  -32.6950   24.0870 C   0  0  0  0  0  3  0  0  0  0  0  0
  -25.6740  -34.0990   24.3360 N   0  0  0  0  0  0  0  0  0  0  0  0
  -26.0240  -35.1210   23.5420 C   0  0  0  0  0  0  0  0  0  0  0  0
  -26.7450  -34.9840   22.5500 O   0  0  0  0  0  0  0  0  0  0  0  0
  -25.0370  -34.2800   25.0980 H   0  0  0  0  0  0  0  0  0  0  0  0
  -24.2770  -36.8510   23.0240 C   0  0  0  0  0  1  0  0  0  0  0  0
  -25.4890  -36.5170   23.9070 C   0  0  0  0  0  3  0  0  0  0  0  0
  -27.5690  -37.4890   24.7780 C   0  0  0  0  0  1  0  0  0  0  0  0
  -26.5020  -37.5870   23.7840 N   0  0  0  0  0  0  0  0  0  0  0  0
  -26.0710  -38.5020   23.8710 H   0  0  0  0  0  0  0  0  0  0  0  0
  -26.4810  -31.9870   25.4210 C   0  0  1  0  0  0  0  0  0  0  0  0
  -25.3290  -31.7520   26.4250 C   0  0  0  0  0  1  0  0  0  0  0  0
  -27.1350  -30.6200   25.1150 C   0  0  0  0  0  1  0  0  0  0  0  0
  -27.5590  -32.8440   26.1260 C   0  0  0  0  0  1  0  0  0  0  0  0
  2  5  1  0
  3 10  1  0
  3  1  1  0
  4 52  1  0
  4  6  1  0
  4  2  1  0
  5  1  1  0
  6  3  1  0
  6  8  1  0
  7  5  1  0
  9  6  1  0
 12 13  1  0
 12 11  1  0
 12 10  1  0
 14 20  1  0
 14 22  1  0
 15 20  1  0
 16 17  1  0
 16 15  1  0
 18 17  1  0
 18 27  1  0
 18 19  1  0
 20 19  1  0
 21 14  2  0
 22 13  1  0
 22 23  1  0
 24 25  2  0
 25 44  1  0
 26 25  1  0
 26 29  1  0
 27 28  1  0
 27 24  1  0
 28 26  2  0
 29 30  1  0
 30 31  2  0
 32 35  1  0
 32 31  1  0
 33 32  2  0
 34 33  1  0
 34 29  2  0
 35 36  1  0
 36 37  1  0
 37 38  2  0
 39 38  1  0
 39 43  1  0
 40 39  2  0
 41 36  2  0
 41 40  1  0
 42 41  1  0
 44 45  1  0
 45 48  1  0
 45 47  1  0
 46 44  2  0
 49 50  1  0
 49 24  1  0
 51 49  1  0
 52 59  1  0
 53 55  1  0
 54 53  2  0
 54 56  1  0
 55 57  2  0
 56 58  2  0
 58 57  1  0
 58 52  1  0
 59 60  1  0
 61 60  1  0
 62 73  2  0
 63 61  1  0
 63 68  1  0
 64 72  1  0
 64 74  1  0
 65 67  1  0
 66 72  1  0
 67 68  2  0
 67 66  1  0
 69 63  2  0
 70 69  1  0
 70 65  2  0
 71 65  1  0
 71 64  1  0
 72 62  1  0
 74 76  2  0
 75 74  1  0
 77 75  1  0
 78 87  2  0
 78 83  1  0
 79 75  1  0
 79 83  1  0
 80 79  1  0
 81 82  1  0
 81 80  1  0
 82 78  1  0
 83 84  2  0
 84 85  1  0
 86 85  2  0
 87 86  1  0
 88 62  1  0
 88 89  1  0
 88 98  1  0
 89 92  1  0
 90 94  1  0
 90 89  1  0
 91 90  2  0
 94 93  1  0
 96 97  1  0
 96 94  1  0
 96 95  1  0
 98101  1  1
 98 99  1  0
100 98  1  0
M  ISO  4  14 100  22 100  60 101  61 101
M  END
>  <TORSDO>  (83) 
F 23

>  <SCORE>  (83) 
-11.382

>  <name>  (83) 
82

>  <ligand_id>  (83) 
82

>  <original_smiles>  (83) 
[H]c1c([H])c([H])c(C([H])(C([H])([H])C([H])([H])Oc2c([H])c([H])c3c(c2[H])C([H])([H])N(C(=O)C([H])(N([H])C(=O)C([H])(N([H])C([H])([H])[H])C([H])([H])[H])C(C([H])([H])[H])(C([H])([H])[H])C([H])([H])[H])C([H])(C(=O)N([H])C2([H])c4c([H])c([H])c([H])c([H])c4C([H])([H])C([H])([H])C2([H])[H])C3([H])[H])C2([H])C([H])([H])N([H])C([H])([H])C([H])(C([H])([H])C([H])(C([H])([H])[H])C([H])([H])N([H])C(=O)N3C([H])([H])C([H])([H])C([H])([H])C([H])(n4nc(-c5c([H])c([H])c(Oc6c([H])c([H])c(F)c([H])c6F)c([H])c5[H])c(C(=O)N([H])[H])c4N([H])[H])C3([H])[H])[N+]2([H])[H])c([H])c1[H]

>  <smiles>  (83) 
[H]c1c([H])c([H])c(C([H])(C([H])([H])C([H])([H])Oc2c([H])c([H])c3c(c2[H])C([H])([H])N(C(=O)C([H])(N([H])C(=O)C([H])(N([H])C([H])([H])[H])C([H])([H])[H])C(C([H])([H])[H])(C([H])([H])[H])C([H])([H])[H])C([H])(C(=O)N([H])C2([H])c4c([H])c([H])c([H])c([H])c4C([H])([H])C([H])([H])C2([H])[H])C3([H])[H])C2([H])C([H])([H])N([H])C([H])([H])C([H])(C([H])([H])C([H])(C([H])([H])[H])C([H])([H])N([H])C(=O)N3C([H])([H])C([H])([H])C([H])([H])C([H])(n4nc(-c5c([H])c([H])c(Oc6c([H])c([H])c(F)c([H])c6F)c([H])c5[H])c(C(=O)N([H])[H])c4N([H])[H])C3([H])[H])[N+]2([H])[H])c([H])c1[H]

$$$$
83:0:0
     RDKit          3D

 95103  0  0  1  0  0  0  0  0999 V2000
  -31.1560  -25.4150   19.6400 C   0  0  0  0  0  2  0  0  0  0  0  0
  -30.3400  -24.9810   22.0410 C   0  0  0  0  0  2  0  0  0  0  0  0
  -30.3660  -24.1720   19.1820 C   0  0  0  0  0  2  0  0  0  0  0  0
  -29.5560  -23.7660   21.5210 C   0  0  0  0  0  2  0  0  0  0  0  0
  -30.6370  -26.0440   20.9560 C   0  0  0  0  0  3  0  0  0  0  0  0
  -30.2790  -23.1360   20.3230 C   0  0  0  0  0  3  0  0  0  0  0  0
  -29.5920  -21.8990   19.9550 N   0  0  0  0  0  0  0  0  0  0  0  0
  -28.6480  -22.1020   19.6330 H   0  0  0  0  0  0  0  0  0  0  0  0
  -30.3210  -21.1340   18.9460 C   0  0  0  0  0  2  0  0  0  0  0  0
  -29.8650  -19.6640   18.9490 C   0  0  0  0  0  2  0  0  0  0  0  0
  -30.2610  -18.9690   20.1940 N   0  0  0  0  0  4  0  0  0  0  0  0
  -31.2520  -19.0840   20.3190 H   0  0  0  0  0  0  0  0  0  0  0  0
  -29.8020  -19.4420   20.9580 H   0  0  0  0  0  0  0  0  0  0  0  0
  -29.9280  -17.5250   20.1930 C   0  0  0  0  0  2  0  0  0  0  0  0
  -30.4660  -16.7540   21.4240 C   0  0  0  0  0  2  0  0  0  0  0  0
  -30.7250  -14.4020   20.6290 C   0  0  0  0  0  0  0  0  0  0  0  0
  -30.4150  -12.2820   19.4150 C   0  0  0  0  0  2  0  0  0  0  0  0
  -29.4920  -12.5330   18.2070 C   0  0  0  0  0  2  0  0  0  0  0  0
  -28.0130  -12.3870   18.6170 C   0  0  0  0  0  2  0  0  0  0  0  0
  -27.6670  -13.2010   19.8920 C   0  0  0  0  0  3  0  0  0  0  0  0
  -28.7040  -12.9420   21.0080 C   0  0  0  0  0  2  0  0  0  0  0  0
  -30.0450  -13.2380   20.4690 N   0  0  0  0  0  0  0  0  0  0  0  0
  -31.7940  -14.6490   20.0640 O   0  0  0  0  0  0  0  0  0  0  0  0
  -30.0990  -15.3350   21.3610 N   0  0  0  0  0  0  0  0  0  0  0  0
  -29.2490  -15.0500   21.8270 H   0  0  0  0  0  0  0  0  0  0  0  0
  -25.2590  -13.8140   20.5700 C   0  0  0  0  0  0  0  0  0  0  0  0
  -24.1810  -13.0420   20.9180 C   0  0  0  0  0  0  0  0  0  0  0  0
  -24.6360  -11.6890   20.8730 C   0  0  0  0  0  0  0  0  0  0  0  0
  -26.3040  -12.9300   20.3430 N   0  0  0  0  0  0  0  0  0  0  0  0
  -25.9290  -11.6470   20.5760 N   0  0  0  0  0  0  0  0  0  0  0  0
  -23.9010  -10.4280   21.0400 C   0  0  0  0  0  0  0  0  0  0  0  0
  -24.3580   -9.4210   21.9190 C   0  0  0  0  0  3  0  0  0  0  0  0
  -23.6270   -8.2230   22.0740 C   0  0  0  0  0  3  0  0  0  0  0  0
  -22.4270   -8.0250   21.3530 C   0  0  0  0  0  0  0  0  0  0  0  0
  -21.9880   -9.0220   20.4640 C   0  0  0  0  0  3  0  0  0  0  0  0
  -22.7180  -10.2130   20.3060 C   0  0  0  0  0  3  0  0  0  0  0  0
  -21.6630   -6.8850   21.4240 O   0  0  0  0  0  0  0  0  0  0  0  0
  -21.6840   -6.0710   22.5270 C   0  0  0  0  0  0  0  0  0  0  0  0
  -21.3990   -6.5620   23.8200 C   0  0  0  0  0  3  0  0  0  0  0  0
  -21.3690   -5.6780   24.9170 C   0  0  0  0  0  3  0  0  0  0  0  0
  -21.6070   -4.3050   24.7230 C   0  0  0  0  0  0  0  0  0  0  0  0
  -21.8810   -3.8130   23.4340 C   0  0  0  0  0  3  0  0  0  0  0  0
  -21.9180   -4.6940   22.3400 C   0  0  0  0  0  0  0  0  0  0  0  0
  -22.1650   -4.2130   21.0980 F   0  0  0  0  0  0  0  0  0  0  0  0
  -21.5670   -3.4530   25.7750 F   0  0  0  0  0  0  0  0  0  0  0  0
  -22.7840  -13.5230   21.1850 C   0  0  0  0  0  0  0  0  0  0  0  0
  -22.0460  -12.8250   22.0430 N   0  0  0  0  0  0  0  0  0  0  0  0
  -22.3550  -14.5550   20.6700 O   0  0  0  0  0  0  0  0  0  0  0  0
  -22.4010  -11.9880   22.4830 H   0  0  0  0  0  0  0  0  0  0  0  0
  -21.1100  -13.1350   22.2650 H   0  0  0  0  0  0  0  0  0  0  0  0
  -25.4310  -15.1840   20.4110 N   0  0  0  0  0  0  0  0  0  0  0  0
  -24.6610  -15.8380   20.4900 H   0  0  0  0  0  0  0  0  0  0  0  0
  -26.2880  -15.6220   20.0990 H   0  0  0  0  0  0  0  0  0  0  0  0
  -29.5410  -27.1210   20.7860 C   0  0  0  0  0  2  0  0  0  0  0  0
  -28.3890  -26.6700   20.0760 O   0  0  0  0  0  0  0  0  0  0  0  0
  -24.6110  -31.8710   23.2100 C   0  0  0  0  0  0  0  0  0  0  0  0
  -27.2610  -27.4660   20.1080 C   0  0  0  0  0  0  0  0  0  0  0  0
  -23.3990  -30.4890   21.5510 C   0  0  0  0  0  3  0  0  0  0  0  0
  -24.8510  -28.9560   20.1160 C   0  0  0  0  0  0  0  0  0  0  0  0
  -25.9200  -30.8500   21.3540 C   0  0  0  0  0  2  0  0  0  0  0  0
  -26.0030  -29.4820   20.7110 C   0  0  0  0  0  0  0  0  0  0  0  0
  -27.2060  -28.7500   20.7070 C   0  0  0  0  0  3  0  0  0  0  0  0
  -26.0920  -26.9520   19.5090 C   0  0  0  0  0  3  0  0  0  0  0  0
  -24.8890  -27.6860   19.5110 C   0  0  0  0  0  3  0  0  0  0  0  0
  -23.6080  -29.8170   20.1660 C   0  0  0  0  0  2  0  0  0  0  0  0
  -24.6620  -31.0830   22.0990 N   0  0  0  0  0  0  0  0  0  0  0  0
  -23.5320  -32.1440   23.7520 O   0  0  0  0  0  0  0  0  0  0  0  0
  -22.7400  -29.4650   22.5020 C   0  0  0  0  0  0  0  0  0  0  0  0
  -21.4130  -29.3030   22.3770 N   0  0  0  0  0  0  0  0  0  0  0  0
  -23.4180  -28.8200   23.3060 O   0  0  0  0  0  0  0  0  0  0  0  0
  -20.9280  -29.8780   21.7020 H   0  0  0  0  0  0  0  0  0  0  0  0
  -18.0270  -28.1370   22.8500 C   0  0  0  0  0  0  0  0  0  0  0  0
  -20.5850  -28.3650   23.1340 C   0  0  0  0  0  3  0  0  0  0  0  0
  -20.6750  -26.9390   22.5420 C   0  0  0  0  0  2  0  0  0  0  0  0
  -19.5730  -26.6380   21.5210 C   0  0  0  0  0  2  0  0  0  0  0  0
  -18.1910  -26.7920   22.1630 C   0  0  0  0  0  2  0  0  0  0  0  0
  -19.1520  -28.8820   23.2920 C   0  0  0  0  0  0  0  0  0  0  0  0
  -18.9450  -30.1430   23.8930 C   0  0  0  0  0  3  0  0  0  0  0  0
  -17.6450  -30.6580   24.0560 C   0  0  0  0  0  3  0  0  0  0  0  0
  -16.5340  -29.9080   23.6310 C   0  0  0  0  0  3  0  0  0  0  0  0
  -16.7260  -28.6500   23.0340 C   0  0  0  0  0  3  0  0  0  0  0  0
  -25.9010  -32.4850   23.8400 C   0  0  0  0  0  3  0  0  0  0  0  0
  -25.5880  -33.8640   24.2340 N   0  0  0  0  0  0  0  0  0  0  0  0
  -25.9030  -34.9490   23.5140 C   0  0  0  0  0  0  0  0  0  0  0  0
  -26.5600  -34.8940   22.4700 O   0  0  0  0  0  0  0  0  0  0  0  0
  -25.0000  -33.9810   25.0460 H   0  0  0  0  0  0  0  0  0  0  0  0
  -24.1480  -36.7330   23.2640 C   0  0  0  0  0  1  0  0  0  0  0  0
  -25.4100  -36.3130   24.0340 C   0  0  0  0  0  3  0  0  0  0  0  0
  -27.5580  -37.1820   24.8460 C   0  0  0  0  0  1  0  0  0  0  0  0
  -26.4290  -37.3810   23.9410 N   0  0  0  0  0  0  0  0  0  0  0  0
  -26.0190  -38.2890   24.1400 H   0  0  0  0  0  0  0  0  0  0  0  0
  -26.4460  -31.6600   25.0710 C   0  0  1  0  0  0  0  0  0  0  0  0
  -25.3750  -31.3680   26.1480 C   0  0  0  0  0  1  0  0  0  0  0  0
  -27.0250  -30.3050   24.6010 C   0  0  0  0  0  1  0  0  0  0  0  0
  -27.6050  -32.4310   25.7470 C   0  0  0  0  0  1  0  0  0  0  0  0
  1  5  1  0
  3  1  1  0
  3  6  1  0
  4  2  1  0
  5 54  1  0
  5  2  1  0
  6  7  1  0
  6  4  1  0
  8  7  1  0
  9 10  1  0
  9  7  1  0
 10 11  1  0
 11 12  1  0
 11 13  1  0
 14 11  1  0
 14 15  1  0
 16 24  1  0
 17 22  1  0
 18 19  1  0
 18 17  1  0
 20 19  1  0
 20 29  1  0
 20 21  1  0
 22 16  1  0
 22 21  1  0
 23 16  2  0
 24 15  1  0
 24 25  1  0
 26 27  2  0
 27 46  1  0
 28 27  1  0
 28 31  1  0
 29 26  1  0
 29 30  1  0
 30 28  2  0
 31 32  1  0
 32 33  2  0
 34 37  1  0
 34 33  1  0
 35 34  2  0
 36 35  1  0
 36 31  2  0
 37 38  1  0
 38 39  1  0
 39 40  2  0
 41 40  1  0
 41 45  1  0
 42 41  2  0
 43 38  2  0
 43 42  1  0
 44 43  1  0
 46 47  1  0
 47 50  1  0
 47 49  1  0
 48 46  2  0
 51 52  1  0
 51 26  1  0
 53 51  1  0
 55 57  1  0
 55 54  1  0
 56 67  2  0
 57 62  1  0
 58 66  1  0
 58 68  1  0
 59 65  1  0
 59 61  1  0
 60 66  1  0
 61 60  1  0
 62 61  2  0
 63 64  1  0
 63 57  2  0
 64 59  2  0
 65 58  1  0
 66 56  1  0
 68 70  2  0
 69 68  1  0
 71 69  1  0
 72 81  2  0
 72 77  1  0
 73 69  1  0
 73 77  1  0
 74 73  1  0
 75 76  1  0
 75 74  1  0
 76 72  1  0
 77 78  2  0
 78 79  1  0
 80 79  2  0
 81 80  1  0
 82 56  1  0
 82 83  1  0
 82 92  1  0
 83 86  1  0
 84 88  1  0
 84 83  1  0
 85 84  2  0
 88 87  1  0
 90 88  1  0
 90 91  1  0
 90 89  1  0
 92 95  1  1
 92 93  1  0
 94 92  1  0
M  ISO  4  16 100  24 100  54 101  55 101
M  END
>  <TORSDO>  (84) 
F 23

>  <SCORE>  (84) 
-12.610

>  <name>  (84) 
83

>  <ligand_id>  (84) 
83

>  <original_smiles>  (84) 
[H]c1c([H])c([H])c2c(c1[H])C([H])([H])C([H])([H])C([H])([H])C2([H])N([H])C(=O)C1([H])N(C(=O)C([H])(N([H])C(=O)C([H])(N([H])C([H])([H])[H])C([H])([H])[H])C(C([H])([H])[H])(C([H])([H])[H])C([H])([H])[H])C([H])([H])c2c([H])c(OC([H])([H])C3([H])C([H])([H])C([H])([H])C([H])(N([H])C([H])([H])C([H])([H])[N+]([H])([H])C([H])([H])C([H])([H])N([H])C(=O)N4C([H])([H])C([H])([H])C([H])([H])C([H])(n5nc(-c6c([H])c([H])c(Oc7c([H])c([H])c(F)c([H])c7F)c([H])c6[H])c(C(=O)N([H])[H])c5N([H])[H])C4([H])[H])C([H])([H])C3([H])[H])c([H])c([H])c2C1([H])[H]

>  <smiles>  (84) 
[H]c1c([H])c([H])c2c(c1[H])C([H])([H])C([H])([H])C([H])([H])C2([H])N([H])C(=O)C1([H])N(C(=O)C([H])(N([H])C(=O)C([H])(N([H])C([H])([H])[H])C([H])([H])[H])C(C([H])([H])[H])(C([H])([H])[H])C([H])([H])[H])C([H])([H])c2c([H])c(OC([H])([H])C3([H])C([H])([H])C([H])([H])C([H])(N([H])C([H])([H])C([H])([H])[N+]([H])([H])C([H])([H])C([H])([H])N([H])C(=O)N4C([H])([H])C([H])([H])C([H])([H])C([H])(n5nc(-c6c([H])c([H])c(Oc7c([H])c([H])c(F)c([H])c7F)c([H])c6[H])c(C(=O)N([H])[H])c5N([H])[H])C4([H])[H])C([H])([H])C3([H])[H])c([H])c([H])c2C1([H])[H]

$$$$
84:0:0
     RDKit          3D

 91 99  0  0  1  0  0  0  0  0999 V2000
  -30.1160  -21.2900   20.3530 C   0  0  0  0  0  3  0  0  0  0  0  0
  -29.2070  -22.3630   20.2550 C   0  0  0  0  0  0  0  0  0  0  0  0
  -28.0110  -21.7010   19.7960 C   0  0  0  0  0  0  0  0  0  0  0  0
  -28.2500  -20.3460   19.6370 C   0  0  0  0  0  0  0  0  0  0  0  0
  -26.6780  -22.3530   19.4920 C   0  0  0  0  0  1  0  0  0  0  0  0
  -27.3000  -19.2940   19.1380 C   0  0  0  0  0  1  0  0  0  0  0  0
  -29.5750  -20.0350   19.9400 N   0  0  0  0  0  0  0  0  0  0  0  0
  -30.8710  -24.3670   20.5510 C   0  0  0  0  0  1  0  0  0  0  0  0
  -29.3880  -23.9400   20.6020 C   0  0  0  0  0  3  0  0  0  0  0  0
  -28.4540  -25.0650   19.8760 C   0  0  0  0  0  2  0  0  0  0  0  0
  -28.5680  -26.5350   20.1220 O   0  0  0  0  0  0  0  0  0  0  0  0
  -24.5320  -31.7170   23.1420 C   0  0  0  0  0  0  0  0  0  0  0  0
  -27.4060  -27.3410   20.0350 C   0  0  0  0  0  0  0  0  0  0  0  0
  -23.4110  -30.3220   21.4320 C   0  0  0  0  0  3  0  0  0  0  0  0
  -24.9580  -28.8590   19.9990 C   0  0  0  0  0  0  0  0  0  0  0  0
  -25.9380  -30.7320   21.3290 C   0  0  0  0  0  2  0  0  0  0  0  0
  -26.0900  -29.3760   20.6390 C   0  0  0  0  0  0  0  0  0  0  0  0
  -27.3080  -28.6320   20.6510 C   0  0  0  0  0  3  0  0  0  0  0  0
  -26.2450  -26.8880   19.3590 C   0  0  0  0  0  3  0  0  0  0  0  0
  -25.0370  -27.6190   19.3450 C   0  0  0  0  0  3  0  0  0  0  0  0
  -23.6830  -29.6810   20.0420 C   0  0  0  0  0  2  0  0  0  0  0  0
  -24.6410  -30.9400   22.0240 N   0  0  0  0  0  0  0  0  0  0  0  0
  -23.4320  -31.9540   23.6610 O   0  0  0  0  0  0  0  0  0  0  0  0
  -22.7570  -29.2630   22.3550 C   0  0  0  0  0  0  0  0  0  0  0  0
  -21.4360  -29.0770   22.2110 N   0  0  0  0  0  0  0  0  0  0  0  0
  -23.4390  -28.6140   23.1530 O   0  0  0  0  0  0  0  0  0  0  0  0
  -20.9530  -29.6530   21.5370 H   0  0  0  0  0  0  0  0  0  0  0  0
  -18.0530  -27.8860   22.7140 C   0  0  0  0  0  0  0  0  0  0  0  0
  -20.6210  -28.1010   22.9390 C   0  0  0  0  0  3  0  0  0  0  0  0
  -20.6910  -26.7120   22.2680 C   0  0  0  0  0  2  0  0  0  0  0  0
  -19.5610  -26.4670   21.2640 C   0  0  0  0  0  2  0  0  0  0  0  0
  -18.1950  -26.5820   21.9460 C   0  0  0  0  0  2  0  0  0  0  0  0
  -19.1920  -28.6070   23.1620 C   0  0  0  0  0  0  0  0  0  0  0  0
  -19.0050  -29.8310   23.8400 C   0  0  0  0  0  3  0  0  0  0  0  0
  -17.7130  -30.3400   24.0660 C   0  0  0  0  0  3  0  0  0  0  0  0
  -16.5880  -29.6170   23.6310 C   0  0  0  0  0  3  0  0  0  0  0  0
  -16.7590  -28.3900   22.9650 C   0  0  0  0  0  3  0  0  0  0  0  0
  -25.7870  -32.3570   23.8120 C   0  0  0  0  0  3  0  0  0  0  0  0
  -26.2690  -31.5850   25.1030 C   0  0  1  0  0  0  0  0  0  0  0  0
  -25.1330  -31.3200   26.1220 C   0  0  0  0  0  1  0  0  0  0  0  0
  -26.9000  -30.2230   24.7270 C   0  0  0  0  0  1  0  0  0  0  0  0
  -27.3770  -32.3990   25.8140 C   0  0  0  0  0  1  0  0  0  0  0  0
  -25.4510  -33.7490   24.1410 N   0  0  0  0  0  0  0  0  0  0  0  0
  -25.7910  -34.8100   23.3990 C   0  0  0  0  0  0  0  0  0  0  0  0
  -26.4960  -34.7200   22.3900 O   0  0  0  0  0  0  0  0  0  0  0  0
  -24.8170  -33.8920   24.9130 H   0  0  0  0  0  0  0  0  0  0  0  0
  -24.0420  -36.5740   22.9990 C   0  0  0  0  0  1  0  0  0  0  0  0
  -25.2620  -36.1880   23.8460 C   0  0  0  0  0  3  0  0  0  0  0  0
  -27.3450  -37.1060   24.7590 C   0  0  0  0  0  1  0  0  0  0  0  0
  -26.2800  -37.2590   23.7710 N   0  0  0  0  0  0  0  0  0  0  0  0
  -25.8570  -38.1740   23.8950 H   0  0  0  0  0  0  0  0  0  0  0  0
  -30.2720  -18.6730   19.6580 C   0  0  0  0  0  2  0  0  0  0  0  0
  -30.4260  -17.4690   20.7400 C   0  0  0  0  0  2  0  0  0  0  0  0
  -30.9050  -14.8920   20.0390 C   0  0  0  0  0  0  0  0  0  0  0  0
  -30.6710  -12.6330   18.9570 C   0  0  0  0  0  2  0  0  0  0  0  0
  -29.6590  -12.6860   17.7870 C   0  0  0  0  0  2  0  0  0  0  0  0
  -28.2060  -12.5420   18.2820 C   0  0  0  0  0  2  0  0  0  0  0  0
  -27.9040  -13.4180   19.5270 C   0  0  0  0  0  3  0  0  0  0  0  0
  -29.0140  -13.2870   20.5890 C   0  0  0  0  0  2  0  0  0  0  0  0
  -30.2770  -13.6660   19.9430 N   0  0  0  0  0  0  0  0  0  0  0  0
  -32.0780  -15.0150   19.6740 O   0  0  0  0  0  0  0  0  0  0  0  0
  -30.1280  -15.9950   20.3760 N   0  0  0  0  0  0  0  0  0  0  0  0
  -29.1620  -15.7380   20.5270 H   0  0  0  0  0  0  0  0  0  0  0  0
  -25.5690  -14.0480   20.3910 C   0  0  0  0  0  0  0  0  0  0  0  0
  -24.5050  -13.2910   20.7920 C   0  0  0  0  0  0  0  0  0  0  0  0
  -24.9320  -11.9310   20.7030 C   0  0  0  0  0  0  0  0  0  0  0  0
  -26.5790  -13.1530   20.0780 N   0  0  0  0  0  0  0  0  0  0  0  0
  -26.2040  -11.8700   20.3310 N   0  0  0  0  0  0  0  0  0  0  0  0
  -24.1840  -10.6810   20.8950 C   0  0  0  0  0  0  0  0  0  0  0  0
  -24.6030   -9.7020   21.8230 C   0  0  0  0  0  3  0  0  0  0  0  0
  -23.8530   -8.5200   22.0020 C   0  0  0  0  0  3  0  0  0  0  0  0
  -22.6730   -8.3060   21.2510 C   0  0  0  0  0  0  0  0  0  0  0  0
  -22.2730   -9.2720   20.3090 C   0  0  0  0  0  3  0  0  0  0  0  0
  -23.0250  -10.4470   20.1310 C   0  0  0  0  0  3  0  0  0  0  0  0
  -21.8960   -7.1750   21.3420 O   0  0  0  0  0  0  0  0  0  0  0  0
  -21.8000   -6.4580   22.5060 C   0  0  0  0  0  0  0  0  0  0  0  0
  -21.3140   -7.0330   23.7010 C   0  0  0  0  0  3  0  0  0  0  0  0
  -21.1690   -6.2400   24.8550 C   0  0  0  0  0  3  0  0  0  0  0  0
  -21.5020   -4.8710   24.8190 C   0  0  0  0  0  0  0  0  0  0  0  0
  -21.9800   -4.2950   23.6270 C   0  0  0  0  0  3  0  0  0  0  0  0
  -22.1250   -5.0850   22.4750 C   0  0  0  0  0  0  0  0  0  0  0  0
  -22.5660   -4.5190   21.3250 F   0  0  0  0  0  0  0  0  0  0  0  0
  -21.3560   -4.1080   25.9250 F   0  0  0  0  0  0  0  0  0  0  0  0
  -23.1330  -13.7920   21.1460 C   0  0  0  0  0  0  0  0  0  0  0  0
  -22.4330  -13.0910   22.0300 N   0  0  0  0  0  0  0  0  0  0  0  0
  -22.6920  -14.8380   20.6690 O   0  0  0  0  0  0  0  0  0  0  0  0
  -22.8050  -12.2460   22.4390 H   0  0  0  0  0  0  0  0  0  0  0  0
  -21.5120  -13.4010   22.3050 H   0  0  0  0  0  0  0  0  0  0  0  0
  -25.7540  -15.4230   20.2460 N   0  0  0  0  0  0  0  0  0  0  0  0
  -25.0010  -16.0810   20.4130 H   0  0  0  0  0  0  0  0  0  0  0  0
  -26.5840  -15.8610   19.8680 H   0  0  0  0  0  0  0  0  0  0  0  0
  2  1  2  0
  2  9  1  0
  3  2  1  0
  4  3  2  0
  4  7  1  0
  5  3  1  0
  6  4  1  0
  7  1  1  0
  9  8  1  0
 10 11  1  0
 10  9  1  0
 12 23  2  0
 13 11  1  0
 13 18  1  0
 14 22  1  0
 14 24  1  0
 15 21  1  0
 15 17  1  0
 16 22  1  0
 17 18  2  0
 17 16  1  0
 19 13  2  0
 20 19  1  0
 20 15  2  0
 21 14  1  0
 22 12  1  0
 24 26  2  0
 25 24  1  0
 27 25  1  0
 28 37  2  0
 28 33  1  0
 29 25  1  0
 29 33  1  0
 30 29  1  0
 31 32  1  0
 31 30  1  0
 32 28  1  0
 33 34  2  0
 34 35  1  0
 36 35  2  0
 37 36  1  0
 38 12  1  0
 38 43  1  0
 38 39  1  0
 39 42  1  1
 39 40  1  0
 41 39  1  0
 43 46  1  0
 44 48  1  0
 44 43  1  0
 45 44  2  0
 48 47  1  0
 50 48  1  0
 50 51  1  0
 50 49  1  0
 52  7  1  0
 52 53  1  0
 54 62  1  0
 55 60  1  0
 56 57  1  0
 56 55  1  0
 58 57  1  0
 58 67  1  0
 58 59  1  0
 60 54  1  0
 60 59  1  0
 61 54  2  0
 62 63  1  0
 62 53  1  0
 64 65  2  0
 65 84  1  0
 66 65  1  0
 66 69  1  0
 67 68  1  0
 67 64  1  0
 68 66  2  0
 69 70  1  0
 70 71  2  0
 72 75  1  0
 72 71  1  0
 73 72  2  0
 74 73  1  0
 74 69  2  0
 75 76  1  0
 76 77  1  0
 77 78  2  0
 79 78  1  0
 79 83  1  0
 80 79  2  0
 81 76  2  0
 81 80  1  0
 82 81  1  0
 84 85  1  0
 85 88  1  0
 85 87  1  0
 86 84  2  0
 89 64  1  0
 89 90  1  0
 91 89  1  0
M  ISO  4  10 101  11 101  54 100  62 100
M  END
>  <TORSDO>  (85) 
F 20

>  <SCORE>  (85) 
-13.554

>  <name>  (85) 
84

>  <ligand_id>  (85) 
84

>  <original_smiles>  (85) 
[H]c1c([H])c([H])c2c(c1[H])C([H])([H])C([H])([H])C([H])([H])C2([H])N([H])C(=O)C1([H])N(C(=O)C([H])(N([H])C(=O)C([H])(N([H])C([H])([H])[H])C([H])([H])[H])C(C([H])([H])[H])(C([H])([H])[H])C([H])([H])[H])C([H])([H])c2c([H])c(OC([H])([H])C([H])(c3c(C([H])([H])[H])c(C([H])([H])[H])n(C([H])([H])C([H])([H])N([H])C(=O)N4C([H])([H])C([H])([H])C([H])([H])C([H])(n5nc(-c6c([H])c([H])c(Oc7c([H])c([H])c(F)c([H])c7F)c([H])c6[H])c(C(=O)N([H])[H])c5N([H])[H])C4([H])[H])c3[H])C([H])([H])[H])c([H])c([H])c2C1([H])[H]

>  <smiles>  (85) 
[H]c1c([H])c([H])c2c(c1[H])C([H])([H])C([H])([H])C([H])([H])C2([H])N([H])C(=O)C1([H])N(C(=O)C([H])(N([H])C(=O)C([H])(N([H])C([H])([H])[H])C([H])([H])[H])C(C([H])([H])[H])(C([H])([H])[H])C([H])([H])[H])C([H])([H])c2c([H])c(OC([H])([H])C([H])(c3c(C([H])([H])[H])c(C([H])([H])[H])n(C([H])([H])C([H])([H])N([H])C(=O)N4C([H])([H])C([H])([H])C([H])([H])C([H])(n5nc(-c6c([H])c([H])c(Oc7c([H])c([H])c(F)c([H])c7F)c([H])c6[H])c(C(=O)N([H])[H])c5N([H])[H])C4([H])[H])c3[H])C([H])([H])[H])c([H])c([H])c2C1([H])[H]

$$$$
85:0:0
     RDKit          3D

 93101  0  0  1  0  0  0  0  0999 V2000
  -29.1770  -18.9740   18.0730 C   0  0  0  0  0  2  0  0  0  0  0  0
  -27.8150  -19.4150   17.4960 C   0  0  0  0  0  2  0  0  0  0  0  0
  -26.9320  -20.0950   19.7310 C   0  0  0  0  0  2  0  0  0  0  0  0
  -29.3330  -19.1780   19.6070 C   0  0  0  0  0  3  0  0  0  0  0  0
  -28.4250  -20.3410   20.0980 C   0  0  0  0  0  3  0  0  0  0  0  0
  -26.7330  -19.2990   18.4940 N   0  0  0  0  0  4  0  0  0  0  0  0
  -26.6470  -18.3280   18.7470 H   0  0  0  0  0  0  0  0  0  0  0  0
  -25.8560  -19.5620   18.0720 H   0  0  0  0  0  0  0  0  0  0  0  0
  -29.1070  -17.8510   20.3930 C   0  0  0  0  0  2  0  0  0  0  0  0
  -30.3000  -16.8710   20.3100 C   0  0  0  0  0  2  0  0  0  0  0  0
  -30.6970  -14.4350   20.3900 C   0  0  0  0  0  0  0  0  0  0  0  0
  -30.3680  -12.2930   19.2440 C   0  0  0  0  0  2  0  0  0  0  0  0
  -29.4330  -12.5490   18.0440 C   0  0  0  0  0  2  0  0  0  0  0  0
  -27.9530  -12.4530   18.4660 C   0  0  0  0  0  2  0  0  0  0  0  0
  -27.6340  -13.2600   19.7540 C   0  0  0  0  0  3  0  0  0  0  0  0
  -28.6880  -12.9910   20.8550 C   0  0  0  0  0  2  0  0  0  0  0  0
  -30.0160  -13.2660   20.2860 N   0  0  0  0  0  0  0  0  0  0  0  0
  -31.8510  -14.5870   19.9810 O   0  0  0  0  0  0  0  0  0  0  0  0
  -29.9460  -15.5020   20.7070 N   0  0  0  0  0  0  0  0  0  0  0  0
  -29.0040  -15.3230   21.0190 H   0  0  0  0  0  0  0  0  0  0  0  0
  -25.2310  -13.8840   20.4360 C   0  0  0  0  0  0  0  0  0  0  0  0
  -24.1570  -13.1190   20.8050 C   0  0  0  0  0  0  0  0  0  0  0  0
  -24.6150  -11.7660   20.7940 C   0  0  0  0  0  0  0  0  0  0  0  0
  -26.2760  -12.9970   20.2270 N   0  0  0  0  0  0  0  0  0  0  0  0
  -25.9070  -11.7190   20.4970 N   0  0  0  0  0  0  0  0  0  0  0  0
  -23.8820  -10.5090   20.9930 C   0  0  0  0  0  0  0  0  0  0  0  0
  -24.2960   -9.5540   21.9490 C   0  0  0  0  0  3  0  0  0  0  0  0
  -23.5630   -8.3620   22.1320 C   0  0  0  0  0  3  0  0  0  0  0  0
  -22.4020   -8.1160   21.3620 C   0  0  0  0  0  0  0  0  0  0  0  0
  -22.0070   -9.0600   20.3980 C   0  0  0  0  0  3  0  0  0  0  0  0
  -22.7400  -10.2430   20.2110 C   0  0  0  0  0  3  0  0  0  0  0  0
  -21.6450   -6.9720   21.4530 O   0  0  0  0  0  0  0  0  0  0  0  0
  -21.5740   -6.2480   22.6170 C   0  0  0  0  0  0  0  0  0  0  0  0
  -21.1170   -6.8210   23.8240 C   0  0  0  0  0  3  0  0  0  0  0  0
  -20.9950   -6.0240   24.9790 C   0  0  0  0  0  3  0  0  0  0  0  0
  -21.3190   -4.6550   24.9290 C   0  0  0  0  0  0  0  0  0  0  0  0
  -21.7690   -4.0810   23.7270 C   0  0  0  0  0  3  0  0  0  0  0  0
  -21.8920   -4.8750   22.5730 C   0  0  0  0  0  0  0  0  0  0  0  0
  -22.3060   -4.3130   21.4110 F   0  0  0  0  0  0  0  0  0  0  0  0
  -21.1940   -3.8860   26.0360 F   0  0  0  0  0  0  0  0  0  0  0  0
  -22.7590  -13.6050   21.0630 C   0  0  0  0  0  0  0  0  0  0  0  0
  -22.0210  -12.9210   21.9290 N   0  0  0  0  0  0  0  0  0  0  0  0
  -22.3300  -14.6290   20.5310 O   0  0  0  0  0  0  0  0  0  0  0  0
  -22.3780  -12.0900   22.3790 H   0  0  0  0  0  0  0  0  0  0  0  0
  -21.0850  -13.2320   22.1460 H   0  0  0  0  0  0  0  0  0  0  0  0
  -25.4050  -15.2510   20.2440 N   0  0  0  0  0  0  0  0  0  0  0  0
  -24.6550  -15.9200   20.3800 H   0  0  0  0  0  0  0  0  0  0  0  0
  -26.2820  -15.6740   19.9750 H   0  0  0  0  0  0  0  0  0  0  0  0
  -28.9270  -21.7410   19.6350 C   0  0  0  0  0  2  0  0  0  0  0  0
  -28.4260  -22.9170   20.5030 C   0  0  0  0  0  2  0  0  0  0  0  0
  -28.7820  -24.3070   19.9330 C   0  0  0  0  0  2  0  0  0  0  0  0
  -28.3760  -25.4490   20.8800 C   0  0  0  0  0  2  0  0  0  0  0  0
  -28.5050  -26.7340   20.2550 O   0  0  0  0  0  0  0  0  0  0  0  0
  -24.6120  -31.8720   23.2370 C   0  0  0  0  0  0  0  0  0  0  0  0
  -27.3400  -27.4620   20.2120 C   0  0  0  0  0  0  0  0  0  0  0  0
  -23.4440  -30.4620   21.5740 C   0  0  0  0  0  3  0  0  0  0  0  0
  -24.9350  -28.9350   20.1750 C   0  0  0  0  0  0  0  0  0  0  0  0
  -25.9680  -30.8480   21.4140 C   0  0  0  0  0  2  0  0  0  0  0  0
  -26.0770  -29.4760   20.7790 C   0  0  0  0  0  0  0  0  0  0  0  0
  -27.2850  -28.7460   20.7920 C   0  0  0  0  0  3  0  0  0  0  0  0
  -26.1860  -26.9320   19.5960 C   0  0  0  0  0  3  0  0  0  0  0  0
  -24.9820  -27.6630   19.5810 C   0  0  0  0  0  3  0  0  0  0  0  0
  -23.6820  -29.7810   20.1980 C   0  0  0  0  0  2  0  0  0  0  0  0
  -24.6920  -31.0730   22.1350 N   0  0  0  0  0  0  0  0  0  0  0  0
  -23.5200  -32.1360   23.7590 O   0  0  0  0  0  0  0  0  0  0  0  0
  -22.7860  -29.4360   22.5230 C   0  0  0  0  0  0  0  0  0  0  0  0
  -21.4610  -29.2610   22.3880 N   0  0  0  0  0  0  0  0  0  0  0  0
  -23.4620  -28.7980   23.3340 O   0  0  0  0  0  0  0  0  0  0  0  0
  -20.9770  -29.8280   21.7060 H   0  0  0  0  0  0  0  0  0  0  0  0
  -18.0720  -28.1090   22.8780 C   0  0  0  0  0  0  0  0  0  0  0  0
  -20.6340  -28.3230   23.1470 C   0  0  0  0  0  3  0  0  0  0  0  0
  -20.7140  -26.9000   22.5460 C   0  0  0  0  0  2  0  0  0  0  0  0
  -19.6020  -26.6130   21.5310 C   0  0  0  0  0  2  0  0  0  0  0  0
  -18.2250  -26.7680   22.1820 C   0  0  0  0  0  2  0  0  0  0  0  0
  -19.2030  -28.8470   23.3180 C   0  0  0  0  0  0  0  0  0  0  0  0
  -19.0070  -30.1050   23.9290 C   0  0  0  0  0  3  0  0  0  0  0  0
  -17.7110  -30.6240   24.1060 C   0  0  0  0  0  3  0  0  0  0  0  0
  -16.5930  -29.8820   23.6850 C   0  0  0  0  0  3  0  0  0  0  0  0
  -16.7760  -28.6270   23.0760 C   0  0  0  0  0  3  0  0  0  0  0  0
  -25.8830  -32.5110   23.8800 C   0  0  0  0  0  3  0  0  0  0  0  0
  -25.5630  -33.9090   24.1990 N   0  0  0  0  0  0  0  0  0  0  0  0
  -25.8990  -34.9580   23.4350 C   0  0  0  0  0  0  0  0  0  0  0  0
  -26.5840  -34.8520   22.4150 O   0  0  0  0  0  0  0  0  0  0  0  0
  -24.9590  -34.0660   24.9920 H   0  0  0  0  0  0  0  0  0  0  0  0
  -24.1680  -36.7380   23.0400 C   0  0  0  0  0  1  0  0  0  0  0  0
  -25.3960  -36.3470   23.8760 C   0  0  0  0  0  3  0  0  0  0  0  0
  -27.5100  -37.2470   24.7430 C   0  0  0  0  0  1  0  0  0  0  0  0
  -26.4250  -37.4040   23.7770 N   0  0  0  0  0  0  0  0  0  0  0  0
  -26.0120  -38.3230   23.9130 H   0  0  0  0  0  0  0  0  0  0  0  0
  -26.3820  -31.7440   25.1640 C   0  0  1  0  0  0  0  0  0  0  0  0
  -25.2720  -31.4990   26.2130 C   0  0  0  0  0  1  0  0  0  0  0  0
  -26.9780  -30.3710   24.7780 C   0  0  0  0  0  1  0  0  0  0  0  0
  -27.5180  -32.5420   25.8460 C   0  0  0  0  0  1  0  0  0  0  0  0
  1  4  1  0
  2  1  1  0
  2  6  1  0
  3  5  1  0
  4  5  1  0
  4  9  1  0
  5 49  1  0
  6  7  1  0
  6  3  1  0
  8  6  1  0
 10  9  1  0
 10 19  1  0
 11 19  1  0
 12 17  1  0
 13 14  1  0
 13 12  1  0
 15 14  1  0
 15 24  1  0
 15 16  1  0
 17 11  1  0
 17 16  1  0
 18 11  2  0
 19 20  1  0
 21 22  2  0
 22 41  1  0
 23 22  1  0
 23 26  1  0
 24 21  1  0
 24 25  1  0
 25 23  2  0
 26 27  1  0
 27 28  2  0
 29 32  1  0
 29 28  1  0
 30 29  2  0
 31 30  1  0
 31 26  2  0
 32 33  1  0
 33 34  1  0
 34 35  2  0
 36 35  1  0
 36 40  1  0
 37 36  2  0
 38 33  2  0
 38 37  1  0
 39 38  1  0
 41 42  1  0
 42 45  1  0
 42 44  1  0
 43 41  2  0
 46 47  1  0
 46 21  1  0
 48 46  1  0
 49 50  1  0
 51 50  1  0
 51 52  1  0
 53 52  1  0
 54 65  2  0
 55 53  1  0
 55 60  1  0
 56 64  1  0
 56 66  1  0
 57 63  1  0
 57 59  1  0
 58 64  1  0
 59 60  2  0
 59 58  1  0
 61 55  2  0
 62 61  1  0
 62 57  2  0
 63 56  1  0
 64 54  1  0
 66 68  2  0
 67 66  1  0
 69 67  1  0
 70 79  2  0
 70 75  1  0
 71 67  1  0
 71 75  1  0
 72 71  1  0
 73 74  1  0
 73 72  1  0
 74 70  1  0
 75 76  2  0
 76 77  1  0
 78 77  2  0
 79 78  1  0
 80 54  1  0
 80 81  1  0
 80 90  1  0
 81 84  1  0
 82 86  1  0
 82 81  1  0
 83 82  2  0
 86 85  1  0
 88 86  1  0
 88 89  1  0
 88 87  1  0
 90 93  1  1
 90 91  1  0
 92 90  1  0
M  ISO  4  11 100  19 100  52 101  53 101
M  END
>  <TORSDO>  (86) 
F 22

>  <SCORE>  (86) 
-12.716

>  <name>  (86) 
85

>  <ligand_id>  (86) 
85

>  <original_smiles>  (86) 
[H]c1c([H])c([H])c2c(c1[H])C([H])([H])C([H])([H])C([H])([H])C2([H])N([H])C(=O)C1([H])N(C(=O)C([H])(N([H])C(=O)C([H])(N([H])C([H])([H])[H])C([H])([H])[H])C(C([H])([H])[H])(C([H])([H])[H])C([H])([H])[H])C([H])([H])c2c([H])c(OC([H])([H])C([H])([H])C([H])([H])C([H])([H])C3([H])C([H])(C([H])([H])C([H])([H])N([H])C(=O)N4C([H])([H])C([H])([H])C([H])([H])C([H])(n5nc(-c6c([H])c([H])c(Oc7c([H])c([H])c(F)c([H])c7F)c([H])c6[H])c(C(=O)N([H])[H])c5N([H])[H])C4([H])[H])C([H])([H])C([H])([H])[N+]([H])([H])C3([H])[H])c([H])c([H])c2C1([H])[H]

>  <smiles>  (86) 
[H]c1c([H])c([H])c2c(c1[H])C([H])([H])C([H])([H])C([H])([H])C2([H])N([H])C(=O)C1([H])N(C(=O)C([H])(N([H])C(=O)C([H])(N([H])C([H])([H])[H])C([H])([H])[H])C(C([H])([H])[H])(C([H])([H])[H])C([H])([H])[H])C([H])([H])c2c([H])c(OC([H])([H])C([H])([H])C([H])([H])C([H])([H])C3([H])C([H])(C([H])([H])C([H])([H])N([H])C(=O)N4C([H])([H])C([H])([H])C([H])([H])C([H])(n5nc(-c6c([H])c([H])c(Oc7c([H])c([H])c(F)c([H])c7F)c([H])c6[H])c(C(=O)N([H])[H])c5N([H])[H])C4([H])[H])C([H])([H])C([H])([H])[N+]([H])([H])C3([H])[H])c([H])c([H])c2C1([H])[H]

$$$$
86:0:0
     RDKit          3D

 97106  0  0  1  0  0  0  0  0999 V2000
  -26.6320  -23.0810   19.9240 C   0  0  0  0  0  3  0  0  0  0  0  0
  -23.7460  -24.4290   21.4350 C   0  0  0  0  0  2  0  0  0  0  0  0
  -24.0300  -23.4290   20.3140 C   0  0  0  0  0  2  0  0  0  0  0  0
  -25.2460  -24.4700   21.7170 C   0  0  0  0  0  2  0  0  0  0  0  0
  -25.4360  -23.1810   20.8880 C   0  0  0  0  0  3  0  0  0  0  0  0
  -27.8350  -23.6770   20.5550 N   0  0  0  0  0  4  0  0  0  0  0  0
  -27.4830  -24.1870   21.3510 H   0  0  0  0  0  0  0  0  0  0  0  0
  -28.4360  -22.9560   20.9210 H   0  0  0  0  0  0  0  0  0  0  0  0
  -28.6230  -24.6600   19.7630 C   0  0  0  0  0  2  0  0  0  0  0  0
  -28.9920  -25.8730   20.6550 C   0  0  0  0  0  2  0  0  0  0  0  0
  -28.9070  -27.1610   20.0390 O   0  0  0  0  0  0  0  0  0  0  0  0
  -24.6640  -31.9400   23.2660 C   0  0  0  0  0  0  0  0  0  0  0  0
  -27.6790  -27.7830   20.1040 C   0  0  0  0  0  0  0  0  0  0  0  0
  -23.6020  -30.5170   21.5450 C   0  0  0  0  0  3  0  0  0  0  0  0
  -25.1920  -29.1250   20.1220 C   0  0  0  0  0  0  0  0  0  0  0  0
  -26.1060  -31.0300   21.4500 C   0  0  0  0  0  2  0  0  0  0  0  0
  -26.2960  -29.6910   20.7690 C   0  0  0  0  0  0  0  0  0  0  0  0
  -27.5420  -29.0240   20.7670 C   0  0  0  0  0  3  0  0  0  0  0  0
  -26.5580  -27.2350   19.4410 C   0  0  0  0  0  3  0  0  0  0  0  0
  -25.3170  -27.8940   19.4590 C   0  0  0  0  0  3  0  0  0  0  0  0
  -23.9010  -29.9080   20.1480 C   0  0  0  0  0  2  0  0  0  0  0  0
  -24.8060  -31.1760   22.1470 N   0  0  0  0  0  0  0  0  0  0  0  0
  -23.5510  -32.1270   23.7780 O   0  0  0  0  0  0  0  0  0  0  0  0
  -22.9960  -29.4190   22.4480 C   0  0  0  0  0  0  0  0  0  0  0  0
  -21.6890  -29.1650   22.2740 N   0  0  0  0  0  0  0  0  0  0  0  0
  -23.6940  -28.8090   23.2620 O   0  0  0  0  0  0  0  0  0  0  0  0
  -21.1830  -29.7200   21.5980 H   0  0  0  0  0  0  0  0  0  0  0  0
  -18.3700  -27.7840   22.6600 C   0  0  0  0  0  0  0  0  0  0  0  0
  -20.9080  -28.1480   22.9820 C   0  0  0  0  0  3  0  0  0  0  0  0
  -21.0860  -26.7560   22.3320 C   0  0  0  0  0  2  0  0  0  0  0  0
  -20.0170  -26.4440   21.2790 C   0  0  0  0  0  2  0  0  0  0  0  0
  -18.6210  -26.4840   21.9110 C   0  0  0  0  0  2  0  0  0  0  0  0
  -19.4450  -28.5730   23.1510 C   0  0  0  0  0  0  0  0  0  0  0  0
  -19.1550  -29.7900   23.8030 C   0  0  0  0  0  3  0  0  0  0  0  0
  -17.8260  -30.2230   23.9650 C   0  0  0  0  0  3  0  0  0  0  0  0
  -16.7650  -29.4340   23.4890 C   0  0  0  0  0  3  0  0  0  0  0  0
  -17.0410  -28.2120   22.8490 C   0  0  0  0  0  3  0  0  0  0  0  0
  -25.8900  -32.6260   23.9480 C   0  0  0  0  0  3  0  0  0  0  0  0
  -25.5120  -34.0120   24.2500 N   0  0  0  0  0  0  0  0  0  0  0  0
  -25.8340  -35.0700   23.4930 C   0  0  0  0  0  0  0  0  0  0  0  0
  -26.5550  -34.9840   22.4950 O   0  0  0  0  0  0  0  0  0  0  0  0
  -24.8700  -34.1480   25.0160 H   0  0  0  0  0  0  0  0  0  0  0  0
  -24.0450  -36.7750   23.0220 C   0  0  0  0  0  1  0  0  0  0  0  0
  -25.2590  -36.4380   23.9030 C   0  0  0  0  0  3  0  0  0  0  0  0
  -27.3060  -37.4240   24.8340 C   0  0  0  0  0  1  0  0  0  0  0  0
  -26.2500  -37.5330   23.8300 N   0  0  0  0  0  0  0  0  0  0  0  0
  -25.8000  -38.4370   23.9450 H   0  0  0  0  0  0  0  0  0  0  0  0
  -26.3720  -31.8850   25.2560 C   0  0  1  0  0  0  0  0  0  0  0  0
  -25.2320  -31.5950   26.2610 C   0  0  0  0  0  1  0  0  0  0  0  0
  -27.0380  -30.5340   24.9050 C   0  0  0  0  0  1  0  0  0  0  0  0
  -27.4510  -32.7320   25.9740 C   0  0  0  0  0  1  0  0  0  0  0  0
  -26.8950  -21.6470   19.3990 C   0  0  0  0  0  2  0  0  0  0  0  0
  -27.7900  -20.7260   20.2610 C   0  0  0  0  0  2  0  0  0  0  0  0
  -27.7000  -19.2400   19.8340 C   0  0  0  0  0  2  0  0  0  0  0  0
  -31.3860  -15.0110   19.9040 C   0  0  0  0  0  0  0  0  0  0  0  0
  -31.0490  -12.7550   18.9880 C   0  0  0  0  0  2  0  0  0  0  0  0
  -30.0900  -12.8460   17.7860 C   0  0  0  0  0  2  0  0  0  0  0  0
  -28.6240  -12.7410   18.2500 C   0  0  0  0  0  2  0  0  0  0  0  0
  -28.3000  -13.6980   19.4260 C   0  0  0  0  0  3  0  0  0  0  0  0
  -29.3760  -13.5930   20.5280 C   0  0  0  0  0  2  0  0  0  0  0  0
  -30.6890  -13.8430   19.9100 N   0  0  0  0  0  0  0  0  0  0  0  0
  -32.5240  -15.1020   19.4310 O   0  0  0  0  0  0  0  0  0  0  0  0
  -30.8020  -17.1720   18.9720 C   0  0  0  0  0  2  0  0  0  0  0  0
  -30.2470  -16.7220   21.2840 C   0  0  0  0  0  2  0  0  0  0  0  0
  -29.4720  -17.9040   18.7620 C   0  0  0  0  0  2  0  0  0  0  0  0
  -28.9090  -17.4790   21.1320 C   0  0  0  0  0  2  0  0  0  0  0  0
  -30.6380  -16.1310   19.9970 N   0  0  0  0  0  0  0  0  0  0  0  0
  -28.9680  -18.4840   20.0330 N   0  0  2  0  0  4  0  0  0  0  0  0
  -29.6660  -19.1530   20.3260 H   0  0  0  0  0  0  0  0  0  0  0  0
  -25.9500  -14.3740   20.2330 C   0  0  0  0  0  0  0  0  0  0  0  0
  -24.8770  -13.6380   20.6490 C   0  0  0  0  0  0  0  0  0  0  0  0
  -25.2900  -12.2690   20.5810 C   0  0  0  0  0  0  0  0  0  0  0  0
  -26.9580  -13.4640   19.9550 N   0  0  0  0  0  0  0  0  0  0  0  0
  -26.5650  -12.1910   20.2210 N   0  0  0  0  0  0  0  0  0  0  0  0
  -24.5290  -11.0300   20.7830 C   0  0  0  0  0  0  0  0  0  0  0  0
  -24.8850  -10.0970   21.7810 C   0  0  0  0  0  3  0  0  0  0  0  0
  -24.1240   -8.9240   21.9690 C   0  0  0  0  0  3  0  0  0  0  0  0
  -22.9940   -8.6730   21.1540 C   0  0  0  0  0  0  0  0  0  0  0  0
  -22.6590   -9.5920   20.1450 C   0  0  0  0  0  3  0  0  0  0  0  0
  -23.4200  -10.7580   19.9560 C   0  0  0  0  0  3  0  0  0  0  0  0
  -22.2140   -7.5480   21.2450 O   0  0  0  0  0  0  0  0  0  0  0  0
  -21.9900   -6.9220   22.4450 C   0  0  0  0  0  0  0  0  0  0  0  0
  -21.4050   -7.5970   23.5400 C   0  0  0  0  0  3  0  0  0  0  0  0
  -21.1290   -6.8980   24.7330 C   0  0  0  0  0  3  0  0  0  0  0  0
  -21.4290   -5.5270   24.8320 C   0  0  0  0  0  0  0  0  0  0  0  0
  -22.0080   -4.8530   23.7430 C   0  0  0  0  0  3  0  0  0  0  0  0
  -22.2850   -5.5490   22.5540 C   0  0  0  0  0  0  0  0  0  0  0  0
  -22.8240   -4.8890   21.4990 F   0  0  0  0  0  0  0  0  0  0  0  0
  -21.1570   -4.8540   25.9740 F   0  0  0  0  0  0  0  0  0  0  0  0
  -23.5080  -14.1580   20.9840 C   0  0  0  0  0  0  0  0  0  0  0  0
  -22.8030  -13.4940   21.8900 N   0  0  0  0  0  0  0  0  0  0  0  0
  -23.0770  -15.1900   20.4690 O   0  0  0  0  0  0  0  0  0  0  0  0
  -23.1660  -12.6590   22.3280 H   0  0  0  0  0  0  0  0  0  0  0  0
  -21.8870  -13.8280   22.1560 H   0  0  0  0  0  0  0  0  0  0  0  0
  -26.1390  -15.7410   20.0340 N   0  0  0  0  0  0  0  0  0  0  0  0
  -25.3060  -16.3200   20.0300 H   0  0  0  0  0  0  0  0  0  0  0  0
  -26.8180  -16.0380   19.3480 H   0  0  0  0  0  0  0  0  0  0  0  0
  1 52  1  0
  1  6  1  0
  1  5  1  0
  2  4  1  0
  3  5  1  0
  3  2  1  0
  5  4  1  0
  6  8  1  0
  6  7  1  0
  9  6  1  0
  9 10  1  0
 11 13  1  0
 11 10  1  0
 12 23  2  0
 13 18  1  0
 14 22  1  0
 14 24  1  0
 15 21  1  0
 15 17  1  0
 16 22  1  0
 17 16  1  0
 18 17  2  0
 19 20  1  0
 19 13  2  0
 20 15  2  0
 21 14  1  0
 22 12  1  0
 24 26  2  0
 25 24  1  0
 27 25  1  0
 28 37  2  0
 28 33  1  0
 29 25  1  0
 29 33  1  0
 30 29  1  0
 31 32  1  0
 31 30  1  0
 32 28  1  0
 33 34  2  0
 34 35  1  0
 36 35  2  0
 37 36  1  0
 38 12  1  0
 38 39  1  0
 38 48  1  0
 39 42  1  0
 40 44  1  0
 40 39  1  0
 41 40  2  0
 44 43  1  0
 46 44  1  0
 46 47  1  0
 46 45  1  0
 48 51  1  1
 48 49  1  0
 50 48  1  0
 52 53  1  0
 54 68  1  0
 54 53  1  0
 55 61  1  0
 55 67  1  0
 56 61  1  0
 57 58  1  0
 57 56  1  0
 59 58  1  0
 59 73  1  0
 59 60  1  0
 61 60  1  0
 62 55  2  0
 63 67  1  0
 65 63  1  0
 65 68  1  0
 66 64  1  0
 67 64  1  0
 68 69  1  1
 68 66  1  0
 70 71  2  0
 71 90  1  0
 72 71  1  0
 72 75  1  0
 73 74  1  0
 73 70  1  0
 74 72  2  0
 75 76  1  0
 76 77  2  0
 78 81  1  0
 78 77  1  0
 79 78  2  0
 80 79  1  0
 80 75  2  0
 81 82  1  0
 82 87  2  0
 82 83  1  0
 83 84  2  0
 84 85  1  0
 85 89  1  0
 86 85  2  0
 87 86  1  0
 88 87  1  0
 90 91  1  0
 91 94  1  0
 91 93  1  0
 92 90  2  0
 95 70  1  0
 96 95  1  0
 97 95  1  0
M  ISO  4  10 101  11 101  55 100  67 100
M  END
>  <TORSDO>  (87) 
F 23

>  <SCORE>  (87) 
-11.588

>  <name>  (87) 
86

>  <ligand_id>  (87) 
86

>  <original_smiles>  (87) 
[H]c1c([H])c([H])c2c(c1[H])C([H])([H])C([H])([H])C([H])([H])C2([H])N([H])C(=O)C1([H])N(C(=O)C([H])(N([H])C(=O)C([H])(N([H])C([H])([H])[H])C([H])([H])[H])C(C([H])([H])[H])(C([H])([H])[H])C([H])([H])[H])C([H])([H])c2c([H])c(OC([H])([H])C([H])([H])[N+]([H])([H])C([H])(C([H])([H])C([H])([H])C([H])([H])[N+]3([H])C([H])([H])C([H])([H])N(C(=O)N4C([H])([H])C([H])([H])C([H])([H])C([H])(n5nc(-c6c([H])c([H])c(Oc7c([H])c([H])c(F)c([H])c7F)c([H])c6[H])c(C(=O)N([H])[H])c5N([H])[H])C4([H])[H])C([H])([H])C3([H])[H])C3([H])C([H])([H])C([H])([H])C3([H])[H])c([H])c([H])c2C1([H])[H]

>  <smiles>  (87) 
[H]c1c([H])c([H])c2c(c1[H])C([H])([H])C([H])([H])C([H])([H])C2([H])N([H])C(=O)C1([H])N(C(=O)C([H])(N([H])C(=O)C([H])(N([H])C([H])([H])[H])C([H])([H])[H])C(C([H])([H])[H])(C([H])([H])[H])C([H])([H])[H])C([H])([H])c2c([H])c(OC([H])([H])C([H])([H])[N+]([H])([H])C([H])(C([H])([H])C([H])([H])C([H])([H])[N+]3([H])C([H])([H])C([H])([H])N(C(=O)N4C([H])([H])C([H])([H])C([H])([H])C([H])(n5nc(-c6c([H])c([H])c(Oc7c([H])c([H])c(F)c([H])c7F)c([H])c6[H])c(C(=O)N([H])[H])c5N([H])[H])C4([H])[H])C([H])([H])C3([H])[H])C3([H])C([H])([H])C([H])([H])C3([H])[H])c([H])c([H])c2C1([H])[H]

$$$$
87:0:0
     RDKit          3D

 95103  0  0  1  0  0  0  0  0999 V2000
  -27.5970  -22.1370   19.7670 C   0  0  0  0  0  3  0  0  0  0  0  0
  -27.2580  -23.4890   20.0600 C   0  0  0  0  0  3  0  0  0  0  0  0
  -28.9240  -21.9380   20.0310 C   0  0  0  0  0  0  0  0  0  0  0  0
  -28.3730  -24.1460   20.5050 C   0  0  0  0  0  0  0  0  0  0  0  0
  -29.4080  -23.1780   20.5090 N   0  0  0  0  0  0  0  0  0  0  0  0
  -29.7600  -20.6720   19.7490 C   0  0  0  0  0  2  0  0  0  0  0  0
  -29.7230  -19.5590   20.7550 N   0  0  0  0  0  4  0  0  0  0  0  0
  -28.8950  -19.6770   21.3140 H   0  0  0  0  0  0  0  0  0  0  0  0
  -30.5140  -19.6800   21.3630 H   0  0  0  0  0  0  0  0  0  0  0  0
  -29.7250  -18.1470   20.2160 C   0  0  0  0  0  3  0  0  0  0  0  0
  -30.2250  -17.0430   21.2230 C   0  0  0  0  0  3  0  0  0  0  0  0
  -30.6270  -14.6010   20.4480 C   0  0  0  0  0  0  0  0  0  0  0  0
  -30.3790  -12.4020   19.3220 C   0  0  0  0  0  2  0  0  0  0  0  0
  -29.4330  -12.5570   18.1110 C   0  0  0  0  0  2  0  0  0  0  0  0
  -27.9580  -12.4140   18.5380 C   0  0  0  0  0  2  0  0  0  0  0  0
  -27.6110  -13.2700   19.7850 C   0  0  0  0  0  3  0  0  0  0  0  0
  -28.6630  -13.0780   20.8970 C   0  0  0  0  0  2  0  0  0  0  0  0
  -29.9800  -13.4040   20.3250 N   0  0  0  0  0  0  0  0  0  0  0  0
  -31.7780  -14.7770   20.0390 O   0  0  0  0  0  0  0  0  0  0  0  0
  -29.8670  -15.6290   20.9050 N   0  0  0  0  0  0  0  0  0  0  0  0
  -28.9260  -15.3610   21.1510 H   0  0  0  0  0  0  0  0  0  0  0  0
  -25.2150  -13.8950   20.4810 C   0  0  0  0  0  0  0  0  0  0  0  0
  -24.1420  -13.1320   20.8540 C   0  0  0  0  0  0  0  0  0  0  0  0
  -24.5960  -11.7780   20.8380 C   0  0  0  0  0  0  0  0  0  0  0  0
  -26.2560  -13.0060   20.2620 N   0  0  0  0  0  0  0  0  0  0  0  0
  -25.8870  -11.7280   20.5360 N   0  0  0  0  0  0  0  0  0  0  0  0
  -23.8620  -10.5220   21.0360 C   0  0  0  0  0  0  0  0  0  0  0  0
  -24.3010   -9.5480   21.9620 C   0  0  0  0  0  3  0  0  0  0  0  0
  -23.5680   -8.3570   22.1480 C   0  0  0  0  0  3  0  0  0  0  0  0
  -22.3830   -8.1290   21.4090 C   0  0  0  0  0  0  0  0  0  0  0  0
  -21.9640   -9.0910   20.4720 C   0  0  0  0  0  3  0  0  0  0  0  0
  -22.6970  -10.2740   20.2850 C   0  0  0  0  0  3  0  0  0  0  0  0
  -21.6220   -6.9900   21.5050 O   0  0  0  0  0  0  0  0  0  0  0  0
  -21.5980   -6.2340   22.6500 C   0  0  0  0  0  0  0  0  0  0  0  0
  -21.2310   -6.7830   23.8980 C   0  0  0  0  0  3  0  0  0  0  0  0
  -21.1540   -5.9540   25.0350 C   0  0  0  0  0  3  0  0  0  0  0  0
  -21.4320   -4.5790   24.9260 C   0  0  0  0  0  0  0  0  0  0  0  0
  -21.7930   -4.0290   23.6830 C   0  0  0  0  0  3  0  0  0  0  0  0
  -21.8720   -4.8550   22.5470 C   0  0  0  0  0  0  0  0  0  0  0  0
  -22.1990   -4.3170   21.3470 F   0  0  0  0  0  0  0  0  0  0  0  0
  -21.3510   -3.7810   26.0160 F   0  0  0  0  0  0  0  0  0  0  0  0
  -22.7460  -13.6190   21.1160 C   0  0  0  0  0  0  0  0  0  0  0  0
  -22.0120  -12.9360   21.9860 N   0  0  0  0  0  0  0  0  0  0  0  0
  -22.3150  -14.6410   20.5830 O   0  0  0  0  0  0  0  0  0  0  0  0
  -22.3740  -12.1090   22.4390 H   0  0  0  0  0  0  0  0  0  0  0  0
  -21.0750  -13.2430   22.2050 H   0  0  0  0  0  0  0  0  0  0  0  0
  -25.3900  -15.2630   20.2910 N   0  0  0  0  0  0  0  0  0  0  0  0
  -24.6220  -15.9200   20.3760 H   0  0  0  0  0  0  0  0  0  0  0  0
  -26.2340  -15.6870   19.9280 H   0  0  0  0  0  0  0  0  0  0  0  0
  -28.4890  -25.5930   21.0260 C   0  0  0  0  0  2  0  0  0  0  0  0
  -28.3230  -26.6020   19.9920 O   0  0  0  0  0  0  0  0  0  0  0  0
  -24.6160  -31.8810   23.1900 C   0  0  0  0  0  0  0  0  0  0  0  0
  -27.1850  -27.3950   20.0620 C   0  0  0  0  0  0  0  0  0  0  0  0
  -23.3790  -30.4860   21.5660 C   0  0  0  0  0  3  0  0  0  0  0  0
  -24.8060  -28.9430   20.1130 C   0  0  0  0  0  0  0  0  0  0  0  0
  -25.9070  -30.8280   21.3270 C   0  0  0  0  0  2  0  0  0  0  0  0
  -25.9790  -29.4530   20.6860 C   0  0  0  0  0  0  0  0  0  0  0  0
  -27.1750  -28.6850   20.6570 C   0  0  0  0  0  3  0  0  0  0  0  0
  -25.9980  -26.9170   19.4750 C   0  0  0  0  0  3  0  0  0  0  0  0
  -24.8120  -27.6770   19.5050 C   0  0  0  0  0  3  0  0  0  0  0  0
  -23.5660  -29.8100   20.1820 C   0  0  0  0  0  2  0  0  0  0  0  0
  -24.6530  -31.0810   22.0850 N   0  0  0  0  0  0  0  0  0  0  0  0
  -23.5450  -32.1540   23.7490 O   0  0  0  0  0  0  0  0  0  0  0  0
  -22.7400  -29.4640   22.5360 C   0  0  0  0  0  0  0  0  0  0  0  0
  -21.4130  -29.2830   22.4290 N   0  0  0  0  0  0  0  0  0  0  0  0
  -23.4350  -28.8370   23.3390 O   0  0  0  0  0  0  0  0  0  0  0  0
  -20.9140  -29.8410   21.7510 H   0  0  0  0  0  0  0  0  0  0  0  0
  -18.0500  -28.0670   22.9630 C   0  0  0  0  0  0  0  0  0  0  0  0
  -20.6090  -28.3430   23.2100 C   0  0  0  0  0  3  0  0  0  0  0  0
  -20.7150  -26.9110   22.6380 C   0  0  0  0  0  2  0  0  0  0  0  0
  -19.6060  -26.5770   21.6350 C   0  0  0  0  0  2  0  0  0  0  0  0
  -18.2280  -26.7170   22.2900 C   0  0  0  0  0  2  0  0  0  0  0  0
  -19.1670  -28.8380   23.3800 C   0  0  0  0  0  0  0  0  0  0  0  0
  -18.9450  -30.1020   23.9680 C   0  0  0  0  0  3  0  0  0  0  0  0
  -17.6400  -30.5960   24.1440 C   0  0  0  0  0  3  0  0  0  0  0  0
  -16.5370  -29.8230   23.7440 C   0  0  0  0  0  3  0  0  0  0  0  0
  -16.7430  -28.5610   23.1580 C   0  0  0  0  0  3  0  0  0  0  0  0
  -25.9130  -32.5090   23.7890 C   0  0  0  0  0  3  0  0  0  0  0  0
  -25.6060  -33.9000   24.1490 N   0  0  0  0  0  0  0  0  0  0  0  0
  -25.9200  -34.9660   23.4000 C   0  0  0  0  0  0  0  0  0  0  0  0
  -26.5690  -34.8810   22.3540 O   0  0  0  0  0  0  0  0  0  0  0  0
  -25.0290  -34.0390   24.9660 H   0  0  0  0  0  0  0  0  0  0  0  0
  -24.1800  -36.7570   23.1100 C   0  0  0  0  0  1  0  0  0  0  0  0
  -25.4390  -36.3450   23.8900 C   0  0  0  0  0  3  0  0  0  0  0  0
  -27.5880  -37.2190   24.6890 C   0  0  0  0  0  1  0  0  0  0  0  0
  -26.4660  -37.4030   23.7740 N   0  0  0  0  0  0  0  0  0  0  0  0
  -26.0610  -38.3180   23.9490 H   0  0  0  0  0  0  0  0  0  0  0  0
  -26.4660  -31.7180   25.0390 C   0  0  1  0  0  0  0  0  0  0  0  0
  -25.4020  -31.4590   26.1310 C   0  0  0  0  0  1  0  0  0  0  0  0
  -27.0420  -30.3500   24.6070 C   0  0  0  0  0  1  0  0  0  0  0  0
  -27.6330  -32.5050   25.6820 C   0  0  0  0  0  1  0  0  0  0  0  0
  -30.7800  -23.4150   20.9590 C   0  0  0  0  0  2  0  0  0  0  0  0
  -32.4390  -25.2670   20.3890 C   0  0  0  0  0  1  0  0  0  0  0  0
  -31.1410  -24.2200   18.4880 C   0  0  0  0  0  1  0  0  0  0  0  0
  -31.7480  -23.9890   19.8860 C   0  0  0  0  0  3  0  0  0  0  0  0
  1  3  2  0
  1  2  1  0
  2  4  2  0
  3  5  1  0
  4  5  1  0
  4 50  1  0
  5 92  1  0
  6  3  1  0
  6  7  1  0
  7  8  1  0
  7  9  1  0
 10  7  1  0
 10 11  2  0
 12 20  1  0
 13 18  1  0
 14 15  1  0
 14 13  1  0
 16 15  1  0
 16 25  1  0
 16 17  1  0
 18 12  1  0
 18 17  1  0
 19 12  2  0
 20 21  1  0
 20 11  1  0
 22 23  2  0
 23 42  1  0
 24 23  1  0
 24 27  1  0
 25 22  1  0
 25 26  1  0
 26 24  2  0
 27 28  1  0
 28 29  2  0
 30 33  1  0
 30 29  1  0
 31 30  2  0
 32 31  1  0
 32 27  2  0
 33 34  1  0
 34 35  1  0
 35 36  2  0
 37 36  1  0
 37 41  1  0
 38 37  2  0
 39 34  2  0
 39 38  1  0
 40 39  1  0
 42 43  1  0
 43 46  1  0
 43 45  1  0
 44 42  2  0
 47 48  1  0
 47 22  1  0
 49 47  1  0
 51 53  1  0
 51 50  1  0
 52 63  2  0
 53 58  1  0
 54 62  1  0
 54 64  1  0
 55 61  1  0
 55 57  1  0
 56 62  1  0
 57 56  1  0
 58 57  2  0
 59 60  1  0
 59 53  2  0
 60 55  2  0
 61 54  1  0
 62 52  1  0
 64 66  2  0
 65 64  1  0
 67 65  1  0
 68 77  2  0
 68 73  1  0
 69 65  1  0
 69 73  1  0
 70 69  1  0
 71 72  1  0
 71 70  1  0
 72 68  1  0
 73 74  2  0
 74 75  1  0
 76 75  2  0
 77 76  1  0
 78 52  1  0
 78 79  1  0
 78 88  1  0
 79 82  1  0
 80 84  1  0
 80 79  1  0
 81 80  2  0
 84 83  1  0
 86 84  1  0
 86 87  1  0
 86 85  1  0
 88 91  1  1
 88 89  1  0
 90 88  1  0
 94 95  1  0
 95 93  1  0
 95 92  1  0
M  ISO  4  12 100  20 100  50 101  51 101
M  END
>  <TORSDO>  (88) 
F 23

>  <SCORE>  (88) 
-12.886

>  <name>  (88) 
87

>  <ligand_id>  (88) 
87

>  <original_smiles>  (88) 
[H]c1c([H])c([H])c2c(c1[H])C([H])([H])C([H])([H])C([H])([H])C2([H])N([H])C(=O)C1([H])N(C(=O)C([H])(N([H])C(=O)C([H])(N([H])C([H])([H])[H])C([H])([H])[H])C(C([H])([H])[H])(C([H])([H])[H])C([H])([H])[H])C([H])([H])c2c([H])c(OC([H])([H])c3c([H])c([H])c(C([H])([H])[N+]([H])([H])C([H])([H])C([H])([H])N([H])C(=O)N4C([H])([H])C([H])([H])C([H])([H])C([H])(n5nc(-c6c([H])c([H])c(Oc7c([H])c([H])c(F)c([H])c7F)c([H])c6[H])c(C(=O)N([H])[H])c5N([H])[H])C4([H])[H])n3C([H])([H])C([H])(C([H])([H])[H])C([H])([H])[H])c([H])c([H])c2C1([H])[H]

>  <smiles>  (88) 
[H]c1c([H])c([H])c2c(c1[H])C([H])([H])C([H])([H])C([H])([H])C2([H])N([H])C(=O)C1([H])N(C(=O)C([H])(N([H])C(=O)C([H])(N([H])C([H])([H])[H])C([H])([H])[H])C(C([H])([H])[H])(C([H])([H])[H])C([H])([H])[H])C([H])([H])c2c([H])c(OC([H])([H])c3c([H])c([H])c(C([H])([H])[N+]([H])([H])C([H])([H])C([H])([H])N([H])C(=O)N4C([H])([H])C([H])([H])C([H])([H])C([H])(n5nc(-c6c([H])c([H])c(Oc7c([H])c([H])c(F)c([H])c7F)c([H])c6[H])c(C(=O)N([H])[H])c5N([H])[H])C4([H])[H])n3C([H])([H])C([H])(C([H])([H])[H])C([H])([H])[H])c([H])c([H])c2C1([H])[H]

$$$$
88:0:0
     RDKit          3D

 89 97  0  0  1  0  0  0  0  0999 V2000
  -28.1780  -22.3370   19.0690 C   0  0  0  0  0  2  0  0  0  0  0  0
  -29.6350  -22.8380   20.9060 C   0  0  0  0  0  2  0  0  0  0  0  0
  -28.1180  -20.8010   19.5110 C   0  0  0  0  0  2  0  0  0  0  0  0
  -29.5750  -21.2880   21.3440 C   0  0  0  0  0  2  0  0  0  0  0  0
  -28.3790  -23.4490   20.1740 C   0  0  0  0  0  3  0  0  0  0  0  0
  -29.3100  -20.2570   20.2650 N   0  0  1  0  0  4  0  0  0  0  0  0
  -30.1000  -20.2890   19.6370 H   0  0  0  0  0  0  0  0  0  0  0  0
  -28.4260  -24.9940   19.5570 C   0  0  0  0  0  2  0  0  0  0  0  0
  -28.3080  -26.3500   20.2450 O   0  0  0  0  0  0  0  0  0  0  0  0
  -24.6120  -31.8920   23.2130 C   0  0  0  0  0  0  0  0  0  0  0  0
  -27.2060  -27.2520   20.1490 C   0  0  0  0  0  0  0  0  0  0  0  0
  -23.4080  -30.5000   21.5710 C   0  0  0  0  0  3  0  0  0  0  0  0
  -24.8550  -28.9400   20.1370 C   0  0  0  0  0  0  0  0  0  0  0  0
  -25.9560  -30.7890   21.3970 C   0  0  0  0  0  2  0  0  0  0  0  0
  -26.0290  -29.4040   20.7400 C   0  0  0  0  0  0  0  0  0  0  0  0
  -27.2010  -28.5720   20.7360 C   0  0  0  0  0  3  0  0  0  0  0  0
  -26.0000  -26.8640   19.5230 C   0  0  0  0  0  3  0  0  0  0  0  0
  -24.8480  -27.6800   19.5180 C   0  0  0  0  0  3  0  0  0  0  0  0
  -23.6240  -29.8270   20.1890 C   0  0  0  0  0  2  0  0  0  0  0  0
  -24.6790  -31.0800   22.1170 N   0  0  0  0  0  0  0  0  0  0  0  0
  -23.5270  -32.1720   23.7460 O   0  0  0  0  0  0  0  0  0  0  0  0
  -22.7370  -29.4870   22.5310 C   0  0  0  0  0  0  0  0  0  0  0  0
  -21.4080  -29.3250   22.4160 N   0  0  0  0  0  0  0  0  0  0  0  0
  -23.4150  -28.8500   23.3420 O   0  0  0  0  0  0  0  0  0  0  0  0
  -20.9180  -29.8900   21.7360 H   0  0  0  0  0  0  0  0  0  0  0  0
  -18.0230  -28.1620   22.9530 C   0  0  0  0  0  0  0  0  0  0  0  0
  -20.5880  -28.3890   23.1880 C   0  0  0  0  0  3  0  0  0  0  0  0
  -20.6640  -26.9630   22.5970 C   0  0  0  0  0  2  0  0  0  0  0  0
  -19.5450  -26.6650   21.5940 C   0  0  0  0  0  2  0  0  0  0  0  0
  -18.1730  -26.8190   22.2590 C   0  0  0  0  0  2  0  0  0  0  0  0
  -19.1560  -28.9060   23.3760 C   0  0  0  0  0  0  0  0  0  0  0  0
  -18.9590  -30.1640   23.9870 C   0  0  0  0  0  3  0  0  0  0  0  0
  -17.6620  -30.6770   24.1780 C   0  0  0  0  0  3  0  0  0  0  0  0
  -16.5440  -29.9300   23.7700 C   0  0  0  0  0  3  0  0  0  0  0  0
  -16.7240  -28.6740   23.1630 C   0  0  0  0  0  3  0  0  0  0  0  0
  -25.8920  -32.5250   23.8390 C   0  0  0  0  0  3  0  0  0  0  0  0
  -26.4010  -31.7590   25.1220 C   0  0  1  0  0  0  0  0  0  0  0  0
  -25.3020  -31.5270   26.1840 C   0  0  0  0  0  1  0  0  0  0  0  0
  -26.9830  -30.3770   24.7410 C   0  0  0  0  0  1  0  0  0  0  0  0
  -27.5510  -32.5520   25.7840 C   0  0  0  0  0  1  0  0  0  0  0  0
  -25.5840  -33.9250   24.1660 N   0  0  0  0  0  0  0  0  0  0  0  0
  -25.9210  -34.9790   23.4090 C   0  0  0  0  0  0  0  0  0  0  0  0
  -26.5920  -34.8740   22.3790 O   0  0  0  0  0  0  0  0  0  0  0  0
  -24.9850  -34.0810   24.9640 H   0  0  0  0  0  0  0  0  0  0  0  0
  -24.2080  -36.7870   23.0480 C   0  0  0  0  0  1  0  0  0  0  0  0
  -25.4390  -36.3700   23.8680 C   0  0  0  0  0  3  0  0  0  0  0  0
  -27.5690  -37.2420   24.7270 C   0  0  0  0  0  1  0  0  0  0  0  0
  -26.4810  -37.4160   23.7680 N   0  0  0  0  0  0  0  0  0  0  0  0
  -26.0790  -38.3400   23.9090 H   0  0  0  0  0  0  0  0  0  0  0  0
  -29.1800  -18.7610   20.7420 C   0  0  0  0  0  3  0  0  0  0  0  0
  -30.0890  -17.5260   20.1310 C   0  0  0  0  0  3  0  0  0  0  0  0
  -30.6080  -14.8870   20.2950 C   0  0  0  0  0  0  0  0  0  0  0  0
  -30.4420  -12.5880   19.3000 C   0  0  0  0  0  2  0  0  0  0  0  0
  -29.5020  -12.6350   18.0740 C   0  0  0  0  0  2  0  0  0  0  0  0
  -28.0350  -12.4470   18.5060 C   0  0  0  0  0  2  0  0  0  0  0  0
  -27.6550  -13.3300   19.7240 C   0  0  0  0  0  3  0  0  0  0  0  0
  -28.7160  -13.2650   20.8430 C   0  0  0  0  0  2  0  0  0  0  0  0
  -30.0010  -13.6450   20.2470 N   0  0  0  0  0  0  0  0  0  0  0  0
  -31.7920  -14.9850   19.9590 O   0  0  0  0  0  0  0  0  0  0  0  0
  -29.8240  -16.0320   20.4940 N   0  0  0  0  0  0  0  0  0  0  0  0
  -28.8770  -15.8300   20.7760 H   0  0  0  0  0  0  0  0  0  0  0  0
  -25.2690  -13.9090   20.4580 C   0  0  0  0  0  0  0  0  0  0  0  0
  -24.2070  -13.1310   20.8280 C   0  0  0  0  0  0  0  0  0  0  0  0
  -24.6750  -11.7820   20.7960 C   0  0  0  0  0  0  0  0  0  0  0  0
  -26.3140  -13.0330   20.2180 N   0  0  0  0  0  0  0  0  0  0  0  0
  -25.9650  -11.7480   20.4840 N   0  0  0  0  0  0  0  0  0  0  0  0
  -23.9510  -10.5170   20.9840 C   0  0  0  0  0  0  0  0  0  0  0  0
  -24.3710   -9.5590   21.9320 C   0  0  0  0  0  3  0  0  0  0  0  0
  -23.6480   -8.3600   22.1080 C   0  0  0  0  0  3  0  0  0  0  0  0
  -22.4890   -8.1110   21.3350 C   0  0  0  0  0  0  0  0  0  0  0  0
  -22.0880   -9.0570   20.3750 C   0  0  0  0  0  3  0  0  0  0  0  0
  -22.8130  -10.2470   20.1970 C   0  0  0  0  0  3  0  0  0  0  0  0
  -21.7370   -6.9630   21.4190 O   0  0  0  0  0  0  0  0  0  0  0  0
  -21.6540   -6.2410   22.5820 C   0  0  0  0  0  0  0  0  0  0  0  0
  -21.1630   -6.8090   23.7780 C   0  0  0  0  0  3  0  0  0  0  0  0
  -21.0300   -6.0120   24.9340 C   0  0  0  0  0  3  0  0  0  0  0  0
  -21.3760   -4.6480   24.8920 C   0  0  0  0  0  0  0  0  0  0  0  0
  -21.8580   -4.0790   23.6990 C   0  0  0  0  0  3  0  0  0  0  0  0
  -21.9930   -4.8740   22.5480 C   0  0  0  0  0  0  0  0  0  0  0  0
  -22.4390   -4.3150   21.3960 F   0  0  0  0  0  0  0  0  0  0  0  0
  -21.2400   -3.8800   25.9980 F   0  0  0  0  0  0  0  0  0  0  0  0
  -22.8080  -13.6040   21.0990 C   0  0  0  0  0  0  0  0  0  0  0  0
  -22.0790  -12.9000   21.9580 N   0  0  0  0  0  0  0  0  0  0  0  0
  -22.3710  -14.6320   20.5840 O   0  0  0  0  0  0  0  0  0  0  0  0
  -22.4480  -12.0670   22.3940 H   0  0  0  0  0  0  0  0  0  0  0  0
  -21.1410  -13.1970   22.1850 H   0  0  0  0  0  0  0  0  0  0  0  0
  -25.4280  -15.2810   20.2810 N   0  0  0  0  0  0  0  0  0  0  0  0
  -24.6520  -15.9250   20.3800 H   0  0  0  0  0  0  0  0  0  0  0  0
  -26.2550  -15.7160   19.8960 H   0  0  0  0  0  0  0  0  0  0  0  0
  1  3  1  0
  1  5  1  0
  2  4  1  0
  3  6  1  0
  5  8  1  0
  5  2  1  0
  6 50  1  0
  6  4  1  0
  6  7  1  6
  8  9  1  0
 10 21  2  0
 11  9  1  0
 11 16  1  0
 12 20  1  0
 12 22  1  0
 13 19  1  0
 13 15  1  0
 14 20  1  0
 15 14  1  0
 16 15  2  0
 17 11  2  0
 18 17  1  0
 18 13  2  0
 19 12  1  0
 20 10  1  0
 22 24  2  0
 23 22  1  0
 25 23  1  0
 26 35  2  0
 26 31  1  0
 27 23  1  0
 27 31  1  0
 28 27  1  0
 29 30  1  0
 29 28  1  0
 30 26  1  0
 31 32  2  0
 32 33  1  0
 34 33  2  0
 35 34  1  0
 36 10  1  0
 36 41  1  0
 36 37  1  0
 37 40  1  1
 37 38  1  0
 39 37  1  0
 41 44  1  0
 42 46  1  0
 42 41  1  0
 43 42  2  0
 46 45  1  0
 48 46  1  0
 48 49  1  0
 48 47  1  0
 51 60  1  0
 51 50  2  0
 52 60  1  0
 53 58  1  0
 54 55  1  0
 54 53  1  0
 56 55  1  0
 56 65  1  0
 56 57  1  0
 58 52  1  0
 58 57  1  0
 59 52  2  0
 60 61  1  0
 62 63  2  0
 63 82  1  0
 64 63  1  0
 64 67  1  0
 65 62  1  0
 65 66  1  0
 66 64  2  0
 67 68  1  0
 68 69  2  0
 70 73  1  0
 70 69  1  0
 71 70  2  0
 72 71  1  0
 72 67  2  0
 73 74  1  0
 74 75  1  0
 75 76  2  0
 77 76  1  0
 77 81  1  0
 78 77  2  0
 79 74  2  0
 79 78  1  0
 80 79  1  0
 82 83  1  0
 83 86  1  0
 83 85  1  0
 84 82  2  0
 87 88  1  0
 87 62  1  0
 89 87  1  0
M  ISO  4   8 101   9 101  52 100  60 100
M  END
>  <TORSDO>  (89) 
F 19

>  <SCORE>  (89) 
-14.095

>  <name>  (89) 
88

>  <ligand_id>  (89) 
88

>  <original_smiles>  (89) 
[H]c1c([H])c([H])c2c(c1[H])C([H])([H])C([H])([H])C([H])([H])C2([H])N([H])C(=O)C1([H])N(C(=O)C([H])(N([H])C(=O)C([H])(N([H])C([H])([H])[H])C([H])([H])[H])C(C([H])([H])[H])(C([H])([H])[H])C([H])([H])[H])C([H])([H])c2c([H])c(OC([H])([H])C3([H])C([H])([H])C([H])([H])[N+]([H])(C([H])([H])C([H])([H])N([H])C(=O)N4C([H])([H])C([H])([H])C([H])([H])C([H])(n5nc(-c6c([H])c([H])c(Oc7c([H])c([H])c(F)c([H])c7F)c([H])c6[H])c(C(=O)N([H])[H])c5N([H])[H])C4([H])[H])C([H])([H])C3([H])[H])c([H])c([H])c2C1([H])[H]

>  <smiles>  (89) 
[H]c1c([H])c([H])c2c(c1[H])C([H])([H])C([H])([H])C([H])([H])C2([H])N([H])C(=O)C1([H])N(C(=O)C([H])(N([H])C(=O)C([H])(N([H])C([H])([H])[H])C([H])([H])[H])C(C([H])([H])[H])(C([H])([H])[H])C([H])([H])[H])C([H])([H])c2c([H])c(OC([H])([H])C3([H])C([H])([H])C([H])([H])[N+]([H])(C([H])([H])C([H])([H])N([H])C(=O)N4C([H])([H])C([H])([H])C([H])([H])C([H])(n5nc(-c6c([H])c([H])c(Oc7c([H])c([H])c(F)c([H])c7F)c([H])c6[H])c(C(=O)N([H])[H])c5N([H])[H])C4([H])[H])C([H])([H])C3([H])[H])c([H])c([H])c2C1([H])[H]

$$$$
89:0:0
     RDKit          3D

 97107  0  0  1  0  0  0  0  0999 V2000
  -28.8320  -21.0610   20.0030 N   0  0  0  0  0  0  0  0  0  0  0  0
  -32.4720  -19.8300   20.4300 C   0  0  0  0  0  2  0  0  0  0  0  0
  -31.3400  -20.8010   20.0690 C   0  0  0  0  0  2  0  0  0  0  0  0
  -32.1480  -18.9630   21.6700 C   0  0  0  0  0  2  0  0  0  0  0  0
  -29.9790  -20.0730   19.8680 C   0  0  0  0  0  3  0  0  0  0  0  0
  -29.9030  -18.6310   20.6220 C   0  0  0  0  0  3  0  0  0  0  0  0
  -30.6940  -18.7240   21.8660 N   0  0  0  0  0  4  0  0  0  0  0  0
  -30.3290  -19.5070   22.3840 H   0  0  0  0  0  0  0  0  0  0  0  0
  -30.5590  -17.9020   22.4300 H   0  0  0  0  0  0  0  0  0  0  0  0
  -30.3150  -17.2910   19.8050 C   0  0  0  0  0  2  0  0  0  0  0  0
  -30.7890  -14.7440   20.0640 C   0  0  0  0  0  0  0  0  0  0  0  0
  -30.5030  -12.4960   19.0260 C   0  0  0  0  0  2  0  0  0  0  0  0
  -29.5220  -12.6300   17.8430 C   0  0  0  0  0  2  0  0  0  0  0  0
  -28.0680  -12.4780   18.3310 C   0  0  0  0  0  2  0  0  0  0  0  0
  -27.7610  -13.3350   19.5890 C   0  0  0  0  0  3  0  0  0  0  0  0
  -28.8660  -13.1900   20.6610 C   0  0  0  0  0  2  0  0  0  0  0  0
  -30.1430  -13.5300   20.0230 N   0  0  0  0  0  0  0  0  0  0  0  0
  -31.9440  -14.8400   19.6410 O   0  0  0  0  0  0  0  0  0  0  0  0
  -30.0550  -15.8820   20.3430 N   0  0  0  0  0  0  0  0  0  0  0  0
  -29.1240  -15.7140   20.6990 H   0  0  0  0  0  0  0  0  0  0  0  0
  -25.4080  -13.9280   20.4250 C   0  0  0  0  0  0  0  0  0  0  0  0
  -24.3500  -13.1540   20.8190 C   0  0  0  0  0  0  0  0  0  0  0  0
  -24.7980  -11.8000   20.7360 C   0  0  0  0  0  0  0  0  0  0  0  0
  -26.4340  -13.0470   20.1260 N   0  0  0  0  0  0  0  0  0  0  0  0
  -26.0750  -11.7590   20.3740 N   0  0  0  0  0  0  0  0  0  0  0  0
  -24.0660  -10.5400   20.9260 C   0  0  0  0  0  0  0  0  0  0  0  0
  -24.4660   -9.5900   21.8920 C   0  0  0  0  0  3  0  0  0  0  0  0
  -23.7340   -8.3960   22.0690 C   0  0  0  0  0  3  0  0  0  0  0  0
  -22.5860   -8.1440   21.2810 C   0  0  0  0  0  0  0  0  0  0  0  0
  -22.2050   -9.0820   20.3060 C   0  0  0  0  0  3  0  0  0  0  0  0
  -22.9380  -10.2680   20.1270 C   0  0  0  0  0  3  0  0  0  0  0  0
  -21.8300   -6.9990   21.3640 O   0  0  0  0  0  0  0  0  0  0  0  0
  -21.6770   -6.3240   22.5480 C   0  0  0  0  0  0  0  0  0  0  0  0
  -21.0890   -6.9270   23.6800 C   0  0  0  0  0  3  0  0  0  0  0  0
  -20.8880   -6.1750   24.8550 C   0  0  0  0  0  3  0  0  0  0  0  0
  -21.2660   -4.8200   24.8950 C   0  0  0  0  0  0  0  0  0  0  0  0
  -21.8460   -4.2150   23.7670 C   0  0  0  0  0  3  0  0  0  0  0  0
  -22.0470   -4.9650   22.5960 C   0  0  0  0  0  0  0  0  0  0  0  0
  -22.5860   -4.3740   21.5030 F   0  0  0  0  0  0  0  0  0  0  0  0
  -21.0660   -4.0930   26.0210 F   0  0  0  0  0  0  0  0  0  0  0  0
  -22.9700  -13.6370   21.1600 C   0  0  0  0  0  0  0  0  0  0  0  0
  -22.2720  -12.9240   22.0380 N   0  0  0  0  0  0  0  0  0  0  0  0
  -22.5240  -14.6780   20.6820 O   0  0  0  0  0  0  0  0  0  0  0  0
  -22.6460  -12.0760   22.4430 H   0  0  0  0  0  0  0  0  0  0  0  0
  -21.3450  -13.2260   22.3050 H   0  0  0  0  0  0  0  0  0  0  0  0
  -25.5770  -15.3000   20.2610 N   0  0  0  0  0  0  0  0  0  0  0  0
  -24.8100  -15.9540   20.3850 H   0  0  0  0  0  0  0  0  0  0  0  0
  -26.3970  -15.7270   19.8510 H   0  0  0  0  0  0  0  0  0  0  0  0
  -26.2100  -20.9420   17.6690 C   0  0  0  0  0  2  0  0  0  0  0  0
  -27.3560  -20.0240   18.1020 C   0  0  0  0  0  2  0  0  0  0  0  0
  -26.6580  -21.9220   18.7560 C   0  0  0  0  0  2  0  0  0  0  0  0
  -28.0370  -21.2290   18.7680 C   0  0  0  0  0  3  0  0  0  0  0  0
  -28.7940  -22.2840   20.8890 C   0  0  0  0  0  2  0  0  0  0  0  0
  -29.6150  -24.7010   21.4480 C   0  0  0  0  0  2  0  0  0  0  0  0
  -29.1290  -23.7500   20.3760 C   0  0  0  0  0  3  0  0  0  0  0  0
  -28.3290  -25.0690   20.7600 C   0  0  0  0  0  3  0  0  0  0  0  0
  -28.5380  -26.4440   20.2460 O   0  0  0  0  0  0  0  0  0  0  0  0
  -24.6230  -31.7640   23.1660 C   0  0  0  0  0  0  0  0  0  0  0  0
  -27.4080  -27.2690   20.1930 C   0  0  0  0  0  0  0  0  0  0  0  0
  -23.4870  -30.3350   21.5000 C   0  0  0  0  0  3  0  0  0  0  0  0
  -25.0070  -28.8130   20.1150 C   0  0  0  0  0  0  0  0  0  0  0  0
  -26.0200  -30.7160   21.3700 C   0  0  0  0  0  2  0  0  0  0  0  0
  -26.1480  -29.3360   20.7380 C   0  0  0  0  0  0  0  0  0  0  0  0
  -27.3540  -28.5760   20.7660 C   0  0  0  0  0  3  0  0  0  0  0  0
  -26.2480  -26.7920   19.5460 C   0  0  0  0  0  3  0  0  0  0  0  0
  -25.0600  -27.5470   19.5060 C   0  0  0  0  0  3  0  0  0  0  0  0
  -23.7480  -29.6600   20.1260 C   0  0  0  0  0  2  0  0  0  0  0  0
  -24.7280  -30.9560   22.0700 N   0  0  0  0  0  0  0  0  0  0  0  0
  -23.5210  -32.0180   23.6730 O   0  0  0  0  0  0  0  0  0  0  0  0
  -22.8250  -29.3080   22.4480 C   0  0  0  0  0  0  0  0  0  0  0  0
  -21.5060  -29.1080   22.2970 N   0  0  0  0  0  0  0  0  0  0  0  0
  -23.4990  -28.6930   23.2790 O   0  0  0  0  0  0  0  0  0  0  0  0
  -21.0210  -29.6610   21.6050 H   0  0  0  0  0  0  0  0  0  0  0  0
  -18.1410  -27.8570   22.7300 C   0  0  0  0  0  0  0  0  0  0  0  0
  -20.6880  -28.1560   23.0480 C   0  0  0  0  0  3  0  0  0  0  0  0
  -20.8240  -26.7270   22.4730 C   0  0  0  0  0  2  0  0  0  0  0  0
  -19.7460  -26.3890   21.4390 C   0  0  0  0  0  2  0  0  0  0  0  0
  -18.3510  -26.5100   22.0560 C   0  0  0  0  0  2  0  0  0  0  0  0
  -19.2380  -28.6350   23.1820 C   0  0  0  0  0  0  0  0  0  0  0  0
  -18.9900  -29.8930   23.7730 C   0  0  0  0  0  3  0  0  0  0  0  0
  -17.6740  -30.3730   23.9190 C   0  0  0  0  0  3  0  0  0  0  0  0
  -16.5910  -29.5930   23.4800 C   0  0  0  0  0  3  0  0  0  0  0  0
  -16.8240  -28.3360   22.8940 C   0  0  0  0  0  3  0  0  0  0  0  0
  -25.8750  -32.4260   23.8190 C   0  0  0  0  0  3  0  0  0  0  0  0
  -25.5210  -33.8120   24.1630 N   0  0  0  0  0  0  0  0  0  0  0  0
  -25.8220  -34.8830   23.4170 C   0  0  0  0  0  0  0  0  0  0  0  0
  -26.4990  -34.8120   22.3880 O   0  0  0  0  0  0  0  0  0  0  0  0
  -24.9260  -33.9430   24.9680 H   0  0  0  0  0  0  0  0  0  0  0  0
  -24.0430  -36.6250   23.0670 C   0  0  0  0  0  1  0  0  0  0  0  0
  -25.2910  -36.2510   23.8840 C   0  0  0  0  0  3  0  0  0  0  0  0
  -27.3870  -37.1990   24.7440 C   0  0  0  0  0  1  0  0  0  0  0  0
  -26.2920  -37.3350   23.7860 N   0  0  0  0  0  0  0  0  0  0  0  0
  -25.8580  -38.2420   23.9280 H   0  0  0  0  0  0  0  0  0  0  0  0
  -26.3930  -31.6510   25.0950 C   0  0  1  0  0  0  0  0  0  0  0  0
  -25.2900  -31.3620   26.1390 C   0  0  0  0  0  1  0  0  0  0  0  0
  -27.0280  -30.2990   24.6920 C   0  0  0  0  0  1  0  0  0  0  0  0
  -27.5050  -32.4710   25.7920 C   0  0  0  0  0  1  0  0  0  0  0  0
  1 53  1  0
  2  4  1  0
  3  2  1  0
  4  7  1  0
  5  1  1  0
  5  3  1  0
  5  6  1  0
  6 10  1  0
  6  7  1  0
  7  8  1  0
  7  9  1  0
 10 19  1  0
 11 19  1  0
 12 17  1  0
 13 14  1  0
 13 12  1  0
 15 14  1  0
 15 24  1  0
 15 16  1  0
 17 11  1  0
 17 16  1  0
 18 11  2  0
 19 20  1  0
 21 22  2  0
 22 41  1  0
 23 22  1  0
 23 26  1  0
 24 25  1  0
 24 21  1  0
 25 23  2  0
 26 27  1  0
 27 28  2  0
 29 32  1  0
 29 28  1  0
 30 29  2  0
 31 30  1  0
 31 26  2  0
 32 33  1  0
 33 38  2  0
 33 34  1  0
 34 35  2  0
 35 36  1  0
 36 40  1  0
 37 36  2  0
 38 37  1  0
 39 38  1  0
 41 42  1  0
 42 45  1  0
 42 44  1  0
 43 41  2  0
 46 47  1  0
 46 21  1  0
 48 46  1  0
 49 50  1  0
 49 51  1  0
 50 52  1  0
 51 52  1  0
 52  1  1  0
 55 56  1  0
 55 53  1  0
 55 54  1  0
 56 57  1  0
 56 54  1  0
 58 69  2  0
 59 57  1  0
 59 64  1  0
 60 68  1  0
 60 70  1  0
 61 67  1  0
 61 63  1  0
 62 68  1  0
 63 64  2  0
 63 62  1  0
 65 59  2  0
 66 65  1  0
 66 61  2  0
 67 60  1  0
 68 58  1  0
 70 72  2  0
 71 70  1  0
 73 71  1  0
 74 83  2  0
 74 79  1  0
 75 71  1  0
 75 79  1  0
 76 75  1  0
 77 78  1  0
 77 76  1  0
 78 74  1  0
 79 80  2  0
 80 81  1  0
 82 81  2  0
 83 82  1  0
 84 58  1  0
 84 85  1  0
 84 94  1  0
 85 88  1  0
 86 90  1  0
 86 85  1  0
 87 86  2  0
 90 89  1  0
 92 90  1  0
 92 93  1  0
 92 91  1  0
 94 97  1  1
 94 95  1  0
 96 94  1  0
M  ISO  4  11 100  19 100  56 101  57 101
M  END
>  <TORSDO>  (90) 
F 21

>  <SCORE>  (90) 
-13.854

>  <name>  (90) 
89

>  <ligand_id>  (90) 
89

>  <original_smiles>  (90) 
[H]c1c([H])c([H])c2c(c1[H])C([H])([H])C([H])([H])C([H])([H])C2([H])N([H])C(=O)C1([H])N(C(=O)C([H])(N([H])C(=O)C([H])(N([H])C([H])([H])[H])C([H])([H])[H])C(C([H])([H])[H])(C([H])([H])[H])C([H])([H])[H])C([H])([H])c2c([H])c(OC3([H])C([H])([H])C3([H])C([H])([H])N(C3([H])C([H])([H])C([H])([H])C3([H])[H])C3([H])C([H])([H])C([H])([H])C([H])([H])[N+]([H])([H])C3([H])C([H])([H])N([H])C(=O)N3C([H])([H])C([H])([H])C([H])([H])C([H])(n4nc(-c5c([H])c([H])c(Oc6c([H])c([H])c(F)c([H])c6F)c([H])c5[H])c(C(=O)N([H])[H])c4N([H])[H])C3([H])[H])c([H])c([H])c2C1([H])[H]

>  <smiles>  (90) 
[H]c1c([H])c([H])c2c(c1[H])C([H])([H])C([H])([H])C([H])([H])C2([H])N([H])C(=O)C1([H])N(C(=O)C([H])(N([H])C(=O)C([H])(N([H])C([H])([H])[H])C([H])([H])[H])C(C([H])([H])[H])(C([H])([H])[H])C([H])([H])[H])C([H])([H])c2c([H])c(OC3([H])C([H])([H])C3([H])C([H])([H])N(C3([H])C([H])([H])C([H])([H])C3([H])[H])C3([H])C([H])([H])C([H])([H])C([H])([H])[N+]([H])([H])C3([H])C([H])([H])N([H])C(=O)N3C([H])([H])C([H])([H])C([H])([H])C([H])(n4nc(-c5c([H])c([H])c(Oc6c([H])c([H])c(F)c([H])c6F)c([H])c5[H])c(C(=O)N([H])[H])c4N([H])[H])C3([H])[H])c([H])c([H])c2C1([H])[H]

$$$$
90:0:0
     RDKit          3D

 95103  0  0  1  0  0  0  0  0999 V2000
  -28.8120  -22.8170   21.0470 C   0  0  0  0  0  3  0  0  0  0  0  0
  -28.3100  -24.1100   19.3150 C   0  0  0  0  0  3  0  0  0  0  0  0
  -28.6130  -24.1860   20.6420 C   0  0  0  0  0  0  0  0  0  0  0  0
  -28.6170  -21.9500   19.9890 C   0  0  0  0  0  0  0  0  0  0  0  0
  -28.3270  -22.7830   18.8940 N   0  0  0  0  0  0  0  0  0  0  0  0
  -28.5780  -23.3310   16.4650 C   0  0  0  0  0  1  0  0  0  0  0  0
  -26.4580  -22.2560   17.3860 C   0  0  0  0  0  1  0  0  0  0  0  0
  -27.9830  -22.3790   17.5250 C   0  0  0  0  0  3  0  0  0  0  0  0
  -27.7300  -25.4070   22.7090 C   0  0  0  0  0  1  0  0  0  0  0  0
  -28.6990  -25.4630   21.5070 C   0  0  0  0  0  3  0  0  0  0  0  0
  -28.7120  -26.7530   20.8120 O   0  0  0  0  0  0  0  0  0  0  0  0
  -24.6380  -32.0240   23.4520 C   0  0  0  0  0  0  0  0  0  0  0  0
  -27.5480  -27.4970   20.7100 C   0  0  0  0  0  0  0  0  0  0  0  0
  -23.5700  -30.5460   21.7830 C   0  0  0  0  0  3  0  0  0  0  0  0
  -25.1410  -28.9890   20.5030 C   0  0  0  0  0  0  0  0  0  0  0  0
  -26.1000  -30.9390   21.7390 C   0  0  0  0  0  2  0  0  0  0  0  0
  -26.2520  -29.5480   21.1470 C   0  0  0  0  0  0  0  0  0  0  0  0
  -27.4600  -28.8130   21.2410 C   0  0  0  0  0  3  0  0  0  0  0  0
  -26.4210  -26.9640   20.0520 C   0  0  0  0  0  3  0  0  0  0  0  0
  -25.2260  -27.7010   19.9460 C   0  0  0  0  0  3  0  0  0  0  0  0
  -23.8820  -29.8270   20.4440 C   0  0  0  0  0  2  0  0  0  0  0  0
  -24.7850  -31.1890   22.3820 N   0  0  0  0  0  0  0  0  0  0  0  0
  -23.5190  -32.2900   23.9130 O   0  0  0  0  0  0  0  0  0  0  0  0
  -22.8750  -29.5440   22.7340 C   0  0  0  0  0  0  0  0  0  0  0  0
  -21.5730  -29.3040   22.5080 N   0  0  0  0  0  0  0  0  0  0  0  0
  -23.5070  -28.9830   23.6310 O   0  0  0  0  0  0  0  0  0  0  0  0
  -21.1200  -29.8090   21.7580 H   0  0  0  0  0  0  0  0  0  0  0  0
  -18.2110  -28.0040   22.7890 C   0  0  0  0  0  0  0  0  0  0  0  0
  -20.7280  -28.3660   23.2510 C   0  0  0  0  0  3  0  0  0  0  0  0
  -20.9240  -26.9180   22.7450 C   0  0  0  0  0  2  0  0  0  0  0  0
  -19.9180  -26.5160   21.6620 C   0  0  0  0  0  2  0  0  0  0  0  0
  -18.4840  -26.6370   22.1850 C   0  0  0  0  0  2  0  0  0  0  0  0
  -19.2630  -28.8220   23.2750 C   0  0  0  0  0  0  0  0  0  0  0  0
  -18.9590  -30.0980   23.7940 C   0  0  0  0  0  3  0  0  0  0  0  0
  -17.6290  -30.5590   23.8330 C   0  0  0  0  0  3  0  0  0  0  0  0
  -16.5870  -29.7380   23.3680 C   0  0  0  0  0  3  0  0  0  0  0  0
  -16.8780  -28.4630   22.8510 C   0  0  0  0  0  3  0  0  0  0  0  0
  -25.8670  -32.7030   24.1330 C   0  0  0  0  0  3  0  0  0  0  0  0
  -25.5310  -34.1160   24.3470 N   0  0  0  0  0  0  0  0  0  0  0  0
  -25.9070  -35.1180   23.5400 C   0  0  0  0  0  0  0  0  0  0  0  0
  -26.6430  -34.9520   22.5650 O   0  0  0  0  0  0  0  0  0  0  0  0
  -24.8820  -34.3190   25.0930 H   0  0  0  0  0  0  0  0  0  0  0  0
  -24.1870  -36.8620   22.9660 C   0  0  0  0  0  1  0  0  0  0  0  0
  -25.3830  -36.5290   23.8700 C   0  0  0  0  0  3  0  0  0  0  0  0
  -27.4490  -37.5090   24.7620 C   0  0  0  0  0  1  0  0  0  0  0  0
  -26.4110  -37.5830   23.7370 N   0  0  0  0  0  0  0  0  0  0  0  0
  -25.9880  -38.5060   23.7830 H   0  0  0  0  0  0  0  0  0  0  0  0
  -26.2800  -32.0170   25.4930 C   0  0  1  0  0  0  0  0  0  0  0  0
  -25.0990  -31.8050   26.4700 C   0  0  0  0  0  1  0  0  0  0  0  0
  -26.9260  -30.6350   25.2320 C   0  0  0  0  0  1  0  0  0  0  0  0
  -27.3510  -32.8740   26.2050 C   0  0  0  0  0  1  0  0  0  0  0  0
  -28.5630  -20.4000   19.8960 C   0  0  0  0  0  2  0  0  0  0  0  0
  -29.4290  -19.5640   20.7960 N   0  0  0  0  0  4  0  0  0  0  0  0
  -29.2820  -19.8450   21.7520 H   0  0  0  0  0  0  0  0  0  0  0  0
  -30.3890  -19.7540   20.5630 H   0  0  0  0  0  0  0  0  0  0  0  0
  -29.1790  -18.0800   20.6920 C   0  0  0  0  0  2  0  0  0  0  0  0
  -30.2280  -17.1300   21.3820 C   0  0  0  0  0  2  0  0  0  0  0  0
  -30.6450  -14.6780   20.7280 C   0  0  0  0  0  0  0  0  0  0  0  0
  -30.3950  -12.5850   19.4330 C   0  0  0  0  0  2  0  0  0  0  0  0
  -29.4450  -12.8440   18.2430 C   0  0  0  0  0  2  0  0  0  0  0  0
  -27.9740  -12.6500   18.6620 C   0  0  0  0  0  2  0  0  0  0  0  0
  -27.6260  -13.3890   19.9810 C   0  0  0  0  0  3  0  0  0  0  0  0
  -28.6870  -13.1180   21.0720 C   0  0  0  0  0  2  0  0  0  0  0  0
  -30.0000  -13.4910   20.5250 N   0  0  0  0  0  0  0  0  0  0  0  0
  -31.7810  -14.8890   20.2950 O   0  0  0  0  0  0  0  0  0  0  0  0
  -29.9030  -15.6750   21.2700 N   0  0  0  0  0  0  0  0  0  0  0  0
  -29.0010  -15.3890   21.6230 H   0  0  0  0  0  0  0  0  0  0  0  0
  -25.2040  -13.9170   20.6720 C   0  0  0  0  0  0  0  0  0  0  0  0
  -24.1520  -13.1120   21.0160 C   0  0  0  0  0  0  0  0  0  0  0  0
  -24.6500  -11.7730   20.9650 C   0  0  0  0  0  0  0  0  0  0  0  0
  -26.2750  -13.0690   20.4400 N   0  0  0  0  0  0  0  0  0  0  0  0
  -25.9460  -11.7730   20.6730 N   0  0  0  0  0  0  0  0  0  0  0  0
  -23.9550  -10.4890   21.1220 C   0  0  0  0  0  0  0  0  0  0  0  0
  -24.3630   -9.5420   22.0860 C   0  0  0  0  0  3  0  0  0  0  0  0
  -23.6680   -8.3220   22.2320 C   0  0  0  0  0  3  0  0  0  0  0  0
  -22.5480   -8.0400   21.4120 C   0  0  0  0  0  0  0  0  0  0  0  0
  -22.1610   -8.9760   20.4360 C   0  0  0  0  0  3  0  0  0  0  0  0
  -22.8580  -10.1880   20.2900 C   0  0  0  0  0  3  0  0  0  0  0  0
  -21.8300   -6.8710   21.4620 O   0  0  0  0  0  0  0  0  0  0  0  0
  -21.7040   -6.1540   22.6240 C   0  0  0  0  0  0  0  0  0  0  0  0
  -21.0820   -6.6930   23.7720 C   0  0  0  0  0  3  0  0  0  0  0  0
  -20.9150   -5.8960   24.9220 C   0  0  0  0  0  3  0  0  0  0  0  0
  -21.3580   -4.5600   24.9240 C   0  0  0  0  0  0  0  0  0  0  0  0
  -21.9740   -4.0200   23.7830 C   0  0  0  0  0  3  0  0  0  0  0  0
  -22.1440   -4.8140   22.6340 C   0  0  0  0  0  0  0  0  0  0  0  0
  -22.7170   -4.2810   21.5290 F   0  0  0  0  0  0  0  0  0  0  0  0
  -21.1910   -3.7930   26.0270 F   0  0  0  0  0  0  0  0  0  0  0  0
  -22.7390  -13.5470   21.2790 C   0  0  0  0  0  0  0  0  0  0  0  0
  -22.0180  -12.8100   22.1160 N   0  0  0  0  0  0  0  0  0  0  0  0
  -22.2830  -14.5730   20.7770 O   0  0  0  0  0  0  0  0  0  0  0  0
  -22.4010  -11.9790   22.5440 H   0  0  0  0  0  0  0  0  0  0  0  0
  -21.0700  -13.0800   22.3350 H   0  0  0  0  0  0  0  0  0  0  0  0
  -25.3350  -15.2950   20.5170 N   0  0  0  0  0  0  0  0  0  0  0  0
  -24.5430  -15.9230   20.6010 H   0  0  0  0  0  0  0  0  0  0  0  0
  -26.1680  -15.7510   20.1670 H   0  0  0  0  0  0  0  0  0  0  0  0
  2  3  2  0
  3  1  1  0
  3 10  1  0
  4  1  2  0
  5  2  1  0
  5  4  1  0
  6  8  1  0
  7  8  1  0
  8  5  1  0
 10  9  1  0
 11 10  1  0
 12 23  2  0
 13 11  1  0
 13 18  1  0
 14 22  1  0
 14 24  1  0
 15 17  1  0
 16 22  1  0
 17 18  2  0
 17 16  1  0
 19 13  2  0
 20 19  1  0
 20 15  2  0
 21 15  1  0
 21 14  1  0
 22 12  1  0
 24 26  2  0
 25 24  1  0
 27 25  1  0
 28 37  2  0
 28 33  1  0
 29 25  1  0
 29 33  1  0
 30 29  1  0
 31 32  1  0
 31 30  1  0
 32 28  1  0
 33 34  2  0
 34 35  1  0
 36 35  2  0
 37 36  1  0
 38 12  1  0
 38 39  1  0
 38 48  1  0
 39 42  1  0
 40 44  1  0
 40 39  1  0
 41 40  2  0
 44 43  1  0
 46 47  1  0
 46 44  1  0
 46 45  1  0
 48 51  1  1
 48 49  1  0
 50 48  1  0
 52  4  1  0
 52 53  1  0
 53 54  1  0
 55 53  1  0
 56 53  1  0
 56 57  1  0
 58 66  1  0
 59 64  1  0
 60 61  1  0
 60 59  1  0
 62 61  1  0
 62 71  1  0
 62 63  1  0
 64 58  1  0
 64 63  1  0
 65 58  2  0
 66 57  1  0
 66 67  1  0
 68 69  2  0
 69 88  1  0
 70 69  1  0
 70 73  1  0
 71 68  1  0
 71 72  1  0
 72 70  2  0
 73 74  1  0
 74 75  2  0
 76 79  1  0
 76 75  1  0
 77 76  2  0
 78 77  1  0
 78 73  2  0
 79 80  1  0
 80 85  2  0
 80 81  1  0
 81 82  2  0
 82 83  1  0
 83 87  1  0
 84 83  2  0
 85 84  1  0
 86 85  1  0
 88 89  1  0
 89 92  1  0
 89 91  1  0
 90 88  2  0
 93 94  1  0
 93 68  1  0
 95 93  1  0
M  ISO  4  10 101  11 101  58 100  66 100
M  END
>  <TORSDO>  (91) 
F 22

>  <SCORE>  (91) 
-12.171

>  <name>  (91) 
90

>  <ligand_id>  (91) 
90

>  <original_smiles>  (91) 
[H]c1c([H])c([H])c2c(c1[H])C([H])([H])C([H])([H])C([H])([H])C2([H])N([H])C(=O)C1([H])N(C(=O)C([H])(N([H])C(=O)C([H])(N([H])C([H])([H])[H])C([H])([H])[H])C(C([H])([H])[H])(C([H])([H])[H])C([H])([H])[H])C([H])([H])c2c([H])c(OC([H])(c3c([H])c(C([H])([H])[N+]([H])([H])C([H])([H])C([H])([H])N([H])C(=O)N4C([H])([H])C([H])([H])C([H])([H])C([H])(n5nc(-c6c([H])c([H])c(Oc7c([H])c([H])c(F)c([H])c7F)c([H])c6[H])c(C(=O)N([H])[H])c5N([H])[H])C4([H])[H])n(C([H])(C([H])([H])[H])C([H])([H])[H])c3[H])C([H])([H])[H])c([H])c([H])c2C1([H])[H]

>  <smiles>  (91) 
[H]c1c([H])c([H])c2c(c1[H])C([H])([H])C([H])([H])C([H])([H])C2([H])N([H])C(=O)C1([H])N(C(=O)C([H])(N([H])C(=O)C([H])(N([H])C([H])([H])[H])C([H])([H])[H])C(C([H])([H])[H])(C([H])([H])[H])C([H])([H])[H])C([H])([H])c2c([H])c(OC([H])(c3c([H])c(C([H])([H])[N+]([H])([H])C([H])([H])C([H])([H])N([H])C(=O)N4C([H])([H])C([H])([H])C([H])([H])C([H])(n5nc(-c6c([H])c([H])c(Oc7c([H])c([H])c(F)c([H])c7F)c([H])c6[H])c(C(=O)N([H])[H])c5N([H])[H])C4([H])[H])n(C([H])(C([H])([H])[H])C([H])([H])[H])c3[H])C([H])([H])[H])c([H])c([H])c2C1([H])[H]

$$$$
91:0:0
     RDKit          3D

 89 97  0  0  1  0  0  0  0  0999 V2000
  -29.4320  -21.3180   19.0420 C   0  0  0  0  0  3  0  0  0  0  0  0
  -29.7140  -19.8970   19.0440 C   0  0  0  0  0  3  0  0  0  0  0  0
  -29.8660  -21.3840   21.3650 C   0  0  0  0  0  3  0  0  0  0  0  0
  -29.5320  -22.1520   20.1980 C   0  0  0  0  0  0  0  0  0  0  0  0
  -30.1340  -19.1450   20.1920 C   0  0  0  0  0  0  0  0  0  0  0  0
  -30.1560  -19.9600   21.3720 C   0  0  0  0  0  0  0  0  0  0  0  0
  -30.6050  -19.3270   22.6770 C   0  0  0  0  0  1  0  0  0  0  0  0
  -29.5930  -23.7890   20.1580 C   0  0  0  0  0  3  0  0  0  0  0  0
  -28.3880  -24.8880   19.8990 C   0  0  0  0  0  3  0  0  0  0  0  0
  -28.5880  -26.4030   20.0810 O   0  0  0  0  0  0  0  0  0  0  0  0
  -24.7620  -31.7400   23.3180 C   0  0  0  0  0  0  0  0  0  0  0  0
  -27.4870  -27.3170   20.0530 C   0  0  0  0  0  0  0  0  0  0  0  0
  -23.6090  -30.4100   21.5920 C   0  0  0  0  0  3  0  0  0  0  0  0
  -25.1070  -28.9610   20.0940 C   0  0  0  0  0  0  0  0  0  0  0  0
  -26.1510  -30.7640   21.4610 C   0  0  0  0  0  2  0  0  0  0  0  0
  -26.2660  -29.4160   20.7350 C   0  0  0  0  0  0  0  0  0  0  0  0
  -27.4580  -28.6100   20.6980 C   0  0  0  0  0  3  0  0  0  0  0  0
  -26.3010  -26.9470   19.3840 C   0  0  0  0  0  3  0  0  0  0  0  0
  -25.1340  -27.7390   19.4060 C   0  0  0  0  0  3  0  0  0  0  0  0
  -23.8550  -29.8160   20.1790 C   0  0  0  0  0  2  0  0  0  0  0  0
  -24.8590  -30.9880   22.1800 N   0  0  0  0  0  0  0  0  0  0  0  0
  -23.6650  -31.9660   23.8530 O   0  0  0  0  0  0  0  0  0  0  0  0
  -22.9510  -29.3320   22.4880 C   0  0  0  0  0  0  0  0  0  0  0  0
  -21.6360  -29.1120   22.3140 N   0  0  0  0  0  0  0  0  0  0  0  0
  -23.6260  -28.6980   23.3020 O   0  0  0  0  0  0  0  0  0  0  0  0
  -21.1460  -29.6780   21.6350 H   0  0  0  0  0  0  0  0  0  0  0  0
  -18.3000  -27.7430   22.6440 C   0  0  0  0  0  0  0  0  0  0  0  0
  -20.8330  -28.1100   23.0200 C   0  0  0  0  0  3  0  0  0  0  0  0
  -21.0220  -26.7060   22.4000 C   0  0  0  0  0  2  0  0  0  0  0  0
  -19.9750  -26.3720   21.3320 C   0  0  0  0  0  2  0  0  0  0  0  0
  -18.5650  -26.4290   21.9280 C   0  0  0  0  0  2  0  0  0  0  0  0
  -19.3650  -28.5390   23.1420 C   0  0  0  0  0  0  0  0  0  0  0  0
  -19.0640  -29.7670   23.7720 C   0  0  0  0  0  3  0  0  0  0  0  0
  -17.7310  -30.1990   23.9070 C   0  0  0  0  0  3  0  0  0  0  0  0
  -16.6810  -29.4000   23.4240 C   0  0  0  0  0  3  0  0  0  0  0  0
  -16.9650  -28.1730   22.7980 C   0  0  0  0  0  3  0  0  0  0  0  0
  -26.0190  -32.3680   23.9920 C   0  0  0  0  0  3  0  0  0  0  0  0
  -26.5150  -31.5620   25.2540 C   0  0  1  0  0  0  0  0  0  0  0  0
  -25.4010  -31.2790   26.2890 C   0  0  0  0  0  1  0  0  0  0  0  0
  -27.1240  -30.2030   24.8370 C   0  0  0  0  0  1  0  0  0  0  0  0
  -27.6400  -32.3470   25.9690 C   0  0  0  0  0  1  0  0  0  0  0  0
  -25.6830  -33.7510   24.3650 N   0  0  0  0  0  0  0  0  0  0  0  0
  -25.9810  -34.8330   23.6340 C   0  0  0  0  0  0  0  0  0  0  0  0
  -26.6360  -34.7750   22.5900 O   0  0  0  0  0  0  0  0  0  0  0  0
  -25.0960  -33.8680   25.1770 H   0  0  0  0  0  0  0  0  0  0  0  0
  -24.1930  -36.5880   23.3850 C   0  0  0  0  0  1  0  0  0  0  0  0
  -25.4730  -36.1980   24.1420 C   0  0  0  0  0  3  0  0  0  0  0  0
  -27.6070  -37.1300   24.9210 C   0  0  0  0  0  1  0  0  0  0  0  0
  -26.4710  -37.2820   24.0160 N   0  0  0  0  0  0  0  0  0  0  0  0
  -26.0450  -38.1880   24.1930 H   0  0  0  0  0  0  0  0  0  0  0  0
  -30.8360  -17.6720   20.0380 C   0  0  0  0  0  2  0  0  0  0  0  0
  -31.0220  -15.0390   20.1410 C   0  0  0  0  0  0  0  0  0  0  0  0
  -30.8290  -12.7120   19.2080 C   0  0  0  0  0  2  0  0  0  0  0  0
  -29.8650  -12.6990   18.0020 C   0  0  0  0  0  2  0  0  0  0  0  0
  -28.4120  -12.4980   18.4750 C   0  0  0  0  0  2  0  0  0  0  0  0
  -28.0440  -13.4190   19.6690 C   0  0  0  0  0  3  0  0  0  0  0  0
  -29.1310  -13.4250   20.7640 C   0  0  0  0  0  2  0  0  0  0  0  0
  -30.3920  -13.8050   20.1180 N   0  0  0  0  0  0  0  0  0  0  0  0
  -32.2100  -15.0880   19.8150 O   0  0  0  0  0  0  0  0  0  0  0  0
  -30.2970  -16.2380   20.2990 N   0  0  0  0  0  0  0  0  0  0  0  0
  -29.3170  -16.1530   20.5190 H   0  0  0  0  0  0  0  0  0  0  0  0
  -25.6950  -13.9880   20.5150 C   0  0  0  0  0  0  0  0  0  0  0  0
  -24.6400  -13.2060   20.8970 C   0  0  0  0  0  0  0  0  0  0  0  0
  -25.0940  -11.8550   20.8030 C   0  0  0  0  0  0  0  0  0  0  0  0
  -26.7230  -13.1120   20.2060 N   0  0  0  0  0  0  0  0  0  0  0  0
  -26.3720  -11.8220   20.4450 N   0  0  0  0  0  0  0  0  0  0  0  0
  -24.3650  -10.5910   20.9750 C   0  0  0  0  0  0  0  0  0  0  0  0
  -24.7600   -9.6350   21.9370 C   0  0  0  0  0  3  0  0  0  0  0  0
  -24.0310   -8.4370   22.0970 C   0  0  0  0  0  3  0  0  0  0  0  0
  -22.8930   -8.1850   21.2930 C   0  0  0  0  0  0  0  0  0  0  0  0
  -22.5190   -9.1290   20.3210 C   0  0  0  0  0  3  0  0  0  0  0  0
  -23.2490  -10.3180   20.1590 C   0  0  0  0  0  3  0  0  0  0  0  0
  -22.1400   -7.0380   21.3610 O   0  0  0  0  0  0  0  0  0  0  0  0
  -21.9410   -6.3770   22.5460 C   0  0  0  0  0  0  0  0  0  0  0  0
  -21.3330   -7.0020   23.6560 C   0  0  0  0  0  3  0  0  0  0  0  0
  -21.0840   -6.2650   24.8310 C   0  0  0  0  0  3  0  0  0  0  0  0
  -21.4330   -4.9030   24.8950 C   0  0  0  0  0  0  0  0  0  0  0  0
  -22.0330   -4.2770   23.7890 C   0  0  0  0  0  3  0  0  0  0  0  0
  -22.2830   -5.0100   22.6170 C   0  0  0  0  0  0  0  0  0  0  0  0
  -22.8420   -4.3970   21.5460 F   0  0  0  0  0  0  0  0  0  0  0  0
  -21.1870   -4.1920   26.0200 F   0  0  0  0  0  0  0  0  0  0  0  0
  -23.2570  -13.6820   21.2330 C   0  0  0  0  0  0  0  0  0  0  0  0
  -22.5590  -12.9680   22.1090 N   0  0  0  0  0  0  0  0  0  0  0  0
  -22.8050  -14.7220   20.7550 O   0  0  0  0  0  0  0  0  0  0  0  0
  -22.9390  -12.1280   22.5190 H   0  0  0  0  0  0  0  0  0  0  0  0
  -21.6320  -13.2660   22.3760 H   0  0  0  0  0  0  0  0  0  0  0  0
  -25.8600  -15.3620   20.3780 N   0  0  0  0  0  0  0  0  0  0  0  0
  -25.0980  -16.0130   20.5360 H   0  0  0  0  0  0  0  0  0  0  0  0
  -26.6890  -15.8090   20.0090 H   0  0  0  0  0  0  0  0  0  0  0  0
  1  2  2  0
  1  4  1  0
  2  5  1  0
  3  6  1  0
  4  3  2  0
  5  6  2  0
  6  7  1  0
  8  4  1  0
  9 10  1  0
  9  8  2  0
 11 22  2  0
 12 10  1  0
 12 17  1  0
 13 21  1  0
 13 23  1  0
 14 20  1  0
 14 16  1  0
 15 21  1  0
 16 15  1  0
 17 16  2  0
 18 19  1  0
 18 12  2  0
 19 14  2  0
 20 13  1  0
 21 11  1  0
 23 25  2  0
 24 23  1  0
 26 24  1  0
 27 36  2  0
 27 32  1  0
 28 24  1  0
 28 32  1  0
 29 28  1  0
 30 31  1  0
 30 29  1  0
 31 27  1  0
 32 33  2  0
 33 34  1  0
 35 34  2  0
 36 35  1  0
 37 11  1  0
 37 42  1  0
 37 38  1  0
 38 41  1  1
 38 39  1  0
 40 38  1  0
 42 45  1  0
 43 47  1  0
 43 42  1  0
 44 43  2  0
 47 46  1  0
 49 47  1  0
 49 50  1  0
 49 48  1  0
 51  5  1  0
 51 60  1  0
 52 60  1  0
 53 58  1  0
 54 55  1  0
 54 53  1  0
 56 55  1  0
 56 65  1  0
 56 57  1  0
 58 52  1  0
 58 57  1  0
 59 52  2  0
 60 61  1  0
 62 63  2  0
 63 82  1  0
 64 63  1  0
 64 67  1  0
 65 66  1  0
 65 62  1  0
 66 64  2  0
 67 68  1  0
 68 69  2  0
 70 73  1  0
 70 69  1  0
 71 70  2  0
 72 71  1  0
 72 67  2  0
 73 74  1  0
 74 79  2  0
 74 75  1  0
 75 76  2  0
 76 77  1  0
 77 81  1  0
 78 77  2  0
 79 78  1  0
 80 79  1  0
 82 83  1  0
 83 86  1  0
 83 85  1  0
 84 82  2  0
 87 62  1  0
 87 88  1  0
 89 87  1  0
M  ISO  4   9 101  10 101  52 100  60 100
M  END
>  <TORSDO>  (92) 
F 19

>  <SCORE>  (92) 
-13.046

>  <name>  (92) 
91

>  <ligand_id>  (92) 
91

>  <original_smiles>  (92) 
[H]c1c([H])c([H])c2c(c1[H])C([H])([H])C([H])([H])C([H])([H])C2([H])N([H])C(=O)C1([H])N(C(=O)C([H])(N([H])C(=O)C([H])(N([H])C([H])([H])[H])C([H])([H])[H])C(C([H])([H])[H])(C([H])([H])[H])C([H])([H])[H])C([H])([H])c2c([H])c(OC([H])([H])C([H])([H])c3c([H])c([H])c(C([H])([H])N([H])C(=O)N4C([H])([H])C([H])([H])C([H])([H])C([H])(n5nc(-c6c([H])c([H])c(Oc7c([H])c([H])c(F)c([H])c7F)c([H])c6[H])c(C(=O)N([H])[H])c5N([H])[H])C4([H])[H])c(C([H])([H])[H])c3[H])c([H])c([H])c2C1([H])[H]

>  <smiles>  (92) 
[H]c1c([H])c([H])c2c(c1[H])C([H])([H])C([H])([H])C([H])([H])C2([H])N([H])C(=O)C1([H])N(C(=O)C([H])(N([H])C(=O)C([H])(N([H])C([H])([H])[H])C([H])([H])[H])C(C([H])([H])[H])(C([H])([H])[H])C([H])([H])[H])C([H])([H])c2c([H])c(OC([H])([H])C([H])([H])c3c([H])c([H])c(C([H])([H])N([H])C(=O)N4C([H])([H])C([H])([H])C([H])([H])C([H])(n5nc(-c6c([H])c([H])c(Oc7c([H])c([H])c(F)c([H])c7F)c([H])c6[H])c(C(=O)N([H])[H])c5N([H])[H])C4([H])[H])c(C([H])([H])[H])c3[H])c([H])c([H])c2C1([H])[H]

$$$$
92:0:0
     RDKit          3D

 89 97  0  0  1  0  0  0  0  0999 V2000
  -30.1730  -21.4760   22.3510 C   0  0  0  0  0  3  0  0  0  0  0  0
  -30.1250  -20.1810   21.7650 C   0  0  0  0  0  3  0  0  0  0  0  0
  -29.5560  -22.6440   21.8200 C   0  0  0  0  0  3  0  0  0  0  0  0
  -29.4800  -19.9140   20.5420 C   0  0  0  0  0  0  0  0  0  0  0  0
  -28.7970  -22.6620   20.6280 C   0  0  0  0  0  0  0  0  0  0  0  0
  -28.8260  -21.2260   20.0070 C   0  0  0  0  0  0  0  0  0  0  0  0
  -28.1410  -21.0650   18.6620 C   0  0  0  0  0  1  0  0  0  0  0  0
  -26.5260  -23.7150   19.7080 C   0  0  0  0  0  1  0  0  0  0  0  0
  -27.8340  -24.1400   20.3900 C   0  0  0  0  0  3  0  0  0  0  0  0
  -28.1450  -25.7960   20.2620 O   0  0  0  0  0  0  0  0  0  0  0  0
  -24.6340  -31.8900   23.2120 C   0  0  0  0  0  0  0  0  0  0  0  0
  -27.1670  -26.9520   20.2080 C   0  0  0  0  0  0  0  0  0  0  0  0
  -23.4370  -30.4860   21.5870 C   0  0  0  0  0  3  0  0  0  0  0  0
  -24.8840  -28.8850   20.1570 C   0  0  0  0  0  0  0  0  0  0  0  0
  -26.0070  -30.6800   21.4430 C   0  0  0  0  0  2  0  0  0  0  0  0
  -26.0720  -29.2630   20.7940 C   0  0  0  0  0  0  0  0  0  0  0  0
  -27.2020  -28.3160   20.8050 C   0  0  0  0  0  3  0  0  0  0  0  0
  -25.9790  -26.7940   19.4540 C   0  0  0  0  0  3  0  0  0  0  0  0
  -24.8670  -27.6710   19.4630 C   0  0  0  0  0  3  0  0  0  0  0  0
  -23.6650  -29.8060   20.2090 C   0  0  0  0  0  2  0  0  0  0  0  0
  -24.7140  -31.0470   22.1320 N   0  0  0  0  0  0  0  0  0  0  0  0
  -23.5460  -32.1810   23.7340 O   0  0  0  0  0  0  0  0  0  0  0  0
  -22.7480  -29.4890   22.5570 C   0  0  0  0  0  0  0  0  0  0  0  0
  -21.4190  -29.3140   22.4330 N   0  0  0  0  0  0  0  0  0  0  0  0
  -23.4180  -28.8760   23.3910 O   0  0  0  0  0  0  0  0  0  0  0  0
  -20.9310  -29.8580   21.7350 H   0  0  0  0  0  0  0  0  0  0  0  0
  -18.0450  -28.0840   22.9560 C   0  0  0  0  0  0  0  0  0  0  0  0
  -20.6030  -28.3760   23.2110 C   0  0  0  0  0  3  0  0  0  0  0  0
  -20.7160  -26.9410   22.6440 C   0  0  0  0  0  2  0  0  0  0  0  0
  -19.6140  -26.6030   21.6360 C   0  0  0  0  0  2  0  0  0  0  0  0
  -18.2330  -26.7350   22.2830 C   0  0  0  0  0  2  0  0  0  0  0  0
  -19.1570  -28.8620   23.3770 C   0  0  0  0  0  0  0  0  0  0  0  0
  -18.9240  -30.1220   23.9700 C   0  0  0  0  0  3  0  0  0  0  0  0
  -17.6130  -30.6040   24.1480 C   0  0  0  0  0  3  0  0  0  0  0  0
  -16.5160  -29.8250   23.7410 C   0  0  0  0  0  3  0  0  0  0  0  0
  -16.7340  -28.5670   23.1500 C   0  0  0  0  0  3  0  0  0  0  0  0
  -25.9040  -32.5390   23.8350 C   0  0  0  0  0  3  0  0  0  0  0  0
  -25.5870  -33.9440   24.1510 N   0  0  0  0  0  0  0  0  0  0  0  0
  -25.9240  -34.9980   23.3960 C   0  0  0  0  0  0  0  0  0  0  0  0
  -26.5970  -34.8900   22.3670 O   0  0  0  0  0  0  0  0  0  0  0  0
  -24.9890  -34.1000   24.9500 H   0  0  0  0  0  0  0  0  0  0  0  0
  -24.2180  -36.8120   23.0240 C   0  0  0  0  0  1  0  0  0  0  0  0
  -25.4430  -36.3900   23.8520 C   0  0  0  0  0  3  0  0  0  0  0  0
  -27.5630  -37.2670   24.7270 C   0  0  0  0  0  1  0  0  0  0  0  0
  -26.4850  -37.4370   23.7570 N   0  0  0  0  0  0  0  0  0  0  0  0
  -26.0810  -38.3610   23.8890 H   0  0  0  0  0  0  0  0  0  0  0  0
  -26.4080  -31.7920   25.1320 C   0  0  1  0  0  0  0  0  0  0  0  0
  -25.3020  -31.5700   26.1910 C   0  0  0  0  0  1  0  0  0  0  0  0
  -26.9990  -30.4080   24.7830 C   0  0  0  0  0  1  0  0  0  0  0  0
  -27.5490  -32.6020   25.7910 C   0  0  0  0  0  1  0  0  0  0  0  0
  -29.7250  -18.2930   19.8790 C   0  0  0  0  0  2  0  0  0  0  0  0
  -30.5310  -15.4300   20.1910 C   0  0  0  0  0  0  0  0  0  0  0  0
  -30.5230  -12.9730   19.3270 C   0  0  0  0  0  2  0  0  0  0  0  0
  -29.5890  -12.7620   18.1050 C   0  0  0  0  0  2  0  0  0  0  0  0
  -28.1500  -12.4680   18.5650 C   0  0  0  0  0  2  0  0  0  0  0  0
  -27.7090  -13.4180   19.7080 C   0  0  0  0  0  3  0  0  0  0  0  0
  -28.7720  -13.5780   20.8190 C   0  0  0  0  0  2  0  0  0  0  0  0
  -29.9900  -14.1060   20.1810 N   0  0  0  0  0  0  0  0  0  0  0  0
  -31.7160  -15.4490   19.8310 O   0  0  0  0  0  0  0  0  0  0  0  0
  -29.7700  -16.6950   20.4180 N   0  0  0  0  0  0  0  0  0  0  0  0
  -28.8870  -16.4630   20.8480 H   0  0  0  0  0  0  0  0  0  0  0  0
  -25.3560  -13.9460   20.5340 C   0  0  0  0  0  0  0  0  0  0  0  0
  -24.3050  -13.1570   20.9060 C   0  0  0  0  0  0  0  0  0  0  0  0
  -24.7720  -11.8090   20.8220 C   0  0  0  0  0  0  0  0  0  0  0  0
  -26.3940  -13.0820   20.2370 N   0  0  0  0  0  0  0  0  0  0  0  0
  -26.0560  -11.7870   20.4770 N   0  0  0  0  0  0  0  0  0  0  0  0
  -24.0500  -10.5400   20.9910 C   0  0  0  0  0  0  0  0  0  0  0  0
  -24.4750   -9.5630   21.9190 C   0  0  0  0  0  3  0  0  0  0  0  0
  -23.7500   -8.3630   22.0790 C   0  0  0  0  0  3  0  0  0  0  0  0
  -22.5840   -8.1310   21.3110 C   0  0  0  0  0  0  0  0  0  0  0  0
  -22.1780   -9.0960   20.3730 C   0  0  0  0  0  3  0  0  0  0  0  0
  -22.9040  -10.2880   20.2100 C   0  0  0  0  0  3  0  0  0  0  0  0
  -21.8310   -6.9830   21.3800 O   0  0  0  0  0  0  0  0  0  0  0  0
  -21.7340   -6.2540   22.5380 C   0  0  0  0  0  0  0  0  0  0  0  0
  -21.2140   -6.8100   23.7280 C   0  0  0  0  0  3  0  0  0  0  0  0
  -21.0660   -6.0060   24.8740 C   0  0  0  0  0  3  0  0  0  0  0  0
  -21.4290   -4.6470   24.8340 C   0  0  0  0  0  0  0  0  0  0  0  0
  -21.9420   -4.0900   23.6500 C   0  0  0  0  0  3  0  0  0  0  0  0
  -22.0900   -4.8900   22.5040 C   0  0  0  0  0  0  0  0  0  0  0  0
  -22.5650   -4.3430   21.3600 F   0  0  0  0  0  0  0  0  0  0  0  0
  -21.2810   -3.8710   25.9340 F   0  0  0  0  0  0  0  0  0  0  0  0
  -22.9140  -13.6240   21.2220 C   0  0  0  0  0  0  0  0  0  0  0  0
  -22.1990  -12.8960   22.0700 N   0  0  0  0  0  0  0  0  0  0  0  0
  -22.4720  -14.6730   20.7520 O   0  0  0  0  0  0  0  0  0  0  0  0
  -22.5730  -12.0510   22.4770 H   0  0  0  0  0  0  0  0  0  0  0  0
  -21.2670  -13.1930   22.3220 H   0  0  0  0  0  0  0  0  0  0  0  0
  -25.5110  -15.3230   20.3930 N   0  0  0  0  0  0  0  0  0  0  0  0
  -24.7450  -15.9700   20.5440 H   0  0  0  0  0  0  0  0  0  0  0  0
  -26.3370  -15.7710   20.0170 H   0  0  0  0  0  0  0  0  0  0  0  0
  2  1  2  0
  3  1  1  0
  4  2  1  0
  5  3  2  0
  6  4  2  0
  6  5  1  0
  7  6  1  0
  9  8  1  0
  9  5  1  0
 10  9  1  0
 11 22  2  0
 12 10  1  0
 12 17  1  0
 13 21  1  0
 13 23  1  0
 14 20  1  0
 14 16  1  0
 15 21  1  0
 16 17  2  0
 16 15  1  0
 18 19  1  0
 18 12  2  0
 19 14  2  0
 20 13  1  0
 21 11  1  0
 23 25  2  0
 24 23  1  0
 26 24  1  0
 27 36  2  0
 27 32  1  0
 28 24  1  0
 28 32  1  0
 29 28  1  0
 30 31  1  0
 30 29  1  0
 31 27  1  0
 32 33  2  0
 33 34  1  0
 35 34  2  0
 36 35  1  0
 37 11  1  0
 37 38  1  0
 37 47  1  0
 38 41  1  0
 39 43  1  0
 39 38  1  0
 40 39  2  0
 43 42  1  0
 45 43  1  0
 45 46  1  0
 45 44  1  0
 47 50  1  1
 47 48  1  0
 49 47  1  0
 51 60  1  0
 51  4  1  0
 52 60  1  0
 53 58  1  0
 54 55  1  0
 54 53  1  0
 56 55  1  0
 56 65  1  0
 56 57  1  0
 58 52  1  0
 58 57  1  0
 59 52  2  0
 60 61  1  0
 62 63  2  0
 63 82  1  0
 64 63  1  0
 64 67  1  0
 65 66  1  0
 65 62  1  0
 66 64  2  0
 67 68  1  0
 68 69  2  0
 70 73  1  0
 70 69  1  0
 71 70  2  0
 72 71  1  0
 72 67  2  0
 73 74  1  0
 74 75  1  0
 75 76  2  0
 77 76  1  0
 77 81  1  0
 78 77  2  0
 79 74  2  0
 79 78  1  0
 80 79  1  0
 82 83  1  0
 83 86  1  0
 83 85  1  0
 84 82  2  0
 87 62  1  0
 87 88  1  0
 89 87  1  0
M  ISO  4   9 101  10 101  52 100  60 100
M  END
>  <TORSDO>  (93) 
F 18

>  <SCORE>  (93) 
-16.700

>  <name>  (93) 
92

>  <ligand_id>  (93) 
92

>  <original_smiles>  (93) 
[H]c1c([H])c([H])c2c(c1[H])C([H])([H])C([H])([H])C([H])([H])C2([H])N([H])C(=O)C1([H])N(C(=O)C([H])(N([H])C(=O)C([H])(N([H])C([H])([H])[H])C([H])([H])[H])C(C([H])([H])[H])(C([H])([H])[H])C([H])([H])[H])C([H])([H])c2c([H])c(OC([H])(c3c([H])c([H])c([H])c(C([H])([H])N([H])C(=O)N4C([H])([H])C([H])([H])C([H])([H])C([H])(n5nc(-c6c([H])c([H])c(Oc7c([H])c([H])c(F)c([H])c7F)c([H])c6[H])c(C(=O)N([H])[H])c5N([H])[H])C4([H])[H])c3C([H])([H])[H])C([H])([H])[H])c([H])c([H])c2C1([H])[H]

>  <smiles>  (93) 
[H]c1c([H])c([H])c2c(c1[H])C([H])([H])C([H])([H])C([H])([H])C2([H])N([H])C(=O)C1([H])N(C(=O)C([H])(N([H])C(=O)C([H])(N([H])C([H])([H])[H])C([H])([H])[H])C(C([H])([H])[H])(C([H])([H])[H])C([H])([H])[H])C([H])([H])c2c([H])c(OC([H])(c3c([H])c([H])c([H])c(C([H])([H])N([H])C(=O)N4C([H])([H])C([H])([H])C([H])([H])C([H])(n5nc(-c6c([H])c([H])c(Oc7c([H])c([H])c(F)c([H])c7F)c([H])c6[H])c(C(=O)N([H])[H])c5N([H])[H])C4([H])[H])c3C([H])([H])[H])C([H])([H])[H])c([H])c([H])c2C1([H])[H]

$$$$
93:0:0
     RDKit          3D

 97106  0  0  1  0  0  0  0  0999 V2000
  -29.5010  -22.7770   16.2950 C   0  0  0  0  0  3  0  0  0  0  0  0
  -29.1080  -24.1320   16.1200 C   0  0  0  0  0  3  0  0  0  0  0  0
  -30.1220  -24.1020   13.9330 C   0  0  0  0  0  3  0  0  0  0  0  0
  -30.2580  -22.0600   15.3170 C   0  0  0  0  0  0  0  0  0  0  0  0
  -29.4230  -24.8200   14.9310 C   0  0  0  0  0  0  0  0  0  0  0  0
  -30.5290  -22.7540   14.1050 C   0  0  0  0  0  0  0  0  0  0  0  0
  -31.2510  -22.0630   12.9480 C   0  0  0  0  0  1  0  0  0  0  0  0
  -32.4720  -20.4220   17.3360 C   0  0  0  0  0  2  0  0  0  0  0  0
  -31.2440  -20.6590   18.2390 C   0  0  0  0  0  2  0  0  0  0  0  0
  -29.8990  -19.6660   16.3930 C   0  0  0  0  0  2  0  0  0  0  0  0
  -30.7810  -20.5980   15.5070 C   0  0  0  0  0  3  0  0  0  0  0  0
  -32.2270  -20.5050   15.8760 N   0  0  0  0  0  0  0  0  0  0  0  0
  -30.0810  -19.8360   17.8530 N   0  0  0  0  0  4  0  0  0  0  0  0
  -29.2480  -20.2290   18.2540 H   0  0  0  0  0  0  0  0  0  0  0  0
  -30.1840  -18.9160   18.2600 H   0  0  0  0  0  0  0  0  0  0  0  0
  -33.0250  -19.4310   15.2210 C   0  0  0  0  0  2  0  0  0  0  0  0
  -32.3040  -18.7170   14.0090 C   0  0  0  0  0  2  0  0  0  0  0  0
  -33.3360  -17.4780   11.9880 C   0  0  0  0  0  0  0  0  0  0  0  0
  -33.5160  -15.4370   10.6000 C   0  0  0  0  0  2  0  0  0  0  0  0
  -32.4150  -14.4800   11.1070 C   0  0  0  0  0  2  0  0  0  0  0  0
  -32.8930  -13.6670   12.3280 C   0  0  0  0  0  2  0  0  0  0  0  0
  -33.5740  -14.5500   13.4100 C   0  0  0  0  0  3  0  0  0  0  0  0
  -34.6230  -15.4840   12.7630 C   0  0  0  0  0  2  0  0  0  0  0  0
  -33.9210  -16.2780   11.7420 N   0  0  0  0  0  0  0  0  0  0  0  0
  -32.8210  -18.1700   11.0970 O   0  0  0  0  0  0  0  0  0  0  0  0
  -33.1710  -17.7400   13.3110 N   0  0  0  0  0  0  0  0  0  0  0  0
  -33.6730  -17.0980   13.9110 H   0  0  0  0  0  0  0  0  0  0  0  0
  -34.1410  -13.9800   15.8510 C   0  0  0  0  0  0  0  0  0  0  0  0
  -34.7610  -12.8980   16.4140 C   0  0  0  0  0  0  0  0  0  0  0  0
  -35.1180  -12.0410   15.3310 C   0  0  0  0  0  0  0  0  0  0  0  0
  -34.1480  -13.7520   14.4840 N   0  0  0  0  0  0  0  0  0  0  0  0
  -34.7900  -12.5990   14.1730 N   0  0  0  0  0  0  0  0  0  0  0  0
  -35.6970  -10.6920   15.3280 C   0  0  0  0  0  0  0  0  0  0  0  0
  -36.5230  -10.2410   16.3810 C   0  0  0  0  0  3  0  0  0  0  0  0
  -37.0520   -8.9320   16.3640 C   0  0  0  0  0  3  0  0  0  0  0  0
  -36.7550   -8.0600   15.2900 C   0  0  0  0  0  0  0  0  0  0  0  0
  -35.9540   -8.5240   14.2310 C   0  0  0  0  0  3  0  0  0  0  0  0
  -35.4330   -9.8280   14.2460 C   0  0  0  0  0  3  0  0  0  0  0  0
  -37.2470   -6.7830   15.1750 O   0  0  0  0  0  0  0  0  0  0  0  0
  -36.4210   -5.7110   14.9530 C   0  0  0  0  0  0  0  0  0  0  0  0
  -36.4560   -4.9790   13.7460 C   0  0  0  0  0  3  0  0  0  0  0  0
  -35.6390   -3.8420   13.5860 C   0  0  0  0  0  3  0  0  0  0  0  0
  -34.7910   -3.4320   14.6320 C   0  0  0  0  0  0  0  0  0  0  0  0
  -34.7580   -4.1550   15.8380 C   0  0  0  0  0  3  0  0  0  0  0  0
  -35.5720   -5.2900   15.9970 C   0  0  0  0  0  0  0  0  0  0  0  0
  -35.5530   -5.9710   17.1690 F   0  0  0  0  0  0  0  0  0  0  0  0
  -34.0120   -2.3360   14.4840 F   0  0  0  0  0  0  0  0  0  0  0  0
  -34.9260  -12.6230   17.8810 C   0  0  0  0  0  0  0  0  0  0  0  0
  -35.9500  -13.2020   18.5000 N   0  0  0  0  0  0  0  0  0  0  0  0
  -34.1130  -11.9350   18.4950 O   0  0  0  0  0  0  0  0  0  0  0  0
  -36.6080  -13.7780   17.9950 H   0  0  0  0  0  0  0  0  0  0  0  0
  -36.0860  -13.0580   19.4910 H   0  0  0  0  0  0  0  0  0  0  0  0
  -33.5410  -15.1140   16.3910 N   0  0  0  0  0  0  0  0  0  0  0  0
  -33.4060  -15.1770   17.3940 H   0  0  0  0  0  0  0  0  0  0  0  0
  -32.8680  -15.6650   15.8710 H   0  0  0  0  0  0  0  0  0  0  0  0
  -29.0990  -26.3130   14.6930 C   0  0  0  0  0  2  0  0  0  0  0  0
  -29.7950  -27.3300   15.4620 O   0  0  0  0  0  0  0  0  0  0  0  0
  -29.3070  -28.2350   22.5510 C   0  0  0  0  0  0  0  0  0  0  0  0
  -30.3050  -27.0160   16.7150 C   0  0  0  0  0  0  0  0  0  0  0  0
  -31.3590  -27.1430   21.7240 C   0  0  0  0  0  3  0  0  0  0  0  0
  -31.3210  -26.3960   19.2870 C   0  0  0  0  0  0  0  0  0  0  0  0
  -29.1650  -26.9290   20.4210 C   0  0  0  0  0  2  0  0  0  0  0  0
  -29.9950  -26.8190   19.1520 C   0  0  0  0  0  0  0  0  0  0  0  0
  -29.4800  -27.1290   17.8660 C   0  0  0  0  0  3  0  0  0  0  0  0
  -31.6440  -26.6030   16.8870 C   0  0  0  0  0  3  0  0  0  0  0  0
  -32.1500  -26.2900   18.1610 C   0  0  0  0  0  3  0  0  0  0  0  0
  -31.8090  -26.0840   20.6820 C   0  0  0  0  0  2  0  0  0  0  0  0
  -29.9070  -27.4860   21.5860 N   0  0  0  0  0  0  0  0  0  0  0  0
  -29.9320  -28.6030   23.5540 O   0  0  0  0  0  0  0  0  0  0  0  0
  -32.2880  -28.3750   21.6310 C   0  0  0  0  0  0  0  0  0  0  0  0
  -32.6770  -28.7400   20.3970 N   0  0  0  0  0  0  0  0  0  0  0  0
  -32.6310  -28.9900   22.6440 O   0  0  0  0  0  0  0  0  0  0  0  0
  -32.4140  -28.1440   19.6260 H   0  0  0  0  0  0  0  0  0  0  0  0
  -35.5170  -29.8150   18.4270 C   0  0  0  0  0  0  0  0  0  0  0  0
  -33.5070  -29.8930   20.0520 C   0  0  0  0  0  3  0  0  0  0  0  0
  -32.8210  -30.7960   18.9990 C   0  0  0  0  0  2  0  0  0  0  0  0
  -33.2300  -30.4870   17.5550 C   0  0  0  0  0  2  0  0  0  0  0  0
  -34.7470  -30.6060   17.3790 C   0  0  0  0  0  2  0  0  0  0  0  0
  -34.9290  -29.4660   19.6720 C   0  0  0  0  0  0  0  0  0  0  0  0
  -35.6720  -28.6990   20.5930 C   0  0  0  0  0  3  0  0  0  0  0  0
  -36.9780  -28.2810   20.2820 C   0  0  0  0  0  3  0  0  0  0  0  0
  -37.5680  -28.6510   19.0580 C   0  0  0  0  0  3  0  0  0  0  0  0
  -36.8390  -29.4210   18.1340 C   0  0  0  0  0  3  0  0  0  0  0  0
  -27.8040  -28.6410   22.4540 C   0  0  0  0  0  3  0  0  0  0  0  0
  -27.5030  -30.0400   23.1240 C   0  0  1  0  0  0  0  0  0  0  0  0
  -26.9700  -29.9420   24.5750 C   0  0  0  0  0  1  0  0  0  0  0  0
  -28.7800  -30.9120   23.1510 C   0  0  0  0  0  1  0  0  0  0  0  0
  -26.4600  -30.8090   22.2790 C   0  0  0  0  0  1  0  0  0  0  0  0
  -27.0160  -27.5790   23.0930 N   0  0  0  0  0  0  0  0  0  0  0  0
  -25.9270  -27.0170   22.5530 C   0  0  0  0  0  0  0  0  0  0  0  0
  -25.4400  -27.3970   21.4870 O   0  0  0  0  0  0  0  0  0  0  0  0
  -27.3920  -27.1860   23.9430 H   0  0  0  0  0  0  0  0  0  0  0  0
  -25.0390  -24.6730   22.3560 C   0  0  0  0  0  1  0  0  0  0  0  0
  -25.2720  -25.8490   23.3170 C   0  0  0  0  0  3  0  0  0  0  0  0
  -24.1820  -26.8640   25.2710 C   0  0  0  0  0  1  0  0  0  0  0  0
  -23.9970  -26.2150   23.9760 N   0  0  0  0  0  0  0  0  0  0  0  0
  -23.4120  -25.3950   24.1110 H   0  0  0  0  0  0  0  0  0  0  0  0
  2  1  1  0
  3  6  2  0
  3  5  1  0
  4  1  2  0
  5  2  2  0
  6  4  1  0
  7  6  1  0
  8  9  1  0
 10 13  1  0
 11  4  1  0
 11 12  1  0
 11 10  1  0
 12  8  1  0
 13  9  1  0
 13 14  1  0
 13 15  1  0
 16 12  1  0
 17 16  1  0
 18 26  1  0
 19 20  1  0
 19 24  1  0
 20 21  1  0
 22 21  1  0
 22 31  1  0
 23 22  1  0
 24 18  1  0
 24 23  1  0
 25 18  2  0
 26 27  1  0
 26 17  1  0
 28 53  1  0
 28 29  2  0
 29 48  1  0
 30 29  1  0
 31 28  1  0
 32 31  1  0
 32 30  2  0
 33 30  1  0
 33 34  1  0
 35 34  2  0
 36 35  1  0
 37 38  1  0
 37 36  2  0
 38 33  2  0
 39 36  1  0
 40 39  1  0
 40 45  1  0
 41 40  2  0
 42 41  1  0
 42 43  2  0
 43 44  1  0
 44 45  2  0
 45 46  1  0
 47 43  1  0
 48 50  2  0
 48 49  1  0
 49 52  1  0
 51 49  1  0
 53 54  1  0
 55 53  1  0
 56  5  1  0
 56 57  1  0
 57 59  1  0
 58 69  2  0
 59 65  2  0
 59 64  1  0
 60 70  1  0
 61 67  1  0
 62 68  1  0
 63 61  1  0
 63 62  1  0
 64 63  2  0
 65 66  1  0
 66 61  2  0
 67 60  1  0
 68 60  1  0
 68 58  1  0
 70 72  2  0
 71 70  1  0
 73 71  1  0
 74 79  1  0
 75 71  1  0
 76 75  1  0
 77 76  1  0
 78 77  1  0
 78 74  1  0
 79 75  1  0
 79 80  2  0
 81 80  1  0
 82 81  2  0
 83 74  2  0
 83 82  1  0
 84 58  1  0
 84 89  1  0
 84 85  1  0
 85 87  1  1
 85 86  1  0
 88 85  1  0
 89 92  1  0
 90 89  1  0
 90 94  1  0
 91 90  2  0
 94 93  1  0
 94 96  1  0
 96 97  1  0
 96 95  1  0
M  ISO  4  18 100  26 100  56 101  57 101
M  END
>  <TORSDO>  (94) 
F 20

>  <SCORE>  (94) 
-4.438

>  <name>  (94) 
93

>  <ligand_id>  (94) 
93

>  <original_smiles>  (94) 
[H]c1c([H])c([H])c2c(c1[H])C([H])([H])C([H])([H])C([H])([H])C2([H])N([H])C(=O)C1([H])N(C(=O)C([H])(N([H])C(=O)C([H])(N([H])C([H])([H])[H])C([H])([H])[H])C(C([H])([H])[H])(C([H])([H])[H])C([H])([H])[H])C([H])([H])c2c([H])c(OC([H])([H])c3c([H])c([H])c(C4([H])N(C([H])([H])C([H])([H])N([H])C(=O)N5C([H])([H])C([H])([H])C([H])([H])C([H])(n6nc(-c7c([H])c([H])c(Oc8c([H])c([H])c(F)c([H])c8F)c([H])c7[H])c(C(=O)N([H])[H])c6N([H])[H])C5([H])[H])C([H])([H])C([H])([H])[N+]([H])([H])C4([H])[H])c(C([H])([H])[H])c3[H])c([H])c([H])c2C1([H])[H]

>  <smiles>  (94) 
[H]c1c([H])c([H])c2c(c1[H])C([H])([H])C([H])([H])C([H])([H])C2([H])N([H])C(=O)C1([H])N(C(=O)C([H])(N([H])C(=O)C([H])(N([H])C([H])([H])[H])C([H])([H])[H])C(C([H])([H])[H])(C([H])([H])[H])C([H])([H])[H])C([H])([H])c2c([H])c(OC([H])([H])c3c([H])c([H])c(C4([H])N(C([H])([H])C([H])([H])N([H])C(=O)N5C([H])([H])C([H])([H])C([H])([H])C([H])(n6nc(-c7c([H])c([H])c(Oc8c([H])c([H])c(F)c([H])c8F)c([H])c7[H])c(C(=O)N([H])[H])c6N([H])[H])C5([H])[H])C([H])([H])C([H])([H])[N+]([H])([H])C4([H])[H])c(C([H])([H])[H])c3[H])c([H])c([H])c2C1([H])[H]

$$$$
