0:0:0
     RDKit          3D

 95103  0  0  1  0  0  0  0  0999 V2000
  -28.8080  -21.7260   20.5060 N   0  0  0  0  0  4  0  0  0  0  0  0
  -28.2140  -21.3390   19.7920 H   0  0  0  0  0  0  0  0  0  0  0  0
  -29.7110  -21.8900   20.0930 H   0  0  0  0  0  0  0  0  0  0  0  0
  -26.7090  -22.9590   21.0840 C   0  0  0  0  0  1  0  0  0  0  0  0
  -28.2500  -23.0470   20.9360 C   0  0  0  0  0  3  0  0  0  0  0  0
  -28.1650  -24.1230   18.5870 C   0  0  0  0  0  1  0  0  0  0  0  0
  -28.7100  -24.2390   20.0250 C   0  0  0  0  0  3  0  0  0  0  0  0
  -28.4190  -25.6230   20.6890 C   0  0  0  0  0  2  0  0  0  0  0  0
  -28.5320  -26.7840   19.8380 O   0  0  0  0  0  0  0  0  0  0  0  0
  -24.6900  -31.8530   23.0360 C   0  0  0  0  0  0  0  0  0  0  0  0
  -27.3840  -27.5440   19.8240 C   0  0  0  0  0  0  0  0  0  0  0  0
  -23.4920  -30.4610   21.3820 C   0  0  0  0  0  3  0  0  0  0  0  0
  -24.9580  -28.9940   19.8970 C   0  0  0  0  0  0  0  0  0  0  0  0
  -26.0060  -30.8840   21.1530 C   0  0  0  0  0  2  0  0  0  0  0  0
  -26.1150  -29.5320   20.4790 C   0  0  0  0  0  0  0  0  0  0  0  0
  -27.3340  -28.8160   20.4370 C   0  0  0  0  0  3  0  0  0  0  0  0
  -26.2150  -27.0230   19.2310 C   0  0  0  0  0  3  0  0  0  0  0  0
  -25.0040  -27.7380   19.2680 C   0  0  0  0  0  3  0  0  0  0  0  0
  -23.6940  -29.8200   19.9850 C   0  0  0  0  0  2  0  0  0  0  0  0
  -24.7490  -31.0810   21.9140 N   0  0  0  0  0  0  0  0  0  0  0  0
  -23.6110  -32.0870   23.5980 O   0  0  0  0  0  0  0  0  0  0  0  0
  -22.8780  -29.4030   22.3280 C   0  0  0  0  0  0  0  0  0  0  0  0
  -21.5510  -29.2160   22.2340 N   0  0  0  0  0  0  0  0  0  0  0  0
  -23.5900  -28.7560   23.0990 O   0  0  0  0  0  0  0  0  0  0  0  0
  -21.0380  -29.7950   21.5840 H   0  0  0  0  0  0  0  0  0  0  0  0
  -18.1980  -27.9920   22.7970 C   0  0  0  0  0  0  0  0  0  0  0  0
  -20.7640  -28.2450   22.9930 C   0  0  0  0  0  3  0  0  0  0  0  0
  -20.8500  -26.8400   22.3550 C   0  0  0  0  0  2  0  0  0  0  0  0
  -19.7150  -26.5600   21.3650 C   0  0  0  0  0  2  0  0  0  0  0  0
  -18.3530  -26.6720   22.0580 C   0  0  0  0  0  2  0  0  0  0  0  0
  -19.3300  -28.7380   23.2200 C   0  0  0  0  0  0  0  0  0  0  0  0
  -19.1320  -29.9780   23.8650 C   0  0  0  0  0  3  0  0  0  0  0  0
  -17.8340  -30.4710   24.0940 C   0  0  0  0  0  3  0  0  0  0  0  0
  -16.7160  -29.7200   23.6870 C   0  0  0  0  0  3  0  0  0  0  0  0
  -16.9000  -28.4830   23.0440 C   0  0  0  0  0  3  0  0  0  0  0  0
  -25.9700  -32.4940   23.6550 C   0  0  0  0  0  3  0  0  0  0  0  0
  -26.5550  -31.6740   24.8700 C   0  0  1  0  0  0  0  0  0  0  0  0
  -25.5020  -31.3200   25.9460 C   0  0  0  0  0  1  0  0  0  0  0  0
  -27.1940  -30.3520   24.3800 C   0  0  0  0  0  1  0  0  0  0  0  0
  -27.6840  -32.4820   25.5530 C   0  0  0  0  0  1  0  0  0  0  0  0
  -25.6250  -33.8600   24.0700 N   0  0  0  0  0  0  0  0  0  0  0  0
  -25.8920  -34.9630   23.3550 C   0  0  0  0  0  0  0  0  0  0  0  0
  -26.5290  -34.9390   22.2980 O   0  0  0  0  0  0  0  0  0  0  0  0
  -25.0540  -33.9490   24.8970 H   0  0  0  0  0  0  0  0  0  0  0  0
  -24.0860  -36.7030   23.1470 C   0  0  0  0  0  1  0  0  0  0  0  0
  -25.3670  -36.3050   23.9000 C   0  0  0  0  0  3  0  0  0  0  0  0
  -27.4910  -37.2290   24.7140 C   0  0  0  0  0  1  0  0  0  0  0  0
  -26.3560  -37.4010   23.8110 N   0  0  0  0  0  0  0  0  0  0  0  0
  -25.9220  -38.2980   24.0140 H   0  0  0  0  0  0  0  0  0  0  0  0
  -28.9620  -20.7350   21.6100 C   0  0  0  0  0  2  0  0  0  0  0  0
  -31.0690  -14.5870   19.8570 C   0  0  0  0  0  0  0  0  0  0  0  0
  -30.5860  -12.4930   18.6270 C   0  0  0  0  0  2  0  0  0  0  0  0
  -29.5190  -12.7240   17.5400 C   0  0  0  0  0  2  0  0  0  0  0  0
  -28.1060  -12.5580   18.1290 C   0  0  0  0  0  2  0  0  0  0  0  0
  -27.9090  -13.3700   19.4360 C   0  0  0  0  0  3  0  0  0  0  0  0
  -29.0760  -13.1370   20.4210 C   0  0  0  0  0  2  0  0  0  0  0  0
  -30.3390  -13.4440   19.7260 N   0  0  0  0  0  0  0  0  0  0  0  0
  -32.0260  -14.8490   19.1210 O   0  0  0  0  0  0  0  0  0  0  0  0
  -28.5140  -18.2620   21.1480 C   0  0  0  0  0  3  0  0  0  0  0  0
  -28.9730  -16.9370   20.9870 C   0  0  0  0  0  3  0  0  0  0  0  0
  -29.4430  -19.3230   21.2230 C   0  0  0  0  0  0  0  0  0  0  0  0
  -30.8100  -18.9860   21.0800 C   0  0  0  0  0  0  0  0  0  0  0  0
  -30.3560  -16.6830   20.8990 C   0  0  0  0  0  0  0  0  0  0  0  0
  -31.9060  -20.0370   21.0960 C   0  0  0  0  0  1  0  0  0  0  0  0
  -31.2400  -17.7080   20.9400 N   0  0  0  0  0  0  0  0  0  0  0  0
  -30.8100  -15.3380   20.9410 N   0  0  0  0  0  0  0  0  0  0  0  0
  -31.6160  -15.2770   21.5450 H   0  0  0  0  0  0  0  0  0  0  0  0
  -25.6410  -13.9580   20.4990 C   0  0  0  0  0  0  0  0  0  0  0  0
  -24.5990  -13.1800   20.9230 C   0  0  0  0  0  0  0  0  0  0  0  0
  -24.9980  -11.8270   20.6930 C   0  0  0  0  0  0  0  0  0  0  0  0
  -26.6150  -13.0820   20.0490 N   0  0  0  0  0  0  0  0  0  0  0  0
  -26.2360  -11.7870   20.2160 N   0  0  0  0  0  0  0  0  0  0  0  0
  -24.2500  -10.5720   20.8400 C   0  0  0  0  0  0  0  0  0  0  0  0
  -24.7080   -9.5350   21.6820 C   0  0  0  0  0  3  0  0  0  0  0  0
  -23.9630   -8.3450   21.8230 C   0  0  0  0  0  3  0  0  0  0  0  0
  -22.7450   -8.1830   21.1210 C   0  0  0  0  0  0  0  0  0  0  0  0
  -22.3030   -9.2090   20.2670 C   0  0  0  0  0  3  0  0  0  0  0  0
  -23.0500  -10.3920   20.1240 C   0  0  0  0  0  3  0  0  0  0  0  0
  -21.9680   -7.0510   21.1760 O   0  0  0  0  0  0  0  0  0  0  0  0
  -21.9050   -6.2760   22.3080 C   0  0  0  0  0  0  0  0  0  0  0  0
  -21.4830   -6.8020   23.5480 C   0  0  0  0  0  3  0  0  0  0  0  0
  -21.3610   -5.9540   24.6680 C   0  0  0  0  0  3  0  0  0  0  0  0
  -21.6580   -4.5830   24.5480 C   0  0  0  0  0  0  0  0  0  0  0  0
  -22.0740   -4.0570   23.3130 C   0  0  0  0  0  3  0  0  0  0  0  0
  -22.1950   -4.9010   22.1950 C   0  0  0  0  0  0  0  0  0  0  0  0
  -22.5760   -4.3860   21.0020 F   0  0  0  0  0  0  0  0  0  0  0  0
  -21.5350   -3.7670   25.6210 F   0  0  0  0  0  0  0  0  0  0  0  0
  -23.2670  -13.6630   21.4230 C   0  0  0  0  0  0  0  0  0  0  0  0
  -22.6340  -12.9010   22.3080 N   0  0  0  0  0  0  0  0  0  0  0  0
  -22.8040  -14.7450   21.0640 O   0  0  0  0  0  0  0  0  0  0  0  0
  -23.0240  -12.0230   22.6140 H   0  0  0  0  0  0  0  0  0  0  0  0
  -21.7440  -13.2010   22.6830 H   0  0  0  0  0  0  0  0  0  0  0  0
  -25.8330  -15.3360   20.4360 N   0  0  0  0  0  0  0  0  0  0  0  0
  -25.1050  -15.9900   20.6990 H   0  0  0  0  0  0  0  0  0  0  0  0
  -26.6220  -15.7810   19.9850 H   0  0  0  0  0  0  0  0  0  0  0  0
  1  5  1  0
  1 50  1  0
  2  1  1  0
  3  1  1  0
  5  4  1  0
  7  6  1  0
  7  8  1  0
  7  5  1  0
  9  8  1  0
 10 21  2  0
 11  9  1  0
 11 16  1  0
 12 20  1  0
 12 22  1  0
 13 19  1  0
 13 15  1  0
 14 20  1  0
 15 14  1  0
 16 15  2  0
 17 18  1  0
 17 11  2  0
 18 13  2  0
 19 12  1  0
 20 10  1  0
 22 24  2  0
 23 22  1  0
 25 23  1  0
 26 35  2  0
 26 31  1  0
 27 23  1  0
 27 31  1  0
 28 27  1  0
 29 30  1  0
 29 28  1  0
 30 26  1  0
 31 32  2  0
 32 33  1  0
 34 33  2  0
 35 34  1  0
 36 10  1  0
 36 41  1  0
 36 37  1  0
 37 40  1  1
 37 38  1  0
 39 37  1  0
 41 44  1  0
 42 46  1  0
 42 41  1  0
 43 42  2  0
 46 45  1  0
 48 46  1  0
 48 49  1  0
 48 47  1  0
 51 66  1  0
 52 57  1  0
 53 54  1  0
 53 52  1  0
 55 54  1  0
 55 71  1  0
 55 56  1  0
 57 51  1  0
 57 56  1  0
 58 51  2  0
 59 61  1  0
 60 59  2  0
 61 50  1  0
 62 64  1  0
 62 61  2  0
 63 65  2  0
 63 66  1  0
 63 60  1  0
 65 62  1  0
 66 67  1  0
 68 69  2  0
 69 88  1  0
 70 73  1  0
 70 69  1  0
 71 72  1  0
 71 68  1  0
 72 70  2  0
 73 74  1  0
 74 75  2  0
 76 79  1  0
 76 75  1  0
 77 76  2  0
 78 77  1  0
 78 73  2  0
 79 80  1  0
 80 81  1  0
 81 82  2  0
 83 82  1  0
 83 87  1  0
 84 83  2  0
 85 80  2  0
 85 84  1  0
 86 85  1  0
 88 89  1  0
 89 91  1  0
 89 92  1  0
 90 88  2  0
 93 68  1  0
 93 94  1  0
 95 93  1  0
M  ISO  4   8 101   9 101  51 100  66 100
M  END
>  <TORSDO>  (1) 
F 20

>  <SCORE>  (1) 
-11.767

>  <name>  (1) 
0

>  <ligand_id>  (1) 
0

>  <original_smiles>  (1) 
[H]c1c(N([H])C(=O)N2C([H])([H])C([H])([H])C([H])([H])C([H])(n3nc(-c4c([H])c([H])c(Oc5c([H])c([H])c(F)c([H])c5F)c([H])c4[H])c(C(=O)N([H])[H])c3N([H])[H])C2([H])[H])nc(C([H])([H])[H])c(C([H])([H])[N+]([H])([H])C([H])(C([H])([H])[H])C([H])(C([H])([H])[H])C([H])([H])Oc2c([H])c([H])c3c(c2[H])C([H])([H])N(C(=O)C([H])(N([H])C(=O)C([H])(N([H])C([H])([H])[H])C([H])([H])[H])C(C([H])([H])[H])(C([H])([H])[H])C([H])([H])[H])C([H])(C(=O)N([H])C2([H])c4c([H])c([H])c([H])c([H])c4C([H])([H])C([H])([H])C2([H])[H])C3([H])[H])c1[H]

>  <smiles>  (1) 
[H]c1c(N([H])C(=O)N2C([H])([H])C([H])([H])C([H])([H])C([H])(n3nc(-c4c([H])c([H])c(Oc5c([H])c([H])c(F)c([H])c5F)c([H])c4[H])c(C(=O)N([H])[H])c3N([H])[H])C2([H])[H])nc(C([H])([H])[H])c(C([H])([H])[N+]([H])([H])C([H])(C([H])([H])[H])C([H])(C([H])([H])[H])C([H])([H])Oc2c([H])c([H])c3c(c2[H])C([H])([H])N(C(=O)C([H])(N([H])C(=O)C([H])(N([H])C([H])([H])[H])C([H])([H])[H])C(C([H])([H])[H])(C([H])([H])[H])C([H])([H])[H])C([H])(C(=O)N([H])C2([H])c4c([H])c([H])c([H])c([H])c4C([H])([H])C([H])([H])C2([H])[H])C3([H])[H])c1[H]

$$$$
1:0:0
     RDKit          3D

100109  0  0  1  0  0  0  0  0999 V2000
  -29.5630  -21.0630   21.3350 C   0  0  0  0  0  3  0  0  0  0  0  0
  -29.5240  -18.5940   21.4250 C   0  0  0  0  0  3  0  0  0  0  0  0
  -30.0230  -19.8400   21.8890 C   0  0  0  0  0  0  0  0  0  0  0  0
  -28.6760  -21.1190   20.2500 C   0  0  0  0  0  3  0  0  0  0  0  0
  -28.6060  -18.5200   20.3550 C   0  0  0  0  0  0  0  0  0  0  0  0
  -28.2570  -19.8130   19.8070 N   0  0  0  0  0  0  0  0  0  0  0  0
  -27.6540  -19.7950   18.9840 H   0  0  0  0  0  0  0  0  0  0  0  0
  -33.5550  -19.1920   22.7680 C   0  0  0  0  0  2  0  0  0  0  0  0
  -32.8820  -21.2930   23.8680 C   0  0  0  0  0  2  0  0  0  0  0  0
  -32.1790  -19.0620   22.1090 C   0  0  0  0  0  2  0  0  0  0  0  0
  -31.4890  -21.2160   23.2140 C   0  0  0  0  0  2  0  0  0  0  0  0
  -33.9490  -20.6740   22.9330 C   0  0  0  0  0  3  0  0  0  0  0  0
  -31.1300  -19.8590   22.7650 N   0  0  0  0  0  0  0  0  0  0  0  0
  -36.3390  -20.3890   22.3390 C   0  0  0  0  0  1  0  0  0  0  0  0
  -35.7340  -22.1880   23.8520 C   0  0  0  0  0  1  0  0  0  0  0  0
  -35.3710  -20.8280   23.3780 N   0  0  1  0  0  4  0  0  0  0  0  0
  -35.5000  -20.2180   24.1720 H   0  0  0  0  0  0  0  0  0  0  0  0
  -26.6940  -16.9710   19.5490 C   0  0  0  0  0  1  0  0  0  0  0  0
  -28.2200  -17.0170   19.7390 C   0  0  0  0  0  3  0  0  0  0  0  0
  -29.4010  -14.4800   19.8540 C   0  0  0  0  0  0  0  0  0  0  0  0
  -29.3510  -12.1630   18.8070 C   0  0  0  0  0  2  0  0  0  0  0  0
  -28.2460  -12.1150   17.7230 C   0  0  0  0  0  2  0  0  0  0  0  0
  -26.8900  -11.7380   18.3510 C   0  0  0  0  0  2  0  0  0  0  0  0
  -26.5990  -12.5400   19.6470 C   0  0  0  0  0  3  0  0  0  0  0  0
  -27.8150  -12.5880   20.6020 C   0  0  0  0  0  2  0  0  0  0  0  0
  -28.9380  -13.1560   19.8470 N   0  0  0  0  0  0  0  0  0  0  0  0
  -30.4840  -14.6840   19.2980 O   0  0  0  0  0  0  0  0  0  0  0  0
  -28.5810  -15.5630   20.3070 N   0  0  0  0  0  0  0  0  0  0  0  0
  -27.8450  -15.2240   20.9060 H   0  0  0  0  0  0  0  0  0  0  0  0
  -24.3070  -12.8340   20.7500 C   0  0  0  0  0  0  0  0  0  0  0  0
  -23.3970  -11.9380   21.2400 C   0  0  0  0  0  0  0  0  0  0  0  0
  -23.9900  -10.6460   21.0860 C   0  0  0  0  0  0  0  0  0  0  0  0
  -25.3880  -12.0810   20.3200 N   0  0  0  0  0  0  0  0  0  0  0  0
  -25.2160  -10.7600   20.5860 N   0  0  0  0  0  0  0  0  0  0  0  0
  -23.4320   -9.3100   21.3280 C   0  0  0  0  0  0  0  0  0  0  0  0
  -23.9480   -8.4610   22.3320 C   0  0  0  0  0  3  0  0  0  0  0  0
  -23.3780   -7.1900   22.5610 C   0  0  0  0  0  3  0  0  0  0  0  0
  -22.2760   -6.7560   21.7850 C   0  0  0  0  0  0  0  0  0  0  0  0
  -21.7780   -7.5960   20.7730 C   0  0  0  0  0  3  0  0  0  0  0  0
  -22.3510   -8.8570   20.5430 C   0  0  0  0  0  3  0  0  0  0  0  0
  -21.6770   -5.5270   21.9160 O   0  0  0  0  0  0  0  0  0  0  0  0
  -21.5680   -4.9080   23.1350 C   0  0  0  0  0  0  0  0  0  0  0  0
  -20.8610   -5.4920   24.2080 C   0  0  0  0  0  3  0  0  0  0  0  0
  -20.7140   -4.7900   25.4210 C   0  0  0  0  0  3  0  0  0  0  0  0
  -21.2650   -3.5020   25.5590 C   0  0  0  0  0  0  0  0  0  0  0  0
  -21.9680   -2.9170   24.4920 C   0  0  0  0  0  3  0  0  0  0  0  0
  -22.1160   -3.6170   23.2810 C   0  0  0  0  0  0  0  0  0  0  0  0
  -22.7750   -3.0410   22.2470 F   0  0  0  0  0  0  0  0  0  0  0  0
  -21.1190   -2.8240   26.7220 F   0  0  0  0  0  0  0  0  0  0  0  0
  -22.0140  -12.2580   21.7300 C   0  0  0  0  0  0  0  0  0  0  0  0
  -21.5110  -11.4980   22.6970 N   0  0  0  0  0  0  0  0  0  0  0  0
  -21.3900  -13.2230   21.2900 O   0  0  0  0  0  0  0  0  0  0  0  0
  -22.0300  -10.7230   23.0820 H   0  0  0  0  0  0  0  0  0  0  0  0
  -20.5890  -11.7000   23.0600 H   0  0  0  0  0  0  0  0  0  0  0  0
  -24.2980  -14.2180   20.6090 N   0  0  0  0  0  0  0  0  0  0  0  0
  -23.4840  -14.7730   20.8530 H   0  0  0  0  0  0  0  0  0  0  0  0
  -25.0120  -14.7530   20.1320 H   0  0  0  0  0  0  0  0  0  0  0  0
  -28.4650  -22.6300   19.5520 C   0  0  0  0  0  2  0  0  0  0  0  0
  -28.1470  -24.1260   20.3330 C   0  0  0  0  0  2  0  0  0  0  0  0
  -28.3930  -25.6210   19.8850 O   0  0  0  0  0  0  0  0  0  0  0  0
  -25.1790  -31.3530   23.3790 C   0  0  0  0  0  0  0  0  0  0  0  0
  -27.4170  -26.6900   19.9780 C   0  0  0  0  0  0  0  0  0  0  0  0
  -23.9140  -30.2260   21.5890 C   0  0  0  0  0  3  0  0  0  0  0  0
  -25.2590  -28.6490   20.0630 C   0  0  0  0  0  0  0  0  0  0  0  0
  -26.4850  -30.2600   21.5140 C   0  0  0  0  0  2  0  0  0  0  0  0
  -26.4560  -28.9260   20.7370 C   0  0  0  0  0  0  0  0  0  0  0  0
  -27.5420  -27.9680   20.6700 C   0  0  0  0  0  3  0  0  0  0  0  0
  -26.2020  -26.5210   19.2860 C   0  0  0  0  0  3  0  0  0  0  0  0
  -25.1490  -27.4630   19.3220 C   0  0  0  0  0  3  0  0  0  0  0  0
  -24.1180  -29.6540   20.1610 C   0  0  0  0  0  2  0  0  0  0  0  0
  -25.2130  -30.6300   22.2170 N   0  0  0  0  0  0  0  0  0  0  0  0
  -24.1050  -31.6890   23.9050 O   0  0  0  0  0  0  0  0  0  0  0  0
  -23.1150  -29.2050   22.4400 C   0  0  0  0  0  0  0  0  0  0  0  0
  -21.7750  -29.2120   22.3140 N   0  0  0  0  0  0  0  0  0  0  0  0
  -23.7050  -28.4110   23.1790 O   0  0  0  0  0  0  0  0  0  0  0  0
  -21.3610  -29.9020   21.7030 H   0  0  0  0  0  0  0  0  0  0  0  0
  -18.2710  -28.4360   22.8080 C   0  0  0  0  0  0  0  0  0  0  0  0
  -20.8460  -28.2970   22.9840 C   0  0  0  0  0  3  0  0  0  0  0  0
  -20.7190  -26.9630   22.2090 C   0  0  0  0  0  2  0  0  0  0  0  0
  -19.5560  -26.9520   21.2120 C   0  0  0  0  0  2  0  0  0  0  0  0
  -18.2290  -27.1920   21.9370 C   0  0  0  0  0  2  0  0  0  0  0  0
  -19.5000  -28.9650   23.2870 C   0  0  0  0  0  0  0  0  0  0  0  0
  -19.4820  -30.1400   24.0680 C   0  0  0  0  0  3  0  0  0  0  0  0
  -18.2690  -30.7860   24.3690 C   0  0  0  0  0  3  0  0  0  0  0  0
  -17.0540  -30.2530   23.9020 C   0  0  0  0  0  3  0  0  0  0  0  0
  -17.0560  -29.0770   23.1310 C   0  0  0  0  0  3  0  0  0  0  0  0
  -26.4860  -31.8100   24.0960 C   0  0  0  0  0  3  0  0  0  0  0  0
  -26.2200  -33.1140   24.7270 N   0  0  0  0  0  0  0  0  0  0  0  0
  -26.5860  -34.2980   24.2190 C   0  0  0  0  0  0  0  0  0  0  0  0
  -27.2480  -34.4040   23.1830 O   0  0  0  0  0  0  0  0  0  0  0  0
  -25.6340  -33.1060   25.5480 H   0  0  0  0  0  0  0  0  0  0  0  0
  -24.9110  -36.1790   24.3010 C   0  0  0  0  0  1  0  0  0  0  0  0
  -26.1490  -35.5690   24.9770 C   0  0  0  0  0  3  0  0  0  0  0  0
  -28.3140  -36.2000   25.9500 C   0  0  0  0  0  1  0  0  0  0  0  0
  -27.2120  -36.5920   25.0750 N   0  0  0  0  0  0  0  0  0  0  0  0
  -26.8350  -37.4710   25.4180 H   0  0  0  0  0  0  0  0  0  0  0  0
  -27.0000  -30.7770   25.1730 C   0  0  1  0  0  0  0  0  0  0  0  0
  -25.9140  -30.3290   26.1790 C   0  0  0  0  0  1  0  0  0  0  0  0
  -27.5590  -29.5060   24.4930 C   0  0  0  0  0  1  0  0  0  0  0  0
  -28.1700  -31.3960   25.9770 C   0  0  0  0  0  1  0  0  0  0  0  0
  1  3  2  0
  2  3  1  0
  3 13  1  0
  4 58  1  0
  4  1  1  0
  5  2  2  0
  6  4  1  0
  6  5  1  0
  7  6  1  0
  8 12  1  0
 10 13  1  0
 10  8  1  0
 11  9  1  0
 12 16  1  0
 12  9  1  0
 13 11  1  0
 14 16  1  0
 16 15  1  0
 16 17  1  1
 19 18  1  0
 19 28  1  0
 19  5  1  0
 20 28  1  0
 21 26  1  0
 22 23  1  0
 22 21  1  0
 24 23  1  0
 24 33  1  0
 24 25  1  0
 26 20  1  0
 26 25  1  0
 27 20  2  0
 28 29  1  0
 30 31  2  0
 31 50  1  0
 32 31  1  0
 32 35  1  0
 33 34  1  0
 33 30  1  0
 34 32  2  0
 35 36  1  0
 36 37  2  0
 38 41  1  0
 38 37  1  0
 39 38  2  0
 40 39  1  0
 40 35  2  0
 41 42  1  0
 42 47  2  0
 42 43  1  0
 43 44  2  0
 44 45  1  0
 45 49  1  0
 46 45  2  0
 47 46  1  0
 48 47  1  0
 50 51  1  0
 51 54  1  0
 51 53  1  0
 52 50  2  0
 55 30  1  0
 55 56  1  0
 57 55  1  0
 58 59  1  0
 60 62  1  0
 60 59  1  0
 61 72  2  0
 62 67  1  0
 63 71  1  0
 63 73  1  0
 64 70  1  0
 64 66  1  0
 65 71  1  0
 66 65  1  0
 67 66  2  0
 68 69  1  0
 68 62  2  0
 69 64  2  0
 70 63  1  0
 71 61  1  0
 73 75  2  0
 74 73  1  0
 76 74  1  0
 77 86  2  0
 77 82  1  0
 78 74  1  0
 78 82  1  0
 79 78  1  0
 80 81  1  0
 80 79  1  0
 81 77  1  0
 82 83  2  0
 83 84  1  0
 85 84  2  0
 86 85  1  0
 87 61  1  0
 87 88  1  0
 87 97  1  0
 88 91  1  0
 89 88  1  0
 89 93  1  0
 90 89  2  0
 93 92  1  0
 93 95  1  0
 95 96  1  0
 95 94  1  0
 97100  1  1
 97 98  1  0
 99 97  1  0
M  ISO  4  20 100  28 100  59 101  60 101
M  END
>  <TORSDO>  (2) 
F 21

>  <SCORE>  (2) 
-5.927

>  <name>  (2) 
1

>  <ligand_id>  (2) 
1

>  <original_smiles>  (2) 
[H]c1c([H])c([H])c2c(c1[H])C([H])([H])C([H])([H])C([H])([H])C2([H])N([H])C(=O)C1([H])N(C(=O)C([H])(N([H])C(=O)C([H])(N([H])C([H])([H])[H])C([H])([H])[H])C(C([H])([H])[H])(C([H])([H])[H])C([H])([H])[H])C([H])([H])c2c([H])c(OC([H])([H])C([H])([H])c3c([H])c(N4C([H])([H])C([H])([H])C([H])([N+]([H])(C([H])([H])[H])C([H])([H])[H])C([H])([H])C4([H])[H])c([H])c(C([H])(N([H])C(=O)N4C([H])([H])C([H])([H])C([H])([H])C([H])(n5nc(-c6c([H])c([H])c(Oc7c([H])c([H])c(F)c([H])c7F)c([H])c6[H])c(C(=O)N([H])[H])c5N([H])[H])C4([H])[H])C([H])([H])[H])[n+]3[H])c([H])c([H])c2C1([H])[H]

>  <smiles>  (2) 
[H]c1c([H])c([H])c2c(c1[H])C([H])([H])C([H])([H])C([H])([H])C2([H])N([H])C(=O)C1([H])N(C(=O)C([H])(N([H])C(=O)C([H])(N([H])C([H])([H])[H])C([H])([H])[H])C(C([H])([H])[H])(C([H])([H])[H])C([H])([H])[H])C([H])([H])c2c([H])c(OC([H])([H])C([H])([H])c3c([H])c(N4C([H])([H])C([H])([H])C([H])([N+]([H])(C([H])([H])[H])C([H])([H])[H])C([H])([H])C4([H])[H])c([H])c(C([H])(N([H])C(=O)N4C([H])([H])C([H])([H])C([H])([H])C([H])(n5nc(-c6c([H])c([H])c(Oc7c([H])c([H])c(F)c([H])c7F)c([H])c6[H])c(C(=O)N([H])[H])c5N([H])[H])C4([H])[H])C([H])([H])[H])[n+]3[H])c([H])c([H])c2C1([H])[H]

$$$$
2:0:0
     RDKit          3D

 95104  0  0  1  0  0  0  0  0999 V2000
  -29.0380  -23.8560   19.3310 C   0  0  0  0  0  3  0  0  0  0  0  0
  -29.5580  -22.5790   19.0240 C   0  0  0  0  0  3  0  0  0  0  0  0
  -29.4380  -23.3440   21.6500 C   0  0  0  0  0  3  0  0  0  0  0  0
  -28.9690  -24.2540   20.6790 C   0  0  0  0  0  0  0  0  0  0  0  0
  -29.9960  -21.7300   20.0620 C   0  0  0  0  0  0  0  0  0  0  0  0
  -29.9370  -22.1160   21.3590 N   0  0  0  0  0  0  0  0  0  0  0  0
  -32.0000  -20.1870   20.1870 C   0  0  0  0  0  1  0  0  0  0  0  0
  -30.5260  -20.3070   19.7610 C   0  0  0  0  0  3  0  0  0  0  0  0
  -27.6260  -17.9980   20.0210 C   0  0  0  0  0  2  0  0  0  0  0  0
  -28.7350  -17.2420   19.3130 C   0  0  0  0  0  2  0  0  0  0  0  0
  -28.2290  -19.3910   20.1430 C   0  0  0  0  0  2  0  0  0  0  0  0
  -30.0300  -17.8010   19.9350 C   0  0  0  0  0  3  0  0  0  0  0  0
  -29.6920  -19.2100   20.3560 N   0  0  1  0  0  4  0  0  0  0  0  0
  -29.8280  -19.2870   21.3520 H   0  0  0  0  0  0  0  0  0  0  0  0
  -30.5730  -16.9100   21.1070 C   0  0  0  0  0  2  0  0  0  0  0  0
  -30.9190  -14.5010   20.3010 C   0  0  0  0  0  0  0  0  0  0  0  0
  -30.5930  -12.3220   19.1730 C   0  0  0  0  0  2  0  0  0  0  0  0
  -29.6360  -12.4950   17.9750 C   0  0  0  0  0  2  0  0  0  0  0  0
  -28.1660  -12.3730   18.4240 C   0  0  0  0  0  2  0  0  0  0  0  0
  -27.8480  -13.2510   19.6630 C   0  0  0  0  0  3  0  0  0  0  0  0
  -28.9100  -13.0420   20.7670 C   0  0  0  0  0  2  0  0  0  0  0  0
  -30.2380  -13.3260   20.1880 N   0  0  0  0  0  0  0  0  0  0  0  0
  -32.0020  -14.7120   19.7510 O   0  0  0  0  0  0  0  0  0  0  0  0
  -30.2690  -15.4680   20.9720 N   0  0  0  0  0  0  0  0  0  0  0  0
  -29.4080  -15.1640   21.4040 H   0  0  0  0  0  0  0  0  0  0  0  0
  -25.4730  -13.9210   20.4040 C   0  0  0  0  0  0  0  0  0  0  0  0
  -24.3930  -13.1770   20.7920 C   0  0  0  0  0  0  0  0  0  0  0  0
  -24.8170  -11.8150   20.7490 C   0  0  0  0  0  0  0  0  0  0  0  0
  -26.4940  -13.0140   20.1580 N   0  0  0  0  0  0  0  0  0  0  0  0
  -26.1010  -11.7420   20.4220 N   0  0  0  0  0  0  0  0  0  0  0  0
  -24.0610  -10.5730   20.9480 C   0  0  0  0  0  0  0  0  0  0  0  0
  -24.4920   -9.5850   21.8590 C   0  0  0  0  0  3  0  0  0  0  0  0
  -23.7380   -8.4060   22.0440 C   0  0  0  0  0  3  0  0  0  0  0  0
  -22.5410   -8.2080   21.3180 C   0  0  0  0  0  0  0  0  0  0  0  0
  -22.1280   -9.1860   20.3960 C   0  0  0  0  0  3  0  0  0  0  0  0
  -22.8820  -10.3550   20.2070 C   0  0  0  0  0  3  0  0  0  0  0  0
  -21.7570   -7.0840   21.4150 O   0  0  0  0  0  0  0  0  0  0  0  0
  -21.7290   -6.3220   22.5540 C   0  0  0  0  0  0  0  0  0  0  0  0
  -21.3750   -6.8690   23.8080 C   0  0  0  0  0  3  0  0  0  0  0  0
  -21.2910   -6.0360   24.9410 C   0  0  0  0  0  3  0  0  0  0  0  0
  -21.5510   -4.6580   24.8240 C   0  0  0  0  0  0  0  0  0  0  0  0
  -21.8980   -4.1110   23.5760 C   0  0  0  0  0  3  0  0  0  0  0  0
  -21.9840   -4.9400   22.4440 C   0  0  0  0  0  0  0  0  0  0  0  0
  -22.2990   -4.4040   21.2410 F   0  0  0  0  0  0  0  0  0  0  0  0
  -21.4630   -3.8550   25.9100 F   0  0  0  0  0  0  0  0  0  0  0  0
  -23.0120  -13.6930   21.0880 C   0  0  0  0  0  0  0  0  0  0  0  0
  -22.2850  -13.0190   21.9720 N   0  0  0  0  0  0  0  0  0  0  0  0
  -22.5920  -14.7260   20.5720 O   0  0  0  0  0  0  0  0  0  0  0  0
  -22.6390  -12.1810   22.4100 H   0  0  0  0  0  0  0  0  0  0  0  0
  -21.3590  -13.3440   22.2130 H   0  0  0  0  0  0  0  0  0  0  0  0
  -25.6610  -15.2870   20.2200 N   0  0  0  0  0  0  0  0  0  0  0  0
  -24.8970  -15.9470   20.3230 H   0  0  0  0  0  0  0  0  0  0  0  0
  -26.4940  -15.7020   19.8280 H   0  0  0  0  0  0  0  0  0  0  0  0
  -28.3320  -25.5800   21.1210 C   0  0  0  0  0  2  0  0  0  0  0  0
  -28.3280  -26.6280   20.1380 O   0  0  0  0  0  0  0  0  0  0  0  0
  -24.5450  -31.8420   23.2380 C   0  0  0  0  0  0  0  0  0  0  0  0
  -27.1870  -27.4010   20.1530 C   0  0  0  0  0  0  0  0  0  0  0  0
  -23.3420  -30.4550   21.5800 C   0  0  0  0  0  3  0  0  0  0  0  0
  -24.8000  -28.9140   20.1590 C   0  0  0  0  0  0  0  0  0  0  0  0
  -25.8710  -30.8010   21.4010 C   0  0  0  0  0  2  0  0  0  0  0  0
  -25.9570  -29.4310   20.7570 C   0  0  0  0  0  0  0  0  0  0  0  0
  -27.1570  -28.6810   20.7540 C   0  0  0  0  0  3  0  0  0  0  0  0
  -26.0170  -26.8980   19.5510 C   0  0  0  0  0  3  0  0  0  0  0  0
  -24.8240  -27.6450   19.5540 C   0  0  0  0  0  3  0  0  0  0  0  0
  -23.5580  -29.7790   20.1990 C   0  0  0  0  0  2  0  0  0  0  0  0
  -24.6040  -31.0470   22.1320 N   0  0  0  0  0  0  0  0  0  0  0  0
  -23.4620  -32.1180   23.7730 O   0  0  0  0  0  0  0  0  0  0  0  0
  -22.6780  -29.4340   22.5310 C   0  0  0  0  0  0  0  0  0  0  0  0
  -21.3560  -29.2500   22.3820 N   0  0  0  0  0  0  0  0  0  0  0  0
  -23.3490  -28.8100   23.3580 O   0  0  0  0  0  0  0  0  0  0  0  0
  -20.8760  -29.8040   21.6870 H   0  0  0  0  0  0  0  0  0  0  0  0
  -17.9800  -28.0350   22.8070 C   0  0  0  0  0  0  0  0  0  0  0  0
  -20.5280  -28.3110   23.1400 C   0  0  0  0  0  3  0  0  0  0  0  0
  -20.6550  -26.8760   22.5760 C   0  0  0  0  0  2  0  0  0  0  0  0
  -19.5800  -26.5410   21.5370 C   0  0  0  0  0  2  0  0  0  0  0  0
  -18.1830  -26.6820   22.1460 C   0  0  0  0  0  2  0  0  0  0  0  0
  -19.0830  -28.8070   23.2600 C   0  0  0  0  0  0  0  0  0  0  0  0
  -18.8400  -30.0730   23.8350 C   0  0  0  0  0  3  0  0  0  0  0  0
  -17.5280  -30.5680   23.9650 C   0  0  0  0  0  3  0  0  0  0  0  0
  -16.4410  -29.7920   23.5290 C   0  0  0  0  0  3  0  0  0  0  0  0
  -16.6670  -28.5280   22.9560 C   0  0  0  0  0  3  0  0  0  0  0  0
  -25.8320  -32.4590   23.8710 C   0  0  0  0  0  3  0  0  0  0  0  0
  -26.3250  -31.6900   25.1570 C   0  0  1  0  0  0  0  0  0  0  0  0
  -25.2160  -31.4750   26.2120 C   0  0  0  0  0  1  0  0  0  0  0  0
  -26.8920  -30.3020   24.7760 C   0  0  0  0  0  1  0  0  0  0  0  0
  -27.4790  -32.4720   25.8260 C   0  0  0  0  0  1  0  0  0  0  0  0
  -25.5390  -33.8640   24.1860 N   0  0  0  0  0  0  0  0  0  0  0  0
  -25.8970  -34.9040   23.4210 C   0  0  0  0  0  0  0  0  0  0  0  0
  -26.5770  -34.7820   22.3980 O   0  0  0  0  0  0  0  0  0  0  0  0
  -24.9360  -34.0350   24.9780 H   0  0  0  0  0  0  0  0  0  0  0  0
  -24.1910  -36.7110   23.0330 C   0  0  0  0  0  1  0  0  0  0  0  0
  -25.4220  -36.3030   23.8590 C   0  0  0  0  0  3  0  0  0  0  0  0
  -27.5630  -37.1700   24.6940 C   0  0  0  0  0  1  0  0  0  0  0  0
  -26.4690  -37.3420   23.7420 N   0  0  0  0  0  0  0  0  0  0  0  0
  -26.0740  -38.2690   23.8790 H   0  0  0  0  0  0  0  0  0  0  0  0
  1  4  1  0
  2  1  2  0
  2  5  1  0
  4 54  1  0
  4  3  2  0
  5  6  2  0
  6  3  1  0
  8  5  1  0
  8  7  1  0
  8 13  1  0
  9 11  1  0
 10 12  1  0
 10  9  1  0
 11 13  1  0
 12 13  1  0
 12 15  1  0
 13 14  1  1
 16 24  1  0
 17 22  1  0
 18 19  1  0
 18 17  1  0
 20 19  1  0
 20 29  1  0
 20 21  1  0
 22 16  1  0
 22 21  1  0
 23 16  2  0
 24 15  1  0
 24 25  1  0
 26 27  2  0
 27 46  1  0
 28 27  1  0
 28 31  1  0
 29 26  1  0
 29 30  1  0
 30 28  2  0
 31 32  1  0
 32 33  2  0
 34 37  1  0
 34 33  1  0
 35 34  2  0
 36 35  1  0
 36 31  2  0
 37 38  1  0
 38 39  1  0
 39 40  2  0
 41 40  1  0
 41 45  1  0
 42 41  2  0
 43 38  2  0
 43 42  1  0
 44 43  1  0
 46 47  1  0
 47 50  1  0
 47 49  1  0
 48 46  2  0
 51 52  1  0
 51 26  1  0
 53 51  1  0
 55 57  1  0
 55 54  1  0
 56 67  2  0
 57 62  1  0
 58 66  1  0
 58 68  1  0
 59 65  1  0
 59 61  1  0
 60 66  1  0
 61 60  1  0
 62 61  2  0
 63 64  1  0
 63 57  2  0
 64 59  2  0
 65 58  1  0
 66 56  1  0
 68 70  2  0
 69 68  1  0
 71 69  1  0
 72 81  2  0
 72 77  1  0
 73 69  1  0
 73 77  1  0
 74 73  1  0
 75 76  1  0
 75 74  1  0
 76 72  1  0
 77 78  2  0
 78 79  1  0
 80 79  2  0
 81 80  1  0
 82 56  1  0
 82 87  1  0
 82 83  1  0
 83 86  1  1
 83 84  1  0
 85 83  1  0
 87 90  1  0
 88 92  1  0
 88 87  1  0
 89 88  2  0
 92 91  1  0
 94 92  1  0
 94 95  1  0
 94 93  1  0
M  ISO  4  16 100  24 100  54 101  55 101
M  END
>  <TORSDO>  (3) 
F 20

>  <SCORE>  (3) 
-14.292

>  <name>  (3) 
2

>  <ligand_id>  (3) 
2

>  <original_smiles>  (3) 
[H]c1nc(C([H])(C([H])([H])[H])[N+]2([H])C([H])([H])C([H])([H])C([H])([H])C2([H])C([H])([H])N([H])C(=O)N2C([H])([H])C([H])([H])C([H])([H])C([H])(n3nc(-c4c([H])c([H])c(Oc5c([H])c([H])c(F)c([H])c5F)c([H])c4[H])c(C(=O)N([H])[H])c3N([H])[H])C2([H])[H])c([H])c([H])c1C([H])([H])Oc1c([H])c([H])c2c(c1[H])C([H])([H])N(C(=O)C([H])(N([H])C(=O)C([H])(N([H])C([H])([H])[H])C([H])([H])[H])C(C([H])([H])[H])(C([H])([H])[H])C([H])([H])[H])C([H])(C(=O)N([H])C1([H])c3c([H])c([H])c([H])c([H])c3C([H])([H])C([H])([H])C1([H])[H])C2([H])[H]

>  <smiles>  (3) 
[H]c1nc(C([H])(C([H])([H])[H])[N+]2([H])C([H])([H])C([H])([H])C([H])([H])C2([H])C([H])([H])N([H])C(=O)N2C([H])([H])C([H])([H])C([H])([H])C([H])(n3nc(-c4c([H])c([H])c(Oc5c([H])c([H])c(F)c([H])c5F)c([H])c4[H])c(C(=O)N([H])[H])c3N([H])[H])C2([H])[H])c([H])c([H])c1C([H])([H])Oc1c([H])c([H])c2c(c1[H])C([H])([H])N(C(=O)C([H])(N([H])C(=O)C([H])(N([H])C([H])([H])[H])C([H])([H])[H])C(C([H])([H])[H])(C([H])([H])[H])C([H])([H])[H])C([H])(C(=O)N([H])C1([H])c3c([H])c([H])c([H])c([H])c3C([H])([H])C([H])([H])C1([H])[H])C2([H])[H]

$$$$
3:0:0
     RDKit          3D

102113  0  0  1  0  0  0  0  0999 V2000
  -26.6590  -23.9360   21.1510 C   0  0  0  0  0  3  0  0  0  0  0  0
  -25.9080  -22.8670   21.6300 C   0  0  0  0  0  3  0  0  0  0  0  0
  -28.4750  -22.3520   20.6930 C   0  0  0  0  0  3  0  0  0  0  0  0
  -27.7420  -21.2070   21.2510 C   0  0  0  0  0  0  0  0  0  0  0  0
  -27.9310  -23.7250   20.6090 C   0  0  0  0  0  0  0  0  0  0  0  0
  -26.4180  -21.5590   21.6650 C   0  0  0  0  0  0  0  0  0  0  0  0
  -26.2200  -19.8330   23.1810 C   0  0  0  0  0  2  0  0  0  0  0  0
  -28.2600  -19.6660   21.5670 C   0  0  0  0  0  3  0  0  0  0  0  0
  -27.1930  -18.8880   22.4760 C   0  0  0  0  0  3  0  0  0  0  0  0
  -25.5400  -20.6450   22.2190 N   0  0  0  0  0  0  0  0  0  0  0  0
  -24.6850  -21.0620   22.5790 H   0  0  0  0  0  0  0  0  0  0  0  0
  -27.7110  -18.4170   19.2650 C   0  0  0  0  0  2  0  0  0  0  0  0
  -29.7480  -17.3450   18.6690 C   0  0  0  0  0  2  0  0  0  0  0  0
  -28.7750  -18.7110   20.3340 C   0  0  0  0  0  3  0  0  0  0  0  0
  -29.8510  -17.4400   20.2050 C   0  0  0  0  0  3  0  0  0  0  0  0
  -27.8250  -17.2430   17.0460 C   0  0  0  0  0  1  0  0  0  0  0  0
  -28.2860  -17.3330   18.4480 N   0  0  2  0  0  4  0  0  0  0  0  0
  -28.0010  -16.4830   18.9000 H   0  0  0  0  0  0  0  0  0  0  0  0
  -30.5160  -14.8610   20.4700 C   0  0  0  0  0  0  0  0  0  0  0  0
  -30.4040  -12.5290   19.5410 C   0  0  0  0  0  2  0  0  0  0  0  0
  -29.5440  -12.5170   18.2570 C   0  0  0  0  0  2  0  0  0  0  0  0
  -28.0390  -12.7650   18.5200 C   0  0  0  0  0  2  0  0  0  0  0  0
  -27.6930  -12.7500   20.0120 C   0  0  0  0  0  3  0  0  0  0  0  0
  -28.6490  -13.3080   21.0630 C   0  0  0  0  0  2  0  0  0  0  0  0
  -29.9310  -13.6220   20.4310 N   0  0  0  0  0  0  0  0  0  0  0  0
  -31.6990  -14.9860   20.1390 O   0  0  0  0  0  0  0  0  0  0  0  0
  -29.6670  -15.9640   20.6320 N   0  0  0  0  0  0  0  0  0  0  0  0
  -28.7350  -15.6920   20.9170 H   0  0  0  0  0  0  0  0  0  0  0  0
  -25.2970  -13.7500   20.5440 C   0  0  0  0  0  0  0  0  0  0  0  0
  -24.1740  -13.0390   20.9150 C   0  0  0  0  0  0  0  0  0  0  0  0
  -24.5570  -11.6700   20.8930 C   0  0  0  0  0  0  0  0  0  0  0  0
  -26.2840  -12.7790   20.3630 N   0  0  0  0  0  0  0  0  0  0  0  0
  -25.8170  -11.5470   20.5960 N   0  0  0  0  0  0  0  0  0  0  0  0
  -23.8300  -10.4240   21.0700 C   0  0  0  0  0  0  0  0  0  0  0  0
  -24.3080   -9.4200   21.9420 C   0  0  0  0  0  3  0  0  0  0  0  0
  -23.5970   -8.2140   22.0840 C   0  0  0  0  0  3  0  0  0  0  0  0
  -22.4010   -8.0100   21.3520 C   0  0  0  0  0  0  0  0  0  0  0  0
  -21.9500   -9.0080   20.4660 C   0  0  0  0  0  3  0  0  0  0  0  0
  -22.6660  -10.2050   20.3180 C   0  0  0  0  0  3  0  0  0  0  0  0
  -21.6580   -6.8600   21.4120 O   0  0  0  0  0  0  0  0  0  0  0  0
  -21.6810   -6.0520   22.5220 C   0  0  0  0  0  0  0  0  0  0  0  0
  -21.4010   -6.5500   23.8120 C   0  0  0  0  0  3  0  0  0  0  0  0
  -21.3660   -5.6700   24.9120 C   0  0  0  0  0  3  0  0  0  0  0  0
  -21.6050   -4.2950   24.7240 C   0  0  0  0  0  0  0  0  0  0  0  0
  -21.8860   -3.7990   23.4400 C   0  0  0  0  0  3  0  0  0  0  0  0
  -21.9220   -4.6760   22.3400 C   0  0  0  0  0  0  0  0  0  0  0  0
  -22.1660   -4.1890   21.1000 F   0  0  0  0  0  0  0  0  0  0  0  0
  -21.5670   -3.4510   25.7790 F   0  0  0  0  0  0  0  0  0  0  0  0
  -22.7960  -13.5580   21.1800 C   0  0  0  0  0  0  0  0  0  0  0  0
  -22.0570  -12.8760   22.0530 N   0  0  0  0  0  0  0  0  0  0  0  0
  -22.3780  -14.5900   20.6600 O   0  0  0  0  0  0  0  0  0  0  0  0
  -22.4090  -12.0400   22.4930 H   0  0  0  0  0  0  0  0  0  0  0  0
  -21.1290  -13.2020   22.2790 H   0  0  0  0  0  0  0  0  0  0  0  0
  -25.5330  -15.1040   20.3340 N   0  0  0  0  0  0  0  0  0  0  0  0
  -24.6830  -15.6600   20.3740 H   0  0  0  0  0  0  0  0  0  0  0  0
  -26.0160  -15.2730   19.4650 H   0  0  0  0  0  0  0  0  0  0  0  0
  -27.3730  -15.8950   24.3420 C   0  0  0  0  0  2  0  0  0  0  0  0
  -28.1180  -16.4810   23.1450 C   0  0  0  0  0  2  0  0  0  0  0  0
  -26.6340  -17.2150   24.4640 C   0  0  0  0  0  2  0  0  0  0  0  0
  -27.6860  -17.8890   23.5410 C   0  0  0  0  0  3  0  0  0  0  0  0
  -28.5540  -24.9850   19.8570 C   0  0  0  0  0  2  0  0  0  0  0  0
  -28.3720  -26.4180   20.2980 O   0  0  0  0  0  0  0  0  0  0  0  0
  -24.6300  -31.8520   23.1920 C   0  0  0  0  0  0  0  0  0  0  0  0
  -27.2460  -27.2610   20.1460 C   0  0  0  0  0  0  0  0  0  0  0  0
  -23.4280  -30.4670   21.5370 C   0  0  0  0  0  3  0  0  0  0  0  0
  -24.8810  -28.9010   20.1110 C   0  0  0  0  0  0  0  0  0  0  0  0
  -25.9680  -30.7700   21.3660 C   0  0  0  0  0  2  0  0  0  0  0  0
  -26.0470  -29.3900   20.7120 C   0  0  0  0  0  0  0  0  0  0  0  0
  -27.2260  -28.5800   20.7170 C   0  0  0  0  0  3  0  0  0  0  0  0
  -26.0680  -26.8460   19.4880 C   0  0  0  0  0  3  0  0  0  0  0  0
  -24.8950  -27.6360   19.4920 C   0  0  0  0  0  3  0  0  0  0  0  0
  -23.6440  -29.7780   20.1610 C   0  0  0  0  0  2  0  0  0  0  0  0
  -24.6930  -31.0500   22.0870 N   0  0  0  0  0  0  0  0  0  0  0  0
  -23.5470  -32.1330   23.7250 O   0  0  0  0  0  0  0  0  0  0  0  0
  -22.7490  -29.4590   22.4930 C   0  0  0  0  0  0  0  0  0  0  0  0
  -21.4200  -29.3040   22.3650 N   0  0  0  0  0  0  0  0  0  0  0  0
  -23.4170  -28.8160   23.3070 O   0  0  0  0  0  0  0  0  0  0  0  0
  -20.9410  -29.8670   21.6750 H   0  0  0  0  0  0  0  0  0  0  0  0
  -18.0290  -28.1390   22.8480 C   0  0  0  0  0  0  0  0  0  0  0  0
  -20.5890  -28.3700   23.1270 C   0  0  0  0  0  3  0  0  0  0  0  0
  -20.6770  -26.9410   22.5400 C   0  0  0  0  0  2  0  0  0  0  0  0
  -19.5760  -26.6380   21.5200 C   0  0  0  0  0  2  0  0  0  0  0  0
  -18.1950  -26.7930   22.1620 C   0  0  0  0  0  2  0  0  0  0  0  0
  -19.1540  -28.8860   23.2870 C   0  0  0  0  0  0  0  0  0  0  0  0
  -18.9460  -30.1470   23.8880 C   0  0  0  0  0  3  0  0  0  0  0  0
  -17.6470  -30.6600   24.0560 C   0  0  0  0  0  3  0  0  0  0  0  0
  -16.5360  -29.9090   23.6340 C   0  0  0  0  0  3  0  0  0  0  0  0
  -16.7270  -28.6510   23.0360 C   0  0  0  0  0  3  0  0  0  0  0  0
  -25.9120  -32.4730   23.8280 C   0  0  0  0  0  3  0  0  0  0  0  0
  -26.4490  -31.6570   25.0670 C   0  0  1  0  0  0  0  0  0  0  0  0
  -25.3700  -31.3730   26.1390 C   0  0  0  0  0  1  0  0  0  0  0  0
  -27.0340  -30.2980   24.6180 C   0  0  0  0  0  1  0  0  0  0  0  0
  -27.6040  -32.4320   25.7440 C   0  0  0  0  0  1  0  0  0  0  0  0
  -25.5910  -33.8540   24.2210 N   0  0  0  0  0  0  0  0  0  0  0  0
  -25.9070  -34.9440   23.5070 C   0  0  0  0  0  0  0  0  0  0  0  0
  -26.5670  -34.8920   22.4660 O   0  0  0  0  0  0  0  0  0  0  0  0
  -24.9980  -33.9650   25.0300 H   0  0  0  0  0  0  0  0  0  0  0  0
  -24.1490  -36.7260   23.2640 C   0  0  0  0  0  1  0  0  0  0  0  0
  -25.4130  -36.3050   24.0320 C   0  0  0  0  0  3  0  0  0  0  0  0
  -27.5580  -37.1780   24.8470 C   0  0  0  0  0  1  0  0  0  0  0  0
  -26.4300  -37.3750   23.9410 N   0  0  0  0  0  0  0  0  0  0  0  0
  -26.0170  -38.2820   24.1400 H   0  0  0  0  0  0  0  0  0  0  0  0
  1  2  1  0
  2  6  2  0
  3  4  2  0
  4  6  1  0
  5  3  1  0
  5  1  2  0
  6 10  1  0
  8  4  1  0
  8  9  1  0
  9  7  1  0
  9 60  1  0
 10 11  1  0
 10  7  1  0
 13 15  1  0
 14 12  1  0
 14  8  1  0
 15 14  1  0
 15 27  1  0
 16 17  1  0
 17 13  1  0
 17 18  1  1
 17 12  1  0
 19 27  1  0
 20 25  1  0
 21 22  1  0
 21 20  1  0
 23 22  1  0
 23 32  1  0
 23 24  1  0
 25 19  1  0
 25 24  1  0
 26 19  2  0
 27 28  1  0
 29 30  2  0
 30 49  1  0
 31 30  1  0
 31 34  1  0
 32 29  1  0
 32 33  1  0
 33 31  2  0
 34 35  1  0
 35 36  2  0
 37 40  1  0
 37 36  1  0
 38 37  2  0
 39 38  1  0
 39 34  2  0
 40 41  1  0
 41 42  1  0
 42 43  2  0
 44 43  1  0
 44 48  1  0
 45 44  2  0
 46 41  2  0
 46 45  1  0
 47 46  1  0
 49 50  1  0
 50 53  1  0
 50 52  1  0
 51 49  2  0
 54 55  1  0
 54 29  1  0
 56 54  1  0
 57 59  1  0
 58 60  1  0
 58 57  1  0
 60 59  1  0
 61 62  1  0
 61  5  1  0
 63 74  2  0
 64 62  1  0
 64 69  1  0
 65 73  1  0
 65 75  1  0
 66 72  1  0
 66 68  1  0
 67 73  1  0
 68 69  2  0
 68 67  1  0
 70 71  1  0
 70 64  2  0
 71 66  2  0
 72 65  1  0
 73 63  1  0
 75 77  2  0
 76 75  1  0
 78 76  1  0
 79 88  2  0
 79 84  1  0
 80 76  1  0
 80 84  1  0
 81 80  1  0
 82 83  1  0
 82 81  1  0
 83 79  1  0
 84 85  2  0
 85 86  1  0
 87 86  2  0
 88 87  1  0
 89 63  1  0
 89 94  1  0
 89 90  1  0
 90 93  1  1
 90 91  1  0
 92 90  1  0
 94 97  1  0
 95 99  1  0
 95 94  1  0
 96 95  2  0
 99 98  1  0
101 99  1  0
101102  1  0
101100  1  0
M  ISO  4  19 100  27 100  61 101  62 101
M  END
>  <TORSDO>  (4) 
F 19

>  <SCORE>  (4) 
61.401

>  <name>  (4) 
3

>  <ligand_id>  (4) 
3

>  <original_smiles>  (4) 
[H]c1c([H])c([H])c2c(c1[H])C([H])([H])C([H])([H])C([H])([H])C2([H])N([H])C(=O)C1([H])N(C(=O)C([H])(N([H])C(=O)C([H])(N([H])C([H])([H])[H])C([H])([H])[H])C(C([H])([H])[H])(C([H])([H])[H])C([H])([H])[H])C([H])([H])c2c([H])c(OC([H])([H])c3c([H])c([H])c4c(c3[H])C([H])(C3([H])C([H])(N([H])C(=O)N5C([H])([H])C([H])([H])C([H])([H])C([H])(n6nc(-c7c([H])c([H])c(Oc8c([H])c([H])c(F)c([H])c8F)c([H])c7[H])c(C(=O)N([H])[H])c6N([H])[H])C5([H])[H])C([H])([H])[N+]([H])(C([H])([H])[H])C3([H])[H])C([H])(C3([H])C([H])([H])C([H])([H])C3([H])[H])C([H])([H])N4[H])c([H])c([H])c2C1([H])[H]

>  <smiles>  (4) 
[H]c1c([H])c([H])c2c(c1[H])C([H])([H])C([H])([H])C([H])([H])C2([H])N([H])C(=O)C1([H])N(C(=O)C([H])(N([H])C(=O)C([H])(N([H])C([H])([H])[H])C([H])([H])[H])C(C([H])([H])[H])(C([H])([H])[H])C([H])([H])[H])C([H])([H])c2c([H])c(OC([H])([H])c3c([H])c([H])c4c(c3[H])C([H])(C3([H])C([H])(N([H])C(=O)N5C([H])([H])C([H])([H])C([H])([H])C([H])(n6nc(-c7c([H])c([H])c(Oc8c([H])c([H])c(F)c([H])c8F)c([H])c7[H])c(C(=O)N([H])[H])c6N([H])[H])C5([H])[H])C([H])([H])[N+]([H])(C([H])([H])[H])C3([H])[H])C([H])(C3([H])C([H])([H])C([H])([H])C3([H])[H])C([H])([H])N4[H])c([H])c([H])c2C1([H])[H]

$$$$
4:0:0
     RDKit          3D

 93101  0  0  1  0  0  0  0  0999 V2000
  -29.2790  -19.0110   21.3560 C   0  0  0  0  0  2  0  0  0  0  0  0
  -28.7080  -20.3920   20.9460 C   0  0  0  0  0  2  0  0  0  0  0  0
  -31.2860  -19.5610   19.9850 C   0  0  0  0  0  2  0  0  0  0  0  0
  -30.2550  -18.4350   20.3090 C   0  0  0  0  0  3  0  0  0  0  0  0
  -29.7640  -21.4850   20.5890 C   0  0  0  0  0  3  0  0  0  0  0  0
  -30.6960  -20.8860   19.5690 N   0  0  1  0  0  4  0  0  0  0  0  0
  -30.0880  -20.6640   18.7970 H   0  0  0  0  0  0  0  0  0  0  0  0
  -32.0740  -21.4100   17.5420 C   0  0  0  0  0  1  0  0  0  0  0  0
  -32.9530  -22.0790   19.8540 C   0  0  0  0  0  1  0  0  0  0  0  0
  -31.7030  -21.8290   18.9760 C   0  0  0  0  0  3  0  0  0  0  0  0
  -30.9930  -17.1340   20.8130 C   0  0  0  0  0  2  0  0  0  0  0  0
  -30.9340  -14.7130   20.1040 C   0  0  0  0  0  0  0  0  0  0  0  0
  -30.5290  -12.5590   18.9630 C   0  0  0  0  0  2  0  0  0  0  0  0
  -29.5380  -12.7570   17.7980 C   0  0  0  0  0  2  0  0  0  0  0  0
  -28.0880  -12.6180   18.2950 C   0  0  0  0  0  2  0  0  0  0  0  0
  -27.8100  -13.4570   19.5710 C   0  0  0  0  0  3  0  0  0  0  0  0
  -28.9180  -13.2670   20.6320 C   0  0  0  0  0  2  0  0  0  0  0  0
  -30.2080  -13.5610   19.9940 N   0  0  0  0  0  0  0  0  0  0  0  0
  -32.0580  -14.8110   19.6110 O   0  0  0  0  0  0  0  0  0  0  0  0
  -30.3290  -15.8080   20.6380 N   0  0  0  0  0  0  0  0  0  0  0  0
  -29.3970  -15.6910   21.0040 H   0  0  0  0  0  0  0  0  0  0  0  0
  -25.4570  -14.0680   20.4080 C   0  0  0  0  0  0  0  0  0  0  0  0
  -24.4030  -13.3010   20.8170 C   0  0  0  0  0  0  0  0  0  0  0  0
  -24.8470  -11.9450   20.7380 C   0  0  0  0  0  0  0  0  0  0  0  0
  -26.4820  -13.1820   20.1120 N   0  0  0  0  0  0  0  0  0  0  0  0
  -26.1200  -11.8980   20.3700 N   0  0  0  0  0  0  0  0  0  0  0  0
  -24.1140  -10.6880   20.9380 C   0  0  0  0  0  0  0  0  0  0  0  0
  -24.5410   -9.7260   21.8800 C   0  0  0  0  0  3  0  0  0  0  0  0
  -23.8140   -8.5320   22.0640 C   0  0  0  0  0  3  0  0  0  0  0  0
  -22.6430   -8.2900   21.3080 C   0  0  0  0  0  0  0  0  0  0  0  0
  -22.2360   -9.2380   20.3510 C   0  0  0  0  0  3  0  0  0  0  0  0
  -22.9650  -10.4240   20.1650 C   0  0  0  0  0  3  0  0  0  0  0  0
  -21.8830   -7.1480   21.4030 O   0  0  0  0  0  0  0  0  0  0  0  0
  -21.7780   -6.4500   22.5790 C   0  0  0  0  0  0  0  0  0  0  0  0
  -21.2100   -7.0210   23.7380 C   0  0  0  0  0  3  0  0  0  0  0  0
  -21.0570   -6.2440   24.9040 C   0  0  0  0  0  3  0  0  0  0  0  0
  -21.4640   -4.8950   24.9110 C   0  0  0  0  0  0  0  0  0  0  0  0
  -22.0260   -4.3230   23.7550 C   0  0  0  0  0  3  0  0  0  0  0  0
  -22.1790   -5.0980   22.5920 C   0  0  0  0  0  0  0  0  0  0  0  0
  -22.6990   -4.5360   21.4740 F   0  0  0  0  0  0  0  0  0  0  0  0
  -21.3120   -4.1470   26.0260 F   0  0  0  0  0  0  0  0  0  0  0  0
  -23.0240  -13.7870   21.1630 C   0  0  0  0  0  0  0  0  0  0  0  0
  -22.3260  -13.0810   22.0440 N   0  0  0  0  0  0  0  0  0  0  0  0
  -22.5760  -14.8270   20.6830 O   0  0  0  0  0  0  0  0  0  0  0  0
  -22.7010  -12.2400   22.4540 H   0  0  0  0  0  0  0  0  0  0  0  0
  -21.4000  -13.3860   22.3140 H   0  0  0  0  0  0  0  0  0  0  0  0
  -25.6270  -15.4400   20.2440 N   0  0  0  0  0  0  0  0  0  0  0  0
  -24.8640  -16.0920   20.3840 H   0  0  0  0  0  0  0  0  0  0  0  0
  -26.4510  -15.8730   19.8490 H   0  0  0  0  0  0  0  0  0  0  0  0
  -28.9880  -22.7750   20.0880 C   0  0  0  0  0  2  0  0  0  0  0  0
  -29.3640  -24.2340   20.5420 C   0  0  0  0  0  2  0  0  0  0  0  0
  -28.2870  -25.2640   20.0440 C   0  0  0  0  0  2  0  0  0  0  0  0
  -28.5180  -26.6950   20.2130 O   0  0  0  0  0  0  0  0  0  0  0  0
  -24.5340  -31.7830   23.2630 C   0  0  0  0  0  0  0  0  0  0  0  0
  -27.3760  -27.4900   20.1090 C   0  0  0  0  0  0  0  0  0  0  0  0
  -23.4200  -30.4090   21.5410 C   0  0  0  0  0  3  0  0  0  0  0  0
  -24.9580  -28.9910   20.0790 C   0  0  0  0  0  0  0  0  0  0  0  0
  -25.9480  -30.8370   21.4380 C   0  0  0  0  0  2  0  0  0  0  0  0
  -26.0900  -29.4990   20.7350 C   0  0  0  0  0  0  0  0  0  0  0  0
  -27.3030  -28.7600   20.7410 C   0  0  0  0  0  3  0  0  0  0  0  0
  -26.2300  -27.0350   19.4100 C   0  0  0  0  0  3  0  0  0  0  0  0
  -25.0330  -27.7680   19.3990 C   0  0  0  0  0  3  0  0  0  0  0  0
  -23.6870  -29.8090   20.1340 C   0  0  0  0  0  2  0  0  0  0  0  0
  -24.6500  -31.0240   22.1380 N   0  0  0  0  0  0  0  0  0  0  0  0
  -23.4300  -31.9960   23.7830 O   0  0  0  0  0  0  0  0  0  0  0  0
  -22.7830  -29.3220   22.4390 C   0  0  0  0  0  0  0  0  0  0  0  0
  -21.4680  -29.0960   22.2700 N   0  0  0  0  0  0  0  0  0  0  0  0
  -23.4670  -28.6890   23.2480 O   0  0  0  0  0  0  0  0  0  0  0  0
  -20.9740  -29.6570   21.5900 H   0  0  0  0  0  0  0  0  0  0  0  0
  -18.1180  -27.7980   22.6640 C   0  0  0  0  0  0  0  0  0  0  0  0
  -20.6650  -28.1010   22.9810 C   0  0  0  0  0  3  0  0  0  0  0  0
  -20.8090  -26.7040   22.3340 C   0  0  0  0  0  2  0  0  0  0  0  0
  -19.7270  -26.4070   21.2920 C   0  0  0  0  0  2  0  0  0  0  0  0
  -18.3340  -26.4890   21.9240 C   0  0  0  0  0  2  0  0  0  0  0  0
  -19.2120  -28.5650   23.1450 C   0  0  0  0  0  0  0  0  0  0  0  0
  -18.9560  -29.7930   23.7930 C   0  0  0  0  0  3  0  0  0  0  0  0
  -17.6380  -30.2520   23.9700 C   0  0  0  0  0  3  0  0  0  0  0  0
  -16.5570  -29.4820   23.5110 C   0  0  0  0  0  3  0  0  0  0  0  0
  -16.7970  -28.2570   22.8600 C   0  0  0  0  0  3  0  0  0  0  0  0
  -25.7770  -32.4390   23.9390 C   0  0  0  0  0  3  0  0  0  0  0  0
  -25.4420  -33.8410   24.2270 N   0  0  0  0  0  0  0  0  0  0  0  0
  -25.7620  -34.8780   23.4440 C   0  0  0  0  0  0  0  0  0  0  0  0
  -26.4480  -34.7600   22.4230 O   0  0  0  0  0  0  0  0  0  0  0  0
  -24.8530  -34.0120   25.0300 H   0  0  0  0  0  0  0  0  0  0  0  0
  -24.0000  -36.6200   23.0210 C   0  0  0  0  0  1  0  0  0  0  0  0
  -25.2420  -36.2690   23.8570 C   0  0  0  0  0  3  0  0  0  0  0  0
  -27.3360  -37.2320   24.6980 C   0  0  0  0  0  1  0  0  0  0  0  0
  -26.2530  -37.3400   23.7230 N   0  0  0  0  0  0  0  0  0  0  0  0
  -25.8240  -38.2560   23.8270 H   0  0  0  0  0  0  0  0  0  0  0  0
  -26.2340  -31.6950   25.2520 C   0  0  1  0  0  0  0  0  0  0  0  0
  -25.0840  -31.4500   26.2560 C   0  0  0  0  0  1  0  0  0  0  0  0
  -26.8530  -30.3180   24.9150 C   0  0  0  0  0  1  0  0  0  0  0  0
  -27.3330  -32.5150   25.9660 C   0  0  0  0  0  1  0  0  0  0  0  0
  2  1  1  0
  3  4  1  0
  4 11  1  0
  4  1  1  0
  5 50  1  0
  5  2  1  0
  6  3  1  0
  6  5  1  0
  6  7  1  6
  8 10  1  0
 10  6  1  0
 10  9  1  0
 12 20  1  0
 13 18  1  0
 14 15  1  0
 14 13  1  0
 16 15  1  0
 16 25  1  0
 16 17  1  0
 18 12  1  0
 18 17  1  0
 19 12  2  0
 20 11  1  0
 20 21  1  0
 22 23  2  0
 23 42  1  0
 24 23  1  0
 24 27  1  0
 25 26  1  0
 25 22  1  0
 26 24  2  0
 27 28  1  0
 28 29  2  0
 30 33  1  0
 30 29  1  0
 31 30  2  0
 32 31  1  0
 32 27  2  0
 33 34  1  0
 34 39  2  0
 34 35  1  0
 35 36  2  0
 36 37  1  0
 37 41  1  0
 38 37  2  0
 39 38  1  0
 40 39  1  0
 42 43  1  0
 43 46  1  0
 43 45  1  0
 44 42  2  0
 47 48  1  0
 47 22  1  0
 49 47  1  0
 50 51  1  0
 52 53  1  0
 52 51  1  0
 54 65  2  0
 55 53  1  0
 55 60  1  0
 56 64  1  0
 56 66  1  0
 57 63  1  0
 57 59  1  0
 58 64  1  0
 59 60  2  0
 59 58  1  0
 61 55  2  0
 62 61  1  0
 62 57  2  0
 63 56  1  0
 64 54  1  0
 66 68  2  0
 67 66  1  0
 69 67  1  0
 70 79  2  0
 70 75  1  0
 71 67  1  0
 71 75  1  0
 72 71  1  0
 73 74  1  0
 73 72  1  0
 74 70  1  0
 75 76  2  0
 76 77  1  0
 78 77  2  0
 79 78  1  0
 80 54  1  0
 80 81  1  0
 80 90  1  0
 81 84  1  0
 82 86  1  0
 82 81  1  0
 83 82  2  0
 86 85  1  0
 88 89  1  0
 88 86  1  0
 88 87  1  0
 90 93  1  1
 90 91  1  0
 92 90  1  0
M  ISO  4  12 100  20 100  52 101  53 101
M  END
>  <TORSDO>  (5) 
F 21

>  <SCORE>  (5) 
-12.786

>  <name>  (5) 
4

>  <ligand_id>  (5) 
4

>  <original_smiles>  (5) 
[H]c1c([H])c([H])c2c(c1[H])C([H])([H])C([H])([H])C([H])([H])C2([H])N([H])C(=O)C1([H])N(C(=O)C([H])(N([H])C(=O)C([H])(N([H])C([H])([H])[H])C([H])([H])[H])C(C([H])([H])[H])(C([H])([H])[H])C([H])([H])[H])C([H])([H])c2c([H])c(OC([H])([H])C([H])([H])C([H])([H])C3([H])C([H])([H])C([H])([H])C([H])(C([H])([H])N([H])C(=O)N4C([H])([H])C([H])([H])C([H])([H])C([H])(n5nc(-c6c([H])c([H])c(Oc7c([H])c([H])c(F)c([H])c7F)c([H])c6[H])c(C(=O)N([H])[H])c5N([H])[H])C4([H])[H])C([H])([H])[N+]3([H])C([H])(C([H])([H])[H])C([H])([H])[H])c([H])c([H])c2C1([H])[H]

>  <smiles>  (5) 
[H]c1c([H])c([H])c2c(c1[H])C([H])([H])C([H])([H])C([H])([H])C2([H])N([H])C(=O)C1([H])N(C(=O)C([H])(N([H])C(=O)C([H])(N([H])C([H])([H])[H])C([H])([H])[H])C(C([H])([H])[H])(C([H])([H])[H])C([H])([H])[H])C([H])([H])c2c([H])c(OC([H])([H])C([H])([H])C([H])([H])C3([H])C([H])([H])C([H])([H])C([H])(C([H])([H])N([H])C(=O)N4C([H])([H])C([H])([H])C([H])([H])C([H])(n5nc(-c6c([H])c([H])c(Oc7c([H])c([H])c(F)c([H])c7F)c([H])c6[H])c(C(=O)N([H])[H])c5N([H])[H])C4([H])[H])C([H])([H])[N+]3([H])C([H])(C([H])([H])[H])C([H])([H])[H])c([H])c([H])c2C1([H])[H]

$$$$
5:0:0
     RDKit          3D

103106  0  0  1  0  0  0  0  0999 V2000
  -26.3340  -13.5990   16.7850 C   0  0  0  0  0 15  0  0  0  0  0  0
  -24.3290  -13.8720   17.5730 C   0  0  0  0  0 15  0  0  0  0  0  0
  -27.7480  -15.2420   19.9400 C   0  0  0  0  0 15  0  0  0  0  0  0
  -28.1360  -14.4870   17.9220 C   0  0  0  0  0  1  0  0  0  0  0  0
  -25.7660  -15.5060   20.5920 C   0  0  0  0  0  1  0  0  0  0  0  0
  -23.9990  -14.6520   19.6950 C   0  0  0  0  0  1  0  0  0  0  0  0
  -23.0090  -13.3330   22.2220 C   0  0  0  0  0  0  0  0  0  0  0  0
  -22.9220  -14.0230   20.9100 N   0  0  0  0  0  0  0  0  0  0  0  0
  -24.0860  -13.1150   22.6890 O   0  0  0  0  0  0  0  0  0  0  0  0
  -21.9120  -13.8690   20.6600 H   0  0  0  0  0  0  0  0  0  0  0  0
  -20.1320  -10.3650   23.7610 C   0  0  0  0  0  2  0  0  0  0  0  0
  -21.6270  -10.9680   23.5820 C   0  0  0  0  0  2  0  0  0  0  0  0
  -19.2270  -10.5250   22.4880 C   0  0  0  0  0  2  0  0  0  0  0  0
  -20.7390  -12.2050   21.6660 C   0  0  0  0  0  2  0  0  0  0  0  0
  -21.6740  -12.4570   22.8180 C   0  0  0  0  0  3  0  0  0  0  0  0
  -19.3550  -11.8670   21.9730 N   0  0  0  0  0  4  0  0  0  0  0  0
  -18.8930  -12.4880   22.5300 H   0  0  0  0  0  0  0  0  0  0  0  0
  -18.8960  -11.8510   21.1310 H   0  0  0  0  0  0  0  0  0  0  0  0
  -25.4370  -17.0920   20.4440 C   0  0  0  0  0  3  0  0  0  0  0  0
  -26.1390  -18.1380   19.3960 C   0  0  0  0  0  3  0  0  0  0  0  0
  -25.8080  -19.7560   19.2220 C   0  0  0  0  0  3  0  0  0  0  0  0
  -26.5570  -20.9820   18.1780 C   0  0  0  0  0  3  0  0  0  0  0  0
  -26.3680  -22.7330   17.8750 C   0  0  0  0  0  2  0  0  0  0  0  0
  -27.1660  -24.0380   17.2100 O   0  0  0  0  0  0  0  0  0  0  0  0
  -25.3420  -29.6080   21.6530 C   0  0  0  0  0  0  0  0  0  0  0  0
  -26.6870  -25.4320   17.3500 C   0  0  0  0  0  0  0  0  0  0  0  0
  -23.8610  -28.9500   19.7990 C   0  0  0  0  0  3  0  0  0  0  0  0
  -24.9500  -27.6950   17.8520 C   0  0  0  0  0  0  0  0  0  0  0  0
  -26.4080  -28.8220   19.5030 C   0  0  0  0  0  2  0  0  0  0  0  0
  -26.1910  -27.6640   18.4860 C   0  0  0  0  0  0  0  0  0  0  0  0
  -27.0890  -26.5260   18.2200 C   0  0  0  0  0  3  0  0  0  0  0  0
  -25.5540  -25.6980   16.5680 C   0  0  0  0  0  3  0  0  0  0  0  0
  -24.6930  -26.7620   16.8170 C   0  0  0  0  0  3  0  0  0  0  0  0
  -23.8990  -28.7140   18.2610 C   0  0  0  0  0  2  0  0  0  0  0  0
  -25.2270  -29.1490   20.3700 N   0  0  0  0  0  0  0  0  0  0  0  0
  -24.3430  -29.8540   22.3570 O   0  0  0  0  0  0  0  0  0  0  0  0
  -23.1030  -27.7800   20.4910 C   0  0  0  0  0  0  0  0  0  0  0  0
  -21.7640  -27.7820   20.4110 N   0  0  0  0  0  0  0  0  0  0  0  0
  -23.7270  -26.8950   21.0730 O   0  0  0  0  0  0  0  0  0  0  0  0
  -21.3080  -28.5490   19.9430 H   0  0  0  0  0  0  0  0  0  0  0  0
  -18.3000  -26.8480   20.9000 C   0  0  0  0  0  0  0  0  0  0  0  0
  -20.8800  -26.7340   20.9460 C   0  0  0  0  0  3  0  0  0  0  0  0
  -20.7290  -25.5580   19.9540 C   0  0  0  0  0  2  0  0  0  0  0  0
  -19.5200  -25.6930   19.0170 C   0  0  0  0  0  2  0  0  0  0  0  0
  -18.2270  -25.7760   19.8250 C   0  0  0  0  0  2  0  0  0  0  0  0
  -19.5410  -27.3100   21.4140 C   0  0  0  0  0  0  0  0  0  0  0  0
  -19.5380  -28.3340   22.3870 C   0  0  0  0  0  3  0  0  0  0  0  0
  -18.3290  -28.8930   22.8400 C   0  0  0  0  0  3  0  0  0  0  0  0
  -17.1040  -28.4340   22.3230 C   0  0  0  0  0  3  0  0  0  0  0  0
  -17.0930  -27.4060   21.3670 C   0  0  0  0  0  3  0  0  0  0  0  0
  -26.7360  -29.8600   22.3010 C   0  0  0  0  0  3  0  0  0  0  0  0
  -26.6010  -31.0270   23.1910 N   0  0  0  0  0  0  0  0  0  0  0  0
  -26.9540  -32.2790   22.8760 C   0  0  0  0  0  0  0  0  0  0  0  0
  -27.5000  -32.5680   21.8050 O   0  0  0  0  0  0  0  0  0  0  0  0
  -26.0970  -30.8630   24.0510 H   0  0  0  0  0  0  0  0  0  0  0  0
  -25.3810  -34.1510   23.5100 C   0  0  0  0  0  1  0  0  0  0  0  0
  -26.6570  -33.3900   23.9060 C   0  0  0  0  0  3  0  0  0  0  0  0
  -28.9330  -33.7900   24.7310 C   0  0  0  0  0  1  0  0  0  0  0  0
  -27.7630  -34.3520   24.0680 N   0  0  0  0  0  0  0  0  0  0  0  0
  -27.4540  -35.1600   24.5950 H   0  0  0  0  0  0  0  0  0  0  0  0
  -27.2810  -28.6220   23.1130 C   0  0  1  0  0  0  0  0  0  0  0  0
  -26.2760  -28.0670   24.1430 C   0  0  0  0  0  1  0  0  0  0  0  0
  -27.6770  -27.4570   22.1720 C   0  0  0  0  0  1  0  0  0  0  0  0
  -28.5710  -29.0230   23.8760 C   0  0  0  0  0  1  0  0  0  0  0  0
  -29.6420  -14.2210   17.7580 C   0  0  0  0  0  2  0  0  0  0  0  0
  -31.2630  -13.8780   19.8780 C   0  0  0  0  0  0  0  0  0  0  0  0
  -31.5590  -11.4890   19.7300 C   0  0  0  0  0  2  0  0  0  0  0  0
  -30.8080  -11.1040   18.4440 C   0  0  0  0  0  2  0  0  0  0  0  0
  -29.3040  -10.8910   18.7080 C   0  0  0  0  0  2  0  0  0  0  0  0
  -28.6800  -11.9690   19.7140 C   0  0  0  0  0  3  0  0  0  0  0  0
  -29.5650  -12.1980   20.9330 C   0  0  0  0  0  2  0  0  0  0  0  0
  -30.8510  -12.6340   20.2950 N   0  0  0  0  0  0  0  0  0  0  0  0
  -32.4120  -14.2980   20.0600 O   0  0  0  0  0  0  0  0  0  0  0  0
  -30.4750  -14.5700   18.9800 N   0  0  0  0  0  0  0  0  0  0  0  0
  -30.6290  -15.5740   18.9900 H   0  0  0  0  0  0  0  0  0  0  0  0
  -26.0810  -12.5460   19.7470 C   0  0  0  0  0  0  0  0  0  0  0  0
  -25.0040  -11.7130   20.1630 C   0  0  0  0  0  0  0  0  0  0  0  0
  -25.6720  -10.4950   20.4610 C   0  0  0  0  0  0  0  0  0  0  0  0
  -27.2320  -11.8620   19.8780 N   0  0  0  0  0  0  0  0  0  0  0  0
  -26.9490  -10.6610   20.2380 N   0  0  0  0  0  0  0  0  0  0  0  0
  -25.1990   -9.1120   20.9190 C   0  0  0  0  0  0  0  0  0  0  0  0
  -25.2300   -8.5410   22.2350 C   0  0  0  0  0  3  0  0  0  0  0  0
  -24.4830   -7.3480   22.6080 C   0  0  0  0  0  3  0  0  0  0  0  0
  -23.7020   -6.7270   21.6130 C   0  0  0  0  0  0  0  0  0  0  0  0
  -23.6510   -7.2760   20.2970 C   0  0  0  0  0  3  0  0  0  0  0  0
  -24.4910   -8.3090   19.9360 C   0  0  0  0  0  3  0  0  0  0  0  0
  -22.9150   -5.5890   21.8000 O   0  0  0  0  0  0  0  0  0  0  0  0
  -22.3420   -5.4080   23.0070 C   0  0  0  0  0  0  0  0  0  0  0  0
  -21.3480   -6.2970   23.4620 C   0  0  0  0  0  3  0  0  0  0  0  0
  -20.7170   -6.0380   24.6920 C   0  0  0  0  0  3  0  0  0  0  0  0
  -21.0980   -4.9110   25.4280 C   0  0  0  0  0  0  0  0  0  0  0  0
  -22.1170   -4.0410   24.9860 C   0  0  0  0  0  3  0  0  0  0  0  0
  -22.7530   -4.2960   23.7670 C   0  0  0  0  0  0  0  0  0  0  0  0
  -23.7550   -3.5060   23.3280 F   0  0  0  0  0  0  0  0  0  0  0  0
  -20.4620   -4.6360   26.6050 F   0  0  0  0  0  0  0  0  0  0  0  0
  -23.4390  -11.3380   20.2160 C   0  0  0  0  0  0  0  0  0  0  0  0
  -22.7080  -10.5120   21.0520 N   0  0  0  0  0  0  0  0  0  0  0  0
  -22.5790  -11.8680   19.4740 O   0  0  0  0  0  0  0  0  0  0  0  0
  -22.8010   -9.9370   21.9010 H   0  0  0  0  0  0  0  0  0  0  0  0
  -21.7770  -10.5510   20.7740 H   0  0  0  0  0  0  0  0  0  0  0  0
  -26.1200  -13.5780   19.1600 N   0  0  0  0  0  0  0  0  0  0  0  0
  -25.3760  -13.9370   18.5070 H   0  0  0  0  0  0  0  0  0  0  0  0
  -26.6520  -14.4840   18.4910 H   0  0  0  0  0  0  0  0  0  0  0  0
  6  8  1  0
  7  9  2  0
  8  7  1  0
 10  8  1  0
 12 11  1  0
 13 11  1  0
 14 16  1  0
 14 15  1  0
 15  7  1  0
 15 12  1  0
 16 13  1  0
 16 17  1  0
 18 16  1  0
 19  5  1  0
 20 19  2  0
 21 20  1  0
 22 21  2  0
 23 22  1  0
 24 26  1  0
 24 23  1  0
 25 36  2  0
 26 31  1  0
 27 35  1  0
 27 37  1  0
 28 34  1  0
 28 30  1  0
 29 35  1  0
 30 29  1  0
 31 30  2  0
 32 33  1  0
 32 26  2  0
 33 28  2  0
 34 27  1  0
 35 25  1  0
 37 39  2  0
 38 37  1  0
 40 38  1  0
 41 50  2  0
 41 46  1  0
 42 38  1  0
 42 46  1  0
 43 42  1  0
 44 45  1  0
 44 43  1  0
 45 41  1  0
 46 47  2  0
 47 48  1  0
 49 48  2  0
 50 49  1  0
 51 25  1  0
 51 61  1  0
 51 52  1  0
 52 55  1  0
 53 52  1  0
 53 57  1  0
 54 53  2  0
 57 56  1  0
 57 59  1  0
 59 60  1  0
 59 58  1  0
 61 64  1  1
 61 62  1  0
 63 61  1  0
 65  4  1  0
 65 74  1  0
 66 73  2  0
 66 72  1  0
 67 72  1  0
 68 69  1  0
 68 67  1  0
 70 69  1  0
 70 79  1  0
 70 71  1  0
 72 71  1  0
 74 75  1  0
 74 66  1  0
 76 79  1  0
 76 77  2  0
 77 96  1  0
 77 78  1  0
 78 81  1  0
 79 80  1  0
 80 78  2  0
 81 82  1  0
 82 83  2  0
 84 87  1  0
 84 83  1  0
 85 84  2  0
 86 85  1  0
 86 81  2  0
 87 88  1  0
 88 89  2  0
 88 93  1  0
 89 90  1  0
 90 91  2  0
 91 95  1  0
 92 91  1  0
 93 92  2  0
 94 93  1  0
 96 97  1  0
 97 99  1  0
 98 96  2  0
100 97  1  0
101 76  1  0
102101  1  0
103101  1  0
M  ISO  4  23 101  24 101  66 100  74 100
M  END
>  <TORSDO>  (6) 
F 24

>  <SCORE>  (6) 
25.938

>  <name>  (6) 
5

>  <ligand_id>  (6) 
5

>  <original_smiles>  (6) 
[H]c1c([H])c([H])c2c(c1[H])C([H])([H])C([H])([H])C([H])([H])C2([H])N([H])C(=O)C1([H])N(C(=O)C([H])(N([H])C(=O)C([H])(N([H])C([H])([H])[H])C([H])([H])[H])C(C([H])([H])[H])(C([H])([H])[H])C([H])([H])[H])C([H])([H])c2c([H])c(OC([H])([H])C([H])([H])C([H])([H])C([H])([H])C([H])([H])C3([H])C([H])([H])C([H])(C([H])([H])N([H])C(=O)N4C([H])([H])C([H])([H])C([H])([H])C([H])(n5nc(-c6c([H])c([H])c(Oc7c([H])c([H])c(F)c([H])c7F)c([H])c6[H])c(C(=O)N([H])[H])c5N([H])[H])C4([H])[H])C([H])([H])C([H])([H])C3([H])N([H])C(=O)C3([H])C([H])([H])C([H])([H])C([H])([H])[N+]([H])([H])C3([H])[H])c([H])c([H])c2C1([H])[H]

>  <smiles>  (6) 
[H]c1c([H])c([H])c2c(c1[H])C([H])([H])C([H])([H])C([H])([H])C2([H])N([H])C(=O)C1([H])N(C(=O)C([H])(N([H])C(=O)C([H])(N([H])C([H])([H])[H])C([H])([H])[H])C(C([H])([H])[H])(C([H])([H])[H])C([H])([H])[H])C([H])([H])c2c([H])c(OC([H])([H])C([H])([H])C([H])([H])C([H])([H])C([H])([H])C3([H])C([H])([H])C([H])(C([H])([H])N([H])C(=O)N4C([H])([H])C([H])([H])C([H])([H])C([H])(n5nc(-c6c([H])c([H])c(Oc7c([H])c([H])c(F)c([H])c7F)c([H])c6[H])c(C(=O)N([H])[H])c5N([H])[H])C4([H])[H])C([H])([H])C([H])([H])C3([H])N([H])C(=O)C3([H])C([H])([H])C([H])([H])C([H])([H])[N+]([H])([H])C3([H])[H])c([H])c([H])c2C1([H])[H]

$$$$
6:0:0
     RDKit          3D

 95104  0  0  1  0  0  0  0  0999 V2000
  -30.1790  -19.4470   20.6010 C   0  0  0  0  0  3  0  0  0  0  0  0
  -30.9730  -20.4920   22.6280 C   0  0  0  0  0  0  0  0  0  0  0  0
  -30.2770  -20.6010   21.4050 C   0  0  0  0  0  0  0  0  0  0  0  0
  -30.7390  -18.2440   21.0530 C   0  0  0  0  0  0  0  0  0  0  0  0
  -31.4910  -19.2300   23.0090 C   0  0  0  0  0  0  0  0  0  0  0  0
  -32.2180  -19.0100   24.3240 C   0  0  0  0  0  1  0  0  0  0  0  0
  -31.3720  -18.1290   22.2390 N   0  0  0  0  0  0  0  0  0  0  0  0
  -29.8450  -22.0820   24.2490 C   0  0  0  0  0  1  0  0  0  0  0  0
  -31.1380  -21.7280   23.5060 C   0  0  0  0  0  2  0  0  0  0  0  0
  -30.6600  -17.0130   20.1750 C   0  0  0  0  0  2  0  0  0  0  0  0
  -31.1120  -14.6960   20.8090 C   0  0  0  0  0  0  0  0  0  0  0  0
  -30.9620  -12.3000   20.3020 C   0  0  0  0  0  2  0  0  0  0  0  0
  -30.1920  -12.1470   18.9750 C   0  0  0  0  0  2  0  0  0  0  0  0
  -28.6740  -12.0830   19.2300 C   0  0  0  0  0  2  0  0  0  0  0  0
  -28.1740  -13.2180   20.1640 C   0  0  0  0  0  3  0  0  0  0  0  0
  -29.0720  -13.3450   21.4170 C   0  0  0  0  0  2  0  0  0  0  0  0
  -30.4630  -13.5130   20.9660 N   0  0  0  0  0  0  0  0  0  0  0  0
  -32.2800  -14.7800   20.4180 O   0  0  0  0  0  0  0  0  0  0  0  0
  -30.3410  -15.7810   20.8880 N   0  0  0  0  0  0  0  0  0  0  0  0
  -29.4070  -15.7030   21.2570 H   0  0  0  0  0  0  0  0  0  0  0  0
  -25.7610  -13.9770   20.6550 C   0  0  0  0  0  0  0  0  0  0  0  0
  -24.6210  -13.2710   20.9360 C   0  0  0  0  0  0  0  0  0  0  0  0
  -25.0030  -11.8960   20.9560 C   0  0  0  0  0  0  0  0  0  0  0  0
  -26.7690  -13.0330   20.5240 N   0  0  0  0  0  0  0  0  0  0  0  0
  -26.3090  -11.7780   20.7590 N   0  0  0  0  0  0  0  0  0  0  0  0
  -24.1900  -10.6810   21.0930 C   0  0  0  0  0  0  0  0  0  0  0  0
  -24.5310   -9.6630   22.0120 C   0  0  0  0  0  3  0  0  0  0  0  0
  -23.7240   -8.5120   22.1380 C   0  0  0  0  0  3  0  0  0  0  0  0
  -22.5610   -8.3700   21.3440 C   0  0  0  0  0  0  0  0  0  0  0  0
  -22.2400   -9.3740   20.4140 C   0  0  0  0  0  3  0  0  0  0  0  0
  -23.0470  -10.5180   20.2860 C   0  0  0  0  0  3  0  0  0  0  0  0
  -21.7320   -7.2750   21.3800 O   0  0  0  0  0  0  0  0  0  0  0  0
  -21.6560   -6.4660   22.4850 C   0  0  0  0  0  0  0  0  0  0  0  0
  -21.2830   -6.9660   23.7520 C   0  0  0  0  0  3  0  0  0  0  0  0
  -21.1510   -6.0860   24.8460 C   0  0  0  0  0  3  0  0  0  0  0  0
  -21.3820   -4.7090   24.6740 C   0  0  0  0  0  0  0  0  0  0  0  0
  -21.7480   -4.2080   23.4110 C   0  0  0  0  0  3  0  0  0  0  0  0
  -21.8820   -5.0840   22.3200 C   0  0  0  0  0  0  0  0  0  0  0  0
  -22.2140   -4.5930   21.1020 F   0  0  0  0  0  0  0  0  0  0  0  0
  -21.2460   -3.8620   25.7210 F   0  0  0  0  0  0  0  0  0  0  0  0
  -23.2370  -13.8330   21.0860 C   0  0  0  0  0  0  0  0  0  0  0  0
  -22.4080  -13.2050   21.9130 N   0  0  0  0  0  0  0  0  0  0  0  0
  -22.8970  -14.8620   20.5040 O   0  0  0  0  0  0  0  0  0  0  0  0
  -22.6940  -12.3720   22.4070 H   0  0  0  0  0  0  0  0  0  0  0  0
  -21.4730  -13.5620   22.0530 H   0  0  0  0  0  0  0  0  0  0  0  0
  -26.0220  -15.3320   20.4800 N   0  0  0  0  0  0  0  0  0  0  0  0
  -25.2930  -16.0350   20.5270 H   0  0  0  0  0  0  0  0  0  0  0  0
  -26.9270  -15.7150   20.2350 H   0  0  0  0  0  0  0  0  0  0  0  0
  -29.7290  -21.8210   21.0610 O   0  0  0  0  0  0  0  0  0  0  0  0
  -28.9270  -21.8770   19.8860 C   0  0  0  0  0  2  0  0  0  0  0  0
  -27.8010  -24.0010   21.0020 C   0  0  0  0  0  2  0  0  0  0  0  0
  -28.7630  -24.5320   19.9650 C   0  0  0  0  0  3  0  0  0  0  0  0
  -28.1260  -23.1650   19.7820 C   0  0  0  0  0  3  0  0  0  0  0  0
  -28.4020  -25.6610   19.0090 C   0  0  0  0  0  2  0  0  0  0  0  0
  -28.2500  -26.9130   19.6790 O   0  0  0  0  0  0  0  0  0  0  0  0
  -24.4480  -31.7960   23.1490 C   0  0  0  0  0  0  0  0  0  0  0  0
  -27.0240  -27.5470   19.7530 C   0  0  0  0  0  0  0  0  0  0  0  0
  -23.1860  -30.4460   21.5020 C   0  0  0  0  0  3  0  0  0  0  0  0
  -24.5950  -28.9920   19.9530 C   0  0  0  0  0  0  0  0  0  0  0  0
  -25.6890  -30.8590   21.2020 C   0  0  0  0  0  2  0  0  0  0  0  0
  -25.7680  -29.5140   20.5100 C   0  0  0  0  0  0  0  0  0  0  0  0
  -26.9770  -28.7930   20.4160 C   0  0  0  0  0  3  0  0  0  0  0  0
  -25.8270  -27.0350   19.1980 C   0  0  0  0  0  3  0  0  0  0  0  0
  -24.6180  -27.7470   19.3000 C   0  0  0  0  0  3  0  0  0  0  0  0
  -23.3430  -29.8270   20.0880 C   0  0  0  0  0  2  0  0  0  0  0  0
  -24.4620  -31.0460   22.0100 N   0  0  0  0  0  0  0  0  0  0  0  0
  -23.3890  -32.0270   23.7490 O   0  0  0  0  0  0  0  0  0  0  0  0
  -22.5940  -29.3740   22.4450 C   0  0  0  0  0  0  0  0  0  0  0  0
  -21.2790  -29.1290   22.3210 N   0  0  0  0  0  0  0  0  0  0  0  0
  -23.3140  -28.7670   23.2420 O   0  0  0  0  0  0  0  0  0  0  0  0
  -20.7580  -29.6780   21.6520 H   0  0  0  0  0  0  0  0  0  0  0  0
  -17.9870  -27.7030   22.7400 C   0  0  0  0  0  0  0  0  0  0  0  0
  -20.5140  -28.1360   23.0730 C   0  0  0  0  0  3  0  0  0  0  0  0
  -20.7270  -26.7150   22.5010 C   0  0  0  0  0  2  0  0  0  0  0  0
  -19.6750  -26.3180   21.4620 C   0  0  0  0  0  2  0  0  0  0  0  0
  -18.2730  -26.3680   22.0740 C   0  0  0  0  0  2  0  0  0  0  0  0
  -19.0410  -28.5410   23.1950 C   0  0  0  0  0  0  0  0  0  0  0  0
  -18.7230  -29.7880   23.7750 C   0  0  0  0  0  3  0  0  0  0  0  0
  -17.3830  -30.1990   23.9100 C   0  0  0  0  0  3  0  0  0  0  0  0
  -16.3440  -29.3580   23.4730 C   0  0  0  0  0  3  0  0  0  0  0  0
  -16.6470  -28.1140   22.8930 C   0  0  0  0  0  3  0  0  0  0  0  0
  -25.7530  -32.4160   23.7380 C   0  0  0  0  0  3  0  0  0  0  0  0
  -25.4520  -33.8030   24.1150 N   0  0  0  0  0  0  0  0  0  0  0  0
  -25.7540  -34.8760   23.3720 C   0  0  0  0  0  0  0  0  0  0  0  0
  -26.3910  -34.8040   22.3170 O   0  0  0  0  0  0  0  0  0  0  0  0
  -24.8870  -33.9320   24.9400 H   0  0  0  0  0  0  0  0  0  0  0  0
  -24.0010  -36.6590   23.1270 C   0  0  0  0  0  1  0  0  0  0  0  0
  -25.2750  -36.2470   23.8810 C   0  0  0  0  0  3  0  0  0  0  0  0
  -27.4340  -37.1260   24.6480 C   0  0  0  0  0  1  0  0  0  0  0  0
  -26.2940  -37.3120   23.7560 N   0  0  0  0  0  0  0  0  0  0  0  0
  -25.8880  -38.2240   23.9520 H   0  0  0  0  0  0  0  0  0  0  0  0
  -26.3260  -31.6110   24.9690 C   0  0  1  0  0  0  0  0  0  0  0  0
  -25.2800  -31.3400   26.0740 C   0  0  0  0  0  1  0  0  0  0  0  0
  -26.8890  -30.2460   24.5080 C   0  0  0  0  0  1  0  0  0  0  0  0
  -27.5060  -32.3870   25.6010 C   0  0  0  0  0  1  0  0  0  0  0  0
  1  4  2  0
  1  3  1  0
  2  5  1  0
  2  9  1  0
  3  2  2  0
  4  7  1  0
  5  6  1  0
  7  5  2  0
  9  8  1  0
 10 19  1  0
 10  4  1  0
 11 19  1  0
 11 17  1  0
 12 17  1  0
 13 14  1  0
 13 12  1  0
 15 14  1  0
 15 24  1  0
 15 16  1  0
 17 16  1  0
 18 11  2  0
 19 20  1  0
 21 22  2  0
 22 23  1  0
 22 41  1  0
 23 26  1  0
 24 21  1  0
 24 25  1  0
 25 23  2  0
 26 27  1  0
 27 28  2  0
 29 32  1  0
 29 28  1  0
 30 29  2  0
 31 30  1  0
 31 26  2  0
 32 33  1  0
 33 34  1  0
 34 35  2  0
 36 35  1  0
 36 40  1  0
 37 36  2  0
 38 33  2  0
 38 37  1  0
 39 38  1  0
 41 42  1  0
 42 45  1  0
 42 44  1  0
 43 41  2  0
 46 47  1  0
 46 21  1  0
 48 46  1  0
 49  3  1  0
 50 49  1  0
 52 54  1  0
 52 51  1  0
 53 50  1  0
 53 52  1  0
 53 51  1  0
 54 55  1  0
 55 57  1  0
 56 67  2  0
 57 62  1  0
 58 66  1  0
 58 68  1  0
 59 65  1  0
 59 61  1  0
 60 66  1  0
 61 60  1  0
 62 61  2  0
 63 64  1  0
 63 57  2  0
 64 59  2  0
 65 58  1  0
 66 56  1  0
 68 70  2  0
 69 68  1  0
 71 69  1  0
 72 81  2  0
 72 77  1  0
 73 69  1  0
 73 77  1  0
 74 73  1  0
 75 76  1  0
 75 74  1  0
 76 72  1  0
 77 78  2  0
 78 79  1  0
 80 79  2  0
 81 80  1  0
 82 56  1  0
 82 83  1  0
 82 92  1  0
 83 86  1  0
 84 88  1  0
 84 83  1  0
 85 84  2  0
 88 87  1  0
 90 88  1  0
 90 91  1  0
 90 89  1  0
 92 95  1  1
 92 93  1  0
 94 92  1  0
M  ISO  4  11 100  19 100  54 101  55 101
M  END
>  <TORSDO>  (7) 
F 22

>  <SCORE>  (7) 
-10.135

>  <name>  (7) 
6

>  <ligand_id>  (7) 
6

>  <original_smiles>  (7) 
[H]c1c([H])c([H])c2c(c1[H])C([H])([H])C([H])([H])C([H])([H])C2([H])N([H])C(=O)C1([H])N(C(=O)C([H])(N([H])C(=O)C([H])(N([H])C([H])([H])[H])C([H])([H])[H])C(C([H])([H])[H])(C([H])([H])[H])C([H])([H])[H])C([H])([H])c2c([H])c(OC([H])([H])C3([H])C([H])([H])C3([H])C([H])([H])Oc3c([H])c(C([H])([H])N([H])C(=O)N4C([H])([H])C([H])([H])C([H])([H])C([H])(n5nc(-c6c([H])c([H])c(Oc7c([H])c([H])c(F)c([H])c7F)c([H])c6[H])c(C(=O)N([H])[H])c5N([H])[H])C4([H])[H])nc(C([H])([H])[H])c3C([H])([H])C([H])([H])[H])c([H])c([H])c2C1([H])[H]

>  <smiles>  (7) 
[H]c1c([H])c([H])c2c(c1[H])C([H])([H])C([H])([H])C([H])([H])C2([H])N([H])C(=O)C1([H])N(C(=O)C([H])(N([H])C(=O)C([H])(N([H])C([H])([H])[H])C([H])([H])[H])C(C([H])([H])[H])(C([H])([H])[H])C([H])([H])[H])C([H])([H])c2c([H])c(OC([H])([H])C3([H])C([H])([H])C3([H])C([H])([H])Oc3c([H])c(C([H])([H])N([H])C(=O)N4C([H])([H])C([H])([H])C([H])([H])C([H])(n5nc(-c6c([H])c([H])c(Oc7c([H])c([H])c(F)c([H])c7F)c([H])c6[H])c(C(=O)N([H])[H])c5N([H])[H])C4([H])[H])nc(C([H])([H])[H])c3C([H])([H])C([H])([H])[H])c([H])c([H])c2C1([H])[H]

$$$$
7:0:0
     RDKit          3D

100109  0  0  1  0  0  0  0  0999 V2000
  -29.9300  -20.9850   20.1600 C   0  0  0  0  0  3  0  0  0  0  0  0
  -32.4020  -20.9200   20.5320 C   0  0  0  0  0  2  0  0  0  0  0  0
  -32.8720  -19.6680   21.2670 C   0  0  0  0  0  3  0  0  0  0  0  0
  -31.4050  -19.2290   21.2130 C   0  0  0  0  0  3  0  0  0  0  0  0
  -31.1880  -20.1920   20.1370 N   0  0  1  0  0  4  0  0  0  0  0  0
  -31.3150  -19.6560   19.2850 H   0  0  0  0  0  0  0  0  0  0  0  0
  -34.7490  -20.7400   22.6420 C   0  0  0  0  0  1  0  0  0  0  0  0
  -33.5660  -19.7650   22.6240 C   0  0  0  0  0  2  0  0  0  0  0  0
  -31.0350  -17.8210   20.7550 C   0  0  0  0  0  3  0  0  0  0  0  0
  -31.7480  -17.5670   19.5550 O   0  0  0  0  0  0  0  0  0  0  0  0
  -31.7100  -16.6140   19.4130 H   0  0  0  0  0  0  0  0  0  0  0  0
  -31.4000  -16.7440   21.7920 C   0  0  0  0  0  2  0  0  0  0  0  0
  -31.1270  -14.6770   20.4300 C   0  0  0  0  0  0  0  0  0  0  0  0
  -30.7960  -12.4580   19.4300 C   0  0  0  0  0  2  0  0  0  0  0  0
  -29.8910  -12.5200   18.1870 C   0  0  0  0  0  2  0  0  0  0  0  0
  -28.4090  -12.4110   18.5910 C   0  0  0  0  0  2  0  0  0  0  0  0
  -28.0300  -13.4100   19.7150 C   0  0  0  0  0  3  0  0  0  0  0  0
  -29.0430  -13.3440   20.8790 C   0  0  0  0  0  2  0  0  0  0  0  0
  -30.4040  -13.5390   20.3420 N   0  0  0  0  0  0  0  0  0  0  0  0
  -32.0840  -14.9510   19.6980 O   0  0  0  0  0  0  0  0  0  0  0  0
  -30.7910  -15.4660   21.4500 N   0  0  0  0  0  0  0  0  0  0  0  0
  -30.0440  -15.1370   22.0440 H   0  0  0  0  0  0  0  0  0  0  0  0
  -25.6500  -14.1120   20.4150 C   0  0  0  0  0  0  0  0  0  0  0  0
  -24.5480  -13.3800   20.7730 C   0  0  0  0  0  0  0  0  0  0  0  0
  -24.9490  -12.0100   20.7170 C   0  0  0  0  0  0  0  0  0  0  0  0
  -26.6600  -13.1900   20.1780 N   0  0  0  0  0  0  0  0  0  0  0  0
  -26.2380  -11.9190   20.4120 N   0  0  0  0  0  0  0  0  0  0  0  0
  -24.1670  -10.7780   20.8860 C   0  0  0  0  0  0  0  0  0  0  0  0
  -24.5490   -9.7880   21.8180 C   0  0  0  0  0  3  0  0  0  0  0  0
  -23.7740   -8.6190   21.9790 C   0  0  0  0  0  3  0  0  0  0  0  0
  -22.6030   -8.4340   21.2080 C   0  0  0  0  0  0  0  0  0  0  0  0
  -22.2380   -9.4130   20.2680 C   0  0  0  0  0  3  0  0  0  0  0  0
  -23.0130  -10.5730   20.1060 C   0  0  0  0  0  3  0  0  0  0  0  0
  -21.8020   -7.3190   21.2770 O   0  0  0  0  0  0  0  0  0  0  0  0
  -21.6890   -6.5840   22.4300 C   0  0  0  0  0  0  0  0  0  0  0  0
  -21.2310   -7.1570   23.6370 C   0  0  0  0  0  3  0  0  0  0  0  0
  -21.0630   -6.3510   24.7790 C   0  0  0  0  0  3  0  0  0  0  0  0
  -21.3400   -4.9720   24.7180 C   0  0  0  0  0  0  0  0  0  0  0  0
  -21.7890   -4.3990   23.5150 C   0  0  0  0  0  3  0  0  0  0  0  0
  -21.9600   -5.2020   22.3740 C   0  0  0  0  0  0  0  0  0  0  0  0
  -22.3730   -4.6400   21.2140 F   0  0  0  0  0  0  0  0  0  0  0  0
  -21.1700   -4.1970   25.8130 F   0  0  0  0  0  0  0  0  0  0  0  0
  -23.1730  -13.9130   21.0530 C   0  0  0  0  0  0  0  0  0  0  0  0
  -22.4220  -13.2400   21.9180 N   0  0  0  0  0  0  0  0  0  0  0  0
  -22.7740  -14.9590   20.5420 O   0  0  0  0  0  0  0  0  0  0  0  0
  -22.7570  -12.3930   22.3530 H   0  0  0  0  0  0  0  0  0  0  0  0
  -21.4970  -13.5710   22.1490 H   0  0  0  0  0  0  0  0  0  0  0  0
  -25.8740  -15.4740   20.2540 N   0  0  0  0  0  0  0  0  0  0  0  0
  -25.1320  -16.1600   20.3470 H   0  0  0  0  0  0  0  0  0  0  0  0
  -26.7420  -15.8740   19.9160 H   0  0  0  0  0  0  0  0  0  0  0  0
  -28.2510  -19.4130   18.8980 C   0  0  0  0  0  1  0  0  0  0  0  0
  -28.6270  -20.1390   20.2020 C   0  0  0  0  0  2  0  0  0  0  0  0
  -29.9270  -22.0220   19.0130 C   0  0  0  0  0  2  0  0  0  0  0  0
  -29.5790  -23.9890   20.5830 C   0  0  0  0  0  2  0  0  0  0  0  0
  -28.9650  -24.1890   18.1100 C   0  0  0  0  0  2  0  0  0  0  0  0
  -29.3450  -25.5010   20.5350 C   0  0  0  0  0  2  0  0  0  0  0  0
  -27.9650  -25.3240   18.3770 C   0  0  0  0  0  2  0  0  0  0  0  0
  -29.0610  -23.2490   19.3240 C   0  0  0  0  0  3  0  0  0  0  0  0
  -28.0350  -25.8580   19.8240 C   0  0  0  0  0  3  0  0  0  0  0  0
  -28.0330  -27.2690   19.7710 O   0  0  0  0  0  0  0  0  0  0  0  0
  -24.5500  -32.1600   23.4830 C   0  0  0  0  0  0  0  0  0  0  0  0
  -26.8440  -27.9310   19.9080 C   0  0  0  0  0  0  0  0  0  0  0  0
  -23.1910  -30.9090   21.8340 C   0  0  0  0  0  3  0  0  0  0  0  0
  -24.4900  -29.4440   20.2060 C   0  0  0  0  0  0  0  0  0  0  0  0
  -25.7010  -31.2300   21.4850 C   0  0  0  0  0  2  0  0  0  0  0  0
  -25.6960  -29.9150   20.7390 C   0  0  0  0  0  0  0  0  0  0  0  0
  -26.8770  -29.1680   20.5790 C   0  0  0  0  0  3  0  0  0  0  0  0
  -25.6220  -27.4560   19.3800 C   0  0  0  0  0  3  0  0  0  0  0  0
  -24.4450  -28.2110   19.5280 C   0  0  0  0  0  3  0  0  0  0  0  0
  -23.2790  -30.3210   20.3990 C   0  0  0  0  0  2  0  0  0  0  0  0
  -24.5020  -31.4430   22.3240 N   0  0  0  0  0  0  0  0  0  0  0  0
  -23.5190  -32.4190   24.1170 O   0  0  0  0  0  0  0  0  0  0  0  0
  -22.5800  -29.8400   22.7650 C   0  0  0  0  0  0  0  0  0  0  0  0
  -21.2670  -29.5990   22.6140 N   0  0  0  0  0  0  0  0  0  0  0  0
  -23.2800  -29.2310   23.5780 O   0  0  0  0  0  0  0  0  0  0  0  0
  -20.7640  -30.1400   21.9230 H   0  0  0  0  0  0  0  0  0  0  0  0
  -17.9830  -28.1360   22.9260 C   0  0  0  0  0  0  0  0  0  0  0  0
  -20.4850  -28.6140   23.3560 C   0  0  0  0  0  3  0  0  0  0  0  0
  -20.7440  -27.1850   22.8240 C   0  0  0  0  0  2  0  0  0  0  0  0
  -19.7440  -26.7520   21.7480 C   0  0  0  0  0  2  0  0  0  0  0  0
  -18.3130  -26.7970   22.2910 C   0  0  0  0  0  2  0  0  0  0  0  0
  -19.0030  -28.9970   23.4090 C   0  0  0  0  0  0  0  0  0  0  0  0
  -18.6430  -30.2500   23.9560 C   0  0  0  0  0  3  0  0  0  0  0  0
  -17.2940  -30.6400   24.0270 C   0  0  0  0  0  3  0  0  0  0  0  0
  -16.2870  -29.7780   23.5600 C   0  0  0  0  0  3  0  0  0  0  0  0
  -16.6300  -28.5280   23.0160 C   0  0  0  0  0  3  0  0  0  0  0  0
  -25.8980  -32.7110   24.0490 C   0  0  0  0  0  3  0  0  0  0  0  0
  -25.6760  -34.1150   24.4260 N   0  0  0  0  0  0  0  0  0  0  0  0
  -26.0580  -35.1690   23.6920 C   0  0  0  0  0  0  0  0  0  0  0  0
  -26.7090  -35.0580   22.6490 O   0  0  0  0  0  0  0  0  0  0  0  0
  -25.1050  -34.2810   25.2410 H   0  0  0  0  0  0  0  0  0  0  0  0
  -24.4290  -37.0640   23.4090 C   0  0  0  0  0  1  0  0  0  0  0  0
  -25.6540  -36.5680   24.1960 C   0  0  0  0  0  3  0  0  0  0  0  0
  -27.8450  -37.3040   25.0260 C   0  0  0  0  0  1  0  0  0  0  0  0
  -26.7430  -37.5640   24.1010 N   0  0  0  0  0  0  0  0  0  0  0  0
  -26.3940  -38.5010   24.2840 H   0  0  0  0  0  0  0  0  0  0  0  0
  -26.4400  -31.8830   25.2780 C   0  0  1  0  0  0  0  0  0  0  0  0
  -25.3850  -31.6580   26.3840 C   0  0  0  0  0  1  0  0  0  0  0  0
  -26.9460  -30.4940   24.8280 C   0  0  0  0  0  1  0  0  0  0  0  0
  -27.6530  -32.6100   25.9050 C   0  0  0  0  0  1  0  0  0  0  0  0
  1 53  1  0
  1 52  1  0
  2  3  1  0
  3  8  1  0
  4  9  1  0
  4  3  1  0
  5  1  1  0
  5  2  1  0
  5  4  1  0
  5  6  1  6
  8  7  1  0
  9 12  1  0
 10  9  1  0
 11 10  1  0
 13 21  1  0
 14 19  1  0
 15 16  1  0
 15 14  1  0
 17 16  1  0
 17 26  1  0
 17 18  1  0
 19 13  1  0
 19 18  1  0
 20 13  2  0
 21 12  1  0
 21 22  1  0
 23 24  2  0
 24 43  1  0
 25 24  1  0
 25 28  1  0
 26 27  1  0
 26 23  1  0
 27 25  2  0
 28 29  1  0
 29 30  2  0
 31 34  1  0
 31 30  1  0
 32 31  2  0
 33 32  1  0
 33 28  2  0
 34 35  1  0
 35 36  1  0
 36 37  2  0
 38 37  1  0
 38 42  1  0
 39 38  2  0
 40 35  2  0
 40 39  1  0
 41 40  1  0
 43 44  1  0
 44 47  1  0
 44 46  1  0
 45 43  2  0
 48 49  1  0
 48 23  1  0
 50 48  1  0
 51 52  1  0
 55 57  1  0
 55 58  1  0
 56 54  1  0
 57 59  1  0
 58 53  1  0
 58 54  1  0
 59 60  1  0
 59 56  1  0
 60 62  1  0
 61 72  2  0
 62 67  1  0
 63 71  1  0
 63 73  1  0
 64 70  1  0
 64 66  1  0
 65 71  1  0
 66 65  1  0
 67 66  2  0
 68 69  1  0
 68 62  2  0
 69 64  2  0
 70 63  1  0
 71 61  1  0
 73 75  2  0
 74 73  1  0
 76 74  1  0
 77 86  2  0
 77 82  1  0
 78 74  1  0
 78 82  1  0
 79 78  1  0
 80 81  1  0
 80 79  1  0
 81 77  1  0
 82 83  2  0
 83 84  1  0
 85 84  2  0
 86 85  1  0
 87 61  1  0
 87 88  1  0
 87 97  1  0
 88 91  1  0
 89 93  1  0
 89 88  1  0
 90 89  2  0
 93 92  1  0
 95 93  1  0
 95 96  1  0
 95 94  1  0
 97100  1  1
 97 98  1  0
 99 97  1  0
M  ISO  4  13 100  21 100  59 101  60 101
M  END
>  <TORSDO>  (8) 
F 24

>  <SCORE>  (8) 
-12.240

>  <name>  (8) 
7

>  <ligand_id>  (8) 
7

>  <original_smiles>  (8) 
[H]OC([H])(C([H])([H])N([H])C(=O)N1C([H])([H])C([H])([H])C([H])([H])C([H])(n2nc(-c3c([H])c([H])c(Oc4c([H])c([H])c(F)c([H])c4F)c([H])c3[H])c(C(=O)N([H])[H])c2N([H])[H])C1([H])[H])C1([H])C([H])(C([H])([H])C([H])([H])[H])C([H])([H])[N+]1([H])C([H])(C([H])([H])C([H])([H])[H])C([H])([H])C1([H])C([H])([H])C([H])([H])C([H])(Oc2c([H])c([H])c3c(c2[H])C([H])([H])N(C(=O)C([H])(N([H])C(=O)C([H])(N([H])C([H])([H])[H])C([H])([H])[H])C(C([H])([H])[H])(C([H])([H])[H])C([H])([H])[H])C([H])(C(=O)N([H])C2([H])c4c([H])c([H])c([H])c([H])c4C([H])([H])C([H])([H])C2([H])[H])C3([H])[H])C([H])([H])C1([H])[H]

>  <smiles>  (8) 
[H]OC([H])(C([H])([H])N([H])C(=O)N1C([H])([H])C([H])([H])C([H])([H])C([H])(n2nc(-c3c([H])c([H])c(Oc4c([H])c([H])c(F)c([H])c4F)c([H])c3[H])c(C(=O)N([H])[H])c2N([H])[H])C1([H])[H])C1([H])C([H])(C([H])([H])C([H])([H])[H])C([H])([H])[N+]1([H])C([H])(C([H])([H])C([H])([H])[H])C([H])([H])C1([H])C([H])([H])C([H])([H])C([H])(Oc2c([H])c([H])c3c(c2[H])C([H])([H])N(C(=O)C([H])(N([H])C(=O)C([H])(N([H])C([H])([H])[H])C([H])([H])[H])C(C([H])([H])[H])(C([H])([H])[H])C([H])([H])[H])C([H])(C(=O)N([H])C2([H])c4c([H])c([H])c([H])c([H])c4C([H])([H])C([H])([H])C2([H])[H])C3([H])[H])C([H])([H])C1([H])[H]

$$$$
8:0:0
     RDKit          3D

 99108  0  0  1  0  0  0  0  0999 V2000
  -29.5090  -21.5890   23.0990 O   0  0  0  0  0  0  0  0  0  0  0  0
  -30.1180  -25.2430   22.5490 C   0  0  0  0  0  3  0  0  0  0  0  0
  -30.2200  -23.9600   23.1200 C   0  0  0  0  0  3  0  0  0  0  0  0
  -28.6160  -24.3620   20.8520 C   0  0  0  0  0  3  0  0  0  0  0  0
  -29.3000  -25.4520   21.4240 C   0  0  0  0  0  0  0  0  0  0  0  0
  -28.7250  -23.0750   21.4100 C   0  0  0  0  0  0  0  0  0  0  0  0
  -29.5070  -22.8640   22.5700 C   0  0  0  0  0  0  0  0  0  0  0  0
  -28.0030  -21.9230   20.7390 C   0  0  0  0  0  1  0  0  0  0  0  0
  -29.1810  -26.8370   20.8240 C   0  0  0  0  0  2  0  0  0  0  0  0
  -28.2290  -26.8520   19.7630 O   0  0  0  0  0  0  0  0  0  0  0  0
  -24.5450  -31.9080   23.1880 C   0  0  0  0  0  0  0  0  0  0  0  0
  -27.0690  -27.5630   19.9360 C   0  0  0  0  0  0  0  0  0  0  0  0
  -23.2660  -30.5330   21.5740 C   0  0  0  0  0  3  0  0  0  0  0  0
  -24.6570  -29.0100   20.0780 C   0  0  0  0  0  0  0  0  0  0  0  0
  -25.7710  -30.9140   21.2630 C   0  0  0  0  0  2  0  0  0  0  0  0
  -25.8290  -29.5460   20.6230 C   0  0  0  0  0  0  0  0  0  0  0  0
  -27.0370  -28.8300   20.5540 C   0  0  0  0  0  3  0  0  0  0  0  0
  -25.8840  -27.0290   19.3890 C   0  0  0  0  0  3  0  0  0  0  0  0
  -24.6730  -27.7440   19.4650 C   0  0  0  0  0  3  0  0  0  0  0  0
  -23.4130  -29.8610   20.1810 C   0  0  0  0  0  2  0  0  0  0  0  0
  -24.5480  -31.1320   22.0680 N   0  0  0  0  0  0  0  0  0  0  0  0
  -23.4880  -32.1750   23.7760 O   0  0  0  0  0  0  0  0  0  0  0  0
  -22.6540  -29.5010   22.5460 C   0  0  0  0  0  0  0  0  0  0  0  0
  -21.3350  -29.2780   22.4230 N   0  0  0  0  0  0  0  0  0  0  0  0
  -23.3600  -28.8990   23.3590 O   0  0  0  0  0  0  0  0  0  0  0  0
  -20.8300  -29.8160   21.7350 H   0  0  0  0  0  0  0  0  0  0  0  0
  -18.0110  -27.9400   22.8650 C   0  0  0  0  0  0  0  0  0  0  0  0
  -20.5450  -28.3230   23.1980 C   0  0  0  0  0  3  0  0  0  0  0  0
  -20.7300  -26.8830   22.6630 C   0  0  0  0  0  2  0  0  0  0  0  0
  -19.6710  -26.4830   21.6320 C   0  0  0  0  0  2  0  0  0  0  0  0
  -18.2680  -26.5810   22.2350 C   0  0  0  0  0  2  0  0  0  0  0  0
  -19.0820  -28.7650   23.3010 C   0  0  0  0  0  0  0  0  0  0  0  0
  -18.7890  -30.0340   23.8460 C   0  0  0  0  0  3  0  0  0  0  0  0
  -17.4590  -30.4790   23.9600 C   0  0  0  0  0  3  0  0  0  0  0  0
  -16.4020  -29.6510   23.5420 C   0  0  0  0  0  3  0  0  0  0  0  0
  -16.6800  -28.3830   23.0010 C   0  0  0  0  0  3  0  0  0  0  0  0
  -25.8590  -32.5200   23.7670 C   0  0  0  0  0  3  0  0  0  0  0  0
  -25.5790  -33.9150   24.1280 N   0  0  0  0  0  0  0  0  0  0  0  0
  -25.9020  -34.9730   23.3740 C   0  0  0  0  0  0  0  0  0  0  0  0
  -26.5400  -34.8760   22.3210 O   0  0  0  0  0  0  0  0  0  0  0  0
  -25.0090  -34.0680   24.9490 H   0  0  0  0  0  0  0  0  0  0  0  0
  -24.1800  -36.7820   23.0890 C   0  0  0  0  0  1  0  0  0  0  0  0
  -25.4400  -36.3590   23.8610 C   0  0  0  0  0  3  0  0  0  0  0  0
  -27.6070  -37.2100   24.6380 C   0  0  0  0  0  1  0  0  0  0  0  0
  -26.4790  -37.4060   23.7320 N   0  0  0  0  0  0  0  0  0  0  0  0
  -26.0870  -38.3280   23.9040 H   0  0  0  0  0  0  0  0  0  0  0  0
  -26.4250  -31.7230   25.0050 C   0  0  1  0  0  0  0  0  0  0  0  0
  -25.3700  -31.4500   26.1020 C   0  0  0  0  0  1  0  0  0  0  0  0
  -27.0070  -30.3640   24.5510 C   0  0  0  0  0  1  0  0  0  0  0  0
  -27.5930  -32.5100   25.6500 C   0  0  0  0  0  1  0  0  0  0  0  0
  -31.7870  -19.7460   22.4810 C   0  0  0  0  0  2  0  0  0  0  0  0
  -29.8910  -18.7610   23.8590 C   0  0  0  0  0  2  0  0  0  0  0  0
  -31.8360  -20.9630   23.4230 C   0  0  0  0  0  2  0  0  0  0  0  0
  -29.9680  -19.9700   24.8060 C   0  0  0  0  0  2  0  0  0  0  0  0
  -31.2430  -18.4790   23.1740 C   0  0  0  0  0  3  0  0  0  0  0  0
  -30.4730  -21.2310   24.0880 C   0  0  0  0  0  3  0  0  0  0  0  0
  -31.1090  -17.3870   22.1870 N   0  0  0  0  0  4  0  0  0  0  0  0
  -31.7460  -17.5790   21.4320 H   0  0  0  0  0  0  0  0  0  0  0  0
  -30.1780  -17.3880   21.8010 H   0  0  0  0  0  0  0  0  0  0  0  0
  -31.4250  -16.0350   22.6870 C   0  0  0  0  0  2  0  0  0  0  0  0
  -31.6160  -15.0520   21.5230 C   0  0  0  0  0  2  0  0  0  0  0  0
  -30.1860  -14.2480   19.6770 C   0  0  0  0  0  0  0  0  0  0  0  0
  -29.5900  -12.2570   18.3660 C   0  0  0  0  0  2  0  0  0  0  0  0
  -28.4690  -12.4730   17.3400 C   0  0  0  0  0  2  0  0  0  0  0  0
  -27.0990  -12.2450   17.9980 C   0  0  0  0  0  2  0  0  0  0  0  0
  -26.9340  -13.0560   19.3080 C   0  0  0  0  0  3  0  0  0  0  0  0
  -28.1510  -12.8850   20.2450 C   0  0  0  0  0  2  0  0  0  0  0  0
  -29.3860  -13.1730   19.4940 N   0  0  0  0  0  0  0  0  0  0  0  0
  -30.9240  -14.7150   18.8030 O   0  0  0  0  0  0  0  0  0  0  0  0
  -30.3490  -14.5720   20.9650 N   0  0  0  0  0  0  0  0  0  0  0  0
  -29.7150  -14.1130   21.6040 H   0  0  0  0  0  0  0  0  0  0  0  0
  -24.6530  -13.5520   20.3990 C   0  0  0  0  0  0  0  0  0  0  0  0
  -23.6840  -12.7280   20.9070 C   0  0  0  0  0  0  0  0  0  0  0  0
  -24.1820  -11.3970   20.7670 C   0  0  0  0  0  0  0  0  0  0  0  0
  -25.6810  -12.7190   19.9860 N   0  0  0  0  0  0  0  0  0  0  0  0
  -25.4090  -11.4170   20.2600 N   0  0  0  0  0  0  0  0  0  0  0  0
  -23.5400  -10.1020   21.0320 C   0  0  0  0  0  0  0  0  0  0  0  0
  -24.1020   -9.1710   21.9320 C   0  0  0  0  0  3  0  0  0  0  0  0
  -23.4560   -7.9400   22.1860 C   0  0  0  0  0  3  0  0  0  0  0  0
  -22.2360   -7.6330   21.5380 C   0  0  0  0  0  0  0  0  0  0  0  0
  -21.6940   -8.5540   20.6240 C   0  0  0  0  0  3  0  0  0  0  0  0
  -22.3400   -9.7760   20.3700 C   0  0  0  0  0  3  0  0  0  0  0  0
  -21.5530   -6.4530   21.7000 O   0  0  0  0  0  0  0  0  0  0  0  0
  -21.5890   -5.7560   22.8820 C   0  0  0  0  0  0  0  0  0  0  0  0
  -21.1850   -6.3390   24.1030 C   0  0  0  0  0  3  0  0  0  0  0  0
  -21.1720   -5.5660   25.2810 C   0  0  0  0  0  3  0  0  0  0  0  0
  -21.5550   -4.2120   25.2410 C   0  0  0  0  0  0  0  0  0  0  0  0
  -21.9510   -3.6290   24.0250 C   0  0  0  0  0  3  0  0  0  0  0  0
  -21.9660   -4.3990   22.8490 C   0  0  0  0  0  0  0  0  0  0  0  0
  -22.3300   -3.8270   21.6750 F   0  0  0  0  0  0  0  0  0  0  0  0
  -21.5360   -3.4670   26.3710 F   0  0  0  0  0  0  0  0  0  0  0  0
  -22.3300  -13.1420   21.4090 C   0  0  0  0  0  0  0  0  0  0  0  0
  -21.7820  -12.4100   22.3720 N   0  0  0  0  0  0  0  0  0  0  0  0
  -21.7700  -14.1500   20.9810 O   0  0  0  0  0  0  0  0  0  0  0  0
  -22.2490  -11.5920   22.7360 H   0  0  0  0  0  0  0  0  0  0  0  0
  -20.8810  -12.6660   22.7490 H   0  0  0  0  0  0  0  0  0  0  0  0
  -24.7400  -14.9310   20.2390 N   0  0  0  0  0  0  0  0  0  0  0  0
  -23.9780  -15.5550   20.4840 H   0  0  0  0  0  0  0  0  0  0  0  0
  -25.5220  -15.4090   19.8110 H   0  0  0  0  0  0  0  0  0  0  0  0
  2  3  1  0
  4  6  2  0
  4  5  1  0
  5  2  2  0
  6  7  1  0
  7  1  1  0
  7  3  2  0
  8  6  1  0
  9  5  1  0
 10 12  1  0
 10  9  1  0
 11 22  2  0
 12 17  1  0
 13 21  1  0
 13 23  1  0
 14 20  1  0
 14 16  1  0
 15 21  1  0
 16 15  1  0
 17 16  2  0
 18 19  1  0
 18 12  2  0
 19 14  2  0
 20 13  1  0
 21 11  1  0
 23 25  2  0
 24 23  1  0
 26 24  1  0
 27 36  2  0
 27 32  1  0
 28 24  1  0
 28 32  1  0
 29 28  1  0
 30 31  1  0
 30 29  1  0
 31 27  1  0
 32 33  2  0
 33 34  1  0
 35 34  2  0
 36 35  1  0
 37 11  1  0
 37 38  1  0
 37 47  1  0
 38 41  1  0
 39 43  1  0
 39 38  1  0
 40 39  2  0
 43 42  1  0
 45 43  1  0
 45 46  1  0
 45 44  1  0
 47 50  1  1
 47 48  1  0
 49 47  1  0
 51 55  1  0
 51 53  1  0
 52 54  1  0
 53 56  1  0
 55 57  1  0
 55 52  1  0
 56  1  1  0
 56 54  1  0
 57 60  1  0
 58 57  1  0
 59 57  1  0
 61 60  1  0
 62 70  1  0
 63 68  1  0
 64 65  1  0
 64 63  1  0
 66 65  1  0
 66 75  1  0
 66 67  1  0
 68 62  1  0
 68 67  1  0
 69 62  2  0
 70 61  1  0
 70 71  1  0
 72 73  2  0
 73 92  1  0
 74 73  1  0
 74 77  1  0
 75 76  1  0
 75 72  1  0
 76 74  2  0
 77 78  1  0
 78 79  2  0
 80 83  1  0
 80 79  1  0
 81 80  2  0
 82 81  1  0
 82 77  2  0
 83 84  1  0
 84 85  1  0
 85 86  2  0
 87 86  1  0
 87 91  1  0
 88 87  2  0
 89 84  2  0
 89 88  1  0
 90 89  1  0
 92 93  1  0
 93 95  1  0
 93 96  1  0
 94 92  2  0
 97 72  1  0
 97 98  1  0
 99 97  1  0
M  ISO  4   9 101  10 101  62 100  70 100
M  END
>  <TORSDO>  (9) 
F 22

>  <SCORE>  (9) 
-7.986

>  <name>  (9) 
8

>  <ligand_id>  (9) 
8

>  <original_smiles>  (9) 
[H]c1c([H])c([H])c2c(c1[H])C([H])([H])C([H])([H])C([H])([H])C2([H])N([H])C(=O)C1([H])N(C(=O)C([H])(N([H])C(=O)C([H])(N([H])C([H])([H])[H])C([H])([H])[H])C(C([H])([H])[H])(C([H])([H])[H])C([H])([H])[H])C([H])([H])c2c([H])c(OC([H])([H])c3c([H])c([H])c(OC4([H])C([H])([H])C([H])([H])C([H])([N+]([H])([H])C([H])([H])C([H])([H])N([H])C(=O)N5C([H])([H])C([H])([H])C([H])([H])C([H])(n6nc(-c7c([H])c([H])c(Oc8c([H])c([H])c(F)c([H])c8F)c([H])c7[H])c(C(=O)N([H])[H])c6N([H])[H])C5([H])[H])C([H])([H])C4([H])[H])c(C([H])([H])[H])c3[H])c([H])c([H])c2C1([H])[H]

>  <smiles>  (9) 
[H]c1c([H])c([H])c2c(c1[H])C([H])([H])C([H])([H])C([H])([H])C2([H])N([H])C(=O)C1([H])N(C(=O)C([H])(N([H])C(=O)C([H])(N([H])C([H])([H])[H])C([H])([H])[H])C(C([H])([H])[H])(C([H])([H])[H])C([H])([H])[H])C([H])([H])c2c([H])c(OC([H])([H])c3c([H])c([H])c(OC4([H])C([H])([H])C([H])([H])C([H])([N+]([H])([H])C([H])([H])C([H])([H])N([H])C(=O)N5C([H])([H])C([H])([H])C([H])([H])C([H])(n6nc(-c7c([H])c([H])c(Oc8c([H])c([H])c(F)c([H])c8F)c([H])c7[H])c(C(=O)N([H])[H])c6N([H])[H])C5([H])[H])C([H])([H])C4([H])[H])c(C([H])([H])[H])c3[H])c([H])c([H])c2C1([H])[H]

$$$$
9:0:0
     RDKit          3D

 93102  0  0  1  0  0  0  0  0999 V2000
  -31.2200  -22.7510   20.8720 C   0  0  0  0  0  3  0  0  0  0  0  0
  -30.3860  -23.8040   20.4380 C   0  0  0  0  0  3  0  0  0  0  0  0
  -30.8630  -21.3900   20.7330 C   0  0  0  0  0  3  0  0  0  0  0  0
  -29.1350  -23.5500   19.8450 C   0  0  0  0  0  0  0  0  0  0  0  0
  -28.7810  -22.1070   19.7190 C   0  0  0  0  0  0  0  0  0  0  0  0
  -29.6430  -20.9730   20.1500 C   0  0  0  0  0  0  0  0  0  0  0  0
  -30.7260  -15.0570   20.0350 C   0  0  0  0  0  0  0  0  0  0  0  0
  -30.5180  -12.7180   19.1030 C   0  0  0  0  0  2  0  0  0  0  0  0
  -29.5480  -12.6990   17.9000 C   0  0  0  0  0  2  0  0  0  0  0  0
  -28.0980  -12.5050   18.3830 C   0  0  0  0  0  2  0  0  0  0  0  0
  -27.7410  -13.4250   19.5800 C   0  0  0  0  0  3  0  0  0  0  0  0
  -28.8350  -13.4370   20.6680 C   0  0  0  0  0  2  0  0  0  0  0  0
  -30.0860  -13.8230   20.0070 N   0  0  0  0  0  0  0  0  0  0  0  0
  -31.9130  -15.0750   19.6900 O   0  0  0  0  0  0  0  0  0  0  0  0
  -30.1710  -18.7860   18.9840 C   0  0  0  0  0  2  0  0  0  0  0  0
  -29.7010  -18.6560   21.2490 C   0  0  0  0  0  2  0  0  0  0  0  0
  -29.9600  -17.2000   18.8190 C   0  0  0  0  0  2  0  0  0  0  0  0
  -29.4420  -17.0610   21.1630 C   0  0  0  0  0  2  0  0  0  0  0  0
  -29.4150  -19.5030   20.0500 N   0  0  0  0  0  0  0  0  0  0  0  0
  -29.9940  -16.2780   20.0070 N   0  0  0  0  0  0  0  0  0  0  0  0
  -25.3890  -13.9960   20.4060 C   0  0  0  0  0  0  0  0  0  0  0  0
  -24.3380  -13.2170   20.8080 C   0  0  0  0  0  0  0  0  0  0  0  0
  -24.8020  -11.8670   20.7510 C   0  0  0  0  0  0  0  0  0  0  0  0
  -26.4230  -13.1210   20.1250 N   0  0  0  0  0  0  0  0  0  0  0  0
  -26.0810  -11.8340   20.3970 N   0  0  0  0  0  0  0  0  0  0  0  0
  -24.0810  -10.6030   20.9560 C   0  0  0  0  0  0  0  0  0  0  0  0
  -24.5200   -9.6460   21.8980 C   0  0  0  0  0  3  0  0  0  0  0  0
  -23.8000   -8.4480   22.0920 C   0  0  0  0  0  3  0  0  0  0  0  0
  -22.6240   -8.1990   21.3450 C   0  0  0  0  0  0  0  0  0  0  0  0
  -22.2020   -9.1430   20.3940 C   0  0  0  0  0  3  0  0  0  0  0  0
  -22.9250  -10.3320   20.1970 C   0  0  0  0  0  3  0  0  0  0  0  0
  -21.8710   -7.0530   21.4500 O   0  0  0  0  0  0  0  0  0  0  0  0
  -21.8010   -6.3420   22.6210 C   0  0  0  0  0  0  0  0  0  0  0  0
  -21.3540   -6.9320   23.8250 C   0  0  0  0  0  3  0  0  0  0  0  0
  -21.2320   -6.1480   24.9890 C   0  0  0  0  0  3  0  0  0  0  0  0
  -21.5420   -4.7760   24.9510 C   0  0  0  0  0  0  0  0  0  0  0  0
  -21.9800   -4.1850   23.7530 C   0  0  0  0  0  3  0  0  0  0  0  0
  -22.1060   -4.9670   22.5910 C   0  0  0  0  0  0  0  0  0  0  0  0
  -22.5090   -4.3880   21.4340 F   0  0  0  0  0  0  0  0  0  0  0  0
  -21.4160   -4.0220   26.0680 F   0  0  0  0  0  0  0  0  0  0  0  0
  -22.9510  -13.6930   21.1290 C   0  0  0  0  0  0  0  0  0  0  0  0
  -22.2580  -13.0000   22.0260 N   0  0  0  0  0  0  0  0  0  0  0  0
  -22.4930  -14.7150   20.6200 O   0  0  0  0  0  0  0  0  0  0  0  0
  -22.6440  -12.1750   22.4590 H   0  0  0  0  0  0  0  0  0  0  0  0
  -21.3290  -13.3020   22.2830 H   0  0  0  0  0  0  0  0  0  0  0  0
  -25.5480  -15.3670   20.2310 N   0  0  0  0  0  0  0  0  0  0  0  0
  -24.7900  -16.0240   20.3780 H   0  0  0  0  0  0  0  0  0  0  0  0
  -26.3920  -15.8060   19.8840 H   0  0  0  0  0  0  0  0  0  0  0  0
  -28.2430  -24.8350   19.3560 C   0  0  0  0  0  2  0  0  0  0  0  0
  -28.5210  -26.3310   19.6520 O   0  0  0  0  0  0  0  0  0  0  0  0
  -24.6870  -31.6400   23.0140 C   0  0  0  0  0  0  0  0  0  0  0  0
  -27.4330  -27.2760   19.6480 C   0  0  0  0  0  0  0  0  0  0  0  0
  -23.5350  -30.3190   21.2830 C   0  0  0  0  0  3  0  0  0  0  0  0
  -25.0370  -28.9150   19.7460 C   0  0  0  0  0  0  0  0  0  0  0  0
  -26.0740  -30.7010   21.1320 C   0  0  0  0  0  2  0  0  0  0  0  0
  -26.2000  -29.3660   20.3810 C   0  0  0  0  0  0  0  0  0  0  0  0
  -27.4010  -28.5640   20.3170 C   0  0  0  0  0  3  0  0  0  0  0  0
  -26.2360  -26.9280   18.9810 C   0  0  0  0  0  3  0  0  0  0  0  0
  -25.0660  -27.7100   19.0310 C   0  0  0  0  0  3  0  0  0  0  0  0
  -23.7740  -29.7520   19.8590 C   0  0  0  0  0  2  0  0  0  0  0  0
  -24.7860  -30.9040   21.8650 N   0  0  0  0  0  0  0  0  0  0  0  0
  -23.5940  -31.8430   23.5620 O   0  0  0  0  0  0  0  0  0  0  0  0
  -22.9020  -29.2170   22.1710 C   0  0  0  0  0  0  0  0  0  0  0  0
  -21.5750  -29.0340   22.0670 N   0  0  0  0  0  0  0  0  0  0  0  0
  -23.6090  -28.5350   22.9170 O   0  0  0  0  0  0  0  0  0  0  0  0
  -21.0610  -29.6400   21.4420 H   0  0  0  0  0  0  0  0  0  0  0  0
  -18.2180  -27.7850   22.6150 C   0  0  0  0  0  0  0  0  0  0  0  0
  -20.7890  -28.0200   22.7750 C   0  0  0  0  0  3  0  0  0  0  0  0
  -20.8540  -26.6560   22.0490 C   0  0  0  0  0  2  0  0  0  0  0  0
  -19.7000  -26.4400   21.0650 C   0  0  0  0  0  2  0  0  0  0  0  0
  -18.3550  -26.5150   21.7920 C   0  0  0  0  0  2  0  0  0  0  0  0
  -19.3610  -28.5000   23.0630 C   0  0  0  0  0  0  0  0  0  0  0  0
  -19.1780  -29.6920   23.7970 C   0  0  0  0  0  3  0  0  0  0  0  0
  -17.8850  -30.1690   24.0850 C   0  0  0  0  0  3  0  0  0  0  0  0
  -16.7570  -29.4500   23.6520 C   0  0  0  0  0  3  0  0  0  0  0  0
  -16.9260  -28.2590   22.9220 C   0  0  0  0  0  3  0  0  0  0  0  0
  -25.9430  -32.2800   23.6820 C   0  0  0  0  0  3  0  0  0  0  0  0
  -26.4690  -31.4590   24.9240 C   0  0  1  0  0  0  0  0  0  0  0  0
  -25.3750  -31.1440   25.9710 C   0  0  0  0  0  1  0  0  0  0  0  0
  -27.0900  -30.1170   24.4740 C   0  0  0  0  0  1  0  0  0  0  0  0
  -27.5950  -32.2490   25.6330 C   0  0  0  0  0  1  0  0  0  0  0  0
  -25.5860  -33.6480   24.0860 N   0  0  0  0  0  0  0  0  0  0  0  0
  -25.8720  -34.7530   23.3830 C   0  0  0  0  0  0  0  0  0  0  0  0
  -26.5320  -34.7270   22.3410 O   0  0  0  0  0  0  0  0  0  0  0  0
  -24.9970  -33.7380   24.9000 H   0  0  0  0  0  0  0  0  0  0  0  0
  -24.0690  -36.4940   23.1610 C   0  0  0  0  0  1  0  0  0  0  0  0
  -25.3460  -36.0980   23.9210 C   0  0  0  0  0  3  0  0  0  0  0  0
  -27.4660  -37.0260   24.7410 C   0  0  0  0  0  1  0  0  0  0  0  0
  -26.3340  -37.1950   23.8340 N   0  0  0  0  0  0  0  0  0  0  0  0
  -25.8970  -38.0910   24.0360 H   0  0  0  0  0  0  0  0  0  0  0  0
  -27.4240  -21.7850   19.1120 C   0  0  0  0  0  2  0  0  0  0  0  0
  -25.1180  -22.3120   19.1650 C   0  0  0  0  0  1  0  0  0  0  0  0
  -26.3850  -22.4920   19.7790 O   0  0  0  0  0  0  0  0  0  0  0  0
  2  1  2  0
  3  1  1  0
  4  2  1  0
  5  4  2  0
  5  6  1  0
  6  3  2  0
  8 13  1  0
  9 10  1  0
  9  8  1  0
 11 10  1  0
 11 24  1  0
 11 12  1  0
 13  7  1  0
 13 12  1  0
 14  7  2  0
 15 19  1  0
 17 15  1  0
 17 20  1  0
 18 16  1  0
 19  6  1  0
 19 16  1  0
 20  7  1  0
 20 18  1  0
 21 22  2  0
 22 41  1  0
 23 22  1  0
 23 26  1  0
 24 25  1  0
 24 21  1  0
 25 23  2  0
 26 27  1  0
 27 28  2  0
 29 32  1  0
 29 28  1  0
 30 29  2  0
 31 30  1  0
 31 26  2  0
 32 33  1  0
 33 34  1  0
 34 35  2  0
 36 35  1  0
 36 40  1  0
 37 36  2  0
 38 33  2  0
 38 37  1  0
 39 38  1  0
 41 42  1  0
 42 45  1  0
 42 44  1  0
 43 41  2  0
 46 47  1  0
 46 21  1  0
 48 46  1  0
 49 50  1  0
 49  4  1  0
 51 62  2  0
 52 50  1  0
 52 57  1  0
 53 61  1  0
 53 63  1  0
 54 60  1  0
 54 56  1  0
 55 61  1  0
 56 55  1  0
 57 56  2  0
 58 59  1  0
 58 52  2  0
 59 54  2  0
 60 53  1  0
 61 51  1  0
 63 65  2  0
 64 63  1  0
 66 64  1  0
 67 76  2  0
 67 72  1  0
 68 64  1  0
 68 72  1  0
 69 68  1  0
 70 71  1  0
 70 69  1  0
 71 67  1  0
 72 73  2  0
 73 74  1  0
 75 74  2  0
 76 75  1  0
 77 51  1  0
 77 82  1  0
 77 78  1  0
 78 81  1  1
 78 79  1  0
 80 78  1  0
 82 85  1  0
 83 87  1  0
 83 82  1  0
 84 83  2  0
 87 86  1  0
 89 87  1  0
 89 90  1  0
 89 88  1  0
 91  5  1  0
 91 93  1  0
 92 93  1  0
M  ISO  4   7 100  20 100  49 101  50 101
M  END
>  <TORSDO>  (10) 
F 19

>  <SCORE>  (10) 
-13.559

>  <name>  (10) 
9

>  <ligand_id>  (10) 
9

>  <original_smiles>  (10) 
[H]c1c([H])c(N2C([H])([H])C([H])([H])N(C(=O)N3C([H])([H])C([H])([H])C([H])([H])C([H])(n4nc(-c5c([H])c([H])c(Oc6c([H])c([H])c(F)c([H])c6F)c([H])c5[H])c(C(=O)N([H])[H])c4N([H])[H])C3([H])[H])C([H])([H])C2([H])[H])c(C([H])([H])OC([H])([H])[H])c(C([H])([H])Oc2c([H])c([H])c3c(c2[H])C([H])([H])N(C(=O)C([H])(N([H])C(=O)C([H])(N([H])C([H])([H])[H])C([H])([H])[H])C(C([H])([H])[H])(C([H])([H])[H])C([H])([H])[H])C([H])(C(=O)N([H])C2([H])c4c([H])c([H])c([H])c([H])c4C([H])([H])C([H])([H])C2([H])[H])C3([H])[H])c1[H]

>  <smiles>  (10) 
[H]c1c([H])c(N2C([H])([H])C([H])([H])N(C(=O)N3C([H])([H])C([H])([H])C([H])([H])C([H])(n4nc(-c5c([H])c([H])c(Oc6c([H])c([H])c(F)c([H])c6F)c([H])c5[H])c(C(=O)N([H])[H])c4N([H])[H])C3([H])[H])C([H])([H])C2([H])[H])c(C([H])([H])OC([H])([H])[H])c(C([H])([H])Oc2c([H])c([H])c3c(c2[H])C([H])([H])N(C(=O)C([H])(N([H])C(=O)C([H])(N([H])C([H])([H])[H])C([H])([H])[H])C(C([H])([H])[H])(C([H])([H])[H])C([H])([H])[H])C([H])(C(=O)N([H])C2([H])c4c([H])c([H])c([H])c([H])c4C([H])([H])C([H])([H])C2([H])[H])C3([H])[H])c1[H]

$$$$
10:0:0
     RDKit          3D

 96104  0  0  1  0  0  0  0  0999 V2000
  -29.0100  -22.7940   18.5710 C   0  0  0  0  0  3  0  0  0  0  0  0
  -29.0890  -24.2020   18.7320 C   0  0  0  0  0  3  0  0  0  0  0  0
  -28.6690  -22.2370   19.7730 C   0  0  0  0  0  0  0  0  0  0  0  0
  -28.7860  -24.5050   20.0290 C   0  0  0  0  0  0  0  0  0  0  0  0
  -28.5310  -23.2920   20.6940 N   0  0  0  0  0  0  0  0  0  0  0  0
  -29.0090  -22.1990   22.9090 C   0  0  0  0  0  1  0  0  0  0  0  0
  -26.6280  -22.9570   22.2720 C   0  0  0  0  0  1  0  0  0  0  0  0
  -28.1410  -23.1850   22.1110 C   0  0  0  0  0  3  0  0  0  0  0  0
  -30.0450  -26.1940   21.4500 C   0  0  0  0  0  1  0  0  0  0  0  0
  -28.7470  -25.8640   20.7030 C   0  0  0  0  0  3  0  0  0  0  0  0
  -28.5870  -26.8760   19.6970 O   0  0  0  0  0  0  0  0  0  0  0  0
  -24.6140  -31.7500   23.0500 C   0  0  0  0  0  0  0  0  0  0  0  0
  -27.3990  -27.5610   19.7640 C   0  0  0  0  0  0  0  0  0  0  0  0
  -23.4390  -30.3440   21.3860 C   0  0  0  0  0  3  0  0  0  0  0  0
  -24.9340  -28.9280   19.8800 C   0  0  0  0  0  0  0  0  0  0  0  0
  -25.9360  -30.8400   21.1420 C   0  0  0  0  0  2  0  0  0  0  0  0
  -26.0760  -29.4980   20.4560 C   0  0  0  0  0  0  0  0  0  0  0  0
  -27.3150  -28.8220   20.3950 C   0  0  0  0  0  3  0  0  0  0  0  0
  -26.2430  -26.9950   19.1880 C   0  0  0  0  0  3  0  0  0  0  0  0
  -25.0110  -27.6740   19.2440 C   0  0  0  0  0  3  0  0  0  0  0  0
  -23.6480  -29.7180   19.9800 C   0  0  0  0  0  2  0  0  0  0  0  0
  -24.6820  -30.9920   21.9180 N   0  0  0  0  0  0  0  0  0  0  0  0
  -23.5330  -31.9490   23.6240 O   0  0  0  0  0  0  0  0  0  0  0  0
  -22.8630  -29.2610   22.3270 C   0  0  0  0  0  0  0  0  0  0  0  0
  -21.5450  -29.0220   22.2280 N   0  0  0  0  0  0  0  0  0  0  0  0
  -23.5970  -28.6400   23.0990 O   0  0  0  0  0  0  0  0  0  0  0  0
  -21.0120  -29.5820   21.5770 H   0  0  0  0  0  0  0  0  0  0  0  0
  -18.2430  -27.6550   22.7660 C   0  0  0  0  0  0  0  0  0  0  0  0
  -20.7930  -28.0210   22.9830 C   0  0  0  0  0  3  0  0  0  0  0  0
  -20.9440  -26.6180   22.3520 C   0  0  0  0  0  2  0  0  0  0  0  0
  -19.8320  -26.2810   21.3540 C   0  0  0  0  0  2  0  0  0  0  0  0
  -18.4630  -26.3400   22.0390 C   0  0  0  0  0  2  0  0  0  0  0  0
  -19.3380  -28.4520   23.1950 C   0  0  0  0  0  0  0  0  0  0  0  0
  -19.0780  -29.6830   23.8360 C   0  0  0  0  0  3  0  0  0  0  0  0
  -17.7580  -30.1190   24.0520 C   0  0  0  0  0  3  0  0  0  0  0  0
  -16.6780  -29.3190   23.6380 C   0  0  0  0  0  3  0  0  0  0  0  0
  -16.9220  -28.0900   23.0010 C   0  0  0  0  0  3  0  0  0  0  0  0
  -25.8830  -32.4220   23.6630 C   0  0  0  0  0  3  0  0  0  0  0  0
  -25.5100  -33.7840   24.0680 N   0  0  0  0  0  0  0  0  0  0  0  0
  -25.7620  -34.8850   23.3490 C   0  0  0  0  0  0  0  0  0  0  0  0
  -26.4070  -34.8650   22.2970 O   0  0  0  0  0  0  0  0  0  0  0  0
  -24.9340  -33.8680   24.8920 H   0  0  0  0  0  0  0  0  0  0  0  0
  -23.9280  -36.5910   23.1210 C   0  0  0  0  0  1  0  0  0  0  0  0
  -25.2120  -36.2220   23.8810 C   0  0  0  0  0  3  0  0  0  0  0  0
  -27.3190  -37.1870   24.6940 C   0  0  0  0  0  1  0  0  0  0  0  0
  -26.1820  -37.3360   23.7890 N   0  0  0  0  0  0  0  0  0  0  0  0
  -25.7320  -38.2240   23.9930 H   0  0  0  0  0  0  0  0  0  0  0  0
  -26.4830  -31.6220   24.8840 C   0  0  1  0  0  0  0  0  0  0  0  0
  -25.4430  -31.2780   25.9760 C   0  0  0  0  0  1  0  0  0  0  0  0
  -27.1200  -30.2960   24.4070 C   0  0  0  0  0  1  0  0  0  0  0  0
  -27.6150  -32.4440   25.5430 C   0  0  0  0  0  1  0  0  0  0  0  0
  -28.4500  -20.7690   20.0710 C   0  0  0  0  0  2  0  0  0  0  0  0
  -29.7180  -20.0270   20.2490 N   0  0  0  0  0  4  0  0  0  0  0  0
  -30.3170  -20.5790   20.8390 H   0  0  0  0  0  0  0  0  0  0  0  0
  -30.1630  -19.9610   19.3490 H   0  0  0  0  0  0  0  0  0  0  0  0
  -29.5770  -18.6680   20.8380 C   0  0  0  0  0  2  0  0  0  0  0  0
  -30.9340  -17.9310   20.9540 C   0  0  0  0  0  2  0  0  0  0  0  0
  -30.9510  -16.6890   21.8830 C   0  0  0  0  0  2  0  0  0  0  0  0
  -30.9040  -14.5760   20.5410 C   0  0  0  0  0  0  0  0  0  0  0  0
  -30.6030  -12.4450   19.3300 C   0  0  0  0  0  2  0  0  0  0  0  0
  -29.6810  -12.6360   18.1110 C   0  0  0  0  0  2  0  0  0  0  0  0
  -28.2010  -12.4950   18.5170 C   0  0  0  0  0  2  0  0  0  0  0  0
  -27.8400  -13.3470   19.7640 C   0  0  0  0  0  3  0  0  0  0  0  0
  -28.8690  -13.1230   20.8920 C   0  0  0  0  0  2  0  0  0  0  0  0
  -30.2090  -13.4230   20.3540 N   0  0  0  0  0  0  0  0  0  0  0  0
  -31.9910  -14.8050   20.0020 O   0  0  0  0  0  0  0  0  0  0  0  0
  -30.3200  -15.4800   21.3420 N   0  0  0  0  0  0  0  0  0  0  0  0
  -29.4220  -15.2180   21.7220 H   0  0  0  0  0  0  0  0  0  0  0  0
  -25.4230  -13.9640   20.4050 C   0  0  0  0  0  0  0  0  0  0  0  0
  -24.3490  -13.1970   20.7700 C   0  0  0  0  0  0  0  0  0  0  0  0
  -24.8140  -11.8470   20.7790 C   0  0  0  0  0  0  0  0  0  0  0  0
  -26.4750  -13.0810   20.2170 N   0  0  0  0  0  0  0  0  0  0  0  0
  -26.1110  -11.8040   20.4970 N   0  0  0  0  0  0  0  0  0  0  0  0
  -24.0890  -10.5860   20.9810 C   0  0  0  0  0  0  0  0  0  0  0  0
  -24.4980   -9.6460   21.9530 C   0  0  0  0  0  3  0  0  0  0  0  0
  -23.7730   -8.4490   22.1410 C   0  0  0  0  0  3  0  0  0  0  0  0
  -22.6240   -8.1850   21.3590 C   0  0  0  0  0  0  0  0  0  0  0  0
  -22.2340   -9.1140   20.3780 C   0  0  0  0  0  3  0  0  0  0  0  0
  -22.9610  -10.3010   20.1870 C   0  0  0  0  0  3  0  0  0  0  0  0
  -21.8740   -7.0390   21.4540 O   0  0  0  0  0  0  0  0  0  0  0  0
  -21.7820   -6.3340   22.6270 C   0  0  0  0  0  0  0  0  0  0  0  0
  -21.3070   -6.9260   23.8170 C   0  0  0  0  0  3  0  0  0  0  0  0
  -21.1640   -6.1470   24.9830 C   0  0  0  0  0  3  0  0  0  0  0  0
  -21.4860   -4.7770   24.9590 C   0  0  0  0  0  0  0  0  0  0  0  0
  -21.9530   -4.1840   23.7730 C   0  0  0  0  0  3  0  0  0  0  0  0
  -22.0980   -4.9600   22.6090 C   0  0  0  0  0  0  0  0  0  0  0  0
  -22.5290   -4.3800   21.4640 F   0  0  0  0  0  0  0  0  0  0  0  0
  -21.3400   -4.0260   26.0760 F   0  0  0  0  0  0  0  0  0  0  0  0
  -22.9450  -13.6750   21.0020 C   0  0  0  0  0  0  0  0  0  0  0  0
  -22.2030  -13.0020   21.8750 N   0  0  0  0  0  0  0  0  0  0  0  0
  -22.5130  -14.6830   20.4440 O   0  0  0  0  0  0  0  0  0  0  0  0
  -22.5650  -12.1880   22.3500 H   0  0  0  0  0  0  0  0  0  0  0  0
  -21.2610  -13.3040   22.0710 H   0  0  0  0  0  0  0  0  0  0  0  0
  -25.5890  -15.3300   20.2010 N   0  0  0  0  0  0  0  0  0  0  0  0
  -24.8170  -15.9840   20.2720 H   0  0  0  0  0  0  0  0  0  0  0  0
  -26.4460  -15.7610   19.8760 H   0  0  0  0  0  0  0  0  0  0  0  0
  1  2  1  0
  1  3  2  0
  2  4  2  0
  3 52  1  0
  3  5  1  0
  4  5  1  0
  4 10  1  0
  5  8  1  0
  8  7  1  0
  8  6  1  0
 10  9  1  0
 11 13  1  0
 11 10  1  0
 12 23  2  0
 13 18  1  0
 14 22  1  0
 14 24  1  0
 15 21  1  0
 15 17  1  0
 16 22  1  0
 17 16  1  0
 18 17  2  0
 19 20  1  0
 19 13  2  0
 20 15  2  0
 21 14  1  0
 22 12  1  0
 24 26  2  0
 25 24  1  0
 27 25  1  0
 28 37  2  0
 28 33  1  0
 29 25  1  0
 29 33  1  0
 30 29  1  0
 31 32  1  0
 31 30  1  0
 32 28  1  0
 33 34  2  0
 34 35  1  0
 36 35  2  0
 37 36  1  0
 38 12  1  0
 38 39  1  0
 38 48  1  0
 39 42  1  0
 40 44  1  0
 40 39  1  0
 41 40  2  0
 44 43  1  0
 46 44  1  0
 46 47  1  0
 46 45  1  0
 48 51  1  1
 48 49  1  0
 50 48  1  0
 52 53  1  0
 53 56  1  0
 53 54  1  0
 55 53  1  0
 56 57  1  0
 57 58  1  0
 59 67  1  0
 60 65  1  0
 61 62  1  0
 61 60  1  0
 63 62  1  0
 63 72  1  0
 63 64  1  0
 65 59  1  0
 65 64  1  0
 66 59  2  0
 67 68  1  0
 67 58  1  0
 69 70  2  0
 70 71  1  0
 70 89  1  0
 71 74  1  0
 72 69  1  0
 72 73  1  0
 73 71  2  0
 74 75  1  0
 75 76  2  0
 77 80  1  0
 77 76  1  0
 78 77  2  0
 79 78  1  0
 79 74  2  0
 80 81  1  0
 81 82  1  0
 82 83  2  0
 84 83  1  0
 84 88  1  0
 85 84  2  0
 86 81  2  0
 86 85  1  0
 87 86  1  0
 89 90  1  0
 90 93  1  0
 90 92  1  0
 91 89  2  0
 94 95  1  0
 94 69  1  0
 96 94  1  0
M  ISO  4  10 101  11 101  59 100  67 100
M  END
>  <TORSDO>  (11) 
F 23

>  <SCORE>  (11) 
-11.652

>  <name>  (11) 
10

>  <ligand_id>  (11) 
10

>  <original_smiles>  (11) 
[H]c1c([H])c([H])c2c(c1[H])C([H])([H])C([H])([H])C([H])([H])C2([H])N([H])C(=O)C1([H])N(C(=O)C([H])(N([H])C(=O)C([H])(N([H])C([H])([H])[H])C([H])([H])[H])C(C([H])([H])[H])(C([H])([H])[H])C([H])([H])[H])C([H])([H])c2c([H])c(OC([H])(c3c([H])c([H])c(C([H])([H])[N+]([H])([H])C([H])([H])C([H])([H])C([H])([H])N([H])C(=O)N4C([H])([H])C([H])([H])C([H])([H])C([H])(n5nc(-c6c([H])c([H])c(Oc7c([H])c([H])c(F)c([H])c7F)c([H])c6[H])c(C(=O)N([H])[H])c5N([H])[H])C4([H])[H])n3C([H])(C([H])([H])[H])C([H])([H])[H])C([H])([H])[H])c([H])c([H])c2C1([H])[H]

>  <smiles>  (11) 
[H]c1c([H])c([H])c2c(c1[H])C([H])([H])C([H])([H])C([H])([H])C2([H])N([H])C(=O)C1([H])N(C(=O)C([H])(N([H])C(=O)C([H])(N([H])C([H])([H])[H])C([H])([H])[H])C(C([H])([H])[H])(C([H])([H])[H])C([H])([H])[H])C([H])([H])c2c([H])c(OC([H])(c3c([H])c([H])c(C([H])([H])[N+]([H])([H])C([H])([H])C([H])([H])C([H])([H])N([H])C(=O)N4C([H])([H])C([H])([H])C([H])([H])C([H])(n5nc(-c6c([H])c([H])c(Oc7c([H])c([H])c(F)c([H])c7F)c([H])c6[H])c(C(=O)N([H])[H])c5N([H])[H])C4([H])[H])n3C([H])(C([H])([H])[H])C([H])([H])[H])C([H])([H])[H])c([H])c([H])c2C1([H])[H]

$$$$
11:0:0
     RDKit          3D

100109  0  0  1  0  0  0  0  0999 V2000
  -29.5040  -19.9860   19.6790 C   0  0  0  0  0  3  0  0  0  0  0  0
  -29.1370  -21.3590   19.7930 C   0  0  0  0  0  3  0  0  0  0  0  0
  -30.6060  -20.1130   21.8110 C   0  0  0  0  0  0  0  0  0  0  0  0
  -30.2540  -21.4620   21.9150 C   0  0  0  0  0  0  0  0  0  0  0  0
  -30.2750  -19.3350   20.6770 C   0  0  0  0  0  3  0  0  0  0  0  0
  -29.5230  -22.1400   20.9200 C   0  0  0  0  0  0  0  0  0  0  0  0
  -31.3810  -19.6600   23.0230 C   0  0  0  0  0  3  0  0  0  0  0  0
  -30.7630  -22.0640   23.1990 C   0  0  0  0  0  3  0  0  0  0  0  0
  -31.6300  -20.9520   23.8290 C   0  0  0  0  0  3  0  0  0  0  0  0
  -30.8110  -17.8840   20.5240 C   0  0  0  0  0  3  0  0  0  0  0  0
  -32.7940  -19.1380   19.3160 C   0  0  0  0  0  1  0  0  0  0  0  0
  -32.1030  -17.7940   19.6420 C   0  0  0  0  0  3  0  0  0  0  0  0
  -33.1320  -16.7890   20.2200 C   0  0  0  0  0  2  0  0  0  0  0  0
  -33.8260  -16.0420   19.1580 N   0  0  0  0  0  4  0  0  0  0  0  0
  -34.3350  -16.6570   18.5490 H   0  0  0  0  0  0  0  0  0  0  0  0
  -33.1340  -15.5310   18.6230 H   0  0  0  0  0  0  0  0  0  0  0  0
  -34.4650  -15.3810   19.5600 H   0  0  0  0  0  0  0  0  0  0  0  0
  -29.7400  -16.8500   20.0560 C   0  0  0  0  0  2  0  0  0  0  0  0
  -30.6290  -14.4580   20.0460 C   0  0  0  0  0  0  0  0  0  0  0  0
  -30.3160  -12.2630   18.9760 C   0  0  0  0  0  2  0  0  0  0  0  0
  -29.3140  -12.4580   17.8170 C   0  0  0  0  0  2  0  0  0  0  0  0
  -27.8570  -12.3480   18.3150 C   0  0  0  0  0  2  0  0  0  0  0  0
  -27.5910  -13.2010   19.5850 C   0  0  0  0  0  3  0  0  0  0  0  0
  -28.6950  -12.9600   20.6400 C   0  0  0  0  0  2  0  0  0  0  0  0
  -29.9960  -13.2550   20.0120 N   0  0  0  0  0  0  0  0  0  0  0  0
  -31.7210  -14.6620   19.5030 O   0  0  0  0  0  0  0  0  0  0  0  0
  -29.8820  -15.4620   20.5510 N   0  0  0  0  0  0  0  0  0  0  0  0
  -29.0720  -15.1260   21.0520 H   0  0  0  0  0  0  0  0  0  0  0  0
  -25.2530  -13.8630   20.4410 C   0  0  0  0  0  0  0  0  0  0  0  0
  -24.1850  -13.1120   20.8570 C   0  0  0  0  0  0  0  0  0  0  0  0
  -24.6050  -11.7490   20.7690 C   0  0  0  0  0  0  0  0  0  0  0  0
  -26.2580  -12.9570   20.1320 N   0  0  0  0  0  0  0  0  0  0  0  0
  -25.8720  -11.6810   20.3840 N   0  0  0  0  0  0  0  0  0  0  0  0
  -23.8550  -10.5040   20.9730 C   0  0  0  0  0  0  0  0  0  0  0  0
  -24.3010   -9.5130   21.8770 C   0  0  0  0  0  3  0  0  0  0  0  0
  -23.5520   -8.3320   22.0700 C   0  0  0  0  0  3  0  0  0  0  0  0
  -22.3450   -8.1330   21.3600 C   0  0  0  0  0  0  0  0  0  0  0  0
  -21.9190   -9.1110   20.4440 C   0  0  0  0  0  3  0  0  0  0  0  0
  -22.6670  -10.2830   20.2490 C   0  0  0  0  0  3  0  0  0  0  0  0
  -21.5690   -7.0030   21.4620 O   0  0  0  0  0  0  0  0  0  0  0  0
  -21.5340   -6.2550   22.6120 C   0  0  0  0  0  0  0  0  0  0  0  0
  -21.1530   -6.8120   23.8520 C   0  0  0  0  0  3  0  0  0  0  0  0
  -21.0640   -5.9910   24.9950 C   0  0  0  0  0  3  0  0  0  0  0  0
  -21.3450   -4.6150   24.8980 C   0  0  0  0  0  0  0  0  0  0  0  0
  -21.7190   -4.0580   23.6620 C   0  0  0  0  0  3  0  0  0  0  0  0
  -21.8110   -4.8760   22.5220 C   0  0  0  0  0  0  0  0  0  0  0  0
  -22.1500   -4.3290   21.3300 F   0  0  0  0  0  0  0  0  0  0  0  0
  -21.2530   -3.8260   25.9940 F   0  0  0  0  0  0  0  0  0  0  0  0
  -22.8210  -13.6210   21.2220 C   0  0  0  0  0  0  0  0  0  0  0  0
  -22.1260  -12.9270   22.1170 N   0  0  0  0  0  0  0  0  0  0  0  0
  -22.3790  -14.6680   20.7500 O   0  0  0  0  0  0  0  0  0  0  0  0
  -22.4960  -12.0800   22.5210 H   0  0  0  0  0  0  0  0  0  0  0  0
  -21.2130  -13.2490   22.4010 H   0  0  0  0  0  0  0  0  0  0  0  0
  -25.4460  -15.2330   20.2840 N   0  0  0  0  0  0  0  0  0  0  0  0
  -24.6980  -15.9000   20.4430 H   0  0  0  0  0  0  0  0  0  0  0  0
  -26.2790  -15.6580   19.8960 H   0  0  0  0  0  0  0  0  0  0  0  0
  -29.3010  -23.5040   21.1000 O   0  0  0  0  0  0  0  0  0  0  0  0
  -28.2670  -24.2060   20.3880 C   0  0  0  0  0  2  0  0  0  0  0  0
  -28.7580  -25.5540   19.7770 C   0  0  0  0  0  2  0  0  0  0  0  0
  -28.5220  -26.7500   20.5480 O   0  0  0  0  0  0  0  0  0  0  0  0
  -24.5310  -31.9590   23.3260 C   0  0  0  0  0  0  0  0  0  0  0  0
  -27.3270  -27.4460   20.4520 C   0  0  0  0  0  0  0  0  0  0  0  0
  -23.3960  -30.5030   21.6790 C   0  0  0  0  0  3  0  0  0  0  0  0
  -24.9130  -28.9410   20.3440 C   0  0  0  0  0  0  0  0  0  0  0  0
  -25.9250  -30.8730   21.5660 C   0  0  0  0  0  2  0  0  0  0  0  0
  -26.0450  -29.4850   20.9650 C   0  0  0  0  0  0  0  0  0  0  0  0
  -27.2460  -28.7410   21.0230 C   0  0  0  0  0  3  0  0  0  0  0  0
  -26.1740  -26.9200   19.8250 C   0  0  0  0  0  3  0  0  0  0  0  0
  -24.9750  -27.6580   19.7720 C   0  0  0  0  0  3  0  0  0  0  0  0
  -23.6600  -29.7890   20.3260 C   0  0  0  0  0  2  0  0  0  0  0  0
  -24.6330  -31.1290   22.2480 N   0  0  0  0  0  0  0  0  0  0  0  0
  -23.4290  -32.2340   23.8210 O   0  0  0  0  0  0  0  0  0  0  0  0
  -22.7220  -29.5000   22.6450 C   0  0  0  0  0  0  0  0  0  0  0  0
  -21.4100  -29.2800   22.4570 N   0  0  0  0  0  0  0  0  0  0  0  0
  -23.3780  -28.9220   23.5160 O   0  0  0  0  0  0  0  0  0  0  0  0
  -20.9430  -29.7980   21.7270 H   0  0  0  0  0  0  0  0  0  0  0  0
  -18.0490  -27.9980   22.8030 C   0  0  0  0  0  0  0  0  0  0  0  0
  -20.5760  -28.3500   23.2180 C   0  0  0  0  0  3  0  0  0  0  0  0
  -20.7580  -26.9000   22.7130 C   0  0  0  0  0  2  0  0  0  0  0  0
  -19.7300  -26.5000   21.6490 C   0  0  0  0  0  2  0  0  0  0  0  0
  -18.3070  -26.6270   22.2010 C   0  0  0  0  0  2  0  0  0  0  0  0
  -19.1160  -28.8130   23.2650 C   0  0  0  0  0  0  0  0  0  0  0  0
  -18.8240  -30.0950   23.7830 C   0  0  0  0  0  3  0  0  0  0  0  0
  -17.4970  -30.5610   23.8460 C   0  0  0  0  0  3  0  0  0  0  0  0
  -16.4430  -29.7420   23.4040 C   0  0  0  0  0  3  0  0  0  0  0  0
  -16.7200  -28.4640   22.8870 C   0  0  0  0  0  3  0  0  0  0  0  0
  -25.7900  -32.6180   23.9720 C   0  0  0  0  0  3  0  0  0  0  0  0
  -25.4530  -34.0160   24.2730 N   0  0  0  0  0  0  0  0  0  0  0  0
  -25.7860  -35.0610   23.5030 C   0  0  0  0  0  0  0  0  0  0  0  0
  -26.4800  -34.9510   22.4880 O   0  0  0  0  0  0  0  0  0  0  0  0
  -24.8390  -34.1750   25.0580 H   0  0  0  0  0  0  0  0  0  0  0  0
  -24.0310  -36.8130   23.0870 C   0  0  0  0  0  1  0  0  0  0  0  0
  -25.2670  -36.4480   23.9260 C   0  0  0  0  0  3  0  0  0  0  0  0
  -27.3700  -37.3850   24.7740 C   0  0  0  0  0  1  0  0  0  0  0  0
  -26.2810  -37.5180   23.8100 N   0  0  0  0  0  0  0  0  0  0  0  0
  -25.8560  -38.4330   23.9360 H   0  0  0  0  0  0  0  0  0  0  0  0
  -26.2840  -31.8720   25.2720 C   0  0  1  0  0  0  0  0  0  0  0  0
  -25.1640  -31.6130   26.3060 C   0  0  0  0  0  1  0  0  0  0  0  0
  -26.9150  -30.5080   24.9100 C   0  0  0  0  0  1  0  0  0  0  0  0
  -27.3900  -32.7020   25.9650 C   0  0  0  0  0  1  0  0  0  0  0  0
  1  2  2  0
  1  5  1  0
  2  6  1  0
  3  4  1  0
  3  7  2  0
  4  8  1  0
  5 10  1  0
  5  3  1  0
  6 57  1  0
  6  4  2  0
  7  9  1  0
  8  9  2  0
 10 18  1  0
 12 11  1  0
 12 13  1  0
 12 10  1  0
 14 17  1  0
 14 13  1  0
 15 14  1  0
 16 14  1  0
 18 27  1  0
 19 27  1  0
 20 25  1  0
 21 22  1  0
 21 20  1  0
 23 22  1  0
 23 32  1  0
 23 24  1  0
 25 19  1  0
 25 24  1  0
 26 19  2  0
 27 28  1  0
 29 30  2  0
 30 49  1  0
 31 30  1  0
 31 34  1  0
 32 33  1  0
 32 29  1  0
 33 31  2  0
 34 35  1  0
 35 36  2  0
 37 40  1  0
 37 36  1  0
 38 37  2  0
 39 38  1  0
 39 34  2  0
 40 41  1  0
 41 42  1  0
 42 43  2  0
 44 43  1  0
 44 48  1  0
 45 44  2  0
 46 41  2  0
 46 45  1  0
 47 46  1  0
 49 50  1  0
 50 53  1  0
 50 52  1  0
 51 49  2  0
 54 29  1  0
 54 55  1  0
 56 54  1  0
 58 57  1  0
 59 58  1  0
 59 60  1  0
 61 72  2  0
 62 60  1  0
 62 67  1  0
 63 71  1  0
 63 73  1  0
 64 66  1  0
 65 71  1  0
 66 67  2  0
 66 65  1  0
 68 62  2  0
 69 68  1  0
 69 64  2  0
 70 64  1  0
 70 63  1  0
 71 61  1  0
 73 75  2  0
 74 73  1  0
 76 74  1  0
 77 86  2  0
 77 82  1  0
 78 74  1  0
 78 82  1  0
 79 78  1  0
 80 81  1  0
 80 79  1  0
 81 77  1  0
 82 83  2  0
 83 84  1  0
 85 84  2  0
 86 85  1  0
 87 61  1  0
 87 88  1  0
 87 97  1  0
 88 91  1  0
 89 93  1  0
 89 88  1  0
 90 89  2  0
 93 92  1  0
 95 93  1  0
 95 96  1  0
 95 94  1  0
 97100  1  1
 97 98  1  0
 99 97  1  0
M  ISO  4  19 100  27 100  59 101  60 101
M  END
>  <TORSDO>  (12) 
F 24

>  <SCORE>  (12) 
-12.784

>  <name>  (12) 
11

>  <ligand_id>  (12) 
11

>  <original_smiles>  (12) 
[H]c1c([H])c([H])c2c(c1[H])C([H])([H])C([H])([H])C([H])([H])C2([H])N([H])C(=O)C1([H])N(C(=O)C([H])(N([H])C(=O)C([H])(N([H])C([H])([H])[H])C([H])([H])[H])C(C([H])([H])[H])(C([H])([H])[H])C([H])([H])[H])C([H])([H])c2c([H])c(OC([H])([H])C([H])([H])Oc3c([H])c([H])c(C([H])(C([H])([H])N([H])C(=O)N4C([H])([H])C([H])([H])C([H])([H])C([H])(n5nc(-c6c([H])c([H])c(Oc7c([H])c([H])c(F)c([H])c7F)c([H])c6[H])c(C(=O)N([H])[H])c5N([H])[H])C4([H])[H])C([H])(C([H])([H])[H])C([H])([H])[N+]([H])([H])[H])c4c3C([H])([H])C([H])([H])C4([H])[H])c([H])c([H])c2C1([H])[H]

>  <smiles>  (12) 
[H]c1c([H])c([H])c2c(c1[H])C([H])([H])C([H])([H])C([H])([H])C2([H])N([H])C(=O)C1([H])N(C(=O)C([H])(N([H])C(=O)C([H])(N([H])C([H])([H])[H])C([H])([H])[H])C(C([H])([H])[H])(C([H])([H])[H])C([H])([H])[H])C([H])([H])c2c([H])c(OC([H])([H])C([H])([H])Oc3c([H])c([H])c(C([H])(C([H])([H])N([H])C(=O)N4C([H])([H])C([H])([H])C([H])([H])C([H])(n5nc(-c6c([H])c([H])c(Oc7c([H])c([H])c(F)c([H])c7F)c([H])c6[H])c(C(=O)N([H])[H])c5N([H])[H])C4([H])[H])C([H])(C([H])([H])[H])C([H])([H])[N+]([H])([H])[H])c4c3C([H])([H])C([H])([H])C4([H])[H])c([H])c([H])c2C1([H])[H]

$$$$
12:0:0
     RDKit          3D

 91 99  0  0  1  0  0  0  0  0999 V2000
  -28.5310  -21.6020   20.7960 C   0  0  0  0  0  3  0  0  0  0  0  0
  -30.4670  -22.1050   19.5070 C   0  0  0  0  0  3  0  0  0  0  0  0
  -28.1330  -22.9690   20.6300 C   0  0  0  0  0  0  0  0  0  0  0  0
  -29.7270  -21.1150   20.2060 C   0  0  0  0  0  0  0  0  0  0  0  0
  -28.9430  -23.8730   19.8800 C   0  0  0  0  0  0  0  0  0  0  0  0
  -26.8080  -23.4280   21.2130 C   0  0  0  0  0  1  0  0  0  0  0  0
  -30.1010  -23.4070   19.3470 N   0  0  0  0  0  0  0  0  0  0  0  0
  -30.2380  -19.7700   20.2780 N   0  0  0  0  0  0  0  0  0  0  0  0
  -31.1770  -19.6480   19.9040 H   0  0  0  0  0  0  0  0  0  0  0  0
  -29.5300  -18.4900   20.5870 C   0  0  0  0  0  2  0  0  0  0  0  0
  -30.4770  -17.2100   20.4620 C   0  0  0  0  0  2  0  0  0  0  0  0
  -30.6350  -14.6680   20.3860 C   0  0  0  0  0  0  0  0  0  0  0  0
  -30.3460  -12.4320   19.3420 C   0  0  0  0  0  2  0  0  0  0  0  0
  -29.4160  -12.5920   18.1220 C   0  0  0  0  0  2  0  0  0  0  0  0
  -27.9460  -12.4280   18.5580 C   0  0  0  0  0  2  0  0  0  0  0  0
  -27.5950  -13.2890   19.8010 C   0  0  0  0  0  3  0  0  0  0  0  0
  -28.6600  -13.1560   20.9140 C   0  0  0  0  0  2  0  0  0  0  0  0
  -29.9630  -13.4750   20.3190 N   0  0  0  0  0  0  0  0  0  0  0  0
  -31.8100  -14.7480   20.0160 O   0  0  0  0  0  0  0  0  0  0  0  0
  -29.9290  -15.8170   20.6460 N   0  0  0  0  0  0  0  0  0  0  0  0
  -28.9590  -15.7240   20.9080 H   0  0  0  0  0  0  0  0  0  0  0  0
  -25.2070  -13.8790   20.5280 C   0  0  0  0  0  0  0  0  0  0  0  0
  -24.1420  -13.1030   20.8970 C   0  0  0  0  0  0  0  0  0  0  0  0
  -24.6060  -11.7530   20.8630 C   0  0  0  0  0  0  0  0  0  0  0  0
  -26.2510  -13.0030   20.2920 N   0  0  0  0  0  0  0  0  0  0  0  0
  -25.8960  -11.7170   20.5550 N   0  0  0  0  0  0  0  0  0  0  0  0
  -23.8810  -10.4880   21.0510 C   0  0  0  0  0  0  0  0  0  0  0  0
  -24.3160   -9.5180   21.9790 C   0  0  0  0  0  3  0  0  0  0  0  0
  -23.5900   -8.3200   22.1560 C   0  0  0  0  0  3  0  0  0  0  0  0
  -22.4140   -8.0850   21.4030 C   0  0  0  0  0  0  0  0  0  0  0  0
  -21.9980   -9.0460   20.4650 C   0  0  0  0  0  3  0  0  0  0  0  0
  -22.7260  -10.2350   20.2860 C   0  0  0  0  0  3  0  0  0  0  0  0
  -21.6590   -6.9410   21.4890 O   0  0  0  0  0  0  0  0  0  0  0  0
  -21.6120   -6.1940   22.6390 C   0  0  0  0  0  0  0  0  0  0  0  0
  -21.1810   -6.7420   23.8670 C   0  0  0  0  0  3  0  0  0  0  0  0
  -21.0830   -5.9210   25.0080 C   0  0  0  0  0  3  0  0  0  0  0  0
  -21.4050   -4.5530   24.9240 C   0  0  0  0  0  0  0  0  0  0  0  0
  -21.8310   -4.0050   23.7010 C   0  0  0  0  0  3  0  0  0  0  0  0
  -21.9310   -4.8230   22.5610 C   0  0  0  0  0  0  0  0  0  0  0  0
  -22.3220   -4.2850   21.3810 F   0  0  0  0  0  0  0  0  0  0  0  0
  -21.3040   -3.7640   26.0180 F   0  0  0  0  0  0  0  0  0  0  0  0
  -22.7460  -13.5790   21.1740 C   0  0  0  0  0  0  0  0  0  0  0  0
  -22.0210  -12.8770   22.0380 N   0  0  0  0  0  0  0  0  0  0  0  0
  -22.3090  -14.6080   20.6620 O   0  0  0  0  0  0  0  0  0  0  0  0
  -22.3890  -12.0420   22.4690 H   0  0  0  0  0  0  0  0  0  0  0  0
  -21.0860  -13.1810   22.2750 H   0  0  0  0  0  0  0  0  0  0  0  0
  -25.3650  -15.2500   20.3530 N   0  0  0  0  0  0  0  0  0  0  0  0
  -24.5880  -15.8950   20.4460 H   0  0  0  0  0  0  0  0  0  0  0  0
  -26.2050  -15.6940   20.0060 H   0  0  0  0  0  0  0  0  0  0  0  0
  -28.4760  -25.2860   19.3430 C   0  0  0  0  0  2  0  0  0  0  0  0
  -28.3530  -26.4820   20.2140 O   0  0  0  0  0  0  0  0  0  0  0  0
  -24.6280  -31.8980   23.2290 C   0  0  0  0  0  0  0  0  0  0  0  0
  -27.2330  -27.3310   20.1450 C   0  0  0  0  0  0  0  0  0  0  0  0
  -23.4210  -30.4980   21.5970 C   0  0  0  0  0  3  0  0  0  0  0  0
  -24.8720  -28.9650   20.1580 C   0  0  0  0  0  0  0  0  0  0  0  0
  -25.9650  -30.8130   21.4110 C   0  0  0  0  0  2  0  0  0  0  0  0
  -26.0440  -29.4380   20.7580 C   0  0  0  0  0  0  0  0  0  0  0  0
  -27.2240  -28.6320   20.7520 C   0  0  0  0  0  3  0  0  0  0  0  0
  -26.0240  -26.9180   19.5330 C   0  0  0  0  0  3  0  0  0  0  0  0
  -24.8670  -27.7120   19.5370 C   0  0  0  0  0  3  0  0  0  0  0  0
  -23.6340  -29.8370   20.2130 C   0  0  0  0  0  2  0  0  0  0  0  0
  -24.6910  -31.0840   22.1360 N   0  0  0  0  0  0  0  0  0  0  0  0
  -23.5460  -32.1770   23.7630 O   0  0  0  0  0  0  0  0  0  0  0  0
  -22.7640  -29.4740   22.5530 C   0  0  0  0  0  0  0  0  0  0  0  0
  -21.4360  -29.3030   22.4370 N   0  0  0  0  0  0  0  0  0  0  0  0
  -23.4470  -28.8410   23.3610 O   0  0  0  0  0  0  0  0  0  0  0  0
  -20.9430  -29.8730   21.7630 H   0  0  0  0  0  0  0  0  0  0  0  0
  -18.0530  -28.1340   22.9590 C   0  0  0  0  0  0  0  0  0  0  0  0
  -20.6150  -28.3700   23.2100 C   0  0  0  0  0  3  0  0  0  0  0  0
  -20.7020  -26.9390   22.6270 C   0  0  0  0  0  2  0  0  0  0  0  0
  -19.5870  -26.6310   21.6230 C   0  0  0  0  0  2  0  0  0  0  0  0
  -18.2110  -26.7860   22.2780 C   0  0  0  0  0  2  0  0  0  0  0  0
  -19.1820  -28.8850   23.3810 C   0  0  0  0  0  0  0  0  0  0  0  0
  -18.9790  -30.1490   23.9760 C   0  0  0  0  0  3  0  0  0  0  0  0
  -17.6790  -30.6600   24.1580 C   0  0  0  0  0  3  0  0  0  0  0  0
  -16.5640  -29.9050   23.7520 C   0  0  0  0  0  3  0  0  0  0  0  0
  -16.7530  -28.6470   23.1560 C   0  0  0  0  0  3  0  0  0  0  0  0
  -25.9120  -32.5310   23.8460 C   0  0  0  0  0  3  0  0  0  0  0  0
  -26.4330  -31.7610   25.1200 C   0  0  1  0  0  0  0  0  0  0  0  0
  -25.3450  -31.5170   26.1910 C   0  0  0  0  0  1  0  0  0  0  0  0
  -27.0200  -30.3840   24.7260 C   0  0  0  0  0  1  0  0  0  0  0  0
  -27.5850  -32.5570   25.7790 C   0  0  0  0  0  1  0  0  0  0  0  0
  -25.6020  -33.9310   24.1770 N   0  0  0  0  0  0  0  0  0  0  0  0
  -25.9340  -34.9810   23.4170 C   0  0  0  0  0  0  0  0  0  0  0  0
  -26.6010  -34.8780   22.3840 O   0  0  0  0  0  0  0  0  0  0  0  0
  -25.0080  -34.0860   24.9800 H   0  0  0  0  0  0  0  0  0  0  0  0
  -24.2110  -36.7790   23.0630 C   0  0  0  0  0  1  0  0  0  0  0  0
  -25.4490  -36.3700   23.8770 C   0  0  0  0  0  3  0  0  0  0  0  0
  -27.5800  -37.2480   24.7200 C   0  0  0  0  0  1  0  0  0  0  0  0
  -26.4830  -37.4220   23.7710 N   0  0  0  0  0  0  0  0  0  0  0  0
  -26.0760  -38.3410   23.9260 H   0  0  0  0  0  0  0  0  0  0  0  0
  2  4  1  0
  3  1  1  0
  3  6  1  0
  4  8  1  0
  4  1  2  0
  5  3  2  0
  7  2  2  0
  7  5  1  0
  8 10  1  0
  9  8  1  0
 11 10  1  0
 11 20  1  0
 12 20  1  0
 13 18  1  0
 14 15  1  0
 14 13  1  0
 16 15  1  0
 16 25  1  0
 16 17  1  0
 18 12  1  0
 18 17  1  0
 19 12  2  0
 20 21  1  0
 22 23  2  0
 23 42  1  0
 24 23  1  0
 24 27  1  0
 25 22  1  0
 25 26  1  0
 26 24  2  0
 27 28  1  0
 28 29  2  0
 30 33  1  0
 30 29  1  0
 31 30  2  0
 32 31  1  0
 32 27  2  0
 33 34  1  0
 34 35  1  0
 35 36  2  0
 37 36  1  0
 37 41  1  0
 38 37  2  0
 39 34  2  0
 39 38  1  0
 40 39  1  0
 42 43  1  0
 43 46  1  0
 43 45  1  0
 44 42  2  0
 47 48  1  0
 47 22  1  0
 49 47  1  0
 50  5  1  0
 50 51  1  0
 52 63  2  0
 53 51  1  0
 53 58  1  0
 54 62  1  0
 54 64  1  0
 55 61  1  0
 55 57  1  0
 56 62  1  0
 57 56  1  0
 58 57  2  0
 59 60  1  0
 59 53  2  0
 60 55  2  0
 61 54  1  0
 62 52  1  0
 64 66  2  0
 65 64  1  0
 67 65  1  0
 68 77  2  0
 68 73  1  0
 69 65  1  0
 69 73  1  0
 70 69  1  0
 71 72  1  0
 71 70  1  0
 72 68  1  0
 73 74  2  0
 74 75  1  0
 76 75  2  0
 77 76  1  0
 78 52  1  0
 78 83  1  0
 78 79  1  0
 79 82  1  1
 79 80  1  0
 81 79  1  0
 83 86  1  0
 84 88  1  0
 84 83  1  0
 85 84  2  0
 88 87  1  0
 90 88  1  0
 90 91  1  0
 90 89  1  0
M  ISO  4  12 100  20 100  50 101  51 101
M  END
>  <TORSDO>  (13) 
F 20

>  <SCORE>  (13) 
-13.899

>  <name>  (13) 
12

>  <ligand_id>  (13) 
12

>  <original_smiles>  (13) 
[H]c1nc(C([H])([H])Oc2c([H])c([H])c3c(c2[H])C([H])([H])N(C(=O)C([H])(N([H])C(=O)C([H])(N([H])C([H])([H])[H])C([H])([H])[H])C(C([H])([H])[H])(C([H])([H])[H])C([H])([H])[H])C([H])(C(=O)N([H])C2([H])c4c([H])c([H])c([H])c([H])c4C([H])([H])C([H])([H])C2([H])[H])C3([H])[H])c(C([H])([H])[H])c([H])c1N([H])C([H])([H])C([H])([H])N([H])C(=O)N1C([H])([H])C([H])([H])C([H])([H])C([H])(n2nc(-c3c([H])c([H])c(Oc4c([H])c([H])c(F)c([H])c4F)c([H])c3[H])c(C(=O)N([H])[H])c2N([H])[H])C1([H])[H]

>  <smiles>  (13) 
[H]c1nc(C([H])([H])Oc2c([H])c([H])c3c(c2[H])C([H])([H])N(C(=O)C([H])(N([H])C(=O)C([H])(N([H])C([H])([H])[H])C([H])([H])[H])C(C([H])([H])[H])(C([H])([H])[H])C([H])([H])[H])C([H])(C(=O)N([H])C2([H])c4c([H])c([H])c([H])c([H])c4C([H])([H])C([H])([H])C2([H])[H])C3([H])[H])c(C([H])([H])[H])c([H])c1N([H])C([H])([H])C([H])([H])N([H])C(=O)N1C([H])([H])C([H])([H])C([H])([H])C([H])(n2nc(-c3c([H])c([H])c(Oc4c([H])c([H])c(F)c([H])c4F)c([H])c3[H])c(C(=O)N([H])[H])c2N([H])[H])C1([H])[H]

$$$$
13:0:0
     RDKit          3D

 96105  0  0  1  0  0  0  0  0999 V2000
  -30.5800  -22.1280   20.9260 C   0  0  0  0  0  2  0  0  0  0  0  0
  -31.2180  -19.8650   19.6970 C   0  0  0  0  0  2  0  0  0  0  0  0
  -28.9090  -19.3700   19.0620 C   0  0  0  0  0  2  0  0  0  0  0  0
  -30.3440  -18.8580   18.9110 C   0  0  0  0  0  3  0  0  0  0  0  0
  -30.2620  -20.6200   20.6440 C   0  0  0  0  0  3  0  0  0  0  0  0
  -28.9360  -20.4700   20.0340 N   0  0  0  0  0  4  0  0  0  0  0  0
  -28.1910  -20.3840   20.7110 H   0  0  0  0  0  0  0  0  0  0  0  0
  -28.7750  -21.3250   19.5200 H   0  0  0  0  0  0  0  0  0  0  0  0
  -30.4660  -17.3490   19.2640 C   0  0  0  0  0  2  0  0  0  0  0  0
  -30.3740  -16.9310   20.7540 C   0  0  0  0  0  2  0  0  0  0  0  0
  -30.7250  -14.4590   20.5160 C   0  0  0  0  0  0  0  0  0  0  0  0
  -30.4090  -12.3090   19.3730 C   0  0  0  0  0  2  0  0  0  0  0  0
  -29.4980  -12.5540   18.1490 C   0  0  0  0  0  2  0  0  0  0  0  0
  -28.0140  -12.4330   18.5550 C   0  0  0  0  0  2  0  0  0  0  0  0
  -27.6650  -13.2700   19.8170 C   0  0  0  0  0  3  0  0  0  0  0  0
  -28.7010  -13.0160   20.9390 C   0  0  0  0  0  2  0  0  0  0  0  0
  -30.0360  -13.2950   20.3960 N   0  0  0  0  0  0  0  0  0  0  0  0
  -31.8780  -14.6000   20.1050 O   0  0  0  0  0  0  0  0  0  0  0  0
  -29.9900  -15.5150   20.9000 N   0  0  0  0  0  0  0  0  0  0  0  0
  -29.0340  -15.3280   21.1750 H   0  0  0  0  0  0  0  0  0  0  0  0
  -25.2560  -13.8980   20.4660 C   0  0  0  0  0  0  0  0  0  0  0  0
  -24.1670  -13.1330   20.8090 C   0  0  0  0  0  0  0  0  0  0  0  0
  -24.6330  -11.7820   20.8140 C   0  0  0  0  0  0  0  0  0  0  0  0
  -26.2990  -13.0060   20.2650 N   0  0  0  0  0  0  0  0  0  0  0  0
  -25.9290  -11.7310   20.5330 N   0  0  0  0  0  0  0  0  0  0  0  0
  -23.9000  -10.5270   21.0160 C   0  0  0  0  0  0  0  0  0  0  0  0
  -24.3160   -9.5680   21.9670 C   0  0  0  0  0  3  0  0  0  0  0  0
  -23.5750   -8.3800   22.1520 C   0  0  0  0  0  3  0  0  0  0  0  0
  -22.4080   -8.1410   21.3880 C   0  0  0  0  0  0  0  0  0  0  0  0
  -22.0050   -9.0950   20.4340 C   0  0  0  0  0  3  0  0  0  0  0  0
  -22.7460  -10.2780   20.2480 C   0  0  0  0  0  3  0  0  0  0  0  0
  -21.6450   -7.0030   21.4860 O   0  0  0  0  0  0  0  0  0  0  0  0
  -21.6000   -6.2590   22.6370 C   0  0  0  0  0  0  0  0  0  0  0  0
  -21.2070   -6.8200   23.8730 C   0  0  0  0  0  3  0  0  0  0  0  0
  -21.1110   -6.0040   25.0170 C   0  0  0  0  0  3  0  0  0  0  0  0
  -21.3960   -4.6270   24.9260 C   0  0  0  0  0  0  0  0  0  0  0  0
  -21.7800   -4.0660   23.6930 C   0  0  0  0  0  3  0  0  0  0  0  0
  -21.8810   -4.8800   22.5530 C   0  0  0  0  0  0  0  0  0  0  0  0
  -22.2270   -4.3260   21.3640 F   0  0  0  0  0  0  0  0  0  0  0  0
  -21.3000   -3.8410   26.0220 F   0  0  0  0  0  0  0  0  0  0  0  0
  -22.7690  -13.6270   21.0340 C   0  0  0  0  0  0  0  0  0  0  0  0
  -22.0210  -12.9570   21.9060 N   0  0  0  0  0  0  0  0  0  0  0  0
  -22.3510  -14.6460   20.4850 O   0  0  0  0  0  0  0  0  0  0  0  0
  -22.3750  -12.1250   22.3560 H   0  0  0  0  0  0  0  0  0  0  0  0
  -21.0840  -13.2760   22.1200 H   0  0  0  0  0  0  0  0  0  0  0  0
  -25.4380  -15.2630   20.2880 N   0  0  0  0  0  0  0  0  0  0  0  0
  -24.6770  -15.9250   20.4050 H   0  0  0  0  0  0  0  0  0  0  0  0
  -26.3120  -15.6940   20.0160 H   0  0  0  0  0  0  0  0  0  0  0  0
  -29.7570  -23.0280   20.1380 O   0  0  0  0  0  0  0  0  0  0  0  0
  -27.0100  -22.8640   19.3930 C   0  0  0  0  0  2  0  0  0  0  0  0
  -26.9250  -22.6220   20.9200 C   0  0  0  0  0  2  0  0  0  0  0  0
  -27.1170  -24.3670   19.1660 C   0  0  0  0  0  2  0  0  0  0  0  0
  -27.9430  -23.4900   21.7100 C   0  0  0  0  0  2  0  0  0  0  0  0
  -28.3840  -25.0780   19.7340 C   0  0  0  0  0  3  0  0  0  0  0  0
  -29.0470  -24.1140   20.8080 C   0  0  0  0  0  3  0  0  0  0  0  0
  -28.3490  -26.5300   20.0910 O   0  0  0  0  0  0  0  0  0  0  0  0
  -24.6560  -31.8920   23.2260 C   0  0  0  0  0  0  0  0  0  0  0  0
  -27.2170  -27.3680   20.0570 C   0  0  0  0  0  0  0  0  0  0  0  0
  -23.4200  -30.5110   21.5920 C   0  0  0  0  0  3  0  0  0  0  0  0
  -24.8540  -28.9920   20.1240 C   0  0  0  0  0  0  0  0  0  0  0  0
  -25.9650  -30.8090   21.4020 C   0  0  0  0  0  2  0  0  0  0  0  0
  -26.0250  -29.4370   20.7490 C   0  0  0  0  0  0  0  0  0  0  0  0
  -27.1940  -28.6170   20.7520 C   0  0  0  0  0  3  0  0  0  0  0  0
  -26.0600  -27.0770   19.3050 C   0  0  0  0  0  3  0  0  0  0  0  0
  -24.8740  -27.8080   19.3940 C   0  0  0  0  0  3  0  0  0  0  0  0
  -23.6130  -29.8530   20.2020 C   0  0  0  0  0  2  0  0  0  0  0  0
  -24.6970  -31.0890   22.1260 N   0  0  0  0  0  0  0  0  0  0  0  0
  -23.5810  -32.1710   23.7770 O   0  0  0  0  0  0  0  0  0  0  0  0
  -22.7760  -29.4780   22.5460 C   0  0  0  0  0  0  0  0  0  0  0  0
  -21.4510  -29.2990   22.4340 N   0  0  0  0  0  0  0  0  0  0  0  0
  -23.4670  -28.8500   23.3520 O   0  0  0  0  0  0  0  0  0  0  0  0
  -20.9540  -29.8570   21.7500 H   0  0  0  0  0  0  0  0  0  0  0  0
  -18.0810  -28.0960   22.9420 C   0  0  0  0  0  0  0  0  0  0  0  0
  -20.6400  -28.3600   23.2080 C   0  0  0  0  0  3  0  0  0  0  0  0
  -20.7440  -26.9300   22.6300 C   0  0  0  0  0  2  0  0  0  0  0  0
  -19.6370  -26.6050   21.6200 C   0  0  0  0  0  2  0  0  0  0  0  0
  -18.2580  -26.7460   22.2700 C   0  0  0  0  0  2  0  0  0  0  0  0
  -19.2000  -28.8630   23.3680 C   0  0  0  0  0  0  0  0  0  0  0  0
  -18.9810  -30.1270   23.9540 C   0  0  0  0  0  3  0  0  0  0  0  0
  -17.6770  -30.6270   24.1200 C   0  0  0  0  0  3  0  0  0  0  0  0
  -16.5720  -29.8590   23.7110 C   0  0  0  0  0  3  0  0  0  0  0  0
  -16.7770  -28.5940   23.1290 C   0  0  0  0  0  3  0  0  0  0  0  0
  -25.9530  -32.5090   23.8300 C   0  0  0  0  0  3  0  0  0  0  0  0
  -25.6530  -33.9020   24.1850 N   0  0  0  0  0  0  0  0  0  0  0  0
  -25.9560  -34.9650   23.4270 C   0  0  0  0  0  0  0  0  0  0  0  0
  -26.5930  -34.8740   22.3720 O   0  0  0  0  0  0  0  0  0  0  0  0
  -25.0870  -34.0440   25.0080 H   0  0  0  0  0  0  0  0  0  0  0  0
  -24.2010  -36.7450   23.1520 C   0  0  0  0  0  1  0  0  0  0  0  0
  -25.4770  -36.3470   23.9140 C   0  0  0  0  0  3  0  0  0  0  0  0
  -27.6360  -37.2380   24.6660 C   0  0  0  0  0  1  0  0  0  0  0  0
  -26.4960  -37.4090   23.7680 N   0  0  0  0  0  0  0  0  0  0  0  0
  -26.0900  -38.3240   23.9410 H   0  0  0  0  0  0  0  0  0  0  0  0
  -26.4920  -31.7130   25.0830 C   0  0  1  0  0  0  0  0  0  0  0  0
  -25.4200  -31.4590   26.1680 C   0  0  0  0  0  1  0  0  0  0  0  0
  -27.0660  -30.3410   24.6580 C   0  0  0  0  0  1  0  0  0  0  0  0
  -27.6540  -32.4940   25.7350 C   0  0  0  0  0  1  0  0  0  0  0  0
  2  5  1  0
  3  6  1  0
  4  3  1  0
  4  9  1  0
  4  2  1  0
  5  1  1  0
  6  5  1  0
  6  7  1  0
  8  6  1  0
  9 10  1  0
 10 19  1  0
 11 19  1  0
 12 17  1  0
 13 14  1  0
 13 12  1  0
 15 14  1  0
 15 24  1  0
 15 16  1  0
 17 11  1  0
 17 16  1  0
 18 11  2  0
 19 20  1  0
 21 22  2  0
 22 23  1  0
 22 41  1  0
 23 26  1  0
 24 21  1  0
 24 25  1  0
 25 23  2  0
 26 27  1  0
 27 28  2  0
 29 32  1  0
 29 28  1  0
 30 29  2  0
 31 30  1  0
 31 26  2  0
 32 33  1  0
 33 34  1  0
 34 35  2  0
 36 35  1  0
 36 40  1  0
 37 36  2  0
 38 33  2  0
 38 37  1  0
 39 38  1  0
 41 42  1  0
 42 45  1  0
 42 44  1  0
 43 41  2  0
 46 47  1  0
 46 21  1  0
 48 46  1  0
 49  1  1  0
 50 51  1  0
 51 53  1  0
 52 50  1  0
 52 54  1  0
 54 56  1  0
 54 55  1  0
 55 49  1  0
 55 53  1  0
 57 68  2  0
 58 56  1  0
 58 63  1  0
 59 67  1  0
 59 69  1  0
 60 66  1  0
 60 62  1  0
 61 67  1  0
 62 63  2  0
 62 61  1  0
 64 65  1  0
 64 58  2  0
 65 60  2  0
 66 59  1  0
 67 57  1  0
 69 71  2  0
 70 69  1  0
 72 70  1  0
 73 82  2  0
 73 78  1  0
 74 70  1  0
 74 78  1  0
 75 74  1  0
 76 77  1  0
 76 75  1  0
 77 73  1  0
 78 79  2  0
 79 80  1  0
 81 80  2  0
 82 81  1  0
 83 57  1  0
 83 84  1  0
 83 93  1  0
 84 87  1  0
 85 89  1  0
 85 84  1  0
 86 85  2  0
 89 88  1  0
 91 89  1  0
 91 92  1  0
 91 90  1  0
 93 96  1  1
 93 94  1  0
 95 93  1  0
M  ISO  4  11 100  19 100  54 101  56 101
M  END
>  <TORSDO>  (14) 
F 21

>  <SCORE>  (14) 
-13.646

>  <name>  (14) 
13

>  <ligand_id>  (14) 
13

>  <original_smiles>  (14) 
[H]c1c([H])c([H])c2c(c1[H])C([H])([H])C([H])([H])C([H])([H])C2([H])N([H])C(=O)C1([H])N(C(=O)C([H])(N([H])C(=O)C([H])(N([H])C([H])([H])[H])C([H])([H])[H])C(C([H])([H])[H])(C([H])([H])[H])C([H])([H])[H])C([H])([H])c2c([H])c(OC3([H])C([H])([H])C([H])([H])C([H])([H])C([H])([H])C3([H])OC([H])([H])C3([H])C([H])([H])C([H])(C([H])([H])C([H])([H])N([H])C(=O)N4C([H])([H])C([H])([H])C([H])([H])C([H])(n5nc(-c6c([H])c([H])c(Oc7c([H])c([H])c(F)c([H])c7F)c([H])c6[H])c(C(=O)N([H])[H])c5N([H])[H])C4([H])[H])C([H])([H])[N+]3([H])[H])c([H])c([H])c2C1([H])[H]

>  <smiles>  (14) 
[H]c1c([H])c([H])c2c(c1[H])C([H])([H])C([H])([H])C([H])([H])C2([H])N([H])C(=O)C1([H])N(C(=O)C([H])(N([H])C(=O)C([H])(N([H])C([H])([H])[H])C([H])([H])[H])C(C([H])([H])[H])(C([H])([H])[H])C([H])([H])[H])C([H])([H])c2c([H])c(OC3([H])C([H])([H])C([H])([H])C([H])([H])C([H])([H])C3([H])OC([H])([H])C3([H])C([H])([H])C([H])(C([H])([H])C([H])([H])N([H])C(=O)N4C([H])([H])C([H])([H])C([H])([H])C([H])(n5nc(-c6c([H])c([H])c(Oc7c([H])c([H])c(F)c([H])c7F)c([H])c6[H])c(C(=O)N([H])[H])c5N([H])[H])C4([H])[H])C([H])([H])[N+]3([H])[H])c([H])c([H])c2C1([H])[H]

$$$$
14:0:0
     RDKit          3D

 96105  0  0  1  0  0  0  0  0999 V2000
  -30.2680  -20.5860   20.9150 C   0  0  0  0  0  3  0  0  0  0  0  0
  -29.4970  -20.6870   22.0040 F   0  0  0  0  0  0  0  0  0  0  0  0
  -28.9120  -18.1000   18.2920 C   0  0  0  0  0  3  0  0  0  0  0  0
  -29.3480  -19.2990   18.8830 C   0  0  0  0  0  3  0  0  0  0  0  0
  -30.0630  -18.0490   20.8470 C   0  0  0  0  0  3  0  0  0  0  0  0
  -28.9570  -16.8790   19.0030 C   0  0  0  0  0  0  0  0  0  0  0  0
  -29.8980  -19.2930   20.1760 C   0  0  0  0  0  0  0  0  0  0  0  0
  -29.5780  -16.8370   20.2930 C   0  0  0  0  0  0  0  0  0  0  0  0
  -30.4290  -14.8700   21.6860 C   0  0  0  0  0  0  0  0  0  0  0  0
  -30.6290  -12.4600   21.2580 C   0  0  0  0  0  2  0  0  0  0  0  0
  -29.9760  -12.2490   19.8810 C   0  0  0  0  0  2  0  0  0  0  0  0
  -28.4260  -12.1640   19.9660 C   0  0  0  0  0  2  0  0  0  0  0  0
  -27.7460  -13.1610   20.9540 C   0  0  0  0  0  3  0  0  0  0  0  0
  -28.5700  -13.2770   22.2590 C   0  0  0  0  0  2  0  0  0  0  0  0
  -29.9560  -13.6040   21.8870 N   0  0  0  0  0  0  0  0  0  0  0  0
  -31.6290  -15.1570   21.6980 O   0  0  0  0  0  0  0  0  0  0  0  0
  -29.4840  -15.6760   21.1480 N   0  0  0  0  0  0  0  0  0  0  0  0
  -28.6040  -15.1930   21.0850 H   0  0  0  0  0  0  0  0  0  0  0  0
  -25.2460  -13.6700   21.3510 C   0  0  0  0  0  0  0  0  0  0  0  0
  -24.1650  -12.8450   21.5250 C   0  0  0  0  0  0  0  0  0  0  0  0
  -24.6780  -11.5130   21.4880 C   0  0  0  0  0  0  0  0  0  0  0  0
  -26.3470  -12.8320   21.2230 N   0  0  0  0  0  0  0  0  0  0  0  0
  -26.0000  -11.5310   21.3770 N   0  0  0  0  0  0  0  0  0  0  0  0
  -23.9850  -10.2180   21.4900 C   0  0  0  0  0  0  0  0  0  0  0  0
  -24.3570   -9.1910   22.3840 C   0  0  0  0  0  3  0  0  0  0  0  0
  -23.6700   -7.9590   22.3820 C   0  0  0  0  0  3  0  0  0  0  0  0
  -22.5980   -7.7450   21.4870 C   0  0  0  0  0  0  0  0  0  0  0  0
  -22.2450   -8.7620   20.5830 C   0  0  0  0  0  3  0  0  0  0  0  0
  -22.9340   -9.9880   20.5810 C   0  0  0  0  0  3  0  0  0  0  0  0
  -21.8830   -6.5750   21.3990 O   0  0  0  0  0  0  0  0  0  0  0  0
  -21.7620   -5.7210   22.4660 C   0  0  0  0  0  0  0  0  0  0  0  0
  -21.1940   -6.1340   23.6900 C   0  0  0  0  0  3  0  0  0  0  0  0
  -21.0340   -5.2070   24.7400 C   0  0  0  0  0  3  0  0  0  0  0  0
  -21.4210   -3.8640   24.5610 C   0  0  0  0  0  0  0  0  0  0  0  0
  -21.9830   -3.4510   23.3400 C   0  0  0  0  0  3  0  0  0  0  0  0
  -22.1460   -4.3770   22.2950 C   0  0  0  0  0  0  0  0  0  0  0  0
  -22.6660   -3.9690   21.1120 F   0  0  0  0  0  0  0  0  0  0  0  0
  -21.2590   -2.9700   25.5650 F   0  0  0  0  0  0  0  0  0  0  0  0
  -22.7220  -13.2600   21.6120 C   0  0  0  0  0  0  0  0  0  0  0  0
  -21.9020  -12.4910   22.3240 N   0  0  0  0  0  0  0  0  0  0  0  0
  -22.3170  -14.2930   21.0800 O   0  0  0  0  0  0  0  0  0  0  0  0
  -22.2320  -11.6500   22.7750 H   0  0  0  0  0  0  0  0  0  0  0  0
  -20.9260  -12.7340   22.4070 H   0  0  0  0  0  0  0  0  0  0  0  0
  -25.3730  -15.0550   21.2710 N   0  0  0  0  0  0  0  0  0  0  0  0
  -24.5660  -15.6680   21.3130 H   0  0  0  0  0  0  0  0  0  0  0  0
  -26.2290  -15.5540   21.0580 H   0  0  0  0  0  0  0  0  0  0  0  0
  -27.2220  -15.6740   17.2980 C   0  0  0  0  0  2  0  0  0  0  0  0
  -26.8350  -15.4050   18.7340 C   0  0  0  0  0  2  0  0  0  0  0  0
  -28.2860  -15.6790   18.3860 C   0  0  0  0  0  3  0  0  0  0  0  0
  -30.2830  -21.9600   20.1530 C   0  0  0  0  0  2  0  0  0  0  0  0
  -29.1250  -22.8690   20.4190 N   0  0  0  0  0  4  0  0  0  0  0  0
  -28.3480  -22.5970   19.8340 H   0  0  0  0  0  0  0  0  0  0  0  0
  -28.8460  -22.6910   21.3750 H   0  0  0  0  0  0  0  0  0  0  0  0
  -29.4220  -24.3360   20.2470 C   0  0  0  0  0  2  0  0  0  0  0  0
  -28.1500  -25.2290   20.2050 C   0  0  0  0  0  2  0  0  0  0  0  0
  -28.3580  -26.6740   20.1420 O   0  0  0  0  0  0  0  0  0  0  0  0
  -24.6080  -31.9710   23.2160 C   0  0  0  0  0  0  0  0  0  0  0  0
  -27.2100  -27.4680   20.1270 C   0  0  0  0  0  0  0  0  0  0  0  0
  -23.3910  -30.5740   21.5820 C   0  0  0  0  0  3  0  0  0  0  0  0
  -24.8320  -29.0350   20.1510 C   0  0  0  0  0  0  0  0  0  0  0  0
  -25.9250  -30.9120   21.3730 C   0  0  0  0  0  2  0  0  0  0  0  0
  -26.0040  -29.5390   20.7290 C   0  0  0  0  0  0  0  0  0  0  0  0
  -27.1950  -28.7640   20.7140 C   0  0  0  0  0  3  0  0  0  0  0  0
  -26.0080  -27.0030   19.5380 C   0  0  0  0  0  3  0  0  0  0  0  0
  -24.8300  -27.7660   19.5570 C   0  0  0  0  0  3  0  0  0  0  0  0
  -23.5960  -29.9030   20.2000 C   0  0  0  0  0  2  0  0  0  0  0  0
  -24.6610  -31.1670   22.1170 N   0  0  0  0  0  0  0  0  0  0  0  0
  -23.5280  -32.2490   23.7600 O   0  0  0  0  0  0  0  0  0  0  0  0
  -22.7430  -29.5520   22.5450 C   0  0  0  0  0  0  0  0  0  0  0  0
  -21.4210  -29.3570   22.4100 N   0  0  0  0  0  0  0  0  0  0  0  0
  -23.4260  -28.9420   23.3710 O   0  0  0  0  0  0  0  0  0  0  0  0
  -20.9300  -29.9040   21.7160 H   0  0  0  0  0  0  0  0  0  0  0  0
  -18.0610  -28.1220   22.8860 C   0  0  0  0  0  0  0  0  0  0  0  0
  -20.6120  -28.4170   23.1840 C   0  0  0  0  0  3  0  0  0  0  0  0
  -20.7420  -26.9800   22.6300 C   0  0  0  0  0  2  0  0  0  0  0  0
  -19.6560  -26.6280   21.6090 C   0  0  0  0  0  2  0  0  0  0  0  0
  -18.2650  -26.7660   22.2330 C   0  0  0  0  0  2  0  0  0  0  0  0
  -19.1640  -28.9040   23.3200 C   0  0  0  0  0  0  0  0  0  0  0  0
  -18.9240  -30.1720   23.8930 C   0  0  0  0  0  3  0  0  0  0  0  0
  -17.6110  -30.6550   24.0420 C   0  0  0  0  0  3  0  0  0  0  0  0
  -16.5200  -29.8710   23.6250 C   0  0  0  0  0  3  0  0  0  0  0  0
  -16.7460  -28.6070   23.0480 C   0  0  0  0  0  3  0  0  0  0  0  0
  -25.8990  -32.6000   23.8270 C   0  0  0  0  0  3  0  0  0  0  0  0
  -25.5910  -33.9980   24.1500 N   0  0  0  0  0  0  0  0  0  0  0  0
  -25.9220  -35.0480   23.3880 C   0  0  0  0  0  0  0  0  0  0  0  0
  -26.5880  -34.9420   22.3540 O   0  0  0  0  0  0  0  0  0  0  0  0
  -24.9880  -34.1560   24.9450 H   0  0  0  0  0  0  0  0  0  0  0  0
  -24.1920  -36.8440   23.0400 C   0  0  0  0  0  1  0  0  0  0  0  0
  -25.4360  -36.4370   23.8450 C   0  0  0  0  0  3  0  0  0  0  0  0
  -27.5730  -37.3280   24.6640 C   0  0  0  0  0  1  0  0  0  0  0  0
  -26.4660  -37.4930   23.7250 N   0  0  0  0  0  0  0  0  0  0  0  0
  -26.0570  -38.4100   23.8790 H   0  0  0  0  0  0  0  0  0  0  0  0
  -26.4190  -31.8310   25.1030 C   0  0  1  0  0  0  0  0  0  0  0  0
  -25.3350  -31.6040   26.1820 C   0  0  0  0  0  1  0  0  0  0  0  0
  -26.9870  -30.4470   24.7120 C   0  0  0  0  0  1  0  0  0  0  0  0
  -27.5740  -32.6230   25.7560 C   0  0  0  0  0  1  0  0  0  0  0  0
  1  2  1  0
  3  4  2  0
  3  6  1  0
  4  7  1  0
  6  8  2  0
  7  5  2  0
  7  1  1  0
  8  5  1  0
  8 17  1  0
  9 16  2  0
  9 15  1  0
 10 15  1  0
 11 12  1  0
 11 10  1  0
 13 12  1  0
 13 22  1  0
 13 14  1  0
 15 14  1  0
 17  9  1  0
 18 17  1  0
 19 20  2  0
 20 39  1  0
 21 24  1  0
 21 20  1  0
 22 19  1  0
 22 23  1  0
 23 21  2  0
 24 25  1  0
 26 25  2  0
 27 26  1  0
 28 27  2  0
 29 28  1  0
 29 24  2  0
 30 27  1  0
 30 31  1  0
 31 32  1  0
 32 33  2  0
 34 33  1  0
 34 38  1  0
 35 34  2  0
 36 31  2  0
 36 35  1  0
 37 36  1  0
 39 40  1  0
 40 43  1  0
 40 42  1  0
 41 39  2  0
 44 45  1  0
 44 19  1  0
 46 44  1  0
 47 49  1  0
 47 48  1  0
 49 48  1  0
 49  6  1  0
 50 51  1  0
 50  1  1  0
 51 53  1  0
 52 51  1  0
 54 51  1  0
 55 54  1  0
 56 55  1  0
 57 68  2  0
 58 56  1  0
 58 63  1  0
 59 67  1  0
 59 69  1  0
 60 66  1  0
 60 62  1  0
 61 67  1  0
 62 61  1  0
 63 62  2  0
 64 65  1  0
 64 58  2  0
 65 60  2  0
 66 59  1  0
 67 57  1  0
 69 71  2  0
 70 69  1  0
 72 70  1  0
 73 82  2  0
 73 78  1  0
 74 70  1  0
 74 78  1  0
 75 74  1  0
 76 77  1  0
 76 75  1  0
 77 73  1  0
 78 79  2  0
 79 80  1  0
 81 80  2  0
 82 81  1  0
 83 57  1  0
 83 84  1  0
 83 93  1  0
 84 87  1  0
 85 89  1  0
 85 84  1  0
 86 85  2  0
 89 88  1  0
 91 89  1  0
 91 92  1  0
 91 90  1  0
 93 96  1  1
 93 94  1  0
 95 93  1  0
M  ISO  4   9 100  17 100  55 101  56 101
M  END
>  <TORSDO>  (15) 
F 22

>  <SCORE>  (15) 
-4.088

>  <name>  (15) 
14

>  <ligand_id>  (15) 
14

>  <original_smiles>  (15) 
[H]c1c([H])c([H])c2c(c1[H])C([H])([H])C([H])([H])C([H])([H])C2([H])N([H])C(=O)C1([H])N(C(=O)C([H])(N([H])C(=O)C([H])(N([H])C([H])([H])[H])C([H])([H])[H])C(C([H])([H])[H])(C([H])([H])[H])C([H])([H])[H])C([H])([H])c2c([H])c(OC([H])([H])C([H])([H])[N+]([H])([H])C([H])([H])C([H])(F)c3c([H])c([H])c(C4([H])C([H])([H])C4([H])[H])c(N([H])C(=O)N4C([H])([H])C([H])([H])C([H])([H])C([H])(n5nc(-c6c([H])c([H])c(Oc7c([H])c([H])c(F)c([H])c7F)c([H])c6[H])c(C(=O)N([H])[H])c5N([H])[H])C4([H])[H])c3[H])c([H])c([H])c2C1([H])[H]

>  <smiles>  (15) 
[H]c1c([H])c([H])c2c(c1[H])C([H])([H])C([H])([H])C([H])([H])C2([H])N([H])C(=O)C1([H])N(C(=O)C([H])(N([H])C(=O)C([H])(N([H])C([H])([H])[H])C([H])([H])[H])C(C([H])([H])[H])(C([H])([H])[H])C([H])([H])[H])C([H])([H])c2c([H])c(OC([H])([H])C([H])([H])[N+]([H])([H])C([H])([H])C([H])(F)c3c([H])c([H])c(C4([H])C([H])([H])C4([H])[H])c(N([H])C(=O)N4C([H])([H])C([H])([H])C([H])([H])C([H])(n5nc(-c6c([H])c([H])c(Oc7c([H])c([H])c(F)c([H])c7F)c([H])c6[H])c(C(=O)N([H])[H])c5N([H])[H])C4([H])[H])c3[H])c([H])c([H])c2C1([H])[H]

$$$$
15:0:0
     RDKit          3D

 99108  0  0  1  0  0  0  0  0999 V2000
  -30.5180  -14.8720   20.4280 C   0  0  0  0  0  0  0  0  0  0  0  0
  -30.4480  -12.5350   19.4630 C   0  0  0  0  0  2  0  0  0  0  0  0
  -29.5130  -12.5270   18.2310 C   0  0  0  0  0  2  0  0  0  0  0  0
  -28.0420  -12.3310   18.6490 C   0  0  0  0  0  2  0  0  0  0  0  0
  -27.6350  -13.2300   19.8450 C   0  0  0  0  0  3  0  0  0  0  0  0
  -28.6860  -13.1940   20.9760 C   0  0  0  0  0  2  0  0  0  0  0  0
  -29.9700  -13.5970   20.3870 N   0  0  0  0  0  0  0  0  0  0  0  0
  -31.7190  -15.0030   20.1640 O   0  0  0  0  0  0  0  0  0  0  0  0
  -28.2700  -18.0630   20.3360 C   0  0  0  0  0  3  0  0  0  0  0  0
  -30.3350  -19.7590   20.6320 C   0  0  0  0  0  3  0  0  0  0  0  0
  -28.0120  -19.4850   20.3550 C   0  0  0  0  0  0  0  0  0  0  0  0
  -29.0670  -20.4360   20.5500 C   0  0  0  0  0  0  0  0  0  0  0  0
  -29.5600  -17.4610   20.4800 C   0  0  0  0  0  0  0  0  0  0  0  0
  -30.5690  -18.3830   20.5960 N   0  0  0  0  0  0  0  0  0  0  0  0
  -29.6100  -15.9450   20.5530 N   0  0  0  0  0  0  0  0  0  0  0  0
  -28.6890  -15.5630   20.6740 H   0  0  0  0  0  0  0  0  0  0  0  0
  -25.2490  -13.8170   20.5670 C   0  0  0  0  0  0  0  0  0  0  0  0
  -24.1800  -13.0430   20.9260 C   0  0  0  0  0  0  0  0  0  0  0  0
  -24.6380  -11.6900   20.8780 C   0  0  0  0  0  0  0  0  0  0  0  0
  -26.2910  -12.9360   20.3260 N   0  0  0  0  0  0  0  0  0  0  0  0
  -25.9310  -11.6510   20.5760 N   0  0  0  0  0  0  0  0  0  0  0  0
  -23.9040  -10.4300   21.0440 C   0  0  0  0  0  0  0  0  0  0  0  0
  -24.3610   -9.4220   21.9200 C   0  0  0  0  0  3  0  0  0  0  0  0
  -23.6290   -8.2250   22.0760 C   0  0  0  0  0  3  0  0  0  0  0  0
  -22.4280   -8.0270   21.3550 C   0  0  0  0  0  0  0  0  0  0  0  0
  -21.9910   -9.0260   20.4660 C   0  0  0  0  0  3  0  0  0  0  0  0
  -22.7210  -10.2150   20.3080 C   0  0  0  0  0  3  0  0  0  0  0  0
  -21.6660   -6.8860   21.4230 O   0  0  0  0  0  0  0  0  0  0  0  0
  -21.6860   -6.0720   22.5270 C   0  0  0  0  0  0  0  0  0  0  0  0
  -21.4020   -6.5630   23.8200 C   0  0  0  0  0  3  0  0  0  0  0  0
  -21.3670   -5.6790   24.9170 C   0  0  0  0  0  3  0  0  0  0  0  0
  -21.6040   -4.3050   24.7220 C   0  0  0  0  0  0  0  0  0  0  0  0
  -21.8820   -3.8130   23.4350 C   0  0  0  0  0  3  0  0  0  0  0  0
  -21.9200   -4.6940   22.3400 C   0  0  0  0  0  0  0  0  0  0  0  0
  -22.1660   -4.2130   21.0980 F   0  0  0  0  0  0  0  0  0  0  0  0
  -21.5620   -3.4530   25.7740 F   0  0  0  0  0  0  0  0  0  0  0  0
  -22.7840  -13.5270   21.1890 C   0  0  0  0  0  0  0  0  0  0  0  0
  -22.0440  -12.8300   22.0430 N   0  0  0  0  0  0  0  0  0  0  0  0
  -22.3590  -14.5600   20.6710 O   0  0  0  0  0  0  0  0  0  0  0  0
  -22.4010  -11.9950   22.4820 H   0  0  0  0  0  0  0  0  0  0  0  0
  -21.1070  -13.1370   22.2590 H   0  0  0  0  0  0  0  0  0  0  0  0
  -25.4060  -15.1890   20.3920 N   0  0  0  0  0  0  0  0  0  0  0  0
  -24.5440  -15.7160   20.3150 H   0  0  0  0  0  0  0  0  0  0  0  0
  -26.1240  -15.5380   19.7720 H   0  0  0  0  0  0  0  0  0  0  0  0
  -28.8600  -22.0200   20.9500 C   0  0  0  0  0  3  0  0  0  0  0  0
  -28.5580  -23.3580   20.0070 C   0  0  0  0  0  3  0  0  0  0  0  0
  -28.1150  -24.8150   20.6920 C   0  0  0  0  0  2  0  0  0  0  0  0
  -28.2880  -26.2420   20.1480 O   0  0  0  0  0  0  0  0  0  0  0  0
  -24.6400  -31.8500   23.1890 C   0  0  0  0  0  0  0  0  0  0  0  0
  -27.2130  -27.1810   20.1550 C   0  0  0  0  0  0  0  0  0  0  0  0
  -23.4390  -30.4710   21.5350 C   0  0  0  0  0  3  0  0  0  0  0  0
  -24.8870  -28.8950   20.1150 C   0  0  0  0  0  0  0  0  0  0  0  0
  -25.9910  -30.7370   21.3810 C   0  0  0  0  0  2  0  0  0  0  0  0
  -26.0620  -29.3510   20.7260 C   0  0  0  0  0  0  0  0  0  0  0  0
  -27.2320  -28.5100   20.7240 C   0  0  0  0  0  3  0  0  0  0  0  0
  -26.0140  -26.8050   19.5190 C   0  0  0  0  0  3  0  0  0  0  0  0
  -24.8720  -27.6330   19.4970 C   0  0  0  0  0  3  0  0  0  0  0  0
  -23.6640  -29.7970   20.1550 C   0  0  0  0  0  2  0  0  0  0  0  0
  -24.7090  -31.0400   22.0910 N   0  0  0  0  0  0  0  0  0  0  0  0
  -23.5550  -32.1370   23.7150 O   0  0  0  0  0  0  0  0  0  0  0  0
  -22.7540  -29.4600   22.4880 C   0  0  0  0  0  0  0  0  0  0  0  0
  -21.4240  -29.3080   22.3640 N   0  0  0  0  0  0  0  0  0  0  0  0
  -23.4220  -28.8140   23.3010 O   0  0  0  0  0  0  0  0  0  0  0  0
  -20.9440  -29.8840   21.6870 H   0  0  0  0  0  0  0  0  0  0  0  0
  -18.0320  -28.1400   22.8470 C   0  0  0  0  0  0  0  0  0  0  0  0
  -20.5920  -28.3730   23.1260 C   0  0  0  0  0  3  0  0  0  0  0  0
  -20.6780  -26.9440   22.5410 C   0  0  0  0  0  2  0  0  0  0  0  0
  -19.5750  -26.6370   21.5220 C   0  0  0  0  0  2  0  0  0  0  0  0
  -18.1940  -26.7930   22.1620 C   0  0  0  0  0  2  0  0  0  0  0  0
  -19.1570  -28.8870   23.2870 C   0  0  0  0  0  0  0  0  0  0  0  0
  -18.9490  -30.1470   23.8880 C   0  0  0  0  0  3  0  0  0  0  0  0
  -17.6490  -30.6600   24.0550 C   0  0  0  0  0  3  0  0  0  0  0  0
  -16.5380  -29.9100   23.6320 C   0  0  0  0  0  3  0  0  0  0  0  0
  -16.7310  -28.6530   23.0340 C   0  0  0  0  0  3  0  0  0  0  0  0
  -25.9200  -32.4710   23.8280 C   0  0  0  0  0  3  0  0  0  0  0  0
  -25.5980  -33.8520   24.2210 N   0  0  0  0  0  0  0  0  0  0  0  0
  -25.9070  -34.9430   23.5060 C   0  0  0  0  0  0  0  0  0  0  0  0
  -26.5660  -34.8920   22.4640 O   0  0  0  0  0  0  0  0  0  0  0  0
  -25.0100  -33.9620   25.0350 H   0  0  0  0  0  0  0  0  0  0  0  0
  -24.1490  -36.7260   23.2630 C   0  0  0  0  0  1  0  0  0  0  0  0
  -25.4120  -36.3040   24.0310 C   0  0  0  0  0  3  0  0  0  0  0  0
  -27.5570  -37.1790   24.8470 C   0  0  0  0  0  1  0  0  0  0  0  0
  -26.4280  -37.3760   23.9400 N   0  0  0  0  0  0  0  0  0  0  0  0
  -26.0160  -38.2830   24.1390 H   0  0  0  0  0  0  0  0  0  0  0  0
  -26.4540  -31.6560   25.0690 C   0  0  1  0  0  0  0  0  0  0  0  0
  -25.3700  -31.3750   26.1370 C   0  0  0  0  0  1  0  0  0  0  0  0
  -27.0390  -30.2960   24.6240 C   0  0  0  0  0  1  0  0  0  0  0  0
  -27.6080  -32.4310   25.7470 C   0  0  0  0  0  1  0  0  0  0  0  0
  -26.5590  -19.9270   20.2380 C   0  0  0  0  0  2  0  0  0  0  0  0
  -25.8530  -19.7050   21.5160 N   0  0  0  0  0  4  0  0  0  0  0  0
  -25.4970  -20.5870   21.8400 H   0  0  0  0  0  0  0  0  0  0  0  0
  -26.5420  -19.3940   22.1830 H   0  0  0  0  0  0  0  0  0  0  0  0
  -24.7410  -18.7300   21.4940 C   0  0  0  0  0  2  0  0  0  0  0  0
  -22.4010  -19.9790   21.3350 C   0  0  0  0  0  2  0  0  0  0  0  0
  -23.4930  -19.3020   22.1450 C   0  0  0  0  0  3  0  0  0  0  0  0
  -22.1500  -18.6300   21.9620 C   0  0  0  0  0  3  0  0  0  0  0  0
  -19.7490  -18.5730   22.7410 C   0  0  0  0  0  1  0  0  0  0  0  0
  -21.4920  -17.0990   23.8340 C   0  0  0  0  0  1  0  0  0  0  0  0
  -21.2220  -18.4450   23.1490 C   0  0  0  0  0  3  0  0  0  0  0  0
  1 15  1  0
  2  7  1  0
  3  4  1  0
  3  2  1  0
  5  4  1  0
  5 20  1  0
  5  6  1  0
  7  1  1  0
  7  6  1  0
  8  1  2  0
  9 11  2  0
  9 13  1  0
 11 12  1  0
 12 10  2  0
 12 45  1  0
 13 15  1  0
 13 14  2  0
 14 10  1  0
 15 16  1  0
 17 18  2  0
 18 37  1  0
 19 18  1  0
 19 22  1  0
 20 17  1  0
 20 21  1  0
 21 19  2  0
 22 23  1  0
 23 24  2  0
 25 28  1  0
 25 24  1  0
 26 25  2  0
 27 26  1  0
 27 22  2  0
 28 29  1  0
 29 30  1  0
 30 31  2  0
 32 31  1  0
 32 36  1  0
 33 32  2  0
 34 29  2  0
 34 33  1  0
 35 34  1  0
 37 38  1  0
 38 41  1  0
 38 40  1  0
 39 37  2  0
 42 17  1  0
 43 42  1  0
 44 42  1  0
 46 47  1  0
 46 45  2  0
 48 50  1  0
 48 47  1  0
 49 60  2  0
 50 55  1  0
 51 59  1  0
 51 61  1  0
 52 58  1  0
 52 54  1  0
 53 59  1  0
 54 53  1  0
 55 54  2  0
 56 50  2  0
 57 56  1  0
 57 52  2  0
 58 51  1  0
 59 49  1  0
 61 63  2  0
 62 61  1  0
 64 62  1  0
 65 74  2  0
 65 70  1  0
 66 62  1  0
 66 70  1  0
 67 66  1  0
 68 69  1  0
 68 67  1  0
 69 65  1  0
 70 71  2  0
 71 72  1  0
 73 72  2  0
 74 73  1  0
 75 49  1  0
 75 76  1  0
 75 85  1  0
 76 79  1  0
 77 81  1  0
 77 76  1  0
 78 77  2  0
 81 80  1  0
 83 81  1  0
 83 84  1  0
 83 82  1  0
 85 88  1  1
 85 86  1  0
 87 85  1  0
 89 11  1  0
 89 90  1  0
 90 91  1  0
 90 92  1  0
 93 90  1  0
 94 96  1  0
 94 95  1  0
 95 93  1  0
 96 95  1  0
 96 99  1  0
 97 99  1  0
 99 98  1  0
M  ISO  4   1 100  15 100  47 101  48 101
M  END
>  <TORSDO>  (16) 
F 23

>  <SCORE>  (16) 
47.343

>  <name>  (16) 
15

>  <ligand_id>  (16) 
15

>  <original_smiles>  (16) 
[H]c1nc(N([H])C(=O)N2C([H])([H])C([H])([H])C([H])([H])C([H])(n3nc(-c4c([H])c([H])c(Oc5c([H])c([H])c(F)c([H])c5F)c([H])c4[H])c(C(=O)N([H])[H])c3N([H])[H])C2([H])[H])c([H])c(C([H])([H])[N+]([H])([H])C([H])([H])C2([H])C([H])([H])C2([H])C([H])(C([H])([H])[H])C([H])([H])[H])c1C([H])([H])C([H])([H])C([H])([H])Oc1c([H])c([H])c2c(c1[H])C([H])([H])N(C(=O)C([H])(N([H])C(=O)C([H])(N([H])C([H])([H])[H])C([H])([H])[H])C(C([H])([H])[H])(C([H])([H])[H])C([H])([H])[H])C([H])(C(=O)N([H])C1([H])c3c([H])c([H])c([H])c([H])c3C([H])([H])C([H])([H])C1([H])[H])C2([H])[H]

>  <smiles>  (16) 
[H]c1nc(N([H])C(=O)N2C([H])([H])C([H])([H])C([H])([H])C([H])(n3nc(-c4c([H])c([H])c(Oc5c([H])c([H])c(F)c([H])c5F)c([H])c4[H])c(C(=O)N([H])[H])c3N([H])[H])C2([H])[H])c([H])c(C([H])([H])[N+]([H])([H])C([H])([H])C2([H])C([H])([H])C2([H])C([H])(C([H])([H])[H])C([H])([H])[H])c1C([H])([H])C([H])([H])C([H])([H])Oc1c([H])c([H])c2c(c1[H])C([H])([H])N(C(=O)C([H])(N([H])C(=O)C([H])(N([H])C([H])([H])[H])C([H])([H])[H])C(C([H])([H])[H])(C([H])([H])[H])C([H])([H])[H])C([H])(C(=O)N([H])C1([H])c3c([H])c([H])c([H])c([H])c3C([H])([H])C([H])([H])C1([H])[H])C2([H])[H]

$$$$
16:0:0
     RDKit          3D

 94102  0  0  1  0  0  0  0  0999 V2000
  -29.6380  -20.3820   21.6030 C   0  0  0  0  0  3  0  0  0  0  0  0
  -30.5380  -21.1830   22.3060 C   0  0  0  0  0  3  0  0  0  0  0  0
  -29.1070  -20.8130   20.3750 C   0  0  0  0  0  0  0  0  0  0  0  0
  -29.3200  -22.2060   20.0090 C   0  0  0  0  0  0  0  0  0  0  0  0
  -30.3750  -22.8600   20.7230 C   0  0  0  0  0  0  0  0  0  0  0  0
  -31.0410  -24.1460   20.2680 C   0  0  0  0  0  1  0  0  0  0  0  0
  -30.9530  -22.3680   21.8370 N   0  0  0  0  0  0  0  0  0  0  0  0
  -28.5550  -22.9250   19.0310 N   0  0  0  0  0  0  0  0  0  0  0  0
  -28.0510  -22.3530   18.3590 H   0  0  0  0  0  0  0  0  0  0  0  0
  -27.7970  -24.1740   19.4040 C   0  0  0  0  0  2  0  0  0  0  0  0
  -27.9320  -25.5430   17.1660 C   0  0  0  0  0  1  0  0  0  0  0  0
  -28.2310  -25.5140   18.6700 C   0  0  0  0  0  3  0  0  0  0  0  0
  -28.0000  -26.8250   19.2930 O   0  0  0  0  0  0  0  0  0  0  0  0
  -24.3310  -31.5870   23.1630 C   0  0  0  0  0  0  0  0  0  0  0  0
  -26.7900  -27.5110   19.4000 C   0  0  0  0  0  0  0  0  0  0  0  0
  -23.0110  -30.3180   21.4940 C   0  0  0  0  0  3  0  0  0  0  0  0
  -24.3640  -28.9630   19.7930 C   0  0  0  0  0  0  0  0  0  0  0  0
  -25.5070  -30.7550   21.1160 C   0  0  0  0  0  2  0  0  0  0  0  0
  -25.5610  -29.4560   20.3240 C   0  0  0  0  0  0  0  0  0  0  0  0
  -26.7690  -28.7390   20.1220 C   0  0  0  0  0  3  0  0  0  0  0  0
  -25.5690  -27.0450   18.8660 C   0  0  0  0  0  3  0  0  0  0  0  0
  -24.3680  -27.7590   19.0620 C   0  0  0  0  0  3  0  0  0  0  0  0
  -23.1100  -29.7740   20.0430 C   0  0  0  0  0  2  0  0  0  0  0  0
  -24.3060  -30.9010   21.9810 N   0  0  0  0  0  0  0  0  0  0  0  0
  -23.3000  -31.7770   23.8210 O   0  0  0  0  0  0  0  0  0  0  0  0
  -22.4680  -29.1940   22.4060 C   0  0  0  0  0  0  0  0  0  0  0  0
  -21.1600  -28.9100   22.2950 N   0  0  0  0  0  0  0  0  0  0  0  0
  -23.2200  -28.5810   23.1690 O   0  0  0  0  0  0  0  0  0  0  0  0
  -20.6100  -29.4680   21.6570 H   0  0  0  0  0  0  0  0  0  0  0  0
  -17.9390  -27.3140   22.6810 C   0  0  0  0  0  0  0  0  0  0  0  0
  -20.4440  -27.8550   23.0120 C   0  0  0  0  0  3  0  0  0  0  0  0
  -20.7200  -26.4690   22.3840 C   0  0  0  0  0  2  0  0  0  0  0  0
  -19.6790  -26.0610   21.3370 C   0  0  0  0  0  2  0  0  0  0  0  0
  -18.2800  -26.0210   21.9580 C   0  0  0  0  0  2  0  0  0  0  0  0
  -18.9560  -28.1820   23.1600 C   0  0  0  0  0  0  0  0  0  0  0  0
  -18.5860  -29.3890   23.7910 C   0  0  0  0  0  3  0  0  0  0  0  0
  -17.2300  -29.7300   23.9550 C   0  0  0  0  0  3  0  0  0  0  0  0
  -16.2280  -28.8580   23.4970 C   0  0  0  0  0  3  0  0  0  0  0  0
  -16.5820  -27.6540   22.8630 C   0  0  0  0  0  3  0  0  0  0  0  0
  -25.6570  -32.1900   23.7310 C   0  0  0  0  0  3  0  0  0  0  0  0
  -25.3870  -33.5830   24.1120 N   0  0  0  0  0  0  0  0  0  0  0  0
  -25.7070  -34.6530   23.3690 C   0  0  0  0  0  0  0  0  0  0  0  0
  -26.3330  -34.5650   22.3110 O   0  0  0  0  0  0  0  0  0  0  0  0
  -24.8300  -33.7290   24.9400 H   0  0  0  0  0  0  0  0  0  0  0  0
  -24.0270  -36.5060   23.0960 C   0  0  0  0  0  1  0  0  0  0  0  0
  -25.2600  -36.0350   23.8820 C   0  0  0  0  0  3  0  0  0  0  0  0
  -27.4060  -36.8440   24.7610 C   0  0  0  0  0  1  0  0  0  0  0  0
  -26.3220  -37.0630   23.8080 N   0  0  0  0  0  0  0  0  0  0  0  0
  -25.9370  -37.9890   23.9740 H   0  0  0  0  0  0  0  0  0  0  0  0
  -26.2330  -31.3870   24.9610 C   0  0  1  0  0  0  0  0  0  0  0  0
  -25.1940  -31.1310   26.0780 C   0  0  0  0  0  1  0  0  0  0  0  0
  -26.7800  -30.0130   24.5080 C   0  0  0  0  0  1  0  0  0  0  0  0
  -27.4230  -32.1560   25.5840 C   0  0  0  0  0  1  0  0  0  0  0  0
  -28.2550  -19.7530   19.6290 C   0  0  0  0  0  2  0  0  0  0  0  0
  -28.7320  -18.2230   19.4230 C   0  0  0  0  0  2  0  0  0  0  0  0
  -29.8060  -17.4000   20.2680 C   0  0  0  0  0  2  0  0  0  0  0  0
  -30.4830  -14.8850   20.0270 C   0  0  0  0  0  0  0  0  0  0  0  0
  -30.3360  -12.6160   19.0430 C   0  0  0  0  0  2  0  0  0  0  0  0
  -29.3260  -12.6690   17.8760 C   0  0  0  0  0  2  0  0  0  0  0  0
  -27.8840  -12.4640   18.3830 C   0  0  0  0  0  2  0  0  0  0  0  0
  -27.5460  -13.3360   19.6210 C   0  0  0  0  0  3  0  0  0  0  0  0
  -28.6650  -13.2570   20.6820 C   0  0  0  0  0  2  0  0  0  0  0  0
  -29.9250  -13.6360   20.0220 N   0  0  0  0  0  0  0  0  0  0  0  0
  -31.6320  -15.0900   19.6280 O   0  0  0  0  0  0  0  0  0  0  0  0
  -29.6200  -15.9080   20.2880 N   0  0  0  0  0  0  0  0  0  0  0  0
  -28.7030  -15.5980   20.5700 H   0  0  0  0  0  0  0  0  0  0  0  0
  -25.1910  -13.8500   20.5170 C   0  0  0  0  0  0  0  0  0  0  0  0
  -24.1640  -13.0350   20.9190 C   0  0  0  0  0  0  0  0  0  0  0  0
  -24.6530  -11.6980   20.7970 C   0  0  0  0  0  0  0  0  0  0  0  0
  -26.2360  -13.0030   20.1790 N   0  0  0  0  0  0  0  0  0  0  0  0
  -25.9210  -11.7030   20.4070 N   0  0  0  0  0  0  0  0  0  0  0  0
  -23.9660  -10.4120   20.9730 C   0  0  0  0  0  0  0  0  0  0  0  0
  -24.3750   -9.4870   21.9590 C   0  0  0  0  0  3  0  0  0  0  0  0
  -23.6890   -8.2650   22.1240 C   0  0  0  0  0  3  0  0  0  0  0  0
  -22.5780   -7.9580   21.3030 C   0  0  0  0  0  0  0  0  0  0  0  0
  -22.1890   -8.8730   20.3070 C   0  0  0  0  0  3  0  0  0  0  0  0
  -22.8760  -10.0870   20.1410 C   0  0  0  0  0  3  0  0  0  0  0  0
  -21.8670   -6.7850   21.3700 O   0  0  0  0  0  0  0  0  0  0  0  0
  -21.6700   -6.1320   22.5610 C   0  0  0  0  0  0  0  0  0  0  0  0
  -20.9280   -6.7100   23.6150 C   0  0  0  0  0  3  0  0  0  0  0  0
  -20.6950   -5.9760   24.7970 C   0  0  0  0  0  3  0  0  0  0  0  0
  -21.1910   -4.6640   24.9210 C   0  0  0  0  0  0  0  0  0  0  0  0
  -21.9230   -4.0860   23.8690 C   0  0  0  0  0  3  0  0  0  0  0  0
  -22.1610   -4.8180   22.6930 C   0  0  0  0  0  0  0  0  0  0  0  0
  -22.8500   -4.2470   21.6750 F   0  0  0  0  0  0  0  0  0  0  0  0
  -20.9590   -3.9570   26.0520 F   0  0  0  0  0  0  0  0  0  0  0  0
  -22.7780  -13.4680   21.2990 C   0  0  0  0  0  0  0  0  0  0  0  0
  -22.1160  -12.7100   22.1690 N   0  0  0  0  0  0  0  0  0  0  0  0
  -22.2920  -14.5080   20.8610 O   0  0  0  0  0  0  0  0  0  0  0  0
  -22.5270  -11.8710   22.5480 H   0  0  0  0  0  0  0  0  0  0  0  0
  -21.1880  -12.9800   22.4630 H   0  0  0  0  0  0  0  0  0  0  0  0
  -25.3150  -15.2290   20.3920 N   0  0  0  0  0  0  0  0  0  0  0  0
  -24.5410  -15.8590   20.5670 H   0  0  0  0  0  0  0  0  0  0  0  0
  -26.1230  -15.6990   20.0040 H   0  0  0  0  0  0  0  0  0  0  0  0
  1  2  1  0
  3  1  2  0
  4  3  1  0
  4  5  2  0
  5  7  1  0
  6  5  1  0
  7  2  2  0
  8 10  1  0
  8  4  1  0
  9  8  1  0
 12 11  1  0
 12 13  1  0
 12 10  1  0
 13 15  1  0
 14 25  2  0
 15 20  1  0
 16 24  1  0
 16 26  1  0
 17 23  1  0
 17 19  1  0
 18 24  1  0
 19 18  1  0
 20 19  2  0
 21 22  1  0
 21 15  2  0
 22 17  2  0
 23 16  1  0
 24 14  1  0
 26 28  2  0
 27 26  1  0
 29 27  1  0
 30 39  2  0
 30 35  1  0
 31 27  1  0
 31 35  1  0
 32 31  1  0
 33 34  1  0
 33 32  1  0
 34 30  1  0
 35 36  2  0
 36 37  1  0
 38 37  2  0
 39 38  1  0
 40 14  1  0
 40 41  1  0
 40 50  1  0
 41 44  1  0
 42 46  1  0
 42 41  1  0
 43 42  2  0
 46 45  1  0
 48 46  1  0
 48 49  1  0
 48 47  1  0
 50 53  1  1
 50 51  1  0
 52 50  1  0
 54  3  1  0
 55 54  1  0
 55 56  1  0
 56 65  1  0
 57 65  1  0
 58 63  1  0
 59 60  1  0
 59 58  1  0
 61 60  1  0
 61 70  1  0
 61 62  1  0
 63 57  1  0
 63 62  1  0
 64 57  2  0
 65 66  1  0
 67 68  2  0
 68 87  1  0
 69 68  1  0
 69 72  1  0
 70 71  1  0
 70 67  1  0
 71 69  2  0
 72 73  1  0
 73 74  2  0
 75 78  1  0
 75 74  1  0
 76 75  2  0
 77 76  1  0
 77 72  2  0
 78 79  1  0
 79 84  2  0
 79 80  1  0
 80 81  2  0
 81 82  1  0
 82 86  1  0
 83 82  2  0
 84 83  1  0
 85 84  1  0
 87 88  1  0
 88 91  1  0
 88 90  1  0
 89 87  2  0
 92 67  1  0
 92 93  1  0
 94 92  1  0
M  ISO  4  12 101  13 101  57 100  65 100
M  END
>  <TORSDO>  (17) 
F 22

>  <SCORE>  (17) 
-12.241

>  <name>  (17) 
16

>  <ligand_id>  (17) 
16

>  <original_smiles>  (17) 
[H]c1nc(C([H])([H])[H])c(N([H])C([H])([H])C([H])(Oc2c([H])c([H])c3c(c2[H])C([H])([H])N(C(=O)C([H])(N([H])C(=O)C([H])(N([H])C([H])([H])[H])C([H])([H])[H])C(C([H])([H])[H])(C([H])([H])[H])C([H])([H])[H])C([H])(C(=O)N([H])C2([H])c4c([H])c([H])c([H])c([H])c4C([H])([H])C([H])([H])C2([H])[H])C3([H])[H])C([H])([H])[H])c(C([H])([H])C([H])([H])C([H])([H])N([H])C(=O)N2C([H])([H])C([H])([H])C([H])([H])C([H])(n3nc(-c4c([H])c([H])c(Oc5c([H])c([H])c(F)c([H])c5F)c([H])c4[H])c(C(=O)N([H])[H])c3N([H])[H])C2([H])[H])c1[H]

>  <smiles>  (17) 
[H]c1nc(C([H])([H])[H])c(N([H])C([H])([H])C([H])(Oc2c([H])c([H])c3c(c2[H])C([H])([H])N(C(=O)C([H])(N([H])C(=O)C([H])(N([H])C([H])([H])[H])C([H])([H])[H])C(C([H])([H])[H])(C([H])([H])[H])C([H])([H])[H])C([H])(C(=O)N([H])C2([H])c4c([H])c([H])c([H])c([H])c4C([H])([H])C([H])([H])C2([H])[H])C3([H])[H])C([H])([H])[H])c(C([H])([H])C([H])([H])C([H])([H])N([H])C(=O)N2C([H])([H])C([H])([H])C([H])([H])C([H])(n3nc(-c4c([H])c([H])c(Oc5c([H])c([H])c(F)c([H])c5F)c([H])c4[H])c(C(=O)N([H])[H])c3N([H])[H])C2([H])[H])c1[H]

$$$$
17:0:0
     RDKit          3D

 94102  0  0  1  0  0  0  0  0999 V2000
  -30.5960  -21.7740   16.3300 C   0  0  0  0  0  3  0  0  0  0  0  0
  -31.1650  -20.5320   16.6430 C   0  0  0  0  0  3  0  0  0  0  0  0
  -29.9250  -22.5100   17.3220 C   0  0  0  0  0  3  0  0  0  0  0  0
  -31.0450  -20.0250   17.9460 C   0  0  0  0  0  3  0  0  0  0  0  0
  -29.8010  -22.0290   18.6500 C   0  0  0  0  0  0  0  0  0  0  0  0
  -30.3550  -20.7400   18.9520 C   0  0  0  0  0  0  0  0  0  0  0  0
  -29.0910  -22.9150   19.7000 C   0  0  0  0  0  3  0  0  0  0  0  0
  -28.8890  -24.4160   19.3100 C   0  0  0  0  0  3  0  0  0  0  0  0
  -28.3620  -25.3280   20.4440 C   0  0  0  0  0  2  0  0  0  0  0  0
  -28.4150  -26.7240   20.0930 O   0  0  0  0  0  0  0  0  0  0  0  0
  -24.6140  -31.8840   23.2260 C   0  0  0  0  0  0  0  0  0  0  0  0
  -27.2340  -27.4410   20.1120 C   0  0  0  0  0  0  0  0  0  0  0  0
  -23.3940  -30.4800   21.5940 C   0  0  0  0  0  3  0  0  0  0  0  0
  -24.8340  -28.9410   20.1550 C   0  0  0  0  0  0  0  0  0  0  0  0
  -25.9180  -30.8400   21.3720 C   0  0  0  0  0  2  0  0  0  0  0  0
  -25.9980  -29.4690   20.7270 C   0  0  0  0  0  0  0  0  0  0  0  0
  -27.2020  -28.7300   20.6940 C   0  0  0  0  0  3  0  0  0  0  0  0
  -26.0540  -26.9260   19.5360 C   0  0  0  0  0  3  0  0  0  0  0  0
  -24.8560  -27.6680   19.5570 C   0  0  0  0  0  3  0  0  0  0  0  0
  -23.5900  -29.8010   20.2120 C   0  0  0  0  0  2  0  0  0  0  0  0
  -24.6610  -31.0840   22.1220 N   0  0  0  0  0  0  0  0  0  0  0  0
  -23.5370  -32.1580   23.7740 O   0  0  0  0  0  0  0  0  0  0  0  0
  -22.7510  -29.4590   22.5590 C   0  0  0  0  0  0  0  0  0  0  0  0
  -21.4250  -29.2750   22.4420 N   0  0  0  0  0  0  0  0  0  0  0  0
  -23.4410  -28.8340   23.3690 O   0  0  0  0  0  0  0  0  0  0  0  0
  -20.9300  -29.8330   21.7600 H   0  0  0  0  0  0  0  0  0  0  0  0
  -18.0580  -28.0730   22.9590 C   0  0  0  0  0  0  0  0  0  0  0  0
  -20.6160  -28.3370   23.2180 C   0  0  0  0  0  3  0  0  0  0  0  0
  -20.7180  -26.9060   22.6400 C   0  0  0  0  0  2  0  0  0  0  0  0
  -19.6120  -26.5800   21.6330 C   0  0  0  0  0  2  0  0  0  0  0  0
  -18.2330  -26.7240   22.2830 C   0  0  0  0  0  2  0  0  0  0  0  0
  -19.1780  -28.8380   23.3820 C   0  0  0  0  0  0  0  0  0  0  0  0
  -18.9600  -30.1030   23.9700 C   0  0  0  0  0  3  0  0  0  0  0  0
  -17.6550  -30.6020   24.1440 C   0  0  0  0  0  3  0  0  0  0  0  0
  -16.5500  -29.8340   23.7380 C   0  0  0  0  0  3  0  0  0  0  0  0
  -16.7520  -28.5730   23.1500 C   0  0  0  0  0  3  0  0  0  0  0  0
  -25.9050  -32.5130   23.8360 C   0  0  0  0  0  3  0  0  0  0  0  0
  -25.6020  -33.9090   24.1750 N   0  0  0  0  0  0  0  0  0  0  0  0
  -25.9250  -34.9640   23.4160 C   0  0  0  0  0  0  0  0  0  0  0  0
  -26.5850  -34.8650   22.3770 O   0  0  0  0  0  0  0  0  0  0  0  0
  -25.0190  -34.0610   24.9860 H   0  0  0  0  0  0  0  0  0  0  0  0
  -24.1950  -36.7580   23.0810 C   0  0  0  0  0  1  0  0  0  0  0  0
  -25.4400  -36.3500   23.8840 C   0  0  0  0  0  3  0  0  0  0  0  0
  -27.5790  -37.2290   24.7070 C   0  0  0  0  0  1  0  0  0  0  0  0
  -26.4700  -37.4040   23.7720 N   0  0  0  0  0  0  0  0  0  0  0  0
  -26.0650  -38.3230   23.9300 H   0  0  0  0  0  0  0  0  0  0  0  0
  -26.4410  -31.7340   25.1000 C   0  0  1  0  0  0  0  0  0  0  0  0
  -25.3630  -31.4850   26.1800 C   0  0  0  0  0  1  0  0  0  0  0  0
  -27.0220  -30.3610   24.6870 C   0  0  0  0  0  1  0  0  0  0  0  0
  -27.6010  -32.5250   25.7490 C   0  0  0  0  0  1  0  0  0  0  0  0
  -30.2710  -20.0560   20.3230 C   0  0  0  0  0  2  0  0  0  0  0  0
  -29.1430  -19.0990   20.4000 N   0  0  0  0  0  4  0  0  0  0  0  0
  -28.4520  -19.4290   19.7460 H   0  0  0  0  0  0  0  0  0  0  0  0
  -28.7300  -19.1760   21.3150 H   0  0  0  0  0  0  0  0  0  0  0  0
  -29.3890  -17.6570   20.1130 C   0  0  0  0  0  2  0  0  0  0  0  0
  -30.1690  -16.8880   21.2180 C   0  0  0  0  0  2  0  0  0  0  0  0
  -30.6550  -14.4830   20.5460 C   0  0  0  0  0  0  0  0  0  0  0  0
  -30.3800  -12.3440   19.3450 C   0  0  0  0  0  2  0  0  0  0  0  0
  -29.4340  -12.5700   18.1450 C   0  0  0  0  0  2  0  0  0  0  0  0
  -27.9560  -12.4380   18.5650 C   0  0  0  0  0  2  0  0  0  0  0  0
  -27.6210  -13.2390   19.8500 C   0  0  0  0  0  3  0  0  0  0  0  0
  -28.6730  -12.9740   20.9510 C   0  0  0  0  0  2  0  0  0  0  0  0
  -30.0030  -13.2980   20.3990 N   0  0  0  0  0  0  0  0  0  0  0  0
  -31.7560  -14.7250   20.0470 O   0  0  0  0  0  0  0  0  0  0  0  0
  -29.9290  -15.4380   21.1500 N   0  0  0  0  0  0  0  0  0  0  0  0
  -29.0560  -15.1150   21.5390 H   0  0  0  0  0  0  0  0  0  0  0  0
  -25.2110  -13.8410   20.5360 C   0  0  0  0  0  0  0  0  0  0  0  0
  -24.1430  -13.0660   20.9030 C   0  0  0  0  0  0  0  0  0  0  0  0
  -24.6100  -11.7170   20.8840 C   0  0  0  0  0  0  0  0  0  0  0  0
  -26.2630  -12.9630   20.3180 N   0  0  0  0  0  0  0  0  0  0  0  0
  -25.9020  -11.6810   20.5810 N   0  0  0  0  0  0  0  0  0  0  0  0
  -23.8870  -10.4530   21.0790 C   0  0  0  0  0  0  0  0  0  0  0  0
  -24.3310   -9.4830   22.0040 C   0  0  0  0  0  3  0  0  0  0  0  0
  -23.6100   -8.2840   22.1850 C   0  0  0  0  0  3  0  0  0  0  0  0
  -22.4330   -8.0440   21.4380 C   0  0  0  0  0  0  0  0  0  0  0  0
  -22.0080   -9.0030   20.5000 C   0  0  0  0  0  3  0  0  0  0  0  0
  -22.7310  -10.1940   20.3180 C   0  0  0  0  0  3  0  0  0  0  0  0
  -21.6840   -6.8960   21.5270 O   0  0  0  0  0  0  0  0  0  0  0  0
  -21.6620   -6.1380   22.6700 C   0  0  0  0  0  0  0  0  0  0  0  0
  -21.2710   -6.6770   23.9160 C   0  0  0  0  0  3  0  0  0  0  0  0
  -21.1960   -5.8460   25.0510 C   0  0  0  0  0  3  0  0  0  0  0  0
  -21.5020   -4.4750   24.9420 C   0  0  0  0  0  0  0  0  0  0  0  0
  -21.8830   -3.9350   23.7010 C   0  0  0  0  0  3  0  0  0  0  0  0
  -21.9600   -4.7640   22.5680 C   0  0  0  0  0  0  0  0  0  0  0  0
  -22.3100   -4.2330   21.3720 F   0  0  0  0  0  0  0  0  0  0  0  0
  -21.4220   -3.6750   26.0300 F   0  0  0  0  0  0  0  0  0  0  0  0
  -22.7420  -13.5400   21.1650 C   0  0  0  0  0  0  0  0  0  0  0  0
  -22.0110  -12.8450   22.0290 N   0  0  0  0  0  0  0  0  0  0  0  0
  -22.3020  -14.5610   20.6360 O   0  0  0  0  0  0  0  0  0  0  0  0
  -22.3790  -12.0180   22.4770 H   0  0  0  0  0  0  0  0  0  0  0  0
  -21.0720  -13.1440   22.2450 H   0  0  0  0  0  0  0  0  0  0  0  0
  -25.3710  -15.2100   20.3520 N   0  0  0  0  0  0  0  0  0  0  0  0
  -24.5970  -15.8580   20.4440 H   0  0  0  0  0  0  0  0  0  0  0  0
  -26.2060  -15.6430   19.9810 H   0  0  0  0  0  0  0  0  0  0  0  0
  1  2  2  0
  1  3  1  0
  2  4  1  0
  3  5  2  0
  4  6  2  0
  5  6  1  0
  5  7  1  0
  6 51  1  0
  8  7  2  0
  8  9  1  0
 10 12  1  0
 10  9  1  0
 11 22  2  0
 12 17  1  0
 13 21  1  0
 13 23  1  0
 14 20  1  0
 14 16  1  0
 15 21  1  0
 16 15  1  0
 17 16  2  0
 18 19  1  0
 18 12  2  0
 19 14  2  0
 20 13  1  0
 21 11  1  0
 23 25  2  0
 24 23  1  0
 26 24  1  0
 27 36  2  0
 27 32  1  0
 28 24  1  0
 28 32  1  0
 29 28  1  0
 30 31  1  0
 30 29  1  0
 31 27  1  0
 32 33  2  0
 33 34  1  0
 35 34  2  0
 36 35  1  0
 37 11  1  0
 37 38  1  0
 37 47  1  0
 38 41  1  0
 39 43  1  0
 39 38  1  0
 40 39  2  0
 43 42  1  0
 45 43  1  0
 45 46  1  0
 45 44  1  0
 47 50  1  1
 47 48  1  0
 49 47  1  0
 51 52  1  0
 52 54  1  0
 53 52  1  0
 55 52  1  0
 55 56  1  0
 57 65  1  0
 58 63  1  0
 59 60  1  0
 59 58  1  0
 61 60  1  0
 61 70  1  0
 61 62  1  0
 63 57  1  0
 63 62  1  0
 64 57  2  0
 65 56  1  0
 65 66  1  0
 67 68  2  0
 68 87  1  0
 69 68  1  0
 69 72  1  0
 70 67  1  0
 70 71  1  0
 71 69  2  0
 72 73  1  0
 73 74  2  0
 75 78  1  0
 75 74  1  0
 76 75  2  0
 77 76  1  0
 77 72  2  0
 78 79  1  0
 79 80  1  0
 80 81  2  0
 82 81  1  0
 82 86  1  0
 83 82  2  0
 84 79  2  0
 84 83  1  0
 85 84  1  0
 87 88  1  0
 88 91  1  0
 88 90  1  0
 89 87  2  0
 92 93  1  0
 92 67  1  0
 94 92  1  0
M  ISO  4   9 101  10 101  57 100  65 100
M  END
>  <TORSDO>  (18) 
F 23

>  <SCORE>  (18) 
-12.866

>  <name>  (18) 
17

>  <ligand_id>  (18) 
17

>  <original_smiles>  (18) 
[H]c1c([H])c([H])c(C([H])([H])[N+]([H])([H])C([H])([H])C([H])([H])N([H])C(=O)N2C([H])([H])C([H])([H])C([H])([H])C([H])(n3nc(-c4c([H])c([H])c(Oc5c([H])c([H])c(F)c([H])c5F)c([H])c4[H])c(C(=O)N([H])[H])c3N([H])[H])C2([H])[H])c(C([H])([H])C([H])([H])C([H])([H])Oc2c([H])c([H])c3c(c2[H])C([H])([H])N(C(=O)C([H])(N([H])C(=O)C([H])(N([H])C([H])([H])[H])C([H])([H])[H])C(C([H])([H])[H])(C([H])([H])[H])C([H])([H])[H])C([H])(C(=O)N([H])C2([H])c4c([H])c([H])c([H])c([H])c4C([H])([H])C([H])([H])C2([H])[H])C3([H])[H])c1[H]

>  <smiles>  (18) 
[H]c1c([H])c([H])c(C([H])([H])[N+]([H])([H])C([H])([H])C([H])([H])N([H])C(=O)N2C([H])([H])C([H])([H])C([H])([H])C([H])(n3nc(-c4c([H])c([H])c(Oc5c([H])c([H])c(F)c([H])c5F)c([H])c4[H])c(C(=O)N([H])[H])c3N([H])[H])C2([H])[H])c(C([H])([H])C([H])([H])C([H])([H])Oc2c([H])c([H])c3c(c2[H])C([H])([H])N(C(=O)C([H])(N([H])C(=O)C([H])(N([H])C([H])([H])[H])C([H])([H])[H])C(C([H])([H])[H])(C([H])([H])[H])C([H])([H])[H])C([H])(C(=O)N([H])C2([H])c4c([H])c([H])c([H])c([H])c4C([H])([H])C([H])([H])C2([H])[H])C3([H])[H])c1[H]

$$$$
18:0:0
     RDKit          3D

 94102  0  0  1  0  0  0  0  0999 V2000
  -29.0790  -22.3540   19.6480 C   0  0  0  0  0  3  0  0  0  0  0  0
  -28.8860  -23.6650   20.2600 C   0  0  0  0  0  0  0  0  0  0  0  0
  -29.2410  -23.4360   21.5710 C   0  0  0  0  0  0  0  0  0  0  0  0
  -29.5610  -21.4070   20.5450 C   0  0  0  0  0  0  0  0  0  0  0  0
  -29.2320  -24.4450   22.6810 C   0  0  0  0  0  1  0  0  0  0  0  0
  -29.6840  -22.0950   21.7680 N   0  0  0  0  0  0  0  0  0  0  0  0
  -31.7470  -22.1530   23.1510 C   0  0  0  0  0  1  0  0  0  0  0  0
  -30.2200  -20.1530   23.3660 C   0  0  0  0  0  1  0  0  0  0  0  0
  -30.2990  -21.6500   23.0420 C   0  0  0  0  0  3  0  0  0  0  0  0
  -29.0890  -25.2320   18.2330 C   0  0  0  0  0  1  0  0  0  0  0  0
  -28.3380  -25.0010   19.5480 C   0  0  0  0  0  3  0  0  0  0  0  0
  -28.3180  -26.3670   20.1970 O   0  0  0  0  0  0  0  0  0  0  0  0
  -24.6570  -31.8940   23.1730 C   0  0  0  0  0  0  0  0  0  0  0  0
  -27.2240  -27.2720   20.0900 C   0  0  0  0  0  0  0  0  0  0  0  0
  -23.4420  -30.5060   21.5400 C   0  0  0  0  0  3  0  0  0  0  0  0
  -24.8770  -28.9560   20.1000 C   0  0  0  0  0  0  0  0  0  0  0  0
  -25.9920  -30.7930   21.3530 C   0  0  0  0  0  2  0  0  0  0  0  0
  -26.0580  -29.4140   20.6960 C   0  0  0  0  0  0  0  0  0  0  0  0
  -27.2260  -28.5840   20.6840 C   0  0  0  0  0  3  0  0  0  0  0  0
  -26.0140  -26.8990   19.4540 C   0  0  0  0  0  3  0  0  0  0  0  0
  -24.8610  -27.7060   19.4720 C   0  0  0  0  0  3  0  0  0  0  0  0
  -23.6450  -29.8360   20.1570 C   0  0  0  0  0  2  0  0  0  0  0  0
  -24.7170  -31.0870   22.0740 N   0  0  0  0  0  0  0  0  0  0  0  0
  -23.5740  -32.1710   23.7110 O   0  0  0  0  0  0  0  0  0  0  0  0
  -22.7800  -29.4870   22.4990 C   0  0  0  0  0  0  0  0  0  0  0  0
  -21.4520  -29.3060   22.3710 N   0  0  0  0  0  0  0  0  0  0  0  0
  -23.4590  -28.8620   23.3170 O   0  0  0  0  0  0  0  0  0  0  0  0
  -20.9630  -29.8660   21.6860 H   0  0  0  0  0  0  0  0  0  0  0  0
  -18.0810  -28.0700   22.8520 C   0  0  0  0  0  0  0  0  0  0  0  0
  -20.6340  -28.3670   23.1440 C   0  0  0  0  0  3  0  0  0  0  0  0
  -20.7570  -26.9300   22.5860 C   0  0  0  0  0  2  0  0  0  0  0  0
  -19.6700  -26.5800   21.5650 C   0  0  0  0  0  2  0  0  0  0  0  0
  -18.2790  -26.7160   22.1910 C   0  0  0  0  0  2  0  0  0  0  0  0
  -19.1860  -28.8520   23.2830 C   0  0  0  0  0  0  0  0  0  0  0  0
  -18.9450  -30.1170   23.8590 C   0  0  0  0  0  3  0  0  0  0  0  0
  -17.6310  -30.6060   24.0020 C   0  0  0  0  0  3  0  0  0  0  0  0
  -16.5430  -29.8230   23.5810 C   0  0  0  0  0  3  0  0  0  0  0  0
  -16.7680  -28.5550   23.0180 C   0  0  0  0  0  3  0  0  0  0  0  0
  -25.9410  -32.5230   23.7940 C   0  0  0  0  0  3  0  0  0  0  0  0
  -25.6340  -33.9190   24.1430 N   0  0  0  0  0  0  0  0  0  0  0  0
  -25.9540  -34.9800   23.3910 C   0  0  0  0  0  0  0  0  0  0  0  0
  -26.6080  -34.8900   22.3500 O   0  0  0  0  0  0  0  0  0  0  0  0
  -25.0500  -34.0640   24.9540 H   0  0  0  0  0  0  0  0  0  0  0  0
  -24.2120  -36.7690   23.0760 C   0  0  0  0  0  1  0  0  0  0  0  0
  -25.4680  -36.3640   23.8660 C   0  0  0  0  0  3  0  0  0  0  0  0
  -27.6130  -37.2440   24.6730 C   0  0  0  0  0  1  0  0  0  0  0  0
  -26.4970  -37.4200   23.7450 N   0  0  0  0  0  0  0  0  0  0  0  0
  -26.0920  -38.3390   23.9030 H   0  0  0  0  0  0  0  0  0  0  0  0
  -26.4670  -31.7400   25.0590 C   0  0  1  0  0  0  0  0  0  0  0  0
  -25.3820  -31.4960   26.1340 C   0  0  0  0  0  1  0  0  0  0  0  0
  -27.0480  -30.3660   24.6510 C   0  0  0  0  0  1  0  0  0  0  0  0
  -27.6230  -32.5300   25.7170 C   0  0  0  0  0  1  0  0  0  0  0  0
  -30.0380  -20.0740   20.1790 N   0  0  0  0  0  0  0  0  0  0  0  0
  -30.3440  -20.0970   19.2090 H   0  0  0  0  0  0  0  0  0  0  0  0
  -29.4440  -18.7070   20.4840 C   0  0  0  0  0  3  0  0  0  0  0  0
  -30.4450  -17.4230   20.4000 C   0  0  0  0  0  3  0  0  0  0  0  0
  -30.6970  -14.8140   20.3410 C   0  0  0  0  0  0  0  0  0  0  0  0
  -30.4740  -12.5360   19.3400 C   0  0  0  0  0  2  0  0  0  0  0  0
  -29.5440  -12.6180   18.1120 C   0  0  0  0  0  2  0  0  0  0  0  0
  -28.0760  -12.4440   18.5410 C   0  0  0  0  0  2  0  0  0  0  0  0
  -27.7000  -13.3360   19.7550 C   0  0  0  0  0  3  0  0  0  0  0  0
  -28.7550  -13.2520   20.8790 C   0  0  0  0  0  2  0  0  0  0  0  0
  -30.0520  -13.5970   20.2850 N   0  0  0  0  0  0  0  0  0  0  0  0
  -31.8820  -14.8890   20.0070 O   0  0  0  0  0  0  0  0  0  0  0  0
  -29.9620  -15.9750   20.5570 N   0  0  0  0  0  0  0  0  0  0  0  0
  -28.9920  -15.8440   20.7990 H   0  0  0  0  0  0  0  0  0  0  0  0
  -25.3180  -13.9330   20.4830 C   0  0  0  0  0  0  0  0  0  0  0  0
  -24.2510  -13.1630   20.8560 C   0  0  0  0  0  0  0  0  0  0  0  0
  -24.7090  -11.8100   20.8280 C   0  0  0  0  0  0  0  0  0  0  0  0
  -26.3560  -13.0500   20.2460 N   0  0  0  0  0  0  0  0  0  0  0  0
  -25.9990  -11.7680   20.5160 N   0  0  0  0  0  0  0  0  0  0  0  0
  -23.9790  -10.5510   21.0180 C   0  0  0  0  0  0  0  0  0  0  0  0
  -24.4110   -9.5810   21.9490 C   0  0  0  0  0  3  0  0  0  0  0  0
  -23.6810   -8.3870   22.1280 C   0  0  0  0  0  3  0  0  0  0  0  0
  -22.5040   -8.1540   21.3770 C   0  0  0  0  0  0  0  0  0  0  0  0
  -22.0920   -9.1130   20.4350 C   0  0  0  0  0  3  0  0  0  0  0  0
  -22.8220  -10.3000   20.2530 C   0  0  0  0  0  3  0  0  0  0  0  0
  -21.7450   -7.0130   21.4680 O   0  0  0  0  0  0  0  0  0  0  0  0
  -21.6930   -6.2710   22.6200 C   0  0  0  0  0  0  0  0  0  0  0  0
  -21.2820   -6.8310   23.8490 C   0  0  0  0  0  3  0  0  0  0  0  0
  -21.1770   -6.0160   24.9940 C   0  0  0  0  0  3  0  0  0  0  0  0
  -21.4740   -4.6420   24.9100 C   0  0  0  0  0  0  0  0  0  0  0  0
  -21.8800   -4.0820   23.6860 C   0  0  0  0  0  3  0  0  0  0  0  0
  -21.9870   -4.8950   22.5440 C   0  0  0  0  0  0  0  0  0  0  0  0
  -22.3560   -4.3450   21.3620 F   0  0  0  0  0  0  0  0  0  0  0  0
  -21.3670   -3.8570   26.0080 F   0  0  0  0  0  0  0  0  0  0  0  0
  -22.8560  -13.6460   21.1270 C   0  0  0  0  0  0  0  0  0  0  0  0
  -22.1270  -12.9550   21.9970 N   0  0  0  0  0  0  0  0  0  0  0  0
  -22.4230  -14.6710   20.6030 O   0  0  0  0  0  0  0  0  0  0  0  0
  -22.4920  -12.1260   22.4410 H   0  0  0  0  0  0  0  0  0  0  0  0
  -21.1900  -13.2610   22.2180 H   0  0  0  0  0  0  0  0  0  0  0  0
  -25.4900  -15.3030   20.3020 N   0  0  0  0  0  0  0  0  0  0  0  0
  -24.7240  -15.9610   20.3920 H   0  0  0  0  0  0  0  0  0  0  0  0
  -26.3350  -15.7320   19.9490 H   0  0  0  0  0  0  0  0  0  0  0  0
  1  2  1  0
  1  4  2  0
  2  3  2  0
  3  6  1  0
  3  5  1  0
  4  6  1  0
  6  9  1  0
  9  7  1  0
  9  8  1  0
 11 10  1  0
 11 12  1  0
 11  2  1  0
 13 24  2  0
 14 12  1  0
 14 19  1  0
 15 23  1  0
 15 25  1  0
 16 22  1  0
 16 18  1  0
 17 23  1  0
 18 17  1  0
 19 18  2  0
 20 21  1  0
 20 14  2  0
 21 16  2  0
 22 15  1  0
 23 13  1  0
 25 27  2  0
 26 25  1  0
 28 26  1  0
 29 38  2  0
 29 34  1  0
 30 26  1  0
 30 34  1  0
 31 30  1  0
 32 33  1  0
 32 31  1  0
 33 29  1  0
 34 35  2  0
 35 36  1  0
 37 36  2  0
 38 37  1  0
 39 13  1  0
 39 40  1  0
 39 49  1  0
 40 43  1  0
 41 45  1  0
 41 40  1  0
 42 41  2  0
 45 44  1  0
 47 45  1  0
 47 48  1  0
 47 46  1  0
 49 52  1  1
 49 50  1  0
 51 49  1  0
 53 55  1  0
 53  4  1  0
 54 53  1  0
 56 55  2  0
 56 65  1  0
 57 65  1  0
 58 63  1  0
 59 60  1  0
 59 58  1  0
 61 60  1  0
 61 70  1  0
 61 62  1  0
 63 57  1  0
 63 62  1  0
 64 57  2  0
 65 66  1  0
 67 68  2  0
 68 87  1  0
 69 68  1  0
 69 72  1  0
 70 67  1  0
 70 71  1  0
 71 69  2  0
 72 73  1  0
 73 74  2  0
 75 78  1  0
 75 74  1  0
 76 75  2  0
 77 76  1  0
 77 72  2  0
 78 79  1  0
 79 80  1  0
 80 81  2  0
 82 81  1  0
 82 86  1  0
 83 82  2  0
 84 79  2  0
 84 83  1  0
 85 84  1  0
 87 88  1  0
 88 91  1  0
 88 90  1  0
 89 87  2  0
 92 93  1  0
 92 67  1  0
 94 92  1  0
M  ISO  4  11 101  12 101  57 100  65 100
M  END
>  <TORSDO>  (19) 
F 21

>  <SCORE>  (19) 
-12.513

>  <name>  (19) 
18

>  <ligand_id>  (19) 
18

>  <original_smiles>  (19) 
[H]c1c([H])c([H])c2c(c1[H])C([H])([H])C([H])([H])C([H])([H])C2([H])N([H])C(=O)C1([H])N(C(=O)C([H])(N([H])C(=O)C([H])(N([H])C([H])([H])[H])C([H])([H])[H])C(C([H])([H])[H])(C([H])([H])[H])C([H])([H])[H])C([H])([H])c2c([H])c(OC([H])(c3c([H])c(N([H])C([H])([H])C([H])([H])N([H])C(=O)N4C([H])([H])C([H])([H])C([H])([H])C([H])(n5nc(-c6c([H])c([H])c(Oc7c([H])c([H])c(F)c([H])c7F)c([H])c6[H])c(C(=O)N([H])[H])c5N([H])[H])C4([H])[H])n(C([H])(C([H])([H])[H])C([H])([H])[H])c3C([H])([H])[H])C([H])([H])[H])c([H])c([H])c2C1([H])[H]

>  <smiles>  (19) 
[H]c1c([H])c([H])c2c(c1[H])C([H])([H])C([H])([H])C([H])([H])C2([H])N([H])C(=O)C1([H])N(C(=O)C([H])(N([H])C(=O)C([H])(N([H])C([H])([H])[H])C([H])([H])[H])C(C([H])([H])[H])(C([H])([H])[H])C([H])([H])[H])C([H])([H])c2c([H])c(OC([H])(c3c([H])c(N([H])C([H])([H])C([H])([H])N([H])C(=O)N4C([H])([H])C([H])([H])C([H])([H])C([H])(n5nc(-c6c([H])c([H])c(Oc7c([H])c([H])c(F)c([H])c7F)c([H])c6[H])c(C(=O)N([H])[H])c5N([H])[H])C4([H])[H])n(C([H])(C([H])([H])[H])C([H])([H])[H])c3C([H])([H])[H])C([H])([H])[H])c([H])c([H])c2C1([H])[H]

$$$$
19:0:0
     RDKit          3D

 93102  0  0  1  0  0  0  0  0999 V2000
  -29.1900  -22.6430   19.4920 C   0  0  0  0  0  3  0  0  0  0  0  0
  -29.1070  -24.0890   19.4160 C   0  0  0  0  0  3  0  0  0  0  0  0
  -27.6810  -22.6940   21.3110 C   0  0  0  0  0  3  0  0  0  0  0  0
  -28.4720  -21.8540   20.4460 C   0  0  0  0  0  0  0  0  0  0  0  0
  -27.5960  -24.1420   21.2450 C   0  0  0  0  0  0  0  0  0  0  0  0
  -28.2960  -24.9200   20.2650 C   0  0  0  0  0  0  0  0  0  0  0  0
  -26.7150  -24.8520   22.2640 C   0  0  0  0  0  1  0  0  0  0  0  0
  -27.5890  -19.5250   19.2460 C   0  0  0  0  0  2  0  0  0  0  0  0
  -28.2800  -20.2220   20.4030 C   0  0  0  0  0  3  0  0  0  0  0  0
  -28.8190  -18.6760   20.7690 C   0  0  0  0  0  3  0  0  0  0  0  0
  -27.6160  -18.2780   20.0210 N   0  0  0  0  0  4  0  0  0  0  0  0
  -27.7550  -17.4780   19.4310 H   0  0  0  0  0  0  0  0  0  0  0  0
  -26.8050  -18.1610   20.6080 H   0  0  0  0  0  0  0  0  0  0  0  0
  -29.9770  -17.5930   20.2930 C   0  0  0  0  0  2  0  0  0  0  0  0
  -30.5420  -14.9310   20.0830 C   0  0  0  0  0  0  0  0  0  0  0  0
  -30.3740  -12.6440   19.0350 C   0  0  0  0  0  2  0  0  0  0  0  0
  -29.3670  -12.6510   17.8600 C   0  0  0  0  0  2  0  0  0  0  0  0
  -27.9310  -12.4400   18.3710 C   0  0  0  0  0  2  0  0  0  0  0  0
  -27.5940  -13.3350   19.5930 C   0  0  0  0  0  3  0  0  0  0  0  0
  -28.7030  -13.2660   20.6650 C   0  0  0  0  0  2  0  0  0  0  0  0
  -29.9550  -13.6810   20.0180 N   0  0  0  0  0  0  0  0  0  0  0  0
  -31.7010  -15.0620   19.6670 O   0  0  0  0  0  0  0  0  0  0  0  0
  -29.7530  -16.0450   20.4210 N   0  0  0  0  0  0  0  0  0  0  0  0
  -28.8560  -15.7610   20.7850 H   0  0  0  0  0  0  0  0  0  0  0  0
  -25.2560  -13.9090   20.4730 C   0  0  0  0  0  0  0  0  0  0  0  0
  -24.2120  -13.1270   20.8870 C   0  0  0  0  0  0  0  0  0  0  0  0
  -24.6700  -11.7760   20.7880 C   0  0  0  0  0  0  0  0  0  0  0  0
  -26.2800  -13.0340   20.1470 N   0  0  0  0  0  0  0  0  0  0  0  0
  -25.9420  -11.7460   20.4060 N   0  0  0  0  0  0  0  0  0  0  0  0
  -23.9530  -10.5080   20.9750 C   0  0  0  0  0  0  0  0  0  0  0  0
  -24.3940   -9.5410   21.9050 C   0  0  0  0  0  3  0  0  0  0  0  0
  -23.6810   -8.3360   22.0770 C   0  0  0  0  0  3  0  0  0  0  0  0
  -22.5090   -8.0900   21.3210 C   0  0  0  0  0  0  0  0  0  0  0  0
  -22.0850   -9.0480   20.3810 C   0  0  0  0  0  3  0  0  0  0  0  0
  -22.8020  -10.2440   20.2070 C   0  0  0  0  0  3  0  0  0  0  0  0
  -21.7660   -6.9370   21.4070 O   0  0  0  0  0  0  0  0  0  0  0  0
  -21.6680   -6.2320   22.5790 C   0  0  0  0  0  0  0  0  0  0  0  0
  -21.1460   -6.8130   23.7560 C   0  0  0  0  0  3  0  0  0  0  0  0
  -21.0020   -6.0350   24.9210 C   0  0  0  0  0  3  0  0  0  0  0  0
  -21.3640   -4.6740   24.9100 C   0  0  0  0  0  0  0  0  0  0  0  0
  -21.8760   -4.0910   23.7360 C   0  0  0  0  0  3  0  0  0  0  0  0
  -22.0250   -4.8680   22.5740 C   0  0  0  0  0  0  0  0  0  0  0  0
  -22.4990   -4.2980   21.4400 F   0  0  0  0  0  0  0  0  0  0  0  0
  -21.2180   -3.9210   26.0260 F   0  0  0  0  0  0  0  0  0  0  0  0
  -22.8320  -13.5900   21.2440 C   0  0  0  0  0  0  0  0  0  0  0  0
  -22.1500  -12.8660   22.1260 N   0  0  0  0  0  0  0  0  0  0  0  0
  -22.3700  -14.6290   20.7730 O   0  0  0  0  0  0  0  0  0  0  0  0
  -22.5370  -12.0160   22.5110 H   0  0  0  0  0  0  0  0  0  0  0  0
  -21.2270  -13.1600   22.4130 H   0  0  0  0  0  0  0  0  0  0  0  0
  -25.4180  -15.2830   20.3070 N   0  0  0  0  0  0  0  0  0  0  0  0
  -24.5540  -15.8130   20.3740 H   0  0  0  0  0  0  0  0  0  0  0  0
  -25.9230  -15.5180   19.4650 H   0  0  0  0  0  0  0  0  0  0  0  0
  -28.3320  -26.3750   20.1840 O   0  0  0  0  0  0  0  0  0  0  0  0
  -24.6270  -31.8870   23.2410 C   0  0  0  0  0  0  0  0  0  0  0  0
  -27.2260  -27.2720   20.1640 C   0  0  0  0  0  0  0  0  0  0  0  0
  -23.4270  -30.5140   21.5700 C   0  0  0  0  0  3  0  0  0  0  0  0
  -24.8810  -28.9560   20.1320 C   0  0  0  0  0  0  0  0  0  0  0  0
  -25.9710  -30.8010   21.4130 C   0  0  0  0  0  2  0  0  0  0  0  0
  -26.0500  -29.4200   20.7520 C   0  0  0  0  0  0  0  0  0  0  0  0
  -27.2210  -28.5890   20.7580 C   0  0  0  0  0  3  0  0  0  0  0  0
  -26.0430  -26.8930   19.5010 C   0  0  0  0  0  3  0  0  0  0  0  0
  -24.8870  -27.7050   19.4930 C   0  0  0  0  0  3  0  0  0  0  0  0
  -23.6500  -29.8420   20.1850 C   0  0  0  0  0  2  0  0  0  0  0  0
  -24.6930  -31.0900   22.1300 N   0  0  0  0  0  0  0  0  0  0  0  0
  -23.5410  -32.1650   23.7720 O   0  0  0  0  0  0  0  0  0  0  0  0
  -22.7480  -29.5010   22.5220 C   0  0  0  0  0  0  0  0  0  0  0  0
  -21.4220  -29.3340   22.3860 N   0  0  0  0  0  0  0  0  0  0  0  0
  -23.4190  -28.8630   23.3380 O   0  0  0  0  0  0  0  0  0  0  0  0
  -20.9430  -29.8880   21.6910 H   0  0  0  0  0  0  0  0  0  0  0  0
  -18.0360  -28.1620   22.8920 C   0  0  0  0  0  0  0  0  0  0  0  0
  -20.5960  -28.3940   23.1470 C   0  0  0  0  0  3  0  0  0  0  0  0
  -20.6820  -26.9730   22.5460 C   0  0  0  0  0  2  0  0  0  0  0  0
  -19.5710  -26.6750   21.5360 C   0  0  0  0  0  2  0  0  0  0  0  0
  -18.1950  -26.8240   22.1930 C   0  0  0  0  0  2  0  0  0  0  0  0
  -19.1630  -28.9070   23.3300 C   0  0  0  0  0  0  0  0  0  0  0  0
  -18.9590  -30.1560   23.9550 C   0  0  0  0  0  3  0  0  0  0  0  0
  -17.6590  -30.6640   24.1410 C   0  0  0  0  0  3  0  0  0  0  0  0
  -16.5470  -29.9160   23.7160 C   0  0  0  0  0  3  0  0  0  0  0  0
  -16.7360  -28.6670   23.1000 C   0  0  0  0  0  3  0  0  0  0  0  0
  -25.9080  -32.5060   23.8800 C   0  0  0  0  0  3  0  0  0  0  0  0
  -25.6050  -33.9040   24.2230 N   0  0  0  0  0  0  0  0  0  0  0  0
  -25.9160  -34.9620   23.4610 C   0  0  0  0  0  0  0  0  0  0  0  0
  -26.5550  -34.8640   22.4100 O   0  0  0  0  0  0  0  0  0  0  0  0
  -25.0300  -34.0530   25.0390 H   0  0  0  0  0  0  0  0  0  0  0  0
  -24.1640  -36.7460   23.1870 C   0  0  0  0  0  1  0  0  0  0  0  0
  -25.4450  -36.3520   23.9380 C   0  0  0  0  0  3  0  0  0  0  0  0
  -27.6110  -37.2550   24.6650 C   0  0  0  0  0  1  0  0  0  0  0  0
  -26.4680  -37.4070   23.7690 N   0  0  0  0  0  0  0  0  0  0  0  0
  -26.0650  -38.3280   23.9190 H   0  0  0  0  0  0  0  0  0  0  0  0
  -26.4120  -31.7180   25.1520 C   0  0  1  0  0  0  0  0  0  0  0  0
  -25.3120  -31.4770   26.2120 C   0  0  0  0  0  1  0  0  0  0  0  0
  -26.9890  -30.3400   24.7560 C   0  0  0  0  0  1  0  0  0  0  0  0
  -27.5650  -32.4970   25.8280 C   0  0  0  0  0  1  0  0  0  0  0  0
  1  4  1  0
  2  1  2  0
  2  6  1  0
  4  3  2  0
  5  3  1  0
  5  7  1  0
  6  5  2  0
  8 11  1  0
  8  9  1  0
  9  4  1  0
  9 10  1  0
 10 14  1  0
 11 13  1  0
 11 10  1  0
 12 11  1  0
 14 23  1  0
 15 23  1  0
 16 21  1  0
 17 18  1  0
 17 16  1  0
 19 18  1  0
 19 28  1  0
 19 20  1  0
 21 15  1  0
 21 20  1  0
 22 15  2  0
 23 24  1  0
 25 26  2  0
 26 45  1  0
 27 26  1  0
 27 30  1  0
 28 29  1  0
 28 25  1  0
 29 27  2  0
 30 31  1  0
 31 32  2  0
 33 36  1  0
 33 32  1  0
 34 33  2  0
 35 34  1  0
 35 30  2  0
 36 37  1  0
 37 38  1  0
 38 39  2  0
 40 39  1  0
 40 44  1  0
 41 40  2  0
 42 37  2  0
 42 41  1  0
 43 42  1  0
 45 46  1  0
 46 49  1  0
 46 48  1  0
 47 45  2  0
 50 51  1  0
 50 25  1  0
 52 50  1  0
 53  6  1  0
 54 65  2  0
 55 53  1  0
 55 60  1  0
 56 64  1  0
 56 66  1  0
 57 63  1  0
 57 59  1  0
 58 64  1  0
 59 60  2  0
 59 58  1  0
 61 55  2  0
 62 61  1  0
 62 57  2  0
 63 56  1  0
 64 54  1  0
 66 68  2  0
 67 66  1  0
 69 67  1  0
 70 79  2  0
 70 75  1  0
 71 67  1  0
 71 75  1  0
 72 71  1  0
 73 74  1  0
 73 72  1  0
 74 70  1  0
 75 76  2  0
 76 77  1  0
 78 77  2  0
 79 78  1  0
 80 54  1  0
 80 81  1  0
 80 90  1  0
 81 84  1  0
 82 86  1  0
 82 81  1  0
 83 82  2  0
 86 85  1  0
 88 89  1  0
 88 86  1  0
 88 87  1  0
 90 93  1  1
 90 91  1  0
 92 90  1  0
M  ISO  4   6 101  15 100  23 100  53 101
M  END
>  <TORSDO>  (20) 
F 18

>  <SCORE>  (20) 
-14.707

>  <name>  (20) 
19

>  <ligand_id>  (20) 
19

>  <original_smiles>  (20) 
[H]c1c([H])c([H])c2c(c1[H])C([H])([H])C([H])([H])C([H])([H])C2([H])N([H])C(=O)C1([H])N(C(=O)C([H])(N([H])C(=O)C([H])(N([H])C([H])([H])[H])C([H])([H])[H])C(C([H])([H])[H])(C([H])([H])[H])C([H])([H])[H])C([H])([H])c2c([H])c(Oc3c([H])c([H])c(C4([H])C([H])([H])[N+]([H])([H])C4([H])C([H])([H])N([H])C(=O)N4C([H])([H])C([H])([H])C([H])([H])C([H])(n5nc(-c6c([H])c([H])c(Oc7c([H])c([H])c(F)c([H])c7F)c([H])c6[H])c(C(=O)N([H])[H])c5N([H])[H])C4([H])[H])c([H])c3C([H])([H])[H])c([H])c([H])c2C1([H])[H]

>  <smiles>  (20) 
[H]c1c([H])c([H])c2c(c1[H])C([H])([H])C([H])([H])C([H])([H])C2([H])N([H])C(=O)C1([H])N(C(=O)C([H])(N([H])C(=O)C([H])(N([H])C([H])([H])[H])C([H])([H])[H])C(C([H])([H])[H])(C([H])([H])[H])C([H])([H])[H])C([H])([H])c2c([H])c(Oc3c([H])c([H])c(C4([H])C([H])([H])[N+]([H])([H])C4([H])C([H])([H])N([H])C(=O)N4C([H])([H])C([H])([H])C([H])([H])C([H])(n5nc(-c6c([H])c([H])c(Oc7c([H])c([H])c(F)c([H])c7F)c([H])c6[H])c(C(=O)N([H])[H])c5N([H])[H])C4([H])[H])c([H])c3C([H])([H])[H])c([H])c([H])c2C1([H])[H]

$$$$
20:0:0
     RDKit          3D

101110  0  0  1  0  0  0  0  0999 V2000
  -31.1470  -21.0690   19.8850 C   0  0  0  0  0  0  0  0  0  0  0  0
  -32.2830  -20.5980   19.7320 O   0  0  0  0  0  0  0  0  0  0  0  0
  -32.1190  -23.3760   20.0140 C   0  0  0  0  0  3  0  0  0  0  0  0
  -29.7140  -23.2390   20.0220 C   0  0  0  0  0  3  0  0  0  0  0  0
  -30.9610  -22.5640   19.9950 C   0  0  0  0  0  0  0  0  0  0  0  0
  -32.0000  -24.7730   20.0620 C   0  0  0  0  0  0  0  0  0  0  0  0
  -29.6860  -24.6540   20.0330 C   0  0  0  0  0  0  0  0  0  0  0  0
  -33.2230  -25.6610   20.1190 C   0  0  0  0  0  1  0  0  0  0  0  0
  -30.8100  -25.4010   20.0630 N   0  0  0  0  0  0  0  0  0  0  0  0
  -28.3610  -25.4140   19.9570 C   0  0  0  0  0  2  0  0  0  0  0  0
  -28.4640  -26.8430   20.1210 O   0  0  0  0  0  0  0  0  0  0  0  0
  -24.6180  -31.9720   23.2330 C   0  0  0  0  0  0  0  0  0  0  0  0
  -27.2790  -27.5580   20.1160 C   0  0  0  0  0  0  0  0  0  0  0  0
  -23.4110  -30.5550   21.6060 C   0  0  0  0  0  3  0  0  0  0  0  0
  -24.8660  -29.0430   20.1630 C   0  0  0  0  0  0  0  0  0  0  0  0
  -25.9320  -30.9470   21.3780 C   0  0  0  0  0  2  0  0  0  0  0  0
  -26.0270  -29.5780   20.7350 C   0  0  0  0  0  0  0  0  0  0  0  0
  -27.2360  -28.8440   20.7050 C   0  0  0  0  0  3  0  0  0  0  0  0
  -26.0930  -27.0420   19.5410 C   0  0  0  0  0  3  0  0  0  0  0  0
  -24.8930  -27.7760   19.5650 C   0  0  0  0  0  3  0  0  0  0  0  0
  -23.6120  -29.8840   20.2240 C   0  0  0  0  0  2  0  0  0  0  0  0
  -24.6720  -31.1720   22.1300 N   0  0  0  0  0  0  0  0  0  0  0  0
  -23.5390  -32.2300   23.7860 O   0  0  0  0  0  0  0  0  0  0  0  0
  -22.7880  -29.5230   22.5720 C   0  0  0  0  0  0  0  0  0  0  0  0
  -21.4770  -29.2760   22.4220 N   0  0  0  0  0  0  0  0  0  0  0  0
  -23.4820  -28.9430   23.4120 O   0  0  0  0  0  0  0  0  0  0  0  0
  -20.9760  -29.7980   21.7160 H   0  0  0  0  0  0  0  0  0  0  0  0
  -18.1600  -27.9030   22.8370 C   0  0  0  0  0  0  0  0  0  0  0  0
  -20.6870  -28.3170   23.1930 C   0  0  0  0  0  3  0  0  0  0  0  0
  -20.8920  -26.8760   22.6700 C   0  0  0  0  0  2  0  0  0  0  0  0
  -19.8500  -26.4580   21.6280 C   0  0  0  0  0  2  0  0  0  0  0  0
  -18.4370  -26.5450   22.2160 C   0  0  0  0  0  2  0  0  0  0  0  0
  -19.2170  -28.7420   23.2820 C   0  0  0  0  0  0  0  0  0  0  0  0
  -18.9060  -30.0100   23.8200 C   0  0  0  0  0  3  0  0  0  0  0  0
  -17.5690  -30.4420   23.9190 C   0  0  0  0  0  3  0  0  0  0  0  0
  -16.5260  -29.6020   23.4920 C   0  0  0  0  0  3  0  0  0  0  0  0
  -16.8220  -28.3350   22.9590 C   0  0  0  0  0  3  0  0  0  0  0  0
  -25.9020  -32.6200   23.8370 C   0  0  0  0  0  3  0  0  0  0  0  0
  -25.5830  -34.0180   24.1560 N   0  0  0  0  0  0  0  0  0  0  0  0
  -25.9140  -35.0670   23.3930 C   0  0  0  0  0  0  0  0  0  0  0  0
  -26.5930  -34.9600   22.3670 O   0  0  0  0  0  0  0  0  0  0  0  0
  -24.9810  -34.1740   24.9520 H   0  0  0  0  0  0  0  0  0  0  0  0
  -24.1970  -36.8580   22.9880 C   0  0  0  0  0  1  0  0  0  0  0  0
  -25.4130  -36.4540   23.8370 C   0  0  0  0  0  3  0  0  0  0  0  0
  -27.5140  -37.3440   24.7410 C   0  0  0  0  0  1  0  0  0  0  0  0
  -26.4490  -37.5080   23.7570 N   0  0  0  0  0  0  0  0  0  0  0  0
  -26.0370  -38.4280   23.8830 H   0  0  0  0  0  0  0  0  0  0  0  0
  -26.4400  -31.8640   25.1130 C   0  0  1  0  0  0  0  0  0  0  0  0
  -25.3590  -31.6140   26.1890 C   0  0  0  0  0  1  0  0  0  0  0  0
  -27.0430  -30.4940   24.7210 C   0  0  0  0  0  1  0  0  0  0  0  0
  -27.5830  -32.6790   25.7630 C   0  0  0  0  0  1  0  0  0  0  0  0
  -29.9490  -20.0850   20.0330 C   0  0  0  0  0  3  0  0  0  0  0  0
  -27.2970  -18.9360   16.6280 C   0  0  0  0  0  2  0  0  0  0  0  0
  -28.5540  -19.7670   16.3270 C   0  0  0  0  0  2  0  0  0  0  0  0
  -26.6700  -19.3510   17.9670 C   0  0  0  0  0  2  0  0  0  0  0  0
  -29.5800  -19.6630   17.4690 C   0  0  0  0  0  2  0  0  0  0  0  0
  -27.6910  -19.2570   19.1120 C   0  0  0  0  0  2  0  0  0  0  0  0
  -28.9610  -20.0940   18.8250 C   0  0  0  0  0  3  0  0  0  0  0  0
  -30.5610  -18.7370   20.1960 N   0  0  0  0  0  4  0  0  0  0  0  0
  -30.3900  -18.2010   19.3620 H   0  0  0  0  0  0  0  0  0  0  0  0
  -31.5550  -18.9350   20.2150 H   0  0  0  0  0  0  0  0  0  0  0  0
  -30.1840  -17.9650   21.4040 C   0  0  0  0  0  2  0  0  0  0  0  0
  -31.0580  -16.7000   21.6040 C   0  0  0  0  0  2  0  0  0  0  0  0
  -30.9540  -14.5690   20.2810 C   0  0  0  0  0  0  0  0  0  0  0  0
  -30.5810  -12.4600   19.0490 C   0  0  0  0  0  2  0  0  0  0  0  0
  -29.5880  -12.6700   17.8880 C   0  0  0  0  0  2  0  0  0  0  0  0
  -28.1350  -12.5210   18.3780 C   0  0  0  0  0  2  0  0  0  0  0  0
  -27.8480  -13.3480   19.6590 C   0  0  0  0  0  3  0  0  0  0  0  0
  -28.9420  -13.1080   20.7220 C   0  0  0  0  0  2  0  0  0  0  0  0
  -30.2490  -13.4180   20.1140 N   0  0  0  0  0  0  0  0  0  0  0  0
  -31.9960  -14.8170   19.6680 O   0  0  0  0  0  0  0  0  0  0  0  0
  -30.4270  -15.4550   21.1400 N   0  0  0  0  0  0  0  0  0  0  0  0
  -29.5700  -15.1740   21.5950 H   0  0  0  0  0  0  0  0  0  0  0  0
  -25.4780  -13.9490   20.4640 C   0  0  0  0  0  0  0  0  0  0  0  0
  -24.4240  -13.1730   20.8670 C   0  0  0  0  0  0  0  0  0  0  0  0
  -24.8830  -11.8220   20.8040 C   0  0  0  0  0  0  0  0  0  0  0  0
  -26.5130  -13.0710   20.1850 N   0  0  0  0  0  0  0  0  0  0  0  0
  -26.1600  -11.7850   20.4450 N   0  0  0  0  0  0  0  0  0  0  0  0
  -24.1650  -10.5580   21.0080 C   0  0  0  0  0  0  0  0  0  0  0  0
  -24.5780   -9.6220   21.9830 C   0  0  0  0  0  3  0  0  0  0  0  0
  -23.8610   -8.4220   22.1730 C   0  0  0  0  0  3  0  0  0  0  0  0
  -22.7160   -8.1470   21.3880 C   0  0  0  0  0  0  0  0  0  0  0  0
  -22.3220   -9.0700   20.4030 C   0  0  0  0  0  3  0  0  0  0  0  0
  -23.0410  -10.2620   20.2110 C   0  0  0  0  0  3  0  0  0  0  0  0
  -21.9720   -6.9960   21.4850 O   0  0  0  0  0  0  0  0  0  0  0  0
  -21.8370   -6.3240   22.6740 C   0  0  0  0  0  0  0  0  0  0  0  0
  -21.2440   -6.9250   23.8060 C   0  0  0  0  0  3  0  0  0  0  0  0
  -21.0620   -6.1760   24.9850 C   0  0  0  0  0  3  0  0  0  0  0  0
  -21.4630   -4.8280   25.0340 C   0  0  0  0  0  0  0  0  0  0  0  0
  -22.0480   -4.2270   23.9060 C   0  0  0  0  0  3  0  0  0  0  0  0
  -22.2320   -4.9720   22.7280 C   0  0  0  0  0  0  0  0  0  0  0  0
  -22.7770   -4.3830   21.6370 F   0  0  0  0  0  0  0  0  0  0  0  0
  -21.2810   -4.1050   26.1640 F   0  0  0  0  0  0  0  0  0  0  0  0
  -23.0390  -13.6460   21.1990 C   0  0  0  0  0  0  0  0  0  0  0  0
  -22.3410  -12.9350   22.0780 N   0  0  0  0  0  0  0  0  0  0  0  0
  -22.5830  -14.6820   20.7150 O   0  0  0  0  0  0  0  0  0  0  0  0
  -22.7220  -12.0960   22.4900 H   0  0  0  0  0  0  0  0  0  0  0  0
  -21.4130  -13.2320   22.3420 H   0  0  0  0  0  0  0  0  0  0  0  0
  -25.6370  -15.3220   20.2940 N   0  0  0  0  0  0  0  0  0  0  0  0
  -24.8720  -15.9730   20.4280 H   0  0  0  0  0  0  0  0  0  0  0  0
  -26.4700  -15.7590   19.9220 H   0  0  0  0  0  0  0  0  0  0  0  0
  1  5  1  0
  2  1  2  0
  3  6  1  0
  4  7  2  0
  5  3  2  0
  5  4  1  0
  6  9  2  0
  6  8  1  0
  7  9  1  0
 10  7  1  0
 10 11  1  0
 12 23  2  0
 13 11  1  0
 13 18  1  0
 14 22  1  0
 14 24  1  0
 15 21  1  0
 15 17  1  0
 16 22  1  0
 17 16  1  0
 18 17  2  0
 19 20  1  0
 19 13  2  0
 20 15  2  0
 21 14  1  0
 22 12  1  0
 24 26  2  0
 25 24  1  0
 27 25  1  0
 28 37  2  0
 28 33  1  0
 29 25  1  0
 29 33  1  0
 30 29  1  0
 31 32  1  0
 31 30  1  0
 32 28  1  0
 33 34  2  0
 34 35  1  0
 36 35  2  0
 37 36  1  0
 38 12  1  0
 38 39  1  0
 38 48  1  0
 39 42  1  0
 40 44  1  0
 40 39  1  0
 41 40  2  0
 44 43  1  0
 46 44  1  0
 46 47  1  0
 46 45  1  0
 48 51  1  1
 48 49  1  0
 50 48  1  0
 52  1  1  0
 52 59  1  0
 53 55  1  0
 54 53  1  0
 54 56  1  0
 55 57  1  0
 56 58  1  0
 58 57  1  0
 58 52  1  0
 59 61  1  0
 59 62  1  0
 60 59  1  0
 62 63  1  0
 64 72  1  0
 65 70  1  0
 66 67  1  0
 66 65  1  0
 68 67  1  0
 68 77  1  0
 68 69  1  0
 70 64  1  0
 70 69  1  0
 71 64  2  0
 72 73  1  0
 72 63  1  0
 74 75  2  0
 75 94  1  0
 76 75  1  0
 76 79  1  0
 77 78  1  0
 77 74  1  0
 78 76  2  0
 79 80  1  0
 80 81  2  0
 82 85  1  0
 82 81  1  0
 83 82  2  0
 84 83  1  0
 84 79  2  0
 85 86  1  0
 86 91  2  0
 86 87  1  0
 87 88  2  0
 88 89  1  0
 89 93  1  0
 90 89  2  0
 91 90  1  0
 92 91  1  0
 94 95  1  0
 95 98  1  0
 95 97  1  0
 96 94  2  0
 99100  1  0
 99 74  1  0
101 99  1  0
M  ISO  4  10 101  11 101  64 100  72 100
M  END
>  <TORSDO>  (21) 
F 23

>  <SCORE>  (21) 
-12.565

>  <name>  (21) 
20

>  <ligand_id>  (21) 
20

>  <original_smiles>  (21) 
[H]c1c([H])c([H])c2c(c1[H])C([H])([H])C([H])([H])C([H])([H])C2([H])N([H])C(=O)C1([H])N(C(=O)C([H])(N([H])C(=O)C([H])(N([H])C([H])([H])[H])C([H])([H])[H])C(C([H])([H])[H])(C([H])([H])[H])C([H])([H])[H])C([H])([H])c2c([H])c(OC([H])([H])c3nc(C([H])([H])[H])c([H])c(C(=O)C([H])(C4([H])C([H])([H])C([H])([H])C([H])([H])C([H])([H])C4([H])[H])[N+]([H])([H])C([H])([H])C([H])([H])N([H])C(=O)N4C([H])([H])C([H])([H])C([H])([H])C([H])(n5nc(-c6c([H])c([H])c(Oc7c([H])c([H])c(F)c([H])c7F)c([H])c6[H])c(C(=O)N([H])[H])c5N([H])[H])C4([H])[H])c3[H])c([H])c([H])c2C1([H])[H]

>  <smiles>  (21) 
[H]c1c([H])c([H])c2c(c1[H])C([H])([H])C([H])([H])C([H])([H])C2([H])N([H])C(=O)C1([H])N(C(=O)C([H])(N([H])C(=O)C([H])(N([H])C([H])([H])[H])C([H])([H])[H])C(C([H])([H])[H])(C([H])([H])[H])C([H])([H])[H])C([H])([H])c2c([H])c(OC([H])([H])c3nc(C([H])([H])[H])c([H])c(C(=O)C([H])(C4([H])C([H])([H])C([H])([H])C([H])([H])C([H])([H])C4([H])[H])[N+]([H])([H])C([H])([H])C([H])([H])N([H])C(=O)N4C([H])([H])C([H])([H])C([H])([H])C([H])(n5nc(-c6c([H])c([H])c(Oc7c([H])c([H])c(F)c([H])c7F)c([H])c6[H])c(C(=O)N([H])[H])c5N([H])[H])C4([H])[H])c3[H])c([H])c([H])c2C1([H])[H]

$$$$
21:0:0
     RDKit          3D

101110  0  0  1  0  0  0  0  0999 V2000
  -26.2320  -20.5120   19.0570 C   0  0  0  0  0  2  0  0  0  0  0  0
  -25.3690  -19.6260   18.1020 C   0  0  0  0  0  2  0  0  0  0  0  0
  -27.3860  -18.9150   16.8530 C   0  0  0  0  0  2  0  0  0  0  0  0
  -28.0370  -19.2240   18.2300 C   0  0  0  0  0  3  0  0  0  0  0  0
  -27.6860  -20.5740   18.7360 N   0  0  0  0  0  0  0  0  0  0  0  0
  -26.0070  -19.4560   16.7770 N   0  0  0  0  0  4  0  0  0  0  0  0
  -26.0280  -20.3550   16.3310 H   0  0  0  0  0  0  0  0  0  0  0  0
  -25.4420  -18.8540   16.2030 H   0  0  0  0  0  0  0  0  0  0  0  0
  -30.1760  -19.1270   19.6090 C   0  0  0  0  0  3  0  0  0  0  0  0
  -29.7960  -17.3520   18.0010 C   0  0  0  0  0  3  0  0  0  0  0  0
  -31.2100  -18.3630   20.1970 C   0  0  0  0  0  3  0  0  0  0  0  0
  -30.8220  -16.5790   18.5970 C   0  0  0  0  0  3  0  0  0  0  0  0
  -29.4140  -18.6040   18.5390 C   0  0  0  0  0  0  0  0  0  0  0  0
  -31.5080  -17.0600   19.7380 C   0  0  0  0  0  0  0  0  0  0  0  0
  -33.0880  -15.1550   20.0530 C   0  0  0  0  0  0  0  0  0  0  0  0
  -32.9930  -12.6780   20.0260 C   0  0  0  0  0  2  0  0  0  0  0  0
  -32.1210  -12.1250   18.8830 C   0  0  0  0  0  2  0  0  0  0  0  0
  -30.6410  -12.0670   19.3050 C   0  0  0  0  0  2  0  0  0  0  0  0
  -30.1480  -13.3910   19.9470 C   0  0  0  0  0  3  0  0  0  0  0  0
  -31.1300  -13.8880   21.0260 C   0  0  0  0  0  2  0  0  0  0  0  0
  -32.4660  -13.9970   20.4180 N   0  0  0  0  0  0  0  0  0  0  0  0
  -34.1680  -15.1700   19.4590 O   0  0  0  0  0  0  0  0  0  0  0  0
  -32.5080  -16.3110   20.4310 N   0  0  0  0  0  0  0  0  0  0  0  0
  -33.1300  -16.8990   20.9690 H   0  0  0  0  0  0  0  0  0  0  0  0
  -27.8980  -14.2410   20.8520 C   0  0  0  0  0  0  0  0  0  0  0  0
  -26.7470  -13.5860   21.2020 C   0  0  0  0  0  0  0  0  0  0  0  0
  -27.0110  -12.1950   21.0160 C   0  0  0  0  0  0  0  0  0  0  0  0
  -28.7950  -13.2510   20.4800 N   0  0  0  0  0  0  0  0  0  0  0  0
  -28.2670  -12.0120   20.6300 N   0  0  0  0  0  0  0  0  0  0  0  0
  -26.1230  -11.0300   21.1240 C   0  0  0  0  0  0  0  0  0  0  0  0
  -26.1950  -10.1450   22.2220 C   0  0  0  0  0  3  0  0  0  0  0  0
  -25.3190   -9.0410   22.3100 C   0  0  0  0  0  3  0  0  0  0  0  0
  -24.3580   -8.8130   21.2970 C   0  0  0  0  0  0  0  0  0  0  0  0
  -24.3080   -9.6860   20.1950 C   0  0  0  0  0  3  0  0  0  0  0  0
  -25.1850  -10.7800   20.1050 C   0  0  0  0  0  3  0  0  0  0  0  0
  -23.4810   -7.7540   21.2870 O   0  0  0  0  0  0  0  0  0  0  0  0
  -22.7710   -7.4010   22.4060 C   0  0  0  0  0  0  0  0  0  0  0  0
  -21.8340   -8.2750   23.0020 C   0  0  0  0  0  3  0  0  0  0  0  0
  -21.0700   -7.8440   24.1050 C   0  0  0  0  0  3  0  0  0  0  0  0
  -21.2340   -6.5400   24.6080 C   0  0  0  0  0  0  0  0  0  0  0  0
  -22.1590   -5.6650   24.0110 C   0  0  0  0  0  3  0  0  0  0  0  0
  -22.9230   -6.0950   22.9110 C   0  0  0  0  0  0  0  0  0  0  0  0
  -23.7960   -5.2390   22.3270 F   0  0  0  0  0  0  0  0  0  0  0  0
  -20.4990   -6.1250   25.6660 F   0  0  0  0  0  0  0  0  0  0  0  0
  -25.4440  -14.2180   21.6040 C   0  0  0  0  0  0  0  0  0  0  0  0
  -24.6710  -13.5450   22.4500 N   0  0  0  0  0  0  0  0  0  0  0  0
  -25.1300  -15.3400   21.2060 O   0  0  0  0  0  0  0  0  0  0  0  0
  -24.9400  -12.6300   22.7840 H   0  0  0  0  0  0  0  0  0  0  0  0
  -23.7950  -13.9430   22.7590 H   0  0  0  0  0  0  0  0  0  0  0  0
  -28.2610  -15.5790   20.8040 N   0  0  0  0  0  0  0  0  0  0  0  0
  -27.6310  -16.3220   21.0690 H   0  0  0  0  0  0  0  0  0  0  0  0
  -29.2010  -15.8980   20.6050 H   0  0  0  0  0  0  0  0  0  0  0  0
  -27.5020  -23.0280   18.8580 C   0  0  0  0  0  1  0  0  0  0  0  0
  -27.9650  -21.8310   17.9780 C   0  0  0  0  0  3  0  0  0  0  0  0
  -29.4080  -22.1280   17.4780 C   0  0  0  0  0  2  0  0  0  0  0  0
  -29.5070  -23.5690   17.0750 N   0  0  0  0  0  4  0  0  0  0  0  0
  -29.2120  -23.6770   16.1170 H   0  0  0  0  0  0  0  0  0  0  0  0
  -28.8380  -24.0550   17.6490 H   0  0  0  0  0  0  0  0  0  0  0  0
  -30.8140  -24.2570   17.2700 C   0  0  0  0  0  2  0  0  0  0  0  0
  -30.7500  -25.4540   18.2740 C   0  0  0  0  0  2  0  0  0  0  0  0
  -30.2840  -26.6960   17.7190 O   0  0  0  0  0  0  0  0  0  0  0  0
  -25.6960  -28.5450   22.9140 C   0  0  0  0  0  0  0  0  0  0  0  0
  -29.0210  -27.0940   18.1020 C   0  0  0  0  0  0  0  0  0  0  0  0
  -24.7330  -28.1800   20.6670 C   0  0  0  0  0  3  0  0  0  0  0  0
  -26.4130  -27.9520   18.7590 C   0  0  0  0  0  0  0  0  0  0  0  0
  -27.1610  -28.9400   20.9330 C   0  0  0  0  0  2  0  0  0  0  0  0
  -27.4710  -28.2040   19.6410 C   0  0  0  0  0  0  0  0  0  0  0  0
  -28.7820  -27.7820   19.3170 C   0  0  0  0  0  3  0  0  0  0  0  0
  -27.9460  -26.8500   17.2260 C   0  0  0  0  0  3  0  0  0  0  0  0
  -26.6430  -27.2730   17.5510 C   0  0  0  0  0  3  0  0  0  0  0  0
  -25.0430  -28.4440   19.1700 C   0  0  0  0  0  2  0  0  0  0  0  0
  -25.8780  -28.5390   21.5630 N   0  0  0  0  0  0  0  0  0  0  0  0
  -24.5890  -28.3050   23.4140 O   0  0  0  0  0  0  0  0  0  0  0  0
  -24.2710  -26.7150   20.8230 C   0  0  0  0  0  0  0  0  0  0  0  0
  -23.0770  -26.4060   20.2960 N   0  0  0  0  0  0  0  0  0  0  0  0
  -24.9950  -25.8810   21.3760 O   0  0  0  0  0  0  0  0  0  0  0  0
  -22.5510  -27.1500   19.8590 H   0  0  0  0  0  0  0  0  0  0  0  0
  -20.2170  -24.5360   19.1160 C   0  0  0  0  0  0  0  0  0  0  0  0
  -22.4560  -25.0820   20.2850 C   0  0  0  0  0  3  0  0  0  0  0  0
  -23.1170  -24.1690   19.2260 C   0  0  0  0  0  2  0  0  0  0  0  0
  -22.3930  -24.1900   17.8740 C   0  0  0  0  0  2  0  0  0  0  0  0
  -20.9350  -23.7460   18.0360 C   0  0  0  0  0  2  0  0  0  0  0  0
  -20.9310  -25.1740   20.1660 C   0  0  0  0  0  0  0  0  0  0  0  0
  -20.2160  -25.9200   21.1280 C   0  0  0  0  0  3  0  0  0  0  0  0
  -18.8130  -26.0270   21.0590 C   0  0  0  0  0  3  0  0  0  0  0  0
  -18.1120  -25.3820   20.0240 C   0  0  0  0  0  3  0  0  0  0  0  0
  -18.8120  -24.6420   19.0560 C   0  0  0  0  0  3  0  0  0  0  0  0
  -26.8620  -28.8820   23.8950 C   0  0  0  0  0  3  0  0  0  0  0  0
  -26.3890  -29.9410   24.7980 N   0  0  0  0  0  0  0  0  0  0  0  0
  -26.7670  -31.2230   24.7280 C   0  0  0  0  0  0  0  0  0  0  0  0
  -27.6190  -31.6280   23.9310 O   0  0  0  0  0  0  0  0  0  0  0  0
  -25.6420  -29.6940   25.4320 H   0  0  0  0  0  0  0  0  0  0  0  0
  -25.0430  -33.0420   24.9420 C   0  0  0  0  0  1  0  0  0  0  0  0
  -26.0970  -32.2150   25.6960 C   0  0  0  0  0  3  0  0  0  0  0  0
  -27.9250  -32.4380   27.3180 C   0  0  0  0  0  1  0  0  0  0  0  0
  -27.0560  -33.1210   26.3660 N   0  0  0  0  0  0  0  0  0  0  0  0
  -26.5660  -33.8630   26.8610 H   0  0  0  0  0  0  0  0  0  0  0  0
  -27.3670  -27.6300   24.7140 C   0  0  1  0  0  0  0  0  0  0  0  0
  -26.2350  -26.8670   25.4420 C   0  0  0  0  0  1  0  0  0  0  0  0
  -28.0980  -26.6280   23.7900 C   0  0  0  0  0  1  0  0  0  0  0  0
  -28.4000  -28.0800   25.7770 C   0  0  0  0  0  1  0  0  0  0  0  0
  2  1  1  0
  3  4  1  0
  4 13  1  0
  4  5  1  0
  5  1  1  0
  6  3  1  0
  6  2  1  0
  7  6  1  0
  8  6  1  0
  9 11  1  0
 10 13  1  0
 10 12  2  0
 12 14  1  0
 13  9  2  0
 14 11  2  0
 14 23  1  0
 15 21  1  0
 15 23  1  0
 16 21  1  0
 17 18  1  0
 17 16  1  0
 19 18  1  0
 19 28  1  0
 19 20  1  0
 21 20  1  0
 22 15  2  0
 23 24  1  0
 25 26  2  0
 26 45  1  0
 27 30  1  0
 27 26  1  0
 28 29  1  0
 28 25  1  0
 29 27  2  0
 30 31  1  0
 31 32  2  0
 33 32  1  0
 34 33  2  0
 35 34  1  0
 35 30  2  0
 36 33  1  0
 36 37  1  0
 37 42  2  0
 37 38  1  0
 38 39  2  0
 39 40  1  0
 40 44  1  0
 41 40  2  0
 42 41  1  0
 43 42  1  0
 45 46  1  0
 46 49  1  0
 46 48  1  0
 47 45  2  0
 50 25  1  0
 50 51  1  0
 52 50  1  0
 54  5  1  0
 54 53  1  0
 55 54  1  0
 56 59  1  0
 56 55  1  0
 56 58  1  0
 57 56  1  0
 59 60  1  0
 61 63  1  0
 61 60  1  0
 62 73  2  0
 63 68  1  0
 64 74  1  0
 64 72  1  0
 65 71  1  0
 65 67  1  0
 66 72  1  0
 67 66  1  0
 68 67  2  0
 69 70  1  0
 69 63  2  0
 70 65  2  0
 71 64  1  0
 72 62  1  0
 74 76  2  0
 75 74  1  0
 77 75  1  0
 78 83  1  0
 79 75  1  0
 80 79  1  0
 81 82  1  0
 81 80  1  0
 82 78  1  0
 83 79  1  0
 83 84  2  0
 85 84  1  0
 86 85  2  0
 87 78  2  0
 87 86  1  0
 88 62  1  0
 88 98  1  0
 88 89  1  0
 89 92  1  0
 90 89  1  0
 90 94  1  0
 91 90  2  0
 94 93  1  0
 94 96  1  0
 96 97  1  0
 96 95  1  0
 98 99  1  1
 98101  1  0
100 98  1  0
M  ISO  4  15 100  23 100  60 101  61 101
M  END
>  <TORSDO>  (22) 
F 22

>  <SCORE>  (22) 
-4.385

>  <name>  (22) 
21

>  <ligand_id>  (22) 
21

>  <original_smiles>  (22) 
[H]c1c([H])c([H])c2c(c1[H])C([H])([H])C([H])([H])C([H])([H])C2([H])N([H])C(=O)C1([H])N(C(=O)C([H])(N([H])C(=O)C([H])(N([H])C([H])([H])[H])C([H])([H])[H])C(C([H])([H])[H])(C([H])([H])[H])C([H])([H])[H])C([H])([H])c2c([H])c(OC([H])([H])C([H])([H])[N+]([H])([H])C([H])([H])C([H])(N3C([H])([H])C([H])([H])[N+]([H])([H])C([H])([H])C3([H])c3c([H])c([H])c(N([H])C(=O)N4C([H])([H])C([H])([H])C([H])([H])C([H])(n5nc(-c6c([H])c([H])c(Oc7c([H])c([H])c(F)c([H])c7F)c([H])c6[H])c(C(=O)N([H])[H])c5N([H])[H])C4([H])[H])c([H])c3[H])C([H])([H])[H])c([H])c([H])c2C1([H])[H]

>  <smiles>  (22) 
[H]c1c([H])c([H])c2c(c1[H])C([H])([H])C([H])([H])C([H])([H])C2([H])N([H])C(=O)C1([H])N(C(=O)C([H])(N([H])C(=O)C([H])(N([H])C([H])([H])[H])C([H])([H])[H])C(C([H])([H])[H])(C([H])([H])[H])C([H])([H])[H])C([H])([H])c2c([H])c(OC([H])([H])C([H])([H])[N+]([H])([H])C([H])([H])C([H])(N3C([H])([H])C([H])([H])[N+]([H])([H])C([H])([H])C3([H])c3c([H])c([H])c(N([H])C(=O)N4C([H])([H])C([H])([H])C([H])([H])C([H])(n5nc(-c6c([H])c([H])c(Oc7c([H])c([H])c(F)c([H])c7F)c([H])c6[H])c(C(=O)N([H])[H])c5N([H])[H])C4([H])[H])c([H])c3[H])C([H])([H])[H])c([H])c([H])c2C1([H])[H]

$$$$
22:0:0
     RDKit          3D

103111  0  0  1  0  0  0  0  0999 V2000
  -26.5810  -20.3590   20.2300 C   0  0  0  0  0  3  0  0  0  0  0  0
  -27.4610  -19.4040   20.7680 C   0  0  0  0  0  3  0  0  0  0  0  0
  -26.9870  -21.1280   19.1170 C   0  0  0  0  0  0  0  0  0  0  0  0
  -28.3110  -20.9420   18.6370 C   0  0  0  0  0  0  0  0  0  0  0  0
  -28.7230  -19.2420   20.1840 C   0  0  0  0  0  0  0  0  0  0  0  0
  -29.1440  -20.0130   19.1620 N   0  0  0  0  0  0  0  0  0  0  0  0
  -29.5840  -18.2510   20.6630 N   0  0  0  0  0  0  0  0  0  0  0  0
  -29.2190  -17.6440   21.3870 H   0  0  0  0  0  0  0  0  0  0  0  0
  -25.9820  -22.0970   18.4970 C   0  0  0  0  0  2  0  0  0  0  0  0
  -25.2850  -21.5060   17.3310 N   0  0  0  0  0  4  0  0  0  0  0  0
  -24.8840  -20.6340   17.6380 H   0  0  0  0  0  0  0  0  0  0  0  0
  -25.9430  -21.2870   16.6010 H   0  0  0  0  0  0  0  0  0  0  0  0
  -23.4440  -21.5280   15.6710 C   0  0  0  0  0  1  0  0  0  0  0  0
  -24.6690  -23.6760   16.2200 C   0  0  0  0  0  1  0  0  0  0  0  0
  -24.1790  -22.3190   16.7670 C   0  0  0  0  0  3  0  0  0  0  0  0
  -30.5440  -17.6610   19.7370 C   0  0  0  0  0  2  0  0  0  0  0  0
  -31.4390  -16.6140   20.4290 C   0  0  0  0  0  2  0  0  0  0  0  0
  -31.2570  -14.3370   19.4290 C   0  0  0  0  0  0  0  0  0  0  0  0
  -30.7580  -12.1240   18.4620 C   0  0  0  0  0  2  0  0  0  0  0  0
  -29.7010  -12.2460   17.3500 C   0  0  0  0  0  2  0  0  0  0  0  0
  -28.2780  -12.1860   17.9390 C   0  0  0  0  0  2  0  0  0  0  0  0
  -28.0900  -13.1580   19.1340 C   0  0  0  0  0  3  0  0  0  0  0  0
  -29.2440  -13.0010   20.1500 C   0  0  0  0  0  2  0  0  0  0  0  0
  -30.5210  -13.1960   19.4390 N   0  0  0  0  0  0  0  0  0  0  0  0
  -32.2140  -14.5200   18.6690 O   0  0  0  0  0  0  0  0  0  0  0  0
  -30.8730  -15.2720   20.3080 N   0  0  0  0  0  0  0  0  0  0  0  0
  -30.1060  -15.0330   20.9190 H   0  0  0  0  0  0  0  0  0  0  0  0
  -25.8580  -13.9320   20.1610 C   0  0  0  0  0  0  0  0  0  0  0  0
  -24.7810  -13.2350   20.6400 C   0  0  0  0  0  0  0  0  0  0  0  0
  -25.1150  -11.8530   20.5060 C   0  0  0  0  0  0  0  0  0  0  0  0
  -26.7860  -12.9800   19.7710 N   0  0  0  0  0  0  0  0  0  0  0  0
  -26.3470  -11.7220   20.0320 N   0  0  0  0  0  0  0  0  0  0  0  0
  -24.3110  -10.6470   20.7480 C   0  0  0  0  0  0  0  0  0  0  0  0
  -24.7240   -9.6600   21.6690 C   0  0  0  0  0  3  0  0  0  0  0  0
  -23.9270   -8.5180   21.8990 C   0  0  0  0  0  3  0  0  0  0  0  0
  -22.7010   -8.3560   21.2100 C   0  0  0  0  0  0  0  0  0  0  0  0
  -22.3060   -9.3310   20.2770 C   0  0  0  0  0  3  0  0  0  0  0  0
  -23.1040  -10.4650   20.0450 C   0  0  0  0  0  3  0  0  0  0  0  0
  -21.8750   -7.2680   21.3500 O   0  0  0  0  0  0  0  0  0  0  0  0
  -21.7660   -6.5940   22.5400 C   0  0  0  0  0  0  0  0  0  0  0  0
  -21.3540   -7.2370   23.7270 C   0  0  0  0  0  3  0  0  0  0  0  0
  -21.1900   -6.4930   24.9120 C   0  0  0  0  0  3  0  0  0  0  0  0
  -21.4280   -5.1050   24.9110 C   0  0  0  0  0  0  0  0  0  0  0  0
  -21.8320   -4.4610   23.7270 C   0  0  0  0  0  3  0  0  0  0  0  0
  -21.9980   -5.2030   22.5450 C   0  0  0  0  0  0  0  0  0  0  0  0
  -22.3670   -4.5740   21.4040 F   0  0  0  0  0  0  0  0  0  0  0  0
  -21.2630   -4.3880   26.0450 F   0  0  0  0  0  0  0  0  0  0  0  0
  -23.4760  -13.8130   21.1070 C   0  0  0  0  0  0  0  0  0  0  0  0
  -22.8160  -13.1540   22.0540 N   0  0  0  0  0  0  0  0  0  0  0  0
  -23.0560  -14.8810   20.6650 O   0  0  0  0  0  0  0  0  0  0  0  0
  -23.1710  -12.2890   22.4340 H   0  0  0  0  0  0  0  0  0  0  0  0
  -21.9450  -13.5230   22.4050 H   0  0  0  0  0  0  0  0  0  0  0  0
  -26.1210  -15.2910   20.0090 N   0  0  0  0  0  0  0  0  0  0  0  0
  -25.4400  -16.0050   20.2410 H   0  0  0  0  0  0  0  0  0  0  0  0
  -26.9740  -15.6660   19.6130 H   0  0  0  0  0  0  0  0  0  0  0  0
  -28.9080  -21.7170   17.4610 C   0  0  0  0  0  2  0  0  0  0  0  0
  -29.8070  -22.9220   17.8400 C   0  0  0  0  0  2  0  0  0  0  0  0
  -29.0650  -24.1460   18.2410 N   0  0  0  0  0  4  0  0  0  0  0  0
  -28.6270  -24.0040   19.1380 H   0  0  0  0  0  0  0  0  0  0  0  0
  -28.3500  -24.3180   17.5530 H   0  0  0  0  0  0  0  0  0  0  0  0
  -29.8980  -25.3760   18.3080 C   0  0  0  0  0  2  0  0  0  0  0  0
  -29.0520  -26.6640   18.3620 C   0  0  0  0  0  2  0  0  0  0  0  0
  -28.5640  -26.8910   19.6850 O   0  0  0  0  0  0  0  0  0  0  0  0
  -24.5490  -31.6500   23.1480 C   0  0  0  0  0  0  0  0  0  0  0  0
  -27.3540  -27.5380   19.7690 C   0  0  0  0  0  0  0  0  0  0  0  0
  -23.3780  -30.2590   21.4720 C   0  0  0  0  0  3  0  0  0  0  0  0
  -24.8730  -28.8740   19.9410 C   0  0  0  0  0  0  0  0  0  0  0  0
  -25.8710  -30.7710   21.2290 C   0  0  0  0  0  2  0  0  0  0  0  0
  -26.0140  -29.4380   20.5250 C   0  0  0  0  0  0  0  0  0  0  0  0
  -27.2560  -28.7700   20.4520 C   0  0  0  0  0  3  0  0  0  0  0  0
  -26.1920  -26.9690   19.2030 C   0  0  0  0  0  3  0  0  0  0  0  0
  -24.9540  -27.6330   19.2850 C   0  0  0  0  0  3  0  0  0  0  0  0
  -23.5840  -29.6560   20.0560 C   0  0  0  0  0  2  0  0  0  0  0  0
  -24.6180  -30.9060   22.0080 N   0  0  0  0  0  0  0  0  0  0  0  0
  -23.4690  -31.8350   23.7280 O   0  0  0  0  0  0  0  0  0  0  0  0
  -22.8130  -29.1570   22.3980 C   0  0  0  0  0  0  0  0  0  0  0  0
  -21.5100  -28.8660   22.2550 N   0  0  0  0  0  0  0  0  0  0  0  0
  -23.5450  -28.5700   23.2000 O   0  0  0  0  0  0  0  0  0  0  0  0
  -20.9780  -29.4000   21.5810 H   0  0  0  0  0  0  0  0  0  0  0  0
  -18.2630  -27.3300   22.6380 C   0  0  0  0  0  0  0  0  0  0  0  0
  -20.7720  -27.8410   22.9910 C   0  0  0  0  0  3  0  0  0  0  0  0
  -21.0360  -26.4360   22.4060 C   0  0  0  0  0  2  0  0  0  0  0  0
  -20.0050  -26.0150   21.3550 C   0  0  0  0  0  2  0  0  0  0  0  0
  -18.5960  -26.0140   21.9560 C   0  0  0  0  0  2  0  0  0  0  0  0
  -19.2850  -28.1960   23.1090 C   0  0  0  0  0  0  0  0  0  0  0  0
  -18.9230  -29.4250   23.7020 C   0  0  0  0  0  3  0  0  0  0  0  0
  -17.5700  -29.7900   23.8310 C   0  0  0  0  0  3  0  0  0  0  0  0
  -16.5620  -28.9230   23.3760 C   0  0  0  0  0  3  0  0  0  0  0  0
  -16.9090  -27.6940   22.7860 C   0  0  0  0  0  3  0  0  0  0  0  0
  -25.8150  -32.3220   23.7630 C   0  0  0  0  0  3  0  0  0  0  0  0
  -26.3660  -31.5690   25.0360 C   0  0  1  0  0  0  0  0  0  0  0  0
  -25.2880  -31.2970   26.1110 C   0  0  0  0  0  1  0  0  0  0  0  0
  -26.9880  -30.2090   24.6390 C   0  0  0  0  0  1  0  0  0  0  0  0
  -27.4950  -32.3990   25.6910 C   0  0  0  0  0  1  0  0  0  0  0  0
  -25.4650  -33.7100   24.0920 N   0  0  0  0  0  0  0  0  0  0  0  0
  -25.7660  -34.7710   23.3320 C   0  0  0  0  0  0  0  0  0  0  0  0
  -26.4420  -34.6890   22.3020 O   0  0  0  0  0  0  0  0  0  0  0  0
  -24.8640  -33.8470   24.8920 H   0  0  0  0  0  0  0  0  0  0  0  0
  -23.9780  -36.5020   22.9730 C   0  0  0  0  0  1  0  0  0  0  0  0
  -25.2320  -36.1430   23.7860 C   0  0  0  0  0  3  0  0  0  0  0  0
  -27.3350  -37.0990   24.6150 C   0  0  0  0  0  1  0  0  0  0  0  0
  -26.2290  -37.2300   23.6710 N   0  0  0  0  0  0  0  0  0  0  0  0
  -25.7920  -38.1360   23.8190 H   0  0  0  0  0  0  0  0  0  0  0  0
  1  2  1  0
  3  1  2  0
  4  3  1  0
  4  6  2  0
  5  7  1  0
  5  2  2  0
  6  5  1  0
  7  8  1  0
  9  3  1  0
 10 11  1  0
 10  9  1  0
 12 10  1  0
 13 15  1  0
 14 15  1  0
 15 10  1  0
 16 17  1  0
 16  7  1  0
 18 24  1  0
 18 26  1  0
 19 24  1  0
 20 21  1  0
 20 19  1  0
 22 21  1  0
 22 31  1  0
 22 23  1  0
 24 23  1  0
 25 18  2  0
 26 17  1  0
 26 27  1  0
 28 29  2  0
 29 48  1  0
 30 29  1  0
 30 33  1  0
 31 32  1  0
 31 28  1  0
 32 30  2  0
 33 34  1  0
 34 35  2  0
 36 39  1  0
 36 35  1  0
 37 36  2  0
 38 37  1  0
 38 33  2  0
 39 40  1  0
 40 45  2  0
 40 41  1  0
 41 42  2  0
 43 42  1  0
 43 47  1  0
 44 43  2  0
 45 44  1  0
 46 45  1  0
 48 49  1  0
 49 52  1  0
 49 51  1  0
 50 48  2  0
 53 28  1  0
 53 54  1  0
 55 53  1  0
 56 57  1  0
 56  4  1  0
 57 58  1  0
 58 61  1  0
 58 59  1  0
 60 58  1  0
 61 62  1  0
 62 63  1  0
 63 65  1  0
 64 75  2  0
 65 70  1  0
 66 74  1  0
 66 76  1  0
 67 73  1  0
 67 69  1  0
 68 74  1  0
 69 68  1  0
 70 69  2  0
 71 72  1  0
 71 65  2  0
 72 67  2  0
 73 66  1  0
 74 64  1  0
 76 78  2  0
 77 76  1  0
 79 77  1  0
 80 89  2  0
 80 85  1  0
 81 77  1  0
 81 85  1  0
 82 81  1  0
 83 84  1  0
 83 82  1  0
 84 80  1  0
 85 86  2  0
 86 87  1  0
 88 87  2  0
 89 88  1  0
 90 64  1  0
 90 95  1  0
 90 91  1  0
 91 94  1  1
 91 92  1  0
 93 91  1  0
 95 98  1  0
 96100  1  0
 96 95  1  0
 97 96  2  0
100 99  1  0
102100  1  0
102103  1  0
102101  1  0
M  ISO  4  18 100  26 100  62 101  63 101
M  END
>  <TORSDO>  (23) 
F 26

>  <SCORE>  (23) 
-9.004

>  <name>  (23) 
22

>  <ligand_id>  (23) 
22

>  <original_smiles>  (23) 
[H]c1c(N([H])C([H])([H])C([H])([H])N([H])C(=O)N2C([H])([H])C([H])([H])C([H])([H])C([H])(n3nc(-c4c([H])c([H])c(Oc5c([H])c([H])c(F)c([H])c5F)c([H])c4[H])c(C(=O)N([H])[H])c3N([H])[H])C2([H])[H])nc(C([H])([H])C([H])([H])[N+]([H])([H])C([H])([H])C([H])([H])Oc2c([H])c([H])c3c(c2[H])C([H])([H])N(C(=O)C([H])(N([H])C(=O)C([H])(N([H])C([H])([H])[H])C([H])([H])[H])C(C([H])([H])[H])(C([H])([H])[H])C([H])([H])[H])C([H])(C(=O)N([H])C2([H])c4c([H])c([H])c([H])c([H])c4C([H])([H])C([H])([H])C2([H])[H])C3([H])[H])c(C([H])([H])[N+]([H])([H])C([H])(C([H])([H])[H])C([H])([H])[H])c1[H]

>  <smiles>  (23) 
[H]c1c(N([H])C([H])([H])C([H])([H])N([H])C(=O)N2C([H])([H])C([H])([H])C([H])([H])C([H])(n3nc(-c4c([H])c([H])c(Oc5c([H])c([H])c(F)c([H])c5F)c([H])c4[H])c(C(=O)N([H])[H])c3N([H])[H])C2([H])[H])nc(C([H])([H])C([H])([H])[N+]([H])([H])C([H])([H])C([H])([H])Oc2c([H])c([H])c3c(c2[H])C([H])([H])N(C(=O)C([H])(N([H])C(=O)C([H])(N([H])C([H])([H])[H])C([H])([H])[H])C(C([H])([H])[H])(C([H])([H])[H])C([H])([H])[H])C([H])(C(=O)N([H])C2([H])c4c([H])c([H])c([H])c([H])c4C([H])([H])C([H])([H])C2([H])[H])C3([H])[H])c(C([H])([H])[N+]([H])([H])C([H])(C([H])([H])[H])C([H])([H])[H])c1[H]

$$$$
23:0:0
     RDKit          3D

 95103  0  0  1  0  0  0  0  0999 V2000
  -28.7500  -23.5760   18.5700 C   0  0  0  0  0  3  0  0  0  0  0  0
  -28.5830  -22.8520   19.7680 C   0  0  0  0  0  0  0  0  0  0  0  0
  -28.4700  -23.5910   20.9730 C   0  0  0  0  0  0  0  0  0  0  0  0
  -28.4610  -25.0120   20.8960 C   0  0  0  0  0  0  0  0  0  0  0  0
  -28.5530  -25.6300   19.6260 C   0  0  0  0  0  0  0  0  0  0  0  0
  -28.3370  -25.8740   22.1480 C   0  0  0  0  0  1  0  0  0  0  0  0
  -28.7430  -24.9210   18.4940 N   0  0  0  0  0  0  0  0  0  0  0  0
  -26.8400  -22.7040   22.7170 C   0  0  0  0  0  1  0  0  0  0  0  0
  -28.3100  -22.8760   22.3110 C   0  0  0  0  0  2  0  0  0  0  0  0
  -28.5130  -27.0000   19.4440 O   0  0  0  0  0  0  0  0  0  0  0  0
  -24.7610  -31.8100   23.1530 C   0  0  0  0  0  0  0  0  0  0  0  0
  -27.3220  -27.6900   19.5830 C   0  0  0  0  0  0  0  0  0  0  0  0
  -23.5010  -30.5470   21.4380 C   0  0  0  0  0  3  0  0  0  0  0  0
  -24.9110  -29.1590   19.8270 C   0  0  0  0  0  0  0  0  0  0  0  0
  -26.0160  -30.9510   21.1780 C   0  0  0  0  0  2  0  0  0  0  0  0
  -26.0880  -29.6440   20.4140 C   0  0  0  0  0  0  0  0  0  0  0  0
  -27.2950  -28.9170   20.2890 C   0  0  0  0  0  3  0  0  0  0  0  0
  -26.1270  -27.2200   18.9940 C   0  0  0  0  0  3  0  0  0  0  0  0
  -24.9250  -27.9430   19.1180 C   0  0  0  0  0  3  0  0  0  0  0  0
  -23.6630  -29.9940   19.9980 C   0  0  0  0  0  2  0  0  0  0  0  0
  -24.7780  -31.1130   21.9810 N   0  0  0  0  0  0  0  0  0  0  0  0
  -23.7000  -32.0220   23.7570 O   0  0  0  0  0  0  0  0  0  0  0  0
  -22.8950  -29.4390   22.3290 C   0  0  0  0  0  0  0  0  0  0  0  0
  -21.5700  -29.2460   22.2270 N   0  0  0  0  0  0  0  0  0  0  0  0
  -23.6110  -28.7600   23.0690 O   0  0  0  0  0  0  0  0  0  0  0  0
  -21.0520  -29.8470   21.6010 H   0  0  0  0  0  0  0  0  0  0  0  0
  -18.2290  -27.9600   22.7220 C   0  0  0  0  0  0  0  0  0  0  0  0
  -20.7910  -28.2340   22.9370 C   0  0  0  0  0  3  0  0  0  0  0  0
  -20.8930  -26.8590   22.2370 C   0  0  0  0  0  2  0  0  0  0  0  0
  -19.7640  -26.6090   21.2320 C   0  0  0  0  0  2  0  0  0  0  0  0
  -18.4010  -26.6750   21.9290 C   0  0  0  0  0  2  0  0  0  0  0  0
  -19.3510  -28.6990   23.1820 C   0  0  0  0  0  0  0  0  0  0  0  0
  -19.1350  -29.9030   23.8860 C   0  0  0  0  0  3  0  0  0  0  0  0
  -17.8300  -30.3700   24.1340 C   0  0  0  0  0  3  0  0  0  0  0  0
  -16.7230  -29.6250   23.6910 C   0  0  0  0  0  3  0  0  0  0  0  0
  -16.9230  -28.4220   22.9910 C   0  0  0  0  0  3  0  0  0  0  0  0
  -26.0660  -32.3970   23.7740 C   0  0  0  0  0  3  0  0  0  0  0  0
  -25.7610  -33.7590   24.2330 N   0  0  0  0  0  0  0  0  0  0  0  0
  -26.0540  -34.8740   23.5500 C   0  0  0  0  0  0  0  0  0  0  0  0
  -26.6790  -34.8640   22.4870 O   0  0  0  0  0  0  0  0  0  0  0  0
  -25.1900  -33.8390   25.0620 H   0  0  0  0  0  0  0  0  0  0  0  0
  -24.2980  -36.6720   23.4290 C   0  0  0  0  0  1  0  0  0  0  0  0
  -25.5800  -36.2160   24.1430 C   0  0  0  0  0  3  0  0  0  0  0  0
  -27.7430  -37.0600   24.9460 C   0  0  0  0  0  1  0  0  0  0  0  0
  -26.5990  -37.2860   24.0670 N   0  0  0  0  0  0  0  0  0  0  0  0
  -26.1910  -38.1860   24.3030 H   0  0  0  0  0  0  0  0  0  0  0  0
  -26.6410  -31.5220   24.9550 C   0  0  1  0  0  0  0  0  0  0  0  0
  -25.5980  -31.1860   26.0460 C   0  0  0  0  0  1  0  0  0  0  0  0
  -27.2140  -30.1880   24.4220 C   0  0  0  0  0  1  0  0  0  0  0  0
  -27.8180  -32.2680   25.6290 C   0  0  0  0  0  1  0  0  0  0  0  0
  -28.3740  -21.3290   19.6850 C   0  0  0  0  0  2  0  0  0  0  0  0
  -29.5950  -20.3840   19.8950 C   0  0  0  0  0  2  0  0  0  0  0  0
  -29.1580  -18.9750   19.7000 N   0  0  0  0  0  4  0  0  0  0  0  0
  -28.7160  -18.9500   18.7950 H   0  0  0  0  0  0  0  0  0  0  0  0
  -28.4460  -18.7440   20.3720 H   0  0  0  0  0  0  0  0  0  0  0  0
  -30.1680  -17.8830   19.6670 C   0  0  0  0  0  2  0  0  0  0  0  0
  -30.4110  -17.1960   21.0410 C   0  0  0  0  0  2  0  0  0  0  0  0
  -31.0370  -14.8000   20.3910 C   0  0  0  0  0  0  0  0  0  0  0  0
  -30.7820  -12.6400   19.2190 C   0  0  0  0  0  2  0  0  0  0  0  0
  -29.8270  -12.8450   18.0230 C   0  0  0  0  0  2  0  0  0  0  0  0
  -28.3480  -12.7230   18.4490 C   0  0  0  0  0  2  0  0  0  0  0  0
  -28.0240  -13.5480   19.7220 C   0  0  0  0  0  3  0  0  0  0  0  0
  -29.0780  -13.2800   20.8210 C   0  0  0  0  0  2  0  0  0  0  0  0
  -30.4050  -13.6020   20.2620 N   0  0  0  0  0  0  0  0  0  0  0  0
  -32.1320  -15.0590   19.8780 O   0  0  0  0  0  0  0  0  0  0  0  0
  -30.2790  -15.7330   20.9890 N   0  0  0  0  0  0  0  0  0  0  0  0
  -29.4180  -15.3650   21.3670 H   0  0  0  0  0  0  0  0  0  0  0  0
  -25.6480  -14.1980   20.4780 C   0  0  0  0  0  0  0  0  0  0  0  0
  -24.5610  -13.4400   20.8230 C   0  0  0  0  0  0  0  0  0  0  0  0
  -24.9820  -12.0790   20.7250 C   0  0  0  0  0  0  0  0  0  0  0  0
  -26.6660  -13.2960   20.1980 N   0  0  0  0  0  0  0  0  0  0  0  0
  -26.2670  -12.0150   20.4010 N   0  0  0  0  0  0  0  0  0  0  0  0
  -24.2230  -10.8310   20.8670 C   0  0  0  0  0  0  0  0  0  0  0  0
  -24.6060   -9.8370   21.7950 C   0  0  0  0  0  3  0  0  0  0  0  0
  -23.8530   -8.6510   21.9250 C   0  0  0  0  0  3  0  0  0  0  0  0
  -22.7020   -8.4500   21.1260 C   0  0  0  0  0  0  0  0  0  0  0  0
  -22.3380   -9.4330   20.1880 C   0  0  0  0  0  3  0  0  0  0  0  0
  -23.0910  -10.6100   20.0560 C   0  0  0  0  0  3  0  0  0  0  0  0
  -21.9230   -7.3180   21.1650 O   0  0  0  0  0  0  0  0  0  0  0  0
  -21.7760   -6.5850   22.3140 C   0  0  0  0  0  0  0  0  0  0  0  0
  -21.2350   -7.1470   23.4910 C   0  0  0  0  0  3  0  0  0  0  0  0
  -21.0380   -6.3410   24.6300 C   0  0  0  0  0  3  0  0  0  0  0  0
  -21.3700   -4.9740   24.5920 C   0  0  0  0  0  0  0  0  0  0  0  0
  -21.9030   -4.4100   23.4190 C   0  0  0  0  0  3  0  0  0  0  0  0
  -22.1020   -5.2150   22.2820 C   0  0  0  0  0  0  0  0  0  0  0  0
  -22.5970   -4.6640   21.1480 F   0  0  0  0  0  0  0  0  0  0  0  0
  -21.1740   -4.1960   25.6820 F   0  0  0  0  0  0  0  0  0  0  0  0
  -23.1790  -13.9430   21.1300 C   0  0  0  0  0  0  0  0  0  0  0  0
  -22.4430  -13.2320   21.9750 N   0  0  0  0  0  0  0  0  0  0  0  0
  -22.7630  -14.9990   20.6550 O   0  0  0  0  0  0  0  0  0  0  0  0
  -22.7930  -12.3750   22.3810 H   0  0  0  0  0  0  0  0  0  0  0  0
  -21.5160  -13.5470   22.2240 H   0  0  0  0  0  0  0  0  0  0  0  0
  -25.8520  -15.5680   20.3610 N   0  0  0  0  0  0  0  0  0  0  0  0
  -25.1140  -16.2400   20.5400 H   0  0  0  0  0  0  0  0  0  0  0  0
  -26.6860  -15.9900   19.9770 H   0  0  0  0  0  0  0  0  0  0  0  0
  1  2  2  0
  2  3  1  0
  3  9  1  0
  4  3  2  0
  4  6  1  0
  5  4  1  0
  7  1  1  0
  7  5  2  0
  9  8  1  0
 10 12  1  0
 10  5  1  0
 11 22  2  0
 12 17  1  0
 13 21  1  0
 13 23  1  0
 14 20  1  0
 14 16  1  0
 15 21  1  0
 16 15  1  0
 17 16  2  0
 18 19  1  0
 18 12  2  0
 19 14  2  0
 20 13  1  0
 21 11  1  0
 23 25  2  0
 24 23  1  0
 26 24  1  0
 27 36  2  0
 27 32  1  0
 28 24  1  0
 28 32  1  0
 29 28  1  0
 30 31  1  0
 30 29  1  0
 31 27  1  0
 32 33  2  0
 33 34  1  0
 35 34  2  0
 36 35  1  0
 37 11  1  0
 37 38  1  0
 37 47  1  0
 38 41  1  0
 39 43  1  0
 39 38  1  0
 40 39  2  0
 43 42  1  0
 45 43  1  0
 45 46  1  0
 45 44  1  0
 47 50  1  1
 47 48  1  0
 49 47  1  0
 51  2  1  0
 51 52  1  0
 53 52  1  0
 53 55  1  0
 54 53  1  0
 56 53  1  0
 56 57  1  0
 58 66  1  0
 59 64  1  0
 60 61  1  0
 60 59  1  0
 62 61  1  0
 62 71  1  0
 62 63  1  0
 64 58  1  0
 64 63  1  0
 65 58  2  0
 66 57  1  0
 66 67  1  0
 68 69  2  0
 69 88  1  0
 70 69  1  0
 70 73  1  0
 71 72  1  0
 71 68  1  0
 72 70  2  0
 73 74  1  0
 74 75  2  0
 76 79  1  0
 76 75  1  0
 77 76  2  0
 78 77  1  0
 78 73  2  0
 79 80  1  0
 80 81  1  0
 81 82  2  0
 83 82  1  0
 83 87  1  0
 84 83  2  0
 85 80  2  0
 85 84  1  0
 86 85  1  0
 88 89  1  0
 89 92  1  0
 89 91  1  0
 90 88  2  0
 93 68  1  0
 93 94  1  0
 95 93  1  0
M  ISO  4   5 101  10 101  58 100  66 100
M  END
>  <TORSDO>  (24) 
F 22

>  <SCORE>  (24) 
-10.437

>  <name>  (24) 
23

>  <ligand_id>  (24) 
23

>  <original_smiles>  (24) 
[H]c1nc(Oc2c([H])c([H])c3c(c2[H])C([H])([H])N(C(=O)C([H])(N([H])C(=O)C([H])(N([H])C([H])([H])[H])C([H])([H])[H])C(C([H])([H])[H])(C([H])([H])[H])C([H])([H])[H])C([H])(C(=O)N([H])C2([H])c4c([H])c([H])c([H])c([H])c4C([H])([H])C([H])([H])C2([H])[H])C3([H])[H])c(C([H])([H])[H])c(C([H])([H])C([H])([H])[H])c1C([H])([H])C([H])([H])[N+]([H])([H])C([H])([H])C([H])([H])N([H])C(=O)N1C([H])([H])C([H])([H])C([H])([H])C([H])(n2nc(-c3c([H])c([H])c(Oc4c([H])c([H])c(F)c([H])c4F)c([H])c3[H])c(C(=O)N([H])[H])c2N([H])[H])C1([H])[H]

>  <smiles>  (24) 
[H]c1nc(Oc2c([H])c([H])c3c(c2[H])C([H])([H])N(C(=O)C([H])(N([H])C(=O)C([H])(N([H])C([H])([H])[H])C([H])([H])[H])C(C([H])([H])[H])(C([H])([H])[H])C([H])([H])[H])C([H])(C(=O)N([H])C2([H])c4c([H])c([H])c([H])c([H])c4C([H])([H])C([H])([H])C2([H])[H])C3([H])[H])c(C([H])([H])[H])c(C([H])([H])C([H])([H])[H])c1C([H])([H])C([H])([H])[N+]([H])([H])C([H])([H])C([H])([H])N([H])C(=O)N1C([H])([H])C([H])([H])C([H])([H])C([H])(n2nc(-c3c([H])c([H])c(Oc4c([H])c([H])c(F)c([H])c4F)c([H])c3[H])c(C(=O)N([H])[H])c2N([H])[H])C1([H])[H]

$$$$
24:0:0
     RDKit          3D

100110  0  0  1  0  0  0  0  0999 V2000
  -28.5370  -23.6580   18.4350 C   0  0  0  0  0  3  0  0  0  0  0  0
  -29.1590  -22.3970   18.5030 C   0  0  0  0  0  3  0  0  0  0  0  0
  -29.2890  -24.8180   18.7180 C   0  0  0  0  0  0  0  0  0  0  0  0
  -30.6330  -24.6570   19.1290 C   0  0  0  0  0  0  0  0  0  0  0  0
  -30.5170  -22.3310   18.8640 C   0  0  0  0  0  0  0  0  0  0  0  0
  -31.2150  -23.4380   19.2020 N   0  0  0  0  0  0  0  0  0  0  0  0
  -33.7080  -26.9110   19.0760 C   0  0  0  0  0  2  0  0  0  0  0  0
  -33.5390  -26.6770   20.5860 C   0  0  0  0  0  2  0  0  0  0  0  0
  -32.6910  -26.0000   18.3840 C   0  0  0  0  0  2  0  0  0  0  0  0
  -32.3000  -25.7830   20.7580 C   0  0  0  0  0  2  0  0  0  0  0  0
  -31.5670  -25.8380   19.4100 C   0  0  0  0  0  3  0  0  0  0  0  0
  -32.7650  -21.1090   19.2450 C   0  0  0  0  0  1  0  0  0  0  0  0
  -31.3110  -21.0280   18.7120 C   0  0  0  0  0  3  0  0  0  0  0  0
  -30.2180  -17.3370   18.7970 C   0  0  0  0  0  2  0  0  0  0  0  0
  -29.9570  -18.2240   21.0830 C   0  0  0  0  0  2  0  0  0  0  0  0
  -30.8910  -18.6360   18.3310 C   0  0  0  0  0  2  0  0  0  0  0  0
  -30.6250  -19.5590   20.6540 C   0  0  0  0  0  2  0  0  0  0  0  0
  -30.5620  -17.0690   20.2700 C   0  0  0  0  0  3  0  0  0  0  0  0
  -30.5580  -19.8220   19.1790 N   0  0  1  0  0  4  0  0  0  0  0  0
  -29.5950  -20.0470   18.9800 H   0  0  0  0  0  0  0  0  0  0  0  0
  -30.8860  -14.6300   20.3850 C   0  0  0  0  0  0  0  0  0  0  0  0
  -30.5850  -12.4390   19.3320 C   0  0  0  0  0  2  0  0  0  0  0  0
  -29.6570  -12.6230   18.1140 C   0  0  0  0  0  2  0  0  0  0  0  0
  -28.1820  -12.4870   18.5410 C   0  0  0  0  0  2  0  0  0  0  0  0
  -27.8310  -13.3550   19.7790 C   0  0  0  0  0  3  0  0  0  0  0  0
  -28.8840  -13.1910   20.9000 C   0  0  0  0  0  2  0  0  0  0  0  0
  -30.2090  -13.4580   20.3230 N   0  0  0  0  0  0  0  0  0  0  0  0
  -32.0360  -14.7610   19.9580 O   0  0  0  0  0  0  0  0  0  0  0  0
  -30.1500  -15.7170   20.6830 N   0  0  0  0  0  0  0  0  0  0  0  0
  -29.2050  -15.5710   21.0040 H   0  0  0  0  0  0  0  0  0  0  0  0
  -25.4350  -13.9520   20.5020 C   0  0  0  0  0  0  0  0  0  0  0  0
  -24.3690  -13.1740   20.8700 C   0  0  0  0  0  0  0  0  0  0  0  0
  -24.8320  -11.8230   20.8260 C   0  0  0  0  0  0  0  0  0  0  0  0
  -26.4810  -13.0750   20.2610 N   0  0  0  0  0  0  0  0  0  0  0  0
  -26.1220  -11.7900   20.5110 N   0  0  0  0  0  0  0  0  0  0  0  0
  -24.1100  -10.5590   21.0070 C   0  0  0  0  0  0  0  0  0  0  0  0
  -24.5300   -9.5950   21.9510 C   0  0  0  0  0  3  0  0  0  0  0  0
  -23.8070   -8.3950   22.1200 C   0  0  0  0  0  3  0  0  0  0  0  0
  -22.6490   -8.1490   21.3430 C   0  0  0  0  0  0  0  0  0  0  0  0
  -22.2490   -9.1000   20.3880 C   0  0  0  0  0  3  0  0  0  0  0  0
  -22.9730  -10.2920   20.2180 C   0  0  0  0  0  3  0  0  0  0  0  0
  -21.9000   -7.0010   21.4200 O   0  0  0  0  0  0  0  0  0  0  0  0
  -21.7900   -6.2880   22.5880 C   0  0  0  0  0  0  0  0  0  0  0  0
  -21.2740   -6.8680   23.7680 C   0  0  0  0  0  3  0  0  0  0  0  0
  -21.1120   -6.0810   24.9260 C   0  0  0  0  0  3  0  0  0  0  0  0
  -21.4600   -4.7170   24.9050 C   0  0  0  0  0  0  0  0  0  0  0  0
  -21.9710   -4.1370   23.7300 C   0  0  0  0  0  3  0  0  0  0  0  0
  -22.1320   -4.9210   22.5730 C   0  0  0  0  0  0  0  0  0  0  0  0
  -22.6040   -4.3530   21.4380 F   0  0  0  0  0  0  0  0  0  0  0  0
  -21.2990   -3.9590   26.0150 F   0  0  0  0  0  0  0  0  0  0  0  0
  -22.9720  -13.6460   21.1530 C   0  0  0  0  0  0  0  0  0  0  0  0
  -22.2490  -12.9430   22.0170 N   0  0  0  0  0  0  0  0  0  0  0  0
  -22.5290  -14.6740   20.6430 O   0  0  0  0  0  0  0  0  0  0  0  0
  -22.6200  -12.1110   22.4540 H   0  0  0  0  0  0  0  0  0  0  0  0
  -21.3110  -13.2400   22.2480 H   0  0  0  0  0  0  0  0  0  0  0  0
  -25.5950  -15.3240   20.3350 N   0  0  0  0  0  0  0  0  0  0  0  0
  -24.8260  -15.9750   20.4470 H   0  0  0  0  0  0  0  0  0  0  0  0
  -26.4390  -15.7670   19.9940 H   0  0  0  0  0  0  0  0  0  0  0  0
  -28.6640  -26.1850   18.4570 C   0  0  0  0  0  2  0  0  0  0  0  0
  -28.4030  -26.9190   19.6560 O   0  0  0  0  0  0  0  0  0  0  0  0
  -24.5620  -31.7720   23.1600 C   0  0  0  0  0  0  0  0  0  0  0  0
  -27.2070  -27.5980   19.7320 C   0  0  0  0  0  0  0  0  0  0  0  0
  -23.3360  -30.4410   21.4730 C   0  0  0  0  0  3  0  0  0  0  0  0
  -24.7760  -29.0230   19.9210 C   0  0  0  0  0  0  0  0  0  0  0  0
  -25.8450  -30.8700   21.2250 C   0  0  0  0  0  2  0  0  0  0  0  0
  -25.9390  -29.5400   20.5070 C   0  0  0  0  0  0  0  0  0  0  0  0
  -27.1550  -28.8280   20.4220 C   0  0  0  0  0  3  0  0  0  0  0  0
  -26.0200  -27.0740   19.1720 C   0  0  0  0  0  3  0  0  0  0  0  0
  -24.8090  -27.7850   19.2580 C   0  0  0  0  0  3  0  0  0  0  0  0
  -23.5170  -29.8480   20.0510 C   0  0  0  0  0  2  0  0  0  0  0  0
  -24.6010  -31.0400   22.0110 N   0  0  0  0  0  0  0  0  0  0  0  0
  -23.4920  -31.9870   23.7470 O   0  0  0  0  0  0  0  0  0  0  0  0
  -22.7360  -29.3510   22.3890 C   0  0  0  0  0  0  0  0  0  0  0  0
  -21.4180  -29.1240   22.2660 N   0  0  0  0  0  0  0  0  0  0  0  0
  -23.4530  -28.7130   23.1650 O   0  0  0  0  0  0  0  0  0  0  0  0
  -20.9000  -29.6950   21.6120 H   0  0  0  0  0  0  0  0  0  0  0  0
  -18.1070  -27.7470   22.6950 C   0  0  0  0  0  0  0  0  0  0  0  0
  -20.6460  -28.1220   22.9980 C   0  0  0  0  0  3  0  0  0  0  0  0
  -20.8240  -26.7170   22.3730 C   0  0  0  0  0  2  0  0  0  0  0  0
  -19.7460  -26.3760   21.3400 C   0  0  0  0  0  2  0  0  0  0  0  0
  -18.3550  -26.4320   21.9770 C   0  0  0  0  0  2  0  0  0  0  0  0
  -19.1830  -28.5480   23.1600 C   0  0  0  0  0  0  0  0  0  0  0  0
  -18.8990  -29.7790   23.7900 C   0  0  0  0  0  3  0  0  0  0  0  0
  -17.5700  -30.2120   23.9590 C   0  0  0  0  0  3  0  0  0  0  0  0
  -16.5070  -29.4070   23.5110 C   0  0  0  0  0  3  0  0  0  0  0  0
  -16.7770  -28.1760   22.8850 C   0  0  0  0  0  3  0  0  0  0  0  0
  -25.8550  -32.3920   23.7790 C   0  0  0  0  0  3  0  0  0  0  0  0
  -26.3920  -31.5940   25.0280 C   0  0  1  0  0  0  0  0  0  0  0  0
  -25.3170  -31.3350   26.1100 C   0  0  0  0  0  1  0  0  0  0  0  0
  -26.9660  -30.2250   24.5950 C   0  0  0  0  0  1  0  0  0  0  0  0
  -27.5560  -32.3720   25.6870 C   0  0  0  0  0  1  0  0  0  0  0  0
  -25.5460  -33.7820   24.1410 N   0  0  0  0  0  0  0  0  0  0  0  0
  -25.8890  -34.8520   23.4120 C   0  0  0  0  0  0  0  0  0  0  0  0
  -26.5710  -34.7730   22.3870 O   0  0  0  0  0  0  0  0  0  0  0  0
  -24.9440  -33.9170   24.9410 H   0  0  0  0  0  0  0  0  0  0  0  0
  -24.1710  -36.6560   23.0800 C   0  0  0  0  0  1  0  0  0  0  0  0
  -25.3980  -36.2290   23.8980 C   0  0  0  0  0  3  0  0  0  0  0  0
  -27.5220  -37.0870   24.7830 C   0  0  0  0  0  1  0  0  0  0  0  0
  -26.4350  -37.2820   23.8270 N   0  0  0  0  0  0  0  0  0  0  0  0
  -26.0300  -38.1990   23.9910 H   0  0  0  0  0  0  0  0  0  0  0  0
  1  2  2  0
  1  3  1  0
  2  5  1  0
  3  4  2  0
  4  6  1  0
  4 11  1  0
  5  6  2  0
  7  8  1  0
  8 10  1  0
  9  7  1  0
  9 11  1  0
 11 10  1  0
 13  5  1  0
 13 19  1  0
 13 12  1  0
 14 18  1  0
 16 14  1  0
 16 19  1  0
 17 15  1  0
 18 29  1  0
 18 15  1  0
 19 17  1  0
 19 20  1  6
 21 29  1  0
 22 27  1  0
 23 24  1  0
 23 22  1  0
 25 24  1  0
 25 34  1  0
 25 26  1  0
 27 21  1  0
 27 26  1  0
 28 21  2  0
 29 30  1  0
 31 32  2  0
 32 51  1  0
 33 32  1  0
 33 36  1  0
 34 31  1  0
 34 35  1  0
 35 33  2  0
 36 37  1  0
 37 38  2  0
 39 42  1  0
 39 38  1  0
 40 39  2  0
 41 40  1  0
 41 36  2  0
 42 43  1  0
 43 44  1  0
 44 45  2  0
 46 45  1  0
 46 50  1  0
 47 46  2  0
 48 43  2  0
 48 47  1  0
 49 48  1  0
 51 52  1  0
 52 55  1  0
 52 54  1  0
 53 51  2  0
 56 57  1  0
 56 31  1  0
 58 56  1  0
 59  3  1  0
 59 60  1  0
 60 62  1  0
 61 72  2  0
 62 67  1  0
 63 71  1  0
 63 73  1  0
 64 70  1  0
 64 66  1  0
 65 71  1  0
 66 65  1  0
 67 66  2  0
 68 69  1  0
 68 62  2  0
 69 64  2  0
 70 63  1  0
 71 61  1  0
 73 75  2  0
 74 73  1  0
 76 74  1  0
 77 86  2  0
 77 82  1  0
 78 74  1  0
 78 82  1  0
 79 78  1  0
 80 81  1  0
 80 79  1  0
 81 77  1  0
 82 83  2  0
 83 84  1  0
 85 84  2  0
 86 85  1  0
 87 61  1  0
 87 92  1  0
 87 88  1  0
 88 91  1  1
 88 89  1  0
 90 88  1  0
 92 95  1  0
 93 97  1  0
 93 92  1  0
 94 93  2  0
 97 96  1  0
 99 97  1  0
 99100  1  0
 99 98  1  0
M  ISO  4  21 100  29 100  59 101  60 101
M  END
>  <TORSDO>  (25) 
F 20

>  <SCORE>  (25) 
-13.699

>  <name>  (25) 
24

>  <ligand_id>  (25) 
24

>  <original_smiles>  (25) 
[H]c1c(C([H])(C([H])([H])[H])[N+]2([H])C([H])([H])C([H])([H])C([H])(N([H])C(=O)N3C([H])([H])C([H])([H])C([H])([H])C([H])(n4nc(-c5c([H])c([H])c(Oc6c([H])c([H])c(F)c([H])c6F)c([H])c5[H])c(C(=O)N([H])[H])c4N([H])[H])C3([H])[H])C([H])([H])C2([H])[H])nc(C2([H])C([H])([H])C([H])([H])C([H])([H])C2([H])[H])c(C([H])([H])Oc2c([H])c([H])c3c(c2[H])C([H])([H])N(C(=O)C([H])(N([H])C(=O)C([H])(N([H])C([H])([H])[H])C([H])([H])[H])C(C([H])([H])[H])(C([H])([H])[H])C([H])([H])[H])C([H])(C(=O)N([H])C2([H])c4c([H])c([H])c([H])c([H])c4C([H])([H])C([H])([H])C2([H])[H])C3([H])[H])c1[H]

>  <smiles>  (25) 
[H]c1c(C([H])(C([H])([H])[H])[N+]2([H])C([H])([H])C([H])([H])C([H])(N([H])C(=O)N3C([H])([H])C([H])([H])C([H])([H])C([H])(n4nc(-c5c([H])c([H])c(Oc6c([H])c([H])c(F)c([H])c6F)c([H])c5[H])c(C(=O)N([H])[H])c4N([H])[H])C3([H])[H])C([H])([H])C2([H])[H])nc(C2([H])C([H])([H])C([H])([H])C([H])([H])C2([H])[H])c(C([H])([H])Oc2c([H])c([H])c3c(c2[H])C([H])([H])N(C(=O)C([H])(N([H])C(=O)C([H])(N([H])C([H])([H])[H])C([H])([H])[H])C(C([H])([H])[H])(C([H])([H])[H])C([H])([H])[H])C([H])(C(=O)N([H])C2([H])c4c([H])c([H])c([H])c([H])c4C([H])([H])C([H])([H])C2([H])[H])C3([H])[H])c1[H]

$$$$
25:0:0
     RDKit          3D

 94102  0  0  1  0  0  0  0  0999 V2000
  -28.8220  -21.2410   22.4390 C   0  0  0  0  0  3  0  0  0  0  0  0
  -28.4620  -21.3880   20.0380 C   0  0  0  0  0  3  0  0  0  0  0  0
  -28.8230  -22.6460   22.5290 C   0  0  0  0  0  3  0  0  0  0  0  0
  -28.4830  -22.7950   20.1280 C   0  0  0  0  0  3  0  0  0  0  0  0
  -28.6490  -20.6010   21.1950 C   0  0  0  0  0  0  0  0  0  0  0  0
  -28.6760  -23.4420   21.3670 C   0  0  0  0  0  0  0  0  0  0  0  0
  -28.6870  -19.0820   21.1080 C   0  0  0  0  0  2  0  0  0  0  0  0
  -29.8530  -18.6520   20.3090 N   0  0  0  0  0  4  0  0  0  0  0  0
  -30.3830  -19.4780   20.0950 H   0  0  0  0  0  0  0  0  0  0  0  0
  -29.5110  -18.2740   19.4400 H   0  0  0  0  0  0  0  0  0  0  0  0
  -30.7450  -17.6660   20.9590 C   0  0  0  0  0  2  0  0  0  0  0  0
  -31.5730  -16.9030   19.9080 C   0  0  0  0  0  2  0  0  0  0  0  0
  -32.8380  -14.8280   19.8220 C   0  0  0  0  0  0  0  0  0  0  0  0
  -32.2660  -12.5040   19.2220 C   0  0  0  0  0  2  0  0  0  0  0  0
  -31.3410  -12.4380   17.9920 C   0  0  0  0  0  2  0  0  0  0  0  0
  -29.8640  -12.5540   18.4200 C   0  0  0  0  0  2  0  0  0  0  0  0
  -29.6200  -13.7670   19.3520 C   0  0  0  0  0  3  0  0  0  0  0  0
  -30.6450  -13.7820   20.5100 C   0  0  0  0  0  2  0  0  0  0  0  0
  -32.0000  -13.7630   19.9310 N   0  0  0  0  0  0  0  0  0  0  0  0
  -33.9090  -14.7910   19.2110 O   0  0  0  0  0  0  0  0  0  0  0  0
  -32.4940  -15.9300   20.4990 N   0  0  0  0  0  0  0  0  0  0  0  0
  -33.3190  -16.3920   20.8550 H   0  0  0  0  0  0  0  0  0  0  0  0
  -27.4390  -14.8920   20.1310 C   0  0  0  0  0  0  0  0  0  0  0  0
  -26.2310  -14.3720   20.5080 C   0  0  0  0  0  0  0  0  0  0  0  0
  -26.3700  -12.9520   20.4290 C   0  0  0  0  0  0  0  0  0  0  0  0
  -28.2490  -13.8000   19.8500 N   0  0  0  0  0  0  0  0  0  0  0  0
  -27.6090  -12.6290   20.0870 N   0  0  0  0  0  0  0  0  0  0  0  0
  -25.3820  -11.8800   20.6000 C   0  0  0  0  0  0  0  0  0  0  0  0
  -25.6160  -10.7950   21.4720 C   0  0  0  0  0  3  0  0  0  0  0  0
  -24.6450   -9.7830   21.6320 C   0  0  0  0  0  3  0  0  0  0  0  0
  -23.4250   -9.8530   20.9170 C   0  0  0  0  0  0  0  0  0  0  0  0
  -23.2090  -10.9220   20.0310 C   0  0  0  0  0  3  0  0  0  0  0  0
  -24.1790  -11.9260   19.8700 C   0  0  0  0  0  3  0  0  0  0  0  0
  -22.4360   -8.9020   20.9870 O   0  0  0  0  0  0  0  0  0  0  0  0
  -22.2280   -8.1640   22.1250 C   0  0  0  0  0  0  0  0  0  0  0  0
  -21.9700   -8.7730   23.3730 C   0  0  0  0  0  3  0  0  0  0  0  0
  -21.6920   -7.9770   24.5020 C   0  0  0  0  0  3  0  0  0  0  0  0
  -21.6640   -6.5740   24.3840 C   0  0  0  0  0  0  0  0  0  0  0  0
  -21.9140   -5.9660   23.1410 C   0  0  0  0  0  3  0  0  0  0  0  0
  -22.1920   -6.7590   22.0140 C   0  0  0  0  0  0  0  0  0  0  0  0
  -22.4120   -6.1700   20.8150 F   0  0  0  0  0  0  0  0  0  0  0  0
  -21.3880   -5.8070   25.4650 F   0  0  0  0  0  0  0  0  0  0  0  0
  -24.9810  -15.1420   20.8210 C   0  0  0  0  0  0  0  0  0  0  0  0
  -24.1290  -14.6010   21.6840 N   0  0  0  0  0  0  0  0  0  0  0  0
  -24.7780  -16.2550   20.3340 O   0  0  0  0  0  0  0  0  0  0  0  0
  -24.3070  -13.6970   22.0930 H   0  0  0  0  0  0  0  0  0  0  0  0
  -23.2850  -15.0960   21.9380 H   0  0  0  0  0  0  0  0  0  0  0  0
  -27.9130  -16.1930   19.9770 N   0  0  0  0  0  0  0  0  0  0  0  0
  -27.2090  -16.9230   19.9440 H   0  0  0  0  0  0  0  0  0  0  0  0
  -28.6410  -16.3460   19.2890 H   0  0  0  0  0  0  0  0  0  0  0  0
  -28.6690  -24.8220   21.3500 O   0  0  0  0  0  0  0  0  0  0  0  0
  -29.6350  -25.5520   22.1100 C   0  0  0  0  0  2  0  0  0  0  0  0
  -30.5900  -26.3120   21.1660 C   0  0  0  0  0  2  0  0  0  0  0  0
  -30.3840  -27.7250   21.2330 O   0  0  0  0  0  0  0  0  0  0  0  0
  -25.1890  -31.8750   23.7230 C   0  0  0  0  0  0  0  0  0  0  0  0
  -29.1090  -28.2010   21.0290 C   0  0  0  0  0  0  0  0  0  0  0  0
  -24.5780  -30.4230   21.8160 C   0  0  0  0  0  3  0  0  0  0  0  0
  -26.5190  -29.2590   20.6440 C   0  0  0  0  0  0  0  0  0  0  0  0
  -26.9910  -31.2150   22.1330 C   0  0  0  0  0  2  0  0  0  0  0  0
  -27.4350  -29.9320   21.4640 C   0  0  0  0  0  0  0  0  0  0  0  0
  -28.7320  -29.4100   21.6500 C   0  0  0  0  0  3  0  0  0  0  0  0
  -28.1730  -27.5340   20.2060 C   0  0  0  0  0  3  0  0  0  0  0  0
  -26.8830  -28.0580   20.0120 C   0  0  0  0  0  3  0  0  0  0  0  0
  -25.1570  -29.8930   20.4780 C   0  0  0  0  0  2  0  0  0  0  0  0
  -25.5910  -31.1840   22.6190 N   0  0  0  0  0  0  0  0  0  0  0  0
  -23.9970  -31.9220   24.0530 O   0  0  0  0  0  0  0  0  0  0  0  0
  -23.9540  -29.2370   22.5850 C   0  0  0  0  0  0  0  0  0  0  0  0
  -22.7190  -28.8660   22.2080 N   0  0  0  0  0  0  0  0  0  0  0  0
  -24.5830  -28.6580   23.4720 O   0  0  0  0  0  0  0  0  0  0  0  0
  -22.2700  -29.3980   21.4740 H   0  0  0  0  0  0  0  0  0  0  0  0
  -19.5210  -27.1920   22.0910 C   0  0  0  0  0  0  0  0  0  0  0  0
  -21.9520  -27.7520   22.7630 C   0  0  0  0  0  3  0  0  0  0  0  0
  -22.3400  -26.4150   22.0930 C   0  0  0  0  0  2  0  0  0  0  0  0
  -21.4460  -26.0560   20.9020 C   0  0  0  0  0  2  0  0  0  0  0  0
  -19.9820  -25.9530   21.3420 C   0  0  0  0  0  2  0  0  0  0  0  0
  -20.4470  -28.0450   22.7470 C   0  0  0  0  0  0  0  0  0  0  0  0
  -19.9710  -29.2010   23.4010 C   0  0  0  0  0  3  0  0  0  0  0  0
  -18.5980  -29.5100   23.4080 C   0  0  0  0  0  3  0  0  0  0  0  0
  -17.6820  -28.6530   22.7710 C   0  0  0  0  0  3  0  0  0  0  0  0
  -18.1430  -27.4960   22.1190 C   0  0  0  0  0  3  0  0  0  0  0  0
  -26.2060  -32.6630   24.6090 C   0  0  0  0  0  3  0  0  0  0  0  0
  -25.6860  -34.0260   24.7750 N   0  0  0  0  0  0  0  0  0  0  0  0
  -26.0820  -35.0830   24.0530 C   0  0  0  0  0  0  0  0  0  0  0  0
  -26.9870  -35.0220   23.2180 O   0  0  0  0  0  0  0  0  0  0  0  0
  -24.9050  -34.1380   25.4040 H   0  0  0  0  0  0  0  0  0  0  0  0
  -24.3080  -36.6450   23.1950 C   0  0  0  0  0  1  0  0  0  0  0  0
  -25.3560  -36.4200   24.2970 C   0  0  0  0  0  3  0  0  0  0  0  0
  -27.1500  -37.5580   25.5250 C   0  0  0  0  0  1  0  0  0  0  0  0
  -26.2680  -37.5820   24.3610 N   0  0  0  0  0  0  0  0  0  0  0  0
  -25.7440  -38.4530   24.3760 H   0  0  0  0  0  0  0  0  0  0  0  0
  -26.4600  -31.9870   26.0130 C   0  0  1  0  0  0  0  0  0  0  0  0
  -25.1630  -31.6080   26.7640 C   0  0  0  0  0  1  0  0  0  0  0  0
  -27.3080  -30.7040   25.8570 C   0  0  0  0  0  1  0  0  0  0  0  0
  -27.2750  -32.9430   26.9140 C   0  0  0  0  0  1  0  0  0  0  0  0
  1  3  1  0
  2  4  2  0
  2  5  1  0
  4  6  1  0
  5  1  2  0
  6  3  2  0
  7  5  1  0
  8 11  1  0
  8  7  1  0
  9  8  1  0
 10  8  1  0
 12 21  1  0
 12 11  1  0
 13 19  1  0
 13 21  1  0
 14 19  1  0
 15 16  1  0
 15 14  1  0
 17 16  1  0
 17 26  1  0
 17 18  1  0
 19 18  1  0
 20 13  2  0
 21 22  1  0
 23 24  2  0
 24 43  1  0
 25 24  1  0
 25 28  1  0
 26 27  1  0
 26 23  1  0
 27 25  2  0
 28 29  1  0
 29 30  2  0
 31 34  1  0
 31 30  1  0
 32 31  2  0
 33 32  1  0
 33 28  2  0
 34 35  1  0
 35 36  1  0
 36 37  2  0
 38 37  1  0
 38 42  1  0
 39 38  2  0
 40 35  2  0
 40 39  1  0
 41 40  1  0
 43 44  1  0
 44 47  1  0
 44 46  1  0
 45 43  2  0
 48 23  1  0
 49 48  1  0
 50 48  1  0
 51  6  1  0
 51 52  1  0
 53 54  1  0
 53 52  1  0
 55 66  2  0
 56 54  1  0
 56 61  1  0
 57 67  1  0
 57 65  1  0
 58 60  1  0
 59 65  1  0
 60 61  2  0
 60 59  1  0
 62 56  2  0
 63 62  1  0
 63 58  2  0
 64 58  1  0
 64 57  1  0
 65 55  1  0
 67 69  2  0
 68 67  1  0
 70 68  1  0
 71 80  2  0
 71 76  1  0
 72 68  1  0
 73 72  1  0
 74 75  1  0
 74 73  1  0
 75 71  1  0
 76 72  1  0
 76 77  2  0
 77 78  1  0
 79 78  2  0
 80 79  1  0
 81 55  1  0
 81 82  1  0
 81 91  1  0
 82 85  1  0
 83 87  1  0
 83 82  1  0
 84 83  2  0
 87 86  1  0
 87 89  1  0
 89 90  1  0
 89 88  1  0
 91 92  1  1
 91 94  1  0
 93 91  1  0
M  ISO  4  13 100  21 100  53 101  54 101
M  END
>  <TORSDO>  (26) 
F 23

>  <SCORE>  (26) 
-7.106

>  <name>  (26) 
25

>  <ligand_id>  (26) 
25

>  <original_smiles>  (26) 
[H]c1c([H])c([H])c2c(c1[H])C([H])([H])C([H])([H])C([H])([H])C2([H])N([H])C(=O)C1([H])N(C(=O)C([H])(N([H])C(=O)C([H])(N([H])C([H])([H])[H])C([H])([H])[H])C(C([H])([H])[H])(C([H])([H])[H])C([H])([H])[H])C([H])([H])c2c([H])c(OC([H])([H])C([H])([H])Oc3c([H])c([H])c(C([H])([H])[N+]([H])([H])C([H])([H])C([H])([H])N([H])C(=O)N4C([H])([H])C([H])([H])C([H])([H])C([H])(n5nc(-c6c([H])c([H])c(Oc7c([H])c([H])c(F)c([H])c7F)c([H])c6[H])c(C(=O)N([H])[H])c5N([H])[H])C4([H])[H])c([H])c3[H])c([H])c([H])c2C1([H])[H]

>  <smiles>  (26) 
[H]c1c([H])c([H])c2c(c1[H])C([H])([H])C([H])([H])C([H])([H])C2([H])N([H])C(=O)C1([H])N(C(=O)C([H])(N([H])C(=O)C([H])(N([H])C([H])([H])[H])C([H])([H])[H])C(C([H])([H])[H])(C([H])([H])[H])C([H])([H])[H])C([H])([H])c2c([H])c(OC([H])([H])C([H])([H])Oc3c([H])c([H])c(C([H])([H])[N+]([H])([H])C([H])([H])C([H])([H])N([H])C(=O)N4C([H])([H])C([H])([H])C([H])([H])C([H])(n5nc(-c6c([H])c([H])c(Oc7c([H])c([H])c(F)c([H])c7F)c([H])c6[H])c(C(=O)N([H])[H])c5N([H])[H])C4([H])[H])c([H])c3[H])c([H])c([H])c2C1([H])[H]

$$$$
26:0:0
     RDKit          3D

 97106  0  0  1  0  0  0  0  0999 V2000
  -30.6950  -20.1820   21.8810 C   0  0  0  0  0  3  0  0  0  0  0  0
  -31.1130  -21.5210   21.6730 C   0  0  0  0  0  3  0  0  0  0  0  0
  -30.7020  -21.2610   19.3040 C   0  0  0  0  0  3  0  0  0  0  0  0
  -30.2870  -19.3480   20.8050 C   0  0  0  0  0  0  0  0  0  0  0  0
  -31.1190  -22.0780   20.3730 C   0  0  0  0  0  0  0  0  0  0  0  0
  -30.2880  -19.9200   19.5040 C   0  0  0  0  0  0  0  0  0  0  0  0
  -29.8460  -19.1480   18.2740 C   0  0  0  0  0  1  0  0  0  0  0  0
  -30.8430  -14.4860   19.6050 C   0  0  0  0  0  0  0  0  0  0  0  0
  -30.2180  -12.5500   18.1740 C   0  0  0  0  0  2  0  0  0  0  0  0
  -29.1260  -12.9150   17.1480 C   0  0  0  0  0  2  0  0  0  0  0  0
  -27.7200  -12.7650   17.7640 C   0  0  0  0  0  2  0  0  0  0  0  0
  -27.6130  -13.4200   19.1630 C   0  0  0  0  0  3  0  0  0  0  0  0
  -28.7980  -13.0410   20.0720 C   0  0  0  0  0  2  0  0  0  0  0  0
  -30.0470  -13.3950   19.3790 N   0  0  0  0  0  0  0  0  0  0  0  0
  -31.7890  -14.7350   18.8390 O   0  0  0  0  0  0  0  0  0  0  0  0
  -30.7450  -16.8460   20.2550 C   0  0  0  0  0  2  0  0  0  0  0  0
  -29.5190  -16.1710   22.6920 C   0  0  0  0  0  2  0  0  0  0  0  0
  -29.8730  -17.8700   21.0550 C   0  0  0  0  0  3  0  0  0  0  0  0
  -30.4900  -15.1890   22.0060 C   0  0  0  0  0  3  0  0  0  0  0  0
  -31.9070  -15.3010   22.6020 C   0  0  0  0  0  1  0  0  0  0  0  0
  -30.4680  -15.4150   20.5430 N   0  0  0  0  0  0  0  0  0  0  0  0
  -29.9330  -17.5140   22.4390 O   0  0  0  0  0  0  0  0  0  0  0  0
  -25.3700  -13.9880   20.2790 C   0  0  0  0  0  0  0  0  0  0  0  0
  -24.3510  -13.2000   20.7450 C   0  0  0  0  0  0  0  0  0  0  0  0
  -24.7680  -11.8520   20.5330 C   0  0  0  0  0  0  0  0  0  0  0  0
  -26.3390  -13.1160   19.8090 N   0  0  0  0  0  0  0  0  0  0  0  0
  -25.9910  -11.8190   20.0170 N   0  0  0  0  0  0  0  0  0  0  0  0
  -24.0460  -10.5880   20.7410 C   0  0  0  0  0  0  0  0  0  0  0  0
  -24.5750   -9.5600   21.5530 C   0  0  0  0  0  3  0  0  0  0  0  0
  -23.8620   -8.3600   21.7480 C   0  0  0  0  0  3  0  0  0  0  0  0
  -22.5990   -8.1810   21.1340 C   0  0  0  0  0  0  0  0  0  0  0  0
  -22.0840   -9.1980   20.3120 C   0  0  0  0  0  3  0  0  0  0  0  0
  -22.8010  -10.3900   20.1130 C   0  0  0  0  0  3  0  0  0  0  0  0
  -21.8430   -7.0390   21.2450 O   0  0  0  0  0  0  0  0  0  0  0  0
  -21.9030   -6.2410   22.3580 C   0  0  0  0  0  0  0  0  0  0  0  0
  -21.6530   -6.7460   23.6550 C   0  0  0  0  0  3  0  0  0  0  0  0
  -21.6580   -5.8740   24.7620 C   0  0  0  0  0  3  0  0  0  0  0  0
  -21.9070   -4.5010   24.5750 C   0  0  0  0  0  0  0  0  0  0  0  0
  -22.1510   -3.9950   23.2850 C   0  0  0  0  0  3  0  0  0  0  0  0
  -22.1440   -4.8650   22.1800 C   0  0  0  0  0  0  0  0  0  0  0  0
  -22.3560   -4.3690   20.9370 F   0  0  0  0  0  0  0  0  0  0  0  0
  -21.9090   -3.6620   25.6380 F   0  0  0  0  0  0  0  0  0  0  0  0
  -23.0260  -13.6730   21.2700 C   0  0  0  0  0  0  0  0  0  0  0  0
  -22.4340  -12.9340   22.2010 N   0  0  0  0  0  0  0  0  0  0  0  0
  -22.5260  -14.7300   20.8930 O   0  0  0  0  0  0  0  0  0  0  0  0
  -22.8510  -12.0770   22.5340 H   0  0  0  0  0  0  0  0  0  0  0  0
  -21.5510  -13.2360   22.5910 H   0  0  0  0  0  0  0  0  0  0  0  0
  -25.5450  -15.3650   20.2130 N   0  0  0  0  0  0  0  0  0  0  0  0
  -24.8680  -16.0110   20.6040 H   0  0  0  0  0  0  0  0  0  0  0  0
  -26.3730  -15.8220   19.8510 H   0  0  0  0  0  0  0  0  0  0  0  0
  -31.6230  -23.5070   20.0930 C   0  0  0  0  0  2  0  0  0  0  0  0
  -30.7610  -24.5900   20.6340 N   0  0  0  0  0  4  0  0  0  0  0  0
  -30.8730  -24.6110   21.6350 H   0  0  0  0  0  0  0  0  0  0  0  0
  -29.8020  -24.3540   20.4390 H   0  0  0  0  0  0  0  0  0  0  0  0
  -31.0270  -25.9540   20.0860 C   0  0  0  0  0  2  0  0  0  0  0  0
  -29.9600  -26.9980   20.5000 C   0  0  0  0  0  2  0  0  0  0  0  0
  -28.7370  -26.6230   19.8750 O   0  0  0  0  0  0  0  0  0  0  0  0
  -24.8170  -31.6400   23.2370 C   0  0  0  0  0  0  0  0  0  0  0  0
  -27.6060  -27.4090   19.9860 C   0  0  0  0  0  0  0  0  0  0  0  0
  -23.6590  -30.2930   21.5170 C   0  0  0  0  0  3  0  0  0  0  0  0
  -25.1650  -28.8480   20.0480 C   0  0  0  0  0  0  0  0  0  0  0  0
  -26.1820  -30.7030   21.3790 C   0  0  0  0  0  2  0  0  0  0  0  0
  -26.3060  -29.3690   20.6750 C   0  0  0  0  0  0  0  0  0  0  0  0
  -27.5290  -28.6580   20.6490 C   0  0  0  0  0  3  0  0  0  0  0  0
  -26.4480  -26.9010   19.3660 C   0  0  0  0  0  3  0  0  0  0  0  0
  -25.2300  -27.6080   19.3910 C   0  0  0  0  0  3  0  0  0  0  0  0
  -23.9020  -29.6790   20.1130 C   0  0  0  0  0  2  0  0  0  0  0  0
  -24.9030  -30.8920   22.1020 N   0  0  0  0  0  0  0  0  0  0  0  0
  -23.7240  -31.8690   23.7740 O   0  0  0  0  0  0  0  0  0  0  0  0
  -23.0140  -29.2170   22.4200 C   0  0  0  0  0  0  0  0  0  0  0  0
  -21.6960  -29.0070   22.2580 N   0  0  0  0  0  0  0  0  0  0  0  0
  -23.6950  -28.5740   23.2230 O   0  0  0  0  0  0  0  0  0  0  0  0
  -21.2070  -29.5800   21.5860 H   0  0  0  0  0  0  0  0  0  0  0  0
  -18.3430  -27.7210   22.6400 C   0  0  0  0  0  0  0  0  0  0  0  0
  -20.8880  -28.0240   22.9780 C   0  0  0  0  0  3  0  0  0  0  0  0
  -21.0310  -26.6170   22.3520 C   0  0  0  0  0  2  0  0  0  0  0  0
  -19.9640  -26.3130   21.2960 C   0  0  0  0  0  2  0  0  0  0  0  0
  -18.5630  -26.4070   21.9060 C   0  0  0  0  0  2  0  0  0  0  0  0
  -19.4350  -28.4880   23.1240 C   0  0  0  0  0  0  0  0  0  0  0  0
  -19.1780  -29.7180   23.7650 C   0  0  0  0  0  3  0  0  0  0  0  0
  -17.8590  -30.1850   23.9230 C   0  0  0  0  0  3  0  0  0  0  0  0
  -16.7800  -29.4170   23.4530 C   0  0  0  0  0  3  0  0  0  0  0  0
  -17.0230  -28.1840   22.8180 C   0  0  0  0  0  3  0  0  0  0  0  0
  -26.0840  -32.2650   23.8990 C   0  0  0  0  0  3  0  0  0  0  0  0
  -26.6120  -31.4400   25.1370 C   0  0  1  0  0  0  0  0  0  0  0  0
  -25.5130  -31.1060   26.1720 C   0  0  0  0  0  1  0  0  0  0  0  0
  -27.2540  -30.1070   24.6830 C   0  0  0  0  0  1  0  0  0  0  0  0
  -27.7250  -32.2390   25.8590 C   0  0  0  0  0  1  0  0  0  0  0  0
  -25.7430  -33.6360   24.2990 N   0  0  0  0  0  0  0  0  0  0  0  0
  -26.0580  -34.7330   23.5980 C   0  0  0  0  0  0  0  0  0  0  0  0
  -26.7410  -34.6990   22.5690 O   0  0  0  0  0  0  0  0  0  0  0  0
  -25.1390  -33.7350   25.1010 H   0  0  0  0  0  0  0  0  0  0  0  0
  -24.2830  -36.4940   23.3320 C   0  0  0  0  0  1  0  0  0  0  0  0
  -25.5350  -36.0830   24.1240 C   0  0  0  0  0  3  0  0  0  0  0  0
  -27.6540  -36.9720   24.9890 C   0  0  0  0  0  1  0  0  0  0  0  0
  -26.5400  -37.1680   24.0640 N   0  0  0  0  0  0  0  0  0  0  0  0
  -26.1140  -38.0680   24.2670 H   0  0  0  0  0  0  0  0  0  0  0  0
  2  1  1  0
  3  6  2  0
  3  5  1  0
  4  1  2  0
  5  2  2  0
  6  4  1  0
  7  6  1  0
  8 21  1  0
  9 14  1  0
 10 11  1  0
 10  9  1  0
 12 11  1  0
 12 26  1  0
 12 13  1  0
 14  8  1  0
 14 13  1  0
 15  8  2  0
 16 21  1  0
 16 18  1  0
 18  4  1  0
 18 22  1  0
 19 20  1  0
 19 17  1  0
 21 19  1  0
 22 17  1  0
 23 24  2  0
 24 43  1  0
 25 28  1  0
 25 24  1  0
 26 27  1  0
 26 23  1  0
 27 25  2  0
 28 29  1  0
 29 30  2  0
 31 34  1  0
 31 30  1  0
 32 31  2  0
 33 32  1  0
 33 28  2  0
 34 35  1  0
 35 36  1  0
 36 37  2  0
 38 37  1  0
 38 42  1  0
 39 38  2  0
 40 35  2  0
 40 39  1  0
 41 40  1  0
 43 44  1  0
 44 46  1  0
 44 47  1  0
 45 43  2  0
 48 23  1  0
 48 49  1  0
 50 48  1  0
 51  5  1  0
 51 52  1  0
 52 53  1  0
 54 52  1  0
 55 56  1  0
 55 52  1  0
 57 59  1  0
 57 56  1  0
 58 69  2  0
 59 64  1  0
 60 68  1  0
 60 70  1  0
 61 67  1  0
 61 63  1  0
 62 68  1  0
 63 62  1  0
 64 63  2  0
 65 66  1  0
 65 59  2  0
 66 61  2  0
 67 60  1  0
 68 58  1  0
 70 72  2  0
 71 70  1  0
 73 71  1  0
 74 83  2  0
 74 79  1  0
 75 71  1  0
 75 79  1  0
 76 75  1  0
 77 78  1  0
 77 76  1  0
 78 74  1  0
 79 80  2  0
 80 81  1  0
 82 81  2  0
 83 82  1  0
 84 58  1  0
 84 89  1  0
 84 85  1  0
 85 88  1  1
 85 86  1  0
 87 85  1  0
 89 92  1  0
 90 94  1  0
 90 89  1  0
 91 90  2  0
 94 93  1  0
 96 94  1  0
 96 97  1  0
 96 95  1  0
M  ISO  4   8 100  21 100  56 101  57 101
M  END
>  <TORSDO>  (27) 
F 20

>  <SCORE>  (27) 
-7.306

>  <name>  (27) 
26

>  <ligand_id>  (27) 
26

>  <original_smiles>  (27) 
[H]c1c([H])c([H])c2c(c1[H])C([H])([H])C([H])([H])C([H])([H])C2([H])N([H])C(=O)C1([H])N(C(=O)C([H])(N([H])C(=O)C([H])(N([H])C([H])([H])[H])C([H])([H])[H])C(C([H])([H])[H])(C([H])([H])[H])C([H])([H])[H])C([H])([H])c2c([H])c(OC([H])([H])C([H])([H])[N+]([H])([H])C([H])([H])c3c([H])c([H])c(C4([H])OC([H])([H])C([H])(C([H])([H])[H])N(C(=O)N5C([H])([H])C([H])([H])C([H])([H])C([H])(n6nc(-c7c([H])c([H])c(Oc8c([H])c([H])c(F)c([H])c8F)c([H])c7[H])c(C(=O)N([H])[H])c6N([H])[H])C5([H])[H])C4([H])[H])c(C([H])([H])[H])c3[H])c([H])c([H])c2C1([H])[H]

>  <smiles>  (27) 
[H]c1c([H])c([H])c2c(c1[H])C([H])([H])C([H])([H])C([H])([H])C2([H])N([H])C(=O)C1([H])N(C(=O)C([H])(N([H])C(=O)C([H])(N([H])C([H])([H])[H])C([H])([H])[H])C(C([H])([H])[H])(C([H])([H])[H])C([H])([H])[H])C([H])([H])c2c([H])c(OC([H])([H])C([H])([H])[N+]([H])([H])C([H])([H])c3c([H])c([H])c(C4([H])OC([H])([H])C([H])(C([H])([H])[H])N(C(=O)N5C([H])([H])C([H])([H])C([H])([H])C([H])(n6nc(-c7c([H])c([H])c(Oc8c([H])c([H])c(F)c([H])c8F)c([H])c7[H])c(C(=O)N([H])[H])c6N([H])[H])C5([H])[H])C4([H])[H])c(C([H])([H])[H])c3[H])c([H])c([H])c2C1([H])[H]

$$$$
27:0:0
     RDKit          3D

 96104  0  0  1  0  0  0  0  0999 V2000
  -28.7810  -17.6640   19.6810 C   0  0  0  0  0  2  0  0  0  0  0  0
  -26.6310  -17.8250   20.4120 C   0  0  0  0  0  2  0  0  0  0  0  0
  -29.0130  -19.3160   20.0190 C   0  0  0  0  0  2  0  0  0  0  0  0
  -26.8490  -19.4960   20.7270 C   0  0  0  0  0  2  0  0  0  0  0  0
  -27.7850  -16.6240   20.4950 C   0  0  0  0  0  3  0  0  0  0  0  0
  -27.8790  -20.3930   19.9630 N   0  0  1  0  0  4  0  0  0  0  0  0
  -27.5780  -20.4180   18.9990 H   0  0  0  0  0  0  0  0  0  0  0  0
  -27.3080  -12.6190   17.9240 C   0  0  0  0  0  3  0  0  0  0  0  0
  -27.1150  -11.2270   19.2690 C   0  0  0  0  0  3  0  0  0  0  0  0
  -27.5980  -14.8380   20.1760 C   0  0  0  0  0  0  0  0  0  0  0  0
  -27.7350  -14.3380   18.5060 C   0  0  0  0  0  0  0  0  0  0  0  0
  -27.3690  -13.4870   21.4160 C   0  0  0  0  0  0  0  0  0  0  0  0
  -27.1600  -11.7710   20.9900 N   0  0  0  0  0  0  0  0  0  0  0  0
  -30.5180  -14.6750   18.9900 C   0  0  0  0  0  0  0  0  0  0  0  0
  -31.4310  -12.5450   18.6770 C   0  0  0  0  0  2  0  0  0  0  0  0
  -30.3630  -12.1020   17.7060 C   0  0  0  0  0  2  0  0  0  0  0  0
  -29.4730  -11.5970   18.7550 C   0  0  0  0  0  2  0  0  0  0  0  0
  -28.7330  -12.7850   19.8200 C   0  0  0  0  0  2  0  0  0  0  0  0
  -29.9610  -12.9320   20.7040 C   0  0  0  0  0  2  0  0  0  0  0  0
  -30.8480  -13.5030   19.6130 N   0  0  0  0  0  0  0  0  0  0  0  0
  -31.5130  -15.3930   18.9160 O   0  0  0  0  0  0  0  0  0  0  0  0
  -29.2210  -14.8610   18.2940 N   0  0  0  0  0  0  0  0  0  0  0  0
  -29.2530  -15.6760   17.7010 H   0  0  0  0  0  0  0  0  0  0  0  0
  -24.9410  -14.0120   20.1370 C   0  0  0  0  0  0  0  0  0  0  0  0
  -24.0550  -13.1370   20.7310 C   0  0  0  0  0  0  0  0  0  0  0  0
  -24.5000  -11.8190   20.5480 C   0  0  0  0  0  3  0  0  0  0  0  0
  -25.9460  -13.2300   19.6750 N   0  0  0  0  0  2  0  0  0  0  0  0
  -24.9660  -12.2010   19.4050 N   0  0  0  0  0  2  0  0  0  0  0  0
  -24.0220  -10.4230   20.8070 C   0  0  0  0  0  0  0  0  0  0  0  0
  -24.5210   -9.5700   21.8370 C   0  0  0  0  0  3  0  0  0  0  0  0
  -23.9150   -8.3110   22.1020 C   0  0  0  0  0  3  0  0  0  0  0  0
  -22.8000   -7.8900   21.3360 C   0  0  0  0  0  0  0  0  0  0  0  0
  -22.3610   -8.7060   20.2800 C   0  0  0  0  0  3  0  0  0  0  0  0
  -22.9690   -9.9440   20.0150 C   0  0  0  0  0  3  0  0  0  0  0  0
  -22.1200   -6.7020   21.4950 O   0  0  0  0  0  0  0  0  0  0  0  0
  -21.9000   -6.1270   22.7210 C   0  0  0  0  0  0  0  0  0  0  0  0
  -21.2630   -6.8160   23.7780 C   0  0  0  0  0  3  0  0  0  0  0  0
  -20.9980   -6.1510   24.9930 C   0  0  0  0  0  3  0  0  0  0  0  0
  -21.3640   -4.8000   25.1540 C   0  0  0  0  0  0  0  0  0  0  0  0
  -21.9830   -4.1100   24.0980 C   0  0  0  0  0  3  0  0  0  0  0  0
  -22.2430   -4.7700   22.8850 C   0  0  0  0  0  0  0  0  0  0  0  0
  -22.8170   -4.0900   21.8630 F   0  0  0  0  0  0  0  0  0  0  0  0
  -21.1140   -4.1630   26.3210 F   0  0  0  0  0  0  0  0  0  0  0  0
  -22.6720  -13.4700   21.0050 C   0  0  0  0  0  0  0  0  0  0  0  0
  -22.0600  -12.7290   21.9100 N   0  0  0  0  0  0  0  0  0  0  0  0
  -22.1430  -14.3850   20.3840 O   0  0  0  0  0  0  0  0  0  0  0  0
  -22.5420  -11.9840   22.3920 H   0  0  0  0  0  0  0  0  0  0  0  0
  -21.0920  -12.9130   22.1330 H   0  0  0  0  0  0  0  0  0  0  0  0
  -24.9390  -15.3550   19.8720 N   0  0  0  0  0  0  0  0  0  0  0  0
  -24.2530  -15.9990   20.2450 H   0  0  0  0  0  0  0  0  0  0  0  0
  -25.8550  -15.7530   19.6910 H   0  0  0  0  0  0  0  0  0  0  0  0
  -27.9490  -12.8920   23.8310 C   0  0  0  0  0  1  0  0  0  0  0  0
  -27.1900  -13.8270   22.8820 C   0  0  0  0  0  2  0  0  0  0  0  0
  -28.2330  -22.0250   20.3620 C   0  0  0  0  0  3  0  0  0  0  0  0
  -27.6670  -23.7050   19.8290 C   0  0  0  0  0  3  0  0  0  0  0  0
  -28.1030  -25.3250   20.0980 O   0  0  0  0  0  0  0  0  0  0  0  0
  -24.6910  -31.4250   22.9980 C   0  0  0  0  0  0  0  0  0  0  0  0
  -27.2440  -26.5500   19.9630 C   0  0  0  0  0  0  0  0  0  0  0  0
  -23.5580  -30.0690   21.2920 C   0  0  0  0  0  3  0  0  0  0  0  0
  -25.0430  -28.5290   19.8460 C   0  0  0  0  0  0  0  0  0  0  0  0
  -26.1280  -30.2780   21.2300 C   0  0  0  0  0  2  0  0  0  0  0  0
  -26.2100  -28.8810   20.5360 C   0  0  0  0  0  0  0  0  0  0  0  0
  -27.3170  -27.9100   20.5720 C   0  0  0  0  0  3  0  0  0  0  0  0
  -26.0870  -26.3980   19.1790 C   0  0  0  0  0  3  0  0  0  0  0  0
  -25.0190  -27.3200   19.1380 C   0  0  0  0  0  3  0  0  0  0  0  0
  -23.8280  -29.4520   19.8950 C   0  0  0  0  0  2  0  0  0  0  0  0
  -24.8140  -30.6200   21.8940 N   0  0  0  0  0  0  0  0  0  0  0  0
  -23.5850  -31.6860   23.4970 O   0  0  0  0  0  0  0  0  0  0  0  0
  -22.8570  -29.0280   22.2040 C   0  0  0  0  0  0  0  0  0  0  0  0
  -21.5260  -28.8800   22.0770 N   0  0  0  0  0  0  0  0  0  0  0  0
  -23.5190  -28.3570   23.0020 O   0  0  0  0  0  0  0  0  0  0  0  0
  -21.0440  -29.4730   21.4150 H   0  0  0  0  0  0  0  0  0  0  0  0
  -18.1260  -27.7210   22.5910 C   0  0  0  0  0  0  0  0  0  0  0  0
  -20.6970  -27.9130   22.8070 C   0  0  0  0  0  3  0  0  0  0  0  0
  -20.7510  -26.5180   22.1410 C   0  0  0  0  0  2  0  0  0  0  0  0
  -19.6190  -26.2880   21.1350 C   0  0  0  0  0  2  0  0  0  0  0  0
  -18.2560  -26.4170   21.8210 C   0  0  0  0  0  2  0  0  0  0  0  0
  -19.2720  -28.4300   23.0410 C   0  0  0  0  0  0  0  0  0  0  0  0
  -19.0930  -29.6510   23.7270 C   0  0  0  0  0  3  0  0  0  0  0  0
  -17.8040  -30.1630   23.9640 C   0  0  0  0  0  3  0  0  0  0  0  0
  -16.6730  -29.4510   23.5270 C   0  0  0  0  0  3  0  0  0  0  0  0
  -16.8350  -28.2300   22.8480 C   0  0  0  0  0  3  0  0  0  0  0  0
  -25.9340  -32.0720   23.6800 C   0  0  0  0  0  3  0  0  0  0  0  0
  -26.4300  -31.2710   24.9480 C   0  0  1  0  0  0  0  0  0  0  0  0
  -25.3140  -30.9770   25.9780 C   0  0  0  0  0  1  0  0  0  0  0  0
  -27.0550  -29.9180   24.5410 C   0  0  0  0  0  1  0  0  0  0  0  0
  -27.5440  -32.0670   25.6680 C   0  0  0  0  0  1  0  0  0  0  0  0
  -25.5750  -33.4500   24.0640 N   0  0  0  0  0  0  0  0  0  0  0  0
  -25.8700  -34.5490   23.3570 C   0  0  0  0  0  0  0  0  0  0  0  0
  -26.5360  -34.5110   22.3200 O   0  0  0  0  0  0  0  0  0  0  0  0
  -24.9790  -33.5490   24.8730 H   0  0  0  0  0  0  0  0  0  0  0  0
  -24.0770  -36.3020   23.1120 C   0  0  0  0  0  1  0  0  0  0  0  0
  -25.3470  -35.9030   23.8800 C   0  0  0  0  0  3  0  0  0  0  0  0
  -27.4640  -36.8350   24.7110 C   0  0  0  0  0  1  0  0  0  0  0  0
  -26.3420  -36.9950   23.7900 N   0  0  0  0  0  0  0  0  0  0  0  0
  -25.9070  -37.8950   23.9740 H   0  0  0  0  0  0  0  0  0  0  0  0
  1  3  1  0
  1  5  1  0
  2  5  1  0
  2  4  1  0
  5 10  1  0
  6  3  1  0
  6 54  1  0
  6  4  1  0
  6  7  1  6
  8 11  2  0
  8  9  1  0
  9 13  2  0
 10 12  2  0
 11 10  1  0
 12 53  1  0
 13 12  1  0
 14 20  1  0
 15 20  1  0
 16 15  1  0
 16 17  1  0
 17 18  1  0
 18 19  1  0
 20 19  1  0
 21 14  2  0
 22 11  1  0
 22 14  1  0
 23 22  1  0
 24 25  2  0
 25 44  1  0
 26 25  1  0
 26 29  1  0
 27 24  1  0
 28 27  1  0
 28 26  1  0
 29 30  1  0
 30 31  2  0
 32 35  1  0
 32 31  1  0
 33 32  2  0
 34 33  1  0
 34 29  2  0
 35 36  1  0
 36 41  2  0
 36 37  1  0
 37 38  2  0
 38 39  1  0
 39 43  1  0
 40 39  2  0
 41 40  1  0
 42 41  1  0
 44 45  1  0
 45 48  1  0
 45 47  1  0
 46 44  2  0
 49 24  1  0
 49 50  1  0
 51 49  1  0
 53 52  1  0
 55 56  1  0
 55 54  2  0
 57 68  2  0
 58 56  1  0
 58 63  1  0
 59 67  1  0
 59 69  1  0
 60 66  1  0
 60 62  1  0
 61 67  1  0
 62 63  2  0
 62 61  1  0
 64 58  2  0
 65 64  1  0
 65 60  2  0
 66 59  1  0
 67 57  1  0
 69 71  2  0
 70 69  1  0
 72 70  1  0
 73 82  2  0
 73 78  1  0
 74 70  1  0
 74 78  1  0
 75 74  1  0
 76 77  1  0
 76 75  1  0
 77 73  1  0
 78 79  2  0
 79 80  1  0
 81 80  2  0
 82 81  1  0
 83 57  1  0
 83 88  1  0
 83 84  1  0
 84 87  1  1
 84 85  1  0
 86 84  1  0
 88 91  1  0
 89 93  1  0
 89 88  1  0
 90 89  2  0
 93 92  1  0
 95 93  1  0
 95 96  1  0
 95 94  1  0
M  ISO  4  14 100  22 100  55 101  56 101
M  END
>  <TORSDO>  (28) 
F 20

>  <SCORE>  (28) 
-4.792

>  <name>  (28) 
27

>  <ligand_id>  (28) 
27

>  <original_smiles>  (28) 
[H]c1nc(C([H])([H])C([H])([H])[H])c(C2([H])C([H])([H])C([H])([H])[N+]([H])(C([H])([H])C([H])([H])Oc3c([H])c([H])c4c(c3[H])C([H])([H])N(C(=O)C([H])(N([H])C(=O)C([H])(N([H])C([H])([H])[H])C([H])([H])[H])C(C([H])([H])[H])(C([H])([H])[H])C([H])([H])[H])C([H])(C(=O)N([H])C3([H])c5c([H])c([H])c([H])c([H])c5C([H])([H])C([H])([H])C3([H])[H])C4([H])[H])C([H])([H])C2([H])[H])c(N([H])C(=O)N2C([H])([H])C([H])([H])C([H])([H])C([H])(n3nc(-c4c([H])c([H])c(Oc5c([H])c([H])c(F)c([H])c5F)c([H])c4[H])c(C(=O)N([H])[H])c3N([H])[H])C2([H])[H])c1[H]

>  <smiles>  (28) 
[H]c1nc(C([H])([H])C([H])([H])[H])c(C2([H])C([H])([H])C([H])([H])[N+]([H])(C([H])([H])C([H])([H])Oc3c([H])c([H])c4c(c3[H])C([H])([H])N(C(=O)C([H])(N([H])C(=O)C([H])(N([H])C([H])([H])[H])C([H])([H])[H])C(C([H])([H])[H])(C([H])([H])[H])C([H])([H])[H])C([H])(C(=O)N([H])C3([H])c5c([H])c([H])c([H])c([H])c5C([H])([H])C([H])([H])C3([H])[H])C4([H])[H])C([H])([H])C2([H])[H])c(N([H])C(=O)N2C([H])([H])C([H])([H])C([H])([H])C([H])(n3nc(-c4c([H])c([H])c(Oc5c([H])c([H])c(F)c([H])c5F)c([H])c4[H])c(C(=O)N([H])[H])c3N([H])[H])C2([H])[H])c1[H]

$$$$
28:0:0
     RDKit          3D

 94103  0  0  1  0  0  0  0  0999 V2000
  -27.1130  -23.8770   22.4080 C   0  0  0  0  0  2  0  0  0  0  0  0
  -27.4250  -25.3140   21.9500 C   0  0  0  0  0  2  0  0  0  0  0  0
  -27.4900  -22.8150   21.3650 C   0  0  0  0  0  2  0  0  0  0  0  0
  -29.1470  -24.3950   20.3340 C   0  0  0  0  0  2  0  0  0  0  0  0
  -27.9650  -25.3860   20.5010 C   0  0  0  0  0  3  0  0  0  0  0  0
  -28.8820  -23.0040   20.8700 N   0  0  2  0  0  4  0  0  0  0  0  0
  -29.4710  -22.9020   21.6820 H   0  0  0  0  0  0  0  0  0  0  0  0
  -28.2720  -26.7640   20.1400 O   0  0  0  0  0  0  0  0  0  0  0  0
  -24.5710  -32.0020   23.2480 C   0  0  0  0  0  0  0  0  0  0  0  0
  -27.1540  -27.5810   20.0660 C   0  0  0  0  0  0  0  0  0  0  0  0
  -23.3410  -30.6090   21.6220 C   0  0  0  0  0  3  0  0  0  0  0  0
  -24.7690  -29.1060   20.1420 C   0  0  0  0  0  0  0  0  0  0  0  0
  -25.8680  -30.9690   21.3900 C   0  0  0  0  0  2  0  0  0  0  0  0
  -25.9430  -29.6130   20.7170 C   0  0  0  0  0  0  0  0  0  0  0  0
  -27.1410  -28.8580   20.6760 C   0  0  0  0  0  3  0  0  0  0  0  0
  -25.9680  -27.1170   19.4490 C   0  0  0  0  0  3  0  0  0  0  0  0
  -24.7770  -27.8580   19.5060 C   0  0  0  0  0  3  0  0  0  0  0  0
  -23.5220  -29.9570   20.2290 C   0  0  0  0  0  2  0  0  0  0  0  0
  -24.6120  -31.2120   22.1410 N   0  0  0  0  0  0  0  0  0  0  0  0
  -23.4970  -32.2680   23.8080 O   0  0  0  0  0  0  0  0  0  0  0  0
  -22.7190  -29.5700   22.5830 C   0  0  0  0  0  0  0  0  0  0  0  0
  -21.4010  -29.3480   22.4520 N   0  0  0  0  0  0  0  0  0  0  0  0
  -23.4180  -28.9680   23.4010 O   0  0  0  0  0  0  0  0  0  0  0  0
  -20.9000  -29.8860   21.7600 H   0  0  0  0  0  0  0  0  0  0  0  0
  -18.0700  -28.0190   22.9150 C   0  0  0  0  0  0  0  0  0  0  0  0
  -20.6100  -28.3930   23.2270 C   0  0  0  0  0  3  0  0  0  0  0  0
  -20.7810  -26.9560   22.6830 C   0  0  0  0  0  2  0  0  0  0  0  0
  -19.7140  -26.5620   21.6570 C   0  0  0  0  0  2  0  0  0  0  0  0
  -18.3150  -26.6650   22.2680 C   0  0  0  0  0  2  0  0  0  0  0  0
  -19.1470  -28.8380   23.3460 C   0  0  0  0  0  0  0  0  0  0  0  0
  -18.8650  -30.1060   23.8990 C   0  0  0  0  0  3  0  0  0  0  0  0
  -17.5350  -30.5530   24.0340 C   0  0  0  0  0  3  0  0  0  0  0  0
  -16.4720  -29.7270   23.6250 C   0  0  0  0  0  3  0  0  0  0  0  0
  -16.7400  -28.4640   23.0690 C   0  0  0  0  0  3  0  0  0  0  0  0
  -25.8660  -32.6330   23.8480 C   0  0  0  0  0  3  0  0  0  0  0  0
  -26.3910  -31.8860   25.1350 C   0  0  1  0  0  0  0  0  0  0  0  0
  -25.3040  -31.6630   26.2120 C   0  0  0  0  0  1  0  0  0  0  0  0
  -26.9810  -30.5070   24.7700 C   0  0  0  0  0  1  0  0  0  0  0  0
  -27.5440  -32.6970   25.7750 C   0  0  0  0  0  1  0  0  0  0  0  0
  -25.5700  -34.0400   24.1550 N   0  0  0  0  0  0  0  0  0  0  0  0
  -25.8850  -35.0760   23.3670 C   0  0  0  0  0  0  0  0  0  0  0  0
  -26.5330  -34.9500   22.3240 O   0  0  0  0  0  0  0  0  0  0  0  0
  -25.0130  -34.2170   24.9770 H   0  0  0  0  0  0  0  0  0  0  0  0
  -24.1480  -36.8620   23.0110 C   0  0  0  0  0  1  0  0  0  0  0  0
  -25.4050  -36.4710   23.8070 C   0  0  0  0  0  3  0  0  0  0  0  0
  -27.5550  -37.3680   24.5810 C   0  0  0  0  0  1  0  0  0  0  0  0
  -26.4330  -37.5230   23.6570 N   0  0  0  0  0  0  0  0  0  0  0  0
  -26.0300  -38.4460   23.8010 H   0  0  0  0  0  0  0  0  0  0  0  0
  -29.3210  -21.9250   19.9360 C   0  0  0  0  0  2  0  0  0  0  0  0
  -28.6630  -19.5910   21.0980 C   0  0  0  0  0  3  0  0  0  0  0  0
  -29.3120  -18.4070   21.3120 C   0  0  0  0  0  3  0  0  0  0  0  0
  -30.7840  -19.8620   20.4760 C   0  0  0  0  0  3  0  0  0  0  0  0
  -29.5830  -20.5280   20.5230 C   0  0  0  0  0  0  0  0  0  0  0  0
  -30.6130  -18.5410   20.8700 N   0  0  0  0  0  0  0  0  0  0  0  0
  -31.6350  -17.4970   20.7510 C   0  0  0  0  0  2  0  0  0  0  0  0
  -31.4150  -16.2120   21.5970 C   0  0  0  0  0  2  0  0  0  0  0  0
  -30.8930  -14.3760   19.9570 C   0  0  0  0  0  0  0  0  0  0  0  0
  -30.4220  -12.2400   18.8090 C   0  0  0  0  0  2  0  0  0  0  0  0
  -29.4330  -12.4200   17.6430 C   0  0  0  0  0  2  0  0  0  0  0  0
  -27.9870  -12.2940   18.1540 C   0  0  0  0  0  2  0  0  0  0  0  0
  -27.7170  -13.2140   19.3730 C   0  0  0  0  0  3  0  0  0  0  0  0
  -28.8110  -13.0340   20.4500 C   0  0  0  0  0  2  0  0  0  0  0  0
  -30.1270  -13.2630   19.8240 N   0  0  0  0  0  0  0  0  0  0  0  0
  -31.8750  -14.6090   19.2440 O   0  0  0  0  0  0  0  0  0  0  0  0
  -30.5700  -15.1700   20.9910 N   0  0  0  0  0  0  0  0  0  0  0  0
  -29.7650  -14.8750   21.5250 H   0  0  0  0  0  0  0  0  0  0  0  0
  -25.3800  -13.9160   20.1920 C   0  0  0  0  0  0  0  0  0  0  0  0
  -24.3050  -13.1850   20.6280 C   0  0  0  0  0  0  0  0  0  0  0  0
  -24.7170  -11.8190   20.5940 C   0  0  0  0  0  0  0  0  0  0  0  0
  -26.3800  -12.9960   19.9210 N   0  0  0  0  0  0  0  0  0  0  0  0
  -25.9860  -11.7300   20.2160 N   0  0  0  0  0  0  0  0  0  0  0  0
  -23.9600  -10.5860   20.8420 C   0  0  0  0  0  0  0  0  0  0  0  0
  -24.3860   -9.6390   21.7990 C   0  0  0  0  0  3  0  0  0  0  0  0
  -23.6320   -8.4690   22.0330 C   0  0  0  0  0  3  0  0  0  0  0  0
  -22.4370   -8.2390   21.3090 C   0  0  0  0  0  0  0  0  0  0  0  0
  -22.0290   -9.1740   20.3420 C   0  0  0  0  0  3  0  0  0  0  0  0
  -22.7850  -10.3360   20.1070 C   0  0  0  0  0  3  0  0  0  0  0  0
  -21.6530   -7.1180   21.4500 O   0  0  0  0  0  0  0  0  0  0  0  0
  -21.5780   -6.4370   22.6390 C   0  0  0  0  0  0  0  0  0  0  0  0
  -21.1780   -7.0710   23.8360 C   0  0  0  0  0  3  0  0  0  0  0  0
  -21.0460   -6.3200   25.0210 C   0  0  0  0  0  3  0  0  0  0  0  0
  -21.3040   -4.9360   25.0110 C   0  0  0  0  0  0  0  0  0  0  0  0
  -21.6980   -4.3040   23.8180 C   0  0  0  0  0  3  0  0  0  0  0  0
  -21.8320   -5.0520   22.6360 C   0  0  0  0  0  0  0  0  0  0  0  0
  -22.1900   -4.4330   21.4860 F   0  0  0  0  0  0  0  0  0  0  0  0
  -21.1700   -4.2120   26.1460 F   0  0  0  0  0  0  0  0  0  0  0  0
  -22.9430  -13.7160   20.9710 C   0  0  0  0  0  0  0  0  0  0  0  0
  -22.2450  -13.0590   21.8910 N   0  0  0  0  0  0  0  0  0  0  0  0
  -22.5080  -14.7450   20.4570 O   0  0  0  0  0  0  0  0  0  0  0  0
  -22.6110  -12.2230   22.3230 H   0  0  0  0  0  0  0  0  0  0  0  0
  -21.3350  -13.3960   22.1680 H   0  0  0  0  0  0  0  0  0  0  0  0
  -25.5830  -15.2780   19.9900 N   0  0  0  0  0  0  0  0  0  0  0  0
  -24.8510  -15.9650   20.1370 H   0  0  0  0  0  0  0  0  0  0  0  0
  -26.4460  -15.6850   19.6530 H   0  0  0  0  0  0  0  0  0  0  0  0
  2  1  1  0
  3  1  1  0
  4  5  1  0
  4  6  1  0
  5  8  1  0
  5  2  1  0
  6  3  1  0
  6  7  1  1
  9 20  2  0
 10  8  1  0
 10 15  1  0
 11 19  1  0
 11 21  1  0
 12 18  1  0
 12 14  1  0
 13 19  1  0
 14 13  1  0
 15 14  2  0
 16 17  1  0
 16 10  2  0
 17 12  2  0
 18 11  1  0
 19  9  1  0
 21 23  2  0
 22 21  1  0
 24 22  1  0
 25 34  2  0
 25 30  1  0
 26 22  1  0
 26 30  1  0
 27 26  1  0
 28 29  1  0
 28 27  1  0
 29 25  1  0
 30 31  2  0
 31 32  1  0
 33 32  2  0
 34 33  1  0
 35  9  1  0
 35 40  1  0
 35 36  1  0
 36 39  1  1
 36 37  1  0
 38 36  1  0
 40 43  1  0
 41 45  1  0
 41 40  1  0
 42 41  2  0
 45 44  1  0
 47 48  1  0
 47 45  1  0
 47 46  1  0
 49 53  1  0
 49  6  1  0
 50 51  2  0
 52 53  2  0
 52 54  1  0
 53 50  1  0
 54 51  1  0
 55 54  1  0
 55 56  1  0
 57 65  1  0
 58 63  1  0
 59 60  1  0
 59 58  1  0
 61 60  1  0
 61 70  1  0
 61 62  1  0
 63 57  1  0
 63 62  1  0
 64 57  2  0
 65 66  1  0
 65 56  1  0
 67 68  2  0
 68 87  1  0
 69 68  1  0
 69 72  1  0
 70 67  1  0
 70 71  1  0
 71 69  2  0
 72 73  1  0
 73 74  2  0
 75 78  1  0
 75 74  1  0
 76 75  2  0
 77 76  1  0
 77 72  2  0
 78 79  1  0
 79 80  1  0
 80 81  2  0
 82 81  1  0
 82 86  1  0
 83 82  2  0
 84 79  2  0
 84 83  1  0
 85 84  1  0
 87 88  1  0
 88 91  1  0
 88 90  1  0
 89 87  2  0
 92 93  1  0
 92 67  1  0
 94 92  1  0
M  ISO  4   5 101   8 101  57 100  65 100
M  END
>  <TORSDO>  (29) 
F 20

>  <SCORE>  (29) 
-12.469

>  <name>  (29) 
28

>  <ligand_id>  (29) 
28

>  <original_smiles>  (29) 
[H]c1c([H])c([H])c2c(c1[H])C([H])([H])C([H])([H])C([H])([H])C2([H])N([H])C(=O)C1([H])N(C(=O)C([H])(N([H])C(=O)C([H])(N([H])C([H])([H])[H])C([H])([H])[H])C(C([H])([H])[H])(C([H])([H])[H])C([H])([H])[H])C([H])([H])c2c([H])c(OC3([H])C([H])([H])C([H])([H])C([H])([H])[N+]([H])(C([H])([H])c4c([H])c([H])n(C([H])([H])C([H])([H])N([H])C(=O)N5C([H])([H])C([H])([H])C([H])([H])C([H])(n6nc(-c7c([H])c([H])c(Oc8c([H])c([H])c(F)c([H])c8F)c([H])c7[H])c(C(=O)N([H])[H])c6N([H])[H])C5([H])[H])c4[H])C3([H])[H])c([H])c([H])c2C1([H])[H]

>  <smiles>  (29) 
[H]c1c([H])c([H])c2c(c1[H])C([H])([H])C([H])([H])C([H])([H])C2([H])N([H])C(=O)C1([H])N(C(=O)C([H])(N([H])C(=O)C([H])(N([H])C([H])([H])[H])C([H])([H])[H])C(C([H])([H])[H])(C([H])([H])[H])C([H])([H])[H])C([H])([H])c2c([H])c(OC3([H])C([H])([H])C([H])([H])C([H])([H])[N+]([H])(C([H])([H])c4c([H])c([H])n(C([H])([H])C([H])([H])N([H])C(=O)N5C([H])([H])C([H])([H])C([H])([H])C([H])(n6nc(-c7c([H])c([H])c(Oc8c([H])c([H])c(F)c([H])c8F)c([H])c7[H])c(C(=O)N([H])[H])c6N([H])[H])C5([H])[H])c4[H])C3([H])[H])c([H])c([H])c2C1([H])[H]

$$$$
29:0:0
     RDKit          3D

 92 92  0  0  1  0  0  0  0  0999 V2000
  -28.0880  -20.2610   19.5830 C   0  0  0  0  0  3  0  0  0  0  0  0
  -29.4430  -20.6100   21.5860 C   0  0  0  0  0  3  0  0  0  0  0  0
  -28.6660  -18.5290   20.0660 C   0  0  0  0  0  3  0  0  0  0  0  0
  -29.4250  -19.1660   21.1900 C   0  0  0  0  0  0  0  0  0  0  0  0
  -28.1220  -22.0880   20.0660 C   0  0  0  0  0  3  0  0  0  0  0  0
  -28.9130  -21.8380   21.1550 N   0  0  0  0  0  0  0  0  0  0  0  0
  -29.9810  -12.2370   20.8210 C   0  0  0  0  0  1  0  0  0  0  0  0
  -29.1220  -12.8190   19.7970 C   0  0  0  0  0  1  0  0  0  0  0  0
  -28.9810  -13.2950   20.7660 C   0  0  0  0  0  2  0  0  0  0  0  0
  -28.9780  -15.1630   18.8850 C   0  0  0  0  0  1  0  0  0  0  0  0
  -28.6690  -16.1810   19.7620 C   0  0  0  0  0  2  0  0  0  0  0  0
  -27.9450  -24.0270   19.8230 O   0  0  0  0  0  1  0  0  0  0  0  0
  -24.8870  -31.6190   22.8980 C   0  0  0  0  0  0  0  0  0  0  0  0
  -27.1620  -25.6670   19.9940 C   0  0  0  0  0  0  0  0  0  0  0  0
  -23.7050  -30.1800   21.3160 C   0  0  0  0  0  3  0  0  0  0  0  0
  -25.0940  -28.3180   19.9610 C   0  0  0  0  0  0  0  0  0  0  0  0
  -26.3040  -30.0120   21.2750 C   0  0  0  0  0  2  0  0  0  0  0  0
  -26.3110  -28.4730   20.6300 C   0  0  0  0  0  0  0  0  0  0  0  0
  -27.2930  -27.2080   20.5930 C   0  0  0  0  0  3  0  0  0  0  0  0
  -25.9410  -25.9770   19.2620 C   0  0  0  0  0  3  0  0  0  0  0  0
  -25.0020  -27.1020   19.2510 C   0  0  0  0  0  3  0  0  0  0  0  0
  -23.9570  -29.4000   19.9810 C   0  0  0  0  0  2  0  0  0  0  0  0
  -25.0070  -30.6630   21.8790 N   0  0  0  0  0  0  0  0  0  0  0  0
  -23.7810  -31.9730   23.3600 O   0  0  0  0  0  0  0  0  0  0  0  0
  -22.9170  -29.3000   22.3290 C   0  0  0  0  0  0  0  0  0  0  0  0
  -21.5730  -29.2050   22.2290 N   0  0  0  0  0  0  0  0  0  0  0  0
  -23.5410  -28.6890   23.1990 O   0  0  0  0  0  0  0  0  0  0  0  0
  -21.1070  -29.7460   21.5130 H   0  0  0  0  0  0  0  0  0  0  0  0
  -18.1620  -28.0500   22.8290 C   0  0  0  0  0  0  0  0  0  0  0  0
  -20.7320  -28.3000   23.0310 C   0  0  0  0  0  3  0  0  0  0  0  0
  -20.8010  -26.8550   22.4800 C   0  0  0  0  0  2  0  0  0  0  0  0
  -19.6790  -26.5360   21.4870 C   0  0  0  0  0  2  0  0  0  0  0  0
  -18.3110  -26.6970   22.1540 C   0  0  0  0  0  2  0  0  0  0  0  0
  -19.2960  -28.8100   23.2240 C   0  0  0  0  0  0  0  0  0  0  0  0
  -19.0940  -30.0700   23.8290 C   0  0  0  0  0  3  0  0  0  0  0  0
  -17.7950  -30.5720   24.0340 C   0  0  0  0  0  3  0  0  0  0  0  0
  -16.6770  -29.8130   23.6480 C   0  0  0  0  0  3  0  0  0  0  0  0
  -16.8610  -28.5520   23.0530 C   0  0  0  0  0  3  0  0  0  0  0  0
  -26.1140  -32.3330   23.5510 C   0  0  0  0  0  3  0  0  0  0  0  0
  -26.6510  -31.5760   24.8310 C   0  0  1  0  0  0  0  0  0  0  0  0
  -25.5680  -31.3110   25.9050 C   0  0  0  0  0  1  0  0  0  0  0  0
  -27.2630  -30.2120   24.4560 C   0  0  0  0  0  1  0  0  0  0  0  0
  -27.7890  -32.3920   25.4870 C   0  0  0  0  0  1  0  0  0  0  0  0
  -25.7330  -33.7150   23.9480 N   0  0  0  0  0  0  0  0  0  0  0  0
  -26.0630  -34.8460   23.3040 C   0  0  0  0  0  0  0  0  0  0  0  0
  -26.7530  -34.8380   22.2820 O   0  0  0  0  0  0  0  0  0  0  0  0
  -25.1120  -33.7920   24.7400 H   0  0  0  0  0  0  0  0  0  0  0  0
  -24.3100  -36.6560   23.0960 C   0  0  0  0  0  1  0  0  0  0  0  0
  -25.5560  -36.1970   23.8700 C   0  0  0  0  0  3  0  0  0  0  0  0
  -27.6740  -37.0680   24.7700 C   0  0  0  0  0  1  0  0  0  0  0  0
  -26.5710  -37.2760   23.8360 N   0  0  0  0  0  0  0  0  0  0  0  0
  -26.1470  -38.1760   24.0450 H   0  0  0  0  0  0  0  0  0  0  0  0
  -30.3940  -18.5360   22.2510 C   0  0  0  0  0  2  0  0  0  0  0  0
  -30.9220  -17.1070   22.4950 C   0  0  0  0  0  2  0  0  0  0  0  0
  -31.8100  -15.2780   21.1000 C   0  0  0  0  0  0  0  0  0  0  0  0
  -31.2570  -14.0020   18.9320 C   0  0  0  0  0 15  0  0  0  0  0  0
  -29.9090  -13.3920   17.3980 C   0  0  0  0  0 15  0  0  0  0  0  0
  -27.8670  -13.4950   17.8860 C   0  0  0  0  0 15  0  0  0  0  0  0
  -27.2850  -14.3380   19.7210 C   0  0  0  0  0  1  0  0  0  0  0  0
  -28.7260  -15.2230   21.4670 C   0  0  0  0  0  1  0  0  0  0  0  0
  -30.6930  -14.9470   20.5990 N   0  0  0  0  0  1  0  0  0  0  0  0
  -32.8380  -14.7640   20.6900 O   0  0  0  0  0  0  0  0  0  0  0  0
  -31.8120  -16.5530   21.4900 N   0  0  0  0  0  0  0  0  0  0  0  0
  -32.7190  -16.9960   21.4390 H   0  0  0  0  0  0  0  0  0  0  0  0
  -25.2190  -14.1090   20.7170 C   0  0  0  0  0  0  0  0  0  0  0  0
  -24.2940  -13.1740   20.9410 C   0  0  0  0  0  0  0  0  0  0  0  0
  -24.9010  -11.8840   20.8240 C   0  0  0  0  0  0  0  0  0  0  0  0
  -26.2770  -13.4490   20.2820 N   0  0  0  0  0  0  0  0  0  0  0  0
  -26.1780  -12.0590   20.4180 N   0  0  0  0  0  0  0  0  0  0  0  0
  -24.2350  -10.5660   21.0040 C   0  0  0  0  0  0  0  0  0  0  0  0
  -24.5910   -9.6370   22.0130 C   0  0  0  0  0  3  0  0  0  0  0  0
  -23.8340   -8.4550   22.2150 C   0  0  0  0  0  3  0  0  0  0  0  0
  -22.6970   -8.1870   21.4120 C   0  0  0  0  0  0  0  0  0  0  0  0
  -22.3530   -9.1020   20.4020 C   0  0  0  0  0  3  0  0  0  0  0  0
  -23.1110  -10.2690   20.2000 C   0  0  0  0  0  3  0  0  0  0  0  0
  -21.9140   -7.0580   21.5080 O   0  0  0  0  0  0  0  0  0  0  0  0
  -21.7520   -6.3770   22.6900 C   0  0  0  0  0  0  0  0  0  0  0  0
  -21.2400   -7.0040   23.8460 C   0  0  0  0  0  3  0  0  0  0  0  0
  -21.0250   -6.2520   25.0190 C   0  0  0  0  0  3  0  0  0  0  0  0
  -21.3070   -4.8730   25.0340 C   0  0  0  0  0  0  0  0  0  0  0  0
  -21.8060   -4.2440   23.8810 C   0  0  0  0  0  3  0  0  0  0  0  0
  -22.0240   -4.9930   22.7110 C   0  0  0  0  0  0  0  0  0  0  0  0
  -22.4830   -4.3760   21.5950 F   0  0  0  0  0  0  0  0  0  0  0  0
  -21.0970   -4.1500   26.1600 F   0  0  0  0  0  0  0  0  0  0  0  0
  -22.8850  -13.5650   21.1260 C   0  0  0  0  0  0  0  0  0  0  0  0
  -22.1780  -12.8820   22.0040 N   0  0  0  0  0  0  0  0  0  0  0  0
  -22.4430  -14.5510   20.5340 O   0  0  0  0  0  0  0  0  0  0  0  0
  -22.5770  -12.0990   22.5010 H   0  0  0  0  0  0  0  0  0  0  0  0
  -21.2180  -13.1380   22.1840 H   0  0  0  0  0  0  0  0  0  0  0  0
  -25.2100  -15.5040   20.7610 N   0  0  0  0  0  0  0  0  0  0  0  0
  -24.3620  -16.0170   20.9790 H   0  0  0  0  0  0  0  0  0  0  0  0
  -25.9950  -16.1080   20.5550 H   0  0  0  0  0  0  0  0  0  0  0  0
  1  5  2  0
  1  3  1  0
  3  4  2  0
  4  2  1  0
  4 53  1  0
  5  6  1  0
  6  2  2  0
  8  9  1  0
  9  7  1  0
 10 11  1  0
 11 60  1  0
 12 14  1  0
 13 24  2  0
 14 19  1  0
 15 23  1  0
 15 25  1  0
 16 22  1  0
 16 18  1  0
 17 23  1  0
 18 17  1  0
 19 18  2  0
 20 14  2  0
 21 20  1  0
 21 16  2  0
 22 15  1  0
 23 13  1  0
 25 27  2  0
 26 25  1  0
 28 26  1  0
 29 38  2  0
 29 34  1  0
 30 26  1  0
 30 34  1  0
 31 30  1  0
 32 33  1  0
 32 31  1  0
 33 29  1  0
 34 35  2  0
 35 36  1  0
 37 36  2  0
 38 37  1  0
 39 13  1  0
 39 44  1  0
 39 40  1  0
 40 43  1  1
 40 41  1  0
 42 40  1  0
 44 47  1  0
 45 49  1  0
 45 44  1  0
 46 45  2  0
 49 48  1  0
 51 49  1  0
 51 52  1  0
 51 50  1  0
 53 54  1  0
 55 63  1  0
 59 68  1  0
 61 55  1  0
 62 55  2  0
 63 54  1  0
 64 63  1  0
 65 90  1  0
 65 66  2  0
 66 85  1  0
 67 66  1  0
 67 70  1  0
 68 69  1  0
 68 65  1  0
 69 67  2  0
 70 71  1  0
 71 72  2  0
 73 76  1  0
 73 72  1  0
 74 73  2  0
 75 74  1  0
 75 70  2  0
 76 77  1  0
 77 82  2  0
 77 78  1  0
 78 79  2  0
 79 80  1  0
 80 84  1  0
 81 80  2  0
 82 81  1  0
 83 82  1  0
 85 86  1  0
 86 89  1  0
 86 88  1  0
 87 85  2  0
 90 91  1  0
 92 90  1  0
M  ISO  4   5 101  12 101  55 100  63 100
M  END
>  <TORSDO>  (30) 
F 19

>  <SCORE>  (30) 
-11.868

>  <name>  (30) 
29

>  <ligand_id>  (30) 
29

>  <original_smiles>  (30) 
[H]c1nc(Oc2c([H])c([H])c3c(c2[H])C([H])([H])N(C(=O)C([H])(N([H])C(=O)C([H])(N([H])C([H])([H])[H])C([H])([H])[H])C(C([H])([H])[H])(C([H])([H])[H])C([H])([H])[H])C([H])(C(=O)N([H])C2([H])c4c([H])c([H])c([H])c([H])c4C([H])([H])C([H])([H])C2([H])[H])C3([H])[H])c([H])c(C2([H])C([H])([H])C([H])([H])C([H])([H])C2([H])[H])c1C([H])([H])C([H])([H])N([H])C(=O)N1C([H])([H])C([H])([H])C([H])([H])C([H])(n2nc(-c3c([H])c([H])c(Oc4c([H])c([H])c(F)c([H])c4F)c([H])c3[H])c(C(=O)N([H])[H])c2N([H])[H])C1([H])[H]

>  <smiles>  (30) 
[H]c1nc(Oc2c([H])c([H])c3c(c2[H])C([H])([H])N(C(=O)C([H])(N([H])C(=O)C([H])(N([H])C([H])([H])[H])C([H])([H])[H])C(C([H])([H])[H])(C([H])([H])[H])C([H])([H])[H])C([H])(C(=O)N([H])C2([H])c4c([H])c([H])c([H])c([H])c4C([H])([H])C([H])([H])C2([H])[H])C3([H])[H])c([H])c(C2([H])C([H])([H])C([H])([H])C([H])([H])C2([H])[H])c1C([H])([H])C([H])([H])N([H])C(=O)N1C([H])([H])C([H])([H])C([H])([H])C([H])(n2nc(-c3c([H])c([H])c(Oc4c([H])c([H])c(F)c([H])c4F)c([H])c3[H])c(C(=O)N([H])[H])c2N([H])[H])C1([H])[H]

$$$$
30:0:0
     RDKit          3D

 95104  0  0  1  0  0  0  0  0999 V2000
  -29.8380  -24.0290   20.5530 C   0  0  0  0  0  2  0  0  0  0  0  0
  -29.0290  -23.4390   18.2020 C   0  0  0  0  0  2  0  0  0  0  0  0
  -30.1400  -22.5270   20.7880 C   0  0  0  0  0  2  0  0  0  0  0  0
  -29.3670  -21.9490   18.4760 C   0  0  0  0  0  2  0  0  0  0  0  0
  -28.7600  -24.2990   19.4710 C   0  0  0  0  0  3  0  0  0  0  0  0
  -30.5490  -21.8470   19.4680 C   0  0  0  0  0  3  0  0  0  0  0  0
  -31.2050  -20.4980   19.6610 N   0  0  2  0  0  4  0  0  0  0  0  0
  -31.3290  -20.4320   20.6590 H   0  0  0  0  0  0  0  0  0  0  0  0
  -33.5290  -19.3780   19.4320 C   0  0  0  0  0  1  0  0  0  0  0  0
  -32.5850  -20.5340   19.0760 C   0  0  0  0  0  2  0  0  0  0  0  0
  -30.4000  -19.2840   19.2940 C   0  0  0  0  0  2  0  0  0  0  0  0
  -30.8680  -14.5370   20.1320 C   0  0  0  0  0  0  0  0  0  0  0  0
  -30.5020  -12.4040   18.9420 C   0  0  0  0  0  2  0  0  0  0  0  0
  -29.5140  -12.6670   17.7840 C   0  0  0  0  0  2  0  0  0  0  0  0
  -28.0550  -12.5390   18.2690 C   0  0  0  0  0  2  0  0  0  0  0  0
  -27.7780  -13.3510   19.5610 C   0  0  0  0  0  3  0  0  0  0  0  0
  -28.8680  -13.0570   20.6120 C   0  0  0  0  0  2  0  0  0  0  0  0
  -30.1810  -13.3630   20.0120 N   0  0  0  0  0  0  0  0  0  0  0  0
  -31.9610  -14.7220   19.5870 O   0  0  0  0  0  0  0  0  0  0  0  0
  -30.8030  -17.0140   22.4950 C   0  0  0  0  0  2  0  0  0  0  0  0
  -30.5340  -18.2810   21.6640 C   0  0  0  0  0  2  0  0  0  0  0  0
  -29.9360  -15.8390   22.0130 C   0  0  0  0  0  2  0  0  0  0  0  0
  -29.8700  -16.7760   19.7370 C   0  0  0  0  0  2  0  0  0  0  0  0
  -30.7050  -18.0130   20.1590 C   0  0  0  0  0  3  0  0  0  0  0  0
  -30.1370  -15.5900   20.5810 N   0  0  0  0  0  0  0  0  0  0  0  0
  -25.4150  -14.0000   20.3630 C   0  0  0  0  0  0  0  0  0  0  0  0
  -24.3410  -13.2430   20.7570 C   0  0  0  0  0  0  0  0  0  0  0  0
  -24.7750  -11.8830   20.6890 C   0  0  0  0  0  0  0  0  0  0  0  0
  -26.4330  -13.1000   20.0820 N   0  0  0  0  0  0  0  0  0  0  0  0
  -26.0500  -11.8220   20.3300 N   0  0  0  0  0  0  0  0  0  0  0  0
  -24.0320  -10.6330   20.8910 C   0  0  0  0  0  0  0  0  0  0  0  0
  -24.4640   -9.6500   21.8090 C   0  0  0  0  0  3  0  0  0  0  0  0
  -23.7200   -8.4650   21.9930 C   0  0  0  0  0  3  0  0  0  0  0  0
  -22.5280   -8.2550   21.2600 C   0  0  0  0  0  0  0  0  0  0  0  0
  -22.1160   -9.2240   20.3280 C   0  0  0  0  0  3  0  0  0  0  0  0
  -22.8620  -10.4000   20.1420 C   0  0  0  0  0  3  0  0  0  0  0  0
  -21.7530   -7.1230   21.3560 O   0  0  0  0  0  0  0  0  0  0  0  0
  -21.6910   -6.3910   22.5130 C   0  0  0  0  0  0  0  0  0  0  0  0
  -21.2910   -6.9670   23.7390 C   0  0  0  0  0  3  0  0  0  0  0  0
  -21.1770   -6.1660   24.8920 C   0  0  0  0  0  3  0  0  0  0  0  0
  -21.4480   -4.7860   24.8220 C   0  0  0  0  0  0  0  0  0  0  0  0
  -21.8380   -4.2080   23.6010 C   0  0  0  0  0  3  0  0  0  0  0  0
  -21.9570   -5.0080   22.4500 C   0  0  0  0  0  0  0  0  0  0  0  0
  -22.3110   -4.4410   21.2720 F   0  0  0  0  0  0  0  0  0  0  0  0
  -21.3320   -4.0140   25.9250 F   0  0  0  0  0  0  0  0  0  0  0  0
  -22.9630  -13.7430   21.0870 C   0  0  0  0  0  0  0  0  0  0  0  0
  -22.2580  -13.0560   21.9820 N   0  0  0  0  0  0  0  0  0  0  0  0
  -22.5210  -14.7780   20.5900 O   0  0  0  0  0  0  0  0  0  0  0  0
  -22.6330  -12.2220   22.4090 H   0  0  0  0  0  0  0  0  0  0  0  0
  -21.3340  -13.3690   22.2440 H   0  0  0  0  0  0  0  0  0  0  0  0
  -25.6030  -15.3680   20.2000 N   0  0  0  0  0  0  0  0  0  0  0  0
  -24.8610  -16.0410   20.3620 H   0  0  0  0  0  0  0  0  0  0  0  0
  -26.4600  -15.7920   19.8660 H   0  0  0  0  0  0  0  0  0  0  0  0
  -28.7140  -25.8100   19.0840 C   0  0  0  0  0  2  0  0  0  0  0  0
  -28.3900  -26.7120   20.1540 O   0  0  0  0  0  0  0  0  0  0  0  0
  -24.5320  -31.8560   23.2120 C   0  0  0  0  0  0  0  0  0  0  0  0
  -27.1930  -27.4060   20.1350 C   0  0  0  0  0  0  0  0  0  0  0  0
  -23.3210  -30.4290   21.5920 C   0  0  0  0  0  3  0  0  0  0  0  0
  -24.7750  -28.8880   20.1680 C   0  0  0  0  0  0  0  0  0  0  0  0
  -25.8400  -30.8050   21.3700 C   0  0  0  0  0  2  0  0  0  0  0  0
  -25.9320  -29.4290   20.7410 C   0  0  0  0  0  0  0  0  0  0  0  0
  -27.1390  -28.6900   20.7310 C   0  0  0  0  0  3  0  0  0  0  0  0
  -26.0100  -26.8720   19.5760 C   0  0  0  0  0  3  0  0  0  0  0  0
  -24.8070  -27.6060   19.5890 C   0  0  0  0  0  3  0  0  0  0  0  0
  -23.5210  -29.7340   20.2190 C   0  0  0  0  0  2  0  0  0  0  0  0
  -24.5830  -31.0450   22.1160 N   0  0  0  0  0  0  0  0  0  0  0  0
  -23.4530  -32.1250   23.7590 O   0  0  0  0  0  0  0  0  0  0  0  0
  -22.6850  -29.4150   22.5690 C   0  0  0  0  0  0  0  0  0  0  0  0
  -21.3600  -29.2250   22.4560 N   0  0  0  0  0  0  0  0  0  0  0  0
  -23.3790  -28.7990   23.3810 O   0  0  0  0  0  0  0  0  0  0  0  0
  -20.8590  -29.7780   21.7740 H   0  0  0  0  0  0  0  0  0  0  0  0
  -17.9980  -28.0200   22.9920 C   0  0  0  0  0  0  0  0  0  0  0  0
  -20.5570  -28.2880   23.2410 C   0  0  0  0  0  3  0  0  0  0  0  0
  -20.6590  -26.8540   22.6720 C   0  0  0  0  0  2  0  0  0  0  0  0
  -19.5490  -26.5210   21.6690 C   0  0  0  0  0  2  0  0  0  0  0  0
  -18.1740  -26.6660   22.3250 C   0  0  0  0  0  2  0  0  0  0  0  0
  -19.1180  -28.7880   23.4070 C   0  0  0  0  0  0  0  0  0  0  0  0
  -18.8990  -30.0560   23.9890 C   0  0  0  0  0  3  0  0  0  0  0  0
  -17.5950  -30.5550   24.1600 C   0  0  0  0  0  3  0  0  0  0  0  0
  -16.4900  -29.7830   23.7610 C   0  0  0  0  0  3  0  0  0  0  0  0
  -16.6930  -28.5160   23.1850 C   0  0  0  0  0  3  0  0  0  0  0  0
  -25.8190  -32.5000   23.8150 C   0  0  0  0  0  3  0  0  0  0  0  0
  -26.3540  -31.7460   25.0940 C   0  0  1  0  0  0  0  0  0  0  0  0
  -25.2730  -31.5100   26.1750 C   0  0  0  0  0  1  0  0  0  0  0  0
  -26.9400  -30.3680   24.7080 C   0  0  0  0  0  1  0  0  0  0  0  0
  -27.5050  -32.5540   25.7380 C   0  0  0  0  0  1  0  0  0  0  0  0
  -25.5060  -33.9000   24.1320 N   0  0  0  0  0  0  0  0  0  0  0  0
  -25.8330  -34.9460   23.3600 C   0  0  0  0  0  0  0  0  0  0  0  0
  -26.5000  -34.8350   22.3280 O   0  0  0  0  0  0  0  0  0  0  0  0
  -24.9080  -34.0600   24.9290 H   0  0  0  0  0  0  0  0  0  0  0  0
  -24.0960  -36.7290   22.9920 C   0  0  0  0  0  1  0  0  0  0  0  0
  -25.3400  -36.3370   23.8040 C   0  0  0  0  0  3  0  0  0  0  0  0
  -27.4740  -37.2360   24.6210 C   0  0  0  0  0  1  0  0  0  0  0  0
  -26.3690  -37.3930   23.6790 N   0  0  0  0  0  0  0  0  0  0  0  0
  -25.9600  -38.3120   23.8220 H   0  0  0  0  0  0  0  0  0  0  0  0
  1  3  1  0
  2  4  1  0
  2  5  1  0
  4  6  1  0
  5 54  1  0
  5  1  1  0
  6  7  1  0
  6  3  1  0
  7  8  1  1
 10  9  1  0
 10  7  1  0
 11  7  1  0
 12 25  1  0
 13 18  1  0
 14 15  1  0
 14 13  1  0
 16 15  1  0
 16 29  1  0
 16 17  1  0
 18 12  1  0
 18 17  1  0
 19 12  2  0
 21 20  1  0
 22 20  1  0
 23 24  1  0
 23 25  1  0
 24 11  1  0
 24 21  1  0
 25 22  1  0
 26 27  2  0
 27 46  1  0
 28 27  1  0
 28 31  1  0
 29 30  1  0
 29 26  1  0
 30 28  2  0
 31 32  1  0
 32 33  2  0
 34 37  1  0
 34 33  1  0
 35 34  2  0
 36 35  1  0
 36 31  2  0
 37 38  1  0
 38 39  1  0
 39 40  2  0
 41 40  1  0
 41 45  1  0
 42 41  2  0
 43 38  2  0
 43 42  1  0
 44 43  1  0
 46 47  1  0
 47 50  1  0
 47 49  1  0
 48 46  2  0
 51 52  1  0
 51 26  1  0
 53 51  1  0
 54 55  1  0
 56 67  2  0
 57 55  1  0
 57 62  1  0
 58 66  1  0
 58 68  1  0
 59 65  1  0
 59 61  1  0
 60 66  1  0
 61 60  1  0
 62 61  2  0
 63 64  1  0
 63 57  2  0
 64 59  2  0
 65 58  1  0
 66 56  1  0
 68 70  2  0
 69 68  1  0
 71 69  1  0
 72 81  2  0
 72 77  1  0
 73 69  1  0
 73 77  1  0
 74 73  1  0
 75 76  1  0
 75 74  1  0
 76 72  1  0
 77 78  2  0
 78 79  1  0
 80 79  2  0
 81 80  1  0
 82 56  1  0
 82 87  1  0
 82 83  1  0
 83 86  1  1
 83 84  1  0
 85 83  1  0
 87 90  1  0
 88 92  1  0
 88 87  1  0
 89 88  2  0
 92 91  1  0
 94 92  1  0
 94 95  1  0
 94 93  1  0
M  ISO  4  12 100  25 100  54 101  55 101
M  END
>  <TORSDO>  (31) 
F 20

>  <SCORE>  (31) 
-13.347

>  <name>  (31) 
30

>  <ligand_id>  (31) 
30

>  <original_smiles>  (31) 
[H]c1c([H])c([H])c2c(c1[H])C([H])([H])C([H])([H])C([H])([H])C2([H])N([H])C(=O)C1([H])N(C(=O)C([H])(N([H])C(=O)C([H])(N([H])C([H])([H])[H])C([H])([H])[H])C(C([H])([H])[H])(C([H])([H])[H])C([H])([H])[H])C([H])([H])c2c([H])c(OC([H])([H])C3([H])C([H])([H])C([H])([H])C([H])([N+]([H])(C([H])([H])C([H])([H])[H])C([H])([H])C4([H])C([H])([H])N(C(=O)N5C([H])([H])C([H])([H])C([H])([H])C([H])(n6nc(-c7c([H])c([H])c(Oc8c([H])c([H])c(F)c([H])c8F)c([H])c7[H])c(C(=O)N([H])[H])c6N([H])[H])C5([H])[H])C([H])([H])C([H])([H])C4([H])[H])C([H])([H])C3([H])[H])c([H])c([H])c2C1([H])[H]

>  <smiles>  (31) 
[H]c1c([H])c([H])c2c(c1[H])C([H])([H])C([H])([H])C([H])([H])C2([H])N([H])C(=O)C1([H])N(C(=O)C([H])(N([H])C(=O)C([H])(N([H])C([H])([H])[H])C([H])([H])[H])C(C([H])([H])[H])(C([H])([H])[H])C([H])([H])[H])C([H])([H])c2c([H])c(OC([H])([H])C3([H])C([H])([H])C([H])([H])C([H])([N+]([H])(C([H])([H])C([H])([H])[H])C([H])([H])C4([H])C([H])([H])N(C(=O)N5C([H])([H])C([H])([H])C([H])([H])C([H])(n6nc(-c7c([H])c([H])c(Oc8c([H])c([H])c(F)c([H])c8F)c([H])c7[H])c(C(=O)N([H])[H])c6N([H])[H])C5([H])[H])C([H])([H])C([H])([H])C4([H])[H])C([H])([H])C3([H])[H])c([H])c([H])c2C1([H])[H]

$$$$
31:0:0
     RDKit          3D

 93101  0  0  1  0  0  0  0  0999 V2000
  -29.3590  -22.9230   19.7040 C   0  0  0  0  0  3  0  0  0  0  0  0
  -29.5910  -21.8730   21.6630 C   0  0  0  0  0  3  0  0  0  0  0  0
  -29.5800  -21.6100   20.3340 C   0  0  0  0  0  0  0  0  0  0  0  0
  -29.2350  -23.9610   20.6570 C   0  0  0  0  0  0  0  0  0  0  0  0
  -29.4070  -23.2430   21.8770 N   0  0  0  0  0  0  0  0  0  0  0  0
  -30.8800  -23.6310   23.8350 C   0  0  0  0  0  1  0  0  0  0  0  0
  -28.4250  -23.0970   24.1640 C   0  0  0  0  0  1  0  0  0  0  0  0
  -29.4620  -23.7780   23.2470 C   0  0  0  0  0  3  0  0  0  0  0  0
  -30.3310  -26.2620   21.2870 C   0  0  0  0  0  1  0  0  0  0  0  0
  -29.0650  -25.5800   20.7400 C   0  0  0  0  0  3  0  0  0  0  0  0
  -28.7330  -26.4430   19.5590 O   0  0  0  0  0  0  0  0  0  0  0  0
  -24.8200  -31.5850   23.0290 C   0  0  0  0  0  0  0  0  0  0  0  0
  -27.6230  -27.3250   19.6580 C   0  0  0  0  0  0  0  0  0  0  0  0
  -23.6660  -30.1960   21.3500 C   0  0  0  0  0  3  0  0  0  0  0  0
  -25.1690  -28.8240   19.7920 C   0  0  0  0  0  0  0  0  0  0  0  0
  -26.1760  -30.6810   21.1140 C   0  0  0  0  0  2  0  0  0  0  0  0
  -26.3280  -29.3390   20.3920 C   0  0  0  0  0  0  0  0  0  0  0  0
  -27.5590  -28.6040   20.3170 C   0  0  0  0  0  3  0  0  0  0  0  0
  -26.4400  -26.8840   19.0290 C   0  0  0  0  0  3  0  0  0  0  0  0
  -25.2320  -27.6060   19.0970 C   0  0  0  0  0  3  0  0  0  0  0  0
  -23.8850  -29.6190   19.9260 C   0  0  0  0  0  2  0  0  0  0  0  0
  -24.9080  -30.8400   21.8850 N   0  0  0  0  0  0  0  0  0  0  0  0
  -23.7390  -31.7550   23.6090 O   0  0  0  0  0  0  0  0  0  0  0  0
  -23.1050  -29.0850   22.2730 C   0  0  0  0  0  0  0  0  0  0  0  0
  -21.8000  -28.7890   22.1490 N   0  0  0  0  0  0  0  0  0  0  0  0
  -23.8440  -28.4970   23.0650 O   0  0  0  0  0  0  0  0  0  0  0  0
  -21.2530  -29.3300   21.4940 H   0  0  0  0  0  0  0  0  0  0  0  0
  -18.5770  -27.1860   22.5520 C   0  0  0  0  0  0  0  0  0  0  0  0
  -21.0800  -27.7460   22.8850 C   0  0  0  0  0  3  0  0  0  0  0  0
  -21.3640  -26.3460   22.2910 C   0  0  0  0  0  2  0  0  0  0  0  0
  -20.3300  -25.9120   21.2470 C   0  0  0  0  0  2  0  0  0  0  0  0
  -18.9280  -25.8790   21.8600 C   0  0  0  0  0  2  0  0  0  0  0  0
  -19.5880  -28.0690   23.0210 C   0  0  0  0  0  0  0  0  0  0  0  0
  -19.2050  -29.2840   23.6290 C   0  0  0  0  0  3  0  0  0  0  0  0
  -17.8450  -29.6220   23.7710 C   0  0  0  0  0  3  0  0  0  0  0  0
  -16.8510  -28.7400   23.3180 C   0  0  0  0  0  3  0  0  0  0  0  0
  -17.2170  -27.5220   22.7170 C   0  0  0  0  0  3  0  0  0  0  0  0
  -26.0730  -32.2800   23.6450 C   0  0  0  0  0  3  0  0  0  0  0  0
  -25.6740  -33.6310   24.0670 N   0  0  0  0  0  0  0  0  0  0  0  0
  -25.9140  -34.7500   23.3700 C   0  0  0  0  0  0  0  0  0  0  0  0
  -26.5610  -34.7550   22.3190 O   0  0  0  0  0  0  0  0  0  0  0  0
  -25.0930  -33.6950   24.8900 H   0  0  0  0  0  0  0  0  0  0  0  0
  -24.0530  -36.4360   23.1780 C   0  0  0  0  0  1  0  0  0  0  0  0
  -25.3480  -36.0730   23.9240 C   0  0  0  0  0  3  0  0  0  0  0  0
  -27.4460  -37.0610   24.7370 C   0  0  0  0  0  1  0  0  0  0  0  0
  -26.3010  -37.2020   23.8420 N   0  0  0  0  0  0  0  0  0  0  0  0
  -25.8370  -38.0810   24.0560 H   0  0  0  0  0  0  0  0  0  0  0  0
  -26.6860  -31.4800   24.8600 C   0  0  1  0  0  0  0  0  0  0  0  0
  -25.6510  -31.1160   25.9500 C   0  0  0  0  0  1  0  0  0  0  0  0
  -27.3440  -30.1660   24.3780 C   0  0  0  0  0  1  0  0  0  0  0  0
  -27.8050  -32.3160   25.5220 C   0  0  0  0  0  1  0  0  0  0  0  0
  -29.8010  -20.2790   19.7710 N   0  0  0  0  0  0  0  0  0  0  0  0
  -29.8450  -20.2210   18.7550 H   0  0  0  0  0  0  0  0  0  0  0  0
  -29.7070  -18.9310   20.4970 C   0  0  0  0  0  3  0  0  0  0  0  0
  -30.5370  -17.6260   19.9410 C   0  0  0  0  0  3  0  0  0  0  0  0
  -30.9200  -15.0040   20.1960 C   0  0  0  0  0  0  0  0  0  0  0  0
  -30.7180  -12.6610   19.3300 C   0  0  0  0  0  2  0  0  0  0  0  0
  -29.8020  -12.6580   18.0870 C   0  0  0  0  0  2  0  0  0  0  0  0
  -28.3280  -12.5060   18.5070 C   0  0  0  0  0  2  0  0  0  0  0  0
  -27.9400  -13.4550   19.6720 C   0  0  0  0  0  3  0  0  0  0  0  0
  -28.9880  -13.4530   20.8070 C   0  0  0  0  0  2  0  0  0  0  0  0
  -30.2860  -13.7790   20.2030 N   0  0  0  0  0  0  0  0  0  0  0  0
  -32.1080  -15.0620   19.8670 O   0  0  0  0  0  0  0  0  0  0  0  0
  -30.1700  -16.1750   20.3290 N   0  0  0  0  0  0  0  0  0  0  0  0
  -29.2000  -16.0290   20.5700 H   0  0  0  0  0  0  0  0  0  0  0  0
  -25.5650  -14.0960   20.3950 C   0  0  0  0  0  0  0  0  0  0  0  0
  -24.4850  -13.3470   20.7710 C   0  0  0  0  0  0  0  0  0  0  0  0
  -24.9180  -11.9870   20.7500 C   0  0  0  0  0  0  0  0  0  0  0  0
  -26.5920  -13.1960   20.1660 N   0  0  0  0  0  0  0  0  0  0  0  0
  -26.2100  -11.9210   20.4410 N   0  0  0  0  0  0  0  0  0  0  0  0
  -24.1620  -10.7440   20.9470 C   0  0  0  0  0  0  0  0  0  0  0  0
  -24.5600   -9.7830   21.9040 C   0  0  0  0  0  3  0  0  0  0  0  0
  -23.8050   -8.6040   22.0910 C   0  0  0  0  0  3  0  0  0  0  0  0
  -22.6460   -8.3720   21.3160 C   0  0  0  0  0  0  0  0  0  0  0  0
  -22.2660   -9.3210   20.3500 C   0  0  0  0  0  3  0  0  0  0  0  0
  -23.0190  -10.4920   20.1620 C   0  0  0  0  0  3  0  0  0  0  0  0
  -21.8640   -7.2460   21.4130 O   0  0  0  0  0  0  0  0  0  0  0  0
  -21.7700   -6.5340   22.5820 C   0  0  0  0  0  0  0  0  0  0  0  0
  -21.3210   -7.1270   23.7820 C   0  0  0  0  0  3  0  0  0  0  0  0
  -21.1710   -6.3390   24.9420 C   0  0  0  0  0  3  0  0  0  0  0  0
  -21.4600   -4.9620   24.9020 C   0  0  0  0  0  0  0  0  0  0  0  0
  -21.9050   -4.3710   23.7060 C   0  0  0  0  0  3  0  0  0  0  0  0
  -22.0570   -5.1540   22.5490 C   0  0  0  0  0  0  0  0  0  0  0  0
  -22.4630   -4.5730   21.3940 F   0  0  0  0  0  0  0  0  0  0  0  0
  -21.3090   -4.2040   26.0130 F   0  0  0  0  0  0  0  0  0  0  0  0
  -23.0980  -13.8580   21.0330 C   0  0  0  0  0  0  0  0  0  0  0  0
  -22.3510  -13.1970   21.9100 N   0  0  0  0  0  0  0  0  0  0  0  0
  -22.6840  -14.8830   20.4920 O   0  0  0  0  0  0  0  0  0  0  0  0
  -22.6950  -12.3670   22.3680 H   0  0  0  0  0  0  0  0  0  0  0  0
  -21.4200  -13.5270   22.1210 H   0  0  0  0  0  0  0  0  0  0  0  0
  -25.7500  -15.4630   20.2060 N   0  0  0  0  0  0  0  0  0  0  0  0
  -24.9780  -16.1120   20.3160 H   0  0  0  0  0  0  0  0  0  0  0  0
  -26.5800  -15.8960   19.8230 H   0  0  0  0  0  0  0  0  0  0  0  0
  1  3  1  0
  1  4  2  0
  2  5  1  0
  3  2  2  0
  4 10  1  0
  4  5  1  0
  5  8  1  0
  8  6  1  0
  8  7  1  0
 10  9  1  0
 11 13  1  0
 11 10  1  0
 12 23  2  0
 13 18  1  0
 14 22  1  0
 14 24  1  0
 15 21  1  0
 15 17  1  0
 16 22  1  0
 17 16  1  0
 18 17  2  0
 19 20  1  0
 19 13  2  0
 20 15  2  0
 21 14  1  0
 22 12  1  0
 24 26  2  0
 25 24  1  0
 27 25  1  0
 28 37  2  0
 28 33  1  0
 29 25  1  0
 29 33  1  0
 30 29  1  0
 31 32  1  0
 31 30  1  0
 32 28  1  0
 33 34  2  0
 34 35  1  0
 36 35  2  0
 37 36  1  0
 38 12  1  0
 38 39  1  0
 38 48  1  0
 39 42  1  0
 40 44  1  0
 40 39  1  0
 41 40  2  0
 44 43  1  0
 46 44  1  0
 46 47  1  0
 46 45  1  0
 48 51  1  1
 48 49  1  0
 50 48  1  0
 52  3  1  0
 52 54  1  0
 53 52  1  0
 55 64  1  0
 55 54  2  0
 56 62  1  0
 56 64  1  0
 57 62  1  0
 58 59  1  0
 58 57  1  0
 60 59  1  0
 60 69  1  0
 60 61  1  0
 62 61  1  0
 63 56  2  0
 64 65  1  0
 66 67  2  0
 67 86  1  0
 68 67  1  0
 68 71  1  0
 69 66  1  0
 69 70  1  0
 70 68  2  0
 71 72  1  0
 72 73  2  0
 74 77  1  0
 74 73  1  0
 75 74  2  0
 76 75  1  0
 76 71  2  0
 77 78  1  0
 78 79  1  0
 79 80  2  0
 81 80  1  0
 81 85  1  0
 82 81  2  0
 83 78  2  0
 83 82  1  0
 84 83  1  0
 86 87  1  0
 87 90  1  0
 87 89  1  0
 88 86  2  0
 91 92  1  0
 91 66  1  0
 93 91  1  0
M  ISO  4  10 101  11 101  56 100  64 100
M  END
>  <TORSDO>  (32) 
F 21

>  <SCORE>  (32) 
-8.427

>  <name>  (32) 
31

>  <ligand_id>  (32) 
31

>  <original_smiles>  (32) 
[H]c1c([H])c([H])c2c(c1[H])C([H])([H])C([H])([H])C([H])([H])C2([H])N([H])C(=O)C1([H])N(C(=O)C([H])(N([H])C(=O)C([H])(N([H])C([H])([H])[H])C([H])([H])[H])C(C([H])([H])[H])(C([H])([H])[H])C([H])([H])[H])C([H])([H])c2c([H])c(OC([H])(c3c([H])c(N([H])C([H])([H])C([H])([H])N([H])C(=O)N4C([H])([H])C([H])([H])C([H])([H])C([H])(n5nc(-c6c([H])c([H])c(Oc7c([H])c([H])c(F)c([H])c7F)c([H])c6[H])c(C(=O)N([H])[H])c5N([H])[H])C4([H])[H])c([H])n3C([H])(C([H])([H])[H])C([H])([H])[H])C([H])([H])[H])c([H])c([H])c2C1([H])[H]

>  <smiles>  (32) 
[H]c1c([H])c([H])c2c(c1[H])C([H])([H])C([H])([H])C([H])([H])C2([H])N([H])C(=O)C1([H])N(C(=O)C([H])(N([H])C(=O)C([H])(N([H])C([H])([H])[H])C([H])([H])[H])C(C([H])([H])[H])(C([H])([H])[H])C([H])([H])[H])C([H])([H])c2c([H])c(OC([H])(c3c([H])c(N([H])C([H])([H])C([H])([H])N([H])C(=O)N4C([H])([H])C([H])([H])C([H])([H])C([H])(n5nc(-c6c([H])c([H])c(Oc7c([H])c([H])c(F)c([H])c7F)c([H])c6[H])c(C(=O)N([H])[H])c5N([H])[H])C4([H])[H])c([H])n3C([H])(C([H])([H])[H])C([H])([H])[H])C([H])([H])[H])c([H])c([H])c2C1([H])[H]

$$$$
32:0:0
     RDKit          3D

 91100  0  0  1  0  0  0  0  0999 V2000
  -28.3560  -20.3720   19.9230 C   0  0  0  0  0  3  0  0  0  0  0  0
  -30.0520  -21.2290   21.1910 C   0  0  0  0  0  3  0  0  0  0  0  0
  -27.9380  -21.7680   19.6470 C   0  0  0  0  0  0  0  0  0  0  0  0
  -29.4810  -19.9610   20.7230 C   0  0  0  0  0  0  0  0  0  0  0  0
  -28.5780  -22.9800   20.1820 C   0  0  0  0  0  0  0  0  0  0  0  0
  -29.6610  -22.5830   20.9590 N   0  0  0  0  0  0  0  0  0  0  0  0
  -25.1110  -21.0810   17.6030 C   0  0  0  0  0  2  0  0  0  0  0  0
  -26.6290  -21.1220   17.3900 C   0  0  0  0  0  2  0  0  0  0  0  0
  -25.3800  -21.3060   19.0950 C   0  0  0  0  0  2  0  0  0  0  0  0
  -26.7380  -21.9130   18.7080 C   0  0  0  0  0  3  0  0  0  0  0  0
  -30.1370  -18.3880   21.1010 C   0  0  0  0  0  2  0  0  0  0  0  0
  -30.4470  -15.5300   20.9330 C   0  0  0  0  0  0  0  0  0  0  0  0
  -30.4710  -13.1540   19.9190 C   0  0  0  0  0  2  0  0  0  0  0  0
  -29.6470  -13.0340   18.6130 C   0  0  0  0  0  2  0  0  0  0  0  0
  -28.1680  -12.7500   18.9280 C   0  0  0  0  0  2  0  0  0  0  0  0
  -27.6330  -13.6500   20.0700 C   0  0  0  0  0  3  0  0  0  0  0  0
  -28.5930  -13.7260   21.2770 C   0  0  0  0  0  2  0  0  0  0  0  0
  -29.8710  -14.2450   20.7650 N   0  0  0  0  0  0  0  0  0  0  0  0
  -31.6780  -15.5350   20.8020 O   0  0  0  0  0  0  0  0  0  0  0  0
  -29.7010  -16.7970   21.0450 N   0  0  0  0  0  0  0  0  0  0  0  0
  -28.7040  -16.6500   21.0910 H   0  0  0  0  0  0  0  0  0  0  0  0
  -25.2200  -14.1640   20.7150 C   0  0  0  0  0  0  0  0  0  0  0  0
  -24.1310  -13.3680   20.9360 C   0  0  0  0  0  0  0  0  0  0  0  0
  -24.5920  -12.0210   20.8070 C   0  0  0  0  0  0  0  0  0  0  0  0
  -26.2720  -13.3040   20.4580 N   0  0  0  0  0  0  0  0  0  0  0  0
  -25.9020  -12.0020   20.5810 N   0  0  0  0  0  0  0  0  0  0  0  0
  -23.8480  -10.7550   20.8230 C   0  0  0  0  0  0  0  0  0  0  0  0
  -24.2420   -9.6740   21.6430 C   0  0  0  0  0  3  0  0  0  0  0  0
  -23.4950   -8.4770   21.6570 C   0  0  0  0  0  3  0  0  0  0  0  0
  -22.3400   -8.3510   20.8500 C   0  0  0  0  0  0  0  0  0  0  0  0
  -21.9640   -9.4200   20.0190 C   0  0  0  0  0  3  0  0  0  0  0  0
  -22.7110  -10.6100   20.0020 C   0  0  0  0  0  3  0  0  0  0  0  0
  -21.5670   -7.2160   20.7800 O   0  0  0  0  0  0  0  0  0  0  0  0
  -21.5400   -6.3000   21.8020 C   0  0  0  0  0  0  0  0  0  0  0  0
  -21.1850   -6.6650   23.1190 C   0  0  0  0  0  3  0  0  0  0  0  0
  -21.1000   -5.6800   24.1230 C   0  0  0  0  0  3  0  0  0  0  0  0
  -21.3600   -4.3330   23.8120 C   0  0  0  0  0  0  0  0  0  0  0  0
  -21.7080   -3.9670   22.5000 C   0  0  0  0  0  3  0  0  0  0  0  0
  -21.7940   -4.9480   21.4970 C   0  0  0  0  0  0  0  0  0  0  0  0
  -22.1090   -4.5870   20.2300 F   0  0  0  0  0  0  0  0  0  0  0  0
  -21.2720   -3.3850   24.7750 F   0  0  0  0  0  0  0  0  0  0  0  0
  -22.7210  -13.8340   21.1510 C   0  0  0  0  0  0  0  0  0  0  0  0
  -21.9380  -13.0830   21.9180 N   0  0  0  0  0  0  0  0  0  0  0  0
  -22.3210  -14.8970   20.6790 O   0  0  0  0  0  0  0  0  0  0  0  0
  -22.2740  -12.2220   22.3220 H   0  0  0  0  0  0  0  0  0  0  0  0
  -20.9900  -13.3760   22.1070 H   0  0  0  0  0  0  0  0  0  0  0  0
  -25.3980  -15.5440   20.6800 N   0  0  0  0  0  0  0  0  0  0  0  0
  -24.6230  -16.1880   20.7930 H   0  0  0  0  0  0  0  0  0  0  0  0
  -26.2570  -16.0040   20.4120 H   0  0  0  0  0  0  0  0  0  0  0  0
  -28.0770  -24.6000   19.7350 C   0  0  0  0  0  2  0  0  0  0  0  0
  -28.4300  -26.1570   20.0570 O   0  0  0  0  0  0  0  0  0  0  0  0
  -24.6360  -31.8890   23.1460 C   0  0  0  0  0  0  0  0  0  0  0  0
  -27.4020  -27.2310   20.0060 C   0  0  0  0  0  0  0  0  0  0  0  0
  -23.5120  -30.5040   21.4530 C   0  0  0  0  0  3  0  0  0  0  0  0
  -25.0340  -29.0130   19.9950 C   0  0  0  0  0  0  0  0  0  0  0  0
  -26.0710  -30.8230   21.3410 C   0  0  0  0  0  2  0  0  0  0  0  0
  -26.2000  -29.4430   20.6420 C   0  0  0  0  0  0  0  0  0  0  0  0
  -27.3800  -28.5730   20.6250 C   0  0  0  0  0  3  0  0  0  0  0  0
  -26.2000  -26.9560   19.3110 C   0  0  0  0  0  3  0  0  0  0  0  0
  -25.0570  -27.7900   19.3100 C   0  0  0  0  0  3  0  0  0  0  0  0
  -23.7810  -29.8800   20.0580 C   0  0  0  0  0  2  0  0  0  0  0  0
  -24.7600  -31.0970   22.0340 N   0  0  0  0  0  0  0  0  0  0  0  0
  -23.5320  -32.1210   23.6640 O   0  0  0  0  0  0  0  0  0  0  0  0
  -22.8500  -29.4490   22.3770 C   0  0  0  0  0  0  0  0  0  0  0  0
  -21.5270  -29.2410   22.2360 N   0  0  0  0  0  0  0  0  0  0  0  0
  -23.5320  -28.8190   23.1890 O   0  0  0  0  0  0  0  0  0  0  0  0
  -21.0280  -29.8010   21.5590 H   0  0  0  0  0  0  0  0  0  0  0  0
  -18.1800  -27.9160   22.6920 C   0  0  0  0  0  0  0  0  0  0  0  0
  -20.7310  -28.2510   22.9700 C   0  0  0  0  0  3  0  0  0  0  0  0
  -20.8770  -26.8440   22.3430 C   0  0  0  0  0  2  0  0  0  0  0  0
  -19.7860  -26.5250   21.3160 C   0  0  0  0  0  2  0  0  0  0  0  0
  -18.4000  -26.6010   21.9620 C   0  0  0  0  0  2  0  0  0  0  0  0
  -19.2750  -28.6980   23.1510 C   0  0  0  0  0  0  0  0  0  0  0  0
  -19.0130  -29.9260   23.7960 C   0  0  0  0  0  3  0  0  0  0  0  0
  -17.6910  -30.3740   23.9840 C   0  0  0  0  0  3  0  0  0  0  0  0
  -16.6130  -29.5890   23.5370 C   0  0  0  0  0  3  0  0  0  0  0  0
  -16.8580  -28.3610   22.8980 C   0  0  0  0  0  3  0  0  0  0  0  0
  -25.8770  -32.5580   23.8120 C   0  0  0  0  0  3  0  0  0  0  0  0
  -26.3640  -31.8040   25.1110 C   0  0  1  0  0  0  0  0  0  0  0  0
  -25.2410  -31.5550   26.1450 C   0  0  0  0  0  1  0  0  0  0  0  0
  -26.9830  -30.4330   24.7540 C   0  0  0  0  0  1  0  0  0  0  0  0
  -27.4800  -32.6210   25.8030 C   0  0  0  0  0  1  0  0  0  0  0  0
  -25.5190  -33.9500   24.1380 N   0  0  0  0  0  0  0  0  0  0  0  0
  -25.8660  -35.0210   23.4130 C   0  0  0  0  0  0  0  0  0  0  0  0
  -26.5820  -34.9440   22.4120 O   0  0  0  0  0  0  0  0  0  0  0  0
  -24.8870  -34.0820   24.9140 H   0  0  0  0  0  0  0  0  0  0  0  0
  -24.1170  -36.7910   23.0200 C   0  0  0  0  0  1  0  0  0  0  0  0
  -25.3360  -36.3970   23.8700 C   0  0  0  0  0  3  0  0  0  0  0  0
  -27.4230  -37.3140   24.7850 C   0  0  0  0  0  1  0  0  0  0  0  0
  -26.3510  -37.4710   23.8060 N   0  0  0  0  0  0  0  0  0  0  0  0
  -25.9230  -38.3820   23.9470 H   0  0  0  0  0  0  0  0  0  0  0  0
  1  4  1  0
  3  1  2  0
  3  5  1  0
  4 11  1  0
  4  2  2  0
  5  6  2  0
  6  2  1  0
  7  9  1  0
  8  7  1  0
  8 10  1  0
 10  9  1  0
 10  3  1  0
 12 20  1  0
 13 18  1  0
 14 15  1  0
 14 13  1  0
 16 15  1  0
 16 25  1  0
 16 17  1  0
 18 12  1  0
 18 17  1  0
 19 12  2  0
 20 21  1  0
 20 11  1  0
 22 23  2  0
 23 42  1  0
 24 27  1  0
 24 23  1  0
 25 26  1  0
 25 22  1  0
 26 24  2  0
 27 28  1  0
 28 29  2  0
 30 29  1  0
 31 30  2  0
 32 31  1  0
 32 27  2  0
 33 30  1  0
 33 34  1  0
 34 35  1  0
 35 36  2  0
 37 36  1  0
 37 41  1  0
 38 37  2  0
 39 34  2  0
 39 38  1  0
 40 39  1  0
 42 43  1  0
 43 46  1  0
 43 45  1  0
 44 42  2  0
 47 22  1  0
 47 48  1  0
 49 47  1  0
 50 51  1  0
 50  5  1  0
 52 63  2  0
 53 51  1  0
 53 58  1  0
 54 62  1  0
 54 64  1  0
 55 61  1  0
 55 57  1  0
 56 62  1  0
 57 56  1  0
 58 57  2  0
 59 53  2  0
 60 59  1  0
 60 55  2  0
 61 54  1  0
 62 52  1  0
 64 66  2  0
 65 64  1  0
 67 65  1  0
 68 77  2  0
 68 73  1  0
 69 65  1  0
 69 73  1  0
 70 69  1  0
 71 72  1  0
 71 70  1  0
 72 68  1  0
 73 74  2  0
 74 75  1  0
 76 75  2  0
 77 76  1  0
 78 52  1  0
 78 83  1  0
 78 79  1  0
 79 82  1  1
 79 80  1  0
 81 79  1  0
 83 86  1  0
 84 88  1  0
 84 83  1  0
 85 84  2  0
 88 87  1  0
 90 88  1  0
 90 91  1  0
 90 89  1  0
M  ISO  4  12 100  20 100  50 101  51 101
M  END
>  <TORSDO>  (33) 
F 19

>  <SCORE>  (33) 
-14.502

>  <name>  (33) 
32

>  <ligand_id>  (33) 
32

>  <original_smiles>  (33) 
[H]c1nc(C([H])([H])Oc2c([H])c([H])c3c(c2[H])C([H])([H])N(C(=O)C([H])(N([H])C(=O)C([H])(N([H])C([H])([H])[H])C([H])([H])[H])C(C([H])([H])[H])(C([H])([H])[H])C([H])([H])[H])C([H])(C(=O)N([H])C2([H])c4c([H])c([H])c([H])c([H])c4C([H])([H])C([H])([H])C2([H])[H])C3([H])[H])c(C2([H])C([H])([H])C([H])([H])C2([H])[H])c([H])c1C([H])([H])N([H])C(=O)N1C([H])([H])C([H])([H])C([H])([H])C([H])(n2nc(-c3c([H])c([H])c(Oc4c([H])c([H])c(F)c([H])c4F)c([H])c3[H])c(C(=O)N([H])[H])c2N([H])[H])C1([H])[H]

>  <smiles>  (33) 
[H]c1nc(C([H])([H])Oc2c([H])c([H])c3c(c2[H])C([H])([H])N(C(=O)C([H])(N([H])C(=O)C([H])(N([H])C([H])([H])[H])C([H])([H])[H])C(C([H])([H])[H])(C([H])([H])[H])C([H])([H])[H])C([H])(C(=O)N([H])C2([H])c4c([H])c([H])c([H])c([H])c4C([H])([H])C([H])([H])C2([H])[H])C3([H])[H])c(C2([H])C([H])([H])C([H])([H])C2([H])[H])c([H])c1C([H])([H])N([H])C(=O)N1C([H])([H])C([H])([H])C([H])([H])C([H])(n2nc(-c3c([H])c([H])c(Oc4c([H])c([H])c(F)c([H])c4F)c([H])c3[H])c(C(=O)N([H])[H])c2N([H])[H])C1([H])[H]

$$$$
33:0:0
     RDKit          3D

 92101  0  0  1  0  0  0  0  0999 V2000
  -28.3910  -21.8860   18.6030 C   0  0  0  0  0  3  0  0  0  0  0  0
  -29.2810  -22.2560   20.8210 C   0  0  0  0  0  3  0  0  0  0  0  0
  -28.3290  -23.2830   18.3950 C   0  0  0  0  0  3  0  0  0  0  0  0
  -29.2110  -23.6610   20.6140 C   0  0  0  0  0  3  0  0  0  0  0  0
  -28.8890  -21.3380   19.8100 C   0  0  0  0  0  0  0  0  0  0  0  0
  -28.7450  -24.1960   19.3890 C   0  0  0  0  0  0  0  0  0  0  0  0
  -29.5390  -19.2700   21.3070 C   0  0  0  0  0  2  0  0  0  0  0  0
  -29.7650  -19.1040   18.8260 C   0  0  0  0  0  2  0  0  0  0  0  0
  -29.5170  -17.7200   21.4140 C   0  0  0  0  0  2  0  0  0  0  0  0
  -29.7500  -17.5520   18.9090 C   0  0  0  0  0  2  0  0  0  0  0  0
  -28.9700  -19.7920   19.9650 C   0  0  0  0  0  3  0  0  0  0  0  0
  -30.2570  -16.9890   20.2630 C   0  0  0  0  0  3  0  0  0  0  0  0
  -30.8140  -14.4960   19.9720 C   0  0  0  0  0  0  0  0  0  0  0  0
  -30.4960  -12.2970   18.8960 C   0  0  0  0  0  2  0  0  0  0  0  0
  -29.4790  -12.4890   17.7500 C   0  0  0  0  0  2  0  0  0  0  0  0
  -28.0310  -12.3610   18.2700 C   0  0  0  0  0  2  0  0  0  0  0  0
  -27.7750  -13.2020   19.5490 C   0  0  0  0  0  3  0  0  0  0  0  0
  -28.8990  -12.9800   20.5880 C   0  0  0  0  0  2  0  0  0  0  0  0
  -30.1810  -13.2910   19.9330 N   0  0  0  0  0  0  0  0  0  0  0  0
  -31.9360  -14.6780   19.4900 O   0  0  0  0  0  0  0  0  0  0  0  0
  -30.0350  -15.5270   20.3770 N   0  0  0  0  0  0  0  0  0  0  0  0
  -29.1340  -15.2450   20.7330 H   0  0  0  0  0  0  0  0  0  0  0  0
  -25.4490  -13.8380   20.4450 C   0  0  0  0  0  0  0  0  0  0  0  0
  -24.3910  -13.0760   20.8620 C   0  0  0  0  0  0  0  0  0  0  0  0
  -24.8150  -11.7160   20.7500 C   0  0  0  0  0  0  0  0  0  0  0  0
  -26.4530  -12.9410   20.1120 N   0  0  0  0  0  0  0  0  0  0  0  0
  -26.0790  -11.6590   20.3520 N   0  0  0  0  0  0  0  0  0  0  0  0
  -24.0730  -10.4650   20.9480 C   0  0  0  0  0  0  0  0  0  0  0  0
  -24.5070   -9.4860   21.8680 C   0  0  0  0  0  3  0  0  0  0  0  0
  -23.7670   -8.2980   22.0530 C   0  0  0  0  0  3  0  0  0  0  0  0
  -22.5780   -8.0820   21.3180 C   0  0  0  0  0  0  0  0  0  0  0  0
  -22.1610   -9.0500   20.3860 C   0  0  0  0  0  3  0  0  0  0  0  0
  -22.9020  -10.2290   20.2000 C   0  0  0  0  0  3  0  0  0  0  0  0
  -21.8080   -6.9480   21.4130 O   0  0  0  0  0  0  0  0  0  0  0  0
  -21.7180   -6.2350   22.5800 C   0  0  0  0  0  0  0  0  0  0  0  0
  -21.2460   -6.8190   23.7760 C   0  0  0  0  0  3  0  0  0  0  0  0
  -21.1060   -6.0310   24.9360 C   0  0  0  0  0  3  0  0  0  0  0  0
  -21.4250   -4.6610   24.9010 C   0  0  0  0  0  0  0  0  0  0  0  0
  -21.8890   -4.0770   23.7090 C   0  0  0  0  0  3  0  0  0  0  0  0
  -22.0320   -4.8600   22.5510 C   0  0  0  0  0  0  0  0  0  0  0  0
  -22.4600   -4.2870   21.4000 F   0  0  0  0  0  0  0  0  0  0  0  0
  -21.2820   -3.9030   26.0120 F   0  0  0  0  0  0  0  0  0  0  0  0
  -23.0280  -13.5740   21.2480 C   0  0  0  0  0  0  0  0  0  0  0  0
  -22.3490  -12.8640   22.1430 N   0  0  0  0  0  0  0  0  0  0  0  0
  -22.5770  -14.6250   20.7930 O   0  0  0  0  0  0  0  0  0  0  0  0
  -22.7320  -12.0140   22.5280 H   0  0  0  0  0  0  0  0  0  0  0  0
  -21.4360  -13.1750   22.4450 H   0  0  0  0  0  0  0  0  0  0  0  0
  -25.6330  -15.2100   20.3000 N   0  0  0  0  0  0  0  0  0  0  0  0
  -24.8830  -15.8700   20.4740 H   0  0  0  0  0  0  0  0  0  0  0  0
  -26.4530  -15.6400   19.8920 H   0  0  0  0  0  0  0  0  0  0  0  0
  -28.8210  -25.7000   19.0400 C   0  0  0  0  0  2  0  0  0  0  0  0
  -28.5280  -26.6650   20.0740 O   0  0  0  0  0  0  0  0  0  0  0  0
  -24.6230  -31.7870   23.1490 C   0  0  0  0  0  0  0  0  0  0  0  0
  -27.3420  -27.3810   20.0410 C   0  0  0  0  0  0  0  0  0  0  0  0
  -23.4430  -30.3880   21.4840 C   0  0  0  0  0  3  0  0  0  0  0  0
  -24.9250  -28.8730   20.0560 C   0  0  0  0  0  0  0  0  0  0  0  0
  -25.9680  -30.7710   21.3090 C   0  0  0  0  0  2  0  0  0  0  0  0
  -26.0730  -29.4010   20.6590 C   0  0  0  0  0  0  0  0  0  0  0  0
  -27.2790  -28.6580   20.6550 C   0  0  0  0  0  3  0  0  0  0  0  0
  -26.1670  -26.8670   19.4450 C   0  0  0  0  0  3  0  0  0  0  0  0
  -24.9680  -27.6060   19.4490 C   0  0  0  0  0  3  0  0  0  0  0  0
  -23.6720  -29.7200   20.1010 C   0  0  0  0  0  2  0  0  0  0  0  0
  -24.6960  -30.9980   22.0390 N   0  0  0  0  0  0  0  0  0  0  0  0
  -23.5350  -32.0420   23.6860 O   0  0  0  0  0  0  0  0  0  0  0  0
  -22.7950  -29.3530   22.4330 C   0  0  0  0  0  0  0  0  0  0  0  0
  -21.4750  -29.1540   22.2940 N   0  0  0  0  0  0  0  0  0  0  0  0
  -23.4800  -28.7330   23.2500 O   0  0  0  0  0  0  0  0  0  0  0  0
  -20.9820  -29.7080   21.6070 H   0  0  0  0  0  0  0  0  0  0  0  0
  -18.1160  -27.8980   22.7440 C   0  0  0  0  0  0  0  0  0  0  0  0
  -20.6650  -28.1990   23.0500 C   0  0  0  0  0  3  0  0  0  0  0  0
  -20.8000  -26.7730   22.4690 C   0  0  0  0  0  2  0  0  0  0  0  0
  -19.7160  -26.4360   21.4400 C   0  0  0  0  0  2  0  0  0  0  0  0
  -18.3240  -26.5550   22.0650 C   0  0  0  0  0  2  0  0  0  0  0  0
  -19.2160  -28.6770   23.1930 C   0  0  0  0  0  0  0  0  0  0  0  0
  -18.9680  -29.9350   23.7850 C   0  0  0  0  0  3  0  0  0  0  0  0
  -17.6520  -30.4120   23.9360 C   0  0  0  0  0  3  0  0  0  0  0  0
  -16.5670  -29.6310   23.5050 C   0  0  0  0  0  3  0  0  0  0  0  0
  -16.8000  -28.3760   22.9140 C   0  0  0  0  0  3  0  0  0  0  0  0
  -25.8970  -32.4290   23.7830 C   0  0  0  0  0  3  0  0  0  0  0  0
  -25.5690  -33.8190   24.1290 N   0  0  0  0  0  0  0  0  0  0  0  0
  -25.8870  -34.8840   23.3810 C   0  0  0  0  0  0  0  0  0  0  0  0
  -26.5580  -34.8010   22.3490 O   0  0  0  0  0  0  0  0  0  0  0  0
  -24.9730  -33.9560   24.9320 H   0  0  0  0  0  0  0  0  0  0  0  0
  -24.1330  -36.6560   23.0450 C   0  0  0  0  0  1  0  0  0  0  0  0
  -25.3800  -36.2610   23.8530 C   0  0  0  0  0  3  0  0  0  0  0  0
  -27.4970  -37.1720   24.6990 C   0  0  0  0  0  1  0  0  0  0  0  0
  -26.3970  -37.3300   23.7510 N   0  0  0  0  0  0  0  0  0  0  0  0
  -25.9770  -38.2430   23.9010 H   0  0  0  0  0  0  0  0  0  0  0  0
  -26.4200  -31.6490   25.0510 C   0  0  1  0  0  0  0  0  0  0  0  0
  -25.3280  -31.3790   26.1120 C   0  0  0  0  0  1  0  0  0  0  0  0
  -27.0280  -30.2870   24.6410 C   0  0  0  0  0  1  0  0  0  0  0  0
  -27.5550  -32.4500   25.7310 C   0  0  0  0  0  1  0  0  0  0  0  0
  1  5  1  0
  3  1  2  0
  3  6  1  0
  4  2  1  0
  5  2  2  0
  6  4  2  0
  7  9  1  0
  8 10  1  0
  8 11  1  0
 10 12  1  0
 11  5  1  0
 11  7  1  0
 12 21  1  0
 12  9  1  0
 13 21  1  0
 14 19  1  0
 15 16  1  0
 15 14  1  0
 17 16  1  0
 17 26  1  0
 17 18  1  0
 19 13  1  0
 19 18  1  0
 20 13  2  0
 21 22  1  0
 23 24  2  0
 24 43  1  0
 25 24  1  0
 25 28  1  0
 26 27  1  0
 26 23  1  0
 27 25  2  0
 28 29  1  0
 29 30  2  0
 31 34  1  0
 31 30  1  0
 32 31  2  0
 33 32  1  0
 33 28  2  0
 34 35  1  0
 35 36  1  0
 36 37  2  0
 38 37  1  0
 38 42  1  0
 39 38  2  0
 40 35  2  0
 40 39  1  0
 41 40  1  0
 43 44  1  0
 44 47  1  0
 44 46  1  0
 45 43  2  0
 48 23  1  0
 48 49  1  0
 50 48  1  0
 51  6  1  0
 51 52  1  0
 53 64  2  0
 54 52  1  0
 54 59  1  0
 55 63  1  0
 55 65  1  0
 56 62  1  0
 56 58  1  0
 57 63  1  0
 58 57  1  0
 59 58  2  0
 60 61  1  0
 60 54  2  0
 61 56  2  0
 62 55  1  0
 63 53  1  0
 65 67  2  0
 66 65  1  0
 68 66  1  0
 69 78  2  0
 69 74  1  0
 70 66  1  0
 70 74  1  0
 71 70  1  0
 72 73  1  0
 72 71  1  0
 73 69  1  0
 74 75  2  0
 75 76  1  0
 77 76  2  0
 78 77  1  0
 79 53  1  0
 79 80  1  0
 79 89  1  0
 80 83  1  0
 81 85  1  0
 81 80  1  0
 82 81  2  0
 85 84  1  0
 87 85  1  0
 87 88  1  0
 87 86  1  0
 89 92  1  1
 89 90  1  0
 91 89  1  0
M  ISO  4  13 100  21 100  51 101  52 101
M  END
>  <TORSDO>  (34) 
F 18

>  <SCORE>  (34) 
-13.951

>  <name>  (34) 
33

>  <ligand_id>  (34) 
33

>  <original_smiles>  (34) 
[H]c1c([H])c([H])c2c(c1[H])C([H])([H])C([H])([H])C([H])([H])C2([H])N([H])C(=O)C1([H])N(C(=O)C([H])(N([H])C(=O)C([H])(N([H])C([H])([H])[H])C([H])([H])[H])C(C([H])([H])[H])(C([H])([H])[H])C([H])([H])[H])C([H])([H])c2c([H])c(OC([H])([H])c3c([H])c([H])c(C4([H])C([H])([H])C([H])([H])C([H])(N([H])C(=O)N5C([H])([H])C([H])([H])C([H])([H])C([H])(n6nc(-c7c([H])c([H])c(Oc8c([H])c([H])c(F)c([H])c8F)c([H])c7[H])c(C(=O)N([H])[H])c6N([H])[H])C5([H])[H])C([H])([H])C4([H])[H])c([H])c3[H])c([H])c([H])c2C1([H])[H]

>  <smiles>  (34) 
[H]c1c([H])c([H])c2c(c1[H])C([H])([H])C([H])([H])C([H])([H])C2([H])N([H])C(=O)C1([H])N(C(=O)C([H])(N([H])C(=O)C([H])(N([H])C([H])([H])[H])C([H])([H])[H])C(C([H])([H])[H])(C([H])([H])[H])C([H])([H])[H])C([H])([H])c2c([H])c(OC([H])([H])c3c([H])c([H])c(C4([H])C([H])([H])C([H])([H])C([H])(N([H])C(=O)N5C([H])([H])C([H])([H])C([H])([H])C([H])(n6nc(-c7c([H])c([H])c(Oc8c([H])c([H])c(F)c([H])c8F)c([H])c7[H])c(C(=O)N([H])[H])c6N([H])[H])C5([H])[H])C([H])([H])C4([H])[H])c([H])c3[H])c([H])c([H])c2C1([H])[H]

$$$$
34:0:0
     RDKit          3D

 93102  0  0  1  0  0  0  0  0999 V2000
  -30.1510  -21.3060   21.6110 C   0  0  0  0  0  3  0  0  0  0  0  0
  -30.6850  -20.1710   22.2590 C   0  0  0  0  0  0  0  0  0  0  0  0
  -30.4980  -18.8870   21.6830 C   0  0  0  0  0  0  0  0  0  0  0  0
  -29.8000  -18.7640   20.4550 C   0  0  0  0  0  0  0  0  0  0  0  0
  -29.4140  -21.1840   20.4260 C   0  0  0  0  0  0  0  0  0  0  0  0
  -29.2600  -19.9160   19.8610 N   0  0  0  0  0  0  0  0  0  0  0  0
  -31.1830  -17.4940   22.4540 Cl  0  0  0  0  0  0  0  0  0  0  0  0
  -30.7580  -20.7750   24.8110 C   0  0  0  0  0  2  0  0  0  0  0  0
  -31.7860  -21.6750   24.1730 C   0  0  0  0  0  2  0  0  0  0  0  0
  -31.4600  -20.3350   23.5450 C   0  0  0  0  0  3  0  0  0  0  0  0
  -29.8250  -17.3670   19.6640 C   0  0  0  0  0  2  0  0  0  0  0  0
  -30.5030  -14.8420   19.9650 C   0  0  0  0  0  0  0  0  0  0  0  0
  -30.2640  -12.5850   18.9330 C   0  0  0  0  0  2  0  0  0  0  0  0
  -29.2470  -12.6760   17.7730 C   0  0  0  0  0  2  0  0  0  0  0  0
  -27.8090  -12.4760   18.2900 C   0  0  0  0  0  2  0  0  0  0  0  0
  -27.5090  -13.3370   19.5460 C   0  0  0  0  0  3  0  0  0  0  0  0
  -28.6360  -13.2290   20.5970 C   0  0  0  0  0  2  0  0  0  0  0  0
  -29.8930  -13.6070   19.9400 N   0  0  0  0  0  0  0  0  0  0  0  0
  -31.6430  -14.9660   19.5050 O   0  0  0  0  0  0  0  0  0  0  0  0
  -29.7330  -15.9560   20.2690 N   0  0  0  0  0  0  0  0  0  0  0  0
  -28.8390  -15.7520   20.6870 H   0  0  0  0  0  0  0  0  0  0  0  0
  -25.1810  -13.9000   20.4600 C   0  0  0  0  0  0  0  0  0  0  0  0
  -24.1450  -13.1120   20.8790 C   0  0  0  0  0  0  0  0  0  0  0  0
  -24.6050  -11.7640   20.7690 C   0  0  0  0  0  0  0  0  0  0  0  0
  -26.2020  -13.0320   20.1170 N   0  0  0  0  0  0  0  0  0  0  0  0
  -25.8680  -11.7390   20.3630 N   0  0  0  0  0  0  0  0  0  0  0  0
  -23.8940  -10.4920   20.9640 C   0  0  0  0  0  0  0  0  0  0  0  0
  -24.3600   -9.5190   21.8750 C   0  0  0  0  0  3  0  0  0  0  0  0
  -23.6490   -8.3140   22.0610 C   0  0  0  0  0  3  0  0  0  0  0  0
  -22.4590   -8.0740   21.3340 C   0  0  0  0  0  0  0  0  0  0  0  0
  -22.0110   -9.0370   20.4110 C   0  0  0  0  0  3  0  0  0  0  0  0
  -22.7220  -10.2330   20.2260 C   0  0  0  0  0  3  0  0  0  0  0  0
  -21.7160   -6.9230   21.4310 O   0  0  0  0  0  0  0  0  0  0  0  0
  -21.6740   -6.1880   22.5890 C   0  0  0  0  0  0  0  0  0  0  0  0
  -21.2100   -6.7360   23.8040 C   0  0  0  0  0  3  0  0  0  0  0  0
  -21.1200   -5.9260   24.9530 C   0  0  0  0  0  3  0  0  0  0  0  0
  -21.4830   -4.5670   24.8880 C   0  0  0  0  0  0  0  0  0  0  0  0
  -21.9390   -4.0170   23.6760 C   0  0  0  0  0  3  0  0  0  0  0  0
  -22.0320   -4.8260   22.5290 C   0  0  0  0  0  0  0  0  0  0  0  0
  -22.4530   -4.2860   21.3600 F   0  0  0  0  0  0  0  0  0  0  0  0
  -21.3890   -3.7870   25.9880 F   0  0  0  0  0  0  0  0  0  0  0  0
  -22.7700  -13.5750   21.2680 C   0  0  0  0  0  0  0  0  0  0  0  0
  -22.1000  -12.8390   22.1480 N   0  0  0  0  0  0  0  0  0  0  0  0
  -22.3030  -14.6250   20.8260 O   0  0  0  0  0  0  0  0  0  0  0  0
  -22.4930  -11.9910   22.5260 H   0  0  0  0  0  0  0  0  0  0  0  0
  -21.1790  -13.1280   22.4470 H   0  0  0  0  0  0  0  0  0  0  0  0
  -25.3340  -15.2780   20.3200 N   0  0  0  0  0  0  0  0  0  0  0  0
  -24.5770  -15.9290   20.4950 H   0  0  0  0  0  0  0  0  0  0  0  0
  -26.1490  -15.7230   19.9190 H   0  0  0  0  0  0  0  0  0  0  0  0
  -28.8250  -22.3330   19.8020 O   0  0  0  0  0  0  0  0  0  0  0  0
  -29.0160  -23.7420   20.3150 C   0  0  0  0  0  3  0  0  0  0  0  0
  -28.0640  -24.9640   19.8080 C   0  0  0  0  0  3  0  0  0  0  0  0
  -28.3050  -26.4330   20.1050 O   0  0  0  0  0  0  0  0  0  0  0  0
  -24.6220  -31.8860   23.2260 C   0  0  0  0  0  0  0  0  0  0  0  0
  -27.2160  -27.3440   20.0570 C   0  0  0  0  0  0  0  0  0  0  0  0
  -23.4130  -30.5160   21.5710 C   0  0  0  0  0  3  0  0  0  0  0  0
  -24.8540  -28.9920   20.1010 C   0  0  0  0  0  0  0  0  0  0  0  0
  -25.9570  -30.8290   21.3750 C   0  0  0  0  0  2  0  0  0  0  0  0
  -26.0330  -29.4600   20.6970 C   0  0  0  0  0  0  0  0  0  0  0  0
  -27.2180  -28.6520   20.6580 C   0  0  0  0  0  3  0  0  0  0  0  0
  -26.0150  -26.9590   19.4210 C   0  0  0  0  0  3  0  0  0  0  0  0
  -24.8510  -27.7500   19.4500 C   0  0  0  0  0  3  0  0  0  0  0  0
  -23.6180  -29.8660   20.1780 C   0  0  0  0  0  2  0  0  0  0  0  0
  -24.6840  -31.0960   22.1130 N   0  0  0  0  0  0  0  0  0  0  0  0
  -23.5400  -32.1490   23.7710 O   0  0  0  0  0  0  0  0  0  0  0  0
  -22.7540  -29.4820   22.5190 C   0  0  0  0  0  0  0  0  0  0  0  0
  -21.4270  -29.2980   22.3940 N   0  0  0  0  0  0  0  0  0  0  0  0
  -23.4360  -28.8480   23.3270 O   0  0  0  0  0  0  0  0  0  0  0  0
  -20.9340  -29.8640   21.7160 H   0  0  0  0  0  0  0  0  0  0  0  0
  -18.0550  -28.0710   22.9020 C   0  0  0  0  0  0  0  0  0  0  0  0
  -20.6170  -28.3420   23.1510 C   0  0  0  0  0  3  0  0  0  0  0  0
  -20.7190  -26.9220   22.5480 C   0  0  0  0  0  2  0  0  0  0  0  0
  -19.6080  -26.6130   21.5370 C   0  0  0  0  0  2  0  0  0  0  0  0
  -18.2320  -26.7380   22.1970 C   0  0  0  0  0  2  0  0  0  0  0  0
  -19.1750  -28.8320   23.3350 C   0  0  0  0  0  0  0  0  0  0  0  0
  -18.9530  -30.0810   23.9560 C   0  0  0  0  0  3  0  0  0  0  0  0
  -17.6470  -30.5700   24.1450 C   0  0  0  0  0  3  0  0  0  0  0  0
  -16.5440  -29.8070   23.7250 C   0  0  0  0  0  3  0  0  0  0  0  0
  -16.7490  -28.5600   23.1110 C   0  0  0  0  0  3  0  0  0  0  0  0
  -25.9030  -32.5140   23.8540 C   0  0  0  0  0  3  0  0  0  0  0  0
  -25.5980  -33.9140   24.1830 N   0  0  0  0  0  0  0  0  0  0  0  0
  -25.9130  -34.9650   23.4140 C   0  0  0  0  0  0  0  0  0  0  0  0
  -26.5600  -34.8560   22.3690 O   0  0  0  0  0  0  0  0  0  0  0  0
  -25.0260  -34.0720   25.0000 H   0  0  0  0  0  0  0  0  0  0  0  0
  -24.1780  -36.7590   23.0900 C   0  0  0  0  0  1  0  0  0  0  0  0
  -25.4380  -36.3580   23.8750 C   0  0  0  0  0  3  0  0  0  0  0  0
  -27.5910  -37.2500   24.6510 C   0  0  0  0  0  1  0  0  0  0  0  0
  -26.4700  -37.4100   23.7280 N   0  0  0  0  0  0  0  0  0  0  0  0
  -26.0690  -38.3330   23.8730 H   0  0  0  0  0  0  0  0  0  0  0  0
  -26.4060  -31.7430   25.1370 C   0  0  1  0  0  0  0  0  0  0  0  0
  -25.3060  -31.5080   26.2000 C   0  0  0  0  0  1  0  0  0  0  0  0
  -26.9890  -30.3640   24.7530 C   0  0  0  0  0  1  0  0  0  0  0  0
  -27.5570  -32.5360   25.8000 C   0  0  0  0  0  1  0  0  0  0  0  0
  1  2  2  0
  2 10  1  0
  3  2  1  0
  3  7  1  0
  4  3  2  0
  5  1  1  0
  6  5  2  0
  6  4  1  0
  9  8  1  0
 10  9  1  0
 10  8  1  0
 11 20  1  0
 11  4  1  0
 12 20  1  0
 13 18  1  0
 14 15  1  0
 14 13  1  0
 16 15  1  0
 16 25  1  0
 16 17  1  0
 18 12  1  0
 18 17  1  0
 19 12  2  0
 20 21  1  0
 22 23  2  0
 23 42  1  0
 24 23  1  0
 24 27  1  0
 25 26  1  0
 25 22  1  0
 26 24  2  0
 27 28  1  0
 28 29  2  0
 30 33  1  0
 30 29  1  0
 31 30  2  0
 32 31  1  0
 32 27  2  0
 33 34  1  0
 34 35  1  0
 35 36  2  0
 37 36  1  0
 37 41  1  0
 38 37  2  0
 39 34  2  0
 39 38  1  0
 40 39  1  0
 42 43  1  0
 43 46  1  0
 43 45  1  0
 44 42  2  0
 47 22  1  0
 47 48  1  0
 49 47  1  0
 50 51  1  0
 50  5  1  0
 52 53  1  0
 52 51  2  0
 54 65  2  0
 55 53  1  0
 55 60  1  0
 56 64  1  0
 56 66  1  0
 57 63  1  0
 57 59  1  0
 58 64  1  0
 59 58  1  0
 60 59  2  0
 61 62  1  0
 61 55  2  0
 62 57  2  0
 63 56  1  0
 64 54  1  0
 66 68  2  0
 67 66  1  0
 69 67  1  0
 70 79  2  0
 70 75  1  0
 71 67  1  0
 71 75  1  0
 72 71  1  0
 73 74  1  0
 73 72  1  0
 74 70  1  0
 75 76  2  0
 76 77  1  0
 78 77  2  0
 79 78  1  0
 80 54  1  0
 80 81  1  0
 80 90  1  0
 81 84  1  0
 82 86  1  0
 82 81  1  0
 83 82  2  0
 86 85  1  0
 88 89  1  0
 88 86  1  0
 88 87  1  0
 90 93  1  1
 90 91  1  0
 92 90  1  0
M  ISO  4  12 100  20 100  52 101  53 101
M  END
>  <TORSDO>  (35) 
F 21

>  <SCORE>  (35) 
-13.427

>  <name>  (35) 
34

>  <ligand_id>  (35) 
34

>  <original_smiles>  (35) 
[H]c1c([H])c([H])c2c(c1[H])C([H])([H])C([H])([H])C([H])([H])C2([H])N([H])C(=O)C1([H])N(C(=O)C([H])(N([H])C(=O)C([H])(N([H])C([H])([H])[H])C([H])([H])[H])C(C([H])([H])[H])(C([H])([H])[H])C([H])([H])[H])C([H])([H])c2c([H])c(OC([H])([H])C([H])([H])Oc3nc(C([H])([H])N([H])C(=O)N4C([H])([H])C([H])([H])C([H])([H])C([H])(n5nc(-c6c([H])c([H])c(Oc7c([H])c([H])c(F)c([H])c7F)c([H])c6[H])c(C(=O)N([H])[H])c5N([H])[H])C4([H])[H])c(Cl)c(C4([H])C([H])([H])C4([H])[H])c3[H])c([H])c([H])c2C1([H])[H]

>  <smiles>  (35) 
[H]c1c([H])c([H])c2c(c1[H])C([H])([H])C([H])([H])C([H])([H])C2([H])N([H])C(=O)C1([H])N(C(=O)C([H])(N([H])C(=O)C([H])(N([H])C([H])([H])[H])C([H])([H])[H])C(C([H])([H])[H])(C([H])([H])[H])C([H])([H])[H])C([H])([H])c2c([H])c(OC([H])([H])C([H])([H])Oc3nc(C([H])([H])N([H])C(=O)N4C([H])([H])C([H])([H])C([H])([H])C([H])(n5nc(-c6c([H])c([H])c(Oc7c([H])c([H])c(F)c([H])c7F)c([H])c6[H])c(C(=O)N([H])[H])c5N([H])[H])C4([H])[H])c(Cl)c(C4([H])C([H])([H])C4([H])[H])c3[H])c([H])c([H])c2C1([H])[H]

$$$$
35:0:0
     RDKit          3D

 95104  0  0  1  0  0  0  0  0999 V2000
  -29.7120  -21.3500   23.2230 C   0  0  0  0  0  1  0  0  0  0  0  0
  -30.4140  -22.0740   22.0560 C   0  0  0  0  0  3  0  0  0  0  0  0
  -30.9920  -24.5050   21.2710 C   0  0  0  0  0  2  0  0  0  0  0  0
  -28.5340  -23.8400   21.5650 C   0  0  0  0  0  2  0  0  0  0  0  0
  -30.3350  -25.5170   20.3070 C   0  0  0  0  0  2  0  0  0  0  0  0
  -28.1830  -25.3330   21.6990 C   0  0  0  0  0  2  0  0  0  0  0  0
  -29.9910  -23.5790   22.0090 C   0  0  0  0  0  3  0  0  0  0  0  0
  -29.1040  -26.2710   20.8710 C   0  0  0  0  0  3  0  0  0  0  0  0
  -28.4660  -26.8020   19.7090 O   0  0  0  0  0  0  0  0  0  0  0  0
  -24.4770  -31.7160   23.0840 C   0  0  0  0  0  0  0  0  0  0  0  0
  -27.2930  -27.5040   19.8510 C   0  0  0  0  0  0  0  0  0  0  0  0
  -23.3250  -30.3260   21.3930 C   0  0  0  0  0  3  0  0  0  0  0  0
  -24.8390  -28.8960   19.9220 C   0  0  0  0  0  0  0  0  0  0  0  0
  -25.8330  -30.7910   21.2100 C   0  0  0  0  0  2  0  0  0  0  0  0
  -25.9740  -29.4430   20.5370 C   0  0  0  0  0  0  0  0  0  0  0  0
  -27.2070  -28.7480   20.5140 C   0  0  0  0  0  3  0  0  0  0  0  0
  -26.1470  -26.9710   19.2290 C   0  0  0  0  0  3  0  0  0  0  0  0
  -24.9170  -27.6520   19.2720 C   0  0  0  0  0  3  0  0  0  0  0  0
  -23.5610  -29.7010   19.9910 C   0  0  0  0  0  2  0  0  0  0  0  0
  -24.5630  -30.9580   21.9540 N   0  0  0  0  0  0  0  0  0  0  0  0
  -23.3860  -31.9270   23.6330 O   0  0  0  0  0  0  0  0  0  0  0  0
  -22.7160  -29.2460   22.3160 C   0  0  0  0  0  0  0  0  0  0  0  0
  -21.4020  -29.0110   22.1780 N   0  0  0  0  0  0  0  0  0  0  0  0
  -23.4250  -28.6230   23.1120 O   0  0  0  0  0  0  0  0  0  0  0  0
  -20.8900  -29.5680   21.5090 H   0  0  0  0  0  0  0  0  0  0  0  0
  -18.0770  -27.6740   22.6340 C   0  0  0  0  0  0  0  0  0  0  0  0
  -20.6240  -28.0150   22.9140 C   0  0  0  0  0  3  0  0  0  0  0  0
  -20.7790  -26.6110   22.2840 C   0  0  0  0  0  2  0  0  0  0  0  0
  -19.6870  -26.2880   21.2590 C   0  0  0  0  0  2  0  0  0  0  0  0
  -18.3020  -26.3580   21.9090 C   0  0  0  0  0  2  0  0  0  0  0  0
  -19.1670  -28.4600   23.0920 C   0  0  0  0  0  0  0  0  0  0  0  0
  -18.9020  -29.6930   23.7270 C   0  0  0  0  0  3  0  0  0  0  0  0
  -17.5810  -30.1410   23.9100 C   0  0  0  0  0  3  0  0  0  0  0  0
  -16.5050  -29.3510   23.4690 C   0  0  0  0  0  3  0  0  0  0  0  0
  -16.7540  -28.1190   22.8370 C   0  0  0  0  0  3  0  0  0  0  0  0
  -25.7380  -32.3750   23.7240 C   0  0  0  0  0  3  0  0  0  0  0  0
  -25.3840  -33.7560   24.0780 N   0  0  0  0  0  0  0  0  0  0  0  0
  -25.6950  -34.8310   23.3420 C   0  0  0  0  0  0  0  0  0  0  0  0
  -26.3810  -34.7680   22.3180 O   0  0  0  0  0  0  0  0  0  0  0  0
  -24.7760  -33.8780   24.8730 H   0  0  0  0  0  0  0  0  0  0  0  0
  -23.9290  -36.5840   22.9840 C   0  0  0  0  0  1  0  0  0  0  0  0
  -25.1600  -36.1950   23.8170 C   0  0  0  0  0  3  0  0  0  0  0  0
  -27.2430  -37.1200   24.7310 C   0  0  0  0  0  1  0  0  0  0  0  0
  -26.1680  -37.2760   23.7550 N   0  0  0  0  0  0  0  0  0  0  0  0
  -25.7310  -38.1820   23.9060 H   0  0  0  0  0  0  0  0  0  0  0  0
  -26.2750  -31.5940   24.9850 C   0  0  1  0  0  0  0  0  0  0  0  0
  -25.1840  -31.2950   26.0400 C   0  0  0  0  0  1  0  0  0  0  0  0
  -26.9080  -30.2480   24.5640 C   0  0  0  0  0  1  0  0  0  0  0  0
  -27.3930  -32.4130   25.6730 C   0  0  0  0  0  1  0  0  0  0  0  0
  -30.2840  -21.3170   20.7020 C   0  0  0  0  0  2  0  0  0  0  0  0
  -30.9890  -14.6310   20.1850 C   0  0  0  0  0  0  0  0  0  0  0  0
  -30.6400  -12.4910   18.9980 C   0  0  0  0  0  2  0  0  0  0  0  0
  -29.6440  -12.7190   17.8420 C   0  0  0  0  0  2  0  0  0  0  0  0
  -28.1870  -12.5910   18.3310 C   0  0  0  0  0  2  0  0  0  0  0  0
  -27.9130  -13.4130   19.6180 C   0  0  0  0  0  3  0  0  0  0  0  0
  -29.0090  -13.1430   20.6740 C   0  0  0  0  0  2  0  0  0  0  0  0
  -30.3170  -13.4520   20.0650 N   0  0  0  0  0  0  0  0  0  0  0  0
  -32.0750  -14.8330   19.6290 O   0  0  0  0  0  0  0  0  0  0  0  0
  -29.1770  -19.0670   21.1390 C   0  0  0  0  0  3  0  0  0  0  0  0
  -29.2200  -17.6630   21.1800 C   0  0  0  0  0  3  0  0  0  0  0  0
  -30.3350  -19.7840   20.7860 C   0  0  0  0  0  0  0  0  0  0  0  0
  -31.4960  -19.0370   20.4820 C   0  0  0  0  0  0  0  0  0  0  0  0
  -30.4060  -16.9840   20.8400 C   0  0  0  0  0  0  0  0  0  0  0  0
  -32.7980  -19.7070   20.0860 C   0  0  0  0  0  1  0  0  0  0  0  0
  -31.5210  -17.6820   20.5080 N   0  0  0  0  0  0  0  0  0  0  0  0
  -30.3210  -15.5660   20.8870 N   0  0  0  0  0  0  0  0  0  0  0  0
  -29.4760  -15.2120   21.3020 H   0  0  0  0  0  0  0  0  0  0  0  0
  -25.5550  -14.0440   20.4380 C   0  0  0  0  0  0  0  0  0  0  0  0
  -24.4900  -13.2810   20.8350 C   0  0  0  0  0  0  0  0  0  0  0  0
  -24.9260  -11.9230   20.7490 C   0  0  0  0  0  0  0  0  0  0  0  0
  -26.5750  -13.1520   20.1440 N   0  0  0  0  0  0  0  0  0  0  0  0
  -26.2000  -11.8690   20.3850 N   0  0  0  0  0  0  0  0  0  0  0  0
  -24.1860  -10.6680   20.9390 C   0  0  0  0  0  0  0  0  0  0  0  0
  -24.5980   -9.7050   21.8880 C   0  0  0  0  0  3  0  0  0  0  0  0
  -23.8600   -8.5140   22.0640 C   0  0  0  0  0  3  0  0  0  0  0  0
  -22.6990   -8.2780   21.2940 C   0  0  0  0  0  0  0  0  0  0  0  0
  -22.3060   -9.2290   20.3350 C   0  0  0  0  0  3  0  0  0  0  0  0
  -23.0430  -10.4110   20.1560 C   0  0  0  0  0  3  0  0  0  0  0  0
  -21.9350   -7.1380   21.3780 O   0  0  0  0  0  0  0  0  0  0  0  0
  -21.7910   -6.4550   22.5580 C   0  0  0  0  0  0  0  0  0  0  0  0
  -21.2280   -7.0590   23.7050 C   0  0  0  0  0  3  0  0  0  0  0  0
  -21.0350   -6.3000   24.8760 C   0  0  0  0  0  3  0  0  0  0  0  0
  -21.3930   -4.9380   24.9030 C   0  0  0  0  0  0  0  0  0  0  0  0
  -21.9490   -4.3350   23.7610 C   0  0  0  0  0  3  0  0  0  0  0  0
  -22.1450   -5.0900   22.5910 C   0  0  0  0  0  0  0  0  0  0  0  0
  -22.6610   -4.4990   21.4870 F   0  0  0  0  0  0  0  0  0  0  0  0
  -21.2010   -4.2080   26.0250 F   0  0  0  0  0  0  0  0  0  0  0  0
  -23.1140  -13.7730   21.1800 C   0  0  0  0  0  0  0  0  0  0  0  0
  -22.4230  -13.0810   22.0790 N   0  0  0  0  0  0  0  0  0  0  0  0
  -22.6620  -14.8060   20.6870 O   0  0  0  0  0  0  0  0  0  0  0  0
  -22.8030  -12.2460   22.4980 H   0  0  0  0  0  0  0  0  0  0  0  0
  -21.5020  -13.3930   22.3540 H   0  0  0  0  0  0  0  0  0  0  0  0
  -25.7360  -15.4150   20.2850 N   0  0  0  0  0  0  0  0  0  0  0  0
  -24.9800  -16.0770   20.4290 H   0  0  0  0  0  0  0  0  0  0  0  0
  -26.5640  -15.8440   19.8910 H   0  0  0  0  0  0  0  0  0  0  0  0
  2  1  1  0
  3  7  1  0
  4  6  1  0
  4  7  1  0
  5  8  1  0
  5  3  1  0
  7  2  1  0
  8  9  1  0
  8  6  1  0
  9 11  1  0
 10 21  2  0
 11 16  1  0
 12 20  1  0
 12 22  1  0
 13 19  1  0
 13 15  1  0
 14 20  1  0
 15 14  1  0
 16 15  2  0
 17 18  1  0
 17 11  2  0
 18 13  2  0
 19 12  1  0
 20 10  1  0
 22 24  2  0
 23 22  1  0
 25 23  1  0
 26 35  2  0
 26 31  1  0
 27 23  1  0
 27 31  1  0
 28 27  1  0
 29 30  1  0
 29 28  1  0
 30 26  1  0
 31 32  2  0
 32 33  1  0
 34 33  2  0
 35 34  1  0
 36 10  1  0
 36 37  1  0
 36 46  1  0
 37 40  1  0
 38 42  1  0
 38 37  1  0
 39 38  2  0
 42 41  1  0
 44 42  1  0
 44 45  1  0
 44 43  1  0
 46 49  1  1
 46 47  1  0
 48 46  1  0
 50 61  1  0
 50  2  1  0
 51 66  1  0
 52 57  1  0
 53 54  1  0
 53 52  1  0
 55 54  1  0
 55 71  1  0
 55 56  1  0
 57 51  1  0
 57 56  1  0
 58 51  2  0
 59 60  1  0
 61 59  2  0
 62 65  2  0
 62 61  1  0
 63 66  1  0
 63 60  2  0
 64 62  1  0
 65 63  1  0
 66 67  1  0
 68 69  2  0
 69 88  1  0
 70 69  1  0
 70 73  1  0
 71 72  1  0
 71 68  1  0
 72 70  2  0
 73 74  1  0
 74 75  2  0
 76 79  1  0
 76 75  1  0
 77 76  2  0
 78 77  1  0
 78 73  2  0
 79 80  1  0
 80 85  2  0
 80 81  1  0
 81 82  2  0
 82 83  1  0
 83 87  1  0
 84 83  2  0
 85 84  1  0
 86 85  1  0
 88 89  1  0
 89 92  1  0
 89 91  1  0
 90 88  2  0
 93 94  1  0
 93 68  1  0
 95 93  1  0
M  ISO  4   8 101   9 101  51 100  66 100
M  END
>  <TORSDO>  (36) 
F 18

>  <SCORE>  (36) 
-14.015

>  <name>  (36) 
35

>  <ligand_id>  (36) 
35

>  <original_smiles>  (36) 
[H]c1c(N([H])C(=O)N2C([H])([H])C([H])([H])C([H])([H])C([H])(n3nc(-c4c([H])c([H])c(Oc5c([H])c([H])c(F)c([H])c5F)c([H])c4[H])c(C(=O)N([H])[H])c3N([H])[H])C2([H])[H])nc(C([H])([H])[H])c(C([H])([H])C([H])(C([H])([H])[H])C2([H])C([H])([H])C([H])([H])C([H])(Oc3c([H])c([H])c4c(c3[H])C([H])([H])N(C(=O)C([H])(N([H])C(=O)C([H])(N([H])C([H])([H])[H])C([H])([H])[H])C(C([H])([H])[H])(C([H])([H])[H])C([H])([H])[H])C([H])(C(=O)N([H])C3([H])c5c([H])c([H])c([H])c([H])c5C([H])([H])C([H])([H])C3([H])[H])C4([H])[H])C([H])([H])C2([H])[H])c1[H]

>  <smiles>  (36) 
[H]c1c(N([H])C(=O)N2C([H])([H])C([H])([H])C([H])([H])C([H])(n3nc(-c4c([H])c([H])c(Oc5c([H])c([H])c(F)c([H])c5F)c([H])c4[H])c(C(=O)N([H])[H])c3N([H])[H])C2([H])[H])nc(C([H])([H])[H])c(C([H])([H])C([H])(C([H])([H])[H])C2([H])C([H])([H])C([H])([H])C([H])(Oc3c([H])c([H])c4c(c3[H])C([H])([H])N(C(=O)C([H])(N([H])C(=O)C([H])(N([H])C([H])([H])[H])C([H])([H])[H])C(C([H])([H])[H])(C([H])([H])[H])C([H])([H])[H])C([H])(C(=O)N([H])C3([H])c5c([H])c([H])c([H])c([H])c5C([H])([H])C([H])([H])C3([H])[H])C4([H])[H])C([H])([H])C2([H])[H])c1[H]

$$$$
36:0:0
     RDKit          3D

104113  0  0  1  0  0  0  0  0999 V2000
  -27.6010  -21.1610   21.2060 C   0  0  0  0  0  3  0  0  0  0  0  0
  -26.9770  -22.3440   21.6410 C   0  0  0  0  0  3  0  0  0  0  0  0
  -29.1600  -23.3060   22.1430 C   0  0  0  0  0  3  0  0  0  0  0  0
  -29.0080  -21.1140   21.0770 C   0  0  0  0  0  0  0  0  0  0  0  0
  -29.7930  -22.1490   21.6550 C   0  0  0  0  0  0  0  0  0  0  0  0
  -27.7680  -23.4500   22.0080 C   0  0  0  0  0  0  0  0  0  0  0  0
  -31.3130  -22.1030   21.6740 C   0  0  0  0  0  1  0  0  0  0  0  0
  -30.3010  -17.5660   18.9750 C   0  0  0  0  0  2  0  0  0  0  0  0
  -29.6740  -20.0130   20.2600 C   0  0  0  0  0  3  0  0  0  0  0  0
  -30.7990  -17.9630   20.3920 C   0  0  0  0  0  3  0  0  0  0  0  0
  -29.1350  -19.7700   18.8040 C   0  0  0  0  0  3  0  0  0  0  0  0
  -29.7630  -18.7700   21.0290 N   0  0  0  0  0  0  0  0  0  0  0  0
  -30.0260  -18.7720   18.1590 N   0  0  0  0  0  4  0  0  0  0  0  0
  -28.8850  -18.2700   20.9360 H   0  0  0  0  0  0  0  0  0  0  0  0
  -29.6250  -18.4920   17.2790 H   0  0  0  0  0  0  0  0  0  0  0  0
  -30.9060  -19.2180   17.9680 H   0  0  0  0  0  0  0  0  0  0  0  0
  -29.1860  -20.8390   16.3960 C   0  0  0  0  0  1  0  0  0  0  0  0
  -29.0710  -21.0700   17.9190 C   0  0  0  0  0  3  0  0  0  0  0  0
  -27.8370  -21.7600   18.0450 O   0  0  0  0  0  0  0  0  0  0  0  0
  -27.7330  -22.0300   18.9540 H   0  0  0  0  0  0  0  0  0  0  0  0
  -31.2250  -16.8350   21.3620 C   0  0  0  0  0  2  0  0  0  0  0  0
  -31.0990  -14.5870   20.3440 C   0  0  0  0  0  0  0  0  0  0  0  0
  -30.7790  -12.3530   19.3680 C   0  0  0  0  0  2  0  0  0  0  0  0
  -29.8640  -12.4150   18.1310 C   0  0  0  0  0  2  0  0  0  0  0  0
  -28.3830  -12.3180   18.5450 C   0  0  0  0  0  2  0  0  0  0  0  0
  -28.0160  -13.3040   19.6840 C   0  0  0  0  0  3  0  0  0  0  0  0
  -29.0410  -13.2190   20.8370 C   0  0  0  0  0  2  0  0  0  0  0  0
  -30.3880  -13.4360   20.2800 N   0  0  0  0  0  0  0  0  0  0  0  0
  -32.1500  -14.7730   19.7220 O   0  0  0  0  0  0  0  0  0  0  0  0
  -30.5800  -15.5490   21.1140 N   0  0  0  0  0  0  0  0  0  0  0  0
  -29.7270  -15.3430   21.6160 H   0  0  0  0  0  0  0  0  0  0  0  0
  -25.6420  -14.0000   20.3980 C   0  0  0  0  0  0  0  0  0  0  0  0
  -24.5460  -13.2660   20.7660 C   0  0  0  0  0  0  0  0  0  0  0  0
  -24.9550  -11.8990   20.7240 C   0  0  0  0  0  0  0  0  0  0  0  0
  -26.6530  -13.0810   20.1600 N   0  0  0  0  0  0  0  0  0  0  0  0
  -26.2410  -11.8120   20.4110 N   0  0  0  0  0  0  0  0  0  0  0  0
  -24.1840  -10.6630   20.9080 C   0  0  0  0  0  0  0  0  0  0  0  0
  -24.5530   -9.6960   21.8690 C   0  0  0  0  0  3  0  0  0  0  0  0
  -23.7840   -8.5250   22.0390 C   0  0  0  0  0  3  0  0  0  0  0  0
  -22.6320   -8.3110   21.2470 C   0  0  0  0  0  0  0  0  0  0  0  0
  -22.2810   -9.2660   20.2750 C   0  0  0  0  0  3  0  0  0  0  0  0
  -23.0510  -10.4290   20.1040 C   0  0  0  0  0  3  0  0  0  0  0  0
  -21.8390   -7.1910   21.3240 O   0  0  0  0  0  0  0  0  0  0  0  0
  -21.6900   -6.4950   22.4960 C   0  0  0  0  0  0  0  0  0  0  0  0
  -21.1820   -7.1030   23.6660 C   0  0  0  0  0  3  0  0  0  0  0  0
  -20.9800   -6.3340   24.8290 C   0  0  0  0  0  3  0  0  0  0  0  0
  -21.2750   -4.9570   24.8230 C   0  0  0  0  0  0  0  0  0  0  0  0
  -21.7760   -4.3490   23.6580 C   0  0  0  0  0  3  0  0  0  0  0  0
  -21.9800   -5.1160   22.4980 C   0  0  0  0  0  0  0  0  0  0  0  0
  -22.4430   -4.5200   21.3730 F   0  0  0  0  0  0  0  0  0  0  0  0
  -21.0740   -4.2160   25.9380 F   0  0  0  0  0  0  0  0  0  0  0  0
  -23.1680  -13.7940   21.0450 C   0  0  0  0  0  0  0  0  0  0  0  0
  -22.4200  -13.1250   21.9160 N   0  0  0  0  0  0  0  0  0  0  0  0
  -22.7640  -14.8330   20.5260 O   0  0  0  0  0  0  0  0  0  0  0  0
  -22.7580  -12.2830   22.3570 H   0  0  0  0  0  0  0  0  0  0  0  0
  -21.4960  -13.4620   22.1450 H   0  0  0  0  0  0  0  0  0  0  0  0
  -25.8570  -15.3640   20.2280 N   0  0  0  0  0  0  0  0  0  0  0  0
  -25.1140  -16.0450   20.3410 H   0  0  0  0  0  0  0  0  0  0  0  0
  -26.7180  -15.7690   19.8860 H   0  0  0  0  0  0  0  0  0  0  0  0
  -27.2490  -24.7140   22.0170 O   0  0  0  0  0  0  0  0  0  0  0  0
  -26.9830  -25.1830   20.6850 C   0  0  0  0  0  2  0  0  0  0  0  0
  -28.2470  -25.2660   19.7820 C   0  0  0  0  0  2  0  0  0  0  0  0
  -28.0050  -25.7550   18.3510 C   0  0  0  0  0  2  0  0  0  0  0  0
  -27.9320  -27.1690   18.3290 O   0  0  0  0  0  0  0  0  0  0  0  0
  -24.6110  -31.5080   22.8410 C   0  0  0  0  0  0  0  0  0  0  0  0
  -26.7440  -27.7790   18.6470 C   0  0  0  0  0  0  0  0  0  0  0  0
  -23.1660  -30.4230   21.1520 C   0  0  0  0  0  3  0  0  0  0  0  0
  -24.3870  -29.1840   19.2900 C   0  0  0  0  0  0  0  0  0  0  0  0
  -25.6440  -30.8450   20.6760 C   0  0  0  0  0  2  0  0  0  0  0  0
  -25.6210  -29.6190   19.7910 C   0  0  0  0  0  0  0  0  0  0  0  0
  -26.8010  -28.9220   19.4650 C   0  0  0  0  0  3  0  0  0  0  0  0
  -25.4900  -27.3390   18.1600 C   0  0  0  0  0  3  0  0  0  0  0  0
  -24.3140  -28.0380   18.4790 C   0  0  0  0  0  3  0  0  0  0  0  0
  -23.1730  -30.0040   19.6570 C   0  0  0  0  0  2  0  0  0  0  0  0
  -24.5000  -30.9250   21.6150 N   0  0  0  0  0  0  0  0  0  0  0  0
  -23.6210  -31.6590   23.5680 O   0  0  0  0  0  0  0  0  0  0  0  0
  -22.6400  -29.2320   21.9860 C   0  0  0  0  0  0  0  0  0  0  0  0
  -21.3110  -29.0430   21.9800 N   0  0  0  0  0  0  0  0  0  0  0  0
  -23.4180  -28.4890   22.5890 O   0  0  0  0  0  0  0  0  0  0  0  0
  -20.7470  -29.7030   21.4640 H   0  0  0  0  0  0  0  0  0  0  0  0
  -18.0240  -27.6580   22.5540 C   0  0  0  0  0  0  0  0  0  0  0  0
  -20.5870  -27.9690   22.6580 C   0  0  0  0  0  3  0  0  0  0  0  0
  -20.6780  -26.6450   21.8640 C   0  0  0  0  0  2  0  0  0  0  0  0
  -19.5040  -26.4340   20.9040 C   0  0  0  0  0  2  0  0  0  0  0  0
  -18.1790  -26.4310   21.6710 C   0  0  0  0  0  2  0  0  0  0  0  0
  -19.1530  -28.3900   23.0040 C   0  0  0  0  0  0  0  0  0  0  0  0
  -18.9530  -29.5440   23.7920 C   0  0  0  0  0  3  0  0  0  0  0  0
  -17.6540  -29.9670   24.1290 C   0  0  0  0  0  3  0  0  0  0  0  0
  -16.5390  -29.2270   23.7000 C   0  0  0  0  0  3  0  0  0  0  0  0
  -16.7260  -28.0750   22.9140 C   0  0  0  0  0  3  0  0  0  0  0  0
  -25.9790  -32.0270   23.3830 C   0  0  0  0  0  3  0  0  0  0  0  0
  -25.7440  -33.3530   23.9690 N   0  0  0  0  0  0  0  0  0  0  0  0
  -26.0450  -34.5120   23.3670 C   0  0  0  0  0  0  0  0  0  0  0  0
  -26.6210  -34.5730   22.2770 O   0  0  0  0  0  0  0  0  0  0  0  0
  -25.2290  -33.3760   24.8370 H   0  0  0  0  0  0  0  0  0  0  0  0
  -24.3660  -36.3810   23.4540 C   0  0  0  0  0  1  0  0  0  0  0  0
  -25.6450  -35.8110   24.0900 C   0  0  0  0  0  3  0  0  0  0  0  0
  -27.8650  -36.4820   24.8960 C   0  0  0  0  0  1  0  0  0  0  0  0
  -26.7070  -36.8400   24.0820 N   0  0  0  0  0  0  0  0  0  0  0  0
  -26.3500  -37.7310   24.4180 H   0  0  0  0  0  0  0  0  0  0  0  0
  -26.6370  -31.0560   24.4390 C   0  0  1  0  0  0  0  0  0  0  0  0
  -25.6870  -30.6530   25.5910 C   0  0  0  0  0  1  0  0  0  0  0  0
  -27.1260  -29.7600   23.7530 C   0  0  0  0  0  1  0  0  0  0  0  0
  -27.8870  -31.7250   25.0570 C   0  0  0  0  0  1  0  0  0  0  0  0
  1  2  1  0
  2  6  2  0
  4  1  2  0
  4  5  1  0
  5  7  1  0
  5  3  2  0
  6 60  1  0
  6  3  1  0
  8 10  1  0
  9 12  1  0
  9  4  1  0
 10 12  1  0
 10 21  1  0
 11 18  1  0
 11  9  1  0
 13 11  1  0
 13  8  1  0
 14 12  1  0
 15 13  1  0
 16 13  1  0
 18 17  1  0
 18 19  1  0
 19 20  1  0
 22 30  1  0
 23 28  1  0
 24 25  1  0
 24 23  1  0
 26 25  1  0
 26 35  1  0
 26 27  1  0
 28 22  1  0
 28 27  1  0
 29 22  2  0
 30 21  1  0
 30 31  1  0
 32 33  2  0
 33 52  1  0
 34 33  1  0
 34 37  1  0
 35 32  1  0
 35 36  1  0
 36 34  2  0
 37 38  1  0
 38 39  2  0
 40 43  1  0
 40 39  1  0
 41 40  2  0
 42 41  1  0
 42 37  2  0
 43 44  1  0
 44 49  2  0
 44 45  1  0
 45 46  2  0
 47 46  1  0
 47 51  1  0
 48 47  2  0
 49 48  1  0
 50 49  1  0
 52 53  1  0
 53 56  1  0
 53 55  1  0
 54 52  2  0
 57 58  1  0
 57 32  1  0
 59 57  1  0
 61 60  1  0
 62 61  1  0
 63 62  1  0
 64 63  1  0
 64 66  1  0
 65 76  2  0
 66 71  1  0
 67 75  1  0
 67 77  1  0
 68 74  1  0
 68 70  1  0
 69 75  1  0
 70 69  1  0
 71 70  2  0
 72 73  1  0
 72 66  2  0
 73 68  2  0
 74 67  1  0
 75 65  1  0
 77 79  2  0
 78 77  1  0
 80 78  1  0
 81 90  2  0
 81 86  1  0
 82 78  1  0
 82 86  1  0
 83 82  1  0
 84 85  1  0
 84 83  1  0
 85 81  1  0
 86 87  2  0
 87 88  1  0
 89 88  2  0
 90 89  1  0
 91 65  1  0
 91 92  1  0
 91101  1  0
 92 95  1  0
 93 92  1  0
 93 97  1  0
 94 93  2  0
 97 96  1  0
 99 97  1  0
 99100  1  0
 99 98  1  0
101104  1  1
101102  1  0
103101  1  0
M  ISO  4  22 100  30 100  63 101  64 101
M  END
>  <TORSDO>  (37) 
F 24

>  <SCORE>  (37) 
-10.606

>  <name>  (37) 
36

>  <ligand_id>  (37) 
36

>  <original_smiles>  (37) 
[H]OC([H])(C([H])([H])[H])C1([H])C([H])(c2c([H])c([H])c(OC([H])([H])C([H])([H])C([H])([H])Oc3c([H])c([H])c4c(c3[H])C([H])([H])N(C(=O)C([H])(N([H])C(=O)C([H])(N([H])C([H])([H])[H])C([H])([H])[H])C(C([H])([H])[H])(C([H])([H])[H])C([H])([H])[H])C([H])(C(=O)N([H])C3([H])c5c([H])c([H])c([H])c([H])c5C([H])([H])C([H])([H])C3([H])[H])C4([H])[H])c([H])c2C([H])([H])[H])N([H])C([H])(C([H])([H])N([H])C(=O)N2C([H])([H])C([H])([H])C([H])([H])C([H])(n3nc(-c4c([H])c([H])c(Oc5c([H])c([H])c(F)c([H])c5F)c([H])c4[H])c(C(=O)N([H])[H])c3N([H])[H])C2([H])[H])C([H])([H])[N+]1([H])[H]

>  <smiles>  (37) 
[H]OC([H])(C([H])([H])[H])C1([H])C([H])(c2c([H])c([H])c(OC([H])([H])C([H])([H])C([H])([H])Oc3c([H])c([H])c4c(c3[H])C([H])([H])N(C(=O)C([H])(N([H])C(=O)C([H])(N([H])C([H])([H])[H])C([H])([H])[H])C(C([H])([H])[H])(C([H])([H])[H])C([H])([H])[H])C([H])(C(=O)N([H])C3([H])c5c([H])c([H])c([H])c([H])c5C([H])([H])C([H])([H])C3([H])[H])C4([H])[H])c([H])c2C([H])([H])[H])N([H])C([H])(C([H])([H])N([H])C(=O)N2C([H])([H])C([H])([H])C([H])([H])C([H])(n3nc(-c4c([H])c([H])c(Oc5c([H])c([H])c(F)c([H])c5F)c([H])c4[H])c(C(=O)N([H])[H])c3N([H])[H])C2([H])[H])C([H])([H])[N+]1([H])[H]

$$$$
37:0:0
     RDKit          3D

 96 94  0  0  1  0  0  0  0  0999 V2000
  -27.0920  -30.9700   21.9350 C   0  0  0  0  0  2  0  0  0  0  0  0
  -27.7980  -27.9880   22.9480 C   0  0  0  0  0  3  0  0  0  0  0  0
  -27.9150  -29.7650   22.9280 C   0  0  0  0  0  3  0  0  0  0  0  0
  -25.8010  -30.3370   20.9440 C   0  0  0  0  0  1  0  0  0  0  0  0
  -26.9990  -26.7530   22.0440 C   0  0  0  0  0  2  0  0  0  0  0  0
  -29.2940  -30.3840   23.2380 C   0  0  0  0  0  1  0  0  0  0  0  0
  -25.8690  -28.0230   21.4910 N   0  0  0  0  0  1  0  0  0  0  0  0
  -31.1220  -26.2500   23.7890 C   0  0  0  0  0  2  0  0  0  0  0  0
  -30.1680  -25.5330   24.7610 C   0  0  0  0  0  2  0  0  0  0  0  0
  -30.2410  -27.1670   22.9280 C   0  0  0  0  0  2  0  0  0  0  0  0
  -28.7580  -26.1120   24.5290 C   0  0  0  0  0  2  0  0  0  0  0  0
  -28.9750  -27.4170   23.7580 C   0  0  0  0  0  3  0  0  0  0  0  0
  -24.0320  -31.1380   20.4910 C   0  0  0  0  0 15  0  0  0  0  0  0
  -22.4770  -29.7740   19.9660 C   0  0  0  0  0 15  0  0  0  0  0  0
  -22.9340  -27.6530   19.7160 C   0  0  0  0  0 15  0  0  0  0  0  0
  -24.6280  -26.7900   19.6410 O   0  0  0  0  0  1  0  0  0  0  0  0
  -24.7650  -30.7290   23.4680 C   0  0  0  0  0  0  0  0  0  0  0  0
  -25.9950  -26.7250   18.9660 C   0  0  0  0  0  3  0  0  0  0  0  0
  -23.9300  -29.1130   21.6660 C   0  0  0  0  0  2  0  0  0  0  0  0
  -25.7360  -29.0960   18.5570 C   0  0  0  0  0  3  0  0  0  0  0  0
  -27.5710  -29.2960   20.6010 C   0  0  0  0  0  1  0  0  0  0  0  0
  -27.0150  -28.9410   19.1570 C   0  0  0  0  0  3  0  0  0  0  0  0
  -27.2050  -27.5750   19.0600 C   0  0  0  0  0  2  0  0  0  0  0  0
  -25.6680  -26.8890   17.6980 C   0  0  0  0  0  2  0  0  0  0  0  0
  -25.3730  -28.2170   17.5010 C   0  0  0  0  0  2  0  0  0  0  0  0
  -24.5510  -29.1560   19.3250 C   0  0  0  0  0  1  0  0  0  0  0  0
  -25.3440  -29.4690   22.7270 N   0  0  0  0  0  2  0  0  0  0  0  0
  -23.5630  -31.0630   23.6760 O   0  0  0  0  0  0  0  0  0  0  0  0
  -22.7370  -28.4980   22.4660 C   0  0  0  0  0  0  0  0  0  0  0  0
  -21.3960  -28.7140   22.2920 N   0  0  0  0  0  0  0  0  0  0  0  0
  -23.1230  -27.8160   23.3850 O   0  0  0  0  0  0  0  0  0  0  0  0
  -21.0850  -29.4190   21.6380 H   0  0  0  0  0  0  0  0  0  0  0  0
  -17.8310  -27.7200   22.5010 C   0  0  0  0  0  0  0  0  0  0  0  0
  -20.3800  -27.8210   22.8490 C   0  0  0  0  0  3  0  0  0  0  0  0
  -20.3840  -26.4690   22.1050 C   0  0  0  0  0  2  0  0  0  0  0  0
  -19.3670  -26.4070   20.9640 C   0  0  0  0  0  2  0  0  0  0  0  0
  -17.9660  -26.5190   21.5720 C   0  0  0  0  0  2  0  0  0  0  0  0
  -18.9680  -28.3870   23.0340 C   0  0  0  0  0  0  0  0  0  0  0  0
  -18.7750  -29.5240   23.8470 C   0  0  0  0  0  3  0  0  0  0  0  0
  -17.4740  -29.9780   24.1460 C   0  0  0  0  0  3  0  0  0  0  0  0
  -16.3530  -29.2910   23.6460 C   0  0  0  0  0  3  0  0  0  0  0  0
  -16.5360  -28.1640   22.8280 C   0  0  0  0  0  3  0  0  0  0  0  0
  -25.6270  -31.9150   24.1370 C   0  0  0  0  0  3  0  0  0  0  0  0
  -25.1580  -33.3690   24.0780 N   0  0  0  0  0  0  0  0  0  0  0  0
  -25.6900  -34.4390   23.4080 C   0  0  0  0  0  0  0  0  0  0  0  0
  -26.5580  -34.3160   22.5370 O   0  0  0  0  0  0  0  0  0  0  0  0
  -24.4180  -33.5910   24.7260 H   0  0  0  0  0  0  0  0  0  0  0  0
  -24.1200  -36.3380   22.7390 C   0  0  0  0  0  1  0  0  0  0  0  0
  -25.1990  -35.8890   23.7430 C   0  0  0  0  0  3  0  0  0  0  0  0
  -27.2000  -36.8200   24.8770 C   0  0  0  0  0  1  0  0  0  0  0  0
  -26.2690  -36.9280   23.7560 N   0  0  0  0  0  0  0  0  0  0  0  0
  -25.8690  -37.8610   23.7690 H   0  0  0  0  0  0  0  0  0  0  0  0
  -25.7830  -31.4430   25.5930 C   0  0  1  0  0  0  0  0  0  0  0  0
  -24.4400  -31.4870   26.3360 C   0  0  0  0  0  1  0  0  0  0  0  0
  -26.2610  -29.9990   25.8470 C   0  0  0  0  0  1  0  0  0  0  0  0
  -26.8550  -32.3060   26.2780 C   0  0  0  0  0  1  0  0  0  0  0  0
  -27.3630  -24.2190   21.7320 C   0  0  0  0  0 15  0  0  0  0  0  0
  -28.3610  -21.7150   21.0400 C   0  0  0  0  0 15  0  0  0  0  0  0
  -29.3830  -17.4330   20.4500 C   0  0  0  0  0  2  0  0  0  0  0  0
  -29.9500  -14.5070   19.4270 C   0  0  0  0  0  2  0  0  0  0  0  0
  -29.3490  -13.4250   18.3480 C   0  0  0  0  0  2  0  0  0  0  0  0
  -28.1480  -12.6250   18.8380 C   0  0  0  0  0  2  0  0  0  0  0  0
  -27.3860  -13.6200   19.7160 C   0  0  0  0  0  3  0  0  0  0  0  0
  -28.2300  -14.5400   20.7590 C   0  0  0  0  0  2  0  0  0  0  0  0
  -29.0770  -15.7520   20.1690 N   0  0  0  0  0  0  0  0  0  0  0  0
  -30.6190  -17.0980   20.2160 O   0  0  0  0  0  1  0  0  0  0  0  0
  -28.6960  -19.3000   20.7820 N   0  0  0  0  0  1  0  0  0  0  0  0
  -29.6900  -19.5000   20.7980 H   0  0  0  0  0  0  0  0  0  0  0  0
  -25.0290  -13.8810   20.4890 C   0  0  0  0  0  0  0  0  0  0  0  0
  -24.0170  -13.0490   20.8590 C   0  0  0  0  0  0  0  0  0  0  0  0
  -24.5370  -11.7190   20.7810 C   0  0  0  0  0  0  0  0  0  0  0  0
  -26.1200  -13.0880   20.2340 N   0  0  0  0  0  0  0  0  0  0  0  0
  -25.8340  -11.7590   20.4350 N   0  0  0  0  0  0  0  0  0  0  0  0
  -23.8320  -10.4330   20.9750 C   0  0  0  0  0  0  0  0  0  0  0  0
  -24.2550   -9.4770   21.9270 C   0  0  0  0  0  3  0  0  0  0  0  0
  -23.5310   -8.2780   22.1230 C   0  0  0  0  0  3  0  0  0  0  0  0
  -22.3620   -8.0200   21.3670 C   0  0  0  0  0  0  0  0  0  0  0  0
  -21.9510   -8.9620   20.4080 C   0  0  0  0  0  3  0  0  0  0  0  0
  -22.6780  -10.1510   20.2140 C   0  0  0  0  0  3  0  0  0  0  0  0
  -21.6140   -6.8680   21.4640 O   0  0  0  0  0  0  0  0  0  0  0  0
  -21.5370   -6.1520   22.6330 C   0  0  0  0  0  0  0  0  0  0  0  0
  -21.0730   -6.7300   23.8350 C   0  0  0  0  0  3  0  0  0  0  0  0
  -20.9490   -5.9390   24.9960 C   0  0  0  0  0  3  0  0  0  0  0  0
  -21.2770   -4.5720   24.9560 C   0  0  0  0  0  0  0  0  0  0  0  0
  -21.7280   -3.9910   23.7580 C   0  0  0  0  0  3  0  0  0  0  0  0
  -21.8560   -4.7790   22.6000 C   0  0  0  0  0  0  0  0  0  0  0  0
  -22.2750   -4.2080   21.4440 F   0  0  0  0  0  0  0  0  0  0  0  0
  -21.1480   -3.8120   26.0670 F   0  0  0  0  0  0  0  0  0  0  0  0
  -22.6180  -13.4860   21.1700 C   0  0  0  0  0  0  0  0  0  0  0  0
  -21.9350  -12.7850   22.0640 N   0  0  0  0  0  0  0  0  0  0  0  0
  -22.1470  -14.5050   20.6620 O   0  0  0  0  0  0  0  0  0  0  0  0
  -22.3310  -11.9670   22.5020 H   0  0  0  0  0  0  0  0  0  0  0  0
  -20.9960  -13.0700   22.3110 H   0  0  0  0  0  0  0  0  0  0  0  0
  -25.1120  -15.2590   20.3150 N   0  0  0  0  0  0  0  0  0  0  0  0
  -24.3070  -15.8630   20.4310 H   0  0  0  0  0  0  0  0  0  0  0  0
  -25.9380  -15.7420   19.9870 H   0  0  0  0  0  0  0  0  0  0  0  0
  1  3  1  0
  2  5  1  0
  2 12  1  0
  3  2  1  0
  3  6  1  0
  4  1  1  0
  7  5  1  0
  8  9  1  0
 10 12  1  0
 10  8  1  0
 11  9  1  0
 12 11  1  0
 17 28  2  0
 18 23  1  0
 18 16  1  0
 19 29  1  0
 19 27  1  0
 20 22  1  0
 20 26  1  0
 22 21  1  0
 23 22  1  0
 24 18  1  0
 25 24  1  0
 25 20  1  0
 27 17  1  0
 29 31  2  0
 30 29  1  0
 32 30  1  0
 33 42  2  0
 33 38  1  0
 34 30  1  0
 34 38  1  0
 35 34  1  0
 36 37  1  0
 36 35  1  0
 37 33  1  0
 38 39  2  0
 39 40  1  0
 41 40  2  0
 42 41  1  0
 43 17  1  0
 43 53  1  0
 44 43  1  0
 44 47  1  0
 45 49  1  0
 45 44  1  0
 46 45  2  0
 49 48  1  0
 49 51  1  0
 51 52  1  0
 51 50  1  0
 53 55  1  6
 53 56  1  0
 53 54  1  0
 60 65  1  0
 61 62  1  0
 61 60  1  0
 63 62  1  0
 63 72  1  0
 63 64  1  0
 65 59  1  0
 65 64  1  0
 66 59  1  0
 67 68  1  0
 69 70  2  0
 70 89  1  0
 71 70  1  0
 71 74  1  0
 72 73  1  0
 72 69  1  0
 73 71  2  0
 74 75  1  0
 75 76  2  0
 77 80  1  0
 77 76  1  0
 78 77  2  0
 79 78  1  0
 79 74  2  0
 80 81  1  0
 81 82  1  0
 82 83  2  0
 84 83  1  0
 84 88  1  0
 85 84  2  0
 86 81  2  0
 86 85  1  0
 87 86  1  0
 89 90  1  0
 90 93  1  0
 90 92  1  0
 91 89  2  0
 94 95  1  0
 94 69  1  0
 96 94  1  0
M  ISO  4  15 101  16 101  59 100  67 100
M  END
>  <TORSDO>  (38) 
F 22

>  <SCORE>  (38) 
-9.360

>  <name>  (38) 
37

>  <ligand_id>  (38) 
37

>  <original_smiles>  (38) 
[H]c1c([H])c([H])c2c(c1[H])C([H])([H])C([H])([H])C([H])([H])C2([H])N([H])C(=O)C1([H])N(C(=O)C([H])(N([H])C(=O)C([H])(N([H])C([H])([H])[H])C([H])([H])[H])C(C([H])([H])[H])(C([H])([H])[H])C([H])([H])[H])C([H])([H])c2c([H])c(OC([H])([H])C([H])([H])C([H])([H])c3nc(C([H])([H])C([H])([H])N([H])C(=O)N4C([H])([H])C([H])([H])C([H])([H])C([H])(n5nc(-c6c([H])c([H])c(Oc7c([H])c([H])c(F)c([H])c7F)c([H])c6[H])c(C(=O)N([H])[H])c5N([H])[H])C4([H])[H])c(C4([H])C([H])([H])C([H])([H])C([H])([H])C4([H])[H])c(C([H])([H])[H])c3[H])c([H])c([H])c2C1([H])[H]

>  <smiles>  (38) 
[H]c1c([H])c([H])c2c(c1[H])C([H])([H])C([H])([H])C([H])([H])C2([H])N([H])C(=O)C1([H])N(C(=O)C([H])(N([H])C(=O)C([H])(N([H])C([H])([H])[H])C([H])([H])[H])C(C([H])([H])[H])(C([H])([H])[H])C([H])([H])[H])C([H])([H])c2c([H])c(OC([H])([H])C([H])([H])C([H])([H])c3nc(C([H])([H])C([H])([H])N([H])C(=O)N4C([H])([H])C([H])([H])C([H])([H])C([H])(n5nc(-c6c([H])c([H])c(Oc7c([H])c([H])c(F)c([H])c7F)c([H])c6[H])c(C(=O)N([H])[H])c5N([H])[H])C4([H])[H])c(C4([H])C([H])([H])C([H])([H])C([H])([H])C4([H])[H])c(C([H])([H])[H])c3[H])c([H])c([H])c2C1([H])[H]

$$$$
38:0:0
     RDKit          3D

 95103  0  0  1  0  0  0  0  0999 V2000
  -29.8880  -20.4630   19.9920 C   0  0  0  0  0  3  0  0  0  0  0  0
  -31.3860  -22.1370   19.9320 C   0  0  0  0  0  3  0  0  0  0  0  0
  -30.1480  -21.7690   19.4670 C   0  0  0  0  0  0  0  0  0  0  0  0
  -30.9830  -20.0900   20.7160 C   0  0  0  0  0  0  0  0  0  0  0  0
  -33.2080  -21.1180   21.3490 C   0  0  0  0  0  1  0  0  0  0  0  0
  -31.9080  -21.1130   20.7040 N   0  0  0  0  0  0  0  0  0  0  0  0
  -31.1770  -18.8760   21.3740 N   0  0  0  0  0  0  0  0  0  0  0  0
  -32.0510  -18.7250   21.8700 H   0  0  0  0  0  0  0  0  0  0  0  0
  -30.4700  -17.6690   20.9580 C   0  0  0  0  0  2  0  0  0  0  0  0
  -30.8510  -16.4700   21.8500 C   0  0  0  0  0  2  0  0  0  0  0  0
  -30.7200  -14.3820   20.4940 C   0  0  0  0  0  0  0  0  0  0  0  0
  -30.3340  -12.3180   19.1970 C   0  0  0  0  0  2  0  0  0  0  0  0
  -29.3750  -12.5800   18.0220 C   0  0  0  0  0  2  0  0  0  0  0  0
  -27.9080  -12.4410   18.4690 C   0  0  0  0  0  2  0  0  0  0  0  0
  -27.6020  -13.2340   19.7660 C   0  0  0  0  0  3  0  0  0  0  0  0
  -28.6680  -12.9520   20.8490 C   0  0  0  0  0  2  0  0  0  0  0  0
  -29.9950  -13.2520   20.2820 N   0  0  0  0  0  0  0  0  0  0  0  0
  -31.7630  -14.6400   19.8880 O   0  0  0  0  0  0  0  0  0  0  0  0
  -30.2240  -15.2240   21.4110 N   0  0  0  0  0  0  0  0  0  0  0  0
  -29.3640  -14.9520   21.8640 H   0  0  0  0  0  0  0  0  0  0  0  0
  -25.2040  -13.8360   20.4810 C   0  0  0  0  0  0  0  0  0  0  0  0
  -24.1390  -13.0610   20.8590 C   0  0  0  0  0  0  0  0  0  0  0  0
  -24.6040  -11.7120   20.8300 C   0  0  0  0  0  0  0  0  0  0  0  0
  -26.2510  -12.9580   20.2510 N   0  0  0  0  0  0  0  0  0  0  0  0
  -25.8920  -11.6740   20.5150 N   0  0  0  0  0  0  0  0  0  0  0  0
  -23.8820  -10.4480   21.0280 C   0  0  0  0  0  0  0  0  0  0  0  0
  -24.3290   -9.4810   21.9560 C   0  0  0  0  0  3  0  0  0  0  0  0
  -23.6070   -8.2830   22.1430 C   0  0  0  0  0  3  0  0  0  0  0  0
  -22.4250   -8.0420   21.4030 C   0  0  0  0  0  0  0  0  0  0  0  0
  -21.9990   -8.9970   20.4640 C   0  0  0  0  0  3  0  0  0  0  0  0
  -22.7200  -10.1880   20.2740 C   0  0  0  0  0  3  0  0  0  0  0  0
  -21.6750   -6.8950   21.4980 O   0  0  0  0  0  0  0  0  0  0  0  0
  -21.6490   -6.1450   22.6470 C   0  0  0  0  0  0  0  0  0  0  0  0
  -21.2500   -6.6940   23.8860 C   0  0  0  0  0  3  0  0  0  0  0  0
  -21.1720   -5.8720   25.0280 C   0  0  0  0  0  3  0  0  0  0  0  0
  -21.4810   -4.5020   24.9320 C   0  0  0  0  0  0  0  0  0  0  0  0
  -21.8720   -3.9530   23.6990 C   0  0  0  0  0  3  0  0  0  0  0  0
  -21.9520   -4.7720   22.5590 C   0  0  0  0  0  0  0  0  0  0  0  0
  -22.3090   -4.2340   21.3680 F   0  0  0  0  0  0  0  0  0  0  0  0
  -21.3980   -3.7090   26.0270 F   0  0  0  0  0  0  0  0  0  0  0  0
  -22.7430  -13.5360   21.1400 C   0  0  0  0  0  0  0  0  0  0  0  0
  -22.0240  -12.8390   22.0140 N   0  0  0  0  0  0  0  0  0  0  0  0
  -22.2980  -14.5580   20.6210 O   0  0  0  0  0  0  0  0  0  0  0  0
  -22.3950  -12.0090   22.4530 H   0  0  0  0  0  0  0  0  0  0  0  0
  -21.0860  -13.1380   22.2440 H   0  0  0  0  0  0  0  0  0  0  0  0
  -25.3650  -15.2060   20.2960 N   0  0  0  0  0  0  0  0  0  0  0  0
  -24.6000  -15.8620   20.4050 H   0  0  0  0  0  0  0  0  0  0  0  0
  -26.2180  -15.6460   19.9730 H   0  0  0  0  0  0  0  0  0  0  0  0
  -29.2460  -22.5500   18.5310 C   0  0  0  0  0  2  0  0  0  0  0  0
  -28.7420  -23.8270   19.0860 N   0  0  0  0  0  4  0  0  0  0  0  0
  -28.4230  -23.6840   20.0310 H   0  0  0  0  0  0  0  0  0  0  0  0
  -27.9330  -24.0530   18.5310 H   0  0  0  0  0  0  0  0  0  0  0  0
  -29.6780  -24.9800   19.0120 C   0  0  0  0  0  2  0  0  0  0  0  0
  -28.9430  -26.3310   18.8960 C   0  0  0  0  0  2  0  0  0  0  0  0
  -28.4450  -26.7560   20.1660 O   0  0  0  0  0  0  0  0  0  0  0  0
  -24.5990  -31.8890   23.2450 C   0  0  0  0  0  0  0  0  0  0  0  0
  -27.2710  -27.4720   20.1560 C   0  0  0  0  0  0  0  0  0  0  0  0
  -23.3980  -30.4800   21.6030 C   0  0  0  0  0  3  0  0  0  0  0  0
  -24.8600  -28.9460   20.1830 C   0  0  0  0  0  0  0  0  0  0  0  0
  -25.9220  -30.8500   21.4090 C   0  0  0  0  0  2  0  0  0  0  0  0
  -26.0130  -29.4780   20.7750 C   0  0  0  0  0  0  0  0  0  0  0  0
  -27.2170  -28.7410   20.7750 C   0  0  0  0  0  3  0  0  0  0  0  0
  -26.0960  -26.9400   19.5780 C   0  0  0  0  0  3  0  0  0  0  0  0
  -24.8950  -27.6730   19.5870 C   0  0  0  0  0  3  0  0  0  0  0  0
  -23.6120  -29.7990   20.2250 C   0  0  0  0  0  2  0  0  0  0  0  0
  -24.6580  -31.0890   22.1440 N   0  0  0  0  0  0  0  0  0  0  0  0
  -23.5170  -32.1580   23.7840 O   0  0  0  0  0  0  0  0  0  0  0  0
  -22.7500  -29.4590   22.5640 C   0  0  0  0  0  0  0  0  0  0  0  0
  -21.4280  -29.2720   22.4340 N   0  0  0  0  0  0  0  0  0  0  0  0
  -23.4350  -28.8350   23.3800 O   0  0  0  0  0  0  0  0  0  0  0  0
  -20.9370  -29.8270   21.7460 H   0  0  0  0  0  0  0  0  0  0  0  0
  -18.0550  -28.0780   22.9310 C   0  0  0  0  0  0  0  0  0  0  0  0
  -20.6120  -28.3350   23.2050 C   0  0  0  0  0  3  0  0  0  0  0  0
  -20.7150  -26.9050   22.6280 C   0  0  0  0  0  2  0  0  0  0  0  0
  -19.6130  -26.5830   21.6130 C   0  0  0  0  0  2  0  0  0  0  0  0
  -18.2310  -26.7290   22.2560 C   0  0  0  0  0  2  0  0  0  0  0  0
  -19.1740  -28.8390   23.3630 C   0  0  0  0  0  0  0  0  0  0  0  0
  -18.9560  -30.1040   23.9530 C   0  0  0  0  0  3  0  0  0  0  0  0
  -17.6510  -30.6060   24.1180 C   0  0  0  0  0  3  0  0  0  0  0  0
  -16.5460  -29.8410   23.7030 C   0  0  0  0  0  3  0  0  0  0  0  0
  -16.7490  -28.5800   23.1170 C   0  0  0  0  0  3  0  0  0  0  0  0
  -25.8840  -32.5240   23.8650 C   0  0  0  0  0  3  0  0  0  0  0  0
  -25.5740  -33.9220   24.1890 N   0  0  0  0  0  0  0  0  0  0  0  0
  -25.9100  -34.9710   23.4280 C   0  0  0  0  0  0  0  0  0  0  0  0
  -26.5850  -34.8640   22.4000 O   0  0  0  0  0  0  0  0  0  0  0  0
  -24.9760  -34.0790   24.9860 H   0  0  0  0  0  0  0  0  0  0  0  0
  -24.1830  -36.7600   23.0540 C   0  0  0  0  0  1  0  0  0  0  0  0
  -25.4180  -36.3600   23.8770 C   0  0  0  0  0  3  0  0  0  0  0  0
  -27.5460  -37.2470   24.7190 C   0  0  0  0  0  1  0  0  0  0  0  0
  -26.4510  -37.4130   23.7690 N   0  0  0  0  0  0  0  0  0  0  0  0
  -26.0430  -38.3330   23.9110 H   0  0  0  0  0  0  0  0  0  0  0  0
  -26.4040  -31.7550   25.1420 C   0  0  1  0  0  0  0  0  0  0  0  0
  -25.3120  -31.5150   26.2090 C   0  0  0  0  0  1  0  0  0  0  0  0
  -26.9900  -30.3780   24.7490 C   0  0  0  0  0  1  0  0  0  0  0  0
  -27.5530  -32.5530   25.8010 C   0  0  0  0  0  1  0  0  0  0  0  0
  1  4  2  0
  2  6  1  0
  3  2  2  0
  3  1  1  0
  4  7  1  0
  6  4  1  0
  6  5  1  0
  7  8  1  0
  9  7  1  0
  9 10  1  0
 11 19  1  0
 12 17  1  0
 13 14  1  0
 13 12  1  0
 15 14  1  0
 15 24  1  0
 15 16  1  0
 17 11  1  0
 17 16  1  0
 18 11  2  0
 19 10  1  0
 19 20  1  0
 21 22  2  0
 22 41  1  0
 23 22  1  0
 23 26  1  0
 24 21  1  0
 24 25  1  0
 25 23  2  0
 26 27  1  0
 27 28  2  0
 29 32  1  0
 29 28  1  0
 30 29  2  0
 31 30  1  0
 31 26  2  0
 32 33  1  0
 33 34  1  0
 34 35  2  0
 36 35  1  0
 36 40  1  0
 37 36  2  0
 38 33  2  0
 38 37  1  0
 39 38  1  0
 41 42  1  0
 42 45  1  0
 42 44  1  0
 43 41  2  0
 46 47  1  0
 46 21  1  0
 48 46  1  0
 49 50  1  0
 49  3  1  0
 50 51  1  0
 52 50  1  0
 53 50  1  0
 54 53  1  0
 54 55  1  0
 56 67  2  0
 57 55  1  0
 57 62  1  0
 58 66  1  0
 58 68  1  0
 59 65  1  0
 59 61  1  0
 60 66  1  0
 61 62  2  0
 61 60  1  0
 63 64  1  0
 63 57  2  0
 64 59  2  0
 65 58  1  0
 66 56  1  0
 68 70  2  0
 69 68  1  0
 71 69  1  0
 72 81  2  0
 72 77  1  0
 73 69  1  0
 73 77  1  0
 74 73  1  0
 75 76  1  0
 75 74  1  0
 76 72  1  0
 77 78  2  0
 78 79  1  0
 80 79  2  0
 81 80  1  0
 82 56  1  0
 82 83  1  0
 82 92  1  0
 83 86  1  0
 84 88  1  0
 84 83  1  0
 85 84  2  0
 88 87  1  0
 90 88  1  0
 90 91  1  0
 90 89  1  0
 92 95  1  1
 92 93  1  0
 94 92  1  0
M  ISO  4  11 100  19 100  54 101  55 101
M  END
>  <TORSDO>  (39) 
F 23

>  <SCORE>  (39) 
-12.883

>  <name>  (39) 
38

>  <ligand_id>  (39) 
38

>  <original_smiles>  (39) 
[H]c1c([H])c([H])c2c(c1[H])C([H])([H])C([H])([H])C([H])([H])C2([H])N([H])C(=O)C1([H])N(C(=O)C([H])(N([H])C(=O)C([H])(N([H])C([H])([H])[H])C([H])([H])[H])C(C([H])([H])[H])(C([H])([H])[H])C([H])([H])[H])C([H])([H])c2c([H])c(OC([H])([H])C([H])([H])[N+]([H])([H])C([H])([H])c3c([H])c(N([H])C([H])([H])C([H])([H])N([H])C(=O)N4C([H])([H])C([H])([H])C([H])([H])C([H])(n5nc(-c6c([H])c([H])c(Oc7c([H])c([H])c(F)c([H])c7F)c([H])c6[H])c(C(=O)N([H])[H])c5N([H])[H])C4([H])[H])n(C([H])([H])[H])c3[H])c([H])c([H])c2C1([H])[H]

>  <smiles>  (39) 
[H]c1c([H])c([H])c2c(c1[H])C([H])([H])C([H])([H])C([H])([H])C2([H])N([H])C(=O)C1([H])N(C(=O)C([H])(N([H])C(=O)C([H])(N([H])C([H])([H])[H])C([H])([H])[H])C(C([H])([H])[H])(C([H])([H])[H])C([H])([H])[H])C([H])([H])c2c([H])c(OC([H])([H])C([H])([H])[N+]([H])([H])C([H])([H])c3c([H])c(N([H])C([H])([H])C([H])([H])N([H])C(=O)N4C([H])([H])C([H])([H])C([H])([H])C([H])(n5nc(-c6c([H])c([H])c(Oc7c([H])c([H])c(F)c([H])c7F)c([H])c6[H])c(C(=O)N([H])[H])c5N([H])[H])C4([H])[H])n(C([H])([H])[H])c3[H])c([H])c([H])c2C1([H])[H]

$$$$
39:0:0
     RDKit          3D

 93102  0  0  1  0  0  0  0  0999 V2000
  -29.9800  -24.1930   22.0590 C   0  0  0  0  0  2  0  0  0  0  0  0
  -29.0820  -23.3490   19.8320 C   0  0  0  0  0  2  0  0  0  0  0  0
  -29.8080  -25.5550   21.3590 C   0  0  0  0  0  2  0  0  0  0  0  0
  -28.1810  -24.5940   19.6570 C   0  0  0  0  0  2  0  0  0  0  0  0
  -29.3280  -22.9990   21.3150 C   0  0  0  0  0  3  0  0  0  0  0  0
  -28.4300  -25.7060   20.7010 C   0  0  0  0  0  3  0  0  0  0  0  0
  -28.3960  -27.0020   20.1030 O   0  0  0  0  0  0  0  0  0  0  0  0
  -24.5020  -32.0010   23.3260 C   0  0  0  0  0  0  0  0  0  0  0  0
  -27.1970  -27.6690   20.1600 C   0  0  0  0  0  0  0  0  0  0  0  0
  -23.3040  -30.6020   21.6750 C   0  0  0  0  0  3  0  0  0  0  0  0
  -24.7690  -29.1050   20.2210 C   0  0  0  0  0  0  0  0  0  0  0  0
  -25.8160  -31.0140   21.4540 C   0  0  0  0  0  2  0  0  0  0  0  0
  -25.9200  -29.6530   20.8000 C   0  0  0  0  0  0  0  0  0  0  0  0
  -27.1390  -28.9420   20.7640 C   0  0  0  0  0  3  0  0  0  0  0  0
  -26.0300  -27.1230   19.5850 C   0  0  0  0  0  3  0  0  0  0  0  0
  -24.8150  -27.8360   19.6140 C   0  0  0  0  0  3  0  0  0  0  0  0
  -23.5100  -29.9410   20.2850 C   0  0  0  0  0  2  0  0  0  0  0  0
  -24.5590  -31.2200   22.2100 N   0  0  0  0  0  0  0  0  0  0  0  0
  -23.4240  -32.2470   23.8830 O   0  0  0  0  0  0  0  0  0  0  0  0
  -22.6800  -29.5580   22.6280 C   0  0  0  0  0  0  0  0  0  0  0  0
  -21.3620  -29.3370   22.4930 N   0  0  0  0  0  0  0  0  0  0  0  0
  -23.3780  -28.9480   23.4430 O   0  0  0  0  0  0  0  0  0  0  0  0
  -20.8600  -29.8840   21.8070 H   0  0  0  0  0  0  0  0  0  0  0  0
  -18.0260  -28.0250   22.9410 C   0  0  0  0  0  0  0  0  0  0  0  0
  -20.5690  -28.3720   23.2520 C   0  0  0  0  0  3  0  0  0  0  0  0
  -20.7300  -26.9450   22.6800 C   0  0  0  0  0  2  0  0  0  0  0  0
  -19.6570  -26.5830   21.6490 C   0  0  0  0  0  2  0  0  0  0  0  0
  -18.2600  -26.6820   22.2720 C   0  0  0  0  0  2  0  0  0  0  0  0
  -19.1110  -28.8260   23.3870 C   0  0  0  0  0  0  0  0  0  0  0  0
  -18.8400  -30.0820   23.9710 C   0  0  0  0  0  3  0  0  0  0  0  0
  -17.5170  -30.5400   24.1150 C   0  0  0  0  0  3  0  0  0  0  0  0
  -16.4470  -29.7360   23.6870 C   0  0  0  0  0  3  0  0  0  0  0  0
  -16.7010  -28.4810   23.1060 C   0  0  0  0  0  3  0  0  0  0  0  0
  -25.7860  -32.6420   23.9420 C   0  0  0  0  0  3  0  0  0  0  0  0
  -26.2990  -31.8920   25.2320 C   0  0  1  0  0  0  0  0  0  0  0  0
  -25.2000  -31.6580   26.2940 C   0  0  0  0  0  1  0  0  0  0  0  0
  -26.8970  -30.5140   24.8580 C   0  0  0  0  0  1  0  0  0  0  0  0
  -27.4370  -32.7040   25.8940 C   0  0  0  0  0  1  0  0  0  0  0  0
  -25.4780  -34.0450   24.2460 N   0  0  0  0  0  0  0  0  0  0  0  0
  -25.8090  -35.0820   23.4660 C   0  0  0  0  0  0  0  0  0  0  0  0
  -26.4800  -34.9600   22.4370 O   0  0  0  0  0  0  0  0  0  0  0  0
  -24.8830  -34.2150   25.0450 H   0  0  0  0  0  0  0  0  0  0  0  0
  -24.0800  -36.8650   23.0720 C   0  0  0  0  0  1  0  0  0  0  0  0
  -25.3190  -36.4780   23.8950 C   0  0  0  0  0  3  0  0  0  0  0  0
  -27.4500  -37.3820   24.7130 C   0  0  0  0  0  1  0  0  0  0  0  0
  -26.3510  -37.5300   23.7630 N   0  0  0  0  0  0  0  0  0  0  0  0
  -25.9440  -38.4520   23.8910 H   0  0  0  0  0  0  0  0  0  0  0  0
  -30.1820  -21.7220   21.5080 C   0  0  0  0  0  3  0  0  0  0  0  0
  -29.4860  -20.3810   21.1790 C   0  0  0  0  0  3  0  0  0  0  0  0
  -32.6070  -18.1110   21.4340 C   0  0  0  0  0  3  0  0  0  0  0  0
  -31.7860  -19.2530   21.4620 C   0  0  0  0  0  3  0  0  0  0  0  0
  -32.0600  -16.8550   21.1130 C   0  0  0  0  0  3  0  0  0  0  0  0
  -29.8590  -17.8820   20.8790 C   0  0  0  0  0  3  0  0  0  0  0  0
  -30.4040  -19.1540   21.1780 C   0  0  0  0  0  0  0  0  0  0  0  0
  -30.6830  -16.7350   20.8220 C   0  0  0  0  0  0  0  0  0  0  0  0
  -30.6130  -14.5440   19.6810 C   0  0  0  0  0  0  0  0  0  0  0  0
  -30.1250  -12.4370   18.4920 C   0  0  0  0  0  2  0  0  0  0  0  0
  -29.0430  -12.6630   17.4190 C   0  0  0  0  0  2  0  0  0  0  0  0
  -27.6330  -12.5240   18.0270 C   0  0  0  0  0  2  0  0  0  0  0  0
  -27.4590  -13.3500   19.3290 C   0  0  0  0  0  3  0  0  0  0  0  0
  -28.6370  -13.0990   20.2970 C   0  0  0  0  0  2  0  0  0  0  0  0
  -29.8890  -13.3990   19.5790 N   0  0  0  0  0  0  0  0  0  0  0  0
  -31.6200  -14.7610   18.9970 O   0  0  0  0  0  0  0  0  0  0  0  0
  -30.1100  -15.4710   20.5160 N   0  0  0  0  0  0  0  0  0  0  0  0
  -29.2010  -15.2700   20.9050 H   0  0  0  0  0  0  0  0  0  0  0  0
  -25.1800  -13.9690   20.3530 C   0  0  0  0  0  0  0  0  0  0  0  0
  -24.1530  -13.2000   20.8310 C   0  0  0  0  0  0  0  0  0  0  0  0
  -24.5810  -11.8440   20.6980 C   0  0  0  0  0  0  0  0  0  0  0  0
  -26.1720  -13.0810   19.9640 N   0  0  0  0  0  0  0  0  0  0  0  0
  -25.8200  -11.7950   20.2260 N   0  0  0  0  0  0  0  0  0  0  0  0
  -23.8620  -10.5860   20.9370 C   0  0  0  0  0  0  0  0  0  0  0  0
  -24.3580   -9.6100   21.8290 C   0  0  0  0  0  3  0  0  0  0  0  0
  -23.6400   -8.4160   22.0560 C   0  0  0  0  0  3  0  0  0  0  0  0
  -22.4100   -8.1910   21.3930 C   0  0  0  0  0  0  0  0  0  0  0  0
  -21.9320   -9.1560   20.4890 C   0  0  0  0  0  3  0  0  0  0  0  0
  -22.6510  -10.3410   20.2600 C   0  0  0  0  0  3  0  0  0  0  0  0
  -21.6560   -7.0510   21.5330 O   0  0  0  0  0  0  0  0  0  0  0  0
  -21.6600   -6.3240   22.6960 C   0  0  0  0  0  0  0  0  0  0  0  0
  -21.2970   -6.8970   23.9350 C   0  0  0  0  0  3  0  0  0  0  0  0
  -21.2480   -6.0950   25.0940 C   0  0  0  0  0  3  0  0  0  0  0  0
  -21.5510   -4.7230   25.0140 C   0  0  0  0  0  0  0  0  0  0  0  0
  -21.9060   -4.1500   23.7810 C   0  0  0  0  0  3  0  0  0  0  0  0
  -21.9580   -4.9480   22.6250 C   0  0  0  0  0  0  0  0  0  0  0  0
  -22.2800   -4.3860   21.4350 F   0  0  0  0  0  0  0  0  0  0  0  0
  -21.4960   -3.9520   26.1250 F   0  0  0  0  0  0  0  0  0  0  0  0
  -22.8110  -13.6870   21.2970 C   0  0  0  0  0  0  0  0  0  0  0  0
  -22.1910  -12.9730   22.2300 N   0  0  0  0  0  0  0  0  0  0  0  0
  -22.3270  -14.7340   20.8680 O   0  0  0  0  0  0  0  0  0  0  0  0
  -22.5990  -12.1260   22.5960 H   0  0  0  0  0  0  0  0  0  0  0  0
  -21.2960  -13.2790   22.5850 H   0  0  0  0  0  0  0  0  0  0  0  0
  -25.3460  -15.3420   20.1980 N   0  0  0  0  0  0  0  0  0  0  0  0
  -24.6070  -16.0030   20.4110 H   0  0  0  0  0  0  0  0  0  0  0  0
  -26.1520  -15.7770   19.7660 H   0  0  0  0  0  0  0  0  0  0  0  0
  2  5  1  0
  3  1  1  0
  4  2  1  0
  4  6  1  0
  5 48  1  0
  5  1  1  0
  6  7  1  0
  6  3  1  0
  7  9  1  0
  8 19  2  0
  9 14  1  0
 10 18  1  0
 10 20  1  0
 11 17  1  0
 11 13  1  0
 12 18  1  0
 13 12  1  0
 14 13  2  0
 15 16  1  0
 15  9  2  0
 16 11  2  0
 17 10  1  0
 18  8  1  0
 20 22  2  0
 21 20  1  0
 23 21  1  0
 24 33  2  0
 24 29  1  0
 25 21  1  0
 25 29  1  0
 26 25  1  0
 27 28  1  0
 27 26  1  0
 28 24  1  0
 29 30  2  0
 30 31  1  0
 32 31  2  0
 33 32  1  0
 34  8  1  0
 34 39  1  0
 34 35  1  0
 35 38  1  1
 35 36  1  0
 37 35  1  0
 39 42  1  0
 40 44  1  0
 40 39  1  0
 41 40  2  0
 44 43  1  0
 46 47  1  0
 46 44  1  0
 46 45  1  0
 49 48  2  0
 50 51  1  0
 52 50  2  0
 53 54  1  0
 54 49  1  0
 54 51  2  0
 55 53  2  0
 55 52  1  0
 56 64  1  0
 57 62  1  0
 58 59  1  0
 58 57  1  0
 60 59  1  0
 60 69  1  0
 60 61  1  0
 62 56  1  0
 62 61  1  0
 63 56  2  0
 64 55  1  0
 64 65  1  0
 66 67  2  0
 67 86  1  0
 68 67  1  0
 68 71  1  0
 69 70  1  0
 69 66  1  0
 70 68  2  0
 71 72  1  0
 72 73  2  0
 74 77  1  0
 74 73  1  0
 75 74  2  0
 76 75  1  0
 76 71  2  0
 77 78  1  0
 78 79  1  0
 79 80  2  0
 81 80  1  0
 81 85  1  0
 82 81  2  0
 83 78  2  0
 83 82  1  0
 84 83  1  0
 86 87  1  0
 87 90  1  0
 87 89  1  0
 88 86  2  0
 91 66  1  0
 91 92  1  0
 93 91  1  0
M  ISO  4   6 101   7 101  56 100  64 100
M  END
>  <TORSDO>  (40) 
F 19

>  <SCORE>  (40) 
-12.738

>  <name>  (40) 
39

>  <ligand_id>  (40) 
39

>  <original_smiles>  (40) 
[H]c1c([H])c([H])c2c(c1[H])C([H])([H])C([H])([H])C([H])([H])C2([H])N([H])C(=O)C1([H])N(C(=O)C([H])(N([H])C(=O)C([H])(N([H])C([H])([H])[H])C([H])([H])[H])C(C([H])([H])[H])(C([H])([H])[H])C([H])([H])[H])C([H])([H])c2c([H])c(OC3([H])C([H])([H])C([H])([H])C([H])(C([H])([H])C([H])([H])c4c([H])c([H])c([H])c(N([H])C(=O)N5C([H])([H])C([H])([H])C([H])([H])C([H])(n6nc(-c7c([H])c([H])c(Oc8c([H])c([H])c(F)c([H])c8F)c([H])c7[H])c(C(=O)N([H])[H])c6N([H])[H])C5([H])[H])c4[H])C([H])([H])C3([H])[H])c([H])c([H])c2C1([H])[H]

>  <smiles>  (40) 
[H]c1c([H])c([H])c2c(c1[H])C([H])([H])C([H])([H])C([H])([H])C2([H])N([H])C(=O)C1([H])N(C(=O)C([H])(N([H])C(=O)C([H])(N([H])C([H])([H])[H])C([H])([H])[H])C(C([H])([H])[H])(C([H])([H])[H])C([H])([H])[H])C([H])([H])c2c([H])c(OC3([H])C([H])([H])C([H])([H])C([H])(C([H])([H])C([H])([H])c4c([H])c([H])c([H])c(N([H])C(=O)N5C([H])([H])C([H])([H])C([H])([H])C([H])(n6nc(-c7c([H])c([H])c(Oc8c([H])c([H])c(F)c([H])c8F)c([H])c7[H])c(C(=O)N([H])[H])c6N([H])[H])C5([H])[H])c4[H])C([H])([H])C3([H])[H])c([H])c([H])c2C1([H])[H]

$$$$
40:0:0
     RDKit          3D

 90 98  0  0  1  0  0  0  0  0999 V2000
  -29.0040  -20.5420   19.1910 C   0  0  0  0  0  3  0  0  0  0  0  0
  -30.2510  -19.1280   21.1910 C   0  0  0  0  0  3  0  0  0  0  0  0
  -29.4030  -21.4560   20.2560 C   0  0  0  0  0  0  0  0  0  0  0  0
  -29.1880  -19.0570   19.1470 C   0  0  0  0  0  0  0  0  0  0  0  0
  -30.0500  -20.5960   21.2500 C   0  0  0  0  0  0  0  0  0  0  0  0
  -29.8590  -18.2130   20.1410 C   0  0  0  0  0  0  0  0  0  0  0  0
  -28.5670  -18.3320   17.9700 C   0  0  0  0  0  1  0  0  0  0  0  0
  -30.5620  -21.2730   22.5120 C   0  0  0  0  0  1  0  0  0  0  0  0
  -30.6970  -15.4130   20.1520 C   0  0  0  0  0  0  0  0  0  0  0  0
  -30.7000  -12.9550   19.3300 C   0  0  0  0  0  2  0  0  0  0  0  0
  -29.7770  -12.7620   18.1010 C   0  0  0  0  0  2  0  0  0  0  0  0
  -28.3190  -12.5170   18.5330 C   0  0  0  0  0  2  0  0  0  0  0  0
  -27.8810  -13.4770   19.6660 C   0  0  0  0  0  3  0  0  0  0  0  0
  -28.9340  -13.6060   20.7880 C   0  0  0  0  0  2  0  0  0  0  0  0
  -30.1680  -14.0960   20.1540 N   0  0  0  0  0  0  0  0  0  0  0  0
  -31.9080  -15.4670   19.8940 O   0  0  0  0  0  0  0  0  0  0  0  0
  -29.8490  -16.6090   20.2520 N   0  0  0  0  0  0  0  0  0  0  0  0
  -28.9170  -16.2890   20.4760 H   0  0  0  0  0  0  0  0  0  0  0  0
  -25.5140  -14.0430   20.4240 C   0  0  0  0  0  0  0  0  0  0  0  0
  -24.4500  -13.2700   20.7930 C   0  0  0  0  0  0  0  0  0  0  0  0
  -24.9110  -11.9180   20.7570 C   0  0  0  0  0  0  0  0  0  0  0  0
  -26.5520  -13.1650   20.1760 N   0  0  0  0  0  0  0  0  0  0  0  0
  -26.2020  -11.8790   20.4430 N   0  0  0  0  0  0  0  0  0  0  0  0
  -24.1780  -10.6600   20.9430 C   0  0  0  0  0  0  0  0  0  0  0  0
  -24.5710   -9.7110   21.9140 C   0  0  0  0  0  3  0  0  0  0  0  0
  -23.8340   -8.5190   22.0910 C   0  0  0  0  0  3  0  0  0  0  0  0
  -22.6930   -8.2680   21.2940 C   0  0  0  0  0  0  0  0  0  0  0  0
  -22.3180   -9.2040   20.3130 C   0  0  0  0  0  3  0  0  0  0  0  0
  -23.0570  -10.3850   20.1350 C   0  0  0  0  0  3  0  0  0  0  0  0
  -21.9340   -7.1240   21.3770 O   0  0  0  0  0  0  0  0  0  0  0  0
  -21.7870   -6.4370   22.5550 C   0  0  0  0  0  0  0  0  0  0  0  0
  -21.2200   -7.0370   23.7010 C   0  0  0  0  0  3  0  0  0  0  0  0
  -21.0290   -6.2770   24.8730 C   0  0  0  0  0  3  0  0  0  0  0  0
  -21.3920   -4.9180   24.8970 C   0  0  0  0  0  0  0  0  0  0  0  0
  -21.9540   -4.3170   23.7570 C   0  0  0  0  0  3  0  0  0  0  0  0
  -22.1490   -5.0750   22.5880 C   0  0  0  0  0  0  0  0  0  0  0  0
  -22.6700   -4.4870   21.4840 F   0  0  0  0  0  0  0  0  0  0  0  0
  -21.2020   -4.1840   26.0170 F   0  0  0  0  0  0  0  0  0  0  0  0
  -23.0540  -13.7520   21.0630 C   0  0  0  0  0  0  0  0  0  0  0  0
  -22.3260  -13.0680   21.9350 N   0  0  0  0  0  0  0  0  0  0  0  0
  -22.6200  -14.7750   20.5360 O   0  0  0  0  0  0  0  0  0  0  0  0
  -22.6900  -12.2410   22.3870 H   0  0  0  0  0  0  0  0  0  0  0  0
  -21.3880  -13.3740   22.1530 H   0  0  0  0  0  0  0  0  0  0  0  0
  -25.6760  -15.4160   20.2450 N   0  0  0  0  0  0  0  0  0  0  0  0
  -24.9000  -16.0630   20.3530 H   0  0  0  0  0  0  0  0  0  0  0  0
  -26.5040  -15.8590   19.8660 H   0  0  0  0  0  0  0  0  0  0  0  0
  -29.2890  -23.1920   20.4510 C   0  0  0  0  0  2  0  0  0  0  0  0
  -28.9890  -24.7680   18.2990 C   0  0  0  0  0  1  0  0  0  0  0  0
  -28.4860  -24.6060   19.7420 C   0  0  0  0  0  3  0  0  0  0  0  0
  -28.4740  -26.1600   20.2160 O   0  0  0  0  0  0  0  0  0  0  0  0
  -24.6440  -31.8320   23.2100 C   0  0  0  0  0  0  0  0  0  0  0  0
  -27.4110  -27.1830   20.0960 C   0  0  0  0  0  0  0  0  0  0  0  0
  -23.5230  -30.4600   21.4960 C   0  0  0  0  0  3  0  0  0  0  0  0
  -25.0490  -28.9450   20.0580 C   0  0  0  0  0  0  0  0  0  0  0  0
  -26.0800  -30.7600   21.4180 C   0  0  0  0  0  2  0  0  0  0  0  0
  -26.2040  -29.3810   20.7140 C   0  0  0  0  0  0  0  0  0  0  0  0
  -27.3790  -28.5180   20.7150 C   0  0  0  0  0  3  0  0  0  0  0  0
  -26.2270  -26.8830   19.3850 C   0  0  0  0  0  3  0  0  0  0  0  0
  -25.0770  -27.7150   19.3780 C   0  0  0  0  0  3  0  0  0  0  0  0
  -23.8050  -29.8250   20.1030 C   0  0  0  0  0  2  0  0  0  0  0  0
  -24.7670  -31.0400   22.0970 N   0  0  0  0  0  0  0  0  0  0  0  0
  -23.5360  -32.0770   23.7160 O   0  0  0  0  0  0  0  0  0  0  0  0
  -22.8400  -29.4140   22.4140 C   0  0  0  0  0  0  0  0  0  0  0  0
  -21.5150  -29.2300   22.2610 N   0  0  0  0  0  0  0  0  0  0  0  0
  -23.5040  -28.7770   23.2380 O   0  0  0  0  0  0  0  0  0  0  0  0
  -21.0330  -29.8010   21.5790 H   0  0  0  0  0  0  0  0  0  0  0  0
  -18.1490  -27.9380   22.6650 C   0  0  0  0  0  0  0  0  0  0  0  0
  -20.6980  -28.2480   22.9810 C   0  0  0  0  0  3  0  0  0  0  0  0
  -20.8370  -26.8400   22.3560 C   0  0  0  0  0  2  0  0  0  0  0  0
  -19.7560  -26.5310   21.3130 C   0  0  0  0  0  2  0  0  0  0  0  0
  -18.3630  -26.6220   21.9390 C   0  0  0  0  0  2  0  0  0  0  0  0
  -19.2450  -28.7080   23.1380 C   0  0  0  0  0  0  0  0  0  0  0  0
  -18.9860  -29.9370   23.7850 C   0  0  0  0  0  3  0  0  0  0  0  0
  -17.6700  -30.4000   23.9550 C   0  0  0  0  0  3  0  0  0  0  0  0
  -16.5880  -29.6270   23.4930 C   0  0  0  0  0  3  0  0  0  0  0  0
  -16.8290  -28.3990   22.8570 C   0  0  0  0  0  3  0  0  0  0  0  0
  -25.8860  -32.4830   23.8920 C   0  0  0  0  0  3  0  0  0  0  0  0
  -25.5500  -33.8850   24.1980 N   0  0  0  0  0  0  0  0  0  0  0  0
  -25.8950  -34.9340   23.4450 C   0  0  0  0  0  0  0  0  0  0  0  0
  -26.5920  -34.8250   22.4310 O   0  0  0  0  0  0  0  0  0  0  0  0
  -24.9240  -34.0360   24.9770 H   0  0  0  0  0  0  0  0  0  0  0  0
  -24.1640  -36.7190   23.0420 C   0  0  0  0  0  1  0  0  0  0  0  0
  -25.3920  -36.3250   23.8790 C   0  0  0  0  0  3  0  0  0  0  0  0
  -27.5020  -37.2480   24.7460 C   0  0  0  0  0  1  0  0  0  0  0  0
  -26.4180  -37.3850   23.7740 N   0  0  0  0  0  0  0  0  0  0  0  0
  -26.0010  -38.3040   23.8840 H   0  0  0  0  0  0  0  0  0  0  0  0
  -26.3270  -31.7310   25.2080 C   0  0  1  0  0  0  0  0  0  0  0  0
  -25.1720  -31.5160   26.2170 C   0  0  0  0  0  1  0  0  0  0  0  0
  -26.9350  -30.3440   24.8890 C   0  0  0  0  0  1  0  0  0  0  0  0
  -27.4360  -32.5410   25.9190 C   0  0  0  0  0  1  0  0  0  0  0  0
  1  3  1  0
  2  5  1  0
  3 47  1  0
  3  5  2  0
  4  1  2  0
  4  6  1  0
  5  8  1  0
  6 17  1  0
  6  2  2  0
  7  4  1  0
  9 15  1  0
  9 17  1  0
 10 15  1  0
 11 12  1  0
 11 10  1  0
 13 12  1  0
 13 22  1  0
 13 14  1  0
 15 14  1  0
 16  9  2  0
 17 18  1  0
 19 20  2  0
 20 39  1  0
 21 20  1  0
 21 24  1  0
 22 19  1  0
 22 23  1  0
 23 21  2  0
 24 25  1  0
 25 26  2  0
 27 30  1  0
 27 26  1  0
 28 27  2  0
 29 28  1  0
 29 24  2  0
 30 31  1  0
 31 36  2  0
 31 32  1  0
 32 33  2  0
 33 34  1  0
 34 38  1  0
 35 34  2  0
 36 35  1  0
 37 36  1  0
 39 40  1  0
 40 43  1  0
 40 42  1  0
 41 39  2  0
 44 45  1  0
 44 19  1  0
 46 44  1  0
 49 48  1  0
 49 50  1  0
 49 47  1  0
 51 62  2  0
 52 50  1  0
 52 57  1  0
 53 61  1  0
 53 63  1  0
 54 60  1  0
 54 56  1  0
 55 61  1  0
 56 57  2  0
 56 55  1  0
 58 52  2  0
 59 58  1  0
 59 54  2  0
 60 53  1  0
 61 51  1  0
 63 65  2  0
 64 63  1  0
 66 64  1  0
 67 76  2  0
 67 72  1  0
 68 64  1  0
 68 72  1  0
 69 68  1  0
 70 71  1  0
 70 69  1  0
 71 67  1  0
 72 73  2  0
 73 74  1  0
 75 74  2  0
 76 75  1  0
 77 51  1  0
 77 78  1  0
 77 87  1  0
 78 81  1  0
 79 83  1  0
 79 78  1  0
 80 79  2  0
 83 82  1  0
 85 83  1  0
 85 86  1  0
 85 84  1  0
 87 90  1  1
 87 88  1  0
 89 87  1  0
M  ISO  4   9 100  17 100  49 101  50 101
M  END
>  <TORSDO>  (41) 
F 18

>  <SCORE>  (41) 
-15.473

>  <name>  (41) 
40

>  <ligand_id>  (41) 
40

>  <original_smiles>  (41) 
[H]c1c([H])c([H])c2c(c1[H])C([H])([H])C([H])([H])C([H])([H])C2([H])N([H])C(=O)C1([H])N(C(=O)C([H])(N([H])C(=O)C([H])(N([H])C([H])([H])[H])C([H])([H])[H])C(C([H])([H])[H])(C([H])([H])[H])C([H])([H])[H])C([H])([H])c2c([H])c(OC([H])(C([H])([H])[H])C([H])([H])c3c([H])c(C([H])([H])[H])c(N([H])C(=O)N4C([H])([H])C([H])([H])C([H])([H])C([H])(n5nc(-c6c([H])c([H])c(Oc7c([H])c([H])c(F)c([H])c7F)c([H])c6[H])c(C(=O)N([H])[H])c5N([H])[H])C4([H])[H])c([H])c3C([H])([H])[H])c([H])c([H])c2C1([H])[H]

>  <smiles>  (41) 
[H]c1c([H])c([H])c2c(c1[H])C([H])([H])C([H])([H])C([H])([H])C2([H])N([H])C(=O)C1([H])N(C(=O)C([H])(N([H])C(=O)C([H])(N([H])C([H])([H])[H])C([H])([H])[H])C(C([H])([H])[H])(C([H])([H])[H])C([H])([H])[H])C([H])([H])c2c([H])c(OC([H])(C([H])([H])[H])C([H])([H])c3c([H])c(C([H])([H])[H])c(N([H])C(=O)N4C([H])([H])C([H])([H])C([H])([H])C([H])(n5nc(-c6c([H])c([H])c(Oc7c([H])c([H])c(F)c([H])c7F)c([H])c6[H])c(C(=O)N([H])[H])c5N([H])[H])C4([H])[H])c([H])c3C([H])([H])[H])c([H])c([H])c2C1([H])[H]

$$$$
41:0:0
     RDKit          3D

 88 96  0  0  1  0  0  0  0  0999 V2000
  -29.7430  -20.6390   21.2730 C   0  0  0  0  0  2  0  0  0  0  0  0
  -29.1480  -20.5550   19.1610 C   0  0  0  0  0  2  0  0  0  0  0  0
  -29.6100  -18.9940   21.4450 C   0  0  0  0  0  2  0  0  0  0  0  0
  -29.0090  -18.8930   19.2280 C   0  0  0  0  0  2  0  0  0  0  0  0
  -28.8390  -21.4530   20.3550 N   0  0  0  0  0  0  0  0  0  0  0  0
  -29.8330  -18.0740   20.2400 N   0  0  2  0  0  4  0  0  0  0  0  0
  -30.8050  -18.1510   19.9740 H   0  0  0  0  0  0  0  0  0  0  0  0
  -30.4050  -15.2120   20.2170 C   0  0  0  0  0  0  0  0  0  0  0  0
  -30.4130  -12.8060   19.2970 C   0  0  0  0  0  2  0  0  0  0  0  0
  -29.4570  -12.6750   18.0840 C   0  0  0  0  0  2  0  0  0  0  0  0
  -28.0070  -12.4160   18.5400 C   0  0  0  0  0  2  0  0  0  0  0  0
  -27.5920  -13.3420   19.7130 C   0  0  0  0  0  3  0  0  0  0  0  0
  -28.6660  -13.3980   20.8200 C   0  0  0  0  0  2  0  0  0  0  0  0
  -29.9010  -13.8940   20.1910 N   0  0  0  0  0  0  0  0  0  0  0  0
  -31.5970  -15.3360   19.9040 O   0  0  0  0  0  0  0  0  0  0  0  0
  -29.4940  -16.3190   20.4370 N   0  0  0  0  0  0  0  0  0  0  0  0
  -28.5370  -16.1130   20.6740 H   0  0  0  0  0  0  0  0  0  0  0  0
  -25.2250  -13.8930   20.5090 C   0  0  0  0  0  0  0  0  0  0  0  0
  -24.1710  -13.1090   20.8890 C   0  0  0  0  0  0  0  0  0  0  0  0
  -24.6400  -11.7610   20.8280 C   0  0  0  0  0  0  0  0  0  0  0  0
  -26.2660  -13.0230   20.2340 N   0  0  0  0  0  0  0  0  0  0  0  0
  -25.9270  -11.7330   20.4920 N   0  0  0  0  0  0  0  0  0  0  0  0
  -23.9210  -10.4930   21.0110 C   0  0  0  0  0  0  0  0  0  0  0  0
  -24.3470   -9.5300   21.9510 C   0  0  0  0  0  3  0  0  0  0  0  0
  -23.6270   -8.3280   22.1240 C   0  0  0  0  0  3  0  0  0  0  0  0
  -22.4640   -8.0820   21.3560 C   0  0  0  0  0  0  0  0  0  0  0  0
  -22.0550   -9.0340   20.4050 C   0  0  0  0  0  3  0  0  0  0  0  0
  -22.7780  -10.2280   20.2310 C   0  0  0  0  0  3  0  0  0  0  0  0
  -21.7150   -6.9330   21.4360 O   0  0  0  0  0  0  0  0  0  0  0  0
  -21.6220   -6.2140   22.6010 C   0  0  0  0  0  0  0  0  0  0  0  0
  -21.1250   -6.7870   23.7920 C   0  0  0  0  0  3  0  0  0  0  0  0
  -20.9810   -5.9940   24.9480 C   0  0  0  0  0  3  0  0  0  0  0  0
  -21.3250   -4.6300   24.9140 C   0  0  0  0  0  0  0  0  0  0  0  0
  -21.8140   -4.0560   23.7280 C   0  0  0  0  0  3  0  0  0  0  0  0
  -21.9590   -4.8460   22.5740 C   0  0  0  0  0  0  0  0  0  0  0  0
  -22.4120   -4.2820   21.4280 F   0  0  0  0  0  0  0  0  0  0  0  0
  -21.1790   -3.8660   26.0230 F   0  0  0  0  0  0  0  0  0  0  0  0
  -22.7770  -13.5780   21.1890 C   0  0  0  0  0  0  0  0  0  0  0  0
  -22.0640  -12.8690   22.0560 N   0  0  0  0  0  0  0  0  0  0  0  0
  -22.3310  -14.6090   20.6880 O   0  0  0  0  0  0  0  0  0  0  0  0
  -22.4380  -12.0350   22.4840 H   0  0  0  0  0  0  0  0  0  0  0  0
  -21.1290  -13.1680   22.2990 H   0  0  0  0  0  0  0  0  0  0  0  0
  -25.3770  -15.2670   20.3430 N   0  0  0  0  0  0  0  0  0  0  0  0
  -24.5860  -15.8950   20.4430 H   0  0  0  0  0  0  0  0  0  0  0  0
  -26.1580  -15.6950   19.8680 H   0  0  0  0  0  0  0  0  0  0  0  0
  -29.0570  -23.0640   20.3230 C   0  0  0  0  0  3  0  0  0  0  0  0
  -27.9890  -24.4480   20.1050 C   0  0  0  0  0  3  0  0  0  0  0  0
  -28.2260  -26.0390   20.2670 O   0  0  0  0  0  0  0  0  0  0  0  0
  -24.6500  -31.9050   23.2450 C   0  0  0  0  0  0  0  0  0  0  0  0
  -27.1910  -27.0850   20.2110 C   0  0  0  0  0  0  0  0  0  0  0  0
  -23.4420  -30.5130   21.6100 C   0  0  0  0  0  3  0  0  0  0  0  0
  -24.8800  -28.9150   20.1810 C   0  0  0  0  0  0  0  0  0  0  0  0
  -26.0040  -30.7380   21.4470 C   0  0  0  0  0  2  0  0  0  0  0  0
  -26.0690  -29.3360   20.7910 C   0  0  0  0  0  0  0  0  0  0  0  0
  -27.2210  -28.4410   20.7820 C   0  0  0  0  0  3  0  0  0  0  0  0
  -25.9710  -26.7930   19.5630 C   0  0  0  0  0  3  0  0  0  0  0  0
  -24.8510  -27.6610   19.5500 C   0  0  0  0  0  3  0  0  0  0  0  0
  -23.6610  -29.8290   20.2330 C   0  0  0  0  0  2  0  0  0  0  0  0
  -24.7200  -31.0770   22.1550 N   0  0  0  0  0  0  0  0  0  0  0  0
  -23.5650  -32.1970   23.7730 O   0  0  0  0  0  0  0  0  0  0  0  0
  -22.7530  -29.5170   22.5780 C   0  0  0  0  0  0  0  0  0  0  0  0
  -21.4240  -29.3520   22.4530 N   0  0  0  0  0  0  0  0  0  0  0  0
  -23.4210  -28.8940   23.4080 O   0  0  0  0  0  0  0  0  0  0  0  0
  -20.9410  -29.9060   21.7590 H   0  0  0  0  0  0  0  0  0  0  0  0
  -18.0390  -28.1500   22.9610 C   0  0  0  0  0  0  0  0  0  0  0  0
  -20.5990  -28.4180   23.2250 C   0  0  0  0  0  3  0  0  0  0  0  0
  -20.7020  -26.9840   22.6560 C   0  0  0  0  0  2  0  0  0  0  0  0
  -19.6000  -26.6570   21.6420 C   0  0  0  0  0  2  0  0  0  0  0  0
  -18.2180  -26.8010   22.2870 C   0  0  0  0  0  2  0  0  0  0  0  0
  -19.1570  -28.9160   23.3870 C   0  0  0  0  0  0  0  0  0  0  0  0
  -18.9350  -30.1770   23.9810 C   0  0  0  0  0  3  0  0  0  0  0  0
  -17.6290  -30.6740   24.1510 C   0  0  0  0  0  3  0  0  0  0  0  0
  -16.5260  -29.9070   23.7380 C   0  0  0  0  0  3  0  0  0  0  0  0
  -16.7320  -28.6460   23.1490 C   0  0  0  0  0  3  0  0  0  0  0  0
  -25.9280  -32.5400   23.8730 C   0  0  0  0  0  3  0  0  0  0  0  0
  -25.6170  -33.9380   24.2140 N   0  0  0  0  0  0  0  0  0  0  0  0
  -25.9230  -34.9990   23.4560 C   0  0  0  0  0  0  0  0  0  0  0  0
  -26.5600  -34.9030   22.4040 O   0  0  0  0  0  0  0  0  0  0  0  0
  -25.0440  -34.0840   25.0330 H   0  0  0  0  0  0  0  0  0  0  0  0
  -24.1670  -36.7840   23.1890 C   0  0  0  0  0  1  0  0  0  0  0  0
  -25.4480  -36.3860   23.9380 C   0  0  0  0  0  3  0  0  0  0  0  0
  -27.6100  -37.2930   24.6690 C   0  0  0  0  0  1  0  0  0  0  0  0
  -26.4660  -37.4470   23.7740 N   0  0  0  0  0  0  0  0  0  0  0  0
  -26.0590  -38.3650   23.9330 H   0  0  0  0  0  0  0  0  0  0  0  0
  -26.4390  -31.7670   25.1520 C   0  0  1  0  0  0  0  0  0  0  0  0
  -25.3430  -31.5340   26.2200 C   0  0  0  0  0  1  0  0  0  0  0  0
  -27.0190  -30.3870   24.7690 C   0  0  0  0  0  1  0  0  0  0  0  0
  -27.5910  -32.5580   25.8160 C   0  0  0  0  0  1  0  0  0  0  0  0
  1  3  1  0
  2  4  1  0
  2  5  1  0
  4  6  1  0
  5  1  1  0
  6 16  1  0
  6  3  1  0
  6  7  1  6
  8 16  1  0
  9 14  1  0
 10 11  1  0
 10  9  1  0
 12 11  1  0
 12 21  1  0
 12 13  1  0
 14  8  1  0
 14 13  1  0
 15  8  2  0
 16 17  1  0
 18 19  2  0
 19 38  1  0
 20 19  1  0
 20 23  1  0
 21 22  1  0
 21 18  1  0
 22 20  2  0
 23 24  1  0
 24 25  2  0
 26 29  1  0
 26 25  1  0
 27 26  2  0
 28 27  1  0
 28 23  2  0
 29 30  1  0
 30 31  1  0
 31 32  2  0
 33 32  1  0
 33 37  1  0
 34 33  2  0
 35 30  2  0
 35 34  1  0
 36 35  1  0
 38 39  1  0
 39 42  1  0
 39 41  1  0
 40 38  2  0
 43 44  1  0
 43 18  1  0
 45 43  1  0
 46  5  1  0
 47 48  1  0
 47 46  2  0
 49 60  2  0
 50 48  1  0
 50 55  1  0
 51 59  1  0
 51 61  1  0
 52 58  1  0
 52 54  1  0
 53 59  1  0
 54 53  1  0
 55 54  2  0
 56 50  2  0
 57 56  1  0
 57 52  2  0
 58 51  1  0
 59 49  1  0
 61 63  2  0
 62 61  1  0
 64 62  1  0
 65 74  2  0
 65 70  1  0
 66 62  1  0
 66 70  1  0
 67 66  1  0
 68 69  1  0
 68 67  1  0
 69 65  1  0
 70 71  2  0
 71 72  1  0
 73 72  2  0
 74 73  1  0
 75 49  1  0
 75 76  1  0
 75 85  1  0
 76 79  1  0
 77 81  1  0
 77 76  1  0
 78 77  2  0
 81 80  1  0
 83 84  1  0
 83 81  1  0
 83 82  1  0
 85 88  1  1
 85 86  1  0
 87 85  1  0
M  ISO  4   8 100  16 100  47 101  48 101
M  END
>  <TORSDO>  (42) 
F 18

>  <SCORE>  (42) 
-15.401

>  <name>  (42) 
41

>  <ligand_id>  (42) 
41

>  <original_smiles>  (42) 
[H]c1c([H])c([H])c2c(c1[H])C([H])([H])C([H])([H])C([H])([H])C2([H])N([H])C(=O)C1([H])N(C(=O)C([H])(N([H])C(=O)C([H])(N([H])C([H])([H])[H])C([H])([H])[H])C(C([H])([H])[H])(C([H])([H])[H])C([H])([H])[H])C([H])([H])c2c([H])c(OC([H])([H])C([H])([H])N3C([H])([H])C([H])([H])[N+]([H])(N([H])C(=O)N4C([H])([H])C([H])([H])C([H])([H])C([H])(n5nc(-c6c([H])c([H])c(Oc7c([H])c([H])c(F)c([H])c7F)c([H])c6[H])c(C(=O)N([H])[H])c5N([H])[H])C4([H])[H])C([H])([H])C3([H])[H])c([H])c([H])c2C1([H])[H]

>  <smiles>  (42) 
[H]c1c([H])c([H])c2c(c1[H])C([H])([H])C([H])([H])C([H])([H])C2([H])N([H])C(=O)C1([H])N(C(=O)C([H])(N([H])C(=O)C([H])(N([H])C([H])([H])[H])C([H])([H])[H])C(C([H])([H])[H])(C([H])([H])[H])C([H])([H])[H])C([H])([H])c2c([H])c(OC([H])([H])C([H])([H])N3C([H])([H])C([H])([H])[N+]([H])(N([H])C(=O)N4C([H])([H])C([H])([H])C([H])([H])C([H])(n5nc(-c6c([H])c([H])c(Oc7c([H])c([H])c(F)c([H])c7F)c([H])c6[H])c(C(=O)N([H])[H])c5N([H])[H])C4([H])[H])C([H])([H])C3([H])[H])c([H])c([H])c2C1([H])[H]

$$$$
42:0:0
     RDKit          3D

101110  0  0  1  0  0  0  0  0999 V2000
  -29.3360  -23.9130   17.7310 C   0  0  0  0  0  3  0  0  0  0  0  0
  -28.7790  -25.0650   18.3220 C   0  0  0  0  0  3  0  0  0  0  0  0
  -28.6940  -23.8610   20.4250 C   0  0  0  0  0  3  0  0  0  0  0  0
  -29.6420  -22.7420   18.4710 C   0  0  0  0  0  0  0  0  0  0  0  0
  -29.2350  -22.6310   19.8350 C   0  0  0  0  0  0  0  0  0  0  0  0
  -28.5100  -25.1180   19.6990 C   0  0  0  0  0  0  0  0  0  0  0  0
  -30.4300  -21.4260   16.3520 C   0  0  0  0  0  2  0  0  0  0  0  0
  -32.0640  -22.2200   18.0860 C   0  0  0  0  0  2  0  0  0  0  0  0
  -31.4970  -20.4230   15.8630 C   0  0  0  0  0  2  0  0  0  0  0  0
  -30.6180  -21.7260   17.8530 C   0  0  0  0  0  3  0  0  0  0  0  0
  -33.1540  -21.2670   17.5360 C   0  0  0  0  0  3  0  0  0  0  0  0
  -32.8710  -20.9210   16.1180 N   0  0  0  0  0  4  0  0  0  0  0  0
  -33.0190  -21.7380   15.5470 H   0  0  0  0  0  0  0  0  0  0  0  0
  -33.5380  -20.2310   15.8050 H   0  0  0  0  0  0  0  0  0  0  0  0
  -33.8380  -20.2950   19.8510 C   0  0  0  0  0  1  0  0  0  0  0  0
  -33.4060  -20.0060   18.4030 C   0  0  0  0  0  2  0  0  0  0  0  0
  -28.3310  -26.4210   20.2670 O   0  0  0  0  0  0  0  0  0  0  0  0
  -24.6360  -31.8850   23.2250 C   0  0  0  0  0  0  0  0  0  0  0  0
  -27.2160  -27.2820   20.1440 C   0  0  0  0  0  0  0  0  0  0  0  0
  -23.4170  -30.4820   21.6000 C   0  0  0  0  0  3  0  0  0  0  0  0
  -24.8510  -28.9220   20.1510 C   0  0  0  0  0  0  0  0  0  0  0  0
  -25.9570  -30.7870   21.3910 C   0  0  0  0  0  2  0  0  0  0  0  0
  -26.0260  -29.4050   20.7390 C   0  0  0  0  0  0  0  0  0  0  0  0
  -27.2050  -28.5960   20.7240 C   0  0  0  0  0  3  0  0  0  0  0  0
  -26.0190  -26.8560   19.5280 C   0  0  0  0  0  3  0  0  0  0  0  0
  -24.8530  -27.6570   19.5320 C   0  0  0  0  0  3  0  0  0  0  0  0
  -23.6140  -29.7990   20.2190 C   0  0  0  0  0  2  0  0  0  0  0  0
  -24.6910  -31.0710   22.1280 N   0  0  0  0  0  0  0  0  0  0  0  0
  -23.5580  -32.1640   23.7700 O   0  0  0  0  0  0  0  0  0  0  0  0
  -22.7600  -29.4720   22.5730 C   0  0  0  0  0  0  0  0  0  0  0  0
  -21.4350  -29.2900   22.4560 N   0  0  0  0  0  0  0  0  0  0  0  0
  -23.4450  -28.8540   23.3940 O   0  0  0  0  0  0  0  0  0  0  0  0
  -20.9410  -29.8370   21.7640 H   0  0  0  0  0  0  0  0  0  0  0  0
  -18.0690  -28.0630   22.9710 C   0  0  0  0  0  0  0  0  0  0  0  0
  -20.6250  -28.3520   23.2360 C   0  0  0  0  0  3  0  0  0  0  0  0
  -20.7420  -26.9170   22.6730 C   0  0  0  0  0  2  0  0  0  0  0  0
  -19.6440  -26.5740   21.6630 C   0  0  0  0  0  2  0  0  0  0  0  0
  -18.2600  -26.7110   22.3050 C   0  0  0  0  0  2  0  0  0  0  0  0
  -19.1800  -28.8410   23.3930 C   0  0  0  0  0  0  0  0  0  0  0  0
  -18.9490  -30.1050   23.9760 C   0  0  0  0  0  3  0  0  0  0  0  0
  -17.6390  -30.5950   24.1380 C   0  0  0  0  0  3  0  0  0  0  0  0
  -16.5420  -29.8160   23.7310 C   0  0  0  0  0  3  0  0  0  0  0  0
  -16.7580  -28.5520   23.1540 C   0  0  0  0  0  3  0  0  0  0  0  0
  -25.9240  -32.5190   23.8360 C   0  0  0  0  0  3  0  0  0  0  0  0
  -25.6140  -33.9150   24.1810 N   0  0  0  0  0  0  0  0  0  0  0  0
  -25.9360  -34.9760   23.4280 C   0  0  0  0  0  0  0  0  0  0  0  0
  -26.5930  -34.8830   22.3880 O   0  0  0  0  0  0  0  0  0  0  0  0
  -25.0300  -34.0630   24.9900 H   0  0  0  0  0  0  0  0  0  0  0  0
  -24.1990  -36.7680   23.1170 C   0  0  0  0  0  1  0  0  0  0  0  0
  -25.4540  -36.3600   23.9060 C   0  0  0  0  0  3  0  0  0  0  0  0
  -27.5990  -37.2410   24.7090 C   0  0  0  0  0  1  0  0  0  0  0  0
  -26.4830  -37.4170   23.7850 N   0  0  0  0  0  0  0  0  0  0  0  0
  -26.0780  -38.3350   23.9470 H   0  0  0  0  0  0  0  0  0  0  0  0
  -26.4580  -31.7450   25.1050 C   0  0  1  0  0  0  0  0  0  0  0  0
  -25.3770  -31.5050   26.1860 C   0  0  0  0  0  1  0  0  0  0  0  0
  -27.0360  -30.3700   24.7010 C   0  0  0  0  0  1  0  0  0  0  0  0
  -27.6160  -32.5390   25.7520 C   0  0  0  0  0  1  0  0  0  0  0  0
  -29.6320  -21.3100   20.6750 C   0  0  0  0  0  2  0  0  0  0  0  0
  -28.9300  -19.9480   20.4900 N   0  0  0  0  0  4  0  0  0  0  0  0
  -28.1860  -20.1290   19.8380 H   0  0  0  0  0  0  0  0  0  0  0  0
  -28.4620  -19.7520   21.3590 H   0  0  0  0  0  0  0  0  0  0  0  0
  -29.5940  -18.6210   20.0200 C   0  0  0  0  0  2  0  0  0  0  0  0
  -29.8740  -17.3840   21.0430 C   0  0  0  0  0  2  0  0  0  0  0  0
  -30.5090  -14.8100   20.4370 C   0  0  0  0  0  0  0  0  0  0  0  0
  -30.3610  -12.5270   19.4020 C   0  0  0  0  0  2  0  0  0  0  0  0
  -29.4170  -12.5640   18.1760 C   0  0  0  0  0  2  0  0  0  0  0  0
  -27.9450  -12.3900   18.6020 C   0  0  0  0  0  2  0  0  0  0  0  0
  -27.5610  -13.2780   19.8160 C   0  0  0  0  0  3  0  0  0  0  0  0
  -28.6210  -13.1920   20.9370 C   0  0  0  0  0  2  0  0  0  0  0  0
  -29.9080  -13.5740   20.3420 N   0  0  0  0  0  0  0  0  0  0  0  0
  -31.7070  -14.9390   20.1690 O   0  0  0  0  0  0  0  0  0  0  0  0
  -29.6800  -15.9050   20.6450 N   0  0  0  0  0  0  0  0  0  0  0  0
  -28.7140  -15.6180   20.7140 H   0  0  0  0  0  0  0  0  0  0  0  0
  -25.1690  -13.8650   20.5260 C   0  0  0  0  0  0  0  0  0  0  0  0
  -24.1050  -13.0890   20.8920 C   0  0  0  0  0  0  0  0  0  0  0  0
  -24.5720  -11.7400   20.8720 C   0  0  0  0  0  0  0  0  0  0  0  0
  -26.2180  -12.9880   20.3020 N   0  0  0  0  0  0  0  0  0  0  0  0
  -25.8660  -11.7060   20.5770 N   0  0  0  0  0  0  0  0  0  0  0  0
  -23.8470  -10.4760   21.0590 C   0  0  0  0  0  0  0  0  0  0  0  0
  -24.2830   -9.5070   21.9890 C   0  0  0  0  0  3  0  0  0  0  0  0
  -23.5600   -8.3080   22.1690 C   0  0  0  0  0  3  0  0  0  0  0  0
  -22.3870   -8.0680   21.4160 C   0  0  0  0  0  0  0  0  0  0  0  0
  -21.9670   -9.0250   20.4750 C   0  0  0  0  0  3  0  0  0  0  0  0
  -22.6900  -10.2150   20.2950 C   0  0  0  0  0  3  0  0  0  0  0  0
  -21.6340   -6.9220   21.5030 O   0  0  0  0  0  0  0  0  0  0  0  0
  -21.5980   -6.1720   22.6500 C   0  0  0  0  0  0  0  0  0  0  0  0
  -21.1990   -6.7190   23.8880 C   0  0  0  0  0  3  0  0  0  0  0  0
  -21.1110   -5.8950   25.0270 C   0  0  0  0  0  3  0  0  0  0  0  0
  -21.4160   -4.5230   24.9280 C   0  0  0  0  0  0  0  0  0  0  0  0
  -21.8100   -3.9750   23.6950 C   0  0  0  0  0  3  0  0  0  0  0  0
  -21.8990   -4.7970   22.5580 C   0  0  0  0  0  0  0  0  0  0  0  0
  -22.2590   -4.2620   21.3670 F   0  0  0  0  0  0  0  0  0  0  0  0
  -21.3220   -3.7290   26.0200 F   0  0  0  0  0  0  0  0  0  0  0  0
  -22.7040  -13.5620   21.1470 C   0  0  0  0  0  0  0  0  0  0  0  0
  -21.9720  -12.8700   22.0130 N   0  0  0  0  0  0  0  0  0  0  0  0
  -22.2660  -14.5800   20.6140 O   0  0  0  0  0  0  0  0  0  0  0  0
  -22.3360  -12.0400   22.4610 H   0  0  0  0  0  0  0  0  0  0  0  0
  -21.0340  -13.1740   22.2360 H   0  0  0  0  0  0  0  0  0  0  0  0
  -25.3230  -15.2350   20.3360 N   0  0  0  0  0  0  0  0  0  0  0  0
  -24.5340  -15.8660   20.4220 H   0  0  0  0  0  0  0  0  0  0  0  0
  -26.1510  -15.6840   19.9680 H   0  0  0  0  0  0  0  0  0  0  0  0
  1  2  2  0
  1  4  1  0
  2  6  1  0
  4  5  2  0
  5  3  1  0
  5 58  1  0
  6 17  1  0
  6  3  2  0
  7 10  1  0
  9 12  1  0
  9  7  1  0
 10  8  1  0
 10  4  1  0
 11  8  1  0
 11 16  1  0
 12 11  1  0
 13 12  1  0
 14 12  1  0
 16 15  1  0
 18 29  2  0
 19 17  1  0
 19 24  1  0
 20 28  1  0
 20 30  1  0
 21 27  1  0
 21 23  1  0
 22 28  1  0
 23 22  1  0
 24 23  2  0
 25 26  1  0
 25 19  2  0
 26 21  2  0
 27 20  1  0
 28 18  1  0
 30 32  2  0
 31 30  1  0
 33 31  1  0
 34 43  2  0
 34 39  1  0
 35 31  1  0
 35 39  1  0
 36 35  1  0
 37 38  1  0
 37 36  1  0
 38 34  1  0
 39 40  2  0
 40 41  1  0
 42 41  2  0
 43 42  1  0
 44 18  1  0
 44 45  1  0
 44 54  1  0
 45 48  1  0
 46 50  1  0
 46 45  1  0
 47 46  2  0
 50 49  1  0
 52 50  1  0
 52 53  1  0
 52 51  1  0
 54 57  1  1
 54 55  1  0
 56 54  1  0
 59 58  1  0
 59 61  1  0
 60 59  1  0
 62 59  1  0
 62 63  1  0
 64 72  1  0
 65 70  1  0
 66 67  1  0
 66 65  1  0
 68 67  1  0
 68 77  1  0
 68 69  1  0
 70 64  1  0
 70 69  1  0
 71 64  2  0
 72 73  1  0
 72 63  1  0
 74 75  2  0
 75 94  1  0
 76 75  1  0
 76 79  1  0
 77 74  1  0
 77 78  1  0
 78 76  2  0
 79 80  1  0
 80 81  2  0
 82 85  1  0
 82 81  1  0
 83 82  2  0
 84 83  1  0
 84 79  2  0
 85 86  1  0
 86 87  1  0
 87 88  2  0
 89 88  1  0
 89 93  1  0
 90 89  2  0
 91 86  2  0
 91 90  1  0
 92 91  1  0
 94 95  1  0
 95 98  1  0
 95 97  1  0
 96 94  2  0
 99100  1  0
 99 74  1  0
101 99  1  0
M  ISO  4   6 101  17 101  64 100  72 100
M  END
>  <TORSDO>  (43) 
F 22

>  <SCORE>  (43) 
-13.208

>  <name>  (43) 
42

>  <ligand_id>  (43) 
42

>  <original_smiles>  (43) 
[H]c1c([H])c([H])c2c(c1[H])C([H])([H])C([H])([H])C([H])([H])C2([H])N([H])C(=O)C1([H])N(C(=O)C([H])(N([H])C(=O)C([H])(N([H])C([H])([H])[H])C([H])([H])[H])C(C([H])([H])[H])(C([H])([H])[H])C([H])([H])[H])C([H])([H])c2c([H])c(Oc3c([H])c([H])c(C4([H])C([H])([H])C([H])([H])[N+]([H])([H])C([H])(C([H])([H])C([H])([H])[H])C4([H])[H])c(C([H])([H])[N+]([H])([H])C([H])([H])C([H])([H])N([H])C(=O)N4C([H])([H])C([H])([H])C([H])([H])C([H])(n5nc(-c6c([H])c([H])c(Oc7c([H])c([H])c(F)c([H])c7F)c([H])c6[H])c(C(=O)N([H])[H])c5N([H])[H])C4([H])[H])c3[H])c([H])c([H])c2C1([H])[H]

>  <smiles>  (43) 
[H]c1c([H])c([H])c2c(c1[H])C([H])([H])C([H])([H])C([H])([H])C2([H])N([H])C(=O)C1([H])N(C(=O)C([H])(N([H])C(=O)C([H])(N([H])C([H])([H])[H])C([H])([H])[H])C(C([H])([H])[H])(C([H])([H])[H])C([H])([H])[H])C([H])([H])c2c([H])c(Oc3c([H])c([H])c(C4([H])C([H])([H])C([H])([H])[N+]([H])([H])C([H])(C([H])([H])C([H])([H])[H])C4([H])[H])c(C([H])([H])[N+]([H])([H])C([H])([H])C([H])([H])N([H])C(=O)N4C([H])([H])C([H])([H])C([H])([H])C([H])(n5nc(-c6c([H])c([H])c(Oc7c([H])c([H])c(F)c([H])c7F)c([H])c6[H])c(C(=O)N([H])[H])c5N([H])[H])C4([H])[H])c3[H])c([H])c([H])c2C1([H])[H]

$$$$
43:0:0
     RDKit          3D

 98107  0  0  1  0  0  0  0  0999 V2000
  -28.6810  -19.8530   20.1440 C   0  0  0  0  0  3  0  0  0  0  0  0
  -30.3110  -20.4510   18.0650 C   0  0  0  0  0  3  0  0  0  0  0  0
  -28.5200  -21.1160   19.5190 C   0  0  0  0  0  0  0  0  0  0  0  0
  -29.3950  -21.4830   18.4480 C   0  0  0  0  0  0  0  0  0  0  0  0
  -29.5920  -18.8940   19.6910 C   0  0  0  0  0  0  0  0  0  0  0  0
  -30.4140  -19.2020   18.6500 N   0  0  0  0  0  0  0  0  0  0  0  0
  -27.0920  -22.0520   21.4740 C   0  0  0  0  0  2  0  0  0  0  0  0
  -27.3720  -23.4200   19.3870 C   0  0  0  0  0  2  0  0  0  0  0  0
  -25.8130  -22.8320   21.8180 C   0  0  0  0  0  2  0  0  0  0  0  0
  -26.0670  -24.1610   19.7470 C   0  0  0  0  0  2  0  0  0  0  0  0
  -27.3200  -21.9820   19.9450 C   0  0  0  0  0  3  0  0  0  0  0  0
  -25.8450  -24.1830   21.2110 N   0  0  0  0  0  4  0  0  0  0  0  0
  -26.5780  -24.7220   21.6490 H   0  0  0  0  0  0  0  0  0  0  0  0
  -24.9680  -24.6430   21.4080 H   0  0  0  0  0  0  0  0  0  0  0  0
  -28.9110  -22.5100   16.1590 C   0  0  0  0  0  1  0  0  0  0  0  0
  -29.1700  -22.8450   17.6380 C   0  0  0  0  0  3  0  0  0  0  0  0
  -30.0240  -24.1920   17.7850 C   0  0  0  0  0  2  0  0  0  0  0  0
  -29.3180  -25.3100   18.7080 C   0  0  0  0  0  2  0  0  0  0  0  0
  -29.4830  -26.7810   18.5730 O   0  0  0  0  0  0  0  0  0  0  0  0
  -25.8020  -29.0040   24.3850 C   0  0  0  0  0  0  0  0  0  0  0  0
  -28.4390  -27.5530   19.1130 C   0  0  0  0  0  0  0  0  0  0  0  0
  -24.6710  -29.2150   22.2010 C   0  0  0  0  0  3  0  0  0  0  0  0
  -26.1610  -28.9420   20.1390 C   0  0  0  0  0  0  0  0  0  0  0  0
  -27.2280  -29.3510   22.3530 C   0  0  0  0  0  2  0  0  0  0  0  0
  -27.2980  -28.7780   20.9430 C   0  0  0  0  0  0  0  0  0  0  0  0
  -28.4470  -28.1020   20.4300 C   0  0  0  0  0  3  0  0  0  0  0  0
  -27.2910  -27.7880   18.3230 C   0  0  0  0  0  3  0  0  0  0  0  0
  -26.1620  -28.4580   18.8240 C   0  0  0  0  0  3  0  0  0  0  0  0
  -24.9630  -29.6510   20.7390 C   0  0  0  0  0  2  0  0  0  0  0  0
  -25.9160  -29.1630   23.0340 N   0  0  0  0  0  0  0  0  0  0  0  0
  -24.6940  -28.9330   24.9350 O   0  0  0  0  0  0  0  0  0  0  0  0
  -23.8960  -27.8750   22.1820 C   0  0  0  0  0  0  0  0  0  0  0  0
  -22.5970  -27.9360   21.8300 N   0  0  0  0  0  0  0  0  0  0  0  0
  -24.4640  -26.8110   22.4500 O   0  0  0  0  0  0  0  0  0  0  0  0
  -22.2160  -28.8410   21.5930 H   0  0  0  0  0  0  0  0  0  0  0  0
  -19.1920  -27.0140   21.0520 C   0  0  0  0  0  0  0  0  0  0  0  0
  -21.6750  -26.8010   21.7370 C   0  0  0  0  0  3  0  0  0  0  0  0
  -21.8490  -26.0350   20.4060 C   0  0  0  0  0  2  0  0  0  0  0  0
  -20.9490  -26.5800   19.2940 C   0  0  0  0  0  2  0  0  0  0  0  0
  -19.4860  -26.3930   19.6920 C   0  0  0  0  0  2  0  0  0  0  0  0
  -20.2230  -27.2220   22.0040 C   0  0  0  0  0  0  0  0  0  0  0  0
  -19.9060  -27.8330   23.2350 C   0  0  0  0  0  3  0  0  0  0  0  0
  -18.5860  -28.2140   23.5300 C   0  0  0  0  0  3  0  0  0  0  0  0
  -17.5640  -27.9880   22.5910 C   0  0  0  0  0  3  0  0  0  0  0  0
  -17.8680  -27.3940   21.3530 C   0  0  0  0  0  3  0  0  0  0  0  0
  -27.0650  -28.9240   25.3010 C   0  0  0  0  0  3  0  0  0  0  0  0
  -26.8310  -29.8180   26.4440 N   0  0  0  0  0  0  0  0  0  0  0  0
  -27.4200  -31.0070   26.6120 C   0  0  0  0  0  0  0  0  0  0  0  0
  -28.2750  -31.4500   25.8380 O   0  0  0  0  0  0  0  0  0  0  0  0
  -26.1020  -29.5440   27.0860 H   0  0  0  0  0  0  0  0  0  0  0  0
  -26.0420  -32.9700   27.3700 C   0  0  0  0  0  1  0  0  0  0  0  0
  -26.9890  -31.8500   27.8260 C   0  0  0  0  0  3  0  0  0  0  0  0
  -28.9260  -31.4320   29.2790 C   0  0  0  0  0  1  0  0  0  0  0  0
  -28.1270  -32.4300   28.5730 N   0  0  0  0  0  0  0  0  0  0  0  0
  -27.8010  -33.1120   29.2520 H   0  0  0  0  0  0  0  0  0  0  0  0
  -27.3850  -27.4590   25.7920 C   0  0  1  0  0  0  0  0  0  0  0  0
  -26.1710  -26.7360   26.4210 C   0  0  0  0  0  1  0  0  0  0  0  0
  -27.8950  -26.5880   24.6220 C   0  0  0  0  0  1  0  0  0  0  0  0
  -28.5200  -27.4940   26.8430 C   0  0  0  0  0  1  0  0  0  0  0  0
  -29.5560  -17.4980   20.4110 C   0  0  0  0  0  2  0  0  0  0  0  0
  -31.2240  -15.6510   20.9940 C   0  0  0  0  0  0  0  0  0  0  0  0
  -31.2790  -13.1810   21.1430 C   0  0  0  0  0  2  0  0  0  0  0  0
  -30.6700  -12.5920   19.8560 C   0  0  0  0  0  2  0  0  0  0  0  0
  -29.1390  -12.4560   19.9980 C   0  0  0  0  0  2  0  0  0  0  0  0
  -28.4680  -13.7450   20.5450 C   0  0  0  0  0  3  0  0  0  0  0  0
  -29.2240  -14.3010   21.7720 C   0  0  0  0  0  2  0  0  0  0  0  0
  -30.6200  -14.4820   21.3690 N   0  0  0  0  0  0  0  0  0  0  0  0
  -32.4490  -15.7460   20.9970 O   0  0  0  0  0  0  0  0  0  0  0  0
  -30.5580  -16.4500   20.1130 N   0  0  0  0  0  0  0  0  0  0  0  0
  -31.1680  -16.7810   19.3780 H   0  0  0  0  0  0  0  0  0  0  0  0
  -26.0360  -14.4760   20.9010 C   0  0  0  0  0  0  0  0  0  0  0  0
  -24.8800  -13.7600   21.0800 C   0  0  0  0  0  0  0  0  0  0  0  0
  -25.2660  -12.3870   21.1030 C   0  0  0  0  0  0  0  0  0  0  0  0
  -27.0490  -13.5370   20.8200 N   0  0  0  0  0  0  0  0  0  0  0  0
  -26.5840  -12.2760   21.0070 N   0  0  0  0  0  0  0  0  0  0  0  0
  -24.4480  -11.1670   21.1540 C   0  0  0  0  0  0  0  0  0  0  0  0
  -24.8120  -10.0660   21.9600 C   0  0  0  0  0  3  0  0  0  0  0  0
  -24.0010   -8.9130   22.0050 C   0  0  0  0  0  3  0  0  0  0  0  0
  -22.8120   -8.8510   21.2440 C   0  0  0  0  0  0  0  0  0  0  0  0
  -22.4640   -9.9400   20.4260 C   0  0  0  0  0  3  0  0  0  0  0  0
  -23.2740  -11.0870   20.3770 C   0  0  0  0  0  3  0  0  0  0  0  0
  -21.9750   -7.7620   21.2080 O   0  0  0  0  0  0  0  0  0  0  0  0
  -22.0410   -6.7720   22.1540 C   0  0  0  0  0  0  0  0  0  0  0  0
  -21.9240   -7.0520   23.5330 C   0  0  0  0  0  3  0  0  0  0  0  0
  -21.9280   -5.9960   24.4670 C   0  0  0  0  0  3  0  0  0  0  0  0
  -22.0380   -4.6650   24.0270 C   0  0  0  0  0  0  0  0  0  0  0  0
  -22.1490   -4.3840   22.6530 C   0  0  0  0  0  3  0  0  0  0  0  0
  -22.1470   -5.4350   21.7190 C   0  0  0  0  0  0  0  0  0  0  0  0
  -22.2330   -5.1590   20.3960 F   0  0  0  0  0  0  0  0  0  0  0  0
  -22.0330   -3.6490   24.9210 F   0  0  0  0  0  0  0  0  0  0  0  0
  -23.4890  -14.3190   21.1260 C   0  0  0  0  0  0  0  0  0  0  0  0
  -22.5980  -13.6790   21.8790 N   0  0  0  0  0  0  0  0  0  0  0  0
  -23.1930  -15.3540   20.5340 O   0  0  0  0  0  0  0  0  0  0  0  0
  -22.8460  -12.8390   22.3810 H   0  0  0  0  0  0  0  0  0  0  0  0
  -21.6550  -14.0370   21.9520 H   0  0  0  0  0  0  0  0  0  0  0  0
  -26.3010  -15.8330   20.7710 N   0  0  0  0  0  0  0  0  0  0  0  0
  -25.5590  -16.5240   20.7730 H   0  0  0  0  0  0  0  0  0  0  0  0
  -27.2080  -16.2220   20.5480 H   0  0  0  0  0  0  0  0  0  0  0  0
  2  4  2  0
  2  6  1  0
  3 11  1  0
  3  1  2  0
  4  3  1  0
  5  1  1  0
  5 60  1  0
  6  5  2  0
  7  9  1  0
  8 10  1  0
  8 11  1  0
 10 12  1  0
 11  7  1  0
 12 14  1  0
 12 13  1  0
 12  9  1  0
 16 15  1  0
 16 17  1  0
 16  4  1  0
 17 18  1  0
 19 18  1  0
 19 21  1  0
 20 31  2  0
 21 26  1  0
 22 32  1  0
 22 30  1  0
 23 29  1  0
 23 25  1  0
 24 30  1  0
 25 24  1  0
 26 25  2  0
 27 28  1  0
 27 21  2  0
 28 23  2  0
 29 22  1  0
 30 20  1  0
 32 34  2  0
 33 32  1  0
 35 33  1  0
 36 45  2  0
 36 41  1  0
 37 33  1  0
 37 41  1  0
 38 37  1  0
 39 40  1  0
 39 38  1  0
 40 36  1  0
 41 42  2  0
 42 43  1  0
 44 43  2  0
 45 44  1  0
 46 20  1  0
 46 56  1  0
 46 47  1  0
 47 48  1  0
 47 50  1  0
 48 52  1  0
 49 48  2  0
 52 51  1  0
 52 54  1  0
 54 55  1  0
 54 53  1  0
 56 57  1  1
 56 59  1  0
 58 56  1  0
 61 68  2  0
 61 67  1  0
 62 67  1  0
 63 64  1  0
 63 62  1  0
 65 64  1  0
 65 74  1  0
 65 66  1  0
 67 66  1  0
 69 60  1  0
 69 61  1  0
 70 69  1  0
 71 72  2  0
 72 73  1  0
 72 91  1  0
 73 76  1  0
 74 71  1  0
 74 75  1  0
 75 73  2  0
 76 77  1  0
 77 78  2  0
 79 78  1  0
 80 79  2  0
 81 80  1  0
 81 76  2  0
 82 79  1  0
 82 83  1  0
 83 84  1  0
 84 85  2  0
 86 85  1  0
 86 90  1  0
 87 86  2  0
 88 83  2  0
 88 87  1  0
 89 88  1  0
 91 92  1  0
 92 95  1  0
 92 94  1  0
 93 91  2  0
 96 97  1  0
 96 71  1  0
 98 96  1  0
M  ISO  4  18 101  19 101  61 100  69 100
M  END
>  <TORSDO>  (44) 
F 21

>  <SCORE>  (44) 
-4.942

>  <name>  (44) 
43

>  <ligand_id>  (44) 
43

>  <original_smiles>  (44) 
[H]c1nc(C([H])([H])N([H])C(=O)N2C([H])([H])C([H])([H])C([H])([H])C([H])(n3nc(-c4c([H])c([H])c(Oc5c([H])c([H])c(F)c([H])c5F)c([H])c4[H])c(C(=O)N([H])[H])c3N([H])[H])C2([H])[H])c([H])c(C2([H])C([H])([H])C([H])([H])[N+]([H])([H])C([H])([H])C2([H])[H])c1C([H])(C([H])([H])[H])C([H])([H])C([H])([H])Oc1c([H])c([H])c2c(c1[H])C([H])([H])N(C(=O)C([H])(N([H])C(=O)C([H])(N([H])C([H])([H])[H])C([H])([H])[H])C(C([H])([H])[H])(C([H])([H])[H])C([H])([H])[H])C([H])(C(=O)N([H])C1([H])c3c([H])c([H])c([H])c([H])c3C([H])([H])C([H])([H])C1([H])[H])C2([H])[H]

>  <smiles>  (44) 
[H]c1nc(C([H])([H])N([H])C(=O)N2C([H])([H])C([H])([H])C([H])([H])C([H])(n3nc(-c4c([H])c([H])c(Oc5c([H])c([H])c(F)c([H])c5F)c([H])c4[H])c(C(=O)N([H])[H])c3N([H])[H])C2([H])[H])c([H])c(C2([H])C([H])([H])C([H])([H])[N+]([H])([H])C([H])([H])C2([H])[H])c1C([H])(C([H])([H])[H])C([H])([H])C([H])([H])Oc1c([H])c([H])c2c(c1[H])C([H])([H])N(C(=O)C([H])(N([H])C(=O)C([H])(N([H])C([H])([H])[H])C([H])([H])[H])C(C([H])([H])[H])(C([H])([H])[H])C([H])([H])[H])C([H])(C(=O)N([H])C1([H])c3c([H])c([H])c([H])c([H])c3C([H])([H])C([H])([H])C1([H])[H])C2([H])[H]

$$$$
44:0:0
     RDKit          3D

 89 98  0  0  1  0  0  0  0  0999 V2000
  -29.3130  -20.8020   21.8270 C   0  0  0  0  0  2  0  0  0  0  0  0
  -29.9530  -20.7230   19.5640 C   0  0  0  0  0  2  0  0  0  0  0  0
  -28.5440  -22.2350   21.5720 C   0  0  0  0  0  2  0  0  0  0  0  0
  -29.1840  -22.1490   19.2970 C   0  0  0  0  0  2  0  0  0  0  0  0
  -29.4440  -19.6800   20.6800 C   0  0  0  0  0  3  0  0  0  0  0  0
  -29.0230  -23.2710   20.4400 C   0  0  0  0  0  3  0  0  0  0  0  0
  -30.3070  -18.1940   21.0310 C   0  0  0  0  0  2  0  0  0  0  0  0
  -30.7220  -15.4020   20.8460 C   0  0  0  0  0  0  0  0  0  0  0  0
  -30.7660  -12.9640   20.0490 C   0  0  0  0  0  2  0  0  0  0  0  0
  -29.9520  -12.6910   18.7630 C   0  0  0  0  0  2  0  0  0  0  0  0
  -28.4640  -12.4540   19.0850 C   0  0  0  0  0  2  0  0  0  0  0  0
  -27.9040  -13.4400   20.1410 C   0  0  0  0  0  3  0  0  0  0  0  0
  -28.8620  -13.6540   21.3290 C   0  0  0  0  0  2  0  0  0  0  0  0
  -30.1390  -14.1200   20.7600 N   0  0  0  0  0  0  0  0  0  0  0  0
  -31.9550  -15.4010   20.9470 O   0  0  0  0  0  0  0  0  0  0  0  0
  -30.0010  -16.6590   20.6130 N   0  0  0  0  0  0  0  0  0  0  0  0
  -25.4740  -13.9950   20.7030 C   0  0  0  0  0  0  0  0  0  0  0  0
  -24.3900  -13.2080   20.9670 C   0  0  0  0  0  0  0  0  0  0  0  0
  -24.8710  -11.8630   20.9620 C   0  0  0  0  0  0  0  0  0  0  0  0
  -26.5430  -13.1270   20.5450 N   0  0  0  0  0  0  0  0  0  0  0  0
  -26.1840  -11.8390   20.7700 N   0  0  0  0  0  0  0  0  0  0  0  0
  -24.1450  -10.5940   21.0690 C   0  0  0  0  0  0  0  0  0  0  0  0
  -24.4880   -9.6290   22.0410 C   0  0  0  0  0  3  0  0  0  0  0  0
  -23.7620   -8.4230   22.1380 C   0  0  0  0  0  3  0  0  0  0  0  0
  -22.6800   -8.1750   21.2610 C   0  0  0  0  0  0  0  0  0  0  0  0
  -22.3570   -9.1290   20.2800 C   0  0  0  0  0  3  0  0  0  0  0  0
  -23.0860  -10.3260   20.1810 C   0  0  0  0  0  3  0  0  0  0  0  0
  -21.9330   -7.0220   21.2680 O   0  0  0  0  0  0  0  0  0  0  0  0
  -21.7570   -6.2850   22.4110 C   0  0  0  0  0  0  0  0  0  0  0  0
  -21.1200   -6.8210   23.5520 C   0  0  0  0  0  3  0  0  0  0  0  0
  -20.8990   -6.0080   24.6810 C   0  0  0  0  0  3  0  0  0  0  0  0
  -21.3020   -4.6590   24.6680 C   0  0  0  0  0  0  0  0  0  0  0  0
  -21.9320   -4.1230   23.5310 C   0  0  0  0  0  3  0  0  0  0  0  0
  -22.1560   -4.9340   22.4040 C   0  0  0  0  0  0  0  0  0  0  0  0
  -22.7440   -4.4070   21.3040 F   0  0  0  0  0  0  0  0  0  0  0  0
  -21.0820   -3.8750   25.7490 F   0  0  0  0  0  0  0  0  0  0  0  0
  -22.9710  -13.6710   21.1140 C   0  0  0  0  0  0  0  0  0  0  0  0
  -22.1770  -12.9660   21.9110 N   0  0  0  0  0  0  0  0  0  0  0  0
  -22.5710  -14.6940   20.5590 O   0  0  0  0  0  0  0  0  0  0  0  0
  -22.5120  -12.1390   22.3830 H   0  0  0  0  0  0  0  0  0  0  0  0
  -21.2200  -13.2560   22.0530 H   0  0  0  0  0  0  0  0  0  0  0  0
  -25.6300  -15.3700   20.5550 N   0  0  0  0  0  0  0  0  0  0  0  0
  -24.8460  -16.0100   20.6110 H   0  0  0  0  0  0  0  0  0  0  0  0
  -26.4990  -15.8260   20.3150 H   0  0  0  0  0  0  0  0  0  0  0  0
  -28.9940  -17.6970   18.5070 C   0  0  0  0  0  2  0  0  0  0  0  0
  -29.1650  -16.2450   18.2130 C   0  0  0  0  0  2  0  0  0  0  0  0
  -28.9340  -16.6960   19.6530 C   0  0  0  0  0  3  0  0  0  0  0  0
  -28.1080  -24.7110   20.0890 C   0  0  0  0  0  2  0  0  0  0  0  0
  -28.3440  -26.2710   20.2860 O   0  0  0  0  0  0  0  0  0  0  0  0
  -24.5510  -31.9580   23.2180 C   0  0  0  0  0  0  0  0  0  0  0  0
  -27.2790  -27.2700   20.2020 C   0  0  0  0  0  0  0  0  0  0  0  0
  -23.4090  -30.5440   21.5550 C   0  0  0  0  0  3  0  0  0  0  0  0
  -24.9150  -29.0040   20.1420 C   0  0  0  0  0  0  0  0  0  0  0  0
  -25.9630  -30.8540   21.4330 C   0  0  0  0  0  2  0  0  0  0  0  0
  -26.0780  -29.4610   20.7720 C   0  0  0  0  0  0  0  0  0  0  0  0
  -27.2580  -28.6130   20.7820 C   0  0  0  0  0  3  0  0  0  0  0  0
  -26.0840  -26.9310   19.5290 C   0  0  0  0  0  3  0  0  0  0  0  0
  -24.9340  -27.7550   19.5020 C   0  0  0  0  0  3  0  0  0  0  0  0
  -23.6680  -29.8780   20.1760 C   0  0  0  0  0  2  0  0  0  0  0  0
  -24.6600  -31.1420   22.1230 N   0  0  0  0  0  0  0  0  0  0  0  0
  -23.4500  -32.2150   23.7310 O   0  0  0  0  0  0  0  0  0  0  0  0
  -22.7350  -29.5200   22.5040 C   0  0  0  0  0  0  0  0  0  0  0  0
  -21.4110  -29.3280   22.3640 N   0  0  0  0  0  0  0  0  0  0  0  0
  -23.4080  -28.8990   23.3310 O   0  0  0  0  0  0  0  0  0  0  0  0
  -20.9220  -29.8800   21.6740 H   0  0  0  0  0  0  0  0  0  0  0  0
  -18.0410  -28.0860   22.8570 C   0  0  0  0  0  0  0  0  0  0  0  0
  -20.5990  -28.3690   23.1200 C   0  0  0  0  0  3  0  0  0  0  0  0
  -20.7110  -26.9490   22.5190 C   0  0  0  0  0  2  0  0  0  0  0  0
  -19.6100  -26.6340   21.5020 C   0  0  0  0  0  2  0  0  0  0  0  0
  -18.2280  -26.7530   22.1530 C   0  0  0  0  0  2  0  0  0  0  0  0
  -19.1530  -28.8520   23.2980 C   0  0  0  0  0  0  0  0  0  0  0  0
  -18.9220  -30.0990   23.9190 C   0  0  0  0  0  3  0  0  0  0  0  0
  -17.6120  -30.5800   24.1020 C   0  0  0  0  0  3  0  0  0  0  0  0
  -16.5150  -29.8120   23.6760 C   0  0  0  0  0  3  0  0  0  0  0  0
  -16.7300  -28.5660   23.0600 C   0  0  0  0  0  3  0  0  0  0  0  0
  -25.8020  -32.6220   23.8680 C   0  0  0  0  0  3  0  0  0  0  0  0
  -26.2910  -31.8770   25.1730 C   0  0  1  0  0  0  0  0  0  0  0  0
  -25.1700  -31.6370   26.2100 C   0  0  0  0  0  1  0  0  0  0  0  0
  -26.9100  -30.5040   24.8250 C   0  0  0  0  0  1  0  0  0  0  0  0
  -27.4070  -32.7010   25.8570 C   0  0  0  0  0  1  0  0  0  0  0  0
  -25.4610  -34.0210   24.1770 N   0  0  0  0  0  0  0  0  0  0  0  0
  -25.7890  -35.0750   23.4180 C   0  0  0  0  0  0  0  0  0  0  0  0
  -26.4770  -34.9730   22.3990 O   0  0  0  0  0  0  0  0  0  0  0  0
  -24.8510  -34.1710   24.9660 H   0  0  0  0  0  0  0  0  0  0  0  0
  -24.0510  -36.8510   23.0170 C   0  0  0  0  0  1  0  0  0  0  0  0
  -25.2770  -36.4610   23.8590 C   0  0  0  0  0  3  0  0  0  0  0  0
  -27.3740  -37.3820   24.7460 C   0  0  0  0  0  1  0  0  0  0  0  0
  -26.3000  -37.5250   23.7660 N   0  0  0  0  0  0  0  0  0  0  0  0
  -25.8790  -38.4410   23.8880 H   0  0  0  0  0  0  0  0  0  0  0  0
  2  5  1  0
  3  1  1  0
  4  2  1  0
  4  6  1  0
  5  7  1  0
  5  1  1  0
  6 48  1  0
  6  3  1  0
  8 15  2  0
  9 14  1  0
 10 11  1  0
 10  9  1  0
 12 11  1  0
 12 20  1  0
 12 13  1  0
 14  8  1  0
 14 13  1  0
 16  8  1  0
 16  7  1  0
 17 18  2  0
 18 37  1  0
 19 18  1  0
 19 22  1  0
 20 17  1  0
 20 21  1  0
 21 19  2  0
 22 23  1  0
 23 24  2  0
 25 28  1  0
 25 24  1  0
 26 25  2  0
 27 26  1  0
 27 22  2  0
 28 29  1  0
 29 30  1  0
 30 31  2  0
 32 31  1  0
 32 36  1  0
 33 32  2  0
 34 29  2  0
 34 33  1  0
 35 34  1  0
 37 38  1  0
 38 41  1  0
 38 40  1  0
 39 37  2  0
 42 43  1  0
 42 17  1  0
 44 42  1  0
 45 47  1  0
 46 45  1  0
 46 47  1  0
 47 16  1  0
 48 49  1  0
 50 61  2  0
 51 49  1  0
 51 56  1  0
 52 60  1  0
 52 62  1  0
 53 59  1  0
 53 55  1  0
 54 60  1  0
 55 56  2  0
 55 54  1  0
 57 51  2  0
 58 57  1  0
 58 53  2  0
 59 52  1  0
 60 50  1  0
 62 64  2  0
 63 62  1  0
 65 63  1  0
 66 75  2  0
 66 71  1  0
 67 63  1  0
 67 71  1  0
 68 67  1  0
 69 70  1  0
 69 68  1  0
 70 66  1  0
 71 72  2  0
 72 73  1  0
 74 73  2  0
 75 74  1  0
 76 50  1  0
 76 81  1  0
 76 77  1  0
 77 80  1  1
 77 78  1  0
 79 77  1  0
 81 84  1  0
 82 86  1  0
 82 81  1  0
 83 82  2  0
 86 85  1  0
 88 86  1  0
 88 89  1  0
 88 87  1  0
M  ISO  4   8 100  16 100  48 101  49 101
M  END
>  <TORSDO>  (45) 
F 19

>  <SCORE>  (45) 
-14.235

>  <name>  (45) 
44

>  <ligand_id>  (45) 
44

>  <original_smiles>  (45) 
[H]c1c([H])c([H])c2c(c1[H])C([H])([H])C([H])([H])C([H])([H])C2([H])N([H])C(=O)C1([H])N(C(=O)C([H])(N([H])C(=O)C([H])(N([H])C([H])([H])[H])C([H])([H])[H])C(C([H])([H])[H])(C([H])([H])[H])C([H])([H])[H])C([H])([H])c2c([H])c(OC([H])([H])C3([H])C([H])([H])C([H])([H])C([H])(C([H])([H])N(C(=O)N4C([H])([H])C([H])([H])C([H])([H])C([H])(n5nc(-c6c([H])c([H])c(Oc7c([H])c([H])c(F)c([H])c7F)c([H])c6[H])c(C(=O)N([H])[H])c5N([H])[H])C4([H])[H])C4([H])C([H])([H])C4([H])[H])C([H])([H])C3([H])[H])c([H])c([H])c2C1([H])[H]

>  <smiles>  (45) 
[H]c1c([H])c([H])c2c(c1[H])C([H])([H])C([H])([H])C([H])([H])C2([H])N([H])C(=O)C1([H])N(C(=O)C([H])(N([H])C(=O)C([H])(N([H])C([H])([H])[H])C([H])([H])[H])C(C([H])([H])[H])(C([H])([H])[H])C([H])([H])[H])C([H])([H])c2c([H])c(OC([H])([H])C3([H])C([H])([H])C([H])([H])C([H])(C([H])([H])N(C(=O)N4C([H])([H])C([H])([H])C([H])([H])C([H])(n5nc(-c6c([H])c([H])c(Oc7c([H])c([H])c(F)c([H])c7F)c([H])c6[H])c(C(=O)N([H])[H])c5N([H])[H])C4([H])[H])C4([H])C([H])([H])C4([H])[H])C([H])([H])C3([H])[H])c([H])c([H])c2C1([H])[H]

$$$$
45:0:0
     RDKit          3D

 91 99  0  0  1  0  0  0  0  0999 V2000
  -30.7400  -19.0820   21.3620 C   0  0  0  0  0  3  0  0  0  0  0  0
  -28.6990  -18.8880   20.0790 C   0  0  0  0  0  3  0  0  0  0  0  0
  -30.4090  -20.4180   21.6820 C   0  0  0  0  0  3  0  0  0  0  0  0
  -28.3770  -20.2340   20.3870 C   0  0  0  0  0  3  0  0  0  0  0  0
  -29.9140  -18.3080   20.5170 C   0  0  0  0  0  0  0  0  0  0  0  0
  -29.2520  -21.0390   21.1620 C   0  0  0  0  0  0  0  0  0  0  0  0
  -30.2680  -16.9410   18.4040 C   0  0  0  0  0  1  0  0  0  0  0  0
  -30.4450  -16.9760   19.9380 C   0  0  0  0  0  3  0  0  0  0  0  0
  -30.6970  -14.5590   20.4420 C   0  0  0  0  0  0  0  0  0  0  0  0
  -30.3820  -12.3700   19.3810 C   0  0  0  0  0  2  0  0  0  0  0  0
  -29.4760  -12.5680   18.1490 C   0  0  0  0  0  2  0  0  0  0  0  0
  -27.9950  -12.4370   18.5490 C   0  0  0  0  0  2  0  0  0  0  0  0
  -27.6290  -13.2960   19.7920 C   0  0  0  0  0  3  0  0  0  0  0  0
  -28.6680  -13.1350   20.9270 C   0  0  0  0  0  2  0  0  0  0  0  0
  -29.9970  -13.3950   20.3650 N   0  0  0  0  0  0  0  0  0  0  0  0
  -31.8890  -14.6210   20.1380 O   0  0  0  0  0  0  0  0  0  0  0  0
  -29.9700  -15.7010   20.5280 N   0  0  0  0  0  0  0  0  0  0  0  0
  -28.9900  -15.6180   20.7410 H   0  0  0  0  0  0  0  0  0  0  0  0
  -25.2200  -13.8990   20.4590 C   0  0  0  0  0  0  0  0  0  0  0  0
  -24.1470  -13.1280   20.8180 C   0  0  0  0  0  0  0  0  0  0  0  0
  -24.6130  -11.7770   20.8150 C   0  0  0  0  0  0  0  0  0  0  0  0
  -26.2720  -13.0190   20.2550 N   0  0  0  0  0  0  0  0  0  0  0  0
  -25.9100  -11.7380   20.5320 N   0  0  0  0  0  0  0  0  0  0  0  0
  -23.8870  -10.5160   21.0070 C   0  0  0  0  0  0  0  0  0  0  0  0
  -24.3050   -9.5590   21.9590 C   0  0  0  0  0  3  0  0  0  0  0  0
  -23.5760   -8.3620   22.1380 C   0  0  0  0  0  3  0  0  0  0  0  0
  -22.4170   -8.1140   21.3650 C   0  0  0  0  0  0  0  0  0  0  0  0
  -22.0190   -9.0590   20.4030 C   0  0  0  0  0  3  0  0  0  0  0  0
  -22.7470  -10.2470   20.2220 C   0  0  0  0  0  3  0  0  0  0  0  0
  -21.6630   -6.9690   21.4530 O   0  0  0  0  0  0  0  0  0  0  0  0
  -21.5980   -6.2370   22.6110 C   0  0  0  0  0  0  0  0  0  0  0  0
  -21.1530   -6.8030   23.8260 C   0  0  0  0  0  3  0  0  0  0  0  0
  -21.0330   -5.9970   24.9760 C   0  0  0  0  0  3  0  0  0  0  0  0
  -21.3480   -4.6270   24.9120 C   0  0  0  0  0  0  0  0  0  0  0  0
  -21.7860   -4.0610   23.7020 C   0  0  0  0  0  3  0  0  0  0  0  0
  -21.9070   -4.8620   22.5550 C   0  0  0  0  0  0  0  0  0  0  0  0
  -22.3090   -4.3060   21.3860 F   0  0  0  0  0  0  0  0  0  0  0  0
  -21.2270   -3.8510   26.0160 F   0  0  0  0  0  0  0  0  0  0  0  0
  -22.7430  -13.6050   21.0540 C   0  0  0  0  0  0  0  0  0  0  0  0
  -21.9960  -12.9190   21.9110 N   0  0  0  0  0  0  0  0  0  0  0  0
  -22.3160  -14.6240   20.5130 O   0  0  0  0  0  0  0  0  0  0  0  0
  -22.3520  -12.0950   22.3720 H   0  0  0  0  0  0  0  0  0  0  0  0
  -21.0550  -13.2260   22.1120 H   0  0  0  0  0  0  0  0  0  0  0  0
  -25.3810  -15.2670   20.2670 N   0  0  0  0  0  0  0  0  0  0  0  0
  -24.6040  -15.9130   20.3600 H   0  0  0  0  0  0  0  0  0  0  0  0
  -26.2250  -15.7120   19.9310 H   0  0  0  0  0  0  0  0  0  0  0  0
  -29.0470  -22.3800   21.4710 O   0  0  0  0  0  0  0  0  0  0  0  0
  -28.3080  -23.2340   20.5750 C   0  0  0  0  0  2  0  0  0  0  0  0
  -27.7590  -24.4930   21.3050 C   0  0  0  0  0  2  0  0  0  0  0  0
  -28.6190  -25.7940   21.2980 C   0  0  0  0  0  2  0  0  0  0  0  0
  -28.4340  -26.6850   20.1800 O   0  0  0  0  0  0  0  0  0  0  0  0
  -24.6020  -31.9080   23.2330 C   0  0  0  0  0  0  0  0  0  0  0  0
  -27.2840  -27.4490   20.2030 C   0  0  0  0  0  0  0  0  0  0  0  0
  -23.4160  -30.4940   21.5870 C   0  0  0  0  0  3  0  0  0  0  0  0
  -24.8890  -28.9560   20.1790 C   0  0  0  0  0  0  0  0  0  0  0  0
  -25.9430  -30.8570   21.4120 C   0  0  0  0  0  2  0  0  0  0  0  0
  -26.0380  -29.4810   20.7840 C   0  0  0  0  0  0  0  0  0  0  0  0
  -27.2410  -28.7320   20.8000 C   0  0  0  0  0  3  0  0  0  0  0  0
  -26.1280  -26.9520   19.5720 C   0  0  0  0  0  3  0  0  0  0  0  0
  -24.9290  -27.6890   19.5710 C   0  0  0  0  0  3  0  0  0  0  0  0
  -23.6410  -29.8110   20.2100 C   0  0  0  0  0  2  0  0  0  0  0  0
  -24.6720  -31.1030   22.1350 N   0  0  0  0  0  0  0  0  0  0  0  0
  -23.5160  -32.1750   23.7640 O   0  0  0  0  0  0  0  0  0  0  0  0
  -22.7620  -29.4740   22.5450 C   0  0  0  0  0  0  0  0  0  0  0  0
  -21.4370  -29.2910   22.4130 N   0  0  0  0  0  0  0  0  0  0  0  0
  -23.4420  -28.8500   23.3630 O   0  0  0  0  0  0  0  0  0  0  0  0
  -20.9490  -29.8460   21.7230 H   0  0  0  0  0  0  0  0  0  0  0  0
  -18.0580  -28.1120   22.9120 C   0  0  0  0  0  0  0  0  0  0  0  0
  -20.6170  -28.3540   23.1810 C   0  0  0  0  0  3  0  0  0  0  0  0
  -20.7120  -26.9260   22.5970 C   0  0  0  0  0  2  0  0  0  0  0  0
  -19.6050  -26.6140   21.5850 C   0  0  0  0  0  2  0  0  0  0  0  0
  -18.2260  -26.7650   22.2310 C   0  0  0  0  0  2  0  0  0  0  0  0
  -19.1820  -28.8660   23.3440 C   0  0  0  0  0  0  0  0  0  0  0  0
  -18.9700  -30.1290   23.9390 C   0  0  0  0  0  3  0  0  0  0  0  0
  -17.6690  -30.6360   24.1100 C   0  0  0  0  0  3  0  0  0  0  0  0
  -16.5590  -29.8790   23.6940 C   0  0  0  0  0  3  0  0  0  0  0  0
  -16.7550  -28.6190   23.0990 C   0  0  0  0  0  3  0  0  0  0  0  0
  -25.8810  -32.5460   23.8590 C   0  0  0  0  0  3  0  0  0  0  0  0
  -25.5660  -33.9450   24.1800 N   0  0  0  0  0  0  0  0  0  0  0  0
  -25.9060  -34.9950   23.4200 C   0  0  0  0  0  0  0  0  0  0  0  0
  -26.5890  -34.8860   22.3970 O   0  0  0  0  0  0  0  0  0  0  0  0
  -24.9660  -34.1020   24.9760 H   0  0  0  0  0  0  0  0  0  0  0  0
  -24.1830  -36.7820   23.0270 C   0  0  0  0  0  1  0  0  0  0  0  0
  -25.4090  -36.3830   23.8640 C   0  0  0  0  0  3  0  0  0  0  0  0
  -27.5270  -37.2710   24.7340 C   0  0  0  0  0  1  0  0  0  0  0  0
  -26.4430  -37.4370   23.7690 N   0  0  0  0  0  0  0  0  0  0  0  0
  -26.0330  -38.3570   23.9060 H   0  0  0  0  0  0  0  0  0  0  0  0
  -26.3920  -31.7820   25.1410 C   0  0  1  0  0  0  0  0  0  0  0  0
  -25.2950  -31.5430   26.2030 C   0  0  0  0  0  1  0  0  0  0  0  0
  -26.9840  -30.4070   24.7560 C   0  0  0  0  0  1  0  0  0  0  0  0
  -27.5350  -32.5820   25.8070 C   0  0  0  0  0  1  0  0  0  0  0  0
  1  3  1  0
  2  4  2  0
  2  5  1  0
  4  6  1  0
  5  1  2  0
  6 47  1  0
  6  3  2  0
  8  7  1  0
  8  5  1  0
  8 17  1  0
  9 17  1  0
 10 15  1  0
 11 12  1  0
 11 10  1  0
 13 12  1  0
 13 22  1  0
 13 14  1  0
 15  9  1  0
 15 14  1  0
 16  9  2  0
 17 18  1  0
 19 20  2  0
 20 39  1  0
 21 20  1  0
 21 24  1  0
 22 19  1  0
 22 23  1  0
 23 21  2  0
 24 25  1  0
 25 26  2  0
 27 30  1  0
 27 26  1  0
 28 27  2  0
 29 28  1  0
 29 24  2  0
 30 31  1  0
 31 32  1  0
 32 33  2  0
 34 33  1  0
 34 38  1  0
 35 34  2  0
 36 31  2  0
 36 35  1  0
 37 36  1  0
 39 40  1  0
 40 43  1  0
 40 42  1  0
 41 39  2  0
 44 45  1  0
 44 19  1  0
 46 44  1  0
 48 49  1  0
 48 47  1  0
 50 49  1  0
 51 53  1  0
 51 50  1  0
 52 63  2  0
 53 58  1  0
 54 62  1  0
 54 64  1  0
 55 61  1  0
 55 57  1  0
 56 62  1  0
 57 58  2  0
 57 56  1  0
 59 53  2  0
 60 59  1  0
 60 55  2  0
 61 54  1  0
 62 52  1  0
 64 66  2  0
 65 64  1  0
 67 65  1  0
 68 77  2  0
 68 73  1  0
 69 65  1  0
 69 73  1  0
 70 69  1  0
 71 72  1  0
 71 70  1  0
 72 68  1  0
 73 74  2  0
 74 75  1  0
 76 75  2  0
 77 76  1  0
 78 52  1  0
 78 79  1  0
 78 88  1  0
 79 82  1  0
 80 84  1  0
 80 79  1  0
 81 80  2  0
 84 83  1  0
 86 84  1  0
 86 87  1  0
 86 85  1  0
 88 91  1  1
 88 89  1  0
 90 88  1  0
M  ISO  4   9 100  17 100  50 101  51 101
M  END
>  <TORSDO>  (46) 
F 21

>  <SCORE>  (46) 
-13.609

>  <name>  (46) 
45

>  <ligand_id>  (46) 
45

>  <original_smiles>  (46) 
[H]c1c([H])c([H])c2c(c1[H])C([H])([H])C([H])([H])C([H])([H])C2([H])N([H])C(=O)C1([H])N(C(=O)C([H])(N([H])C(=O)C([H])(N([H])C([H])([H])[H])C([H])([H])[H])C(C([H])([H])[H])(C([H])([H])[H])C([H])([H])[H])C([H])([H])c2c([H])c(OC([H])([H])C([H])([H])C([H])([H])Oc3c([H])c([H])c(C([H])(N([H])C(=O)N4C([H])([H])C([H])([H])C([H])([H])C([H])(n5nc(-c6c([H])c([H])c(Oc7c([H])c([H])c(F)c([H])c7F)c([H])c6[H])c(C(=O)N([H])[H])c5N([H])[H])C4([H])[H])C([H])([H])[H])c([H])c3[H])c([H])c([H])c2C1([H])[H]

>  <smiles>  (46) 
[H]c1c([H])c([H])c2c(c1[H])C([H])([H])C([H])([H])C([H])([H])C2([H])N([H])C(=O)C1([H])N(C(=O)C([H])(N([H])C(=O)C([H])(N([H])C([H])([H])[H])C([H])([H])[H])C(C([H])([H])[H])(C([H])([H])[H])C([H])([H])[H])C([H])([H])c2c([H])c(OC([H])([H])C([H])([H])C([H])([H])Oc3c([H])c([H])c(C([H])(N([H])C(=O)N4C([H])([H])C([H])([H])C([H])([H])C([H])(n5nc(-c6c([H])c([H])c(Oc7c([H])c([H])c(F)c([H])c7F)c([H])c6[H])c(C(=O)N([H])[H])c5N([H])[H])C4([H])[H])C([H])([H])[H])c([H])c3[H])c([H])c([H])c2C1([H])[H]

$$$$
46:0:0
     RDKit          3D

 94102  0  0  1  0  0  0  0  0999 V2000
  -29.8840  -23.0380   19.8490 C   0  0  0  0  0  3  0  0  0  0  0  0
  -28.2230  -21.8880   20.6440 C   0  0  0  0  0  3  0  0  0  0  0  0
  -30.2110  -21.6740   19.7880 C   0  0  0  0  0  0  0  0  0  0  0  0
  -29.1380  -20.8450   20.3030 C   0  0  0  0  0  0  0  0  0  0  0  0
  -28.6140  -23.2650   20.3630 N   0  0  0  0  0  0  0  0  0  0  0  0
  -32.7220  -21.6950   19.9860 C   0  0  0  0  0  1  0  0  0  0  0  0
  -31.6170  -21.4820   17.7150 C   0  0  0  0  0  1  0  0  0  0  0  0
  -31.5120  -21.1570   19.2120 C   0  0  0  0  0  3  0  0  0  0  0  0
  -27.7560  -24.6120   20.5670 C   0  0  0  0  0  2  0  0  0  0  0  0
  -28.2040  -26.0720   20.2850 O   0  0  0  0  0  0  0  0  0  0  0  0
  -24.6310  -31.9060   23.2330 C   0  0  0  0  0  0  0  0  0  0  0  0
  -27.1900  -27.1230   20.2290 C   0  0  0  0  0  0  0  0  0  0  0  0
  -23.4320  -30.5060   21.6010 C   0  0  0  0  0  3  0  0  0  0  0  0
  -24.8790  -28.9210   20.1840 C   0  0  0  0  0  0  0  0  0  0  0  0
  -25.9930  -30.7470   21.4470 C   0  0  0  0  0  2  0  0  0  0  0  0
  -26.0640  -29.3470   20.8000 C   0  0  0  0  0  0  0  0  0  0  0  0
  -27.2190  -28.4660   20.8070 C   0  0  0  0  0  3  0  0  0  0  0  0
  -25.9860  -26.8330   19.5470 C   0  0  0  0  0  3  0  0  0  0  0  0
  -24.8580  -27.6790   19.5400 C   0  0  0  0  0  3  0  0  0  0  0  0
  -23.6560  -29.8260   20.2260 C   0  0  0  0  0  2  0  0  0  0  0  0
  -24.7050  -31.0760   22.1480 N   0  0  0  0  0  0  0  0  0  0  0  0
  -23.5430  -32.1970   23.7560 O   0  0  0  0  0  0  0  0  0  0  0  0
  -22.7470  -29.5040   22.5670 C   0  0  0  0  0  0  0  0  0  0  0  0
  -21.4190  -29.3340   22.4390 N   0  0  0  0  0  0  0  0  0  0  0  0
  -23.4150  -28.8820   23.3970 O   0  0  0  0  0  0  0  0  0  0  0  0
  -20.9350  -29.8870   21.7450 H   0  0  0  0  0  0  0  0  0  0  0  0
  -18.0360  -28.1330   22.9440 C   0  0  0  0  0  0  0  0  0  0  0  0
  -20.5950  -28.4010   23.2140 C   0  0  0  0  0  3  0  0  0  0  0  0
  -20.6980  -26.9650   22.6520 C   0  0  0  0  0  2  0  0  0  0  0  0
  -19.6000  -26.6330   21.6370 C   0  0  0  0  0  2  0  0  0  0  0  0
  -18.2160  -26.7800   22.2760 C   0  0  0  0  0  2  0  0  0  0  0  0
  -19.1530  -28.9010   23.3700 C   0  0  0  0  0  0  0  0  0  0  0  0
  -18.9290  -30.1660   23.9560 C   0  0  0  0  0  3  0  0  0  0  0  0
  -17.6220  -30.6630   24.1190 C   0  0  0  0  0  3  0  0  0  0  0  0
  -16.5200  -29.8930   23.7080 C   0  0  0  0  0  3  0  0  0  0  0  0
  -16.7290  -28.6290   23.1260 C   0  0  0  0  0  3  0  0  0  0  0  0
  -25.9060  -32.5450   23.8590 C   0  0  0  0  0  3  0  0  0  0  0  0
  -25.5910  -33.9440   24.1940 N   0  0  0  0  0  0  0  0  0  0  0  0
  -25.9040  -35.0030   23.4340 C   0  0  0  0  0  0  0  0  0  0  0  0
  -26.5550  -34.9050   22.3910 O   0  0  0  0  0  0  0  0  0  0  0  0
  -25.0090  -34.0920   25.0050 H   0  0  0  0  0  0  0  0  0  0  0  0
  -24.1550  -36.7880   23.1290 C   0  0  0  0  0  1  0  0  0  0  0  0
  -25.4200  -36.3890   23.9060 C   0  0  0  0  0  3  0  0  0  0  0  0
  -27.5670  -37.2910   24.6830 C   0  0  0  0  0  1  0  0  0  0  0  0
  -26.4430  -37.4490   23.7660 N   0  0  0  0  0  0  0  0  0  0  0  0
  -26.0340  -38.3670   23.9210 H   0  0  0  0  0  0  0  0  0  0  0  0
  -26.4190  -31.7790   25.1400 C   0  0  1  0  0  0  0  0  0  0  0  0
  -25.3210  -31.5440   26.2050 C   0  0  0  0  0  1  0  0  0  0  0  0
  -27.0050  -30.4000   24.7620 C   0  0  0  0  0  1  0  0  0  0  0  0
  -27.5670  -32.5760   25.8030 C   0  0  0  0  0  1  0  0  0  0  0  0
  -28.9350  -19.1540   20.3690 C   0  0  0  0  0  3  0  0  0  0  0  0
  -27.9720  -18.8500   19.3060 N   0  0  0  0  0  4  0  0  0  0  0  0
  -27.6520  -17.9040   19.3700 H   0  0  0  0  0  0  0  0  0  0  0  0
  -28.3960  -18.9930   18.4070 H   0  0  0  0  0  0  0  0  0  0  0  0
  -27.1820  -19.4640   19.3820 H   0  0  0  0  0  0  0  0  0  0  0  0
  -30.0650  -17.8580   20.4100 C   0  0  0  0  0  2  0  0  0  0  0  0
  -30.4790  -15.0760   20.2910 C   0  0  0  0  0  0  0  0  0  0  0  0
  -30.3570  -12.7090   19.3500 C   0  0  0  0  0  2  0  0  0  0  0  0
  -29.4000  -12.6360   18.1370 C   0  0  0  0  0  2  0  0  0  0  0  0
  -27.9490  -12.4070   18.5990 C   0  0  0  0  0  2  0  0  0  0  0  0
  -27.5560  -13.3280   19.7840 C   0  0  0  0  0  3  0  0  0  0  0  0
  -28.6370  -13.3670   20.8860 C   0  0  0  0  0  2  0  0  0  0  0  0
  -29.8820  -13.8090   20.2470 N   0  0  0  0  0  0  0  0  0  0  0  0
  -31.6780  -15.1250   19.9970 O   0  0  0  0  0  0  0  0  0  0  0  0
  -29.7160  -16.2840   20.4610 N   0  0  0  0  0  0  0  0  0  0  0  0
  -28.7560  -16.0880   20.6950 H   0  0  0  0  0  0  0  0  0  0  0  0
  -25.1950  -13.8850   20.5870 C   0  0  0  0  0  0  0  0  0  0  0  0
  -24.1410  -13.1040   20.9680 C   0  0  0  0  0  0  0  0  0  0  0  0
  -24.6060  -11.7540   20.9050 C   0  0  0  0  0  0  0  0  0  0  0  0
  -26.2340  -13.0140   20.3100 N   0  0  0  0  0  0  0  0  0  0  0  0
  -25.8910  -11.7250   20.5680 N   0  0  0  0  0  0  0  0  0  0  0  0
  -23.8840  -10.4890   21.0890 C   0  0  0  0  0  0  0  0  0  0  0  0
  -24.3320   -9.5070   22.0010 C   0  0  0  0  0  3  0  0  0  0  0  0
  -23.6080   -8.3080   22.1730 C   0  0  0  0  0  3  0  0  0  0  0  0
  -22.4220   -8.0820   21.4360 C   0  0  0  0  0  0  0  0  0  0  0  0
  -21.9930   -9.0510   20.5130 C   0  0  0  0  0  3  0  0  0  0  0  0
  -22.7170  -10.2420   20.3360 C   0  0  0  0  0  3  0  0  0  0  0  0
  -21.6690   -6.9360   21.5200 O   0  0  0  0  0  0  0  0  0  0  0  0
  -21.6340   -6.1790   22.6650 C   0  0  0  0  0  0  0  0  0  0  0  0
  -21.2030   -6.7140   23.8980 C   0  0  0  0  0  3  0  0  0  0  0  0
  -21.1190   -5.8830   25.0330 C   0  0  0  0  0  3  0  0  0  0  0  0
  -21.4540   -4.5200   24.9370 C   0  0  0  0  0  0  0  0  0  0  0  0
  -21.8770   -3.9850   23.7070 C   0  0  0  0  0  3  0  0  0  0  0  0
  -21.9640   -4.8120   22.5730 C   0  0  0  0  0  0  0  0  0  0  0  0
  -22.3520   -4.2870   21.3870 F   0  0  0  0  0  0  0  0  0  0  0  0
  -21.3650   -3.7200   26.0240 F   0  0  0  0  0  0  0  0  0  0  0  0
  -22.7490  -13.5760   21.2720 C   0  0  0  0  0  0  0  0  0  0  0  0
  -22.0380  -12.8670   22.1410 N   0  0  0  0  0  0  0  0  0  0  0  0
  -22.3020  -14.6080   20.7720 O   0  0  0  0  0  0  0  0  0  0  0  0
  -22.4140  -12.0320   22.5640 H   0  0  0  0  0  0  0  0  0  0  0  0
  -21.1050  -13.1620   22.3870 H   0  0  0  0  0  0  0  0  0  0  0  0
  -25.3510  -15.2580   20.4190 N   0  0  0  0  0  0  0  0  0  0  0  0
  -24.5740  -15.9010   20.5300 H   0  0  0  0  0  0  0  0  0  0  0  0
  -26.1590  -15.6760   19.9850 H   0  0  0  0  0  0  0  0  0  0  0  0
  1  5  1  0
  3  1  2  0
  3  4  1  0
  4 51  1  0
  4  2  2  0
  5  9  1  0
  5  2  1  0
  7  8  1  0
  8  3  1  0
  8  6  1  0
 10  9  1  0
 11 22  2  0
 12 10  1  0
 12 17  1  0
 13 21  1  0
 13 23  1  0
 14 20  1  0
 14 16  1  0
 15 21  1  0
 16 17  2  0
 16 15  1  0
 18 12  2  0
 19 18  1  0
 19 14  2  0
 20 13  1  0
 21 11  1  0
 23 25  2  0
 24 23  1  0
 26 24  1  0
 27 36  2  0
 27 32  1  0
 28 24  1  0
 28 32  1  0
 29 28  1  0
 30 31  1  0
 30 29  1  0
 31 27  1  0
 32 33  2  0
 33 34  1  0
 35 34  2  0
 36 35  1  0
 37 11  1  0
 37 38  1  0
 37 47  1  0
 38 41  1  0
 39 43  1  0
 39 38  1  0
 40 39  2  0
 43 42  1  0
 45 43  1  0
 45 46  1  0
 45 44  1  0
 47 50  1  1
 47 48  1  0
 49 47  1  0
 51 56  1  0
 52 53  1  0
 52 55  1  0
 52 51  1  0
 54 52  1  0
 56 65  1  0
 57 65  1  0
 58 63  1  0
 59 60  1  0
 59 58  1  0
 61 60  1  0
 61 70  1  0
 61 62  1  0
 63 57  1  0
 63 62  1  0
 64 57  2  0
 65 66  1  0
 67 68  2  0
 68 87  1  0
 69 68  1  0
 69 72  1  0
 70 71  1  0
 70 67  1  0
 71 69  2  0
 72 73  1  0
 73 74  2  0
 75 78  1  0
 75 74  1  0
 76 75  2  0
 77 76  1  0
 77 72  2  0
 78 79  1  0
 79 80  1  0
 80 81  2  0
 82 81  1  0
 82 86  1  0
 83 82  2  0
 84 79  2  0
 84 83  1  0
 85 84  1  0
 87 88  1  0
 88 91  1  0
 88 90  1  0
 89 87  2  0
 92 93  1  0
 92 67  1  0
 94 92  1  0
M  ISO  4   9 101  10 101  57 100  65 100
M  END
>  <TORSDO>  (47) 
F 21

>  <SCORE>  (47) 
-14.962

>  <name>  (47) 
46

>  <ligand_id>  (47) 
46

>  <original_smiles>  (47) 
[H]c1c([H])c([H])c2c(c1[H])C([H])([H])C([H])([H])C([H])([H])C2([H])N([H])C(=O)C1([H])N(C(=O)C([H])(N([H])C(=O)C([H])(N([H])C([H])([H])[H])C([H])([H])[H])C(C([H])([H])[H])(C([H])([H])[H])C([H])([H])[H])C([H])([H])c2c([H])c(OC([H])([H])n3c([H])c(C([H])(C([H])([H])[H])C([H])([H])[H])c(C([H])(C([H])([H])N([H])C(=O)N4C([H])([H])C([H])([H])C([H])([H])C([H])(n5nc(-c6c([H])c([H])c(Oc7c([H])c([H])c(F)c([H])c7F)c([H])c6[H])c(C(=O)N([H])[H])c5N([H])[H])C4([H])[H])[N+]([H])([H])[H])c3[H])c([H])c([H])c2C1([H])[H]

>  <smiles>  (47) 
[H]c1c([H])c([H])c2c(c1[H])C([H])([H])C([H])([H])C([H])([H])C2([H])N([H])C(=O)C1([H])N(C(=O)C([H])(N([H])C(=O)C([H])(N([H])C([H])([H])[H])C([H])([H])[H])C(C([H])([H])[H])(C([H])([H])[H])C([H])([H])[H])C([H])([H])c2c([H])c(OC([H])([H])n3c([H])c(C([H])(C([H])([H])[H])C([H])([H])[H])c(C([H])(C([H])([H])N([H])C(=O)N4C([H])([H])C([H])([H])C([H])([H])C([H])(n5nc(-c6c([H])c([H])c(Oc7c([H])c([H])c(F)c([H])c7F)c([H])c6[H])c(C(=O)N([H])[H])c5N([H])[H])C4([H])[H])[N+]([H])([H])[H])c3[H])c([H])c([H])c2C1([H])[H]

$$$$
47:0:0
     RDKit          3D

 93101  0  0  1  0  0  0  0  0999 V2000
  -28.9900  -21.3250   21.4650 C   0  0  0  0  0  3  0  0  0  0  0  0
  -30.0730  -22.7470   19.3920 C   0  0  0  0  0  3  0  0  0  0  0  0
  -28.6650  -22.7300   21.2830 C   0  0  0  0  0  0  0  0  0  0  0  0
  -30.4690  -21.3680   19.6320 C   0  0  0  0  0  0  0  0  0  0  0  0
  -29.1070  -23.4900   20.1470 C   0  0  0  0  0  0  0  0  0  0  0  0
  -29.8290  -20.5090   20.6130 C   0  0  0  0  0  0  0  0  0  0  0  0
  -27.7720  -23.4120   22.3170 C   0  0  0  0  0  1  0  0  0  0  0  0
  -31.4060  -20.1460   17.5720 C   0  0  0  0  0  1  0  0  0  0  0  0
  -31.7000  -20.9040   18.8620 C   0  0  0  0  0  2  0  0  0  0  0  0
  -30.1350  -18.4900   22.3290 C   0  0  0  0  0  1  0  0  0  0  0  0
  -29.8660  -18.8450   20.8340 C   0  0  0  0  0  3  0  0  0  0  0  0
  -32.0930  -17.7530   20.0620 C   0  0  0  0  0  1  0  0  0  0  0  0
  -30.5730  -17.6250   19.9310 C   0  0  0  0  0  3  0  0  0  0  0  0
  -30.8650  -14.9320   19.7890 C   0  0  0  0  0  0  0  0  0  0  0  0
  -30.6190  -12.6010   18.8910 C   0  0  0  0  0  2  0  0  0  0  0  0
  -29.6080  -12.6110   17.7250 C   0  0  0  0  0  2  0  0  0  0  0  0
  -28.1790  -12.4100   18.2620 C   0  0  0  0  0  2  0  0  0  0  0  0
  -27.8660  -13.3500   19.4550 C   0  0  0  0  0  3  0  0  0  0  0  0
  -28.9930  -13.3470   20.5140 C   0  0  0  0  0  2  0  0  0  0  0  0
  -30.2420  -13.6960   19.8280 N   0  0  0  0  0  0  0  0  0  0  0  0
  -31.9940  -14.9840   19.2950 O   0  0  0  0  0  0  0  0  0  0  0  0
  -30.1860  -16.1150   20.1520 N   0  0  0  0  0  0  0  0  0  0  0  0
  -29.2770  -15.9690   20.5740 H   0  0  0  0  0  0  0  0  0  0  0  0
  -25.5720  -13.9550   20.4090 C   0  0  0  0  0  0  0  0  0  0  0  0
  -24.5150  -13.1860   20.8350 C   0  0  0  0  0  0  0  0  0  0  0  0
  -24.9440  -11.8310   20.7120 C   0  0  0  0  0  0  0  0  0  0  0  0
  -26.5660  -13.0630   20.0490 N   0  0  0  0  0  0  0  0  0  0  0  0
  -26.2020  -11.7770   20.2930 N   0  0  0  0  0  0  0  0  0  0  0  0
  -24.2060  -10.5730   20.9110 C   0  0  0  0  0  0  0  0  0  0  0  0
  -24.6230   -9.6120   21.8570 C   0  0  0  0  0  3  0  0  0  0  0  0
  -23.8830   -8.4270   22.0480 C   0  0  0  0  0  3  0  0  0  0  0  0
  -22.7170   -8.1900   21.2850 C   0  0  0  0  0  0  0  0  0  0  0  0
  -22.3160   -9.1400   20.3290 C   0  0  0  0  0  3  0  0  0  0  0  0
  -23.0580  -10.3180   20.1360 C   0  0  0  0  0  3  0  0  0  0  0  0
  -21.9530   -7.0550   21.3750 O   0  0  0  0  0  0  0  0  0  0  0  0
  -21.7870   -6.3920   22.5630 C   0  0  0  0  0  0  0  0  0  0  0  0
  -21.2160   -7.0180   23.6910 C   0  0  0  0  0  3  0  0  0  0  0  0
  -20.9970   -6.2820   24.8710 C   0  0  0  0  0  3  0  0  0  0  0  0
  -21.3440   -4.9200   24.9260 C   0  0  0  0  0  0  0  0  0  0  0  0
  -21.9140   -4.2940   23.8030 C   0  0  0  0  0  3  0  0  0  0  0  0
  -22.1290   -5.0260   22.6230 C   0  0  0  0  0  0  0  0  0  0  0  0
  -22.6560   -4.4110   21.5370 F   0  0  0  0  0  0  0  0  0  0  0  0
  -21.1320   -4.2090   26.0590 F   0  0  0  0  0  0  0  0  0  0  0  0
  -23.1600  -13.6880   21.2390 C   0  0  0  0  0  0  0  0  0  0  0  0
  -22.4970  -12.9850   22.1500 N   0  0  0  0  0  0  0  0  0  0  0  0
  -22.7040  -14.7350   20.7890 O   0  0  0  0  0  0  0  0  0  0  0  0
  -22.8810  -12.1340   22.5340 H   0  0  0  0  0  0  0  0  0  0  0  0
  -21.5950  -13.3080   22.4730 H   0  0  0  0  0  0  0  0  0  0  0  0
  -25.7580  -15.3240   20.2790 N   0  0  0  0  0  0  0  0  0  0  0  0
  -25.0280  -15.9960   20.4800 H   0  0  0  0  0  0  0  0  0  0  0  0
  -26.5850  -15.7560   19.8920 H   0  0  0  0  0  0  0  0  0  0  0  0
  -28.3670  -24.8320   19.5550 C   0  0  0  0  0  2  0  0  0  0  0  0
  -28.4930  -26.3110   19.9280 O   0  0  0  0  0  0  0  0  0  0  0  0
  -24.6750  -31.6710   22.9830 C   0  0  0  0  0  0  0  0  0  0  0  0
  -27.3830  -27.2210   19.7890 C   0  0  0  0  0  0  0  0  0  0  0  0
  -23.4750  -30.2990   21.3060 C   0  0  0  0  0  3  0  0  0  0  0  0
  -24.9660  -28.8350   19.8040 C   0  0  0  0  0  0  0  0  0  0  0  0
  -26.0030  -30.6780   21.1060 C   0  0  0  0  0  2  0  0  0  0  0  0
  -26.1250  -29.3180   20.4220 C   0  0  0  0  0  0  0  0  0  0  0  0
  -27.3230  -28.5180   20.4170 C   0  0  0  0  0  3  0  0  0  0  0  0
  -26.2020  -26.8460   19.0890 C   0  0  0  0  0  3  0  0  0  0  0  0
  -25.0160  -27.6130   19.1210 C   0  0  0  0  0  3  0  0  0  0  0  0
  -23.6950  -29.6630   19.9030 C   0  0  0  0  0  2  0  0  0  0  0  0
  -24.7320  -30.9050   21.8510 N   0  0  0  0  0  0  0  0  0  0  0  0
  -23.6020  -31.8900   23.5610 O   0  0  0  0  0  0  0  0  0  0  0  0
  -22.8700  -29.2330   22.2490 C   0  0  0  0  0  0  0  0  0  0  0  0
  -21.5440  -29.0220   22.1540 N   0  0  0  0  0  0  0  0  0  0  0  0
  -23.5920  -28.5990   23.0230 O   0  0  0  0  0  0  0  0  0  0  0  0
  -21.0160  -29.5920   21.5070 H   0  0  0  0  0  0  0  0  0  0  0  0
  -18.2270  -27.6900   22.6990 C   0  0  0  0  0  0  0  0  0  0  0  0
  -20.7810  -28.0300   22.9150 C   0  0  0  0  0  3  0  0  0  0  0  0
  -20.9130  -26.6210   22.2920 C   0  0  0  0  0  2  0  0  0  0  0  0
  -19.7960  -26.2960   21.2920 C   0  0  0  0  0  2  0  0  0  0  0  0
  -18.4290  -26.3740   21.9730 C   0  0  0  0  0  2  0  0  0  0  0  0
  -19.3280  -28.4760   23.1300 C   0  0  0  0  0  0  0  0  0  0  0  0
  -19.0830  -29.7120   23.7670 C   0  0  0  0  0  3  0  0  0  0  0  0
  -17.7660  -30.1580   23.9870 C   0  0  0  0  0  3  0  0  0  0  0  0
  -16.6790  -29.3690   23.5750 C   0  0  0  0  0  3  0  0  0  0  0  0
  -16.9090  -28.1390   22.9340 C   0  0  0  0  0  3  0  0  0  0  0  0
  -25.9590  -32.3210   23.5850 C   0  0  0  0  0  3  0  0  0  0  0  0
  -26.5550  -31.5130   24.8030 C   0  0  1  0  0  0  0  0  0  0  0  0
  -25.5150  -31.1900   25.8980 C   0  0  0  0  0  1  0  0  0  0  0  0
  -27.1770  -30.1760   24.3360 C   0  0  0  0  0  1  0  0  0  0  0  0
  -27.6880  -32.3220   25.4800 C   0  0  0  0  0  1  0  0  0  0  0  0
  -25.6080  -33.6850   24.0000 N   0  0  0  0  0  0  0  0  0  0  0  0
  -25.9060  -34.7950   23.3150 C   0  0  0  0  0  0  0  0  0  0  0  0
  -26.5750  -34.7880   22.2780 O   0  0  0  0  0  0  0  0  0  0  0  0
  -25.0200  -33.7610   24.8140 H   0  0  0  0  0  0  0  0  0  0  0  0
  -24.1350  -36.5720   23.0780 C   0  0  0  0  0  1  0  0  0  0  0  0
  -25.3790  -36.1320   23.8670 C   0  0  0  0  0  3  0  0  0  0  0  0
  -27.4670  -37.0320   24.7940 C   0  0  0  0  0  1  0  0  0  0  0  0
  -26.3750  -37.2230   23.8440 N   0  0  0  0  0  0  0  0  0  0  0  0
  -25.9290  -38.1110   24.0530 H   0  0  0  0  0  0  0  0  0  0  0  0
  2  4  2  0
  2  5  1  0
  3  1  1  0
  3  7  1  0
  4  6  1  0
  5  3  2  0
  6 11  1  0
  6  1  2  0
  8  9  1  0
  9  4  1  0
 11 10  1  0
 13 12  1  0
 13 22  1  0
 13 11  1  0
 14 20  1  0
 14 22  1  0
 15 20  1  0
 16 17  1  0
 16 15  1  0
 18 17  1  0
 18 27  1  0
 18 19  1  0
 20 19  1  0
 21 14  2  0
 22 23  1  0
 24 25  2  0
 25 44  1  0
 26 25  1  0
 26 29  1  0
 27 28  1  0
 27 24  1  0
 28 26  2  0
 29 30  1  0
 30 31  2  0
 32 35  1  0
 32 31  1  0
 33 32  2  0
 34 33  1  0
 34 29  2  0
 35 36  1  0
 36 41  2  0
 36 37  1  0
 37 38  2  0
 38 39  1  0
 39 43  1  0
 40 39  2  0
 41 40  1  0
 42 41  1  0
 44 45  1  0
 45 48  1  0
 45 47  1  0
 46 44  2  0
 49 24  1  0
 49 50  1  0
 51 49  1  0
 52 53  1  0
 52  5  1  0
 54 65  2  0
 55 53  1  0
 55 60  1  0
 56 64  1  0
 56 66  1  0
 57 63  1  0
 57 59  1  0
 58 64  1  0
 59 58  1  0
 60 59  2  0
 61 62  1  0
 61 55  2  0
 62 57  2  0
 63 56  1  0
 64 54  1  0
 66 68  2  0
 67 66  1  0
 69 67  1  0
 70 79  2  0
 70 75  1  0
 71 67  1  0
 71 75  1  0
 72 71  1  0
 73 74  1  0
 73 72  1  0
 74 70  1  0
 75 76  2  0
 76 77  1  0
 78 77  2  0
 79 78  1  0
 80 54  1  0
 80 85  1  0
 80 81  1  0
 81 84  1  1
 81 82  1  0
 83 81  1  0
 85 88  1  0
 86 90  1  0
 86 85  1  0
 87 86  2  0
 90 89  1  0
 92 90  1  0
 92 93  1  0
 92 91  1  0
M  ISO  4  14 100  22 100  52 101  53 101
M  END
>  <TORSDO>  (48) 
F 20

>  <SCORE>  (48) 
-12.353

>  <name>  (48) 
47

>  <ligand_id>  (48) 
47

>  <original_smiles>  (48) 
[H]c1c([H])c([H])c2c(c1[H])C([H])([H])C([H])([H])C([H])([H])C2([H])N([H])C(=O)C1([H])N(C(=O)C([H])(N([H])C(=O)C([H])(N([H])C([H])([H])[H])C([H])([H])[H])C(C([H])([H])[H])(C([H])([H])[H])C([H])([H])[H])C([H])([H])c2c([H])c(OC([H])([H])c3c([H])c(C([H])([H])C([H])([H])[H])c(C([H])(C([H])([H])[H])C([H])(N([H])C(=O)N4C([H])([H])C([H])([H])C([H])([H])C([H])(n5nc(-c6c([H])c([H])c(Oc7c([H])c([H])c(F)c([H])c7F)c([H])c6[H])c(C(=O)N([H])[H])c5N([H])[H])C4([H])[H])C([H])([H])[H])c([H])c3C([H])([H])[H])c([H])c([H])c2C1([H])[H]

>  <smiles>  (48) 
[H]c1c([H])c([H])c2c(c1[H])C([H])([H])C([H])([H])C([H])([H])C2([H])N([H])C(=O)C1([H])N(C(=O)C([H])(N([H])C(=O)C([H])(N([H])C([H])([H])[H])C([H])([H])[H])C(C([H])([H])[H])(C([H])([H])[H])C([H])([H])[H])C([H])([H])c2c([H])c(OC([H])([H])c3c([H])c(C([H])([H])C([H])([H])[H])c(C([H])(C([H])([H])[H])C([H])(N([H])C(=O)N4C([H])([H])C([H])([H])C([H])([H])C([H])(n5nc(-c6c([H])c([H])c(Oc7c([H])c([H])c(F)c([H])c7F)c([H])c6[H])c(C(=O)N([H])[H])c5N([H])[H])C4([H])[H])C([H])([H])[H])c([H])c3C([H])([H])[H])c([H])c([H])c2C1([H])[H]

$$$$
48:0:0
     RDKit          3D

 93101  0  0  1  0  0  0  0  0999 V2000
  -28.0750  -21.0920   18.5320 C   0  0  0  0  0  2  0  0  0  0  0  0
  -28.2490  -22.2440   17.5610 C   0  0  0  0  0  2  0  0  0  0  0  0
  -28.6100  -23.3150   19.7080 C   0  0  0  0  0  3  0  0  0  0  0  0
  -28.4280  -21.6070   19.9570 C   0  0  0  0  0  3  0  0  0  0  0  0
  -27.8440  -23.4900   18.3410 C   0  0  1  0  0  0  0  0  0  0  0  0
  -28.3120  -24.7360   17.5550 C   0  0  0  0  0  1  0  0  0  0  0  0
  -29.4810  -20.5270   20.4490 N   0  0  0  0  0  4  0  0  0  0  0  0
  -29.7970  -20.7940   21.3680 H   0  0  0  0  0  0  0  0  0  0  0  0
  -30.2870  -20.6150   19.8520 H   0  0  0  0  0  0  0  0  0  0  0  0
  -29.1110  -18.9710   20.5190 C   0  0  0  0  0  3  0  0  0  0  0  0
  -30.2120  -17.6960   20.3900 C   0  0  0  0  0  3  0  0  0  0  0  0
  -30.5760  -14.9840   20.1080 C   0  0  0  0  0  0  0  0  0  0  0  0
  -30.3730  -12.6880   19.0520 C   0  0  0  0  0  2  0  0  0  0  0  0
  -29.3800  -12.7300   17.8660 C   0  0  0  0  0  2  0  0  0  0  0  0
  -27.9360  -12.5210   18.3590 C   0  0  0  0  0  2  0  0  0  0  0  0
  -27.6080  -13.3740   19.6130 C   0  0  0  0  0  3  0  0  0  0  0  0
  -28.7200  -13.3070   20.6820 C   0  0  0  0  0  2  0  0  0  0  0  0
  -29.9630  -13.7370   20.0290 N   0  0  0  0  0  0  0  0  0  0  0  0
  -31.7510  -15.0640   19.7320 O   0  0  0  0  0  0  0  0  0  0  0  0
  -29.8340  -16.1580   20.4130 N   0  0  0  0  0  0  0  0  0  0  0  0
  -28.8800  -15.9680   20.6830 H   0  0  0  0  0  0  0  0  0  0  0  0
  -25.2670  -13.9270   20.4800 C   0  0  0  0  0  0  0  0  0  0  0  0
  -24.2250  -13.1400   20.8860 C   0  0  0  0  0  0  0  0  0  0  0  0
  -24.6880  -11.7920   20.7960 C   0  0  0  0  0  0  0  0  0  0  0  0
  -26.2960  -13.0580   20.1660 N   0  0  0  0  0  0  0  0  0  0  0  0
  -25.9610  -11.7670   20.4200 N   0  0  0  0  0  0  0  0  0  0  0  0
  -23.9730  -10.5240   20.9900 C   0  0  0  0  0  0  0  0  0  0  0  0
  -24.4230   -9.5540   21.9130 C   0  0  0  0  0  3  0  0  0  0  0  0
  -23.7070   -8.3520   22.0960 C   0  0  0  0  0  3  0  0  0  0  0  0
  -22.5240   -8.1100   21.3590 C   0  0  0  0  0  0  0  0  0  0  0  0
  -22.0920   -9.0670   20.4230 C   0  0  0  0  0  3  0  0  0  0  0  0
  -22.8090  -10.2610   20.2380 C   0  0  0  0  0  3  0  0  0  0  0  0
  -21.7780   -6.9600   21.4520 O   0  0  0  0  0  0  0  0  0  0  0  0
  -21.7210   -6.2320   22.6140 C   0  0  0  0  0  0  0  0  0  0  0  0
  -21.2270   -6.7840   23.8160 C   0  0  0  0  0  3  0  0  0  0  0  0
  -21.1230   -5.9790   24.9680 C   0  0  0  0  0  3  0  0  0  0  0  0
  -21.5000   -4.6230   24.9180 C   0  0  0  0  0  0  0  0  0  0  0  0
  -21.9830   -4.0710   23.7180 C   0  0  0  0  0  3  0  0  0  0  0  0
  -22.0910   -4.8710   22.5700 C   0  0  0  0  0  0  0  0  0  0  0  0
  -22.5390   -4.3300   21.4110 F   0  0  0  0  0  0  0  0  0  0  0  0
  -21.3890   -3.8480   26.0210 F   0  0  0  0  0  0  0  0  0  0  0  0
  -22.8420  -13.6060   21.2390 C   0  0  0  0  0  0  0  0  0  0  0  0
  -22.1570  -12.8830   22.1180 N   0  0  0  0  0  0  0  0  0  0  0  0
  -22.3810  -14.6450   20.7690 O   0  0  0  0  0  0  0  0  0  0  0  0
  -22.5410  -12.0400   22.5160 H   0  0  0  0  0  0  0  0  0  0  0  0
  -21.2310  -13.1770   22.3940 H   0  0  0  0  0  0  0  0  0  0  0  0
  -25.4180  -15.3020   20.3220 N   0  0  0  0  0  0  0  0  0  0  0  0
  -24.6490  -15.9460   20.4680 H   0  0  0  0  0  0  0  0  0  0  0  0
  -26.2290  -15.7420   19.9060 H   0  0  0  0  0  0  0  0  0  0  0  0
  -25.4770  -24.0100   17.2980 C   0  0  0  0  0  1  0  0  0  0  0  0
  -26.2780  -23.4570   18.4910 C   0  0  0  0  0  2  0  0  0  0  0  0
  -28.1750  -24.6680   20.6580 C   0  0  0  0  0  2  0  0  0  0  0  0
  -28.3810  -26.2020   20.3610 O   0  0  0  0  0  0  0  0  0  0  0  0
  -24.6590  -31.9060   23.2680 C   0  0  0  0  0  0  0  0  0  0  0  0
  -27.3170  -27.1800   20.3260 C   0  0  0  0  0  0  0  0  0  0  0  0
  -23.4960  -30.4870   21.6230 C   0  0  0  0  0  3  0  0  0  0  0  0
  -24.9820  -28.9170   20.2370 C   0  0  0  0  0  0  0  0  0  0  0  0
  -26.0520  -30.7730   21.4980 C   0  0  0  0  0  2  0  0  0  0  0  0
  -26.1490  -29.3720   20.8650 C   0  0  0  0  0  0  0  0  0  0  0  0
  -27.3190  -28.5180   20.8940 C   0  0  0  0  0  3  0  0  0  0  0  0
  -26.1320  -26.8450   19.6420 C   0  0  0  0  0  3  0  0  0  0  0  0
  -24.9870  -27.6660   19.6070 C   0  0  0  0  0  3  0  0  0  0  0  0
  -23.7490  -29.8040   20.2530 C   0  0  0  0  0  2  0  0  0  0  0  0
  -24.7540  -31.0770   22.1850 N   0  0  0  0  0  0  0  0  0  0  0  0
  -23.5630  -32.1830   23.7800 O   0  0  0  0  0  0  0  0  0  0  0  0
  -22.8130  -29.4780   22.5800 C   0  0  0  0  0  0  0  0  0  0  0  0
  -21.4890  -29.2880   22.4330 N   0  0  0  0  0  0  0  0  0  0  0  0
  -23.4790  -28.8670   23.4200 O   0  0  0  0  0  0  0  0  0  0  0  0
  -21.0060  -29.8300   21.7290 H   0  0  0  0  0  0  0  0  0  0  0  0
  -18.1140  -28.0630   22.9030 C   0  0  0  0  0  0  0  0  0  0  0  0
  -20.6650  -28.3510   23.2020 C   0  0  0  0  0  3  0  0  0  0  0  0
  -20.7900  -26.9140   22.6410 C   0  0  0  0  0  2  0  0  0  0  0  0
  -19.7050  -26.5730   21.6160 C   0  0  0  0  0  2  0  0  0  0  0  0
  -18.3120  -26.7110   22.2380 C   0  0  0  0  0  2  0  0  0  0  0  0
  -19.2190  -28.8400   23.3420 C   0  0  0  0  0  0  0  0  0  0  0  0
  -18.9790  -30.1030   23.9230 C   0  0  0  0  0  3  0  0  0  0  0  0
  -17.6660  -30.5920   24.0680 C   0  0  0  0  0  3  0  0  0  0  0  0
  -16.5760  -29.8120   23.6450 C   0  0  0  0  0  3  0  0  0  0  0  0
  -16.8000  -28.5500   23.0690 C   0  0  0  0  0  3  0  0  0  0  0  0
  -25.9220  -32.5610   23.9070 C   0  0  0  0  0  3  0  0  0  0  0  0
  -25.5930  -33.9600   24.2160 N   0  0  0  0  0  0  0  0  0  0  0  0
  -25.9150  -35.0080   23.4460 C   0  0  0  0  0  0  0  0  0  0  0  0
  -26.5860  -34.8990   22.4160 O   0  0  0  0  0  0  0  0  0  0  0  0
  -25.0020  -34.1190   25.0180 H   0  0  0  0  0  0  0  0  0  0  0  0
  -24.1750  -36.7870   23.0650 C   0  0  0  0  0  1  0  0  0  0  0  0
  -25.4140  -36.3970   23.8880 C   0  0  0  0  0  3  0  0  0  0  0  0
  -27.5280  -37.3160   24.7340 C   0  0  0  0  0  1  0  0  0  0  0  0
  -26.4380  -37.4600   23.7730 N   0  0  0  0  0  0  0  0  0  0  0  0
  -26.0200  -38.3760   23.9050 H   0  0  0  0  0  0  0  0  0  0  0  0
  -26.4170  -31.8150   25.2080 C   0  0  1  0  0  0  0  0  0  0  0  0
  -25.3020  -31.5810   26.2540 C   0  0  0  0  0  1  0  0  0  0  0  0
  -27.0230  -30.4370   24.8550 C   0  0  0  0  0  1  0  0  0  0  0  0
  -27.5420  -32.6340   25.8850 C   0  0  0  0  0  1  0  0  0  0  0  0
  1  4  1  0
  2  5  1  0
  2  1  1  0
  3  4  1  0
  3 52  1  0
  4  7  1  0
  5  6  1  6
  5 51  1  0
  5  3  1  0
  7 10  1  0
  7  8  1  0
  9  7  1  0
 11 20  1  0
 11 10  2  0
 12 20  1  0
 13 18  1  0
 14 15  1  0
 14 13  1  0
 16 15  1  0
 16 25  1  0
 16 17  1  0
 18 12  1  0
 18 17  1  0
 19 12  2  0
 20 21  1  0
 22 23  2  0
 23 42  1  0
 24 23  1  0
 24 27  1  0
 25 26  1  0
 25 22  1  0
 26 24  2  0
 27 28  1  0
 28 29  2  0
 30 33  1  0
 30 29  1  0
 31 30  2  0
 32 31  1  0
 32 27  2  0
 33 34  1  0
 34 35  1  0
 35 36  2  0
 37 36  1  0
 37 41  1  0
 38 37  2  0
 39 34  2  0
 39 38  1  0
 40 39  1  0
 42 43  1  0
 43 46  1  0
 43 45  1  0
 44 42  2  0
 47 48  1  0
 47 22  1  0
 49 47  1  0
 50 51  1  0
 53 52  1  0
 54 65  2  0
 55 53  1  0
 55 60  1  0
 56 64  1  0
 56 66  1  0
 57 63  1  0
 57 59  1  0
 58 64  1  0
 59 60  2  0
 59 58  1  0
 61 55  2  0
 62 61  1  0
 62 57  2  0
 63 56  1  0
 64 54  1  0
 66 68  2  0
 67 66  1  0
 69 67  1  0
 70 79  2  0
 70 75  1  0
 71 67  1  0
 71 75  1  0
 72 71  1  0
 73 74  1  0
 73 72  1  0
 74 70  1  0
 75 76  2  0
 76 77  1  0
 78 77  2  0
 79 78  1  0
 80 54  1  0
 80 81  1  0
 80 90  1  0
 81 84  1  0
 82 86  1  0
 82 81  1  0
 83 82  2  0
 86 85  1  0
 88 86  1  0
 88 89  1  0
 88 87  1  0
 90 93  1  1
 90 91  1  0
 92 90  1  0
M  ISO  4  12 100  20 100  52 101  53 101
M  END
>  <TORSDO>  (49) 
F 21

>  <SCORE>  (49) 
-13.944

>  <name>  (49) 
48

>  <ligand_id>  (49) 
48

>  <original_smiles>  (49) 
[H]c1c([H])c([H])c2c(c1[H])C([H])([H])C([H])([H])C([H])([H])C2([H])N([H])C(=O)C1([H])N(C(=O)C([H])(N([H])C(=O)C([H])(N([H])C([H])([H])[H])C([H])([H])[H])C(C([H])([H])[H])(C([H])([H])[H])C([H])([H])[H])C([H])([H])c2c([H])c(OC([H])([H])C3([H])C(C([H])([H])[H])(C([H])([H])C([H])([H])[H])C([H])([H])C([H])([H])C3([H])[N+]([H])([H])C([H])([H])C([H])([H])N([H])C(=O)N3C([H])([H])C([H])([H])C([H])([H])C([H])(n4nc(-c5c([H])c([H])c(Oc6c([H])c([H])c(F)c([H])c6F)c([H])c5[H])c(C(=O)N([H])[H])c4N([H])[H])C3([H])[H])c([H])c([H])c2C1([H])[H]

>  <smiles>  (49) 
[H]c1c([H])c([H])c2c(c1[H])C([H])([H])C([H])([H])C([H])([H])C2([H])N([H])C(=O)C1([H])N(C(=O)C([H])(N([H])C(=O)C([H])(N([H])C([H])([H])[H])C([H])([H])[H])C(C([H])([H])[H])(C([H])([H])[H])C([H])([H])[H])C([H])([H])c2c([H])c(OC([H])([H])C3([H])C(C([H])([H])[H])(C([H])([H])C([H])([H])[H])C([H])([H])C([H])([H])C3([H])[N+]([H])([H])C([H])([H])C([H])([H])N([H])C(=O)N3C([H])([H])C([H])([H])C([H])([H])C([H])(n4nc(-c5c([H])c([H])c(Oc6c([H])c([H])c(F)c([H])c6F)c([H])c5[H])c(C(=O)N([H])[H])c4N([H])[H])C3([H])[H])c([H])c([H])c2C1([H])[H]

$$$$
49:0:0
     RDKit          3D

102111  0  0  1  0  0  0  0  0999 V2000
  -30.8420  -25.2580   20.6680 C   0  0  0  0  0  2  0  0  0  0  0  0
  -30.4100  -24.9530   16.7720 C   0  0  0  0  0  2  0  0  0  0  0  0
  -30.6780  -24.5280   18.2290 C   0  0  0  0  0  2  0  0  0  0  0  0
  -31.0540  -26.3120   16.4500 C   0  0  0  0  0  2  0  0  0  0  0  0
  -30.9150  -26.9690   18.8260 C   0  0  0  0  0  2  0  0  0  0  0  0
  -30.2650  -25.6150   19.2590 C   0  0  2  0  0  0  0  0  0  0  0  0
  -30.6300  -27.3400   17.4210 N   0  0  0  0  0  4  0  0  0  0  0  0
  -29.6490  -27.5360   17.3020 H   0  0  0  0  0  0  0  0  0  0  0  0
  -31.1200  -28.1970   17.2130 H   0  0  0  0  0  0  0  0  0  0  0  0
  -28.7140  -25.7490   19.3240 C   0  0  0  0  0  2  0  0  0  0  0  0
  -28.4370  -26.7610   20.2680 O   0  0  0  0  0  0  0  0  0  0  0  0
  -24.7330  -31.8460   23.4060 C   0  0  0  0  0  0  0  0  0  0  0  0
  -27.2440  -27.4360   20.2260 C   0  0  0  0  0  0  0  0  0  0  0  0
  -23.4750  -30.5190   21.7330 C   0  0  0  0  0  3  0  0  0  0  0  0
  -24.8780  -28.9670   20.2710 C   0  0  0  0  0  0  0  0  0  0  0  0
  -26.0010  -30.8180   21.5300 C   0  0  0  0  0  2  0  0  0  0  0  0
  -26.0410  -29.4570   20.8730 C   0  0  0  0  0  0  0  0  0  0  0  0
  -27.2200  -28.6900   20.8620 C   0  0  0  0  0  3  0  0  0  0  0  0
  -26.0680  -26.9420   19.6160 C   0  0  0  0  0  3  0  0  0  0  0  0
  -24.8810  -27.7060   19.6440 C   0  0  0  0  0  3  0  0  0  0  0  0
  -23.6570  -29.8570   20.3380 C   0  0  0  0  0  2  0  0  0  0  0  0
  -24.7550  -31.0730   22.2830 N   0  0  0  0  0  0  0  0  0  0  0  0
  -23.6630  -32.1400   23.9590 O   0  0  0  0  0  0  0  0  0  0  0  0
  -22.7970  -29.5000   22.6750 C   0  0  0  0  0  0  0  0  0  0  0  0
  -21.4730  -29.3420   22.5260 N   0  0  0  0  0  0  0  0  0  0  0  0
  -23.4590  -28.8550   23.4920 O   0  0  0  0  0  0  0  0  0  0  0  0
  -21.0040  -29.9130   21.8360 H   0  0  0  0  0  0  0  0  0  0  0  0
  -18.0810  -28.1630   22.9100 C   0  0  0  0  0  0  0  0  0  0  0  0
  -20.6280  -28.4120   23.2720 C   0  0  0  0  0  3  0  0  0  0  0  0
  -20.7460  -26.9780   22.7050 C   0  0  0  0  0  2  0  0  0  0  0  0
  -19.6800  -26.6550   21.6540 C   0  0  0  0  0  2  0  0  0  0  0  0
  -18.2760  -26.8090   22.2480 C   0  0  0  0  0  2  0  0  0  0  0  0
  -19.1870  -28.9220   23.3760 C   0  0  0  0  0  0  0  0  0  0  0  0
  -18.9550  -30.1910   23.9510 C   0  0  0  0  0  3  0  0  0  0  0  0
  -17.6470  -30.6990   24.0680 C   0  0  0  0  0  3  0  0  0  0  0  0
  -16.5550  -29.9350   23.6200 C   0  0  0  0  0  3  0  0  0  0  0  0
  -16.7720  -28.6700   23.0460 C   0  0  0  0  0  3  0  0  0  0  0  0
  -26.0430  -32.4170   24.0350 C   0  0  0  0  0  3  0  0  0  0  0  0
  -25.7730  -33.8040   24.4360 N   0  0  0  0  0  0  0  0  0  0  0  0
  -26.1300  -34.8820   23.7250 C   0  0  0  0  0  0  0  0  0  0  0  0
  -26.7940  -34.8110   22.6870 O   0  0  0  0  0  0  0  0  0  0  0  0
  -25.1850  -33.9350   25.2460 H   0  0  0  0  0  0  0  0  0  0  0  0
  -24.4450  -36.7300   23.4650 C   0  0  0  0  0  1  0  0  0  0  0  0
  -25.6790  -36.2580   24.2500 C   0  0  0  0  0  3  0  0  0  0  0  0
  -27.8400  -37.0480   25.1090 C   0  0  0  0  0  1  0  0  0  0  0  0
  -26.7380  -37.2890   24.1830 N   0  0  0  0  0  0  0  0  0  0  0  0
  -26.3560  -38.2110   24.3780 H   0  0  0  0  0  0  0  0  0  0  0  0
  -26.5650  -31.5710   25.2610 C   0  0  1  0  0  0  0  0  0  0  0  0
  -25.4860  -31.3030   26.3360 C   0  0  0  0  0  1  0  0  0  0  0  0
  -27.1110  -30.2040   24.7850 C   0  0  0  0  0  1  0  0  0  0  0  0
  -27.7450  -32.3060   25.9410 C   0  0  0  0  0  1  0  0  0  0  0  0
  -30.4370  -23.9240   21.1670 N   0  0  0  0  0  4  0  0  0  0  0  0
  -29.4610  -23.9190   21.4150 H   0  0  0  0  0  0  0  0  0  0  0  0
  -30.5750  -23.2450   20.4370 H   0  0  0  0  0  0  0  0  0  0  0  0
  -31.1910  -23.4340   22.3340 C   0  0  0  0  0  2  0  0  0  0  0  0
  -29.8280  -20.0010   23.3520 C   0  0  0  0  0  3  0  0  0  0  0  0
  -30.0610  -21.3900   23.3450 C   0  0  0  0  0  3  0  0  0  0  0  0
  -30.4990  -19.1640   22.4400 C   0  0  0  0  0  3  0  0  0  0  0  0
  -31.6910  -21.0860   21.5540 C   0  0  0  0  0  3  0  0  0  0  0  0
  -30.9880  -21.9360   22.4350 C   0  0  0  0  0  0  0  0  0  0  0  0
  -31.4280  -19.7040   21.5210 C   0  0  0  0  0  0  0  0  0  0  0  0
  -32.0930  -18.9740   20.5610 O   0  0  0  0  0  0  0  0  0  0  0  0
  -31.5730  -17.7060   20.1790 C   0  0  0  0  0  2  0  0  0  0  0  0
  -32.0630  -16.6070   21.1400 C   0  0  0  0  0  2  0  0  0  0  0  0
  -31.7670  -14.4630   19.9170 C   0  0  0  0  0  0  0  0  0  0  0  0
  -31.1920  -12.3530   18.7780 C   0  0  0  0  0  2  0  0  0  0  0  0
  -30.2130  -12.5920   17.6130 C   0  0  0  0  0  2  0  0  0  0  0  0
  -28.7550  -12.5910   18.1160 C   0  0  0  0  0  2  0  0  0  0  0  0
  -28.5490  -13.5060   19.3530 C   0  0  0  0  0  3  0  0  0  0  0  0
  -29.6260  -13.2270   20.4240 C   0  0  0  0  0  2  0  0  0  0  0  0
  -30.9570  -13.3820   19.8000 N   0  0  0  0  0  0  0  0  0  0  0  0
  -32.7720  -14.6480   19.2250 O   0  0  0  0  0  0  0  0  0  0  0  0
  -31.4060  -15.3360   20.8630 N   0  0  0  0  0  0  0  0  0  0  0  0
  -30.5820  -15.1100   21.4020 H   0  0  0  0  0  0  0  0  0  0  0  0
  -26.2780  -14.3550   20.2280 C   0  0  0  0  0  0  0  0  0  0  0  0
  -25.1510  -13.6920   20.6390 C   0  0  0  0  0  0  0  0  0  0  0  0
  -25.4530  -12.2990   20.5340 C   0  0  0  0  0  0  0  0  0  0  0  0
  -27.2010  -13.3710   19.9030 N   0  0  0  0  0  0  0  0  0  0  0  0
  -26.7080  -12.1280   20.1410 N   0  0  0  0  0  0  0  0  0  0  0  0
  -24.6000  -11.1200   20.7300 C   0  0  0  0  0  0  0  0  0  0  0  0
  -24.9710  -10.0820   21.6130 C   0  0  0  0  0  3  0  0  0  0  0  0
  -24.1300   -8.9640   21.7980 C   0  0  0  0  0  3  0  0  0  0  0  0
  -22.9010   -8.8790   21.0990 C   0  0  0  0  0  0  0  0  0  0  0  0
  -22.5470   -9.9050   20.2060 C   0  0  0  0  0  3  0  0  0  0  0  0
  -23.3880  -11.0150   20.0210 C   0  0  0  0  0  3  0  0  0  0  0  0
  -22.0300   -7.8210   21.1970 O   0  0  0  0  0  0  0  0  0  0  0  0
  -21.9330   -7.0710   22.3420 C   0  0  0  0  0  0  0  0  0  0  0  0
  -21.6310   -7.6540   23.5920 C   0  0  0  0  0  3  0  0  0  0  0  0
  -21.4760   -6.8360   24.7300 C   0  0  0  0  0  3  0  0  0  0  0  0
  -21.6120   -5.4400   24.6170 C   0  0  0  0  0  0  0  0  0  0  0  0
  -21.9040   -4.8580   23.3710 C   0  0  0  0  0  3  0  0  0  0  0  0
  -22.0630   -5.6720   22.2370 C   0  0  0  0  0  0  0  0  0  0  0  0
  -22.3270   -5.1050   21.0340 F   0  0  0  0  0  0  0  0  0  0  0  0
  -21.4530   -4.6530   25.7070 F   0  0  0  0  0  0  0  0  0  0  0  0
  -23.8380  -14.3100   21.0170 C   0  0  0  0  0  0  0  0  0  0  0  0
  -23.1000  -13.6770   21.9210 N   0  0  0  0  0  0  0  0  0  0  0  0
  -23.4770  -15.3880   20.5450 O   0  0  0  0  0  0  0  0  0  0  0  0
  -23.4020  -12.8040   22.3280 H   0  0  0  0  0  0  0  0  0  0  0  0
  -22.2160  -14.0710   22.2100 H   0  0  0  0  0  0  0  0  0  0  0  0
  -26.5850  -15.7050   20.0860 N   0  0  0  0  0  0  0  0  0  0  0  0
  -25.9070  -16.4360   20.2740 H   0  0  0  0  0  0  0  0  0  0  0  0
  -27.4640  -16.0610   19.7330 H   0  0  0  0  0  0  0  0  0  0  0  0
  1 52  1  0
  2  3  1  0
  3  6  1  0
  4  2  1  0
  4  7  1  0
  5  6  1  0
  6 10  1  1
  6  1  1  0
  7  5  1  0
  8  7  1  0
  9  7  1  0
 10 11  1  0
 12 23  2  0
 13 11  1  0
 13 18  1  0
 14 22  1  0
 14 24  1  0
 15 21  1  0
 15 17  1  0
 16 22  1  0
 17 16  1  0
 18 17  2  0
 19 20  1  0
 19 13  2  0
 20 15  2  0
 21 14  1  0
 22 12  1  0
 24 26  2  0
 25 24  1  0
 27 25  1  0
 28 37  2  0
 28 33  1  0
 29 25  1  0
 29 33  1  0
 30 29  1  0
 31 32  1  0
 31 30  1  0
 32 28  1  0
 33 34  2  0
 34 35  1  0
 36 35  2  0
 37 36  1  0
 38 12  1  0
 38 39  1  0
 38 48  1  0
 39 42  1  0
 40 44  1  0
 40 39  1  0
 41 40  2  0
 44 43  1  0
 46 44  1  0
 46 47  1  0
 46 45  1  0
 48 51  1  1
 48 49  1  0
 50 48  1  0
 52 53  1  0
 52 55  1  0
 54 52  1  0
 55 60  1  0
 57 56  1  0
 58 56  2  0
 59 60  1  0
 60 57  2  0
 61 59  2  0
 61 58  1  0
 62 61  1  0
 63 62  1  0
 63 64  1  0
 65 73  1  0
 66 71  1  0
 67 68  1  0
 67 66  1  0
 69 68  1  0
 69 78  1  0
 69 70  1  0
 71 65  1  0
 71 70  1  0
 72 65  2  0
 73 64  1  0
 73 74  1  0
 75 76  2  0
 76 95  1  0
 77 76  1  0
 77 80  1  0
 78 79  1  0
 78 75  1  0
 79 77  2  0
 80 81  1  0
 81 82  2  0
 83 86  1  0
 83 82  1  0
 84 83  2  0
 85 84  1  0
 85 80  2  0
 86 87  1  0
 87 88  1  0
 88 89  2  0
 90 89  1  0
 90 94  1  0
 91 90  2  0
 92 87  2  0
 92 91  1  0
 93 92  1  0
 95 96  1  0
 96 99  1  0
 96 98  1  0
 97 95  2  0
100 75  1  0
100101  1  0
102100  1  0
M  ISO  4  10 101  11 101  65 100  73 100
M  END
>  <TORSDO>  (50) 
F 24

>  <SCORE>  (50) 
-9.037

>  <name>  (50) 
49

>  <ligand_id>  (50) 
49

>  <original_smiles>  (50) 
[H]c1c([H])c([H])c2c(c1[H])C([H])([H])C([H])([H])C([H])([H])C2([H])N([H])C(=O)C1([H])N(C(=O)C([H])(N([H])C(=O)C([H])(N([H])C([H])([H])[H])C([H])([H])[H])C(C([H])([H])[H])(C([H])([H])[H])C([H])([H])[H])C([H])([H])c2c([H])c(OC([H])([H])C3(C([H])([H])[N+]([H])([H])C([H])([H])c4c([H])c([H])c([H])c(OC([H])([H])C([H])([H])N([H])C(=O)N5C([H])([H])C([H])([H])C([H])([H])C([H])(n6nc(-c7c([H])c([H])c(Oc8c([H])c([H])c(F)c([H])c8F)c([H])c7[H])c(C(=O)N([H])[H])c6N([H])[H])C5([H])[H])c4[H])C([H])([H])C([H])([H])C([H])([H])[N+]([H])([H])C3([H])[H])c([H])c([H])c2C1([H])[H]

>  <smiles>  (50) 
[H]c1c([H])c([H])c2c(c1[H])C([H])([H])C([H])([H])C([H])([H])C2([H])N([H])C(=O)C1([H])N(C(=O)C([H])(N([H])C(=O)C([H])(N([H])C([H])([H])[H])C([H])([H])[H])C(C([H])([H])[H])(C([H])([H])[H])C([H])([H])[H])C([H])([H])c2c([H])c(OC([H])([H])C3(C([H])([H])[N+]([H])([H])C([H])([H])c4c([H])c([H])c([H])c(OC([H])([H])C([H])([H])N([H])C(=O)N5C([H])([H])C([H])([H])C([H])([H])C([H])(n6nc(-c7c([H])c([H])c(Oc8c([H])c([H])c(F)c([H])c8F)c([H])c7[H])c(C(=O)N([H])[H])c6N([H])[H])C5([H])[H])c4[H])C([H])([H])C([H])([H])C([H])([H])[N+]([H])([H])C3([H])[H])c([H])c([H])c2C1([H])[H]

$$$$
50:0:0
     RDKit          3D

 96104  0  0  1  0  0  0  0  0999 V2000
  -29.7200  -20.7760   20.8270 N   0  0  0  0  0  4  0  0  0  0  0  0
  -29.1930  -20.5100   21.6450 H   0  0  0  0  0  0  0  0  0  0  0  0
  -30.6720  -20.9370   21.1060 H   0  0  0  0  0  0  0  0  0  0  0  0
  -28.4670  -22.8950   21.5290 C   0  0  0  0  0  2  0  0  0  0  0  0
  -30.1090  -23.0220   19.6270 C   0  0  0  0  0  2  0  0  0  0  0  0
  -28.6100  -24.4590   21.4740 C   0  0  0  0  0  2  0  0  0  0  0  0
  -29.4940  -24.3760   19.1190 C   0  0  0  0  0  2  0  0  0  0  0  0
  -29.1080  -22.0830   20.3520 C   0  0  0  0  0  3  0  0  0  0  0  0
  -28.4610  -25.0660   20.0620 C   0  0  0  0  0  3  0  0  0  0  0  0
  -28.5680  -26.5390   20.0580 O   0  0  0  0  0  0  0  0  0  0  0  0
  -24.5360  -31.6520   23.0820 C   0  0  0  0  0  0  0  0  0  0  0  0
  -27.4060  -27.3100   19.9930 C   0  0  0  0  0  0  0  0  0  0  0  0
  -23.4280  -30.2520   21.3760 C   0  0  0  0  0  3  0  0  0  0  0  0
  -24.9770  -28.8030   19.9420 C   0  0  0  0  0  0  0  0  0  0  0  0
  -25.9520  -30.6860   21.2600 C   0  0  0  0  0  2  0  0  0  0  0  0
  -26.1040  -29.3310   20.5860 C   0  0  0  0  0  0  0  0  0  0  0  0
  -27.3220  -28.5950   20.5990 C   0  0  0  0  0  3  0  0  0  0  0  0
  -26.2660  -26.8380   19.3040 C   0  0  0  0  0  3  0  0  0  0  0  0
  -25.0590  -27.5620   19.2910 C   0  0  0  0  0  3  0  0  0  0  0  0
  -23.7010  -29.6170   19.9850 C   0  0  0  0  0  2  0  0  0  0  0  0
  -24.6550  -30.8790   21.9630 N   0  0  0  0  0  0  0  0  0  0  0  0
  -23.4310  -31.8720   23.5950 O   0  0  0  0  0  0  0  0  0  0  0  0
  -22.7920  -29.1810   22.2930 C   0  0  0  0  0  0  0  0  0  0  0  0
  -21.4680  -28.9860   22.1640 N   0  0  0  0  0  0  0  0  0  0  0  0
  -23.4850  -28.5300   23.0800 O   0  0  0  0  0  0  0  0  0  0  0  0
  -20.9650  -29.5720   21.5130 H   0  0  0  0  0  0  0  0  0  0  0  0
  -18.1060  -27.7480   22.6600 C   0  0  0  0  0  0  0  0  0  0  0  0
  -20.6700  -27.9990   22.8910 C   0  0  0  0  0  3  0  0  0  0  0  0
  -20.7650  -26.6060   22.2240 C   0  0  0  0  0  2  0  0  0  0  0  0
  -19.6360  -26.3420   21.2230 C   0  0  0  0  0  2  0  0  0  0  0  0
  -18.2730  -26.4340   21.9160 C   0  0  0  0  0  2  0  0  0  0  0  0
  -19.2330  -28.4890   23.1080 C   0  0  0  0  0  0  0  0  0  0  0  0
  -19.0250  -29.7180   23.7700 C   0  0  0  0  0  3  0  0  0  0  0  0
  -17.7240  -30.2090   23.9850 C   0  0  0  0  0  3  0  0  0  0  0  0
  -16.6120  -29.4650   23.5540 C   0  0  0  0  0  3  0  0  0  0  0  0
  -16.8040  -28.2360   22.9020 C   0  0  0  0  0  3  0  0  0  0  0  0
  -25.7780  -32.3180   23.7500 C   0  0  0  0  0  3  0  0  0  0  0  0
  -25.4130  -33.7000   24.0860 N   0  0  0  0  0  0  0  0  0  0  0  0
  -25.7450  -34.7740   23.3590 C   0  0  0  0  0  0  0  0  0  0  0  0
  -26.4620  -34.7060   22.3560 O   0  0  0  0  0  0  0  0  0  0  0  0
  -24.7810  -33.8230   24.8630 H   0  0  0  0  0  0  0  0  0  0  0  0
  -23.9770  -36.5170   22.9620 C   0  0  0  0  0  1  0  0  0  0  0  0
  -25.1980  -36.1390   23.8140 C   0  0  0  0  0  3  0  0  0  0  0  0
  -27.2680  -37.0800   24.7400 C   0  0  0  0  0  1  0  0  0  0  0  0
  -26.2000  -37.2260   23.7560 N   0  0  0  0  0  0  0  0  0  0  0  0
  -25.7580  -38.1300   23.8980 H   0  0  0  0  0  0  0  0  0  0  0  0
  -26.2810  -31.5470   25.0320 C   0  0  1  0  0  0  0  0  0  0  0  0
  -25.1640  -31.2570   26.0620 C   0  0  0  0  0  1  0  0  0  0  0  0
  -26.9240  -30.1960   24.6420 C   0  0  0  0  0  1  0  0  0  0  0  0
  -27.3810  -32.3720   25.7410 C   0  0  0  0  0  1  0  0  0  0  0  0
  -29.6460  -19.5320   19.9710 C   0  0  0  0  0  3  0  0  0  0  0  0
  -28.1600  -19.2610   19.6910 C   0  0  0  0  0  0  0  0  0  0  0  0
  -27.8120  -18.7940   18.4990 N   0  0  0  0  0  0  0  0  0  0  0  0
  -27.3170  -19.4820   20.5610 O   0  0  0  0  0  0  0  0  0  0  0  0
  -28.5000  -18.6420   17.7760 H   0  0  0  0  0  0  0  0  0  0  0  0
  -26.8390  -18.6100   18.2990 H   0  0  0  0  0  0  0  0  0  0  0  0
  -30.2850  -18.2290   20.6470 C   0  0  0  0  0  3  0  0  0  0  0  0
  -30.0370  -16.8000   19.9930 C   0  0  0  0  0  3  0  0  0  0  0  0
  -31.2820  -14.5670   19.9630 C   0  0  0  0  0  0  0  0  0  0  0  0
  -30.8680  -12.3290   18.9690 C   0  0  0  0  0  2  0  0  0  0  0  0
  -29.8950  -12.4430   17.7770 C   0  0  0  0  0  2  0  0  0  0  0  0
  -28.4340  -12.3810   18.2600 C   0  0  0  0  0  2  0  0  0  0  0  0
  -28.1620  -13.3320   19.4560 C   0  0  0  0  0  3  0  0  0  0  0  0
  -29.2420  -13.1870   20.5510 C   0  0  0  0  0  2  0  0  0  0  0  0
  -30.5510  -13.4140   19.9200 N   0  0  0  0  0  0  0  0  0  0  0  0
  -32.3870  -14.6570   19.4220 O   0  0  0  0  0  0  0  0  0  0  0  0
  -30.7630  -15.6460   20.6150 N   0  0  0  0  0  0  0  0  0  0  0  0
  -31.4490  -15.9920   21.2720 H   0  0  0  0  0  0  0  0  0  0  0  0
  -25.8630  -14.0970   20.3090 C   0  0  0  0  0  0  0  0  0  0  0  0
  -24.7540  -13.4010   20.7090 C   0  0  0  0  0  0  0  0  0  0  0  0
  -25.1000  -12.0200   20.6090 C   0  0  0  0  0  0  0  0  0  0  0  0
  -26.8190  -13.1450   19.9960 N   0  0  0  0  0  0  0  0  0  0  0  0
  -26.3660  -11.8860   20.2360 N   0  0  0  0  0  0  0  0  0  0  0  0
  -24.2800  -10.8130   20.7940 C   0  0  0  0  0  0  0  0  0  0  0  0
  -24.6680   -9.7860   21.6820 C   0  0  0  0  0  3  0  0  0  0  0  0
  -23.8520   -8.6470   21.8580 C   0  0  0  0  0  3  0  0  0  0  0  0
  -22.6350   -8.5300   21.1450 C   0  0  0  0  0  0  0  0  0  0  0  0
  -22.2650   -9.5450   20.2450 C   0  0  0  0  0  3  0  0  0  0  0  0
  -23.0800  -10.6750   20.0670 C   0  0  0  0  0  3  0  0  0  0  0  0
  -21.7910   -7.4490   21.2330 O   0  0  0  0  0  0  0  0  0  0  0  0
  -21.7140   -6.6870   22.3720 C   0  0  0  0  0  0  0  0  0  0  0  0
  -21.3730   -7.2480   23.6220 C   0  0  0  0  0  3  0  0  0  0  0  0
  -21.2380   -6.4170   24.7530 C   0  0  0  0  0  3  0  0  0  0  0  0
  -21.4350   -5.0280   24.6340 C   0  0  0  0  0  0  0  0  0  0  0  0
  -21.7670   -4.4670   23.3890 C   0  0  0  0  0  3  0  0  0  0  0  0
  -21.9050   -5.2950   22.2600 C   0  0  0  0  0  0  0  0  0  0  0  0
  -22.2080   -4.7470   21.0580 F   0  0  0  0  0  0  0  0  0  0  0  0
  -21.2960   -4.2290   25.7170 F   0  0  0  0  0  0  0  0  0  0  0  0
  -23.4170  -13.9830   21.0650 C   0  0  0  0  0  0  0  0  0  0  0  0
  -22.6870  -13.3320   21.9630 N   0  0  0  0  0  0  0  0  0  0  0  0
  -23.0310  -15.0460   20.5810 O   0  0  0  0  0  0  0  0  0  0  0  0
  -23.0120  -12.4730   22.3810 H   0  0  0  0  0  0  0  0  0  0  0  0
  -21.7890  -13.7000   22.2370 H   0  0  0  0  0  0  0  0  0  0  0  0
  -26.1270  -15.4560   20.1700 N   0  0  0  0  0  0  0  0  0  0  0  0
  -25.4210  -16.1610   20.3490 H   0  0  0  0  0  0  0  0  0  0  0  0
  -27.0000  -15.8410   19.8370 H   0  0  0  0  0  0  0  0  0  0  0  0
  1  3  1  0
  1  2  1  0
  5  8  1  0
  6  4  1  0
  7  5  1  0
  7  9  1  0
  8  1  1  0
  8  4  1  0
  9 10  1  0
  9  6  1  0
 11 22  2  0
 12 10  1  0
 12 17  1  0
 13 21  1  0
 13 23  1  0
 14 20  1  0
 14 16  1  0
 15 21  1  0
 16 17  2  0
 16 15  1  0
 18 12  2  0
 19 18  1  0
 19 14  2  0
 20 13  1  0
 21 11  1  0
 23 25  2  0
 24 23  1  0
 26 24  1  0
 27 36  2  0
 27 32  1  0
 28 24  1  0
 28 32  1  0
 29 28  1  0
 30 31  1  0
 30 29  1  0
 31 27  1  0
 32 33  2  0
 33 34  1  0
 35 34  2  0
 36 35  1  0
 37 11  1  0
 37 38  1  0
 37 47  1  0
 38 41  1  0
 39 43  1  0
 39 38  1  0
 40 39  2  0
 43 42  1  0
 45 43  1  0
 45 46  1  0
 45 44  1  0
 47 50  1  1
 47 48  1  0
 49 47  1  0
 51 57  1  0
 51  1  1  0
 52 51  1  0
 52 54  2  0
 53 52  1  0
 55 53  1  0
 56 53  1  0
 58 67  1  0
 58 57  2  0
 59 67  1  0
 60 65  1  0
 61 62  1  0
 61 60  1  0
 63 62  1  0
 63 72  1  0
 63 64  1  0
 65 59  1  0
 65 64  1  0
 66 59  2  0
 67 68  1  0
 69 70  2  0
 70 89  1  0
 71 70  1  0
 71 74  1  0
 72 73  1  0
 72 69  1  0
 73 71  2  0
 74 75  1  0
 75 76  2  0
 77 80  1  0
 77 76  1  0
 78 77  2  0
 79 78  1  0
 79 74  2  0
 80 81  1  0
 81 82  1  0
 82 83  2  0
 84 83  1  0
 84 88  1  0
 85 84  2  0
 86 81  2  0
 86 85  1  0
 87 86  1  0
 89 90  1  0
 90 93  1  0
 90 92  1  0
 91 89  2  0
 94 69  1  0
 94 95  1  0
 96 94  1  0
M  ISO  4   9 101  10 101  59 100  67 100
M  END
>  <TORSDO>  (51) 
F 21

>  <SCORE>  (51) 
-12.746

>  <name>  (51) 
50

>  <ligand_id>  (51) 
50

>  <original_smiles>  (51) 
[H]c1c([H])c([H])c2c(c1[H])C([H])([H])C([H])([H])C([H])([H])C2([H])N([H])C(=O)C1([H])N(C(=O)C([H])(N([H])C(=O)C([H])(N([H])C([H])([H])[H])C([H])([H])[H])C(C([H])([H])[H])(C([H])([H])[H])C([H])([H])[H])C([H])([H])c2c([H])c(OC3([H])C([H])([H])C([H])([H])C([H])([N+]([H])([H])C([H])(C(=O)N([H])[H])C([H])([H])C([H])([H])N([H])C(=O)N4C([H])([H])C([H])([H])C([H])([H])C([H])(n5nc(-c6c([H])c([H])c(Oc7c([H])c([H])c(F)c([H])c7F)c([H])c6[H])c(C(=O)N([H])[H])c5N([H])[H])C4([H])[H])C([H])([H])C3([H])[H])c([H])c([H])c2C1([H])[H]

>  <smiles>  (51) 
[H]c1c([H])c([H])c2c(c1[H])C([H])([H])C([H])([H])C([H])([H])C2([H])N([H])C(=O)C1([H])N(C(=O)C([H])(N([H])C(=O)C([H])(N([H])C([H])([H])[H])C([H])([H])[H])C(C([H])([H])[H])(C([H])([H])[H])C([H])([H])[H])C([H])([H])c2c([H])c(OC3([H])C([H])([H])C([H])([H])C([H])([N+]([H])([H])C([H])(C(=O)N([H])[H])C([H])([H])C([H])([H])N([H])C(=O)N4C([H])([H])C([H])([H])C([H])([H])C([H])(n5nc(-c6c([H])c([H])c(Oc7c([H])c([H])c(F)c([H])c7F)c([H])c6[H])c(C(=O)N([H])[H])c5N([H])[H])C4([H])[H])C([H])([H])C3([H])[H])c([H])c([H])c2C1([H])[H]

$$$$
51:0:0
     RDKit          3D

 99 97  0  0  1  0  0  0  0  0999 V2000
  -23.6310  -12.4580   22.0560 C   0  0  0  0  0 15  0  0  0  0  0  0
  -23.7080  -12.5420   19.4750 C   0  0  0  0  0 15  0  0  0  0  0  0
  -26.5190  -15.2580   19.7290 C   0  0  0  0  0 15  0  0  0  0  0  0
  -25.0960  -13.9800   22.8550 C   0  0  0  0  0  1  0  0  0  0  0  0
  -26.3710  -15.4740   21.7630 C   0  0  0  0  0 15  0  0  0  0  0  0
  -25.3010  -13.8520   18.6820 C   0  0  0  0  0  1  0  0  0  0  0  0
  -26.0750  -13.8490   17.4610 N   0  0  0  0  0  0  0  0  0  0  0  0
  -25.6430  -13.4230   16.6420 H   0  0  0  0  0  0  0  0  0  0  0  0
  -27.2180  -14.8880   17.1900 C   0  0  0  0  0  2  0  0  0  0  0  0
  -28.8310  -15.0490   17.7650 C   0  0  0  0  0  2  0  0  0  0  0  0
  -30.4010  -14.5430   19.8770 C   0  0  0  0  0  0  0  0  0  0  0  0
  -30.4090  -12.1900   19.4840 C   0  0  0  0  0  2  0  0  0  0  0  0
  -29.3050  -11.9230   18.4270 C   0  0  0  0  0  2  0  0  0  0  0  0
  -27.8900  -11.8670   19.0850 C   0  0  0  0  0  2  0  0  0  0  0  0
  -27.6240  -13.0310   20.1020 C   0  0  0  0  0  3  0  0  0  0  0  0
  -28.8110  -13.1360   21.0770 C   0  0  0  0  0  2  0  0  0  0  0  0
  -30.0170  -13.3340   20.2930 N   0  0  0  0  0  0  0  0  0  0  0  0
  -31.5960  -14.8710   19.8830 O   0  0  0  0  0  0  0  0  0  0  0  0
  -29.3670  -15.2060   19.2130 N   0  0  0  0  0  0  0  0  0  0  0  0
  -28.6020  -15.3020   19.8690 H   0  0  0  0  0  0  0  0  0  0  0  0
  -24.6050  -14.6660   20.6720 C   0  0  0  0  0  3  0  0  0  0  0  0
  -24.0470  -14.1540   20.8430 C   0  0  0  0  0  3  0  0  0  0  0  0
  -25.4130  -12.3470   20.8230 C   0  0  0  0  0  3  0  0  0  0  0  0
  -26.1190  -13.2790   20.7830 N   0  0  0  0  0  0  0  0  0  0  0  0
  -26.3650  -12.2090   21.4510 N   0  0  0  0  0  2  0  0  0  0  0  0
  -24.6850  -10.5930   20.8420 C   0  0  0  0  0  0  0  0  0  0  0  0
  -24.7220   -9.6440   21.9570 C   0  0  0  0  0  3  0  0  0  0  0  0
  -23.8610   -8.4820   22.2010 C   0  0  0  0  0  3  0  0  0  0  0  0
  -22.7100   -8.1670   21.4220 C   0  0  0  0  0  0  0  0  0  0  0  0
  -22.5310   -9.0540   20.3660 C   0  0  0  0  0  3  0  0  0  0  0  0
  -23.5300  -10.0340   20.0630 C   0  0  0  0  0  3  0  0  0  0  0  0
  -21.8420   -7.0650   21.5100 O   0  0  0  0  0  0  0  0  0  0  0  0
  -21.8010   -6.1620   22.5660 C   0  0  0  0  0  0  0  0  0  0  0  0
  -21.4900   -6.6050   23.8670 C   0  0  0  0  0  3  0  0  0  0  0  0
  -21.3840   -5.6900   24.9370 C   0  0  0  0  0  3  0  0  0  0  0  0
  -21.5920   -4.3200   24.7180 C   0  0  0  0  0  0  0  0  0  0  0  0
  -21.8620   -3.8540   23.4220 C   0  0  0  0  0  3  0  0  0  0  0  0
  -21.9460   -4.7680   22.3400 C   0  0  0  0  0  0  0  0  0  0  0  0
  -22.1790   -4.2760   21.0960 F   0  0  0  0  0  0  0  0  0  0  0  0
  -21.5300   -3.4530   25.7550 F   0  0  0  0  0  0  0  0  0  0  0  0
  -22.3970  -14.3770   20.9130 C   0  0  0  0  0  0  0  0  0  0  0  0
  -21.5360  -13.7660   21.7580 N   0  0  0  0  0  0  0  0  0  0  0  0
  -21.8700  -15.0390   20.0620 O   0  0  0  0  0  0  0  0  0  0  0  0
  -21.8860  -13.1950   22.5170 H   0  0  0  0  0  0  0  0  0  0  0  0
  -20.5480  -13.8210   21.5790 H   0  0  0  0  0  0  0  0  0  0  0  0
  -24.3140  -16.0500   20.3170 N   0  0  0  0  0  0  0  0  0  0  0  0
  -23.3310  -16.0990   20.0580 H   0  0  0  0  0  0  0  0  0  0  0  0
  -24.9510  -16.3940   19.6070 H   0  0  0  0  0  0  0  0  0  0  0  0
  -24.8600  -14.1990   24.3590 C   0  0  0  0  0  2  0  0  0  0  0  0
  -24.9340  -12.7720   26.4900 C   0  0  0  0  0  1  0  0  0  0  0  0
  -22.7220  -12.8900   25.2590 C   0  0  0  0  0  1  0  0  0  0  0  0
  -24.2810  -12.9380   25.1070 C   0  0  0  0  0  3  0  0  0  0  0  0
  -26.6500  -17.4710   22.0480 C   0  0  0  0  0  1  0  0  0  0  0  0
  -26.5010  -19.2140   21.3070 N   0  0  0  0  0  4  0  0  0  0  0  0
  -25.5010  -19.2790   21.2280 H   0  0  0  0  0  0  0  0  0  0  0  0
  -26.8090  -19.0960   20.3620 H   0  0  0  0  0  0  0  0  0  0  0  0
  -26.9080  -21.0440   21.6220 C   0  0  0  0  0  1  0  0  0  0  0  0
  -26.8230  -23.0030   20.8020 C   0  0  0  0  0 15  0  0  0  0  0  0
  -27.3800  -24.8450   20.8080 O   0  0  0  0  0  1  0  0  0  0  0  0
  -24.6990  -31.7860   23.1390 C   0  0  0  0  0  0  0  0  0  0  0  0
  -26.8070  -26.3170   20.4870 C   0  0  0  0  0  0  0  0  0  0  0  0
  -23.5120  -30.4030   21.4970 C   0  0  0  0  0  3  0  0  0  0  0  0
  -24.9070  -28.7030   20.1110 C   0  0  0  0  0  0  0  0  0  0  0  0
  -26.0880  -30.3920   21.4670 C   0  0  0  0  0  2  0  0  0  0  0  0
  -26.0670  -28.9240   20.8560 C   0  0  0  0  0  0  0  0  0  0  0  0
  -27.0070  -27.7530   21.0160 C   0  0  0  0  0  3  0  0  0  0  0  0
  -25.7510  -26.4180   19.5390 C   0  0  0  0  0  3  0  0  0  0  0  0
  -24.8240  -27.4900   19.4000 C   0  0  0  0  0  3  0  0  0  0  0  0
  -23.7680  -29.7380   20.1130 C   0  0  0  0  0  2  0  0  0  0  0  0
  -24.7930  -30.9040   22.0830 N   0  0  0  0  0  0  0  0  0  0  0  0
  -23.6000  -32.1150   23.6150 O   0  0  0  0  0  0  0  0  0  0  0  0
  -22.7770  -29.4220   22.4490 C   0  0  0  0  0  0  0  0  0  0  0  0
  -21.4400  -29.3090   22.3340 N   0  0  0  0  0  0  0  0  0  0  0  0
  -23.4110  -28.7720   23.2840 O   0  0  0  0  0  0  0  0  0  0  0  0
  -20.9700  -29.8720   21.6420 H   0  0  0  0  0  0  0  0  0  0  0  0
  -18.0220  -28.1450   22.8360 C   0  0  0  0  0  0  0  0  0  0  0  0
  -20.5920  -28.3830   23.1020 C   0  0  0  0  0  3  0  0  0  0  0  0
  -20.6790  -26.9470   22.5370 C   0  0  0  0  0  2  0  0  0  0  0  0
  -19.5820  -26.6350   21.5180 C   0  0  0  0  0  2  0  0  0  0  0  0
  -18.1920  -26.7940   22.1530 C   0  0  0  0  0  2  0  0  0  0  0  0
  -19.1510  -28.8930   23.2680 C   0  0  0  0  0  0  0  0  0  0  0  0
  -18.9470  -30.1490   23.8770 C   0  0  0  0  0  3  0  0  0  0  0  0
  -17.6510  -30.6660   24.0490 C   0  0  0  0  0  3  0  0  0  0  0  0
  -16.5350  -29.9180   23.6370 C   0  0  0  0  0  3  0  0  0  0  0  0
  -16.7210  -28.6590   23.0360 C   0  0  0  0  0  3  0  0  0  0  0  0
  -25.9500  -32.4400   23.8000 C   0  0  0  0  0  3  0  0  0  0  0  0
  -26.4560  -31.6570   25.0770 C   0  0  1  0  0  0  0  0  0  0  0  0
  -25.3570  -31.4000   26.1370 C   0  0  0  0  0  1  0  0  0  0  0  0
  -27.0600  -30.2890   24.6960 C   0  0  0  0  0  1  0  0  0  0  0  0
  -27.5990  -32.4480   25.7590 C   0  0  0  0  0  1  0  0  0  0  0  0
  -25.6010  -33.8250   24.1870 N   0  0  0  0  0  0  0  0  0  0  0  0
  -25.9090  -34.9290   23.4910 C   0  0  0  0  0  0  0  0  0  0  0  0
  -26.5820  -34.8890   22.4590 O   0  0  0  0  0  0  0  0  0  0  0  0
  -25.0030  -33.9300   24.9920 H   0  0  0  0  0  0  0  0  0  0  0  0
  -24.1430  -36.7160   23.2640 C   0  0  0  0  0  1  0  0  0  0  0  0
  -25.4090  -36.2920   24.0280 C   0  0  0  0  0  3  0  0  0  0  0  0
  -27.5550  -37.1750   24.8470 C   0  0  0  0  0  1  0  0  0  0  0  0
  -26.4220  -37.3730   23.9440 N   0  0  0  0  0  0  0  0  0  0  0  0
  -26.0050  -38.2790   24.1450 H   0  0  0  0  0  0  0  0  0  0  0  0
  4 49  1  0
  7  6  1  0
  8  7  1  0
  9  7  1  0
  9 10  1  0
 10 19  1  0
 11 18  2  0
 11 17  1  0
 12 17  1  0
 13 14  1  0
 13 12  1  0
 15 14  1  0
 15 24  1  0
 15 16  1  0
 17 16  1  0
 19 20  1  0
 19 11  1  0
 21 22  2  0
 22 41  1  0
 23 26  1  0
 23 25  1  0
 24 23  1  0
 24 25  1  0
 26 27  1  0
 27 28  2  0
 29 32  1  0
 29 28  1  0
 30 29  2  0
 31 30  1  0
 31 26  2  0
 32 33  1  0
 33 34  1  0
 34 35  2  0
 36 35  1  0
 36 40  1  0
 37 36  2  0
 38 33  2  0
 38 37  1  0
 39 38  1  0
 41 42  1  0
 42 44  1  0
 43 41  2  0
 45 42  1  0
 46 21  1  0
 47 46  1  0
 48 46  1  0
 49 52  1  0
 52 51  1  0
 52 50  1  0
 54 57  1  0
 54 53  1  0
 55 54  1  0
 56 54  1  0
 60 71  2  0
 61 59  1  0
 61 66  1  0
 62 70  1  0
 62 72  1  0
 63 69  1  0
 63 65  1  0
 64 70  1  0
 65 66  2  0
 65 64  1  0
 67 61  2  0
 68 67  1  0
 68 63  2  0
 69 62  1  0
 70 60  1  0
 72 74  2  0
 73 72  1  0
 75 73  1  0
 76 85  2  0
 76 81  1  0
 77 73  1  0
 77 81  1  0
 78 77  1  0
 79 80  1  0
 79 78  1  0
 80 76  1  0
 81 82  2  0
 82 83  1  0
 84 83  2  0
 85 84  1  0
 86 60  1  0
 86 91  1  0
 86 87  1  0
 87 90  1  1
 87 88  1  0
 89 87  1  0
 91 94  1  0
 92 96  1  0
 92 91  1  0
 93 92  2  0
 96 95  1  0
 98 96  1  0
 98 99  1  0
 98 97  1  0
M  ISO  4  11 100  19 100  58 101  59 101
M  END
>  <TORSDO>  (52) 
F 25

>  <SCORE>  (52) 
44.753

>  <name>  (52) 
51

>  <ligand_id>  (52) 
51

>  <original_smiles>  (52) 
[H]c1c([H])c([H])c2c(c1[H])C([H])([H])C([H])([H])C([H])([H])C2([H])N([H])C(=O)C1([H])N(C(=O)C([H])(N([H])C(=O)C([H])(N([H])C([H])([H])[H])C([H])([H])[H])C(C([H])([H])[H])(C([H])([H])[H])C([H])([H])[H])C([H])([H])c2c([H])c(OC([H])([H])C([H])([H])[N+]([H])([H])C([H])([H])c3c([H])c(N([H])C([H])([H])C([H])([H])N([H])C(=O)N4C([H])([H])C([H])([H])C([H])([H])C([H])(n5nc(-c6c([H])c([H])c(Oc7c([H])c([H])c(F)c([H])c7F)c([H])c6[H])c(C(=O)N([H])[H])c5N([H])[H])C4([H])[H])c([H])c([H])c3C([H])([H])C([H])(C([H])([H])[H])C([H])([H])[H])c([H])c([H])c2C1([H])[H]

>  <smiles>  (52) 
[H]c1c([H])c([H])c2c(c1[H])C([H])([H])C([H])([H])C([H])([H])C2([H])N([H])C(=O)C1([H])N(C(=O)C([H])(N([H])C(=O)C([H])(N([H])C([H])([H])[H])C([H])([H])[H])C(C([H])([H])[H])(C([H])([H])[H])C([H])([H])[H])C([H])([H])c2c([H])c(OC([H])([H])C([H])([H])[N+]([H])([H])C([H])([H])c3c([H])c(N([H])C([H])([H])C([H])([H])N([H])C(=O)N4C([H])([H])C([H])([H])C([H])([H])C([H])(n5nc(-c6c([H])c([H])c(Oc7c([H])c([H])c(F)c([H])c7F)c([H])c6[H])c(C(=O)N([H])[H])c5N([H])[H])C4([H])[H])c([H])c([H])c3C([H])([H])C([H])(C([H])([H])[H])C([H])([H])[H])c([H])c([H])c2C1([H])[H]

$$$$
52:0:0
     RDKit          3D

 95104  0  0  1  0  0  0  0  0999 V2000
  -31.0180  -19.7820   20.4100 C   0  0  0  0  0  3  0  0  0  0  0  0
  -30.4450  -18.6000   19.8490 C   0  0  0  0  0  0  0  0  0  0  0  0
  -28.8020  -19.9790   18.9160 C   0  0  0  0  0  0  0  0  0  0  0  0
  -29.3800  -21.1700   19.4960 C   0  0  0  0  0  0  0  0  0  0  0  0
  -30.5050  -21.0410   20.2410 N   0  0  0  0  0  0  0  0  0  0  0  0
  -29.3290  -18.7200   19.0880 N   0  0  0  0  0  0  0  0  0  0  0  0
  -28.8040  -22.4740   19.3330 N   0  0  0  0  0  0  0  0  0  0  0  0
  -27.9520  -22.5000   18.7840 H   0  0  0  0  0  0  0  0  0  0  0  0
  -27.9030  -19.8240   16.5480 C   0  0  0  0  0  1  0  0  0  0  0  0
  -27.5530  -20.0210   18.0320 C   0  0  0  0  0  3  0  0  0  0  0  0
  -25.5950  -19.3080   19.6650 C   0  0  0  0  0  2  0  0  0  0  0  0
  -25.0360  -19.2730   18.2610 C   0  0  0  0  0  2  0  0  0  0  0  0
  -26.5080  -19.0150   18.4960 C   0  0  0  0  0  3  0  0  0  0  0  0
  -31.1050  -17.2020   20.1300 C   0  0  0  0  0  2  0  0  0  0  0  0
  -30.9730  -14.6950   19.8840 C   0  0  0  0  0  0  0  0  0  0  0  0
  -30.5450  -12.4770   18.8600 C   0  0  0  0  0  2  0  0  0  0  0  0
  -29.5420  -12.6240   17.6990 C   0  0  0  0  0  2  0  0  0  0  0  0
  -28.1000  -12.5080   18.2250 C   0  0  0  0  0  2  0  0  0  0  0  0
  -27.8400  -13.3940   19.4730 C   0  0  0  0  0  3  0  0  0  0  0  0
  -28.9680  -13.2640   20.5210 C   0  0  0  0  0  2  0  0  0  0  0  0
  -30.2380  -13.5400   19.8400 N   0  0  0  0  0  0  0  0  0  0  0  0
  -32.1330  -14.7070   19.4670 O   0  0  0  0  0  0  0  0  0  0  0  0
  -30.3670  -15.8880   20.1910 N   0  0  0  0  0  0  0  0  0  0  0  0
  -29.3950  -15.9030   20.4570 H   0  0  0  0  0  0  0  0  0  0  0  0
  -25.5330  -14.0450   20.3910 C   0  0  0  0  0  0  0  0  0  0  0  0
  -24.4660  -13.2970   20.8070 C   0  0  0  0  0  0  0  0  0  0  0  0
  -24.8720  -11.9310   20.6970 C   0  0  0  0  0  0  0  0  0  0  0  0
  -26.5240  -13.1390   20.0510 N   0  0  0  0  0  0  0  0  0  0  0  0
  -26.1370  -11.8600   20.2980 N   0  0  0  0  0  0  0  0  0  0  0  0
  -24.1110  -10.6900   20.8940 C   0  0  0  0  0  0  0  0  0  0  0  0
  -24.5670   -9.6740   21.7630 C   0  0  0  0  0  3  0  0  0  0  0  0
  -23.8070   -8.4990   21.9520 C   0  0  0  0  0  3  0  0  0  0  0  0
  -22.5770   -8.3330   21.2710 C   0  0  0  0  0  0  0  0  0  0  0  0
  -22.1400   -9.3370   20.3890 C   0  0  0  0  0  3  0  0  0  0  0  0
  -22.9000  -10.5030   20.2000 C   0  0  0  0  0  3  0  0  0  0  0  0
  -21.7850   -7.2140   21.3710 O   0  0  0  0  0  0  0  0  0  0  0  0
  -21.7660   -6.4460   22.5080 C   0  0  0  0  0  0  0  0  0  0  0  0
  -21.4110   -6.9820   23.7640 C   0  0  0  0  0  3  0  0  0  0  0  0
  -21.3360   -6.1420   24.8940 C   0  0  0  0  0  3  0  0  0  0  0  0
  -21.6060   -4.7670   24.7670 C   0  0  0  0  0  0  0  0  0  0  0  0
  -21.9560   -4.2290   23.5160 C   0  0  0  0  0  3  0  0  0  0  0  0
  -22.0320   -5.0670   22.3880 C   0  0  0  0  0  0  0  0  0  0  0  0
  -22.3470   -4.5400   21.1810 F   0  0  0  0  0  0  0  0  0  0  0  0
  -21.5280   -3.9570   25.8490 F   0  0  0  0  0  0  0  0  0  0  0  0
  -23.1110  -13.8150   21.1920 C   0  0  0  0  0  0  0  0  0  0  0  0
  -22.4270  -13.1290   22.1020 N   0  0  0  0  0  0  0  0  0  0  0  0
  -22.6690  -14.8620   20.7210 O   0  0  0  0  0  0  0  0  0  0  0  0
  -22.7990  -12.2820   22.5050 H   0  0  0  0  0  0  0  0  0  0  0  0
  -21.5200  -13.4570   22.4010 H   0  0  0  0  0  0  0  0  0  0  0  0
  -25.7380  -15.4150   20.2520 N   0  0  0  0  0  0  0  0  0  0  0  0
  -25.0080  -16.0910   20.4450 H   0  0  0  0  0  0  0  0  0  0  0  0
  -26.5830  -15.8380   19.8910 H   0  0  0  0  0  0  0  0  0  0  0  0
  -29.3320  -23.8220   19.7270 C   0  0  0  0  0  2  0  0  0  0  0  0
  -28.1980  -24.9420   19.8370 C   0  0  0  0  0  2  0  0  0  0  0  0
  -28.4770  -26.4060   19.8180 O   0  0  0  0  0  0  0  0  0  0  0  0
  -24.5400  -31.5670   23.0060 C   0  0  0  0  0  0  0  0  0  0  0  0
  -27.3510  -27.2480   19.7870 C   0  0  0  0  0  0  0  0  0  0  0  0
  -23.4090  -30.1990   21.2920 C   0  0  0  0  0  3  0  0  0  0  0  0
  -24.9330  -28.7770   19.8130 C   0  0  0  0  0  0  0  0  0  0  0  0
  -25.9370  -30.6210   21.1550 C   0  0  0  0  0  2  0  0  0  0  0  0
  -26.0760  -29.2770   20.4510 C   0  0  0  0  0  0  0  0  0  0  0  0
  -27.2900  -28.5230   20.4320 C   0  0  0  0  0  3  0  0  0  0  0  0
  -26.1910  -26.8260   19.0970 C   0  0  0  0  0  3  0  0  0  0  0  0
  -24.9930  -27.5590   19.1260 C   0  0  0  0  0  3  0  0  0  0  0  0
  -23.6630  -29.5990   19.8850 C   0  0  0  0  0  2  0  0  0  0  0  0
  -24.6460  -30.8110   21.8740 N   0  0  0  0  0  0  0  0  0  0  0  0
  -23.4410  -31.7790   23.5390 O   0  0  0  0  0  0  0  0  0  0  0  0
  -22.7800  -29.1120   22.1970 C   0  0  0  0  0  0  0  0  0  0  0  0
  -21.4500  -28.9370   22.0960 N   0  0  0  0  0  0  0  0  0  0  0  0
  -23.4830  -28.4330   22.9490 O   0  0  0  0  0  0  0  0  0  0  0  0
  -20.9400  -29.5390   21.4650 H   0  0  0  0  0  0  0  0  0  0  0  0
  -18.0870  -27.7170   22.6350 C   0  0  0  0  0  0  0  0  0  0  0  0
  -20.6550  -27.9460   22.8250 C   0  0  0  0  0  3  0  0  0  0  0  0
  -20.7260  -26.5630   22.1390 C   0  0  0  0  0  2  0  0  0  0  0  0
  -19.5830  -26.3210   21.1460 C   0  0  0  0  0  2  0  0  0  0  0  0
  -18.2280  -26.4220   21.8530 C   0  0  0  0  0  2  0  0  0  0  0  0
  -19.2260  -28.4400   23.0780 C   0  0  0  0  0  0  0  0  0  0  0  0
  -19.0380  -29.6550   23.7720 C   0  0  0  0  0  3  0  0  0  0  0  0
  -17.7430  -30.1470   24.0250 C   0  0  0  0  0  3  0  0  0  0  0  0
  -16.6200  -29.4200   23.5960 C   0  0  0  0  0  3  0  0  0  0  0  0
  -16.7920  -28.2070   22.9080 C   0  0  0  0  0  3  0  0  0  0  0  0
  -25.7910  -32.2190   23.6700 C   0  0  0  0  0  3  0  0  0  0  0  0
  -25.4410  -33.6070   24.0060 N   0  0  0  0  0  0  0  0  0  0  0  0
  -25.7850  -34.6770   23.2780 C   0  0  0  0  0  0  0  0  0  0  0  0
  -26.5010  -34.6010   22.2750 O   0  0  0  0  0  0  0  0  0  0  0  0
  -24.8080  -33.7370   24.7810 H   0  0  0  0  0  0  0  0  0  0  0  0
  -24.0560  -36.4550   22.8580 C   0  0  0  0  0  1  0  0  0  0  0  0
  -25.2530  -36.0490   23.7330 C   0  0  0  0  0  3  0  0  0  0  0  0
  -27.3200  -36.9460   24.7080 C   0  0  0  0  0  1  0  0  0  0  0  0
  -26.2740  -37.1180   23.7030 N   0  0  0  0  0  0  0  0  0  0  0  0
  -25.8460  -38.0290   23.8440 H   0  0  0  0  0  0  0  0  0  0  0  0
  -26.2870  -31.4450   24.9530 C   0  0  1  0  0  0  0  0  0  0  0  0
  -25.1740  -31.1910   25.9960 C   0  0  0  0  0  1  0  0  0  0  0  0
  -26.8920  -30.0750   24.5670 C   0  0  0  0  0  1  0  0  0  0  0  0
  -27.4150  -32.2470   25.6440 C   0  0  0  0  0  1  0  0  0  0  0  0
  2 14  1  0
  2  1  2  0
  3  6  2  0
  3  4  1  0
  4  5  2  0
  5  1  1  0
  6  2  1  0
  7  4  1  0
  7 53  1  0
  8  7  1  0
 10  9  1  0
 10 13  1  0
 10  3  1  0
 12 13  1  0
 12 11  1  0
 13 11  1  0
 14 23  1  0
 15 23  1  0
 16 21  1  0
 17 18  1  0
 17 16  1  0
 19 18  1  0
 19 28  1  0
 19 20  1  0
 21 15  1  0
 21 20  1  0
 22 15  2  0
 23 24  1  0
 25 26  2  0
 26 45  1  0
 27 26  1  0
 27 30  1  0
 28 29  1  0
 28 25  1  0
 29 27  2  0
 30 31  1  0
 31 32  2  0
 33 36  1  0
 33 32  1  0
 34 33  2  0
 35 34  1  0
 35 30  2  0
 36 37  1  0
 37 38  1  0
 38 39  2  0
 40 39  1  0
 40 44  1  0
 41 40  2  0
 42 37  2  0
 42 41  1  0
 43 42  1  0
 45 46  1  0
 46 49  1  0
 46 48  1  0
 47 45  2  0
 50 25  1  0
 50 51  1  0
 52 50  1  0
 53 54  1  0
 55 54  1  0
 56 67  2  0
 57 55  1  0
 57 62  1  0
 58 66  1  0
 58 68  1  0
 59 65  1  0
 59 61  1  0
 60 66  1  0
 61 60  1  0
 62 61  2  0
 63 64  1  0
 63 57  2  0
 64 59  2  0
 65 58  1  0
 66 56  1  0
 68 70  2  0
 69 68  1  0
 71 69  1  0
 72 81  2  0
 72 77  1  0
 73 69  1  0
 73 77  1  0
 74 73  1  0
 75 76  1  0
 75 74  1  0
 76 72  1  0
 77 78  2  0
 78 79  1  0
 80 79  2  0
 81 80  1  0
 82 56  1  0
 82 83  1  0
 82 92  1  0
 83 86  1  0
 84 88  1  0
 84 83  1  0
 85 84  2  0
 88 87  1  0
 90 88  1  0
 90 91  1  0
 90 89  1  0
 92 95  1  1
 92 93  1  0
 94 92  1  0
M  ISO  4  15 100  23 100  54 101  55 101
M  END
>  <TORSDO>  (53) 
F 21

>  <SCORE>  (53) 
-10.713

>  <name>  (53) 
52

>  <ligand_id>  (53) 
52

>  <original_smiles>  (53) 
[H]c1nc(N([H])C([H])([H])C([H])([H])Oc2c([H])c([H])c3c(c2[H])C([H])([H])N(C(=O)C([H])(N([H])C(=O)C([H])(N([H])C([H])([H])[H])C([H])([H])[H])C(C([H])([H])[H])(C([H])([H])[H])C([H])([H])[H])C([H])(C(=O)N([H])C2([H])c4c([H])c([H])c([H])c([H])c4C([H])([H])C([H])([H])C2([H])[H])C3([H])[H])c(C([H])(C([H])([H])[H])C2([H])C([H])([H])C2([H])[H])nc1C([H])([H])N([H])C(=O)N1C([H])([H])C([H])([H])C([H])([H])C([H])(n2nc(-c3c([H])c([H])c(Oc4c([H])c([H])c(F)c([H])c4F)c([H])c3[H])c(C(=O)N([H])[H])c2N([H])[H])C1([H])[H]

>  <smiles>  (53) 
[H]c1nc(N([H])C([H])([H])C([H])([H])Oc2c([H])c([H])c3c(c2[H])C([H])([H])N(C(=O)C([H])(N([H])C(=O)C([H])(N([H])C([H])([H])[H])C([H])([H])[H])C(C([H])([H])[H])(C([H])([H])[H])C([H])([H])[H])C([H])(C(=O)N([H])C2([H])c4c([H])c([H])c([H])c([H])c4C([H])([H])C([H])([H])C2([H])[H])C3([H])[H])c(C([H])(C([H])([H])[H])C2([H])C([H])([H])C2([H])[H])nc1C([H])([H])N([H])C(=O)N1C([H])([H])C([H])([H])C([H])([H])C([H])(n2nc(-c3c([H])c([H])c(Oc4c([H])c([H])c(F)c([H])c4F)c([H])c3[H])c(C(=O)N([H])[H])c2N([H])[H])C1([H])[H]

$$$$
53:0:0
     RDKit          3D

 99108  0  0  1  0  0  0  0  0999 V2000
  -25.5200  -19.0240   18.8060 N   0  0  0  0  0  4  0  0  0  0  0  0
  -26.5000  -18.9440   18.5950 H   0  0  0  0  0  0  0  0  0  0  0  0
  -25.0280  -18.4960   18.1030 H   0  0  0  0  0  0  0  0  0  0  0  0
  -25.2560  -18.3590   20.1060 C   0  0  0  0  0  2  0  0  0  0  0  0
  -28.9050  -17.4080   20.7690 C   0  0  0  0  0  3  0  0  0  0  0  0
  -27.7430  -18.1560   20.5360 C   0  0  0  0  0  3  0  0  0  0  0  0
  -27.5490  -15.4290   21.1710 C   0  0  0  0  0  3  0  0  0  0  0  0
  -28.8110  -16.0260   21.0210 C   0  0  0  0  0  0  0  0  0  0  0  0
  -26.4710  -17.5440   20.5560 C   0  0  0  0  0  0  0  0  0  0  0  0
  -26.3730  -16.1840   20.9590 C   0  0  0  0  0  0  0  0  0  0  0  0
  -25.0370  -15.4830   21.1410 C   0  0  0  0  0  1  0  0  0  0  0  0
  -30.0780  -15.1960   21.0030 C   0  0  0  0  0  2  0  0  0  0  0  0
  -30.8960  -13.6420   19.2250 C   0  0  0  0  0  0  0  0  0  0  0  0
  -30.4800  -11.3970   18.3250 C   0  0  0  0  0  2  0  0  0  0  0  0
  -29.4150  -11.4710   17.2130 C   0  0  0  0  0  2  0  0  0  0  0  0
  -28.0000  -11.3510   17.8090 C   0  0  0  0  0  2  0  0  0  0  0  0
  -27.7720  -12.3130   19.0060 C   0  0  0  0  0  3  0  0  0  0  0  0
  -28.9410  -12.2190   20.0110 C   0  0  0  0  0  2  0  0  0  0  0  0
  -30.1980  -12.4770   19.2830 N   0  0  0  0  0  0  0  0  0  0  0  0
  -31.9120  -13.7950   18.5470 O   0  0  0  0  0  0  0  0  0  0  0  0
  -30.2730  -14.7420   19.6340 N   0  0  0  0  0  0  0  0  0  0  0  0
  -30.5640  -15.5170   19.0580 H   0  0  0  0  0  0  0  0  0  0  0  0
  -25.4680  -12.9490   19.9660 C   0  0  0  0  0  0  0  0  0  0  0  0
  -24.4540  -12.1950   20.4890 C   0  0  0  0  0  0  0  0  0  0  0  0
  -24.9100  -10.8410   20.4490 C   0  0  0  0  0  0  0  0  0  0  0  0
  -26.4850  -12.0600   19.6520 N   0  0  0  0  0  0  0  0  0  0  0  0
  -26.1550  -10.7880   19.9920 N   0  0  0  0  0  0  0  0  0  0  0  0
  -24.2100   -9.5900   20.7670 C   0  0  0  0  0  0  0  0  0  0  0  0
  -24.6340   -8.7580   21.8270 C   0  0  0  0  0  3  0  0  0  0  0  0
  -23.9360   -7.5680   22.1260 C   0  0  0  0  0  3  0  0  0  0  0  0
  -22.8000   -7.2030   21.3640 C   0  0  0  0  0  0  0  0  0  0  0  0
  -22.3950   -8.0220   20.2970 C   0  0  0  0  0  3  0  0  0  0  0  0
  -23.0930   -9.2040   19.9980 C   0  0  0  0  0  3  0  0  0  0  0  0
  -22.0770   -6.0520   21.5620 O   0  0  0  0  0  0  0  0  0  0  0  0
  -21.8980   -5.5220   22.8150 C   0  0  0  0  0  0  0  0  0  0  0  0
  -21.2390   -6.2370   23.8390 C   0  0  0  0  0  3  0  0  0  0  0  0
  -21.0140   -5.6290   25.0900 C   0  0  0  0  0  3  0  0  0  0  0  0
  -21.4400   -4.3060   25.3170 C   0  0  0  0  0  0  0  0  0  0  0  0
  -22.0920   -3.5910   24.2960 C   0  0  0  0  0  3  0  0  0  0  0  0
  -22.3190   -4.1990   23.0490 C   0  0  0  0  0  0  0  0  0  0  0  0
  -22.9290   -3.4970   22.0630 F   0  0  0  0  0  0  0  0  0  0  0  0
  -21.2190   -3.7200   26.5160 F   0  0  0  0  0  0  0  0  0  0  0  0
  -23.1000  -12.6870   20.9180 C   0  0  0  0  0  0  0  0  0  0  0  0
  -22.5010  -12.0470   21.9160 N   0  0  0  0  0  0  0  0  0  0  0  0
  -22.5860  -13.6780   20.4020 O   0  0  0  0  0  0  0  0  0  0  0  0
  -22.9320  -11.2500   22.3570 H   0  0  0  0  0  0  0  0  0  0  0  0
  -21.6000  -12.3620   22.2440 H   0  0  0  0  0  0  0  0  0  0  0  0
  -25.6000  -14.3100   19.7190 N   0  0  0  0  0  0  0  0  0  0  0  0
  -24.8650  -14.9540   19.9800 H   0  0  0  0  0  0  0  0  0  0  0  0
  -26.4790  -14.7570   19.4980 H   0  0  0  0  0  0  0  0  0  0  0  0
  -25.0900  -20.4360   18.6850 C   0  0  0  0  0  2  0  0  0  0  0  0
  -27.1150  -22.0710   18.5630 C   0  0  0  0  0  2  0  0  0  0  0  0
  -25.1540  -22.5580   20.0680 C   0  0  0  0  0  2  0  0  0  0  0  0
  -27.9910  -23.0480   19.3800 C   0  0  0  0  0  2  0  0  0  0  0  0
  -26.0290  -23.5310   20.8660 C   0  0  0  0  0  2  0  0  0  0  0  0
  -26.0010  -21.4450   19.4350 C   0  0  0  0  0  3  0  0  0  0  0  0
  -27.1330  -24.1760   19.9900 C   0  0  0  0  0  3  0  0  0  0  0  0
  -27.9380  -25.2460   20.7780 C   0  0  0  0  0  2  0  0  0  0  0  0
  -27.5640  -26.6200   20.5700 O   0  0  0  0  0  0  0  0  0  0  0  0
  -27.0290  -32.2320   24.9540 C   0  0  0  0  0  0  0  0  0  0  0  0
  -26.8540  -27.2720   21.5550 C   0  0  0  0  0  0  0  0  0  0  0  0
  -25.4030  -30.4070   25.3150 C   0  0  0  0  0  3  0  0  0  0  0  0
  -25.3130  -28.6340   23.4930 C   0  0  0  0  0  0  0  0  0  0  0  0
  -26.4270  -30.8110   23.0030 C   0  0  0  0  0  2  0  0  0  0  0  0
  -26.2690  -29.3310   22.7420 C   0  0  0  0  0  0  0  0  0  0  0  0
  -27.0470  -28.6540   21.7770 C   0  0  0  0  0  3  0  0  0  0  0  0
  -25.8440  -26.6080   22.2860 C   0  0  0  0  0  3  0  0  0  0  0  0
  -25.1010  -27.2670   23.2730 C   0  0  0  0  0  3  0  0  0  0  0  0
  -24.5200  -29.4190   24.5110 C   0  0  0  0  0  2  0  0  0  0  0  0
  -26.3390  -31.1800   24.4350 N   0  0  0  0  0  0  0  0  0  0  0  0
  -26.8680  -32.5870   26.1300 O   0  0  0  0  0  0  0  0  0  0  0  0
  -26.1210  -29.6280   26.4410 C   0  0  0  0  0  0  0  0  0  0  0  0
  -25.7810  -29.9470   27.7020 N   0  0  0  0  0  0  0  0  0  0  0  0
  -26.9440  -28.7470   26.1750 O   0  0  0  0  0  0  0  0  0  0  0  0
  -25.0890  -30.6680   27.8420 H   0  0  0  0  0  0  0  0  0  0  0  0
  -26.2140  -30.4350   31.2510 C   0  0  0  0  0  0  0  0  0  0  0  0
  -26.3110  -29.3310   28.9170 C   0  0  0  0  0  3  0  0  0  0  0  0
  -25.3260  -28.2880   29.4880 C   0  0  0  0  0  2  0  0  0  0  0  0
  -24.3640  -28.8690   30.5290 C   0  0  0  0  0  2  0  0  0  0  0  0
  -25.1420  -29.4590   31.7060 C   0  0  0  0  0  2  0  0  0  0  0  0
  -26.7500  -30.3850   29.9350 C   0  0  0  0  0  0  0  0  0  0  0  0
  -27.7170  -31.3360   29.5530 C   0  0  0  0  0  3  0  0  0  0  0  0
  -28.1530  -32.3230   30.4560 C   0  0  0  0  0  3  0  0  0  0  0  0
  -27.6360  -32.3600   31.7600 C   0  0  0  0  0  3  0  0  0  0  0  0
  -26.6670  -31.4180   32.1560 C   0  0  0  0  0  3  0  0  0  0  0  0
  -28.0310  -33.0560   24.0880 C   0  0  0  0  0  3  0  0  0  0  0  0
  -27.8870  -34.4650   24.4750 N   0  0  0  0  0  0  0  0  0  0  0  0
  -27.1960  -35.3790   23.7810 C   0  0  0  0  0  0  0  0  0  0  0  0
  -26.6630  -35.1340   22.6940 O   0  0  0  0  0  0  0  0  0  0  0  0
  -28.2540  -34.7280   25.3780 H   0  0  0  0  0  0  0  0  0  0  0  0
  -25.7000  -36.9480   25.0570 C   0  0  0  0  0  1  0  0  0  0  0  0
  -27.0770  -36.7890   24.3900 C   0  0  0  0  0  3  0  0  0  0  0  0
  -28.6640  -37.9840   22.9480 C   0  0  0  0  0  1  0  0  0  0  0  0
  -27.2820  -37.8740   23.4070 N   0  0  0  0  0  0  0  0  0  0  0  0
  -27.0070  -38.7710   23.7980 H   0  0  0  0  0  0  0  0  0  0  0  0
  -29.5270  -32.5800   24.2470 C   0  0  1  0  0  0  0  0  0  0  0  0
  -29.9510  -32.3550   25.7160 C   0  0  0  0  0  1  0  0  0  0  0  0
  -29.7650  -31.2590   23.4780 C   0  0  0  0  0  1  0  0  0  0  0  0
  -30.4800  -33.6290   23.6300 C   0  0  0  0  0  1  0  0  0  0  0  0
  1  4  1  0
  2  1  1  0
  3  1  1  0
  4  9  1  0
  5  8  1  0
  6  9  1  0
  6  5  2  0
  8  7  2  0
  9 10  2  0
 10 11  1  0
 10  7  1  0
 12  8  1  0
 13 19  1  0
 13 21  1  0
 14 19  1  0
 15 16  1  0
 15 14  1  0
 17 16  1  0
 17 26  1  0
 17 18  1  0
 19 18  1  0
 20 13  2  0
 21 12  1  0
 22 21  1  0
 23 24  2  0
 24 43  1  0
 25 24  1  0
 25 28  1  0
 26 23  1  0
 26 27  1  0
 27 25  2  0
 28 29  1  0
 29 30  2  0
 31 34  1  0
 31 30  1  0
 32 31  2  0
 33 32  1  0
 33 28  2  0
 34 35  1  0
 35 40  2  0
 35 36  1  0
 36 37  2  0
 37 38  1  0
 38 42  1  0
 39 38  2  0
 40 39  1  0
 41 40  1  0
 43 44  1  0
 44 47  1  0
 44 46  1  0
 45 43  2  0
 48 23  1  0
 48 49  1  0
 50 48  1  0
 51  1  1  0
 52 54  1  0
 52 56  1  0
 53 55  1  0
 54 57  1  0
 56 51  1  0
 56 53  1  0
 57 58  1  0
 57 55  1  0
 59 58  1  0
 59 61  1  0
 60 71  2  0
 61 66  2  0
 61 67  1  0
 62 72  1  0
 63 69  1  0
 64 70  1  0
 65 64  1  0
 65 63  2  0
 66 65  1  0
 67 68  2  0
 68 63  1  0
 69 62  1  0
 70 60  1  0
 70 62  1  0
 72 73  1  0
 73 75  1  0
 74 72  2  0
 76 80  1  0
 76 85  1  0
 77 73  1  0
 77 78  1  0
 77 81  1  0
 78 79  1  0
 79 80  1  0
 81 76  2  0
 82 81  1  0
 82 83  2  0
 83 84  1  0
 84 85  2  0
 86 96  1  0
 86 87  1  0
 86 60  1  0
 87 90  1  0
 88 92  1  0
 88 87  1  0
 89 88  2  0
 92 91  1  0
 93 94  1  0
 94 95  1  0
 94 92  1  0
 96 97  1  1
 98 96  1  0
 99 96  1  0
M  ISO  4  13 100  21 100  58 101  59 101
M  END
>  <TORSDO>  (54) 
F 22

>  <SCORE>  (54) 
-2.507

>  <name>  (54) 
53

>  <ligand_id>  (54) 
53

>  <original_smiles>  (54) 
[H]c1c([H])c([H])c2c(c1[H])C([H])([H])C([H])([H])C([H])([H])C2([H])N([H])C(=O)C1([H])N(C(=O)C([H])(N([H])C(=O)C([H])(N([H])C([H])([H])[H])C([H])([H])[H])C(C([H])([H])[H])(C([H])([H])[H])C([H])([H])[H])C([H])([H])c2c([H])c(OC([H])([H])C3([H])C([H])([H])C([H])([H])C([H])(C([H])([H])[N+]([H])([H])C([H])([H])c4c([H])c([H])c(C([H])([H])N([H])C(=O)N5C([H])([H])C([H])([H])C([H])([H])C([H])(n6nc(-c7c([H])c([H])c(Oc8c([H])c([H])c(F)c([H])c8F)c([H])c7[H])c(C(=O)N([H])[H])c6N([H])[H])C5([H])[H])c([H])c4C([H])([H])[H])C([H])([H])C3([H])[H])c([H])c([H])c2C1([H])[H]

>  <smiles>  (54) 
[H]c1c([H])c([H])c2c(c1[H])C([H])([H])C([H])([H])C([H])([H])C2([H])N([H])C(=O)C1([H])N(C(=O)C([H])(N([H])C(=O)C([H])(N([H])C([H])([H])[H])C([H])([H])[H])C(C([H])([H])[H])(C([H])([H])[H])C([H])([H])[H])C([H])([H])c2c([H])c(OC([H])([H])C3([H])C([H])([H])C([H])([H])C([H])(C([H])([H])[N+]([H])([H])C([H])([H])c4c([H])c([H])c(C([H])([H])N([H])C(=O)N5C([H])([H])C([H])([H])C([H])([H])C([H])(n6nc(-c7c([H])c([H])c(Oc8c([H])c([H])c(F)c([H])c8F)c([H])c7[H])c(C(=O)N([H])[H])c6N([H])[H])C5([H])[H])c([H])c4C([H])([H])[H])C([H])([H])C3([H])[H])c([H])c([H])c2C1([H])[H]

$$$$
54:0:0
     RDKit          3D

 92100  0  0  1  0  0  0  0  0999 V2000
  -29.9440  -21.2690   18.5490 C   0  0  0  0  0  2  0  0  0  0  0  0
  -30.6110  -22.6240   18.2440 C   0  0  0  0  0  2  0  0  0  0  0  0
  -30.4360  -23.2950   20.6680 C   0  0  0  0  0  2  0  0  0  0  0  0
  -28.9390  -22.9430   20.4430 C   0  0  0  0  0  3  0  0  0  0  0  0
  -28.9970  -21.2630   19.7790 C   0  0  0  0  0  3  0  0  0  0  0  0
  -31.2810  -23.1880   19.4420 N   0  0  0  0  0  4  0  0  0  0  0  0
  -31.6650  -24.0930   19.2080 H   0  0  0  0  0  0  0  0  0  0  0  0
  -32.0730  -22.6000   19.6530 H   0  0  0  0  0  0  0  0  0  0  0  0
  -28.1220  -24.3790   19.7880 C   0  0  0  0  0  0  0  0  0  0  0  0
  -27.4390  -24.1160   18.7590 N   0  0  0  0  0  0  0  0  0  0  0  0
  -27.4690  -23.1260   18.5340 H   0  0  0  0  0  0  0  0  0  0  0  0
  -28.2020  -25.8460   20.2520 O   0  0  0  0  0  0  0  0  0  0  0  0
  -24.6340  -31.8490   23.1990 C   0  0  0  0  0  0  0  0  0  0  0  0
  -27.1870  -26.9520   20.1730 C   0  0  0  0  0  0  0  0  0  0  0  0
  -23.4380  -30.4530   21.5690 C   0  0  0  0  0  3  0  0  0  0  0  0
  -24.8810  -28.8460   20.1550 C   0  0  0  0  0  0  0  0  0  0  0  0
  -26.0120  -30.6610   21.4130 C   0  0  0  0  0  2  0  0  0  0  0  0
  -26.0810  -29.2510   20.7530 C   0  0  0  0  0  0  0  0  0  0  0  0
  -27.2270  -28.3310   20.7290 C   0  0  0  0  0  3  0  0  0  0  0  0
  -25.9230  -26.6920   19.5850 C   0  0  0  0  0  3  0  0  0  0  0  0
  -24.8250  -27.5820   19.5590 C   0  0  0  0  0  3  0  0  0  0  0  0
  -23.6650  -29.7690   20.1970 C   0  0  0  0  0  2  0  0  0  0  0  0
  -24.7170  -31.0140   22.1130 N   0  0  0  0  0  0  0  0  0  0  0  0
  -23.5450  -32.1380   23.7210 O   0  0  0  0  0  0  0  0  0  0  0  0
  -22.7430  -29.4550   22.5330 C   0  0  0  0  0  0  0  0  0  0  0  0
  -21.4110  -29.2940   22.4100 N   0  0  0  0  0  0  0  0  0  0  0  0
  -23.4080  -28.8290   23.3620 O   0  0  0  0  0  0  0  0  0  0  0  0
  -20.9310  -29.8470   21.7140 H   0  0  0  0  0  0  0  0  0  0  0  0
  -18.0210  -28.1040   22.9150 C   0  0  0  0  0  0  0  0  0  0  0  0
  -20.5830  -28.3620   23.1830 C   0  0  0  0  0  3  0  0  0  0  0  0
  -20.6790  -26.9260   22.6120 C   0  0  0  0  0  2  0  0  0  0  0  0
  -19.5770  -26.6060   21.5980 C   0  0  0  0  0  2  0  0  0  0  0  0
  -18.1950  -26.7550   22.2390 C   0  0  0  0  0  2  0  0  0  0  0  0
  -19.1410  -28.8670   23.3430 C   0  0  0  0  0  0  0  0  0  0  0  0
  -18.9210  -30.1300   23.9340 C   0  0  0  0  0  3  0  0  0  0  0  0
  -17.6140  -30.6290   24.1030 C   0  0  0  0  0  3  0  0  0  0  0  0
  -16.5100  -29.8640   23.6940 C   0  0  0  0  0  3  0  0  0  0  0  0
  -16.7140  -28.6030   23.1050 C   0  0  0  0  0  3  0  0  0  0  0  0
  -25.9060  -32.4920   23.8300 C   0  0  0  0  0  3  0  0  0  0  0  0
  -26.4010  -31.7360   25.1230 C   0  0  1  0  0  0  0  0  0  0  0  0
  -25.2930  -31.5260   26.1820 C   0  0  0  0  0  1  0  0  0  0  0  0
  -26.9760  -30.3480   24.7650 C   0  0  0  0  0  1  0  0  0  0  0  0
  -27.5480  -32.5330   25.7870 C   0  0  0  0  0  1  0  0  0  0  0  0
  -25.5890  -33.8930   24.1550 N   0  0  0  0  0  0  0  0  0  0  0  0
  -25.9270  -34.9500   23.4060 C   0  0  0  0  0  0  0  0  0  0  0  0
  -26.6030  -34.8500   22.3790 O   0  0  0  0  0  0  0  0  0  0  0  0
  -24.9870  -34.0440   24.9510 H   0  0  0  0  0  0  0  0  0  0  0  0
  -24.2050  -36.7540   23.0650 C   0  0  0  0  0  1  0  0  0  0  0  0
  -25.4460  -36.3400   23.8720 C   0  0  0  0  0  3  0  0  0  0  0  0
  -27.5820  -37.2150   24.7100 C   0  0  0  0  0  1  0  0  0  0  0  0
  -26.4810  -37.3910   23.7670 N   0  0  0  0  0  0  0  0  0  0  0  0
  -26.0760  -38.3100   23.9240 H   0  0  0  0  0  0  0  0  0  0  0  0
  -29.1710  -19.6190   20.5020 C   0  0  0  0  0  2  0  0  0  0  0  0
  -29.8820  -18.0860   19.9140 C   0  0  0  0  0  2  0  0  0  0  0  0
  -30.4300  -15.2250   20.2270 C   0  0  0  0  0  0  0  0  0  0  0  0
  -30.3600  -12.7880   19.3780 C   0  0  0  0  0  2  0  0  0  0  0  0
  -29.4350  -12.6420   18.1460 C   0  0  0  0  0  2  0  0  0  0  0  0
  -27.9900  -12.3720   18.5950 C   0  0  0  0  0  2  0  0  0  0  0  0
  -27.5530  -13.3290   19.7330 C   0  0  0  0  0  3  0  0  0  0  0  0
  -28.6090  -13.4560   20.8560 C   0  0  0  0  0  2  0  0  0  0  0  0
  -29.8500  -13.9290   20.2210 N   0  0  0  0  0  0  0  0  0  0  0  0
  -31.6360  -15.2260   19.9460 O   0  0  0  0  0  0  0  0  0  0  0  0
  -29.6810  -16.4920   20.3420 N   0  0  0  0  0  0  0  0  0  0  0  0
  -28.7260  -16.2930   20.6050 H   0  0  0  0  0  0  0  0  0  0  0  0
  -25.1820  -13.8950   20.4740 C   0  0  0  0  0  0  0  0  0  0  0  0
  -24.1160  -13.1190   20.8460 C   0  0  0  0  0  0  0  0  0  0  0  0
  -24.5830  -11.7710   20.8230 C   0  0  0  0  0  0  0  0  0  0  0  0
  -26.2240  -13.0160   20.2430 N   0  0  0  0  0  0  0  0  0  0  0  0
  -25.8760  -11.7330   20.5170 N   0  0  0  0  0  0  0  0  0  0  0  0
  -23.8570  -10.5090   21.0170 C   0  0  0  0  0  0  0  0  0  0  0  0
  -24.2860   -9.5430   21.9550 C   0  0  0  0  0  3  0  0  0  0  0  0
  -23.5550   -8.3470   22.1380 C   0  0  0  0  0  3  0  0  0  0  0  0
  -22.3840   -8.1080   21.3820 C   0  0  0  0  0  0  0  0  0  0  0  0
  -21.9750   -9.0600   20.4300 C   0  0  0  0  0  3  0  0  0  0  0  0
  -22.7050  -10.2470   20.2480 C   0  0  0  0  0  3  0  0  0  0  0  0
  -21.6270   -6.9650   21.4710 O   0  0  0  0  0  0  0  0  0  0  0  0
  -21.5730   -6.2280   22.6270 C   0  0  0  0  0  0  0  0  0  0  0  0
  -21.1350   -6.7860   23.8480 C   0  0  0  0  0  3  0  0  0  0  0  0
  -21.0310   -5.9750   24.9950 C   0  0  0  0  0  3  0  0  0  0  0  0
  -21.3500   -4.6050   24.9220 C   0  0  0  0  0  0  0  0  0  0  0  0
  -21.7810   -4.0470   23.7050 C   0  0  0  0  0  3  0  0  0  0  0  0
  -21.8880   -4.8560   22.5600 C   0  0  0  0  0  0  0  0  0  0  0  0
  -22.2830   -4.3080   21.3850 F   0  0  0  0  0  0  0  0  0  0  0  0
  -21.2430   -3.8240   26.0210 F   0  0  0  0  0  0  0  0  0  0  0  0
  -22.7200  -13.5990   21.1120 C   0  0  0  0  0  0  0  0  0  0  0  0
  -21.9880  -12.9040   21.9760 N   0  0  0  0  0  0  0  0  0  0  0  0
  -22.2860  -14.6240   20.5880 O   0  0  0  0  0  0  0  0  0  0  0  0
  -22.3560  -12.0780   22.4220 H   0  0  0  0  0  0  0  0  0  0  0  0
  -21.0500  -13.2080   22.1960 H   0  0  0  0  0  0  0  0  0  0  0  0
  -25.3430  -15.2630   20.2850 N   0  0  0  0  0  0  0  0  0  0  0  0
  -24.5610  -15.9080   20.3370 H   0  0  0  0  0  0  0  0  0  0  0  0
  -26.1880  -15.6990   19.9410 H   0  0  0  0  0  0  0  0  0  0  0  0
  1  5  1  0
  2  1  1  0
  2  6  1  0
  4  9  1  0
  4  3  1  0
  5  4  1  0
  5 53  1  0
  6  8  1  0
  6  3  1  0
  7  6  1  0
  9 12  1  0
 10  9  2  0
 11 10  1  0
 13 24  2  0
 14 12  1  0
 14 19  1  0
 15 23  1  0
 15 25  1  0
 16 22  1  0
 16 18  1  0
 17 23  1  0
 18 17  1  0
 19 18  2  0
 20 14  2  0
 21 20  1  0
 21 16  2  0
 22 15  1  0
 23 13  1  0
 25 27  2  0
 26 25  1  0
 28 26  1  0
 29 38  2  0
 29 34  1  0
 30 26  1  0
 30 34  1  0
 31 30  1  0
 32 33  1  0
 32 31  1  0
 33 29  1  0
 34 35  2  0
 35 36  1  0
 37 36  2  0
 38 37  1  0
 39 13  1  0
 39 44  1  0
 39 40  1  0
 40 43  1  1
 40 41  1  0
 42 40  1  0
 44 47  1  0
 45 49  1  0
 45 44  1  0
 46 45  2  0
 49 48  1  0
 51 49  1  0
 51 52  1  0
 51 50  1  0
 54 63  1  0
 54 53  1  0
 55 63  1  0
 56 61  1  0
 57 58  1  0
 57 56  1  0
 59 58  1  0
 59 68  1  0
 59 60  1  0
 61 55  1  0
 61 60  1  0
 62 55  2  0
 63 64  1  0
 65 66  2  0
 66 85  1  0
 67 66  1  0
 67 70  1  0
 68 65  1  0
 68 69  1  0
 69 67  2  0
 70 71  1  0
 71 72  2  0
 73 76  1  0
 73 72  1  0
 74 73  2  0
 75 74  1  0
 75 70  2  0
 76 77  1  0
 77 78  1  0
 78 79  2  0
 80 79  1  0
 80 84  1  0
 81 80  2  0
 82 77  2  0
 82 81  1  0
 83 82  1  0
 85 86  1  0
 86 89  1  0
 86 88  1  0
 87 85  2  0
 90 91  1  0
 90 65  1  0
 92 90  1  0
M  ISO  4   9 101  12 101  55 100  63 100
M  END
>  <TORSDO>  (55) 
F 19

>  <SCORE>  (55) 
-15.503

>  <name>  (55) 
54

>  <ligand_id>  (55) 
54

>  <original_smiles>  (55) 
[H]N=C(Oc1c([H])c([H])c2c(c1[H])C([H])([H])N(C(=O)C([H])(N([H])C(=O)C([H])(N([H])C([H])([H])[H])C([H])([H])[H])C(C([H])([H])[H])(C([H])([H])[H])C([H])([H])[H])C([H])(C(=O)N([H])C1([H])c3c([H])c([H])c([H])c([H])c3C([H])([H])C([H])([H])C1([H])[H])C2([H])[H])C1([H])C([H])(C([H])([H])C([H])([H])N([H])C(=O)N2C([H])([H])C([H])([H])C([H])([H])C([H])(n3nc(-c4c([H])c([H])c(Oc5c([H])c([H])c(F)c([H])c5F)c([H])c4[H])c(C(=O)N([H])[H])c3N([H])[H])C2([H])[H])C([H])([H])C([H])([H])[N+]([H])([H])C1([H])[H]

>  <smiles>  (55) 
[H]N=C(Oc1c([H])c([H])c2c(c1[H])C([H])([H])N(C(=O)C([H])(N([H])C(=O)C([H])(N([H])C([H])([H])[H])C([H])([H])[H])C(C([H])([H])[H])(C([H])([H])[H])C([H])([H])[H])C([H])(C(=O)N([H])C1([H])c3c([H])c([H])c([H])c([H])c3C([H])([H])C([H])([H])C1([H])[H])C2([H])[H])C1([H])C([H])(C([H])([H])C([H])([H])N([H])C(=O)N2C([H])([H])C([H])([H])C([H])([H])C([H])(n3nc(-c4c([H])c([H])c(Oc5c([H])c([H])c(F)c([H])c5F)c([H])c4[H])c(C(=O)N([H])[H])c3N([H])[H])C2([H])[H])C([H])([H])C([H])([H])[N+]([H])([H])C1([H])[H]

$$$$
55:0:0
     RDKit          3D

 95103  0  0  1  0  0  0  0  0999 V2000
  -28.8120  -22.8170   21.0470 C   0  0  0  0  0  3  0  0  0  0  0  0
  -28.3100  -24.1100   19.3150 C   0  0  0  0  0  3  0  0  0  0  0  0
  -28.6130  -24.1860   20.6420 C   0  0  0  0  0  0  0  0  0  0  0  0
  -28.6170  -21.9500   19.9890 C   0  0  0  0  0  0  0  0  0  0  0  0
  -28.3270  -22.7830   18.8940 N   0  0  0  0  0  0  0  0  0  0  0  0
  -28.5780  -23.3310   16.4650 C   0  0  0  0  0  1  0  0  0  0  0  0
  -26.4580  -22.2560   17.3860 C   0  0  0  0  0  1  0  0  0  0  0  0
  -27.9830  -22.3790   17.5250 C   0  0  0  0  0  3  0  0  0  0  0  0
  -27.7300  -25.4070   22.7090 C   0  0  0  0  0  1  0  0  0  0  0  0
  -28.6990  -25.4630   21.5070 C   0  0  0  0  0  3  0  0  0  0  0  0
  -28.7120  -26.7530   20.8120 O   0  0  0  0  0  0  0  0  0  0  0  0
  -24.6380  -32.0240   23.4520 C   0  0  0  0  0  0  0  0  0  0  0  0
  -27.5480  -27.4970   20.7100 C   0  0  0  0  0  0  0  0  0  0  0  0
  -23.5700  -30.5460   21.7830 C   0  0  0  0  0  3  0  0  0  0  0  0
  -25.1410  -28.9890   20.5030 C   0  0  0  0  0  0  0  0  0  0  0  0
  -26.1000  -30.9390   21.7390 C   0  0  0  0  0  2  0  0  0  0  0  0
  -26.2520  -29.5480   21.1470 C   0  0  0  0  0  0  0  0  0  0  0  0
  -27.4600  -28.8130   21.2410 C   0  0  0  0  0  3  0  0  0  0  0  0
  -26.4210  -26.9640   20.0520 C   0  0  0  0  0  3  0  0  0  0  0  0
  -25.2260  -27.7010   19.9460 C   0  0  0  0  0  3  0  0  0  0  0  0
  -23.8820  -29.8270   20.4440 C   0  0  0  0  0  2  0  0  0  0  0  0
  -24.7850  -31.1890   22.3820 N   0  0  0  0  0  0  0  0  0  0  0  0
  -23.5190  -32.2900   23.9130 O   0  0  0  0  0  0  0  0  0  0  0  0
  -22.8750  -29.5440   22.7340 C   0  0  0  0  0  0  0  0  0  0  0  0
  -21.5730  -29.3040   22.5080 N   0  0  0  0  0  0  0  0  0  0  0  0
  -23.5070  -28.9830   23.6310 O   0  0  0  0  0  0  0  0  0  0  0  0
  -21.1200  -29.8090   21.7580 H   0  0  0  0  0  0  0  0  0  0  0  0
  -18.2110  -28.0040   22.7890 C   0  0  0  0  0  0  0  0  0  0  0  0
  -20.7280  -28.3660   23.2510 C   0  0  0  0  0  3  0  0  0  0  0  0
  -20.9240  -26.9180   22.7450 C   0  0  0  0  0  2  0  0  0  0  0  0
  -19.9180  -26.5160   21.6620 C   0  0  0  0  0  2  0  0  0  0  0  0
  -18.4840  -26.6370   22.1850 C   0  0  0  0  0  2  0  0  0  0  0  0
  -19.2630  -28.8220   23.2750 C   0  0  0  0  0  0  0  0  0  0  0  0
  -18.9590  -30.0980   23.7940 C   0  0  0  0  0  3  0  0  0  0  0  0
  -17.6290  -30.5590   23.8330 C   0  0  0  0  0  3  0  0  0  0  0  0
  -16.5870  -29.7380   23.3680 C   0  0  0  0  0  3  0  0  0  0  0  0
  -16.8780  -28.4630   22.8510 C   0  0  0  0  0  3  0  0  0  0  0  0
  -25.8670  -32.7030   24.1330 C   0  0  0  0  0  3  0  0  0  0  0  0
  -25.5310  -34.1160   24.3470 N   0  0  0  0  0  0  0  0  0  0  0  0
  -25.9070  -35.1180   23.5400 C   0  0  0  0  0  0  0  0  0  0  0  0
  -26.6430  -34.9520   22.5650 O   0  0  0  0  0  0  0  0  0  0  0  0
  -24.8820  -34.3190   25.0930 H   0  0  0  0  0  0  0  0  0  0  0  0
  -24.1870  -36.8620   22.9660 C   0  0  0  0  0  1  0  0  0  0  0  0
  -25.3830  -36.5290   23.8700 C   0  0  0  0  0  3  0  0  0  0  0  0
  -27.4490  -37.5090   24.7620 C   0  0  0  0  0  1  0  0  0  0  0  0
  -26.4110  -37.5830   23.7370 N   0  0  0  0  0  0  0  0  0  0  0  0
  -25.9880  -38.5060   23.7830 H   0  0  0  0  0  0  0  0  0  0  0  0
  -26.2800  -32.0170   25.4930 C   0  0  1  0  0  0  0  0  0  0  0  0
  -25.0990  -31.8050   26.4700 C   0  0  0  0  0  1  0  0  0  0  0  0
  -26.9260  -30.6350   25.2320 C   0  0  0  0  0  1  0  0  0  0  0  0
  -27.3510  -32.8740   26.2050 C   0  0  0  0  0  1  0  0  0  0  0  0
  -28.5630  -20.4000   19.8960 C   0  0  0  0  0  2  0  0  0  0  0  0
  -29.4290  -19.5640   20.7960 N   0  0  0  0  0  4  0  0  0  0  0  0
  -29.2820  -19.8450   21.7520 H   0  0  0  0  0  0  0  0  0  0  0  0
  -30.3890  -19.7540   20.5630 H   0  0  0  0  0  0  0  0  0  0  0  0
  -29.1790  -18.0800   20.6920 C   0  0  0  0  0  2  0  0  0  0  0  0
  -30.2280  -17.1300   21.3820 C   0  0  0  0  0  2  0  0  0  0  0  0
  -30.6450  -14.6780   20.7280 C   0  0  0  0  0  0  0  0  0  0  0  0
  -30.3950  -12.5850   19.4330 C   0  0  0  0  0  2  0  0  0  0  0  0
  -29.4450  -12.8440   18.2430 C   0  0  0  0  0  2  0  0  0  0  0  0
  -27.9740  -12.6500   18.6620 C   0  0  0  0  0  2  0  0  0  0  0  0
  -27.6260  -13.3890   19.9810 C   0  0  0  0  0  3  0  0  0  0  0  0
  -28.6870  -13.1180   21.0720 C   0  0  0  0  0  2  0  0  0  0  0  0
  -30.0000  -13.4910   20.5250 N   0  0  0  0  0  0  0  0  0  0  0  0
  -31.7810  -14.8890   20.2950 O   0  0  0  0  0  0  0  0  0  0  0  0
  -29.9030  -15.6750   21.2700 N   0  0  0  0  0  0  0  0  0  0  0  0
  -29.0010  -15.3890   21.6230 H   0  0  0  0  0  0  0  0  0  0  0  0
  -25.2040  -13.9170   20.6720 C   0  0  0  0  0  0  0  0  0  0  0  0
  -24.1520  -13.1120   21.0160 C   0  0  0  0  0  0  0  0  0  0  0  0
  -24.6500  -11.7730   20.9650 C   0  0  0  0  0  0  0  0  0  0  0  0
  -26.2750  -13.0690   20.4400 N   0  0  0  0  0  0  0  0  0  0  0  0
  -25.9460  -11.7730   20.6730 N   0  0  0  0  0  0  0  0  0  0  0  0
  -23.9550  -10.4890   21.1220 C   0  0  0  0  0  0  0  0  0  0  0  0
  -24.3630   -9.5420   22.0860 C   0  0  0  0  0  3  0  0  0  0  0  0
  -23.6680   -8.3220   22.2320 C   0  0  0  0  0  3  0  0  0  0  0  0
  -22.5480   -8.0400   21.4120 C   0  0  0  0  0  0  0  0  0  0  0  0
  -22.1610   -8.9760   20.4360 C   0  0  0  0  0  3  0  0  0  0  0  0
  -22.8580  -10.1880   20.2900 C   0  0  0  0  0  3  0  0  0  0  0  0
  -21.8300   -6.8710   21.4620 O   0  0  0  0  0  0  0  0  0  0  0  0
  -21.7040   -6.1540   22.6240 C   0  0  0  0  0  0  0  0  0  0  0  0
  -21.0820   -6.6930   23.7720 C   0  0  0  0  0  3  0  0  0  0  0  0
  -20.9150   -5.8960   24.9220 C   0  0  0  0  0  3  0  0  0  0  0  0
  -21.3580   -4.5600   24.9240 C   0  0  0  0  0  0  0  0  0  0  0  0
  -21.9740   -4.0200   23.7830 C   0  0  0  0  0  3  0  0  0  0  0  0
  -22.1440   -4.8140   22.6340 C   0  0  0  0  0  0  0  0  0  0  0  0
  -22.7170   -4.2810   21.5290 F   0  0  0  0  0  0  0  0  0  0  0  0
  -21.1910   -3.7930   26.0270 F   0  0  0  0  0  0  0  0  0  0  0  0
  -22.7390  -13.5470   21.2790 C   0  0  0  0  0  0  0  0  0  0  0  0
  -22.0180  -12.8100   22.1160 N   0  0  0  0  0  0  0  0  0  0  0  0
  -22.2830  -14.5730   20.7770 O   0  0  0  0  0  0  0  0  0  0  0  0
  -22.4010  -11.9790   22.5440 H   0  0  0  0  0  0  0  0  0  0  0  0
  -21.0700  -13.0800   22.3350 H   0  0  0  0  0  0  0  0  0  0  0  0
  -25.3350  -15.2950   20.5170 N   0  0  0  0  0  0  0  0  0  0  0  0
  -24.5430  -15.9230   20.6010 H   0  0  0  0  0  0  0  0  0  0  0  0
  -26.1680  -15.7510   20.1670 H   0  0  0  0  0  0  0  0  0  0  0  0
  2  3  2  0
  3  1  1  0
  3 10  1  0
  4  1  2  0
  5  2  1  0
  5  4  1  0
  6  8  1  0
  7  8  1  0
  8  5  1  0
 10  9  1  0
 11 10  1  0
 12 23  2  0
 13 11  1  0
 13 18  1  0
 14 22  1  0
 14 24  1  0
 15 17  1  0
 16 22  1  0
 17 18  2  0
 17 16  1  0
 19 13  2  0
 20 19  1  0
 20 15  2  0
 21 15  1  0
 21 14  1  0
 22 12  1  0
 24 26  2  0
 25 24  1  0
 27 25  1  0
 28 37  2  0
 28 33  1  0
 29 25  1  0
 29 33  1  0
 30 29  1  0
 31 32  1  0
 31 30  1  0
 32 28  1  0
 33 34  2  0
 34 35  1  0
 36 35  2  0
 37 36  1  0
 38 12  1  0
 38 39  1  0
 38 48  1  0
 39 42  1  0
 40 44  1  0
 40 39  1  0
 41 40  2  0
 44 43  1  0
 46 47  1  0
 46 44  1  0
 46 45  1  0
 48 51  1  1
 48 49  1  0
 50 48  1  0
 52  4  1  0
 52 53  1  0
 53 54  1  0
 55 53  1  0
 56 53  1  0
 56 57  1  0
 58 66  1  0
 59 64  1  0
 60 61  1  0
 60 59  1  0
 62 61  1  0
 62 71  1  0
 62 63  1  0
 64 58  1  0
 64 63  1  0
 65 58  2  0
 66 57  1  0
 66 67  1  0
 68 69  2  0
 69 88  1  0
 70 69  1  0
 70 73  1  0
 71 68  1  0
 71 72  1  0
 72 70  2  0
 73 74  1  0
 74 75  2  0
 76 79  1  0
 76 75  1  0
 77 76  2  0
 78 77  1  0
 78 73  2  0
 79 80  1  0
 80 85  2  0
 80 81  1  0
 81 82  2  0
 82 83  1  0
 83 87  1  0
 84 83  2  0
 85 84  1  0
 86 85  1  0
 88 89  1  0
 89 92  1  0
 89 91  1  0
 90 88  2  0
 93 94  1  0
 93 68  1  0
 95 93  1  0
M  ISO  4  10 101  11 101  58 100  66 100
M  END
>  <TORSDO>  (56) 
F 22

>  <SCORE>  (56) 
-12.171

>  <name>  (56) 
55

>  <ligand_id>  (56) 
55

>  <original_smiles>  (56) 
[H]c1c([H])c([H])c2c(c1[H])C([H])([H])C([H])([H])C([H])([H])C2([H])N([H])C(=O)C1([H])N(C(=O)C([H])(N([H])C(=O)C([H])(N([H])C([H])([H])[H])C([H])([H])[H])C(C([H])([H])[H])(C([H])([H])[H])C([H])([H])[H])C([H])([H])c2c([H])c(OC([H])(c3c([H])c(C([H])([H])[N+]([H])([H])C([H])([H])C([H])([H])N([H])C(=O)N4C([H])([H])C([H])([H])C([H])([H])C([H])(n5nc(-c6c([H])c([H])c(Oc7c([H])c([H])c(F)c([H])c7F)c([H])c6[H])c(C(=O)N([H])[H])c5N([H])[H])C4([H])[H])n(C([H])(C([H])([H])[H])C([H])([H])[H])c3[H])C([H])([H])[H])c([H])c([H])c2C1([H])[H]

>  <smiles>  (56) 
[H]c1c([H])c([H])c2c(c1[H])C([H])([H])C([H])([H])C([H])([H])C2([H])N([H])C(=O)C1([H])N(C(=O)C([H])(N([H])C(=O)C([H])(N([H])C([H])([H])[H])C([H])([H])[H])C(C([H])([H])[H])(C([H])([H])[H])C([H])([H])[H])C([H])([H])c2c([H])c(OC([H])(c3c([H])c(C([H])([H])[N+]([H])([H])C([H])([H])C([H])([H])N([H])C(=O)N4C([H])([H])C([H])([H])C([H])([H])C([H])(n5nc(-c6c([H])c([H])c(Oc7c([H])c([H])c(F)c([H])c7F)c([H])c6[H])c(C(=O)N([H])[H])c5N([H])[H])C4([H])[H])n(C([H])(C([H])([H])[H])C([H])([H])[H])c3[H])C([H])([H])[H])c([H])c([H])c2C1([H])[H]

$$$$
56:0:0
     RDKit          3D

 95104  0  0  1  0  0  0  0  0999 V2000
  -26.6030  -21.0700   17.1860 C   0  0  0  0  0  3  0  0  0  0  0  0
  -27.1550  -19.7830   17.1880 C   0  0  0  0  0  3  0  0  0  0  0  0
  -26.9370  -21.9760   18.2040 C   0  0  0  0  0  3  0  0  0  0  0  0
  -28.0200  -19.3930   18.2270 C   0  0  0  0  0  0  0  0  0  0  0  0
  -28.3210  -20.2780   19.2990 C   0  0  0  0  0  0  0  0  0  0  0  0
  -27.8120  -21.6150   19.2610 C   0  0  0  0  0  0  0  0  0  0  0  0
  -28.6130  -17.9970   18.1780 C   0  0  0  0  0  2  0  0  0  0  0  0
  -29.2010  -19.7780   20.4640 C   0  0  0  0  0  2  0  0  0  0  0  0
  -29.8250  -17.8430   19.1010 C   0  0  0  0  0  2  0  0  0  0  0  0
  -29.4590  -18.3030   20.4610 N   0  0  1  0  0  4  0  0  0  0  0  0
  -28.5650  -17.8740   20.6460 H   0  0  0  0  0  0  0  0  0  0  0  0
  -28.2000  -22.6680   20.3210 C   0  0  0  0  0  2  0  0  0  0  0  0
  -27.9170  -24.1430   19.9180 C   0  0  0  0  0  3  0  0  0  0  0  0
  -28.3190  -25.2450   20.9330 C   0  0  0  0  0  3  0  0  0  0  0  0
  -28.4100  -26.5870   20.3980 O   0  0  0  0  0  0  0  0  0  0  0  0
  -24.5330  -31.8460   23.2830 C   0  0  0  0  0  0  0  0  0  0  0  0
  -27.2510  -27.3360   20.3580 C   0  0  0  0  0  0  0  0  0  0  0  0
  -23.3810  -30.4340   21.6160 C   0  0  0  0  0  3  0  0  0  0  0  0
  -24.8760  -28.8760   20.2620 C   0  0  0  0  0  0  0  0  0  0  0  0
  -25.9190  -30.7670   21.5160 C   0  0  0  0  0  2  0  0  0  0  0  0
  -26.0170  -29.3890   20.8920 C   0  0  0  0  0  0  0  0  0  0  0  0
  -27.2080  -28.6260   20.9400 C   0  0  0  0  0  3  0  0  0  0  0  0
  -26.1000  -26.8610   19.6950 C   0  0  0  0  0  3  0  0  0  0  0  0
  -24.9130  -27.6100   19.6590 C   0  0  0  0  0  3  0  0  0  0  0  0
  -23.6380  -29.7440   20.2530 C   0  0  0  0  0  2  0  0  0  0  0  0
  -24.6270  -31.0320   22.1950 N   0  0  0  0  0  0  0  0  0  0  0  0
  -23.4340  -32.1310   23.7790 O   0  0  0  0  0  0  0  0  0  0  0  0
  -22.6910  -29.4240   22.5600 C   0  0  0  0  0  0  0  0  0  0  0  0
  -21.3650  -29.2730   22.4080 N   0  0  0  0  0  0  0  0  0  0  0  0
  -23.3450  -28.7770   23.3830 O   0  0  0  0  0  0  0  0  0  0  0  0
  -20.9020  -29.8410   21.7120 H   0  0  0  0  0  0  0  0  0  0  0  0
  -17.9450  -28.2070   22.8910 C   0  0  0  0  0  0  0  0  0  0  0  0
  -20.5120  -28.3550   23.1620 C   0  0  0  0  0  3  0  0  0  0  0  0
  -20.5540  -26.9330   22.5560 C   0  0  0  0  0  2  0  0  0  0  0  0
  -19.4380  -26.6760   21.5390 C   0  0  0  0  0  2  0  0  0  0  0  0
  -18.0640  -26.8650   22.1880 C   0  0  0  0  0  2  0  0  0  0  0  0
  -19.0940  -28.9140   23.3330 C   0  0  0  0  0  0  0  0  0  0  0  0
  -18.9290  -30.1740   23.9480 C   0  0  0  0  0  3  0  0  0  0  0  0
  -17.6460  -30.7280   24.1230 C   0  0  0  0  0  3  0  0  0  0  0  0
  -16.5100  -30.0170   23.6970 C   0  0  0  0  0  3  0  0  0  0  0  0
  -16.6610  -28.7580   23.0880 C   0  0  0  0  0  3  0  0  0  0  0  0
  -25.7980  -32.4770   23.9420 C   0  0  0  0  0  3  0  0  0  0  0  0
  -25.4840  -33.8800   24.2420 N   0  0  0  0  0  0  0  0  0  0  0  0
  -25.8490  -34.9190   23.4790 C   0  0  0  0  0  0  0  0  0  0  0  0
  -26.5550  -34.7980   22.4740 O   0  0  0  0  0  0  0  0  0  0  0  0
  -24.8570  -34.0470   25.0160 H   0  0  0  0  0  0  0  0  0  0  0  0
  -24.1540  -36.7190   23.0250 C   0  0  0  0  0  1  0  0  0  0  0  0
  -25.3510  -36.3140   23.8990 C   0  0  0  0  0  3  0  0  0  0  0  0
  -27.4440  -37.1980   24.8320 C   0  0  0  0  0  1  0  0  0  0  0  0
  -26.3990  -37.3580   23.8250 N   0  0  0  0  0  0  0  0  0  0  0  0
  -25.9930  -38.2840   23.9340 H   0  0  0  0  0  0  0  0  0  0  0  0
  -26.2610  -31.7180   25.2460 C   0  0  1  0  0  0  0  0  0  0  0  0
  -25.1250  -31.4880   26.2700 C   0  0  0  0  0  1  0  0  0  0  0  0
  -26.8610  -30.3380   24.8890 C   0  0  0  0  0  1  0  0  0  0  0  0
  -27.3880  -32.5180   25.9420 C   0  0  0  0  0  1  0  0  0  0  0  0
  -30.3340  -17.8670   21.6010 C   0  0  0  0  0  2  0  0  0  0  0  0
  -31.2160  -16.5970   21.4310 C   0  0  0  0  0  2  0  0  0  0  0  0
  -31.0240  -14.3900   20.3070 C   0  0  0  0  0  0  0  0  0  0  0  0
  -30.5760  -12.3190   19.0470 C   0  0  0  0  0  2  0  0  0  0  0  0
  -29.6010  -12.5970   17.8860 C   0  0  0  0  0  2  0  0  0  0  0  0
  -28.1440  -12.4750   18.3680 C   0  0  0  0  0  2  0  0  0  0  0  0
  -27.8740  -13.2780   19.6680 C   0  0  0  0  0  3  0  0  0  0  0  0
  -28.9600  -12.9950   20.7320 C   0  0  0  0  0  2  0  0  0  0  0  0
  -30.2760  -13.2690   20.1300 N   0  0  0  0  0  0  0  0  0  0  0  0
  -32.0810  -14.5860   19.7030 O   0  0  0  0  0  0  0  0  0  0  0  0
  -30.5190  -15.3330   21.1220 N   0  0  0  0  0  0  0  0  0  0  0  0
  -29.6640  -15.1150   21.6150 H   0  0  0  0  0  0  0  0  0  0  0  0
  -25.5090  -13.9110   20.4620 C   0  0  0  0  0  0  0  0  0  0  0  0
  -24.4410  -13.1480   20.8530 C   0  0  0  0  0  0  0  0  0  0  0  0
  -24.8800  -11.7900   20.7850 C   0  0  0  0  0  0  0  0  0  0  0  0
  -26.5310  -13.0170   20.1830 N   0  0  0  0  0  0  0  0  0  0  0  0
  -26.1580  -11.7360   20.4330 N   0  0  0  0  0  0  0  0  0  0  0  0
  -24.1390  -10.5360   20.9760 C   0  0  0  0  0  0  0  0  0  0  0  0
  -24.5610   -9.5640   21.9110 C   0  0  0  0  0  3  0  0  0  0  0  0
  -23.8210   -8.3760   22.0890 C   0  0  0  0  0  3  0  0  0  0  0  0
  -22.6470   -8.1490   21.3320 C   0  0  0  0  0  0  0  0  0  0  0  0
  -22.2460   -9.1090   20.3860 C   0  0  0  0  0  3  0  0  0  0  0  0
  -22.9860  -10.2890   20.2050 C   0  0  0  0  0  3  0  0  0  0  0  0
  -21.8780   -7.0140   21.4200 O   0  0  0  0  0  0  0  0  0  0  0  0
  -21.7820   -6.3000   22.5880 C   0  0  0  0  0  0  0  0  0  0  0  0
  -21.2810   -6.8760   23.7750 C   0  0  0  0  0  3  0  0  0  0  0  0
  -21.1330   -6.0870   24.9340 C   0  0  0  0  0  3  0  0  0  0  0  0
  -21.4790   -4.7220   24.9060 C   0  0  0  0  0  0  0  0  0  0  0  0
  -21.9710   -4.1450   23.7220 C   0  0  0  0  0  3  0  0  0  0  0  0
  -22.1210   -4.9310   22.5660 C   0  0  0  0  0  0  0  0  0  0  0  0
  -22.5780   -4.3650   21.4230 F   0  0  0  0  0  0  0  0  0  0  0  0
  -21.3300   -3.9610   26.0150 F   0  0  0  0  0  0  0  0  0  0  0  0
  -23.0610  -13.6430   21.1780 C   0  0  0  0  0  0  0  0  0  0  0  0
  -22.3480  -12.9410   22.0530 N   0  0  0  0  0  0  0  0  0  0  0  0
  -22.6240  -14.6860   20.6920 O   0  0  0  0  0  0  0  0  0  0  0  0
  -22.7120  -12.0950   22.4650 H   0  0  0  0  0  0  0  0  0  0  0  0
  -21.4230  -13.2540   22.3120 H   0  0  0  0  0  0  0  0  0  0  0  0
  -25.6900  -15.2810   20.2980 N   0  0  0  0  0  0  0  0  0  0  0  0
  -24.9290  -15.9400   20.4200 H   0  0  0  0  0  0  0  0  0  0  0  0
  -26.5160  -15.6960   19.8900 H   0  0  0  0  0  0  0  0  0  0  0  0
  1  2  2  0
  1  3  1  0
  2  4  1  0
  3  6  2  0
  4  5  2  0
  5  8  1  0
  6  5  1  0
  6 12  1  0
  7  4  1  0
  7  9  1  0
  9 10  1  0
 10  8  1  0
 10 11  1  1
 10 56  1  0
 13 12  1  0
 13 14  2  0
 15 14  1  0
 16 27  2  0
 17 15  1  0
 17 22  1  0
 18 26  1  0
 18 28  1  0
 19 21  1  0
 20 26  1  0
 21 22  2  0
 21 20  1  0
 23 17  2  0
 24 23  1  0
 24 19  2  0
 25 19  1  0
 25 18  1  0
 26 16  1  0
 28 30  2  0
 29 28  1  0
 31 29  1  0
 32 41  2  0
 32 37  1  0
 33 29  1  0
 33 37  1  0
 34 33  1  0
 35 36  1  0
 35 34  1  0
 36 32  1  0
 37 38  2  0
 38 39  1  0
 40 39  2  0
 41 40  1  0
 42 16  1  0
 42 43  1  0
 42 52  1  0
 43 46  1  0
 44 48  1  0
 44 43  1  0
 45 44  2  0
 48 47  1  0
 50 48  1  0
 50 51  1  0
 50 49  1  0
 52 55  1  1
 52 53  1  0
 54 52  1  0
 57 56  1  0
 58 66  1  0
 59 64  1  0
 60 61  1  0
 60 59  1  0
 62 61  1  0
 62 71  1  0
 62 63  1  0
 64 58  1  0
 64 63  1  0
 65 58  2  0
 66 57  1  0
 66 67  1  0
 68 69  2  0
 69 88  1  0
 70 69  1  0
 70 73  1  0
 71 72  1  0
 71 68  1  0
 72 70  2  0
 73 74  1  0
 74 75  2  0
 76 79  1  0
 76 75  1  0
 77 76  2  0
 78 77  1  0
 78 73  2  0
 79 80  1  0
 80 81  1  0
 81 82  2  0
 83 82  1  0
 83 87  1  0
 84 83  2  0
 85 80  2  0
 85 84  1  0
 86 85  1  0
 88 89  1  0
 89 92  1  0
 89 91  1  0
 90 88  2  0
 93 94  1  0
 93 68  1  0
 95 93  1  0
M  ISO  4  14 101  15 101  58 100  66 100
M  END
>  <TORSDO>  (57) 
F 21

>  <SCORE>  (57) 
-13.588

>  <name>  (57) 
56

>  <ligand_id>  (57) 
56

>  <original_smiles>  (57) 
[H]c1c([H])c([H])c2c(c1[H])C([H])([H])C([H])([H])C([H])([H])C2([H])N([H])C(=O)C1([H])N(C(=O)C([H])(N([H])C(=O)C([H])(N([H])C([H])([H])[H])C([H])([H])[H])C(C([H])([H])[H])(C([H])([H])[H])C([H])([H])[H])C([H])([H])c2c([H])c(OC([H])([H])C([H])([H])C([H])([H])c3c([H])c([H])c([H])c4c3C([H])([H])[N+]([H])(C([H])([H])C([H])([H])N([H])C(=O)N3C([H])([H])C([H])([H])C([H])([H])C([H])(n5nc(-c6c([H])c([H])c(Oc7c([H])c([H])c(F)c([H])c7F)c([H])c6[H])c(C(=O)N([H])[H])c5N([H])[H])C3([H])[H])C([H])([H])C4([H])[H])c([H])c([H])c2C1([H])[H]

>  <smiles>  (57) 
[H]c1c([H])c([H])c2c(c1[H])C([H])([H])C([H])([H])C([H])([H])C2([H])N([H])C(=O)C1([H])N(C(=O)C([H])(N([H])C(=O)C([H])(N([H])C([H])([H])[H])C([H])([H])[H])C(C([H])([H])[H])(C([H])([H])[H])C([H])([H])[H])C([H])([H])c2c([H])c(OC([H])([H])C([H])([H])C([H])([H])c3c([H])c([H])c([H])c4c3C([H])([H])[N+]([H])(C([H])([H])C([H])([H])N([H])C(=O)N3C([H])([H])C([H])([H])C([H])([H])C([H])(n5nc(-c6c([H])c([H])c(Oc7c([H])c([H])c(F)c([H])c7F)c([H])c6[H])c(C(=O)N([H])[H])c5N([H])[H])C3([H])[H])C([H])([H])C4([H])[H])c([H])c([H])c2C1([H])[H]

$$$$
57:0:0
     RDKit          3D

101110  0  0  1  0  0  0  0  0999 V2000
  -29.8740  -21.0310   19.5600 C   0  0  0  0  0  3  0  0  0  0  0  0
  -30.6930  -22.3830   21.1190 C   0  0  0  0  0  3  0  0  0  0  0  0
  -30.2080  -22.4000   19.8420 C   0  0  0  0  0  0  0  0  0  0  0  0
  -30.2000  -20.2300   20.6280 C   0  0  0  0  0  0  0  0  0  0  0  0
  -30.6720  -21.0900   21.6200 N   0  0  0  0  0  0  0  0  0  0  0  0
  -31.0770  -14.6310   20.0680 C   0  0  0  0  0  0  0  0  0  0  0  0
  -30.6500  -12.4610   18.9580 C   0  0  0  0  0  2  0  0  0  0  0  0
  -29.6740  -12.6530   17.7790 C   0  0  0  0  0  2  0  0  0  0  0  0
  -28.2170  -12.5370   18.2640 C   0  0  0  0  0  2  0  0  0  0  0  0
  -27.9320  -13.4090   19.5110 C   0  0  0  0  0  3  0  0  0  0  0  0
  -29.0250  -13.2350   20.5910 C   0  0  0  0  0  2  0  0  0  0  0  0
  -30.3320  -13.4900   19.9630 N   0  0  0  0  0  0  0  0  0  0  0  0
  -32.2350  -14.6970   19.6480 O   0  0  0  0  0  0  0  0  0  0  0  0
  -29.6710  -17.9610   19.5540 C   0  0  0  0  0  2  0  0  0  0  0  0
  -31.3580  -18.0180   21.3210 C   0  0  0  0  0  2  0  0  0  0  0  0
  -29.4270  -16.4530   19.8070 C   0  0  0  0  0  2  0  0  0  0  0  0
  -31.0960  -16.5270   21.6640 C   0  0  0  0  0  2  0  0  0  0  0  0
  -30.0810  -18.7210   20.8210 C   0  0  0  0  0  3  0  0  0  0  0  0
  -30.4710  -15.7400   20.5800 N   0  0  0  0  0  0  0  0  0  0  0  0
  -25.6040  -14.1180   20.3340 C   0  0  0  0  0  0  0  0  0  0  0  0
  -24.5140  -13.3860   20.7200 C   0  0  0  0  0  0  0  0  0  0  0  0
  -24.9100  -12.0160   20.6380 C   0  0  0  0  0  0  0  0  0  0  0  0
  -26.5950  -13.1900   20.0420 N   0  0  0  0  0  0  0  0  0  0  0  0
  -26.1840  -11.9220   20.2860 N   0  0  0  0  0  0  0  0  0  0  0  0
  -24.1330  -10.7850   20.8160 C   0  0  0  0  0  0  0  0  0  0  0  0
  -24.5650   -9.7600   21.6850 C   0  0  0  0  0  3  0  0  0  0  0  0
  -23.7900   -8.5930   21.8530 C   0  0  0  0  0  3  0  0  0  0  0  0
  -22.5710   -8.4430   21.1510 C   0  0  0  0  0  0  0  0  0  0  0  0
  -22.1590   -9.4570   20.2680 C   0  0  0  0  0  3  0  0  0  0  0  0
  -22.9330  -10.6170   20.0980 C   0  0  0  0  0  3  0  0  0  0  0  0
  -21.7660   -7.3340   21.2330 O   0  0  0  0  0  0  0  0  0  0  0  0
  -21.7400   -6.5460   22.3550 C   0  0  0  0  0  0  0  0  0  0  0  0
  -21.4090   -7.0690   23.6240 C   0  0  0  0  0  3  0  0  0  0  0  0
  -21.3250   -6.2100   24.7380 C   0  0  0  0  0  3  0  0  0  0  0  0
  -21.5640   -4.8310   24.5860 C   0  0  0  0  0  0  0  0  0  0  0  0
  -21.8910   -4.3080   23.3220 C   0  0  0  0  0  3  0  0  0  0  0  0
  -21.9760   -5.1640   22.2090 C   0  0  0  0  0  0  0  0  0  0  0  0
  -22.2700   -4.6520   20.9890 F   0  0  0  0  0  0  0  0  0  0  0  0
  -21.4760   -4.0050   25.6540 F   0  0  0  0  0  0  0  0  0  0  0  0
  -23.1520  -13.9210   21.0530 C   0  0  0  0  0  0  0  0  0  0  0  0
  -22.4310  -13.2470   21.9410 N   0  0  0  0  0  0  0  0  0  0  0  0
  -22.7380  -14.9700   20.5590 O   0  0  0  0  0  0  0  0  0  0  0  0
  -22.7800  -12.3970   22.3580 H   0  0  0  0  0  0  0  0  0  0  0  0
  -21.5180  -13.5860   22.2070 H   0  0  0  0  0  0  0  0  0  0  0  0
  -25.8240  -15.4830   20.1840 N   0  0  0  0  0  0  0  0  0  0  0  0
  -25.0890  -16.1660   20.3340 H   0  0  0  0  0  0  0  0  0  0  0  0
  -26.6730  -15.8910   19.8180 H   0  0  0  0  0  0  0  0  0  0  0  0
  -32.6020  -20.3900   22.9720 C   0  0  0  0  0  1  0  0  0  0  0  0
  -31.1070  -20.7460   22.9740 C   0  0  0  0  0  3  0  0  0  0  0  0
  -29.4300  -22.5580   23.7660 C   0  0  0  0  0  1  0  0  0  0  0  0
  -30.7860  -21.8680   23.9890 C   0  0  0  0  0  2  0  0  0  0  0  0
  -30.1220  -23.6270   18.9180 C   0  0  0  0  0  3  0  0  0  0  0  0
  -30.4220  -23.2140   17.5280 N   0  0  0  0  0  4  0  0  0  0  0  0
  -29.8360  -22.4290   17.3010 H   0  0  0  0  0  0  0  0  0  0  0  0
  -30.1520  -23.9850   16.9390 H   0  0  0  0  0  0  0  0  0  0  0  0
  -32.0120  -22.4320   15.7800 C   0  0  0  0  0  1  0  0  0  0  0  0
  -31.8340  -22.8780   17.2390 C   0  0  0  0  0  2  0  0  0  0  0  0
  -28.5350  -25.3220   17.7460 C   0  0  0  0  0  1  0  0  0  0  0  0
  -28.7690  -24.4250   18.9900 C   0  0  0  0  0  3  0  0  0  0  0  0
  -28.5800  -25.2460   20.3090 C   0  0  0  0  0  2  0  0  0  0  0  0
  -28.6410  -26.6850   20.1740 O   0  0  0  0  0  0  0  0  0  0  0  0
  -24.6600  -31.7280   23.2810 C   0  0  0  0  0  0  0  0  0  0  0  0
  -27.4500  -27.3890   20.1670 C   0  0  0  0  0  0  0  0  0  0  0  0
  -23.5180  -30.3410   21.5840 C   0  0  0  0  0  3  0  0  0  0  0  0
  -25.0300  -28.8620   20.1610 C   0  0  0  0  0  0  0  0  0  0  0  0
  -26.0430  -30.7500   21.4480 C   0  0  0  0  0  2  0  0  0  0  0  0
  -26.1680  -29.3960   20.7760 C   0  0  0  0  0  0  0  0  0  0  0  0
  -27.3850  -28.6730   20.7620 C   0  0  0  0  0  3  0  0  0  0  0  0
  -26.2850  -26.8670   19.5640 C   0  0  0  0  0  3  0  0  0  0  0  0
  -25.0830  -27.5990   19.5490 C   0  0  0  0  0  3  0  0  0  0  0  0
  -23.7700  -29.6980   20.1970 C   0  0  0  0  0  2  0  0  0  0  0  0
  -24.7580  -30.9530   22.1640 N   0  0  0  0  0  0  0  0  0  0  0  0
  -23.5620  -31.9690   23.8020 O   0  0  0  0  0  0  0  0  0  0  0  0
  -22.8640  -29.2870   22.5070 C   0  0  0  0  0  0  0  0  0  0  0  0
  -21.5500  -29.0690   22.3340 N   0  0  0  0  0  0  0  0  0  0  0  0
  -23.5380  -28.6680   23.3350 O   0  0  0  0  0  0  0  0  0  0  0  0
  -21.0650  -29.6190   21.6380 H   0  0  0  0  0  0  0  0  0  0  0  0
  -18.2010  -27.7600   22.6940 C   0  0  0  0  0  0  0  0  0  0  0  0
  -20.7370  -28.0980   23.0660 C   0  0  0  0  0  3  0  0  0  0  0  0
  -20.9090  -26.6780   22.4790 C   0  0  0  0  0  2  0  0  0  0  0  0
  -19.8550  -26.3310   21.4220 C   0  0  0  0  0  2  0  0  0  0  0  0
  -18.4450  -26.4250   22.0120 C   0  0  0  0  0  2  0  0  0  0  0  0
  -19.2770  -28.5530   23.1740 C   0  0  0  0  0  0  0  0  0  0  0  0
  -18.9960  -29.8040   23.7650 C   0  0  0  0  0  3  0  0  0  0  0  0
  -17.6710  -30.2620   23.8860 C   0  0  0  0  0  3  0  0  0  0  0  0
  -16.6080  -29.4680   23.4190 C   0  0  0  0  0  3  0  0  0  0  0  0
  -16.8750  -28.2200   22.8310 C   0  0  0  0  0  3  0  0  0  0  0  0
  -25.9190  -32.3690   23.9440 C   0  0  0  0  0  3  0  0  0  0  0  0
  -25.5930  -33.7700   24.2420 N   0  0  0  0  0  0  0  0  0  0  0  0
  -25.9490  -34.8120   23.4770 C   0  0  0  0  0  0  0  0  0  0  0  0
  -26.6510  -34.6930   22.4690 O   0  0  0  0  0  0  0  0  0  0  0  0
  -24.9650  -33.9330   25.0150 H   0  0  0  0  0  0  0  0  0  0  0  0
  -24.2150  -36.5850   23.0490 C   0  0  0  0  0  1  0  0  0  0  0  0
  -25.4420  -36.2060   23.8950 C   0  0  0  0  0  3  0  0  0  0  0  0
  -27.5500  -37.1230   24.7560 C   0  0  0  0  0  1  0  0  0  0  0  0
  -26.4690  -37.2630   23.7840 N   0  0  0  0  0  0  0  0  0  0  0  0
  -26.0550  -38.1830   23.9010 H   0  0  0  0  0  0  0  0  0  0  0  0
  -26.3900  -31.6120   25.2450 C   0  0  1  0  0  0  0  0  0  0  0  0
  -25.2630  -31.3940   26.2820 C   0  0  0  0  0  1  0  0  0  0  0  0
  -26.9800  -30.2260   24.8920 C   0  0  0  0  0  1  0  0  0  0  0  0
  -27.5220  -32.4140   25.9310 C   0  0  0  0  0  1  0  0  0  0  0  0
  1  3  1  0
  1  4  2  0
  2  5  1  0
  3  2  2  0
  4  5  1  0
  5 49  1  0
  6 19  1  0
  7 12  1  0
  8  9  1  0
  8  7  1  0
 10  9  1  0
 10 23  1  0
 10 11  1  0
 12  6  1  0
 12 11  1  0
 13  6  2  0
 14 16  1  0
 14 18  1  0
 15 17  1  0
 16 19  1  0
 18  4  1  0
 18 15  1  0
 19 17  1  0
 20 21  2  0
 21 40  1  0
 22 21  1  0
 22 25  1  0
 23 24  1  0
 23 20  1  0
 24 22  2  0
 25 26  1  0
 26 27  2  0
 28 31  1  0
 28 27  1  0
 29 28  2  0
 30 29  1  0
 30 25  2  0
 31 32  1  0
 32 33  1  0
 33 34  2  0
 35 34  1  0
 35 39  1  0
 36 35  2  0
 37 32  2  0
 37 36  1  0
 38 37  1  0
 40 41  1  0
 41 44  1  0
 41 43  1  0
 42 40  2  0
 45 46  1  0
 45 20  1  0
 47 45  1  0
 49 48  1  0
 49 51  1  0
 50 51  1  0
 52 53  1  0
 52 59  1  0
 52  3  1  0
 54 53  1  0
 55 53  1  0
 56 57  1  0
 57 53  1  0
 59 58  1  0
 59 60  1  0
 61 60  1  0
 62 73  2  0
 63 61  1  0
 63 68  1  0
 64 72  1  0
 64 74  1  0
 65 71  1  0
 65 67  1  0
 66 72  1  0
 67 66  1  0
 68 67  2  0
 69 63  2  0
 70 69  1  0
 70 65  2  0
 71 64  1  0
 72 62  1  0
 74 76  2  0
 75 74  1  0
 77 75  1  0
 78 87  2  0
 78 83  1  0
 79 75  1  0
 79 83  1  0
 80 79  1  0
 81 82  1  0
 81 80  1  0
 82 78  1  0
 83 84  2  0
 84 85  1  0
 86 85  2  0
 87 86  1  0
 88 62  1  0
 88 89  1  0
 88 98  1  0
 89 92  1  0
 90 94  1  0
 90 89  1  0
 91 90  2  0
 94 93  1  0
 96 94  1  0
 96 97  1  0
 96 95  1  0
 98101  1  1
 98 99  1  0
100 98  1  0
M  ISO  4   6 100  19 100  60 101  61 101
M  END
>  <TORSDO>  (58) 
F 23

>  <SCORE>  (58) 
-13.037

>  <name>  (58) 
57

>  <ligand_id>  (58) 
57

>  <original_smiles>  (58) 
[H]c1c([H])c([H])c2c(c1[H])C([H])([H])C([H])([H])C([H])([H])C2([H])N([H])C(=O)C1([H])N(C(=O)C([H])(N([H])C(=O)C([H])(N([H])C([H])([H])[H])C([H])([H])[H])C(C([H])([H])[H])(C([H])([H])[H])C([H])([H])[H])C([H])([H])c2c([H])c(OC([H])([H])C([H])(C([H])([H])[H])C([H])(c3c([H])c(C4([H])C([H])([H])C([H])([H])N(C(=O)N5C([H])([H])C([H])([H])C([H])([H])C([H])(n6nc(-c7c([H])c([H])c(Oc8c([H])c([H])c(F)c([H])c8F)c([H])c7[H])c(C(=O)N([H])[H])c6N([H])[H])C5([H])[H])C([H])([H])C4([H])[H])n(C([H])(C([H])([H])[H])C([H])([H])C([H])([H])[H])c3[H])[N+]([H])([H])C([H])([H])C([H])([H])[H])c([H])c([H])c2C1([H])[H]

>  <smiles>  (58) 
[H]c1c([H])c([H])c2c(c1[H])C([H])([H])C([H])([H])C([H])([H])C2([H])N([H])C(=O)C1([H])N(C(=O)C([H])(N([H])C(=O)C([H])(N([H])C([H])([H])[H])C([H])([H])[H])C(C([H])([H])[H])(C([H])([H])[H])C([H])([H])[H])C([H])([H])c2c([H])c(OC([H])([H])C([H])(C([H])([H])[H])C([H])(c3c([H])c(C4([H])C([H])([H])C([H])([H])N(C(=O)N5C([H])([H])C([H])([H])C([H])([H])C([H])(n6nc(-c7c([H])c([H])c(Oc8c([H])c([H])c(F)c([H])c8F)c([H])c7[H])c(C(=O)N([H])[H])c6N([H])[H])C5([H])[H])C([H])([H])C4([H])[H])n(C([H])(C([H])([H])[H])C([H])([H])C([H])([H])[H])c3[H])[N+]([H])([H])C([H])([H])C([H])([H])[H])c([H])c([H])c2C1([H])[H]

$$$$
58:0:0
     RDKit          3D

100108  0  0  1  0  0  0  0  0999 V2000
  -26.2410  -23.1210   18.1590 C   0  0  0  0  0  3  0  0  0  0  0  0
  -27.3700  -22.7660   17.4110 C   0  0  0  0  0  3  0  0  0  0  0  0
  -26.4180  -23.7560   19.4120 C   0  0  0  0  0  0  0  0  0  0  0  0
  -27.7500  -24.1130   19.7790 C   0  0  0  0  0  0  0  0  0  0  0  0
  -28.7520  -23.3120   19.1780 C   0  0  0  0  0  0  0  0  0  0  0  0
  -28.6000  -22.7970   17.9460 N   0  0  0  0  0  0  0  0  0  0  0  0
  -29.7410  -22.6760   19.9600 N   0  0  0  0  0  0  0  0  0  0  0  0
  -29.9060  -23.1640   20.8340 H   0  0  0  0  0  0  0  0  0  0  0  0
  -30.0020  -20.3460   18.9230 C   0  0  0  0  0  1  0  0  0  0  0  0
  -29.5650  -21.2050   20.1530 C   0  0  0  0  0  3  0  0  0  0  0  0
  -30.2100  -20.6920   21.4920 C   0  0  0  0  0  2  0  0  0  0  0  0
  -30.9110  -19.3860   21.3770 N   0  0  0  0  0  4  0  0  0  0  0  0
  -31.2830  -19.3850   20.4400 H   0  0  0  0  0  0  0  0  0  0  0  0
  -31.6820  -19.3780   22.0260 H   0  0  0  0  0  0  0  0  0  0  0  0
  -30.1310  -18.1310   21.5780 C   0  0  0  0  0  2  0  0  0  0  0  0
  -30.8660  -16.9530   20.8930 C   0  0  0  0  0  2  0  0  0  0  0  0
  -30.8560  -14.5400   20.4620 C   0  0  0  0  0  0  0  0  0  0  0  0
  -30.4900  -12.3810   19.3340 C   0  0  0  0  0  2  0  0  0  0  0  0
  -29.5950  -12.6180   18.1050 C   0  0  0  0  0  2  0  0  0  0  0  0
  -28.1000  -12.5590   18.4890 C   0  0  0  0  0  2  0  0  0  0  0  0
  -27.7550  -13.3610   19.7740 C   0  0  0  0  0  3  0  0  0  0  0  0
  -28.7980  -13.1260   20.8910 C   0  0  0  0  0  2  0  0  0  0  0  0
  -30.1340  -13.3940   20.3420 N   0  0  0  0  0  0  0  0  0  0  0  0
  -31.9850  -14.6610   19.9840 O   0  0  0  0  0  0  0  0  0  0  0  0
  -30.2420  -15.6210   20.9860 N   0  0  0  0  0  0  0  0  0  0  0  0
  -29.2900  -15.5240   21.3050 H   0  0  0  0  0  0  0  0  0  0  0  0
  -25.3460  -13.9680   20.4410 C   0  0  0  0  0  0  0  0  0  0  0  0
  -24.2690  -13.1980   20.8010 C   0  0  0  0  0  0  0  0  0  0  0  0
  -24.7280  -11.8480   20.7930 C   0  0  0  0  0  0  0  0  0  0  0  0
  -26.3940  -13.0850   20.2370 N   0  0  0  0  0  0  0  0  0  0  0  0
  -26.0270  -11.8050   20.5050 N   0  0  0  0  0  0  0  0  0  0  0  0
  -23.9870  -10.5880   20.9830 C   0  0  0  0  0  0  0  0  0  0  0  0
  -24.4080   -9.6300   21.9310 C   0  0  0  0  0  3  0  0  0  0  0  0
  -23.6770   -8.4400   22.1230 C   0  0  0  0  0  3  0  0  0  0  0  0
  -22.5050   -8.2000   21.3670 C   0  0  0  0  0  0  0  0  0  0  0  0
  -22.1000   -9.1440   20.4100 C   0  0  0  0  0  3  0  0  0  0  0  0
  -22.8340  -10.3290   20.2170 C   0  0  0  0  0  3  0  0  0  0  0  0
  -21.7370   -7.0660   21.4720 O   0  0  0  0  0  0  0  0  0  0  0  0
  -21.6900   -6.3290   22.6260 C   0  0  0  0  0  0  0  0  0  0  0  0
  -21.2870   -6.8940   23.8560 C   0  0  0  0  0  3  0  0  0  0  0  0
  -21.1840   -6.0810   25.0020 C   0  0  0  0  0  3  0  0  0  0  0  0
  -21.4760   -4.7050   24.9210 C   0  0  0  0  0  0  0  0  0  0  0  0
  -21.8710   -4.1410   23.6950 C   0  0  0  0  0  3  0  0  0  0  0  0
  -21.9750   -4.9510   22.5510 C   0  0  0  0  0  0  0  0  0  0  0  0
  -22.3340   -4.3960   21.3680 F   0  0  0  0  0  0  0  0  0  0  0  0
  -21.3690   -3.9250   26.0210 F   0  0  0  0  0  0  0  0  0  0  0  0
  -22.8660  -13.6860   21.0310 C   0  0  0  0  0  0  0  0  0  0  0  0
  -22.1180  -13.0100   21.8980 N   0  0  0  0  0  0  0  0  0  0  0  0
  -22.4370  -14.6930   20.4720 O   0  0  0  0  0  0  0  0  0  0  0  0
  -22.4710  -12.1930   22.3740 H   0  0  0  0  0  0  0  0  0  0  0  0
  -21.1700  -13.3050   22.0830 H   0  0  0  0  0  0  0  0  0  0  0  0
  -25.5040  -15.3310   20.2380 N   0  0  0  0  0  0  0  0  0  0  0  0
  -24.7210  -15.9710   20.2990 H   0  0  0  0  0  0  0  0  0  0  0  0
  -26.3290  -15.7570   19.8370 H   0  0  0  0  0  0  0  0  0  0  0  0
  -25.2240  -23.9730   20.3540 C   0  0  0  0  0  2  0  0  0  0  0  0
  -23.1490  -22.6390   19.5680 C   0  0  0  0  0  1  0  0  0  0  0  0
  -22.8990  -24.9940   20.4960 C   0  0  0  0  0  1  0  0  0  0  0  0
  -23.8140  -24.0340   19.7020 C   0  0  0  0  0  3  0  0  0  0  0  0
  -28.0930  -25.2860   20.7510 C   0  0  0  0  0  2  0  0  0  0  0  0
  -28.3160  -26.5960   20.1360 O   0  0  0  0  0  0  0  0  0  0  0  0
  -24.6030  -31.8850   23.2430 C   0  0  0  0  0  0  0  0  0  0  0  0
  -27.2190  -27.4370   20.0980 C   0  0  0  0  0  0  0  0  0  0  0  0
  -23.3930  -30.4970   21.5880 C   0  0  0  0  0  3  0  0  0  0  0  0
  -24.8570  -28.9930   20.1330 C   0  0  0  0  0  0  0  0  0  0  0  0
  -25.9290  -30.8390   21.4070 C   0  0  0  0  0  2  0  0  0  0  0  0
  -26.0190  -29.4770   20.7470 C   0  0  0  0  0  0  0  0  0  0  0  0
  -27.2100  -28.7030   20.7320 C   0  0  0  0  0  3  0  0  0  0  0  0
  -26.0680  -27.0300   19.4000 C   0  0  0  0  0  3  0  0  0  0  0  0
  -24.8830  -27.7760   19.4400 C   0  0  0  0  0  3  0  0  0  0  0  0
  -23.6180  -29.8540   20.1980 C   0  0  0  0  0  2  0  0  0  0  0  0
  -24.6600  -31.0840   22.1390 N   0  0  0  0  0  0  0  0  0  0  0  0
  -23.5200  -32.1590   23.7780 O   0  0  0  0  0  0  0  0  0  0  0  0
  -22.7500  -29.4520   22.5310 C   0  0  0  0  0  0  0  0  0  0  0  0
  -21.4240  -29.2770   22.4170 N   0  0  0  0  0  0  0  0  0  0  0  0
  -23.4370  -28.8030   23.3230 O   0  0  0  0  0  0  0  0  0  0  0  0
  -20.9250  -29.8630   21.7650 H   0  0  0  0  0  0  0  0  0  0  0  0
  -18.0400  -28.0960   22.9310 C   0  0  0  0  0  0  0  0  0  0  0  0
  -20.6030  -28.3360   23.1830 C   0  0  0  0  0  3  0  0  0  0  0  0
  -20.6880  -26.9140   22.5920 C   0  0  0  0  0  2  0  0  0  0  0  0
  -19.5810  -26.6510   21.5700 C   0  0  0  0  0  2  0  0  0  0  0  0
  -18.2070  -26.7520   22.2460 C   0  0  0  0  0  2  0  0  0  0  0  0
  -19.1660  -28.8500   23.3560 C   0  0  0  0  0  0  0  0  0  0  0  0
  -18.9580  -30.1030   23.9660 C   0  0  0  0  0  3  0  0  0  0  0  0
  -17.6580  -30.6140   24.1460 C   0  0  0  0  0  3  0  0  0  0  0  0
  -16.5490  -29.8600   23.7310 C   0  0  0  0  0  3  0  0  0  0  0  0
  -16.7390  -28.6030   23.1340 C   0  0  0  0  0  3  0  0  0  0  0  0
  -25.8900  -32.5140   23.8670 C   0  0  0  0  0  3  0  0  0  0  0  0
  -25.5860  -33.9100   24.2050 N   0  0  0  0  0  0  0  0  0  0  0  0
  -25.9090  -34.9650   23.4440 C   0  0  0  0  0  0  0  0  0  0  0  0
  -26.5630  -34.8670   22.4000 O   0  0  0  0  0  0  0  0  0  0  0  0
  -24.9890  -34.0620   25.0070 H   0  0  0  0  0  0  0  0  0  0  0  0
  -24.1640  -36.7420   23.1190 C   0  0  0  0  0  1  0  0  0  0  0  0
  -25.4250  -36.3520   23.9070 C   0  0  0  0  0  3  0  0  0  0  0  0
  -27.5720  -37.2340   24.6920 C   0  0  0  0  0  1  0  0  0  0  0  0
  -26.4510  -37.4080   23.7720 N   0  0  0  0  0  0  0  0  0  0  0  0
  -26.0550  -38.3300   23.9400 H   0  0  0  0  0  0  0  0  0  0  0  0
  -26.4160  -31.7320   25.1360 C   0  0  1  0  0  0  0  0  0  0  0  0
  -25.3250  -31.4720   26.2000 C   0  0  0  0  0  1  0  0  0  0  0  0
  -26.9900  -30.3580   24.7270 C   0  0  0  0  0  1  0  0  0  0  0  0
  -27.5810  -32.5100   25.8000 C   0  0  0  0  0  1  0  0  0  0  0  0
  1  3  1  0
  2  6  1  0
  2  1  2  0
  3  4  2  0
  3 55  1  0
  4 59  1  0
  5  4  1  0
  5  7  1  0
  6  5  2  0
  7 10  1  0
  7  8  1  0
 10  9  1  0
 10 11  1  0
 12 11  1  0
 12 15  1  0
 12 14  1  0
 13 12  1  0
 16 25  1  0
 16 15  1  0
 17 25  1  0
 18 23  1  0
 19 20  1  0
 19 18  1  0
 21 20  1  0
 21 30  1  0
 21 22  1  0
 23 17  1  0
 23 22  1  0
 24 17  2  0
 25 26  1  0
 27 28  2  0
 28 47  1  0
 29 28  1  0
 29 32  1  0
 30 27  1  0
 30 31  1  0
 31 29  2  0
 32 33  1  0
 33 34  2  0
 35 38  1  0
 35 34  1  0
 36 35  2  0
 37 36  1  0
 37 32  2  0
 38 39  1  0
 39 40  1  0
 40 41  2  0
 42 41  1  0
 42 46  1  0
 43 42  2  0
 44 39  2  0
 44 43  1  0
 45 44  1  0
 47 48  1  0
 48 51  1  0
 48 50  1  0
 49 47  2  0
 52 53  1  0
 52 27  1  0
 54 52  1  0
 56 58  1  0
 58 55  1  0
 58 57  1  0
 60 59  1  0
 61 72  2  0
 62 60  1  0
 62 67  1  0
 63 71  1  0
 63 73  1  0
 64 70  1  0
 64 66  1  0
 65 71  1  0
 66 65  1  0
 67 66  2  0
 68 69  1  0
 68 62  2  0
 69 64  2  0
 70 63  1  0
 71 61  1  0
 73 75  2  0
 74 73  1  0
 76 74  1  0
 77 86  2  0
 77 82  1  0
 78 74  1  0
 78 82  1  0
 79 78  1  0
 80 81  1  0
 80 79  1  0
 81 77  1  0
 82 83  2  0
 83 84  1  0
 85 84  2  0
 86 85  1  0
 87 61  1  0
 87 88  1  0
 87 97  1  0
 88 91  1  0
 89 93  1  0
 89 88  1  0
 90 89  2  0
 93 92  1  0
 95 93  1  0
 95 96  1  0
 95 94  1  0
 97100  1  1
 97 98  1  0
 99 97  1  0
M  ISO  4  17 100  25 100  59 101  60 101
M  END
>  <TORSDO>  (59) 
F 24

>  <SCORE>  (59) 
-12.386

>  <name>  (59) 
58

>  <ligand_id>  (59) 
58

>  <original_smiles>  (59) 
[H]c1nc(N([H])C([H])(C([H])([H])[H])C([H])([H])[N+]([H])([H])C([H])([H])C([H])([H])N([H])C(=O)N2C([H])([H])C([H])([H])C([H])([H])C([H])(n3nc(-c4c([H])c([H])c(Oc5c([H])c([H])c(F)c([H])c5F)c([H])c4[H])c(C(=O)N([H])[H])c3N([H])[H])C2([H])[H])c(C([H])([H])Oc2c([H])c([H])c3c(c2[H])C([H])([H])N(C(=O)C([H])(N([H])C(=O)C([H])(N([H])C([H])([H])[H])C([H])([H])[H])C(C([H])([H])[H])(C([H])([H])[H])C([H])([H])[H])C([H])(C(=O)N([H])C2([H])c4c([H])c([H])c([H])c([H])c4C([H])([H])C([H])([H])C2([H])[H])C3([H])[H])c(C([H])([H])C([H])(C([H])([H])[H])C([H])([H])[H])c1[H]

>  <smiles>  (59) 
[H]c1nc(N([H])C([H])(C([H])([H])[H])C([H])([H])[N+]([H])([H])C([H])([H])C([H])([H])N([H])C(=O)N2C([H])([H])C([H])([H])C([H])([H])C([H])(n3nc(-c4c([H])c([H])c(Oc5c([H])c([H])c(F)c([H])c5F)c([H])c4[H])c(C(=O)N([H])[H])c3N([H])[H])C2([H])[H])c(C([H])([H])Oc2c([H])c([H])c3c(c2[H])C([H])([H])N(C(=O)C([H])(N([H])C(=O)C([H])(N([H])C([H])([H])[H])C([H])([H])[H])C(C([H])([H])[H])(C([H])([H])[H])C([H])([H])[H])C([H])(C(=O)N([H])C2([H])c4c([H])c([H])c([H])c([H])c4C([H])([H])C([H])([H])C2([H])[H])C3([H])[H])c(C([H])([H])C([H])(C([H])([H])[H])C([H])([H])[H])c1[H]

$$$$
59:0:0
     RDKit          3D

 94100  0  0  1  0  0  0  0  0999 V2000
  -26.7070  -29.8560   21.2770 C   0  0  0  0  0  2  0  0  0  0  0  0
  -28.0590  -28.5960   21.4040 C   0  0  0  0  0  2  0  0  0  0  0  0
  -24.8890  -28.3480   21.3680 C   0  0  0  0  0  2  0  0  0  0  0  0
  -26.6340  -26.3430   21.8460 C   0  0  0  0  0  2  0  0  0  0  0  0
  -27.9090  -26.8360   21.3580 C   0  0  0  0  0  2  0  0  0  0  0  0
  -25.3250  -26.8330   21.4190 C   0  0  0  0  0  3  0  0  0  0  0  0
  -31.1640  -24.4460   20.3330 C   0  0  0  0  0  2  0  0  0  0  0  0
  -30.2390  -25.6460   20.5530 C   0  0  0  0  0  2  0  0  0  0  0  0
  -30.4630  -23.1490   20.7510 C   0  0  0  0  0  2  0  0  0  0  0  0
  -28.7660  -25.2180   20.5890 C   0  0  0  0  0  1  0  0  0  0  0  0
  -29.0210  -23.1320   20.2190 C   0  0  0  0  0  2  0  0  0  0  0  0
  -28.9640  -23.2090   18.6760 C   0  0  0  0  0  1  0  0  0  0  0  0
  -28.6930  -21.0550   20.2560 C   0  0  0  0  0 15  0  0  0  0  0  0
  -29.5250  -19.1620   19.8110 C   0  0  0  0  0  1  0  0  0  0  0  0
  -30.0230  -15.7680   19.6200 C   0  0  0  0  0  0  0  0  0  0  0  0
  -30.1510  -13.0990   18.8760 C   0  0  0  0  0  2  0  0  0  0  0  0
  -29.2170  -12.4090   17.8160 C   0  0  0  0  0  2  0  0  0  0  0  0
  -27.9090  -11.9370   18.4560 C   0  0  0  0  0  2  0  0  0  0  0  0
  -27.3920  -13.0130   19.4310 C   0  0  0  0  0  3  0  0  0  0  0  0
  -28.4740  -13.5870   20.4050 C   0  0  0  0  0  2  0  0  0  0  0  0
  -29.5190  -14.3330   19.6180 N   0  0  0  0  0  0  0  0  0  0  0  0
  -31.2130  -15.6440   19.2510 O   0  0  0  0  0  0  0  0  0  0  0  0
  -29.3470  -17.2560   19.8450 N   0  0  0  0  0  0  0  0  0  0  0  0
  -28.3860  -17.0560   20.0890 H   0  0  0  0  0  0  0  0  0  0  0  0
  -25.1430  -13.4760   20.5000 C   0  0  0  0  0  0  0  0  0  0  0  0
  -24.1380  -12.6800   20.9740 C   0  0  0  0  0  0  0  0  0  0  0  0
  -24.5960  -11.3330   20.8240 C   0  0  0  0  0  0  0  0  0  0  0  0
  -26.1500  -12.6240   20.0940 N   0  0  0  0  0  0  0  0  0  0  0  0
  -25.8390  -11.3190   20.3400 N   0  0  0  0  0  0  0  0  0  0  0  0
  -23.8880  -10.0650   21.0610 C   0  0  0  0  0  0  0  0  0  0  0  0
  -24.3690   -9.1080   21.9800 C   0  0  0  0  0  3  0  0  0  0  0  0
  -23.6550   -7.9130   22.2120 C   0  0  0  0  0  3  0  0  0  0  0  0
  -22.4440   -7.6640   21.5240 C   0  0  0  0  0  0  0  0  0  0  0  0
  -21.9770   -8.6110   20.5950 C   0  0  0  0  0  3  0  0  0  0  0  0
  -22.6930   -9.7970   20.3620 C   0  0  0  0  0  3  0  0  0  0  0  0
  -21.7000   -6.5150   21.6630 O   0  0  0  0  0  0  0  0  0  0  0  0
  -21.6580   -5.8220   22.8470 C   0  0  0  0  0  0  0  0  0  0  0  0
  -21.1990   -6.4170   24.0420 C   0  0  0  0  0  3  0  0  0  0  0  0
  -21.1060   -5.6500   25.2210 C   0  0  0  0  0  3  0  0  0  0  0  0
  -21.4620   -4.2880   25.2050 C   0  0  0  0  0  0  0  0  0  0  0  0
  -21.9160   -3.6920   24.0150 C   0  0  0  0  0  3  0  0  0  0  0  0
  -22.0090   -4.4560   22.8390 C   0  0  0  0  0  0  0  0  0  0  0  0
  -22.4240   -3.8710   21.6900 F   0  0  0  0  0  0  0  0  0  0  0  0
  -21.3670   -3.5490   26.3350 F   0  0  0  0  0  0  0  0  0  0  0  0
  -22.7930  -13.1490   21.4460 C   0  0  0  0  0  0  0  0  0  0  0  0
  -22.1910  -12.4340   22.3890 N   0  0  0  0  0  0  0  0  0  0  0  0
  -22.2910  -14.1850   21.0150 O   0  0  0  0  0  0  0  0  0  0  0  0
  -22.6140  -11.5960   22.7570 H   0  0  0  0  0  0  0  0  0  0  0  0
  -21.2960  -12.7320   22.7480 H   0  0  0  0  0  0  0  0  0  0  0  0
  -25.2800  -14.8540   20.3550 N   0  0  0  0  0  0  0  0  0  0  0  0
  -24.5360  -15.5030   20.5960 H   0  0  0  0  0  0  0  0  0  0  0  0
  -26.0770  -15.3080   19.9250 H   0  0  0  0  0  0  0  0  0  0  0  0
  -25.2620  -25.9130   20.1320 C   0  0  0  0  0  2  0  0  0  0  0  0
  -26.4710  -26.1160   19.1910 O   0  0  0  0  0  0  0  0  0  0  0  0
  -24.4720  -31.7570   23.1090 C   0  0  0  0  0  0  0  0  0  0  0  0
  -26.2570  -27.0470   18.2240 C   0  0  1  0  0  0  0  0  0  0  0  0
  -23.2680  -30.5410   21.4180 C   0  0  0  0  0  3  0  0  0  0  0  0
  -24.5640  -29.1310   18.7690 C   0  0  0  0  0  3  0  0  0  0  0  0
  -25.9520  -29.3160   22.4510 C   0  0  0  0  0  3  0  0  0  0  0  0
  -25.8920  -28.4980   19.3480 C   0  0  0  0  0  3  0  0  0  0  0  0
  -26.8530  -28.2460   18.4480 C   0  0  0  0  0  2  0  0  0  0  0  0
  -24.9370  -27.0160   17.7010 C   0  0  0  0  0  3  0  0  0  0  0  0
  -24.0680  -28.1050   17.9780 C   0  0  0  0  0  3  0  0  0  0  0  0
  -23.4610  -30.2070   19.6420 C   0  0  0  0  0  2  0  0  0  0  0  0
  -24.5910  -30.5850   22.4390 N   0  0  0  0  0  0  0  0  0  0  0  0
  -23.3600  -32.1930   23.4820 O   0  0  0  0  0  0  0  0  0  0  0  0
  -22.3600  -29.5620   22.3230 C   0  0  0  0  0  0  0  0  0  0  0  0
  -21.0850  -29.2230   22.1100 N   0  0  0  0  0  0  0  0  0  0  0  0
  -22.9240  -29.0080   23.2780 O   0  0  0  0  0  0  0  0  0  0  0  0
  -20.5680  -29.6260   21.3400 H   0  0  0  0  0  0  0  0  0  0  0  0
  -17.9780  -27.4540   22.8160 C   0  0  0  0  0  0  0  0  0  0  0  0
  -20.4320  -28.1950   22.9590 C   0  0  0  0  0  3  0  0  0  0  0  0
  -20.8010  -26.7570   22.5170 C   0  0  0  0  0  2  0  0  0  0  0  0
  -19.7650  -26.1510   21.5690 C   0  0  0  0  0  2  0  0  0  0  0  0
  -18.3820  -26.1100   22.2310 C   0  0  0  0  0  2  0  0  0  0  0  0
  -18.9440  -28.4350   23.1520 C   0  0  0  0  0  0  0  0  0  0  0  0
  -18.5310  -29.6680   23.6970 C   0  0  0  0  0  3  0  0  0  0  0  0
  -17.1660  -29.9430   23.8830 C   0  0  0  0  0  3  0  0  0  0  0  0
  -16.2060  -28.9740   23.5430 C   0  0  0  0  0  3  0  0  0  0  0  0
  -16.6100  -27.7300   23.0210 C   0  0  0  0  0  3  0  0  0  0  0  0
  -25.7140  -32.5770   23.4750 C   0  0  0  0  0  3  0  0  0  0  0  0
  -26.4760  -31.9140   24.6840 C   0  0  1  0  0  0  0  0  0  0  0  0
  -25.5100  -31.3600   25.7560 C   0  0  0  0  0  1  0  0  0  0  0  0
  -27.4510  -30.7720   24.4330 C   0  0  0  0  0  1  0  0  0  0  0  0
  -27.4400  -32.9610   25.2670 C   0  0  0  0  0  1  0  0  0  0  0  0
  -25.2490  -33.9240   23.9020 N   0  0  0  0  0  0  0  0  0  0  0  0
  -25.4520  -35.1140   23.3200 C   0  0  0  0  0  0  0  0  0  0  0  0
  -26.0780  -35.2440   22.2670 O   0  0  0  0  0  0  0  0  0  0  0  0
  -24.6780  -33.9240   24.7350 H   0  0  0  0  0  0  0  0  0  0  0  0
  -23.6100  -36.8510   23.3600 C   0  0  0  0  0  1  0  0  0  0  0  0
  -24.8940  -36.3630   24.0490 C   0  0  0  0  0  3  0  0  0  0  0  0
  -26.9990  -37.2020   25.0040 C   0  0  0  0  0  1  0  0  0  0  0  0
  -25.8580  -37.4840   24.1390 N   0  0  0  0  0  0  0  0  0  0  0  0
  -25.3980  -38.3240   24.4850 H   0  0  0  0  0  0  0  0  0  0  0  0
  1  2  1  0
  3  6  1  0
  3 59  1  0
  5  2  1  0
  5  4  1  0
  6 53  1  0
  6  4  1  0
  7  8  1  0
  7  9  1  0
  8 10  1  0
 11  9  1  0
 12 11  1  0
 14 23  1  0
 15 23  1  0
 16 21  1  0
 17 18  1  0
 17 16  1  0
 19 18  1  0
 19 28  1  0
 19 20  1  0
 21 15  1  0
 21 20  1  0
 22 15  2  0
 23 24  1  0
 25 26  2  0
 26 45  1  0
 27 26  1  0
 27 30  1  0
 28 29  1  0
 28 25  1  0
 29 27  2  0
 30 31  1  0
 31 32  2  0
 33 36  1  0
 33 32  1  0
 34 33  2  0
 35 34  1  0
 35 30  2  0
 36 37  1  0
 37 38  1  0
 38 39  2  0
 40 39  1  0
 40 44  1  0
 41 40  2  0
 42 37  2  0
 42 41  1  0
 43 42  1  0
 45 46  1  0
 46 49  1  0
 46 48  1  0
 47 45  2  0
 50 25  1  0
 50 51  1  0
 52 50  1  0
 54 53  1  0
 55 66  2  0
 56 62  1  0
 56 61  1  1
 56 54  1  0
 56 60  1  0
 57 67  1  0
 57 65  1  0
 58 63  1  0
 58 60  1  0
 58 64  1  0
 59  1  1  0
 60 61  1  0
 62 63  2  0
 64 57  1  0
 65 59  1  0
 65 55  1  0
 67 69  2  0
 68 67  1  0
 70 68  1  0
 71 80  2  0
 71 76  1  0
 72 68  1  0
 72 76  1  0
 73 72  1  0
 74 75  1  0
 74 73  1  0
 75 71  1  0
 76 77  2  0
 77 78  1  0
 79 78  2  0
 80 79  1  0
 81 55  1  0
 81 86  1  0
 81 82  1  0
 82 85  1  1
 82 83  1  0
 84 82  1  0
 86 89  1  0
 87 86  1  0
 87 91  1  0
 88 87  2  0
 91 90  1  0
 91 93  1  0
 93 94  1  0
 93 92  1  0
M  ISO  4  15 100  23 100  53 101  54 101
M  END
>  <TORSDO>  (60) 
F 20

>  <SCORE>  (60) 
-14.174

>  <name>  (60) 
59

>  <ligand_id>  (60) 
59

>  <original_smiles>  (60) 
[H]c1c([H])c([H])c2c(c1[H])C([H])([H])C([H])([H])C([H])([H])C2([H])N([H])C(=O)C1([H])N(C(=O)C([H])(N([H])C(=O)C([H])(N([H])C([H])([H])[H])C([H])([H])[H])C(C([H])([H])[H])(C([H])([H])[H])C([H])([H])[H])C([H])([H])c2c([H])c(OC([H])([H])c3c([H])c([H])c([H])c(C4([H])C([H])([H])C([H])([H])C([H])([H])C4(C([H])([H])[H])C([H])([H])C([H])([H])N([H])C(=O)N4C([H])([H])C([H])([H])C([H])([H])C([H])(n5nc(-c6c([H])c([H])c(Oc7c([H])c([H])c(F)c([H])c7F)c([H])c6[H])c(C(=O)N([H])[H])c5N([H])[H])C4([H])[H])c3[H])c([H])c([H])c2C1([H])[H]

>  <smiles>  (60) 
[H]c1c([H])c([H])c2c(c1[H])C([H])([H])C([H])([H])C([H])([H])C2([H])N([H])C(=O)C1([H])N(C(=O)C([H])(N([H])C(=O)C([H])(N([H])C([H])([H])[H])C([H])([H])[H])C(C([H])([H])[H])(C([H])([H])[H])C([H])([H])[H])C([H])([H])c2c([H])c(OC([H])([H])c3c([H])c([H])c([H])c(C4([H])C([H])([H])C([H])([H])C([H])([H])C4(C([H])([H])[H])C([H])([H])C([H])([H])N([H])C(=O)N4C([H])([H])C([H])([H])C([H])([H])C([H])(n5nc(-c6c([H])c([H])c(Oc7c([H])c([H])c(F)c([H])c7F)c([H])c6[H])c(C(=O)N([H])[H])c5N([H])[H])C4([H])[H])c3[H])c([H])c([H])c2C1([H])[H]

$$$$
60:0:0
     RDKit          3D

 94102  0  0  1  0  0  0  0  0999 V2000
  -28.0640  -19.0310   19.6200 C   0  0  0  0  0  2  0  0  0  0  0  0
  -30.4160  -19.7920   19.8610 C   0  0  0  0  0  2  0  0  0  0  0  0
  -27.6520  -20.3160   18.8970 C   0  0  0  0  0  2  0  0  0  0  0  0
  -30.0830  -21.1330   19.1650 C   0  0  0  0  0  2  0  0  0  0  0  0
  -29.5230  -18.6920   19.2770 C   0  0  0  0  0  3  0  0  0  0  0  0
  -28.5720  -21.5270   19.2120 C   0  0  0  0  0  3  0  0  0  0  0  0
  -28.3060  -22.4950   16.8230 C   0  0  0  0  0  1  0  0  0  0  0  0
  -26.7550  -23.2410   18.6130 C   0  0  0  0  0  1  0  0  0  0  0  0
  -28.2110  -22.7860   18.3410 C   0  0  1  0  0  0  0  0  0  0  0  0
  -29.1620  -23.9800   18.6170 C   0  0  0  0  0  2  0  0  0  0  0  0
  -29.1460  -24.5740   20.0400 C   0  0  0  0  0  2  0  0  0  0  0  0
  -29.6520  -26.0280   20.0390 C   0  0  0  0  0  2  0  0  0  0  0  0
  -29.1590  -26.7780   21.1450 O   0  0  0  0  0  0  0  0  0  0  0  0
  -24.8780  -31.9330   23.4920 C   0  0  0  0  0  0  0  0  0  0  0  0
  -27.9410  -27.4060   20.9930 C   0  0  0  0  0  0  0  0  0  0  0  0
  -23.8720  -30.3780   21.8500 C   0  0  0  0  0  3  0  0  0  0  0  0
  -25.4970  -28.7960   20.6880 C   0  0  0  0  0  0  0  0  0  0  0  0
  -26.3910  -30.8130   21.8660 C   0  0  0  0  0  2  0  0  0  0  0  0
  -26.5730  -29.4020   21.3480 C   0  0  0  0  0  0  0  0  0  0  0  0
  -27.7880  -28.7070   21.5180 C   0  0  0  0  0  3  0  0  0  0  0  0
  -26.8450  -26.8060   20.3270 C   0  0  0  0  0  3  0  0  0  0  0  0
  -25.6260  -27.4910   20.1840 C   0  0  0  0  0  3  0  0  0  0  0  0
  -24.2320  -29.6110   20.5500 C   0  0  0  0  0  2  0  0  0  0  0  0
  -25.0590  -31.0610   22.4600 N   0  0  0  0  0  0  0  0  0  0  0  0
  -23.7440  -32.2030   23.9100 O   0  0  0  0  0  0  0  0  0  0  0  0
  -23.1640  -29.4040   22.8180 C   0  0  0  0  0  0  0  0  0  0  0  0
  -21.8690  -29.1510   22.5680 N   0  0  0  0  0  0  0  0  0  0  0  0
  -23.7810  -28.8750   23.7470 O   0  0  0  0  0  0  0  0  0  0  0  0
  -21.4350  -29.6320   21.7920 H   0  0  0  0  0  0  0  0  0  0  0  0
  -18.4980  -27.8790   22.8250 C   0  0  0  0  0  0  0  0  0  0  0  0
  -21.0090  -28.2390   23.3210 C   0  0  0  0  0  3  0  0  0  0  0  0
  -21.2050  -26.7770   22.8560 C   0  0  0  0  0  2  0  0  0  0  0  0
  -20.2150  -26.3510   21.7670 C   0  0  0  0  0  2  0  0  0  0  0  0
  -18.7740  -26.4940   22.2660 C   0  0  0  0  0  2  0  0  0  0  0  0
  -19.5490  -28.7050   23.3050 C   0  0  0  0  0  0  0  0  0  0  0  0
  -19.2420  -29.9980   23.7810 C   0  0  0  0  0  3  0  0  0  0  0  0
  -17.9150  -30.4670   23.7890 C   0  0  0  0  0  3  0  0  0  0  0  0
  -16.8760  -29.6390   23.3280 C   0  0  0  0  0  3  0  0  0  0  0  0
  -17.1680  -28.3490   22.8500 C   0  0  0  0  0  3  0  0  0  0  0  0
  -26.0840  -32.6480   24.1790 C   0  0  0  0  0  3  0  0  0  0  0  0
  -25.6950  -34.0450   24.4090 N   0  0  0  0  0  0  0  0  0  0  0  0
  -26.0240  -35.0690   23.6100 C   0  0  0  0  0  0  0  0  0  0  0  0
  -26.7590  -34.9400   22.6260 O   0  0  0  0  0  0  0  0  0  0  0  0
  -25.0480  -34.2140   25.1660 H   0  0  0  0  0  0  0  0  0  0  0  0
  -24.2170  -36.7350   23.0740 C   0  0  0  0  0  1  0  0  0  0  0  0
  -25.4460  -36.4550   23.9550 C   0  0  0  0  0  3  0  0  0  0  0  0
  -27.4930  -37.5110   24.8040 C   0  0  0  0  0  1  0  0  0  0  0  0
  -26.4240  -37.5530   23.8090 N   0  0  0  0  0  0  0  0  0  0  0  0
  -25.9650  -38.4580   23.8750 H   0  0  0  0  0  0  0  0  0  0  0  0
  -26.5270  -31.9620   25.5290 C   0  0  1  0  0  0  0  0  0  0  0  0
  -25.3540  -31.6730   26.4940 C   0  0  0  0  0  1  0  0  0  0  0  0
  -27.2480  -30.6220   25.2490 C   0  0  0  0  0  1  0  0  0  0  0  0
  -27.5410  -32.8650   26.2680 C   0  0  0  0  0  1  0  0  0  0  0  0
  -29.0210  -16.3300   18.6770 C   0  0  0  0  0  1  0  0  0  0  0  0
  -29.9350  -17.2170   19.5410 C   0  0  0  0  0  3  0  0  0  0  0  0
  -30.0320  -16.7850   21.0420 C   0  0  0  0  0  2  0  0  0  0  0  0
  -30.6740  -14.3350   20.9680 C   0  0  0  0  0  0  0  0  0  0  0  0
  -30.4830  -12.2000   19.7570 C   0  0  0  0  0  2  0  0  0  0  0  0
  -29.5990  -12.3930   18.5060 C   0  0  0  0  0  2  0  0  0  0  0  0
  -28.0950  -12.3120   18.8480 C   0  0  0  0  0  2  0  0  0  0  0  0
  -27.6920  -13.0900   20.1300 C   0  0  0  0  0  3  0  0  0  0  0  0
  -28.6890  -12.8150   21.2780 C   0  0  0  0  0  2  0  0  0  0  0  0
  -30.0400  -13.1450   20.7910 N   0  0  0  0  0  0  0  0  0  0  0  0
  -31.8430  -14.5440   20.6350 O   0  0  0  0  0  0  0  0  0  0  0  0
  -29.8440  -15.3430   21.2800 N   0  0  0  0  0  0  0  0  0  0  0  0
  -28.9100  -15.0620   21.5360 H   0  0  0  0  0  0  0  0  0  0  0  0
  -25.2400  -13.6750   20.6610 C   0  0  0  0  0  0  0  0  0  0  0  0
  -24.1600  -12.8910   20.9650 C   0  0  0  0  0  0  0  0  0  0  0  0
  -24.6440  -11.5480   20.9880 C   0  0  0  0  0  0  0  0  0  0  0  0
  -26.3130  -12.8080   20.5200 N   0  0  0  0  0  0  0  0  0  0  0  0
  -25.9530  -11.5260   20.7760 N   0  0  0  0  0  0  0  0  0  0  0  0
  -23.9280  -10.2760   21.1460 C   0  0  0  0  0  0  0  0  0  0  0  0
  -24.3060   -9.3370   22.1300 C   0  0  0  0  0  3  0  0  0  0  0  0
  -23.5960   -8.1260   22.2740 C   0  0  0  0  0  3  0  0  0  0  0  0
  -22.4940   -7.8470   21.4310 C   0  0  0  0  0  0  0  0  0  0  0  0
  -22.1370   -8.7750   20.4360 C   0  0  0  0  0  3  0  0  0  0  0  0
  -22.8480   -9.9780   20.2910 C   0  0  0  0  0  3  0  0  0  0  0  0
  -21.7590   -6.6870   21.4830 O   0  0  0  0  0  0  0  0  0  0  0  0
  -21.6350   -5.9660   22.6430 C   0  0  0  0  0  0  0  0  0  0  0  0
  -21.0740   -6.5250   23.8110 C   0  0  0  0  0  3  0  0  0  0  0  0
  -20.8990   -5.7250   24.9590 C   0  0  0  0  0  3  0  0  0  0  0  0
  -21.2790   -4.3700   24.9390 C   0  0  0  0  0  0  0  0  0  0  0  0
  -21.8340   -3.8110   23.7740 C   0  0  0  0  0  3  0  0  0  0  0  0
  -22.0090   -4.6070   22.6280 C   0  0  0  0  0  0  0  0  0  0  0  0
  -22.5250   -4.0570   21.5020 F   0  0  0  0  0  0  0  0  0  0  0  0
  -21.1040   -3.6010   26.0380 F   0  0  0  0  0  0  0  0  0  0  0  0
  -22.7400  -13.3490   21.1340 C   0  0  0  0  0  0  0  0  0  0  0  0
  -21.9620  -12.6460   21.9510 N   0  0  0  0  0  0  0  0  0  0  0  0
  -22.3230  -14.3620   20.5770 O   0  0  0  0  0  0  0  0  0  0  0  0
  -22.3110  -11.8260   22.4270 H   0  0  0  0  0  0  0  0  0  0  0  0
  -21.0060  -12.9330   22.1030 H   0  0  0  0  0  0  0  0  0  0  0  0
  -25.3960  -15.0450   20.4730 N   0  0  0  0  0  0  0  0  0  0  0  0
  -24.6110  -15.6870   20.5090 H   0  0  0  0  0  0  0  0  0  0  0  0
  -26.2590  -15.4930   20.1970 H   0  0  0  0  0  0  0  0  0  0  0  0
  3  6  1  0
  3  1  1  0
  4  6  1  0
  4  2  1  0
  5 55  1  0
  5  1  1  0
  5  2  1  0
  6  9  1  0
  9  7  1  6
  9  8  1  0
  9 10  1  0
 10 11  1  0
 12 11  1  0
 12 13  1  0
 14 25  2  0
 15 13  1  0
 15 20  1  0
 16 24  1  0
 16 26  1  0
 17 19  1  0
 18 24  1  0
 19 20  2  0
 19 18  1  0
 21 15  2  0
 22 21  1  0
 22 17  2  0
 23 17  1  0
 23 16  1  0
 24 14  1  0
 26 28  2  0
 27 26  1  0
 29 27  1  0
 30 39  2  0
 30 35  1  0
 31 27  1  0
 32 31  1  0
 33 34  1  0
 33 32  1  0
 34 30  1  0
 35 31  1  0
 35 36  2  0
 36 37  1  0
 38 37  2  0
 39 38  1  0
 40 14  1  0
 40 41  1  0
 40 50  1  0
 41 44  1  0
 42 46  1  0
 42 41  1  0
 43 42  2  0
 46 45  1  0
 48 49  1  0
 48 46  1  0
 48 47  1  0
 50 53  1  1
 50 51  1  0
 52 50  1  0
 55 54  1  0
 55 56  1  0
 56 65  1  0
 57 65  1  0
 58 63  1  0
 59 60  1  0
 59 58  1  0
 61 60  1  0
 61 70  1  0
 61 62  1  0
 63 57  1  0
 63 62  1  0
 64 57  2  0
 65 66  1  0
 67 68  2  0
 68 69  1  0
 68 87  1  0
 69 72  1  0
 70 67  1  0
 70 71  1  0
 71 69  2  0
 72 73  1  0
 73 74  2  0
 75 78  1  0
 75 74  1  0
 76 75  2  0
 77 76  1  0
 77 72  2  0
 78 79  1  0
 79 80  1  0
 80 81  2  0
 82 81  1  0
 82 86  1  0
 83 82  2  0
 84 79  2  0
 84 83  1  0
 85 84  1  0
 87 88  1  0
 88 91  1  0
 88 90  1  0
 89 87  2  0
 92 93  1  0
 92 67  1  0
 94 92  1  0
M  ISO  4  12 101  13 101  57 100  65 100
M  END
>  <TORSDO>  (61) 
F 22

>  <SCORE>  (61) 
-11.920

>  <name>  (61) 
60

>  <ligand_id>  (61) 
60

>  <original_smiles>  (61) 
[H]c1c([H])c([H])c2c(c1[H])C([H])([H])C([H])([H])C([H])([H])C2([H])N([H])C(=O)C1([H])N(C(=O)C([H])(N([H])C(=O)C([H])(N([H])C([H])([H])[H])C([H])([H])[H])C(C([H])([H])[H])(C([H])([H])[H])C([H])([H])[H])C([H])([H])c2c([H])c(OC([H])([H])C([H])([H])C([H])([H])C(C([H])([H])[H])(C([H])([H])[H])C3([H])C([H])([H])C([H])([H])C([H])(C([H])(C([H])([H])[H])C([H])([H])N([H])C(=O)N4C([H])([H])C([H])([H])C([H])([H])C([H])(n5nc(-c6c([H])c([H])c(Oc7c([H])c([H])c(F)c([H])c7F)c([H])c6[H])c(C(=O)N([H])[H])c5N([H])[H])C4([H])[H])C([H])([H])C3([H])[H])c([H])c([H])c2C1([H])[H]

>  <smiles>  (61) 
[H]c1c([H])c([H])c2c(c1[H])C([H])([H])C([H])([H])C([H])([H])C2([H])N([H])C(=O)C1([H])N(C(=O)C([H])(N([H])C(=O)C([H])(N([H])C([H])([H])[H])C([H])([H])[H])C(C([H])([H])[H])(C([H])([H])[H])C([H])([H])[H])C([H])([H])c2c([H])c(OC([H])([H])C([H])([H])C([H])([H])C(C([H])([H])[H])(C([H])([H])[H])C3([H])C([H])([H])C([H])([H])C([H])(C([H])(C([H])([H])[H])C([H])([H])N([H])C(=O)N4C([H])([H])C([H])([H])C([H])([H])C([H])(n5nc(-c6c([H])c([H])c(Oc7c([H])c([H])c(F)c([H])c7F)c([H])c6[H])c(C(=O)N([H])[H])c5N([H])[H])C4([H])[H])C([H])([H])C3([H])[H])c([H])c([H])c2C1([H])[H]

$$$$
61:0:0
     RDKit          3D

 96105  0  0  1  0  0  0  0  0999 V2000
  -31.6090  -23.8590   20.7400 C   0  0  0  0  0  2  0  0  0  0  0  0
  -29.4060  -22.6720   21.0800 C   0  0  0  0  0  2  0  0  0  0  0  0
  -30.8640  -25.0930   20.2060 C   0  0  0  0  0  2  0  0  0  0  0  0
  -28.6560  -23.9000   20.5420 C   0  0  0  0  0  2  0  0  0  0  0  0
  -30.7480  -23.0610   21.7390 C   0  0  0  0  0  3  0  0  0  0  0  0
  -29.5230  -24.7030   19.5540 C   0  0  0  0  0  3  0  0  0  0  0  0
  -31.5020  -21.8170   22.2490 C   0  0  0  0  0  2  0  0  0  0  0  0
  -31.5640  -21.9460   24.7900 C   0  0  0  0  0  1  0  0  0  0  0  0
  -30.9430  -21.2380   23.5720 C   0  0  0  0  0  3  0  0  0  0  0  0
  -30.1330  -17.4460   22.9240 C   0  0  0  0  0  2  0  0  0  0  0  0
  -32.5680  -17.6420   23.5680 C   0  0  0  0  0  2  0  0  0  0  0  0
  -30.0550  -18.9720   22.7660 C   0  0  0  0  0  2  0  0  0  0  0  0
  -32.4980  -19.1690   23.4190 C   0  0  0  0  0  2  0  0  0  0  0  0
  -31.5580  -16.9240   22.6520 C   0  0  0  0  0  3  0  0  0  0  0  0
  -31.0700  -19.6970   23.6770 C   0  0  0  0  0  3  0  0  0  0  0  0
  -31.6790  -15.3990   22.8310 C   0  0  0  0  0  2  0  0  0  0  0  0
  -30.8420  -14.2600   20.7750 C   0  0  0  0  0  0  0  0  0  0  0  0
  -30.4090  -12.2910   19.3610 C   0  0  0  0  0  2  0  0  0  0  0  0
  -29.4680  -12.5430   18.1740 C   0  0  0  0  0  2  0  0  0  0  0  0
  -28.0010  -12.3820   18.6040 C   0  0  0  0  0  2  0  0  0  0  0  0
  -27.6650  -13.2040   19.8740 C   0  0  0  0  0  3  0  0  0  0  0  0
  -28.7040  -12.9540   20.9880 C   0  0  0  0  0  2  0  0  0  0  0  0
  -30.0550  -13.2070   20.4520 N   0  0  0  0  0  0  0  0  0  0  0  0
  -31.7580  -14.6820   20.0620 O   0  0  0  0  0  0  0  0  0  0  0  0
  -30.7070  -14.6400   22.0500 N   0  0  0  0  0  0  0  0  0  0  0  0
  -29.9610  -14.1950   22.5640 H   0  0  0  0  0  0  0  0  0  0  0  0
  -25.2600  -13.8160   20.5670 C   0  0  0  0  0  0  0  0  0  0  0  0
  -24.1850  -13.0440   20.9160 C   0  0  0  0  0  0  0  0  0  0  0  0
  -24.6400  -11.6910   20.8720 C   0  0  0  0  0  0  0  0  0  0  0  0
  -26.3040  -12.9330   20.3360 N   0  0  0  0  0  0  0  0  0  0  0  0
  -25.9320  -11.6490   20.5750 N   0  0  0  0  0  0  0  0  0  0  0  0
  -23.9060  -10.4290   21.0400 C   0  0  0  0  0  0  0  0  0  0  0  0
  -24.3610   -9.4210   21.9180 C   0  0  0  0  0  3  0  0  0  0  0  0
  -23.6290   -8.2250   22.0760 C   0  0  0  0  0  3  0  0  0  0  0  0
  -22.4270   -8.0280   21.3550 C   0  0  0  0  0  0  0  0  0  0  0  0
  -21.9910   -9.0250   20.4650 C   0  0  0  0  0  3  0  0  0  0  0  0
  -22.7240  -10.2130   20.3050 C   0  0  0  0  0  3  0  0  0  0  0  0
  -21.6640   -6.8880   21.4240 O   0  0  0  0  0  0  0  0  0  0  0  0
  -21.6850   -6.0740   22.5280 C   0  0  0  0  0  0  0  0  0  0  0  0
  -21.4010   -6.5640   23.8210 C   0  0  0  0  0  3  0  0  0  0  0  0
  -21.3660   -5.6790   24.9170 C   0  0  0  0  0  3  0  0  0  0  0  0
  -21.6040   -4.3050   24.7220 C   0  0  0  0  0  0  0  0  0  0  0  0
  -21.8820   -3.8150   23.4340 C   0  0  0  0  0  3  0  0  0  0  0  0
  -21.9190   -4.6960   22.3400 C   0  0  0  0  0  0  0  0  0  0  0  0
  -22.1660   -4.2150   21.0980 F   0  0  0  0  0  0  0  0  0  0  0  0
  -21.5630   -3.4540   25.7740 F   0  0  0  0  0  0  0  0  0  0  0  0
  -22.7870  -13.5240   21.1840 C   0  0  0  0  0  0  0  0  0  0  0  0
  -22.0510  -12.8230   22.0390 N   0  0  0  0  0  0  0  0  0  0  0  0
  -22.3550  -14.5550   20.6700 O   0  0  0  0  0  0  0  0  0  0  0  0
  -22.4120  -11.9880   22.4770 H   0  0  0  0  0  0  0  0  0  0  0  0
  -21.1130  -13.1260   22.2600 H   0  0  0  0  0  0  0  0  0  0  0  0
  -25.4330  -15.1880   20.4090 N   0  0  0  0  0  0  0  0  0  0  0  0
  -24.6730  -15.8500   20.5240 H   0  0  0  0  0  0  0  0  0  0  0  0
  -26.2990  -15.6260   20.1160 H   0  0  0  0  0  0  0  0  0  0  0  0
  -28.7700  -25.9220   18.9940 C   0  0  0  0  0  2  0  0  0  0  0  0
  -28.4410  -26.7990   20.0720 O   0  0  0  0  0  0  0  0  0  0  0  0
  -24.6110  -31.8700   23.2130 C   0  0  0  0  0  0  0  0  0  0  0  0
  -27.2400  -27.4720   20.0650 C   0  0  0  0  0  0  0  0  0  0  0  0
  -23.3960  -30.4950   21.5540 C   0  0  0  0  0  3  0  0  0  0  0  0
  -24.8400  -28.9640   20.1160 C   0  0  0  0  0  0  0  0  0  0  0  0
  -25.9220  -30.8430   21.3630 C   0  0  0  0  0  2  0  0  0  0  0  0
  -25.9980  -29.4800   20.7090 C   0  0  0  0  0  0  0  0  0  0  0  0
  -27.1950  -28.7350   20.6910 C   0  0  0  0  0  3  0  0  0  0  0  0
  -26.0530  -26.9480   19.5000 C   0  0  0  0  0  3  0  0  0  0  0  0
  -24.8590  -27.6930   19.5170 C   0  0  0  0  0  3  0  0  0  0  0  0
  -23.6010  -29.8280   20.1670 C   0  0  0  0  0  2  0  0  0  0  0  0
  -24.6610  -31.0830   22.1020 N   0  0  0  0  0  0  0  0  0  0  0  0
  -23.5320  -32.1450   23.7550 O   0  0  0  0  0  0  0  0  0  0  0  0
  -22.7380  -29.4670   22.5020 C   0  0  0  0  0  0  0  0  0  0  0  0
  -21.4120  -29.3030   22.3750 N   0  0  0  0  0  0  0  0  0  0  0  0
  -23.4170  -28.8220   23.3050 O   0  0  0  0  0  0  0  0  0  0  0  0
  -20.9260  -29.8760   21.6990 H   0  0  0  0  0  0  0  0  0  0  0  0
  -18.0260  -28.1370   22.8490 C   0  0  0  0  0  0  0  0  0  0  0  0
  -20.5850  -28.3650   23.1330 C   0  0  0  0  0  3  0  0  0  0  0  0
  -20.6750  -26.9390   22.5430 C   0  0  0  0  0  2  0  0  0  0  0  0
  -19.5740  -26.6380   21.5210 C   0  0  0  0  0  2  0  0  0  0  0  0
  -18.1910  -26.7930   22.1610 C   0  0  0  0  0  2  0  0  0  0  0  0
  -19.1510  -28.8830   23.2910 C   0  0  0  0  0  0  0  0  0  0  0  0
  -18.9450  -30.1440   23.8920 C   0  0  0  0  0  3  0  0  0  0  0  0
  -17.6450  -30.6580   24.0570 C   0  0  0  0  0  3  0  0  0  0  0  0
  -16.5340  -29.9090   23.6330 C   0  0  0  0  0  3  0  0  0  0  0  0
  -16.7250  -28.6510   23.0340 C   0  0  0  0  0  3  0  0  0  0  0  0
  -25.9020  -32.4840   23.8410 C   0  0  0  0  0  3  0  0  0  0  0  0
  -25.5890  -33.8640   24.2340 N   0  0  0  0  0  0  0  0  0  0  0  0
  -25.9030  -34.9490   23.5140 C   0  0  0  0  0  0  0  0  0  0  0  0
  -26.5590  -34.8930   22.4700 O   0  0  0  0  0  0  0  0  0  0  0  0
  -25.0050  -33.9810   25.0490 H   0  0  0  0  0  0  0  0  0  0  0  0
  -24.1480  -36.7320   23.2640 C   0  0  0  0  0  1  0  0  0  0  0  0
  -25.4110  -36.3120   24.0340 C   0  0  0  0  0  3  0  0  0  0  0  0
  -27.5580  -37.1810   24.8460 C   0  0  0  0  0  1  0  0  0  0  0  0
  -26.4300  -37.3800   23.9410 N   0  0  0  0  0  0  0  0  0  0  0  0
  -26.0190  -38.2890   24.1410 H   0  0  0  0  0  0  0  0  0  0  0  0
  -26.4460  -31.6610   25.0730 C   0  0  1  0  0  0  0  0  0  0  0  0
  -25.3740  -31.3710   26.1490 C   0  0  0  0  0  1  0  0  0  0  0  0
  -27.0280  -30.3060   24.6090 C   0  0  0  0  0  1  0  0  0  0  0  0
  -27.6040  -32.4320   25.7490 C   0  0  0  0  0  1  0  0  0  0  0  0
  1  5  1  0
  2  5  1  0
  3  1  1  0
  4  2  1  0
  5  7  1  0
  6 55  1  0
  6  3  1  0
  6  4  1  0
  7  9  1  0
  9  8  1  0
 12 10  1  0
 12 15  1  0
 13 11  1  0
 13 15  1  0
 14 16  1  0
 14 10  1  0
 14 11  1  0
 15  9  1  0
 17 25  1  0
 18 23  1  0
 19 20  1  0
 19 18  1  0
 21 20  1  0
 21 30  1  0
 21 22  1  0
 23 17  1  0
 23 22  1  0
 24 17  2  0
 25 26  1  0
 25 16  1  0
 27 28  2  0
 28 47  1  0
 29 28  1  0
 29 32  1  0
 30 27  1  0
 30 31  1  0
 31 29  2  0
 32 33  1  0
 33 34  2  0
 35 38  1  0
 35 34  1  0
 36 35  2  0
 37 36  1  0
 37 32  2  0
 38 39  1  0
 39 40  1  0
 40 41  2  0
 42 41  1  0
 42 46  1  0
 43 42  2  0
 44 39  2  0
 44 43  1  0
 45 44  1  0
 47 48  1  0
 48 51  1  0
 48 50  1  0
 49 47  2  0
 52 53  1  0
 52 27  1  0
 54 52  1  0
 55 56  1  0
 57 68  2  0
 58 56  1  0
 58 63  1  0
 59 67  1  0
 59 69  1  0
 60 66  1  0
 60 62  1  0
 61 67  1  0
 62 61  1  0
 63 62  2  0
 64 65  1  0
 64 58  2  0
 65 60  2  0
 66 59  1  0
 67 57  1  0
 69 71  2  0
 70 69  1  0
 72 70  1  0
 73 82  2  0
 73 78  1  0
 74 70  1  0
 74 78  1  0
 75 74  1  0
 76 77  1  0
 76 75  1  0
 77 73  1  0
 78 79  2  0
 79 80  1  0
 81 80  2  0
 82 81  1  0
 83 57  1  0
 83 84  1  0
 83 93  1  0
 84 87  1  0
 85 89  1  0
 85 84  1  0
 86 85  2  0
 89 88  1  0
 91 89  1  0
 91 92  1  0
 91 90  1  0
 93 96  1  1
 93 94  1  0
 95 93  1  0
M  ISO  4  17 100  25 100  55 101  56 101
M  END
>  <TORSDO>  (62) 
F 21

>  <SCORE>  (62) 
-3.542

>  <name>  (62) 
61

>  <ligand_id>  (62) 
61

>  <original_smiles>  (62) 
[H]c1c([H])c([H])c2c(c1[H])C([H])([H])C([H])([H])C([H])([H])C2([H])N([H])C(=O)C1([H])N(C(=O)C([H])(N([H])C(=O)C([H])(N([H])C([H])([H])[H])C([H])([H])[H])C(C([H])([H])[H])(C([H])([H])[H])C([H])([H])[H])C([H])([H])c2c([H])c(OC([H])([H])C3([H])C([H])([H])C([H])([H])C([H])(C([H])([H])C([H])(C([H])([H])[H])C4([H])C([H])([H])C([H])([H])C([H])(C([H])([H])N([H])C(=O)N5C([H])([H])C([H])([H])C([H])([H])C([H])(n6nc(-c7c([H])c([H])c(Oc8c([H])c([H])c(F)c([H])c8F)c([H])c7[H])c(C(=O)N([H])[H])c6N([H])[H])C5([H])[H])C([H])([H])C4([H])[H])C([H])([H])C3([H])[H])c([H])c([H])c2C1([H])[H]

>  <smiles>  (62) 
[H]c1c([H])c([H])c2c(c1[H])C([H])([H])C([H])([H])C([H])([H])C2([H])N([H])C(=O)C1([H])N(C(=O)C([H])(N([H])C(=O)C([H])(N([H])C([H])([H])[H])C([H])([H])[H])C(C([H])([H])[H])(C([H])([H])[H])C([H])([H])[H])C([H])([H])c2c([H])c(OC([H])([H])C3([H])C([H])([H])C([H])([H])C([H])(C([H])([H])C([H])(C([H])([H])[H])C4([H])C([H])([H])C([H])([H])C([H])(C([H])([H])N([H])C(=O)N5C([H])([H])C([H])([H])C([H])([H])C([H])(n6nc(-c7c([H])c([H])c(Oc8c([H])c([H])c(F)c([H])c8F)c([H])c7[H])c(C(=O)N([H])[H])c6N([H])[H])C5([H])[H])C([H])([H])C4([H])[H])C([H])([H])C3([H])[H])c([H])c([H])c2C1([H])[H]

$$$$
62:0:0
     RDKit          3D

 99108  0  0  1  0  0  0  0  0999 V2000
  -30.3600  -14.8800   20.1830 C   0  0  0  0  0  0  0  0  0  0  0  0
  -30.3820  -12.4330   19.4400 C   0  0  0  0  0  2  0  0  0  0  0  0
  -29.4450  -12.1470   18.2450 C   0  0  0  0  0  2  0  0  0  0  0  0
  -28.0070  -11.8830   18.7240 C   0  0  0  0  0  2  0  0  0  0  0  0
  -27.5340  -12.9170   19.7780 C   0  0  0  0  0  3  0  0  0  0  0  0
  -28.5910  -13.1540   20.8760 C   0  0  0  0  0  2  0  0  0  0  0  0
  -29.8200  -13.5890   20.1990 N   0  0  0  0  0  0  0  0  0  0  0  0
  -31.5790  -14.9570   19.9890 O   0  0  0  0  0  0  0  0  0  0  0  0
  -30.0730  -19.1180   22.1750 C   0  0  0  0  0  3  0  0  0  0  0  0
  -30.1750  -17.8360   21.6020 C   0  0  0  0  0  3  0  0  0  0  0  0
  -29.4380  -20.2050   21.5280 C   0  0  0  0  0  0  0  0  0  0  0  0
  -28.9510  -20.0360   20.1980 C   0  0  0  0  0  0  0  0  0  0  0  0
  -29.5920  -17.5420   20.3600 C   0  0  0  0  0  0  0  0  0  0  0  0
  -29.0100  -18.6840   19.6970 N   0  0  0  0  0  0  0  0  0  0  0  0
  -29.5120  -16.0330   20.0410 N   0  0  0  0  0  0  0  0  0  0  0  0
  -28.5870  -15.7570   19.7550 H   0  0  0  0  0  0  0  0  0  0  0  0
  -25.1730  -13.4520   20.5990 C   0  0  0  0  0  0  0  0  0  0  0  0
  -24.1370  -12.6600   20.9990 C   0  0  0  0  0  0  0  0  0  0  0  0
  -24.6210  -11.3170   20.9520 C   0  0  0  0  0  0  0  0  0  0  0  0
  -26.2230  -12.5920   20.3240 N   0  0  0  0  0  0  0  0  0  0  0  0
  -25.9030  -11.3040   20.6050 N   0  0  0  0  0  0  0  0  0  0  0  0
  -23.9220  -10.0420   21.1570 C   0  0  0  0  0  0  0  0  0  0  0  0
  -24.3750   -9.0920   22.0980 C   0  0  0  0  0  3  0  0  0  0  0  0
  -23.6720   -7.8830   22.2920 C   0  0  0  0  0  3  0  0  0  0  0  0
  -22.5000   -7.6150   21.5450 C   0  0  0  0  0  0  0  0  0  0  0  0
  -22.0660   -8.5520   20.5910 C   0  0  0  0  0  3  0  0  0  0  0  0
  -22.7700   -9.7520   20.3950 C   0  0  0  0  0  3  0  0  0  0  0  0
  -21.7690   -6.4560   21.6480 O   0  0  0  0  0  0  0  0  0  0  0  0
  -21.6900   -5.7570   22.8260 C   0  0  0  0  0  0  0  0  0  0  0  0
  -21.1520   -6.3300   23.9980 C   0  0  0  0  0  3  0  0  0  0  0  0
  -21.0300   -5.5530   25.1680 C   0  0  0  0  0  3  0  0  0  0  0  0
  -21.4310   -4.2040   25.1620 C   0  0  0  0  0  0  0  0  0  0  0  0
  -21.9600   -3.6300   23.9930 C   0  0  0  0  0  3  0  0  0  0  0  0
  -22.0860   -4.4050   22.8270 C   0  0  0  0  0  0  0  0  0  0  0  0
  -22.5760   -3.8430   21.6960 F   0  0  0  0  0  0  0  0  0  0  0  0
  -21.3050   -3.4520   26.2820 F   0  0  0  0  0  0  0  0  0  0  0  0
  -22.7380  -13.1140   21.3050 C   0  0  0  0  0  0  0  0  0  0  0  0
  -22.0540  -12.4210   22.2100 N   0  0  0  0  0  0  0  0  0  0  0  0
  -22.2610  -14.1150   20.7750 O   0  0  0  0  0  0  0  0  0  0  0  0
  -22.4570  -11.6160   22.6660 H   0  0  0  0  0  0  0  0  0  0  0  0
  -21.1140  -12.7030   22.4500 H   0  0  0  0  0  0  0  0  0  0  0  0
  -25.3090  -14.8250   20.4170 N   0  0  0  0  0  0  0  0  0  0  0  0
  -24.5280  -15.4610   20.5350 H   0  0  0  0  0  0  0  0  0  0  0  0
  -26.1190  -15.2750   20.0110 H   0  0  0  0  0  0  0  0  0  0  0  0
  -29.1590  -21.4260   22.4090 C   0  0  0  0  0  2  0  0  0  0  0  0
  -30.5330  -22.8690   24.4990 C   0  0  0  0  0  2  0  0  0  0  0  0
  -31.2980  -22.1240   23.4070 C   0  0  0  0  0  2  0  0  0  0  0  0
  -29.7620  -23.5650   23.3690 C   0  0  0  0  0  3  0  0  0  0  0  0
  -30.2040  -22.4640   22.4850 N   0  0  0  0  0  0  0  0  0  0  0  0
  -30.2360  -24.9450   22.8950 C   0  0  0  0  0  2  0  0  0  0  0  0
  -30.0840  -26.5680   21.0330 C   0  0  0  0  0  1  0  0  0  0  0  0
  -29.5300  -25.3550   21.6670 N   0  0  0  0  0  4  0  0  0  0  0  0
  -29.6060  -24.5930   21.0140 H   0  0  0  0  0  0  0  0  0  0  0  0
  -28.5560  -25.5010   21.8810 H   0  0  0  0  0  0  0  0  0  0  0  0
  -28.2660  -21.3080   19.3490 C   0  0  0  0  0  3  0  0  0  0  0  0
  -28.4970  -23.0010   19.4950 C   0  0  0  0  0  3  0  0  0  0  0  0
  -27.5620  -23.9510   17.2650 C   0  0  0  0  0  1  0  0  0  0  0  0
  -27.5770  -24.2370   18.7700 C   0  0  0  0  0  3  0  0  0  0  0  0
  -27.8140  -25.7910   18.8360 O   0  0  0  0  0  0  0  0  0  0  0  0
  -24.6940  -31.2800   22.6700 C   0  0  0  0  0  0  0  0  0  0  0  0
  -26.7880  -26.8150   18.9370 C   0  0  0  0  0  0  0  0  0  0  0  0
  -23.2860  -30.0870   21.0350 C   0  0  0  0  0  3  0  0  0  0  0  0
  -24.5280  -28.6270   19.3130 C   0  0  0  0  0  0  0  0  0  0  0  0
  -25.8160  -30.2970   20.6340 C   0  0  0  0  0  2  0  0  0  0  0  0
  -25.7730  -28.9760   19.8430 C   0  0  0  0  0  0  0  0  0  0  0  0
  -26.8970  -28.0860   19.6450 C   0  0  0  0  0  3  0  0  0  0  0  0
  -25.5120  -26.5860   18.3710 C   0  0  0  0  0  3  0  0  0  0  0  0
  -24.4080  -27.4460   18.5660 C   0  0  0  0  0  3  0  0  0  0  0  0
  -23.3400  -29.5430   19.5810 C   0  0  0  0  0  2  0  0  0  0  0  0
  -24.6240  -30.5730   21.4990 N   0  0  0  0  0  0  0  0  0  0  0  0
  -23.6760  -31.5400   23.3300 O   0  0  0  0  0  0  0  0  0  0  0  0
  -22.6730  -29.0060   21.9590 C   0  0  0  0  0  0  0  0  0  0  0  0
  -21.3340  -28.8810   21.9540 N   0  0  0  0  0  0  0  0  0  0  0  0
  -23.4030  -28.2840   22.6420 O   0  0  0  0  0  0  0  0  0  0  0  0
  -20.8020  -29.5210   21.3790 H   0  0  0  0  0  0  0  0  0  0  0  0
  -17.9860  -27.6750   22.6360 C   0  0  0  0  0  0  0  0  0  0  0  0
  -20.5620  -27.8900   22.7080 C   0  0  0  0  0  3  0  0  0  0  0  0
  -20.5940  -26.5120   22.0090 C   0  0  0  0  0  2  0  0  0  0  0  0
  -19.4090  -26.2870   21.0650 C   0  0  0  0  0  2  0  0  0  0  0  0
  -18.0860  -26.3900   21.8310 C   0  0  0  0  0  2  0  0  0  0  0  0
  -19.1500  -28.3890   23.0320 C   0  0  0  0  0  0  0  0  0  0  0  0
  -19.0040  -29.5940   23.7510 C   0  0  0  0  0  3  0  0  0  0  0  0
  -17.7270  -30.0930   24.0680 C   0  0  0  0  0  3  0  0  0  0  0  0
  -16.5780  -29.3780   23.6860 C   0  0  0  0  0  3  0  0  0  0  0  0
  -16.7100  -28.1680   22.9800 C   0  0  0  0  0  3  0  0  0  0  0  0
  -26.0520  -31.8140   23.2250 C   0  0  0  0  0  3  0  0  0  0  0  0
  -25.7980  -33.1210   23.8520 N   0  0  0  0  0  0  0  0  0  0  0  0
  -26.1820  -34.3020   23.3480 C   0  0  0  0  0  0  0  0  0  0  0  0
  -26.8570  -34.3990   22.3200 O   0  0  0  0  0  0  0  0  0  0  0  0
  -25.2090  -33.1250   24.6730 H   0  0  0  0  0  0  0  0  0  0  0  0
  -24.5560  -36.2230   23.3830 C   0  0  0  0  0  1  0  0  0  0  0  0
  -25.7500  -35.5750   24.1020 C   0  0  0  0  0  3  0  0  0  0  0  0
  -27.8930  -36.1320   25.1640 C   0  0  0  0  0  1  0  0  0  0  0  0
  -26.8360  -36.5670   24.2550 N   0  0  0  0  0  0  0  0  0  0  0  0
  -26.4700  -37.4510   24.5970 H   0  0  0  0  0  0  0  0  0  0  0  0
  -26.7360  -30.8320   24.2580 C   0  0  1  0  0  0  0  0  0  0  0  0
  -25.8060  -30.4000   25.4130 C   0  0  0  0  0  1  0  0  0  0  0  0
  -27.2390  -29.5500   23.5520 C   0  0  0  0  0  1  0  0  0  0  0  0
  -27.9790  -31.5120   24.8810 C   0  0  0  0  0  1  0  0  0  0  0  0
  1  7  1  0
  2  7  1  0
  3  4  1  0
  3  2  1  0
  5  4  1  0
  5 20  1  0
  5  6  1  0
  7  6  1  0
  8  1  2  0
 10  9  1  0
 11  9  2  0
 11 45  1  0
 12 11  1  0
 13 10  2  0
 14 12  2  0
 14 13  1  0
 15  1  1  0
 15 13  1  0
 16 15  1  0
 17 18  2  0
 18 37  1  0
 19 18  1  0
 19 22  1  0
 20 17  1  0
 20 21  1  0
 21 19  2  0
 22 23  1  0
 23 24  2  0
 25 28  1  0
 25 24  1  0
 26 25  2  0
 27 26  1  0
 27 22  2  0
 28 29  1  0
 29 34  2  0
 29 30  1  0
 30 31  2  0
 32 31  1  0
 32 36  1  0
 33 32  2  0
 34 33  1  0
 35 34  1  0
 37 38  1  0
 38 41  1  0
 38 40  1  0
 39 37  2  0
 42 43  1  0
 42 17  1  0
 44 42  1  0
 45 49  1  0
 47 46  1  0
 48 50  1  0
 48 46  1  0
 49 48  1  0
 49 47  1  0
 51 52  1  0
 52 54  1  0
 52 50  1  0
 53 52  1  0
 55 56  2  0
 55 12  1  0
 58 57  1  0
 58 59  1  0
 58 56  1  0
 59 61  1  0
 60 71  2  0
 61 66  1  0
 62 70  1  0
 62 72  1  0
 63 69  1  0
 63 65  1  0
 64 70  1  0
 65 64  1  0
 66 65  2  0
 67 68  1  0
 67 61  2  0
 68 63  2  0
 69 62  1  0
 70 60  1  0
 72 74  2  0
 73 72  1  0
 75 73  1  0
 76 85  2  0
 76 81  1  0
 77 73  1  0
 77 81  1  0
 78 77  1  0
 79 80  1  0
 79 78  1  0
 80 76  1  0
 81 82  2  0
 82 83  1  0
 84 83  2  0
 85 84  1  0
 86 60  1  0
 86 87  1  0
 86 96  1  0
 87 90  1  0
 88 87  1  0
 88 92  1  0
 89 88  2  0
 92 91  1  0
 92 94  1  0
 94 95  1  0
 94 93  1  0
 96 99  1  1
 96 97  1  0
 98 96  1  0
M  ISO  4   1 100  15 100  58 101  59 101
M  END
>  <TORSDO>  (63) 
F 22

>  <SCORE>  (63) 
-10.224

>  <name>  (63) 
62

>  <ligand_id>  (63) 
62

>  <original_smiles>  (63) 
[H]c1c(N([H])C(=O)N2C([H])([H])C([H])([H])C([H])([H])C([H])(n3nc(-c4c([H])c([H])c(Oc5c([H])c([H])c(F)c([H])c5F)c([H])c4[H])c(C(=O)N([H])[H])c3N([H])[H])C2([H])[H])nc(C([H])([H])C([H])([H])C([H])(Oc2c([H])c([H])c3c(c2[H])C([H])([H])N(C(=O)C([H])(N([H])C(=O)C([H])(N([H])C([H])([H])[H])C([H])([H])[H])C(C([H])([H])[H])(C([H])([H])[H])C([H])([H])[H])C([H])(C(=O)N([H])C2([H])c4c([H])c([H])c([H])c([H])c4C([H])([H])C([H])([H])C2([H])[H])C3([H])[H])C([H])([H])[H])c(C([H])([H])N2C([H])([H])C([H])([H])C2([H])C([H])([H])[N+]([H])([H])C([H])([H])[H])c1[H]

>  <smiles>  (63) 
[H]c1c(N([H])C(=O)N2C([H])([H])C([H])([H])C([H])([H])C([H])(n3nc(-c4c([H])c([H])c(Oc5c([H])c([H])c(F)c([H])c5F)c([H])c4[H])c(C(=O)N([H])[H])c3N([H])[H])C2([H])[H])nc(C([H])([H])C([H])([H])C([H])(Oc2c([H])c([H])c3c(c2[H])C([H])([H])N(C(=O)C([H])(N([H])C(=O)C([H])(N([H])C([H])([H])[H])C([H])([H])[H])C(C([H])([H])[H])(C([H])([H])[H])C([H])([H])[H])C([H])(C(=O)N([H])C2([H])c4c([H])c([H])c([H])c([H])c4C([H])([H])C([H])([H])C2([H])[H])C3([H])[H])C([H])([H])[H])c(C([H])([H])N2C([H])([H])C([H])([H])C2([H])C([H])([H])[N+]([H])([H])C([H])([H])[H])c1[H]

$$$$
63:0:0
     RDKit          3D

102110  0  0  1  0  0  0  0  0999 V2000
  -26.0780  -24.0990   19.6700 C   0  0  0  0  0  3  0  0  0  0  0  0
  -26.3890  -22.5570   17.4230 C   0  0  0  0  0  3  0  0  0  0  0  0
  -25.3480  -22.8960   19.5920 C   0  0  0  0  0  0  0  0  0  0  0  0
  -25.6060  -22.0540   18.4790 C   0  0  0  0  0  0  0  0  0  0  0  0
  -26.9660  -24.4190   18.6290 C   0  0  0  0  0  0  0  0  0  0  0  0
  -27.0660  -23.7140   17.4970 N   0  0  0  0  0  0  0  0  0  0  0  0
  -27.8610  -25.4720   18.7010 N   0  0  0  0  0  0  0  0  0  0  0  0
  -28.3890  -25.5800   17.8430 H   0  0  0  0  0  0  0  0  0  0  0  0
  -24.3360  -22.5610   20.6850 C   0  0  0  0  0  2  0  0  0  0  0  0
  -24.0740  -23.7520   21.6380 C   0  0  0  0  0  2  0  0  0  0  0  0
  -24.9850  -25.1060   23.5300 C   0  0  0  0  0  1  0  0  0  0  0  0
  -25.2060  -24.0120   22.5620 N   0  0  0  0  0  4  0  0  0  0  0  0
  -25.4040  -23.1760   23.0840 H   0  0  0  0  0  0  0  0  0  0  0  0
  -26.0300  -24.2340   22.0270 H   0  0  0  0  0  0  0  0  0  0  0  0
  -25.2820  -20.5670   18.4520 C   0  0  0  0  0  2  0  0  0  0  0  0
  -26.6340  -19.8200   18.5100 C   0  0  0  0  0  2  0  0  0  0  0  0
  -26.6460  -18.5810   19.3150 N   0  0  0  0  0  4  0  0  0  0  0  0
  -26.0700  -17.9060   18.8180 H   0  0  0  0  0  0  0  0  0  0  0  0
  -26.2140  -18.7500   20.2100 H   0  0  0  0  0  0  0  0  0  0  0  0
  -27.9880  -17.9530   19.4900 C   0  0  0  0  0  2  0  0  0  0  0  0
  -28.9050  -18.1750   20.7320 C   0  0  0  0  0  2  0  0  0  0  0  0
  -30.2030  -16.1630   20.1420 C   0  0  0  0  0  0  0  0  0  0  0  0
  -30.4560  -13.7710   19.6010 C   0  0  0  0  0  2  0  0  0  0  0  0
  -29.6040  -13.3290   18.3950 C   0  0  0  0  0  2  0  0  0  0  0  0
  -28.1540  -13.0110   18.8090 C   0  0  0  0  0  2  0  0  0  0  0  0
  -27.5240  -14.1320   19.6730 C   0  0  0  0  0  3  0  0  0  0  0  0
  -28.4770  -14.4750   20.8380 C   0  0  0  0  0  2  0  0  0  0  0  0
  -29.7900  -14.8820   20.2830 N   0  0  0  0  0  0  0  0  0  0  0  0
  -31.0470  -16.5570   19.3330 O   0  0  0  0  0  0  0  0  0  0  0  0
  -29.6350  -16.9550   21.0530 N   0  0  0  0  0  0  0  0  0  0  0  0
  -29.2400  -16.4330   21.8200 H   0  0  0  0  0  0  0  0  0  0  0  0
  -25.0990  -14.5510   20.4600 C   0  0  0  0  0  0  0  0  0  0  0  0
  -24.0910  -13.6870   20.8030 C   0  0  0  0  0  0  0  0  0  0  0  0
  -24.6410  -12.3730   20.6840 C   0  0  0  0  0  0  0  0  0  0  0  0
  -26.1950  -13.7540   20.1550 N   0  0  0  0  0  0  0  0  0  0  0  0
  -25.9220  -12.4390   20.3460 N   0  0  0  0  0  0  0  0  0  0  0  0
  -24.0060  -11.0540   20.8200 C   0  0  0  0  0  0  0  0  0  0  0  0
  -24.4300  -10.1360   21.8060 C   0  0  0  0  0  3  0  0  0  0  0  0
  -23.8040   -8.8760   21.9280 C   0  0  0  0  0  3  0  0  0  0  0  0
  -22.7430   -8.5240   21.0600 C   0  0  0  0  0  0  0  0  0  0  0  0
  -22.3410   -9.4340   20.0670 C   0  0  0  0  0  3  0  0  0  0  0  0
  -22.9670  -10.6850   19.9430 C   0  0  0  0  0  3  0  0  0  0  0  0
  -22.0900   -7.3150   21.0880 O   0  0  0  0  0  0  0  0  0  0  0  0
  -21.8810   -6.6400   22.2650 C   0  0  0  0  0  0  0  0  0  0  0  0
  -21.1470   -7.2070   23.3300 C   0  0  0  0  0  3  0  0  0  0  0  0
  -20.9000   -6.4520   24.4950 C   0  0  0  0  0  3  0  0  0  0  0  0
  -21.3730   -5.1290   24.5910 C   0  0  0  0  0  0  0  0  0  0  0  0
  -22.0970   -4.5610   23.5270 C   0  0  0  0  0  3  0  0  0  0  0  0
  -22.3470   -5.3150   22.3680 C   0  0  0  0  0  0  0  0  0  0  0  0
  -23.0280   -4.7550   21.3370 F   0  0  0  0  0  0  0  0  0  0  0  0
  -21.1280   -4.4010   25.7050 F   0  0  0  0  0  0  0  0  0  0  0  0
  -22.6680  -14.0450   21.1200 C   0  0  0  0  0  0  0  0  0  0  0  0
  -22.0160  -13.2650   21.9760 N   0  0  0  0  0  0  0  0  0  0  0  0
  -22.1390  -15.0480   20.6390 O   0  0  0  0  0  0  0  0  0  0  0  0
  -22.4570  -12.4500   22.3750 H   0  0  0  0  0  0  0  0  0  0  0  0
  -21.0640  -13.4810   22.2310 H   0  0  0  0  0  0  0  0  0  0  0  0
  -25.1710  -15.9400   20.3540 N   0  0  0  0  0  0  0  0  0  0  0  0
  -24.2290  -16.3170   20.3980 H   0  0  0  0  0  0  0  0  0  0  0  0
  -25.5820  -16.1830   19.4590 H   0  0  0  0  0  0  0  0  0  0  0  0
  -28.6990  -25.4970   19.8960 C   0  0  0  0  0  2  0  0  0  0  0  0
  -29.8470  -26.5240   19.7580 C   0  0  0  0  0  2  0  0  0  0  0  0
  -29.7010  -27.6560   20.6160 O   0  0  0  0  0  0  0  0  0  0  0  0
  -25.5100  -31.9740   24.3690 C   0  0  0  0  0  0  0  0  0  0  0  0
  -28.5030  -28.3360   20.6330 C   0  0  0  0  0  0  0  0  0  0  0  0
  -24.4680  -30.9330   22.3820 C   0  0  0  0  0  3  0  0  0  0  0  0
  -26.0610  -29.7580   20.7840 C   0  0  0  0  0  0  0  0  0  0  0  0
  -26.9850  -31.3600   22.4600 C   0  0  0  0  0  2  0  0  0  0  0  0
  -27.1530  -30.1490   21.5670 C   0  0  0  0  0  0  0  0  0  0  0  0
  -28.3720  -29.4360   21.5050 C   0  0  0  0  0  3  0  0  0  0  0  0
  -27.4020  -27.9940   19.8160 C   0  0  0  0  0  3  0  0  0  0  0  0
  -26.1780  -28.6730   19.9060 C   0  0  0  0  0  3  0  0  0  0  0  0
  -24.7940  -30.5700   20.9110 C   0  0  0  0  0  2  0  0  0  0  0  0
  -25.6680  -31.4230   23.1320 N   0  0  0  0  0  0  0  0  0  0  0  0
  -24.3870  -32.1080   24.8720 O   0  0  0  0  0  0  0  0  0  0  0  0
  -23.7840  -29.7180   23.0510 C   0  0  0  0  0  0  0  0  0  0  0  0
  -22.4940  -29.5120   22.7360 N   0  0  0  0  0  0  0  0  0  0  0  0
  -24.4110  -28.9780   23.8140 O   0  0  0  0  0  0  0  0  0  0  0  0
  -22.0490  -30.1740   22.1180 H   0  0  0  0  0  0  0  0  0  0  0  0
  -19.1690  -28.1060   22.5970 C   0  0  0  0  0  0  0  0  0  0  0  0
  -21.6570  -28.4110   23.2140 C   0  0  0  0  0  3  0  0  0  0  0  0
  -21.9090  -27.1180   22.4030 C   0  0  0  0  0  2  0  0  0  0  0  0
  -20.9490  -26.9480   21.2230 C   0  0  0  0  0  2  0  0  0  0  0  0
  -19.4980  -26.9150   21.7120 C   0  0  0  0  0  2  0  0  0  0  0  0
  -20.1840  -28.8180   23.2900 C   0  0  0  0  0  0  0  0  0  0  0  0
  -19.8290  -29.9400   24.0700 C   0  0  0  0  0  3  0  0  0  0  0  0
  -18.4860  -30.3530   24.1600 C   0  0  0  0  0  3  0  0  0  0  0  0
  -17.4810  -29.6380   23.4850 C   0  0  0  0  0  3  0  0  0  0  0  0
  -17.8220  -28.5120   22.7160 C   0  0  0  0  0  3  0  0  0  0  0  0
  -26.7330  -32.4790   25.1970 C   0  0  0  0  0  3  0  0  0  0  0  0
  -27.0170  -31.6060   26.4800 C   0  0  1  0  0  0  0  0  0  0  0  0
  -25.7600  -31.3400   27.3420 C   0  0  0  0  0  1  0  0  0  0  0  0
  -27.6140  -30.2340   26.0840 C   0  0  0  0  0  1  0  0  0  0  0  0
  -28.0690  -32.3060   27.3700 C   0  0  0  0  0  1  0  0  0  0  0  0
  -26.4650  -33.8760   25.5610 N   0  0  0  0  0  0  0  0  0  0  0  0
  -26.9470  -34.9370   24.9030 C   0  0  0  0  0  0  0  0  0  0  0  0
  -27.7330  -34.8420   23.9540 O   0  0  0  0  0  0  0  0  0  0  0  0
  -25.7860  -34.0320   26.2920 H   0  0  0  0  0  0  0  0  0  0  0  0
  -25.3850  -36.8530   24.4310 C   0  0  0  0  0  1  0  0  0  0  0  0
  -26.4860  -36.3310   25.3690 C   0  0  0  0  0  3  0  0  0  0  0  0
  -28.5490  -37.0300   26.5020 C   0  0  0  0  0  1  0  0  0  0  0  0
  -27.5830  -37.3200   25.4460 N   0  0  0  0  0  0  0  0  0  0  0  0
  -27.2150  -38.2550   25.6040 H   0  0  0  0  0  0  0  0  0  0  0  0
  2  6  2  0
  2  4  1  0
  3  1  1  0
  3  9  1  0
  4  3  2  0
  5  7  1  0
  5  1  2  0
  6  5  1  0
  7 60  1  0
  8  7  1  0
  9 10  1  0
 10 12  1  0
 12 13  1  0
 12 11  1  0
 14 12  1  0
 15  4  1  0
 15 16  1  0
 16 17  1  0
 17 20  1  0
 17 19  1  0
 18 17  1  0
 20 21  1  0
 21 30  1  0
 22 28  1  0
 22 30  1  0
 23 28  1  0
 24 25  1  0
 24 23  1  0
 26 25  1  0
 26 35  1  0
 26 27  1  0
 28 27  1  0
 29 22  2  0
 30 31  1  0
 32 33  2  0
 33 52  1  0
 34 33  1  0
 34 37  1  0
 35 36  1  0
 35 32  1  0
 36 34  2  0
 37 38  1  0
 38 39  2  0
 40 43  1  0
 40 39  1  0
 41 40  2  0
 42 41  1  0
 42 37  2  0
 43 44  1  0
 44 49  2  0
 44 45  1  0
 45 46  2  0
 46 47  1  0
 47 51  1  0
 48 47  2  0
 49 48  1  0
 50 49  1  0
 52 53  1  0
 53 56  1  0
 53 55  1  0
 54 52  2  0
 57 58  1  0
 57 32  1  0
 59 57  1  0
 61 60  1  0
 61 62  1  0
 62 64  1  0
 63 74  2  0
 64 69  1  0
 65 75  1  0
 65 73  1  0
 66 72  1  0
 66 68  1  0
 67 73  1  0
 68 67  1  0
 69 68  2  0
 70 71  1  0
 70 64  2  0
 71 66  2  0
 72 65  1  0
 73 63  1  0
 75 77  2  0
 76 75  1  0
 78 76  1  0
 79 88  2  0
 79 84  1  0
 80 76  1  0
 80 84  1  0
 81 80  1  0
 82 83  1  0
 82 81  1  0
 83 79  1  0
 84 85  2  0
 85 86  1  0
 87 86  2  0
 88 87  1  0
 89 63  1  0
 89 94  1  0
 89 90  1  0
 90 91  1  1
 90 93  1  0
 92 90  1  0
 94 97  1  0
 95 99  1  0
 95 94  1  0
 96 95  2  0
 99 98  1  0
 99101  1  0
101102  1  0
101100  1  0
M  ISO  4  22 100  30 100  61 101  62 101
M  END
>  <TORSDO>  (64) 
F 26

>  <SCORE>  (64) 
-8.121

>  <name>  (64) 
63

>  <ligand_id>  (64) 
63

>  <original_smiles>  (64) 
[H]c1nc(N([H])C([H])([H])C([H])([H])Oc2c([H])c([H])c3c(c2[H])C([H])([H])N(C(=O)C([H])(N([H])C(=O)C([H])(N([H])C([H])([H])[H])C([H])([H])[H])C(C([H])([H])[H])(C([H])([H])[H])C([H])([H])[H])C([H])(C(=O)N([H])C2([H])c4c([H])c([H])c([H])c([H])c4C([H])([H])C([H])([H])C2([H])[H])C3([H])[H])c([H])c(C([H])([H])C([H])([H])[N+]([H])([H])C([H])([H])[H])c1C([H])([H])C([H])([H])[N+]([H])([H])C([H])([H])C([H])([H])N([H])C(=O)N1C([H])([H])C([H])([H])C([H])([H])C([H])(n2nc(-c3c([H])c([H])c(Oc4c([H])c([H])c(F)c([H])c4F)c([H])c3[H])c(C(=O)N([H])[H])c2N([H])[H])C1([H])[H]

>  <smiles>  (64) 
[H]c1nc(N([H])C([H])([H])C([H])([H])Oc2c([H])c([H])c3c(c2[H])C([H])([H])N(C(=O)C([H])(N([H])C(=O)C([H])(N([H])C([H])([H])[H])C([H])([H])[H])C(C([H])([H])[H])(C([H])([H])[H])C([H])([H])[H])C([H])(C(=O)N([H])C2([H])c4c([H])c([H])c([H])c([H])c4C([H])([H])C([H])([H])C2([H])[H])C3([H])[H])c([H])c(C([H])([H])C([H])([H])[N+]([H])([H])C([H])([H])[H])c1C([H])([H])C([H])([H])[N+]([H])([H])C([H])([H])C([H])([H])N([H])C(=O)N1C([H])([H])C([H])([H])C([H])([H])C([H])(n2nc(-c3c([H])c([H])c(Oc4c([H])c([H])c(F)c([H])c4F)c([H])c3[H])c(C(=O)N([H])[H])c2N([H])[H])C1([H])[H]

$$$$
64:0:0
     RDKit          3D

 94103  0  0  1  0  0  0  0  0999 V2000
  -27.3220  -20.5700   19.5010 C   0  0  0  0  0  2  0  0  0  0  0  0
  -26.2340  -21.3490   19.6830 C   0  0  0  0  0  2  0  0  0  0  0  0
  -28.4540  -21.1780   20.1260 C   0  0  0  0  0  3  0  0  0  0  0  0
  -28.0660  -22.5350   20.3310 C   0  0  0  0  0  3  0  0  0  0  0  0
  -25.7430  -23.3850   21.0030 C   0  0  0  0  0  2  0  0  0  0  0  0
  -26.4090  -24.5730   21.7250 C   0  0  0  0  0  2  0  0  0  0  0  0
  -28.6100  -23.9620   20.7420 C   0  0  0  0  0  3  0  0  0  0  0  0
  -26.6660  -22.4740   20.3310 N   0  0  0  0  0  0  0  0  0  0  0  0
  -27.8610  -24.3830   21.9520 N   0  0  0  0  0  4  0  0  0  0  0  0
  -28.2410  -25.2350   22.3350 H   0  0  0  0  0  0  0  0  0  0  0  0
  -27.9820  -23.6680   22.6480 H   0  0  0  0  0  0  0  0  0  0  0  0
  -29.7040  -20.2500   20.3860 C   0  0  0  0  0  2  0  0  0  0  0  0
  -29.3990  -18.6480   20.3460 C   0  0  0  0  0  3  0  0  0  0  0  0
  -30.4950  -17.5000   20.6020 C   0  0  0  0  0  3  0  0  0  0  0  0
  -30.7410  -14.9140   20.2450 C   0  0  0  0  0  0  0  0  0  0  0  0
  -30.4530  -12.6880   19.1480 C   0  0  0  0  0  2  0  0  0  0  0  0
  -29.4870  -12.8130   17.9500 C   0  0  0  0  0  2  0  0  0  0  0  0
  -28.0270  -12.6460   18.4080 C   0  0  0  0  0  2  0  0  0  0  0  0
  -27.6970  -13.4990   19.6590 C   0  0  0  0  0  3  0  0  0  0  0  0
  -28.7820  -13.3720   20.7520 C   0  0  0  0  0  2  0  0  0  0  0  0
  -30.0730  -13.7180   20.1410 N   0  0  0  0  0  0  0  0  0  0  0  0
  -31.9090  -15.0100   19.8620 O   0  0  0  0  0  0  0  0  0  0  0  0
  -30.0300  -16.0440   20.5900 N   0  0  0  0  0  0  0  0  0  0  0  0
  -29.0680  -15.8830   20.8510 H   0  0  0  0  0  0  0  0  0  0  0  0
  -25.3250  -14.0840   20.4470 C   0  0  0  0  0  0  0  0  0  0  0  0
  -24.2640  -13.3050   20.8260 C   0  0  0  0  0  0  0  0  0  0  0  0
  -24.7240  -11.9550   20.7620 C   0  0  0  0  0  0  0  0  0  0  0  0
  -26.3620  -13.2060   20.1740 N   0  0  0  0  0  0  0  0  0  0  0  0
  -26.0090  -11.9180   20.4280 N   0  0  0  0  0  0  0  0  0  0  0  0
  -23.9990  -10.6890   20.9470 C   0  0  0  0  0  0  0  0  0  0  0  0
  -24.4340   -9.7160   21.8730 C   0  0  0  0  0  3  0  0  0  0  0  0
  -23.7080   -8.5160   22.0450 C   0  0  0  0  0  3  0  0  0  0  0  0
  -22.5350   -8.2830   21.2900 C   0  0  0  0  0  0  0  0  0  0  0  0
  -22.1180   -9.2450   20.3540 C   0  0  0  0  0  3  0  0  0  0  0  0
  -22.8430  -10.4360   20.1810 C   0  0  0  0  0  3  0  0  0  0  0  0
  -21.7810   -7.1370   21.3710 O   0  0  0  0  0  0  0  0  0  0  0  0
  -21.7170   -6.3970   22.5260 C   0  0  0  0  0  0  0  0  0  0  0  0
  -21.2540   -6.9490   23.7400 C   0  0  0  0  0  3  0  0  0  0  0  0
  -21.1400   -6.1340   24.8850 C   0  0  0  0  0  3  0  0  0  0  0  0
  -21.4810   -4.7720   24.8150 C   0  0  0  0  0  0  0  0  0  0  0  0
  -21.9390   -4.2190   23.6070 C   0  0  0  0  0  3  0  0  0  0  0  0
  -22.0560   -5.0310   22.4650 C   0  0  0  0  0  0  0  0  0  0  0  0
  -22.4780   -4.4890   21.2970 F   0  0  0  0  0  0  0  0  0  0  0  0
  -21.3640   -3.9870   25.9130 F   0  0  0  0  0  0  0  0  0  0  0  0
  -22.8720  -13.7820   21.1280 C   0  0  0  0  0  0  0  0  0  0  0  0
  -22.1630  -13.0790   22.0040 N   0  0  0  0  0  0  0  0  0  0  0  0
  -22.4230  -14.8110   20.6290 O   0  0  0  0  0  0  0  0  0  0  0  0
  -22.5360  -12.2430   22.4300 H   0  0  0  0  0  0  0  0  0  0  0  0
  -21.2320  -13.3800   22.2520 H   0  0  0  0  0  0  0  0  0  0  0  0
  -25.4890  -15.4570   20.2900 N   0  0  0  0  0  0  0  0  0  0  0  0
  -24.7330  -16.1170   20.4370 H   0  0  0  0  0  0  0  0  0  0  0  0
  -26.3350  -15.8960   19.9430 H   0  0  0  0  0  0  0  0  0  0  0  0
  -28.5490  -25.1520   19.6350 C   0  0  0  0  0  2  0  0  0  0  0  0
  -28.5340  -26.6180   19.9960 O   0  0  0  0  0  0  0  0  0  0  0  0
  -24.5660  -31.8140   23.0720 C   0  0  0  0  0  0  0  0  0  0  0  0
  -27.3980  -27.4560   19.8840 C   0  0  0  0  0  0  0  0  0  0  0  0
  -23.4420  -30.4340   21.3610 C   0  0  0  0  0  3  0  0  0  0  0  0
  -24.9790  -29.0050   19.8860 C   0  0  0  0  0  0  0  0  0  0  0  0
  -25.9700  -30.8530   21.2340 C   0  0  0  0  0  2  0  0  0  0  0  0
  -26.1150  -29.5070   20.5290 C   0  0  0  0  0  0  0  0  0  0  0  0
  -27.3240  -28.7400   20.5240 C   0  0  0  0  0  3  0  0  0  0  0  0
  -26.2410  -27.0440   19.1770 C   0  0  0  0  0  3  0  0  0  0  0  0
  -25.0510  -27.7890   19.1920 C   0  0  0  0  0  3  0  0  0  0  0  0
  -23.7030  -29.8200   19.9600 C   0  0  0  0  0  2  0  0  0  0  0  0
  -24.6780  -31.0450   21.9470 N   0  0  0  0  0  0  0  0  0  0  0  0
  -23.4650  -32.0300   23.6000 O   0  0  0  0  0  0  0  0  0  0  0  0
  -22.8110  -29.3610   22.2710 C   0  0  0  0  0  0  0  0  0  0  0  0
  -21.4930  -29.1400   22.1380 N   0  0  0  0  0  0  0  0  0  0  0  0
  -23.5130  -28.7250   23.0620 O   0  0  0  0  0  0  0  0  0  0  0  0
  -20.9900  -29.6730   21.4360 H   0  0  0  0  0  0  0  0  0  0  0  0
  -18.1490  -27.8760   22.6050 C   0  0  0  0  0  0  0  0  0  0  0  0
  -20.7050  -28.1490   22.8710 C   0  0  0  0  0  3  0  0  0  0  0  0
  -20.8260  -26.7590   22.2090 C   0  0  0  0  0  2  0  0  0  0  0  0
  -19.7200  -26.4920   21.1780 C   0  0  0  0  0  2  0  0  0  0  0  0
  -18.3410  -26.5740   21.8400 C   0  0  0  0  0  2  0  0  0  0  0  0
  -19.2610  -28.6180   23.0870 C   0  0  0  0  0  0  0  0  0  0  0  0
  -19.0320  -29.8260   23.7860 C   0  0  0  0  0  3  0  0  0  0  0  0
  -17.7170  -30.2950   23.9910 C   0  0  0  0  0  3  0  0  0  0  0  0
  -16.6220  -29.5490   23.5180 C   0  0  0  0  0  3  0  0  0  0  0  0
  -16.8350  -28.3440   22.8260 C   0  0  0  0  0  3  0  0  0  0  0  0
  -25.8130  -32.4750   23.7360 C   0  0  0  0  0  3  0  0  0  0  0  0
  -26.3360  -31.6860   24.9980 C   0  0  1  0  0  0  0  0  0  0  0  0
  -25.2380  -31.3780   26.0410 C   0  0  0  0  0  1  0  0  0  0  0  0
  -26.9670  -30.3420   24.5740 C   0  0  0  0  0  1  0  0  0  0  0  0
  -27.4470  -32.5030   25.6980 C   0  0  0  0  0  1  0  0  0  0  0  0
  -25.4490  -33.8510   24.1000 N   0  0  0  0  0  0  0  0  0  0  0  0
  -25.7540  -34.9350   23.3740 C   0  0  0  0  0  0  0  0  0  0  0  0
  -26.4420  -34.8860   22.3530 O   0  0  0  0  0  0  0  0  0  0  0  0
  -24.8290  -33.9660   24.8870 H   0  0  0  0  0  0  0  0  0  0  0  0
  -23.9680  -36.6740   23.0420 C   0  0  0  0  0  1  0  0  0  0  0  0
  -25.2100  -36.2900   23.8640 C   0  0  0  0  0  3  0  0  0  0  0  0
  -27.2870  -37.2310   24.7690 C   0  0  0  0  0  1  0  0  0  0  0  0
  -26.2030  -37.3840   23.8010 N   0  0  0  0  0  0  0  0  0  0  0  0
  -25.7590  -38.2850   23.9560 H   0  0  0  0  0  0  0  0  0  0  0  0
  1  2  1  0
  1  3  1  0
  2  8  1  0
  3  4  1  0
  3 12  1  0
  4  7  1  0
  5  6  1  0
  6  9  1  0
  7  9  1  0
  8  4  1  0
  8  5  1  0
  9 10  1  0
  9 11  1  0
 13 12  1  0
 13 14  2  0
 15 23  1  0
 16 21  1  0
 17 18  1  0
 17 16  1  0
 18 19  1  0
 19 28  1  0
 19 20  1  0
 21 15  1  0
 21 20  1  0
 22 15  2  0
 23 14  1  0
 23 24  1  0
 25 26  2  0
 26 45  1  0
 27 26  1  0
 27 30  1  0
 28 29  1  0
 28 25  1  0
 29 27  2  0
 30 31  1  0
 31 32  2  0
 33 36  1  0
 33 32  1  0
 34 33  2  0
 35 34  1  0
 35 30  2  0
 36 37  1  0
 37 38  1  0
 38 39  2  0
 40 39  1  0
 40 44  1  0
 41 40  2  0
 42 37  2  0
 42 41  1  0
 43 42  1  0
 45 46  1  0
 46 49  1  0
 46 48  1  0
 47 45  2  0
 50 51  1  0
 50 25  1  0
 52 50  1  0
 53 54  1  0
 53  7  1  0
 55 66  2  0
 55 81  1  0
 56 54  1  0
 56 61  1  0
 57 65  1  0
 57 67  1  0
 58 64  1  0
 58 60  1  0
 59 65  1  0
 60 59  1  0
 61 60  2  0
 62 63  1  0
 62 56  2  0
 63 58  2  0
 64 57  1  0
 65 55  1  0
 67 69  2  0
 68 67  1  0
 68 72  1  0
 70 68  1  0
 71 80  2  0
 71 76  1  0
 72 76  1  0
 73 72  1  0
 74 75  1  0
 74 73  1  0
 75 71  1  0
 76 77  2  0
 77 78  1  0
 79 78  2  0
 80 79  1  0
 81 86  1  0
 81 82  1  0
 82 85  1  1
 82 83  1  0
 84 82  1  0
 86 89  1  0
 87 91  1  0
 87 86  1  0
 88 87  2  0
 90 91  1  0
 93 91  1  0
 93 94  1  0
 93 92  1  0
M  ISO  4  15 100  23 100  53 101  54 101
M  END
>  <TORSDO>  (65) 
F 20

>  <SCORE>  (65) 
-12.975

>  <name>  (65) 
64

>  <ligand_id>  (65) 
64

>  <original_smiles>  (65) 
[H]c1c([H])c([H])c2c(c1[H])C([H])([H])C([H])([H])C([H])([H])C2([H])N([H])C(=O)C1([H])N(C(=O)C([H])(N([H])C(=O)C([H])(N([H])C([H])([H])[H])C([H])([H])[H])C(C([H])([H])[H])(C([H])([H])[H])C([H])([H])[H])C([H])([H])c2c([H])c(OC([H])([H])C3([H])c4c(C([H])([H])C([H])([H])C([H])([H])N([H])C(=O)N5C([H])([H])C([H])([H])C([H])([H])C([H])(n6nc(-c7c([H])c([H])c(Oc8c([H])c([H])c(F)c([H])c8F)c([H])c7[H])c(C(=O)N([H])[H])c6N([H])[H])C5([H])[H])c([H])c([H])n4C([H])([H])C([H])([H])[N+]3([H])[H])c([H])c([H])c2C1([H])[H]

>  <smiles>  (65) 
[H]c1c([H])c([H])c2c(c1[H])C([H])([H])C([H])([H])C([H])([H])C2([H])N([H])C(=O)C1([H])N(C(=O)C([H])(N([H])C(=O)C([H])(N([H])C([H])([H])[H])C([H])([H])[H])C(C([H])([H])[H])(C([H])([H])[H])C([H])([H])[H])C([H])([H])c2c([H])c(OC([H])([H])C3([H])c4c(C([H])([H])C([H])([H])C([H])([H])N([H])C(=O)N5C([H])([H])C([H])([H])C([H])([H])C([H])(n6nc(-c7c([H])c([H])c(Oc8c([H])c([H])c(F)c([H])c8F)c([H])c7[H])c(C(=O)N([H])[H])c6N([H])[H])C5([H])[H])c([H])c([H])n4C([H])([H])C([H])([H])[N+]3([H])[H])c([H])c([H])c2C1([H])[H]

$$$$
65:0:0
     RDKit          3D

 99108  0  0  1  0  0  0  0  0999 V2000
  -32.4920  -21.4010   20.9060 C   0  0  0  0  0  3  0  0  0  0  0  0
  -31.5100  -22.3970   20.7690 C   0  0  0  0  0  3  0  0  0  0  0  0
  -29.9570  -20.6940   20.0050 C   0  0  0  0  0  3  0  0  0  0  0  0
  -30.9330  -19.6510   20.1470 C   0  0  0  0  0  0  0  0  0  0  0  0
  -32.2280  -20.0490   20.5900 C   0  0  0  0  0  0  0  0  0  0  0  0
  -30.2260  -22.0700   20.2870 C   0  0  0  0  0  0  0  0  0  0  0  0
  -33.3880  -19.0710   20.6930 C   0  0  0  0  0  1  0  0  0  0  0  0
  -28.4200  -17.8160   20.8870 C   0  0  0  0  0  2  0  0  0  0  0  0
  -27.7240  -17.9560   19.5040 C   0  0  0  0  0  2  0  0  0  0  0  0
  -29.9970  -18.0610   18.3350 C   0  0  0  0  0  2  0  0  0  0  0  0
  -30.6450  -18.1510   19.7440 C   0  0  0  0  0  3  0  0  0  0  0  0
  -29.8780  -17.2910   20.8160 C   0  0  0  0  0  3  0  0  0  0  0  0
  -28.5740  -17.4650   18.3080 C   0  0  0  0  0  3  0  0  0  0  0  0
  -30.6670  -14.8090   20.2910 C   0  0  0  0  0  0  0  0  0  0  0  0
  -30.4740  -12.6180   19.1390 C   0  0  0  0  0  2  0  0  0  0  0  0
  -29.4970  -12.8110   17.9580 C   0  0  0  0  0  2  0  0  0  0  0  0
  -28.0270  -12.6440   18.4030 C   0  0  0  0  0  2  0  0  0  0  0  0
  -27.6930  -13.4340   19.6970 C   0  0  0  0  0  3  0  0  0  0  0  0
  -28.7820  -13.2000   20.7680 C   0  0  0  0  0  2  0  0  0  0  0  0
  -30.0780  -13.5790   20.1810 N   0  0  0  0  0  0  0  0  0  0  0  0
  -31.8180  -15.0280   19.9110 O   0  0  0  0  0  0  0  0  0  0  0  0
  -29.8040  -15.7990   20.6440 N   0  0  0  0  0  0  0  0  0  0  0  0
  -28.8950  -15.4230   20.8670 H   0  0  0  0  0  0  0  0  0  0  0  0
  -25.2990  -13.9910   20.4620 C   0  0  0  0  0  0  0  0  0  0  0  0
  -24.2460  -13.2010   20.8290 C   0  0  0  0  0  0  0  0  0  0  0  0
  -24.7310  -11.8600   20.7700 C   0  0  0  0  0  0  0  0  0  0  0  0
  -26.3550  -13.1320   20.1960 N   0  0  0  0  0  0  0  0  0  0  0  0
  -26.0160  -11.8420   20.4410 N   0  0  0  0  0  0  0  0  0  0  0  0
  -24.0260  -10.5900   20.9570 C   0  0  0  0  0  0  0  0  0  0  0  0
  -24.4490   -9.6490   21.9180 C   0  0  0  0  0  3  0  0  0  0  0  0
  -23.7430   -8.4410   22.0950 C   0  0  0  0  0  3  0  0  0  0  0  0
  -22.5990   -8.1690   21.3070 C   0  0  0  0  0  0  0  0  0  0  0  0
  -22.1940   -9.1020   20.3370 C   0  0  0  0  0  3  0  0  0  0  0  0
  -22.9030  -10.3000   20.1580 C   0  0  0  0  0  3  0  0  0  0  0  0
  -21.8610   -7.0140   21.3900 O   0  0  0  0  0  0  0  0  0  0  0  0
  -21.7460   -6.3180   22.5640 C   0  0  0  0  0  0  0  0  0  0  0  0
  -21.1920   -6.8990   23.7250 C   0  0  0  0  0  3  0  0  0  0  0  0
  -21.0320   -6.1240   24.8910 C   0  0  0  0  0  3  0  0  0  0  0  0
  -21.4080   -4.7680   24.8940 C   0  0  0  0  0  0  0  0  0  0  0  0
  -21.9520   -4.1870   23.7360 C   0  0  0  0  0  3  0  0  0  0  0  0
  -22.1180   -4.9580   22.5740 C   0  0  0  0  0  0  0  0  0  0  0  0
  -22.6260   -4.3880   21.4550 F   0  0  0  0  0  0  0  0  0  0  0  0
  -21.2440   -4.0190   26.0120 F   0  0  0  0  0  0  0  0  0  0  0  0
  -22.8510  -13.6620   21.1290 C   0  0  0  0  0  0  0  0  0  0  0  0
  -22.1490  -12.9380   21.9940 N   0  0  0  0  0  0  0  0  0  0  0  0
  -22.3960  -14.6950   20.6410 O   0  0  0  0  0  0  0  0  0  0  0  0
  -22.5390  -12.1010   22.4010 H   0  0  0  0  0  0  0  0  0  0  0  0
  -21.2110  -13.2190   22.2490 H   0  0  0  0  0  0  0  0  0  0  0  0
  -25.4190  -15.3640   20.3290 N   0  0  0  0  0  0  0  0  0  0  0  0
  -24.6150  -15.9510   20.5270 H   0  0  0  0  0  0  0  0  0  0  0  0
  -26.2600  -15.8860   20.1330 H   0  0  0  0  0  0  0  0  0  0  0  0
  -27.9060  -17.7180   17.0150 N   0  0  0  0  0  4  0  0  0  0  0  0
  -27.7340  -18.6970   16.8770 H   0  0  0  0  0  0  0  0  0  0  0  0
  -27.0270  -17.2370   16.9590 H   0  0  0  0  0  0  0  0  0  0  0  0
  -28.4730  -17.3900   16.2500 H   0  0  0  0  0  0  0  0  0  0  0  0
  -29.2440  -23.0410   20.0680 O   0  0  0  0  0  0  0  0  0  0  0  0
  -29.5330  -24.4460   20.3230 C   0  0  0  0  0  2  0  0  0  0  0  0
  -28.3580  -25.3960   19.9190 C   0  0  0  0  0  2  0  0  0  0  0  0
  -28.4530  -26.7930   20.3450 O   0  0  0  0  0  0  0  0  0  0  0  0
  -24.6140  -32.0390   23.4110 C   0  0  0  0  0  0  0  0  0  0  0  0
  -27.2900  -27.5670   20.3230 C   0  0  0  0  0  0  0  0  0  0  0  0
  -23.4270  -30.6460   21.7500 C   0  0  0  0  0  3  0  0  0  0  0  0
  -24.8950  -29.1170   20.3290 C   0  0  0  0  0  0  0  0  0  0  0  0
  -25.9600  -30.9940   21.5840 C   0  0  0  0  0  2  0  0  0  0  0  0
  -26.0540  -29.6220   20.9350 C   0  0  0  0  0  0  0  0  0  0  0  0
  -27.2500  -28.8540   20.9290 C   0  0  0  0  0  3  0  0  0  0  0  0
  -26.1050  -27.0990   19.7080 C   0  0  0  0  0  3  0  0  0  0  0  0
  -24.9190  -27.8560   19.7150 C   0  0  0  0  0  3  0  0  0  0  0  0
  -23.6540  -29.9810   20.3680 C   0  0  0  0  0  2  0  0  0  0  0  0
  -24.6860  -31.2420   22.3070 N   0  0  0  0  0  0  0  0  0  0  0  0
  -23.5260  -32.3040   23.9420 O   0  0  0  0  0  0  0  0  0  0  0  0
  -22.7660  -29.6180   22.6960 C   0  0  0  0  0  0  0  0  0  0  0  0
  -21.4480  -29.4130   22.5350 N   0  0  0  0  0  0  0  0  0  0  0  0
  -23.4360  -29.0080   23.5340 O   0  0  0  0  0  0  0  0  0  0  0  0
  -20.9640  -29.9570   21.8350 H   0  0  0  0  0  0  0  0  0  0  0  0
  -18.0860  -28.1560   22.9430 C   0  0  0  0  0  0  0  0  0  0  0  0
  -20.6290  -28.4640   23.2880 C   0  0  0  0  0  3  0  0  0  0  0  0
  -20.7790  -27.0330   22.7230 C   0  0  0  0  0  2  0  0  0  0  0  0
  -19.7140  -26.6830   21.6780 C   0  0  0  0  0  2  0  0  0  0  0  0
  -18.3110  -26.8050   22.2810 C   0  0  0  0  0  2  0  0  0  0  0  0
  -19.1770  -28.9410   23.4020 C   0  0  0  0  0  0  0  0  0  0  0  0
  -18.9170  -30.2030   23.9770 C   0  0  0  0  0  3  0  0  0  0  0  0
  -17.5990  -30.6800   24.1030 C   0  0  0  0  0  3  0  0  0  0  0  0
  -16.5220  -29.8910   23.6640 C   0  0  0  0  0  3  0  0  0  0  0  0
  -16.7660  -28.6320   23.0880 C   0  0  0  0  0  3  0  0  0  0  0  0
  -25.8910  -32.6740   24.0450 C   0  0  0  0  0  3  0  0  0  0  0  0
  -25.5880  -34.0810   24.3370 N   0  0  0  0  0  0  0  0  0  0  0  0
  -25.9120  -35.1100   23.5420 C   0  0  0  0  0  0  0  0  0  0  0  0
  -26.5630  -34.9740   22.5020 O   0  0  0  0  0  0  0  0  0  0  0  0
  -25.0070  -34.2610   25.1430 H   0  0  0  0  0  0  0  0  0  0  0  0
  -24.1590  -36.8800   23.1880 C   0  0  0  0  0  1  0  0  0  0  0  0
  -25.4330  -36.5100   23.9650 C   0  0  0  0  0  3  0  0  0  0  0  0
  -27.5850  -37.4470   24.6860 C   0  0  0  0  0  1  0  0  0  0  0  0
  -26.4520  -37.5640   23.7740 N   0  0  0  0  0  0  0  0  0  0  0  0
  -26.0420  -38.4860   23.8970 H   0  0  0  0  0  0  0  0  0  0  0  0
  -26.3700  -31.9260   25.3480 C   0  0  1  0  0  0  0  0  0  0  0  0
  -25.2460  -31.7060   26.3880 C   0  0  0  0  0  1  0  0  0  0  0  0
  -26.9640  -30.5430   24.9960 C   0  0  0  0  0  1  0  0  0  0  0  0
  -27.5020  -32.7300   26.0310 C   0  0  0  0  0  1  0  0  0  0  0  0
  2  1  1  0
  3  4  2  0
  3  6  1  0
  4  5  1  0
  5  7  1  0
  5  1  2  0
  6  2  2  0
  9  8  1  0
 10 11  1  0
 11  4  1  0
 11 12  1  0
 12 22  1  0
 12  8  1  0
 13 52  1  0
 13 10  1  0
 13  9  1  0
 14 22  1  0
 15 20  1  0
 16 17  1  0
 16 15  1  0
 18 17  1  0
 18 27  1  0
 18 19  1  0
 20 14  1  0
 20 19  1  0
 21 14  2  0
 22 23  1  0
 24 25  2  0
 25 44  1  0
 26 25  1  0
 26 29  1  0
 27 28  1  0
 27 24  1  0
 28 26  2  0
 29 30  1  0
 30 31  2  0
 32 35  1  0
 32 31  1  0
 33 32  2  0
 34 33  1  0
 34 29  2  0
 35 36  1  0
 36 41  2  0
 36 37  1  0
 37 38  2  0
 38 39  1  0
 39 43  1  0
 40 39  2  0
 41 40  1  0
 42 41  1  0
 44 45  1  0
 45 48  1  0
 45 47  1  0
 46 44  2  0
 49 24  1  0
 49 50  1  0
 51 49  1  0
 53 52  1  0
 54 52  1  0
 55 52  1  0
 56  6  1  0
 56 57  1  0
 58 57  1  0
 58 59  1  0
 60 71  2  0
 61 59  1  0
 61 66  1  0
 62 70  1  0
 62 72  1  0
 63 69  1  0
 63 65  1  0
 64 70  1  0
 65 64  1  0
 66 65  2  0
 67 68  1  0
 67 61  2  0
 68 63  2  0
 69 62  1  0
 70 60  1  0
 72 74  2  0
 73 72  1  0
 75 73  1  0
 76 85  2  0
 76 81  1  0
 77 73  1  0
 77 81  1  0
 78 77  1  0
 79 80  1  0
 79 78  1  0
 80 76  1  0
 81 82  2  0
 82 83  1  0
 84 83  2  0
 85 84  1  0
 86 60  1  0
 86 87  1  0
 86 96  1  0
 87 90  1  0
 88 92  1  0
 88 87  1  0
 89 88  2  0
 92 91  1  0
 94 95  1  0
 94 92  1  0
 94 93  1  0
 96 99  1  1
 96 97  1  0
 98 96  1  0
M  ISO  4  14 100  22 100  58 101  59 101
M  END
>  <TORSDO>  (66) 
F 21

>  <SCORE>  (66) 
-13.301

>  <name>  (66) 
65

>  <ligand_id>  (66) 
65

>  <original_smiles>  (66) 
[H]c1c([H])c([H])c2c(c1[H])C([H])([H])C([H])([H])C([H])([H])C2([H])N([H])C(=O)C1([H])N(C(=O)C([H])(N([H])C(=O)C([H])(N([H])C([H])([H])[H])C([H])([H])[H])C(C([H])([H])[H])(C([H])([H])[H])C([H])([H])[H])C([H])([H])c2c([H])c(OC([H])([H])C([H])([H])Oc3c([H])c([H])c(C([H])([H])[H])c(C4([H])C([H])([H])C([H])([N+]([H])([H])[H])C([H])([H])C([H])([H])C4([H])N([H])C(=O)N4C([H])([H])C([H])([H])C([H])([H])C([H])(n5nc(-c6c([H])c([H])c(Oc7c([H])c([H])c(F)c([H])c7F)c([H])c6[H])c(C(=O)N([H])[H])c5N([H])[H])C4([H])[H])c3[H])c([H])c([H])c2C1([H])[H]

>  <smiles>  (66) 
[H]c1c([H])c([H])c2c(c1[H])C([H])([H])C([H])([H])C([H])([H])C2([H])N([H])C(=O)C1([H])N(C(=O)C([H])(N([H])C(=O)C([H])(N([H])C([H])([H])[H])C([H])([H])[H])C(C([H])([H])[H])(C([H])([H])[H])C([H])([H])[H])C([H])([H])c2c([H])c(OC([H])([H])C([H])([H])Oc3c([H])c([H])c(C([H])([H])[H])c(C4([H])C([H])([H])C([H])([N+]([H])([H])[H])C([H])([H])C([H])([H])C4([H])N([H])C(=O)N4C([H])([H])C([H])([H])C([H])([H])C([H])(n5nc(-c6c([H])c([H])c(Oc7c([H])c([H])c(F)c([H])c7F)c([H])c6[H])c(C(=O)N([H])[H])c5N([H])[H])C4([H])[H])c3[H])c([H])c([H])c2C1([H])[H]

$$$$
66:0:0
     RDKit          3D

 91 99  0  0  1  0  0  0  0  0999 V2000
  -29.0560  -22.6180   23.2910 C   0  0  0  0  0  1  0  0  0  0  0  0
  -30.0160  -22.4460   22.0950 C   0  0  0  0  0  3  0  0  0  0  0  0
  -29.7400  -18.5080   21.5760 C   0  0  0  0  0  2  0  0  0  0  0  0
  -32.1770  -19.2360   21.3720 C   0  0  0  0  0  2  0  0  0  0  0  0
  -29.3230  -19.9880   21.3830 C   0  0  0  0  0  2  0  0  0  0  0  0
  -31.7040  -20.6870   21.1550 C   0  0  0  0  0  2  0  0  0  0  0  0
  -31.1310  -18.1580   20.9860 C   0  0  0  0  0  3  0  0  0  0  0  0
  -30.4040  -20.9400   21.9370 C   0  0  0  0  0  3  0  0  0  0  0  0
  -31.6380  -16.7660   21.4640 C   0  0  0  0  0  2  0  0  0  0  0  0
  -31.2970  -14.6770   20.1480 C   0  0  0  0  0  0  0  0  0  0  0  0
  -30.8400  -12.5640   18.9540 C   0  0  0  0  0  2  0  0  0  0  0  0
  -29.8780  -12.7980   17.7740 C   0  0  0  0  0  2  0  0  0  0  0  0
  -28.4150  -12.7030   18.2450 C   0  0  0  0  0  2  0  0  0  0  0  0
  -28.1390  -13.5590   19.5100 C   0  0  0  0  0  3  0  0  0  0  0  0
  -29.2110  -13.3140   20.5950 C   0  0  0  0  0  2  0  0  0  0  0  0
  -30.5350  -13.5590   19.9960 N   0  0  0  0  0  0  0  0  0  0  0  0
  -32.3490  -14.8490   19.5260 O   0  0  0  0  0  0  0  0  0  0  0  0
  -30.8520  -15.6060   21.0140 N   0  0  0  0  0  0  0  0  0  0  0  0
  -29.9760  -15.4210   21.4800 H   0  0  0  0  0  0  0  0  0  0  0  0
  -25.7890  -14.2470   20.3030 C   0  0  0  0  0  0  0  0  0  0  0  0
  -24.7000  -13.5120   20.6840 C   0  0  0  0  0  0  0  0  0  0  0  0
  -25.1020  -12.1420   20.6070 C   0  0  0  0  0  0  0  0  0  0  0  0
  -26.7890  -13.3290   20.0210 N   0  0  0  0  0  0  0  0  0  0  0  0
  -26.3800  -12.0560   20.2600 N   0  0  0  0  0  0  0  0  0  0  0  0
  -24.3270  -10.9070   20.7880 C   0  0  0  0  0  0  0  0  0  0  0  0
  -24.7280   -9.9130   21.7070 C   0  0  0  0  0  3  0  0  0  0  0  0
  -23.9580   -8.7420   21.8760 C   0  0  0  0  0  3  0  0  0  0  0  0
  -22.7720   -8.5580   21.1260 C   0  0  0  0  0  0  0  0  0  0  0  0
  -22.3910   -9.5410   20.1950 C   0  0  0  0  0  3  0  0  0  0  0  0
  -23.1610  -10.7020   20.0240 C   0  0  0  0  0  3  0  0  0  0  0  0
  -21.9750   -7.4430   21.2050 O   0  0  0  0  0  0  0  0  0  0  0  0
  -21.8710   -6.7120   22.3620 C   0  0  0  0  0  0  0  0  0  0  0  0
  -21.4480   -7.2960   23.5760 C   0  0  0  0  0  3  0  0  0  0  0  0
  -21.2890   -6.4940   24.7240 C   0  0  0  0  0  3  0  0  0  0  0  0
  -21.5430   -5.1120   24.6590 C   0  0  0  0  0  0  0  0  0  0  0  0
  -21.9580   -4.5280   23.4500 C   0  0  0  0  0  3  0  0  0  0  0  0
  -22.1190   -5.3260   22.3040 C   0  0  0  0  0  0  0  0  0  0  0  0
  -22.5000   -4.7550   21.1360 F   0  0  0  0  0  0  0  0  0  0  0  0
  -21.3820   -4.3400   25.7600 F   0  0  0  0  0  0  0  0  0  0  0  0
  -23.3340  -14.0390   21.0110 C   0  0  0  0  0  0  0  0  0  0  0  0
  -22.6080  -13.3610   21.8940 N   0  0  0  0  0  0  0  0  0  0  0  0
  -22.9190  -15.0890   20.5200 O   0  0  0  0  0  0  0  0  0  0  0  0
  -22.9580  -12.5120   22.3130 H   0  0  0  0  0  0  0  0  0  0  0  0
  -21.6920  -13.6960   22.1560 H   0  0  0  0  0  0  0  0  0  0  0  0
  -26.0090  -15.6130   20.1540 N   0  0  0  0  0  0  0  0  0  0  0  0
  -25.2790  -16.3010   20.3020 H   0  0  0  0  0  0  0  0  0  0  0  0
  -26.8750  -16.0200   19.8230 H   0  0  0  0  0  0  0  0  0  0  0  0
  -29.4670  -23.1620   20.8300 C   0  0  0  0  0  2  0  0  0  0  0  0
  -29.5440  -24.7180   20.9040 C   0  0  0  0  0  2  0  0  0  0  0  0
  -28.5650  -25.4480   19.9610 C   0  0  0  0  0  2  0  0  0  0  0  0
  -28.6320  -26.8780   20.1370 O   0  0  0  0  0  0  0  0  0  0  0  0
  -24.7370  -31.9510   23.2650 C   0  0  0  0  0  0  0  0  0  0  0  0
  -27.4440  -27.5890   20.1130 C   0  0  0  0  0  0  0  0  0  0  0  0
  -23.5480  -30.5470   21.6140 C   0  0  0  0  0  3  0  0  0  0  0  0
  -25.0210  -29.0610   20.1560 C   0  0  0  0  0  0  0  0  0  0  0  0
  -26.0670  -30.9530   21.4070 C   0  0  0  0  0  2  0  0  0  0  0  0
  -26.1730  -29.5930   20.7470 C   0  0  0  0  0  0  0  0  0  0  0  0
  -27.3870  -28.8660   20.7220 C   0  0  0  0  0  3  0  0  0  0  0  0
  -26.2740  -27.0850   19.4980 C   0  0  0  0  0  3  0  0  0  0  0  0
  -25.0660  -27.8050   19.5300 C   0  0  0  0  0  3  0  0  0  0  0  0
  -23.7610  -29.8920   20.2230 C   0  0  0  0  0  2  0  0  0  0  0  0
  -24.8020  -31.1650   22.1530 N   0  0  0  0  0  0  0  0  0  0  0  0
  -23.6540  -32.1950   23.8150 O   0  0  0  0  0  0  0  0  0  0  0  0
  -22.9240  -29.4990   22.5640 C   0  0  0  0  0  0  0  0  0  0  0  0
  -21.6040  -29.2860   22.4370 N   0  0  0  0  0  0  0  0  0  0  0  0
  -23.6250  -28.8820   23.3720 O   0  0  0  0  0  0  0  0  0  0  0  0
  -21.1000  -29.8380   21.7580 H   0  0  0  0  0  0  0  0  0  0  0  0
  -18.2640  -27.9910   22.9100 C   0  0  0  0  0  0  0  0  0  0  0  0
  -20.8110  -28.3210   23.1990 C   0  0  0  0  0  3  0  0  0  0  0  0
  -20.9590  -26.8960   22.6170 C   0  0  0  0  0  2  0  0  0  0  0  0
  -19.8730  -26.5470   21.5950 C   0  0  0  0  0  2  0  0  0  0  0  0
  -18.4840  -26.6490   22.2310 C   0  0  0  0  0  2  0  0  0  0  0  0
  -19.3580  -28.7830   23.3500 C   0  0  0  0  0  0  0  0  0  0  0  0
  -19.0990  -30.0370   23.9440 C   0  0  0  0  0  3  0  0  0  0  0  0
  -17.7810  -30.5000   24.1030 C   0  0  0  0  0  3  0  0  0  0  0  0
  -16.7010  -29.7060   23.6800 C   0  0  0  0  0  3  0  0  0  0  0  0
  -16.9430  -28.4530   23.0890 C   0  0  0  0  0  3  0  0  0  0  0  0
  -26.0140  -32.5990   23.8840 C   0  0  0  0  0  3  0  0  0  0  0  0
  -25.6870  -33.9930   24.2130 N   0  0  0  0  0  0  0  0  0  0  0  0
  -26.0000  -35.0490   23.4490 C   0  0  0  0  0  0  0  0  0  0  0  0
  -26.6670  -34.9520   22.4150 O   0  0  0  0  0  0  0  0  0  0  0  0
  -25.0930  -34.1410   25.0160 H   0  0  0  0  0  0  0  0  0  0  0  0
  -24.2380  -36.8080   23.1030 C   0  0  0  0  0  1  0  0  0  0  0  0
  -25.4930  -36.4300   23.9050 C   0  0  0  0  0  3  0  0  0  0  0  0
  -27.6200  -37.3540   24.7120 C   0  0  0  0  0  1  0  0  0  0  0  0
  -26.5060  -37.4990   23.7770 N   0  0  0  0  0  0  0  0  0  0  0  0
  -26.0870  -38.4130   23.9240 H   0  0  0  0  0  0  0  0  0  0  0  0
  -26.5440  -31.8350   25.1600 C   0  0  1  0  0  0  0  0  0  0  0  0
  -25.4530  -31.5700   26.2220 C   0  0  0  0  0  1  0  0  0  0  0  0
  -27.1600  -30.4730   24.7610 C   0  0  0  0  0  1  0  0  0  0  0  0
  -27.6740  -32.6530   25.8280 C   0  0  0  0  0  1  0  0  0  0  0  0
  2  1  1  0
  5  3  1  0
  5  8  1  0
  6  4  1  0
  6  8  1  0
  7  4  1  0
  7  9  1  0
  7  3  1  0
  8  2  1  0
 10 18  1  0
 11 16  1  0
 12 13  1  0
 12 11  1  0
 14 13  1  0
 14 23  1  0
 14 15  1  0
 16 10  1  0
 16 15  1  0
 17 10  2  0
 18  9  1  0
 18 19  1  0
 20 21  2  0
 21 40  1  0
 22 21  1  0
 22 25  1  0
 23 24  1  0
 23 20  1  0
 24 22  2  0
 25 26  1  0
 26 27  2  0
 28 31  1  0
 28 27  1  0
 29 28  2  0
 30 29  1  0
 30 25  2  0
 31 32  1  0
 32 33  1  0
 33 34  2  0
 35 34  1  0
 35 39  1  0
 36 35  2  0
 37 32  2  0
 37 36  1  0
 38 37  1  0
 40 41  1  0
 41 44  1  0
 41 43  1  0
 42 40  2  0
 45 46  1  0
 45 20  1  0
 47 45  1  0
 48 49  1  0
 48  2  1  0
 50 51  1  0
 50 49  1  0
 52 63  2  0
 53 51  1  0
 53 58  1  0
 54 62  1  0
 54 64  1  0
 55 61  1  0
 55 57  1  0
 56 62  1  0
 57 56  1  0
 58 57  2  0
 59 60  1  0
 59 53  2  0
 60 55  2  0
 61 54  1  0
 62 52  1  0
 64 66  2  0
 65 64  1  0
 67 65  1  0
 68 77  2  0
 68 73  1  0
 69 65  1  0
 69 73  1  0
 70 69  1  0
 71 72  1  0
 71 70  1  0
 72 68  1  0
 73 74  2  0
 74 75  1  0
 76 75  2  0
 77 76  1  0
 78 52  1  0
 78 79  1  0
 78 88  1  0
 79 82  1  0
 80 84  1  0
 80 79  1  0
 81 80  2  0
 84 83  1  0
 86 84  1  0
 86 87  1  0
 86 85  1  0
 88 91  1  1
 88 89  1  0
 90 88  1  0
M  ISO  4  10 100  18 100  50 101  51 101
M  END
>  <TORSDO>  (67) 
F 21

>  <SCORE>  (67) 
-11.954

>  <name>  (67) 
66

>  <ligand_id>  (67) 
66

>  <original_smiles>  (67) 
[H]c1c([H])c([H])c2c(c1[H])C([H])([H])C([H])([H])C([H])([H])C2([H])N([H])C(=O)C1([H])N(C(=O)C([H])(N([H])C(=O)C([H])(N([H])C([H])([H])[H])C([H])([H])[H])C(C([H])([H])[H])(C([H])([H])[H])C([H])([H])[H])C([H])([H])c2c([H])c(OC([H])([H])C([H])([H])C([H])([H])C([H])(C([H])([H])[H])C3([H])C([H])([H])C([H])([H])C([H])(C([H])([H])N([H])C(=O)N4C([H])([H])C([H])([H])C([H])([H])C([H])(n5nc(-c6c([H])c([H])c(Oc7c([H])c([H])c(F)c([H])c7F)c([H])c6[H])c(C(=O)N([H])[H])c5N([H])[H])C4([H])[H])C([H])([H])C3([H])[H])c([H])c([H])c2C1([H])[H]

>  <smiles>  (67) 
[H]c1c([H])c([H])c2c(c1[H])C([H])([H])C([H])([H])C([H])([H])C2([H])N([H])C(=O)C1([H])N(C(=O)C([H])(N([H])C(=O)C([H])(N([H])C([H])([H])[H])C([H])([H])[H])C(C([H])([H])[H])(C([H])([H])[H])C([H])([H])[H])C([H])([H])c2c([H])c(OC([H])([H])C([H])([H])C([H])([H])C([H])(C([H])([H])[H])C3([H])C([H])([H])C([H])([H])C([H])(C([H])([H])N([H])C(=O)N4C([H])([H])C([H])([H])C([H])([H])C([H])(n5nc(-c6c([H])c([H])c(Oc7c([H])c([H])c(F)c([H])c7F)c([H])c6[H])c(C(=O)N([H])[H])c5N([H])[H])C4([H])[H])C([H])([H])C3([H])[H])c([H])c([H])c2C1([H])[H]

$$$$
67:0:0
     RDKit          3D

100104  0  0  1  0  0  0  0  0999 V2000
  -24.9100  -13.0740   22.5550 C   0  0  0  0  0  1  0  0  0  0  0  0
  -24.1760  -14.7150   21.4500 C   0  0  0  0  0 15  0  0  0  0  0  0
  -27.9760  -13.3560   20.8700 C   0  0  0  0  0  2  0  0  0  0  0  0
  -26.8810  -12.4360   22.2130 C   0  0  0  0  0  2  0  0  0  0  0  0
  -25.4990  -15.6490   20.0850 C   0  0  0  0  0  1  0  0  0  0  0  0
  -27.4330  -14.9220   19.8600 C   0  0  0  0  0  2  0  0  0  0  0  0
  -28.6820  -15.6970   19.1960 N   0  0  0  0  0  0  0  0  0  0  0  0
  -28.3250  -16.5410   18.7570 H   0  0  0  0  0  0  0  0  0  0  0  0
  -31.5100  -16.6750   19.7330 C   0  0  0  0  0  2  0  0  0  0  0  0
  -31.1750  -16.1480   17.5490 C   0  0  0  0  0  2  0  0  0  0  0  0
  -33.2180  -16.7820   19.4350 C   0  0  0  0  0  2  0  0  0  0  0  0
  -32.8800  -16.2690   17.2430 C   0  0  0  0  0  2  0  0  0  0  0  0
  -30.3900  -15.6890   18.9680 C   0  0  0  0  0  3  0  0  0  0  0  0
  -34.0160  -17.2270   18.0210 C   0  0  0  0  0  3  0  0  0  0  0  0
  -35.7400  -17.4050   17.7570 O   0  0  0  0  0  0  0  0  0  0  0  0
  -39.1530  -24.0390   17.7350 C   0  0  0  0  0  0  0  0  0  0  0  0
  -36.4280  -18.4930   16.9970 C   0  0  0  0  0  0  0  0  0  0  0  0
  -37.1830  -23.5390   16.3690 C   0  0  0  0  0  3  0  0  0  0  0  0
  -36.7690  -21.0830   15.7360 C   0  0  0  0  0  0  0  0  0  0  0  0
  -38.9420  -21.6930   16.7510 C   0  0  0  0  0  2  0  0  0  0  0  0
  -37.8150  -20.6330   16.5490 C   0  0  0  0  0  0  0  0  0  0  0  0
  -37.6670  -19.3090   17.1710 C   0  0  0  0  0  3  0  0  0  0  0  0
  -35.6340  -18.9290   15.9450 C   0  0  0  0  0  3  0  0  0  0  0  0
  -35.7460  -20.2040   15.3790 C   0  0  0  0  0  3  0  0  0  0  0  0
  -36.7300  -22.5320   15.2820 C   0  0  0  0  0  2  0  0  0  0  0  0
  -38.4750  -23.1090   16.9900 N   0  0  0  0  0  0  0  0  0  0  0  0
  -38.7080  -25.1860   17.9100 O   0  0  0  0  0  0  0  0  0  0  0  0
  -36.0560  -23.7470   17.4160 C   0  0  0  0  0  0  0  0  0  0  0  0
  -35.1420  -24.7010   17.1620 N   0  0  0  0  0  0  0  0  0  0  0  0
  -36.0170  -23.0510   18.4340 O   0  0  0  0  0  0  0  0  0  0  0  0
  -35.2450  -25.2430   16.3150 H   0  0  0  0  0  0  0  0  0  0  0  0
  -32.3050  -26.9320   17.5160 C   0  0  0  0  0  0  0  0  0  0  0  0
  -33.9890  -25.0310   18.0070 C   0  0  0  0  0  3  0  0  0  0  0  0
  -32.8130  -24.0620   17.7450 C   0  0  0  0  0  2  0  0  0  0  0  0
  -31.8240  -24.5850   16.6980 C   0  0  0  0  0  2  0  0  0  0  0  0
  -31.2310  -25.9260   17.1400 C   0  0  0  0  0  2  0  0  0  0  0  0
  -33.6050  -26.5130   17.9080 C   0  0  0  0  0  0  0  0  0  0  0  0
  -34.5730  -27.4910   18.2200 C   0  0  0  0  0  3  0  0  0  0  0  0
  -34.2630  -28.8620   18.1450 C   0  0  0  0  0  3  0  0  0  0  0  0
  -32.9720  -29.2710   17.7680 C   0  0  0  0  0  3  0  0  0  0  0  0
  -31.9950  -28.3070   17.4590 C   0  0  0  0  0  3  0  0  0  0  0  0
  -40.5290  -23.7160   18.3860 C   0  0  0  0  0  3  0  0  0  0  0  0
  -41.3610  -24.9320   18.3080 N   0  0  0  0  0  0  0  0  0  0  0  0
  -42.3250  -25.1490   17.4030 C   0  0  0  0  0  0  0  0  0  0  0  0
  -42.6550  -24.3030   16.5680 O   0  0  0  0  0  0  0  0  0  0  0  0
  -41.1080  -25.6900   18.9230 H   0  0  0  0  0  0  0  0  0  0  0  0
  -42.4920  -27.4110   16.3050 C   0  0  0  0  0  1  0  0  0  0  0  0
  -43.0410  -26.5170   17.4280 C   0  0  0  0  0  3  0  0  0  0  0  0
  -45.1500  -25.8080   18.4710 C   0  0  0  0  0  1  0  0  0  0  0  0
  -44.5130  -26.4160   17.3060 N   0  0  0  0  0  0  0  0  0  0  0  0
  -44.9270  -27.3330   17.1620 H   0  0  0  0  0  0  0  0  0  0  0  0
  -40.4040  -23.2490   19.8900 C   0  0  1  0  0  0  0  0  0  0  0  0
  -39.5610  -24.2040   20.7690 C   0  0  0  0  0  1  0  0  0  0  0  0
  -39.7680  -21.8450   19.9880 C   0  0  0  0  0  1  0  0  0  0  0  0
  -41.8130  -23.1310   20.5190 C   0  0  0  0  0  1  0  0  0  0  0  0
  -25.1170  -16.8810   19.2820 C   0  0  0  0  0  2  0  0  0  0  0  0
  -24.0790  -17.8110   19.9290 C   0  0  0  0  0  2  0  0  0  0  0  0
  -21.7510  -18.0310   20.7340 C   0  0  0  0  0  1  0  0  0  0  0  0
  -22.7830  -17.1450   20.1680 N   0  0  0  0  0  4  0  0  0  0  0  0
  -22.4330  -16.7580   19.3050 H   0  0  0  0  0  0  0  0  0  0  0  0
  -22.9370  -16.3780   20.8020 H   0  0  0  0  0  0  0  0  0  0  0  0
  -27.8620  -11.3460   23.0460 C   0  0  0  0  0  2  0  0  0  0  0  0
  -30.4730  -10.0420   23.4050 C   0  0  0  0  0  0  0  0  0  0  0  0
  -30.7400   -7.5230   23.6910 C   0  0  0  0  0  2  0  0  0  0  0  0
  -30.5060   -6.8020   22.3200 C   0  0  0  0  0  2  0  0  0  0  0  0
  -29.0560   -6.8840   21.7790 C   0  0  0  0  0  2  0  0  0  0  0  0
  -28.5350   -8.2800   22.0380 C   0  0  0  0  0  3  0  0  0  0  0  0
  -28.6290   -8.5200   23.5410 C   0  0  0  0  0  2  0  0  0  0  0  0
  -30.0080   -8.8140   23.7360 N   0  0  0  0  0  0  0  0  0  0  0  0
  -31.7330  -10.1440   23.4020 O   0  0  0  0  0  0  0  0  0  0  0  0
  -29.4640  -10.9920   22.9270 N   0  0  0  0  0  0  0  0  0  0  0  0
  -29.9510  -11.7870   22.5430 H   0  0  0  0  0  0  0  0  0  0  0  0
  -26.9770   -9.3060   20.4550 C   0  0  0  0  0  3  0  0  0  0  0  0
  -25.6830   -9.5770   20.5240 C   0  0  0  0  0  3  0  0  0  0  0  0
  -25.1160   -8.5780   21.4730 C   0  0  0  0  0  3  0  0  0  0  0  0
  -27.2420   -8.5350   21.5310 N   0  0  0  0  0  0  0  0  0  0  0  0
  -26.1450   -8.0340   22.1190 N   0  0  0  0  0  2  0  0  0  0  0  0
  -23.8260   -7.8990   21.8550 C   0  0  0  0  0  0  0  0  0  0  0  0
  -23.5030   -7.5370   23.1990 C   0  0  0  0  0  3  0  0  0  0  0  0
  -22.3490   -6.7700   23.5150 C   0  0  0  0  0  3  0  0  0  0  0  0
  -21.4900   -6.3200   22.4850 C   0  0  0  0  0  0  0  0  0  0  0  0
  -21.8420   -6.6140   21.1540 C   0  0  0  0  0  3  0  0  0  0  0  0
  -22.9860   -7.3830   20.8450 C   0  0  0  0  0  3  0  0  0  0  0  0
  -20.3580   -5.5560   22.6860 O   0  0  0  0  0  0  0  0  0  0  0  0
  -19.6720   -5.5440   23.8800 C   0  0  0  0  0  0  0  0  0  0  0  0
  -19.1990   -6.7280   24.4880 C   0  0  0  0  0  3  0  0  0  0  0  0
  -18.4460   -6.6630   25.6790 C   0  0  0  0  0  3  0  0  0  0  0  0
  -18.1570   -5.4150   26.2650 C   0  0  0  0  0  0  0  0  0  0  0  0
  -18.6140   -4.2330   25.6590 C   0  0  0  0  0  3  0  0  0  0  0  0
  -19.3610   -4.2970   24.4670 C   0  0  0  0  0  0  0  0  0  0  0  0
  -19.7720   -3.1490   23.8780 F   0  0  0  0  0  0  0  0  0  0  0  0
  -17.4370   -5.3530   27.4110 F   0  0  0  0  0  0  0  0  0  0  0  0
  -25.3950  -10.9900   19.9090 C   0  0  0  0  0  2  0  0  0  0  0  0
  -25.2910  -12.9040   20.8850 N   0  0  0  0  0  1  0  0  0  0  0  0
  -25.0640  -10.6430   18.7420 O   0  0  0  0  0  1  0  0  0  0  0  0
  -25.5380  -12.9480   21.8610 H   0  0  0  0  0  0  0  0  0  0  0  0
  -24.9520  -13.7140   20.3890 H   0  0  0  0  0  0  0  0  0  0  0  0
  -27.9670   -9.8500   19.6550 N   0  0  0  0  0  0  0  0  0  0  0  0
  -27.7740  -10.4480   18.8590 H   0  0  0  0  0  0  0  0  0  0  0  0
  -28.9480   -9.6200   19.7420 H   0  0  0  0  0  0  0  0  0  0  0  0
  3  4  1  0
  4 62  1  0
  6  3  1  0
  7  6  1  0
  8  7  1  0
 10 13  1  0
 11  9  1  0
 12 10  1  0
 12 14  1  0
 13  7  1  0
 13  9  1  0
 14 15  1  0
 14 11  1  0
 16 27  2  0
 17 22  1  0
 17 15  1  0
 18 26  1  0
 18 28  1  0
 19 21  1  0
 20 26  1  0
 21 20  1  0
 21 22  2  0
 23 17  2  0
 24 19  2  0
 24 23  1  0
 25 19  1  0
 25 18  1  0
 26 16  1  0
 28 30  2  0
 29 28  1  0
 31 29  1  0
 32 37  1  0
 33 29  1  0
 34 33  1  0
 35 36  1  0
 35 34  1  0
 36 32  1  0
 37 33  1  0
 37 38  2  0
 39 38  1  0
 40 39  2  0
 41 32  2  0
 41 40  1  0
 42 16  1  0
 42 52  1  0
 43 42  1  0
 43 46  1  0
 44 48  1  0
 44 43  1  0
 45 44  2  0
 48 47  1  0
 50 48  1  0
 50 49  1  0
 51 50  1  0
 52 54  1  6
 52 55  1  0
 52 53  1  0
 56 57  1  0
 56  5  1  0
 57 59  1  0
 59 58  1  0
 59 61  1  0
 60 59  1  0
 63 69  1  0
 64 69  1  0
 65 64  1  0
 66 65  1  0
 67 66  1  0
 67 68  1  0
 68 69  1  0
 70 63  2  0
 71 62  1  0
 71 63  1  0
 72 71  1  0
 73 98  1  0
 73 74  1  0
 73 76  1  0
 74 93  1  0
 74 75  1  0
 75 78  1  0
 75 77  1  0
 76 67  1  0
 76 77  1  0
 78 79  1  0
 79 80  2  0
 81 84  1  0
 81 80  1  0
 82 81  2  0
 83 82  1  0
 83 78  2  0
 84 85  1  0
 85 90  2  0
 85 86  1  0
 86 87  2  0
 87 88  1  0
 88 92  1  0
 89 88  2  0
 90 89  1  0
 91 90  1  0
 95 93  1  0
 96  1  1  0
 97 94  1  0
 98100  1  0
 99 98  1  0
M  ISO  4  14 101  15 101  63 100  71 100
M  END
>  <TORSDO>  (68) 
F 22

>  <SCORE>  (68) 
16.793

>  <name>  (68) 
67

>  <ligand_id>  (68) 
67

>  <original_smiles>  (68) 
[H]c1c([H])c([H])c2c(c1[H])C([H])([H])C([H])([H])C([H])([H])C2([H])N([H])C(=O)C1([H])N(C(=O)C([H])(N([H])C(=O)C([H])(N([H])C([H])([H])[H])C([H])([H])[H])C(C([H])([H])[H])(C([H])([H])[H])C([H])([H])[H])C([H])([H])c2c([H])c(OC3([H])C([H])([H])C([H])([H])C([H])(N([H])c4c([H])c(C([H])([H])N([H])C(=O)N5C([H])([H])C([H])([H])C([H])([H])C([H])(n6nc(-c7c([H])c([H])c(Oc8c([H])c([H])c(F)c([H])c8F)c([H])c7[H])c(C(=O)N([H])[H])c6N([H])[H])C5([H])[H])c([H])c([H])c4C([H])([H])C([H])([H])[N+]([H])([H])C([H])([H])[H])C([H])([H])C3([H])[H])c([H])c([H])c2C1([H])[H]

>  <smiles>  (68) 
[H]c1c([H])c([H])c2c(c1[H])C([H])([H])C([H])([H])C([H])([H])C2([H])N([H])C(=O)C1([H])N(C(=O)C([H])(N([H])C(=O)C([H])(N([H])C([H])([H])[H])C([H])([H])[H])C(C([H])([H])[H])(C([H])([H])[H])C([H])([H])[H])C([H])([H])c2c([H])c(OC3([H])C([H])([H])C([H])([H])C([H])(N([H])c4c([H])c(C([H])([H])N([H])C(=O)N5C([H])([H])C([H])([H])C([H])([H])C([H])(n6nc(-c7c([H])c([H])c(Oc8c([H])c([H])c(F)c([H])c8F)c([H])c7[H])c(C(=O)N([H])[H])c6N([H])[H])C5([H])[H])c([H])c([H])c4C([H])([H])C([H])([H])[N+]([H])([H])C([H])([H])[H])C([H])([H])C3([H])[H])c([H])c([H])c2C1([H])[H]

$$$$
68:0:0
     RDKit          3D

 92100  0  0  1  0  0  0  0  0999 V2000
  -31.8780  -20.4650   22.3000 C   0  0  0  0  0  2  0  0  0  0  0  0
  -31.4530  -21.4810   21.2530 C   0  0  0  0  0  2  0  0  0  0  0  0
  -30.5900  -19.6840   22.5430 C   0  0  0  0  0  2  0  0  0  0  0  0
  -30.4140  -20.7290   20.3980 C   0  0  0  0  0  3  0  0  0  0  0  0
  -29.9220  -19.5520   21.2190 N   0  0  1  0  0  4  0  0  0  0  0  0
  -28.9390  -19.6940   21.4070 H   0  0  0  0  0  0  0  0  0  0  0  0
  -29.3480  -21.6960   19.7610 C   0  0  0  0  0  2  0  0  0  0  0  0
  -28.9670  -22.8730   20.5300 O   0  0  0  0  0  0  0  0  0  0  0  0
  -27.5950  -23.8510   18.7290 C   0  0  0  0  0  1  0  0  0  0  0  0
  -28.6910  -24.0950   19.7840 C   0  0  0  0  0  3  0  0  0  0  0  0
  -28.3150  -25.3020   20.7220 C   0  0  0  0  0  2  0  0  0  0  0  0
  -28.4070  -26.6500   20.1660 O   0  0  0  0  0  0  0  0  0  0  0  0
  -24.6080  -31.9030   23.2390 C   0  0  0  0  0  0  0  0  0  0  0  0
  -27.2530  -27.4250   20.1750 C   0  0  0  0  0  0  0  0  0  0  0  0
  -23.4080  -30.5060   21.5910 C   0  0  0  0  0  3  0  0  0  0  0  0
  -24.8660  -28.9670   20.1720 C   0  0  0  0  0  0  0  0  0  0  0  0
  -25.9390  -30.8580   21.3990 C   0  0  0  0  0  2  0  0  0  0  0  0
  -26.0290  -29.4850   20.7560 C   0  0  0  0  0  0  0  0  0  0  0  0
  -27.2290  -28.7260   20.7440 C   0  0  0  0  0  3  0  0  0  0  0  0
  -26.0650  -26.9320   19.5940 C   0  0  0  0  0  3  0  0  0  0  0  0
  -24.8810  -27.6910   19.5860 C   0  0  0  0  0  3  0  0  0  0  0  0
  -23.6250  -29.8310   20.2120 C   0  0  0  0  0  2  0  0  0  0  0  0
  -24.6710  -31.1040   22.1360 N   0  0  0  0  0  0  0  0  0  0  0  0
  -23.5240  -32.1720   23.7760 O   0  0  0  0  0  0  0  0  0  0  0  0
  -22.7530  -29.4830   22.5480 C   0  0  0  0  0  0  0  0  0  0  0  0
  -21.4280  -29.2990   22.4170 N   0  0  0  0  0  0  0  0  0  0  0  0
  -23.4340  -28.8560   23.3630 O   0  0  0  0  0  0  0  0  0  0  0  0
  -20.9370  -29.8580   21.7330 H   0  0  0  0  0  0  0  0  0  0  0  0
  -18.0550  -28.0910   22.9030 C   0  0  0  0  0  0  0  0  0  0  0  0
  -20.6120  -28.3560   23.1820 C   0  0  0  0  0  3  0  0  0  0  0  0
  -20.7190  -26.9260   22.6040 C   0  0  0  0  0  2  0  0  0  0  0  0
  -19.6220  -26.6030   21.5850 C   0  0  0  0  0  2  0  0  0  0  0  0
  -18.2370  -26.7440   22.2250 C   0  0  0  0  0  2  0  0  0  0  0  0
  -19.1710  -28.8550   23.3380 C   0  0  0  0  0  0  0  0  0  0  0  0
  -18.9490  -30.1160   23.9300 C   0  0  0  0  0  3  0  0  0  0  0  0
  -17.6420  -30.6160   24.0930 C   0  0  0  0  0  3  0  0  0  0  0  0
  -16.5400  -29.8500   23.6730 C   0  0  0  0  0  3  0  0  0  0  0  0
  -16.7470  -28.5890   23.0840 C   0  0  0  0  0  3  0  0  0  0  0  0
  -25.8900  -32.5360   23.8640 C   0  0  0  0  0  3  0  0  0  0  0  0
  -25.5800  -33.9340   24.1920 N   0  0  0  0  0  0  0  0  0  0  0  0
  -25.9120  -34.9860   23.4320 C   0  0  0  0  0  0  0  0  0  0  0  0
  -26.5850  -34.8830   22.4030 O   0  0  0  0  0  0  0  0  0  0  0  0
  -24.9880  -34.0900   24.9950 H   0  0  0  0  0  0  0  0  0  0  0  0
  -24.1810  -36.7720   23.0710 C   0  0  0  0  0  1  0  0  0  0  0  0
  -25.4220  -36.3740   23.8870 C   0  0  0  0  0  3  0  0  0  0  0  0
  -27.5550  -37.2590   24.7200 C   0  0  0  0  0  1  0  0  0  0  0  0
  -26.4530  -37.4290   23.7750 N   0  0  0  0  0  0  0  0  0  0  0  0
  -26.0460  -38.3490   23.9240 H   0  0  0  0  0  0  0  0  0  0  0  0
  -26.4030  -31.7650   25.1410 C   0  0  1  0  0  0  0  0  0  0  0  0
  -25.3080  -31.5310   26.2080 C   0  0  0  0  0  1  0  0  0  0  0  0
  -26.9860  -30.3880   24.7480 C   0  0  0  0  0  1  0  0  0  0  0  0
  -27.5520  -32.5590   25.8080 C   0  0  0  0  0  1  0  0  0  0  0  0
  -30.0110  -18.1800   20.5580 C   0  0  0  0  0  3  0  0  0  0  0  0
  -30.1740  -16.9280   21.5060 C   0  0  0  0  0  3  0  0  0  0  0  0
  -30.6370  -14.6000   20.4640 C   0  0  0  0  0  0  0  0  0  0  0  0
  -30.4140  -12.4270   19.2800 C   0  0  0  0  0  2  0  0  0  0  0  0
  -29.4500  -12.5920   18.0850 C   0  0  0  0  0  2  0  0  0  0  0  0
  -27.9760  -12.4420   18.5250 C   0  0  0  0  0  2  0  0  0  0  0  0
  -27.6390  -13.2750   19.7890 C   0  0  0  0  0  3  0  0  0  0  0  0
  -28.7020  -13.0430   20.8840 C   0  0  0  0  0  2  0  0  0  0  0  0
  -30.0100  -13.3980   20.3090 N   0  0  0  0  0  0  0  0  0  0  0  0
  -31.7830  -14.8140   20.0630 O   0  0  0  0  0  0  0  0  0  0  0  0
  -29.8490  -15.5830   20.9660 N   0  0  0  0  0  0  0  0  0  0  0  0
  -28.9060  -15.2790   21.1520 H   0  0  0  0  0  0  0  0  0  0  0  0
  -25.2440  -13.8870   20.5010 C   0  0  0  0  0  0  0  0  0  0  0  0
  -24.1770  -13.1160   20.8770 C   0  0  0  0  0  0  0  0  0  0  0  0
  -24.6380  -11.7650   20.8490 C   0  0  0  0  0  0  0  0  0  0  0  0
  -26.2880  -13.0040   20.2720 N   0  0  0  0  0  0  0  0  0  0  0  0
  -25.9270  -11.7230   20.5390 N   0  0  0  0  0  0  0  0  0  0  0  0
  -23.9110  -10.5030   21.0440 C   0  0  0  0  0  0  0  0  0  0  0  0
  -24.3520   -9.5340   21.9710 C   0  0  0  0  0  3  0  0  0  0  0  0
  -23.6270   -8.3360   22.1540 C   0  0  0  0  0  3  0  0  0  0  0  0
  -22.4470   -8.1000   21.4080 C   0  0  0  0  0  0  0  0  0  0  0  0
  -22.0260   -9.0590   20.4700 C   0  0  0  0  0  3  0  0  0  0  0  0
  -22.7520  -10.2470   20.2860 C   0  0  0  0  0  3  0  0  0  0  0  0
  -21.6940   -6.9540   21.5000 O   0  0  0  0  0  0  0  0  0  0  0  0
  -21.6610   -6.2060   22.6490 C   0  0  0  0  0  0  0  0  0  0  0  0
  -21.2650   -6.7560   23.8870 C   0  0  0  0  0  3  0  0  0  0  0  0
  -21.1810   -5.9340   25.0270 C   0  0  0  0  0  3  0  0  0  0  0  0
  -21.4810   -4.5620   24.9320 C   0  0  0  0  0  0  0  0  0  0  0  0
  -21.8690   -4.0110   23.6980 C   0  0  0  0  0  3  0  0  0  0  0  0
  -21.9560   -4.8300   22.5590 C   0  0  0  0  0  0  0  0  0  0  0  0
  -22.3100   -4.2900   21.3680 F   0  0  0  0  0  0  0  0  0  0  0  0
  -21.3910   -3.7700   26.0260 F   0  0  0  0  0  0  0  0  0  0  0  0
  -22.7790  -13.5950   21.1450 C   0  0  0  0  0  0  0  0  0  0  0  0
  -22.0520  -12.9040   22.0160 N   0  0  0  0  0  0  0  0  0  0  0  0
  -22.3400  -14.6170   20.6190 O   0  0  0  0  0  0  0  0  0  0  0  0
  -22.4200  -12.0780   22.4650 H   0  0  0  0  0  0  0  0  0  0  0  0
  -21.1140  -13.2050   22.2390 H   0  0  0  0  0  0  0  0  0  0  0  0
  -25.4080  -15.2570   20.3160 N   0  0  0  0  0  0  0  0  0  0  0  0
  -24.6370  -15.9070   20.4250 H   0  0  0  0  0  0  0  0  0  0  0  0
  -26.2390  -15.6900   19.9320 H   0  0  0  0  0  0  0  0  0  0  0  0
  1  3  1  0
  2  1  1  0
  4  7  1  0
  4  5  1  0
  4  2  1  0
  5  6  1  1
  5  3  1  0
  7  8  1  0
 10  9  1  0
 10  8  1  0
 10 11  1  0
 12 14  1  0
 12 11  1  0
 13 24  2  0
 14 19  1  0
 15 23  1  0
 15 25  1  0
 16 22  1  0
 16 18  1  0
 17 23  1  0
 18 17  1  0
 19 18  2  0
 20 14  2  0
 21 20  1  0
 21 16  2  0
 22 15  1  0
 23 13  1  0
 25 27  2  0
 26 25  1  0
 28 26  1  0
 29 38  2  0
 29 34  1  0
 30 26  1  0
 30 34  1  0
 31 30  1  0
 32 33  1  0
 32 31  1  0
 33 29  1  0
 34 35  2  0
 35 36  1  0
 37 36  2  0
 38 37  1  0
 39 13  1  0
 39 40  1  0
 39 49  1  0
 40 43  1  0
 41 45  1  0
 41 40  1  0
 42 41  2  0
 45 44  1  0
 47 45  1  0
 47 48  1  0
 47 46  1  0
 49 52  1  1
 49 50  1  0
 51 49  1  0
 53  5  1  0
 53 54  2  0
 55 63  1  0
 56 61  1  0
 57 58  1  0
 57 56  1  0
 59 58  1  0
 59 68  1  0
 59 60  1  0
 61 55  1  0
 61 60  1  0
 62 55  2  0
 63 64  1  0
 63 54  1  0
 65 66  2  0
 66 85  1  0
 67 66  1  0
 67 70  1  0
 68 65  1  0
 68 69  1  0
 69 67  2  0
 70 71  1  0
 71 72  2  0
 73 76  1  0
 73 72  1  0
 74 73  2  0
 75 74  1  0
 75 70  2  0
 76 77  1  0
 77 78  1  0
 78 79  2  0
 80 79  1  0
 80 84  1  0
 81 80  2  0
 82 77  2  0
 82 81  1  0
 83 82  1  0
 85 86  1  0
 86 89  1  0
 86 88  1  0
 87 85  2  0
 90 91  1  0
 90 65  1  0
 92 90  1  0
M  ISO  4  11 101  12 101  55 100  63 100
M  END
>  <TORSDO>  (69) 
F 22

>  <SCORE>  (69) 
-13.256

>  <name>  (69) 
68

>  <ligand_id>  (69) 
68

>  <original_smiles>  (69) 
[H]c1c([H])c([H])c2c(c1[H])C([H])([H])C([H])([H])C([H])([H])C2([H])N([H])C(=O)C1([H])N(C(=O)C([H])(N([H])C(=O)C([H])(N([H])C([H])([H])[H])C([H])([H])[H])C(C([H])([H])[H])(C([H])([H])[H])C([H])([H])[H])C([H])([H])c2c([H])c(OC([H])([H])C([H])(OC([H])([H])C3([H])C([H])([H])C([H])([H])C([H])([H])[N+]3([H])C([H])([H])C([H])([H])N([H])C(=O)N3C([H])([H])C([H])([H])C([H])([H])C([H])(n4nc(-c5c([H])c([H])c(Oc6c([H])c([H])c(F)c([H])c6F)c([H])c5[H])c(C(=O)N([H])[H])c4N([H])[H])C3([H])[H])C([H])([H])[H])c([H])c([H])c2C1([H])[H]

>  <smiles>  (69) 
[H]c1c([H])c([H])c2c(c1[H])C([H])([H])C([H])([H])C([H])([H])C2([H])N([H])C(=O)C1([H])N(C(=O)C([H])(N([H])C(=O)C([H])(N([H])C([H])([H])[H])C([H])([H])[H])C(C([H])([H])[H])(C([H])([H])[H])C([H])([H])[H])C([H])([H])c2c([H])c(OC([H])([H])C([H])(OC([H])([H])C3([H])C([H])([H])C([H])([H])C([H])([H])[N+]3([H])C([H])([H])C([H])([H])N([H])C(=O)N3C([H])([H])C([H])([H])C([H])([H])C([H])(n4nc(-c5c([H])c([H])c(Oc6c([H])c([H])c(F)c([H])c6F)c([H])c5[H])c(C(=O)N([H])[H])c4N([H])[H])C3([H])[H])C([H])([H])[H])c([H])c([H])c2C1([H])[H]

$$$$
69:0:0
     RDKit          3D

 97105  0  0  1  0  0  0  0  0999 V2000
  -32.1600  -18.4500   22.1390 C   0  0  0  0  0  2  0  0  0  0  0  0
  -29.8120  -19.2910   20.7500 C   0  0  0  0  0  2  0  0  0  0  0  0
  -30.7270  -20.3010   21.4920 C   0  0  0  0  0  3  0  0  0  0  0  0
  -31.2420  -17.4330   21.4190 C   0  0  0  0  0  3  0  0  0  0  0  0
  -32.1170  -19.7730   21.4810 N   0  0  0  0  0  0  0  0  0  0  0  0
  -29.8660  -17.9590   21.3840 N   0  0  0  0  0  4  0  0  0  0  0  0
  -29.2720  -17.3240   20.8790 H   0  0  0  0  0  0  0  0  0  0  0  0
  -29.5230  -18.0380   22.3260 H   0  0  0  0  0  0  0  0  0  0  0  0
  -34.5850  -20.1970   21.6800 C   0  0  0  0  0  1  0  0  0  0  0  0
  -32.9900  -21.0810   23.4630 C   0  0  0  0  0  1  0  0  0  0  0  0
  -33.1590  -20.6990   21.9790 C   0  0  0  0  0  3  0  0  0  0  0  0
  -30.6570  -21.7150   20.8480 C   0  0  0  0  0  2  0  0  0  0  0  0
  -28.4660  -22.4700   21.9340 C   0  0  0  0  0  1  0  0  0  0  0  0
  -29.2720  -22.3690   20.6230 C   0  0  0  0  0  3  0  0  0  0  0  0
  -29.4990  -23.7570   19.9820 C   0  0  0  0  0  2  0  0  0  0  0  0
  -28.2580  -24.4370   19.3790 C   0  0  0  0  0  2  0  0  0  0  0  0
  -28.5990  -25.8280   18.8120 C   0  0  0  0  0  2  0  0  0  0  0  0
  -28.4460  -26.8480   19.8000 O   0  0  0  0  0  0  0  0  0  0  0  0
  -24.5980  -31.8130   23.1460 C   0  0  0  0  0  0  0  0  0  0  0  0
  -27.2350  -27.5050   19.8790 C   0  0  0  0  0  0  0  0  0  0  0  0
  -23.3720  -30.4510   21.4840 C   0  0  0  0  0  3  0  0  0  0  0  0
  -24.8140  -28.9640   20.0020 C   0  0  0  0  0  0  0  0  0  0  0  0
  -25.8890  -30.8400   21.2540 C   0  0  0  0  0  2  0  0  0  0  0  0
  -25.9770  -29.4860   20.5800 C   0  0  0  0  0  0  0  0  0  0  0  0
  -27.1880  -28.7610   20.5210 C   0  0  0  0  0  3  0  0  0  0  0  0
  -26.0400  -26.9790   19.3290 C   0  0  0  0  0  3  0  0  0  0  0  0
  -24.8380  -27.7030   19.3840 C   0  0  0  0  0  3  0  0  0  0  0  0
  -23.5640  -29.8090   20.0850 C   0  0  0  0  0  2  0  0  0  0  0  0
  -24.6380  -31.0460   22.0210 N   0  0  0  0  0  0  0  0  0  0  0  0
  -23.5230  -32.0640   23.7100 O   0  0  0  0  0  0  0  0  0  0  0  0
  -22.7460  -29.3960   22.4230 C   0  0  0  0  0  0  0  0  0  0  0  0
  -21.4210  -29.2110   22.3100 N   0  0  0  0  0  0  0  0  0  0  0  0
  -23.4470  -28.7510   23.2080 O   0  0  0  0  0  0  0  0  0  0  0  0
  -20.9220  -29.7830   21.6440 H   0  0  0  0  0  0  0  0  0  0  0  0
  -18.0580  -28.0010   22.8360 C   0  0  0  0  0  0  0  0  0  0  0  0
  -20.6200  -28.2470   23.0630 C   0  0  0  0  0  3  0  0  0  0  0  0
  -20.7080  -26.8360   22.4390 C   0  0  0  0  0  2  0  0  0  0  0  0
  -19.5870  -26.5500   21.4360 C   0  0  0  0  0  2  0  0  0  0  0  0
  -18.2170  -26.6760   22.1080 C   0  0  0  0  0  2  0  0  0  0  0  0
  -19.1870  -28.7470   23.2690 C   0  0  0  0  0  0  0  0  0  0  0  0
  -18.9840  -29.9900   23.9060 C   0  0  0  0  0  3  0  0  0  0  0  0
  -17.6850  -30.4880   24.1170 C   0  0  0  0  0  3  0  0  0  0  0  0
  -16.5710  -29.7390   23.7020 C   0  0  0  0  0  3  0  0  0  0  0  0
  -16.7580  -28.4960   23.0680 C   0  0  0  0  0  3  0  0  0  0  0  0
  -25.8910  -32.4340   23.7620 C   0  0  0  0  0  3  0  0  0  0  0  0
  -25.5880  -33.8260   24.1170 N   0  0  0  0  0  0  0  0  0  0  0  0
  -25.9040  -34.8880   23.3660 C   0  0  0  0  0  0  0  0  0  0  0  0
  -26.5620  -34.8010   22.3250 O   0  0  0  0  0  0  0  0  0  0  0  0
  -25.0180  -33.9720   24.9380 H   0  0  0  0  0  0  0  0  0  0  0  0
  -24.1660  -36.6740   23.0420 C   0  0  0  0  0  1  0  0  0  0  0  0
  -25.4120  -36.2660   23.8440 C   0  0  0  0  0  3  0  0  0  0  0  0
  -27.5510  -37.1410   24.6750 C   0  0  0  0  0  1  0  0  0  0  0  0
  -26.4370  -37.3280   23.7480 N   0  0  0  0  0  0  0  0  0  0  0  0
  -26.0250  -38.2400   23.9330 H   0  0  0  0  0  0  0  0  0  0  0  0
  -26.4230  -31.6390   25.0160 C   0  0  1  0  0  0  0  0  0  0  0  0
  -25.3400  -31.3560   26.0840 C   0  0  0  0  0  1  0  0  0  0  0  0
  -27.0240  -30.2790   24.5840 C   0  0  0  0  0  1  0  0  0  0  0  0
  -27.5680  -32.4310   25.6920 C   0  0  0  0  0  1  0  0  0  0  0  0
  -31.2910  -16.0400   22.0910 C   0  0  0  0  0  2  0  0  0  0  0  0
  -30.5940  -14.4680   20.3050 C   0  0  0  0  0  0  0  0  0  0  0  0
  -30.1120  -12.5120   18.8860 C   0  0  0  0  0  2  0  0  0  0  0  0
  -29.0850  -12.8050   17.7770 C   0  0  0  0  0  2  0  0  0  0  0  0
  -27.6540  -12.6090   18.3030 C   0  0  0  0  0  2  0  0  0  0  0  0
  -27.4030  -13.3540   19.6390 C   0  0  0  0  0  3  0  0  0  0  0  0
  -28.5270  -13.0580   20.6610 C   0  0  0  0  0  2  0  0  0  0  0  0
  -29.8290  -13.3770   20.0410 N   0  0  0  0  0  0  0  0  0  0  0  0
  -31.5130  -14.8480   19.5740 O   0  0  0  0  0  0  0  0  0  0  0  0
  -30.3810  -15.0550   21.4880 N   0  0  0  0  0  0  0  0  0  0  0  0
  -29.6650  -14.6480   22.0740 H   0  0  0  0  0  0  0  0  0  0  0  0
  -25.0230  -13.8830   20.4690 C   0  0  0  0  0  0  0  0  0  0  0  0
  -23.9950  -13.0750   20.8740 C   0  0  0  0  0  0  0  0  0  0  0  0
  -24.4890  -11.7370   20.7970 C   0  0  0  0  0  0  0  0  0  0  0  0
  -26.0820  -13.0360   20.1770 N   0  0  0  0  0  0  0  0  0  0  0  0
  -25.7640  -11.7390   20.4270 N   0  0  0  0  0  0  0  0  0  0  0  0
  -23.8080  -10.4510   21.0000 C   0  0  0  0  0  0  0  0  0  0  0  0
  -24.2900   -9.4970   21.9220 C   0  0  0  0  0  3  0  0  0  0  0  0
  -23.6080   -8.2770   22.1120 C   0  0  0  0  0  3  0  0  0  0  0  0
  -22.4290   -8.0020   21.3780 C   0  0  0  0  0  0  0  0  0  0  0  0
  -21.9680   -8.9430   20.4430 C   0  0  0  0  0  3  0  0  0  0  0  0
  -22.6530  -10.1560   20.2510 C   0  0  0  0  0  3  0  0  0  0  0  0
  -21.7160   -6.8310   21.4750 O   0  0  0  0  0  0  0  0  0  0  0  0
  -21.6930   -6.0970   22.6340 C   0  0  0  0  0  0  0  0  0  0  0  0
  -21.2460   -6.6460   23.8550 C   0  0  0  0  0  3  0  0  0  0  0  0
  -21.1730   -5.8360   25.0060 C   0  0  0  0  0  3  0  0  0  0  0  0
  -21.5380   -4.4780   24.9360 C   0  0  0  0  0  0  0  0  0  0  0  0
  -21.9790   -3.9290   23.7190 C   0  0  0  0  0  3  0  0  0  0  0  0
  -22.0520   -4.7360   22.5710 C   0  0  0  0  0  0  0  0  0  0  0  0
  -22.4570   -4.1960   21.3960 F   0  0  0  0  0  0  0  0  0  0  0  0
  -21.4620   -3.6990   26.0400 F   0  0  0  0  0  0  0  0  0  0  0  0
  -22.6000  -13.5090   21.2240 C   0  0  0  0  0  0  0  0  0  0  0  0
  -21.9330  -12.7760   22.1100 N   0  0  0  0  0  0  0  0  0  0  0  0
  -22.1070  -14.5310   20.7480 O   0  0  0  0  0  0  0  0  0  0  0  0
  -22.3460  -11.9470   22.5120 H   0  0  0  0  0  0  0  0  0  0  0  0
  -21.0010  -13.0460   22.3880 H   0  0  0  0  0  0  0  0  0  0  0  0
  -25.1400  -15.2600   20.3080 N   0  0  0  0  0  0  0  0  0  0  0  0
  -24.3530  -15.8840   20.4580 H   0  0  0  0  0  0  0  0  0  0  0  0
  -25.9530  -15.7280   19.9260 H   0  0  0  0  0  0  0  0  0  0  0  0
  2  6  1  0
  2  3  1  0
  3 12  1  0
  4 59  1  0
  4  1  1  0
  5  3  1  0
  5 11  1  0
  5  1  1  0
  6  4  1  0
  6  8  1  0
  7  6  1  0
  9 11  1  0
 11 10  1  0
 14 12  1  0
 14 13  1  0
 15 14  1  0
 16 15  1  0
 17 16  1  0
 17 18  1  0
 18 20  1  0
 19 30  2  0
 20 25  1  0
 21 29  1  0
 21 31  1  0
 22 28  1  0
 22 24  1  0
 23 29  1  0
 24 23  1  0
 25 24  2  0
 26 27  1  0
 26 20  2  0
 27 22  2  0
 28 21  1  0
 29 19  1  0
 31 33  2  0
 32 31  1  0
 34 32  1  0
 35 44  2  0
 35 40  1  0
 36 32  1  0
 36 40  1  0
 37 36  1  0
 38 39  1  0
 38 37  1  0
 39 35  1  0
 40 41  2  0
 41 42  1  0
 43 42  2  0
 44 43  1  0
 45 19  1  0
 45 46  1  0
 45 55  1  0
 46 49  1  0
 47 51  1  0
 47 46  1  0
 48 47  2  0
 51 50  1  0
 53 51  1  0
 53 54  1  0
 53 52  1  0
 55 58  1  1
 55 56  1  0
 57 55  1  0
 60 68  1  0
 61 66  1  0
 62 63  1  0
 62 61  1  0
 64 63  1  0
 64 73  1  0
 64 65  1  0
 66 60  1  0
 66 65  1  0
 67 60  2  0
 68 69  1  0
 68 59  1  0
 70 71  2  0
 71 90  1  0
 72 71  1  0
 72 75  1  0
 73 74  1  0
 73 70  1  0
 74 72  2  0
 75 76  1  0
 76 77  2  0
 78 81  1  0
 78 77  1  0
 79 78  2  0
 80 79  1  0
 80 75  2  0
 81 82  1  0
 82 83  1  0
 83 84  2  0
 85 84  1  0
 85 89  1  0
 86 85  2  0
 87 82  2  0
 87 86  1  0
 88 87  1  0
 90 91  1  0
 91 94  1  0
 91 93  1  0
 92 90  2  0
 95 96  1  0
 95 70  1  0
 97 95  1  0
M  ISO  4  17 101  18 101  60 100  68 100
M  END
>  <TORSDO>  (70) 
F 23

>  <SCORE>  (70) 
-12.347

>  <name>  (70) 
69

>  <ligand_id>  (70) 
69

>  <original_smiles>  (70) 
[H]c1c([H])c([H])c2c(c1[H])C([H])([H])C([H])([H])C([H])([H])C2([H])N([H])C(=O)C1([H])N(C(=O)C([H])(N([H])C(=O)C([H])(N([H])C([H])([H])[H])C([H])([H])[H])C(C([H])([H])[H])(C([H])([H])[H])C([H])([H])[H])C([H])([H])c2c([H])c(OC([H])([H])C([H])([H])C([H])([H])C([H])(C([H])([H])[H])C([H])([H])C3([H])N(C([H])(C([H])([H])[H])C([H])([H])[H])C([H])([H])C([H])(C([H])([H])N([H])C(=O)N4C([H])([H])C([H])([H])C([H])([H])C([H])(n5nc(-c6c([H])c([H])c(Oc7c([H])c([H])c(F)c([H])c7F)c([H])c6[H])c(C(=O)N([H])[H])c5N([H])[H])C4([H])[H])[N+]([H])([H])C3([H])[H])c([H])c([H])c2C1([H])[H]

>  <smiles>  (70) 
[H]c1c([H])c([H])c2c(c1[H])C([H])([H])C([H])([H])C([H])([H])C2([H])N([H])C(=O)C1([H])N(C(=O)C([H])(N([H])C(=O)C([H])(N([H])C([H])([H])[H])C([H])([H])[H])C(C([H])([H])[H])(C([H])([H])[H])C([H])([H])[H])C([H])([H])c2c([H])c(OC([H])([H])C([H])([H])C([H])([H])C([H])(C([H])([H])[H])C([H])([H])C3([H])N(C([H])(C([H])([H])[H])C([H])([H])[H])C([H])([H])C([H])(C([H])([H])N([H])C(=O)N4C([H])([H])C([H])([H])C([H])([H])C([H])(n5nc(-c6c([H])c([H])c(Oc7c([H])c([H])c(F)c([H])c7F)c([H])c6[H])c(C(=O)N([H])[H])c5N([H])[H])C4([H])[H])[N+]([H])([H])C3([H])[H])c([H])c([H])c2C1([H])[H]

$$$$
70:0:0
     RDKit          3D

 91 99  0  0  1  0  0  0  0  0999 V2000
  -28.7690  -20.7460   21.1720 C   0  0  0  0  0  2  0  0  0  0  0  0
  -28.8320  -20.2660   18.7510 C   0  0  0  0  0  2  0  0  0  0  0  0
  -29.6390  -19.4800   21.4420 C   0  0  0  0  0  2  0  0  0  0  0  0
  -29.6700  -18.9800   18.9920 C   0  0  0  0  0  2  0  0  0  0  0  0
  -29.0400  -21.4070   19.7910 C   0  0  0  0  0  3  0  0  0  0  0  0
  -29.5120  -18.3270   20.3940 C   0  0  0  0  0  3  0  0  0  0  0  0
  -26.7180  -22.6000   19.9170 C   0  0  0  0  0  1  0  0  0  0  0  0
  -28.1730  -22.6950   19.4220 C   0  0  0  0  0  3  0  0  0  0  0  0
  -28.7870  -24.1690   19.4930 C   0  0  0  0  0  2  0  0  0  0  0  0
  -28.1820  -25.2560   20.4680 C   0  0  0  0  0  2  0  0  0  0  0  0
  -28.3810  -26.6730   20.1240 O   0  0  0  0  0  0  0  0  0  0  0  0
  -24.5970  -31.9530   23.2430 C   0  0  0  0  0  0  0  0  0  0  0  0
  -27.2460  -27.4820   20.1150 C   0  0  0  0  0  0  0  0  0  0  0  0
  -23.3990  -30.5410   21.6120 C   0  0  0  0  0  3  0  0  0  0  0  0
  -24.8530  -29.0250   20.1600 C   0  0  0  0  0  0  0  0  0  0  0  0
  -25.9260  -30.9040   21.4020 C   0  0  0  0  0  2  0  0  0  0  0  0
  -26.0200  -29.5350   20.7440 C   0  0  0  0  0  0  0  0  0  0  0  0
  -27.2230  -28.7770   20.7090 C   0  0  0  0  0  3  0  0  0  0  0  0
  -26.0640  -27.0210   19.4950 C   0  0  0  0  0  3  0  0  0  0  0  0
  -24.8750  -27.7730   19.5260 C   0  0  0  0  0  3  0  0  0  0  0  0
  -23.6020  -29.8760   20.2280 C   0  0  0  0  0  2  0  0  0  0  0  0
  -24.6600  -31.1480   22.1440 N   0  0  0  0  0  0  0  0  0  0  0  0
  -23.5140  -32.2130   23.7860 O   0  0  0  0  0  0  0  0  0  0  0  0
  -22.7600  -29.5110   22.5720 C   0  0  0  0  0  0  0  0  0  0  0  0
  -21.4380  -29.3100   22.4430 N   0  0  0  0  0  0  0  0  0  0  0  0
  -23.4510  -28.8960   23.3870 O   0  0  0  0  0  0  0  0  0  0  0  0
  -20.9420  -29.8580   21.7540 H   0  0  0  0  0  0  0  0  0  0  0  0
  -18.0770  -28.0680   22.9470 C   0  0  0  0  0  0  0  0  0  0  0  0
  -20.6320  -28.3620   23.2120 C   0  0  0  0  0  3  0  0  0  0  0  0
  -20.7520  -26.9340   22.6350 C   0  0  0  0  0  2  0  0  0  0  0  0
  -19.6530  -26.5960   21.6230 C   0  0  0  0  0  2  0  0  0  0  0  0
  -18.2700  -26.7200   22.2700 C   0  0  0  0  0  2  0  0  0  0  0  0
  -19.1860  -28.8450   23.3730 C   0  0  0  0  0  0  0  0  0  0  0  0
  -18.9550  -30.1040   23.9690 C   0  0  0  0  0  3  0  0  0  0  0  0
  -17.6460  -30.5910   24.1370 C   0  0  0  0  0  3  0  0  0  0  0  0
  -16.5490  -29.8120   23.7280 C   0  0  0  0  0  3  0  0  0  0  0  0
  -16.7650  -28.5510   23.1420 C   0  0  0  0  0  3  0  0  0  0  0  0
  -25.8770  -32.5950   23.8580 C   0  0  0  0  0  3  0  0  0  0  0  0
  -26.4040  -31.8320   25.1340 C   0  0  1  0  0  0  0  0  0  0  0  0
  -25.3190  -31.5860   26.2100 C   0  0  0  0  0  1  0  0  0  0  0  0
  -26.9960  -30.4590   24.7410 C   0  0  0  0  0  1  0  0  0  0  0  0
  -27.5560  -32.6350   25.7860 C   0  0  0  0  0  1  0  0  0  0  0  0
  -25.5590  -33.9930   24.1830 N   0  0  0  0  0  0  0  0  0  0  0  0
  -25.8870  -35.0460   23.4210 C   0  0  0  0  0  0  0  0  0  0  0  0
  -26.5630  -34.9430   22.3940 O   0  0  0  0  0  0  0  0  0  0  0  0
  -24.9530  -34.1430   24.9750 H   0  0  0  0  0  0  0  0  0  0  0  0
  -24.1570  -36.8320   23.0440 C   0  0  0  0  0  1  0  0  0  0  0  0
  -25.3900  -36.4330   23.8710 C   0  0  0  0  0  3  0  0  0  0  0  0
  -27.5120  -37.3230   24.7260 C   0  0  0  0  0  1  0  0  0  0  0  0
  -26.4200  -37.4890   23.7670 N   0  0  0  0  0  0  0  0  0  0  0  0
  -26.0110  -38.4090   23.9100 H   0  0  0  0  0  0  0  0  0  0  0  0
  -31.3160  -17.1520   21.9240 C   0  0  0  0  0  1  0  0  0  0  0  0
  -30.5360  -17.1170   20.5950 C   0  0  0  0  0  3  0  0  0  0  0  0
  -30.6700  -14.6480   20.0490 C   0  0  0  0  0  0  0  0  0  0  0  0
  -30.3140  -12.4700   18.9400 C   0  0  0  0  0  2  0  0  0  0  0  0
  -29.3210  -12.6780   17.7780 C   0  0  0  0  0  2  0  0  0  0  0  0
  -27.8700  -12.5440   18.2790 C   0  0  0  0  0  2  0  0  0  0  0  0
  -27.5950  -13.3670   19.5660 C   0  0  0  0  0  3  0  0  0  0  0  0
  -28.7080  -13.1640   20.6190 C   0  0  0  0  0  2  0  0  0  0  0  0
  -29.9890  -13.4700   19.9720 N   0  0  0  0  0  0  0  0  0  0  0  0
  -31.8230  -14.7610   19.6240 O   0  0  0  0  0  0  0  0  0  0  0  0
  -29.9710  -15.7450   20.4450 N   0  0  0  0  0  0  0  0  0  0  0  0
  -29.0070  -15.6030   20.7020 H   0  0  0  0  0  0  0  0  0  0  0  0
  -25.2370  -13.9540   20.3980 C   0  0  0  0  0  0  0  0  0  0  0  0
  -24.1910  -13.1720   20.8090 C   0  0  0  0  0  0  0  0  0  0  0  0
  -24.6540  -11.8240   20.7440 C   0  0  0  0  0  0  0  0  0  0  0  0
  -26.2720  -13.0770   20.1110 N   0  0  0  0  0  0  0  0  0  0  0  0
  -25.9290  -11.7900   20.3800 N   0  0  0  0  0  0  0  0  0  0  0  0
  -23.9410  -10.5560   20.9520 C   0  0  0  0  0  0  0  0  0  0  0  0
  -24.3930   -9.5970   21.8850 C   0  0  0  0  0  3  0  0  0  0  0  0
  -23.6780   -8.3950   22.0800 C   0  0  0  0  0  3  0  0  0  0  0  0
  -22.4980   -8.1450   21.3410 C   0  0  0  0  0  0  0  0  0  0  0  0
  -22.0660   -9.0920   20.3960 C   0  0  0  0  0  3  0  0  0  0  0  0
  -22.7820  -10.2840   20.2000 C   0  0  0  0  0  3  0  0  0  0  0  0
  -21.7520   -6.9960   21.4460 O   0  0  0  0  0  0  0  0  0  0  0  0
  -21.7040   -6.2720   22.6100 C   0  0  0  0  0  0  0  0  0  0  0  0
  -21.2450   -6.8360   23.8210 C   0  0  0  0  0  3  0  0  0  0  0  0
  -21.1470   -6.0380   24.9780 C   0  0  0  0  0  3  0  0  0  0  0  0
  -21.4970   -4.6760   24.9260 C   0  0  0  0  0  0  0  0  0  0  0  0
  -21.9490   -4.1110   23.7210 C   0  0  0  0  0  3  0  0  0  0  0  0
  -22.0490   -4.9050   22.5650 C   0  0  0  0  0  0  0  0  0  0  0  0
  -22.4650   -4.3510   21.4030 F   0  0  0  0  0  0  0  0  0  0  0  0
  -21.3950   -3.9070   26.0350 F   0  0  0  0  0  0  0  0  0  0  0  0
  -22.8050  -13.6400   21.1440 C   0  0  0  0  0  0  0  0  0  0  0  0
  -22.1150  -12.9270   22.0300 N   0  0  0  0  0  0  0  0  0  0  0  0
  -22.3440  -14.6730   20.6610 O   0  0  0  0  0  0  0  0  0  0  0  0
  -22.5050  -12.0920   22.4410 H   0  0  0  0  0  0  0  0  0  0  0  0
  -21.1860  -13.2200   22.2990 H   0  0  0  0  0  0  0  0  0  0  0  0
  -25.3880  -15.3240   20.2240 N   0  0  0  0  0  0  0  0  0  0  0  0
  -24.6190  -15.9710   20.3620 H   0  0  0  0  0  0  0  0  0  0  0  0
  -26.2110  -15.7690   19.8390 H   0  0  0  0  0  0  0  0  0  0  0  0
  1  3  1  0
  2  4  1  0
  2  5  1  0
  4  6  1  0
  5  8  1  0
  5  1  1  0
  6 53  1  0
  6  3  1  0
  8  9  1  0
  8  7  1  0
  9 10  1  0
 11 10  1  0
 12 23  2  0
 13 11  1  0
 13 18  1  0
 14 22  1  0
 14 24  1  0
 15 21  1  0
 15 17  1  0
 16 22  1  0
 17 16  1  0
 18 17  2  0
 19 20  1  0
 19 13  2  0
 20 15  2  0
 21 14  1  0
 22 12  1  0
 24 26  2  0
 25 24  1  0
 27 25  1  0
 28 37  2  0
 28 33  1  0
 29 25  1  0
 29 33  1  0
 30 29  1  0
 31 32  1  0
 31 30  1  0
 32 28  1  0
 33 34  2  0
 34 35  1  0
 36 35  2  0
 37 36  1  0
 38 12  1  0
 38 43  1  0
 38 39  1  0
 39 42  1  1
 39 40  1  0
 41 39  1  0
 43 46  1  0
 44 48  1  0
 44 43  1  0
 45 44  2  0
 48 47  1  0
 50 48  1  0
 50 51  1  0
 50 49  1  0
 53 52  1  0
 54 62  1  0
 55 60  1  0
 56 57  1  0
 56 55  1  0
 58 57  1  0
 58 67  1  0
 58 59  1  0
 60 54  1  0
 60 59  1  0
 61 54  2  0
 62 53  1  0
 62 63  1  0
 64 65  2  0
 65 84  1  0
 66 65  1  0
 66 69  1  0
 67 68  1  0
 67 64  1  0
 68 66  2  0
 69 70  1  0
 70 71  2  0
 72 75  1  0
 72 71  1  0
 73 72  2  0
 74 73  1  0
 74 69  2  0
 75 76  1  0
 76 77  1  0
 77 78  2  0
 79 78  1  0
 79 83  1  0
 80 79  2  0
 81 76  2  0
 81 80  1  0
 82 81  1  0
 84 85  1  0
 85 88  1  0
 85 87  1  0
 86 84  2  0
 89 90  1  0
 89 64  1  0
 91 89  1  0
M  ISO  4  10 101  11 101  54 100  62 100
M  END
>  <TORSDO>  (71) 
F 20

>  <SCORE>  (71) 
-13.343

>  <name>  (71) 
70

>  <ligand_id>  (71) 
70

>  <original_smiles>  (71) 
[H]c1c([H])c([H])c2c(c1[H])C([H])([H])C([H])([H])C([H])([H])C2([H])N([H])C(=O)C1([H])N(C(=O)C([H])(N([H])C(=O)C([H])(N([H])C([H])([H])[H])C([H])([H])[H])C(C([H])([H])[H])(C([H])([H])[H])C([H])([H])[H])C([H])([H])c2c([H])c(OC([H])([H])C([H])([H])C([H])(C([H])([H])[H])C3([H])C([H])([H])C([H])([H])C([H])(C([H])(N([H])C(=O)N4C([H])([H])C([H])([H])C([H])([H])C([H])(n5nc(-c6c([H])c([H])c(Oc7c([H])c([H])c(F)c([H])c7F)c([H])c6[H])c(C(=O)N([H])[H])c5N([H])[H])C4([H])[H])C([H])([H])[H])C([H])([H])C3([H])[H])c([H])c([H])c2C1([H])[H]

>  <smiles>  (71) 
[H]c1c([H])c([H])c2c(c1[H])C([H])([H])C([H])([H])C([H])([H])C2([H])N([H])C(=O)C1([H])N(C(=O)C([H])(N([H])C(=O)C([H])(N([H])C([H])([H])[H])C([H])([H])[H])C(C([H])([H])[H])(C([H])([H])[H])C([H])([H])[H])C([H])([H])c2c([H])c(OC([H])([H])C([H])([H])C([H])(C([H])([H])[H])C3([H])C([H])([H])C([H])([H])C([H])(C([H])(N([H])C(=O)N4C([H])([H])C([H])([H])C([H])([H])C([H])(n5nc(-c6c([H])c([H])c(Oc7c([H])c([H])c(F)c([H])c7F)c([H])c6[H])c(C(=O)N([H])[H])c5N([H])[H])C4([H])[H])C([H])([H])[H])C([H])([H])C3([H])[H])c([H])c([H])c2C1([H])[H]

$$$$
71:0:0
     RDKit          3D

 90 98  0  0  1  0  0  0  0  0999 V2000
  -29.4970  -22.7780   21.4070 C   0  0  0  0  0  3  0  0  0  0  0  0
  -29.7630  -21.3510   21.3990 C   0  0  0  0  0  3  0  0  0  0  0  0
  -27.9270  -22.4870   19.6640 C   0  0  0  0  0  3  0  0  0  0  0  0
  -28.5420  -23.4240   20.5550 C   0  0  0  0  0  0  0  0  0  0  0  0
  -29.0950  -20.4050   20.5510 C   0  0  0  0  0  0  0  0  0  0  0  0
  -28.1640  -21.0470   19.6650 C   0  0  0  0  0  0  0  0  0  0  0  0
  -26.3120  -20.6990   18.1700 C   0  0  0  0  0  1  0  0  0  0  0  0
  -27.4420  -20.1890   18.8650 O   0  0  0  0  0  0  0  0  0  0  0  0
  -29.1150  -18.7790   20.7910 C   0  0  0  0  0  3  0  0  0  0  0  0
  -30.0980  -17.6220   20.1260 C   0  0  0  0  0  3  0  0  0  0  0  0
  -30.5970  -14.9460   20.0330 C   0  0  0  0  0  0  0  0  0  0  0  0
  -30.3970  -12.6500   19.0040 C   0  0  0  0  0  2  0  0  0  0  0  0
  -29.4010  -12.6880   17.8210 C   0  0  0  0  0  2  0  0  0  0  0  0
  -27.9590  -12.4720   18.3180 C   0  0  0  0  0  2  0  0  0  0  0  0
  -27.6250  -13.3500   19.5530 C   0  0  0  0  0  3  0  0  0  0  0  0
  -28.7360  -13.2930   20.6250 C   0  0  0  0  0  2  0  0  0  0  0  0
  -29.9900  -13.6990   19.9780 N   0  0  0  0  0  0  0  0  0  0  0  0
  -31.7560  -15.0500   19.6160 O   0  0  0  0  0  0  0  0  0  0  0  0
  -29.8450  -16.0920   20.3580 N   0  0  0  0  0  0  0  0  0  0  0  0
  -28.9180  -15.8730   20.6900 H   0  0  0  0  0  0  0  0  0  0  0  0
  -25.2760  -13.9050   20.4080 C   0  0  0  0  0  0  0  0  0  0  0  0
  -24.2350  -13.1180   20.8180 C   0  0  0  0  0  0  0  0  0  0  0  0
  -24.7050  -11.7710   20.7420 C   0  0  0  0  0  0  0  0  0  0  0  0
  -26.3120  -13.0380   20.1040 N   0  0  0  0  0  0  0  0  0  0  0  0
  -25.9790  -11.7470   20.3690 N   0  0  0  0  0  0  0  0  0  0  0  0
  -23.9940  -10.5010   20.9450 C   0  0  0  0  0  0  0  0  0  0  0  0
  -24.4510   -9.5380   21.8710 C   0  0  0  0  0  3  0  0  0  0  0  0
  -23.7380   -8.3330   22.0620 C   0  0  0  0  0  3  0  0  0  0  0  0
  -22.5540   -8.0850   21.3280 C   0  0  0  0  0  0  0  0  0  0  0  0
  -22.1160   -9.0380   20.3920 C   0  0  0  0  0  3  0  0  0  0  0  0
  -22.8300  -10.2330   20.1990 C   0  0  0  0  0  3  0  0  0  0  0  0
  -21.8120   -6.9330   21.4310 O   0  0  0  0  0  0  0  0  0  0  0  0
  -21.7580   -6.2130   22.5970 C   0  0  0  0  0  0  0  0  0  0  0  0
  -21.3090   -6.7850   23.8080 C   0  0  0  0  0  3  0  0  0  0  0  0
  -21.2050   -5.9900   24.9660 C   0  0  0  0  0  3  0  0  0  0  0  0
  -21.5360   -4.6230   24.9150 C   0  0  0  0  0  0  0  0  0  0  0  0
  -21.9770   -4.0490   23.7100 C   0  0  0  0  0  3  0  0  0  0  0  0
  -22.0850   -4.8410   22.5530 C   0  0  0  0  0  0  0  0  0  0  0  0
  -22.4920   -4.2800   21.3890 F   0  0  0  0  0  0  0  0  0  0  0  0
  -21.4290   -3.8580   26.0260 F   0  0  0  0  0  0  0  0  0  0  0  0
  -22.8500  -13.5830   21.1640 C   0  0  0  0  0  0  0  0  0  0  0  0
  -22.1690  -12.8670   22.0540 N   0  0  0  0  0  0  0  0  0  0  0  0
  -22.3830  -14.6140   20.6840 O   0  0  0  0  0  0  0  0  0  0  0  0
  -22.5620  -12.0360   22.4670 H   0  0  0  0  0  0  0  0  0  0  0  0
  -21.2400  -13.1570   22.3240 H   0  0  0  0  0  0  0  0  0  0  0  0
  -25.4200  -15.2800   20.2470 N   0  0  0  0  0  0  0  0  0  0  0  0
  -24.6480  -15.9190   20.4040 H   0  0  0  0  0  0  0  0  0  0  0  0
  -26.2390  -15.7370   19.8690 H   0  0  0  0  0  0  0  0  0  0  0  0
  -27.9080  -24.9070   20.8320 C   0  0  0  0  0  2  0  0  0  0  0  0
  -28.2900  -26.2720   20.2500 O   0  0  0  0  0  0  0  0  0  0  0  0
  -24.6400  -31.8960   23.2220 C   0  0  0  0  0  0  0  0  0  0  0  0
  -27.2520  -27.2550   20.1900 C   0  0  0  0  0  0  0  0  0  0  0  0
  -23.4510  -30.4990   21.5740 C   0  0  0  0  0  3  0  0  0  0  0  0
  -24.9140  -28.9520   20.1430 C   0  0  0  0  0  0  0  0  0  0  0  0
  -25.9990  -30.8000   21.4090 C   0  0  0  0  0  2  0  0  0  0  0  0
  -26.0870  -29.4150   20.7560 C   0  0  0  0  0  0  0  0  0  0  0  0
  -27.2630  -28.5820   20.7620 C   0  0  0  0  0  3  0  0  0  0  0  0
  -26.0640  -26.8900   19.5220 C   0  0  0  0  0  3  0  0  0  0  0  0
  -24.9130  -27.7020   19.5080 C   0  0  0  0  0  3  0  0  0  0  0  0
  -23.6770  -29.8330   20.1920 C   0  0  0  0  0  2  0  0  0  0  0  0
  -24.7160  -31.0830   22.1250 N   0  0  0  0  0  0  0  0  0  0  0  0
  -23.5530  -32.1690   23.7520 O   0  0  0  0  0  0  0  0  0  0  0  0
  -22.7810  -29.4780   22.5290 C   0  0  0  0  0  0  0  0  0  0  0  0
  -21.4520  -29.3060   22.4070 N   0  0  0  0  0  0  0  0  0  0  0  0
  -23.4590  -28.8450   23.3420 O   0  0  0  0  0  0  0  0  0  0  0  0
  -20.9630  -29.8700   21.7260 H   0  0  0  0  0  0  0  0  0  0  0  0
  -18.0730  -28.1120   22.9310 C   0  0  0  0  0  0  0  0  0  0  0  0
  -20.6350  -28.3630   23.1760 C   0  0  0  0  0  3  0  0  0  0  0  0
  -20.7250  -26.9360   22.5870 C   0  0  0  0  0  2  0  0  0  0  0  0
  -19.6130  -26.6280   21.5780 C   0  0  0  0  0  2  0  0  0  0  0  0
  -18.2390  -26.7710   22.2370 C   0  0  0  0  0  2  0  0  0  0  0  0
  -19.1970  -28.8670   23.3580 C   0  0  0  0  0  0  0  0  0  0  0  0
  -18.9870  -30.1220   23.9700 C   0  0  0  0  0  3  0  0  0  0  0  0
  -17.6850  -30.6250   24.1520 C   0  0  0  0  0  3  0  0  0  0  0  0
  -16.5750  -29.8680   23.7400 C   0  0  0  0  0  3  0  0  0  0  0  0
  -16.7690  -28.6120   23.1370 C   0  0  0  0  0  3  0  0  0  0  0  0
  -25.9150  -32.5350   23.8520 C   0  0  0  0  0  3  0  0  0  0  0  0
  -26.4260  -31.7670   25.1330 C   0  0  1  0  0  0  0  0  0  0  0  0
  -25.3270  -31.5290   26.1940 C   0  0  0  0  0  1  0  0  0  0  0  0
  -27.0150  -30.3900   24.7480 C   0  0  0  0  0  1  0  0  0  0  0  0
  -27.5720  -32.5640   25.8000 C   0  0  0  0  0  1  0  0  0  0  0  0
  -25.5980  -33.9320   24.1840 N   0  0  0  0  0  0  0  0  0  0  0  0
  -25.9210  -34.9880   23.4260 C   0  0  0  0  0  0  0  0  0  0  0  0
  -26.5890  -34.8890   22.3920 O   0  0  0  0  0  0  0  0  0  0  0  0
  -25.0050  -34.0820   24.9870 H   0  0  0  0  0  0  0  0  0  0  0  0
  -24.1850  -36.7750   23.0800 C   0  0  0  0  0  1  0  0  0  0  0  0
  -25.4310  -36.3750   23.8870 C   0  0  0  0  0  3  0  0  0  0  0  0
  -27.5640  -37.2680   24.7140 C   0  0  0  0  0  1  0  0  0  0  0  0
  -26.4590  -37.4320   23.7720 N   0  0  0  0  0  0  0  0  0  0  0  0
  -26.0510  -38.3500   23.9210 H   0  0  0  0  0  0  0  0  0  0  0  0
  2  1  1  0
  3  6  2  0
  3  4  1  0
  4 49  1  0
  4  1  2  0
  5  9  1  0
  5  2  2  0
  6  5  1  0
  7  8  1  0
  8  6  1  0
 10 19  1  0
 10  9  2  0
 11 19  1  0
 12 17  1  0
 13 14  1  0
 13 12  1  0
 15 14  1  0
 15 24  1  0
 15 16  1  0
 17 11  1  0
 17 16  1  0
 18 11  2  0
 19 20  1  0
 21 22  2  0
 22 41  1  0
 23 22  1  0
 23 26  1  0
 24 25  1  0
 24 21  1  0
 25 23  2  0
 26 27  1  0
 27 28  2  0
 29 32  1  0
 29 28  1  0
 30 29  2  0
 31 30  1  0
 31 26  2  0
 32 33  1  0
 33 34  1  0
 34 35  2  0
 36 35  1  0
 36 40  1  0
 37 36  2  0
 38 33  2  0
 38 37  1  0
 39 38  1  0
 41 42  1  0
 42 45  1  0
 42 44  1  0
 43 41  2  0
 46 47  1  0
 46 21  1  0
 48 46  1  0
 50 49  1  0
 51 62  2  0
 52 50  1  0
 52 57  1  0
 53 61  1  0
 53 63  1  0
 54 60  1  0
 54 56  1  0
 55 61  1  0
 56 57  2  0
 56 55  1  0
 58 52  2  0
 59 58  1  0
 59 54  2  0
 60 53  1  0
 61 51  1  0
 63 65  2  0
 64 63  1  0
 66 64  1  0
 67 76  2  0
 67 72  1  0
 68 64  1  0
 68 72  1  0
 69 68  1  0
 70 71  1  0
 70 69  1  0
 71 67  1  0
 72 73  2  0
 73 74  1  0
 75 74  2  0
 76 75  1  0
 77 51  1  0
 77 82  1  0
 77 78  1  0
 78 81  1  1
 78 79  1  0
 80 78  1  0
 82 85  1  0
 83 87  1  0
 83 82  1  0
 84 83  2  0
 87 86  1  0
 89 87  1  0
 89 90  1  0
 89 88  1  0
M  ISO  4  11 100  19 100  49 101  50 101
M  END
>  <TORSDO>  (72) 
F 20

>  <SCORE>  (72) 
-13.859

>  <name>  (72) 
71

>  <ligand_id>  (72) 
71

>  <original_smiles>  (72) 
[H]c1c([H])c([H])c2c(c1[H])C([H])([H])C([H])([H])C([H])([H])C2([H])N([H])C(=O)C1([H])N(C(=O)C([H])(N([H])C(=O)C([H])(N([H])C([H])([H])[H])C([H])([H])[H])C(C([H])([H])[H])(C([H])([H])[H])C([H])([H])[H])C([H])([H])c2c([H])c(OC([H])([H])c3c([H])c([H])c(C([H])([H])C([H])([H])N([H])C(=O)N4C([H])([H])C([H])([H])C([H])([H])C([H])(n5nc(-c6c([H])c([H])c(Oc7c([H])c([H])c(F)c([H])c7F)c([H])c6[H])c(C(=O)N([H])[H])c5N([H])[H])C4([H])[H])c(OC([H])([H])[H])c3[H])c([H])c([H])c2C1([H])[H]

>  <smiles>  (72) 
[H]c1c([H])c([H])c2c(c1[H])C([H])([H])C([H])([H])C([H])([H])C2([H])N([H])C(=O)C1([H])N(C(=O)C([H])(N([H])C(=O)C([H])(N([H])C([H])([H])[H])C([H])([H])[H])C(C([H])([H])[H])(C([H])([H])[H])C([H])([H])[H])C([H])([H])c2c([H])c(OC([H])([H])c3c([H])c([H])c(C([H])([H])C([H])([H])N([H])C(=O)N4C([H])([H])C([H])([H])C([H])([H])C([H])(n5nc(-c6c([H])c([H])c(Oc7c([H])c([H])c(F)c([H])c7F)c([H])c6[H])c(C(=O)N([H])[H])c5N([H])[H])C4([H])[H])c(OC([H])([H])[H])c3[H])c([H])c([H])c2C1([H])[H]

$$$$
72:0:0
     RDKit          3D

 95103  0  0  1  0  0  0  0  0999 V2000
  -27.6670  -22.8130   18.7590 C   0  0  0  0  0  2  0  0  0  0  0  0
  -27.8630  -20.2620   19.0170 C   0  0  0  0  0  2  0  0  0  0  0  0
  -26.9010  -21.4790   18.9160 C   0  0  0  0  0  3  0  0  0  0  0  0
  -28.5870  -23.1590   19.9490 C   0  0  0  0  0  3  0  0  0  0  0  0
  -29.1630  -21.7180   20.6540 C   0  0  0  0  0  3  0  0  0  0  0  0
  -25.8830  -21.3120   17.7760 C   0  0  0  0  0  1  0  0  0  0  0  0
  -28.5970  -20.2750   20.3030 N   0  0  2  0  0  4  0  0  0  0  0  0
  -27.8030  -20.2720   20.9250 H   0  0  0  0  0  0  0  0  0  0  0  0
  -28.0930  -24.5950   20.7100 C   0  0  0  0  0  2  0  0  0  0  0  0
  -28.2740  -26.0710   20.2470 O   0  0  0  0  0  0  0  0  0  0  0  0
  -24.5990  -31.7810   23.1410 C   0  0  0  0  0  0  0  0  0  0  0  0
  -27.2030  -27.0270   20.2270 C   0  0  0  0  0  0  0  0  0  0  0  0
  -23.4140  -30.3550   21.5160 C   0  0  0  0  0  3  0  0  0  0  0  0
  -24.8730  -28.7530   20.1370 C   0  0  0  0  0  0  0  0  0  0  0  0
  -25.9660  -30.6260   21.3620 C   0  0  0  0  0  2  0  0  0  0  0  0
  -26.0470  -29.2210   20.7410 C   0  0  0  0  0  0  0  0  0  0  0  0
  -27.2180  -28.3770   20.7610 C   0  0  0  0  0  3  0  0  0  0  0  0
  -26.0030  -26.6480   19.5930 C   0  0  0  0  0  3  0  0  0  0  0  0
  -24.8630  -27.4790   19.5460 C   0  0  0  0  0  3  0  0  0  0  0  0
  -23.6470  -29.6490   20.1530 C   0  0  0  0  0  2  0  0  0  0  0  0
  -24.6780  -30.9450   22.0610 N   0  0  0  0  0  0  0  0  0  0  0  0
  -23.5080  -32.0710   23.6570 O   0  0  0  0  0  0  0  0  0  0  0  0
  -22.7280  -29.3650   22.4910 C   0  0  0  0  0  0  0  0  0  0  0  0
  -21.3960  -29.2160   22.3790 N   0  0  0  0  0  0  0  0  0  0  0  0
  -23.3960  -28.7330   23.3130 O   0  0  0  0  0  0  0  0  0  0  0  0
  -20.9130  -29.7760   21.6890 H   0  0  0  0  0  0  0  0  0  0  0  0
  -17.9970  -28.1010   22.9470 C   0  0  0  0  0  0  0  0  0  0  0  0
  -20.5660  -28.2980   23.1630 C   0  0  0  0  0  3  0  0  0  0  0  0
  -20.6200  -26.8660   22.5820 C   0  0  0  0  0  2  0  0  0  0  0  0
  -19.4900  -26.5740   21.5890 C   0  0  0  0  0  2  0  0  0  0  0  0
  -18.1250  -26.7510   22.2610 C   0  0  0  0  0  2  0  0  0  0  0  0
  -19.1420  -28.8330   23.3560 C   0  0  0  0  0  0  0  0  0  0  0  0
  -18.9640  -30.0960   23.9620 C   0  0  0  0  0  3  0  0  0  0  0  0
  -17.6760  -30.6270   24.1590 C   0  0  0  0  0  3  0  0  0  0  0  0
  -16.5450  -29.8920   23.7620 C   0  0  0  0  0  3  0  0  0  0  0  0
  -16.7060  -28.6300   23.1630 C   0  0  0  0  0  3  0  0  0  0  0  0
  -25.8700  -32.4280   23.7700 C   0  0  0  0  0  3  0  0  0  0  0  0
  -25.5360  -33.8160   24.1280 N   0  0  0  0  0  0  0  0  0  0  0  0
  -25.8330  -34.8890   23.3840 C   0  0  0  0  0  0  0  0  0  0  0  0
  -26.4820  -34.8180   22.3380 O   0  0  0  0  0  0  0  0  0  0  0  0
  -24.9550  -33.9420   24.9440 H   0  0  0  0  0  0  0  0  0  0  0  0
  -24.0590  -36.6540   23.1110 C   0  0  0  0  0  1  0  0  0  0  0  0
  -25.3310  -36.2620   23.8800 C   0  0  0  0  0  3  0  0  0  0  0  0
  -27.4690  -37.1800   24.6650 C   0  0  0  0  0  1  0  0  0  0  0  0
  -26.3370  -37.3370   23.7540 N   0  0  0  0  0  0  0  0  0  0  0  0
  -25.9160  -38.2470   23.9250 H   0  0  0  0  0  0  0  0  0  0  0  0
  -26.4050  -31.6460   25.0340 C   0  0  1  0  0  0  0  0  0  0  0  0
  -25.3210  -31.3790   26.1040 C   0  0  0  0  0  1  0  0  0  0  0  0
  -27.0060  -30.2830   24.6230 C   0  0  0  0  0  1  0  0  0  0  0  0
  -27.5480  -32.4480   25.7000 C   0  0  0  0  0  1  0  0  0  0  0  0
  -29.3180  -21.8870   22.1820 C   0  0  0  0  0  2  0  0  0  0  0  0
  -30.7720  -22.1070   22.6410 C   0  0  0  0  0  2  0  0  0  0  0  0
  -31.6180  -20.8210   22.5830 C   0  0  0  0  0  2  0  0  0  0  0  0
  -32.8700  -21.0340   23.1970 O   0  0  0  0  0  0  0  0  0  0  0  0
  -33.3670  -20.2230   23.1210 H   0  0  0  0  0  0  0  0  0  0  0  0
  -29.2530  -18.8830   20.7830 C   0  0  0  0  0  2  0  0  0  0  0  0
  -29.3990  -17.4550   19.8780 C   0  0  0  0  0  2  0  0  0  0  0  0
  -30.3820  -14.8330   20.1120 C   0  0  0  0  0  0  0  0  0  0  0  0
  -30.2910  -12.4770   19.1540 C   0  0  0  0  0  2  0  0  0  0  0  0
  -29.3170  -12.4840   17.9510 C   0  0  0  0  0  2  0  0  0  0  0  0
  -27.8790  -12.2240   18.4360 C   0  0  0  0  0  2  0  0  0  0  0  0
  -27.5100  -13.1040   19.6600 C   0  0  0  0  0  3  0  0  0  0  0  0
  -28.6060  -13.0920   20.7460 C   0  0  0  0  0  2  0  0  0  0  0  0
  -29.8510  -13.5410   20.1080 N   0  0  0  0  0  0  0  0  0  0  0  0
  -31.5300  -14.9740   19.6770 O   0  0  0  0  0  0  0  0  0  0  0  0
  -29.5570  -15.9570   20.4180 N   0  0  0  0  0  0  0  0  0  0  0  0
  -28.7190  -15.6480   20.8920 H   0  0  0  0  0  0  0  0  0  0  0  0
  -25.1570  -13.6200   20.5140 C   0  0  0  0  0  0  0  0  0  0  0  0
  -24.1280  -12.8200   20.9160 C   0  0  0  0  0  0  0  0  0  0  0  0
  -24.6120  -11.4780   20.8290 C   0  0  0  0  0  0  0  0  0  0  0  0
  -26.2010  -12.7680   20.2020 N   0  0  0  0  0  0  0  0  0  0  0  0
  -25.8850  -11.4710   20.4530 N   0  0  0  0  0  0  0  0  0  0  0  0
  -23.9160  -10.2000   21.0170 C   0  0  0  0  0  0  0  0  0  0  0  0
  -24.3660   -9.2490   21.9570 C   0  0  0  0  0  3  0  0  0  0  0  0
  -23.6670   -8.0350   22.1400 C   0  0  0  0  0  3  0  0  0  0  0  0
  -22.5050   -7.7660   21.3820 C   0  0  0  0  0  0  0  0  0  0  0  0
  -22.0720   -8.7070   20.4320 C   0  0  0  0  0  3  0  0  0  0  0  0
  -22.7700   -9.9120   20.2470 C   0  0  0  0  0  3  0  0  0  0  0  0
  -21.7790   -6.6040   21.4700 O   0  0  0  0  0  0  0  0  0  0  0  0
  -21.7070   -5.8840   22.6380 C   0  0  0  0  0  0  0  0  0  0  0  0
  -21.2050   -6.4490   23.8300 C   0  0  0  0  0  3  0  0  0  0  0  0
  -21.0890   -5.6550   24.9900 C   0  0  0  0  0  3  0  0  0  0  0  0
  -21.4600   -4.2970   24.9530 C   0  0  0  0  0  0  0  0  0  0  0  0
  -21.9500   -3.7320   23.7640 C   0  0  0  0  0  3  0  0  0  0  0  0
  -22.0710   -4.5230   22.6080 C   0  0  0  0  0  0  0  0  0  0  0  0
  -22.5280   -3.9680   21.4610 F   0  0  0  0  0  0  0  0  0  0  0  0
  -21.3370   -3.5330   26.0620 F   0  0  0  0  0  0  0  0  0  0  0  0
  -22.7380  -13.2660   21.2660 C   0  0  0  0  0  0  0  0  0  0  0  0
  -22.0640  -12.5380   22.1480 N   0  0  0  0  0  0  0  0  0  0  0  0
  -22.2610  -14.2960   20.7910 O   0  0  0  0  0  0  0  0  0  0  0  0
  -22.4640  -11.7080   22.5590 H   0  0  0  0  0  0  0  0  0  0  0  0
  -21.1330  -12.8150   22.4200 H   0  0  0  0  0  0  0  0  0  0  0  0
  -25.2850  -14.9990   20.3640 N   0  0  0  0  0  0  0  0  0  0  0  0
  -24.4950  -15.6160   20.5080 H   0  0  0  0  0  0  0  0  0  0  0  0
  -26.0860  -15.4610   19.9560 H   0  0  0  0  0  0  0  0  0  0  0  0
  1  3  1  0
  1  4  1  0
  2  7  1  0
  3  6  1  0
  3  2  1  0
  4  5  1  0
  4  9  1  0
  5 51  1  0
  7  5  1  0
  7 56  1  0
  7  8  1  1
 10  9  1  0
 11 22  2  0
 12 10  1  0
 12 17  1  0
 13 21  1  0
 13 23  1  0
 14 20  1  0
 14 16  1  0
 15 21  1  0
 16 17  2  0
 16 15  1  0
 18 12  2  0
 19 18  1  0
 19 14  2  0
 20 13  1  0
 21 11  1  0
 23 25  2  0
 24 23  1  0
 26 24  1  0
 27 36  2  0
 27 32  1  0
 28 24  1  0
 28 32  1  0
 29 28  1  0
 30 31  1  0
 30 29  1  0
 31 27  1  0
 32 33  2  0
 33 34  1  0
 35 34  2  0
 36 35  1  0
 37 11  1  0
 37 38  1  0
 37 47  1  0
 38 41  1  0
 39 43  1  0
 39 38  1  0
 40 39  2  0
 43 42  1  0
 45 43  1  0
 45 46  1  0
 45 44  1  0
 47 50  1  1
 47 48  1  0
 49 47  1  0
 51 52  1  0
 53 52  1  0
 53 54  1  0
 55 54  1  0
 57 66  1  0
 57 56  1  0
 58 66  1  0
 59 64  1  0
 60 61  1  0
 60 59  1  0
 62 61  1  0
 62 71  1  0
 62 63  1  0
 64 58  1  0
 64 63  1  0
 65 58  2  0
 66 67  1  0
 68 69  2  0
 69 88  1  0
 70 69  1  0
 70 73  1  0
 71 72  1  0
 71 68  1  0
 72 70  2  0
 73 74  1  0
 74 75  2  0
 76 79  1  0
 76 75  1  0
 77 76  2  0
 78 77  1  0
 78 73  2  0
 79 80  1  0
 80 81  1  0
 81 82  2  0
 83 82  1  0
 83 87  1  0
 84 83  2  0
 85 80  2  0
 85 84  1  0
 86 85  1  0
 88 89  1  0
 89 92  1  0
 89 91  1  0
 90 88  2  0
 93 94  1  0
 93 68  1  0
 95 93  1  0
M  ISO  4   9 101  10 101  58 100  66 100
M  END
>  <TORSDO>  (73) 
F 23

>  <SCORE>  (73) 
-14.570

>  <name>  (73) 
72

>  <ligand_id>  (73) 
72

>  <original_smiles>  (73) 
[H]OC([H])([H])C([H])([H])C([H])([H])C1([H])C([H])(C([H])([H])Oc2c([H])c([H])c3c(c2[H])C([H])([H])N(C(=O)C([H])(N([H])C(=O)C([H])(N([H])C([H])([H])[H])C([H])([H])[H])C(C([H])([H])[H])(C([H])([H])[H])C([H])([H])[H])C([H])(C(=O)N([H])C2([H])c4c([H])c([H])c([H])c([H])c4C([H])([H])C([H])([H])C2([H])[H])C3([H])[H])C([H])([H])C([H])(C([H])([H])[H])C([H])([H])[N+]1([H])C([H])([H])C([H])([H])N([H])C(=O)N1C([H])([H])C([H])([H])C([H])([H])C([H])(n2nc(-c3c([H])c([H])c(Oc4c([H])c([H])c(F)c([H])c4F)c([H])c3[H])c(C(=O)N([H])[H])c2N([H])[H])C1([H])[H]

>  <smiles>  (73) 
[H]OC([H])([H])C([H])([H])C([H])([H])C1([H])C([H])(C([H])([H])Oc2c([H])c([H])c3c(c2[H])C([H])([H])N(C(=O)C([H])(N([H])C(=O)C([H])(N([H])C([H])([H])[H])C([H])([H])[H])C(C([H])([H])[H])(C([H])([H])[H])C([H])([H])[H])C([H])(C(=O)N([H])C2([H])c4c([H])c([H])c([H])c([H])c4C([H])([H])C([H])([H])C2([H])[H])C3([H])[H])C([H])([H])C([H])(C([H])([H])[H])C([H])([H])[N+]1([H])C([H])([H])C([H])([H])N([H])C(=O)N1C([H])([H])C([H])([H])C([H])([H])C([H])(n2nc(-c3c([H])c([H])c(Oc4c([H])c([H])c(F)c([H])c4F)c([H])c3[H])c(C(=O)N([H])[H])c2N([H])[H])C1([H])[H]

$$$$
73:0:0
     RDKit          3D

 91 99  0  0  1  0  0  0  0  0999 V2000
  -28.9340  -22.9700   19.1760 C   0  0  0  0  0  3  0  0  0  0  0  0
  -28.9000  -24.3920   19.1230 C   0  0  0  0  0  3  0  0  0  0  0  0
  -27.9240  -23.1250   21.3330 C   0  0  0  0  0  3  0  0  0  0  0  0
  -28.4340  -22.2800   20.3090 C   0  0  0  0  0  0  0  0  0  0  0  0
  -28.3510  -25.1420   20.1870 C   0  0  0  0  0  0  0  0  0  0  0  0
  -27.8840  -24.4930   21.2860 N   0  0  0  0  0  0  0  0  0  0  0  0
  -28.3710  -26.5540   20.1870 O   0  0  0  0  0  0  0  0  0  0  0  0
  -24.6510  -31.9130   23.2570 C   0  0  0  0  0  0  0  0  0  0  0  0
  -27.2220  -27.3510   20.2000 C   0  0  0  0  0  0  0  0  0  0  0  0
  -23.4310  -30.5280   21.6150 C   0  0  0  0  0  3  0  0  0  0  0  0
  -24.8640  -28.9600   20.1910 C   0  0  0  0  0  0  0  0  0  0  0  0
  -25.9690  -30.8280   21.4260 C   0  0  0  0  0  2  0  0  0  0  0  0
  -26.0330  -29.4470   20.7880 C   0  0  0  0  0  0  0  0  0  0  0  0
  -27.2130  -28.6520   20.7860 C   0  0  0  0  0  3  0  0  0  0  0  0
  -26.0350  -26.9060   19.5820 C   0  0  0  0  0  3  0  0  0  0  0  0
  -24.8650  -27.6920   19.5820 C   0  0  0  0  0  3  0  0  0  0  0  0
  -23.6360  -29.8460   20.2350 C   0  0  0  0  0  2  0  0  0  0  0  0
  -24.7020  -31.1070   22.1570 N   0  0  0  0  0  0  0  0  0  0  0  0
  -23.5720  -32.2000   23.7950 O   0  0  0  0  0  0  0  0  0  0  0  0
  -22.7600  -29.5180   22.5750 C   0  0  0  0  0  0  0  0  0  0  0  0
  -21.4330  -29.3540   22.4480 N   0  0  0  0  0  0  0  0  0  0  0  0
  -23.4330  -28.8840   23.3930 O   0  0  0  0  0  0  0  0  0  0  0  0
  -20.9500  -29.9160   21.7610 H   0  0  0  0  0  0  0  0  0  0  0  0
  -18.0440  -28.2010   22.9520 C   0  0  0  0  0  0  0  0  0  0  0  0
  -20.6050  -28.4250   23.2180 C   0  0  0  0  0  3  0  0  0  0  0  0
  -20.6870  -26.9940   22.6390 C   0  0  0  0  0  2  0  0  0  0  0  0
  -19.5790  -26.6900   21.6260 C   0  0  0  0  0  2  0  0  0  0  0  0
  -18.2010  -26.8510   22.2730 C   0  0  0  0  0  2  0  0  0  0  0  0
  -19.1740  -28.9460   23.3830 C   0  0  0  0  0  0  0  0  0  0  0  0
  -18.9720  -30.2100   23.9780 C   0  0  0  0  0  3  0  0  0  0  0  0
  -17.6740  -30.7290   24.1480 C   0  0  0  0  0  3  0  0  0  0  0  0
  -16.5590  -29.9800   23.7340 C   0  0  0  0  0  3  0  0  0  0  0  0
  -16.7450  -28.7180   23.1420 C   0  0  0  0  0  3  0  0  0  0  0  0
  -25.9420  -32.5310   23.8780 C   0  0  0  0  0  3  0  0  0  0  0  0
  -26.4570  -31.7470   25.1480 C   0  0  1  0  0  0  0  0  0  0  0  0
  -25.3660  -31.5120   26.2180 C   0  0  0  0  0  1  0  0  0  0  0  0
  -27.0270  -30.3670   24.7440 C   0  0  0  0  0  1  0  0  0  0  0  0
  -27.6160  -32.5280   25.8130 C   0  0  0  0  0  1  0  0  0  0  0  0
  -25.6470  -33.9300   24.2190 N   0  0  0  0  0  0  0  0  0  0  0  0
  -25.9600  -34.9830   23.4540 C   0  0  0  0  0  0  0  0  0  0  0  0
  -26.6000  -34.8800   22.4040 O   0  0  0  0  0  0  0  0  0  0  0  0
  -25.0780  -34.0850   25.0390 H   0  0  0  0  0  0  0  0  0  0  0  0
  -24.2170  -36.7730   23.1660 C   0  0  0  0  0  1  0  0  0  0  0  0
  -25.4900  -36.3720   23.9280 C   0  0  0  0  0  3  0  0  0  0  0  0
  -27.6530  -37.2620   24.6750 C   0  0  0  0  0  1  0  0  0  0  0  0
  -26.5160  -37.4260   23.7730 N   0  0  0  0  0  0  0  0  0  0  0  0
  -26.1140  -38.3460   23.9320 H   0  0  0  0  0  0  0  0  0  0  0  0
  -28.2320  -20.7120   20.3360 C   0  0  0  0  0  2  0  0  0  0  0  0
  -29.3830  -19.7400   20.5230 N   0  0  0  0  0  4  0  0  0  0  0  0
  -29.8420  -19.9510   21.3950 H   0  0  0  0  0  0  0  0  0  0  0  0
  -30.0510  -19.8910   19.7850 H   0  0  0  0  0  0  0  0  0  0  0  0
  -29.0090  -18.2610   20.5310 C   0  0  0  0  0  3  0  0  0  0  0  0
  -30.1820  -17.1890   20.6710 C   0  0  0  0  0  3  0  0  0  0  0  0
  -30.5610  -14.6380   20.4210 C   0  0  0  0  0  0  0  0  0  0  0  0
  -30.3290  -12.4030   19.3630 C   0  0  0  0  0  2  0  0  0  0  0  0
  -29.3830  -12.5260   18.1500 C   0  0  0  0  0  2  0  0  0  0  0  0
  -27.9120  -12.3720   18.5850 C   0  0  0  0  0  2  0  0  0  0  0  0
  -27.5590  -13.2420   19.8210 C   0  0  0  0  0  3  0  0  0  0  0  0
  -28.6200  -13.0980   20.9340 C   0  0  0  0  0  2  0  0  0  0  0  0
  -29.9250  -13.4280   20.3460 N   0  0  0  0  0  0  0  0  0  0  0  0
  -31.7290  -14.7730   20.0470 O   0  0  0  0  0  0  0  0  0  0  0  0
  -29.7910  -15.7310   20.7240 N   0  0  0  0  0  0  0  0  0  0  0  0
  -28.8390  -15.5270   20.9890 H   0  0  0  0  0  0  0  0  0  0  0  0
  -25.1740  -13.8480   20.5550 C   0  0  0  0  0  0  0  0  0  0  0  0
  -24.1050  -13.0790   20.9260 C   0  0  0  0  0  0  0  0  0  0  0  0
  -24.5610  -11.7250   20.8860 C   0  0  0  0  0  0  0  0  0  0  0  0
  -26.2120  -12.9650   20.3120 N   0  0  0  0  0  0  0  0  0  0  0  0
  -25.8490  -11.6820   20.5710 N   0  0  0  0  0  0  0  0  0  0  0  0
  -23.8290  -10.4650   21.0720 C   0  0  0  0  0  0  0  0  0  0  0  0
  -24.2630   -9.4890   21.9950 C   0  0  0  0  0  3  0  0  0  0  0  0
  -23.5310   -8.2940   22.1690 C   0  0  0  0  0  3  0  0  0  0  0  0
  -22.3530   -8.0670   21.4190 C   0  0  0  0  0  0  0  0  0  0  0  0
  -21.9400   -9.0320   20.4830 C   0  0  0  0  0  3  0  0  0  0  0  0
  -22.6720  -10.2180   20.3070 C   0  0  0  0  0  3  0  0  0  0  0  0
  -21.5930   -6.9260   21.5020 O   0  0  0  0  0  0  0  0  0  0  0  0
  -21.5440   -6.1770   22.6500 C   0  0  0  0  0  0  0  0  0  0  0  0
  -21.1030   -6.7210   23.8760 C   0  0  0  0  0  3  0  0  0  0  0  0
  -21.0030   -5.8970   25.0160 C   0  0  0  0  0  3  0  0  0  0  0  0
  -21.3310   -4.5320   24.9300 C   0  0  0  0  0  0  0  0  0  0  0  0
  -21.7640   -3.9870   23.7080 C   0  0  0  0  0  3  0  0  0  0  0  0
  -21.8670   -4.8060   22.5710 C   0  0  0  0  0  0  0  0  0  0  0  0
  -22.2650   -4.2720   21.3910 F   0  0  0  0  0  0  0  0  0  0  0  0
  -21.2270   -3.7380   26.0220 F   0  0  0  0  0  0  0  0  0  0  0  0
  -22.7110  -13.5610   21.2050 C   0  0  0  0  0  0  0  0  0  0  0  0
  -21.9860  -12.8690   22.0770 N   0  0  0  0  0  0  0  0  0  0  0  0
  -22.2740  -14.5870   20.6860 O   0  0  0  0  0  0  0  0  0  0  0  0
  -22.3540  -12.0380   22.5180 H   0  0  0  0  0  0  0  0  0  0  0  0
  -21.0510  -13.1730   22.3080 H   0  0  0  0  0  0  0  0  0  0  0  0
  -25.3430  -15.2190   20.3800 N   0  0  0  0  0  0  0  0  0  0  0  0
  -24.5710  -15.8690   20.4800 H   0  0  0  0  0  0  0  0  0  0  0  0
  -26.1720  -15.6460   19.9890 H   0  0  0  0  0  0  0  0  0  0  0  0
  1  4  1  0
  2  1  2  0
  2  5  1  0
  4 48  1  0
  4  3  2  0
  5  6  2  0
  6  3  1  0
  7  5  1  0
  7  9  1  0
  8 19  2  0
  9 14  1  0
 10 18  1  0
 10 20  1  0
 11 17  1  0
 11 13  1  0
 12 18  1  0
 13 12  1  0
 14 13  2  0
 15  9  2  0
 16 15  1  0
 16 11  2  0
 17 10  1  0
 18  8  1  0
 20 22  2  0
 21 20  1  0
 23 21  1  0
 24 33  2  0
 24 29  1  0
 25 21  1  0
 25 29  1  0
 26 25  1  0
 27 28  1  0
 27 26  1  0
 28 24  1  0
 29 30  2  0
 30 31  1  0
 32 31  2  0
 33 32  1  0
 34  8  1  0
 34 39  1  0
 34 35  1  0
 35 38  1  1
 35 36  1  0
 37 35  1  0
 39 42  1  0
 40 44  1  0
 40 39  1  0
 41 40  2  0
 44 43  1  0
 46 44  1  0
 46 47  1  0
 46 45  1  0
 48 49  1  0
 49 52  1  0
 49 50  1  0
 51 49  1  0
 52 53  2  0
 53 62  1  0
 54 62  1  0
 55 60  1  0
 56 57  1  0
 56 55  1  0
 58 57  1  0
 58 67  1  0
 58 59  1  0
 60 54  1  0
 60 59  1  0
 61 54  2  0
 62 63  1  0
 64 65  2  0
 65 84  1  0
 66 65  1  0
 66 69  1  0
 67 64  1  0
 67 68  1  0
 68 66  2  0
 69 70  1  0
 70 71  2  0
 72 75  1  0
 72 71  1  0
 73 72  2  0
 74 73  1  0
 74 69  2  0
 75 76  1  0
 76 77  1  0
 77 78  2  0
 79 78  1  0
 79 83  1  0
 80 79  2  0
 81 76  2  0
 81 80  1  0
 82 81  1  0
 84 85  1  0
 85 88  1  0
 85 87  1  0
 86 84  2  0
 89 90  1  0
 89 64  1  0
 91 89  1  0
M  ISO  4   5 101   7 101  54 100  62 100
M  END
>  <TORSDO>  (74) 
F 20

>  <SCORE>  (74) 
-13.786

>  <name>  (74) 
73

>  <ligand_id>  (74) 
73

>  <original_smiles>  (74) 
[H]c1nc(Oc2c([H])c([H])c3c(c2[H])C([H])([H])N(C(=O)C([H])(N([H])C(=O)C([H])(N([H])C([H])([H])[H])C([H])([H])[H])C(C([H])([H])[H])(C([H])([H])[H])C([H])([H])[H])C([H])(C(=O)N([H])C2([H])c4c([H])c([H])c([H])c([H])c4C([H])([H])C([H])([H])C2([H])[H])C3([H])[H])c([H])c([H])c1C([H])([H])[N+]([H])([H])C([H])([H])C([H])([H])N([H])C(=O)N1C([H])([H])C([H])([H])C([H])([H])C([H])(n2nc(-c3c([H])c([H])c(Oc4c([H])c([H])c(F)c([H])c4F)c([H])c3[H])c(C(=O)N([H])[H])c2N([H])[H])C1([H])[H]

>  <smiles>  (74) 
[H]c1nc(Oc2c([H])c([H])c3c(c2[H])C([H])([H])N(C(=O)C([H])(N([H])C(=O)C([H])(N([H])C([H])([H])[H])C([H])([H])[H])C(C([H])([H])[H])(C([H])([H])[H])C([H])([H])[H])C([H])(C(=O)N([H])C2([H])c4c([H])c([H])c([H])c([H])c4C([H])([H])C([H])([H])C2([H])[H])C3([H])[H])c([H])c([H])c1C([H])([H])[N+]([H])([H])C([H])([H])C([H])([H])N([H])C(=O)N1C([H])([H])C([H])([H])C([H])([H])C([H])(n2nc(-c3c([H])c([H])c(Oc4c([H])c([H])c(F)c([H])c4F)c([H])c3[H])c(C(=O)N([H])[H])c2N([H])[H])C1([H])[H]

$$$$
74:0:0
     RDKit          3D

 97105  0  0  1  0  0  0  0  0999 V2000
  -26.7790  -20.4590   19.3880 C   0  0  0  0  0  1  0  0  0  0  0  0
  -28.1420  -20.9050   18.8270 C   0  0  0  0  0  3  0  0  0  0  0  0
  -29.8270  -18.9850   18.3810 C   0  0  0  0  0  3  0  0  0  0  0  0
  -29.2660  -19.9660   19.2410 C   0  0  0  0  0  0  0  0  0  0  0  0
  -30.8260  -18.3280   19.0330 C   0  0  0  0  0  0  0  0  0  0  0  0
  -29.9420  -19.8730   20.4330 C   0  0  0  0  0  0  0  0  0  0  0  0
  -29.7310  -20.6660   21.6900 C   0  0  0  0  0  1  0  0  0  0  0  0
  -30.9190  -18.8720   20.3130 N   0  0  0  0  0  0  0  0  0  0  0  0
  -31.3330  -18.0310   22.6570 C   0  0  0  0  0  1  0  0  0  0  0  0
  -33.0400  -19.5320   21.4390 C   0  0  0  0  0  1  0  0  0  0  0  0
  -31.9290  -18.4750   21.3090 C   0  0  0  0  0  3  0  0  0  0  0  0
  -31.7060  -17.2280   18.5060 C   0  0  0  0  0  2  0  0  0  0  0  0
  -31.8970  -14.7450   18.7320 C   0  0  0  0  0  0  0  0  0  0  0  0
  -31.6660  -12.2910   18.8160 C   0  0  0  0  0  2  0  0  0  0  0  0
  -30.6390  -11.8090   17.7700 C   0  0  0  0  0  2  0  0  0  0  0  0
  -29.2090  -11.8630   18.3460 C   0  0  0  0  0  2  0  0  0  0  0  0
  -28.8850  -13.2250   19.0140 C   0  0  0  0  0  3  0  0  0  0  0  0
  -30.0110  -13.6330   19.9890 C   0  0  0  0  0  2  0  0  0  0  0  0
  -31.2810  -13.6450   19.2400 N   0  0  0  0  0  0  0  0  0  0  0  0
  -32.9260  -14.6880   18.0540 O   0  0  0  0  0  0  0  0  0  0  0  0
  -31.2760  -15.9100   18.9690 N   0  0  0  0  0  0  0  0  0  0  0  0
  -30.4110  -15.8670   19.4800 H   0  0  0  0  0  0  0  0  0  0  0  0
  -26.7890  -14.2510   20.0990 C   0  0  0  0  0  0  0  0  0  0  0  0
  -25.6410  -13.6830   20.5870 C   0  0  0  0  0  0  0  0  0  0  0  0
  -25.7960  -12.2730   20.4220 C   0  0  0  0  0  0  0  0  0  0  0  0
  -27.5830  -13.1980   19.6750 N   0  0  0  0  0  0  0  0  0  0  0  0
  -26.9950  -11.9980   19.9250 N   0  0  0  0  0  0  0  0  0  0  0  0
  -24.8550  -11.1720   20.6570 C   0  0  0  0  0  0  0  0  0  0  0  0
  -25.1670  -10.1080   21.5320 C   0  0  0  0  0  3  0  0  0  0  0  0
  -24.2370   -9.0690   21.7560 C   0  0  0  0  0  3  0  0  0  0  0  0
  -22.9800   -9.0910   21.1070 C   0  0  0  0  0  0  0  0  0  0  0  0
  -22.6860  -10.1400   20.2190 C   0  0  0  0  0  3  0  0  0  0  0  0
  -23.6130  -11.1700   19.9940 C   0  0  0  0  0  3  0  0  0  0  0  0
  -22.0250   -8.1130   21.2420 O   0  0  0  0  0  0  0  0  0  0  0  0
  -21.8820   -7.4040   22.4090 C   0  0  0  0  0  0  0  0  0  0  0  0
  -21.6030   -8.0390   23.6390 C   0  0  0  0  0  3  0  0  0  0  0  0
  -21.3950   -7.2660   24.7980 C   0  0  0  0  0  3  0  0  0  0  0  0
  -21.4590   -5.8620   24.7300 C   0  0  0  0  0  0  0  0  0  0  0  0
  -21.7320   -5.2290   23.5060 C   0  0  0  0  0  3  0  0  0  0  0  0
  -21.9400   -5.9980   22.3480 C   0  0  0  0  0  0  0  0  0  0  0  0
  -22.1820   -5.3810   21.1650 F   0  0  0  0  0  0  0  0  0  0  0  0
  -21.2500   -5.1190   25.8430 F   0  0  0  0  0  0  0  0  0  0  0  0
  -24.4260  -14.4080   21.0870 C   0  0  0  0  0  0  0  0  0  0  0  0
  -23.7290  -13.8350   22.0600 N   0  0  0  0  0  0  0  0  0  0  0  0
  -24.1160  -15.5170   20.6500 O   0  0  0  0  0  0  0  0  0  0  0  0
  -24.0010  -12.9370   22.4340 H   0  0  0  0  0  0  0  0  0  0  0  0
  -22.9160  -14.2990   22.4390 H   0  0  0  0  0  0  0  0  0  0  0  0
  -27.2140  -15.5690   19.9660 N   0  0  0  0  0  0  0  0  0  0  0  0
  -26.6330  -16.3540   20.2390 H   0  0  0  0  0  0  0  0  0  0  0  0
  -28.1080  -15.8520   19.5820 H   0  0  0  0  0  0  0  0  0  0  0  0
  -28.4650  -22.3770   19.1700 C   0  0  0  0  0  2  0  0  0  0  0  0
  -27.6020  -23.3230   18.4310 N   0  0  0  0  0  4  0  0  0  0  0  0
  -27.8990  -23.3170   17.4670 H   0  0  0  0  0  0  0  0  0  0  0  0
  -26.6500  -22.9930   18.4620 H   0  0  0  0  0  0  0  0  0  0  0  0
  -27.6580  -24.7120   18.9410 C   0  0  0  0  0  2  0  0  0  0  0  0
  -27.4850  -25.7450   17.8150 C   0  0  0  0  0  2  0  0  0  0  0  0
  -27.6010  -27.0630   18.3430 O   0  0  0  0  0  0  0  0  0  0  0  0
  -24.7390  -31.4970   23.0860 C   0  0  0  0  0  0  0  0  0  0  0  0
  -26.4650  -27.7520   18.7120 C   0  0  0  0  0  0  0  0  0  0  0  0
  -23.1670  -30.5620   21.4210 C   0  0  0  0  0  3  0  0  0  0  0  0
  -24.2340  -29.3070   19.4800 C   0  0  0  0  0  0  0  0  0  0  0  0
  -25.6500  -30.8300   20.8660 C   0  0  0  0  0  2  0  0  0  0  0  0
  -25.5110  -29.6340   19.9530 C   0  0  0  0  0  0  0  0  0  0  0  0
  -26.6240  -28.8590   19.5720 C   0  0  0  0  0  3  0  0  0  0  0  0
  -25.1630  -27.4230   18.2580 C   0  0  0  0  0  3  0  0  0  0  0  0
  -24.0530  -28.1980   18.6390 C   0  0  0  0  0  3  0  0  0  0  0  0
  -23.0940  -30.1990   19.9160 C   0  0  0  0  0  2  0  0  0  0  0  0
  -24.5470  -30.9630   21.8470 N   0  0  0  0  0  0  0  0  0  0  0  0
  -23.7860  -31.7000   23.8510 O   0  0  0  0  0  0  0  0  0  0  0  0
  -22.5910  -29.3850   22.2410 C   0  0  0  0  0  0  0  0  0  0  0  0
  -21.2570  -29.2320   22.2100 N   0  0  0  0  0  0  0  0  0  0  0  0
  -23.3350  -28.6230   22.8630 O   0  0  0  0  0  0  0  0  0  0  0  0
  -20.7150  -29.9040   21.6830 H   0  0  0  0  0  0  0  0  0  0  0  0
  -17.9410  -27.8690   22.6410 C   0  0  0  0  0  0  0  0  0  0  0  0
  -20.4960  -28.1760   22.8760 C   0  0  0  0  0  3  0  0  0  0  0  0
  -20.6240  -26.8350   22.1160 C   0  0  0  0  0  2  0  0  0  0  0  0
  -19.5010  -26.6090   21.0990 C   0  0  0  0  0  2  0  0  0  0  0  0
  -18.1360  -26.6240   21.7940 C   0  0  0  0  0  2  0  0  0  0  0  0
  -19.0480  -28.6080   23.1360 C   0  0  0  0  0  0  0  0  0  0  0  0
  -18.8120  -29.7770   23.8900 C   0  0  0  0  0  3  0  0  0  0  0  0
  -17.4980  -30.2090   24.1550 C   0  0  0  0  0  3  0  0  0  0  0  0
  -16.4040  -29.4660   23.6760 C   0  0  0  0  0  3  0  0  0  0  0  0
  -16.6270  -28.2980   22.9250 C   0  0  0  0  0  3  0  0  0  0  0  0
  -26.1590  -31.9060   23.5900 C   0  0  0  0  0  3  0  0  0  0  0  0
  -26.0280  -33.1900   24.2900 N   0  0  0  0  0  0  0  0  0  0  0  0
  -26.3710  -34.3760   23.7720 C   0  0  0  0  0  0  0  0  0  0  0  0
  -26.9060  -34.4940   22.6670 O   0  0  0  0  0  0  0  0  0  0  0  0
  -25.5470  -33.1740   25.1780 H   0  0  0  0  0  0  0  0  0  0  0  0
  -24.8000  -36.3140   24.0880 C   0  0  0  0  0  1  0  0  0  0  0  0
  -26.0710  -35.6300   24.6160 C   0  0  0  0  0  3  0  0  0  0  0  0
  -28.3550  -36.1200   25.3700 C   0  0  0  0  0  1  0  0  0  0  0  0
  -27.1860  -36.6010   24.6400 N   0  0  0  0  0  0  0  0  0  0  0  0
  -26.8900  -37.4780   25.0600 H   0  0  0  0  0  0  0  0  0  0  0  0
  -26.8220  -30.8220   24.5270 C   0  0  1  0  0  0  0  0  0  0  0  0
  -25.9150  -30.3730   25.6980 C   0  0  0  0  0  1  0  0  0  0  0  0
  -27.2030  -29.5610   23.7140 C   0  0  0  0  0  1  0  0  0  0  0  0
  -28.1360  -31.3780   25.1240 C   0  0  0  0  0  1  0  0  0  0  0  0
  2 51  1  0
  2  4  1  0
  2  1  1  0
  3  5  2  0
  3  4  1  0
  4  6  2  0
  5  8  1  0
  6  7  1  0
  8  6  1  0
  8 11  1  0
 11 10  1  0
 11  9  1  0
 12 21  1  0
 12  5  1  0
 13 21  1  0
 13 19  1  0
 14 19  1  0
 15 16  1  0
 15 14  1  0
 17 16  1  0
 17 26  1  0
 17 18  1  0
 19 18  1  0
 20 13  2  0
 21 22  1  0
 23 24  2  0
 24 43  1  0
 25 24  1  0
 25 28  1  0
 26 27  1  0
 26 23  1  0
 27 25  2  0
 28 29  1  0
 29 30  2  0
 31 34  1  0
 31 30  1  0
 32 31  2  0
 33 32  1  0
 33 28  2  0
 34 35  1  0
 35 36  1  0
 36 37  2  0
 38 37  1  0
 38 42  1  0
 39 38  2  0
 40 35  2  0
 40 39  1  0
 41 40  1  0
 43 44  1  0
 44 46  1  0
 44 47  1  0
 45 43  2  0
 48 23  1  0
 48 49  1  0
 50 48  1  0
 52 54  1  0
 52 55  1  0
 52 51  1  0
 53 52  1  0
 56 57  1  0
 56 55  1  0
 57 59  1  0
 58 69  2  0
 59 64  1  0
 60 68  1  0
 60 70  1  0
 61 67  1  0
 61 63  1  0
 62 68  1  0
 63 62  1  0
 64 63  2  0
 65 66  1  0
 65 59  2  0
 66 61  2  0
 67 60  1  0
 68 58  1  0
 70 72  2  0
 71 70  1  0
 73 71  1  0
 74 83  2  0
 74 79  1  0
 75 71  1  0
 75 79  1  0
 76 75  1  0
 77 78  1  0
 77 76  1  0
 78 74  1  0
 79 80  2  0
 80 81  1  0
 82 81  2  0
 83 82  1  0
 84 58  1  0
 84 85  1  0
 84 94  1  0
 85 88  1  0
 86 85  1  0
 86 90  1  0
 87 86  2  0
 90 89  1  0
 90 92  1  0
 92 93  1  0
 92 91  1  0
 94 97  1  1
 94 95  1  0
 96 94  1  0
M  ISO  4  13 100  21 100  56 101  57 101
M  END
>  <TORSDO>  (75) 
F 23

>  <SCORE>  (75) 
-9.493

>  <name>  (75) 
74

>  <ligand_id>  (75) 
74

>  <original_smiles>  (75) 
[H]c1c([H])c([H])c2c(c1[H])C([H])([H])C([H])([H])C([H])([H])C2([H])N([H])C(=O)C1([H])N(C(=O)C([H])(N([H])C(=O)C([H])(N([H])C([H])([H])[H])C([H])([H])[H])C(C([H])([H])[H])(C([H])([H])[H])C([H])([H])[H])C([H])([H])c2c([H])c(OC([H])([H])C([H])([H])[N+]([H])([H])C([H])([H])C([H])(c3c([H])c(C([H])([H])N([H])C(=O)N4C([H])([H])C([H])([H])C([H])([H])C([H])(n5nc(-c6c([H])c([H])c(Oc7c([H])c([H])c(F)c([H])c7F)c([H])c6[H])c(C(=O)N([H])[H])c5N([H])[H])C4([H])[H])n(C([H])(C([H])([H])[H])C([H])([H])[H])c3C([H])([H])[H])C([H])([H])[H])c([H])c([H])c2C1([H])[H]

>  <smiles>  (75) 
[H]c1c([H])c([H])c2c(c1[H])C([H])([H])C([H])([H])C([H])([H])C2([H])N([H])C(=O)C1([H])N(C(=O)C([H])(N([H])C(=O)C([H])(N([H])C([H])([H])[H])C([H])([H])[H])C(C([H])([H])[H])(C([H])([H])[H])C([H])([H])[H])C([H])([H])c2c([H])c(OC([H])([H])C([H])([H])[N+]([H])([H])C([H])([H])C([H])(c3c([H])c(C([H])([H])N([H])C(=O)N4C([H])([H])C([H])([H])C([H])([H])C([H])(n5nc(-c6c([H])c([H])c(Oc7c([H])c([H])c(F)c([H])c7F)c([H])c6[H])c(C(=O)N([H])[H])c5N([H])[H])C4([H])[H])n(C([H])(C([H])([H])[H])C([H])([H])[H])c3C([H])([H])[H])C([H])([H])[H])c([H])c([H])c2C1([H])[H]

$$$$
75:0:0
     RDKit          3D

 96105  0  0  1  0  0  0  0  0999 V2000
  -29.3480  -20.7520   18.4560 C   0  0  0  0  0  2  0  0  0  0  0  0
  -31.1820  -20.7660   20.1730 C   0  0  0  0  0  2  0  0  0  0  0  0
  -29.6600  -22.2390   18.1560 C   0  0  0  0  0  2  0  0  0  0  0  0
  -31.4440  -22.2500   19.8220 C   0  0  0  0  0  2  0  0  0  0  0  0
  -30.5720  -19.9730   18.9970 C   0  0  0  0  0  3  0  0  0  0  0  0
  -30.2070  -22.9370   19.3530 N   0  0  1  0  0  4  0  0  0  0  0  0
  -29.5310  -22.8260   20.0940 H   0  0  0  0  0  0  0  0  0  0  0  0
  -28.9070  -18.1480   19.5440 C   0  0  0  0  0  3  0  0  0  0  0  0
  -31.0710  -17.5490   19.6960 C   0  0  0  0  0  3  0  0  0  0  0  0
  -28.9090  -16.8290   19.9070 C   0  0  0  0  0  0  0  0  0  0  0  0
  -30.2850  -16.4650   20.0050 C   0  0  0  0  0  0  0  0  0  0  0  0
  -30.2090  -18.6040   19.3980 N   0  0  0  0  0  0  0  0  0  0  0  0
  -31.2690  -14.1820   19.6450 C   0  0  0  0  0  0  0  0  0  0  0  0
  -31.1250  -11.7920   19.0040 C   0  0  0  0  0  2  0  0  0  0  0  0
  -30.0800  -11.6320   17.8790 C   0  0  0  0  0  2  0  0  0  0  0  0
  -28.6560  -11.4900   18.4530 C   0  0  0  0  0  2  0  0  0  0  0  0
  -28.3320  -12.5700   19.5180 C   0  0  0  0  0  3  0  0  0  0  0  0
  -29.4750  -12.6580   20.5550 C   0  0  0  0  0  2  0  0  0  0  0  0
  -30.7350  -12.9420   19.8340 N   0  0  0  0  0  0  0  0  0  0  0  0
  -32.2370  -14.4000   18.9070 O   0  0  0  0  0  0  0  0  0  0  0  0
  -30.6680  -15.1410   20.3690 N   0  0  0  0  0  0  0  0  0  0  0  0
  -30.1030  -14.7460   21.1050 H   0  0  0  0  0  0  0  0  0  0  0  0
  -26.0410  -13.2270   20.4950 C   0  0  0  0  0  0  0  0  0  0  0  0
  -25.0130  -12.4770   21.0010 C   0  0  0  0  0  0  0  0  0  0  0  0
  -25.4480  -11.1170   20.9320 C   0  0  0  0  0  0  0  0  0  0  0  0
  -27.0390  -12.3250   20.1550 N   0  0  0  0  0  0  0  0  0  0  0  0
  -26.6900  -11.0520   20.4690 N   0  0  0  0  0  0  0  0  0  0  0  0
  -24.7320   -9.8680   21.2270 C   0  0  0  0  0  0  0  0  0  0  0  0
  -24.8330   -9.2400   22.4870 C   0  0  0  0  0  3  0  0  0  0  0  0
  -24.1210   -8.0490   22.7520 C   0  0  0  0  0  3  0  0  0  0  0  0
  -23.2980   -7.4780   21.7540 C   0  0  0  0  0  0  0  0  0  0  0  0
  -23.2160   -8.0970   20.4930 C   0  0  0  0  0  3  0  0  0  0  0  0
  -23.9280   -9.2790   20.2300 C   0  0  0  0  0  3  0  0  0  0  0  0
  -22.5910   -6.3110   21.9130 O   0  0  0  0  0  0  0  0  0  0  0  0
  -21.6630   -6.1610   22.9120 C   0  0  0  0  0  0  0  0  0  0  0  0
  -20.5790   -7.0540   23.0600 C   0  0  0  0  0  3  0  0  0  0  0  0
  -19.6090   -6.8250   24.0560 C   0  0  0  0  0  3  0  0  0  0  0  0
  -19.7150   -5.7020   24.8980 C   0  0  0  0  0  0  0  0  0  0  0  0
  -20.7910   -4.8090   24.7500 C   0  0  0  0  0  3  0  0  0  0  0  0
  -21.7610   -5.0370   23.7570 C   0  0  0  0  0  0  0  0  0  0  0  0
  -22.7850   -4.1620   23.6050 F   0  0  0  0  0  0  0  0  0  0  0  0
  -18.7780   -5.4760   25.8490 F   0  0  0  0  0  0  0  0  0  0  0  0
  -23.6680  -12.9810   21.4380 C   0  0  0  0  0  0  0  0  0  0  0  0
  -23.0510  -12.3210   22.4130 N   0  0  0  0  0  0  0  0  0  0  0  0
  -23.1740  -13.9960   20.9490 O   0  0  0  0  0  0  0  0  0  0  0  0
  -23.4640  -11.5000   22.8300 H   0  0  0  0  0  0  0  0  0  0  0  0
  -22.1550  -12.6430   22.7480 H   0  0  0  0  0  0  0  0  0  0  0  0
  -26.2050  -14.5930   20.2820 N   0  0  0  0  0  0  0  0  0  0  0  0
  -25.4780  -15.2660   20.4930 H   0  0  0  0  0  0  0  0  0  0  0  0
  -27.0380  -15.0150   19.8930 H   0  0  0  0  0  0  0  0  0  0  0  0
  -26.7430  -15.9180   18.9450 C   0  0  0  0  0  1  0  0  0  0  0  0
  -26.9670  -16.3610   21.4290 C   0  0  0  0  0  1  0  0  0  0  0  0
  -27.7000  -15.9440   20.1470 C   0  0  0  0  0  3  0  0  0  0  0  0
  -30.3900  -24.4190   19.1940 C   0  0  0  0  0  2  0  0  0  0  0  0
  -29.1490  -25.1680   18.6400 C   0  0  0  0  0  2  0  0  0  0  0  0
  -29.1160  -26.5410   19.0750 O   0  0  0  0  0  0  0  0  0  0  0  0
  -25.0020  -30.9710   22.8630 C   0  0  0  0  0  0  0  0  0  0  0  0
  -27.8830  -27.1660   19.1760 C   0  0  0  0  0  0  0  0  0  0  0  0
  -23.8610  -29.7290   21.0550 C   0  0  0  0  0  3  0  0  0  0  0  0
  -25.3880  -28.4970   19.4230 C   0  0  0  0  0  0  0  0  0  0  0  0
  -26.3570  -30.2750   20.8880 C   0  0  0  0  0  2  0  0  0  0  0  0
  -26.5200  -29.0120   20.0650 C   0  0  0  0  0  0  0  0  0  0  0  0
  -27.7680  -28.3540   19.9380 C   0  0  0  0  0  3  0  0  0  0  0  0
  -26.7230  -26.6660   18.5350 C   0  0  0  0  0  3  0  0  0  0  0  0
  -25.4840  -27.3230   18.6590 C   0  0  0  0  0  3  0  0  0  0  0  0
  -24.0920  -29.2560   19.5950 C   0  0  0  0  0  2  0  0  0  0  0  0
  -25.0920  -30.3330   21.6630 N   0  0  0  0  0  0  0  0  0  0  0  0
  -23.9150  -31.0950   23.4440 O   0  0  0  0  0  0  0  0  0  0  0  0
  -23.2930  -28.5450   21.8720 C   0  0  0  0  0  0  0  0  0  0  0  0
  -22.0090  -28.2220   21.6450 N   0  0  0  0  0  0  0  0  0  0  0  0
  -24.0060  -27.9250   22.6630 O   0  0  0  0  0  0  0  0  0  0  0  0
  -21.4870  -28.7880   20.9890 H   0  0  0  0  0  0  0  0  0  0  0  0
  -18.7680  -26.6420   21.8670 C   0  0  0  0  0  0  0  0  0  0  0  0
  -21.2760  -27.1210   22.2690 C   0  0  0  0  0  3  0  0  0  0  0  0
  -21.5440  -25.7870   21.5350 C   0  0  0  0  0  2  0  0  0  0  0  0
  -20.5100  -25.4780   20.4480 C   0  0  0  0  0  2  0  0  0  0  0  0
  -19.1040  -25.4060   21.0480 C   0  0  0  0  0  2  0  0  0  0  0  0
  -19.7890  -27.4560   22.4270 C   0  0  0  0  0  0  0  0  0  0  0  0
  -19.4230  -28.6120   23.1500 C   0  0  0  0  0  3  0  0  0  0  0  0
  -18.0690  -28.9580   23.3180 C   0  0  0  0  0  3  0  0  0  0  0  0
  -17.0640  -28.1390   22.7770 C   0  0  0  0  0  3  0  0  0  0  0  0
  -17.4130  -26.9820   22.0600 C   0  0  0  0  0  3  0  0  0  0  0  0
  -26.2550  -31.5960   23.5530 C   0  0  0  0  0  3  0  0  0  0  0  0
  -26.8200  -30.7150   24.7330 C   0  0  1  0  0  0  0  0  0  0  0  0
  -25.7370  -30.2590   25.7390 C   0  0  0  0  0  1  0  0  0  0  0  0
  -27.5160  -29.4490   24.1820 C   0  0  0  0  0  1  0  0  0  0  0  0
  -27.8940  -31.5080   25.5130 C   0  0  0  0  0  1  0  0  0  0  0  0
  -25.8750  -32.9310   24.0350 N   0  0  0  0  0  0  0  0  0  0  0  0
  -26.0480  -34.0660   23.3450 C   0  0  0  0  0  0  0  0  0  0  0  0
  -26.6160  -34.1040   22.2500 O   0  0  0  0  0  0  0  0  0  0  0  0
  -25.3550  -32.9680   24.8980 H   0  0  0  0  0  0  0  0  0  0  0  0
  -24.1340  -35.6980   23.3530 C   0  0  0  0  0  1  0  0  0  0  0  0
  -25.5020  -35.3650   23.9680 C   0  0  0  0  0  3  0  0  0  0  0  0
  -27.6330  -36.4070   24.6050 C   0  0  0  0  0  1  0  0  0  0  0  0
  -26.4120  -36.5210   23.8100 N   0  0  0  0  0  0  0  0  0  0  0  0
  -25.9450  -37.3830   24.0730 H   0  0  0  0  0  0  0  0  0  0  0  0
  3  1  1  0
  3  6  1  0
  4  2  1  0
  5  1  1  0
  5 12  1  0
  5  2  1  0
  6  4  1  0
  6  7  1  1
  8 10  2  0
  9 11  2  0
 10 11  1  0
 10 53  1  0
 11 21  1  0
 12  8  1  0
 12  9  1  0
 13 19  1  0
 13 21  1  0
 14 19  1  0
 15 16  1  0
 15 14  1  0
 17 16  1  0
 17 26  1  0
 17 18  1  0
 19 18  1  0
 20 13  2  0
 21 22  1  0
 23 24  2  0
 24 43  1  0
 25 24  1  0
 25 28  1  0
 26 27  1  0
 26 23  1  0
 27 25  2  0
 28 29  1  0
 29 30  2  0
 31 34  1  0
 31 30  1  0
 32 31  2  0
 33 32  1  0
 33 28  2  0
 34 35  1  0
 35 36  2  0
 35 40  1  0
 36 37  1  0
 37 38  2  0
 38 42  1  0
 39 38  1  0
 40 39  2  0
 41 40  1  0
 43 44  1  0
 44 47  1  0
 44 46  1  0
 45 43  2  0
 48 49  1  0
 48 23  1  0
 50 48  1  0
 51 53  1  0
 53 52  1  0
 54  6  1  0
 55 56  1  0
 55 54  1  0
 56 58  1  0
 57 68  2  0
 58 63  1  0
 59 67  1  0
 59 69  1  0
 60 66  1  0
 60 62  1  0
 61 67  1  0
 62 61  1  0
 63 62  2  0
 64 65  1  0
 64 58  2  0
 65 60  2  0
 66 59  1  0
 67 57  1  0
 69 71  2  0
 70 69  1  0
 72 70  1  0
 73 82  2  0
 73 78  1  0
 74 70  1  0
 74 78  1  0
 75 74  1  0
 76 77  1  0
 76 75  1  0
 77 73  1  0
 78 79  2  0
 79 80  1  0
 81 80  2  0
 82 81  1  0
 83 57  1  0
 83 88  1  0
 83 84  1  0
 84 87  1  1
 84 85  1  0
 86 84  1  0
 88 91  1  0
 89 93  1  0
 89 88  1  0
 90 89  2  0
 93 92  1  0
 95 93  1  0
 95 96  1  0
 95 94  1  0
M  ISO  4  13 100  21 100  55 101  56 101
M  END
>  <TORSDO>  (76) 
F 20

>  <SCORE>  (76) 
-6.609

>  <name>  (76) 
75

>  <ligand_id>  (76) 
75

>  <original_smiles>  (76) 
[H]c1c([H])c([H])c2c(c1[H])C([H])([H])C([H])([H])C([H])([H])C2([H])N([H])C(=O)C1([H])N(C(=O)C([H])(N([H])C(=O)C([H])(N([H])C([H])([H])[H])C([H])([H])[H])C(C([H])([H])[H])(C([H])([H])[H])C([H])([H])[H])C([H])([H])c2c([H])c(OC([H])([H])C([H])([H])[N+]3([H])C([H])([H])C([H])([H])C([H])(n4c([H])c(N([H])C(=O)N5C([H])([H])C([H])([H])C([H])([H])C([H])(n6nc(-c7c([H])c([H])c(Oc8c([H])c([H])c(F)c([H])c8F)c([H])c7[H])c(C(=O)N([H])[H])c6N([H])[H])C5([H])[H])c(C([H])(C([H])([H])[H])C([H])([H])[H])c4[H])C([H])([H])C3([H])[H])c([H])c([H])c2C1([H])[H]

>  <smiles>  (76) 
[H]c1c([H])c([H])c2c(c1[H])C([H])([H])C([H])([H])C([H])([H])C2([H])N([H])C(=O)C1([H])N(C(=O)C([H])(N([H])C(=O)C([H])(N([H])C([H])([H])[H])C([H])([H])[H])C(C([H])([H])[H])(C([H])([H])[H])C([H])([H])[H])C([H])([H])c2c([H])c(OC([H])([H])C([H])([H])[N+]3([H])C([H])([H])C([H])([H])C([H])(n4c([H])c(N([H])C(=O)N5C([H])([H])C([H])([H])C([H])([H])C([H])(n6nc(-c7c([H])c([H])c(Oc8c([H])c([H])c(F)c([H])c8F)c([H])c7[H])c(C(=O)N([H])[H])c6N([H])[H])C5([H])[H])c(C([H])(C([H])([H])[H])C([H])([H])[H])c4[H])C([H])([H])C3([H])[H])c([H])c([H])c2C1([H])[H]

$$$$
76:0:0
     RDKit          3D

 97106  0  0  1  0  0  0  0  0999 V2000
  -29.5640  -21.4590   20.8380 C   0  0  0  0  0  3  0  0  0  0  0  0
  -28.6580  -22.1890   18.9510 C   0  0  0  0  0  3  0  0  0  0  0  0
  -29.1470  -22.6560   20.1380 C   0  0  0  0  0  0  0  0  0  0  0  0
  -29.3680  -20.3300   20.0570 C   0  0  0  0  0  0  0  0  0  0  0  0
  -28.7850  -20.8080   18.8790 N   0  0  0  0  0  0  0  0  0  0  0  0
  -30.7350  -14.6610   20.4280 C   0  0  0  0  0  0  0  0  0  0  0  0
  -30.3940  -12.4440   19.3610 C   0  0  0  0  0  2  0  0  0  0  0  0
  -29.4640  -12.5510   18.1380 C   0  0  0  0  0  2  0  0  0  0  0  0
  -27.9990  -12.3680   18.5690 C   0  0  0  0  0  2  0  0  0  0  0  0
  -27.6290  -13.2520   19.7870 C   0  0  0  0  0  3  0  0  0  0  0  0
  -28.6940  -13.1750   20.9110 C   0  0  0  0  0  2  0  0  0  0  0  0
  -29.9940  -13.5060   20.3140 N   0  0  0  0  0  0  0  0  0  0  0  0
  -31.9190  -14.6350   20.0810 O   0  0  0  0  0  0  0  0  0  0  0  0
  -30.6690  -18.4380   21.3540 C   0  0  0  0  0  2  0  0  0  0  0  0
  -28.5180  -17.8790   20.4780 C   0  0  0  0  0  2  0  0  0  0  0  0
  -31.1490  -16.9500   21.2620 C   0  0  0  0  0  2  0  0  0  0  0  0
  -28.8680  -16.3610   20.3440 C   0  0  0  0  0  2  0  0  0  0  0  0
  -29.7050  -18.8260   20.2280 C   0  0  0  0  0  3  0  0  0  0  0  0
  -30.1880  -15.8760   20.8310 N   0  0  0  0  0  0  0  0  0  0  0  0
  -25.2410  -13.8530   20.5080 C   0  0  0  0  0  0  0  0  0  0  0  0
  -24.1760  -13.0790   20.8790 C   0  0  0  0  0  0  0  0  0  0  0  0
  -24.6430  -11.7290   20.8550 C   0  0  0  0  0  0  0  0  0  0  0  0
  -26.2870  -12.9720   20.2810 N   0  0  0  0  0  0  0  0  0  0  0  0
  -25.9340  -11.6910   20.5510 N   0  0  0  0  0  0  0  0  0  0  0  0
  -23.9200  -10.4660   21.0450 C   0  0  0  0  0  0  0  0  0  0  0  0
  -24.3570   -9.5000   21.9760 C   0  0  0  0  0  3  0  0  0  0  0  0
  -23.6340   -8.3000   22.1540 C   0  0  0  0  0  3  0  0  0  0  0  0
  -22.4610   -8.0600   21.3990 C   0  0  0  0  0  0  0  0  0  0  0  0
  -22.0460   -9.0160   20.4550 C   0  0  0  0  0  3  0  0  0  0  0  0
  -22.7690  -10.2070   20.2750 C   0  0  0  0  0  3  0  0  0  0  0  0
  -21.7090   -6.9150   21.4860 O   0  0  0  0  0  0  0  0  0  0  0  0
  -21.6620   -6.1710   22.6380 C   0  0  0  0  0  0  0  0  0  0  0  0
  -21.2240   -6.7220   23.8620 C   0  0  0  0  0  3  0  0  0  0  0  0
  -21.1260   -5.9040   25.0070 C   0  0  0  0  0  3  0  0  0  0  0  0
  -21.4560   -4.5380   24.9270 C   0  0  0  0  0  0  0  0  0  0  0  0
  -21.8880   -3.9870   23.7070 C   0  0  0  0  0  3  0  0  0  0  0  0
  -21.9880   -4.8020   22.5650 C   0  0  0  0  0  0  0  0  0  0  0  0
  -22.3850   -4.2620   21.3880 F   0  0  0  0  0  0  0  0  0  0  0  0
  -21.3540   -3.7500   26.0230 F   0  0  0  0  0  0  0  0  0  0  0  0
  -22.7770  -13.5530   21.1420 C   0  0  0  0  0  0  0  0  0  0  0  0
  -22.0470  -12.8580   22.0070 N   0  0  0  0  0  0  0  0  0  0  0  0
  -22.3390  -14.5770   20.6170 O   0  0  0  0  0  0  0  0  0  0  0  0
  -22.4160  -12.0320   22.4540 H   0  0  0  0  0  0  0  0  0  0  0  0
  -21.1080  -13.1570   22.2280 H   0  0  0  0  0  0  0  0  0  0  0  0
  -25.3950  -15.2230   20.3210 N   0  0  0  0  0  0  0  0  0  0  0  0
  -24.6190  -15.8660   20.4270 H   0  0  0  0  0  0  0  0  0  0  0  0
  -26.2370  -15.6690   19.9830 H   0  0  0  0  0  0  0  0  0  0  0  0
  -29.2970  -20.3730   16.5020 C   0  0  0  0  0  1  0  0  0  0  0  0
  -26.9080  -20.2320   17.3750 C   0  0  0  0  0  1  0  0  0  0  0  0
  -28.3960  -20.0320   17.6990 C   0  0  0  0  0  3  0  0  0  0  0  0
  -29.2710  -24.1520   20.5580 C   0  0  0  0  0  3  0  0  0  0  0  0
  -30.6160  -24.6240   20.1960 N   0  0  0  0  0  4  0  0  0  0  0  0
  -30.7550  -24.5880   19.2020 H   0  0  0  0  0  0  0  0  0  0  0  0
  -31.3150  -24.0540   20.6380 H   0  0  0  0  0  0  0  0  0  0  0  0
  -30.7380  -25.5760   20.5010 H   0  0  0  0  0  0  0  0  0  0  0  0
  -28.1840  -25.1340   19.9730 C   0  0  0  0  0  2  0  0  0  0  0  0
  -28.3480  -26.5670   20.2620 O   0  0  0  0  0  0  0  0  0  0  0  0
  -24.6130  -31.9210   23.2340 C   0  0  0  0  0  0  0  0  0  0  0  0
  -27.2160  -27.3830   20.1840 C   0  0  0  0  0  0  0  0  0  0  0  0
  -23.4010  -30.5220   21.5980 C   0  0  0  0  0  3  0  0  0  0  0  0
  -24.8460  -28.9720   20.1720 C   0  0  0  0  0  0  0  0  0  0  0  0
  -25.9380  -30.8430   21.4090 C   0  0  0  0  0  2  0  0  0  0  0  0
  -26.0130  -29.4680   20.7670 C   0  0  0  0  0  0  0  0  0  0  0  0
  -27.1990  -28.6820   20.7690 C   0  0  0  0  0  3  0  0  0  0  0  0
  -26.0280  -26.9390   19.5520 C   0  0  0  0  0  3  0  0  0  0  0  0
  -24.8550  -27.7120   19.5570 C   0  0  0  0  0  3  0  0  0  0  0  0
  -23.6100  -29.8440   20.2190 C   0  0  0  0  0  2  0  0  0  0  0  0
  -24.6700  -31.1120   22.1370 N   0  0  0  0  0  0  0  0  0  0  0  0
  -23.5310  -32.2020   23.7700 O   0  0  0  0  0  0  0  0  0  0  0  0
  -22.7410  -29.5070   22.5600 C   0  0  0  0  0  0  0  0  0  0  0  0
  -21.4140  -29.3360   22.4370 N   0  0  0  0  0  0  0  0  0  0  0  0
  -23.4200  -28.8760   23.3760 O   0  0  0  0  0  0  0  0  0  0  0  0
  -20.9270  -29.8970   21.7520 H   0  0  0  0  0  0  0  0  0  0  0  0
  -18.0290  -28.1740   22.9560 C   0  0  0  0  0  0  0  0  0  0  0  0
  -20.5920  -28.4060   23.2110 C   0  0  0  0  0  3  0  0  0  0  0  0
  -20.6750  -26.9740   22.6330 C   0  0  0  0  0  2  0  0  0  0  0  0
  -19.5640  -26.6650   21.6250 C   0  0  0  0  0  2  0  0  0  0  0  0
  -18.1880  -26.8240   22.2770 C   0  0  0  0  0  2  0  0  0  0  0  0
  -19.1580  -28.9240   23.3810 C   0  0  0  0  0  0  0  0  0  0  0  0
  -18.9570  -30.1880   23.9740 C   0  0  0  0  0  3  0  0  0  0  0  0
  -17.6580  -30.7040   24.1490 C   0  0  0  0  0  3  0  0  0  0  0  0
  -16.5440  -29.9510   23.7400 C   0  0  0  0  0  3  0  0  0  0  0  0
  -16.7300  -28.6870   23.1500 C   0  0  0  0  0  3  0  0  0  0  0  0
  -25.9010  -32.5490   23.8520 C   0  0  0  0  0  3  0  0  0  0  0  0
  -26.4230  -31.7710   25.1210 C   0  0  1  0  0  0  0  0  0  0  0  0
  -25.3360  -31.5240   26.1920 C   0  0  0  0  0  1  0  0  0  0  0  0
  -27.0060  -30.3960   24.7170 C   0  0  0  0  0  1  0  0  0  0  0  0
  -27.5760  -32.5620   25.7830 C   0  0  0  0  0  1  0  0  0  0  0  0
  -25.5930  -33.9450   24.1910 N   0  0  0  0  0  0  0  0  0  0  0  0
  -25.9130  -35.0020   23.4310 C   0  0  0  0  0  0  0  0  0  0  0  0
  -26.5680  -34.9020   22.3900 O   0  0  0  0  0  0  0  0  0  0  0  0
  -25.0100  -34.0970   25.0010 H   0  0  0  0  0  0  0  0  0  0  0  0
  -24.1750  -36.7900   23.1070 C   0  0  0  0  0  1  0  0  0  0  0  0
  -25.4280  -36.3870   23.8990 C   0  0  0  0  0  3  0  0  0  0  0  0
  -27.5710  -37.2760   24.7030 C   0  0  0  0  0  1  0  0  0  0  0  0
  -26.4570  -37.4430   23.7740 N   0  0  0  0  0  0  0  0  0  0  0  0
  -26.0500  -38.3620   23.9270 H   0  0  0  0  0  0  0  0  0  0  0  0
  2  3  2  0
  3 51  1  0
  3  1  1  0
  4  1  2  0
  5  2  1  0
  5  4  1  0
  6 19  1  0
  7 12  1  0
  8  9  1  0
  8  7  1  0
 10  9  1  0
 10 23  1  0
 10 11  1  0
 12  6  1  0
 12 11  1  0
 13  6  2  0
 16 14  1  0
 17 15  1  0
 17 19  1  0
 18  4  1  0
 18 15  1  0
 18 14  1  0
 19 16  1  0
 20 21  2  0
 21 40  1  0
 22 21  1  0
 22 25  1  0
 23 20  1  0
 23 24  1  0
 24 22  2  0
 25 26  1  0
 26 27  2  0
 28 31  1  0
 28 27  1  0
 29 28  2  0
 30 29  1  0
 30 25  2  0
 31 32  1  0
 32 33  1  0
 33 34  2  0
 35 34  1  0
 35 39  1  0
 36 35  2  0
 37 32  2  0
 37 36  1  0
 38 37  1  0
 40 41  1  0
 41 44  1  0
 41 43  1  0
 42 40  2  0
 45 46  1  0
 45 20  1  0
 47 45  1  0
 48 50  1  0
 49 50  1  0
 50  5  1  0
 51 56  1  0
 52 55  1  0
 52 51  1  0
 52 54  1  0
 53 52  1  0
 56 57  1  0
 58 69  2  0
 59 57  1  0
 59 64  1  0
 60 68  1  0
 60 70  1  0
 61 67  1  0
 61 63  1  0
 62 68  1  0
 63 64  2  0
 63 62  1  0
 65 66  1  0
 65 59  2  0
 66 61  2  0
 67 60  1  0
 68 58  1  0
 70 72  2  0
 71 70  1  0
 73 71  1  0
 74 83  2  0
 74 79  1  0
 75 71  1  0
 75 79  1  0
 76 75  1  0
 77 78  1  0
 77 76  1  0
 78 74  1  0
 79 80  2  0
 80 81  1  0
 82 81  2  0
 83 82  1  0
 84 58  1  0
 84 89  1  0
 84 85  1  0
 85 88  1  1
 85 86  1  0
 87 85  1  0
 89 92  1  0
 90 94  1  0
 90 89  1  0
 91 90  2  0
 94 93  1  0
 96 94  1  0
 96 97  1  0
 96 95  1  0
M  ISO  4   6 100  19 100  56 101  57 101
M  END
>  <TORSDO>  (77) 
F 20

>  <SCORE>  (77) 
-14.606

>  <name>  (77) 
76

>  <ligand_id>  (77) 
76

>  <original_smiles>  (77) 
[H]c1c([H])c([H])c2c(c1[H])C([H])([H])C([H])([H])C([H])([H])C2([H])N([H])C(=O)C1([H])N(C(=O)C([H])(N([H])C(=O)C([H])(N([H])C([H])([H])[H])C([H])([H])[H])C(C([H])([H])[H])(C([H])([H])[H])C([H])([H])[H])C([H])([H])c2c([H])c(OC([H])([H])C([H])(c3c([H])c(C4([H])C([H])([H])C([H])([H])N(C(=O)N5C([H])([H])C([H])([H])C([H])([H])C([H])(n6nc(-c7c([H])c([H])c(Oc8c([H])c([H])c(F)c([H])c8F)c([H])c7[H])c(C(=O)N([H])[H])c6N([H])[H])C5([H])[H])C([H])([H])C4([H])[H])n(C([H])(C([H])([H])[H])C([H])([H])[H])c3[H])[N+]([H])([H])[H])c([H])c([H])c2C1([H])[H]

>  <smiles>  (77) 
[H]c1c([H])c([H])c2c(c1[H])C([H])([H])C([H])([H])C([H])([H])C2([H])N([H])C(=O)C1([H])N(C(=O)C([H])(N([H])C(=O)C([H])(N([H])C([H])([H])[H])C([H])([H])[H])C(C([H])([H])[H])(C([H])([H])[H])C([H])([H])[H])C([H])([H])c2c([H])c(OC([H])([H])C([H])(c3c([H])c(C4([H])C([H])([H])C([H])([H])N(C(=O)N5C([H])([H])C([H])([H])C([H])([H])C([H])(n6nc(-c7c([H])c([H])c(Oc8c([H])c([H])c(F)c([H])c8F)c([H])c7[H])c(C(=O)N([H])[H])c6N([H])[H])C5([H])[H])C([H])([H])C4([H])[H])n(C([H])(C([H])([H])[H])C([H])([H])[H])c3[H])[N+]([H])([H])[H])c([H])c([H])c2C1([H])[H]

$$$$
77:0:0
     RDKit          3D

 98106  0  0  1  0  0  0  0  0999 V2000
  -30.0160  -22.4960   20.5880 C   0  0  0  0  0  2  0  0  0  0  0  0
  -27.7330  -22.3950   21.2500 C   0  0  0  0  0  2  0  0  0  0  0  0
  -29.0670  -21.6630   21.4610 C   0  0  0  0  0  3  0  0  0  0  0  0
  -29.5170  -23.9390   20.8000 C   0  0  0  0  0  3  0  0  0  0  0  0
  -28.0640  -23.8190   21.0410 N   0  0  0  0  0  4  0  0  0  0  0  0
  -27.8250  -24.3620   21.8570 H   0  0  0  0  0  0  0  0  0  0  0  0
  -27.5400  -24.1730   20.2590 H   0  0  0  0  0  0  0  0  0  0  0  0
  -29.0120  -20.1450   21.1510 C   0  0  0  0  0  2  0  0  0  0  0  0
  -30.3520  -19.4150   21.3730 C   0  0  0  0  0  2  0  0  0  0  0  0
  -30.2380  -17.9400   21.2540 N   0  0  0  0  0  4  0  0  0  0  0  0
  -29.6690  -17.7050   20.4590 H   0  0  0  0  0  0  0  0  0  0  0  0
  -29.7810  -17.5830   22.0770 H   0  0  0  0  0  0  0  0  0  0  0  0
  -31.5460  -17.2610   21.1050 C   0  0  0  0  0  2  0  0  0  0  0  0
  -31.5750  -15.8260   21.6730 C   0  0  0  0  0  2  0  0  0  0  0  0
  -30.8790  -14.1620   19.9580 C   0  0  0  0  0  0  0  0  0  0  0  0
  -30.4560  -11.9880   18.8620 C   0  0  0  0  0  2  0  0  0  0  0  0
  -29.4320  -12.0720   17.7160 C   0  0  0  0  0  2  0  0  0  0  0  0
  -27.9980  -11.9370   18.2570 C   0  0  0  0  0  2  0  0  0  0  0  0
  -27.7240  -12.8900   19.4490 C   0  0  0  0  0  3  0  0  0  0  0  0
  -28.8420  -12.7800   20.5080 C   0  0  0  0  0  2  0  0  0  0  0  0
  -30.1410  -13.0280   19.8530 N   0  0  0  0  0  0  0  0  0  0  0  0
  -31.8030  -14.4520   19.1920 O   0  0  0  0  0  0  0  0  0  0  0  0
  -30.6330  -14.8860   21.0570 N   0  0  0  0  0  0  0  0  0  0  0  0
  -29.8880  -14.5370   21.6440 H   0  0  0  0  0  0  0  0  0  0  0  0
  -25.4000  -13.5500   20.3400 C   0  0  0  0  0  0  0  0  0  0  0  0
  -24.3490  -12.8000   20.7970 C   0  0  0  0  0  0  0  0  0  0  0  0
  -24.7810  -11.4390   20.7380 C   0  0  0  0  0  0  0  0  0  0  0  0
  -26.4060  -12.6470   20.0320 N   0  0  0  0  0  0  0  0  0  0  0  0
  -26.0410  -11.3730   20.3280 N   0  0  0  0  0  0  0  0  0  0  0  0
  -24.0490  -10.1920   20.9910 C   0  0  0  0  0  0  0  0  0  0  0  0
  -24.4840   -9.2680   21.9670 C   0  0  0  0  0  3  0  0  0  0  0  0
  -23.7530   -8.0830   22.2060 C   0  0  0  0  0  3  0  0  0  0  0  0
  -22.5760   -7.8160   21.4690 C   0  0  0  0  0  0  0  0  0  0  0  0
  -22.1600   -8.7280   20.4820 C   0  0  0  0  0  3  0  0  0  0  0  0
  -22.8910   -9.9040   20.2430 C   0  0  0  0  0  3  0  0  0  0  0  0
  -21.8170   -6.6790   21.6150 O   0  0  0  0  0  0  0  0  0  0  0  0
  -21.7240   -6.0240   22.8160 C   0  0  0  0  0  0  0  0  0  0  0  0
  -21.2210   -6.6560   23.9740 C   0  0  0  0  0  3  0  0  0  0  0  0
  -21.0790   -5.9260   25.1700 C   0  0  0  0  0  3  0  0  0  0  0  0
  -21.4300   -4.5620   25.2080 C   0  0  0  0  0  0  0  0  0  0  0  0
  -21.9260   -3.9290   24.0550 C   0  0  0  0  0  3  0  0  0  0  0  0
  -22.0700   -4.6580   22.8610 C   0  0  0  0  0  0  0  0  0  0  0  0
  -22.5280   -4.0380   21.7470 F   0  0  0  0  0  0  0  0  0  0  0  0
  -21.2850   -3.8570   26.3540 F   0  0  0  0  0  0  0  0  0  0  0  0
  -22.9880  -13.3060   21.1770 C   0  0  0  0  0  0  0  0  0  0  0  0
  -22.3170  -12.6240   22.0990 N   0  0  0  0  0  0  0  0  0  0  0  0
  -22.5290  -14.3370   20.6880 O   0  0  0  0  0  0  0  0  0  0  0  0
  -22.7020  -11.7890   22.5150 H   0  0  0  0  0  0  0  0  0  0  0  0
  -21.4060  -12.9450   22.3970 H   0  0  0  0  0  0  0  0  0  0  0  0
  -25.5760  -14.9170   20.1430 N   0  0  0  0  0  0  0  0  0  0  0  0
  -24.8330  -15.5870   20.3080 H   0  0  0  0  0  0  0  0  0  0  0  0
  -26.4060  -15.3340   19.7390 H   0  0  0  0  0  0  0  0  0  0  0  0
  -29.9150  -24.9290   19.6600 C   0  0  0  0  0  3  0  0  0  0  0  0
  -31.1110  -25.6630   20.0420 N   0  0  0  0  0  0  0  0  0  0  0  0
  -31.3900  -26.2540   19.2640 H   0  0  0  0  0  0  0  0  0  0  0  0
  -31.8760  -25.0040   20.1370 H   0  0  0  0  0  0  0  0  0  0  0  0
  -28.8300  -25.9450   19.2190 C   0  0  0  0  0  2  0  0  0  0  0  0
  -28.5480  -26.9240   20.2280 O   0  0  0  0  0  0  0  0  0  0  0  0
  -24.5930  -31.9740   23.3170 C   0  0  0  0  0  0  0  0  0  0  0  0
  -27.3450  -27.6100   20.1990 C   0  0  0  0  0  0  0  0  0  0  0  0
  -23.4220  -30.5650   21.6540 C   0  0  0  0  0  3  0  0  0  0  0  0
  -24.9120  -29.0720   20.2250 C   0  0  0  0  0  0  0  0  0  0  0  0
  -25.9430  -30.9700   21.4790 C   0  0  0  0  0  2  0  0  0  0  0  0
  -26.0560  -29.6050   20.8320 C   0  0  0  0  0  0  0  0  0  0  0  0
  -27.2680  -28.8750   20.8270 C   0  0  0  0  0  3  0  0  0  0  0  0
  -26.1720  -27.0940   19.5940 C   0  0  0  0  0  3  0  0  0  0  0  0
  -24.9660  -27.8140   19.6080 C   0  0  0  0  0  3  0  0  0  0  0  0
  -23.6540  -29.9070   20.2690 C   0  0  0  0  0  2  0  0  0  0  0  0
  -24.6710  -31.1850   22.2090 N   0  0  0  0  0  0  0  0  0  0  0  0
  -23.5030  -32.2180   23.8540 O   0  0  0  0  0  0  0  0  0  0  0  0
  -22.7860  -29.5210   22.5990 C   0  0  0  0  0  0  0  0  0  0  0  0
  -21.4660  -29.3130   22.4600 N   0  0  0  0  0  0  0  0  0  0  0  0
  -23.4750  -28.9050   23.4160 O   0  0  0  0  0  0  0  0  0  0  0  0
  -20.9700  -29.8660   21.7740 H   0  0  0  0  0  0  0  0  0  0  0  0
  -18.1090  -28.0570   22.9280 C   0  0  0  0  0  0  0  0  0  0  0  0
  -20.6620  -28.3530   23.2150 C   0  0  0  0  0  3  0  0  0  0  0  0
  -20.7900  -26.9290   22.6260 C   0  0  0  0  0  2  0  0  0  0  0  0
  -19.6990  -26.6000   21.6010 C   0  0  0  0  0  2  0  0  0  0  0  0
  -18.3110  -26.7170   22.2390 C   0  0  0  0  0  2  0  0  0  0  0  0
  -19.2140  -28.8320   23.3710 C   0  0  0  0  0  0  0  0  0  0  0  0
  -18.9730  -30.0850   23.9730 C   0  0  0  0  0  3  0  0  0  0  0  0
  -17.6590  -30.5650   24.1360 C   0  0  0  0  0  3  0  0  0  0  0  0
  -16.5690  -29.7880   23.7110 C   0  0  0  0  0  3  0  0  0  0  0  0
  -16.7940  -28.5360   23.1110 C   0  0  0  0  0  3  0  0  0  0  0  0
  -25.8620  -32.6260   23.9490 C   0  0  0  0  0  3  0  0  0  0  0  0
  -25.5370  -34.0250   24.2540 N   0  0  0  0  0  0  0  0  0  0  0  0
  -25.8660  -35.0680   23.4820 C   0  0  0  0  0  0  0  0  0  0  0  0
  -26.5490  -34.9580   22.4620 O   0  0  0  0  0  0  0  0  0  0  0  0
  -24.9440  -34.1850   25.0550 H   0  0  0  0  0  0  0  0  0  0  0  0
  -24.1270  -36.8370   23.0660 C   0  0  0  0  0  1  0  0  0  0  0  0
  -25.3540  -36.4580   23.9120 C   0  0  0  0  0  3  0  0  0  0  0  0
  -27.4620  -37.3750   24.7730 C   0  0  0  0  0  1  0  0  0  0  0  0
  -26.3760  -37.5220   23.8060 N   0  0  0  0  0  0  0  0  0  0  0  0
  -25.9570  -38.4380   23.9400 H   0  0  0  0  0  0  0  0  0  0  0  0
  -26.3700  -31.8730   25.2380 C   0  0  1  0  0  0  0  0  0  0  0  0
  -25.2670  -31.6280   26.2930 C   0  0  0  0  0  1  0  0  0  0  0  0
  -26.9750  -30.4990   24.8670 C   0  0  0  0  0  1  0  0  0  0  0  0
  -27.5000  -32.6890   25.9090 C   0  0  0  0  0  1  0  0  0  0  0  0
  1  4  1  0
  1  3  1  0
  2  3  1  0
  3  8  1  0
  4 53  1  0
  4  5  1  0
  5  2  1  0
  5  6  1  0
  7  5  1  0
  8  9  1  0
 10  9  1  0
 10 12  1  0
 11 10  1  0
 13 10  1  0
 13 14  1  0
 15 23  1  0
 16 21  1  0
 17 18  1  0
 17 16  1  0
 19 18  1  0
 19 28  1  0
 19 20  1  0
 21 15  1  0
 21 20  1  0
 22 15  2  0
 23 24  1  0
 23 14  1  0
 25 26  2  0
 26 45  1  0
 27 26  1  0
 27 30  1  0
 28 29  1  0
 28 25  1  0
 29 27  2  0
 30 31  1  0
 31 32  2  0
 33 36  1  0
 33 32  1  0
 34 33  2  0
 35 34  1  0
 35 30  2  0
 36 37  1  0
 37 42  2  0
 37 38  1  0
 38 39  2  0
 39 40  1  0
 40 44  1  0
 41 40  2  0
 42 41  1  0
 43 42  1  0
 45 46  1  0
 46 49  1  0
 46 48  1  0
 47 45  2  0
 50 51  1  0
 50 25  1  0
 52 50  1  0
 53 57  1  0
 53 54  1  0
 54 56  1  0
 55 54  1  0
 57 58  1  0
 59 70  2  0
 60 58  1  0
 60 65  1  0
 61 69  1  0
 61 71  1  0
 62 68  1  0
 62 64  1  0
 63 69  1  0
 64 63  1  0
 65 64  2  0
 66 67  1  0
 66 60  2  0
 67 62  2  0
 68 61  1  0
 69 59  1  0
 71 73  2  0
 72 71  1  0
 74 72  1  0
 75 84  2  0
 75 80  1  0
 76 72  1  0
 76 80  1  0
 77 76  1  0
 78 79  1  0
 78 77  1  0
 79 75  1  0
 80 81  2  0
 81 82  1  0
 83 82  2  0
 84 83  1  0
 85 59  1  0
 85 86  1  0
 85 95  1  0
 86 89  1  0
 87 91  1  0
 87 86  1  0
 88 87  2  0
 91 90  1  0
 93 91  1  0
 93 94  1  0
 93 92  1  0
 95 98  1  1
 95 96  1  0
 97 95  1  0
M  ISO  4  15 100  23 100  57 101  58 101
M  END
>  <TORSDO>  (78) 
F 24

>  <SCORE>  (78) 
-11.939

>  <name>  (78) 
77

>  <ligand_id>  (78) 
77

>  <original_smiles>  (78) 
[H]c1c([H])c([H])c2c(c1[H])C([H])([H])C([H])([H])C([H])([H])C2([H])N([H])C(=O)C1([H])N(C(=O)C([H])(N([H])C(=O)C([H])(N([H])C([H])([H])[H])C([H])([H])[H])C(C([H])([H])[H])(C([H])([H])[H])C([H])([H])[H])C([H])([H])c2c([H])c(OC([H])([H])C([H])(N([H])[H])C3([H])C([H])([H])C([H])(C([H])([H])C([H])([H])[N+]([H])([H])C([H])([H])C([H])([H])N([H])C(=O)N4C([H])([H])C([H])([H])C([H])([H])C([H])(n5nc(-c6c([H])c([H])c(Oc7c([H])c([H])c(F)c([H])c7F)c([H])c6[H])c(C(=O)N([H])[H])c5N([H])[H])C4([H])[H])C([H])([H])[N+]3([H])[H])c([H])c([H])c2C1([H])[H]

>  <smiles>  (78) 
[H]c1c([H])c([H])c2c(c1[H])C([H])([H])C([H])([H])C([H])([H])C2([H])N([H])C(=O)C1([H])N(C(=O)C([H])(N([H])C(=O)C([H])(N([H])C([H])([H])[H])C([H])([H])[H])C(C([H])([H])[H])(C([H])([H])[H])C([H])([H])[H])C([H])([H])c2c([H])c(OC([H])([H])C([H])(N([H])[H])C3([H])C([H])([H])C([H])(C([H])([H])C([H])([H])[N+]([H])([H])C([H])([H])C([H])([H])N([H])C(=O)N4C([H])([H])C([H])([H])C([H])([H])C([H])(n5nc(-c6c([H])c([H])c(Oc7c([H])c([H])c(F)c([H])c7F)c([H])c6[H])c(C(=O)N([H])[H])c5N([H])[H])C4([H])[H])C([H])([H])[N+]3([H])[H])c([H])c([H])c2C1([H])[H]

$$$$
78:0:0
     RDKit          3D

 94103  0  0  1  0  0  0  0  0999 V2000
  -28.7230  -23.4490   19.8440 C   0  0  0  0  0  2  0  0  0  0  0  0
  -30.1670  -24.1770   21.7860 C   0  0  0  0  0  2  0  0  0  0  0  0
  -29.5800  -22.1510   19.7330 C   0  0  0  0  0  2  0  0  0  0  0  0
  -30.9780  -22.8740   21.6290 C   0  0  0  0  0  2  0  0  0  0  0  0
  -29.4600  -24.6510   20.4940 C   0  0  0  0  0  3  0  0  0  0  0  0
  -30.1030  -21.6920   21.1230 C   0  0  0  0  0  3  0  0  0  0  0  0
  -30.9410  -18.6650   22.9560 C   0  0  0  0  0  2  0  0  0  0  0  0
  -29.7830  -18.3350   22.0310 C   0  0  0  0  0  2  0  0  0  0  0  0
  -31.3600  -20.0800   22.5410 C   0  0  0  0  0  2  0  0  0  0  0  0
  -30.0690  -19.1390   20.7580 C   0  0  0  0  0  3  0  0  0  0  0  0
  -30.8320  -20.3660   21.1720 N   0  0  1  0  0  4  0  0  0  0  0  0
  -31.6220  -20.4450   20.5480 H   0  0  0  0  0  0  0  0  0  0  0  0
  -30.7790  -18.2660   19.6690 C   0  0  0  0  0  2  0  0  0  0  0  0
  -31.8480  -17.2080   20.0940 C   0  0  0  0  0  2  0  0  0  0  0  0
  -31.9800  -14.6960   19.9850 C   0  0  0  0  0  0  0  0  0  0  0  0
  -31.5370  -12.4550   19.0640 C   0  0  0  0  0  2  0  0  0  0  0  0
  -30.6170  -12.6120   17.8350 C   0  0  0  0  0  2  0  0  0  0  0  0
  -29.1340  -12.6260   18.2580 C   0  0  0  0  0  2  0  0  0  0  0  0
  -28.8550  -13.5950   19.4390 C   0  0  0  0  0  3  0  0  0  0  0  0
  -29.8910  -13.4110   20.5720 C   0  0  0  0  0  2  0  0  0  0  0  0
  -31.2300  -13.5610   19.9830 N   0  0  0  0  0  0  0  0  0  0  0  0
  -33.1370  -14.7270   19.5600 O   0  0  0  0  0  0  0  0  0  0  0  0
  -31.3240  -15.8360   20.2900 N   0  0  0  0  0  0  0  0  0  0  0  0
  -30.3740  -15.7340   20.6160 H   0  0  0  0  0  0  0  0  0  0  0  0
  -26.5430  -14.4500   20.1800 C   0  0  0  0  0  0  0  0  0  0  0  0
  -25.4010  -13.7930   20.5510 C   0  0  0  0  0  0  0  0  0  0  0  0
  -25.7120  -12.4010   20.5020 C   0  0  0  0  0  0  0  0  0  0  0  0
  -27.4850  -13.4640   19.9300 N   0  0  0  0  0  0  0  0  0  0  0  0
  -26.9870  -12.2260   20.1800 N   0  0  0  0  0  0  0  0  0  0  0  0
  -24.8540  -11.2230   20.6830 C   0  0  0  0  0  0  0  0  0  0  0  0
  -25.1590  -10.2260   21.6370 C   0  0  0  0  0  3  0  0  0  0  0  0
  -24.3080   -9.1130   21.8070 C   0  0  0  0  0  3  0  0  0  0  0  0
  -23.1370   -8.9890   21.0220 C   0  0  0  0  0  0  0  0  0  0  0  0
  -22.8510   -9.9710   20.0580 C   0  0  0  0  0  3  0  0  0  0  0  0
  -23.7020  -11.0750   19.8850 C   0  0  0  0  0  3  0  0  0  0  0  0
  -22.2660   -7.9290   21.0990 O   0  0  0  0  0  0  0  0  0  0  0  0
  -22.0290   -7.2770   22.2840 C   0  0  0  0  0  0  0  0  0  0  0  0
  -21.5590   -7.9580   23.4280 C   0  0  0  0  0  3  0  0  0  0  0  0
  -21.2600   -7.2380   24.6030 C   0  0  0  0  0  3  0  0  0  0  0  0
  -21.4250   -5.8400   24.6320 C   0  0  0  0  0  0  0  0  0  0  0  0
  -21.8890   -5.1610   23.4920 C   0  0  0  0  0  3  0  0  0  0  0  0
  -22.1860   -5.8770   22.3210 C   0  0  0  0  0  0  0  0  0  0  0  0
  -22.6130   -5.2140   21.2180 F   0  0  0  0  0  0  0  0  0  0  0  0
  -21.1310   -5.1470   25.7580 F   0  0  0  0  0  0  0  0  0  0  0  0
  -24.0650  -14.4160   20.8380 C   0  0  0  0  0  0  0  0  0  0  0  0
  -23.2870  -13.8160   21.7310 N   0  0  0  0  0  0  0  0  0  0  0  0
  -23.7240  -15.4700   20.3030 O   0  0  0  0  0  0  0  0  0  0  0  0
  -23.5770  -12.9640   22.1880 H   0  0  0  0  0  0  0  0  0  0  0  0
  -22.3870  -14.2150   21.9600 H   0  0  0  0  0  0  0  0  0  0  0  0
  -26.8520  -15.7950   20.0110 N   0  0  0  0  0  0  0  0  0  0  0  0
  -26.1480  -16.5170   20.1150 H   0  0  0  0  0  0  0  0  0  0  0  0
  -27.7190  -16.1400   19.6160 H   0  0  0  0  0  0  0  0  0  0  0  0
  -28.5240  -25.8540   20.8420 C   0  0  0  0  0  2  0  0  0  0  0  0
  -28.3980  -26.8720   19.8380 O   0  0  0  0  0  0  0  0  0  0  0  0
  -24.5620  -31.8270   23.3050 C   0  0  0  0  0  0  0  0  0  0  0  0
  -27.2390  -27.6120   19.9360 C   0  0  0  0  0  0  0  0  0  0  0  0
  -23.3490  -30.4760   21.6270 C   0  0  0  0  0  3  0  0  0  0  0  0
  -24.8040  -29.0490   20.0880 C   0  0  0  0  0  0  0  0  0  0  0  0
  -25.8570  -30.9140   21.3790 C   0  0  0  0  0  2  0  0  0  0  0  0
  -25.9640  -29.5750   20.6740 C   0  0  0  0  0  0  0  0  0  0  0  0
  -27.1850  -28.8620   20.5990 C   0  0  0  0  0  3  0  0  0  0  0  0
  -26.0650  -27.0990   19.3500 C   0  0  0  0  0  3  0  0  0  0  0  0
  -24.8500  -27.8070   19.4270 C   0  0  0  0  0  3  0  0  0  0  0  0
  -23.5390  -29.8700   20.2090 C   0  0  0  0  0  2  0  0  0  0  0  0
  -24.6080  -31.0850   22.1620 N   0  0  0  0  0  0  0  0  0  0  0  0
  -23.4900  -32.0410   23.8870 O   0  0  0  0  0  0  0  0  0  0  0  0
  -22.7500  -29.3910   22.5510 C   0  0  0  0  0  0  0  0  0  0  0  0
  -21.4390  -29.1350   22.4060 N   0  0  0  0  0  0  0  0  0  0  0  0
  -23.4640  -28.7860   23.3550 O   0  0  0  0  0  0  0  0  0  0  0  0
  -20.9210  -29.6800   21.7330 H   0  0  0  0  0  0  0  0  0  0  0  0
  -18.1710  -27.6330   22.7400 C   0  0  0  0  0  0  0  0  0  0  0  0
  -20.6760  -28.1260   23.1420 C   0  0  0  0  0  3  0  0  0  0  0  0
  -20.9410  -26.7090   22.5850 C   0  0  0  0  0  2  0  0  0  0  0  0
  -19.9300  -26.2830   21.5180 C   0  0  0  0  0  2  0  0  0  0  0  0
  -18.5060  -26.3030   22.0860 C   0  0  0  0  0  2  0  0  0  0  0  0
  -19.1900  -28.4960   23.2220 C   0  0  0  0  0  0  0  0  0  0  0  0
  -18.8270  -29.7370   23.7880 C   0  0  0  0  0  3  0  0  0  0  0  0
  -17.4740  -30.1160   23.8820 C   0  0  0  0  0  3  0  0  0  0  0  0
  -16.4670  -29.2520   23.4180 C   0  0  0  0  0  3  0  0  0  0  0  0
  -16.8170  -28.0120   22.8500 C   0  0  0  0  0  3  0  0  0  0  0  0
  -25.8490  -32.4610   23.9220 C   0  0  0  0  0  3  0  0  0  0  0  0
  -26.3720  -31.6940   25.1970 C   0  0  1  0  0  0  0  0  0  0  0  0
  -25.2840  -31.4520   26.2680 C   0  0  0  0  0  1  0  0  0  0  0  0
  -26.9630  -30.3200   24.8030 C   0  0  0  0  0  1  0  0  0  0  0  0
  -27.5200  -32.4940   25.8580 C   0  0  0  0  0  1  0  0  0  0  0  0
  -25.5430  -33.8610   24.2470 N   0  0  0  0  0  0  0  0  0  0  0  0
  -25.8610  -34.9080   23.4730 C   0  0  0  0  0  0  0  0  0  0  0  0
  -26.5150  -34.7980   22.4320 O   0  0  0  0  0  0  0  0  0  0  0  0
  -24.9680  -34.0240   25.0600 H   0  0  0  0  0  0  0  0  0  0  0  0
  -24.1180  -36.6860   23.1350 C   0  0  0  0  0  1  0  0  0  0  0  0
  -25.3760  -36.2970   23.9270 C   0  0  0  0  0  3  0  0  0  0  0  0
  -27.5220  -37.1960   24.7100 C   0  0  0  0  0  1  0  0  0  0  0  0
  -26.4010  -37.3540   23.7870 N   0  0  0  0  0  0  0  0  0  0  0  0
  -25.9930  -38.2720   23.9380 H   0  0  0  0  0  0  0  0  0  0  0  0
  1  5  1  0
  3  1  1  0
  4  2  1  0
  5 53  1  0
  5  2  1  0
  6  3  1  0
  6 11  1  0
  6  4  1  0
  8  7  1  0
  9  7  1  0
 10 13  1  0
 10 11  1  0
 10  8  1  0
 11 12  1  6
 11  9  1  0
 13 14  1  0
 14 23  1  0
 15 23  1  0
 16 21  1  0
 17 18  1  0
 17 16  1  0
 19 18  1  0
 19 28  1  0
 19 20  1  0
 21 15  1  0
 21 20  1  0
 22 15  2  0
 23 24  1  0
 25 26  2  0
 26 45  1  0
 27 26  1  0
 27 30  1  0
 28 25  1  0
 28 29  1  0
 29 27  2  0
 30 31  1  0
 31 32  2  0
 33 36  1  0
 33 32  1  0
 34 33  2  0
 35 34  1  0
 35 30  2  0
 36 37  1  0
 37 42  2  0
 37 38  1  0
 38 39  2  0
 39 40  1  0
 40 44  1  0
 41 40  2  0
 42 41  1  0
 43 42  1  0
 45 46  1  0
 46 49  1  0
 46 48  1  0
 47 45  2  0
 50 51  1  0
 50 25  1  0
 52 50  1  0
 54 56  1  0
 54 53  1  0
 55 66  2  0
 56 61  1  0
 57 65  1  0
 57 67  1  0
 58 64  1  0
 58 60  1  0
 59 65  1  0
 60 59  1  0
 61 60  2  0
 62 63  1  0
 62 56  2  0
 63 58  2  0
 64 57  1  0
 65 55  1  0
 67 69  2  0
 68 67  1  0
 70 68  1  0
 71 80  2  0
 71 76  1  0
 72 68  1  0
 72 76  1  0
 73 72  1  0
 74 75  1  0
 74 73  1  0
 75 71  1  0
 76 77  2  0
 77 78  1  0
 79 78  2  0
 80 79  1  0
 81 55  1  0
 81 86  1  0
 81 82  1  0
 82 85  1  1
 82 83  1  0
 84 82  1  0
 86 89  1  0
 87 91  1  0
 87 86  1  0
 88 87  2  0
 91 90  1  0
 93 91  1  0
 93 94  1  0
 93 92  1  0
M  ISO  4  15 100  23 100  53 101  54 101
M  END
>  <TORSDO>  (79) 
F 20

>  <SCORE>  (79) 
-11.482

>  <name>  (79) 
78

>  <ligand_id>  (79) 
78

>  <original_smiles>  (79) 
[H]c1c([H])c([H])c2c(c1[H])C([H])([H])C([H])([H])C([H])([H])C2([H])N([H])C(=O)C1([H])N(C(=O)C([H])(N([H])C(=O)C([H])(N([H])C([H])([H])[H])C([H])([H])[H])C(C([H])([H])[H])(C([H])([H])[H])C([H])([H])[H])C([H])([H])c2c([H])c(OC([H])([H])C3([H])C([H])([H])C([H])([H])C([H])([N+]4([H])C([H])([H])C([H])([H])C([H])([H])C4([H])C([H])([H])C([H])([H])N([H])C(=O)N4C([H])([H])C([H])([H])C([H])([H])C([H])(n5nc(-c6c([H])c([H])c(Oc7c([H])c([H])c(F)c([H])c7F)c([H])c6[H])c(C(=O)N([H])[H])c5N([H])[H])C4([H])[H])C([H])([H])C3([H])[H])c([H])c([H])c2C1([H])[H]

>  <smiles>  (79) 
[H]c1c([H])c([H])c2c(c1[H])C([H])([H])C([H])([H])C([H])([H])C2([H])N([H])C(=O)C1([H])N(C(=O)C([H])(N([H])C(=O)C([H])(N([H])C([H])([H])[H])C([H])([H])[H])C(C([H])([H])[H])(C([H])([H])[H])C([H])([H])[H])C([H])([H])c2c([H])c(OC([H])([H])C3([H])C([H])([H])C([H])([H])C([H])([N+]4([H])C([H])([H])C([H])([H])C([H])([H])C4([H])C([H])([H])C([H])([H])N([H])C(=O)N4C([H])([H])C([H])([H])C([H])([H])C([H])(n5nc(-c6c([H])c([H])c(Oc7c([H])c([H])c(F)c([H])c7F)c([H])c6[H])c(C(=O)N([H])[H])c5N([H])[H])C4([H])[H])C([H])([H])C3([H])[H])c([H])c([H])c2C1([H])[H]

$$$$
79:0:0
     RDKit          3D

 97105  0  0  1  0  0  0  0  0999 V2000
  -28.1020  -22.0870   22.0680 C   0  0  0  0  0  2  0  0  0  0  0  0
  -29.6260  -22.7810   20.4000 C   0  0  0  0  0  3  0  0  0  0  0  0
  -28.3100  -21.9430   20.5550 C   0  0  0  0  0  3  0  0  0  0  0  0
  -30.4240  -22.4360   21.7040 C   0  0  0  0  0  3  0  0  0  0  0  0
  -29.4390  -21.7990   22.6030 N   0  0  0  0  0  4  0  0  0  0  0  0
  -29.5490  -20.8010   22.5350 H   0  0  0  0  0  0  0  0  0  0  0  0
  -29.5350  -22.0850   23.5650 H   0  0  0  0  0  0  0  0  0  0  0  0
  -32.6880  -22.3080   20.5410 C   0  0  0  0  0  1  0  0  0  0  0  0
  -32.4480  -21.2690   22.8230 C   0  0  0  0  0  1  0  0  0  0  0  0
  -31.7140  -21.5950   21.5020 C   0  0  0  0  0  3  0  0  0  0  0  0
  -26.9430  -20.1730   19.7210 C   0  0  0  0  0  1  0  0  0  0  0  0
  -28.2440  -20.4490   20.3440 N   0  0  0  0  0  0  0  0  0  0  0  0
  -29.2800  -19.5840   19.7130 C   0  0  0  0  0  2  0  0  0  0  0  0
  -29.1570  -18.0730   20.1920 C   0  0  0  0  0  2  0  0  0  0  0  0
  -30.2680  -17.0340   19.7950 C   0  0  0  0  0  2  0  0  0  0  0  0
  -30.6790  -14.5240   19.8460 C   0  0  0  0  0  0  0  0  0  0  0  0
  -30.3630  -12.2560   18.9240 C   0  0  0  0  0  2  0  0  0  0  0  0
  -29.3530  -12.3460   17.7620 C   0  0  0  0  0  2  0  0  0  0  0  0
  -27.9090  -12.2120   18.2840 C   0  0  0  0  0  2  0  0  0  0  0  0
  -27.6250  -13.1400   19.4990 C   0  0  0  0  0  3  0  0  0  0  0  0
  -28.7500  -13.0500   20.5550 C   0  0  0  0  0  2  0  0  0  0  0  0
  -30.0270  -13.3250   19.8830 N   0  0  0  0  0  0  0  0  0  0  0  0
  -31.8010  -14.6480   19.3530 O   0  0  0  0  0  0  0  0  0  0  0  0
  -29.9450  -15.6240   20.1660 N   0  0  0  0  0  0  0  0  0  0  0  0
  -29.0370  -15.4480   20.5670 H   0  0  0  0  0  0  0  0  0  0  0  0
  -25.3120  -13.7730   20.4170 C   0  0  0  0  0  0  0  0  0  0  0  0
  -24.2590  -13.0150   20.8560 C   0  0  0  0  0  0  0  0  0  0  0  0
  -24.6840  -11.6560   20.7600 C   0  0  0  0  0  0  0  0  0  0  0  0
  -26.3120  -12.8750   20.0830 N   0  0  0  0  0  0  0  0  0  0  0  0
  -25.9440  -11.5950   20.3460 N   0  0  0  0  0  0  0  0  0  0  0  0
  -23.9440  -10.4040   20.9790 C   0  0  0  0  0  0  0  0  0  0  0  0
  -24.3850   -9.4380   21.9090 C   0  0  0  0  0  3  0  0  0  0  0  0
  -23.6470   -8.2540   22.1150 C   0  0  0  0  0  3  0  0  0  0  0  0
  -22.4530   -8.0260   21.3920 C   0  0  0  0  0  0  0  0  0  0  0  0
  -22.0330   -8.9780   20.4480 C   0  0  0  0  0  3  0  0  0  0  0  0
  -22.7720  -10.1550   20.2390 C   0  0  0  0  0  3  0  0  0  0  0  0
  -21.6840   -6.8940   21.5080 O   0  0  0  0  0  0  0  0  0  0  0  0
  -21.6120   -6.1900   22.6830 C   0  0  0  0  0  0  0  0  0  0  0  0
  -21.1460   -6.7810   23.8790 C   0  0  0  0  0  3  0  0  0  0  0  0
  -21.0250   -6.0010   25.0480 C   0  0  0  0  0  3  0  0  0  0  0  0
  -21.3550   -4.6330   25.0200 C   0  0  0  0  0  0  0  0  0  0  0  0
  -21.8150   -4.0440   23.8290 C   0  0  0  0  0  3  0  0  0  0  0  0
  -21.9400   -4.8200   22.6640 C   0  0  0  0  0  0  0  0  0  0  0  0
  -22.3620   -4.2410   21.5150 F   0  0  0  0  0  0  0  0  0  0  0  0
  -21.2330   -3.8820   26.1410 F   0  0  0  0  0  0  0  0  0  0  0  0
  -22.8970  -13.5180   21.2460 C   0  0  0  0  0  0  0  0  0  0  0  0
  -22.2180  -12.8170   22.1460 N   0  0  0  0  0  0  0  0  0  0  0  0
  -22.4490  -14.5650   20.7820 O   0  0  0  0  0  0  0  0  0  0  0  0
  -22.5900  -11.9670   22.5410 H   0  0  0  0  0  0  0  0  0  0  0  0
  -21.3070  -13.1340   22.4450 H   0  0  0  0  0  0  0  0  0  0  0  0
  -25.4950  -15.1430   20.2560 N   0  0  0  0  0  0  0  0  0  0  0  0
  -24.7470  -15.8060   20.4300 H   0  0  0  0  0  0  0  0  0  0  0  0
  -26.3160  -15.5670   19.8430 H   0  0  0  0  0  0  0  0  0  0  0  0
  -29.4720  -24.3770   20.3820 C   0  0  0  0  0  2  0  0  0  0  0  0
  -28.7110  -25.0060   18.0070 C   0  0  0  0  0  1  0  0  0  0  0  0
  -28.4400  -25.1690   19.5090 C   0  0  0  0  0  3  0  0  0  0  0  0
  -28.4780  -26.5950   19.8630 O   0  0  0  0  0  0  0  0  0  0  0  0
  -24.6730  -31.6520   23.2530 C   0  0  0  0  0  0  0  0  0  0  0  0
  -27.3130  -27.3630   19.8830 C   0  0  0  0  0  0  0  0  0  0  0  0
  -23.4680  -30.3500   21.5330 C   0  0  0  0  0  3  0  0  0  0  0  0
  -24.9210  -28.9130   20.0020 C   0  0  0  0  0  0  0  0  0  0  0  0
  -26.0000  -30.7160   21.3490 C   0  0  0  0  0  2  0  0  0  0  0  0
  -26.0850  -29.3860   20.6170 C   0  0  0  0  0  0  0  0  0  0  0  0
  -27.2820  -28.6210   20.5490 C   0  0  0  0  0  3  0  0  0  0  0  0
  -26.1210  -26.9260   19.2610 C   0  0  0  0  0  3  0  0  0  0  0  0
  -24.9370  -27.6870   19.3190 C   0  0  0  0  0  3  0  0  0  0  0  0
  -23.6760  -29.7660   20.1100 C   0  0  0  0  0  2  0  0  0  0  0  0
  -24.7330  -30.9190   22.1030 N   0  0  0  0  0  0  0  0  0  0  0  0
  -23.5910  -31.8810   23.8130 O   0  0  0  0  0  0  0  0  0  0  0  0
  -22.8240  -29.2660   22.4290 C   0  0  0  0  0  0  0  0  0  0  0  0
  -21.5080  -29.0500   22.2660 N   0  0  0  0  0  0  0  0  0  0  0  0
  -23.5100  -28.6240   23.2290 O   0  0  0  0  0  0  0  0  0  0  0  0
  -21.0140  -29.6210   21.5950 H   0  0  0  0  0  0  0  0  0  0  0  0
  -18.1700  -27.7100   22.6120 C   0  0  0  0  0  0  0  0  0  0  0  0
  -20.7060  -28.0530   22.9760 C   0  0  0  0  0  3  0  0  0  0  0  0
  -20.8840  -26.6510   22.3470 C   0  0  0  0  0  2  0  0  0  0  0  0
  -19.8270  -26.3290   21.2880 C   0  0  0  0  0  2  0  0  0  0  0  0
  -18.4210  -26.3960   21.8900 C   0  0  0  0  0  2  0  0  0  0  0  0
  -19.2440  -28.4940   23.1070 C   0  0  0  0  0  0  0  0  0  0  0  0
  -18.9580  -29.7250   23.7370 C   0  0  0  0  0  3  0  0  0  0  0  0
  -17.6300  -30.1710   23.8780 C   0  0  0  0  0  3  0  0  0  0  0  0
  -16.5690  -29.3820   23.4010 C   0  0  0  0  0  3  0  0  0  0  0  0
  -16.8400  -28.1520   22.7740 C   0  0  0  0  0  3  0  0  0  0  0  0
  -25.9560  -32.2540   23.9030 C   0  0  0  0  0  3  0  0  0  0  0  0
  -25.6710  -33.6580   24.2310 N   0  0  0  0  0  0  0  0  0  0  0  0
  -26.0120  -34.7040   23.4670 C   0  0  0  0  0  0  0  0  0  0  0  0
  -26.6710  -34.5880   22.4310 O   0  0  0  0  0  0  0  0  0  0  0  0
  -25.0900  -33.8220   25.0400 H   0  0  0  0  0  0  0  0  0  0  0  0
  -24.2920  -36.5090   23.1360 C   0  0  0  0  0  1  0  0  0  0  0  0
  -25.5470  -36.1010   23.9250 C   0  0  0  0  0  3  0  0  0  0  0  0
  -27.7030  -36.9740   24.7110 C   0  0  0  0  0  1  0  0  0  0  0  0
  -26.5870  -37.1430   23.7830 N   0  0  0  0  0  0  0  0  0  0  0  0
  -26.1910  -38.0680   23.9290 H   0  0  0  0  0  0  0  0  0  0  0  0
  -26.4280  -31.4700   25.1880 C   0  0  1  0  0  0  0  0  0  0  0  0
  -25.3080  -31.2510   26.2300 C   0  0  0  0  0  1  0  0  0  0  0  0
  -26.9950  -30.0840   24.8040 C   0  0  0  0  0  1  0  0  0  0  0  0
  -27.5760  -32.2400   25.8820 C   0  0  0  0  0  1  0  0  0  0  0  0
  1  5  1  0
  2 54  1  0
  2  3  1  0
  2  4  1  0
  3 12  1  0
  3  1  1  0
  4 10  1  0
  4  5  1  0
  5  7  1  0
  6  5  1  0
  8 10  1  0
 10  9  1  0
 11 12  1  0
 13 14  1  0
 13 12  1  0
 15 24  1  0
 15 14  1  0
 16 22  1  0
 16 24  1  0
 17 22  1  0
 18 19  1  0
 18 17  1  0
 20 19  1  0
 20 29  1  0
 20 21  1  0
 22 21  1  0
 23 16  2  0
 24 25  1  0
 26 27  2  0
 27 46  1  0
 28 27  1  0
 28 31  1  0
 29 30  1  0
 29 26  1  0
 30 28  2  0
 31 32  1  0
 32 33  2  0
 34 37  1  0
 34 33  1  0
 35 34  2  0
 36 35  1  0
 36 31  2  0
 37 38  1  0
 38 39  1  0
 39 40  2  0
 41 40  1  0
 41 45  1  0
 42 41  2  0
 43 38  2  0
 43 42  1  0
 44 43  1  0
 46 47  1  0
 47 50  1  0
 47 49  1  0
 48 46  2  0
 51 26  1  0
 51 52  1  0
 53 51  1  0
 56 55  1  0
 56 57  1  0
 56 54  1  0
 57 59  1  0
 58 69  2  0
 59 64  1  0
 60 68  1  0
 60 70  1  0
 61 67  1  0
 61 63  1  0
 62 68  1  0
 63 62  1  0
 64 63  2  0
 65 66  1  0
 65 59  2  0
 66 61  2  0
 67 60  1  0
 68 58  1  0
 70 72  2  0
 71 70  1  0
 73 71  1  0
 74 83  2  0
 74 79  1  0
 75 71  1  0
 75 79  1  0
 76 75  1  0
 77 78  1  0
 77 76  1  0
 78 74  1  0
 79 80  2  0
 80 81  1  0
 82 81  2  0
 83 82  1  0
 84 58  1  0
 84 85  1  0
 84 94  1  0
 85 88  1  0
 86 90  1  0
 86 85  1  0
 87 86  2  0
 90 89  1  0
 92 90  1  0
 92 93  1  0
 92 91  1  0
 94 97  1  1
 94 95  1  0
 96 94  1  0
M  ISO  4  16 100  24 100  56 101  57 101
M  END
>  <TORSDO>  (80) 
F 23

>  <SCORE>  (80) 
-11.901

>  <name>  (80) 
79

>  <ligand_id>  (80) 
79

>  <original_smiles>  (80) 
[H]c1c([H])c([H])c2c(c1[H])C([H])([H])C([H])([H])C([H])([H])C2([H])N([H])C(=O)C1([H])N(C(=O)C([H])(N([H])C(=O)C([H])(N([H])C([H])([H])[H])C([H])([H])[H])C(C([H])([H])[H])(C([H])([H])[H])C([H])([H])[H])C([H])([H])c2c([H])c(OC([H])(C([H])([H])[H])C([H])([H])C3([H])C([H])(N(C([H])([H])[H])C([H])([H])C([H])([H])C([H])([H])N([H])C(=O)N4C([H])([H])C([H])([H])C([H])([H])C([H])(n5nc(-c6c([H])c([H])c(Oc7c([H])c([H])c(F)c([H])c7F)c([H])c6[H])c(C(=O)N([H])[H])c5N([H])[H])C4([H])[H])C([H])([H])[N+]([H])([H])C3([H])C([H])(C([H])([H])[H])C([H])([H])[H])c([H])c([H])c2C1([H])[H]

>  <smiles>  (80) 
[H]c1c([H])c([H])c2c(c1[H])C([H])([H])C([H])([H])C([H])([H])C2([H])N([H])C(=O)C1([H])N(C(=O)C([H])(N([H])C(=O)C([H])(N([H])C([H])([H])[H])C([H])([H])[H])C(C([H])([H])[H])(C([H])([H])[H])C([H])([H])[H])C([H])([H])c2c([H])c(OC([H])(C([H])([H])[H])C([H])([H])C3([H])C([H])(N(C([H])([H])[H])C([H])([H])C([H])([H])C([H])([H])N([H])C(=O)N4C([H])([H])C([H])([H])C([H])([H])C([H])(n5nc(-c6c([H])c([H])c(Oc7c([H])c([H])c(F)c([H])c7F)c([H])c6[H])c(C(=O)N([H])[H])c5N([H])[H])C4([H])[H])C([H])([H])[N+]([H])([H])C3([H])C([H])(C([H])([H])[H])C([H])([H])[H])c([H])c([H])c2C1([H])[H]

$$$$
80:0:0
     RDKit          3D

103112  0  0  1  0  0  0  0  0999 V2000
  -31.0470  -20.0350   18.9460 C   0  0  0  0  0  3  0  0  0  0  0  0
  -30.9840  -18.8210   19.6370 C   0  0  0  0  0  3  0  0  0  0  0  0
  -33.0600  -19.2300   17.8500 C   0  0  0  0  0  0  0  0  0  0  0  0
  -32.1030  -20.2910   18.0500 C   0  0  0  0  0  0  0  0  0  0  0  0
  -32.9420  -18.0430   18.6600 C   0  0  0  0  0  0  0  0  0  0  0  0
  -31.9140  -17.8590   19.5120 N   0  0  0  0  0  0  0  0  0  0  0  0
  -35.5730  -19.6240   17.3400 C   0  0  0  0  0  2  0  0  0  0  0  0
  -35.8500  -18.0820   15.6580 C   0  0  0  0  0  2  0  0  0  0  0  0
  -34.1680  -19.3830   16.7900 C   0  0  0  0  0  3  0  0  0  0  0  0
  -34.3240  -18.2650   15.7400 C   0  0  0  0  0  3  0  0  0  0  0  0
  -36.4040  -19.3260   16.1800 N   0  0  0  0  0  0  0  0  0  0  0  0
  -37.3750  -19.2010   16.4590 H   0  0  0  0  0  0  0  0  0  0  0  0
  -33.7420  -18.6560   14.4370 N   0  0  0  0  0  4  0  0  0  0  0  0
  -34.4380  -19.2200   13.9760 H   0  0  0  0  0  0  0  0  0  0  0  0
  -32.9350  -19.2350   14.6060 H   0  0  0  0  0  0  0  0  0  0  0  0
  -33.2430  -18.0250   12.0910 C   0  0  0  0  0  1  0  0  0  0  0  0
  -32.0010  -16.9190   13.9960 C   0  0  0  0  0  1  0  0  0  0  0  0
  -33.3370  -17.5410   13.5470 C   0  0  0  0  0  3  0  0  0  0  0  0
  -31.2750  -21.5070   16.0040 C   0  0  0  0  0  1  0  0  0  0  0  0
  -32.1050  -21.6550   17.2880 C   0  0  0  0  0  3  0  0  0  0  0  0
  -31.6430  -22.9120   18.1080 C   0  0  0  0  0  2  0  0  0  0  0  0
  -30.7290  -25.2030   17.6060 C   0  0  0  0  0  0  0  0  0  0  0  0
  -29.2080  -26.7640   16.4570 C   0  0  0  0  0  2  0  0  0  0  0  0
  -28.3870  -25.9670   15.4220 C   0  0  0  0  0  2  0  0  0  0  0  0
  -29.1390  -25.8880   14.0780 C   0  0  0  0  0  2  0  0  0  0  0  0
  -30.6190  -25.4490   14.2440 C   0  0  0  0  0  3  0  0  0  0  0  0
  -31.3180  -26.2380   15.3760 C   0  0  0  0  0  2  0  0  0  0  0  0
  -30.5090  -26.0910   16.5960 N   0  0  0  0  0  0  0  0  0  0  0  0
  -30.0670  -25.2060   18.6460 O   0  0  0  0  0  0  0  0  0  0  0  0
  -31.5620  -24.1760   17.3280 N   0  0  0  0  0  0  0  0  0  0  0  0
  -32.0720  -24.2230   16.4600 H   0  0  0  0  0  0  0  0  0  0  0  0
  -32.0820  -24.5600   12.3240 C   0  0  0  0  0  0  0  0  0  0  0  0
  -32.5030  -25.1320   11.1530 C   0  0  0  0  0  0  0  0  0  0  0  0
  -31.9870  -26.4640   11.1570 C   0  0  0  0  0  0  0  0  0  0  0  0
  -31.3520  -25.5360   12.9830 N   0  0  0  0  0  0  0  0  0  0  0  0
  -31.3460  -26.7060   12.2940 N   0  0  0  0  0  0  0  0  0  0  0  0
  -32.0180  -27.5030   10.1200 C   0  0  0  0  0  0  0  0  0  0  0  0
  -32.6420  -28.7500   10.3440 C   0  0  0  0  0  3  0  0  0  0  0  0
  -32.6750  -29.7280    9.3260 C   0  0  0  0  0  3  0  0  0  0  0  0
  -32.0840  -29.4620    8.0670 C   0  0  0  0  0  0  0  0  0  0  0  0
  -31.4450  -28.2270    7.8590 C   0  0  0  0  0  3  0  0  0  0  0  0
  -31.4080  -27.2580    8.8740 C   0  0  0  0  0  3  0  0  0  0  0  0
  -32.0430  -30.3610    7.0290 O   0  0  0  0  0  0  0  0  0  0  0  0
  -33.0670  -31.2460    6.8040 C   0  0  0  0  0  0  0  0  0  0  0  0
  -34.3880  -30.8100    6.5620 C   0  0  0  0  0  3  0  0  0  0  0  0
  -35.3950  -31.7500    6.2660 C   0  0  0  0  0  3  0  0  0  0  0  0
  -35.0840  -33.1210    6.2010 C   0  0  0  0  0  0  0  0  0  0  0  0
  -33.7670  -33.5550    6.4350 C   0  0  0  0  0  3  0  0  0  0  0  0
  -32.7610  -32.6200    6.7330 C   0  0  0  0  0  0  0  0  0  0  0  0
  -31.4900  -33.0410    6.9370 F   0  0  0  0  0  0  0  0  0  0  0  0
  -36.0490  -34.0230    5.9090 F   0  0  0  0  0  0  0  0  0  0  0  0
  -33.2550  -24.4510   10.0460 C   0  0  0  0  0  0  0  0  0  0  0  0
  -34.1420  -25.1750    9.3710 N   0  0  0  0  0  0  0  0  0  0  0  0
  -33.0970  -23.2560    9.8040 O   0  0  0  0  0  0  0  0  0  0  0  0
  -34.2900  -26.1510    9.5800 H   0  0  0  0  0  0  0  0  0  0  0  0
  -34.6820  -24.7430    8.6340 H   0  0  0  0  0  0  0  0  0  0  0  0
  -32.2400  -23.2890   12.8680 N   0  0  0  0  0  0  0  0  0  0  0  0
  -32.7040  -22.5470   12.3580 H   0  0  0  0  0  0  0  0  0  0  0  0
  -31.7890  -22.9730   13.7150 H   0  0  0  0  0  0  0  0  0  0  0  0
  -33.9550  -16.8730   18.7460 C   0  0  0  0  0  2  0  0  0  0  0  0
  -33.5280  -15.5390   18.0610 C   0  0  0  0  0  2  0  0  0  0  0  0
  -32.9570  -14.4010   18.9630 C   0  0  0  0  0  2  0  0  0  0  0  0
  -33.8920  -13.6390   19.7530 O   0  0  0  0  0  0  0  0  0  0  0  0
  -38.8910   -8.6900   20.9080 C   0  0  0  0  0  0  0  0  0  0  0  0
  -34.6210  -12.6000   19.1920 C   0  0  0  0  0  0  0  0  0  0  0  0
  -38.2810   -9.0650   18.5410 C   0  0  0  0  0  3  0  0  0  0  0  0
  -36.1900  -10.4770   18.1430 C   0  0  0  0  0  0  0  0  0  0  0  0
  -36.5840   -9.4960   20.4080 C   0  0  0  0  0  2  0  0  0  0  0  0
  -35.9680  -10.5640   19.5220 C   0  0  0  0  0  0  0  0  0  0  0  0
  -35.1910  -11.6230   20.0480 C   0  0  0  0  0  3  0  0  0  0  0  0
  -34.8440  -12.4780   17.8010 C   0  0  0  0  0  3  0  0  0  0  0  0
  -35.6310  -11.4330   17.2790 C   0  0  0  0  0  3  0  0  0  0  0  0
  -37.0350   -9.3230   17.6510 C   0  0  0  0  0  2  0  0  0  0  0  0
  -37.9540   -9.0930   20.0040 N   0  0  0  0  0  0  0  0  0  0  0  0
  -39.9950   -8.2640   20.5390 O   0  0  0  0  0  0  0  0  0  0  0  0
  -39.3900  -10.0670   18.1440 C   0  0  0  0  0  0  0  0  0  0  0  0
  -40.1130   -9.7590   17.0560 N   0  0  0  0  0  0  0  0  0  0  0  0
  -39.5660  -11.1030   18.7910 O   0  0  0  0  0  0  0  0  0  0  0  0
  -39.9140   -8.8870   16.5850 H   0  0  0  0  0  0  0  0  0  0  0  0
  -42.5730   -9.8740   14.4110 C   0  0  0  0  0  0  0  0  0  0  0  0
  -41.1800  -10.5720   16.4730 C   0  0  0  0  0  3  0  0  0  0  0  0
  -40.6010  -11.6910   15.5760 C   0  0  0  0  0  2  0  0  0  0  0  0
  -40.4970  -11.2890   14.1010 C   0  0  0  0  0  2  0  0  0  0  0  0
  -41.8740  -10.9120   13.5490 C   0  0  0  0  0  2  0  0  0  0  0  0
  -42.2350   -9.7030   15.7790 C   0  0  0  0  0  0  0  0  0  0  0  0
  -42.8900   -8.6990   16.5260 C   0  0  0  0  0  3  0  0  0  0  0  0
  -43.8650   -7.8780   15.9290 C   0  0  0  0  0  3  0  0  0  0  0  0
  -44.2070   -8.0640   14.5780 C   0  0  0  0  0  3  0  0  0  0  0  0
  -43.5650   -9.0610   13.8240 C   0  0  0  0  0  3  0  0  0  0  0  0
  -38.6150   -8.7210   22.4430 C   0  0  0  0  0  3  0  0  0  0  0  0
  -39.1720   -7.4880   23.0180 N   0  0  0  0  0  0  0  0  0  0  0  0
  -38.4530   -6.4030   23.3340 C   0  0  0  0  0  0  0  0  0  0  0  0
  -37.2230   -6.3630   23.2370 O   0  0  0  0  0  0  0  0  0  0  0  0
  -40.1780   -7.4310   23.0750 H   0  0  0  0  0  0  0  0  0  0  0  0
  -39.3630   -4.1470   22.7000 C   0  0  0  0  0  1  0  0  0  0  0  0
  -39.2180   -5.1650   23.8420 C   0  0  0  0  0  3  0  0  0  0  0  0
  -38.6740   -5.3120   26.2320 C   0  0  0  0  0  1  0  0  0  0  0  0
  -38.5820   -4.5180   25.0090 N   0  0  0  0  0  0  0  0  0  0  0  0
  -39.0000   -3.6090   25.1890 H   0  0  0  0  0  0  0  0  0  0  0  0
  -39.2170   -9.9920   23.1590 C   0  0  1  0  0  0  0  0  0  0  0  0
  -40.7310  -10.1880   22.9100 C   0  0  0  0  0  1  0  0  0  0  0  0
  -38.4920  -11.2750   22.6910 C   0  0  0  0  0  1  0  0  0  0  0  0
  -38.9960   -9.8890   24.6860 C   0  0  0  0  0  1  0  0  0  0  0  0
  1  2  1  0
  3  4  1  0
  3  5  2  0
  4  1  2  0
  5 60  1  0
  5  6  1  0
  6  2  2  0
  8 10  1  0
  8 11  1  0
  9  7  1  0
  9  3  1  0
 10 13  1  0
 10  9  1  0
 11 12  1  0
 11  7  1  0
 13 15  1  0
 14 13  1  0
 16 18  1  0
 18 17  1  0
 18 13  1  0
 20 19  1  0
 20  4  1  0
 20 21  1  0
 22 29  2  0
 23 28  1  0
 24 23  1  0
 25 26  1  0
 25 24  1  0
 26 35  1  0
 26 27  1  0
 27 28  1  0
 28 22  1  0
 30 22  1  0
 30 21  1  0
 31 30  1  0
 32 57  1  0
 32 35  1  0
 33 34  1  0
 33 32  2  0
 34 36  2  0
 36 35  1  0
 37 38  1  0
 37 34  1  0
 39 38  2  0
 40 39  1  0
 41 40  2  0
 41 42  1  0
 42 37  2  0
 43 40  1  0
 44 43  1  0
 45 44  2  0
 46 45  1  0
 47 46  2  0
 47 48  1  0
 48 49  2  0
 49 44  1  0
 49 50  1  0
 51 47  1  0
 52 33  1  0
 53 55  1  0
 53 52  1  0
 54 52  2  0
 56 53  1  0
 57 59  1  0
 58 57  1  0
 61 60  1  0
 61 62  1  0
 62 63  1  0
 65 63  1  0
 65 70  1  0
 66 76  1  0
 66 74  1  0
 67 69  1  0
 69 70  2  0
 69 68  1  0
 71 65  2  0
 72 71  1  0
 72 67  2  0
 73 67  1  0
 73 66  1  0
 74 68  1  0
 74 64  1  0
 75 64  2  0
 76 78  2  0
 77 76  1  0
 79 77  1  0
 80 85  1  0
 81 77  1  0
 82 81  1  0
 83 82  1  0
 84 83  1  0
 84 80  1  0
 85 81  1  0
 85 86  2  0
 87 86  1  0
 88 87  2  0
 89 80  2  0
 89 88  1  0
 90 64  1  0
 90 91  1  0
 90100  1  0
 91 94  1  0
 91 92  1  0
 92 96  1  0
 93 92  2  0
 96 95  1  0
 96 98  1  0
 98 99  1  0
 98 97  1  0
100103  1  1
101100  1  0
102100  1  0
M  ISO  4  22 100  30 100  62 101  63 101
M  END
>  <TORSDO>  (81) 
F 24

>  <SCORE>  (81) 
-2.426

>  <name>  (81) 
80

>  <ligand_id>  (81) 
80

>  <original_smiles>  (81) 
[H]c1nc(C([H])([H])C([H])([H])C([H])([H])Oc2c([H])c([H])c3c(c2[H])C([H])([H])N(C(=O)C([H])(N([H])C(=O)C([H])(N([H])C([H])([H])[H])C([H])([H])[H])C(C([H])([H])[H])(C([H])([H])[H])C([H])([H])[H])C([H])(C(=O)N([H])C2([H])c4c([H])c([H])c([H])c([H])c4C([H])([H])C([H])([H])C2([H])[H])C3([H])[H])c(C2([H])C([H])([H])N([H])C([H])([H])C2([H])[N+]([H])([H])C([H])(C([H])([H])[H])C([H])([H])[H])c(C([H])(C([H])([H])[H])C([H])([H])N([H])C(=O)N2C([H])([H])C([H])([H])C([H])([H])C([H])(n3nc(-c4c([H])c([H])c(Oc5c([H])c([H])c(F)c([H])c5F)c([H])c4[H])c(C(=O)N([H])[H])c3N([H])[H])C2([H])[H])c1[H]

>  <smiles>  (81) 
[H]c1nc(C([H])([H])C([H])([H])C([H])([H])Oc2c([H])c([H])c3c(c2[H])C([H])([H])N(C(=O)C([H])(N([H])C(=O)C([H])(N([H])C([H])([H])[H])C([H])([H])[H])C(C([H])([H])[H])(C([H])([H])[H])C([H])([H])[H])C([H])(C(=O)N([H])C2([H])c4c([H])c([H])c([H])c([H])c4C([H])([H])C([H])([H])C2([H])[H])C3([H])[H])c(C2([H])C([H])([H])N([H])C([H])([H])C2([H])[N+]([H])([H])C([H])(C([H])([H])[H])C([H])([H])[H])c(C([H])(C([H])([H])[H])C([H])([H])N([H])C(=O)N2C([H])([H])C([H])([H])C([H])([H])C([H])(n3nc(-c4c([H])c([H])c(Oc5c([H])c([H])c(F)c([H])c5F)c([H])c4[H])c(C(=O)N([H])[H])c3N([H])[H])C2([H])[H])c1[H]

$$$$
81:0:0
     RDKit          3D

 98106  0  0  1  0  0  0  0  0999 V2000
  -28.9400  -21.2980   19.6460 C   0  0  0  0  0  3  0  0  0  0  0  0
  -29.9120  -22.9070   21.1980 C   0  0  0  0  0  3  0  0  0  0  0  0
  -30.5600  -20.5370   21.2970 C   0  0  0  0  0  3  0  0  0  0  0  0
  -29.0330  -22.6810   20.1170 C   0  0  0  0  0  0  0  0  0  0  0  0
  -29.6940  -20.1880   20.2360 C   0  0  0  0  0  0  0  0  0  0  0  0
  -30.6410  -21.8550   21.7950 C   0  0  0  0  0  0  0  0  0  0  0  0
  -31.3600  -22.0880   22.9700 N   0  0  0  0  0  0  0  0  0  0  0  0
  -32.0430  -21.3620   23.1730 H   0  0  0  0  0  0  0  0  0  0  0  0
  -31.0920  -21.7120   25.3860 C   0  0  0  0  0  1  0  0  0  0  0  0
  -30.5100  -22.3690   24.1280 C   0  0  0  0  0  2  0  0  0  0  0  0
  -28.0470  -23.8850   19.7510 C   0  0  0  0  0  2  0  0  0  0  0  0
  -27.9890  -25.4830   17.6380 C   0  0  0  0  0  1  0  0  0  0  0  0
  -28.4950  -25.3030   19.0920 C   0  0  0  0  0  3  0  0  0  0  0  0
  -28.3490  -26.6570   19.7150 O   0  0  0  0  0  0  0  0  0  0  0  0
  -24.6410  -31.8180   23.1370 C   0  0  0  0  0  0  0  0  0  0  0  0
  -27.2000  -27.4700   19.7120 C   0  0  0  0  0  0  0  0  0  0  0  0
  -23.3920  -30.4820   21.4790 C   0  0  0  0  0  3  0  0  0  0  0  0
  -24.8080  -29.0430   19.8970 C   0  0  0  0  0  0  0  0  0  0  0  0
  -25.9130  -30.8660   21.1920 C   0  0  0  0  0  2  0  0  0  0  0  0
  -25.9930  -29.5220   20.4680 C   0  0  0  0  0  0  0  0  0  0  0  0
  -27.1870  -28.7460   20.3660 C   0  0  0  0  0  3  0  0  0  0  0  0
  -25.9850  -27.0370   19.1370 C   0  0  0  0  0  3  0  0  0  0  0  0
  -24.8080  -27.8100   19.2270 C   0  0  0  0  0  3  0  0  0  0  0  0
  -23.5580  -29.8910   20.0500 C   0  0  0  0  0  2  0  0  0  0  0  0
  -24.6710  -31.0680   21.9930 N   0  0  0  0  0  0  0  0  0  0  0  0
  -23.5790  -32.0430   23.7330 O   0  0  0  0  0  0  0  0  0  0  0  0
  -22.7940  -29.3980   22.4060 C   0  0  0  0  0  0  0  0  0  0  0  0
  -21.4790  -29.1490   22.2820 N   0  0  0  0  0  0  0  0  0  0  0  0
  -23.5120  -28.7840   23.2020 O   0  0  0  0  0  0  0  0  0  0  0  0
  -20.9520  -29.6960   21.6150 H   0  0  0  0  0  0  0  0  0  0  0  0
  -18.1960  -27.6870   22.7080 C   0  0  0  0  0  0  0  0  0  0  0  0
  -20.7220  -28.1430   23.0250 C   0  0  0  0  0  3  0  0  0  0  0  0
  -20.9450  -26.7270   22.4400 C   0  0  0  0  0  2  0  0  0  0  0  0
  -19.8900  -26.3300   21.4020 C   0  0  0  0  0  2  0  0  0  0  0  0
  -18.4900  -26.3620   22.0190 C   0  0  0  0  0  2  0  0  0  0  0  0
  -19.2450  -28.5310   23.1630 C   0  0  0  0  0  0  0  0  0  0  0  0
  -18.9180  -29.7650   23.7640 C   0  0  0  0  0  3  0  0  0  0  0  0
  -17.5760  -30.1630   23.9120 C   0  0  0  0  0  3  0  0  0  0  0  0
  -16.5440  -29.3180   23.4710 C   0  0  0  0  0  3  0  0  0  0  0  0
  -16.8520  -28.0810   22.8770 C   0  0  0  0  0  3  0  0  0  0  0  0
  -25.9380  -32.4450   23.7310 C   0  0  0  0  0  3  0  0  0  0  0  0
  -26.5090  -31.6460   24.9670 C   0  0  1  0  0  0  0  0  0  0  0  0
  -25.4530  -31.3700   26.0680 C   0  0  0  0  0  1  0  0  0  0  0  0
  -27.0890  -30.2850   24.5170 C   0  0  0  0  0  1  0  0  0  0  0  0
  -27.6780  -32.4360   25.6030 C   0  0  0  0  0  1  0  0  0  0  0  0
  -25.6280  -33.8310   24.1140 N   0  0  0  0  0  0  0  0  0  0  0  0
  -25.9380  -34.9090   23.3800 C   0  0  0  0  0  0  0  0  0  0  0  0
  -26.5810  -34.8380   22.3280 O   0  0  0  0  0  0  0  0  0  0  0  0
  -25.0620  -33.9620   24.9400 H   0  0  0  0  0  0  0  0  0  0  0  0
  -24.1900  -36.7070   23.1210 C   0  0  0  0  0  1  0  0  0  0  0  0
  -25.4510  -36.2810   23.8920 C   0  0  0  0  0  3  0  0  0  0  0  0
  -27.5950  -37.1540   24.7130 C   0  0  0  0  0  1  0  0  0  0  0  0
  -26.4750  -37.3420   23.7970 N   0  0  0  0  0  0  0  0  0  0  0  0
  -26.0610  -38.2470   23.9950 H   0  0  0  0  0  0  0  0  0  0  0  0
  -29.4670  -18.6110   20.0080 C   0  0  0  0  0  3  0  0  0  0  0  0
  -28.7950  -18.3380   18.7310 N   0  0  0  0  0  4  0  0  0  0  0  0
  -29.3870  -18.5910   17.9600 H   0  0  0  0  0  0  0  0  0  0  0  0
  -27.9350  -18.8550   18.6820 H   0  0  0  0  0  0  0  0  0  0  0  0
  -28.5760  -17.3620   18.6670 H   0  0  0  0  0  0  0  0  0  0  0  0
  -30.6250  -17.4930   20.2760 C   0  0  0  0  0  2  0  0  0  0  0  0
  -31.0580  -14.8720   19.9430 C   0  0  0  0  0  0  0  0  0  0  0  0
  -30.8160  -12.5810   18.9810 C   0  0  0  0  0  2  0  0  0  0  0  0
  -29.8410  -12.6230   17.7820 C   0  0  0  0  0  2  0  0  0  0  0  0
  -28.3790  -12.4880   18.2570 C   0  0  0  0  0  2  0  0  0  0  0  0
  -28.0490  -13.4300   19.4420 C   0  0  0  0  0  3  0  0  0  0  0  0
  -29.1270  -13.3500   20.5440 C   0  0  0  0  0  2  0  0  0  0  0  0
  -30.4160  -13.6570   19.9130 N   0  0  0  0  0  0  0  0  0  0  0  0
  -32.2450  -14.9550   19.6190 O   0  0  0  0  0  0  0  0  0  0  0  0
  -30.2790  -16.0050   20.1370 N   0  0  0  0  0  0  0  0  0  0  0  0
  -29.3090  -15.7850   20.3210 H   0  0  0  0  0  0  0  0  0  0  0  0
  -25.7060  -14.1150   20.2370 C   0  0  0  0  0  0  0  0  0  0  0  0
  -24.6210  -13.3820   20.6330 C   0  0  0  0  0  0  0  0  0  0  0  0
  -25.0300  -12.0150   20.5850 C   0  0  0  0  0  0  0  0  0  0  0  0
  -26.7090  -13.1960   19.9700 N   0  0  0  0  0  0  0  0  0  0  0  0
  -26.3100  -11.9280   20.2450 N   0  0  0  0  0  0  0  0  0  0  0  0
  -24.2580  -10.7820   20.7880 C   0  0  0  0  0  0  0  0  0  0  0  0
  -24.6510   -9.8130   21.7370 C   0  0  0  0  0  3  0  0  0  0  0  0
  -23.8830   -8.6420   21.9230 C   0  0  0  0  0  3  0  0  0  0  0  0
  -22.7100   -8.4330   21.1620 C   0  0  0  0  0  0  0  0  0  0  0  0
  -22.3350   -9.3920   20.2030 C   0  0  0  0  0  3  0  0  0  0  0  0
  -23.1030  -10.5520   20.0140 C   0  0  0  0  0  3  0  0  0  0  0  0
  -21.9150   -7.3170   21.2580 O   0  0  0  0  0  0  0  0  0  0  0  0
  -21.7980   -6.6160   22.4330 C   0  0  0  0  0  0  0  0  0  0  0  0
  -21.3470   -7.2280   23.6210 C   0  0  0  0  0  3  0  0  0  0  0  0
  -21.1750   -6.4570   24.7880 C   0  0  0  0  0  3  0  0  0  0  0  0
  -21.4430   -5.0750   24.7670 C   0  0  0  0  0  0  0  0  0  0  0  0
  -21.8890   -4.4650   23.5820 C   0  0  0  0  0  3  0  0  0  0  0  0
  -22.0610   -5.2320   22.4160 C   0  0  0  0  0  0  0  0  0  0  0  0
  -22.4710   -4.6340   21.2720 F   0  0  0  0  0  0  0  0  0  0  0  0
  -21.2710   -4.3340   25.8860 F   0  0  0  0  0  0  0  0  0  0  0  0
  -23.2500  -13.9150   20.9390 C   0  0  0  0  0  0  0  0  0  0  0  0
  -22.5210  -13.2520   21.8310 N   0  0  0  0  0  0  0  0  0  0  0  0
  -22.8340  -14.9500   20.4220 O   0  0  0  0  0  0  0  0  0  0  0  0
  -22.8680  -12.4110   22.2710 H   0  0  0  0  0  0  0  0  0  0  0  0
  -21.6040  -13.5910   22.0810 H   0  0  0  0  0  0  0  0  0  0  0  0
  -25.9170  -15.4780   20.0550 N   0  0  0  0  0  0  0  0  0  0  0  0
  -25.1720  -16.1580   20.1600 H   0  0  0  0  0  0  0  0  0  0  0  0
  -26.7490  -15.8710   19.6410 H   0  0  0  0  0  0  0  0  0  0  0  0
  1  4  2  0
  1  5  1  0
  2  6  2  0
  3  6  1  0
  4  2  1  0
  5  3  2  0
  6  7  1  0
  7  8  1  0
  7 10  1  0
 10  9  1  0
 11  4  1  0
 13 12  1  0
 13 14  1  0
 13 11  1  0
 15 26  2  0
 16 14  1  0
 16 21  1  0
 17 25  1  0
 17 27  1  0
 18 24  1  0
 18 20  1  0
 19 25  1  0
 20 19  1  0
 21 20  2  0
 22 23  1  0
 22 16  2  0
 23 18  2  0
 24 17  1  0
 25 15  1  0
 27 29  2  0
 28 27  1  0
 30 28  1  0
 31 40  2  0
 31 36  1  0
 32 28  1  0
 32 36  1  0
 33 32  1  0
 34 35  1  0
 34 33  1  0
 35 31  1  0
 36 37  2  0
 37 38  1  0
 39 38  2  0
 40 39  1  0
 41 15  1  0
 41 46  1  0
 41 42  1  0
 42 45  1  1
 42 43  1  0
 44 42  1  0
 46 49  1  0
 47 51  1  0
 47 46  1  0
 48 47  2  0
 51 50  1  0
 53 51  1  0
 53 54  1  0
 53 52  1  0
 55  5  1  0
 55 60  1  0
 56 55  1  0
 57 56  1  0
 58 56  1  0
 59 56  1  0
 61 69  1  0
 62 67  1  0
 63 64  1  0
 63 62  1  0
 65 64  1  0
 65 74  1  0
 65 66  1  0
 67 61  1  0
 67 66  1  0
 68 61  2  0
 69 60  1  0
 69 70  1  0
 71 72  2  0
 72 91  1  0
 73 72  1  0
 73 76  1  0
 74 71  1  0
 74 75  1  0
 75 73  2  0
 76 77  1  0
 77 78  2  0
 79 82  1  0
 79 78  1  0
 80 79  2  0
 81 80  1  0
 81 76  2  0
 82 83  1  0
 83 84  1  0
 84 85  2  0
 86 85  1  0
 86 90  1  0
 87 86  2  0
 88 83  2  0
 88 87  1  0
 89 88  1  0
 91 92  1  0
 92 95  1  0
 92 94  1  0
 93 91  2  0
 96 97  1  0
 96 71  1  0
 98 96  1  0
M  ISO  4  13 101  14 101  61 100  69 100
M  END
>  <TORSDO>  (82) 
F 23

>  <SCORE>  (82) 
-12.535

>  <name>  (82) 
81

>  <ligand_id>  (82) 
81

>  <original_smiles>  (82) 
[H]c1c([H])c([H])c2c(c1[H])C([H])([H])C([H])([H])C([H])([H])C2([H])N([H])C(=O)C1([H])N(C(=O)C([H])(N([H])C(=O)C([H])(N([H])C([H])([H])[H])C([H])([H])[H])C(C([H])([H])[H])(C([H])([H])[H])C([H])([H])[H])C([H])([H])c2c([H])c(OC([H])(C([H])([H])[H])C([H])([H])c3c([H])c(N([H])C([H])([H])C([H])([H])[H])c([H])c(C([H])(C([H])([H])N([H])C(=O)N4C([H])([H])C([H])([H])C([H])([H])C([H])(n5nc(-c6c([H])c([H])c(Oc7c([H])c([H])c(F)c([H])c7F)c([H])c6[H])c(C(=O)N([H])[H])c5N([H])[H])C4([H])[H])[N+]([H])([H])[H])c3[H])c([H])c([H])c2C1([H])[H]

>  <smiles>  (82) 
[H]c1c([H])c([H])c2c(c1[H])C([H])([H])C([H])([H])C([H])([H])C2([H])N([H])C(=O)C1([H])N(C(=O)C([H])(N([H])C(=O)C([H])(N([H])C([H])([H])[H])C([H])([H])[H])C(C([H])([H])[H])(C([H])([H])[H])C([H])([H])[H])C([H])([H])c2c([H])c(OC([H])(C([H])([H])[H])C([H])([H])c3c([H])c(N([H])C([H])([H])C([H])([H])[H])c([H])c(C([H])(C([H])([H])N([H])C(=O)N4C([H])([H])C([H])([H])C([H])([H])C([H])(n5nc(-c6c([H])c([H])c(Oc7c([H])c([H])c(F)c([H])c7F)c([H])c6[H])c(C(=O)N([H])[H])c5N([H])[H])C4([H])[H])[N+]([H])([H])[H])c3[H])c([H])c([H])c2C1([H])[H]

$$$$
82:0:0
     RDKit          3D

103112  0  0  1  0  0  0  0  0999 V2000
  -27.6510  -19.0380   17.9550 C   0  0  0  0  0  2  0  0  0  0  0  0
  -29.4950  -17.8670   17.8600 C   0  0  0  0  0  2  0  0  0  0  0  0
  -28.7090  -18.6960   17.1110 C   0  0  0  0  0  3  0  0  0  0  0  0
  -28.1390  -19.0040   19.2280 C   0  0  0  0  0  3  0  0  0  0  0  0
  -29.1560  -18.0010   19.2150 N   0  0  0  0  0  0  0  0  0  0  0  0
  -29.8900  -18.1980   21.5660 C   0  0  0  0  0  2  0  0  0  0  0  0
  -30.8190  -17.7260   22.7340 C   0  0  0  0  0  2  0  0  0  0  0  0
  -29.9830  -15.4780   22.1810 C   0  0  0  0  0  2  0  0  0  0  0  0
  -29.9250  -17.3110   20.3090 C   0  0  0  0  0  3  0  0  0  0  0  0
  -29.6620  -15.7520   20.6660 C   0  0  0  0  0  3  0  0  0  0  0  0
  -31.1260  -16.2790   22.6640 N   0  0  0  0  0  4  0  0  0  0  0  0
  -31.4110  -15.9470   23.5750 H   0  0  0  0  0  0  0  0  0  0  0  0
  -31.9460  -16.1400   22.0970 H   0  0  0  0  0  0  0  0  0  0  0  0
  -31.2160  -13.7090   20.2150 C   0  0  0  0  0  0  0  0  0  0  0  0
  -31.0740  -11.3150   19.7330 C   0  0  0  0  0  2  0  0  0  0  0  0
  -30.1100  -11.1040   18.5550 C   0  0  0  0  0  2  0  0  0  0  0  0
  -28.6550  -10.9820   19.0530 C   0  0  0  0  0  2  0  0  0  0  0  0
  -28.2740  -12.0830   20.0830 C   0  0  0  0  0  3  0  0  0  0  0  0
  -29.3620  -12.2520   21.1710 C   0  0  0  0  0  2  0  0  0  0  0  0
  -30.6160  -12.5110   20.4520 N   0  0  0  0  0  0  0  0  0  0  0  0
  -32.3990  -13.8000   19.8930 O   0  0  0  0  0  0  0  0  0  0  0  0
  -30.4290  -14.7620   19.8350 N   0  0  0  0  0  0  0  0  0  0  0  0
  -30.9370  -15.2610   19.1230 H   0  0  0  0  0  0  0  0  0  0  0  0
  -26.0390  -12.7680   21.1240 C   0  0  0  0  0  0  0  0  0  0  0  0
  -24.9270  -12.0600   21.4510 C   0  0  0  0  0  0  0  0  0  0  0  0
  -25.2260  -10.6900   21.1470 C   0  0  0  0  0  0  0  0  0  0  0  0
  -26.9530  -11.8480   20.6470 N   0  0  0  0  0  0  0  0  0  0  0  0
  -26.4720  -10.5830   20.7140 N   0  0  0  0  0  0  0  0  0  0  0  0
  -24.3780   -9.4980   21.1680 C   0  0  0  0  0  0  0  0  0  0  0  0
  -24.4730   -8.5470   22.2130 C   0  0  0  0  0  3  0  0  0  0  0  0
  -23.6360   -7.4140   22.2280 C   0  0  0  0  0  3  0  0  0  0  0  0
  -22.6810   -7.2230   21.2000 C   0  0  0  0  0  0  0  0  0  0  0  0
  -22.5990   -8.1620   20.1520 C   0  0  0  0  0  3  0  0  0  0  0  0
  -23.4380   -9.2870   20.1360 C   0  0  0  0  0  3  0  0  0  0  0  0
  -21.8340   -6.1470   21.1260 O   0  0  0  0  0  0  0  0  0  0  0  0
  -21.1190   -5.7080   22.2160 C   0  0  0  0  0  0  0  0  0  0  0  0
  -20.1120   -6.4970   22.8050 C   0  0  0  0  0  3  0  0  0  0  0  0
  -19.3520   -5.9800   23.8780 C   0  0  0  0  0  3  0  0  0  0  0  0
  -19.6030   -4.6830   24.3560 C   0  0  0  0  0  0  0  0  0  0  0  0
  -20.6000   -3.8910   23.7610 C   0  0  0  0  0  3  0  0  0  0  0  0
  -21.3600   -4.4050   22.6920 C   0  0  0  0  0  0  0  0  0  0  0  0
  -22.3090   -3.6290   22.1130 F   0  0  0  0  0  0  0  0  0  0  0  0
  -18.8680   -4.1840   25.3780 F   0  0  0  0  0  0  0  0  0  0  0  0
  -23.6200  -12.6050   21.9510 C   0  0  0  0  0  0  0  0  0  0  0  0
  -22.9740  -11.9110   22.8700 N   0  0  0  0  0  0  0  0  0  0  0  0
  -23.1900  -13.6880   21.5420 O   0  0  0  0  0  0  0  0  0  0  0  0
  -23.3430  -11.0340   23.2130 H   0  0  0  0  0  0  0  0  0  0  0  0
  -22.0970  -12.2420   23.2480 H   0  0  0  0  0  0  0  0  0  0  0  0
  -26.3580  -14.1350   21.1510 N   0  0  0  0  0  0  0  0  0  0  0  0
  -25.6840  -14.8330   21.4340 H   0  0  0  0  0  0  0  0  0  0  0  0
  -27.1860  -14.5310   20.7420 H   0  0  0  0  0  0  0  0  0  0  0  0
  -26.3620  -20.6680   20.2410 C   0  0  0  0  0  1  0  0  0  0  0  0
  -28.8030  -21.3090   20.1150 C   0  0  0  0  0  1  0  0  0  0  0  0
  -27.7990  -20.1070   20.2250 C   0  0  0  0  0  3  0  0  0  0  0  0
  -27.6140  -18.8930   14.8740 C   0  0  0  0  0  1  0  0  0  0  0  0
  -28.8640  -19.2210   15.7010 C   0  0  0  0  0  3  0  0  0  0  0  0
  -29.1070  -20.7080   15.7270 N   0  0  0  0  0  4  0  0  0  0  0  0
  -29.4850  -21.0000   14.8420 H   0  0  0  0  0  0  0  0  0  0  0  0
  -28.1950  -21.1340   15.8420 H   0  0  0  0  0  0  0  0  0  0  0  0
  -30.0150  -21.2620   16.7760 C   0  0  0  0  0  2  0  0  0  0  0  0
  -29.7290  -22.7810   17.0890 C   0  0  0  0  0  3  0  0  0  0  0  0
  -30.2720  -23.4340   18.4430 C   0  0  0  0  0  3  0  0  0  0  0  0
  -30.3410  -24.8910   18.6680 O   0  0  0  0  0  0  0  0  0  0  0  0
  -25.6200  -28.7650   22.5170 C   0  0  0  0  0  0  0  0  0  0  0  0
  -29.1870  -25.6630   18.7360 C   0  0  0  0  0  0  0  0  0  0  0  0
  -24.9920  -28.2270   20.1870 C   0  0  0  0  0  3  0  0  0  0  0  0
  -26.8490  -27.2880   18.7210 C   0  0  0  0  0  0  0  0  0  0  0  0
  -27.4510  -28.3840   20.8720 C   0  0  0  0  0  2  0  0  0  0  0  0
  -27.7520  -27.3700   19.7920 C   0  0  0  0  0  0  0  0  0  0  0  0
  -28.9030  -26.5370   19.8290 C   0  0  0  0  0  3  0  0  0  0  0  0
  -28.2880  -25.6750   17.6530 C   0  0  0  0  0  3  0  0  0  0  0  0
  -27.1170  -26.4380   17.6460 C   0  0  0  0  0  3  0  0  0  0  0  0
  -25.6230  -28.1860   18.7600 C   0  0  0  0  0  2  0  0  0  0  0  0
  -26.0200  -28.4430   21.2510 N   0  0  0  0  0  0  0  0  0  0  0  0
  -24.4210  -28.9140   22.7880 O   0  0  0  0  0  0  0  0  0  0  0  0
  -24.1530  -26.9290   20.3830 C   0  0  0  0  0  0  0  0  0  0  0  0
  -22.9170  -26.9230   19.8380 N   0  0  0  0  0  0  0  0  0  0  0  0
  -24.6030  -25.9770   21.0330 O   0  0  0  0  0  0  0  0  0  0  0  0
  -22.5960  -27.7340   19.3200 H   0  0  0  0  0  0  0  0  0  0  0  0
  -19.4890  -26.0060   19.2700 C   0  0  0  0  0  0  0  0  0  0  0  0
  -21.9470  -25.8390   20.0260 C   0  0  0  0  0  3  0  0  0  0  0  0
  -22.0310  -24.7260   18.9440 C   0  0  0  0  0  2  0  0  0  0  0  0
  -21.2360  -25.1150   17.7040 C   0  0  0  0  0  2  0  0  0  0  0  0
  -19.7530  -25.0670   18.1040 C   0  0  0  0  0  2  0  0  0  0  0  0
  -20.5280  -26.3890   20.1520 C   0  0  0  0  0  0  0  0  0  0  0  0
  -20.2430  -27.3030   21.1930 C   0  0  0  0  0  3  0  0  0  0  0  0
  -18.9480  -27.8310   21.3500 C   0  0  0  0  0  3  0  0  0  0  0  0
  -17.9090  -27.4390   20.4720 C   0  0  0  0  0  3  0  0  0  0  0  0
  -18.1900  -26.5140   19.4510 C   0  0  0  0  0  3  0  0  0  0  0  0
  -26.6540  -28.9950   23.6570 C   0  0  0  0  0  3  0  0  0  0  0  0
  -26.2210  -30.1920   24.4010 N   0  0  0  0  0  0  0  0  0  0  0  0
  -26.7850  -31.4050   24.2860 C   0  0  0  0  0  0  0  0  0  0  0  0
  -27.8020  -31.6050   23.6120 O   0  0  0  0  0  0  0  0  0  0  0  0
  -25.3400  -30.1150   24.8960 H   0  0  0  0  0  0  0  0  0  0  0  0
  -25.3220  -33.4260   24.1020 C   0  0  0  0  0  1  0  0  0  0  0  0
  -26.1430  -32.5600   25.0660 C   0  0  0  0  0  3  0  0  0  0  0  0
  -27.7430  -32.7290   26.9140 C   0  0  0  0  0  1  0  0  0  0  0  0
  -27.1270  -33.4050   25.7740 N   0  0  0  0  0  0  0  0  0  0  0  0
  -26.6890  -34.2560   26.1160 H   0  0  0  0  0  0  0  0  0  0  0  0
  -26.8080  -27.7530   24.6230 C   0  0  1  0  0  0  0  0  0  0  0  0
  -25.4700  -27.2210   25.1650 C   0  0  0  0  0  1  0  0  0  0  0  0
  -27.5050  -26.5830   23.9010 C   0  0  0  0  0  1  0  0  0  0  0  0
  -27.7100  -28.1220   25.8240 C   0  0  0  0  0  1  0  0  0  0  0  0
  1  4  1  0
  3 56  1  0
  3  2  1  0
  3  1  1  0
  4 54  1  0
  5  2  1  0
  5  4  1  0
  5  9  1  0
  6  7  1  0
  8 11  1  0
  9 10  1  0
  9  6  1  0
 10 22  1  0
 10  8  1  0
 11  7  1  0
 11 12  1  0
 13 11  1  0
 14 20  1  0
 15 20  1  0
 16 17  1  0
 16 15  1  0
 18 17  1  0
 18 27  1  0
 18 19  1  0
 20 19  1  0
 21 14  2  0
 22 14  1  0
 23 22  1  0
 24 49  1  0
 24 25  2  0
 25 44  1  0
 26 29  1  0
 26 25  1  0
 27 28  1  0
 27 24  1  0
 28 26  2  0
 29 30  1  0
 30 31  2  0
 32 31  1  0
 33 32  2  0
 34 33  1  0
 34 29  2  0
 35 32  1  0
 35 36  1  0
 36 41  2  0
 36 37  1  0
 37 38  2  0
 38 39  1  0
 39 43  1  0
 40 39  2  0
 41 40  1  0
 42 41  1  0
 44 45  1  0
 45 47  1  0
 45 48  1  0
 46 44  2  0
 49 50  1  0
 51 49  1  0
 53 54  1  0
 54 52  1  0
 56 55  1  0
 56 57  1  0
 57 59  1  0
 57 60  1  0
 58 57  1  0
 60 61  1  0
 61 62  2  0
 62 63  1  0
 63 65  1  0
 64 75  2  0
 65 70  1  0
 66 76  1  0
 66 74  1  0
 67 73  1  0
 67 69  1  0
 68 74  1  0
 69 70  2  0
 69 68  1  0
 71 65  2  0
 72 71  1  0
 72 67  2  0
 73 66  1  0
 74 64  1  0
 76 78  2  0
 77 76  1  0
 79 77  1  0
 80 89  2  0
 80 85  1  0
 81 77  1  0
 81 85  1  0
 82 81  1  0
 83 84  1  0
 83 82  1  0
 84 80  1  0
 85 86  2  0
 86 87  1  0
 88 87  2  0
 89 88  1  0
 90 64  1  0
 90 91  1  0
 90100  1  0
 91 94  1  0
 92 91  1  0
 92 96  1  0
 93 92  2  0
 96 95  1  0
 96 98  1  0
 98 99  1  0
 98 97  1  0
100101  1  1
100103  1  0
102100  1  0
M  ISO  4  14 100  22 100  62 101  63 101
M  END
>  <TORSDO>  (83) 
F 23

>  <SCORE>  (83) 
-2.645

>  <name>  (83) 
82

>  <ligand_id>  (83) 
82

>  <original_smiles>  (83) 
[H]c1c([H])c([H])c2c(c1[H])C([H])([H])C([H])([H])C([H])([H])C2([H])N([H])C(=O)C1([H])N(C(=O)C([H])(N([H])C(=O)C([H])(N([H])C([H])([H])[H])C([H])([H])[H])C(C([H])([H])[H])(C([H])([H])[H])C([H])([H])[H])C([H])([H])c2c([H])c(OC([H])([H])C([H])([H])C([H])([H])[N+]([H])([H])C([H])(c3c([H])c(C([H])(C([H])([H])[H])C([H])([H])[H])n(C4([H])C([H])([H])C([H])([H])[N+]([H])([H])C([H])([H])C4([H])N([H])C(=O)N4C([H])([H])C([H])([H])C([H])([H])C([H])(n5nc(-c6c([H])c([H])c(Oc7c([H])c([H])c(F)c([H])c7F)c([H])c6[H])c(C(=O)N([H])[H])c5N([H])[H])C4([H])[H])c3[H])C([H])([H])[H])c([H])c([H])c2C1([H])[H]

>  <smiles>  (83) 
[H]c1c([H])c([H])c2c(c1[H])C([H])([H])C([H])([H])C([H])([H])C2([H])N([H])C(=O)C1([H])N(C(=O)C([H])(N([H])C(=O)C([H])(N([H])C([H])([H])[H])C([H])([H])[H])C(C([H])([H])[H])(C([H])([H])[H])C([H])([H])[H])C([H])([H])c2c([H])c(OC([H])([H])C([H])([H])C([H])([H])[N+]([H])([H])C([H])(c3c([H])c(C([H])(C([H])([H])[H])C([H])([H])[H])n(C4([H])C([H])([H])C([H])([H])[N+]([H])([H])C([H])([H])C4([H])N([H])C(=O)N4C([H])([H])C([H])([H])C([H])([H])C([H])(n5nc(-c6c([H])c([H])c(Oc7c([H])c([H])c(F)c([H])c7F)c([H])c6[H])c(C(=O)N([H])[H])c5N([H])[H])C4([H])[H])c3[H])C([H])([H])[H])c([H])c([H])c2C1([H])[H]

$$$$
83:0:0
     RDKit          3D

 94103  0  0  1  0  0  0  0  0999 V2000
  -28.6170  -22.1520   21.1890 C   0  0  0  0  0  3  0  0  0  0  0  0
  -28.4970  -22.0170   18.9010 C   0  0  0  0  0  3  0  0  0  0  0  0
  -28.3200  -22.9360   20.0150 C   0  0  0  0  0  0  0  0  0  0  0  0
  -29.0420  -20.7390   21.2160 C   0  0  0  0  0  0  0  0  0  0  0  0
  -29.2370  -19.9130   20.0320 C   0  0  0  0  0  0  0  0  0  0  0  0
  -29.2660  -20.1270   22.5970 C   0  0  0  0  0  1  0  0  0  0  0  0
  -28.9200  -20.6640   18.9060 N   0  0  0  0  0  0  0  0  0  0  0  0
  -30.7340  -16.7460   21.7250 C   0  0  0  0  0  2  0  0  0  0  0  0
  -32.2250  -17.1080   21.4080 C   0  0  0  0  0  2  0  0  0  0  0  0
  -31.3870  -18.4160   19.2230 C   0  0  0  0  0  2  0  0  0  0  0  0
  -30.0300  -18.3850   19.9180 C   0  0  0  0  0  3  0  0  0  0  0  0
  -29.8420  -16.7140   20.4480 C   0  0  0  0  0  3  0  0  0  0  0  0
  -32.5510  -18.1070   20.2240 C   0  0  0  0  0  3  0  0  0  0  0  0
  -30.4110  -15.2340   19.7550 C   0  0  0  0  0  0  0  0  0  0  0  0
  -30.1910  -12.8660   18.7600 C   0  0  0  0  0  2  0  0  0  0  0  0
  -29.1500  -12.8110   17.6140 C   0  0  0  0  0  2  0  0  0  0  0  0
  -27.7290  -12.6030   18.1630 C   0  0  0  0  0  2  0  0  0  0  0  0
  -27.4490  -13.4940   19.4010 C   0  0  0  0  0  3  0  0  0  0  0  0
  -28.6010  -13.5060   20.4250 C   0  0  0  0  0  2  0  0  0  0  0  0
  -29.8040  -13.9580   19.7210 N   0  0  0  0  0  0  0  0  0  0  0  0
  -31.5270  -15.2280   19.2230 O   0  0  0  0  0  0  0  0  0  0  0  0
  -25.1770  -14.0670   20.4040 C   0  0  0  0  0  0  0  0  0  0  0  0
  -24.1410  -13.2940   20.8450 C   0  0  0  0  0  0  0  0  0  0  0  0
  -24.5750  -11.9370   20.7230 C   0  0  0  0  0  0  0  0  0  0  0  0
  -26.1700  -13.1850   20.0220 N   0  0  0  0  0  0  0  0  0  0  0  0
  -25.8260  -11.8960   20.2810 N   0  0  0  0  0  0  0  0  0  0  0  0
  -23.8470  -10.6800   20.9440 C   0  0  0  0  0  0  0  0  0  0  0  0
  -24.3150   -9.6970   21.8440 C   0  0  0  0  0  3  0  0  0  0  0  0
  -23.5840   -8.5040   22.0450 C   0  0  0  0  0  3  0  0  0  0  0  0
  -22.3690   -8.2890   21.3490 C   0  0  0  0  0  0  0  0  0  0  0  0
  -21.9230   -9.2590   20.4350 C   0  0  0  0  0  3  0  0  0  0  0  0
  -22.6540  -10.4420   20.2320 C   0  0  0  0  0  3  0  0  0  0  0  0
  -21.6070   -7.1500   21.4620 O   0  0  0  0  0  0  0  0  0  0  0  0
  -21.5730   -6.4210   22.6240 C   0  0  0  0  0  0  0  0  0  0  0  0
  -21.1760   -6.9950   23.8510 C   0  0  0  0  0  3  0  0  0  0  0  0
  -21.0860   -6.1940   25.0070 C   0  0  0  0  0  3  0  0  0  0  0  0
  -21.3830   -4.8180   24.9350 C   0  0  0  0  0  0  0  0  0  0  0  0
  -21.7790   -4.2440   23.7130 C   0  0  0  0  0  3  0  0  0  0  0  0
  -21.8680   -5.0430   22.5610 C   0  0  0  0  0  0  0  0  0  0  0  0
  -22.2250   -4.4810   21.3800 F   0  0  0  0  0  0  0  0  0  0  0  0
  -21.2940   -4.0470   26.0440 F   0  0  0  0  0  0  0  0  0  0  0  0
  -22.7890  -13.7780   21.2760 C   0  0  0  0  0  0  0  0  0  0  0  0
  -22.1600  -13.0780   22.2100 N   0  0  0  0  0  0  0  0  0  0  0  0
  -22.3070  -14.8140   20.8190 O   0  0  0  0  0  0  0  0  0  0  0  0
  -22.5730  -12.2380   22.5930 H   0  0  0  0  0  0  0  0  0  0  0  0
  -21.2600  -13.3820   22.5540 H   0  0  0  0  0  0  0  0  0  0  0  0
  -25.3560  -15.4410   20.2650 N   0  0  0  0  0  0  0  0  0  0  0  0
  -24.6300  -16.1140   20.4850 H   0  0  0  0  0  0  0  0  0  0  0  0
  -26.1870  -15.8680   19.8750 H   0  0  0  0  0  0  0  0  0  0  0  0
  -33.8370  -17.6590   19.4850 C   0  0  0  0  0  2  0  0  0  0  0  0
  -34.3380  -17.5760   16.9720 C   0  0  0  0  0  1  0  0  0  0  0  0
  -34.2450  -18.4650   18.2270 C   0  0  0  0  0  2  0  0  0  0  0  0
  -27.4980  -24.4440   19.9720 C   0  0  0  0  0  2  0  0  0  0  0  0
  -27.9030  -25.9980   20.0770 O   0  0  0  0  0  0  0  0  0  0  0  0
  -24.4550  -31.8980   23.1380 C   0  0  0  0  0  0  0  0  0  0  0  0
  -26.8960  -27.0760   20.0330 C   0  0  0  0  0  0  0  0  0  0  0  0
  -23.1940  -30.4870   21.5630 C   0  0  0  0  0  3  0  0  0  0  0  0
  -24.5830  -28.9010   20.0830 C   0  0  0  0  0  0  0  0  0  0  0  0
  -25.7420  -30.7300   21.2930 C   0  0  0  0  0  2  0  0  0  0  0  0
  -25.7920  -29.3240   20.6470 C   0  0  0  0  0  0  0  0  0  0  0  0
  -26.9450  -28.4290   20.6070 C   0  0  0  0  0  3  0  0  0  0  0  0
  -25.6580  -26.7990   19.4050 C   0  0  0  0  0  3  0  0  0  0  0  0
  -24.5350  -27.6570   19.4420 C   0  0  0  0  0  3  0  0  0  0  0  0
  -23.3630  -29.8080   20.1800 C   0  0  0  0  0  2  0  0  0  0  0  0
  -24.4880  -31.0630   22.0530 N   0  0  0  0  0  0  0  0  0  0  0  0
  -23.3920  -32.1840   23.7120 O   0  0  0  0  0  0  0  0  0  0  0  0
  -22.5540  -29.4850   22.5600 C   0  0  0  0  0  0  0  0  0  0  0  0
  -21.2300  -29.2690   22.4600 N   0  0  0  0  0  0  0  0  0  0  0  0
  -23.2550  -28.9080   23.3950 O   0  0  0  0  0  0  0  0  0  0  0  0
  -20.7130  -29.7890   21.7620 H   0  0  0  0  0  0  0  0  0  0  0  0
  -17.9180  -27.8990   22.9980 C   0  0  0  0  0  0  0  0  0  0  0  0
  -20.4540  -28.3250   23.2720 C   0  0  0  0  0  3  0  0  0  0  0  0
  -20.6440  -26.8740   22.7690 C   0  0  0  0  0  2  0  0  0  0  0  0
  -19.5740  -26.4390   21.7620 C   0  0  0  0  0  2  0  0  0  0  0  0
  -18.1790  -26.5320   22.3880 C   0  0  0  0  0  2  0  0  0  0  0  0
  -18.9850  -28.7470   23.3980 C   0  0  0  0  0  0  0  0  0  0  0  0
  -18.6850  -30.0200   23.9300 C   0  0  0  0  0  3  0  0  0  0  0  0
  -17.3510  -30.4490   24.0650 C   0  0  0  0  0  3  0  0  0  0  0  0
  -16.2980  -29.6000   23.6770 C   0  0  0  0  0  3  0  0  0  0  0  0
  -16.5820  -28.3260   23.1520 C   0  0  0  0  0  3  0  0  0  0  0  0
  -25.7540  -32.5500   23.7030 C   0  0  0  0  0  3  0  0  0  0  0  0
  -26.3490  -31.7700   24.9410 C   0  0  1  0  0  0  0  0  0  0  0  0
  -25.3140  -31.4820   26.0540 C   0  0  0  0  0  1  0  0  0  0  0  0
  -26.9510  -30.4150   24.5000 C   0  0  0  0  0  1  0  0  0  0  0  0
  -27.5040  -32.5840   25.5680 C   0  0  0  0  0  1  0  0  0  0  0  0
  -25.4370  -33.9370   24.0810 N   0  0  0  0  0  0  0  0  0  0  0  0
  -25.7070  -35.0170   23.3340 C   0  0  0  0  0  0  0  0  0  0  0  0
  -26.3170  -34.9490   22.2630 O   0  0  0  0  0  0  0  0  0  0  0  0
  -24.8880  -34.0600   24.9200 H   0  0  0  0  0  0  0  0  0  0  0  0
  -23.9380  -36.7960   23.1240 C   0  0  0  0  0  1  0  0  0  0  0  0
  -25.2260  -36.3850   23.8550 C   0  0  0  0  0  3  0  0  0  0  0  0
  -27.3930  -37.2800   24.5900 C   0  0  0  0  0  1  0  0  0  0  0  0
  -26.2340  -37.4610   23.7190 N   0  0  0  0  0  0  0  0  0  0  0  0
  -25.8230  -38.3640   23.9320 H   0  0  0  0  0  0  0  0  0  0  0  0
  1  4  1  0
  2  7  2  0
  2  3  1  0
  3  1  2  0
  4  6  1  0
  5  4  2  0
  7  5  1  0
  9  8  1  0
 10 11  1  0
 10 13  1  0
 11  5  1  0
 11 12  1  0
 12 14  1  0
 12  8  1  0
 13 50  1  0
 13  9  1  0
 15 20  1  0
 16 17  1  0
 16 15  1  0
 18 17  1  0
 18 25  1  0
 18 19  1  0
 20 14  1  0
 20 19  1  0
 21 14  2  0
 22 23  2  0
 23 42  1  0
 24 23  1  0
 24 27  1  0
 25 26  1  0
 25 22  1  0
 26 24  2  0
 27 28  1  0
 28 29  2  0
 30 33  1  0
 30 29  1  0
 31 30  2  0
 32 31  1  0
 32 27  2  0
 33 34  1  0
 34 35  1  0
 35 36  2  0
 37 36  1  0
 37 41  1  0
 38 37  2  0
 39 34  2  0
 39 38  1  0
 40 39  1  0
 42 43  1  0
 43 46  1  0
 43 45  1  0
 44 42  2  0
 47 22  1  0
 47 48  1  0
 49 47  1  0
 51 52  1  0
 52 50  1  0
 53  3  1  0
 53 54  1  0
 55 66  2  0
 56 54  1  0
 56 61  1  0
 57 65  1  0
 57 67  1  0
 58 64  1  0
 58 60  1  0
 59 65  1  0
 60 59  1  0
 61 60  2  0
 62 63  1  0
 62 56  2  0
 63 58  2  0
 64 57  1  0
 65 55  1  0
 67 69  2  0
 68 67  1  0
 70 68  1  0
 71 80  2  0
 71 76  1  0
 72 68  1  0
 72 76  1  0
 73 72  1  0
 74 75  1  0
 74 73  1  0
 75 71  1  0
 76 77  2  0
 77 78  1  0
 79 78  2  0
 80 79  1  0
 81 55  1  0
 81 86  1  0
 81 82  1  0
 82 85  1  1
 82 83  1  0
 84 82  1  0
 86 89  1  0
 87 91  1  0
 87 86  1  0
 88 87  2  0
 91 90  1  0
 93 91  1  0
 93 94  1  0
 93 92  1  0
M  ISO  4  12 100  14 100  53 101  54 101
M  END
>  <TORSDO>  (84) 
F 20

>  <SCORE>  (84) 
-12.617

>  <name>  (84) 
83

>  <ligand_id>  (84) 
83

>  <original_smiles>  (84) 
[H]c1nc(C2([H])C([H])([H])C([H])(C([H])([H])C([H])([H])C([H])([H])[H])C([H])([H])C([H])([H])C2([H])C(=O)N2C([H])([H])C([H])([H])C([H])([H])C([H])(n3nc(-c4c([H])c([H])c(Oc5c([H])c([H])c(F)c([H])c5F)c([H])c4[H])c(C(=O)N([H])[H])c3N([H])[H])C2([H])[H])c(C([H])([H])[H])c([H])c1C([H])([H])Oc1c([H])c([H])c2c(c1[H])C([H])([H])N(C(=O)C([H])(N([H])C(=O)C([H])(N([H])C([H])([H])[H])C([H])([H])[H])C(C([H])([H])[H])(C([H])([H])[H])C([H])([H])[H])C([H])(C(=O)N([H])C1([H])c3c([H])c([H])c([H])c([H])c3C([H])([H])C([H])([H])C1([H])[H])C2([H])[H]

>  <smiles>  (84) 
[H]c1nc(C2([H])C([H])([H])C([H])(C([H])([H])C([H])([H])C([H])([H])[H])C([H])([H])C([H])([H])C2([H])C(=O)N2C([H])([H])C([H])([H])C([H])([H])C([H])(n3nc(-c4c([H])c([H])c(Oc5c([H])c([H])c(F)c([H])c5F)c([H])c4[H])c(C(=O)N([H])[H])c3N([H])[H])C2([H])[H])c(C([H])([H])[H])c([H])c1C([H])([H])Oc1c([H])c([H])c2c(c1[H])C([H])([H])N(C(=O)C([H])(N([H])C(=O)C([H])(N([H])C([H])([H])[H])C([H])([H])[H])C(C([H])([H])[H])(C([H])([H])[H])C([H])([H])[H])C([H])(C(=O)N([H])C1([H])c3c([H])c([H])c([H])c([H])c3C([H])([H])C([H])([H])C1([H])[H])C2([H])[H]

$$$$
84:0:0
     RDKit          3D

 92101  0  0  1  0  0  0  0  0999 V2000
  -30.6420  -14.7140   20.4100 C   0  0  0  0  0  0  0  0  0  0  0  0
  -30.5000  -12.3880   19.5010 C   0  0  0  0  0  2  0  0  0  0  0  0
  -29.5790  -12.4110   18.2580 C   0  0  0  0  0  2  0  0  0  0  0  0
  -28.0930  -12.2840   18.6580 C   0  0  0  0  0  2  0  0  0  0  0  0
  -27.7070  -13.2310   19.8240 C   0  0  0  0  0  3  0  0  0  0  0  0
  -28.7370  -13.1390   20.9730 C   0  0  0  0  0  2  0  0  0  0  0  0
  -30.0600  -13.4670   20.4110 N   0  0  0  0  0  0  0  0  0  0  0  0
  -31.7970  -14.8720   19.9980 O   0  0  0  0  0  0  0  0  0  0  0  0
  -28.2980  -19.1020   21.4450 C   0  0  0  0  0  3  0  0  0  0  0  0
  -28.6130  -17.7210   21.4270 C   0  0  0  0  0  3  0  0  0  0  0  0
  -29.0760  -20.0070   20.6970 C   0  0  0  0  0  0  0  0  0  0  0  0
  -30.1250  -19.4490   19.9510 C   0  0  0  0  0  0  0  0  0  0  0  0
  -29.6990  -17.1980   20.6800 C   0  0  0  0  0  0  0  0  0  0  0  0
  -28.8730  -21.5580   20.7700 C   0  0  0  0  0  2  0  0  0  0  0  0
  -30.9300  -20.4740   19.1550 C   0  0  0  0  0  2  0  0  0  0  0  0
  -30.0460  -21.6360   18.5610 C   0  0  0  0  0  2  0  0  0  0  0  0
  -30.4390  -18.0940   19.9360 N   0  0  0  0  0  0  0  0  0  0  0  0
  -29.8050  -15.7360   20.7980 N   0  0  0  0  0  0  0  0  0  0  0  0
  -29.1250  -22.3630   19.5130 N   0  0  2  0  0  4  0  0  0  0  0  0
  -28.9810  -15.3380   21.2180 H   0  0  0  0  0  0  0  0  0  0  0  0
  -28.2390  -22.3260   19.0280 H   0  0  0  0  0  0  0  0  0  0  0  0
  -25.3200  -13.9090   20.4970 C   0  0  0  0  0  0  0  0  0  0  0  0
  -24.2250  -13.1720   20.8590 C   0  0  0  0  0  0  0  0  0  0  0  0
  -24.6480  -11.8070   20.8500 C   0  0  0  0  0  0  0  0  0  0  0  0
  -26.3420  -12.9960   20.2890 N   0  0  0  0  0  0  0  0  0  0  0  0
  -25.9420  -11.7280   20.5610 N   0  0  0  0  0  0  0  0  0  0  0  0
  -23.8820  -10.5680   21.0440 C   0  0  0  0  0  0  0  0  0  0  0  0
  -24.3010   -9.5770   21.9600 C   0  0  0  0  0  3  0  0  0  0  0  0
  -23.5380   -8.4040   22.1430 C   0  0  0  0  0  3  0  0  0  0  0  0
  -22.3420   -8.2140   21.4100 C   0  0  0  0  0  0  0  0  0  0  0  0
  -21.9420   -9.1930   20.4840 C   0  0  0  0  0  3  0  0  0  0  0  0
  -22.7050  -10.3580   20.2990 C   0  0  0  0  0  3  0  0  0  0  0  0
  -21.5520   -7.0940   21.5020 O   0  0  0  0  0  0  0  0  0  0  0  0
  -21.5310   -6.3190   22.6340 C   0  0  0  0  0  0  0  0  0  0  0  0
  -21.2130   -6.8580   23.9000 C   0  0  0  0  0  3  0  0  0  0  0  0
  -21.1360   -6.0120   25.0260 C   0  0  0  0  0  3  0  0  0  0  0  0
  -21.3660   -4.6300   24.8860 C   0  0  0  0  0  0  0  0  0  0  0  0
  -21.6770   -4.0920   23.6250 C   0  0  0  0  0  3  0  0  0  0  0  0
  -21.7560   -4.9340   22.5020 C   0  0  0  0  0  0  0  0  0  0  0  0
  -22.0360   -4.4080   21.2850 F   0  0  0  0  0  0  0  0  0  0  0  0
  -21.2840   -3.8170   25.9640 F   0  0  0  0  0  0  0  0  0  0  0  0
  -22.8380  -13.6930   21.1050 C   0  0  0  0  0  0  0  0  0  0  0  0
  -22.0810  -13.0320   21.9730 N   0  0  0  0  0  0  0  0  0  0  0  0
  -22.4350  -14.7200   20.5610 O   0  0  0  0  0  0  0  0  0  0  0  0
  -22.4170  -12.2000   22.4340 H   0  0  0  0  0  0  0  0  0  0  0  0
  -21.1490  -13.3650   22.1810 H   0  0  0  0  0  0  0  0  0  0  0  0
  -25.5260  -15.2730   20.3090 N   0  0  0  0  0  0  0  0  0  0  0  0
  -24.7730  -15.9450   20.4020 H   0  0  0  0  0  0  0  0  0  0  0  0
  -26.3830  -15.6880   19.9670 H   0  0  0  0  0  0  0  0  0  0  0  0
  -29.3810  -23.8780   19.7090 C   0  0  0  0  0  3  0  0  0  0  0  0
  -28.2500  -24.9260   19.2510 C   0  0  0  0  0  3  0  0  0  0  0  0
  -28.4110  -26.3940   19.5080 O   0  0  0  0  0  0  0  0  0  0  0  0
  -24.6050  -31.5270   22.9320 C   0  0  0  0  0  0  0  0  0  0  0  0
  -27.2700  -27.2260   19.5300 C   0  0  0  0  0  0  0  0  0  0  0  0
  -23.3980  -30.1900   21.2440 C   0  0  0  0  0  3  0  0  0  0  0  0
  -24.8550  -28.7760   19.6850 C   0  0  0  0  0  0  0  0  0  0  0  0
  -25.9240  -30.5950   21.0140 C   0  0  0  0  0  2  0  0  0  0  0  0
  -26.0270  -29.2600   20.2800 C   0  0  0  0  0  0  0  0  0  0  0  0
  -27.2340  -28.4970   20.1950 C   0  0  0  0  0  3  0  0  0  0  0  0
  -26.0700  -26.8110   18.9060 C   0  0  0  0  0  3  0  0  0  0  0  0
  -24.8810  -27.5580   18.9890 C   0  0  0  0  0  3  0  0  0  0  0  0
  -23.5940  -29.6070   19.8200 C   0  0  0  0  0  2  0  0  0  0  0  0
  -24.6620  -30.7850   21.7870 N   0  0  0  0  0  0  0  0  0  0  0  0
  -23.5290  -31.7370   23.5100 O   0  0  0  0  0  0  0  0  0  0  0  0
  -22.7960  -29.0970   22.1580 C   0  0  0  0  0  0  0  0  0  0  0  0
  -21.4680  -28.9040   22.0790 N   0  0  0  0  0  0  0  0  0  0  0  0
  -23.5200  -28.4280   22.8990 O   0  0  0  0  0  0  0  0  0  0  0  0
  -20.9390  -29.4990   21.4570 H   0  0  0  0  0  0  0  0  0  0  0  0
  -18.1340  -27.6170   22.6480 C   0  0  0  0  0  0  0  0  0  0  0  0
  -20.6990  -27.9010   22.8180 C   0  0  0  0  0  3  0  0  0  0  0  0
  -20.7930  -26.5150   22.1390 C   0  0  0  0  0  2  0  0  0  0  0  0
  -19.6500  -26.2450   21.1560 C   0  0  0  0  0  2  0  0  0  0  0  0
  -18.2980  -26.3220   21.8710 C   0  0  0  0  0  2  0  0  0  0  0  0
  -19.2620  -28.3650   23.0800 C   0  0  0  0  0  0  0  0  0  0  0  0
  -19.0530  -29.5790   23.7700 C   0  0  0  0  0  3  0  0  0  0  0  0
  -17.7500  -30.0460   24.0310 C   0  0  0  0  0  3  0  0  0  0  0  0
  -16.6380  -29.2920   23.6160 C   0  0  0  0  0  3  0  0  0  0  0  0
  -16.8320  -28.0790   22.9290 C   0  0  0  0  0  3  0  0  0  0  0  0
  -25.8840  -32.1640   23.5550 C   0  0  0  0  0  3  0  0  0  0  0  0
  -25.5280  -33.5140   24.0170 N   0  0  0  0  0  0  0  0  0  0  0  0
  -25.7820  -34.6420   23.3410 C   0  0  0  0  0  0  0  0  0  0  0  0
  -26.4090  -34.6580   22.2780 O   0  0  0  0  0  0  0  0  0  0  0  0
  -24.9670  -33.5730   24.8540 H   0  0  0  0  0  0  0  0  0  0  0  0
  -23.9590  -36.3700   23.2220 C   0  0  0  0  0  1  0  0  0  0  0  0
  -25.2570  -35.9630   23.9370 C   0  0  0  0  0  3  0  0  0  0  0  0
  -27.3920  -36.8770   24.7340 C   0  0  0  0  0  1  0  0  0  0  0  0
  -26.2340  -37.0710   23.8660 N   0  0  0  0  0  0  0  0  0  0  0  0
  -25.7960  -37.9540   24.1130 H   0  0  0  0  0  0  0  0  0  0  0  0
  -26.4850  -31.3140   24.7410 C   0  0  1  0  0  0  0  0  0  0  0  0
  -25.4510  -30.9460   25.8310 C   0  0  0  0  0  1  0  0  0  0  0  0
  -27.0990  -29.9960   24.2120 C   0  0  0  0  0  1  0  0  0  0  0  0
  -27.6360  -32.0960   25.4180 C   0  0  0  0  0  1  0  0  0  0  0  0
  1  7  1  0
  1 18  1  0
  2  7  1  0
  3  4  1  0
  3  2  1  0
  5  4  1  0
  5 25  1  0
  5  6  1  0
  7  6  1  0
  8  1  2  0
 10  9  1  0
 11 14  1  0
 11  9  2  0
 12 11  1  0
 13 18  1  0
 13 10  2  0
 15 12  1  0
 16 15  1  0
 16 19  1  0
 17 12  2  0
 17 13  1  0
 18 20  1  0
 19 50  1  0
 19 14  1  0
 19 21  1  6
 22 23  2  0
 23 42  1  0
 24 23  1  0
 24 27  1  0
 25 22  1  0
 25 26  1  0
 26 24  2  0
 27 28  1  0
 28 29  2  0
 30 33  1  0
 30 29  1  0
 31 30  2  0
 32 31  1  0
 32 27  2  0
 33 34  1  0
 34 35  1  0
 35 36  2  0
 37 36  1  0
 37 41  1  0
 38 37  2  0
 39 34  2  0
 39 38  1  0
 40 39  1  0
 42 43  1  0
 43 46  1  0
 43 45  1  0
 44 42  2  0
 47 48  1  0
 47 22  1  0
 49 47  1  0
 51 52  1  0
 51 50  2  0
 52 54  1  0
 53 64  2  0
 54 59  1  0
 55 63  1  0
 55 65  1  0
 56 62  1  0
 56 58  1  0
 57 63  1  0
 58 57  1  0
 59 58  2  0
 60 61  1  0
 60 54  2  0
 61 56  2  0
 62 55  1  0
 63 53  1  0
 65 67  2  0
 66 65  1  0
 68 66  1  0
 69 78  2  0
 69 74  1  0
 70 66  1  0
 70 74  1  0
 71 70  1  0
 72 73  1  0
 72 71  1  0
 73 69  1  0
 74 75  2  0
 75 76  1  0
 77 76  2  0
 78 77  1  0
 79 53  1  0
 79 80  1  0
 79 89  1  0
 80 83  1  0
 81 85  1  0
 81 80  1  0
 82 81  2  0
 85 84  1  0
 87 85  1  0
 87 88  1  0
 87 86  1  0
 89 92  1  1
 89 90  1  0
 91 89  1  0
M  ISO  4   1 100  18 100  51 101  52 101
M  END
>  <TORSDO>  (85) 
F 17

>  <SCORE>  (85) 
-11.845

>  <name>  (85) 
84

>  <ligand_id>  (85) 
84

>  <original_smiles>  (85) 
[H]c1c(N([H])C(=O)N2C([H])([H])C([H])([H])C([H])([H])C([H])(n3nc(-c4c([H])c([H])c(Oc5c([H])c([H])c(F)c([H])c5F)c([H])c4[H])c(C(=O)N([H])[H])c3N([H])[H])C2([H])[H])nc2c(c1[H])C([H])([H])[N+]([H])(C([H])([H])C([H])([H])Oc1c([H])c([H])c3c(c1[H])C([H])([H])N(C(=O)C([H])(N([H])C(=O)C([H])(N([H])C([H])([H])[H])C([H])([H])[H])C(C([H])([H])[H])(C([H])([H])[H])C([H])([H])[H])C([H])(C(=O)N([H])C1([H])c4c([H])c([H])c([H])c([H])c4C([H])([H])C([H])([H])C1([H])[H])C3([H])[H])C([H])([H])C2([H])[H]

>  <smiles>  (85) 
[H]c1c(N([H])C(=O)N2C([H])([H])C([H])([H])C([H])([H])C([H])(n3nc(-c4c([H])c([H])c(Oc5c([H])c([H])c(F)c([H])c5F)c([H])c4[H])c(C(=O)N([H])[H])c3N([H])[H])C2([H])[H])nc2c(c1[H])C([H])([H])[N+]([H])(C([H])([H])C([H])([H])Oc1c([H])c([H])c3c(c1[H])C([H])([H])N(C(=O)C([H])(N([H])C(=O)C([H])(N([H])C([H])([H])[H])C([H])([H])[H])C(C([H])([H])[H])(C([H])([H])[H])C([H])([H])[H])C([H])(C(=O)N([H])C1([H])c4c([H])c([H])c([H])c([H])c4C([H])([H])C([H])([H])C1([H])[H])C3([H])[H])C([H])([H])C2([H])[H]

$$$$
85:0:0
     RDKit          3D

111121  0  0  1  0  0  0  0  0999 V2000
  -32.4350  -19.8200   21.1130 C   0  0  0  0  0  3  0  0  0  0  0  0
  -30.3560  -17.4760   24.1920 C   0  0  0  0  0  2  0  0  0  0  0  0
  -30.6180  -16.8870   22.8050 C   0  0  0  0  0  2  0  0  0  0  0  0
  -31.3840  -19.5990   23.3360 C   0  0  0  0  0  2  0  0  0  0  0  0
  -30.1760  -18.9960   24.0810 C   0  0  0  0  0  3  0  0  0  0  0  0
  -31.8270  -17.5620   22.1110 C   0  0  0  0  0  3  0  0  0  0  0  0
  -31.5380  -19.0170   21.9860 N   0  0  0  0  0  0  0  0  0  0  0  0
  -29.9840  -19.6710   25.4600 C   0  0  0  0  0  2  0  0  0  0  0  0
  -28.8490  -19.1170   26.2190 N   0  0  0  0  0  4  0  0  0  0  0  0
  -27.9910  -19.2160   25.7050 H   0  0  0  0  0  0  0  0  0  0  0  0
  -28.7490  -19.6110   27.0880 H   0  0  0  0  0  0  0  0  0  0  0  0
  -28.9930  -18.1460   26.4300 H   0  0  0  0  0  0  0  0  0  0  0  0
  -32.1550  -16.8430   20.7730 C   0  0  0  0  0  2  0  0  0  0  0  0
  -32.2210  -14.4180   20.1020 C   0  0  0  0  0  0  0  0  0  0  0  0
  -31.6360  -12.3400   18.9110 C   0  0  0  0  0  2  0  0  0  0  0  0
  -30.6680  -12.6770   17.7580 C   0  0  0  0  0  2  0  0  0  0  0  0
  -29.2090  -12.6910   18.2540 C   0  0  0  0  0  2  0  0  0  0  0  0
  -29.0230  -13.5290   19.5470 C   0  0  0  0  0  3  0  0  0  0  0  0
  -30.0930  -13.1570   20.5990 C   0  0  0  0  0  2  0  0  0  0  0  0
  -31.4200  -13.3260   19.9800 N   0  0  0  0  0  0  0  0  0  0  0  0
  -33.3180  -14.5170   19.5460 O   0  0  0  0  0  0  0  0  0  0  0  0
  -31.6730  -15.4550   20.7540 N   0  0  0  0  0  0  0  0  0  0  0  0
  -30.7670  -15.2860   21.1650 H   0  0  0  0  0  0  0  0  0  0  0  0
  -26.7660  -14.3870   20.4410 C   0  0  0  0  0  0  0  0  0  0  0  0
  -25.6200  -13.7340   20.8100 C   0  0  0  0  0  0  0  0  0  0  0  0
  -25.8890  -12.3410   20.6400 C   0  0  0  0  0  0  0  0  0  0  0  0
  -27.6680  -13.3990   20.0790 N   0  0  0  0  0  0  0  0  0  0  0  0
  -27.1440  -12.1580   20.2530 N   0  0  0  0  0  0  0  0  0  0  0  0
  -25.0060  -11.1740   20.7700 C   0  0  0  0  0  0  0  0  0  0  0  0
  -25.3230  -10.1010   21.6310 C   0  0  0  0  0  3  0  0  0  0  0  0
  -24.4500   -8.9980   21.7510 C   0  0  0  0  0  3  0  0  0  0  0  0
  -23.2450   -8.9630   21.0110 C   0  0  0  0  0  0  0  0  0  0  0  0
  -22.9450  -10.0230   20.1390 C   0  0  0  0  0  3  0  0  0  0  0  0
  -23.8170  -11.1170   20.0150 C   0  0  0  0  0  3  0  0  0  0  0  0
  -22.3490   -7.9220   21.0460 O   0  0  0  0  0  0  0  0  0  0  0  0
  -22.1460   -7.1830   22.1840 C   0  0  0  0  0  0  0  0  0  0  0  0
  -21.7340   -7.7800   23.3950 C   0  0  0  0  0  3  0  0  0  0  0  0
  -21.4710   -6.9760   24.5230 C   0  0  0  0  0  3  0  0  0  0  0  0
  -21.6080   -5.5770   24.4390 C   0  0  0  0  0  0  0  0  0  0  0  0
  -22.0140   -4.9820   23.2320 C   0  0  0  0  0  3  0  0  0  0  0  0
  -22.2790   -5.7820   22.1060 C   0  0  0  0  0  0  0  0  0  0  0  0
  -22.6480   -5.2010   20.9400 F   0  0  0  0  0  0  0  0  0  0  0  0
  -21.3480   -4.8040   25.5180 F   0  0  0  0  0  0  0  0  0  0  0  0
  -24.3160  -14.3660   21.2050 C   0  0  0  0  0  0  0  0  0  0  0  0
  -23.5630  -13.7190   22.0880 N   0  0  0  0  0  0  0  0  0  0  0  0
  -23.9800  -15.4660   20.7680 O   0  0  0  0  0  0  0  0  0  0  0  0
  -23.8480  -12.8260   22.4630 H   0  0  0  0  0  0  0  0  0  0  0  0
  -22.6890  -14.1220   22.3930 H   0  0  0  0  0  0  0  0  0  0  0  0
  -27.1090  -15.7340   20.3670 N   0  0  0  0  0  0  0  0  0  0  0  0
  -26.4440  -16.4720   20.5700 H   0  0  0  0  0  0  0  0  0  0  0  0
  -27.9920  -16.0820   20.0150 H   0  0  0  0  0  0  0  0  0  0  0  0
  -32.4040  -21.3580   21.4060 C   0  0  0  0  0  2  0  0  0  0  0  0
  -31.1890  -23.5810   21.6490 C   0  0  0  0  0  2  0  0  0  0  0  0
  -30.9360  -22.2900   19.5080 C   0  0  0  0  0  2  0  0  0  0  0  0
  -29.9620  -24.4440   21.2920 C   0  0  0  0  0  2  0  0  0  0  0  0
  -29.7170  -23.1620   19.1450 C   0  0  0  0  0  2  0  0  0  0  0  0
  -31.1280  -22.1630   21.0340 C   0  0  0  0  0  3  0  0  0  0  0  0
  -29.7670  -24.5780   19.7680 C   0  0  0  0  0  3  0  0  0  0  0  0
  -28.4820  -25.3630   19.4150 C   0  0  0  0  0  2  0  0  0  0  0  0
  -28.5680  -26.7850   19.6210 O   0  0  0  0  0  0  0  0  0  0  0  0
  -24.7250  -31.6710   23.1070 C   0  0  0  0  0  0  0  0  0  0  0  0
  -27.3740  -27.4860   19.6710 C   0  0  0  0  0  0  0  0  0  0  0  0
  -23.4980  -30.3330   21.4290 C   0  0  0  0  0  3  0  0  0  0  0  0
  -24.9380  -28.9310   19.8620 C   0  0  0  0  0  0  0  0  0  0  0  0
  -26.0070  -30.7730   21.1660 C   0  0  0  0  0  2  0  0  0  0  0  0
  -26.1050  -29.4460   20.4410 C   0  0  0  0  0  0  0  0  0  0  0  0
  -27.3220  -28.7300   20.3460 C   0  0  0  0  0  3  0  0  0  0  0  0
  -26.1820  -27.0000   19.0770 C   0  0  0  0  0  3  0  0  0  0  0  0
  -24.9720  -27.7060   19.1780 C   0  0  0  0  0  3  0  0  0  0  0  0
  -23.6750  -29.7480   20.0040 C   0  0  0  0  0  2  0  0  0  0  0  0
  -24.7630  -30.9370   21.9580 N   0  0  0  0  0  0  0  0  0  0  0  0
  -23.6570  -31.8780   23.6990 O   0  0  0  0  0  0  0  0  0  0  0  0
  -22.9110  -29.2360   22.3460 C   0  0  0  0  0  0  0  0  0  0  0  0
  -21.5960  -28.9950   22.2260 N   0  0  0  0  0  0  0  0  0  0  0  0
  -23.6370  -28.6080   23.1230 O   0  0  0  0  0  0  0  0  0  0  0  0
  -21.0700  -29.5580   21.5730 H   0  0  0  0  0  0  0  0  0  0  0  0
  -18.2950  -27.5990   22.6860 C   0  0  0  0  0  0  0  0  0  0  0  0
  -20.8360  -27.9830   22.9620 C   0  0  0  0  0  3  0  0  0  0  0  0
  -21.0140  -26.5840   22.3280 C   0  0  0  0  0  2  0  0  0  0  0  0
  -19.9250  -26.2430   21.3060 C   0  0  0  0  0  2  0  0  0  0  0  0
  -18.5410  -26.2870   21.9580 C   0  0  0  0  0  2  0  0  0  0  0  0
  -19.3720  -28.4030   23.1430 C   0  0  0  0  0  0  0  0  0  0  0  0
  -19.0890  -29.6290   23.7820 C   0  0  0  0  0  3  0  0  0  0  0  0
  -17.7600  -30.0530   23.9690 C   0  0  0  0  0  3  0  0  0  0  0  0
  -16.6960  -29.2460   23.5300 C   0  0  0  0  0  3  0  0  0  0  0  0
  -16.9650  -28.0200   22.8940 C   0  0  0  0  0  3  0  0  0  0  0  0
  -26.0150  -32.3020   23.7170 C   0  0  0  0  0  3  0  0  0  0  0  0
  -26.6330  -31.4430   24.8880 C   0  0  1  0  0  0  0  0  0  0  0  0
  -25.6110  -31.0580   25.9820 C   0  0  0  0  0  1  0  0  0  0  0  0
  -27.2510  -30.1370   24.3390 C   0  0  0  0  0  1  0  0  0  0  0  0
  -27.7830  -32.2280   25.5620 C   0  0  0  0  0  1  0  0  0  0  0  0
  -25.6670  -33.6480   24.1880 N   0  0  0  0  0  0  0  0  0  0  0  0
  -26.0240  -34.7840   23.5720 C   0  0  0  0  0  0  0  0  0  0  0  0
  -26.7510  -34.8060   22.5750 O   0  0  0  0  0  0  0  0  0  0  0  0
  -25.0280  -33.7050   24.9660 H   0  0  0  0  0  0  0  0  0  0  0  0
  -24.3030  -36.5990   23.3120 C   0  0  0  0  0  1  0  0  0  0  0  0
  -25.4890  -36.1060   24.1560 C   0  0  0  0  0  3  0  0  0  0  0  0
  -27.5510  -36.8910   25.2320 C   0  0  0  0  0  1  0  0  0  0  0  0
  -26.5140  -37.1690   24.2420 N   0  0  0  0  0  0  0  0  0  0  0  0
  -26.0880  -38.0630   24.4720 H   0  0  0  0  0  0  0  0  0  0  0  0
  -33.9120  -19.3200   21.1320 C   0  0  0  0  0  2  0  0  0  0  0  0
  -34.7240  -19.9650   20.0730 N   0  0  0  0  0  4  0  0  0  0  0  0
  -34.3940  -19.6200   19.1860 H   0  0  0  0  0  0  0  0  0  0  0  0
  -34.5660  -20.9600   20.0900 H   0  0  0  0  0  0  0  0  0  0  0  0
  -39.0710  -20.4470   20.0440 C   0  0  0  0  0  2  0  0  0  0  0  0
  -38.3740  -20.1240   21.3740 C   0  0  0  0  0  2  0  0  0  0  0  0
  -38.3820  -19.7350   18.8660 C   0  0  0  0  0  2  0  0  0  0  0  0
  -36.8680  -20.4340   21.3180 C   0  0  0  0  0  2  0  0  0  0  0  0
  -36.8740  -20.0540   18.7890 C   0  0  0  0  0  3  0  0  0  0  0  0
  -36.1830  -19.7060   20.1360 C   0  0  0  0  0  3  0  0  0  0  0  0
  -36.6360  -21.5040   18.3090 C   0  0  0  0  0  1  0  0  0  0  0  0
  1101  1  0
  1 52  1  0
  1  7  1  0
  3  2  1  0
  4  5  1  0
  5  2  1  0
  5  8  1  0
  6 13  1  0
  6  3  1  0
  7  6  1  0
  7  4  1  0
  8  9  1  0
  9 12  1  0
  9 11  1  0
 10  9  1  0
 14 22  1  0
 15 20  1  0
 16 17  1  0
 16 15  1  0
 18 17  1  0
 18 27  1  0
 18 19  1  0
 20 14  1  0
 20 19  1  0
 21 14  2  0
 22 13  1  0
 22 23  1  0
 24 25  2  0
 25 44  1  0
 26 29  1  0
 26 25  1  0
 27 28  1  0
 27 24  1  0
 28 26  2  0
 29 30  1  0
 30 31  2  0
 32 35  1  0
 32 31  1  0
 33 32  2  0
 34 33  1  0
 34 29  2  0
 35 36  1  0
 36 37  1  0
 37 38  2  0
 39 38  1  0
 39 43  1  0
 40 39  2  0
 41 36  2  0
 41 40  1  0
 42 41  1  0
 44 45  1  0
 45 48  1  0
 45 47  1  0
 46 44  2  0
 49 24  1  0
 49 50  1  0
 51 49  1  0
 54 57  1  0
 55 53  1  0
 56 54  1  0
 56 58  1  0
 57 52  1  0
 57 53  1  0
 58 59  1  0
 58 55  1  0
 59 60  1  0
 60 62  1  0
 61 72  2  0
 62 67  1  0
 63 71  1  0
 63 73  1  0
 64 70  1  0
 64 66  1  0
 65 71  1  0
 66 65  1  0
 67 66  2  0
 68 69  1  0
 68 62  2  0
 69 64  2  0
 70 63  1  0
 71 61  1  0
 73 75  2  0
 74 73  1  0
 76 74  1  0
 77 86  2  0
 77 82  1  0
 78 74  1  0
 78 82  1  0
 79 78  1  0
 80 81  1  0
 80 79  1  0
 81 77  1  0
 82 83  2  0
 83 84  1  0
 85 84  2  0
 86 85  1  0
 87 61  1  0
 87 92  1  0
 87 88  1  0
 88 91  1  1
 88 89  1  0
 90 88  1  0
 92 95  1  0
 93 97  1  0
 93 92  1  0
 94 93  2  0
 97 96  1  0
 97 99  1  0
 99100  1  0
 99 98  1  0
102104  1  0
102101  1  0
103102  1  0
105106  1  0
107105  1  0
108106  1  0
109111  1  0
109107  1  0
109110  1  0
110102  1  0
110108  1  0
M  ISO  4  14 100  22 100  59 101  60 101
M  END
>  <TORSDO>  (86) 
F 26

>  <SCORE>  (86) 
-4.798

>  <name>  (86) 
85

>  <ligand_id>  (86) 
85

>  <original_smiles>  (86) 
[H]c1c([H])c([H])c2c(c1[H])C([H])([H])C([H])([H])C([H])([H])C2([H])N([H])C(=O)C1([H])N(C(=O)C([H])(N([H])C(=O)C([H])(N([H])C([H])([H])[H])C([H])([H])[H])C(C([H])([H])[H])(C([H])([H])[H])C([H])([H])[H])C([H])([H])c2c([H])c(OC([H])([H])C3([H])C([H])([H])C([H])([H])C([H])(C([H])([H])C([H])(N4C([H])([H])C([H])(C([H])([H])[N+]([H])([H])[H])C([H])([H])C([H])([H])C4([H])C([H])([H])N([H])C(=O)N4C([H])([H])C([H])([H])C([H])([H])C([H])(n5nc(-c6c([H])c([H])c(Oc7c([H])c([H])c(F)c([H])c7F)c([H])c6[H])c(C(=O)N([H])[H])c5N([H])[H])C4([H])[H])C([H])([H])[N+]([H])([H])C4([H])C([H])([H])C([H])([H])C([H])([H])C([H])([H])C4([H])C([H])([H])[H])C([H])([H])C3([H])[H])c([H])c([H])c2C1([H])[H]

>  <smiles>  (86) 
[H]c1c([H])c([H])c2c(c1[H])C([H])([H])C([H])([H])C([H])([H])C2([H])N([H])C(=O)C1([H])N(C(=O)C([H])(N([H])C(=O)C([H])(N([H])C([H])([H])[H])C([H])([H])[H])C(C([H])([H])[H])(C([H])([H])[H])C([H])([H])[H])C([H])([H])c2c([H])c(OC([H])([H])C3([H])C([H])([H])C([H])([H])C([H])(C([H])([H])C([H])(N4C([H])([H])C([H])(C([H])([H])[N+]([H])([H])[H])C([H])([H])C([H])([H])C4([H])C([H])([H])N([H])C(=O)N4C([H])([H])C([H])([H])C([H])([H])C([H])(n5nc(-c6c([H])c([H])c(Oc7c([H])c([H])c(F)c([H])c7F)c([H])c6[H])c(C(=O)N([H])[H])c5N([H])[H])C4([H])[H])C([H])([H])[N+]([H])([H])C4([H])C([H])([H])C([H])([H])C([H])([H])C([H])([H])C4([H])C([H])([H])[H])C([H])([H])C3([H])[H])c([H])c([H])c2C1([H])[H]

$$$$
86:0:0
     RDKit          3D

 92100  0  0  1  0  0  0  0  0999 V2000
  -29.0330  -21.3460   20.2820 C   0  0  0  0  0  3  0  0  0  0  0  0
  -30.7880  -23.1750   19.9010 C   0  0  0  0  0  1  0  0  0  0  0  0
  -29.4730  -22.8400   20.6310 C   0  0  0  0  0  3  0  0  0  0  0  0
  -28.4050  -23.9850   20.3400 C   0  0  0  0  0  2  0  0  0  0  0  0
  -29.5790  -25.5660   22.1330 C   0  0  0  0  0  1  0  0  0  0  0  0
  -28.4550  -25.3960   21.0900 C   0  0  0  0  0  3  0  0  0  0  0  0
  -28.4660  -26.6010   20.2550 O   0  0  0  0  0  0  0  0  0  0  0  0
  -24.6440  -31.8940   23.2470 C   0  0  0  0  0  0  0  0  0  0  0  0
  -27.3190  -27.3880   20.2480 C   0  0  0  0  0  0  0  0  0  0  0  0
  -23.4550  -30.4770   21.6050 C   0  0  0  0  0  3  0  0  0  0  0  0
  -24.9260  -28.9310   20.1980 C   0  0  0  0  0  0  0  0  0  0  0  0
  -25.9810  -30.8390   21.4160 C   0  0  0  0  0  2  0  0  0  0  0  0
  -26.0810  -29.4550   20.7940 C   0  0  0  0  0  0  0  0  0  0  0  0
  -27.2820  -28.6950   20.8070 C   0  0  0  0  0  3  0  0  0  0  0  0
  -26.1460  -26.8900   19.6440 C   0  0  0  0  0  3  0  0  0  0  0  0
  -24.9590  -27.6510   19.6130 C   0  0  0  0  0  3  0  0  0  0  0  0
  -23.6800  -29.7930   20.2270 C   0  0  0  0  0  2  0  0  0  0  0  0
  -24.7110  -31.0870   22.1480 N   0  0  0  0  0  0  0  0  0  0  0  0
  -23.5580  -32.1630   23.7800 O   0  0  0  0  0  0  0  0  0  0  0  0
  -22.7970  -29.4610   22.5700 C   0  0  0  0  0  0  0  0  0  0  0  0
  -21.4710  -29.2830   22.4480 N   0  0  0  0  0  0  0  0  0  0  0  0
  -23.4800  -28.8350   23.3860 O   0  0  0  0  0  0  0  0  0  0  0  0
  -20.9790  -29.8530   21.7720 H   0  0  0  0  0  0  0  0  0  0  0  0
  -18.0990  -28.0820   22.9490 C   0  0  0  0  0  0  0  0  0  0  0  0
  -20.6560  -28.3440   23.2200 C   0  0  0  0  0  3  0  0  0  0  0  0
  -20.7590  -26.9120   22.6460 C   0  0  0  0  0  2  0  0  0  0  0  0
  -19.6590  -26.5880   21.6310 C   0  0  0  0  0  2  0  0  0  0  0  0
  -18.2760  -26.7310   22.2750 C   0  0  0  0  0  2  0  0  0  0  0  0
  -19.2160  -28.8450   23.3780 C   0  0  0  0  0  0  0  0  0  0  0  0
  -18.9970  -30.1080   23.9690 C   0  0  0  0  0  3  0  0  0  0  0  0
  -17.6930  -30.6080   24.1370 C   0  0  0  0  0  3  0  0  0  0  0  0
  -16.5900  -29.8420   23.7240 C   0  0  0  0  0  3  0  0  0  0  0  0
  -16.7940  -28.5820   23.1340 C   0  0  0  0  0  3  0  0  0  0  0  0
  -25.9210  -32.5350   23.8710 C   0  0  0  0  0  3  0  0  0  0  0  0
  -26.4450  -31.7670   25.1460 C   0  0  1  0  0  0  0  0  0  0  0  0
  -25.3570  -31.5190   26.2160 C   0  0  0  0  0  1  0  0  0  0  0  0
  -27.0400  -30.3970   24.7450 C   0  0  0  0  0  1  0  0  0  0  0  0
  -27.5880  -32.5710   25.8120 C   0  0  0  0  0  1  0  0  0  0  0  0
  -25.6000  -33.9320   24.2040 N   0  0  0  0  0  0  0  0  0  0  0  0
  -25.9170  -34.9870   23.4420 C   0  0  0  0  0  0  0  0  0  0  0  0
  -26.5820  -34.8940   22.4080 O   0  0  0  0  0  0  0  0  0  0  0  0
  -25.0070  -34.0790   25.0060 H   0  0  0  0  0  0  0  0  0  0  0  0
  -24.1590  -36.7590   23.1140 C   0  0  0  0  0  1  0  0  0  0  0  0
  -25.4150  -36.3680   23.9080 C   0  0  0  0  0  3  0  0  0  0  0  0
  -27.5550  -37.2760   24.7030 C   0  0  0  0  0  1  0  0  0  0  0  0
  -26.4270  -37.4400   23.7900 N   0  0  0  0  0  0  0  0  0  0  0  0
  -26.0050  -38.3470   23.9750 H   0  0  0  0  0  0  0  0  0  0  0  0
  -29.9320  -20.1890   20.8960 C   0  0  0  0  0  3  0  0  0  0  0  0
  -30.5890  -14.6440   20.0260 C   0  0  0  0  0  0  0  0  0  0  0  0
  -30.2830  -12.4380   18.9410 C   0  0  0  0  0  2  0  0  0  0  0  0
  -29.2660  -12.5960   17.7900 C   0  0  0  0  0  2  0  0  0  0  0  0
  -27.8270  -12.4210   18.3160 C   0  0  0  0  0  2  0  0  0  0  0  0
  -27.5480  -13.2730   19.5840 C   0  0  0  0  0  3  0  0  0  0  0  0
  -28.6740  -13.1020   20.6270 C   0  0  0  0  0  2  0  0  0  0  0  0
  -29.9420  -13.4380   19.9680 N   0  0  0  0  0  0  0  0  0  0  0  0
  -31.7300  -14.7800   19.5770 O   0  0  0  0  0  0  0  0  0  0  0  0
  -29.4820  -16.6900   19.0830 C   0  0  0  0  0  2  0  0  0  0  0  0
  -29.4750  -16.3400   21.5090 C   0  0  0  0  0  2  0  0  0  0  0  0
  -29.8630  -18.2000   19.3000 C   0  0  0  0  0  2  0  0  0  0  0  0
  -30.0540  -17.7810   21.7040 C   0  0  0  0  0  3  0  0  0  0  0  0
  -31.6010  -17.7440   21.7890 C   0  0  0  0  0  1  0  0  0  0  0  0
  -29.7920  -15.7520   20.1940 N   0  0  0  0  0  0  0  0  0  0  0  0
  -29.5490  -18.7340   20.6580 N   0  0  1  0  0  4  0  0  0  0  0  0
  -28.5440  -18.7050   20.7520 H   0  0  0  0  0  0  0  0  0  0  0  0
  -25.2050  -13.8670   20.4580 C   0  0  0  0  0  0  0  0  0  0  0  0
  -24.1600  -13.0880   20.8710 C   0  0  0  0  0  0  0  0  0  0  0  0
  -24.6180  -11.7370   20.7890 C   0  0  0  0  0  0  0  0  0  0  0  0
  -26.2320  -12.9900   20.1460 N   0  0  0  0  0  0  0  0  0  0  0  0
  -25.8870  -11.7030   20.4080 N   0  0  0  0  0  0  0  0  0  0  0  0
  -23.9030  -10.4700   20.9980 C   0  0  0  0  0  0  0  0  0  0  0  0
  -24.3760   -9.4970   21.9070 C   0  0  0  0  0  3  0  0  0  0  0  0
  -23.6640   -8.2960   22.1030 C   0  0  0  0  0  3  0  0  0  0  0  0
  -22.4650   -8.0570   21.3900 C   0  0  0  0  0  0  0  0  0  0  0  0
  -22.0080   -9.0190   20.4700 C   0  0  0  0  0  3  0  0  0  0  0  0
  -22.7240  -10.2130   20.2730 C   0  0  0  0  0  3  0  0  0  0  0  0
  -21.7230   -6.9070   21.4960 O   0  0  0  0  0  0  0  0  0  0  0  0
  -21.7030   -6.1670   22.6500 C   0  0  0  0  0  0  0  0  0  0  0  0
  -21.3080   -6.7240   23.8860 C   0  0  0  0  0  3  0  0  0  0  0  0
  -21.2370   -5.9110   25.0350 C   0  0  0  0  0  3  0  0  0  0  0  0
  -21.5490   -4.5420   24.9510 C   0  0  0  0  0  0  0  0  0  0  0  0
  -21.9360   -3.9820   23.7200 C   0  0  0  0  0  3  0  0  0  0  0  0
  -22.0110   -4.7920   22.5730 C   0  0  0  0  0  0  0  0  0  0  0  0
  -22.3640   -4.2440   21.3850 F   0  0  0  0  0  0  0  0  0  0  0  0
  -21.4720   -3.7590   26.0540 F   0  0  0  0  0  0  0  0  0  0  0  0
  -22.7810  -13.5600   21.2330 C   0  0  0  0  0  0  0  0  0  0  0  0
  -22.1080  -12.8490   22.1300 N   0  0  0  0  0  0  0  0  0  0  0  0
  -22.3130  -14.5940   20.7580 O   0  0  0  0  0  0  0  0  0  0  0  0
  -22.4970  -12.0040   22.5220 H   0  0  0  0  0  0  0  0  0  0  0  0
  -21.1880  -13.1470   22.4200 H   0  0  0  0  0  0  0  0  0  0  0  0
  -25.3640  -15.2400   20.2980 N   0  0  0  0  0  0  0  0  0  0  0  0
  -24.6080  -15.8950   20.4740 H   0  0  0  0  0  0  0  0  0  0  0  0
  -26.1920  -15.6810   19.9190 H   0  0  0  0  0  0  0  0  0  0  0  0
  1  3  1  0
  1 48  2  0
  3  2  1  0
  4  3  1  0
  4  6  1  0
  6  5  1  0
  7  6  1  0
  8 19  2  0
  9  7  1  0
  9 14  1  0
 10 18  1  0
 10 20  1  0
 11 17  1  0
 11 13  1  0
 12 18  1  0
 13 14  2  0
 13 12  1  0
 15  9  2  0
 16 15  1  0
 16 11  2  0
 17 10  1  0
 18  8  1  0
 20 22  2  0
 21 20  1  0
 23 21  1  0
 24 33  2  0
 24 29  1  0
 25 21  1  0
 25 29  1  0
 26 25  1  0
 27 28  1  0
 27 26  1  0
 28 24  1  0
 29 30  2  0
 30 31  1  0
 32 31  2  0
 33 32  1  0
 34  8  1  0
 34 39  1  0
 34 35  1  0
 35 38  1  1
 35 36  1  0
 37 35  1  0
 39 42  1  0
 40 44  1  0
 40 39  1  0
 41 40  2  0
 44 43  1  0
 46 44  1  0
 46 47  1  0
 46 45  1  0
 49 62  1  0
 50 55  1  0
 51 52  1  0
 51 50  1  0
 53 52  1  0
 53 68  1  0
 53 54  1  0
 55 49  1  0
 55 54  1  0
 56 49  2  0
 57 59  1  0
 57 62  1  0
 58 60  1  0
 59 63  1  0
 60 61  1  0
 62 58  1  0
 63 64  1  6
 63 48  1  0
 63 60  1  0
 65 66  2  0
 66 85  1  0
 67 66  1  0
 67 70  1  0
 68 69  1  0
 68 65  1  0
 69 67  2  0
 70 71  1  0
 71 72  2  0
 73 76  1  0
 73 72  1  0
 74 73  2  0
 75 74  1  0
 75 70  2  0
 76 77  1  0
 77 78  1  0
 78 79  2  0
 80 79  1  0
 80 84  1  0
 81 80  2  0
 82 77  2  0
 82 81  1  0
 83 82  1  0
 85 86  1  0
 86 89  1  0
 86 88  1  0
 87 85  2  0
 90 65  1  0
 90 91  1  0
 92 90  1  0
M  ISO  4   6 101   7 101  49 100  62 100
M  END
>  <TORSDO>  (87) 
F 20

>  <SCORE>  (87) 
-13.578

>  <name>  (87) 
86

>  <ligand_id>  (87) 
86

>  <original_smiles>  (87) 
[H]c1c([H])c([H])c2c(c1[H])C([H])([H])C([H])([H])C([H])([H])C2([H])N([H])C(=O)C1([H])N(C(=O)C([H])(N([H])C(=O)C([H])(N([H])C([H])([H])[H])C([H])([H])[H])C(C([H])([H])[H])(C([H])([H])[H])C([H])([H])[H])C([H])([H])c2c([H])c(OC([H])(C([H])([H])[H])C([H])([H])C([H])(C([H])([H])[H])C([H])([H])C([H])([H])[N+]3([H])C([H])([H])C([H])([H])N(C(=O)N4C([H])([H])C([H])([H])C([H])([H])C([H])(n5nc(-c6c([H])c([H])c(Oc7c([H])c([H])c(F)c([H])c7F)c([H])c6[H])c(C(=O)N([H])[H])c5N([H])[H])C4([H])[H])C([H])([H])C3([H])C([H])([H])[H])c([H])c([H])c2C1([H])[H]

>  <smiles>  (87) 
[H]c1c([H])c([H])c2c(c1[H])C([H])([H])C([H])([H])C([H])([H])C2([H])N([H])C(=O)C1([H])N(C(=O)C([H])(N([H])C(=O)C([H])(N([H])C([H])([H])[H])C([H])([H])[H])C(C([H])([H])[H])(C([H])([H])[H])C([H])([H])[H])C([H])([H])c2c([H])c(OC([H])(C([H])([H])[H])C([H])([H])C([H])(C([H])([H])[H])C([H])([H])C([H])([H])[N+]3([H])C([H])([H])C([H])([H])N(C(=O)N4C([H])([H])C([H])([H])C([H])([H])C([H])(n5nc(-c6c([H])c([H])c(Oc7c([H])c([H])c(F)c([H])c7F)c([H])c6[H])c(C(=O)N([H])[H])c5N([H])[H])C4([H])[H])C([H])([H])C3([H])C([H])([H])[H])c([H])c([H])c2C1([H])[H]

$$$$
87:0:0
     RDKit          3D

 93102  0  0  1  0  0  0  0  0999 V2000
  -29.0850  -21.5220   18.1400 C   0  0  0  0  0  2  0  0  0  0  0  0
  -28.7370  -22.8800   17.5500 C   0  0  0  0  0  2  0  0  0  0  0  0
  -29.3190  -21.7740   19.6340 C   0  0  0  0  0  3  0  0  0  0  0  0
  -28.3000  -23.1410   19.9160 C   0  0  0  0  0  3  0  0  0  0  0  0
  -27.8940  -23.5500   18.5500 N   0  0  0  0  0  4  0  0  0  0  0  0
  -26.9340  -23.2840   18.3970 H   0  0  0  0  0  0  0  0  0  0  0  0
  -27.9650  -24.5510   18.4400 H   0  0  0  0  0  0  0  0  0  0  0  0
  -30.5800  -14.9810   19.9540 C   0  0  0  0  0  0  0  0  0  0  0  0
  -30.3930  -12.6450   18.9420 C   0  0  0  0  0  2  0  0  0  0  0  0
  -29.3710  -12.6010   17.7820 C   0  0  0  0  0  2  0  0  0  0  0  0
  -27.9430  -12.3790   18.3170 C   0  0  0  0  0  2  0  0  0  0  0  0
  -27.6190  -13.2840   19.5350 C   0  0  0  0  0  3  0  0  0  0  0  0
  -28.7540  -13.2870   20.5770 C   0  0  0  0  0  2  0  0  0  0  0  0
  -29.9640  -13.7290   19.8700 N   0  0  0  0  0  0  0  0  0  0  0  0
  -31.7940  -15.0050   19.7120 O   0  0  0  0  0  0  0  0  0  0  0  0
  -30.0610  -20.2560   21.6530 C   0  0  0  0  0  3  0  0  0  0  0  0
  -29.4620  -18.8970   19.7730 C   0  0  0  0  0  3  0  0  0  0  0  0
  -30.5130  -19.0520   22.2370 C   0  0  0  0  0  3  0  0  0  0  0  0
  -29.5220  -20.2790   20.3560 C   0  0  0  0  0  0  0  0  0  0  0  0
  -29.9490  -17.6390   20.4260 C   0  0  0  0  0  0  0  0  0  0  0  0
  -30.4760  -17.8230   21.6580 N   0  0  0  0  0  0  0  0  0  0  0  0
  -29.7960  -16.1840   19.9350 N   0  0  0  0  0  0  0  0  0  0  0  0
  -28.8480  -15.9860   19.6620 H   0  0  0  0  0  0  0  0  0  0  0  0
  -25.3070  -13.8580   20.4630 C   0  0  0  0  0  0  0  0  0  0  0  0
  -24.2630  -13.0810   20.8800 C   0  0  0  0  0  0  0  0  0  0  0  0
  -24.7100  -11.7270   20.7760 C   0  0  0  0  0  0  0  0  0  0  0  0
  -26.3210  -12.9790   20.1230 N   0  0  0  0  0  0  0  0  0  0  0  0
  -25.9770  -11.6900   20.3790 N   0  0  0  0  0  0  0  0  0  0  0  0
  -23.9840  -10.4660   20.9750 C   0  0  0  0  0  0  0  0  0  0  0  0
  -24.4360   -9.4890   21.8880 C   0  0  0  0  0  3  0  0  0  0  0  0
  -23.7090   -8.2950   22.0760 C   0  0  0  0  0  3  0  0  0  0  0  0
  -22.5150   -8.0680   21.3500 C   0  0  0  0  0  0  0  0  0  0  0  0
  -22.0810   -9.0330   20.4250 C   0  0  0  0  0  3  0  0  0  0  0  0
  -22.8090  -10.2200   20.2360 C   0  0  0  0  0  3  0  0  0  0  0  0
  -21.7570   -6.9260   21.4500 O   0  0  0  0  0  0  0  0  0  0  0  0
  -21.6960   -6.2020   22.6130 C   0  0  0  0  0  0  0  0  0  0  0  0
  -21.2450   -6.7740   23.8230 C   0  0  0  0  0  3  0  0  0  0  0  0
  -21.1320   -5.9750   24.9790 C   0  0  0  0  0  3  0  0  0  0  0  0
  -21.4570   -4.6060   24.9260 C   0  0  0  0  0  0  0  0  0  0  0  0
  -21.9000   -4.0340   23.7190 C   0  0  0  0  0  3  0  0  0  0  0  0
  -22.0150   -4.8300   22.5660 C   0  0  0  0  0  0  0  0  0  0  0  0
  -22.4220   -4.2690   21.4010 F   0  0  0  0  0  0  0  0  0  0  0  0
  -21.3400   -3.8370   26.0330 F   0  0  0  0  0  0  0  0  0  0  0  0
  -22.8910  -13.5620   21.2550 C   0  0  0  0  0  0  0  0  0  0  0  0
  -22.2190  -12.8550   22.1560 N   0  0  0  0  0  0  0  0  0  0  0  0
  -22.4270  -14.5990   20.7850 O   0  0  0  0  0  0  0  0  0  0  0  0
  -22.6100  -12.0140   22.5590 H   0  0  0  0  0  0  0  0  0  0  0  0
  -21.3010  -13.1570   22.4500 H   0  0  0  0  0  0  0  0  0  0  0  0
  -25.4700  -15.2330   20.3180 N   0  0  0  0  0  0  0  0  0  0  0  0
  -24.7150  -15.8840   20.5040 H   0  0  0  0  0  0  0  0  0  0  0  0
  -26.2920  -15.6820   19.9380 H   0  0  0  0  0  0  0  0  0  0  0  0
  -28.5490  -24.6310   20.7050 C   0  0  0  0  0  2  0  0  0  0  0  0
  -28.4930  -26.1330   20.2220 O   0  0  0  0  0  0  0  0  0  0  0  0
  -24.6190  -31.7730   23.1520 C   0  0  0  0  0  0  0  0  0  0  0  0
  -27.3780  -27.0560   20.2540 C   0  0  0  0  0  0  0  0  0  0  0  0
  -23.5010  -30.3480   21.4810 C   0  0  0  0  0  3  0  0  0  0  0  0
  -25.0220  -28.7750   20.1300 C   0  0  0  0  0  0  0  0  0  0  0  0
  -26.0560  -30.6480   21.4030 C   0  0  0  0  0  2  0  0  0  0  0  0
  -26.1750  -29.2470   20.7700 C   0  0  0  0  0  0  0  0  0  0  0  0
  -27.3560  -28.4080   20.8030 C   0  0  0  0  0  3  0  0  0  0  0  0
  -26.1910  -26.6800   19.5940 C   0  0  0  0  0  3  0  0  0  0  0  0
  -25.0430  -27.5060   19.5270 C   0  0  0  0  0  3  0  0  0  0  0  0
  -23.7830  -29.6590   20.1190 C   0  0  0  0  0  2  0  0  0  0  0  0
  -24.7440  -30.9460   22.0680 N   0  0  0  0  0  0  0  0  0  0  0  0
  -23.5100  -32.0420   23.6410 O   0  0  0  0  0  0  0  0  0  0  0  0
  -22.8020  -29.3390   22.4270 C   0  0  0  0  0  0  0  0  0  0  0  0
  -21.4770  -29.1670   22.2720 N   0  0  0  0  0  0  0  0  0  0  0  0
  -23.4560  -28.7110   23.2620 O   0  0  0  0  0  0  0  0  0  0  0  0
  -21.0050  -29.7250   21.5740 H   0  0  0  0  0  0  0  0  0  0  0  0
  -18.0840  -27.9750   22.7190 C   0  0  0  0  0  0  0  0  0  0  0  0
  -20.6410  -28.2250   23.0210 C   0  0  0  0  0  3  0  0  0  0  0  0
  -20.7440  -26.7990   22.4320 C   0  0  0  0  0  2  0  0  0  0  0  0
  -19.6540  -26.4930   21.3990 C   0  0  0  0  0  2  0  0  0  0  0  0
  -18.2660  -26.6340   22.0280 C   0  0  0  0  0  2  0  0  0  0  0  0
  -19.2000  -28.7290   23.1710 C   0  0  0  0  0  0  0  0  0  0  0  0
  -18.9770  -29.9840   23.7780 C   0  0  0  0  0  3  0  0  0  0  0  0
  -17.6700  -30.4850   23.9370 C   0  0  0  0  0  3  0  0  0  0  0  0
  -16.5690  -29.7290   23.4980 C   0  0  0  0  0  3  0  0  0  0  0  0
  -16.7770  -28.4760   22.8960 C   0  0  0  0  0  3  0  0  0  0  0  0
  -25.8620  -32.4330   23.8230 C   0  0  0  0  0  3  0  0  0  0  0  0
  -25.5110  -33.8250   24.1490 N   0  0  0  0  0  0  0  0  0  0  0  0
  -25.8270  -34.8900   23.4000 C   0  0  0  0  0  0  0  0  0  0  0  0
  -26.5110  -34.8050   22.3780 O   0  0  0  0  0  0  0  0  0  0  0  0
  -24.9020  -33.9620   24.9430 H   0  0  0  0  0  0  0  0  0  0  0  0
  -24.0500  -36.6380   23.0490 C   0  0  0  0  0  1  0  0  0  0  0  0
  -25.3040  -36.2670   23.8580 C   0  0  0  0  0  3  0  0  0  0  0  0
  -27.4140  -37.2150   24.6830 C   0  0  0  0  0  1  0  0  0  0  0  0
  -26.3070  -37.3480   23.7390 N   0  0  0  0  0  0  0  0  0  0  0  0
  -25.8750  -38.2570   23.8830 H   0  0  0  0  0  0  0  0  0  0  0  0
  -26.3450  -31.6720   25.1190 C   0  0  1  0  0  0  0  0  0  0  0  0
  -25.2180  -31.4150   26.1480 C   0  0  0  0  0  1  0  0  0  0  0  0
  -26.9660  -30.3050   24.7550 C   0  0  0  0  0  1  0  0  0  0  0  0
  -27.4570  -32.4860   25.8210 C   0  0  0  0  0  1  0  0  0  0  0  0
  1  3  1  0
  2  1  1  0
  2  5  1  0
  3  4  1  0
  3 19  1  0
  4 52  1  0
  5  4  1  0
  6  5  1  0
  7  5  1  0
  9 14  1  0
 10 11  1  0
 10  9  1  0
 12 11  1  0
 12 27  1  0
 12 13  1  0
 14  8  1  0
 14 13  1  0
 15  8  2  0
 16 18  1  0
 17 19  1  0
 17 20  2  0
 19 16  2  0
 20 21  1  0
 21 18  2  0
 22  8  1  0
 22 20  1  0
 23 22  1  0
 24 25  2  0
 25 44  1  0
 26 25  1  0
 26 29  1  0
 27 28  1  0
 27 24  1  0
 28 26  2  0
 29 30  1  0
 30 31  2  0
 32 35  1  0
 32 31  1  0
 33 32  2  0
 34 33  1  0
 34 29  2  0
 35 36  1  0
 36 37  1  0
 37 38  2  0
 39 38  1  0
 39 43  1  0
 40 39  2  0
 41 36  2  0
 41 40  1  0
 42 41  1  0
 44 45  1  0
 45 48  1  0
 45 47  1  0
 46 44  2  0
 49 24  1  0
 49 50  1  0
 51 49  1  0
 53 55  1  0
 53 52  1  0
 54 65  2  0
 55 60  1  0
 56 64  1  0
 56 66  1  0
 57 59  1  0
 58 64  1  0
 59 60  2  0
 59 58  1  0
 61 55  2  0
 62 61  1  0
 62 57  2  0
 63 57  1  0
 63 56  1  0
 64 54  1  0
 66 68  2  0
 67 66  1  0
 69 67  1  0
 70 79  2  0
 70 75  1  0
 71 67  1  0
 71 75  1  0
 72 71  1  0
 73 74  1  0
 73 72  1  0
 74 70  1  0
 75 76  2  0
 76 77  1  0
 78 77  2  0
 79 78  1  0
 80 54  1  0
 80 81  1  0
 80 90  1  0
 81 84  1  0
 82 86  1  0
 82 81  1  0
 83 82  2  0
 86 85  1  0
 88 86  1  0
 88 89  1  0
 88 87  1  0
 90 93  1  1
 90 91  1  0
 92 90  1  0
M  ISO  4   8 100  22 100  52 101  53 101
M  END
>  <TORSDO>  (88) 
F 17

>  <SCORE>  (88) 
-15.269

>  <name>  (88) 
87

>  <ligand_id>  (88) 
87

>  <original_smiles>  (88) 
[H]c1nc(N([H])C(=O)N2C([H])([H])C([H])([H])C([H])([H])C([H])(n3nc(-c4c([H])c([H])c(Oc5c([H])c([H])c(F)c([H])c5F)c([H])c4[H])c(C(=O)N([H])[H])c3N([H])[H])C2([H])[H])c([H])c(C2([H])C([H])([H])C([H])([H])[N+]([H])([H])C2([H])C([H])([H])Oc2c([H])c([H])c3c(c2[H])C([H])([H])N(C(=O)C([H])(N([H])C(=O)C([H])(N([H])C([H])([H])[H])C([H])([H])[H])C(C([H])([H])[H])(C([H])([H])[H])C([H])([H])[H])C([H])(C(=O)N([H])C2([H])c4c([H])c([H])c([H])c([H])c4C([H])([H])C([H])([H])C2([H])[H])C3([H])[H])c1[H]

>  <smiles>  (88) 
[H]c1nc(N([H])C(=O)N2C([H])([H])C([H])([H])C([H])([H])C([H])(n3nc(-c4c([H])c([H])c(Oc5c([H])c([H])c(F)c([H])c5F)c([H])c4[H])c(C(=O)N([H])[H])c3N([H])[H])C2([H])[H])c([H])c(C2([H])C([H])([H])C([H])([H])[N+]([H])([H])C2([H])C([H])([H])Oc2c([H])c([H])c3c(c2[H])C([H])([H])N(C(=O)C([H])(N([H])C(=O)C([H])(N([H])C([H])([H])[H])C([H])([H])[H])C(C([H])([H])[H])(C([H])([H])[H])C([H])([H])[H])C([H])(C(=O)N([H])C2([H])c4c([H])c([H])c([H])c([H])c4C([H])([H])C([H])([H])C2([H])[H])C3([H])[H])c1[H]

$$$$
88:0:0
     RDKit          3D

 96104  0  0  1  0  0  0  0  0999 V2000
  -26.6190  -21.0870   20.6630 C   0  0  0  0  0  2  0  0  0  0  0  0
  -28.9620  -22.2190   20.8520 C   0  0  0  0  0  2  0  0  0  0  0  0
  -26.1220  -22.5210   20.3620 C   0  0  0  0  0  2  0  0  0  0  0  0
  -28.1520  -20.8970   20.4440 C   0  0  0  0  0  3  0  0  0  0  0  0
  -28.2150  -23.6390   21.0160 C   0  0  0  0  0  3  0  0  0  0  0  0
  -26.7810  -23.4190   21.3430 N   0  0  1  0  0  4  0  0  0  0  0  0
  -26.9700  -22.6730   22.0060 H   0  0  0  0  0  0  0  0  0  0  0  0
  -24.4990  -23.9300   22.4940 C   0  0  0  0  0  1  0  0  0  0  0  0
  -26.2430  -25.7410   22.4010 C   0  0  0  0  0  1  0  0  0  0  0  0
  -26.0210  -24.2120   22.3890 C   0  0  0  0  0  3  0  0  0  0  0  0
  -28.5150  -19.5650   21.0910 N   0  0  0  0  0  4  0  0  0  0  0  0
  -27.8750  -18.9020   20.6910 H   0  0  0  0  0  0  0  0  0  0  0  0
  -28.2750  -19.5920   22.0760 H   0  0  0  0  0  0  0  0  0  0  0  0
  -29.8450  -18.8530   20.9830 C   0  0  0  0  0  2  0  0  0  0  0  0
  -29.7970  -17.4780   20.1700 C   0  0  0  0  0  2  0  0  0  0  0  0
  -30.8780  -15.1660   20.5000 C   0  0  0  0  0  0  0  0  0  0  0  0
  -30.7720  -12.8820   19.5410 C   0  0  0  0  0  2  0  0  0  0  0  0
  -29.8880  -12.9210   18.2730 C   0  0  0  0  0  2  0  0  0  0  0  0
  -28.3980  -12.7550   18.6280 C   0  0  0  0  0  2  0  0  0  0  0  0
  -27.9700  -13.6770   19.7990 C   0  0  0  0  0  3  0  0  0  0  0  0
  -28.9580  -13.5910   20.9820 C   0  0  0  0  0  2  0  0  0  0  0  0
  -30.3030  -13.9210   20.4730 N   0  0  0  0  0  0  0  0  0  0  0  0
  -32.0020  -15.3680   20.0280 O   0  0  0  0  0  0  0  0  0  0  0  0
  -30.0500  -16.1820   20.8870 N   0  0  0  0  0  0  0  0  0  0  0  0
  -29.2410  -15.8470   21.3920 H   0  0  0  0  0  0  0  0  0  0  0  0
  -25.5590  -14.3010   20.4280 C   0  0  0  0  0  0  0  0  0  0  0  0
  -24.4720  -13.5380   20.7610 C   0  0  0  0  0  0  0  0  0  0  0  0
  -24.9190  -12.1820   20.7270 C   0  0  0  0  0  0  0  0  0  0  0  0
  -26.6000  -13.4110   20.2210 N   0  0  0  0  0  0  0  0  0  0  0  0
  -26.2150  -12.1300   20.4550 N   0  0  0  0  0  0  0  0  0  0  0  0
  -24.1750  -10.9270   20.8810 C   0  0  0  0  0  0  0  0  0  0  0  0
  -24.5790   -9.9340   21.8030 C   0  0  0  0  0  3  0  0  0  0  0  0
  -23.8370   -8.7420   21.9450 C   0  0  0  0  0  3  0  0  0  0  0  0
  -22.6750   -8.5350   21.1660 C   0  0  0  0  0  0  0  0  0  0  0  0
  -22.2880   -9.5130   20.2330 C   0  0  0  0  0  3  0  0  0  0  0  0
  -23.0300  -10.6970   20.0890 C   0  0  0  0  0  3  0  0  0  0  0  0
  -21.9060   -7.3970   21.2190 O   0  0  0  0  0  0  0  0  0  0  0  0
  -21.8280   -6.6310   22.3540 C   0  0  0  0  0  0  0  0  0  0  0  0
  -21.4000   -7.1690   23.5880 C   0  0  0  0  0  3  0  0  0  0  0  0
  -21.2710   -6.3310   24.7130 C   0  0  0  0  0  3  0  0  0  0  0  0
  -21.5580   -4.9570   24.6060 C   0  0  0  0  0  0  0  0  0  0  0  0
  -21.9810   -4.4190   23.3780 C   0  0  0  0  0  3  0  0  0  0  0  0
  -22.1130   -5.2540   22.2550 C   0  0  0  0  0  0  0  0  0  0  0  0
  -22.4990   -4.7260   21.0680 F   0  0  0  0  0  0  0  0  0  0  0  0
  -21.4260   -4.1520   25.6850 F   0  0  0  0  0  0  0  0  0  0  0  0
  -23.0740  -14.0280   20.9950 C   0  0  0  0  0  0  0  0  0  0  0  0
  -22.3130  -13.3360   21.8400 N   0  0  0  0  0  0  0  0  0  0  0  0
  -22.6620  -15.0600   20.4670 O   0  0  0  0  0  0  0  0  0  0  0  0
  -22.6610  -12.4990   22.2880 H   0  0  0  0  0  0  0  0  0  0  0  0
  -21.3700  -13.6440   22.0380 H   0  0  0  0  0  0  0  0  0  0  0  0
  -25.7530  -15.6690   20.2770 N   0  0  0  0  0  0  0  0  0  0  0  0
  -24.9940  -16.3350   20.3560 H   0  0  0  0  0  0  0  0  0  0  0  0
  -26.5980  -16.0800   19.9060 H   0  0  0  0  0  0  0  0  0  0  0  0
  -28.6240  -24.9690   20.1930 C   0  0  0  0  0  2  0  0  0  0  0  0
  -27.9940  -25.4230   18.8190 C   0  0  0  0  0  2  0  0  0  0  0  0
  -28.0770  -26.8680   18.5310 O   0  0  0  0  0  0  0  0  0  0  0  0
  -24.9890  -31.5540   22.9470 C   0  0  0  0  0  0  0  0  0  0  0  0
  -26.9730  -27.6820   18.7650 C   0  0  0  0  0  0  0  0  0  0  0  0
  -23.5160  -30.5400   21.2400 C   0  0  0  0  0  3  0  0  0  0  0  0
  -24.7100  -29.2810   19.3610 C   0  0  0  0  0  0  0  0  0  0  0  0
  -26.0280  -30.8440   20.7850 C   0  0  0  0  0  2  0  0  0  0  0  0
  -25.9570  -29.6280   19.8810 C   0  0  0  0  0  0  0  0  0  0  0  0
  -27.0960  -28.8350   19.5760 C   0  0  0  0  0  3  0  0  0  0  0  0
  -25.6970  -27.3930   18.2000 C   0  0  0  0  0  3  0  0  0  0  0  0
  -24.5790  -28.1760   18.5070 C   0  0  0  0  0  3  0  0  0  0  0  0
  -23.5260  -30.1440   19.7290 C   0  0  0  0  0  2  0  0  0  0  0  0
  -24.8690  -30.9820   21.7050 N   0  0  0  0  0  0  0  0  0  0  0  0
  -23.9980  -31.7330   23.6660 O   0  0  0  0  0  0  0  0  0  0  0  0
  -22.9470  -29.3530   22.0590 C   0  0  0  0  0  0  0  0  0  0  0  0
  -21.6080  -29.2060   22.0850 N   0  0  0  0  0  0  0  0  0  0  0  0
  -23.7090  -28.5680   22.6170 O   0  0  0  0  0  0  0  0  0  0  0  0
  -21.0380  -29.9350   21.6850 H   0  0  0  0  0  0  0  0  0  0  0  0
  -18.3140  -27.7890   22.4980 C   0  0  0  0  0  0  0  0  0  0  0  0
  -20.8730  -28.0910   22.6770 C   0  0  0  0  0  3  0  0  0  0  0  0
  -21.0500  -26.8240   21.7970 C   0  0  0  0  0  2  0  0  0  0  0  0
  -19.8440  -26.3290   20.9650 C   0  0  0  0  0  2  0  0  0  0  0  0
  -18.4370  -26.6580   21.4890 C   0  0  0  0  0  2  0  0  0  0  0  0
  -19.4220  -28.4960   22.9990 C   0  0  0  0  0  0  0  0  0  0  0  0
  -19.1850  -29.6270   23.8190 C   0  0  0  0  0  3  0  0  0  0  0  0
  -17.8800  -30.0240   24.1630 C   0  0  0  0  0  3  0  0  0  0  0  0
  -16.7930  -29.2990   23.6610 C   0  0  0  0  0  3  0  0  0  0  0  0
  -17.0070  -28.1800   22.8390 C   0  0  0  0  0  3  0  0  0  0  0  0
  -26.3670  -32.0400   23.4960 C   0  0  0  0  0  3  0  0  0  0  0  0
  -26.1400  -33.2920   24.2370 N   0  0  0  0  0  0  0  0  0  0  0  0
  -26.4130  -34.5150   23.7600 C   0  0  0  0  0  0  0  0  0  0  0  0
  -26.9550  -34.6930   22.6630 O   0  0  0  0  0  0  0  0  0  0  0  0
  -25.6470  -33.2120   25.1150 H   0  0  0  0  0  0  0  0  0  0  0  0
  -24.7320  -36.3600   24.0820 C   0  0  0  0  0  1  0  0  0  0  0  0
  -26.0170  -35.7190   24.6330 C   0  0  0  0  0  3  0  0  0  0  0  0
  -28.2510  -36.3070   25.4690 C   0  0  0  0  0  1  0  0  0  0  0  0
  -27.0730  -36.7480   24.7260 N   0  0  0  0  0  0  0  0  0  0  0  0
  -26.7250  -37.5960   25.1640 H   0  0  0  0  0  0  0  0  0  0  0  0
  -27.0670  -30.9740   24.4270 C   0  0  1  0  0  0  0  0  0  0  0  0
  -26.1610  -30.4400   25.5680 C   0  0  0  0  0  1  0  0  0  0  0  0
  -27.5570  -29.7650   23.5940 C   0  0  0  0  0  1  0  0  0  0  0  0
  -28.3270  -31.5920   25.0680 C   0  0  0  0  0  1  0  0  0  0  0  0
  2  5  1  0
  3  1  1  0
  3  6  1  0
  4  1  1  0
  4  2  1  0
  4 11  1  0
  5 54  1  0
  5  6  1  0
  6  7  1  1
  6 10  1  0
 10  9  1  0
 10  8  1  0
 11 13  1  0
 12 11  1  0
 14 11  1  0
 15 24  1  0
 15 14  1  0
 16 24  1  0
 17 22  1  0
 18 19  1  0
 18 17  1  0
 20 19  1  0
 20 29  1  0
 20 21  1  0
 22 16  1  0
 22 21  1  0
 23 16  2  0
 24 25  1  0
 26 27  2  0
 27 46  1  0
 28 27  1  0
 28 31  1  0
 29 26  1  0
 29 30  1  0
 30 28  2  0
 31 32  1  0
 32 33  2  0
 34 37  1  0
 34 33  1  0
 35 34  2  0
 36 35  1  0
 36 31  2  0
 37 38  1  0
 38 39  1  0
 39 40  2  0
 41 40  1  0
 41 45  1  0
 42 41  2  0
 43 38  2  0
 43 42  1  0
 44 43  1  0
 46 47  1  0
 47 50  1  0
 47 49  1  0
 48 46  2  0
 51 52  1  0
 51 26  1  0
 53 51  1  0
 55 54  1  0
 56 58  1  0
 56 55  1  0
 57 68  2  0
 58 63  1  0
 59 67  1  0
 59 69  1  0
 60 66  1  0
 60 62  1  0
 61 67  1  0
 62 61  1  0
 63 62  2  0
 64 65  1  0
 64 58  2  0
 65 60  2  0
 66 59  1  0
 67 57  1  0
 69 70  1  0
 69 71  2  0
 72 70  1  0
 73 82  2  0
 73 78  1  0
 74 70  1  0
 74 78  1  0
 75 74  1  0
 76 77  1  0
 76 75  1  0
 77 73  1  0
 78 79  2  0
 79 80  1  0
 81 80  2  0
 82 81  1  0
 83 57  1  0
 83 84  1  0
 83 93  1  0
 84 87  1  0
 85 84  1  0
 85 89  1  0
 86 85  2  0
 89 88  1  0
 89 91  1  0
 91 92  1  0
 91 90  1  0
 93 96  1  1
 93 94  1  0
 95 93  1  0
M  ISO  4  16 100  24 100  55 101  56 101
M  END
>  <TORSDO>  (89) 
F 22

>  <SCORE>  (89) 
-9.092

>  <name>  (89) 
88

>  <ligand_id>  (89) 
88

>  <original_smiles>  (89) 
[H]c1c([H])c([H])c2c(c1[H])C([H])([H])C([H])([H])C([H])([H])C2([H])N([H])C(=O)C1([H])N(C(=O)C([H])(N([H])C(=O)C([H])(N([H])C([H])([H])[H])C([H])([H])[H])C(C([H])([H])[H])(C([H])([H])[H])C([H])([H])[H])C([H])([H])c2c([H])c(OC([H])([H])C([H])([H])C3([H])C([H])([H])C([H])([N+]([H])([H])C([H])([H])C([H])([H])N([H])C(=O)N4C([H])([H])C([H])([H])C([H])([H])C([H])(n5nc(-c6c([H])c([H])c(Oc7c([H])c([H])c(F)c([H])c7F)c([H])c6[H])c(C(=O)N([H])[H])c5N([H])[H])C4([H])[H])C([H])([H])C([H])([H])[N+]3([H])C([H])(C([H])([H])[H])C([H])([H])[H])c([H])c([H])c2C1([H])[H]

>  <smiles>  (89) 
[H]c1c([H])c([H])c2c(c1[H])C([H])([H])C([H])([H])C([H])([H])C2([H])N([H])C(=O)C1([H])N(C(=O)C([H])(N([H])C(=O)C([H])(N([H])C([H])([H])[H])C([H])([H])[H])C(C([H])([H])[H])(C([H])([H])[H])C([H])([H])[H])C([H])([H])c2c([H])c(OC([H])([H])C([H])([H])C3([H])C([H])([H])C([H])([N+]([H])([H])C([H])([H])C([H])([H])N([H])C(=O)N4C([H])([H])C([H])([H])C([H])([H])C([H])(n5nc(-c6c([H])c([H])c(Oc7c([H])c([H])c(F)c([H])c7F)c([H])c6[H])c(C(=O)N([H])[H])c5N([H])[H])C4([H])[H])C([H])([H])C([H])([H])[N+]3([H])C([H])(C([H])([H])[H])C([H])([H])[H])c([H])c([H])c2C1([H])[H]

$$$$
89:0:0
     RDKit          3D

 94103  0  0  1  0  0  0  0  0999 V2000
  -29.9290  -23.6530   17.3990 C   0  0  0  0  0  3  0  0  0  0  0  0
  -30.6200  -22.4430   17.5620 C   0  0  0  0  0  3  0  0  0  0  0  0
  -29.1380  -24.1520   18.4470 C   0  0  0  0  0  3  0  0  0  0  0  0
  -30.4970  -21.7300   18.7670 C   0  0  0  0  0  3  0  0  0  0  0  0
  -29.0180  -23.4630   19.6770 C   0  0  0  0  0  0  0  0  0  0  0  0
  -29.6840  -22.1990   19.8280 C   0  0  0  0  0  0  0  0  0  0  0  0
  -28.1570  -24.1410   20.7570 C   0  0  0  0  0  2  0  0  0  0  0  0
  -28.6060  -25.5710   21.1790 C   0  0  0  0  0  2  0  0  0  0  0  0
  -28.5310  -26.5920   20.1690 O   0  0  0  0  0  0  0  0  0  0  0  0
  -24.5700  -31.7160   23.1490 C   0  0  0  0  0  0  0  0  0  0  0  0
  -27.3610  -27.3140   20.1560 C   0  0  0  0  0  0  0  0  0  0  0  0
  -23.4310  -30.3000   21.4700 C   0  0  0  0  0  3  0  0  0  0  0  0
  -24.9470  -28.7800   20.0910 C   0  0  0  0  0  0  0  0  0  0  0  0
  -25.9540  -30.6960   21.3430 C   0  0  0  0  0  2  0  0  0  0  0  0
  -26.0780  -29.3240   20.7130 C   0  0  0  0  0  0  0  0  0  0  0  0
  -27.2910  -28.5970   20.7430 C   0  0  0  0  0  3  0  0  0  0  0  0
  -26.2190  -26.7840   19.5240 C   0  0  0  0  0  3  0  0  0  0  0  0
  -25.0110  -27.5080   19.4930 C   0  0  0  0  0  3  0  0  0  0  0  0
  -23.6900  -29.6210   20.0980 C   0  0  0  0  0  2  0  0  0  0  0  0
  -24.6680  -30.9190   22.0470 N   0  0  0  0  0  0  0  0  0  0  0  0
  -23.4710  -31.9730   23.6580 O   0  0  0  0  0  0  0  0  0  0  0  0
  -22.7650  -29.2700   22.4120 C   0  0  0  0  0  0  0  0  0  0  0  0
  -21.4430  -29.0910   22.2630 N   0  0  0  0  0  0  0  0  0  0  0  0
  -23.4360  -28.6360   23.2300 O   0  0  0  0  0  0  0  0  0  0  0  0
  -20.9640  -29.6540   21.5740 H   0  0  0  0  0  0  0  0  0  0  0  0
  -18.0570  -27.9130   22.7120 C   0  0  0  0  0  0  0  0  0  0  0  0
  -20.6140  -28.1460   23.0110 C   0  0  0  0  0  3  0  0  0  0  0  0
  -20.7120  -26.7250   22.4110 C   0  0  0  0  0  2  0  0  0  0  0  0
  -19.6160  -26.4280   21.3830 C   0  0  0  0  0  2  0  0  0  0  0  0
  -18.2290  -26.5740   22.0160 C   0  0  0  0  0  2  0  0  0  0  0  0
  -19.1770  -28.6580   23.1660 C   0  0  0  0  0  0  0  0  0  0  0  0
  -18.9630  -29.9140   23.7750 C   0  0  0  0  0  3  0  0  0  0  0  0
  -17.6610  -30.4230   23.9370 C   0  0  0  0  0  3  0  0  0  0  0  0
  -16.5540  -29.6740   23.5010 C   0  0  0  0  0  3  0  0  0  0  0  0
  -16.7530  -28.4210   22.8940 C   0  0  0  0  0  3  0  0  0  0  0  0
  -25.8300  -32.3630   23.8060 C   0  0  0  0  0  3  0  0  0  0  0  0
  -25.4880  -33.7490   24.1490 N   0  0  0  0  0  0  0  0  0  0  0  0
  -25.8060  -34.8170   23.4040 C   0  0  0  0  0  0  0  0  0  0  0  0
  -26.4900  -34.7390   22.3800 O   0  0  0  0  0  0  0  0  0  0  0  0
  -24.8820  -33.8820   24.9460 H   0  0  0  0  0  0  0  0  0  0  0  0
  -24.0370  -36.5680   23.0540 C   0  0  0  0  0  1  0  0  0  0  0  0
  -25.2820  -36.1880   23.8700 C   0  0  0  0  0  3  0  0  0  0  0  0
  -27.3900  -37.1160   24.7210 C   0  0  0  0  0  1  0  0  0  0  0  0
  -26.2900  -37.2670   23.7730 N   0  0  0  0  0  0  0  0  0  0  0  0
  -25.8610  -38.1760   23.9280 H   0  0  0  0  0  0  0  0  0  0  0  0
  -26.3380  -31.5810   25.0790 C   0  0  1  0  0  0  0  0  0  0  0  0
  -25.2300  -31.3050   26.1220 C   0  0  0  0  0  1  0  0  0  0  0  0
  -26.9540  -30.2220   24.6740 C   0  0  0  0  0  1  0  0  0  0  0  0
  -27.4600  -32.3860   25.7760 C   0  0  0  0  0  1  0  0  0  0  0  0
  -29.6300  -21.3040   21.0810 C   0  0  0  0  0  2  0  0  0  0  0  0
  -29.2660  -19.8950   20.7630 N   0  0  0  0  0  4  0  0  0  0  0  0
  -29.3200  -19.7920   19.7640 H   0  0  0  0  0  0  0  0  0  0  0  0
  -28.3050  -19.7580   21.0280 H   0  0  0  0  0  0  0  0  0  0  0  0
  -30.1190  -18.8580   21.4090 C   0  0  0  0  0  2  0  0  0  0  0  0
  -30.7610  -14.3660   20.2000 C   0  0  0  0  0  0  0  0  0  0  0  0
  -30.4030  -12.2200   19.0370 C   0  0  0  0  0  2  0  0  0  0  0  0
  -29.4290  -12.4570   17.8650 C   0  0  0  0  0  2  0  0  0  0  0  0
  -27.9660  -12.3390   18.3400 C   0  0  0  0  0  2  0  0  0  0  0  0
  -27.6830  -13.1700   19.6200 C   0  0  0  0  0  3  0  0  0  0  0  0
  -28.7660  -12.9170   20.6920 C   0  0  0  0  0  2  0  0  0  0  0  0
  -30.0740  -13.1990   20.0820 N   0  0  0  0  0  0  0  0  0  0  0  0
  -31.8930  -14.5270   19.7290 O   0  0  0  0  0  0  0  0  0  0  0  0
  -30.3980  -16.2320   21.8020 C   0  0  0  0  0  2  0  0  0  0  0  0
  -29.9890  -16.6770   19.8510 C   0  0  0  0  0  2  0  0  0  0  0  0
  -29.6580  -17.4060   21.1510 C   0  0  0  0  0  3  0  0  0  0  0  0
  -30.0280  -15.4220   20.6290 N   0  0  0  0  0  0  0  0  0  0  0  0
  -25.3220  -13.8230   20.4100 C   0  0  0  0  0  0  0  0  0  0  0  0
  -24.2500  -13.0690   20.8090 C   0  0  0  0  0  0  0  0  0  0  0  0
  -24.6830  -11.7090   20.7550 C   0  0  0  0  0  0  0  0  0  0  0  0
  -26.3400  -12.9210   20.1400 N   0  0  0  0  0  0  0  0  0  0  0  0
  -25.9610  -11.6450   20.4030 N   0  0  0  0  0  0  0  0  0  0  0  0
  -23.9380  -10.4600   20.9600 C   0  0  0  0  0  0  0  0  0  0  0  0
  -24.3710   -9.4870   21.8880 C   0  0  0  0  0  3  0  0  0  0  0  0
  -23.6300   -8.3020   22.0810 C   0  0  0  0  0  3  0  0  0  0  0  0
  -22.4420   -8.0820   21.3470 C   0  0  0  0  0  0  0  0  0  0  0  0
  -22.0270   -9.0420   20.4080 C   0  0  0  0  0  3  0  0  0  0  0  0
  -22.7690  -10.2200   20.2120 C   0  0  0  0  0  3  0  0  0  0  0  0
  -21.6690   -6.9490   21.4500 O   0  0  0  0  0  0  0  0  0  0  0  0
  -21.6120   -6.2200   22.6100 C   0  0  0  0  0  0  0  0  0  0  0  0
  -21.1990   -6.7960   23.8320 C   0  0  0  0  0  3  0  0  0  0  0  0
  -21.0880   -5.9930   24.9850 C   0  0  0  0  0  3  0  0  0  0  0  0
  -21.3790   -4.6170   24.9170 C   0  0  0  0  0  0  0  0  0  0  0  0
  -21.7850   -4.0420   23.7000 C   0  0  0  0  0  3  0  0  0  0  0  0
  -21.8980   -4.8410   22.5500 C   0  0  0  0  0  0  0  0  0  0  0  0
  -22.2690   -4.2770   21.3750 F   0  0  0  0  0  0  0  0  0  0  0  0
  -21.2650   -3.8450   26.0230 F   0  0  0  0  0  0  0  0  0  0  0  0
  -22.8720  -13.5720   21.1290 C   0  0  0  0  0  0  0  0  0  0  0  0
  -22.1600  -12.8880   22.0190 N   0  0  0  0  0  0  0  0  0  0  0  0
  -22.4360  -14.6060   20.6250 O   0  0  0  0  0  0  0  0  0  0  0  0
  -22.5250  -12.0520   22.4480 H   0  0  0  0  0  0  0  0  0  0  0  0
  -21.2360  -13.2060   22.2710 H   0  0  0  0  0  0  0  0  0  0  0  0
  -25.5110  -15.1910   20.2370 N   0  0  0  0  0  0  0  0  0  0  0  0
  -24.7670  -15.8660   20.3760 H   0  0  0  0  0  0  0  0  0  0  0  0
  -26.3720  -15.6090   19.9080 H   0  0  0  0  0  0  0  0  0  0  0  0
  1  2  2  0
  1  3  1  0
  2  4  1  0
  3  5  2  0
  4  6  2  0
  5  6  1  0
  5  7  1  0
  6 50  1  0
  7  8  1  0
  9  8  1  0
 10 21  2  0
 11  9  1  0
 11 16  1  0
 12 20  1  0
 12 22  1  0
 13 19  1  0
 13 15  1  0
 14 20  1  0
 15 16  2  0
 15 14  1  0
 17 11  2  0
 18 17  1  0
 18 13  2  0
 19 12  1  0
 20 10  1  0
 22 24  2  0
 23 22  1  0
 25 23  1  0
 26 35  2  0
 26 31  1  0
 27 23  1  0
 27 31  1  0
 28 27  1  0
 29 30  1  0
 29 28  1  0
 30 26  1  0
 31 32  2  0
 32 33  1  0
 34 33  2  0
 35 34  1  0
 36 10  1  0
 36 37  1  0
 36 46  1  0
 37 40  1  0
 38 42  1  0
 38 37  1  0
 39 38  2  0
 42 41  1  0
 44 42  1  0
 44 45  1  0
 44 43  1  0
 46 49  1  1
 46 47  1  0
 48 46  1  0
 51 53  1  0
 51 50  1  0
 51 54  1  0
 52 51  1  0
 55 66  1  0
 56 61  1  0
 57 58  1  0
 57 56  1  0
 59 58  1  0
 59 70  1  0
 59 60  1  0
 61 55  1  0
 61 60  1  0
 62 55  2  0
 64 66  1  0
 64 65  1  0
 65 54  1  0
 65 63  1  0
 66 63  1  0
 67 68  2  0
 68 87  1  0
 69 68  1  0
 69 72  1  0
 70 71  1  0
 70 67  1  0
 71 69  2  0
 72 73  1  0
 73 74  2  0
 75 78  1  0
 75 74  1  0
 76 75  2  0
 77 76  1  0
 77 72  2  0
 78 79  1  0
 79 80  1  0
 80 81  2  0
 82 81  1  0
 82 86  1  0
 83 82  2  0
 84 79  2  0
 84 83  1  0
 85 84  1  0
 87 88  1  0
 88 91  1  0
 88 90  1  0
 89 87  2  0
 92 93  1  0
 92 67  1  0
 94 92  1  0
M  ISO  4   8 101   9 101  55 100  66 100
M  END
>  <TORSDO>  (90) 
F 21

>  <SCORE>  (90) 
-13.408

>  <name>  (90) 
89

>  <ligand_id>  (90) 
89

>  <original_smiles>  (90) 
[H]c1c([H])c([H])c(C([H])([H])[N+]([H])([H])C([H])([H])C2([H])C([H])([H])N(C(=O)N3C([H])([H])C([H])([H])C([H])([H])C([H])(n4nc(-c5c([H])c([H])c(Oc6c([H])c([H])c(F)c([H])c6F)c([H])c5[H])c(C(=O)N([H])[H])c4N([H])[H])C3([H])[H])C2([H])[H])c(C([H])([H])C([H])([H])Oc2c([H])c([H])c3c(c2[H])C([H])([H])N(C(=O)C([H])(N([H])C(=O)C([H])(N([H])C([H])([H])[H])C([H])([H])[H])C(C([H])([H])[H])(C([H])([H])[H])C([H])([H])[H])C([H])(C(=O)N([H])C2([H])c4c([H])c([H])c([H])c([H])c4C([H])([H])C([H])([H])C2([H])[H])C3([H])[H])c1[H]

>  <smiles>  (90) 
[H]c1c([H])c([H])c(C([H])([H])[N+]([H])([H])C([H])([H])C2([H])C([H])([H])N(C(=O)N3C([H])([H])C([H])([H])C([H])([H])C([H])(n4nc(-c5c([H])c([H])c(Oc6c([H])c([H])c(F)c([H])c6F)c([H])c5[H])c(C(=O)N([H])[H])c4N([H])[H])C3([H])[H])C2([H])[H])c(C([H])([H])C([H])([H])Oc2c([H])c([H])c3c(c2[H])C([H])([H])N(C(=O)C([H])(N([H])C(=O)C([H])(N([H])C([H])([H])[H])C([H])([H])[H])C(C([H])([H])[H])(C([H])([H])[H])C([H])([H])[H])C([H])(C(=O)N([H])C2([H])c4c([H])c([H])c([H])c([H])c4C([H])([H])C([H])([H])C2([H])[H])C3([H])[H])c1[H]

$$$$
90:0:0
     RDKit          3D

 95104  0  0  1  0  0  0  0  0999 V2000
  -27.5170  -20.2930   19.6980 C   0  0  0  0  0  3  0  0  0  0  0  0
  -28.7560  -20.3860   20.2880 C   0  0  0  0  0  0  0  0  0  0  0  0
  -28.3260  -18.2440   19.7920 C   0  0  0  0  0  3  0  0  0  0  0  0
  -29.1720  -19.0520   20.4670 N   0  0  0  0  0  0  0  0  0  0  0  0
  -27.2930  -18.9870   19.4040 N   0  0  0  0  0  0  0  0  0  0  0  0
  -26.4840  -18.6400   18.9050 H   0  0  0  0  0  0  0  0  0  0  0  0
  -28.6210  -15.3030   17.9080 C   0  0  0  0  0  2  0  0  0  0  0  0
  -27.4660  -16.0980   18.5150 C   0  0  0  0  0  2  0  0  0  0  0  0
  -29.5900  -16.3090   18.5360 C   0  0  0  0  0  2  0  0  0  0  0  0
  -28.4650  -16.7890   19.4640 C   0  0  0  0  0  3  0  0  0  0  0  0
  -29.4950  -21.6890   20.6030 C   0  0  0  0  0  2  0  0  0  0  0  0
  -28.7080  -22.9290   20.0270 C   0  0  0  0  0  2  0  0  0  0  0  0
  -29.2660  -24.3940   20.0550 C   0  0  0  0  0  2  0  0  0  0  0  0
  -28.1720  -25.3800   19.5170 C   0  0  0  0  0  2  0  0  0  0  0  0
  -28.3520  -26.8270   19.5630 O   0  0  0  0  0  0  0  0  0  0  0  0
  -24.5270  -31.8180   23.0030 C   0  0  0  0  0  0  0  0  0  0  0  0
  -27.1800  -27.5870   19.5910 C   0  0  0  0  0  0  0  0  0  0  0  0
  -23.3000  -30.4480   21.3550 C   0  0  0  0  0  3  0  0  0  0  0  0
  -24.7390  -29.0490   19.7800 C   0  0  0  0  0  0  0  0  0  0  0  0
  -25.8060  -30.9020   21.0640 C   0  0  0  0  0  2  0  0  0  0  0  0
  -25.9100  -29.5680   20.3450 C   0  0  0  0  0  0  0  0  0  0  0  0
  -27.1320  -28.8470   20.2490 C   0  0  0  0  0  3  0  0  0  0  0  0
  -25.9800  -27.1180   18.9960 C   0  0  0  0  0  3  0  0  0  0  0  0
  -24.7710  -27.8240   19.1010 C   0  0  0  0  0  3  0  0  0  0  0  0
  -23.4680  -29.8550   19.9320 C   0  0  0  0  0  2  0  0  0  0  0  0
  -24.5630  -31.0700   21.8640 N   0  0  0  0  0  0  0  0  0  0  0  0
  -23.4630  -32.0230   23.6040 O   0  0  0  0  0  0  0  0  0  0  0  0
  -22.7350  -29.3540   22.2890 C   0  0  0  0  0  0  0  0  0  0  0  0
  -21.4190  -29.1030   22.1970 N   0  0  0  0  0  0  0  0  0  0  0  0
  -23.4780  -28.7370   23.0590 O   0  0  0  0  0  0  0  0  0  0  0  0
  -20.8780  -29.6560   21.5470 H   0  0  0  0  0  0  0  0  0  0  0  0
  -18.1420  -27.6610   22.7060 C   0  0  0  0  0  0  0  0  0  0  0  0
  -20.6780  -28.0920   22.9530 C   0  0  0  0  0  3  0  0  0  0  0  0
  -20.8730  -26.6850   22.3430 C   0  0  0  0  0  2  0  0  0  0  0  0
  -19.7830  -26.3100   21.3340 C   0  0  0  0  0  2  0  0  0  0  0  0
  -18.4020  -26.3430   21.9970 C   0  0  0  0  0  2  0  0  0  0  0  0
  -19.2100  -28.4910   23.1390 C   0  0  0  0  0  0  0  0  0  0  0  0
  -18.9130  -29.7220   23.7620 C   0  0  0  0  0  3  0  0  0  0  0  0
  -17.5790  -30.1280   23.9540 C   0  0  0  0  0  3  0  0  0  0  0  0
  -16.5250  -29.2980   23.5360 C   0  0  0  0  0  3  0  0  0  0  0  0
  -16.8070  -28.0660   22.9180 C   0  0  0  0  0  3  0  0  0  0  0  0
  -25.8160  -32.4720   23.5910 C   0  0  0  0  0  3  0  0  0  0  0  0
  -25.4580  -33.8230   24.0430 N   0  0  0  0  0  0  0  0  0  0  0  0
  -25.7470  -34.9500   23.3780 C   0  0  0  0  0  0  0  0  0  0  0  0
  -26.4140  -34.9630   22.3400 O   0  0  0  0  0  0  0  0  0  0  0  0
  -24.8610  -33.8830   24.8550 H   0  0  0  0  0  0  0  0  0  0  0  0
  -23.9620  -36.7110   23.1710 C   0  0  0  0  0  1  0  0  0  0  0  0
  -25.2100  -36.2740   23.9550 C   0  0  0  0  0  3  0  0  0  0  0  0
  -27.3140  -37.1380   24.8780 C   0  0  0  0  0  1  0  0  0  0  0  0
  -26.2090  -37.3640   23.9510 N   0  0  0  0  0  0  0  0  0  0  0  0
  -25.7730  -38.2520   24.1870 H   0  0  0  0  0  0  0  0  0  0  0  0
  -26.4530  -31.6400   24.7700 C   0  0  1  0  0  0  0  0  0  0  0  0
  -25.4420  -31.2580   25.8770 C   0  0  0  0  0  1  0  0  0  0  0  0
  -27.0860  -30.3320   24.2390 C   0  0  0  0  0  1  0  0  0  0  0  0
  -27.5980  -32.4510   25.4240 C   0  0  0  0  0  1  0  0  0  0  0  0
  -30.3880  -18.4820   21.1340 C   0  0  0  0  0  2  0  0  0  0  0  0
  -30.1670  -17.4000   22.2630 C   0  0  0  0  0  2  0  0  0  0  0  0
  -30.7330  -14.9800   21.5660 C   0  0  0  0  0  0  0  0  0  0  0  0
  -30.7070  -12.8110   20.3700 C   0  0  0  0  0  2  0  0  0  0  0  0
  -29.9050  -12.9830   19.0640 C   0  0  0  0  0  2  0  0  0  0  0  0
  -28.3970  -12.7680   19.3070 C   0  0  0  0  0  2  0  0  0  0  0  0
  -27.8670  -13.5490   20.5390 C   0  0  0  0  0  3  0  0  0  0  0  0
  -28.7970  -13.3700   21.7590 C   0  0  0  0  0  2  0  0  0  0  0  0
  -30.1550  -13.7640   21.3480 N   0  0  0  0  0  0  0  0  0  0  0  0
  -31.9200  -15.2060   21.3220 O   0  0  0  0  0  0  0  0  0  0  0  0
  -29.8790  -15.9810   21.9000 N   0  0  0  0  0  0  0  0  0  0  0  0
  -28.9270  -15.6790   22.0440 H   0  0  0  0  0  0  0  0  0  0  0  0
  -25.3880  -14.0600   20.9930 C   0  0  0  0  0  0  0  0  0  0  0  0
  -24.3100  -13.2410   21.1880 C   0  0  0  0  0  0  0  0  0  0  0  0
  -24.8160  -11.9060   21.1450 C   0  0  0  0  0  0  0  0  0  0  0  0
  -26.4800  -13.2170   20.8430 N   0  0  0  0  0  0  0  0  0  0  0  0
  -26.1330  -11.9150   20.9930 N   0  0  0  0  0  0  0  0  0  0  0  0
  -24.1150  -10.6180   21.1820 C   0  0  0  0  0  0  0  0  0  0  0  0
  -24.4910   -9.6010   22.0860 C   0  0  0  0  0  3  0  0  0  0  0  0
  -23.7920   -8.3750   22.1160 C   0  0  0  0  0  3  0  0  0  0  0  0
  -22.7020   -8.1610   21.2390 C   0  0  0  0  0  0  0  0  0  0  0  0
  -22.3470   -9.1680   20.3250 C   0  0  0  0  0  3  0  0  0  0  0  0
  -23.0470  -10.3840   20.2930 C   0  0  0  0  0  3  0  0  0  0  0  0
  -21.9800   -6.9930   21.1780 O   0  0  0  0  0  0  0  0  0  0  0  0
  -21.8580   -6.1660   22.2660 C   0  0  0  0  0  0  0  0  0  0  0  0
  -21.3390   -6.6260   23.4960 C   0  0  0  0  0  3  0  0  0  0  0  0
  -21.1650   -5.7270   24.5670 C   0  0  0  0  0  3  0  0  0  0  0  0
  -21.5010   -4.3680   24.4090 C   0  0  0  0  0  0  0  0  0  0  0  0
  -22.0120   -3.9080   23.1830 C   0  0  0  0  0  3  0  0  0  0  0  0
  -22.1880   -4.8050   22.1140 C   0  0  0  0  0  0  0  0  0  0  0  0
  -22.6610   -4.3530   20.9280 F   0  0  0  0  0  0  0  0  0  0  0  0
  -21.3260   -3.5020   25.4350 F   0  0  0  0  0  0  0  0  0  0  0  0
  -22.8770  -13.6660   21.3160 C   0  0  0  0  0  0  0  0  0  0  0  0
  -22.0800  -12.9140   22.0680 N   0  0  0  0  0  0  0  0  0  0  0  0
  -22.4650  -14.6990   20.7890 O   0  0  0  0  0  0  0  0  0  0  0  0
  -22.4230  -12.0760   22.5140 H   0  0  0  0  0  0  0  0  0  0  0  0
  -21.1140  -13.1780   22.1980 H   0  0  0  0  0  0  0  0  0  0  0  0
  -25.5250  -15.4430   20.9120 N   0  0  0  0  0  0  0  0  0  0  0  0
  -24.7240  -16.0600   20.9880 H   0  0  0  0  0  0  0  0  0  0  0  0
  -26.3940  -15.9350   20.7670 H   0  0  0  0  0  0  0  0  0  0  0  0
  1  2  2  0
  2  4  1  0
  2 11  1  0
  3 10  1  0
  3  4  1  0
  4 56  1  0
  5  1  1  0
  5  3  1  0
  6  5  1  0
  7  8  1  0
  7  9  1  0
  8 10  1  0
  9 10  1  0
 12 13  1  0
 12 11  1  0
 14 15  1  0
 14 13  1  0
 15 17  1  0
 16 27  2  0
 17 22  1  0
 18 26  1  0
 18 28  1  0
 19 25  1  0
 19 21  1  0
 20 26  1  0
 21 20  1  0
 22 21  2  0
 23 24  1  0
 23 17  2  0
 24 19  2  0
 25 18  1  0
 26 16  1  0
 28 30  2  0
 29 28  1  0
 31 29  1  0
 32 41  2  0
 32 37  1  0
 33 29  1  0
 33 37  1  0
 34 33  1  0
 35 36  1  0
 35 34  1  0
 36 32  1  0
 37 38  2  0
 38 39  1  0
 40 39  2  0
 41 40  1  0
 42 16  1  0
 42 43  1  0
 42 52  1  0
 43 46  1  0
 44 48  1  0
 44 43  1  0
 45 44  2  0
 48 47  1  0
 50 48  1  0
 50 51  1  0
 50 49  1  0
 52 55  1  1
 52 53  1  0
 54 52  1  0
 56 57  1  0
 58 66  1  0
 59 64  1  0
 60 61  1  0
 60 59  1  0
 62 61  1  0
 62 71  1  0
 62 63  1  0
 64 58  1  0
 64 63  1  0
 65 58  2  0
 66 67  1  0
 66 57  1  0
 68 69  2  0
 69 88  1  0
 70 73  1  0
 70 69  1  0
 71 68  1  0
 71 72  1  0
 72 70  2  0
 73 74  1  0
 74 75  2  0
 76 75  1  0
 77 76  2  0
 78 77  1  0
 78 73  2  0
 79 76  1  0
 79 80  1  0
 80 81  1  0
 81 82  2  0
 83 82  1  0
 83 87  1  0
 84 83  2  0
 85 80  2  0
 85 84  1  0
 86 85  1  0
 88 89  1  0
 89 92  1  0
 89 91  1  0
 90 88  2  0
 93 94  1  0
 93 68  1  0
 95 93  1  0
M  ISO  4  14 101  15 101  58 100  66 100
M  END
>  <TORSDO>  (91) 
F 23

>  <SCORE>  (91) 
-8.785

>  <name>  (91) 
90

>  <ligand_id>  (91) 
90

>  <original_smiles>  (91) 
[H]c1c([H])c([H])c2c(c1[H])C([H])([H])C([H])([H])C([H])([H])C2([H])N([H])C(=O)C1([H])N(C(=O)C([H])(N([H])C(=O)C([H])(N([H])C([H])([H])[H])C([H])([H])[H])C(C([H])([H])[H])(C([H])([H])[H])C([H])([H])[H])C([H])([H])c2c([H])c(OC([H])([H])C([H])([H])C([H])([H])C([H])([H])c3c([H])[n+]([H])c(C4([H])C([H])([H])C([H])([H])C4([H])[H])n3C([H])([H])C([H])([H])N([H])C(=O)N3C([H])([H])C([H])([H])C([H])([H])C([H])(n4nc(-c5c([H])c([H])c(Oc6c([H])c([H])c(F)c([H])c6F)c([H])c5[H])c(C(=O)N([H])[H])c4N([H])[H])C3([H])[H])c([H])c([H])c2C1([H])[H]

>  <smiles>  (91) 
[H]c1c([H])c([H])c2c(c1[H])C([H])([H])C([H])([H])C([H])([H])C2([H])N([H])C(=O)C1([H])N(C(=O)C([H])(N([H])C(=O)C([H])(N([H])C([H])([H])[H])C([H])([H])[H])C(C([H])([H])[H])(C([H])([H])[H])C([H])([H])[H])C([H])([H])c2c([H])c(OC([H])([H])C([H])([H])C([H])([H])C([H])([H])c3c([H])[n+]([H])c(C4([H])C([H])([H])C([H])([H])C4([H])[H])n3C([H])([H])C([H])([H])N([H])C(=O)N3C([H])([H])C([H])([H])C([H])([H])C([H])(n4nc(-c5c([H])c([H])c(Oc6c([H])c([H])c(F)c([H])c6F)c([H])c5[H])c(C(=O)N([H])[H])c4N([H])[H])C3([H])[H])c([H])c([H])c2C1([H])[H]

$$$$
