0:0:0
     RDKit          3D

 87 95  0  0  1  0  0  0  0  0999 V2000
  -28.3430  -20.3520   20.7730 C   0  0  0  0  0  3  0  0  0  0  0  0
  -30.2020  -20.9310   19.5460 C   0  0  0  0  0  3  0  0  0  0  0  0
  -27.9200  -21.7790   20.7390 C   0  0  0  0  0  3  0  0  0  0  0  0
  -29.7780  -22.3530   19.5100 C   0  0  0  0  0  3  0  0  0  0  0  0
  -29.5340  -19.7860   20.1610 C   0  0  0  0  0  0  0  0  0  0  0  0
  -28.5900  -22.9230   20.1160 C   0  0  0  0  0  0  0  0  0  0  0  0
  -30.2450  -18.2000   20.1870 C   0  0  0  0  0  2  0  0  0  0  0  0
  -30.5290  -15.3550   20.1680 C   0  0  0  0  0  0  0  0  0  0  0  0
  -30.4510  -12.9400   19.2640 C   0  0  0  0  0  2  0  0  0  0  0  0
  -29.5010  -12.7760   18.0520 C   0  0  0  0  0  2  0  0  0  0  0  0
  -28.0610  -12.5130   18.5250 C   0  0  0  0  0  2  0  0  0  0  0  0
  -27.6440  -13.4600   19.6780 C   0  0  0  0  0  3  0  0  0  0  0  0
  -28.7200  -13.5800   20.7780 C   0  0  0  0  0  2  0  0  0  0  0  0
  -29.9420  -14.0670   20.1200 N   0  0  0  0  0  0  0  0  0  0  0  0
  -31.7390  -15.3570   19.9040 O   0  0  0  0  0  0  0  0  0  0  0  0
  -29.7970  -16.6240   20.3000 N   0  0  0  0  0  0  0  0  0  0  0  0
  -28.8100  -16.4950   20.4660 H   0  0  0  0  0  0  0  0  0  0  0  0
  -25.2930  -14.0040   20.5030 C   0  0  0  0  0  0  0  0  0  0  0  0
  -24.2410  -13.2200   20.8860 C   0  0  0  0  0  0  0  0  0  0  0  0
  -24.7090  -11.8700   20.8170 C   0  0  0  0  0  0  0  0  0  0  0  0
  -26.3300  -13.1360   20.2160 N   0  0  0  0  0  0  0  0  0  0  0  0
  -25.9930  -11.8450   20.4720 N   0  0  0  0  0  0  0  0  0  0  0  0
  -23.9870  -10.6030   21.0000 C   0  0  0  0  0  0  0  0  0  0  0  0
  -24.4180   -9.6360   21.9340 C   0  0  0  0  0  3  0  0  0  0  0  0
  -23.6950   -8.4360   22.1060 C   0  0  0  0  0  3  0  0  0  0  0  0
  -22.5270   -8.1960   21.3440 C   0  0  0  0  0  0  0  0  0  0  0  0
  -22.1150   -9.1520   20.3990 C   0  0  0  0  0  3  0  0  0  0  0  0
  -22.8400  -10.3430   20.2250 C   0  0  0  0  0  3  0  0  0  0  0  0
  -21.7730   -7.0490   21.4270 O   0  0  0  0  0  0  0  0  0  0  0  0
  -21.6850   -6.3290   22.5910 C   0  0  0  0  0  0  0  0  0  0  0  0
  -21.1370   -6.8810   23.7690 C   0  0  0  0  0  3  0  0  0  0  0  0
  -21.0010   -6.0840   24.9240 C   0  0  0  0  0  3  0  0  0  0  0  0
  -21.4010   -4.7350   24.9000 C   0  0  0  0  0  0  0  0  0  0  0  0
  -21.9410   -4.1810   23.7260 C   0  0  0  0  0  3  0  0  0  0  0  0
  -22.0800   -4.9760   22.5730 C   0  0  0  0  0  0  0  0  0  0  0  0
  -22.5810   -4.4310   21.4390 F   0  0  0  0  0  0  0  0  0  0  0  0
  -21.2630   -3.9660   26.0050 F   0  0  0  0  0  0  0  0  0  0  0  0
  -22.8510  -13.6890   21.1970 C   0  0  0  0  0  0  0  0  0  0  0  0
  -22.1460  -12.9780   22.0690 N   0  0  0  0  0  0  0  0  0  0  0  0
  -22.4010  -14.7220   20.7020 O   0  0  0  0  0  0  0  0  0  0  0  0
  -22.5260  -12.1440   22.4900 H   0  0  0  0  0  0  0  0  0  0  0  0
  -21.2140  -13.2750   22.3220 H   0  0  0  0  0  0  0  0  0  0  0  0
  -25.4470  -15.3790   20.3460 N   0  0  0  0  0  0  0  0  0  0  0  0
  -24.6770  -16.0250   20.4830 H   0  0  0  0  0  0  0  0  0  0  0  0
  -26.2740  -15.8250   19.9720 H   0  0  0  0  0  0  0  0  0  0  0  0
  -27.8620  -24.4830   19.8860 C   0  0  0  0  0  2  0  0  0  0  0  0
  -28.2330  -26.0370   20.1780 O   0  0  0  0  0  0  0  0  0  0  0  0
  -24.6920  -31.9260   23.2300 C   0  0  0  0  0  0  0  0  0  0  0  0
  -27.2340  -27.1330   20.1210 C   0  0  0  0  0  0  0  0  0  0  0  0
  -23.4840  -30.5440   21.5900 C   0  0  0  0  0  3  0  0  0  0  0  0
  -24.9230  -28.9780   20.1270 C   0  0  0  0  0  0  0  0  0  0  0  0
  -26.0450  -30.7820   21.4120 C   0  0  0  0  0  2  0  0  0  0  0  0
  -26.1150  -29.3860   20.7380 C   0  0  0  0  0  0  0  0  0  0  0  0
  -27.2660  -28.4830   20.7160 C   0  0  0  0  0  3  0  0  0  0  0  0
  -26.0130  -26.8730   19.4600 C   0  0  0  0  0  3  0  0  0  0  0  0
  -24.8940  -27.7400   19.4670 C   0  0  0  0  0  3  0  0  0  0  0  0
  -23.6980  -29.8840   20.2010 C   0  0  0  0  0  2  0  0  0  0  0  0
  -24.7610  -31.1090   22.1310 N   0  0  0  0  0  0  0  0  0  0  0  0
  -23.6080  -32.2010   23.7700 O   0  0  0  0  0  0  0  0  0  0  0  0
  -22.8100  -29.5280   22.5500 C   0  0  0  0  0  0  0  0  0  0  0  0
  -21.4850  -29.3350   22.4190 N   0  0  0  0  0  0  0  0  0  0  0  0
  -23.4870  -28.9170   23.3810 O   0  0  0  0  0  0  0  0  0  0  0  0
  -20.9910  -29.8800   21.7270 H   0  0  0  0  0  0  0  0  0  0  0  0
  -18.1240  -28.0690   22.9290 C   0  0  0  0  0  0  0  0  0  0  0  0
  -20.6790  -28.3800   23.1880 C   0  0  0  0  0  3  0  0  0  0  0  0
  -20.8050  -26.9520   22.6080 C   0  0  0  0  0  2  0  0  0  0  0  0
  -19.7070  -26.6140   21.5940 C   0  0  0  0  0  2  0  0  0  0  0  0
  -18.3240  -26.7280   22.2430 C   0  0  0  0  0  2  0  0  0  0  0  0
  -19.2290  -28.8510   23.3590 C   0  0  0  0  0  0  0  0  0  0  0  0
  -18.9860  -30.1030   23.9630 C   0  0  0  0  0  3  0  0  0  0  0  0
  -17.6710  -30.5750   24.1380 C   0  0  0  0  0  3  0  0  0  0  0  0
  -16.5810  -29.7910   23.7240 C   0  0  0  0  0  3  0  0  0  0  0  0
  -16.8080  -28.5400   23.1250 C   0  0  0  0  0  3  0  0  0  0  0  0
  -25.9680  -32.5680   23.8520 C   0  0  0  0  0  3  0  0  0  0  0  0
  -25.6500  -33.9640   24.1980 N   0  0  0  0  0  0  0  0  0  0  0  0
  -25.9410  -35.0280   23.4380 C   0  0  0  0  0  0  0  0  0  0  0  0
  -26.5700  -34.9390   22.3810 O   0  0  0  0  0  0  0  0  0  0  0  0
  -25.0870  -34.1050   25.0250 H   0  0  0  0  0  0  0  0  0  0  0  0
  -24.1820  -36.8090   23.1780 C   0  0  0  0  0  1  0  0  0  0  0  0
  -25.4620  -36.4100   23.9280 C   0  0  0  0  0  3  0  0  0  0  0  0
  -27.6120  -37.3250   24.6820 C   0  0  0  0  0  1  0  0  0  0  0  0
  -26.4770  -37.4760   23.7750 N   0  0  0  0  0  0  0  0  0  0  0  0
  -26.0640  -38.3910   23.9330 H   0  0  0  0  0  0  0  0  0  0  0  0
  -26.4890  -31.7970   25.1280 C   0  0  1  0  0  0  0  0  0  0  0  0
  -25.3970  -31.5480   26.1950 C   0  0  0  0  0  1  0  0  0  0  0  0
  -27.0830  -30.4240   24.7400 C   0  0  0  0  0  1  0  0  0  0  0  0
  -27.6310  -32.5980   25.7940 C   0  0  0  0  0  1  0  0  0  0  0  0
  2  5  1  0
  3  1  1  0
  4  2  2  0
  4  6  1  0
  5  7  1  0
  5  1  2  0
  6  3  2  0
  7 16  1  0
  8 16  1  0
  9 14  1  0
 10 11  1  0
 10  9  1  0
 12 11  1  0
 12 21  1  0
 12 13  1  0
 14  8  1  0
 14 13  1  0
 15  8  2  0
 16 17  1  0
 18 19  2  0
 19 38  1  0
 20 19  1  0
 20 23  1  0
 21 22  1  0
 21 18  1  0
 22 20  2  0
 23 24  1  0
 24 25  2  0
 26 29  1  0
 26 25  1  0
 27 26  2  0
 28 27  1  0
 28 23  2  0
 29 30  1  0
 30 31  1  0
 31 32  2  0
 33 32  1  0
 33 37  1  0
 34 33  2  0
 35 30  2  0
 35 34  1  0
 36 35  1  0
 38 39  1  0
 39 42  1  0
 39 41  1  0
 40 38  2  0
 43 44  1  0
 43 18  1  0
 45 43  1  0
 46  6  1  0
 46 47  1  0
 48 59  2  0
 49 47  1  0
 49 54  1  0
 50 58  1  0
 50 60  1  0
 51 57  1  0
 51 53  1  0
 52 58  1  0
 53 52  1  0
 54 53  2  0
 55 56  1  0
 55 49  2  0
 56 51  2  0
 57 50  1  0
 58 48  1  0
 60 62  2  0
 61 60  1  0
 63 61  1  0
 64 73  2  0
 64 69  1  0
 65 61  1  0
 65 69  1  0
 66 65  1  0
 67 68  1  0
 67 66  1  0
 68 64  1  0
 69 70  2  0
 70 71  1  0
 72 71  2  0
 73 72  1  0
 74 48  1  0
 74 75  1  0
 74 84  1  0
 75 78  1  0
 76 80  1  0
 76 75  1  0
 77 76  2  0
 80 79  1  0
 82 80  1  0
 82 83  1  0
 82 81  1  0
 84 87  1  1
 84 85  1  0
 86 84  1  0
M  ISO  4   8 100  16 100  46 101  47 101
M  END
>  <TORSDO>  (1) 
F 18

>  <SCORE>  (1) 
-15.768

>  <name>  (1) 
0

>  <ligand_id>  (1) 
0

>  <original_smiles>  (1) 
[H]c1c([H])c([H])c2c(c1[H])C([H])([H])C([H])([H])C([H])([H])C2([H])N([H])C(=O)C1([H])N(C(=O)C([H])(N([H])C(=O)C([H])(N([H])C([H])([H])[H])C([H])([H])[H])C(C([H])([H])[H])(C([H])([H])[H])C([H])([H])[H])C([H])([H])c2c([H])c(OC([H])([H])c3c([H])c([H])c(C([H])([H])N([H])C(=O)N4C([H])([H])C([H])([H])C([H])([H])C([H])(n5nc(-c6c([H])c([H])c(Oc7c([H])c([H])c(F)c([H])c7F)c([H])c6[H])c(C(=O)N([H])[H])c5N([H])[H])C4([H])[H])c([H])c3[H])c([H])c([H])c2C1([H])[H]

>  <smiles>  (1) 
[H]c1c([H])c([H])c2c(c1[H])C([H])([H])C([H])([H])C([H])([H])C2([H])N([H])C(=O)C1([H])N(C(=O)C([H])(N([H])C(=O)C([H])(N([H])C([H])([H])[H])C([H])([H])[H])C(C([H])([H])[H])(C([H])([H])[H])C([H])([H])[H])C([H])([H])c2c([H])c(OC([H])([H])c3c([H])c([H])c(C([H])([H])N([H])C(=O)N4C([H])([H])C([H])([H])C([H])([H])C([H])(n5nc(-c6c([H])c([H])c(Oc7c([H])c([H])c(F)c([H])c7F)c([H])c6[H])c(C(=O)N([H])[H])c5N([H])[H])C4([H])[H])c([H])c3[H])c([H])c([H])c2C1([H])[H]

$$$$
1:0:0
     RDKit          3D

 94102  0  0  1  0  0  0  0  0999 V2000
  -29.2450  -21.1390   20.6360 C   0  0  0  0  0  3  0  0  0  0  0  0
  -29.3880  -19.4600   18.4800 C   0  0  0  0  0  3  0  0  0  0  0  0
  -29.7050  -19.8010   20.8280 C   0  0  0  0  0  0  0  0  0  0  0  0
  -29.8210  -18.9150   19.7130 C   0  0  0  0  0  0  0  0  0  0  0  0
  -28.8800  -21.5920   19.3530 C   0  0  0  0  0  0  0  0  0  0  0  0
  -28.9290  -20.7340   18.3090 N   0  0  0  0  0  0  0  0  0  0  0  0
  -28.3970  -22.8950   19.0390 N   0  0  0  0  0  0  0  0  0  0  0  0
  -28.0900  -22.9970   18.0780 H   0  0  0  0  0  0  0  0  0  0  0  0
  -30.0880  -19.3560   22.2350 C   0  0  0  0  0  2  0  0  0  0  0  0
  -31.4770  -21.2340   23.2870 C   0  0  0  0  0  1  0  0  0  0  0  0
  -32.1210  -18.8200   23.6580 C   0  0  0  0  0  1  0  0  0  0  0  0
  -31.4950  -19.8230   22.6750 C   0  0  0  0  0  3  0  0  0  0  0  0
  -30.6210  -17.5550   19.7580 C   0  0  0  0  0  2  0  0  0  0  0  0
  -30.6930  -15.0340   19.6390 C   0  0  0  0  0  0  0  0  0  0  0  0
  -30.3890  -12.7370   18.7610 C   0  0  0  0  0  2  0  0  0  0  0  0
  -29.3490  -12.7490   17.6220 C   0  0  0  0  0  2  0  0  0  0  0  0
  -27.9290  -12.5810   18.1930 C   0  0  0  0  0  2  0  0  0  0  0  0
  -27.6460  -13.5260   19.3940 C   0  0  0  0  0  3  0  0  0  0  0  0
  -28.8030  -13.5220   20.4170 C   0  0  0  0  0  2  0  0  0  0  0  0
  -30.0380  -13.8310   19.6870 N   0  0  0  0  0  0  0  0  0  0  0  0
  -31.8360  -15.1050   19.1840 O   0  0  0  0  0  0  0  0  0  0  0  0
  -30.0010  -16.1900   19.9010 N   0  0  0  0  0  0  0  0  0  0  0  0
  -29.0460  -16.1200   20.2180 H   0  0  0  0  0  0  0  0  0  0  0  0
  -25.3670  -14.1050   20.4240 C   0  0  0  0  0  0  0  0  0  0  0  0
  -24.3360  -13.3240   20.8690 C   0  0  0  0  0  0  0  0  0  0  0  0
  -24.7670  -11.9710   20.7100 C   0  0  0  0  0  0  0  0  0  0  0  0
  -26.3610  -13.2280   20.0200 N   0  0  0  0  0  0  0  0  0  0  0  0
  -26.0140  -11.9370   20.2530 N   0  0  0  0  0  0  0  0  0  0  0  0
  -24.0430  -10.7090   20.9110 C   0  0  0  0  0  0  0  0  0  0  0  0
  -24.4820   -9.7450   21.8460 C   0  0  0  0  0  3  0  0  0  0  0  0
  -23.7570   -8.5480   22.0340 C   0  0  0  0  0  3  0  0  0  0  0  0
  -22.5790   -8.3070   21.2880 C   0  0  0  0  0  0  0  0  0  0  0  0
  -22.1610   -9.2590   20.3420 C   0  0  0  0  0  3  0  0  0  0  0  0
  -22.8860  -10.4470   20.1520 C   0  0  0  0  0  3  0  0  0  0  0  0
  -21.8260   -7.1610   21.3850 O   0  0  0  0  0  0  0  0  0  0  0  0
  -21.7060   -6.4770   22.5680 C   0  0  0  0  0  0  0  0  0  0  0  0
  -21.1020   -7.0560   23.7050 C   0  0  0  0  0  3  0  0  0  0  0  0
  -20.9370   -6.2930   24.8790 C   0  0  0  0  0  3  0  0  0  0  0  0
  -21.3660   -4.9530   24.9150 C   0  0  0  0  0  0  0  0  0  0  0  0
  -21.9620   -4.3740   23.7810 C   0  0  0  0  0  3  0  0  0  0  0  0
  -22.1290   -5.1330   22.6110 C   0  0  0  0  0  0  0  0  0  0  0  0
  -22.6860   -4.5640   21.5150 F   0  0  0  0  0  0  0  0  0  0  0  0
  -21.2000   -4.2180   26.0400 F   0  0  0  0  0  0  0  0  0  0  0  0
  -22.9880  -13.8020   21.3250 C   0  0  0  0  0  0  0  0  0  0  0  0
  -22.3450  -13.0600   22.2210 N   0  0  0  0  0  0  0  0  0  0  0  0
  -22.5180  -14.8650   20.9240 O   0  0  0  0  0  0  0  0  0  0  0  0
  -22.7420  -12.1980   22.5670 H   0  0  0  0  0  0  0  0  0  0  0  0
  -21.4450  -13.3600   22.5680 H   0  0  0  0  0  0  0  0  0  0  0  0
  -25.5360  -15.4810   20.3040 N   0  0  0  0  0  0  0  0  0  0  0  0
  -24.7990  -16.1380   20.5400 H   0  0  0  0  0  0  0  0  0  0  0  0
  -26.3460  -15.9280   19.8950 H   0  0  0  0  0  0  0  0  0  0  0  0
  -28.7130  -24.1940   19.7070 C   0  0  0  0  0  2  0  0  0  0  0  0
  -27.7240  -25.3620   19.2800 C   0  0  0  0  0  2  0  0  0  0  0  0
  -27.9580  -26.7900   19.6040 O   0  0  0  0  0  0  0  0  0  0  0  0
  -24.3940  -31.9370   23.1950 C   0  0  0  0  0  0  0  0  0  0  0  0
  -26.8280  -27.6260   19.6740 C   0  0  0  0  0  0  0  0  0  0  0  0
  -23.0830  -30.5880   21.5980 C   0  0  0  0  0  3  0  0  0  0  0  0
  -24.4370  -29.1700   19.9620 C   0  0  0  0  0  0  0  0  0  0  0  0
  -25.5890  -30.9930   21.2100 C   0  0  0  0  0  2  0  0  0  0  0  0
  -25.6430  -29.6560   20.4820 C   0  0  0  0  0  0  0  0  0  0  0  0
  -26.8410  -28.8940   20.3340 C   0  0  0  0  0  3  0  0  0  0  0  0
  -25.5930  -27.2090   19.1180 C   0  0  0  0  0  3  0  0  0  0  0  0
  -24.4120  -27.9510   19.2730 C   0  0  0  0  0  3  0  0  0  0  0  0
  -23.1880  -30.0010   20.1680 C   0  0  0  0  0  2  0  0  0  0  0  0
  -24.3780  -31.1870   22.0560 N   0  0  0  0  0  0  0  0  0  0  0  0
  -23.3560  -32.1520   23.8380 O   0  0  0  0  0  0  0  0  0  0  0  0
  -22.5410  -29.4980   22.5540 C   0  0  0  0  0  0  0  0  0  0  0  0
  -21.2410  -29.1830   22.4330 N   0  0  0  0  0  0  0  0  0  0  0  0
  -23.2880  -28.9420   23.3630 O   0  0  0  0  0  0  0  0  0  0  0  0
  -20.6930  -29.6890   21.7520 H   0  0  0  0  0  0  0  0  0  0  0  0
  -18.0350  -27.5600   22.8680 C   0  0  0  0  0  0  0  0  0  0  0  0
  -20.5270  -28.1630   23.2040 C   0  0  0  0  0  3  0  0  0  0  0  0
  -20.8360  -26.7450   22.6730 C   0  0  0  0  0  2  0  0  0  0  0  0
  -19.8190  -26.2540   21.6370 C   0  0  0  0  0  2  0  0  0  0  0  0
  -18.4100  -26.2310   22.2350 C   0  0  0  0  0  2  0  0  0  0  0  0
  -19.0290  -28.4740   23.3080 C   0  0  0  0  0  0  0  0  0  0  0  0
  -18.6270  -29.7100   23.8590 C   0  0  0  0  0  3  0  0  0  0  0  0
  -17.2620  -30.0380   23.9750 C   0  0  0  0  0  3  0  0  0  0  0  0
  -16.2830  -29.1230   23.5500 C   0  0  0  0  0  3  0  0  0  0  0  0
  -16.6690  -27.8870   23.0030 C   0  0  0  0  0  3  0  0  0  0  0  0
  -25.7100  -32.5770   23.7340 C   0  0  0  0  0  3  0  0  0  0  0  0
  -25.3950  -33.9480   24.1580 N   0  0  0  0  0  0  0  0  0  0  0  0
  -25.6140  -35.0430   23.4170 C   0  0  0  0  0  0  0  0  0  0  0  0
  -26.1770  -35.0060   22.3190 O   0  0  0  0  0  0  0  0  0  0  0  0
  -24.8840  -34.0470   25.0220 H   0  0  0  0  0  0  0  0  0  0  0  0
  -23.7950  -36.7770   23.3410 C   0  0  0  0  0  1  0  0  0  0  0  0
  -25.1360  -36.3930   23.9850 C   0  0  0  0  0  3  0  0  0  0  0  0
  -27.3100  -37.3420   24.6190 C   0  0  0  0  0  1  0  0  0  0  0  0
  -26.1110  -37.4890   23.7980 N   0  0  0  0  0  0  0  0  0  0  0  0
  -25.6890  -38.3880   24.0140 H   0  0  0  0  0  0  0  0  0  0  0  0
  -26.3570  -31.7630   24.9200 C   0  0  1  0  0  0  0  0  0  0  0  0
  -25.3540  -31.3910   26.0380 C   0  0  0  0  0  1  0  0  0  0  0  0
  -26.9940  -30.4520   24.4040 C   0  0  0  0  0  1  0  0  0  0  0  0
  -27.5010  -32.5870   25.5570 C   0  0  0  0  0  1  0  0  0  0  0  0
  1  3  1  0
  2  4  1  0
  3  9  1  0
  4 13  1  0
  4  3  2  0
  5  1  2  0
  6  2  2  0
  6  5  1  0
  7  5  1  0
  7 52  1  0
  8  7  1  0
  9 12  1  0
 12 10  1  0
 12 11  1  0
 13 22  1  0
 14 20  1  0
 14 22  1  0
 15 20  1  0
 16 17  1  0
 16 15  1  0
 18 17  1  0
 18 27  1  0
 18 19  1  0
 20 19  1  0
 21 14  2  0
 22 23  1  0
 24 25  2  0
 25 44  1  0
 26 25  1  0
 26 29  1  0
 27 28  1  0
 27 24  1  0
 28 26  2  0
 29 30  1  0
 30 31  2  0
 32 35  1  0
 32 31  1  0
 33 32  2  0
 34 33  1  0
 34 29  2  0
 35 36  1  0
 36 41  2  0
 36 37  1  0
 37 38  2  0
 38 39  1  0
 39 43  1  0
 40 39  2  0
 41 40  1  0
 42 41  1  0
 44 45  1  0
 45 47  1  0
 45 48  1  0
 46 44  2  0
 49 24  1  0
 49 50  1  0
 51 49  1  0
 53 54  1  0
 53 52  1  0
 54 56  1  0
 55 66  2  0
 56 61  1  0
 57 65  1  0
 57 67  1  0
 58 64  1  0
 58 60  1  0
 59 65  1  0
 60 59  1  0
 61 60  2  0
 62 63  1  0
 62 56  2  0
 63 58  2  0
 64 57  1  0
 65 55  1  0
 67 69  2  0
 68 67  1  0
 70 68  1  0
 71 80  2  0
 71 76  1  0
 72 68  1  0
 72 76  1  0
 73 72  1  0
 74 75  1  0
 74 73  1  0
 75 71  1  0
 76 77  2  0
 77 78  1  0
 79 78  2  0
 80 79  1  0
 81 55  1  0
 81 82  1  0
 81 91  1  0
 82 85  1  0
 83 87  1  0
 83 82  1  0
 84 83  2  0
 87 86  1  0
 89 87  1  0
 89 90  1  0
 89 88  1  0
 91 94  1  1
 91 92  1  0
 93 91  1  0
M  ISO  4  14 100  22 100  53 101  54 101
M  END
>  <TORSDO>  (2) 
F 21

>  <SCORE>  (2) 
-10.921

>  <name>  (2) 
1

>  <ligand_id>  (2) 
1

>  <original_smiles>  (2) 
[H]c1nc(N([H])C([H])([H])C([H])([H])Oc2c([H])c([H])c3c(c2[H])C([H])([H])N(C(=O)C([H])(N([H])C(=O)C([H])(N([H])C([H])([H])[H])C([H])([H])[H])C(C([H])([H])[H])(C([H])([H])[H])C([H])([H])[H])C([H])(C(=O)N([H])C2([H])c4c([H])c([H])c([H])c([H])c4C([H])([H])C([H])([H])C2([H])[H])C3([H])[H])c([H])c(C([H])([H])C([H])(C([H])([H])[H])C([H])([H])[H])c1C([H])([H])N([H])C(=O)N1C([H])([H])C([H])([H])C([H])([H])C([H])(n2nc(-c3c([H])c([H])c(Oc4c([H])c([H])c(F)c([H])c4F)c([H])c3[H])c(C(=O)N([H])[H])c2N([H])[H])C1([H])[H]

>  <smiles>  (2) 
[H]c1nc(N([H])C([H])([H])C([H])([H])Oc2c([H])c([H])c3c(c2[H])C([H])([H])N(C(=O)C([H])(N([H])C(=O)C([H])(N([H])C([H])([H])[H])C([H])([H])[H])C(C([H])([H])[H])(C([H])([H])[H])C([H])([H])[H])C([H])(C(=O)N([H])C2([H])c4c([H])c([H])c([H])c([H])c4C([H])([H])C([H])([H])C2([H])[H])C3([H])[H])c([H])c(C([H])([H])C([H])(C([H])([H])[H])C([H])([H])[H])c1C([H])([H])N([H])C(=O)N1C([H])([H])C([H])([H])C([H])([H])C([H])(n2nc(-c3c([H])c([H])c(Oc4c([H])c([H])c(F)c([H])c4F)c([H])c3[H])c(C(=O)N([H])[H])c2N([H])[H])C1([H])[H]

$$$$
2:0:0
     RDKit          3D

 94102  0  0  1  0  0  0  0  0999 V2000
  -28.8220  -21.2410   22.4390 C   0  0  0  0  0  3  0  0  0  0  0  0
  -28.4620  -21.3880   20.0380 C   0  0  0  0  0  3  0  0  0  0  0  0
  -28.8230  -22.6460   22.5290 C   0  0  0  0  0  3  0  0  0  0  0  0
  -28.4830  -22.7950   20.1280 C   0  0  0  0  0  3  0  0  0  0  0  0
  -28.6490  -20.6010   21.1950 C   0  0  0  0  0  0  0  0  0  0  0  0
  -28.6760  -23.4420   21.3670 C   0  0  0  0  0  0  0  0  0  0  0  0
  -28.6870  -19.0820   21.1080 C   0  0  0  0  0  2  0  0  0  0  0  0
  -29.8530  -18.6520   20.3090 N   0  0  0  0  0  4  0  0  0  0  0  0
  -30.3830  -19.4780   20.0950 H   0  0  0  0  0  0  0  0  0  0  0  0
  -29.5110  -18.2740   19.4400 H   0  0  0  0  0  0  0  0  0  0  0  0
  -30.7450  -17.6660   20.9590 C   0  0  0  0  0  2  0  0  0  0  0  0
  -31.5730  -16.9030   19.9080 C   0  0  0  0  0  2  0  0  0  0  0  0
  -32.8380  -14.8280   19.8220 C   0  0  0  0  0  0  0  0  0  0  0  0
  -32.2660  -12.5040   19.2220 C   0  0  0  0  0  2  0  0  0  0  0  0
  -31.3410  -12.4380   17.9920 C   0  0  0  0  0  2  0  0  0  0  0  0
  -29.8640  -12.5540   18.4200 C   0  0  0  0  0  2  0  0  0  0  0  0
  -29.6200  -13.7670   19.3520 C   0  0  0  0  0  3  0  0  0  0  0  0
  -30.6450  -13.7820   20.5100 C   0  0  0  0  0  2  0  0  0  0  0  0
  -32.0000  -13.7630   19.9310 N   0  0  0  0  0  0  0  0  0  0  0  0
  -33.9090  -14.7910   19.2110 O   0  0  0  0  0  0  0  0  0  0  0  0
  -32.4940  -15.9300   20.4990 N   0  0  0  0  0  0  0  0  0  0  0  0
  -33.3190  -16.3920   20.8550 H   0  0  0  0  0  0  0  0  0  0  0  0
  -27.4390  -14.8920   20.1310 C   0  0  0  0  0  0  0  0  0  0  0  0
  -26.2310  -14.3720   20.5080 C   0  0  0  0  0  0  0  0  0  0  0  0
  -26.3700  -12.9520   20.4290 C   0  0  0  0  0  0  0  0  0  0  0  0
  -28.2490  -13.8000   19.8500 N   0  0  0  0  0  0  0  0  0  0  0  0
  -27.6090  -12.6290   20.0870 N   0  0  0  0  0  0  0  0  0  0  0  0
  -25.3820  -11.8800   20.6000 C   0  0  0  0  0  0  0  0  0  0  0  0
  -25.6160  -10.7950   21.4720 C   0  0  0  0  0  3  0  0  0  0  0  0
  -24.6450   -9.7830   21.6320 C   0  0  0  0  0  3  0  0  0  0  0  0
  -23.4250   -9.8530   20.9170 C   0  0  0  0  0  0  0  0  0  0  0  0
  -23.2090  -10.9220   20.0310 C   0  0  0  0  0  3  0  0  0  0  0  0
  -24.1790  -11.9260   19.8700 C   0  0  0  0  0  3  0  0  0  0  0  0
  -22.4360   -8.9020   20.9870 O   0  0  0  0  0  0  0  0  0  0  0  0
  -22.2280   -8.1640   22.1250 C   0  0  0  0  0  0  0  0  0  0  0  0
  -21.9700   -8.7730   23.3730 C   0  0  0  0  0  3  0  0  0  0  0  0
  -21.6920   -7.9770   24.5020 C   0  0  0  0  0  3  0  0  0  0  0  0
  -21.6640   -6.5740   24.3840 C   0  0  0  0  0  0  0  0  0  0  0  0
  -21.9140   -5.9660   23.1410 C   0  0  0  0  0  3  0  0  0  0  0  0
  -22.1920   -6.7590   22.0140 C   0  0  0  0  0  0  0  0  0  0  0  0
  -22.4120   -6.1700   20.8150 F   0  0  0  0  0  0  0  0  0  0  0  0
  -21.3880   -5.8070   25.4650 F   0  0  0  0  0  0  0  0  0  0  0  0
  -24.9810  -15.1420   20.8210 C   0  0  0  0  0  0  0  0  0  0  0  0
  -24.1290  -14.6010   21.6840 N   0  0  0  0  0  0  0  0  0  0  0  0
  -24.7780  -16.2550   20.3340 O   0  0  0  0  0  0  0  0  0  0  0  0
  -24.3070  -13.6970   22.0930 H   0  0  0  0  0  0  0  0  0  0  0  0
  -23.2850  -15.0960   21.9380 H   0  0  0  0  0  0  0  0  0  0  0  0
  -27.9130  -16.1930   19.9770 N   0  0  0  0  0  0  0  0  0  0  0  0
  -27.2090  -16.9230   19.9440 H   0  0  0  0  0  0  0  0  0  0  0  0
  -28.6410  -16.3460   19.2890 H   0  0  0  0  0  0  0  0  0  0  0  0
  -28.6690  -24.8220   21.3500 O   0  0  0  0  0  0  0  0  0  0  0  0
  -29.6350  -25.5520   22.1100 C   0  0  0  0  0  2  0  0  0  0  0  0
  -30.5900  -26.3120   21.1660 C   0  0  0  0  0  2  0  0  0  0  0  0
  -30.3840  -27.7250   21.2330 O   0  0  0  0  0  0  0  0  0  0  0  0
  -25.1890  -31.8750   23.7230 C   0  0  0  0  0  0  0  0  0  0  0  0
  -29.1090  -28.2010   21.0290 C   0  0  0  0  0  0  0  0  0  0  0  0
  -24.5780  -30.4230   21.8160 C   0  0  0  0  0  3  0  0  0  0  0  0
  -26.5190  -29.2590   20.6440 C   0  0  0  0  0  0  0  0  0  0  0  0
  -26.9910  -31.2150   22.1330 C   0  0  0  0  0  2  0  0  0  0  0  0
  -27.4350  -29.9320   21.4640 C   0  0  0  0  0  0  0  0  0  0  0  0
  -28.7320  -29.4100   21.6500 C   0  0  0  0  0  3  0  0  0  0  0  0
  -28.1730  -27.5340   20.2060 C   0  0  0  0  0  3  0  0  0  0  0  0
  -26.8830  -28.0580   20.0120 C   0  0  0  0  0  3  0  0  0  0  0  0
  -25.1570  -29.8930   20.4780 C   0  0  0  0  0  2  0  0  0  0  0  0
  -25.5910  -31.1840   22.6190 N   0  0  0  0  0  0  0  0  0  0  0  0
  -23.9970  -31.9220   24.0530 O   0  0  0  0  0  0  0  0  0  0  0  0
  -23.9540  -29.2370   22.5850 C   0  0  0  0  0  0  0  0  0  0  0  0
  -22.7190  -28.8660   22.2080 N   0  0  0  0  0  0  0  0  0  0  0  0
  -24.5830  -28.6580   23.4720 O   0  0  0  0  0  0  0  0  0  0  0  0
  -22.2700  -29.3980   21.4740 H   0  0  0  0  0  0  0  0  0  0  0  0
  -19.5210  -27.1920   22.0910 C   0  0  0  0  0  0  0  0  0  0  0  0
  -21.9520  -27.7520   22.7630 C   0  0  0  0  0  3  0  0  0  0  0  0
  -22.3400  -26.4150   22.0930 C   0  0  0  0  0  2  0  0  0  0  0  0
  -21.4460  -26.0560   20.9020 C   0  0  0  0  0  2  0  0  0  0  0  0
  -19.9820  -25.9530   21.3420 C   0  0  0  0  0  2  0  0  0  0  0  0
  -20.4470  -28.0450   22.7470 C   0  0  0  0  0  0  0  0  0  0  0  0
  -19.9710  -29.2010   23.4010 C   0  0  0  0  0  3  0  0  0  0  0  0
  -18.5980  -29.5100   23.4080 C   0  0  0  0  0  3  0  0  0  0  0  0
  -17.6820  -28.6530   22.7710 C   0  0  0  0  0  3  0  0  0  0  0  0
  -18.1430  -27.4960   22.1190 C   0  0  0  0  0  3  0  0  0  0  0  0
  -26.2060  -32.6630   24.6090 C   0  0  0  0  0  3  0  0  0  0  0  0
  -25.6860  -34.0260   24.7750 N   0  0  0  0  0  0  0  0  0  0  0  0
  -26.0820  -35.0830   24.0530 C   0  0  0  0  0  0  0  0  0  0  0  0
  -26.9870  -35.0220   23.2180 O   0  0  0  0  0  0  0  0  0  0  0  0
  -24.9050  -34.1380   25.4040 H   0  0  0  0  0  0  0  0  0  0  0  0
  -24.3080  -36.6450   23.1950 C   0  0  0  0  0  1  0  0  0  0  0  0
  -25.3560  -36.4200   24.2970 C   0  0  0  0  0  3  0  0  0  0  0  0
  -27.1500  -37.5580   25.5250 C   0  0  0  0  0  1  0  0  0  0  0  0
  -26.2680  -37.5820   24.3610 N   0  0  0  0  0  0  0  0  0  0  0  0
  -25.7440  -38.4530   24.3760 H   0  0  0  0  0  0  0  0  0  0  0  0
  -26.4600  -31.9870   26.0130 C   0  0  1  0  0  0  0  0  0  0  0  0
  -25.1630  -31.6080   26.7640 C   0  0  0  0  0  1  0  0  0  0  0  0
  -27.3080  -30.7040   25.8570 C   0  0  0  0  0  1  0  0  0  0  0  0
  -27.2750  -32.9430   26.9140 C   0  0  0  0  0  1  0  0  0  0  0  0
  1  3  1  0
  2  4  2  0
  2  5  1  0
  4  6  1  0
  5  1  2  0
  6  3  2  0
  7  5  1  0
  8 11  1  0
  8  7  1  0
  9  8  1  0
 10  8  1  0
 12 21  1  0
 12 11  1  0
 13 19  1  0
 13 21  1  0
 14 19  1  0
 15 16  1  0
 15 14  1  0
 17 16  1  0
 17 26  1  0
 17 18  1  0
 19 18  1  0
 20 13  2  0
 21 22  1  0
 23 24  2  0
 24 43  1  0
 25 24  1  0
 25 28  1  0
 26 27  1  0
 26 23  1  0
 27 25  2  0
 28 29  1  0
 29 30  2  0
 31 34  1  0
 31 30  1  0
 32 31  2  0
 33 32  1  0
 33 28  2  0
 34 35  1  0
 35 36  1  0
 36 37  2  0
 38 37  1  0
 38 42  1  0
 39 38  2  0
 40 35  2  0
 40 39  1  0
 41 40  1  0
 43 44  1  0
 44 47  1  0
 44 46  1  0
 45 43  2  0
 48 23  1  0
 49 48  1  0
 50 48  1  0
 51  6  1  0
 51 52  1  0
 53 54  1  0
 53 52  1  0
 55 66  2  0
 56 54  1  0
 56 61  1  0
 57 67  1  0
 57 65  1  0
 58 60  1  0
 59 65  1  0
 60 61  2  0
 60 59  1  0
 62 56  2  0
 63 62  1  0
 63 58  2  0
 64 58  1  0
 64 57  1  0
 65 55  1  0
 67 69  2  0
 68 67  1  0
 70 68  1  0
 71 80  2  0
 71 76  1  0
 72 68  1  0
 73 72  1  0
 74 75  1  0
 74 73  1  0
 75 71  1  0
 76 72  1  0
 76 77  2  0
 77 78  1  0
 79 78  2  0
 80 79  1  0
 81 55  1  0
 81 82  1  0
 81 91  1  0
 82 85  1  0
 83 87  1  0
 83 82  1  0
 84 83  2  0
 87 86  1  0
 87 89  1  0
 89 90  1  0
 89 88  1  0
 91 92  1  1
 91 94  1  0
 93 91  1  0
M  ISO  4  13 100  21 100  53 101  54 101
M  END
>  <TORSDO>  (3) 
F 23

>  <SCORE>  (3) 
-7.106

>  <name>  (3) 
2

>  <ligand_id>  (3) 
2

>  <original_smiles>  (3) 
[H]c1c([H])c([H])c2c(c1[H])C([H])([H])C([H])([H])C([H])([H])C2([H])N([H])C(=O)C1([H])N(C(=O)C([H])(N([H])C(=O)C([H])(N([H])C([H])([H])[H])C([H])([H])[H])C(C([H])([H])[H])(C([H])([H])[H])C([H])([H])[H])C([H])([H])c2c([H])c(OC([H])([H])C([H])([H])Oc3c([H])c([H])c(C([H])([H])[N+]([H])([H])C([H])([H])C([H])([H])N([H])C(=O)N4C([H])([H])C([H])([H])C([H])([H])C([H])(n5nc(-c6c([H])c([H])c(Oc7c([H])c([H])c(F)c([H])c7F)c([H])c6[H])c(C(=O)N([H])[H])c5N([H])[H])C4([H])[H])c([H])c3[H])c([H])c([H])c2C1([H])[H]

>  <smiles>  (3) 
[H]c1c([H])c([H])c2c(c1[H])C([H])([H])C([H])([H])C([H])([H])C2([H])N([H])C(=O)C1([H])N(C(=O)C([H])(N([H])C(=O)C([H])(N([H])C([H])([H])[H])C([H])([H])[H])C(C([H])([H])[H])(C([H])([H])[H])C([H])([H])[H])C([H])([H])c2c([H])c(OC([H])([H])C([H])([H])Oc3c([H])c([H])c(C([H])([H])[N+]([H])([H])C([H])([H])C([H])([H])N([H])C(=O)N4C([H])([H])C([H])([H])C([H])([H])C([H])(n5nc(-c6c([H])c([H])c(Oc7c([H])c([H])c(F)c([H])c7F)c([H])c6[H])c(C(=O)N([H])[H])c5N([H])[H])C4([H])[H])c([H])c3[H])c([H])c([H])c2C1([H])[H]

$$$$
3:0:0
     RDKit          3D

 96105  0  0  1  0  0  0  0  0999 V2000
  -26.7990  -22.3880   19.5640 C   0  0  0  0  0  3  0  0  0  0  0  0
  -26.9490  -23.7070   20.0250 C   0  0  0  0  0  3  0  0  0  0  0  0
  -27.8880  -21.4910   19.6500 C   0  0  0  0  0  0  0  0  0  0  0  0
  -28.1890  -24.1480   20.5220 C   0  0  0  0  0  0  0  0  0  0  0  0
  -29.0840  -21.9570   20.2360 C   0  0  0  0  0  0  0  0  0  0  0  0
  -29.2310  -23.2630   20.6450 N   0  0  0  0  0  0  0  0  0  0  0  0
  -30.2960  -20.9910   20.3150 C   0  0  0  0  0  2  0  0  0  0  0  0
  -30.1470  -19.7900   21.2020 N   0  0  0  0  0  4  0  0  0  0  0  0
  -29.4020  -19.9860   21.8500 H   0  0  0  0  0  0  0  0  0  0  0  0
  -30.9970  -19.7580   21.7380 H   0  0  0  0  0  0  0  0  0  0  0  0
  -29.9390  -18.4270   20.5910 C   0  0  0  0  0  2  0  0  0  0  0  0
  -30.5510  -17.2440   21.4360 C   0  0  0  0  0  2  0  0  0  0  0  0
  -30.8550  -14.8280   20.5910 C   0  0  0  0  0  0  0  0  0  0  0  0
  -30.6070  -12.6770   19.3860 C   0  0  0  0  0  2  0  0  0  0  0  0
  -29.6700  -12.8810   18.1770 C   0  0  0  0  0  2  0  0  0  0  0  0
  -28.1960  -12.7060   18.5940 C   0  0  0  0  0  2  0  0  0  0  0  0
  -27.8350  -13.5050   19.8730 C   0  0  0  0  0  3  0  0  0  0  0  0
  -28.8870  -13.2890   20.9830 C   0  0  0  0  0  2  0  0  0  0  0  0
  -30.2030  -13.6400   20.4250 N   0  0  0  0  0  0  0  0  0  0  0  0
  -32.0060  -15.0100   20.1900 O   0  0  0  0  0  0  0  0  0  0  0  0
  -30.1190  -15.8570   21.0870 N   0  0  0  0  0  0  0  0  0  0  0  0
  -29.1730  -15.6140   21.3420 H   0  0  0  0  0  0  0  0  0  0  0  0
  -25.4240  -14.0610   20.5690 C   0  0  0  0  0  0  0  0  0  0  0  0
  -24.3640  -13.2680   20.9130 C   0  0  0  0  0  0  0  0  0  0  0  0
  -24.8440  -11.9240   20.8650 C   0  0  0  0  0  0  0  0  0  0  0  0
  -26.4840  -13.1990   20.3350 N   0  0  0  0  0  0  0  0  0  0  0  0
  -26.1380  -11.9070   20.5720 N   0  0  0  0  0  0  0  0  0  0  0  0
  -24.1320  -10.6490   21.0250 C   0  0  0  0  0  0  0  0  0  0  0  0
  -24.5560   -9.6780   21.9590 C   0  0  0  0  0  3  0  0  0  0  0  0
  -23.8440   -8.4680   22.1050 C   0  0  0  0  0  3  0  0  0  0  0  0
  -22.6940   -8.2210   21.3180 C   0  0  0  0  0  0  0  0  0  0  0  0
  -22.2900   -9.1810   20.3730 C   0  0  0  0  0  3  0  0  0  0  0  0
  -23.0020  -10.3820   20.2250 C   0  0  0  0  0  3  0  0  0  0  0  0
  -21.9550   -7.0640   21.3750 O   0  0  0  0  0  0  0  0  0  0  0  0
  -21.8630   -6.3240   22.5270 C   0  0  0  0  0  0  0  0  0  0  0  0
  -21.3460   -6.8690   23.7230 C   0  0  0  0  0  3  0  0  0  0  0  0
  -21.2050   -6.0540   24.8640 C   0  0  0  0  0  3  0  0  0  0  0  0
  -21.5700   -4.6960   24.8100 C   0  0  0  0  0  0  0  0  0  0  0  0
  -22.0780   -4.1500   23.6180 C   0  0  0  0  0  3  0  0  0  0  0  0
  -22.2210   -4.9620   22.4790 C   0  0  0  0  0  0  0  0  0  0  0  0
  -22.6930   -4.4260   21.3280 F   0  0  0  0  0  0  0  0  0  0  0  0
  -21.4260   -3.9110   25.9030 F   0  0  0  0  0  0  0  0  0  0  0  0
  -22.9560  -13.7230   21.1750 C   0  0  0  0  0  0  0  0  0  0  0  0
  -22.2310  -13.0070   22.0270 N   0  0  0  0  0  0  0  0  0  0  0  0
  -22.5080  -14.7470   20.6600 O   0  0  0  0  0  0  0  0  0  0  0  0
  -22.6030  -12.1780   22.4630 H   0  0  0  0  0  0  0  0  0  0  0  0
  -21.2870  -13.2940   22.2460 H   0  0  0  0  0  0  0  0  0  0  0  0
  -25.5710  -15.4360   20.4130 N   0  0  0  0  0  0  0  0  0  0  0  0
  -24.7830  -16.0690   20.4890 H   0  0  0  0  0  0  0  0  0  0  0  0
  -26.4050  -15.8840   20.0590 H   0  0  0  0  0  0  0  0  0  0  0  0
  -28.3320  -25.5940   21.0970 C   0  0  0  0  0  2  0  0  0  0  0  0
  -28.2940  -26.7440   20.1890 O   0  0  0  0  0  0  0  0  0  0  0  0
  -24.5460  -32.0240   23.3430 C   0  0  0  0  0  0  0  0  0  0  0  0
  -27.1620  -27.5460   20.2300 C   0  0  0  0  0  0  0  0  0  0  0  0
  -23.3360  -30.6290   21.7010 C   0  0  0  0  0  3  0  0  0  0  0  0
  -24.7840  -29.1010   20.2580 C   0  0  0  0  0  0  0  0  0  0  0  0
  -25.8670  -30.9740   21.5000 C   0  0  0  0  0  2  0  0  0  0  0  0
  -25.9480  -29.6010   20.8560 C   0  0  0  0  0  0  0  0  0  0  0  0
  -27.1420  -28.8290   20.8460 C   0  0  0  0  0  3  0  0  0  0  0  0
  -25.9910  -27.0980   19.5880 C   0  0  0  0  0  3  0  0  0  0  0  0
  -24.8020  -27.8480   19.6220 C   0  0  0  0  0  3  0  0  0  0  0  0
  -23.5420  -29.9630   20.3170 C   0  0  0  0  0  2  0  0  0  0  0  0
  -24.6010  -31.2250   22.2400 N   0  0  0  0  0  0  0  0  0  0  0  0
  -23.4650  -32.2940   23.8880 O   0  0  0  0  0  0  0  0  0  0  0  0
  -22.6860  -29.6030   22.6580 C   0  0  0  0  0  0  0  0  0  0  0  0
  -21.3700  -29.3860   22.5030 N   0  0  0  0  0  0  0  0  0  0  0  0
  -23.3660  -29.0020   23.4960 O   0  0  0  0  0  0  0  0  0  0  0  0
  -20.8840  -29.9190   21.7970 H   0  0  0  0  0  0  0  0  0  0  0  0
  -18.0190  -28.0950   22.9320 C   0  0  0  0  0  0  0  0  0  0  0  0
  -20.5600  -28.4360   23.2660 C   0  0  0  0  0  3  0  0  0  0  0  0
  -20.7220  -27.0010   22.7140 C   0  0  0  0  0  2  0  0  0  0  0  0
  -19.6570  -26.6290   21.6780 C   0  0  0  0  0  2  0  0  0  0  0  0
  -18.2540  -26.7420   22.2810 C   0  0  0  0  0  2  0  0  0  0  0  0
  -19.1020  -28.8980   23.3800 C   0  0  0  0  0  0  0  0  0  0  0  0
  -18.8300  -30.1610   23.9460 C   0  0  0  0  0  3  0  0  0  0  0  0
  -17.5060  -30.6260   24.0700 C   0  0  0  0  0  3  0  0  0  0  0  0
  -16.4370  -29.8210   23.6390 C   0  0  0  0  0  3  0  0  0  0  0  0
  -16.6950  -28.5580   23.0770 C   0  0  0  0  0  3  0  0  0  0  0  0
  -25.8320  -32.6550   23.9620 C   0  0  0  0  0  3  0  0  0  0  0  0
  -25.5380  -34.0640   24.2540 N   0  0  0  0  0  0  0  0  0  0  0  0
  -25.9000  -35.0920   23.4760 C   0  0  0  0  0  0  0  0  0  0  0  0
  -26.5840  -34.9560   22.4590 O   0  0  0  0  0  0  0  0  0  0  0  0
  -24.9350  -34.2490   25.0420 H   0  0  0  0  0  0  0  0  0  0  0  0
  -24.2060  -36.9030   23.0440 C   0  0  0  0  0  1  0  0  0  0  0  0
  -25.4230  -36.4980   23.8920 C   0  0  0  0  0  3  0  0  0  0  0  0
  -27.5510  -37.3640   24.7520 C   0  0  0  0  0  1  0  0  0  0  0  0
  -26.4730  -37.5320   23.7800 N   0  0  0  0  0  0  0  0  0  0  0  0
  -26.0780  -38.4610   23.9070 H   0  0  0  0  0  0  0  0  0  0  0  0
  -26.3280  -31.9070   25.2600 C   0  0  1  0  0  0  0  0  0  0  0  0
  -25.2160  -31.6840   26.3130 C   0  0  0  0  0  1  0  0  0  0  0  0
  -26.9190  -30.5240   24.9010 C   0  0  0  0  0  1  0  0  0  0  0  0
  -27.4720  -32.7120   25.9230 C   0  0  0  0  0  1  0  0  0  0  0  0
  -27.8490  -20.1930   19.1900 O   0  0  0  0  0  0  0  0  0  0  0  0
  -26.6360  -18.3430   18.2650 C   0  0  0  0  0  2  0  0  0  0  0  0
  -25.5880  -19.2160   18.9210 C   0  0  0  0  0  2  0  0  0  0  0  0
  -26.8080  -19.8390   18.2900 C   0  0  0  0  0  3  0  0  0  0  0  0
  1  3  2  0
  1  2  1  0
  2  4  2  0
  3  5  1  0
  4  6  1  0
  4 51  1  0
  5  7  1  0
  5  6  2  0
  7  8  1  0
  8 10  1  0
  8  9  1  0
 11  8  1  0
 11 12  1  0
 13 21  1  0
 14 19  1  0
 15 16  1  0
 15 14  1  0
 17 16  1  0
 17 26  1  0
 17 18  1  0
 19 13  1  0
 19 18  1  0
 20 13  2  0
 21 22  1  0
 21 12  1  0
 23 24  2  0
 24 43  1  0
 25 24  1  0
 25 28  1  0
 26 23  1  0
 26 27  1  0
 27 25  2  0
 28 29  1  0
 29 30  2  0
 31 34  1  0
 31 30  1  0
 32 31  2  0
 33 32  1  0
 33 28  2  0
 34 35  1  0
 35 36  1  0
 36 37  2  0
 38 37  1  0
 38 42  1  0
 39 38  2  0
 40 35  2  0
 40 39  1  0
 41 40  1  0
 43 44  1  0
 44 47  1  0
 44 46  1  0
 45 43  2  0
 48 49  1  0
 48 23  1  0
 50 48  1  0
 52 54  1  0
 52 51  1  0
 53 64  2  0
 54 59  1  0
 55 63  1  0
 55 65  1  0
 56 62  1  0
 56 58  1  0
 57 63  1  0
 58 57  1  0
 59 58  2  0
 60 61  1  0
 60 54  2  0
 61 56  2  0
 62 55  1  0
 63 53  1  0
 65 67  2  0
 66 65  1  0
 68 66  1  0
 69 78  2  0
 69 74  1  0
 70 66  1  0
 70 74  1  0
 71 70  1  0
 72 73  1  0
 72 71  1  0
 73 69  1  0
 74 75  2  0
 75 76  1  0
 77 76  2  0
 78 77  1  0
 79 53  1  0
 79 80  1  0
 79 89  1  0
 80 83  1  0
 81 85  1  0
 81 80  1  0
 82 81  2  0
 85 84  1  0
 87 85  1  0
 87 88  1  0
 87 86  1  0
 89 92  1  1
 89 90  1  0
 91 89  1  0
 93  3  1  0
 94 96  1  0
 94 95  1  0
 96 95  1  0
 96 93  1  0
M  ISO  4  13 100  21 100  51 101  52 101
M  END
>  <TORSDO>  (4) 
F 23

>  <SCORE>  (4) 
-11.905

>  <name>  (4) 
3

>  <ligand_id>  (4) 
3

>  <original_smiles>  (4) 
[H]c1c(C([H])([H])Oc2c([H])c([H])c3c(c2[H])C([H])([H])N(C(=O)C([H])(N([H])C(=O)C([H])(N([H])C([H])([H])[H])C([H])([H])[H])C(C([H])([H])[H])(C([H])([H])[H])C([H])([H])[H])C([H])(C(=O)N([H])C2([H])c4c([H])c([H])c([H])c([H])c4C([H])([H])C([H])([H])C2([H])[H])C3([H])[H])nc(C([H])([H])[N+]([H])([H])C([H])([H])C([H])([H])N([H])C(=O)N2C([H])([H])C([H])([H])C([H])([H])C([H])(n3nc(-c4c([H])c([H])c(Oc5c([H])c([H])c(F)c([H])c5F)c([H])c4[H])c(C(=O)N([H])[H])c3N([H])[H])C2([H])[H])c(OC2([H])C([H])([H])C2([H])[H])c1[H]

>  <smiles>  (4) 
[H]c1c(C([H])([H])Oc2c([H])c([H])c3c(c2[H])C([H])([H])N(C(=O)C([H])(N([H])C(=O)C([H])(N([H])C([H])([H])[H])C([H])([H])[H])C(C([H])([H])[H])(C([H])([H])[H])C([H])([H])[H])C([H])(C(=O)N([H])C2([H])c4c([H])c([H])c([H])c([H])c4C([H])([H])C([H])([H])C2([H])[H])C3([H])[H])nc(C([H])([H])[N+]([H])([H])C([H])([H])C([H])([H])N([H])C(=O)N2C([H])([H])C([H])([H])C([H])([H])C([H])(n3nc(-c4c([H])c([H])c(Oc5c([H])c([H])c(F)c([H])c5F)c([H])c4[H])c(C(=O)N([H])[H])c3N([H])[H])C2([H])[H])c(OC2([H])C([H])([H])C2([H])[H])c1[H]

$$$$
4:0:0
     RDKit          3D

 93101  0  0  1  0  0  0  0  0999 V2000
  -30.9010  -22.3650   22.5810 C   0  0  0  0  0  1  0  0  0  0  0  0
  -29.8620  -22.0350   21.4930 C   0  0  0  0  0  3  0  0  0  0  0  0
  -28.8620  -23.1230   21.4740 N   0  0  0  0  0  0  0  0  0  0  0  0
  -28.0170  -22.7890   21.0160 H   0  0  0  0  0  0  0  0  0  0  0  0
  -29.2740  -24.3830   20.8130 C   0  0  0  0  0  2  0  0  0  0  0  0
  -28.2550  -25.5380   21.0670 C   0  0  0  0  0  2  0  0  0  0  0  0
  -28.4450  -26.7400   20.2740 O   0  0  0  0  0  0  0  0  0  0  0  0
  -24.6380  -31.9730   23.2490 C   0  0  0  0  0  0  0  0  0  0  0  0
  -27.3130  -27.5340   20.2040 C   0  0  0  0  0  0  0  0  0  0  0  0
  -23.4440  -30.5640   21.6030 C   0  0  0  0  0  3  0  0  0  0  0  0
  -24.9150  -29.0430   20.1720 C   0  0  0  0  0  0  0  0  0  0  0  0
  -25.9670  -30.9450   21.4050 C   0  0  0  0  0  2  0  0  0  0  0  0
  -26.0680  -29.5730   20.7680 C   0  0  0  0  0  0  0  0  0  0  0  0
  -27.2740  -28.8280   20.7790 C   0  0  0  0  0  3  0  0  0  0  0  0
  -26.1530  -27.0350   19.5760 C   0  0  0  0  0  3  0  0  0  0  0  0
  -24.9560  -27.7760   19.5650 C   0  0  0  0  0  3  0  0  0  0  0  0
  -23.6600  -29.8850   20.2230 C   0  0  0  0  0  2  0  0  0  0  0  0
  -24.7010  -31.1760   22.1440 N   0  0  0  0  0  0  0  0  0  0  0  0
  -23.5550  -32.2340   23.7900 O   0  0  0  0  0  0  0  0  0  0  0  0
  -22.8000  -29.5370   22.5630 C   0  0  0  0  0  0  0  0  0  0  0  0
  -21.4790  -29.3360   22.4290 N   0  0  0  0  0  0  0  0  0  0  0  0
  -23.4870  -28.9250   23.3840 O   0  0  0  0  0  0  0  0  0  0  0  0
  -20.9850  -29.8830   21.7390 H   0  0  0  0  0  0  0  0  0  0  0  0
  -18.1210  -28.0850   22.8970 C   0  0  0  0  0  0  0  0  0  0  0  0
  -20.6710  -28.3880   23.1960 C   0  0  0  0  0  3  0  0  0  0  0  0
  -20.8050  -26.9560   22.6270 C   0  0  0  0  0  2  0  0  0  0  0  0
  -19.7200  -26.6100   21.6030 C   0  0  0  0  0  2  0  0  0  0  0  0
  -18.3280  -26.7370   22.2280 C   0  0  0  0  0  2  0  0  0  0  0  0
  -19.2220  -28.8680   23.3350 C   0  0  0  0  0  0  0  0  0  0  0  0
  -18.9750  -30.1310   23.9150 C   0  0  0  0  0  3  0  0  0  0  0  0
  -17.6610  -30.6110   24.0630 C   0  0  0  0  0  3  0  0  0  0  0  0
  -16.5740  -29.8250   23.6440 C   0  0  0  0  0  3  0  0  0  0  0  0
  -16.8050  -28.5630   23.0650 C   0  0  0  0  0  3  0  0  0  0  0  0
  -25.9190  -32.6120   23.8710 C   0  0  0  0  0  3  0  0  0  0  0  0
  -26.4400  -31.8480   25.1510 C   0  0  1  0  0  0  0  0  0  0  0  0
  -25.3460  -31.6040   26.2170 C   0  0  0  0  0  1  0  0  0  0  0  0
  -27.0320  -30.4740   24.7600 C   0  0  0  0  0  1  0  0  0  0  0  0
  -27.5850  -32.6490   25.8160 C   0  0  0  0  0  1  0  0  0  0  0  0
  -25.6070  -34.0120   24.1940 N   0  0  0  0  0  0  0  0  0  0  0  0
  -25.9350  -35.0600   23.4270 C   0  0  0  0  0  0  0  0  0  0  0  0
  -26.6060  -34.9530   22.3980 O   0  0  0  0  0  0  0  0  0  0  0  0
  -25.0190  -34.1690   25.0000 H   0  0  0  0  0  0  0  0  0  0  0  0
  -24.2000  -36.8360   23.0500 C   0  0  0  0  0  1  0  0  0  0  0  0
  -25.4390  -36.4490   23.8730 C   0  0  0  0  0  3  0  0  0  0  0  0
  -27.5680  -37.3480   24.7020 C   0  0  0  0  0  1  0  0  0  0  0  0
  -26.4650  -37.5070   23.7570 N   0  0  0  0  0  0  0  0  0  0  0  0
  -26.0540  -38.4260   23.9000 H   0  0  0  0  0  0  0  0  0  0  0  0
  -29.1910  -20.6250   21.7090 C   0  0  0  0  0  2  0  0  0  0  0  0
  -30.1410  -19.4810   21.5370 N   0  0  0  0  0  4  0  0  0  0  0  0
  -30.6440  -19.6590   20.6830 H   0  0  0  0  0  0  0  0  0  0  0  0
  -30.8060  -19.4790   22.2910 H   0  0  0  0  0  0  0  0  0  0  0  0
  -29.5770  -18.1010   21.3910 C   0  0  0  0  0  2  0  0  0  0  0  0
  -30.7270  -14.6510   20.2150 C   0  0  0  0  0  0  0  0  0  0  0  0
  -30.4330  -12.4610   19.1110 C   0  0  0  0  0  2  0  0  0  0  0  0
  -29.4290  -12.5110   17.9410 C   0  0  0  0  0  2  0  0  0  0  0  0
  -27.9770  -12.3760   18.4300 C   0  0  0  0  0  2  0  0  0  0  0  0
  -27.6540  -13.2790   19.6480 C   0  0  0  0  0  3  0  0  0  0  0  0
  -28.7480  -13.1630   20.7300 C   0  0  0  0  0  2  0  0  0  0  0  0
  -30.0360  -13.4800   20.1020 N   0  0  0  0  0  0  0  0  0  0  0  0
  -31.9360  -14.7000   19.9810 O   0  0  0  0  0  0  0  0  0  0  0  0
  -30.1700  -17.4150   18.4350 C   0  0  0  0  0  2  0  0  0  0  0  0
  -31.2400  -17.6820   19.4750 C   0  0  0  0  0  2  0  0  0  0  0  0
  -29.3830  -16.2210   18.9920 C   0  0  0  0  0  2  0  0  0  0  0  0
  -30.6110  -17.0950   20.7510 C   0  0  0  0  0  3  0  0  0  0  0  0
  -29.9980  -15.8140   20.2770 N   0  0  0  0  0  0  0  0  0  0  0  0
  -25.2790  -13.9090   20.3940 C   0  0  0  0  0  0  0  0  0  0  0  0
  -24.2120  -13.1400   20.7800 C   0  0  0  0  0  0  0  0  0  0  0  0
  -24.6750  -11.7890   20.7630 C   0  0  0  0  0  0  0  0  0  0  0  0
  -26.3190  -13.0200   20.1670 N   0  0  0  0  0  0  0  0  0  0  0  0
  -25.9640  -11.7440   20.4520 N   0  0  0  0  0  0  0  0  0  0  0  0
  -23.9550  -10.5270   20.9710 C   0  0  0  0  0  0  0  0  0  0  0  0
  -24.3990   -9.5710   21.9080 C   0  0  0  0  0  3  0  0  0  0  0  0
  -23.6810   -8.3720   22.1040 C   0  0  0  0  0  3  0  0  0  0  0  0
  -22.5020   -8.1230   21.3600 C   0  0  0  0  0  0  0  0  0  0  0  0
  -22.0780   -9.0680   20.4100 C   0  0  0  0  0  3  0  0  0  0  0  0
  -22.8000  -10.2580   20.2120 C   0  0  0  0  0  3  0  0  0  0  0  0
  -21.7560   -6.9740   21.4650 O   0  0  0  0  0  0  0  0  0  0  0  0
  -21.7120   -6.2460   22.6270 C   0  0  0  0  0  0  0  0  0  0  0  0
  -21.2870   -6.8150   23.8470 C   0  0  0  0  0  3  0  0  0  0  0  0
  -21.1920   -6.0140   25.0030 C   0  0  0  0  0  3  0  0  0  0  0  0
  -21.5130   -4.6450   24.9380 C   0  0  0  0  0  0  0  0  0  0  0  0
  -21.9290   -4.0740   23.7230 C   0  0  0  0  0  3  0  0  0  0  0  0
  -22.0250   -4.8730   22.5700 C   0  0  0  0  0  0  0  0  0  0  0  0
  -22.4060   -4.3130   21.3960 F   0  0  0  0  0  0  0  0  0  0  0  0
  -21.4150   -3.8740   26.0460 F   0  0  0  0  0  0  0  0  0  0  0  0
  -22.8170  -13.6150   21.0580 C   0  0  0  0  0  0  0  0  0  0  0  0
  -22.0980  -12.9240   21.9380 N   0  0  0  0  0  0  0  0  0  0  0  0
  -22.3700  -14.6310   20.5310 O   0  0  0  0  0  0  0  0  0  0  0  0
  -22.4680  -12.0920   22.3760 H   0  0  0  0  0  0  0  0  0  0  0  0
  -21.1620  -13.2240   22.1700 H   0  0  0  0  0  0  0  0  0  0  0  0
  -25.4490  -15.2770   20.1930 N   0  0  0  0  0  0  0  0  0  0  0  0
  -24.6950  -15.9460   20.2890 H   0  0  0  0  0  0  0  0  0  0  0  0
  -26.3130  -15.7020   19.8810 H   0  0  0  0  0  0  0  0  0  0  0  0
  2 48  1  0
  2  1  1  0
  3  2  1  0
  4  3  1  0
  5  6  1  0
  5  3  1  0
  7  6  1  0
  8 19  2  0
  9  7  1  0
  9 14  1  0
 10 18  1  0
 10 20  1  0
 11 17  1  0
 11 13  1  0
 12 18  1  0
 13 14  2  0
 13 12  1  0
 15  9  2  0
 16 15  1  0
 16 11  2  0
 17 10  1  0
 18  8  1  0
 20 22  2  0
 21 20  1  0
 23 21  1  0
 24 33  2  0
 24 29  1  0
 25 21  1  0
 25 29  1  0
 26 25  1  0
 27 28  1  0
 27 26  1  0
 28 24  1  0
 29 30  2  0
 30 31  1  0
 32 31  2  0
 33 32  1  0
 34  8  1  0
 34 39  1  0
 34 35  1  0
 35 38  1  1
 35 36  1  0
 37 35  1  0
 39 42  1  0
 40 44  1  0
 40 39  1  0
 41 40  2  0
 44 43  1  0
 46 44  1  0
 46 47  1  0
 46 45  1  0
 49 48  1  0
 49 51  1  0
 50 49  1  0
 52 49  1  0
 53 65  1  0
 54 59  1  0
 55 56  1  0
 55 54  1  0
 57 56  1  0
 57 69  1  0
 57 58  1  0
 59 53  1  0
 59 58  1  0
 60 53  2  0
 61 63  1  0
 61 62  1  0
 62 64  1  0
 63 65  1  0
 64 52  1  0
 65 64  1  0
 66 67  2  0
 67 86  1  0
 68 67  1  0
 68 71  1  0
 69 66  1  0
 69 70  1  0
 70 68  2  0
 71 72  1  0
 72 73  2  0
 74 77  1  0
 74 73  1  0
 75 74  2  0
 76 75  1  0
 76 71  2  0
 77 78  1  0
 78 79  1  0
 79 80  2  0
 81 80  1  0
 81 85  1  0
 82 81  2  0
 83 78  2  0
 83 82  1  0
 84 83  1  0
 86 87  1  0
 87 90  1  0
 87 89  1  0
 88 86  2  0
 91 92  1  0
 91 66  1  0
 93 91  1  0
M  ISO  4   6 101   7 101  53 100  65 100
M  END
>  <TORSDO>  (5) 
F 22

>  <SCORE>  (5) 
-12.582

>  <name>  (5) 
4

>  <ligand_id>  (5) 
4

>  <original_smiles>  (5) 
[H]c1c([H])c([H])c2c(c1[H])C([H])([H])C([H])([H])C([H])([H])C2([H])N([H])C(=O)C1([H])N(C(=O)C([H])(N([H])C(=O)C([H])(N([H])C([H])([H])[H])C([H])([H])[H])C(C([H])([H])[H])(C([H])([H])[H])C([H])([H])[H])C([H])([H])c2c([H])c(OC([H])([H])C([H])([H])N([H])C([H])(C([H])([H])[H])C([H])([H])[N+]([H])([H])C([H])([H])C3([H])N(C(=O)N4C([H])([H])C([H])([H])C([H])([H])C([H])(n5nc(-c6c([H])c([H])c(Oc7c([H])c([H])c(F)c([H])c7F)c([H])c6[H])c(C(=O)N([H])[H])c5N([H])[H])C4([H])[H])C([H])([H])C([H])([H])C3([H])[H])c([H])c([H])c2C1([H])[H]

>  <smiles>  (5) 
[H]c1c([H])c([H])c2c(c1[H])C([H])([H])C([H])([H])C([H])([H])C2([H])N([H])C(=O)C1([H])N(C(=O)C([H])(N([H])C(=O)C([H])(N([H])C([H])([H])[H])C([H])([H])[H])C(C([H])([H])[H])(C([H])([H])[H])C([H])([H])[H])C([H])([H])c2c([H])c(OC([H])([H])C([H])([H])N([H])C([H])(C([H])([H])[H])C([H])([H])[N+]([H])([H])C([H])([H])C3([H])N(C(=O)N4C([H])([H])C([H])([H])C([H])([H])C([H])(n5nc(-c6c([H])c([H])c(Oc7c([H])c([H])c(F)c([H])c7F)c([H])c6[H])c(C(=O)N([H])[H])c5N([H])[H])C4([H])[H])C([H])([H])C([H])([H])C3([H])[H])c([H])c([H])c2C1([H])[H]

$$$$
5:0:0
     RDKit          3D

 96105  0  0  1  0  0  0  0  0999 V2000
  -25.4620  -21.9600   17.6870 C   0  0  0  0  0  2  0  0  0  0  0  0
  -24.5380  -23.1730   17.9550 C   0  0  0  0  0  2  0  0  0  0  0  0
  -25.4380  -22.3100   19.9340 C   0  0  0  0  0  2  0  0  0  0  0  0
  -26.4980  -21.8770   18.8520 C   0  0  1  0  0  0  0  0  0  0  0  0
  -24.6680  -23.4400   19.4000 N   0  0  0  0  0  4  0  0  0  0  0  0
  -23.7610  -23.5160   19.8440 H   0  0  0  0  0  0  0  0  0  0  0  0
  -25.1620  -24.3070   19.5860 H   0  0  0  0  0  0  0  0  0  0  0  0
  -25.9090  -19.3870   19.3790 C   0  0  0  0  0  3  0  0  0  0  0  0
  -28.2270  -19.6010   18.9120 C   0  0  0  0  0  3  0  0  0  0  0  0
  -26.9410  -20.3020   19.0760 C   0  0  0  0  0  0  0  0  0  0  0  0
  -26.1170  -18.0340   19.5790 C   0  0  0  0  0  0  0  0  0  0  0  0
  -28.3880  -18.1470   19.1390 C   0  0  0  0  0  0  0  0  0  0  0  0
  -24.9580  -17.1260   19.8600 C   0  0  0  0  0  1  0  0  0  0  0  0
  -27.3270  -17.4300   19.5060 N   0  0  0  0  0  0  0  0  0  0  0  0
  -29.7370  -17.2260   19.0710 C   0  0  0  0  0  2  0  0  0  0  0  0
  -30.8470  -14.8410   19.9350 C   0  0  0  0  0  0  0  0  0  0  0  0
  -30.8580  -12.4020   19.2920 C   0  0  0  0  0  2  0  0  0  0  0  0
  -29.8810  -12.2510   18.0920 C   0  0  0  0  0  2  0  0  0  0  0  0
  -28.4280  -12.1140   18.5880 C   0  0  0  0  0  2  0  0  0  0  0  0
  -28.0680  -13.1370   19.6880 C   0  0  0  0  0  3  0  0  0  0  0  0
  -29.1450  -13.2100   20.7910 C   0  0  0  0  0  2  0  0  0  0  0  0
  -30.3860  -13.5550   20.1040 N   0  0  0  0  0  0  0  0  0  0  0  0
  -32.0420  -15.0110   19.7070 O   0  0  0  0  0  0  0  0  0  0  0  0
  -29.8470  -15.8450   19.7880 N   0  0  0  0  0  0  0  0  0  0  0  0
  -28.9280  -15.5020   20.0390 H   0  0  0  0  0  0  0  0  0  0  0  0
  -25.7750  -13.8430   20.5940 C   0  0  0  0  0  0  0  0  0  0  0  0
  -24.6850  -13.1110   20.9730 C   0  0  0  0  0  0  0  0  0  0  0  0
  -25.0620  -11.7370   20.8370 C   0  0  0  0  0  0  0  0  0  0  0  0
  -26.7430  -12.9130   20.2430 N   0  0  0  0  0  0  0  0  0  0  0  0
  -26.3320  -11.6370   20.4640 N   0  0  0  0  0  0  0  0  0  0  0  0
  -24.2710  -10.5110   20.9660 C   0  0  0  0  0  0  0  0  0  0  0  0
  -24.6080   -9.5110   21.9040 C   0  0  0  0  0  3  0  0  0  0  0  0
  -23.8150   -8.3510   22.0210 C   0  0  0  0  0  3  0  0  0  0  0  0
  -22.6760   -8.1830   21.2000 C   0  0  0  0  0  0  0  0  0  0  0  0
  -22.3580   -9.1730   20.2540 C   0  0  0  0  0  3  0  0  0  0  0  0
  -23.1500  -10.3260   20.1330 C   0  0  0  0  0  3  0  0  0  0  0  0
  -21.8600   -7.0810   21.2310 O   0  0  0  0  0  0  0  0  0  0  0  0
  -21.6430   -6.3790   22.3890 C   0  0  0  0  0  0  0  0  0  0  0  0
  -21.0890   -6.9880   23.5370 C   0  0  0  0  0  3  0  0  0  0  0  0
  -20.8170   -6.2160   24.6830 C   0  0  0  0  0  3  0  0  0  0  0  0
  -21.0870   -4.8350   24.6830 C   0  0  0  0  0  0  0  0  0  0  0  0
  -21.6320   -4.2240   23.5390 C   0  0  0  0  0  3  0  0  0  0  0  0
  -21.9040   -4.9930   22.3940 C   0  0  0  0  0  0  0  0  0  0  0  0
  -22.4090   -4.3930   21.2900 F   0  0  0  0  0  0  0  0  0  0  0  0
  -20.8170   -4.0920   25.7830 F   0  0  0  0  0  0  0  0  0  0  0  0
  -23.3380  -13.6560   21.3320 C   0  0  0  0  0  0  0  0  0  0  0  0
  -22.6160  -12.9690   22.2070 N   0  0  0  0  0  0  0  0  0  0  0  0
  -22.9310  -14.7200   20.8700 O   0  0  0  0  0  0  0  0  0  0  0  0
  -22.9560  -12.1040   22.6000 H   0  0  0  0  0  0  0  0  0  0  0  0
  -21.7110  -13.3130   22.4940 H   0  0  0  0  0  0  0  0  0  0  0  0
  -26.0080  -15.2050   20.4610 N   0  0  0  0  0  0  0  0  0  0  0  0
  -25.2330  -15.8390   20.5840 H   0  0  0  0  0  0  0  0  0  0  0  0
  -26.6730  -15.5480   19.7780 H   0  0  0  0  0  0  0  0  0  0  0  0
  -27.5640  -23.1470   18.6800 C   0  0  0  0  0  2  0  0  0  0  0  0
  -27.9110  -24.2710   19.8460 C   0  0  0  0  0  2  0  0  0  0  0  0
  -28.3710  -25.7360   19.7580 O   0  0  0  0  0  0  0  0  0  0  0  0
  -24.7880  -31.3430   23.0280 C   0  0  0  0  0  0  0  0  0  0  0  0
  -27.4080  -26.7800   19.8000 C   0  0  0  0  0  0  0  0  0  0  0  0
  -23.6450  -30.0170   21.3020 C   0  0  0  0  0  3  0  0  0  0  0  0
  -25.1530  -28.5580   19.8190 C   0  0  0  0  0  0  0  0  0  0  0  0
  -26.2260  -30.2790   21.2540 C   0  0  0  0  0  2  0  0  0  0  0  0
  -26.3100  -28.9360   20.5130 C   0  0  0  0  0  0  0  0  0  0  0  0
  -27.4520  -28.0560   20.5050 C   0  0  0  0  0  3  0  0  0  0  0  0
  -26.2460  -26.5160   19.0600 C   0  0  0  0  0  3  0  0  0  0  0  0
  -25.1390  -27.3810   19.0590 C   0  0  0  0  0  3  0  0  0  0  0  0
  -23.9160  -29.4490   19.8910 C   0  0  0  0  0  2  0  0  0  0  0  0
  -24.9020  -30.5510   21.9160 N   0  0  0  0  0  0  0  0  0  0  0  0
  -23.6750  -31.6100   23.5070 O   0  0  0  0  0  0  0  0  0  0  0  0
  -22.9310  -28.9420   22.1420 C   0  0  0  0  0  0  0  0  0  0  0  0
  -21.6000  -28.8060   21.9980 N   0  0  0  0  0  0  0  0  0  0  0  0
  -23.5650  -28.2290   22.9120 O   0  0  0  0  0  0  0  0  0  0  0  0
  -21.0730  -29.4240   21.3850 H   0  0  0  0  0  0  0  0  0  0  0  0
  -18.2010  -27.8440   22.4370 C   0  0  0  0  0  0  0  0  0  0  0  0
  -20.7720  -27.8500   22.7390 C   0  0  0  0  0  3  0  0  0  0  0  0
  -20.7500  -26.4360   22.0960 C   0  0  0  0  0  2  0  0  0  0  0  0
  -19.6870  -26.3090   21.0110 C   0  0  0  0  0  2  0  0  0  0  0  0
  -18.2760  -26.6050   21.5360 C   0  0  0  0  0  2  0  0  0  0  0  0
  -19.3770  -28.4570   22.9630 C   0  0  0  0  0  0  0  0  0  0  0  0
  -19.2630  -29.6700   23.6880 C   0  0  0  0  0  3  0  0  0  0  0  0
  -17.9900  -30.2100   23.9490 C   0  0  0  0  0  3  0  0  0  0  0  0
  -16.8270  -29.5610   23.4990 C   0  0  0  0  0  3  0  0  0  0  0  0
  -16.9200  -28.3820   22.7390 C   0  0  0  0  0  3  0  0  0  0  0  0
  -26.0190  -31.9570   23.7310 C   0  0  0  0  0  3  0  0  0  0  0  0
  -26.4450  -31.1550   25.0150 C   0  0  1  0  0  0  0  0  0  0  0  0
  -25.2940  -30.9150   26.0220 C   0  0  0  0  0  1  0  0  0  0  0  0
  -27.0290  -29.7790   24.6340 C   0  0  0  0  0  1  0  0  0  0  0  0
  -27.5750  -31.9140   25.7610 C   0  0  0  0  0  1  0  0  0  0  0  0
  -25.7040  -33.3550   24.0890 N   0  0  0  0  0  0  0  0  0  0  0  0
  -26.0780  -34.4240   23.3780 C   0  0  0  0  0  0  0  0  0  0  0  0
  -26.8140  -34.3470   22.3930 O   0  0  0  0  0  0  0  0  0  0  0  0
  -25.0390  -33.4880   24.8390 H   0  0  0  0  0  0  0  0  0  0  0  0
  -24.3810  -36.2330   22.9780 C   0  0  0  0  0  1  0  0  0  0  0  0
  -25.5720  -35.8080   23.8480 C   0  0  0  0  0  3  0  0  0  0  0  0
  -27.6580  -36.6550   24.8210 C   0  0  0  0  0  1  0  0  0  0  0  0
  -26.6130  -36.8560   23.8180 N   0  0  0  0  0  0  0  0  0  0  0  0
  -26.2090  -37.7790   23.9650 H   0  0  0  0  0  0  0  0  0  0  0  0
  1  2  1  0
  1  4  1  0
  2  5  1  0
  4 54  1  6
  4 10  1  0
  4  3  1  0
  5  7  1  0
  5  6  1  0
  5  3  1  0
  8 11  1  0
  9 10  1  0
  9 12  2  0
 10  8  2  0
 11 13  1  0
 12 14  1  0
 14 11  2  0
 15 12  1  0
 15 24  1  0
 16 22  1  0
 17 22  1  0
 18 19  1  0
 18 17  1  0
 20 19  1  0
 20 29  1  0
 20 21  1  0
 22 21  1  0
 23 16  2  0
 24 16  1  0
 24 25  1  0
 26 27  2  0
 27 46  1  0
 28 31  1  0
 28 27  1  0
 29 30  1  0
 29 26  1  0
 30 28  2  0
 31 32  1  0
 32 33  2  0
 34 37  1  0
 34 33  1  0
 35 34  2  0
 36 35  1  0
 36 31  2  0
 37 38  1  0
 38 43  2  0
 38 39  1  0
 39 40  2  0
 40 41  1  0
 41 45  1  0
 42 41  2  0
 43 42  1  0
 44 43  1  0
 46 47  1  0
 47 50  1  0
 47 49  1  0
 48 46  2  0
 51 52  1  0
 51 26  1  0
 53 51  1  0
 54 55  1  0
 56 58  1  0
 56 55  1  0
 57 68  2  0
 58 63  1  0
 59 67  1  0
 59 69  1  0
 60 66  1  0
 60 62  1  0
 61 67  1  0
 62 61  1  0
 63 62  2  0
 64 58  2  0
 65 64  1  0
 65 60  2  0
 66 59  1  0
 67 57  1  0
 69 71  2  0
 70 69  1  0
 72 70  1  0
 73 82  2  0
 73 78  1  0
 74 70  1  0
 74 78  1  0
 75 74  1  0
 76 77  1  0
 76 75  1  0
 77 73  1  0
 78 79  2  0
 79 80  1  0
 81 80  2  0
 82 81  1  0
 83 57  1  0
 83 88  1  0
 83 84  1  0
 84 87  1  1
 84 85  1  0
 86 84  1  0
 88 91  1  0
 89 93  1  0
 89 88  1  0
 90 89  2  0
 93 92  1  0
 95 93  1  0
 95 96  1  0
 95 94  1  0
M  ISO  4  16 100  24 100  55 101  56 101
M  END
>  <TORSDO>  (6) 
F 20

>  <SCORE>  (6) 
-10.900

>  <name>  (6) 
5

>  <ligand_id>  (6) 
5

>  <original_smiles>  (6) 
[H]c1c([H])c([H])c2c(c1[H])C([H])([H])C([H])([H])C([H])([H])C2([H])N([H])C(=O)C1([H])N(C(=O)C([H])(N([H])C(=O)C([H])(N([H])C([H])([H])[H])C([H])([H])[H])C(C([H])([H])[H])(C([H])([H])[H])C([H])([H])[H])C([H])([H])c2c([H])c(OC([H])([H])C([H])([H])C3(c4c([H])c(C([H])([H])[H])nc(C([H])([H])N([H])C(=O)N5C([H])([H])C([H])([H])C([H])([H])C([H])(n6nc(-c7c([H])c([H])c(Oc8c([H])c([H])c(F)c([H])c8F)c([H])c7[H])c(C(=O)N([H])[H])c6N([H])[H])C5([H])[H])c4[H])C([H])([H])C([H])([H])[N+]([H])([H])C3([H])[H])c([H])c([H])c2C1([H])[H]

>  <smiles>  (6) 
[H]c1c([H])c([H])c2c(c1[H])C([H])([H])C([H])([H])C([H])([H])C2([H])N([H])C(=O)C1([H])N(C(=O)C([H])(N([H])C(=O)C([H])(N([H])C([H])([H])[H])C([H])([H])[H])C(C([H])([H])[H])(C([H])([H])[H])C([H])([H])[H])C([H])([H])c2c([H])c(OC([H])([H])C([H])([H])C3(c4c([H])c(C([H])([H])[H])nc(C([H])([H])N([H])C(=O)N5C([H])([H])C([H])([H])C([H])([H])C([H])(n6nc(-c7c([H])c([H])c(Oc8c([H])c([H])c(F)c([H])c8F)c([H])c7[H])c(C(=O)N([H])[H])c6N([H])[H])C5([H])[H])c4[H])C([H])([H])C([H])([H])[N+]([H])([H])C3([H])[H])c([H])c([H])c2C1([H])[H]

$$$$
6:0:0
     RDKit          3D

101110  0  0  1  0  0  0  0  0999 V2000
  -31.4710  -21.4260   21.2330 C   0  0  0  0  0  2  0  0  0  0  0  0
  -32.2850  -23.5790   20.2180 C   0  0  0  0  0  3  0  0  0  0  0  0
  -30.8190  -25.4440   19.6940 C   0  0  0  0  0  3  0  0  0  0  0  0
  -32.1130  -24.8990   19.7620 C   0  0  0  0  0  0  0  0  0  0  0  0
  -31.1800  -22.8020   20.6280 C   0  0  0  0  0  0  0  0  0  0  0  0
  -29.6930  -24.6850   20.0730 C   0  0  0  0  0  0  0  0  0  0  0  0
  -29.8670  -23.3450   20.5300 C   0  0  0  0  0  0  0  0  0  0  0  0
  -33.3130  -25.7480   19.3830 C   0  0  0  0  0  1  0  0  0  0  0  0
  -28.6500  -22.5180   20.9270 C   0  0  0  0  0  1  0  0  0  0  0  0
  -28.3120  -25.3360   19.9480 C   0  0  0  0  0  2  0  0  0  0  0  0
  -28.3420  -26.7490   20.1770 O   0  0  0  0  0  0  0  0  0  0  0  0
  -24.5160  -31.8870   23.2370 C   0  0  0  0  0  0  0  0  0  0  0  0
  -27.1460  -27.4390   20.1650 C   0  0  0  0  0  0  0  0  0  0  0  0
  -23.3000  -30.4860   21.6010 C   0  0  0  0  0  3  0  0  0  0  0  0
  -24.7460  -28.9410   20.1790 C   0  0  0  0  0  0  0  0  0  0  0  0
  -25.8240  -30.8430   21.3890 C   0  0  0  0  0  2  0  0  0  0  0  0
  -25.9060  -29.4690   20.7580 C   0  0  0  0  0  0  0  0  0  0  0  0
  -27.1070  -28.7270   20.7440 C   0  0  0  0  0  3  0  0  0  0  0  0
  -25.9620  -26.9180   19.5900 C   0  0  0  0  0  3  0  0  0  0  0  0
  -24.7690  -27.6640   19.5930 C   0  0  0  0  0  3  0  0  0  0  0  0
  -23.5020  -29.7990   20.2230 C   0  0  0  0  0  2  0  0  0  0  0  0
  -24.5650  -31.0860   22.1340 N   0  0  0  0  0  0  0  0  0  0  0  0
  -23.4380  -32.1630   23.7800 O   0  0  0  0  0  0  0  0  0  0  0  0
  -22.6510  -29.4690   22.5650 C   0  0  0  0  0  0  0  0  0  0  0  0
  -21.3270  -29.2830   22.4340 N   0  0  0  0  0  0  0  0  0  0  0  0
  -23.3340  -28.8490   23.3850 O   0  0  0  0  0  0  0  0  0  0  0  0
  -20.8370  -29.8350   21.7450 H   0  0  0  0  0  0  0  0  0  0  0  0
  -17.9560  -28.0780   22.9130 C   0  0  0  0  0  0  0  0  0  0  0  0
  -20.5100  -28.3470   23.2060 C   0  0  0  0  0  3  0  0  0  0  0  0
  -20.6220  -26.9120   22.6430 C   0  0  0  0  0  2  0  0  0  0  0  0
  -19.5320  -26.5770   21.6210 C   0  0  0  0  0  2  0  0  0  0  0  0
  -18.1440  -26.7230   22.2510 C   0  0  0  0  0  2  0  0  0  0  0  0
  -19.0680  -28.8480   23.3480 C   0  0  0  0  0  0  0  0  0  0  0  0
  -18.8420  -30.1160   23.9240 C   0  0  0  0  0  3  0  0  0  0  0  0
  -17.5350  -30.6160   24.0720 C   0  0  0  0  0  3  0  0  0  0  0  0
  -16.4370  -29.8440   23.6560 C   0  0  0  0  0  3  0  0  0  0  0  0
  -16.6480  -28.5780   23.0830 C   0  0  0  0  0  3  0  0  0  0  0  0
  -25.8070  -32.5150   23.8510 C   0  0  0  0  0  3  0  0  0  0  0  0
  -25.5040  -33.9140   24.1790 N   0  0  0  0  0  0  0  0  0  0  0  0
  -25.8380  -34.9630   23.4160 C   0  0  0  0  0  0  0  0  0  0  0  0
  -26.5080  -34.8550   22.3850 O   0  0  0  0  0  0  0  0  0  0  0  0
  -24.9080  -34.0720   24.9790 H   0  0  0  0  0  0  0  0  0  0  0  0
  -24.1150  -36.7590   23.0560 C   0  0  0  0  0  1  0  0  0  0  0  0
  -25.3530  -36.3530   23.8690 C   0  0  0  0  0  3  0  0  0  0  0  0
  -27.4910  -37.2340   24.6980 C   0  0  0  0  0  1  0  0  0  0  0  0
  -26.3880  -37.4040   23.7570 N   0  0  0  0  0  0  0  0  0  0  0  0
  -25.9840  -38.3240   23.9040 H   0  0  0  0  0  0  0  0  0  0  0  0
  -26.3280  -31.7430   25.1250 C   0  0  1  0  0  0  0  0  0  0  0  0
  -25.2390  -31.5080   26.1990 C   0  0  0  0  0  1  0  0  0  0  0  0
  -26.9020  -30.3630   24.7270 C   0  0  0  0  0  1  0  0  0  0  0  0
  -27.4820  -32.5330   25.7830 C   0  0  0  0  0  1  0  0  0  0  0  0
  -31.3240  -20.2380   20.2560 C   0  0  0  0  0  2  0  0  0  0  0  0
  -31.9250  -18.9030   20.7960 C   0  0  0  0  0  3  0  0  0  0  0  0
  -29.6660  -16.9430   18.3090 C   0  0  0  0  0  2  0  0  0  0  0  0
  -28.4820  -17.4140   19.1750 C   0  0  0  0  0  2  0  0  0  0  0  0
  -30.9780  -17.6420   18.6970 C   0  0  0  0  0  2  0  0  0  0  0  0
  -28.8080  -17.5710   20.6780 C   0  0  0  0  0  2  0  0  0  0  0  0
  -31.3250  -17.5640   20.2180 C   0  0  0  0  0  3  0  0  0  0  0  0
  -30.1570  -16.9550   21.0850 C   0  0  0  0  0  3  0  0  0  0  0  0
  -30.6920  -14.4550   20.6250 C   0  0  0  0  0  0  0  0  0  0  0  0
  -30.3890  -12.3140   19.4580 C   0  0  0  0  0  2  0  0  0  0  0  0
  -29.4870  -12.5600   18.2330 C   0  0  0  0  0  2  0  0  0  0  0  0
  -27.9950  -12.4470   18.6110 C   0  0  0  0  0  2  0  0  0  0  0  0
  -27.6360  -13.2570   19.8890 C   0  0  0  0  0  3  0  0  0  0  0  0
  -28.6590  -13.0020   21.0180 C   0  0  0  0  0  2  0  0  0  0  0  0
  -30.0020  -13.2900   20.4870 N   0  0  0  0  0  0  0  0  0  0  0  0
  -31.8290  -14.5980   20.1850 O   0  0  0  0  0  0  0  0  0  0  0  0
  -29.9660  -15.4810   21.1040 N   0  0  0  0  0  0  0  0  0  0  0  0
  -29.0560  -15.1990   21.4240 H   0  0  0  0  0  0  0  0  0  0  0  0
  -25.2070  -13.8710   20.4850 C   0  0  0  0  0  0  0  0  0  0  0  0
  -24.1260  -13.1050   20.8320 C   0  0  0  0  0  0  0  0  0  0  0  0
  -24.5870  -11.7530   20.8430 C   0  0  0  0  0  0  0  0  0  0  0  0
  -26.2640  -12.9890   20.3200 N   0  0  0  0  0  0  0  0  0  0  0  0
  -25.8900  -11.7090   20.5820 N   0  0  0  0  0  0  0  0  0  0  0  0
  -23.8530  -10.4950   21.0320 C   0  0  0  0  0  0  0  0  0  0  0  0
  -24.2640   -9.5370   21.9840 C   0  0  0  0  0  3  0  0  0  0  0  0
  -23.5340   -8.3420   22.1620 C   0  0  0  0  0  3  0  0  0  0  0  0
  -22.3760   -8.0990   21.3860 C   0  0  0  0  0  0  0  0  0  0  0  0
  -21.9820   -9.0460   20.4250 C   0  0  0  0  0  3  0  0  0  0  0  0
  -22.7150  -10.2310   20.2450 C   0  0  0  0  0  3  0  0  0  0  0  0
  -21.6180   -6.9560   21.4710 O   0  0  0  0  0  0  0  0  0  0  0  0
  -21.5530   -6.2180   22.6260 C   0  0  0  0  0  0  0  0  0  0  0  0
  -21.1260   -6.7820   23.8480 C   0  0  0  0  0  3  0  0  0  0  0  0
  -21.0110   -5.9740   24.9950 C   0  0  0  0  0  3  0  0  0  0  0  0
  -21.3120   -4.6010   24.9220 C   0  0  0  0  0  0  0  0  0  0  0  0
  -21.7300   -4.0350   23.7050 C   0  0  0  0  0  3  0  0  0  0  0  0
  -21.8470   -4.8420   22.5590 C   0  0  0  0  0  0  0  0  0  0  0  0
  -22.2320   -4.2880   21.3840 F   0  0  0  0  0  0  0  0  0  0  0  0
  -21.1930   -3.8210   26.0210 F   0  0  0  0  0  0  0  0  0  0  0  0
  -22.7180  -13.5880   21.0460 C   0  0  0  0  0  0  0  0  0  0  0  0
  -21.9610  -12.9110   21.9030 N   0  0  0  0  0  0  0  0  0  0  0  0
  -22.2990  -14.6020   20.4910 O   0  0  0  0  0  0  0  0  0  0  0  0
  -22.3120  -12.0930   22.3780 H   0  0  0  0  0  0  0  0  0  0  0  0
  -21.0150  -13.2150   22.0870 H   0  0  0  0  0  0  0  0  0  0  0  0
  -25.3760  -15.2350   20.2820 N   0  0  0  0  0  0  0  0  0  0  0  0
  -24.6020  -15.8860   20.3380 H   0  0  0  0  0  0  0  0  0  0  0  0
  -26.2440  -15.6680   19.9960 H   0  0  0  0  0  0  0  0  0  0  0  0
  -33.3960  -18.9130   20.6420 N   0  0  0  0  0  4  0  0  0  0  0  0
  -33.6640  -18.9250   19.6750 H   0  0  0  0  0  0  0  0  0  0  0  0
  -33.7970  -18.0920   21.0630 H   0  0  0  0  0  0  0  0  0  0  0  0
  -33.8060  -19.7100   21.0970 H   0  0  0  0  0  0  0  0  0  0  0  0
  2  5  1  0
  3  4  1  0
  3  6  2  0
  4  2  2  0
  5  1  1  0
  6  7  1  0
  7  5  2  0
  7  9  1  0
  8  4  1  0
 10  6  1  0
 10 11  1  0
 12 23  2  0
 13 11  1  0
 13 18  1  0
 14 22  1  0
 14 24  1  0
 15 21  1  0
 15 17  1  0
 16 22  1  0
 17 16  1  0
 18 17  2  0
 19 20  1  0
 19 13  2  0
 20 15  2  0
 21 14  1  0
 22 12  1  0
 24 26  2  0
 25 24  1  0
 27 25  1  0
 28 37  2  0
 28 33  1  0
 29 25  1  0
 29 33  1  0
 30 29  1  0
 31 32  1  0
 31 30  1  0
 32 28  1  0
 33 34  2  0
 34 35  1  0
 36 35  2  0
 37 36  1  0
 38 12  1  0
 38 39  1  0
 38 48  1  0
 39 42  1  0
 40 44  1  0
 40 39  1  0
 41 40  2  0
 44 43  1  0
 46 44  1  0
 46 47  1  0
 46 45  1  0
 48 51  1  1
 48 49  1  0
 50 48  1  0
 52  1  1  0
 53 52  1  0
 54 56  1  0
 54 55  1  0
 55 57  1  0
 56 58  1  0
 57 59  1  0
 58 53  1  0
 58 59  1  0
 59 68  1  0
 60 68  1  0
 61 66  1  0
 62 63  1  0
 62 61  1  0
 64 63  1  0
 64 73  1  0
 64 65  1  0
 66 60  1  0
 66 65  1  0
 67 60  2  0
 68 69  1  0
 70 71  2  0
 71 72  1  0
 71 90  1  0
 72 75  1  0
 73 70  1  0
 73 74  1  0
 74 72  2  0
 75 76  1  0
 76 77  2  0
 78 81  1  0
 78 77  1  0
 79 78  2  0
 80 79  1  0
 80 75  2  0
 81 82  1  0
 82 83  1  0
 83 84  2  0
 85 84  1  0
 85 89  1  0
 86 85  2  0
 87 82  2  0
 87 86  1  0
 88 87  1  0
 90 91  1  0
 91 94  1  0
 91 93  1  0
 92 90  2  0
 95 96  1  0
 95 70  1  0
 97 95  1  0
 98 53  1  0
 98100  1  0
 98101  1  0
 99 98  1  0
M  ISO  4  10 101  11 101  60 100  68 100
M  END
>  <TORSDO>  (7) 
F 22

>  <SCORE>  (7) 
-13.447

>  <name>  (7) 
6

>  <ligand_id>  (7) 
6

>  <original_smiles>  (7) 
[H]c1c([H])c([H])c2c(c1[H])C([H])([H])C([H])([H])C([H])([H])C2([H])N([H])C(=O)C1([H])N(C(=O)C([H])(N([H])C(=O)C([H])(N([H])C([H])([H])[H])C([H])([H])[H])C(C([H])([H])[H])(C([H])([H])[H])C([H])([H])[H])C([H])([H])c2c([H])c(OC([H])([H])c3c([H])c(C([H])([H])[H])c([H])c(C([H])([H])C([H])([H])C([H])(C4([H])C([H])([H])C([H])([H])C([H])([H])C([H])([H])C4([H])N([H])C(=O)N4C([H])([H])C([H])([H])C([H])([H])C([H])(n5nc(-c6c([H])c([H])c(Oc7c([H])c([H])c(F)c([H])c7F)c([H])c6[H])c(C(=O)N([H])[H])c5N([H])[H])C4([H])[H])[N+]([H])([H])[H])c3C([H])([H])[H])c([H])c([H])c2C1([H])[H]

>  <smiles>  (7) 
[H]c1c([H])c([H])c2c(c1[H])C([H])([H])C([H])([H])C([H])([H])C2([H])N([H])C(=O)C1([H])N(C(=O)C([H])(N([H])C(=O)C([H])(N([H])C([H])([H])[H])C([H])([H])[H])C(C([H])([H])[H])(C([H])([H])[H])C([H])([H])[H])C([H])([H])c2c([H])c(OC([H])([H])c3c([H])c(C([H])([H])[H])c([H])c(C([H])([H])C([H])([H])C([H])(C4([H])C([H])([H])C([H])([H])C([H])([H])C([H])([H])C4([H])N([H])C(=O)N4C([H])([H])C([H])([H])C([H])([H])C([H])(n5nc(-c6c([H])c([H])c(Oc7c([H])c([H])c(F)c([H])c7F)c([H])c6[H])c(C(=O)N([H])[H])c5N([H])[H])C4([H])[H])[N+]([H])([H])[H])c3C([H])([H])[H])c([H])c([H])c2C1([H])[H]

$$$$
7:0:0
     RDKit          3D

 96105  0  0  1  0  0  0  0  0999 V2000
  -30.8330  -19.5430   19.0550 C   0  0  0  0  0  3  0  0  0  0  0  0
  -31.1520  -20.7660   18.4210 C   0  0  0  0  0  3  0  0  0  0  0  0
  -29.0440  -20.7200   20.1920 C   0  0  0  0  0  0  0  0  0  0  0  0
  -29.3390  -22.0290   19.5240 C   0  0  0  0  0  0  0  0  0  0  0  0
  -29.7890  -19.4260   19.9890 C   0  0  0  0  0  0  0  0  0  0  0  0
  -30.4470  -21.9840   18.6360 C   0  0  0  0  0  0  0  0  0  0  0  0
  -27.8360  -20.7430   21.1180 C   0  0  0  0  0  2  0  0  0  0  0  0
  -27.3460  -22.1730   21.4640 C   0  0  0  0  0  2  0  0  0  0  0  0
  -28.3950  -23.4140   19.5670 C   0  0  0  0  0  3  0  0  0  0  0  0
  -27.1420  -23.0180   20.2580 N   0  0  0  0  0  4  0  0  0  0  0  0
  -26.6240  -23.8450   20.5110 H   0  0  0  0  0  0  0  0  0  0  0  0
  -26.5690  -22.5000   19.6120 H   0  0  0  0  0  0  0  0  0  0  0  0
  -32.0010  -23.1940   17.0940 C   0  0  0  0  0  1  0  0  0  0  0  0
  -30.8140  -23.1500   17.9410 N   0  0  0  0  0  0  0  0  0  0  0  0
  -30.2680  -24.0000   18.0180 H   0  0  0  0  0  0  0  0  0  0  0  0
  -29.7320  -17.9800   20.8250 C   0  0  0  0  0  2  0  0  0  0  0  0
  -30.5730  -15.3000   20.4400 C   0  0  0  0  0  0  0  0  0  0  0  0
  -30.6070  -12.8760   19.6410 C   0  0  0  0  0  2  0  0  0  0  0  0
  -29.7310  -12.6790   18.3810 C   0  0  0  0  0  2  0  0  0  0  0  0
  -28.2580  -12.4410   18.7670 C   0  0  0  0  0  2  0  0  0  0  0  0
  -27.7590  -13.4400   19.8440 C   0  0  0  0  0  3  0  0  0  0  0  0
  -28.7600  -13.5790   21.0080 C   0  0  0  0  0  2  0  0  0  0  0  0
  -30.0300  -14.0130   20.4130 N   0  0  0  0  0  0  0  0  0  0  0  0
  -31.8010  -15.3890   20.3370 O   0  0  0  0  0  0  0  0  0  0  0  0
  -29.7190  -16.4490   20.3640 N   0  0  0  0  0  0  0  0  0  0  0  0
  -28.7710  -16.1470   20.2020 H   0  0  0  0  0  0  0  0  0  0  0  0
  -25.3520  -14.0070   20.4930 C   0  0  0  0  0  0  0  0  0  0  0  0
  -24.2810  -13.2270   20.8340 C   0  0  0  0  0  0  0  0  0  0  0  0
  -24.7600  -11.8810   20.8410 C   0  0  0  0  0  0  0  0  0  0  0  0
  -26.4100  -13.1350   20.3040 N   0  0  0  0  0  0  0  0  0  0  0  0
  -26.0620  -11.8520   20.5820 N   0  0  0  0  0  0  0  0  0  0  0  0
  -24.0370  -10.6140   21.0200 C   0  0  0  0  0  0  0  0  0  0  0  0
  -24.4550   -9.6530   21.9660 C   0  0  0  0  0  3  0  0  0  0  0  0
  -23.7310   -8.4530   22.1340 C   0  0  0  0  0  3  0  0  0  0  0  0
  -22.5760   -8.2050   21.3550 C   0  0  0  0  0  0  0  0  0  0  0  0
  -22.1770   -9.1570   20.3990 C   0  0  0  0  0  3  0  0  0  0  0  0
  -22.9010  -10.3490   20.2300 C   0  0  0  0  0  3  0  0  0  0  0  0
  -21.8250   -7.0570   21.4310 O   0  0  0  0  0  0  0  0  0  0  0  0
  -21.7810   -6.3010   22.5750 C   0  0  0  0  0  0  0  0  0  0  0  0
  -21.3560   -6.8420   23.8090 C   0  0  0  0  0  3  0  0  0  0  0  0
  -21.2590   -6.0120   24.9430 C   0  0  0  0  0  3  0  0  0  0  0  0
  -21.5750   -4.6430   24.8460 C   0  0  0  0  0  0  0  0  0  0  0  0
  -21.9930   -4.1030   23.6170 C   0  0  0  0  0  3  0  0  0  0  0  0
  -22.0910   -4.9300   22.4840 C   0  0  0  0  0  0  0  0  0  0  0  0
  -22.4730   -4.3990   21.2970 F   0  0  0  0  0  0  0  0  0  0  0  0
  -21.4750   -3.8450   25.9340 F   0  0  0  0  0  0  0  0  0  0  0  0
  -22.8700  -13.6950   21.0380 C   0  0  0  0  0  0  0  0  0  0  0  0
  -22.1150  -13.0110   21.8890 N   0  0  0  0  0  0  0  0  0  0  0  0
  -22.4450  -14.7060   20.4790 O   0  0  0  0  0  0  0  0  0  0  0  0
  -22.4710  -12.1930   22.3630 H   0  0  0  0  0  0  0  0  0  0  0  0
  -21.1670  -13.3070   22.0700 H   0  0  0  0  0  0  0  0  0  0  0  0
  -25.5060  -15.3770   20.2990 N   0  0  0  0  0  0  0  0  0  0  0  0
  -24.7220  -16.0160   20.3630 H   0  0  0  0  0  0  0  0  0  0  0  0
  -26.3450  -15.8190   19.9470 H   0  0  0  0  0  0  0  0  0  0  0  0
  -28.8090  -25.0100   20.0320 C   0  0  0  0  0  2  0  0  0  0  0  0
  -28.5380  -26.4630   19.4750 O   0  0  0  0  0  0  0  0  0  0  0  0
  -24.6920  -31.7430   23.0390 C   0  0  0  0  0  0  0  0  0  0  0  0
  -27.4000  -27.3360   19.6540 C   0  0  0  0  0  0  0  0  0  0  0  0
  -23.5210  -30.4240   21.3180 C   0  0  0  0  0  3  0  0  0  0  0  0
  -25.0040  -28.9950   19.7750 C   0  0  0  0  0  0  0  0  0  0  0  0
  -26.0590  -30.7950   21.1360 C   0  0  0  0  0  2  0  0  0  0  0  0
  -26.1760  -29.4480   20.3950 C   0  0  0  0  0  0  0  0  0  0  0  0
  -27.3750  -28.6400   20.3070 C   0  0  0  0  0  3  0  0  0  0  0  0
  -26.1920  -26.9830   19.0180 C   0  0  0  0  0  3  0  0  0  0  0  0
  -25.0240  -27.7790   19.0720 C   0  0  0  0  0  3  0  0  0  0  0  0
  -23.7470  -29.8480   19.8940 C   0  0  0  0  0  2  0  0  0  0  0  0
  -24.7790  -31.0080   21.8880 N   0  0  0  0  0  0  0  0  0  0  0  0
  -23.6060  -31.9450   23.6020 O   0  0  0  0  0  0  0  0  0  0  0  0
  -22.8950  -29.3270   22.2170 C   0  0  0  0  0  0  0  0  0  0  0  0
  -21.5690  -29.1270   22.1080 N   0  0  0  0  0  0  0  0  0  0  0  0
  -23.6040  -28.6580   22.9730 O   0  0  0  0  0  0  0  0  0  0  0  0
  -21.0500  -29.7200   21.4760 H   0  0  0  0  0  0  0  0  0  0  0  0
  -18.2340  -27.7990   22.6090 C   0  0  0  0  0  0  0  0  0  0  0  0
  -20.7940  -28.1070   22.8200 C   0  0  0  0  0  3  0  0  0  0  0  0
  -20.9110  -26.7330   22.1240 C   0  0  0  0  0  2  0  0  0  0  0  0
  -19.7850  -26.4660   21.1190 C   0  0  0  0  0  2  0  0  0  0  0  0
  -18.4220  -26.5190   21.8140 C   0  0  0  0  0  2  0  0  0  0  0  0
  -19.3470  -28.5540   23.0680 C   0  0  0  0  0  0  0  0  0  0  0  0
  -19.1160  -29.7540   23.7740 C   0  0  0  0  0  3  0  0  0  0  0  0
  -17.8040  -30.2010   24.0250 C   0  0  0  0  0  3  0  0  0  0  0  0
  -16.7060  -29.4450   23.5800 C   0  0  0  0  0  3  0  0  0  0  0  0
  -16.9230  -28.2440   22.8780 C   0  0  0  0  0  3  0  0  0  0  0  0
  -25.9550  -32.3820   23.6960 C   0  0  0  0  0  3  0  0  0  0  0  0
  -26.5290  -31.5280   24.8930 C   0  0  1  0  0  0  0  0  0  0  0  0
  -25.4710  -31.1600   25.9600 C   0  0  0  0  0  1  0  0  0  0  0  0
  -27.1560  -30.2120   24.3800 C   0  0  0  0  0  1  0  0  0  0  0  0
  -27.6640  -32.3110   25.5970 C   0  0  0  0  0  1  0  0  0  0  0  0
  -25.5870  -33.7300   24.1590 N   0  0  0  0  0  0  0  0  0  0  0  0
  -25.8540  -34.8650   23.5000 C   0  0  0  0  0  0  0  0  0  0  0  0
  -26.5010  -34.8900   22.4500 O   0  0  0  0  0  0  0  0  0  0  0  0
  -25.0090  -33.7810   24.9850 H   0  0  0  0  0  0  0  0  0  0  0  0
  -24.0350  -36.6000   23.3650 C   0  0  0  0  0  1  0  0  0  0  0  0
  -25.3200  -36.1820   24.0990 C   0  0  0  0  0  3  0  0  0  0  0  0
  -27.4360  -37.0920   24.9500 C   0  0  0  0  0  1  0  0  0  0  0  0
  -26.2990  -37.2900   24.0540 N   0  0  0  0  0  0  0  0  0  0  0  0
  -25.8560  -38.1730   24.2950 H   0  0  0  0  0  0  0  0  0  0  0  0
  1  5  1  0
  2  6  1  0
  2  1  2  0
  3  7  1  0
  4  9  1  0
  4  3  1  0
  5  3  2  0
  5 16  1  0
  6  4  2  0
  7  8  1  0
  9 55  1  0
  9 10  1  0
 10 11  1  0
 10  8  1  0
 12 10  1  0
 13 14  1  0
 14 15  1  0
 14  6  1  0
 18 23  1  0
 19 20  1  0
 19 18  1  0
 21 20  1  0
 21 30  1  0
 21 22  1  0
 23 17  1  0
 23 22  1  0
 24 17  2  0
 25 17  1  0
 25 16  1  0
 26 25  1  0
 27 28  2  0
 28 29  1  0
 28 47  1  0
 29 32  1  0
 30 27  1  0
 30 31  1  0
 31 29  2  0
 32 33  1  0
 33 34  2  0
 35 38  1  0
 35 34  1  0
 36 35  2  0
 37 36  1  0
 37 32  2  0
 38 39  1  0
 39 40  1  0
 40 41  2  0
 42 41  1  0
 42 46  1  0
 43 42  2  0
 44 39  2  0
 44 43  1  0
 45 44  1  0
 47 48  1  0
 48 51  1  0
 48 50  1  0
 49 47  2  0
 52 53  1  0
 52 27  1  0
 54 52  1  0
 56 58  1  0
 56 55  1  0
 57 68  2  0
 58 63  1  0
 59 67  1  0
 59 69  1  0
 60 66  1  0
 60 62  1  0
 61 67  1  0
 62 61  1  0
 63 62  2  0
 64 65  1  0
 64 58  2  0
 65 60  2  0
 66 59  1  0
 67 57  1  0
 69 71  2  0
 70 69  1  0
 72 70  1  0
 73 82  2  0
 73 78  1  0
 74 70  1  0
 74 78  1  0
 75 74  1  0
 76 77  1  0
 76 75  1  0
 77 73  1  0
 78 79  2  0
 79 80  1  0
 81 80  2  0
 82 81  1  0
 83 57  1  0
 83 88  1  0
 83 84  1  0
 84 87  1  1
 84 85  1  0
 86 84  1  0
 88 91  1  0
 89 93  1  0
 89 88  1  0
 90 89  2  0
 93 92  1  0
 95 93  1  0
 95 96  1  0
 95 94  1  0
M  ISO  4  17 100  25 100  55 101  56 101
M  END
>  <TORSDO>  (8) 
F 19

>  <SCORE>  (8) 
-13.525

>  <name>  (8) 
7

>  <ligand_id>  (8) 
7

>  <original_smiles>  (8) 
[H]c1c([H])c([H])c2c(c1[H])C([H])([H])C([H])([H])C([H])([H])C2([H])N([H])C(=O)C1([H])N(C(=O)C([H])(N([H])C(=O)C([H])(N([H])C([H])([H])[H])C([H])([H])[H])C(C([H])([H])[H])(C([H])([H])[H])C([H])([H])[H])C([H])([H])c2c([H])c(OC([H])([H])C3([H])c4c(N([H])C([H])([H])[H])c([H])c([H])c(C([H])([H])N([H])C(=O)N5C([H])([H])C([H])([H])C([H])([H])C([H])(n6nc(-c7c([H])c([H])c(Oc8c([H])c([H])c(F)c([H])c8F)c([H])c7[H])c(C(=O)N([H])[H])c6N([H])[H])C5([H])[H])c4C([H])([H])C([H])([H])[N+]3([H])[H])c([H])c([H])c2C1([H])[H]

>  <smiles>  (8) 
[H]c1c([H])c([H])c2c(c1[H])C([H])([H])C([H])([H])C([H])([H])C2([H])N([H])C(=O)C1([H])N(C(=O)C([H])(N([H])C(=O)C([H])(N([H])C([H])([H])[H])C([H])([H])[H])C(C([H])([H])[H])(C([H])([H])[H])C([H])([H])[H])C([H])([H])c2c([H])c(OC([H])([H])C3([H])c4c(N([H])C([H])([H])[H])c([H])c([H])c(C([H])([H])N([H])C(=O)N5C([H])([H])C([H])([H])C([H])([H])C([H])(n6nc(-c7c([H])c([H])c(Oc8c([H])c([H])c(F)c([H])c8F)c([H])c7[H])c(C(=O)N([H])[H])c6N([H])[H])C5([H])[H])c4C([H])([H])C([H])([H])[N+]3([H])[H])c([H])c([H])c2C1([H])[H]

$$$$
8:0:0
     RDKit          3D

 90 98  0  0  1  0  0  0  0  0999 V2000
  -30.1210  -23.5040   17.3550 C   0  0  0  0  0  3  0  0  0  0  0  0
  -30.4410  -22.1520   17.4100 C   0  0  0  0  0  3  0  0  0  0  0  0
  -29.3940  -24.0840   18.3980 C   0  0  0  0  0  3  0  0  0  0  0  0
  -30.0210  -21.3810   18.4990 C   0  0  0  0  0  3  0  0  0  0  0  0
  -28.9350  -23.3900   19.5480 C   0  0  0  0  0  0  0  0  0  0  0  0
  -29.2620  -21.8720   19.5980 C   0  0  0  0  0  0  0  0  0  0  0  0
  -29.0560  -20.7040   20.5120 N   0  0  0  0  0  0  0  0  0  0  0  0
  -28.6370  -20.9510   21.4080 H   0  0  0  0  0  0  0  0  0  0  0  0
  -28.9350  -19.1440   20.1720 C   0  0  0  0  0  3  0  0  0  0  0  0
  -30.0220  -17.8560   20.5150 C   0  0  0  0  0  3  0  0  0  0  0  0
  -30.4800  -15.0730   20.3170 C   0  0  0  0  0  0  0  0  0  0  0  0
  -30.3890  -12.7010   19.3710 C   0  0  0  0  0  2  0  0  0  0  0  0
  -29.4450  -12.6170   18.1490 C   0  0  0  0  0  2  0  0  0  0  0  0
  -27.9920  -12.3790   18.5990 C   0  0  0  0  0  2  0  0  0  0  0  0
  -27.5810  -13.3020   19.7750 C   0  0  0  0  0  3  0  0  0  0  0  0
  -28.6490  -13.3490   20.8890 C   0  0  0  0  0  2  0  0  0  0  0  0
  -29.8960  -13.8000   20.2590 N   0  0  0  0  0  0  0  0  0  0  0  0
  -31.6890  -15.1240   20.0600 O   0  0  0  0  0  0  0  0  0  0  0  0
  -29.7010  -16.2780   20.4590 N   0  0  0  0  0  0  0  0  0  0  0  0
  -28.7220  -16.0750   20.5930 H   0  0  0  0  0  0  0  0  0  0  0  0
  -25.2090  -13.8570   20.5470 C   0  0  0  0  0  0  0  0  0  0  0  0
  -24.1550  -13.0720   20.9260 C   0  0  0  0  0  0  0  0  0  0  0  0
  -24.6300  -11.7250   20.8850 C   0  0  0  0  0  0  0  0  0  0  0  0
  -26.2550  -12.9880   20.2900 N   0  0  0  0  0  0  0  0  0  0  0  0
  -25.9180  -11.6990   20.5610 N   0  0  0  0  0  0  0  0  0  0  0  0
  -23.9130  -10.4580   21.0760 C   0  0  0  0  0  0  0  0  0  0  0  0
  -24.3640   -9.4840   21.9940 C   0  0  0  0  0  3  0  0  0  0  0  0
  -23.6450   -8.2820   22.1740 C   0  0  0  0  0  3  0  0  0  0  0  0
  -22.4600   -8.0460   21.4360 C   0  0  0  0  0  0  0  0  0  0  0  0
  -22.0280   -9.0090   20.5080 C   0  0  0  0  0  3  0  0  0  0  0  0
  -22.7480  -10.2010   20.3260 C   0  0  0  0  0  3  0  0  0  0  0  0
  -21.7110   -6.8980   21.5270 O   0  0  0  0  0  0  0  0  0  0  0  0
  -21.6940   -6.1380   22.6700 C   0  0  0  0  0  0  0  0  0  0  0  0
  -21.2990   -6.6740   23.9150 C   0  0  0  0  0  3  0  0  0  0  0  0
  -21.2280   -5.8410   25.0490 C   0  0  0  0  0  3  0  0  0  0  0  0
  -21.5440   -4.4740   24.9400 C   0  0  0  0  0  0  0  0  0  0  0  0
  -21.9320   -3.9370   23.7000 C   0  0  0  0  0  3  0  0  0  0  0  0
  -22.0040   -4.7670   22.5680 C   0  0  0  0  0  0  0  0  0  0  0  0
  -22.3590   -4.2410   21.3710 F   0  0  0  0  0  0  0  0  0  0  0  0
  -21.4690   -3.6710   26.0270 F   0  0  0  0  0  0  0  0  0  0  0  0
  -22.7570  -13.5400   21.2070 C   0  0  0  0  0  0  0  0  0  0  0  0
  -22.0390  -12.8370   22.0750 N   0  0  0  0  0  0  0  0  0  0  0  0
  -22.3110  -14.5640   20.6920 O   0  0  0  0  0  0  0  0  0  0  0  0
  -22.4140  -12.0090   22.5140 H   0  0  0  0  0  0  0  0  0  0  0  0
  -21.1010  -13.1320   22.3070 H   0  0  0  0  0  0  0  0  0  0  0  0
  -25.3590  -15.2290   20.3700 N   0  0  0  0  0  0  0  0  0  0  0  0
  -24.5800  -15.8700   20.4790 H   0  0  0  0  0  0  0  0  0  0  0  0
  -26.1830  -15.6720   19.9850 H   0  0  0  0  0  0  0  0  0  0  0  0
  -28.1110  -24.5380   20.4270 C   0  0  0  0  0  2  0  0  0  0  0  0
  -28.2710  -26.1090   20.1960 O   0  0  0  0  0  0  0  0  0  0  0  0
  -24.6200  -31.8570   23.1940 C   0  0  0  0  0  0  0  0  0  0  0  0
  -27.1990  -27.0930   20.1850 C   0  0  0  0  0  0  0  0  0  0  0  0
  -23.4200  -30.4460   21.5690 C   0  0  0  0  0  3  0  0  0  0  0  0
  -24.8680  -28.8590   20.1480 C   0  0  0  0  0  0  0  0  0  0  0  0
  -25.9750  -30.7110   21.3900 C   0  0  0  0  0  2  0  0  0  0  0  0
  -26.0510  -29.3090   20.7480 C   0  0  0  0  0  0  0  0  0  0  0  0
  -27.2180  -28.4450   20.7390 C   0  0  0  0  0  3  0  0  0  0  0  0
  -25.9860  -26.7550   19.5490 C   0  0  0  0  0  3  0  0  0  0  0  0
  -24.8510  -27.5990   19.5310 C   0  0  0  0  0  3  0  0  0  0  0  0
  -23.6390  -29.7580   20.1940 C   0  0  0  0  0  2  0  0  0  0  0  0
  -24.6920  -31.0280   22.1060 N   0  0  0  0  0  0  0  0  0  0  0  0
  -23.5350  -32.1390   23.7250 O   0  0  0  0  0  0  0  0  0  0  0  0
  -22.7470  -29.4440   22.5420 C   0  0  0  0  0  0  0  0  0  0  0  0
  -21.4190  -29.2690   22.4240 N   0  0  0  0  0  0  0  0  0  0  0  0
  -23.4250  -28.8250   23.3660 O   0  0  0  0  0  0  0  0  0  0  0  0
  -20.9270  -29.8190   21.7330 H   0  0  0  0  0  0  0  0  0  0  0  0
  -18.0460  -28.0500   22.9510 C   0  0  0  0  0  0  0  0  0  0  0  0
  -20.6050  -28.3330   23.2050 C   0  0  0  0  0  3  0  0  0  0  0  0
  -20.7130  -26.8970   22.6400 C   0  0  0  0  0  2  0  0  0  0  0  0
  -19.6090  -26.5600   21.6320 C   0  0  0  0  0  2  0  0  0  0  0  0
  -18.2300  -26.6990   22.2810 C   0  0  0  0  0  2  0  0  0  0  0  0
  -19.1610  -28.8240   23.3700 C   0  0  0  0  0  0  0  0  0  0  0  0
  -18.9340  -30.0870   23.9590 C   0  0  0  0  0  3  0  0  0  0  0  0
  -17.6250  -30.5780   24.1310 C   0  0  0  0  0  3  0  0  0  0  0  0
  -16.5260  -29.8020   23.7260 C   0  0  0  0  0  3  0  0  0  0  0  0
  -16.7370  -28.5400   23.1420 C   0  0  0  0  0  3  0  0  0  0  0  0
  -25.8960  -32.5040   23.8130 C   0  0  0  0  0  3  0  0  0  0  0  0
  -26.4210  -31.7380   25.0910 C   0  0  1  0  0  0  0  0  0  0  0  0
  -25.3350  -31.4990   26.1650 C   0  0  0  0  0  1  0  0  0  0  0  0
  -27.0100  -30.3620   24.7040 C   0  0  0  0  0  1  0  0  0  0  0  0
  -27.5720  -32.5410   25.7440 C   0  0  0  0  0  1  0  0  0  0  0  0
  -25.5730  -33.9000   24.1520 N   0  0  0  0  0  0  0  0  0  0  0  0
  -25.8940  -34.9640   23.4030 C   0  0  0  0  0  0  0  0  0  0  0  0
  -26.5580  -34.8740   22.3680 O   0  0  0  0  0  0  0  0  0  0  0  0
  -24.9800  -34.0420   24.9570 H   0  0  0  0  0  0  0  0  0  0  0  0
  -24.1540  -36.7540   23.0780 C   0  0  0  0  0  1  0  0  0  0  0  0
  -25.4030  -36.3460   23.8780 C   0  0  0  0  0  3  0  0  0  0  0  0
  -27.5370  -37.2380   24.7030 C   0  0  0  0  0  1  0  0  0  0  0  0
  -26.4290  -37.4060   23.7680 N   0  0  0  0  0  0  0  0  0  0  0  0
  -26.0190  -38.3240   23.9250 H   0  0  0  0  0  0  0  0  0  0  0  0
  1  2  2  0
  1  3  1  0
  2  4  1  0
  3  5  2  0
  4  6  2  0
  5  6  1  0
  5 49  1  0
  6  7  1  0
  7  8  1  0
  9  7  1  0
  9 10  2  0
 11 19  1  0
 12 17  1  0
 13 14  1  0
 13 12  1  0
 15 14  1  0
 15 24  1  0
 15 16  1  0
 17 11  1  0
 17 16  1  0
 18 11  2  0
 19 10  1  0
 19 20  1  0
 21 22  2  0
 22 41  1  0
 23 22  1  0
 23 26  1  0
 24 21  1  0
 24 25  1  0
 25 23  2  0
 26 27  1  0
 27 28  2  0
 29 32  1  0
 29 28  1  0
 30 29  2  0
 31 30  1  0
 31 26  2  0
 32 33  1  0
 33 34  1  0
 34 35  2  0
 36 35  1  0
 36 40  1  0
 37 36  2  0
 38 33  2  0
 38 37  1  0
 39 38  1  0
 41 42  1  0
 42 45  1  0
 42 44  1  0
 43 41  2  0
 46 47  1  0
 46 21  1  0
 48 46  1  0
 50 49  1  0
 51 62  2  0
 52 50  1  0
 52 57  1  0
 53 61  1  0
 53 63  1  0
 54 60  1  0
 54 56  1  0
 55 61  1  0
 56 55  1  0
 57 56  2  0
 58 52  2  0
 59 58  1  0
 59 54  2  0
 60 53  1  0
 61 51  1  0
 63 65  2  0
 64 63  1  0
 66 64  1  0
 67 76  2  0
 67 72  1  0
 68 64  1  0
 68 72  1  0
 69 68  1  0
 70 71  1  0
 70 69  1  0
 71 67  1  0
 72 73  2  0
 73 74  1  0
 75 74  2  0
 76 75  1  0
 77 51  1  0
 77 82  1  0
 77 78  1  0
 78 81  1  1
 78 79  1  0
 80 78  1  0
 82 85  1  0
 83 87  1  0
 83 82  1  0
 84 83  2  0
 87 86  1  0
 89 87  1  0
 89 90  1  0
 89 88  1  0
M  ISO  4  11 100  19 100  49 101  50 101
M  END
>  <TORSDO>  (9) 
F 20

>  <SCORE>  (9) 
-14.430

>  <name>  (9) 
8

>  <ligand_id>  (9) 
8

>  <original_smiles>  (9) 
[H]c1c([H])c([H])c(C([H])([H])Oc2c([H])c([H])c3c(c2[H])C([H])([H])N(C(=O)C([H])(N([H])C(=O)C([H])(N([H])C([H])([H])[H])C([H])([H])[H])C(C([H])([H])[H])(C([H])([H])[H])C([H])([H])[H])C([H])(C(=O)N([H])C2([H])c4c([H])c([H])c([H])c([H])c4C([H])([H])C([H])([H])C2([H])[H])C3([H])[H])c(N([H])C([H])([H])C([H])([H])N([H])C(=O)N2C([H])([H])C([H])([H])C([H])([H])C([H])(n3nc(-c4c([H])c([H])c(Oc5c([H])c([H])c(F)c([H])c5F)c([H])c4[H])c(C(=O)N([H])[H])c3N([H])[H])C2([H])[H])c1[H]

>  <smiles>  (9) 
[H]c1c([H])c([H])c(C([H])([H])Oc2c([H])c([H])c3c(c2[H])C([H])([H])N(C(=O)C([H])(N([H])C(=O)C([H])(N([H])C([H])([H])[H])C([H])([H])[H])C(C([H])([H])[H])(C([H])([H])[H])C([H])([H])[H])C([H])(C(=O)N([H])C2([H])c4c([H])c([H])c([H])c([H])c4C([H])([H])C([H])([H])C2([H])[H])C3([H])[H])c(N([H])C([H])([H])C([H])([H])N([H])C(=O)N2C([H])([H])C([H])([H])C([H])([H])C([H])(n3nc(-c4c([H])c([H])c(Oc5c([H])c([H])c(F)c([H])c5F)c([H])c4[H])c(C(=O)N([H])[H])c3N([H])[H])C2([H])[H])c1[H]

$$$$
9:0:0
     RDKit          3D

 98107  0  0  1  0  0  0  0  0999 V2000
  -29.4050  -20.5630   21.6670 C   0  0  0  0  0  3  0  0  0  0  0  0
  -28.9790  -21.9840   21.7390 C   0  0  0  0  0  3  0  0  0  0  0  0
  -30.1600  -20.9170   19.5290 C   0  0  0  0  0  3  0  0  0  0  0  0
  -30.0350  -19.8830   20.5490 C   0  0  0  0  0  0  0  0  0  0  0  0
  -29.1030  -23.0220   20.7200 C   0  0  0  0  0  0  0  0  0  0  0  0
  -29.7180  -22.3400   19.5780 C   0  0  0  0  0  0  0  0  0  0  0  0
  -29.8830  -23.1150   18.2730 C   0  0  0  0  0  2  0  0  0  0  0  0
  -28.5930  -23.1590   17.4260 C   0  0  0  0  0  2  0  0  0  0  0  0
  -28.0590  -21.7990   17.1900 N   0  0  0  0  0  4  0  0  0  0  0  0
  -27.9850  -21.6220   16.2010 H   0  0  0  0  0  0  0  0  0  0  0  0
  -28.7480  -21.1660   17.5660 H   0  0  0  0  0  0  0  0  0  0  0  0
  -26.7750  -21.5040   17.8610 C   0  0  0  0  0  2  0  0  0  0  0  0
  -27.2820  -17.9220   19.0910 C   0  0  0  0  0  2  0  0  0  0  0  0
  -25.7840  -18.1350   19.3440 C   0  0  0  0  0  2  0  0  0  0  0  0
  -27.7790  -19.1640   18.3360 C   0  0  0  0  0  2  0  0  0  0  0  0
  -25.5410  -19.6240   19.0930 C   0  0  0  0  0  2  0  0  0  0  0  0
  -26.5280  -19.9860   17.9800 C   0  0  0  0  0  3  0  0  0  0  0  0
  -30.8160  -18.3330   20.5450 C   0  0  0  0  0  2  0  0  0  0  0  0
  -31.1630  -15.4960   20.4210 C   0  0  0  0  0  0  0  0  0  0  0  0
  -31.1570  -13.1110   19.4370 C   0  0  0  0  0  2  0  0  0  0  0  0
  -30.2580  -12.9810   18.1840 C   0  0  0  0  0  2  0  0  0  0  0  0
  -28.8050  -12.6810   18.5920 C   0  0  0  0  0  2  0  0  0  0  0  0
  -28.3300  -13.5800   19.7620 C   0  0  0  0  0  3  0  0  0  0  0  0
  -29.3620  -13.6780   20.9040 C   0  0  0  0  0  2  0  0  0  0  0  0
  -30.6000  -14.2010   20.3120 N   0  0  0  0  0  0  0  0  0  0  0  0
  -32.3810  -15.5270   20.1990 O   0  0  0  0  0  0  0  0  0  0  0  0
  -30.4030  -16.7430   20.5720 N   0  0  0  0  0  0  0  0  0  0  0  0
  -29.4150  -16.5870   20.6980 H   0  0  0  0  0  0  0  0  0  0  0  0
  -25.9230  -14.0550   20.4650 C   0  0  0  0  0  0  0  0  0  0  0  0
  -24.8820  -13.2410   20.8090 C   0  0  0  0  0  0  0  0  0  0  0  0
  -25.3970  -11.9080   20.7840 C   0  0  0  0  0  0  0  0  0  0  0  0
  -27.0010  -13.2170   20.2400 N   0  0  0  0  0  0  0  0  0  0  0  0
  -26.6960  -11.9200   20.5030 N   0  0  0  0  0  0  0  0  0  0  0  0
  -24.7110  -10.6200   20.9530 C   0  0  0  0  0  0  0  0  0  0  0  0
  -25.0810   -9.7110   21.9680 C   0  0  0  0  0  3  0  0  0  0  0  0
  -24.3910   -8.4890   22.1230 C   0  0  0  0  0  3  0  0  0  0  0  0
  -23.3160   -8.1670   21.2610 C   0  0  0  0  0  0  0  0  0  0  0  0
  -22.9650   -9.0650   20.2370 C   0  0  0  0  0  3  0  0  0  0  0  0
  -23.6570  -10.2780   20.0820 C   0  0  0  0  0  3  0  0  0  0  0  0
  -22.6030   -6.9930   21.3210 O   0  0  0  0  0  0  0  0  0  0  0  0
  -22.2790   -6.4070   22.5190 C   0  0  0  0  0  0  0  0  0  0  0  0
  -21.4840   -7.0690   23.4800 C   0  0  0  0  0  3  0  0  0  0  0  0
  -21.1160   -6.4040   24.6670 C   0  0  0  0  0  3  0  0  0  0  0  0
  -21.5340   -5.0790   24.8910 C   0  0  0  0  0  0  0  0  0  0  0  0
  -22.3230   -4.4170   23.9330 C   0  0  0  0  0  3  0  0  0  0  0  0
  -22.6910   -5.0790   22.7490 C   0  0  0  0  0  0  0  0  0  0  0  0
  -23.4320   -4.4300   21.8190 F   0  0  0  0  0  0  0  0  0  0  0  0
  -21.1760   -4.4370   26.0290 F   0  0  0  0  0  0  0  0  0  0  0  0
  -23.4630  -13.6690   21.0450 C   0  0  0  0  0  0  0  0  0  0  0  0
  -22.7450  -12.9590   21.9090 N   0  0  0  0  0  0  0  0  0  0  0  0
  -22.9990  -14.6680   20.4990 O   0  0  0  0  0  0  0  0  0  0  0  0
  -23.1330  -12.1540   22.3760 H   0  0  0  0  0  0  0  0  0  0  0  0
  -21.7920  -13.2300   22.1100 H   0  0  0  0  0  0  0  0  0  0  0  0
  -26.0400  -15.4310   20.2920 N   0  0  0  0  0  0  0  0  0  0  0  0
  -25.2410  -16.0490   20.3720 H   0  0  0  0  0  0  0  0  0  0  0  0
  -26.8680  -15.8970   19.9480 H   0  0  0  0  0  0  0  0  0  0  0  0
  -28.2860  -24.5570   20.7660 C   0  0  0  0  0  2  0  0  0  0  0  0
  -28.6850  -26.1340   20.7800 O   0  0  0  0  0  0  0  0  0  0  0  0
  -24.8520  -32.0510   23.4390 C   0  0  0  0  0  0  0  0  0  0  0  0
  -27.6810  -27.2210   20.6530 C   0  0  0  0  0  0  0  0  0  0  0  0
  -23.8040  -30.6380   21.7190 C   0  0  0  0  0  3  0  0  0  0  0  0
  -25.3750  -29.0560   20.4210 C   0  0  0  0  0  0  0  0  0  0  0  0
  -26.3700  -30.8850   21.7720 C   0  0  0  0  0  2  0  0  0  0  0  0
  -26.5050  -29.4780   21.1300 C   0  0  0  0  0  0  0  0  0  0  0  0
  -27.6580  -28.5810   21.2240 C   0  0  0  0  0  3  0  0  0  0  0  0
  -26.5270  -26.9510   19.8810 C   0  0  0  0  0  3  0  0  0  0  0  0
  -25.4090  -27.8110   19.7780 C   0  0  0  0  0  3  0  0  0  0  0  0
  -24.1450  -29.9590   20.3680 C   0  0  0  0  0  2  0  0  0  0  0  0
  -25.0250  -31.2170   22.3650 N   0  0  0  0  0  0  0  0  0  0  0  0
  -23.7230  -32.3300   23.8740 O   0  0  0  0  0  0  0  0  0  0  0  0
  -23.0480  -29.6340   22.6300 C   0  0  0  0  0  0  0  0  0  0  0  0
  -21.7320  -29.4650   22.4100 N   0  0  0  0  0  0  0  0  0  0  0  0
  -23.6570  -29.0110   23.5040 O   0  0  0  0  0  0  0  0  0  0  0  0
  -21.2970  -30.0180   21.6860 H   0  0  0  0  0  0  0  0  0  0  0  0
  -18.2990  -28.3530   22.7890 C   0  0  0  0  0  0  0  0  0  0  0  0
  -20.8600  -28.5230   23.1210 C   0  0  0  0  0  3  0  0  0  0  0  0
  -20.9280  -27.1140   22.4880 C   0  0  0  0  0  2  0  0  0  0  0  0
  -19.8400  -26.8710   21.4360 C   0  0  0  0  0  2  0  0  0  0  0  0
  -18.4500  -27.0310   22.0560 C   0  0  0  0  0  2  0  0  0  0  0  0
  -19.4310  -29.0610   23.2750 C   0  0  0  0  0  0  0  0  0  0  0  0
  -19.2350  -30.3000   23.9230 C   0  0  0  0  0  3  0  0  0  0  0  0
  -17.9410  -30.8310   24.0880 C   0  0  0  0  0  3  0  0  0  0  0  0
  -16.8240  -30.1190   23.6150 C   0  0  0  0  0  3  0  0  0  0  0  0
  -17.0040  -28.8830   22.9720 C   0  0  0  0  0  3  0  0  0  0  0  0
  -26.0650  -32.7090   24.1650 C   0  0  0  0  0  3  0  0  0  0  0  0
  -25.7170  -34.1130   24.4460 N   0  0  0  0  0  0  0  0  0  0  0  0
  -26.0430  -35.1540   23.6680 C   0  0  0  0  0  0  0  0  0  0  0  0
  -26.7330  -35.0340   22.6520 O   0  0  0  0  0  0  0  0  0  0  0  0
  -25.1030  -34.2750   25.2300 H   0  0  0  0  0  0  0  0  0  0  0  0
  -24.2620  -36.8900   23.2800 C   0  0  0  0  0  1  0  0  0  0  0  0
  -25.5280  -36.5480   24.0820 C   0  0  0  0  0  3  0  0  0  0  0  0
  -27.6390  -37.5390   24.8530 C   0  0  0  0  0  1  0  0  0  0  0  0
  -26.5290  -37.6230   23.9070 N   0  0  0  0  0  0  0  0  0  0  0  0
  -26.0970  -38.5380   24.0060 H   0  0  0  0  0  0  0  0  0  0  0  0
  -26.4580  -31.9690   25.5030 C   0  0  1  0  0  0  0  0  0  0  0  0
  -25.2640  -31.7190   26.4540 C   0  0  0  0  0  1  0  0  0  0  0  0
  -27.1120  -30.6000   25.2070 C   0  0  0  0  0  1  0  0  0  0  0  0
  -27.5140  -32.8000   26.2690 C   0  0  0  0  0  1  0  0  0  0  0  0
  1  2  1  0
  3  6  2  0
  3  4  1  0
  4  1  2  0
  5 57  1  0
  5  2  2  0
  6  5  1  0
  7  6  1  0
  8  7  1  0
  9  8  1  0
  9 11  1  0
  9 12  1  0
 10  9  1  0
 12 17  1  0
 13 14  1  0
 15 13  1  0
 16 14  1  0
 17 15  1  0
 17 16  1  0
 18  4  1  0
 18 27  1  0
 19 27  1  0
 20 25  1  0
 21 22  1  0
 21 20  1  0
 23 22  1  0
 23 32  1  0
 23 24  1  0
 25 19  1  0
 25 24  1  0
 26 19  2  0
 27 28  1  0
 29 30  2  0
 30 49  1  0
 31 30  1  0
 31 34  1  0
 32 29  1  0
 32 33  1  0
 33 31  2  0
 34 35  1  0
 35 36  2  0
 37 40  1  0
 37 36  1  0
 38 37  2  0
 39 38  1  0
 39 34  2  0
 40 41  1  0
 41 46  2  0
 41 42  1  0
 42 43  2  0
 43 44  1  0
 44 48  1  0
 45 44  2  0
 46 45  1  0
 47 46  1  0
 49 50  1  0
 50 53  1  0
 50 52  1  0
 51 49  2  0
 54 55  1  0
 54 29  1  0
 56 54  1  0
 57 58  1  0
 59 70  2  0
 60 58  1  0
 60 65  1  0
 61 69  1  0
 61 71  1  0
 62 64  1  0
 63 69  1  0
 64 65  2  0
 64 63  1  0
 66 60  2  0
 67 66  1  0
 67 62  2  0
 68 62  1  0
 68 61  1  0
 69 59  1  0
 71 73  2  0
 72 71  1  0
 74 72  1  0
 75 84  2  0
 75 80  1  0
 76 72  1  0
 76 80  1  0
 77 76  1  0
 78 79  1  0
 78 77  1  0
 79 75  1  0
 80 81  2  0
 81 82  1  0
 83 82  2  0
 84 83  1  0
 85 59  1  0
 85 86  1  0
 85 95  1  0
 86 89  1  0
 87 91  1  0
 87 86  1  0
 88 87  2  0
 91 90  1  0
 93 94  1  0
 93 91  1  0
 93 92  1  0
 95 98  1  1
 95 96  1  0
 97 95  1  0
M  ISO  4  19 100  27 100  57 101  58 101
M  END
>  <TORSDO>  (10) 
F 23

>  <SCORE>  (10) 
-11.342

>  <name>  (10) 
9

>  <ligand_id>  (10) 
9

>  <original_smiles>  (10) 
[H]c1c([H])c([H])c2c(c1[H])C([H])([H])C([H])([H])C([H])([H])C2([H])N([H])C(=O)C1([H])N(C(=O)C([H])(N([H])C(=O)C([H])(N([H])C([H])([H])[H])C([H])([H])[H])C(C([H])([H])[H])(C([H])([H])[H])C([H])([H])[H])C([H])([H])c2c([H])c(OC([H])([H])c3c([H])c([H])c(C([H])([H])N([H])C(=O)N4C([H])([H])C([H])([H])C([H])([H])C([H])(n5nc(-c6c([H])c([H])c(Oc7c([H])c([H])c(F)c([H])c7F)c([H])c6[H])c(C(=O)N([H])[H])c5N([H])[H])C4([H])[H])c([H])c3C([H])([H])C([H])([H])[N+]([H])([H])C([H])([H])C3([H])C([H])([H])C([H])([H])C([H])([H])C3([H])[H])c([H])c([H])c2C1([H])[H]

>  <smiles>  (10) 
[H]c1c([H])c([H])c2c(c1[H])C([H])([H])C([H])([H])C([H])([H])C2([H])N([H])C(=O)C1([H])N(C(=O)C([H])(N([H])C(=O)C([H])(N([H])C([H])([H])[H])C([H])([H])[H])C(C([H])([H])[H])(C([H])([H])[H])C([H])([H])[H])C([H])([H])c2c([H])c(OC([H])([H])c3c([H])c([H])c(C([H])([H])N([H])C(=O)N4C([H])([H])C([H])([H])C([H])([H])C([H])(n5nc(-c6c([H])c([H])c(Oc7c([H])c([H])c(F)c([H])c7F)c([H])c6[H])c(C(=O)N([H])[H])c5N([H])[H])C4([H])[H])c([H])c3C([H])([H])C([H])([H])[N+]([H])([H])C([H])([H])C3([H])C([H])([H])C([H])([H])C([H])([H])C3([H])[H])c([H])c([H])c2C1([H])[H]

$$$$
10:0:0
     RDKit          3D

 98107  0  0  1  0  0  0  0  0999 V2000
  -29.3720  -19.8320   21.8640 C   0  0  0  0  0  3  0  0  0  0  0  0
  -29.0750  -21.0970   21.3360 C   0  0  0  0  0  3  0  0  0  0  0  0
  -31.6750  -20.0370   21.0760 C   0  0  0  0  0  0  0  0  0  0  0  0
  -30.6510  -19.2650   21.6980 C   0  0  0  0  0  0  0  0  0  0  0  0
  -30.0400  -21.8070   20.5960 C   0  0  0  0  0  0  0  0  0  0  0  0
  -31.3560  -21.2900   20.4750 C   0  0  0  0  0  0  0  0  0  0  0  0
  -33.1130  -19.5360   21.0120 C   0  0  0  0  0  2  0  0  0  0  0  0
  -34.0890  -20.7060   20.8740 C   0  0  0  0  0  2  0  0  0  0  0  0
  -33.6850  -21.5370   19.6580 C   0  0  0  0  0  2  0  0  0  0  0  0
  -32.3160  -22.0360   19.7610 N   0  0  0  0  0  0  0  0  0  0  0  0
  -31.9880  -22.4340   18.8830 H   0  0  0  0  0  0  0  0  0  0  0  0
  -30.8220  -17.7970   22.0990 C   0  0  0  0  0  2  0  0  0  0  0  0
  -30.9410  -16.9060   20.8450 C   0  0  0  0  0  2  0  0  0  0  0  0
  -31.0610  -14.5380   20.2240 C   0  0  0  0  0  0  0  0  0  0  0  0
  -30.6360  -12.4300   19.0250 C   0  0  0  0  0  2  0  0  0  0  0  0
  -29.6870  -12.6820   17.8380 C   0  0  0  0  0  2  0  0  0  0  0  0
  -28.2240  -12.5450   18.2940 C   0  0  0  0  0  2  0  0  0  0  0  0
  -27.9210  -13.3730   19.5720 C   0  0  0  0  0  3  0  0  0  0  0  0
  -28.9920  -13.1490   20.6650 C   0  0  0  0  0  2  0  0  0  0  0  0
  -30.3210  -13.4060   20.0820 N   0  0  0  0  0  0  0  0  0  0  0  0
  -32.0990  -14.7360   19.5900 O   0  0  0  0  0  0  0  0  0  0  0  0
  -30.5620  -15.4960   21.0180 N   0  0  0  0  0  0  0  0  0  0  0  0
  -29.7100  -15.2870   21.5140 H   0  0  0  0  0  0  0  0  0  0  0  0
  -25.5340  -13.9780   20.3290 C   0  0  0  0  0  0  0  0  0  0  0  0
  -24.4720  -13.2050   20.7140 C   0  0  0  0  0  0  0  0  0  0  0  0
  -24.9330  -11.8530   20.6640 C   0  0  0  0  0  0  0  0  0  0  0  0
  -26.5750  -13.0970   20.0720 N   0  0  0  0  0  0  0  0  0  0  0  0
  -26.2150  -11.8130   20.3290 N   0  0  0  0  0  0  0  0  0  0  0  0
  -24.2100  -10.5900   20.8610 C   0  0  0  0  0  0  0  0  0  0  0  0
  -24.6010   -9.6620   21.8510 C   0  0  0  0  0  3  0  0  0  0  0  0
  -23.8810   -8.4610   22.0350 C   0  0  0  0  0  3  0  0  0  0  0  0
  -22.7530   -8.1810   21.2260 C   0  0  0  0  0  0  0  0  0  0  0  0
  -22.3800   -9.0980   20.2280 C   0  0  0  0  0  3  0  0  0  0  0  0
  -23.1010  -10.2890   20.0440 C   0  0  0  0  0  3  0  0  0  0  0  0
  -22.0090   -7.0290   21.3140 O   0  0  0  0  0  0  0  0  0  0  0  0
  -21.8340   -6.3740   22.5080 C   0  0  0  0  0  0  0  0  0  0  0  0
  -21.2140   -6.9930   23.6140 C   0  0  0  0  0  3  0  0  0  0  0  0
  -20.9920   -6.2620   24.7990 C   0  0  0  0  0  3  0  0  0  0  0  0
  -21.3800   -4.9110   24.8750 C   0  0  0  0  0  0  0  0  0  0  0  0
  -21.9940   -4.2900   23.7720 C   0  0  0  0  0  3  0  0  0  0  0  0
  -22.2170   -5.0200   22.5920 C   0  0  0  0  0  0  0  0  0  0  0  0
  -22.7890   -4.4110   21.5250 F   0  0  0  0  0  0  0  0  0  0  0  0
  -21.1600   -4.2070   26.0090 F   0  0  0  0  0  0  0  0  0  0  0  0
  -23.0830  -13.6810   21.0210 C   0  0  0  0  0  0  0  0  0  0  0  0
  -22.3740  -12.9800   21.9000 N   0  0  0  0  0  0  0  0  0  0  0  0
  -22.6330  -14.7090   20.5180 O   0  0  0  0  0  0  0  0  0  0  0  0
  -22.7530  -12.1480   22.3280 H   0  0  0  0  0  0  0  0  0  0  0  0
  -21.4410  -13.2770   22.1450 H   0  0  0  0  0  0  0  0  0  0  0  0
  -25.7000  -15.3490   20.1580 N   0  0  0  0  0  0  0  0  0  0  0  0
  -24.9420  -16.0110   20.2870 H   0  0  0  0  0  0  0  0  0  0  0  0
  -26.5550  -15.7840   19.8300 H   0  0  0  0  0  0  0  0  0  0  0  0
  -29.6000  -23.0790   19.8800 C   0  0  0  0  0  2  0  0  0  0  0  0
  -30.3920  -24.2730   20.2440 N   0  0  0  0  0  4  0  0  0  0  0  0
  -31.3370  -23.9340   20.3770 H   0  0  0  0  0  0  0  0  0  0  0  0
  -30.0780  -24.6420   21.1280 H   0  0  0  0  0  0  0  0  0  0  0  0
  -30.4030  -25.3390   19.2070 C   0  0  0  0  0  2  0  0  0  0  0  0
  -29.0220  -25.9760   18.9710 C   0  0  0  0  0  2  0  0  0  0  0  0
  -28.7530  -26.9240   20.0000 O   0  0  0  0  0  0  0  0  0  0  0  0
  -24.6060  -31.7400   23.1780 C   0  0  0  0  0  0  0  0  0  0  0  0
  -27.5250  -27.5470   19.9940 C   0  0  0  0  0  0  0  0  0  0  0  0
  -23.4980  -30.3340   21.4720 C   0  0  0  0  0  3  0  0  0  0  0  0
  -25.0500  -28.9180   20.0280 C   0  0  0  0  0  0  0  0  0  0  0  0
  -26.0080  -30.8160   21.3410 C   0  0  0  0  0  2  0  0  0  0  0  0
  -26.1690  -29.4750   20.6600 C   0  0  0  0  0  0  0  0  0  0  0  0
  -27.4020  -28.7910   20.6500 C   0  0  0  0  0  3  0  0  0  0  0  0
  -26.3800  -26.9960   19.3690 C   0  0  0  0  0  3  0  0  0  0  0  0
  -25.1480  -27.6740   19.3870 C   0  0  0  0  0  3  0  0  0  0  0  0
  -23.7660  -29.7120   20.0770 C   0  0  0  0  0  2  0  0  0  0  0  0
  -24.7190  -30.9780   22.0540 N   0  0  0  0  0  0  0  0  0  0  0  0
  -23.5030  -31.9430   23.7070 O   0  0  0  0  0  0  0  0  0  0  0  0
  -22.8900  -29.2450   22.3840 C   0  0  0  0  0  0  0  0  0  0  0  0
  -21.5810  -28.9950   22.2240 N   0  0  0  0  0  0  0  0  0  0  0  0
  -23.5930  -28.6290   23.1900 O   0  0  0  0  0  0  0  0  0  0  0  0
  -21.0730  -29.5460   21.5480 H   0  0  0  0  0  0  0  0  0  0  0  0
  -18.2620  -27.6330   22.6520 C   0  0  0  0  0  0  0  0  0  0  0  0
  -20.8040  -27.9920   22.9530 C   0  0  0  0  0  3  0  0  0  0  0  0
  -20.9730  -26.5900   22.3230 C   0  0  0  0  0  2  0  0  0  0  0  0
  -19.8920  -26.2580   21.2890 C   0  0  0  0  0  2  0  0  0  0  0  0
  -18.5010  -26.3200   21.9260 C   0  0  0  0  0  2  0  0  0  0  0  0
  -19.3420  -28.4280   23.1190 C   0  0  0  0  0  0  0  0  0  0  0  0
  -19.0640  -29.6590   23.7520 C   0  0  0  0  0  3  0  0  0  0  0  0
  -17.7380  -30.0940   23.9250 C   0  0  0  0  0  3  0  0  0  0  0  0
  -16.6710  -29.2980   23.4740 C   0  0  0  0  0  3  0  0  0  0  0  0
  -16.9350  -28.0690   22.8420 C   0  0  0  0  0  3  0  0  0  0  0  0
  -25.8520  -32.4100   23.8360 C   0  0  0  0  0  3  0  0  0  0  0  0
  -25.4930  -33.8000   24.1530 N   0  0  0  0  0  0  0  0  0  0  0  0
  -25.8130  -34.8580   23.3960 C   0  0  0  0  0  0  0  0  0  0  0  0
  -26.5170  -34.7700   22.3860 O   0  0  0  0  0  0  0  0  0  0  0  0
  -24.8850  -33.9410   24.9460 H   0  0  0  0  0  0  0  0  0  0  0  0
  -24.0500  -36.5920   22.9550 C   0  0  0  0  0  1  0  0  0  0  0  0
  -25.2620  -36.2290   23.8290 C   0  0  0  0  0  3  0  0  0  0  0  0
  -27.3180  -37.1760   24.7740 C   0  0  0  0  0  1  0  0  0  0  0  0
  -26.2660  -37.3120   23.7700 N   0  0  0  0  0  0  0  0  0  0  0  0
  -25.8250  -38.2200   23.8970 H   0  0  0  0  0  0  0  0  0  0  0  0
  -26.3600  -31.6600   25.1280 C   0  0  1  0  0  0  0  0  0  0  0  0
  -25.2430  -31.3690   26.1560 C   0  0  0  0  0  1  0  0  0  0  0  0
  -27.0250  -30.3140   24.7570 C   0  0  0  0  0  1  0  0  0  0  0  0
  -27.4500  -32.5070   25.8290 C   0  0  0  0  0  1  0  0  0  0  0  0
  2  1  2  0
  3  4  2  0
  4  1  1  0
  4 12  1  0
  5  2  1  0
  6  5  2  0
  6  3  1  0
  7  3  1  0
  8  7  1  0
  9 10  1  0
  9  8  1  0
 10  6  1  0
 11 10  1  0
 13 22  1  0
 13 12  1  0
 14 22  1  0
 15 20  1  0
 16 17  1  0
 16 15  1  0
 18 17  1  0
 18 27  1  0
 18 19  1  0
 20 14  1  0
 20 19  1  0
 21 14  2  0
 22 23  1  0
 24 25  2  0
 25 44  1  0
 26 25  1  0
 26 29  1  0
 27 24  1  0
 27 28  1  0
 28 26  2  0
 29 30  1  0
 30 31  2  0
 32 35  1  0
 32 31  1  0
 33 32  2  0
 34 33  1  0
 34 29  2  0
 35 36  1  0
 36 41  2  0
 36 37  1  0
 37 38  2  0
 38 39  1  0
 39 43  1  0
 40 39  2  0
 41 40  1  0
 42 41  1  0
 44 45  1  0
 45 48  1  0
 45 47  1  0
 46 44  2  0
 49 50  1  0
 49 24  1  0
 51 49  1  0
 52 53  1  0
 52  5  1  0
 53 54  1  0
 53 55  1  0
 56 53  1  0
 57 56  1  0
 57 58  1  0
 59 70  2  0
 60 58  1  0
 60 65  1  0
 61 69  1  0
 61 71  1  0
 62 68  1  0
 62 64  1  0
 63 69  1  0
 64 63  1  0
 65 64  2  0
 66 67  1  0
 66 60  2  0
 67 62  2  0
 68 61  1  0
 69 59  1  0
 71 73  2  0
 72 71  1  0
 74 72  1  0
 75 84  2  0
 75 80  1  0
 76 72  1  0
 76 80  1  0
 77 76  1  0
 78 79  1  0
 78 77  1  0
 79 75  1  0
 80 81  2  0
 81 82  1  0
 83 82  2  0
 84 83  1  0
 85 59  1  0
 85 86  1  0
 85 95  1  0
 86 89  1  0
 87 91  1  0
 87 86  1  0
 88 87  2  0
 91 90  1  0
 93 91  1  0
 93 94  1  0
 93 92  1  0
 95 98  1  1
 95 96  1  0
 97 95  1  0
M  ISO  4  14 100  22 100  57 101  58 101
M  END
>  <TORSDO>  (11) 
F 22

>  <SCORE>  (11) 
-12.177

>  <name>  (11) 
10

>  <ligand_id>  (11) 
10

>  <original_smiles>  (11) 
[H]c1c([H])c([H])c2c(c1[H])C([H])([H])C([H])([H])C([H])([H])C2([H])N([H])C(=O)C1([H])N(C(=O)C([H])(N([H])C(=O)C([H])(N([H])C([H])([H])[H])C([H])([H])[H])C(C([H])([H])[H])(C([H])([H])[H])C([H])([H])[H])C([H])([H])c2c([H])c(OC([H])([H])C([H])([H])[N+]([H])([H])C([H])([H])c3c([H])c([H])c(C([H])([H])C([H])([H])N([H])C(=O)N4C([H])([H])C([H])([H])C([H])([H])C([H])(n5nc(-c6c([H])c([H])c(Oc7c([H])c([H])c(F)c([H])c7F)c([H])c6[H])c(C(=O)N([H])[H])c5N([H])[H])C4([H])[H])c4c3N([H])C([H])([H])C([H])([H])C4([H])[H])c([H])c([H])c2C1([H])[H]

>  <smiles>  (11) 
[H]c1c([H])c([H])c2c(c1[H])C([H])([H])C([H])([H])C([H])([H])C2([H])N([H])C(=O)C1([H])N(C(=O)C([H])(N([H])C(=O)C([H])(N([H])C([H])([H])[H])C([H])([H])[H])C(C([H])([H])[H])(C([H])([H])[H])C([H])([H])[H])C([H])([H])c2c([H])c(OC([H])([H])C([H])([H])[N+]([H])([H])C([H])([H])c3c([H])c([H])c(C([H])([H])C([H])([H])N([H])C(=O)N4C([H])([H])C([H])([H])C([H])([H])C([H])(n5nc(-c6c([H])c([H])c(Oc7c([H])c([H])c(F)c([H])c7F)c([H])c6[H])c(C(=O)N([H])[H])c5N([H])[H])C4([H])[H])c4c3N([H])C([H])([H])C([H])([H])C4([H])[H])c([H])c([H])c2C1([H])[H]

$$$$
11:0:0
     RDKit          3D

 92100  0  0  1  0  0  0  0  0999 V2000
  -30.7520  -19.6820   20.3680 C   0  0  0  0  0  3  0  0  0  0  0  0
  -28.5220  -18.8110   20.2330 C   0  0  0  0  0  3  0  0  0  0  0  0
  -30.2740  -21.0120   20.1410 C   0  0  0  0  0  3  0  0  0  0  0  0
  -28.0470  -20.1360   19.9880 C   0  0  0  0  0  3  0  0  0  0  0  0
  -29.8950  -18.5430   20.4550 C   0  0  0  0  0  0  0  0  0  0  0  0
  -28.8930  -21.2810   19.9620 C   0  0  0  0  0  0  0  0  0  0  0  0
  -30.4550  -17.1470   20.9620 C   0  0  0  0  0  3  0  0  0  0  0  0
  -30.4740  -14.7390   20.0320 C   0  0  0  0  0  0  0  0  0  0  0  0
  -30.1420  -12.5290   18.9310 C   0  0  0  0  0  2  0  0  0  0  0  0
  -29.1300  -12.6610   17.7750 C   0  0  0  0  0  2  0  0  0  0  0  0
  -27.6900  -12.4880   18.2940 C   0  0  0  0  0  2  0  0  0  0  0  0
  -27.4040  -13.3400   19.5600 C   0  0  0  0  0  3  0  0  0  0  0  0
  -28.5320  -13.2070   20.6080 C   0  0  0  0  0  2  0  0  0  0  0  0
  -29.7950  -13.5500   19.9430 N   0  0  0  0  0  0  0  0  0  0  0  0
  -31.6120  -14.8420   19.5680 O   0  0  0  0  0  0  0  0  0  0  0  0
  -29.8250  -15.8410   20.5380 N   0  0  0  0  0  0  0  0  0  0  0  0
  -28.8660  -15.6990   20.8170 H   0  0  0  0  0  0  0  0  0  0  0  0
  -25.0670  -13.9130   20.4540 C   0  0  0  0  0  0  0  0  0  0  0  0
  -24.0240  -13.1300   20.8660 C   0  0  0  0  0  0  0  0  0  0  0  0
  -24.4790  -11.7790   20.7630 C   0  0  0  0  0  0  0  0  0  0  0  0
  -26.0920  -13.0400   20.1260 N   0  0  0  0  0  0  0  0  0  0  0  0
  -25.7470  -11.7500   20.3720 N   0  0  0  0  0  0  0  0  0  0  0  0
  -23.7610  -10.5120   20.9570 C   0  0  0  0  0  0  0  0  0  0  0  0
  -24.2160   -9.5380   21.8740 C   0  0  0  0  0  3  0  0  0  0  0  0
  -23.4980   -8.3380   22.0590 C   0  0  0  0  0  3  0  0  0  0  0  0
  -22.3100   -8.1010   21.3270 C   0  0  0  0  0  0  0  0  0  0  0  0
  -21.8730   -9.0630   20.3990 C   0  0  0  0  0  3  0  0  0  0  0  0
  -22.5930  -10.2560   20.2120 C   0  0  0  0  0  3  0  0  0  0  0  0
  -21.5600   -6.9530   21.4210 O   0  0  0  0  0  0  0  0  0  0  0  0
  -21.5110   -6.2200   22.5790 C   0  0  0  0  0  0  0  0  0  0  0  0
  -21.0560   -6.7750   23.7940 C   0  0  0  0  0  3  0  0  0  0  0  0
  -20.9560   -5.9670   24.9440 C   0  0  0  0  0  3  0  0  0  0  0  0
  -21.2990   -4.6040   24.8790 C   0  0  0  0  0  0  0  0  0  0  0  0
  -21.7470   -4.0470   23.6680 C   0  0  0  0  0  3  0  0  0  0  0  0
  -21.8500   -4.8520   22.5210 C   0  0  0  0  0  0  0  0  0  0  0  0
  -22.2610   -4.3060   21.3510 F   0  0  0  0  0  0  0  0  0  0  0  0
  -21.1960   -3.8240   25.9810 F   0  0  0  0  0  0  0  0  0  0  0  0
  -22.6480  -13.6000   21.2400 C   0  0  0  0  0  0  0  0  0  0  0  0
  -21.9710  -12.8730   22.1220 N   0  0  0  0  0  0  0  0  0  0  0  0
  -22.1860  -14.6460   20.7880 O   0  0  0  0  0  0  0  0  0  0  0  0
  -22.3590  -12.0250   22.5080 H   0  0  0  0  0  0  0  0  0  0  0  0
  -21.0510  -13.1700   22.4160 H   0  0  0  0  0  0  0  0  0  0  0  0
  -25.2240  -15.2880   20.3080 N   0  0  0  0  0  0  0  0  0  0  0  0
  -24.4640  -15.9380   20.4780 H   0  0  0  0  0  0  0  0  0  0  0  0
  -26.0440  -15.7340   19.9160 H   0  0  0  0  0  0  0  0  0  0  0  0
  -31.3250  -15.9320   23.0960 C   0  0  0  0  0  1  0  0  0  0  0  0
  -31.1840  -18.4320   23.1160 C   0  0  0  0  0  1  0  0  0  0  0  0
  -30.5660  -17.1480   22.5260 C   0  0  0  0  0  3  0  0  0  0  0  0
  -28.3060  -22.5470   19.7460 O   0  0  0  0  0  0  0  0  0  0  0  0
  -28.9730  -23.8490   19.9080 C   0  0  0  0  0  2  0  0  0  0  0  0
  -27.9990  -25.0560   19.5150 C   0  0  0  0  0  2  0  0  0  0  0  0
  -28.2420  -26.4940   19.8250 O   0  0  0  0  0  0  0  0  0  0  0  0
  -24.4960  -31.7600   23.0850 C   0  0  0  0  0  0  0  0  0  0  0  0
  -27.1220  -27.3510   19.8140 C   0  0  0  0  0  0  0  0  0  0  0  0
  -23.2860  -30.3990   21.4220 C   0  0  0  0  0  3  0  0  0  0  0  0
  -24.7320  -28.9350   19.9110 C   0  0  0  0  0  0  0  0  0  0  0  0
  -25.8170  -30.7670   21.2020 C   0  0  0  0  0  2  0  0  0  0  0  0
  -25.9080  -29.4150   20.5030 C   0  0  0  0  0  0  0  0  0  0  0  0
  -27.1040  -28.6350   20.4470 C   0  0  0  0  0  3  0  0  0  0  0  0
  -25.9180  -26.9400   19.1910 C   0  0  0  0  0  3  0  0  0  0  0  0
  -24.7410  -27.7040   19.2450 C   0  0  0  0  0  3  0  0  0  0  0  0
  -23.4830  -29.7830   20.0140 C   0  0  0  0  0  2  0  0  0  0  0  0
  -24.5530  -30.9910   21.9590 N   0  0  0  0  0  0  0  0  0  0  0  0
  -23.4190  -31.9980   23.6510 O   0  0  0  0  0  0  0  0  0  0  0  0
  -22.6610  -29.3360   22.3580 C   0  0  0  0  0  0  0  0  0  0  0  0
  -21.3360  -29.1370   22.2520 N   0  0  0  0  0  0  0  0  0  0  0  0
  -23.3680  -28.6940   23.1400 O   0  0  0  0  0  0  0  0  0  0  0  0
  -20.8230  -29.7090   21.5970 H   0  0  0  0  0  0  0  0  0  0  0  0
  -17.9880  -27.8790   22.8000 C   0  0  0  0  0  0  0  0  0  0  0  0
  -20.5500  -28.1580   23.0070 C   0  0  0  0  0  3  0  0  0  0  0  0
  -20.6510  -26.7520   22.3700 C   0  0  0  0  0  2  0  0  0  0  0  0
  -19.5230  -26.4570   21.3750 C   0  0  0  0  0  2  0  0  0  0  0  0
  -18.1600  -26.5610   22.0630 C   0  0  0  0  0  2  0  0  0  0  0  0
  -19.1100  -28.6370   23.2290 C   0  0  0  0  0  0  0  0  0  0  0  0
  -18.8960  -29.8730   23.8770 C   0  0  0  0  0  3  0  0  0  0  0  0
  -17.5900  -30.3500   24.1020 C   0  0  0  0  0  3  0  0  0  0  0  0
  -16.4830  -29.5900   23.6880 C   0  0  0  0  0  3  0  0  0  0  0  0
  -16.6820  -28.3560   23.0430 C   0  0  0  0  0  3  0  0  0  0  0  0
  -25.7800  -32.3960   23.7020 C   0  0  0  0  0  3  0  0  0  0  0  0
  -25.4580  -33.7830   24.0660 N   0  0  0  0  0  0  0  0  0  0  0  0
  -25.7660  -34.8560   23.3260 C   0  0  0  0  0  0  0  0  0  0  0  0
  -26.4220  -34.7840   22.2830 O   0  0  0  0  0  0  0  0  0  0  0  0
  -24.8750  -33.9130   24.8800 H   0  0  0  0  0  0  0  0  0  0  0  0
  -24.0140  -36.6390   23.0340 C   0  0  0  0  0  1  0  0  0  0  0  0
  -25.2680  -36.2280   23.8210 C   0  0  0  0  0  3  0  0  0  0  0  0
  -27.3980  -37.1240   24.6550 C   0  0  0  0  0  1  0  0  0  0  0  0
  -26.2870  -37.2950   23.7220 N   0  0  0  0  0  0  0  0  0  0  0  0
  -25.8710  -38.2070   23.8880 H   0  0  0  0  0  0  0  0  0  0  0  0
  -26.3230  -31.6050   24.9560 C   0  0  1  0  0  0  0  0  0  0  0  0
  -25.2470  -31.3280   26.0310 C   0  0  0  0  0  1  0  0  0  0  0  0
  -26.9200  -30.2430   24.5280 C   0  0  0  0  0  1  0  0  0  0  0  0
  -27.4710  -32.4000   25.6190 C   0  0  0  0  0  1  0  0  0  0  0  0
  1  5  1  0
  2  5  2  0
  3  1  2  0
  4  2  1  0
  5  7  1  0
  6  4  2  0
  6  3  1  0
  7 48  1  0
  8 16  1  0
  9 14  1  0
 10 11  1  0
 10  9  1  0
 12 11  1  0
 12 21  1  0
 12 13  1  0
 14  8  1  0
 14 13  1  0
 15  8  2  0
 16 17  1  0
 16  7  1  0
 18 19  2  0
 19 38  1  0
 20 19  1  0
 20 23  1  0
 21 22  1  0
 21 18  1  0
 22 20  2  0
 23 24  1  0
 24 25  2  0
 26 29  1  0
 26 25  1  0
 27 26  2  0
 28 27  1  0
 28 23  2  0
 29 30  1  0
 30 31  1  0
 31 32  2  0
 33 32  1  0
 33 37  1  0
 34 33  2  0
 35 30  2  0
 35 34  1  0
 36 35  1  0
 38 39  1  0
 39 42  1  0
 39 41  1  0
 40 38  2  0
 43 18  1  0
 43 44  1  0
 45 43  1  0
 48 46  1  0
 48 47  1  0
 49 50  1  0
 49  6  1  0
 51 52  1  0
 51 50  1  0
 53 64  2  0
 54 52  1  0
 54 59  1  0
 55 63  1  0
 55 65  1  0
 56 62  1  0
 56 58  1  0
 57 63  1  0
 58 57  1  0
 59 58  2  0
 60 61  1  0
 60 54  2  0
 61 56  2  0
 62 55  1  0
 63 53  1  0
 65 67  2  0
 66 65  1  0
 68 66  1  0
 69 78  2  0
 69 74  1  0
 70 66  1  0
 70 74  1  0
 71 70  1  0
 72 73  1  0
 72 71  1  0
 73 69  1  0
 74 75  2  0
 75 76  1  0
 77 76  2  0
 78 77  1  0
 79 53  1  0
 79 80  1  0
 79 89  1  0
 80 83  1  0
 81 85  1  0
 81 80  1  0
 82 81  2  0
 85 84  1  0
 87 85  1  0
 87 88  1  0
 87 86  1  0
 89 92  1  1
 89 90  1  0
 91 89  1  0
M  ISO  4   8 100  16 100  51 101  52 101
M  END
>  <TORSDO>  (12) 
F 21

>  <SCORE>  (12) 
-11.537

>  <name>  (12) 
11

>  <ligand_id>  (12) 
11

>  <original_smiles>  (12) 
[H]c1c([H])c([H])c2c(c1[H])C([H])([H])C([H])([H])C([H])([H])C2([H])N([H])C(=O)C1([H])N(C(=O)C([H])(N([H])C(=O)C([H])(N([H])C([H])([H])[H])C([H])([H])[H])C(C([H])([H])[H])(C([H])([H])[H])C([H])([H])[H])C([H])([H])c2c([H])c(OC([H])([H])C([H])([H])Oc3c([H])c([H])c(C([H])(N([H])C(=O)N4C([H])([H])C([H])([H])C([H])([H])C([H])(n5nc(-c6c([H])c([H])c(Oc7c([H])c([H])c(F)c([H])c7F)c([H])c6[H])c(C(=O)N([H])[H])c5N([H])[H])C4([H])[H])C([H])(C([H])([H])[H])C([H])([H])[H])c([H])c3[H])c([H])c([H])c2C1([H])[H]

>  <smiles>  (12) 
[H]c1c([H])c([H])c2c(c1[H])C([H])([H])C([H])([H])C([H])([H])C2([H])N([H])C(=O)C1([H])N(C(=O)C([H])(N([H])C(=O)C([H])(N([H])C([H])([H])[H])C([H])([H])[H])C(C([H])([H])[H])(C([H])([H])[H])C([H])([H])[H])C([H])([H])c2c([H])c(OC([H])([H])C([H])([H])Oc3c([H])c([H])c(C([H])(N([H])C(=O)N4C([H])([H])C([H])([H])C([H])([H])C([H])(n5nc(-c6c([H])c([H])c(Oc7c([H])c([H])c(F)c([H])c7F)c([H])c6[H])c(C(=O)N([H])[H])c5N([H])[H])C4([H])[H])C([H])(C([H])([H])[H])C([H])([H])[H])c([H])c3[H])c([H])c([H])c2C1([H])[H]

$$$$
12:0:0
     RDKit          3D

 99108  0  0  1  0  0  0  0  0999 V2000
  -26.6540  -22.6270   21.9030 C   0  0  0  0  0  3  0  0  0  0  0  0
  -27.7010  -21.7220   21.6320 C   0  0  0  0  0  3  0  0  0  0  0  0
  -28.2760  -22.9480   19.5880 C   0  0  0  0  0  3  0  0  0  0  0  0
  -26.4320  -23.6910   21.0070 C   0  0  0  0  0  0  0  0  0  0  0  0
  -27.2230  -23.8550   19.8660 C   0  0  0  0  0  0  0  0  0  0  0  0
  -28.5110  -21.8640   20.4790 C   0  0  0  0  0  0  0  0  0  0  0  0
  -25.7160  -25.7120   19.9660 C   0  0  0  0  0  2  0  0  0  0  0  0
  -26.6880  -24.9870   18.9880 C   0  0  0  0  0  3  0  0  0  0  0  0
  -25.2950  -24.6960   21.0470 C   0  0  0  0  0  3  0  0  0  0  0  0
  -24.1930  -24.5240   23.2690 C   0  0  0  0  0  1  0  0  0  0  0  0
  -26.1500  -26.0000   23.0220 C   0  0  0  0  0  1  0  0  0  0  0  0
  -24.9940  -25.3630   22.3460 N   0  0  1  0  0  4  0  0  0  0  0  0
  -24.3760  -26.1210   22.1010 H   0  0  0  0  0  0  0  0  0  0  0  0
  -29.6050  -20.8300   20.2050 C   0  0  0  0  0  2  0  0  0  0  0  0
  -29.1400  -19.7900   19.2620 N   0  0  0  0  0  4  0  0  0  0  0  0
  -29.7120  -19.8320   18.4350 H   0  0  0  0  0  0  0  0  0  0  0  0
  -28.2190  -20.0770   18.9720 H   0  0  0  0  0  0  0  0  0  0  0  0
  -29.0230  -18.3880   19.7490 C   0  0  0  0  0  2  0  0  0  0  0  0
  -30.3250  -17.7290   20.2950 C   0  0  0  0  0  2  0  0  0  0  0  0
  -30.9750  -15.2900   19.9560 C   0  0  0  0  0  0  0  0  0  0  0  0
  -30.8360  -12.9790   19.0750 C   0  0  0  0  0  2  0  0  0  0  0  0
  -29.8590  -12.9720   17.8810 C   0  0  0  0  0  2  0  0  0  0  0  0
  -28.3940  -12.8260   18.3500 C   0  0  0  0  0  2  0  0  0  0  0  0
  -28.0330  -13.7750   19.5230 C   0  0  0  0  0  3  0  0  0  0  0  0
  -29.1230  -13.7220   20.6200 C   0  0  0  0  0  2  0  0  0  0  0  0
  -30.4140  -14.0510   19.9880 N   0  0  0  0  0  0  0  0  0  0  0  0
  -32.0630  -15.5320   19.4230 O   0  0  0  0  0  0  0  0  0  0  0  0
  -30.1700  -16.2700   20.4160 N   0  0  0  0  0  0  0  0  0  0  0  0
  -29.3100  -15.9430   20.8300 H   0  0  0  0  0  0  0  0  0  0  0  0
  -25.6890  -14.3730   20.3980 C   0  0  0  0  0  0  0  0  0  0  0  0
  -24.6300  -13.5900   20.7860 C   0  0  0  0  0  0  0  0  0  0  0  0
  -25.0670  -12.2390   20.6480 C   0  0  0  0  0  0  0  0  0  0  0  0
  -26.7040  -13.4920   20.0620 N   0  0  0  0  0  0  0  0  0  0  0  0
  -26.3380  -12.2010   20.2660 N   0  0  0  0  0  0  0  0  0  0  0  0
  -24.3290  -10.9760   20.7970 C   0  0  0  0  0  0  0  0  0  0  0  0
  -24.7860   -9.9490   21.6530 C   0  0  0  0  0  3  0  0  0  0  0  0
  -24.0520   -8.7520   21.7910 C   0  0  0  0  0  3  0  0  0  0  0  0
  -22.8450   -8.5710   21.0760 C   0  0  0  0  0  0  0  0  0  0  0  0
  -22.4030   -9.5890   20.2130 C   0  0  0  0  0  3  0  0  0  0  0  0
  -23.1380  -10.7790   20.0700 C   0  0  0  0  0  3  0  0  0  0  0  0
  -22.0790   -7.4310   21.1310 O   0  0  0  0  0  0  0  0  0  0  0  0
  -21.9210   -6.7270   22.2990 C   0  0  0  0  0  0  0  0  0  0  0  0
  -21.3700   -7.3170   23.4580 C   0  0  0  0  0  3  0  0  0  0  0  0
  -21.1620   -6.5380   24.6140 C   0  0  0  0  0  3  0  0  0  0  0  0
  -21.4940   -5.1690   24.6110 C   0  0  0  0  0  0  0  0  0  0  0  0
  -22.0410   -4.5800   23.4580 C   0  0  0  0  0  3  0  0  0  0  0  0
  -22.2530   -5.3570   22.3050 C   0  0  0  0  0  0  0  0  0  0  0  0
  -22.7590   -4.7780   21.1900 F   0  0  0  0  0  0  0  0  0  0  0  0
  -21.2880   -4.4190   25.7190 F   0  0  0  0  0  0  0  0  0  0  0  0
  -23.2600  -14.0710   21.1680 C   0  0  0  0  0  0  0  0  0  0  0  0
  -22.5800  -13.3560   22.0560 N   0  0  0  0  0  0  0  0  0  0  0  0
  -22.7990  -15.1160   20.7120 O   0  0  0  0  0  0  0  0  0  0  0  0
  -22.9600  -12.5090   22.4520 H   0  0  0  0  0  0  0  0  0  0  0  0
  -21.6640  -13.6660   22.3490 H   0  0  0  0  0  0  0  0  0  0  0  0
  -25.8710  -15.7490   20.2850 N   0  0  0  0  0  0  0  0  0  0  0  0
  -25.0930  -16.3990   20.3610 H   0  0  0  0  0  0  0  0  0  0  0  0
  -26.7040  -16.1770   19.9060 H   0  0  0  0  0  0  0  0  0  0  0  0
  -27.7360  -25.9300   18.3030 C   0  0  0  0  0  2  0  0  0  0  0  0
  -27.2680  -27.0500   17.5070 O   0  0  0  0  0  0  0  0  0  0  0  0
  -24.6510  -30.8460   22.9480 C   0  0  0  0  0  0  0  0  0  0  0  0
  -26.2320  -27.8000   18.0110 C   0  0  0  0  0  0  0  0  0  0  0  0
  -23.0270  -30.1290   21.2270 C   0  0  0  0  0  3  0  0  0  0  0  0
  -24.0330  -29.2200   19.0630 C   0  0  0  0  0  0  0  0  0  0  0  0
  -25.4780  -30.5330   20.6180 C   0  0  0  0  0  2  0  0  0  0  0  0
  -25.3240  -29.4830   19.5390 C   0  0  0  0  0  0  0  0  0  0  0  0
  -26.4310  -28.7720   19.0190 C   0  0  0  0  0  3  0  0  0  0  0  0
  -24.9380  -27.6170   17.4860 C   0  0  0  0  0  3  0  0  0  0  0  0
  -23.8320  -28.2890   18.0330 C   0  0  0  0  0  3  0  0  0  0  0  0
  -22.8960  -29.9980   19.6850 C   0  0  0  0  0  2  0  0  0  0  0  0
  -24.4140  -30.4970   21.6530 N   0  0  0  0  0  0  0  0  0  0  0  0
  -23.7290  -30.8990   23.7750 O   0  0  0  0  0  0  0  0  0  0  0  0
  -22.5130  -28.8260   21.8810 C   0  0  0  0  0  0  0  0  0  0  0  0
  -21.1860  -28.6180   21.8430 N   0  0  0  0  0  0  0  0  0  0  0  0
  -23.3020  -28.0170   22.3780 O   0  0  0  0  0  0  0  0  0  0  0  0
  -20.6060  -29.3310   21.4230 H   0  0  0  0  0  0  0  0  0  0  0  0
  -17.9690  -26.9850   22.0230 C   0  0  0  0  0  0  0  0  0  0  0  0
  -20.4900  -27.4410   22.3580 C   0  0  0  0  0  3  0  0  0  0  0  0
  -20.7330  -26.2120   21.4480 C   0  0  0  0  0  2  0  0  0  0  0  0
  -19.6430  -26.0190   20.3890 C   0  0  0  0  0  2  0  0  0  0  0  0
  -18.2720  -25.8570   21.0480 C   0  0  0  0  0  2  0  0  0  0  0  0
  -19.0110  -27.7360   22.6290 C   0  0  0  0  0  0  0  0  0  0  0  0
  -18.6730  -28.7880   23.5080 C   0  0  0  0  0  3  0  0  0  0  0  0
  -17.3280  -29.0930   23.7850 C   0  0  0  0  0  3  0  0  0  0  0  0
  -16.2990  -28.3430   23.1870 C   0  0  0  0  0  3  0  0  0  0  0  0
  -16.6220  -27.2870   22.3160 C   0  0  0  0  0  3  0  0  0  0  0  0
  -26.0840  -31.2180   23.4460 C   0  0  0  0  0  3  0  0  0  0  0  0
  -26.0200  -32.5730   24.0110 N   0  0  0  0  0  0  0  0  0  0  0  0
  -26.4390  -33.6790   23.3810 C   0  0  0  0  0  0  0  0  0  0  0  0
  -26.9940  -33.6510   22.2800 O   0  0  0  0  0  0  0  0  0  0  0  0
  -25.5310  -32.6730   24.8870 H   0  0  0  0  0  0  0  0  0  0  0  0
  -25.0010  -35.7430   23.4480 C   0  0  0  0  0  1  0  0  0  0  0  0
  -26.2050  -35.0300   24.0850 C   0  0  0  0  0  3  0  0  0  0  0  0
  -28.4950  -35.4430   24.8720 C   0  0  0  0  0  1  0  0  0  0  0  0
  -27.3850  -35.9220   24.0530 N   0  0  0  0  0  0  0  0  0  0  0  0
  -27.1380  -36.8550   24.3690 H   0  0  0  0  0  0  0  0  0  0  0  0
  -26.6560  -30.1970   24.5060 C   0  0  1  0  0  0  0  0  0  0  0  0
  -25.7030  -29.9360   25.6940 C   0  0  0  0  0  1  0  0  0  0  0  0
  -26.9650  -28.8320   23.8460 C   0  0  0  0  0  1  0  0  0  0  0  0
  -27.9920  -30.7260   25.0790 C   0  0  0  0  0  1  0  0  0  0  0  0
  2  1  1  0
  3  5  2  0
  3  6  1  0
  4  9  1  0
  4  1  2  0
  5  4  1  0
  6  2  2  0
  7  9  1  0
  8 58  1  0
  8  5  1  0
  8  7  1  0
  9 12  1  0
 12 11  1  0
 12 10  1  0
 12 13  1  6
 14  6  1  0
 15 18  1  0
 15 14  1  0
 16 15  1  0
 17 15  1  0
 18 19  1  0
 19 28  1  0
 20 26  1  0
 20 28  1  0
 21 26  1  0
 22 23  1  0
 22 21  1  0
 24 23  1  0
 24 33  1  0
 24 25  1  0
 26 25  1  0
 27 20  2  0
 28 29  1  0
 30 31  2  0
 31 50  1  0
 32 31  1  0
 32 35  1  0
 33 34  1  0
 33 30  1  0
 34 32  2  0
 35 36  1  0
 36 37  2  0
 38 41  1  0
 38 37  1  0
 39 38  2  0
 40 39  1  0
 40 35  2  0
 41 42  1  0
 42 47  2  0
 42 43  1  0
 43 44  2  0
 45 44  1  0
 45 49  1  0
 46 45  2  0
 47 46  1  0
 48 47  1  0
 50 51  1  0
 51 54  1  0
 51 53  1  0
 52 50  2  0
 55 56  1  0
 55 30  1  0
 57 55  1  0
 59 61  1  0
 59 58  1  0
 60 71  2  0
 61 66  1  0
 62 70  1  0
 62 72  1  0
 63 65  1  0
 63 69  1  0
 64 70  1  0
 65 64  1  0
 66 65  2  0
 67 61  2  0
 67 68  1  0
 68 63  2  0
 69 62  1  0
 70 60  1  0
 72 74  2  0
 73 72  1  0
 75 73  1  0
 76 85  2  0
 76 81  1  0
 77 73  1  0
 77 81  1  0
 78 77  1  0
 79 80  1  0
 79 78  1  0
 80 76  1  0
 81 82  2  0
 82 83  1  0
 84 83  2  0
 85 84  1  0
 86 60  1  0
 86 87  1  0
 86 96  1  0
 87 90  1  0
 88 87  1  0
 88 92  1  0
 89 88  2  0
 92 91  1  0
 94 92  1  0
 94 95  1  0
 94 93  1  0
 96 99  1  1
 96 97  1  0
 98 96  1  0
M  ISO  4  20 100  28 100  58 101  59 101
M  END
>  <TORSDO>  (13) 
F 22

>  <SCORE>  (13) 
-9.586

>  <name>  (13) 
12

>  <ligand_id>  (13) 
12

>  <original_smiles>  (13) 
[H]c1c([H])c([H])c2c(c1[H])C([H])([H])C([H])([H])C([H])([H])C2([H])N([H])C(=O)C1([H])N(C(=O)C([H])(N([H])C(=O)C([H])(N([H])C([H])([H])[H])C([H])([H])[H])C(C([H])([H])[H])(C([H])([H])[H])C([H])([H])[H])C([H])([H])c2c([H])c(OC([H])([H])C3([H])c4c([H])c(C([H])([H])[N+]([H])([H])C([H])([H])C([H])([H])N([H])C(=O)N5C([H])([H])C([H])([H])C([H])([H])C([H])(n6nc(-c7c([H])c([H])c(Oc8c([H])c([H])c(F)c([H])c8F)c([H])c7[H])c(C(=O)N([H])[H])c6N([H])[H])C5([H])[H])c([H])c([H])c4C([H])([N+]([H])(C([H])([H])[H])C([H])([H])[H])C3([H])[H])c([H])c([H])c2C1([H])[H]

>  <smiles>  (13) 
[H]c1c([H])c([H])c2c(c1[H])C([H])([H])C([H])([H])C([H])([H])C2([H])N([H])C(=O)C1([H])N(C(=O)C([H])(N([H])C(=O)C([H])(N([H])C([H])([H])[H])C([H])([H])[H])C(C([H])([H])[H])(C([H])([H])[H])C([H])([H])[H])C([H])([H])c2c([H])c(OC([H])([H])C3([H])c4c([H])c(C([H])([H])[N+]([H])([H])C([H])([H])C([H])([H])N([H])C(=O)N5C([H])([H])C([H])([H])C([H])([H])C([H])(n6nc(-c7c([H])c([H])c(Oc8c([H])c([H])c(F)c([H])c8F)c([H])c7[H])c(C(=O)N([H])[H])c6N([H])[H])C5([H])[H])c([H])c([H])c4C([H])([N+]([H])(C([H])([H])[H])C([H])([H])[H])C3([H])[H])c([H])c([H])c2C1([H])[H]

$$$$
13:0:0
     RDKit          3D

 90 99  0  0  1  0  0  0  0  0999 V2000
  -30.4010  -15.4180   20.3420 C   0  0  0  0  0  0  0  0  0  0  0  0
  -30.3920  -12.9370   19.5160 C   0  0  0  0  0  2  0  0  0  0  0  0
  -29.4990  -12.6640   18.2780 C   0  0  0  0  0  2  0  0  0  0  0  0
  -28.0550  -12.3670   18.7120 C   0  0  0  0  0  2  0  0  0  0  0  0
  -27.5690  -13.3540   19.8010 C   0  0  0  0  0  3  0  0  0  0  0  0
  -28.5970  -13.5780   20.9320 C   0  0  0  0  0  2  0  0  0  0  0  0
  -29.8180  -14.1060   20.2950 N   0  0  0  0  0  0  0  0  0  0  0  0
  -31.6290  -15.3310   20.1630 O   0  0  0  0  0  0  0  0  0  0  0  0
  -32.1140  -19.3800   19.4560 C   0  0  0  0  0  3  0  0  0  0  0  0
  -29.5830  -19.8290   20.1990 C   0  0  0  0  0  0  0  0  0  0  0  0
  -30.4700  -20.8730   19.8020 C   0  0  0  0  0  0  0  0  0  0  0  0
  -30.1140  -18.3190   20.1690 C   0  0  0  0  0  0  0  0  0  0  0  0
  -28.3300  -20.8840   20.5100 C   0  0  0  0  0  2  0  0  0  0  0  0
  -28.8030  -22.5640   20.4820 C   0  0  0  0  0  3  0  0  0  0  0  0
  -31.7220  -20.6420   19.4380 N   0  0  0  0  0  0  0  0  0  0  0  0
  -31.4060  -18.3050   19.7790 N   0  0  0  0  0  0  0  0  0  0  0  0
  -30.0560  -22.2540   19.7640 N   0  0  0  0  0  0  0  0  0  0  0  0
  -29.6910  -16.7560   20.4070 N   0  0  0  0  0  0  0  0  0  0  0  0
  -30.7690  -22.9690   19.6800 H   0  0  0  0  0  0  0  0  0  0  0  0
  -28.7040  -16.6460   20.5840 H   0  0  0  0  0  0  0  0  0  0  0  0
  -25.1910  -13.8900   20.5310 C   0  0  0  0  0  0  0  0  0  0  0  0
  -24.1310  -13.1060   20.8910 C   0  0  0  0  0  0  0  0  0  0  0  0
  -24.6100  -11.7600   20.8740 C   0  0  0  0  0  0  0  0  0  0  0  0
  -26.2420  -13.0230   20.3030 N   0  0  0  0  0  0  0  0  0  0  0  0
  -25.9070  -11.7360   20.5790 N   0  0  0  0  0  0  0  0  0  0  0  0
  -23.8910  -10.4920   21.0590 C   0  0  0  0  0  0  0  0  0  0  0  0
  -24.3220   -9.5260   21.9950 C   0  0  0  0  0  3  0  0  0  0  0  0
  -23.5980   -8.3270   22.1700 C   0  0  0  0  0  3  0  0  0  0  0  0
  -22.4290   -8.0860   21.4110 C   0  0  0  0  0  0  0  0  0  0  0  0
  -22.0170   -9.0410   20.4650 C   0  0  0  0  0  3  0  0  0  0  0  0
  -22.7420  -10.2310   20.2870 C   0  0  0  0  0  3  0  0  0  0  0  0
  -21.6760   -6.9390   21.4950 O   0  0  0  0  0  0  0  0  0  0  0  0
  -21.6310   -6.1910   22.6450 C   0  0  0  0  0  0  0  0  0  0  0  0
  -21.1860   -6.7360   23.8710 C   0  0  0  0  0  3  0  0  0  0  0  0
  -21.0890   -5.9140   25.0120 C   0  0  0  0  0  3  0  0  0  0  0  0
  -21.4260   -4.5490   24.9280 C   0  0  0  0  0  0  0  0  0  0  0  0
  -21.8640   -4.0050   23.7080 C   0  0  0  0  0  3  0  0  0  0  0  0
  -21.9630   -4.8240   22.5690 C   0  0  0  0  0  0  0  0  0  0  0  0
  -22.3650   -4.2890   21.3910 F   0  0  0  0  0  0  0  0  0  0  0  0
  -21.3260   -3.7580   26.0220 F   0  0  0  0  0  0  0  0  0  0  0  0
  -22.7270  -13.5740   21.1350 C   0  0  0  0  0  0  0  0  0  0  0  0
  -21.9940  -12.8860   22.0020 N   0  0  0  0  0  0  0  0  0  0  0  0
  -22.2900  -14.5880   20.5920 O   0  0  0  0  0  0  0  0  0  0  0  0
  -22.3610  -12.0670   22.4640 H   0  0  0  0  0  0  0  0  0  0  0  0
  -21.0500  -13.1820   22.2080 H   0  0  0  0  0  0  0  0  0  0  0  0
  -25.3420  -15.2620   20.3470 N   0  0  0  0  0  0  0  0  0  0  0  0
  -24.5610  -15.9030   20.4370 H   0  0  0  0  0  0  0  0  0  0  0  0
  -26.1750  -15.7020   19.9800 H   0  0  0  0  0  0  0  0  0  0  0  0
  -27.9580  -24.1630   20.1000 C   0  0  0  0  0  2  0  0  0  0  0  0
  -28.1790  -25.8070   20.3530 O   0  0  0  0  0  0  0  0  0  0  0  0
  -24.6240  -31.8690   23.2450 C   0  0  0  0  0  0  0  0  0  0  0  0
  -27.1860  -26.9370   20.2640 C   0  0  0  0  0  0  0  0  0  0  0  0
  -23.4450  -30.4780   21.5930 C   0  0  0  0  0  3  0  0  0  0  0  0
  -24.9030  -28.8600   20.1860 C   0  0  0  0  0  0  0  0  0  0  0  0
  -26.0150  -30.6640   21.4830 C   0  0  0  0  0  2  0  0  0  0  0  0
  -26.0870  -29.2500   20.8260 C   0  0  0  0  0  0  0  0  0  0  0  0
  -27.2210  -28.3110   20.8380 C   0  0  0  0  0  3  0  0  0  0  0  0
  -25.9740  -26.7120   19.5720 C   0  0  0  0  0  3  0  0  0  0  0  0
  -24.8750  -27.6140   19.5380 C   0  0  0  0  0  3  0  0  0  0  0  0
  -23.6890  -29.7920   20.2200 C   0  0  0  0  0  2  0  0  0  0  0  0
  -24.7160  -31.0320   22.1600 N   0  0  0  0  0  0  0  0  0  0  0  0
  -23.5280  -32.1650   23.7520 O   0  0  0  0  0  0  0  0  0  0  0  0
  -22.7300  -29.4890   22.5510 C   0  0  0  0  0  0  0  0  0  0  0  0
  -21.3990  -29.3440   22.4210 N   0  0  0  0  0  0  0  0  0  0  0  0
  -23.3830  -28.8530   23.3820 O   0  0  0  0  0  0  0  0  0  0  0  0
  -20.9250  -29.9080   21.7290 H   0  0  0  0  0  0  0  0  0  0  0  0
  -17.9960  -28.1800   22.9200 C   0  0  0  0  0  0  0  0  0  0  0  0
  -20.5600  -28.4110   23.1830 C   0  0  0  0  0  3  0  0  0  0  0  0
  -20.6420  -26.9830   22.5970 C   0  0  0  0  0  2  0  0  0  0  0  0
  -19.5350  -26.6830   21.5800 C   0  0  0  0  0  2  0  0  0  0  0  0
  -18.1560  -26.8370   22.2270 C   0  0  0  0  0  2  0  0  0  0  0  0
  -19.1250  -28.9260   23.3550 C   0  0  0  0  0  0  0  0  0  0  0  0
  -18.9190  -30.1810   23.9680 C   0  0  0  0  0  3  0  0  0  0  0  0
  -17.6190  -30.6920   24.1470 C   0  0  0  0  0  3  0  0  0  0  0  0
  -16.5060  -29.9430   23.7250 C   0  0  0  0  0  3  0  0  0  0  0  0
  -16.6960  -28.6900   23.1190 C   0  0  0  0  0  3  0  0  0  0  0  0
  -25.8870  -32.5090   23.8960 C   0  0  0  0  0  3  0  0  0  0  0  0
  -25.5760  -33.9150   24.2070 N   0  0  0  0  0  0  0  0  0  0  0  0
  -25.9250  -34.9660   23.4510 C   0  0  0  0  0  0  0  0  0  0  0  0
  -26.6020  -34.8520   22.4270 O   0  0  0  0  0  0  0  0  0  0  0  0
  -24.9750  -34.0780   25.0020 H   0  0  0  0  0  0  0  0  0  0  0  0
  -24.2090  -36.7760   23.0920 C   0  0  0  0  0  1  0  0  0  0  0  0
  -25.4500  -36.3630   23.9010 C   0  0  0  0  0  3  0  0  0  0  0  0
  -27.5900  -37.2460   24.7220 C   0  0  0  0  0  1  0  0  0  0  0  0
  -26.4890  -37.4100   23.7770 N   0  0  0  0  0  0  0  0  0  0  0  0
  -26.0890  -38.3330   23.9140 H   0  0  0  0  0  0  0  0  0  0  0  0
  -26.3580  -31.7570   25.2030 C   0  0  1  0  0  0  0  0  0  0  0  0
  -25.2330  -31.5560   26.2460 C   0  0  0  0  0  1  0  0  0  0  0  0
  -26.9340  -30.3640   24.8650 C   0  0  0  0  0  1  0  0  0  0  0  0
  -27.4990  -32.5510   25.8800 C   0  0  0  0  0  1  0  0  0  0  0  0
  1 18  1  0
  2  7  1  0
  3  4  1  0
  3  2  1  0
  5  4  1  0
  5 24  1  0
  5  6  1  0
  7  1  1  0
  7  6  1  0
  8  1  2  0
  9 16  1  0
 10 13  1  0
 11 10  2  0
 12 10  1  0
 12 18  1  0
 14 49  1  0
 14 13  1  0
 15  9  2  0
 15 11  1  0
 16 12  2  0
 17 11  1  0
 17 14  1  0
 18 20  1  0
 19 17  1  0
 21 22  2  0
 22 41  1  0
 23 22  1  0
 23 26  1  0
 24 21  1  0
 24 25  1  0
 25 23  2  0
 26 27  1  0
 27 28  2  0
 29 32  1  0
 29 28  1  0
 30 29  2  0
 31 30  1  0
 31 26  2  0
 32 33  1  0
 33 34  1  0
 34 35  2  0
 36 35  1  0
 36 40  1  0
 37 36  2  0
 38 33  2  0
 38 37  1  0
 39 38  1  0
 41 42  1  0
 42 45  1  0
 42 44  1  0
 43 41  2  0
 46 47  1  0
 46 21  1  0
 48 46  1  0
 49 50  1  0
 51 62  2  0
 52 50  1  0
 52 57  1  0
 53 61  1  0
 53 63  1  0
 54 60  1  0
 54 56  1  0
 55 61  1  0
 56 57  2  0
 56 55  1  0
 58 52  2  0
 59 58  1  0
 59 54  2  0
 60 53  1  0
 61 51  1  0
 63 65  2  0
 64 63  1  0
 66 64  1  0
 67 76  2  0
 67 72  1  0
 68 64  1  0
 68 72  1  0
 69 68  1  0
 70 71  1  0
 70 69  1  0
 71 67  1  0
 72 73  2  0
 73 74  1  0
 75 74  2  0
 76 75  1  0
 77 51  1  0
 77 78  1  0
 77 87  1  0
 78 81  1  0
 79 83  1  0
 79 78  1  0
 80 79  2  0
 83 82  1  0
 85 83  1  0
 85 86  1  0
 85 84  1  0
 87 90  1  1
 87 88  1  0
 89 87  1  0
M  ISO  4   1 100  18 100  49 101  50 101
M  END
>  <TORSDO>  (14) 
F 16

>  <SCORE>  (14) 
-16.720

>  <name>  (14) 
13

>  <ligand_id>  (14) 
13

>  <original_smiles>  (14) 
[H]c1nc(N([H])C(=O)N2C([H])([H])C([H])([H])C([H])([H])C([H])(n3nc(-c4c([H])c([H])c(Oc5c([H])c([H])c(F)c([H])c5F)c([H])c4[H])c(C(=O)N([H])[H])c3N([H])[H])C2([H])[H])c2c(n1)N([H])C([H])(C([H])([H])Oc1c([H])c([H])c3c(c1[H])C([H])([H])N(C(=O)C([H])(N([H])C(=O)C([H])(N([H])C([H])([H])[H])C([H])([H])[H])C(C([H])([H])[H])(C([H])([H])[H])C([H])([H])[H])C([H])(C(=O)N([H])C1([H])c4c([H])c([H])c([H])c([H])c4C([H])([H])C([H])([H])C1([H])[H])C3([H])[H])C2([H])[H]

>  <smiles>  (14) 
[H]c1nc(N([H])C(=O)N2C([H])([H])C([H])([H])C([H])([H])C([H])(n3nc(-c4c([H])c([H])c(Oc5c([H])c([H])c(F)c([H])c5F)c([H])c4[H])c(C(=O)N([H])[H])c3N([H])[H])C2([H])[H])c2c(n1)N([H])C([H])(C([H])([H])Oc1c([H])c([H])c3c(c1[H])C([H])([H])N(C(=O)C([H])(N([H])C(=O)C([H])(N([H])C([H])([H])[H])C([H])([H])[H])C(C([H])([H])[H])(C([H])([H])[H])C([H])([H])[H])C([H])(C(=O)N([H])C1([H])c4c([H])c([H])c([H])c([H])c4C([H])([H])C([H])([H])C1([H])[H])C3([H])[H])C2([H])[H]

$$$$
14:0:0
     RDKit          3D

 91 99  0  0  1  0  0  0  0  0999 V2000
  -30.5940  -21.8120   22.0420 C   0  0  0  0  0  3  0  0  0  0  0  0
  -29.2190  -22.4580   20.1600 C   0  0  0  0  0  3  0  0  0  0  0  0
  -30.5160  -23.1540   22.5000 C   0  0  0  0  0  2  0  0  0  0  0  0
  -29.9460  -21.4080   20.8460 C   0  0  0  0  0  0  0  0  0  0  0  0
  -29.1400  -23.8250   20.6510 C   0  0  0  0  0  0  0  0  0  0  0  0
  -29.8070  -24.0890   21.8080 N   0  0  0  0  0  0  0  0  0  0  0  0
  -29.7830  -25.0400   22.1900 H   0  0  0  0  0  0  0  0  0  0  0  0
  -30.1830  -20.0830   20.3000 N   0  0  0  0  0  0  0  0  0  0  0  0
  -31.1520  -19.9840   20.0070 H   0  0  0  0  0  0  0  0  0  0  0  0
  -29.5720  -18.7590   20.7220 C   0  0  0  0  0  3  0  0  0  0  0  0
  -30.4600  -17.4090   20.4560 C   0  0  0  0  0  3  0  0  0  0  0  0
  -30.6140  -14.7950   20.3500 C   0  0  0  0  0  0  0  0  0  0  0  0
  -30.3880  -12.5170   19.3290 C   0  0  0  0  0  2  0  0  0  0  0  0
  -29.4490  -12.5550   18.1030 C   0  0  0  0  0  2  0  0  0  0  0  0
  -27.9760  -12.3920   18.5330 C   0  0  0  0  0  2  0  0  0  0  0  0
  -27.6000  -13.2810   19.7500 C   0  0  0  0  0  3  0  0  0  0  0  0
  -28.6660  -13.2070   20.8640 C   0  0  0  0  0  2  0  0  0  0  0  0
  -29.9550  -13.5820   20.2660 N   0  0  0  0  0  0  0  0  0  0  0  0
  -31.7950  -14.8590   20.0080 O   0  0  0  0  0  0  0  0  0  0  0  0
  -29.9180  -15.9750   20.6090 N   0  0  0  0  0  0  0  0  0  0  0  0
  -28.9390  -15.8910   20.8400 H   0  0  0  0  0  0  0  0  0  0  0  0
  -25.2110  -13.8540   20.4890 C   0  0  0  0  0  0  0  0  0  0  0  0
  -24.1510  -13.0700   20.8690 C   0  0  0  0  0  0  0  0  0  0  0  0
  -24.6260  -11.7240   20.8410 C   0  0  0  0  0  0  0  0  0  0  0  0
  -26.2600  -12.9830   20.2500 N   0  0  0  0  0  0  0  0  0  0  0  0
  -25.9140  -11.6980   20.5240 N   0  0  0  0  0  0  0  0  0  0  0  0
  -23.9100  -10.4580   21.0360 C   0  0  0  0  0  0  0  0  0  0  0  0
  -24.3530   -9.4910   21.9670 C   0  0  0  0  0  3  0  0  0  0  0  0
  -23.6350   -8.2900   22.1490 C   0  0  0  0  0  3  0  0  0  0  0  0
  -22.4580   -8.0490   21.4020 C   0  0  0  0  0  0  0  0  0  0  0  0
  -22.0330   -9.0030   20.4610 C   0  0  0  0  0  3  0  0  0  0  0  0
  -22.7540  -10.1950   20.2770 C   0  0  0  0  0  3  0  0  0  0  0  0
  -21.7040   -6.9030   21.4980 O   0  0  0  0  0  0  0  0  0  0  0  0
  -21.6700   -6.1570   22.6480 C   0  0  0  0  0  0  0  0  0  0  0  0
  -21.2570   -6.7080   23.8810 C   0  0  0  0  0  3  0  0  0  0  0  0
  -21.1720   -5.8880   25.0230 C   0  0  0  0  0  3  0  0  0  0  0  0
  -21.4880   -4.5200   24.9340 C   0  0  0  0  0  0  0  0  0  0  0  0
  -21.8940   -3.9690   23.7060 C   0  0  0  0  0  3  0  0  0  0  0  0
  -21.9810   -4.7850   22.5650 C   0  0  0  0  0  0  0  0  0  0  0  0
  -22.3520   -4.2440   21.3790 F   0  0  0  0  0  0  0  0  0  0  0  0
  -21.4000   -3.7290   26.0310 F   0  0  0  0  0  0  0  0  0  0  0  0
  -22.7520  -13.5420   21.1360 C   0  0  0  0  0  0  0  0  0  0  0  0
  -22.0210  -12.8490   22.0040 N   0  0  0  0  0  0  0  0  0  0  0  0
  -22.3080  -14.5640   20.6130 O   0  0  0  0  0  0  0  0  0  0  0  0
  -22.3880  -12.0280   22.4630 H   0  0  0  0  0  0  0  0  0  0  0  0
  -21.0820  -13.1560   22.2270 H   0  0  0  0  0  0  0  0  0  0  0  0
  -25.3600  -15.2230   20.3010 N   0  0  0  0  0  0  0  0  0  0  0  0
  -24.5890  -15.8700   20.4220 H   0  0  0  0  0  0  0  0  0  0  0  0
  -26.1910  -15.6680   19.9280 H   0  0  0  0  0  0  0  0  0  0  0  0
  -28.2570  -24.9580   19.9550 C   0  0  0  0  0  2  0  0  0  0  0  0
  -28.3530  -26.4220   20.2980 O   0  0  0  0  0  0  0  0  0  0  0  0
  -24.5970  -31.8640   23.2310 C   0  0  0  0  0  0  0  0  0  0  0  0
  -27.2220  -27.2760   20.1830 C   0  0  0  0  0  0  0  0  0  0  0  0
  -23.3870  -30.4670   21.5920 C   0  0  0  0  0  3  0  0  0  0  0  0
  -24.8430  -28.9120   20.1620 C   0  0  0  0  0  0  0  0  0  0  0  0
  -25.9300  -30.7760   21.4070 C   0  0  0  0  0  2  0  0  0  0  0  0
  -26.0120  -29.3950   20.7600 C   0  0  0  0  0  0  0  0  0  0  0  0
  -27.1950  -28.5900   20.7630 C   0  0  0  0  0  3  0  0  0  0  0  0
  -26.0270  -26.8610   19.5400 C   0  0  0  0  0  3  0  0  0  0  0  0
  -24.8530  -27.6490   19.5470 C   0  0  0  0  0  3  0  0  0  0  0  0
  -23.6060  -29.7910   20.2110 C   0  0  0  0  0  2  0  0  0  0  0  0
  -24.6570  -31.0540   22.1330 N   0  0  0  0  0  0  0  0  0  0  0  0
  -23.5140  -32.1410   23.7690 O   0  0  0  0  0  0  0  0  0  0  0  0
  -22.7240  -29.4520   22.5530 C   0  0  0  0  0  0  0  0  0  0  0  0
  -21.3950  -29.2770   22.4310 N   0  0  0  0  0  0  0  0  0  0  0  0
  -23.4020  -28.8240   23.3690 O   0  0  0  0  0  0  0  0  0  0  0  0
  -20.9040  -29.8350   21.7480 H   0  0  0  0  0  0  0  0  0  0  0  0
  -18.0200  -28.0770   22.9370 C   0  0  0  0  0  0  0  0  0  0  0  0
  -20.5790  -28.3400   23.2050 C   0  0  0  0  0  3  0  0  0  0  0  0
  -20.6850  -26.9070   22.6330 C   0  0  0  0  0  2  0  0  0  0  0  0
  -19.5830  -26.5810   21.6200 C   0  0  0  0  0  2  0  0  0  0  0  0
  -18.2000  -26.7250   22.2630 C   0  0  0  0  0  2  0  0  0  0  0  0
  -19.1390  -28.8400   23.3640 C   0  0  0  0  0  0  0  0  0  0  0  0
  -18.9190  -30.1040   23.9570 C   0  0  0  0  0  3  0  0  0  0  0  0
  -17.6140  -30.6020   24.1240 C   0  0  0  0  0  3  0  0  0  0  0  0
  -16.5100  -29.8370   23.7140 C   0  0  0  0  0  3  0  0  0  0  0  0
  -16.7140  -28.5750   23.1240 C   0  0  0  0  0  3  0  0  0  0  0  0
  -25.8810  -32.4960   23.8510 C   0  0  0  0  0  3  0  0  0  0  0  0
  -26.4000  -31.7260   25.1270 C   0  0  1  0  0  0  0  0  0  0  0  0
  -25.3100  -31.4930   26.2000 C   0  0  0  0  0  1  0  0  0  0  0  0
  -26.9810  -30.3470   24.7370 C   0  0  0  0  0  1  0  0  0  0  0  0
  -27.5550  -32.5160   25.7850 C   0  0  0  0  0  1  0  0  0  0  0  0
  -25.5720  -33.8960   24.1840 N   0  0  0  0  0  0  0  0  0  0  0  0
  -25.9000  -34.9490   23.4250 C   0  0  0  0  0  0  0  0  0  0  0  0
  -26.5610  -34.8460   22.3860 O   0  0  0  0  0  0  0  0  0  0  0  0
  -24.9850  -34.0510   24.9900 H   0  0  0  0  0  0  0  0  0  0  0  0
  -24.1690  -36.7430   23.0900 C   0  0  0  0  0  1  0  0  0  0  0  0
  -25.4180  -36.3360   23.8890 C   0  0  0  0  0  3  0  0  0  0  0  0
  -27.5600  -37.2190   24.6990 C   0  0  0  0  0  1  0  0  0  0  0  0
  -26.4470  -37.3900   23.7690 N   0  0  0  0  0  0  0  0  0  0  0  0
  -26.0410  -38.3070   23.9280 H   0  0  0  0  0  0  0  0  0  0  0  0
  1  3  1  0
  2  5  2  0
  2  4  1  0
  4  1  2  0
  5  6  1  0
  6  7  1  0
  6  3  1  0
  8 10  1  0
  8  4  1  0
  9  8  1  0
 11 20  1  0
 11 10  2  0
 12 20  1  0
 13 18  1  0
 14 15  1  0
 14 13  1  0
 16 15  1  0
 16 25  1  0
 16 17  1  0
 18 12  1  0
 18 17  1  0
 19 12  2  0
 20 21  1  0
 22 23  2  0
 23 42  1  0
 24 23  1  0
 24 27  1  0
 25 22  1  0
 25 26  1  0
 26 24  2  0
 27 28  1  0
 28 29  2  0
 30 33  1  0
 30 29  1  0
 31 30  2  0
 32 31  1  0
 32 27  2  0
 33 34  1  0
 34 35  1  0
 35 36  2  0
 37 36  1  0
 37 41  1  0
 38 37  2  0
 39 34  2  0
 39 38  1  0
 40 39  1  0
 42 43  1  0
 43 46  1  0
 43 45  1  0
 44 42  2  0
 47 48  1  0
 47 22  1  0
 49 47  1  0
 50 51  1  0
 50  5  1  0
 52 63  2  0
 53 51  1  0
 53 58  1  0
 54 62  1  0
 54 64  1  0
 55 61  1  0
 55 57  1  0
 56 62  1  0
 57 58  2  0
 57 56  1  0
 59 60  1  0
 59 53  2  0
 60 55  2  0
 61 54  1  0
 62 52  1  0
 64 66  2  0
 65 64  1  0
 67 65  1  0
 68 77  2  0
 68 73  1  0
 69 65  1  0
 69 73  1  0
 70 69  1  0
 71 72  1  0
 71 70  1  0
 72 68  1  0
 73 74  2  0
 74 75  1  0
 76 75  2  0
 77 76  1  0
 78 52  1  0
 78 83  1  0
 78 79  1  0
 79 82  1  1
 79 80  1  0
 81 79  1  0
 83 86  1  0
 84 88  1  0
 84 83  1  0
 85 84  2  0
 88 87  1  0
 90 88  1  0
 90 91  1  0
 90 89  1  0
M  ISO  4  12 100  20 100  50 101  51 101
M  END
>  <TORSDO>  (15) 
F 20

>  <SCORE>  (15) 
-13.657

>  <name>  (15) 
14

>  <ligand_id>  (15) 
14

>  <original_smiles>  (15) 
[H]c1c([H])c([H])c2c(c1[H])C([H])([H])C([H])([H])C([H])([H])C2([H])N([H])C(=O)C1([H])N(C(=O)C([H])(N([H])C(=O)C([H])(N([H])C([H])([H])[H])C([H])([H])[H])C(C([H])([H])[H])(C([H])([H])[H])C([H])([H])[H])C([H])([H])c2c([H])c(OC([H])([H])c3c([H])c(N([H])C([H])([H])C([H])([H])N([H])C(=O)N4C([H])([H])C([H])([H])C([H])([H])C([H])(n5nc(-c6c([H])c([H])c(Oc7c([H])c([H])c(F)c([H])c7F)c([H])c6[H])c(C(=O)N([H])[H])c5N([H])[H])C4([H])[H])c([H])c([H])[n+]3[H])c([H])c([H])c2C1([H])[H]

>  <smiles>  (15) 
[H]c1c([H])c([H])c2c(c1[H])C([H])([H])C([H])([H])C([H])([H])C2([H])N([H])C(=O)C1([H])N(C(=O)C([H])(N([H])C(=O)C([H])(N([H])C([H])([H])[H])C([H])([H])[H])C(C([H])([H])[H])(C([H])([H])[H])C([H])([H])[H])C([H])([H])c2c([H])c(OC([H])([H])c3c([H])c(N([H])C([H])([H])C([H])([H])N([H])C(=O)N4C([H])([H])C([H])([H])C([H])([H])C([H])(n5nc(-c6c([H])c([H])c(Oc7c([H])c([H])c(F)c([H])c7F)c([H])c6[H])c(C(=O)N([H])[H])c5N([H])[H])C4([H])[H])c([H])c([H])[n+]3[H])c([H])c([H])c2C1([H])[H]

$$$$
15:0:0
     RDKit          3D

 92101  0  0  1  0  0  0  0  0999 V2000
  -29.1180  -19.8880   19.3030 C   0  0  0  0  0  3  0  0  0  0  0  0
  -30.2180  -18.5500   21.3970 C   0  0  0  0  0  3  0  0  0  0  0  0
  -29.2820  -18.4410   19.2470 C   0  0  0  0  0  0  0  0  0  0  0  0
  -29.8540  -17.6740   20.3220 C   0  0  0  0  0  0  0  0  0  0  0  0
  -29.4980  -20.6740   20.4350 C   0  0  0  0  0  0  0  0  0  0  0  0
  -28.7900  -17.7020   18.0170 C   0  0  0  0  0  1  0  0  0  0  0  0
  -30.0600  -19.9360   21.4460 N   0  0  0  0  0  0  0  0  0  0  0  0
  -29.3440  -22.1370   20.6280 N   0  0  0  0  0  0  0  0  0  0  0  0
  -29.6830  -22.4850   21.5200 H   0  0  0  0  0  0  0  0  0  0  0  0
  -30.6170  -15.0320   20.1810 C   0  0  0  0  0  0  0  0  0  0  0  0
  -30.4900  -12.6960   19.2120 C   0  0  0  0  0  2  0  0  0  0  0  0
  -29.5130  -12.6800   18.0100 C   0  0  0  0  0  2  0  0  0  0  0  0
  -28.0610  -12.4710   18.4840 C   0  0  0  0  0  2  0  0  0  0  0  0
  -27.6970  -13.3770   19.6900 C   0  0  0  0  0  3  0  0  0  0  0  0
  -28.7870  -13.3460   20.7820 C   0  0  0  0  0  2  0  0  0  0  0  0
  -30.0470  -13.7630   20.1490 N   0  0  0  0  0  0  0  0  0  0  0  0
  -31.7960  -15.1520   19.8290 O   0  0  0  0  0  0  0  0  0  0  0  0
  -29.7840  -16.1470   20.4360 N   0  0  0  0  0  0  0  0  0  0  0  0
  -28.8660  -15.8280   20.7060 H   0  0  0  0  0  0  0  0  0  0  0  0
  -25.3390  -13.9560   20.5060 C   0  0  0  0  0  0  0  0  0  0  0  0
  -24.2830  -13.1810   20.8970 C   0  0  0  0  0  0  0  0  0  0  0  0
  -24.7400  -11.8280   20.8300 C   0  0  0  0  0  0  0  0  0  0  0  0
  -26.3710  -13.0780   20.2200 N   0  0  0  0  0  0  0  0  0  0  0  0
  -26.0200  -11.7920   20.4790 N   0  0  0  0  0  0  0  0  0  0  0  0
  -24.0130  -10.5650   21.0210 C   0  0  0  0  0  0  0  0  0  0  0  0
  -24.4540   -9.5920   21.9450 C   0  0  0  0  0  3  0  0  0  0  0  0
  -23.7270   -8.3950   22.1250 C   0  0  0  0  0  3  0  0  0  0  0  0
  -22.5450   -8.1640   21.3810 C   0  0  0  0  0  0  0  0  0  0  0  0
  -22.1220   -9.1270   20.4470 C   0  0  0  0  0  3  0  0  0  0  0  0
  -22.8510  -10.3150   20.2650 C   0  0  0  0  0  3  0  0  0  0  0  0
  -21.7880   -7.0210   21.4710 O   0  0  0  0  0  0  0  0  0  0  0  0
  -21.7290   -6.2860   22.6280 C   0  0  0  0  0  0  0  0  0  0  0  0
  -21.2500   -6.8360   23.8360 C   0  0  0  0  0  3  0  0  0  0  0  0
  -21.1410   -6.0260   24.9840 C   0  0  0  0  0  3  0  0  0  0  0  0
  -21.5010   -4.6660   24.9240 C   0  0  0  0  0  0  0  0  0  0  0  0
  -21.9740   -4.1160   23.7200 C   0  0  0  0  0  3  0  0  0  0  0  0
  -22.0840   -4.9230   22.5750 C   0  0  0  0  0  0  0  0  0  0  0  0
  -22.5200   -4.3820   21.4120 F   0  0  0  0  0  0  0  0  0  0  0  0
  -21.3900   -3.8860   26.0240 F   0  0  0  0  0  0  0  0  0  0  0  0
  -22.8970  -13.6590   21.2170 C   0  0  0  0  0  0  0  0  0  0  0  0
  -22.1890  -12.9510   22.0900 N   0  0  0  0  0  0  0  0  0  0  0  0
  -22.4500  -14.6960   20.7280 O   0  0  0  0  0  0  0  0  0  0  0  0
  -22.5630  -12.1120   22.5080 H   0  0  0  0  0  0  0  0  0  0  0  0
  -21.2600  -13.2530   22.3460 H   0  0  0  0  0  0  0  0  0  0  0  0
  -25.5000  -15.3300   20.3430 N   0  0  0  0  0  0  0  0  0  0  0  0
  -24.7310  -15.9760   20.4800 H   0  0  0  0  0  0  0  0  0  0  0  0
  -26.3210  -15.7730   19.9540 H   0  0  0  0  0  0  0  0  0  0  0  0
  -29.4030  -23.8670   18.6290 C   0  0  0  0  0  2  0  0  0  0  0  0
  -28.1700  -24.8030   18.5330 C   0  0  0  0  0  2  0  0  0  0  0  0
  -28.6480  -23.2070   19.7600 C   0  0  0  0  0  3  0  0  0  0  0  0
  -27.9600  -24.7270   20.0770 C   0  0  0  0  0  3  0  0  0  0  0  0
  -28.2850  -26.2190   20.4060 O   0  0  0  0  0  0  0  0  0  0  0  0
  -24.6380  -31.9470   23.3160 C   0  0  0  0  0  0  0  0  0  0  0  0
  -27.2440  -27.2240   20.3150 C   0  0  0  0  0  0  0  0  0  0  0  0
  -23.4500  -30.5400   21.6810 C   0  0  0  0  0  3  0  0  0  0  0  0
  -24.9110  -28.9710   20.2670 C   0  0  0  0  0  0  0  0  0  0  0  0
  -26.0060  -30.8100   21.5280 C   0  0  0  0  0  2  0  0  0  0  0  0
  -26.0870  -29.4170   20.8830 C   0  0  0  0  0  0  0  0  0  0  0  0
  -27.2530  -28.5590   20.8940 C   0  0  0  0  0  3  0  0  0  0  0  0
  -26.0410  -26.8980   19.6440 C   0  0  0  0  0  3  0  0  0  0  0  0
  -24.9010  -27.7240   19.6320 C   0  0  0  0  0  3  0  0  0  0  0  0
  -23.6800  -29.8620   20.3050 C   0  0  0  0  0  2  0  0  0  0  0  0
  -24.7180  -31.1200   22.2300 N   0  0  0  0  0  0  0  0  0  0  0  0
  -23.5470  -32.2300   23.8370 O   0  0  0  0  0  0  0  0  0  0  0  0
  -22.7710  -29.5320   22.6430 C   0  0  0  0  0  0  0  0  0  0  0  0
  -21.4470  -29.3440   22.5000 N   0  0  0  0  0  0  0  0  0  0  0  0
  -23.4390  -28.9220   23.4820 O   0  0  0  0  0  0  0  0  0  0  0  0
  -20.9640  -29.8880   21.7990 H   0  0  0  0  0  0  0  0  0  0  0  0
  -18.0750  -28.1010   22.9610 C   0  0  0  0  0  0  0  0  0  0  0  0
  -20.6240  -28.4070   23.2710 C   0  0  0  0  0  3  0  0  0  0  0  0
  -20.7580  -26.9680   22.7230 C   0  0  0  0  0  2  0  0  0  0  0  0
  -19.6800  -26.6100   21.6940 C   0  0  0  0  0  2  0  0  0  0  0  0
  -18.2840  -26.7430   22.3100 C   0  0  0  0  0  2  0  0  0  0  0  0
  -19.1730  -28.8880   23.3980 C   0  0  0  0  0  0  0  0  0  0  0  0
  -18.9220  -30.1550   23.9670 C   0  0  0  0  0  3  0  0  0  0  0  0
  -17.6070  -30.6360   24.1030 C   0  0  0  0  0  3  0  0  0  0  0  0
  -16.5230  -29.8460   23.6820 C   0  0  0  0  0  3  0  0  0  0  0  0
  -16.7570  -28.5810   23.1150 C   0  0  0  0  0  3  0  0  0  0  0  0
  -25.9100  -32.5900   23.9450 C   0  0  0  0  0  3  0  0  0  0  0  0
  -26.4060  -31.8400   25.2420 C   0  0  1  0  0  0  0  0  0  0  0  0
  -25.2970  -31.6160   26.2960 C   0  0  0  0  0  1  0  0  0  0  0  0
  -27.0000  -30.4570   24.8860 C   0  0  0  0  0  1  0  0  0  0  0  0
  -27.5440  -32.6470   25.9100 C   0  0  0  0  0  1  0  0  0  0  0  0
  -25.5950  -33.9940   24.2540 N   0  0  0  0  0  0  0  0  0  0  0  0
  -25.9190  -35.0380   23.4810 C   0  0  0  0  0  0  0  0  0  0  0  0
  -26.5830  -34.9220   22.4460 O   0  0  0  0  0  0  0  0  0  0  0  0
  -25.0050  -34.1580   25.0560 H   0  0  0  0  0  0  0  0  0  0  0  0
  -24.1860  -36.8270   23.1160 C   0  0  0  0  0  1  0  0  0  0  0  0
  -25.4340  -36.4340   23.9230 C   0  0  0  0  0  3  0  0  0  0  0  0
  -27.5680  -37.3410   24.7340 C   0  0  0  0  0  1  0  0  0  0  0  0
  -26.4650  -37.4870   23.7860 N   0  0  0  0  0  0  0  0  0  0  0  0
  -26.0570  -38.4090   23.9130 H   0  0  0  0  0  0  0  0  0  0  0  0
  1  5  1  0
  2  7  1  0
  3  1  2  0
  3  4  1  0
  4 18  1  0
  4  2  2  0
  5  8  1  0
  5  7  2  0
  6  3  1  0
  8  9  1  0
 10 18  1  0
 11 16  1  0
 12 13  1  0
 12 11  1  0
 14 13  1  0
 14 23  1  0
 14 15  1  0
 16 10  1  0
 16 15  1  0
 17 10  2  0
 18 19  1  0
 20 21  2  0
 21 40  1  0
 22 21  1  0
 22 25  1  0
 23 24  1  0
 23 20  1  0
 24 22  2  0
 25 26  1  0
 26 27  2  0
 28 31  1  0
 28 27  1  0
 29 28  2  0
 30 29  1  0
 30 25  2  0
 31 32  1  0
 32 33  1  0
 33 34  2  0
 35 34  1  0
 35 39  1  0
 36 35  2  0
 37 32  2  0
 37 36  1  0
 38 37  1  0
 40 41  1  0
 41 44  1  0
 41 43  1  0
 42 40  2  0
 45 46  1  0
 45 20  1  0
 47 45  1  0
 48 50  1  0
 49 48  1  0
 49 51  1  0
 50 51  1  0
 50  8  1  0
 51 52  1  0
 53 64  2  0
 54 52  1  0
 54 59  1  0
 55 63  1  0
 55 65  1  0
 56 62  1  0
 56 58  1  0
 57 63  1  0
 58 59  2  0
 58 57  1  0
 60 54  2  0
 61 60  1  0
 61 56  2  0
 62 55  1  0
 63 53  1  0
 65 67  2  0
 66 65  1  0
 68 66  1  0
 69 78  2  0
 69 74  1  0
 70 66  1  0
 70 74  1  0
 71 70  1  0
 72 73  1  0
 72 71  1  0
 73 69  1  0
 74 75  2  0
 75 76  1  0
 77 76  2  0
 78 77  1  0
 79 53  1  0
 79 84  1  0
 79 80  1  0
 80 83  1  1
 80 81  1  0
 82 80  1  0
 84 87  1  0
 85 89  1  0
 85 84  1  0
 86 85  2  0
 89 88  1  0
 91 92  1  0
 91 89  1  0
 91 90  1  0
M  ISO  4  10 100  18 100  51 101  52 101
M  END
>  <TORSDO>  (16) 
F 17

>  <SCORE>  (16) 
-14.908

>  <name>  (16) 
15

>  <ligand_id>  (16) 
15

>  <original_smiles>  (16) 
[H]c1nc(N([H])C2([H])C([H])([H])C([H])([H])C2([H])Oc2c([H])c([H])c3c(c2[H])C([H])([H])N(C(=O)C([H])(N([H])C(=O)C([H])(N([H])C([H])([H])[H])C([H])([H])[H])C(C([H])([H])[H])(C([H])([H])[H])C([H])([H])[H])C([H])(C(=O)N([H])C2([H])c4c([H])c([H])c([H])c([H])c4C([H])([H])C([H])([H])C2([H])[H])C3([H])[H])c([H])c(C([H])([H])[H])c1N([H])C(=O)N1C([H])([H])C([H])([H])C([H])([H])C([H])(n2nc(-c3c([H])c([H])c(Oc4c([H])c([H])c(F)c([H])c4F)c([H])c3[H])c(C(=O)N([H])[H])c2N([H])[H])C1([H])[H]

>  <smiles>  (16) 
[H]c1nc(N([H])C2([H])C([H])([H])C([H])([H])C2([H])Oc2c([H])c([H])c3c(c2[H])C([H])([H])N(C(=O)C([H])(N([H])C(=O)C([H])(N([H])C([H])([H])[H])C([H])([H])[H])C(C([H])([H])[H])(C([H])([H])[H])C([H])([H])[H])C([H])(C(=O)N([H])C2([H])c4c([H])c([H])c([H])c([H])c4C([H])([H])C([H])([H])C2([H])[H])C3([H])[H])c([H])c(C([H])([H])[H])c1N([H])C(=O)N1C([H])([H])C([H])([H])C([H])([H])C([H])(n2nc(-c3c([H])c([H])c(Oc4c([H])c([H])c(F)c([H])c4F)c([H])c3[H])c(C(=O)N([H])[H])c2N([H])[H])C1([H])[H]

$$$$
16:0:0
     RDKit          3D

 88 97  0  0  1  0  0  0  0  0999 V2000
  -27.6970  -21.7230   20.5500 C   0  0  0  0  0  2  0  0  0  0  0  0
  -29.9650  -22.1800   19.9390 C   0  0  0  0  0  2  0  0  0  0  0  0
  -27.6700  -23.3400   20.9370 C   0  0  0  0  0  2  0  0  0  0  0  0
  -29.5320  -23.7160   19.4720 C   0  0  0  0  0  2  0  0  0  0  0  0
  -28.9540  -20.9310   19.8870 C   0  0  0  0  0  3  0  0  0  0  0  0
  -28.1780  -24.4860   19.9320 C   0  0  0  0  0  3  0  0  0  0  0  0
  -30.5570  -15.2340   19.8920 C   0  0  0  0  0  0  0  0  0  0  0  0
  -30.4140  -12.8440   18.9440 C   0  0  0  0  0  2  0  0  0  0  0  0
  -29.4100  -12.7230   17.7740 C   0  0  0  0  0  2  0  0  0  0  0  0
  -27.9880  -12.4590   18.3030 C   0  0  0  0  0  2  0  0  0  0  0  0
  -27.6340  -13.3730   19.5050 C   0  0  0  0  0  3  0  0  0  0  0  0
  -28.7660  -13.4390   20.5540 C   0  0  0  0  0  2  0  0  0  0  0  0
  -29.9530  -13.9530   19.8520 N   0  0  0  0  0  0  0  0  0  0  0  0
  -31.7390  -15.2290   19.5190 O   0  0  0  0  0  0  0  0  0  0  0  0
  -28.1730  -18.3190   20.6700 C   0  0  0  0  0  2  0  0  0  0  0  0
  -28.6870  -16.8290   20.8860 C   0  0  0  0  0  2  0  0  0  0  0  0
  -30.2090  -18.0200   19.6260 C   0  0  0  0  0  2  0  0  0  0  0  0
  -29.3530  -19.2730   20.3700 C   0  0  0  0  0  3  0  0  0  0  0  0
  -29.8590  -16.5240   20.0420 N   0  0  0  0  0  0  0  0  0  0  0  0
  -25.3120  -13.8970   20.4280 C   0  0  0  0  0  0  0  0  0  0  0  0
  -24.2850  -13.1030   20.8520 C   0  0  0  0  0  0  0  0  0  0  0  0
  -24.7540  -11.7580   20.7450 C   0  0  0  0  0  0  0  0  0  0  0  0
  -26.3420  -13.0380   20.0920 N   0  0  0  0  0  0  0  0  0  0  0  0
  -26.0210  -11.7410   20.3460 N   0  0  0  0  0  0  0  0  0  0  0  0
  -24.0440  -10.4860   20.9410 C   0  0  0  0  0  0  0  0  0  0  0  0
  -24.5020   -9.5170   21.8600 C   0  0  0  0  0  3  0  0  0  0  0  0
  -23.7890   -8.3130   22.0460 C   0  0  0  0  0  3  0  0  0  0  0  0
  -22.6050   -8.0690   21.3110 C   0  0  0  0  0  0  0  0  0  0  0  0
  -22.1660   -9.0270   20.3800 C   0  0  0  0  0  3  0  0  0  0  0  0
  -22.8790  -10.2220   20.1930 C   0  0  0  0  0  3  0  0  0  0  0  0
  -21.8610   -6.9180   21.4070 O   0  0  0  0  0  0  0  0  0  0  0  0
  -21.7820   -6.2080   22.5780 C   0  0  0  0  0  0  0  0  0  0  0  0
  -21.3090   -6.7910   23.7740 C   0  0  0  0  0  3  0  0  0  0  0  0
  -21.1790   -6.0070   24.9380 C   0  0  0  0  0  3  0  0  0  0  0  0
  -21.5130   -4.6400   24.9060 C   0  0  0  0  0  0  0  0  0  0  0  0
  -21.9780   -4.0550   23.7150 C   0  0  0  0  0  3  0  0  0  0  0  0
  -22.1100   -4.8370   22.5550 C   0  0  0  0  0  0  0  0  0  0  0  0
  -22.5390   -4.2640   21.4030 F   0  0  0  0  0  0  0  0  0  0  0  0
  -21.3820   -3.8850   26.0210 F   0  0  0  0  0  0  0  0  0  0  0  0
  -22.9090  -13.5650   21.2360 C   0  0  0  0  0  0  0  0  0  0  0  0
  -22.2480  -12.8430   22.1320 N   0  0  0  0  0  0  0  0  0  0  0  0
  -22.4340  -14.6020   20.7740 O   0  0  0  0  0  0  0  0  0  0  0  0
  -22.6460  -12.0020   22.5230 H   0  0  0  0  0  0  0  0  0  0  0  0
  -21.3290  -13.1370   22.4350 H   0  0  0  0  0  0  0  0  0  0  0  0
  -25.4380  -15.2720   20.2690 N   0  0  0  0  0  0  0  0  0  0  0  0
  -24.6550  -15.8970   20.4180 H   0  0  0  0  0  0  0  0  0  0  0  0
  -26.2330  -15.7290   19.8430 H   0  0  0  0  0  0  0  0  0  0  0  0
  -28.2300  -26.0700   20.2530 O   0  0  0  0  0  0  0  0  0  0  0  0
  -24.6330  -31.8850   23.2410 C   0  0  0  0  0  0  0  0  0  0  0  0
  -27.1750  -27.0900   20.1860 C   0  0  0  0  0  0  0  0  0  0  0  0
  -23.4260  -30.5040   21.5970 C   0  0  0  0  0  3  0  0  0  0  0  0
  -24.8640  -28.9130   20.1580 C   0  0  0  0  0  0  0  0  0  0  0  0
  -25.9850  -30.7340   21.4310 C   0  0  0  0  0  2  0  0  0  0  0  0
  -26.0490  -29.3350   20.7710 C   0  0  0  0  0  0  0  0  0  0  0  0
  -27.2000  -28.4410   20.7620 C   0  0  0  0  0  3  0  0  0  0  0  0
  -25.9580  -26.7940   19.5330 C   0  0  0  0  0  3  0  0  0  0  0  0
  -24.8370  -27.6620   19.5200 C   0  0  0  0  0  3  0  0  0  0  0  0
  -23.6440  -29.8280   20.2140 C   0  0  0  0  0  2  0  0  0  0  0  0
  -24.7030  -31.0660   22.1440 N   0  0  0  0  0  0  0  0  0  0  0  0
  -23.5490  -32.1720   23.7720 O   0  0  0  0  0  0  0  0  0  0  0  0
  -22.7390  -29.4990   22.5580 C   0  0  0  0  0  0  0  0  0  0  0  0
  -21.4120  -29.3240   22.4260 N   0  0  0  0  0  0  0  0  0  0  0  0
  -23.4070  -28.8800   23.3900 O   0  0  0  0  0  0  0  0  0  0  0  0
  -20.9280  -29.8760   21.7330 H   0  0  0  0  0  0  0  0  0  0  0  0
  -18.0370  -28.0830   22.8960 C   0  0  0  0  0  0  0  0  0  0  0  0
  -20.5910  -28.3820   23.1940 C   0  0  0  0  0  3  0  0  0  0  0  0
  -20.7170  -26.9470   22.6310 C   0  0  0  0  0  2  0  0  0  0  0  0
  -19.6330  -26.6040   21.6040 C   0  0  0  0  0  2  0  0  0  0  0  0
  -18.2410  -26.7340   22.2290 C   0  0  0  0  0  2  0  0  0  0  0  0
  -19.1400  -28.8640   23.3350 C   0  0  0  0  0  0  0  0  0  0  0  0
  -18.8960  -30.1240   23.9210 C   0  0  0  0  0  3  0  0  0  0  0  0
  -17.5810  -30.6060   24.0710 C   0  0  0  0  0  3  0  0  0  0  0  0
  -16.4930  -29.8240   23.6470 C   0  0  0  0  0  3  0  0  0  0  0  0
  -16.7230  -28.5650   23.0660 C   0  0  0  0  0  3  0  0  0  0  0  0
  -25.9120  -32.5180   23.8700 C   0  0  0  0  0  3  0  0  0  0  0  0
  -25.6070  -33.9190   24.2050 N   0  0  0  0  0  0  0  0  0  0  0  0
  -25.9300  -34.9760   23.4470 C   0  0  0  0  0  0  0  0  0  0  0  0
  -26.5810  -34.8740   22.4040 O   0  0  0  0  0  0  0  0  0  0  0  0
  -25.0300  -34.0720   25.0190 H   0  0  0  0  0  0  0  0  0  0  0  0
  -24.1900  -36.7700   23.1460 C   0  0  0  0  0  1  0  0  0  0  0  0
  -25.4560  -36.3670   23.9190 C   0  0  0  0  0  3  0  0  0  0  0  0
  -27.6130  -37.2580   24.6840 C   0  0  0  0  0  1  0  0  0  0  0  0
  -26.4840  -37.4210   23.7730 N   0  0  0  0  0  0  0  0  0  0  0  0
  -26.0810  -38.3420   23.9260 H   0  0  0  0  0  0  0  0  0  0  0  0
  -26.4140  -31.7490   25.1530 C   0  0  1  0  0  0  0  0  0  0  0  0
  -25.3120  -31.5260   26.2160 C   0  0  0  0  0  1  0  0  0  0  0  0
  -26.9870  -30.3640   24.7760 C   0  0  0  0  0  1  0  0  0  0  0  0
  -27.5680  -32.5350   25.8190 C   0  0  0  0  0  1  0  0  0  0  0  0
  1  3  1  0
  4  6  1  0
  4  2  1  0
  5  2  1  0
  5 18  1  0
  5  1  1  0
  6 48  1  0
  6  3  1  0
  7 19  1  0
  8 13  1  0
  9 10  1  0
  9  8  1  0
 11 10  1  0
 11 23  1  0
 11 12  1  0
 13  7  1  0
 13 12  1  0
 14  7  2  0
 15 16  1  0
 17 19  1  0
 18 17  1  0
 18 15  1  0
 19 16  1  0
 20 21  2  0
 21 40  1  0
 22 21  1  0
 22 25  1  0
 23 24  1  0
 23 20  1  0
 24 22  2  0
 25 26  1  0
 26 27  2  0
 28 31  1  0
 28 27  1  0
 29 28  2  0
 30 29  1  0
 30 25  2  0
 31 32  1  0
 32 33  1  0
 33 34  2  0
 35 34  1  0
 35 39  1  0
 36 35  2  0
 37 32  2  0
 37 36  1  0
 38 37  1  0
 40 41  1  0
 41 44  1  0
 41 43  1  0
 42 40  2  0
 45 46  1  0
 45 20  1  0
 47 45  1  0
 49 60  2  0
 50 48  1  0
 50 55  1  0
 51 59  1  0
 51 61  1  0
 52 58  1  0
 52 54  1  0
 53 59  1  0
 54 53  1  0
 55 54  2  0
 56 50  2  0
 57 56  1  0
 57 52  2  0
 58 51  1  0
 59 49  1  0
 61 63  2  0
 62 61  1  0
 64 62  1  0
 65 74  2  0
 65 70  1  0
 66 62  1  0
 66 70  1  0
 67 66  1  0
 68 69  1  0
 68 67  1  0
 69 65  1  0
 70 71  2  0
 71 72  1  0
 73 72  2  0
 74 73  1  0
 75 49  1  0
 75 76  1  0
 75 85  1  0
 76 79  1  0
 77 81  1  0
 77 76  1  0
 78 77  2  0
 81 80  1  0
 83 81  1  0
 83 84  1  0
 83 82  1  0
 85 88  1  1
 85 86  1  0
 87 85  1  0
M  ISO  4   6 101   7 100  19 100  48 101
M  END
>  <TORSDO>  (17) 
F 16

>  <SCORE>  (17) 
-15.547

>  <name>  (17) 
16

>  <ligand_id>  (17) 
16

>  <original_smiles>  (17) 
[H]c1c([H])c([H])c2c(c1[H])C([H])([H])C([H])([H])C([H])([H])C2([H])N([H])C(=O)C1([H])N(C(=O)C([H])(N([H])C(=O)C([H])(N([H])C([H])([H])[H])C([H])([H])[H])C(C([H])([H])[H])(C([H])([H])[H])C([H])([H])[H])C([H])([H])c2c([H])c(OC3([H])C([H])([H])C([H])([H])C([H])(C4([H])C([H])([H])N(C(=O)N5C([H])([H])C([H])([H])C([H])([H])C([H])(n6nc(-c7c([H])c([H])c(Oc8c([H])c([H])c(F)c([H])c8F)c([H])c7[H])c(C(=O)N([H])[H])c6N([H])[H])C5([H])[H])C([H])([H])C4([H])[H])C([H])([H])C3([H])[H])c([H])c([H])c2C1([H])[H]

>  <smiles>  (17) 
[H]c1c([H])c([H])c2c(c1[H])C([H])([H])C([H])([H])C([H])([H])C2([H])N([H])C(=O)C1([H])N(C(=O)C([H])(N([H])C(=O)C([H])(N([H])C([H])([H])[H])C([H])([H])[H])C(C([H])([H])[H])(C([H])([H])[H])C([H])([H])[H])C([H])([H])c2c([H])c(OC3([H])C([H])([H])C([H])([H])C([H])(C4([H])C([H])([H])N(C(=O)N5C([H])([H])C([H])([H])C([H])([H])C([H])(n6nc(-c7c([H])c([H])c(Oc8c([H])c([H])c(F)c([H])c8F)c([H])c7[H])c(C(=O)N([H])[H])c6N([H])[H])C5([H])[H])C([H])([H])C4([H])[H])C([H])([H])C3([H])[H])c([H])c([H])c2C1([H])[H]

$$$$
17:0:0
     RDKit          3D

 92100  0  0  1  0  0  0  0  0999 V2000
  -29.9000  -19.8370   19.2060 C   0  0  0  0  0  3  0  0  0  0  0  0
  -30.3300  -20.7770   21.1810 C   0  0  0  0  0  3  0  0  0  0  0  0
  -29.8220  -21.0830   19.9510 C   0  0  0  0  0  0  0  0  0  0  0  0
  -30.4920  -18.8160   19.9590 C   0  0  0  0  0  0  0  0  0  0  0  0
  -30.7310  -19.4250   21.2030 N   0  0  0  0  0  0  0  0  0  0  0  0
  -30.2380  -17.8380   23.0090 C   0  0  0  0  0  1  0  0  0  0  0  0
  -31.8930  -19.6990   23.3910 C   0  0  0  0  0  1  0  0  0  0  0  0
  -31.3020  -18.7320   22.3550 C   0  0  0  0  0  3  0  0  0  0  0  0
  -29.2790  -22.3540   19.5130 N   0  0  0  0  0  0  0  0  0  0  0  0
  -28.9980  -22.3910   18.5330 H   0  0  0  0  0  0  0  0  0  0  0  0
  -29.4210  -23.7240   20.1540 C   0  0  0  0  0  3  0  0  0  0  0  0
  -28.4950  -24.9350   19.5810 C   0  0  0  0  0  3  0  0  0  0  0  0
  -28.5570  -26.3630   20.0760 O   0  0  0  0  0  0  0  0  0  0  0  0
  -24.6810  -31.7020   23.1560 C   0  0  0  0  0  0  0  0  0  0  0  0
  -27.4310  -27.2280   20.0150 C   0  0  0  0  0  0  0  0  0  0  0  0
  -23.5280  -30.2950   21.4910 C   0  0  0  0  0  3  0  0  0  0  0  0
  -25.0290  -28.8170   20.0350 C   0  0  0  0  0  0  0  0  0  0  0  0
  -26.0620  -30.6760   21.3270 C   0  0  0  0  0  2  0  0  0  0  0  0
  -26.1840  -29.3090   20.6560 C   0  0  0  0  0  0  0  0  0  0  0  0
  -27.3830  -28.5230   20.6440 C   0  0  0  0  0  3  0  0  0  0  0  0
  -26.2530  -26.8300   19.3400 C   0  0  0  0  0  3  0  0  0  0  0  0
  -25.0700  -27.5890   19.3620 C   0  0  0  0  0  3  0  0  0  0  0  0
  -23.7670  -29.6540   20.0990 C   0  0  0  0  0  2  0  0  0  0  0  0
  -24.7770  -30.9090   22.0490 N   0  0  0  0  0  0  0  0  0  0  0  0
  -23.5860  -31.9350   23.6900 O   0  0  0  0  0  0  0  0  0  0  0  0
  -22.8940  -29.2390   22.4300 C   0  0  0  0  0  0  0  0  0  0  0  0
  -21.5810  -28.9950   22.2690 N   0  0  0  0  0  0  0  0  0  0  0  0
  -23.5810  -28.6480   23.2660 O   0  0  0  0  0  0  0  0  0  0  0  0
  -21.0830  -29.5290   21.5710 H   0  0  0  0  0  0  0  0  0  0  0  0
  -18.2690  -27.5820   22.6410 C   0  0  0  0  0  0  0  0  0  0  0  0
  -20.7920  -28.0130   23.0170 C   0  0  0  0  0  3  0  0  0  0  0  0
  -21.0100  -26.5830   22.4670 C   0  0  0  0  0  2  0  0  0  0  0  0
  -19.9780  -26.1780   21.4100 C   0  0  0  0  0  2  0  0  0  0  0  0
  -18.5630  -26.2400   21.9900 C   0  0  0  0  0  2  0  0  0  0  0  0
  -19.3170  -28.4210   23.1090 C   0  0  0  0  0  0  0  0  0  0  0  0
  -18.9890  -29.6720   23.6750 C   0  0  0  0  0  3  0  0  0  0  0  0
  -17.6490  -30.0870   23.7790 C   0  0  0  0  0  3  0  0  0  0  0  0
  -16.6150  -29.2470   23.3280 C   0  0  0  0  0  3  0  0  0  0  0  0
  -16.9270  -27.9960   22.7660 C   0  0  0  0  0  3  0  0  0  0  0  0
  -25.9390  -32.3650   23.7950 C   0  0  0  0  0  3  0  0  0  0  0  0
  -25.5910  -33.7540   24.1260 N   0  0  0  0  0  0  0  0  0  0  0  0
  -25.8990  -34.8190   23.3730 C   0  0  0  0  0  0  0  0  0  0  0  0
  -26.5760  -34.7370   22.3430 O   0  0  0  0  0  0  0  0  0  0  0  0
  -24.9890  -33.8900   24.9250 H   0  0  0  0  0  0  0  0  0  0  0  0
  -24.1240  -36.5690   23.0190 C   0  0  0  0  0  1  0  0  0  0  0  0
  -25.3740  -36.1930   23.8320 C   0  0  0  0  0  3  0  0  0  0  0  0
  -27.4830  -37.1330   24.6680 C   0  0  0  0  0  1  0  0  0  0  0  0
  -26.3780  -37.2750   23.7240 N   0  0  0  0  0  0  0  0  0  0  0  0
  -25.9490  -38.1840   23.8720 H   0  0  0  0  0  0  0  0  0  0  0  0
  -26.4600  -31.6040   25.0760 C   0  0  1  0  0  0  0  0  0  0  0  0
  -25.3610  -31.3410   26.1310 C   0  0  0  0  0  1  0  0  0  0  0  0
  -27.0760  -30.2400   24.6880 C   0  0  0  0  0  1  0  0  0  0  0  0
  -27.5860  -32.4220   25.7480 C   0  0  0  0  0  1  0  0  0  0  0  0
  -31.0200  -17.3750   19.5390 C   0  0  0  0  0  2  0  0  0  0  0  0
  -31.1280  -14.8150   19.8920 C   0  0  0  0  0  0  0  0  0  0  0  0
  -30.7580  -12.5280   18.9780 C   0  0  0  0  0  2  0  0  0  0  0  0
  -29.7840  -12.6290   17.7860 C   0  0  0  0  0  2  0  0  0  0  0  0
  -28.3260  -12.5250   18.2740 C   0  0  0  0  0  2  0  0  0  0  0  0
  -28.0330  -13.4310   19.5010 C   0  0  0  0  0  3  0  0  0  0  0  0
  -29.1440  -13.3540   20.5740 C   0  0  0  0  0  2  0  0  0  0  0  0
  -30.4210  -13.6320   19.9060 N   0  0  0  0  0  0  0  0  0  0  0  0
  -32.3070  -14.8120   19.5370 O   0  0  0  0  0  0  0  0  0  0  0  0
  -30.4640  -16.0290   20.0050 N   0  0  0  0  0  0  0  0  0  0  0  0
  -29.4870  -15.9980   20.2450 H   0  0  0  0  0  0  0  0  0  0  0  0
  -25.7140  -14.0870   20.3700 C   0  0  0  0  0  0  0  0  0  0  0  0
  -24.6380  -13.3480   20.7760 C   0  0  0  0  0  0  0  0  0  0  0  0
  -25.0440  -11.9800   20.6920 C   0  0  0  0  0  0  0  0  0  0  0  0
  -26.7080  -13.1750   20.0600 N   0  0  0  0  0  0  0  0  0  0  0  0
  -26.3160  -11.8980   20.3170 N   0  0  0  0  0  0  0  0  0  0  0  0
  -24.2750  -10.7440   20.8910 C   0  0  0  0  0  0  0  0  0  0  0  0
  -24.6710   -9.7710   21.8360 C   0  0  0  0  0  3  0  0  0  0  0  0
  -23.9050   -8.6000   22.0230 C   0  0  0  0  0  3  0  0  0  0  0  0
  -22.7260   -8.3960   21.2660 C   0  0  0  0  0  0  0  0  0  0  0  0
  -22.3480   -9.3550   20.3110 C   0  0  0  0  0  3  0  0  0  0  0  0
  -23.1150  -10.5170   20.1220 C   0  0  0  0  0  3  0  0  0  0  0  0
  -21.9310   -7.2790   21.3630 O   0  0  0  0  0  0  0  0  0  0  0  0
  -21.7850   -6.5960   22.5460 C   0  0  0  0  0  0  0  0  0  0  0  0
  -21.3090   -7.2290   23.7130 C   0  0  0  0  0  3  0  0  0  0  0  0
  -21.1060   -6.4790   24.8890 C   0  0  0  0  0  3  0  0  0  0  0  0
  -21.3730   -5.0960   24.8960 C   0  0  0  0  0  0  0  0  0  0  0  0
  -21.8410   -4.4620   23.7320 C   0  0  0  0  0  3  0  0  0  0  0  0
  -22.0440   -5.2110   22.5590 C   0  0  0  0  0  0  0  0  0  0  0  0
  -22.4770   -4.5940   21.4340 F   0  0  0  0  0  0  0  0  0  0  0  0
  -21.1720   -4.3720   26.0210 F   0  0  0  0  0  0  0  0  0  0  0  0
  -23.2770  -13.8740   21.1290 C   0  0  0  0  0  0  0  0  0  0  0  0
  -22.5710  -13.1970   22.0290 N   0  0  0  0  0  0  0  0  0  0  0  0
  -22.8490  -14.9170   20.6380 O   0  0  0  0  0  0  0  0  0  0  0  0
  -22.9320  -12.3540   22.4490 H   0  0  0  0  0  0  0  0  0  0  0  0
  -21.6600  -13.5340   22.3080 H   0  0  0  0  0  0  0  0  0  0  0  0
  -25.9180  -15.4570   20.2140 N   0  0  0  0  0  0  0  0  0  0  0  0
  -25.1730  -16.1280   20.3680 H   0  0  0  0  0  0  0  0  0  0  0  0
  -26.7570  -15.8760   19.8360 H   0  0  0  0  0  0  0  0  0  0  0  0
  1  3  1  0
  1  4  2  0
  2  5  1  0
  3  2  2  0
  4  5  1  0
  5  8  1  0
  8  6  1  0
  8  7  1  0
  9  3  1  0
  9 11  1  0
 10  9  1  0
 12 13  1  0
 12 11  2  0
 14 25  2  0
 15 13  1  0
 15 20  1  0
 16 24  1  0
 16 26  1  0
 17 23  1  0
 17 19  1  0
 18 24  1  0
 19 18  1  0
 20 19  2  0
 21 22  1  0
 21 15  2  0
 22 17  2  0
 23 16  1  0
 24 14  1  0
 26 28  2  0
 27 26  1  0
 29 27  1  0
 30 39  2  0
 30 35  1  0
 31 27  1  0
 31 35  1  0
 32 31  1  0
 33 34  1  0
 33 32  1  0
 34 30  1  0
 35 36  2  0
 36 37  1  0
 38 37  2  0
 39 38  1  0
 40 14  1  0
 40 41  1  0
 40 50  1  0
 41 44  1  0
 42 46  1  0
 42 41  1  0
 43 42  2  0
 46 45  1  0
 48 46  1  0
 48 49  1  0
 48 47  1  0
 50 53  1  1
 50 51  1  0
 52 50  1  0
 54  4  1  0
 54 63  1  0
 55 61  1  0
 55 63  1  0
 56 61  1  0
 57 58  1  0
 57 56  1  0
 59 58  1  0
 59 68  1  0
 59 60  1  0
 61 60  1  0
 62 55  2  0
 63 64  1  0
 65 66  2  0
 66 85  1  0
 67 66  1  0
 67 70  1  0
 68 69  1  0
 68 65  1  0
 69 67  2  0
 70 71  1  0
 71 72  2  0
 73 76  1  0
 73 72  1  0
 74 73  2  0
 75 74  1  0
 75 70  2  0
 76 77  1  0
 77 82  2  0
 77 78  1  0
 78 79  2  0
 79 80  1  0
 80 84  1  0
 81 80  2  0
 82 81  1  0
 83 82  1  0
 85 86  1  0
 86 89  1  0
 86 88  1  0
 87 85  2  0
 90 91  1  0
 90 65  1  0
 92 90  1  0
M  ISO  4  12 101  13 101  55 100  63 100
M  END
>  <TORSDO>  (18) 
F 21

>  <SCORE>  (18) 
-12.241

>  <name>  (18) 
17

>  <ligand_id>  (18) 
17

>  <original_smiles>  (18) 
[H]c1c([H])c([H])c2c(c1[H])C([H])([H])C([H])([H])C([H])([H])C2([H])N([H])C(=O)C1([H])N(C(=O)C([H])(N([H])C(=O)C([H])(N([H])C([H])([H])[H])C([H])([H])[H])C(C([H])([H])[H])(C([H])([H])[H])C([H])([H])[H])C([H])([H])c2c([H])c(OC([H])([H])C([H])([H])N([H])c3c([H])c(C([H])([H])N([H])C(=O)N4C([H])([H])C([H])([H])C([H])([H])C([H])(n5nc(-c6c([H])c([H])c(Oc7c([H])c([H])c(F)c([H])c7F)c([H])c6[H])c(C(=O)N([H])[H])c5N([H])[H])C4([H])[H])n(C([H])(C([H])([H])[H])C([H])([H])[H])c3[H])c([H])c([H])c2C1([H])[H]

>  <smiles>  (18) 
[H]c1c([H])c([H])c2c(c1[H])C([H])([H])C([H])([H])C([H])([H])C2([H])N([H])C(=O)C1([H])N(C(=O)C([H])(N([H])C(=O)C([H])(N([H])C([H])([H])[H])C([H])([H])[H])C(C([H])([H])[H])(C([H])([H])[H])C([H])([H])[H])C([H])([H])c2c([H])c(OC([H])([H])C([H])([H])N([H])c3c([H])c(C([H])([H])N([H])C(=O)N4C([H])([H])C([H])([H])C([H])([H])C([H])(n5nc(-c6c([H])c([H])c(Oc7c([H])c([H])c(F)c([H])c7F)c([H])c6[H])c(C(=O)N([H])[H])c5N([H])[H])C4([H])[H])n(C([H])(C([H])([H])[H])C([H])([H])[H])c3[H])c([H])c([H])c2C1([H])[H]

$$$$
18:0:0
     RDKit          3D

 88 96  0  0  1  0  0  0  0  0999 V2000
  -29.6130  -20.4230   21.3130 C   0  0  0  0  0  3  0  0  0  0  0  0
  -29.1250  -22.8780   21.2510 C   0  0  0  0  0  3  0  0  0  0  0  0
  -29.5130  -21.6940   21.9430 C   0  0  0  0  0  0  0  0  0  0  0  0
  -29.3470  -20.2340   19.9450 C   0  0  0  0  0  0  0  0  0  0  0  0
  -28.7850  -22.8890   19.8830 C   0  0  0  0  0  0  0  0  0  0  0  0
  -29.8140  -21.7890   23.4290 C   0  0  0  0  0  1  0  0  0  0  0  0
  -28.9220  -21.5160   19.2900 N   0  0  0  0  0  0  0  0  0  0  0  0
  -29.6710  -18.6040   19.3060 C   0  0  0  0  0  2  0  0  0  0  0  0
  -30.4140  -15.7310   19.8410 C   0  0  0  0  0  0  0  0  0  0  0  0
  -30.5290  -13.1810   19.2480 C   0  0  0  0  0  2  0  0  0  0  0  0
  -29.6240  -12.7750   18.0550 C   0  0  0  0  0  2  0  0  0  0  0  0
  -28.1970  -12.4630   18.5370 C   0  0  0  0  0  2  0  0  0  0  0  0
  -27.6980  -13.5200   19.5520 C   0  0  0  0  0  3  0  0  0  0  0  0
  -28.7330  -13.8660   20.6440 C   0  0  0  0  0  2  0  0  0  0  0  0
  -29.9260  -14.3850   19.9520 N   0  0  0  0  0  0  0  0  0  0  0  0
  -31.6200  -15.7440   19.5460 O   0  0  0  0  0  0  0  0  0  0  0  0
  -29.6010  -16.9970   19.8690 N   0  0  0  0  0  0  0  0  0  0  0  0
  -28.6700  -16.7980   20.2030 H   0  0  0  0  0  0  0  0  0  0  0  0
  -25.3660  -14.0640   20.4120 C   0  0  0  0  0  0  0  0  0  0  0  0
  -24.3200  -13.2840   20.8140 C   0  0  0  0  0  0  0  0  0  0  0  0
  -24.7830  -11.9330   20.7460 C   0  0  0  0  0  0  0  0  0  0  0  0
  -26.3940  -13.1920   20.1100 N   0  0  0  0  0  0  0  0  0  0  0  0
  -26.0600  -11.9030   20.3790 N   0  0  0  0  0  0  0  0  0  0  0  0
  -24.0610  -10.6690   20.9470 C   0  0  0  0  0  0  0  0  0  0  0  0
  -24.4960   -9.7120   21.8900 C   0  0  0  0  0  3  0  0  0  0  0  0
  -23.7720   -8.5140   22.0810 C   0  0  0  0  0  3  0  0  0  0  0  0
  -22.5980   -8.2670   21.3290 C   0  0  0  0  0  0  0  0  0  0  0  0
  -22.1830   -9.2120   20.3750 C   0  0  0  0  0  3  0  0  0  0  0  0
  -22.9080  -10.4000   20.1840 C   0  0  0  0  0  3  0  0  0  0  0  0
  -21.8440   -7.1220   21.4320 O   0  0  0  0  0  0  0  0  0  0  0  0
  -21.7920   -6.3960   22.5930 C   0  0  0  0  0  0  0  0  0  0  0  0
  -21.3130   -6.9530   23.8000 C   0  0  0  0  0  3  0  0  0  0  0  0
  -21.2090   -6.1500   24.9530 C   0  0  0  0  0  3  0  0  0  0  0  0
  -21.5740   -4.7910   24.9010 C   0  0  0  0  0  0  0  0  0  0  0  0
  -22.0450   -4.2330   23.7000 C   0  0  0  0  0  3  0  0  0  0  0  0
  -22.1520   -5.0340   22.5490 C   0  0  0  0  0  0  0  0  0  0  0  0
  -22.5860   -4.4860   21.3890 F   0  0  0  0  0  0  0  0  0  0  0  0
  -21.4650   -4.0180   26.0070 F   0  0  0  0  0  0  0  0  0  0  0  0
  -22.9360  -13.7580   21.1430 C   0  0  0  0  0  0  0  0  0  0  0  0
  -22.2390  -13.0550   22.0280 N   0  0  0  0  0  0  0  0  0  0  0  0
  -22.4830  -14.7900   20.6500 O   0  0  0  0  0  0  0  0  0  0  0  0
  -22.6160  -12.2180   22.4470 H   0  0  0  0  0  0  0  0  0  0  0  0
  -21.3140  -13.3580   22.2920 H   0  0  0  0  0  0  0  0  0  0  0  0
  -25.5220  -15.4370   20.2460 N   0  0  0  0  0  0  0  0  0  0  0  0
  -24.7570  -16.0870   20.3910 H   0  0  0  0  0  0  0  0  0  0  0  0
  -26.3380  -15.8760   19.8400 H   0  0  0  0  0  0  0  0  0  0  0  0
  -28.0680  -24.4090   19.2710 C   0  0  0  0  0  2  0  0  0  0  0  0
  -28.2010  -26.0520   19.6290 O   0  0  0  0  0  0  0  0  0  0  0  0
  -24.7170  -31.8590   23.0640 C   0  0  0  0  0  0  0  0  0  0  0  0
  -27.1840  -27.1730   19.6210 C   0  0  0  0  0  0  0  0  0  0  0  0
  -23.4530  -30.5200   21.4310 C   0  0  0  0  0  3  0  0  0  0  0  0
  -24.8450  -29.0340   19.8210 C   0  0  0  0  0  0  0  0  0  0  0  0
  -26.0010  -30.7950   21.1340 C   0  0  0  0  0  2  0  0  0  0  0  0
  -26.0610  -29.4200   20.3960 C   0  0  0  0  0  0  0  0  0  0  0  0
  -27.2150  -28.5110   20.2780 C   0  0  0  0  0  3  0  0  0  0  0  0
  -25.9340  -26.9660   18.9880 C   0  0  0  0  0  3  0  0  0  0  0  0
  -24.8110  -27.8340   19.0920 C   0  0  0  0  0  3  0  0  0  0  0  0
  -23.6100  -29.9200   20.0040 C   0  0  0  0  0  2  0  0  0  0  0  0
  -24.7480  -31.0860   21.9290 N   0  0  0  0  0  0  0  0  0  0  0  0
  -23.6580  -32.0900   23.6690 O   0  0  0  0  0  0  0  0  0  0  0  0
  -22.8490  -29.4560   22.3850 C   0  0  0  0  0  0  0  0  0  0  0  0
  -21.5360  -29.1860   22.2680 N   0  0  0  0  0  0  0  0  0  0  0  0
  -23.5680  -28.8760   23.2010 O   0  0  0  0  0  0  0  0  0  0  0  0
  -21.0020  -29.7130   21.5920 H   0  0  0  0  0  0  0  0  0  0  0  0
  -18.2980  -27.5970   22.6910 C   0  0  0  0  0  0  0  0  0  0  0  0
  -20.7990  -28.1670   23.0280 C   0  0  0  0  0  3  0  0  0  0  0  0
  -21.0850  -26.7480   22.4800 C   0  0  0  0  0  2  0  0  0  0  0  0
  -20.0610  -26.2870   21.4370 C   0  0  0  0  0  2  0  0  0  0  0  0
  -18.6530  -26.2730   22.0360 C   0  0  0  0  0  2  0  0  0  0  0  0
  -19.3040  -28.4930   23.1420 C   0  0  0  0  0  0  0  0  0  0  0  0
  -18.9160  -29.7240   23.7150 C   0  0  0  0  0  3  0  0  0  0  0  0
  -17.5560  -30.0620   23.8420 C   0  0  0  0  0  3  0  0  0  0  0  0
  -16.5640  -29.1670   23.4040 C   0  0  0  0  0  3  0  0  0  0  0  0
  -16.9360  -27.9360   22.8350 C   0  0  0  0  0  3  0  0  0  0  0  0
  -26.0100  -32.5080   23.6480 C   0  0  0  0  0  3  0  0  0  0  0  0
  -25.6820  -33.8870   24.0580 N   0  0  0  0  0  0  0  0  0  0  0  0
  -25.9680  -34.9880   23.3510 C   0  0  0  0  0  0  0  0  0  0  0  0
  -26.5940  -34.9520   22.2890 O   0  0  0  0  0  0  0  0  0  0  0  0
  -25.1230  -33.9860   24.8920 H   0  0  0  0  0  0  0  0  0  0  0  0
  -24.1900  -36.7670   23.1950 C   0  0  0  0  0  1  0  0  0  0  0  0
  -25.4860  -36.3450   23.9070 C   0  0  0  0  0  3  0  0  0  0  0  0
  -27.6450  -37.2460   24.6610 C   0  0  0  0  0  1  0  0  0  0  0  0
  -26.4920  -37.4250   23.7820 N   0  0  0  0  0  0  0  0  0  0  0  0
  -26.0760  -38.3300   23.9810 H   0  0  0  0  0  0  0  0  0  0  0  0
  -26.6030  -31.7070   24.8740 C   0  0  1  0  0  0  0  0  0  0  0  0
  -25.5700  -31.4210   25.9890 C   0  0  0  0  0  1  0  0  0  0  0  0
  -27.1850  -30.3490   24.4190 C   0  0  0  0  0  1  0  0  0  0  0  0
  -27.7740  -32.4990   25.5000 C   0  0  0  0  0  1  0  0  0  0  0  0
  1  3  1  0
  2  3  2  0
  3  6  1  0
  4  1  2  0
  5  2  1  0
  7  5  2  0
  7  4  1  0
  8 17  1  0
  8  4  1  0
  9 17  1  0
  9 15  1  0
 10 15  1  0
 11 12  1  0
 11 10  1  0
 13 12  1  0
 13 22  1  0
 13 14  1  0
 15 14  1  0
 16  9  2  0
 17 18  1  0
 19 20  2  0
 20 39  1  0
 21 20  1  0
 21 24  1  0
 22 23  1  0
 22 19  1  0
 23 21  2  0
 24 25  1  0
 25 26  2  0
 27 30  1  0
 27 26  1  0
 28 27  2  0
 29 28  1  0
 29 24  2  0
 30 31  1  0
 31 32  1  0
 32 33  2  0
 34 33  1  0
 34 38  1  0
 35 34  2  0
 36 31  2  0
 36 35  1  0
 37 36  1  0
 39 40  1  0
 40 43  1  0
 40 42  1  0
 41 39  2  0
 44 45  1  0
 44 19  1  0
 46 44  1  0
 47 48  1  0
 47  5  1  0
 49 60  2  0
 50 48  1  0
 50 55  1  0
 51 59  1  0
 51 61  1  0
 52 58  1  0
 52 54  1  0
 53 59  1  0
 54 53  1  0
 55 54  2  0
 56 57  1  0
 56 50  2  0
 57 52  2  0
 58 51  1  0
 59 49  1  0
 61 63  2  0
 62 61  1  0
 64 62  1  0
 65 74  2  0
 65 70  1  0
 66 62  1  0
 66 70  1  0
 67 66  1  0
 68 69  1  0
 68 67  1  0
 69 65  1  0
 70 71  2  0
 71 72  1  0
 73 72  2  0
 74 73  1  0
 75 49  1  0
 75 76  1  0
 75 85  1  0
 76 79  1  0
 77 81  1  0
 77 76  1  0
 78 77  2  0
 81 80  1  0
 83 81  1  0
 83 84  1  0
 83 82  1  0
 85 88  1  1
 85 86  1  0
 87 85  1  0
M  ISO  4   9 100  17 100  47 101  48 101
M  END
>  <TORSDO>  (19) 
F 18

>  <SCORE>  (19) 
-16.317

>  <name>  (19) 
18

>  <ligand_id>  (19) 
18

>  <original_smiles>  (19) 
[H]c1c([H])c([H])c2c(c1[H])C([H])([H])C([H])([H])C([H])([H])C2([H])N([H])C(=O)C1([H])N(C(=O)C([H])(N([H])C(=O)C([H])(N([H])C([H])([H])[H])C([H])([H])[H])C(C([H])([H])[H])(C([H])([H])[H])C([H])([H])[H])C([H])([H])c2c([H])c(OC([H])([H])c3nc(C([H])([H])N([H])C(=O)N4C([H])([H])C([H])([H])C([H])([H])C([H])(n5nc(-c6c([H])c([H])c(Oc7c([H])c([H])c(F)c([H])c7F)c([H])c6[H])c(C(=O)N([H])[H])c5N([H])[H])C4([H])[H])c([H])c(C([H])([H])[H])c3[H])c([H])c([H])c2C1([H])[H]

>  <smiles>  (19) 
[H]c1c([H])c([H])c2c(c1[H])C([H])([H])C([H])([H])C([H])([H])C2([H])N([H])C(=O)C1([H])N(C(=O)C([H])(N([H])C(=O)C([H])(N([H])C([H])([H])[H])C([H])([H])[H])C(C([H])([H])[H])(C([H])([H])[H])C([H])([H])[H])C([H])([H])c2c([H])c(OC([H])([H])c3nc(C([H])([H])N([H])C(=O)N4C([H])([H])C([H])([H])C([H])([H])C([H])(n5nc(-c6c([H])c([H])c(Oc7c([H])c([H])c(F)c([H])c7F)c([H])c6[H])c(C(=O)N([H])[H])c5N([H])[H])C4([H])[H])c([H])c(C([H])([H])[H])c3[H])c([H])c([H])c2C1([H])[H]

$$$$
19:0:0
     RDKit          3D

 94103  0  0  1  0  0  0  0  0999 V2000
  -29.0430  -22.3920   17.8580 C   0  0  0  0  0  3  0  0  0  0  0  0
  -29.2200  -21.1930   18.5720 C   0  0  0  0  0  3  0  0  0  0  0  0
  -28.7600  -23.6080   18.5170 C   0  0  0  0  0  0  0  0  0  0  0  0
  -28.6330  -23.6000   19.9300 C   0  0  0  0  0  0  0  0  0  0  0  0
  -29.1260  -21.1900   19.9700 C   0  0  0  0  0  0  0  0  0  0  0  0
  -28.8330  -22.3890   20.6160 N   0  0  0  0  0  0  0  0  0  0  0  0
  -29.3800  -19.9640   20.7020 N   0  0  0  0  0  0  0  0  0  0  0  0
  -29.3440  -20.0580   21.7100 H   0  0  0  0  0  0  0  0  0  0  0  0
  -29.3100  -25.0670   16.3870 C   0  0  0  0  0  2  0  0  0  0  0  0
  -29.6300  -25.9140   17.5920 C   0  0  0  0  0  2  0  0  0  0  0  0
  -28.5620  -24.8480   17.6880 C   0  0  0  0  0  3  0  0  0  0  0  0
  -28.1270  -24.9090   20.7210 C   0  0  0  0  0  2  0  0  0  0  0  0
  -28.3440  -26.3300   20.2480 O   0  0  0  0  0  0  0  0  0  0  0  0
  -24.6190  -31.8550   23.1990 C   0  0  0  0  0  0  0  0  0  0  0  0
  -27.2460  -27.2240   20.2220 C   0  0  0  0  0  0  0  0  0  0  0  0
  -23.4310  -30.4410   21.5630 C   0  0  0  0  0  3  0  0  0  0  0  0
  -24.8930  -28.8730   20.1620 C   0  0  0  0  0  0  0  0  0  0  0  0
  -25.9760  -30.7500   21.3960 C   0  0  0  0  0  2  0  0  0  0  0  0
  -26.0630  -29.3610   20.7620 C   0  0  0  0  0  0  0  0  0  0  0  0
  -27.2460  -28.5520   20.7710 C   0  0  0  0  0  3  0  0  0  0  0  0
  -26.0540  -26.8020   19.5970 C   0  0  0  0  0  3  0  0  0  0  0  0
  -24.8950  -27.6020   19.5670 C   0  0  0  0  0  3  0  0  0  0  0  0
  -23.6570  -29.7520   20.1920 C   0  0  0  0  0  2  0  0  0  0  0  0
  -24.6960  -31.0350   22.1090 N   0  0  0  0  0  0  0  0  0  0  0  0
  -23.5320  -32.1350   23.7230 O   0  0  0  0  0  0  0  0  0  0  0  0
  -22.7610  -29.4350   22.5290 C   0  0  0  0  0  0  0  0  0  0  0  0
  -21.4310  -29.2710   22.4100 N   0  0  0  0  0  0  0  0  0  0  0  0
  -23.4350  -28.8010   23.3460 O   0  0  0  0  0  0  0  0  0  0  0  0
  -20.9450  -29.8320   21.7250 H   0  0  0  0  0  0  0  0  0  0  0  0
  -18.0430  -28.1190   22.9450 C   0  0  0  0  0  0  0  0  0  0  0  0
  -20.6070  -28.3430   23.1870 C   0  0  0  0  0  3  0  0  0  0  0  0
  -20.6820  -26.9110   22.6070 C   0  0  0  0  0  2  0  0  0  0  0  0
  -19.5660  -26.6080   21.6030 C   0  0  0  0  0  2  0  0  0  0  0  0
  -18.1930  -26.7700   22.2620 C   0  0  0  0  0  2  0  0  0  0  0  0
  -19.1760  -28.8640   23.3660 C   0  0  0  0  0  0  0  0  0  0  0  0
  -18.9800  -30.1270   23.9650 C   0  0  0  0  0  3  0  0  0  0  0  0
  -17.6840  -30.6440   24.1490 C   0  0  0  0  0  3  0  0  0  0  0  0
  -16.5650  -29.8960   23.7440 C   0  0  0  0  0  3  0  0  0  0  0  0
  -16.7450  -28.6350   23.1480 C   0  0  0  0  0  3  0  0  0  0  0  0
  -25.8940  -32.4980   23.8260 C   0  0  0  0  0  3  0  0  0  0  0  0
  -26.4050  -31.7390   25.1130 C   0  0  1  0  0  0  0  0  0  0  0  0
  -25.3060  -31.5080   26.1770 C   0  0  0  0  0  1  0  0  0  0  0  0
  -26.9930  -30.3600   24.7370 C   0  0  0  0  0  1  0  0  0  0  0  0
  -27.5490  -32.5430   25.7740 C   0  0  0  0  0  1  0  0  0  0  0  0
  -25.5770  -33.8980   24.1460 N   0  0  0  0  0  0  0  0  0  0  0  0
  -25.9020  -34.9480   23.3800 C   0  0  0  0  0  0  0  0  0  0  0  0
  -26.5700  -34.8410   22.3480 O   0  0  0  0  0  0  0  0  0  0  0  0
  -24.9850  -34.0560   24.9480 H   0  0  0  0  0  0  0  0  0  0  0  0
  -24.1610  -36.7290   23.0270 C   0  0  0  0  0  1  0  0  0  0  0  0
  -25.4110  -36.3390   23.8300 C   0  0  0  0  0  3  0  0  0  0  0  0
  -27.5460  -37.2460   24.6360 C   0  0  0  0  0  1  0  0  0  0  0  0
  -26.4350  -37.3970   23.6980 N   0  0  0  0  0  0  0  0  0  0  0  0
  -26.0250  -38.3160   23.8400 H   0  0  0  0  0  0  0  0  0  0  0  0
  -29.2180  -18.5260   20.2050 C   0  0  0  0  0  2  0  0  0  0  0  0
  -30.5670  -17.5740   22.2110 C   0  0  0  0  0  1  0  0  0  0  0  0
  -30.2240  -17.3500   20.7280 C   0  0  0  0  0  3  0  0  0  0  0  0
  -30.5830  -14.7360   20.3390 C   0  0  0  0  0  0  0  0  0  0  0  0
  -30.3890  -12.4470   19.3380 C   0  0  0  0  0  2  0  0  0  0  0  0
  -29.4520  -12.4920   18.1100 C   0  0  0  0  0  2  0  0  0  0  0  0
  -27.9830  -12.3210   18.5410 C   0  0  0  0  0  2  0  0  0  0  0  0
  -27.6040  -13.2290   19.7420 C   0  0  0  0  0  3  0  0  0  0  0  0
  -28.6580  -13.1570   20.8670 C   0  0  0  0  0  2  0  0  0  0  0  0
  -29.9510  -13.5120   20.2690 N   0  0  0  0  0  0  0  0  0  0  0  0
  -31.7740  -14.8250   20.0290 O   0  0  0  0  0  0  0  0  0  0  0  0
  -29.8170  -15.8750   20.5720 N   0  0  0  0  0  0  0  0  0  0  0  0
  -28.8390  -15.6860   20.7290 H   0  0  0  0  0  0  0  0  0  0  0  0
  -25.2200  -13.8370   20.4600 C   0  0  0  0  0  0  0  0  0  0  0  0
  -24.1490  -13.0720   20.8320 C   0  0  0  0  0  0  0  0  0  0  0  0
  -24.6050  -11.7180   20.8110 C   0  0  0  0  0  0  0  0  0  0  0  0
  -26.2590  -12.9500   20.2310 N   0  0  0  0  0  0  0  0  0  0  0  0
  -25.8970  -11.6710   20.5060 N   0  0  0  0  0  0  0  0  0  0  0  0
  -23.8700  -10.4610   21.0040 C   0  0  0  0  0  0  0  0  0  0  0  0
  -24.2920   -9.4970   21.9480 C   0  0  0  0  0  3  0  0  0  0  0  0
  -23.5580   -8.3050   22.1280 C   0  0  0  0  0  3  0  0  0  0  0  0
  -22.3890   -8.0680   21.3650 C   0  0  0  0  0  0  0  0  0  0  0  0
  -21.9880   -9.0200   20.4120 C   0  0  0  0  0  3  0  0  0  0  0  0
  -22.7220  -10.2040   20.2290 C   0  0  0  0  0  3  0  0  0  0  0  0
  -21.6270   -6.9280   21.4560 O   0  0  0  0  0  0  0  0  0  0  0  0
  -21.5600   -6.1980   22.6170 C   0  0  0  0  0  0  0  0  0  0  0  0
  -21.1150   -6.7650   23.8300 C   0  0  0  0  0  3  0  0  0  0  0  0
  -20.9960   -5.9610   24.9810 C   0  0  0  0  0  3  0  0  0  0  0  0
  -21.3110   -4.5910   24.9190 C   0  0  0  0  0  0  0  0  0  0  0  0
  -21.7490   -4.0230   23.7100 C   0  0  0  0  0  3  0  0  0  0  0  0
  -21.8700   -4.8240   22.5620 C   0  0  0  0  0  0  0  0  0  0  0  0
  -22.2730   -4.2680   21.3930 F   0  0  0  0  0  0  0  0  0  0  0  0
  -21.1890   -3.8160   26.0220 F   0  0  0  0  0  0  0  0  0  0  0  0
  -22.7530  -13.5590   21.0950 C   0  0  0  0  0  0  0  0  0  0  0  0
  -22.0170  -12.8720   21.9610 N   0  0  0  0  0  0  0  0  0  0  0  0
  -22.3240  -14.5830   20.5650 O   0  0  0  0  0  0  0  0  0  0  0  0
  -22.3780  -12.0420   22.4100 H   0  0  0  0  0  0  0  0  0  0  0  0
  -21.0800  -13.1800   22.1800 H   0  0  0  0  0  0  0  0  0  0  0  0
  -25.3910  -15.2050   20.2720 N   0  0  0  0  0  0  0  0  0  0  0  0
  -24.6220  -15.8590   20.3660 H   0  0  0  0  0  0  0  0  0  0  0  0
  -26.2290  -15.6320   19.8990 H   0  0  0  0  0  0  0  0  0  0  0  0
  1  3  2  0
  1  2  1  0
  2  5  2  0
  3  4  1  0
  4  6  2  0
  4 12  1  0
  5  6  1  0
  5  7  1  0
  7  8  1  0
  9 10  1  0
  9 11  1  0
 10 11  1  0
 11  3  1  0
 13 12  1  0
 14 25  2  0
 15 13  1  0
 15 20  1  0
 16 24  1  0
 16 26  1  0
 17 23  1  0
 17 19  1  0
 18 24  1  0
 19 20  2  0
 19 18  1  0
 21 15  2  0
 22 21  1  0
 22 17  2  0
 23 16  1  0
 24 14  1  0
 26 28  2  0
 27 26  1  0
 29 27  1  0
 30 39  2  0
 30 35  1  0
 31 27  1  0
 31 35  1  0
 32 31  1  0
 33 34  1  0
 33 32  1  0
 34 30  1  0
 35 36  2  0
 36 37  1  0
 38 37  2  0
 39 38  1  0
 40 14  1  0
 40 45  1  0
 40 41  1  0
 41 44  1  1
 41 42  1  0
 43 41  1  0
 45 48  1  0
 46 50  1  0
 46 45  1  0
 47 46  2  0
 50 49  1  0
 52 50  1  0
 52 53  1  0
 52 51  1  0
 54  7  1  0
 54 56  1  0
 56 55  1  0
 57 65  1  0
 58 63  1  0
 59 60  1  0
 59 58  1  0
 61 60  1  0
 61 70  1  0
 61 62  1  0
 63 57  1  0
 63 62  1  0
 64 57  2  0
 65 56  1  0
 65 66  1  0
 67 68  2  0
 68 87  1  0
 69 68  1  0
 69 72  1  0
 70 67  1  0
 70 71  1  0
 71 69  2  0
 72 73  1  0
 73 74  2  0
 75 78  1  0
 75 74  1  0
 76 75  2  0
 77 76  1  0
 77 72  2  0
 78 79  1  0
 79 80  1  0
 80 81  2  0
 82 81  1  0
 82 86  1  0
 83 82  2  0
 84 79  2  0
 84 83  1  0
 85 84  1  0
 87 88  1  0
 88 91  1  0
 88 90  1  0
 89 87  2  0
 92 93  1  0
 92 67  1  0
 94 92  1  0
M  ISO  4  12 101  13 101  57 100  65 100
M  END
>  <TORSDO>  (20) 
F 20

>  <SCORE>  (20) 
-13.881

>  <name>  (20) 
19

>  <ligand_id>  (20) 
19

>  <original_smiles>  (20) 
[H]c1c(N([H])C([H])([H])C([H])(N([H])C(=O)N2C([H])([H])C([H])([H])C([H])([H])C([H])(n3nc(-c4c([H])c([H])c(Oc5c([H])c([H])c(F)c([H])c5F)c([H])c4[H])c(C(=O)N([H])[H])c3N([H])[H])C2([H])[H])C([H])([H])[H])nc(C([H])([H])Oc2c([H])c([H])c3c(c2[H])C([H])([H])N(C(=O)C([H])(N([H])C(=O)C([H])(N([H])C([H])([H])[H])C([H])([H])[H])C(C([H])([H])[H])(C([H])([H])[H])C([H])([H])[H])C([H])(C(=O)N([H])C2([H])c4c([H])c([H])c([H])c([H])c4C([H])([H])C([H])([H])C2([H])[H])C3([H])[H])c(C2([H])C([H])([H])C2([H])[H])c1[H]

>  <smiles>  (20) 
[H]c1c(N([H])C([H])([H])C([H])(N([H])C(=O)N2C([H])([H])C([H])([H])C([H])([H])C([H])(n3nc(-c4c([H])c([H])c(Oc5c([H])c([H])c(F)c([H])c5F)c([H])c4[H])c(C(=O)N([H])[H])c3N([H])[H])C2([H])[H])C([H])([H])[H])nc(C([H])([H])Oc2c([H])c([H])c3c(c2[H])C([H])([H])N(C(=O)C([H])(N([H])C(=O)C([H])(N([H])C([H])([H])[H])C([H])([H])[H])C(C([H])([H])[H])(C([H])([H])[H])C([H])([H])[H])C([H])(C(=O)N([H])C2([H])c4c([H])c([H])c([H])c([H])c4C([H])([H])C([H])([H])C2([H])[H])C3([H])[H])c(C2([H])C([H])([H])C2([H])[H])c1[H]

$$$$
20:0:0
     RDKit          3D

 90 98  0  0  1  0  0  0  0  0999 V2000
  -28.3400  -22.7080   19.0330 C   0  0  0  0  0  3  0  0  0  0  0  0
  -29.2140  -23.4980   21.1220 C   0  0  0  0  0  3  0  0  0  0  0  0
  -28.6400  -21.3550   19.3900 C   0  0  0  0  0  3  0  0  0  0  0  0
  -29.5170  -22.1460   21.4810 C   0  0  0  0  0  3  0  0  0  0  0  0
  -28.6330  -23.8230   19.8710 C   0  0  0  0  0  0  0  0  0  0  0  0
  -29.2610  -21.0350   20.6230 C   0  0  0  0  0  0  0  0  0  0  0  0
  -29.6720  -19.7170   21.0220 N   0  0  0  0  0  0  0  0  0  0  0  0
  -30.2310  -19.6680   21.8720 H   0  0  0  0  0  0  0  0  0  0  0  0
  -29.3750  -18.3900   20.3930 C   0  0  0  0  0  2  0  0  0  0  0  0
  -30.2660  -17.1880   20.9620 C   0  0  0  0  0  2  0  0  0  0  0  0
  -30.5760  -14.6620   20.4620 C   0  0  0  0  0  0  0  0  0  0  0  0
  -30.3660  -12.4260   19.3900 C   0  0  0  0  0  2  0  0  0  0  0  0
  -29.4300  -12.5500   18.1670 C   0  0  0  0  0  2  0  0  0  0  0  0
  -27.9590  -12.3780   18.5900 C   0  0  0  0  0  2  0  0  0  0  0  0
  -27.5880  -13.2350   19.8290 C   0  0  0  0  0  3  0  0  0  0  0  0
  -28.6420  -13.0990   20.9500 C   0  0  0  0  0  2  0  0  0  0  0  0
  -29.9440  -13.4500   20.3690 N   0  0  0  0  0  0  0  0  0  0  0  0
  -31.7490  -14.7950   20.1050 O   0  0  0  0  0  0  0  0  0  0  0  0
  -29.8150  -15.7590   20.7870 N   0  0  0  0  0  0  0  0  0  0  0  0
  -28.8550  -15.5640   21.0260 H   0  0  0  0  0  0  0  0  0  0  0  0
  -25.1870  -13.8010   20.5340 C   0  0  0  0  0  0  0  0  0  0  0  0
  -24.1280  -13.0150   20.8950 C   0  0  0  0  0  0  0  0  0  0  0  0
  -24.6080  -11.6690   20.8710 C   0  0  0  0  0  0  0  0  0  0  0  0
  -26.2420  -12.9340   20.3080 N   0  0  0  0  0  0  0  0  0  0  0  0
  -25.9010  -11.6470   20.5730 N   0  0  0  0  0  0  0  0  0  0  0  0
  -23.8960  -10.3980   21.0600 C   0  0  0  0  0  0  0  0  0  0  0  0
  -24.3410   -9.4320   21.9880 C   0  0  0  0  0  3  0  0  0  0  0  0
  -23.6280   -8.2260   22.1620 C   0  0  0  0  0  3  0  0  0  0  0  0
  -22.4580   -7.9780   21.4060 C   0  0  0  0  0  0  0  0  0  0  0  0
  -22.0330   -8.9330   20.4660 C   0  0  0  0  0  3  0  0  0  0  0  0
  -22.7460  -10.1300   20.2900 C   0  0  0  0  0  3  0  0  0  0  0  0
  -21.7150   -6.8250   21.4900 O   0  0  0  0  0  0  0  0  0  0  0  0
  -21.6820   -6.0730   22.6360 C   0  0  0  0  0  0  0  0  0  0  0  0
  -21.2600   -6.6140   23.8710 C   0  0  0  0  0  3  0  0  0  0  0  0
  -21.1740   -5.7880   25.0090 C   0  0  0  0  0  3  0  0  0  0  0  0
  -21.5020   -4.4220   24.9150 C   0  0  0  0  0  0  0  0  0  0  0  0
  -21.9170   -3.8820   23.6860 C   0  0  0  0  0  3  0  0  0  0  0  0
  -22.0050   -4.7040   22.5500 C   0  0  0  0  0  0  0  0  0  0  0  0
  -22.3870   -4.1730   21.3630 F   0  0  0  0  0  0  0  0  0  0  0  0
  -21.4120   -3.6270   26.0070 F   0  0  0  0  0  0  0  0  0  0  0  0
  -22.7240  -13.4740   21.1590 C   0  0  0  0  0  0  0  0  0  0  0  0
  -22.0010  -12.7660   22.0210 N   0  0  0  0  0  0  0  0  0  0  0  0
  -22.2760  -14.4950   20.6400 O   0  0  0  0  0  0  0  0  0  0  0  0
  -22.3760  -11.9340   22.4540 H   0  0  0  0  0  0  0  0  0  0  0  0
  -21.0630  -13.0570   22.2500 H   0  0  0  0  0  0  0  0  0  0  0  0
  -25.3340  -15.1740   20.3540 N   0  0  0  0  0  0  0  0  0  0  0  0
  -24.5570  -15.8170   20.4530 H   0  0  0  0  0  0  0  0  0  0  0  0
  -26.1730  -15.6190   20.0050 H   0  0  0  0  0  0  0  0  0  0  0  0
  -28.4780  -25.2930   19.3160 C   0  0  0  0  0  2  0  0  0  0  0  0
  -28.3350  -26.4720   20.1990 O   0  0  0  0  0  0  0  0  0  0  0  0
  -24.6130  -31.8710   23.2350 C   0  0  0  0  0  0  0  0  0  0  0  0
  -27.2050  -27.3090   20.1440 C   0  0  0  0  0  0  0  0  0  0  0  0
  -23.4040  -30.4740   21.5990 C   0  0  0  0  0  3  0  0  0  0  0  0
  -24.8460  -28.9310   20.1610 C   0  0  0  0  0  0  0  0  0  0  0  0
  -25.9430  -30.7860   21.4090 C   0  0  0  0  0  2  0  0  0  0  0  0
  -26.0170  -29.4090   20.7580 C   0  0  0  0  0  0  0  0  0  0  0  0
  -27.1970  -28.6080   20.7440 C   0  0  0  0  0  3  0  0  0  0  0  0
  -25.9980  -26.8740   19.5520 C   0  0  0  0  0  3  0  0  0  0  0  0
  -24.8400  -27.6700   19.5470 C   0  0  0  0  0  3  0  0  0  0  0  0
  -23.6120  -29.8080   20.2140 C   0  0  0  0  0  2  0  0  0  0  0  0
  -24.6730  -31.0610   22.1380 N   0  0  0  0  0  0  0  0  0  0  0  0
  -23.5310  -32.1500   23.7700 O   0  0  0  0  0  0  0  0  0  0  0  0
  -22.7430  -29.4540   22.5600 C   0  0  0  0  0  0  0  0  0  0  0  0
  -21.4170  -29.2770   22.4420 N   0  0  0  0  0  0  0  0  0  0  0  0
  -23.4250  -28.8270   23.3750 O   0  0  0  0  0  0  0  0  0  0  0  0
  -20.9230  -29.8420   21.7650 H   0  0  0  0  0  0  0  0  0  0  0  0
  -18.0420  -28.0640   22.9340 C   0  0  0  0  0  0  0  0  0  0  0  0
  -20.5990  -28.3380   23.2130 C   0  0  0  0  0  3  0  0  0  0  0  0
  -20.7090  -26.9020   22.6440 C   0  0  0  0  0  2  0  0  0  0  0  0
  -19.6120  -26.5680   21.6300 C   0  0  0  0  0  2  0  0  0  0  0  0
  -18.2270  -26.7120   22.2670 C   0  0  0  0  0  2  0  0  0  0  0  0
  -19.1570  -28.8350   23.3630 C   0  0  0  0  0  0  0  0  0  0  0  0
  -18.9310  -30.1010   23.9460 C   0  0  0  0  0  3  0  0  0  0  0  0
  -17.6220  -30.5950   24.1060 C   0  0  0  0  0  3  0  0  0  0  0  0
  -16.5230  -29.8210   23.6940 C   0  0  0  0  0  3  0  0  0  0  0  0
  -16.7340  -28.5580   23.1130 C   0  0  0  0  0  3  0  0  0  0  0  0
  -25.8970  -32.5040   23.8520 C   0  0  0  0  0  3  0  0  0  0  0  0
  -26.4170  -31.7380   25.1320 C   0  0  1  0  0  0  0  0  0  0  0  0
  -25.3260  -31.5080   26.2060 C   0  0  0  0  0  1  0  0  0  0  0  0
  -26.9980  -30.3570   24.7460 C   0  0  0  0  0  1  0  0  0  0  0  0
  -27.5700  -32.5360   25.7880 C   0  0  0  0  0  1  0  0  0  0  0  0
  -25.5900  -33.9030   24.1790 N   0  0  0  0  0  0  0  0  0  0  0  0
  -25.9210  -34.9560   23.4210 C   0  0  0  0  0  0  0  0  0  0  0  0
  -26.5880  -34.8510   22.3870 O   0  0  0  0  0  0  0  0  0  0  0  0
  -25.0030  -34.0600   24.9860 H   0  0  0  0  0  0  0  0  0  0  0  0
  -24.1970  -36.7570   23.0680 C   0  0  0  0  0  1  0  0  0  0  0  0
  -25.4360  -36.3440   23.8790 C   0  0  0  0  0  3  0  0  0  0  0  0
  -27.5750  -37.2210   24.7090 C   0  0  0  0  0  1  0  0  0  0  0  0
  -26.4680  -37.3990   23.7730 N   0  0  0  0  0  0  0  0  0  0  0  0
  -26.0610  -38.3160   23.9390 H   0  0  0  0  0  0  0  0  0  0  0  0
  1  3  2  0
  1  5  1  0
  2  4  1  0
  3  6  1  0
  5  2  2  0
  6  7  1  0
  6  4  2  0
  7  8  1  0
  9 10  1  0
  9  7  1  0
 11 19  1  0
 12 17  1  0
 13 14  1  0
 13 12  1  0
 15 14  1  0
 15 24  1  0
 15 16  1  0
 17 11  1  0
 17 16  1  0
 18 11  2  0
 19 10  1  0
 19 20  1  0
 21 22  2  0
 22 41  1  0
 23 22  1  0
 23 26  1  0
 24 21  1  0
 24 25  1  0
 25 23  2  0
 26 27  1  0
 27 28  2  0
 29 32  1  0
 29 28  1  0
 30 29  2  0
 31 30  1  0
 31 26  2  0
 32 33  1  0
 33 34  1  0
 34 35  2  0
 36 35  1  0
 36 40  1  0
 37 36  2  0
 38 33  2  0
 38 37  1  0
 39 38  1  0
 41 42  1  0
 42 45  1  0
 42 44  1  0
 43 41  2  0
 46 47  1  0
 46 21  1  0
 48 46  1  0
 49  5  1  0
 49 50  1  0
 51 62  2  0
 52 50  1  0
 52 57  1  0
 53 61  1  0
 53 63  1  0
 54 60  1  0
 54 56  1  0
 55 61  1  0
 56 55  1  0
 57 56  2  0
 58 52  2  0
 59 58  1  0
 59 54  2  0
 60 53  1  0
 61 51  1  0
 63 65  2  0
 64 63  1  0
 66 64  1  0
 67 76  2  0
 67 72  1  0
 68 64  1  0
 68 72  1  0
 69 68  1  0
 70 71  1  0
 70 69  1  0
 71 67  1  0
 72 73  2  0
 73 74  1  0
 75 74  2  0
 76 75  1  0
 77 51  1  0
 77 82  1  0
 77 78  1  0
 78 81  1  1
 78 79  1  0
 80 78  1  0
 82 85  1  0
 83 87  1  0
 83 82  1  0
 84 83  2  0
 87 86  1  0
 89 87  1  0
 89 90  1  0
 89 88  1  0
M  ISO  4  11 100  19 100  49 101  50 101
M  END
>  <TORSDO>  (21) 
F 20

>  <SCORE>  (21) 
-13.896

>  <name>  (21) 
20

>  <ligand_id>  (21) 
20

>  <original_smiles>  (21) 
[H]c1c([H])c([H])c2c(c1[H])C([H])([H])C([H])([H])C([H])([H])C2([H])N([H])C(=O)C1([H])N(C(=O)C([H])(N([H])C(=O)C([H])(N([H])C([H])([H])[H])C([H])([H])[H])C(C([H])([H])[H])(C([H])([H])[H])C([H])([H])[H])C([H])([H])c2c([H])c(OC([H])([H])c3c([H])c([H])c(N([H])C([H])([H])C([H])([H])N([H])C(=O)N4C([H])([H])C([H])([H])C([H])([H])C([H])(n5nc(-c6c([H])c([H])c(Oc7c([H])c([H])c(F)c([H])c7F)c([H])c6[H])c(C(=O)N([H])[H])c5N([H])[H])C4([H])[H])c([H])c3[H])c([H])c([H])c2C1([H])[H]

>  <smiles>  (21) 
[H]c1c([H])c([H])c2c(c1[H])C([H])([H])C([H])([H])C([H])([H])C2([H])N([H])C(=O)C1([H])N(C(=O)C([H])(N([H])C(=O)C([H])(N([H])C([H])([H])[H])C([H])([H])[H])C(C([H])([H])[H])(C([H])([H])[H])C([H])([H])[H])C([H])([H])c2c([H])c(OC([H])([H])c3c([H])c([H])c(N([H])C([H])([H])C([H])([H])N([H])C(=O)N4C([H])([H])C([H])([H])C([H])([H])C([H])(n5nc(-c6c([H])c([H])c(Oc7c([H])c([H])c(F)c([H])c7F)c([H])c6[H])c(C(=O)N([H])[H])c5N([H])[H])C4([H])[H])c([H])c3[H])c([H])c([H])c2C1([H])[H]

$$$$
21:0:0
     RDKit          3D

 93101  0  0  1  0  0  0  0  0999 V2000
  -28.8150  -18.7590   20.5290 C   0  0  0  0  0  2  0  0  0  0  0  0
  -30.6380  -19.5600   18.7970 C   0  0  0  0  0  2  0  0  0  0  0  0
  -28.4870  -20.2880   20.7190 C   0  0  0  0  0  2  0  0  0  0  0  0
  -30.2970  -21.0160   19.2260 C   0  0  0  0  0  2  0  0  0  0  0  0
  -29.8580  -18.3370   19.4420 C   0  0  0  0  0  3  0  0  0  0  0  0
  -28.8070  -21.1890   19.5030 C   0  0  0  0  0  3  0  0  0  0  0  0
  -31.5980  -16.7360   18.4840 C   0  0  0  0  0  1  0  0  0  0  0  0
  -31.7440  -17.5310   20.9250 C   0  0  0  0  0  1  0  0  0  0  0  0
  -30.7990  -17.0850   19.7840 C   0  0  1  0  0  0  0  0  0  0  0  0
  -30.7170  -14.5870   20.3560 C   0  0  0  0  0  0  0  0  0  0  0  0
  -30.3110  -12.3890   19.3530 C   0  0  0  0  0  2  0  0  0  0  0  0
  -29.4150  -12.5640   18.1150 C   0  0  0  0  0  2  0  0  0  0  0  0
  -27.9420  -12.4280   18.5440 C   0  0  0  0  0  2  0  0  0  0  0  0
  -27.5740  -13.3250   19.7610 C   0  0  0  0  0  3  0  0  0  0  0  0
  -28.6280  -13.2610   20.8870 C   0  0  0  0  0  2  0  0  0  0  0  0
  -29.9500  -13.4680   20.2870 N   0  0  0  0  0  0  0  0  0  0  0  0
  -31.9350  -14.4990   20.2260 O   0  0  0  0  0  0  0  0  0  0  0  0
  -30.1120  -15.8110   20.2300 N   0  0  0  0  0  0  0  0  0  0  0  0
  -29.1080  -15.8340   20.3260 H   0  0  0  0  0  0  0  0  0  0  0  0
  -25.1930  -13.9200   20.5090 C   0  0  0  0  0  0  0  0  0  0  0  0
  -24.1220  -13.1500   20.8740 C   0  0  0  0  0  0  0  0  0  0  0  0
  -24.5860  -11.7980   20.8530 C   0  0  0  0  0  0  0  0  0  0  0  0
  -26.2330  -13.0400   20.2680 N   0  0  0  0  0  0  0  0  0  0  0  0
  -25.8760  -11.7570   20.5410 N   0  0  0  0  0  0  0  0  0  0  0  0
  -23.8540  -10.5370   21.0480 C   0  0  0  0  0  0  0  0  0  0  0  0
  -24.2830   -9.5690   21.9820 C   0  0  0  0  0  3  0  0  0  0  0  0
  -23.5500   -8.3760   22.1580 C   0  0  0  0  0  3  0  0  0  0  0  0
  -22.3750   -8.1470   21.4050 C   0  0  0  0  0  0  0  0  0  0  0  0
  -21.9690   -9.1040   20.4590 C   0  0  0  0  0  3  0  0  0  0  0  0
  -22.7010  -10.2870   20.2820 C   0  0  0  0  0  3  0  0  0  0  0  0
  -21.6120   -7.0060   21.4920 O   0  0  0  0  0  0  0  0  0  0  0  0
  -21.5620   -6.2600   22.6430 C   0  0  0  0  0  0  0  0  0  0  0  0
  -21.1340   -6.8160   23.8700 C   0  0  0  0  0  3  0  0  0  0  0  0
  -21.0250   -5.9980   25.0120 C   0  0  0  0  0  3  0  0  0  0  0  0
  -21.3380   -4.6270   24.9310 C   0  0  0  0  0  0  0  0  0  0  0  0
  -21.7610   -4.0710   23.7090 C   0  0  0  0  0  3  0  0  0  0  0  0
  -21.8690   -4.8880   22.5690 C   0  0  0  0  0  0  0  0  0  0  0  0
  -22.2570   -4.3460   21.3910 F   0  0  0  0  0  0  0  0  0  0  0  0
  -21.2290   -3.8380   26.0260 F   0  0  0  0  0  0  0  0  0  0  0  0
  -22.7290  -13.6340   21.1350 C   0  0  0  0  0  0  0  0  0  0  0  0
  -21.9920  -12.9510   22.0040 N   0  0  0  0  0  0  0  0  0  0  0  0
  -22.3020  -14.6610   20.6080 O   0  0  0  0  0  0  0  0  0  0  0  0
  -22.3430  -12.1230   22.4600 H   0  0  0  0  0  0  0  0  0  0  0  0
  -21.0580  -13.2730   22.2140 H   0  0  0  0  0  0  0  0  0  0  0  0
  -25.3650  -15.2890   20.3300 N   0  0  0  0  0  0  0  0  0  0  0  0
  -24.5980  -15.9500   20.3950 H   0  0  0  0  0  0  0  0  0  0  0  0
  -26.2180  -15.7030   19.9780 H   0  0  0  0  0  0  0  0  0  0  0  0
  -28.2630  -22.6020   19.5450 N   0  0  0  0  0  4  0  0  0  0  0  0
  -28.1120  -22.8330   18.5730 H   0  0  0  0  0  0  0  0  0  0  0  0
  -27.3410  -22.5340   19.9470 H   0  0  0  0  0  0  0  0  0  0  0  0
  -28.9490  -23.8280   20.1220 C   0  0  0  0  0  2  0  0  0  0  0  0
  -28.0640  -25.1060   19.8100 C   0  0  0  0  0  2  0  0  0  0  0  0
  -28.3230  -26.5060   20.2140 O   0  0  0  0  0  0  0  0  0  0  0  0
  -24.6100  -31.9030   23.2580 C   0  0  0  0  0  0  0  0  0  0  0  0
  -27.2180  -27.3800   20.1550 C   0  0  0  0  0  0  0  0  0  0  0  0
  -23.4010  -30.5130   21.6150 C   0  0  0  0  0  3  0  0  0  0  0  0
  -24.8470  -28.9840   20.1760 C   0  0  0  0  0  0  0  0  0  0  0  0
  -25.9400  -30.8400   21.4230 C   0  0  0  0  0  2  0  0  0  0  0  0
  -26.0190  -29.4670   20.7720 C   0  0  0  0  0  0  0  0  0  0  0  0
  -27.2070  -28.6740   20.7570 C   0  0  0  0  0  3  0  0  0  0  0  0
  -26.0220  -26.9740   19.5060 C   0  0  0  0  0  3  0  0  0  0  0  0
  -24.8520  -27.7400   19.5340 C   0  0  0  0  0  3  0  0  0  0  0  0
  -23.6080  -29.8460   20.2330 C   0  0  0  0  0  2  0  0  0  0  0  0
  -24.6710  -31.1010   22.1560 N   0  0  0  0  0  0  0  0  0  0  0  0
  -23.5290  -32.1760   23.7960 O   0  0  0  0  0  0  0  0  0  0  0  0
  -22.7430  -29.4890   22.5730 C   0  0  0  0  0  0  0  0  0  0  0  0
  -21.4160  -29.3110   22.4460 N   0  0  0  0  0  0  0  0  0  0  0  0
  -23.4220  -28.8610   23.3880 O   0  0  0  0  0  0  0  0  0  0  0  0
  -20.9260  -29.8720   21.7640 H   0  0  0  0  0  0  0  0  0  0  0  0
  -18.0380  -28.1110   22.9460 C   0  0  0  0  0  0  0  0  0  0  0  0
  -20.5980  -28.3710   23.2140 C   0  0  0  0  0  3  0  0  0  0  0  0
  -20.6960  -26.9380   22.6370 C   0  0  0  0  0  2  0  0  0  0  0  0
  -19.5930  -26.6180   21.6240 C   0  0  0  0  0  2  0  0  0  0  0  0
  -18.2140  -26.7610   22.2710 C   0  0  0  0  0  2  0  0  0  0  0  0
  -19.1570  -28.8720   23.3750 C   0  0  0  0  0  0  0  0  0  0  0  0
  -18.9380  -30.1350   23.9690 C   0  0  0  0  0  3  0  0  0  0  0  0
  -17.6330  -30.6340   24.1410 C   0  0  0  0  0  3  0  0  0  0  0  0
  -16.5290  -29.8700   23.7260 C   0  0  0  0  0  3  0  0  0  0  0  0
  -16.7320  -28.6110   23.1320 C   0  0  0  0  0  3  0  0  0  0  0  0
  -25.8960  -32.5290   23.8790 C   0  0  0  0  0  3  0  0  0  0  0  0
  -26.4120  -31.7530   25.1530 C   0  0  1  0  0  0  0  0  0  0  0  0
  -25.3190  -31.5160   26.2210 C   0  0  0  0  0  1  0  0  0  0  0  0
  -26.9890  -30.3730   24.7600 C   0  0  0  0  0  1  0  0  0  0  0  0
  -27.5710  -32.5400   25.8110 C   0  0  0  0  0  1  0  0  0  0  0  0
  -25.5920  -33.9280   24.2110 N   0  0  0  0  0  0  0  0  0  0  0  0
  -25.9150  -34.9790   23.4460 C   0  0  0  0  0  0  0  0  0  0  0  0
  -26.5720  -34.8730   22.4070 O   0  0  0  0  0  0  0  0  0  0  0  0
  -25.0060  -34.0840   25.0180 H   0  0  0  0  0  0  0  0  0  0  0  0
  -24.1810  -36.7690   23.1110 C   0  0  0  0  0  1  0  0  0  0  0  0
  -25.4340  -36.3690   23.9050 C   0  0  0  0  0  3  0  0  0  0  0  0
  -27.5830  -37.2540   24.7000 C   0  0  0  0  0  1  0  0  0  0  0  0
  -26.4670  -37.4200   23.7720 N   0  0  0  0  0  0  0  0  0  0  0  0
  -26.0660  -38.3420   23.9220 H   0  0  0  0  0  0  0  0  0  0  0  0
  1  3  1  0
  2  4  1  0
  2  5  1  0
  4  6  1  0
  5  9  1  0
  5  1  1  0
  6 48  1  0
  6  3  1  0
  9  7  1  6
  9 18  1  0
  9  8  1  0
 11 16  1  0
 12 13  1  0
 12 11  1  0
 14 13  1  0
 14 23  1  0
 14 15  1  0
 16 10  1  0
 16 15  1  0
 17 10  2  0
 18 19  1  0
 18 10  1  0
 20 21  2  0
 21 40  1  0
 22 21  1  0
 22 25  1  0
 23 20  1  0
 23 24  1  0
 24 22  2  0
 25 26  1  0
 26 27  2  0
 28 31  1  0
 28 27  1  0
 29 28  2  0
 30 29  1  0
 30 25  2  0
 31 32  1  0
 32 33  1  0
 33 34  2  0
 35 34  1  0
 35 39  1  0
 36 35  2  0
 37 32  2  0
 37 36  1  0
 38 37  1  0
 40 41  1  0
 41 44  1  0
 41 43  1  0
 42 40  2  0
 45 46  1  0
 45 20  1  0
 47 45  1  0
 48 50  1  0
 48 51  1  0
 49 48  1  0
 52 51  1  0
 52 53  1  0
 54 65  2  0
 55 53  1  0
 55 60  1  0
 56 64  1  0
 56 66  1  0
 57 63  1  0
 57 59  1  0
 58 64  1  0
 59 58  1  0
 60 59  2  0
 61 62  1  0
 61 55  2  0
 62 57  2  0
 63 56  1  0
 64 54  1  0
 66 68  2  0
 67 66  1  0
 69 67  1  0
 70 79  2  0
 70 75  1  0
 71 67  1  0
 71 75  1  0
 72 71  1  0
 73 74  1  0
 73 72  1  0
 74 70  1  0
 75 76  2  0
 76 77  1  0
 78 77  2  0
 79 78  1  0
 80 54  1  0
 80 85  1  0
 80 81  1  0
 81 84  1  1
 81 82  1  0
 83 81  1  0
 85 88  1  0
 86 90  1  0
 86 85  1  0
 87 86  2  0
 90 89  1  0
 92 90  1  0
 92 93  1  0
 92 91  1  0
M  ISO  4  10 100  18 100  52 101  53 101
M  END
>  <TORSDO>  (22) 
F 20

>  <SCORE>  (22) 
-13.939

>  <name>  (22) 
21

>  <ligand_id>  (22) 
21

>  <original_smiles>  (22) 
[H]c1c([H])c([H])c2c(c1[H])C([H])([H])C([H])([H])C([H])([H])C2([H])N([H])C(=O)C1([H])N(C(=O)C([H])(N([H])C(=O)C([H])(N([H])C([H])([H])[H])C([H])([H])[H])C(C([H])([H])[H])(C([H])([H])[H])C([H])([H])[H])C([H])([H])c2c([H])c(OC([H])([H])C([H])([H])[N+]([H])([H])C3([H])C([H])([H])C([H])([H])C([H])(C(N([H])C(=O)N4C([H])([H])C([H])([H])C([H])([H])C([H])(n5nc(-c6c([H])c([H])c(Oc7c([H])c([H])c(F)c([H])c7F)c([H])c6[H])c(C(=O)N([H])[H])c5N([H])[H])C4([H])[H])(C([H])([H])[H])C([H])([H])[H])C([H])([H])C3([H])[H])c([H])c([H])c2C1([H])[H]

>  <smiles>  (22) 
[H]c1c([H])c([H])c2c(c1[H])C([H])([H])C([H])([H])C([H])([H])C2([H])N([H])C(=O)C1([H])N(C(=O)C([H])(N([H])C(=O)C([H])(N([H])C([H])([H])[H])C([H])([H])[H])C(C([H])([H])[H])(C([H])([H])[H])C([H])([H])[H])C([H])([H])c2c([H])c(OC([H])([H])C([H])([H])[N+]([H])([H])C3([H])C([H])([H])C([H])([H])C([H])(C(N([H])C(=O)N4C([H])([H])C([H])([H])C([H])([H])C([H])(n5nc(-c6c([H])c([H])c(Oc7c([H])c([H])c(F)c([H])c7F)c([H])c6[H])c(C(=O)N([H])[H])c5N([H])[H])C4([H])[H])(C([H])([H])[H])C([H])([H])[H])C([H])([H])C3([H])[H])c([H])c([H])c2C1([H])[H]

$$$$
22:0:0
     RDKit          3D

 84 91  0  0  1  0  0  0  0  0999 V2000
  -30.2630  -15.8890   20.2800 C   0  0  0  0  0  0  0  0  0  0  0  0
  -30.3890  -13.2780   19.5260 C   0  0  0  0  0  2  0  0  0  0  0  0
  -29.5590  -12.7170   18.3310 C   0  0  0  0  0  2  0  0  0  0  0  0
  -28.1470  -12.3240   18.7790 C   0  0  0  0  0  2  0  0  0  0  0  0
  -27.5760  -13.3710   19.7580 C   0  0  0  0  0  3  0  0  0  0  0  0
  -28.5630  -13.8310   20.8650 C   0  0  0  0  0  2  0  0  0  0  0  0
  -29.7040  -14.5080   20.1850 N   0  0  0  0  0  0  0  0  0  0  0  0
  -31.4990  -15.7020   20.1790 O   0  0  0  0  0  0  0  0  0  0  0  0
  -29.9140  -20.4900   19.5710 C   0  0  0  0  0  2  0  0  0  0  0  0
  -27.9800  -20.0390   20.3860 C   0  0  0  0  0  2  0  0  0  0  0  0
  -30.4550  -18.8200   19.9620 C   0  0  0  0  0  2  0  0  0  0  0  0
  -28.4760  -18.3370   20.7330 C   0  0  0  0  0  2  0  0  0  0  0  0
  -28.7980  -21.5780   20.3200 C   0  0  0  0  0  2  0  0  0  0  0  0
  -29.6870  -17.4100   20.1940 N   0  0  0  0  0  0  0  0  0  0  0  0
  -25.2020  -13.8870   20.4670 C   0  0  0  0  0  0  0  0  0  0  0  0
  -24.1390  -13.1060   20.8180 C   0  0  0  0  0  0  0  0  0  0  0  0
  -24.6170  -11.7590   20.8210 C   0  0  0  0  0  0  0  0  0  0  0  0
  -26.2570  -13.0210   20.2650 N   0  0  0  0  0  0  0  0  0  0  0  0
  -25.9200  -11.7330   20.5440 N   0  0  0  0  0  0  0  0  0  0  0  0
  -23.8890  -10.4960   21.0120 C   0  0  0  0  0  0  0  0  0  0  0  0
  -24.3040   -9.5380   21.9630 C   0  0  0  0  0  3  0  0  0  0  0  0
  -23.5710   -8.3450   22.1450 C   0  0  0  0  0  3  0  0  0  0  0  0
  -22.4080   -8.1020   21.3770 C   0  0  0  0  0  0  0  0  0  0  0  0
  -22.0110   -9.0490   20.4160 C   0  0  0  0  0  3  0  0  0  0  0  0
  -22.7460  -10.2330   20.2330 C   0  0  0  0  0  3  0  0  0  0  0  0
  -21.6480   -6.9600   21.4670 O   0  0  0  0  0  0  0  0  0  0  0  0
  -21.5890   -6.2240   22.6240 C   0  0  0  0  0  0  0  0  0  0  0  0
  -21.1770   -6.7920   23.8490 C   0  0  0  0  0  3  0  0  0  0  0  0
  -21.0630   -5.9840   24.9970 C   0  0  0  0  0  3  0  0  0  0  0  0
  -21.3520   -4.6090   24.9220 C   0  0  0  0  0  0  0  0  0  0  0  0
  -21.7570   -4.0390   23.7020 C   0  0  0  0  0  3  0  0  0  0  0  0
  -21.8720   -4.8450   22.5560 C   0  0  0  0  0  0  0  0  0  0  0  0
  -22.2420   -4.2860   21.3780 F   0  0  0  0  0  0  0  0  0  0  0  0
  -21.2370   -3.8300   26.0230 F   0  0  0  0  0  0  0  0  0  0  0  0
  -22.7320  -13.5800   21.0340 C   0  0  0  0  0  0  0  0  0  0  0  0
  -21.9850  -12.9050   21.8980 N   0  0  0  0  0  0  0  0  0  0  0  0
  -22.3060  -14.5890   20.4710 O   0  0  0  0  0  0  0  0  0  0  0  0
  -22.3430  -12.0910   22.3760 H   0  0  0  0  0  0  0  0  0  0  0  0
  -21.0390  -13.2070   22.0880 H   0  0  0  0  0  0  0  0  0  0  0  0
  -25.3580  -15.2560   20.2690 N   0  0  0  0  0  0  0  0  0  0  0  0
  -24.5830  -15.9060   20.3480 H   0  0  0  0  0  0  0  0  0  0  0  0
  -26.2130  -15.6940   19.9520 H   0  0  0  0  0  0  0  0  0  0  0  0
  -28.0840  -23.4630   19.9180 C   0  0  0  0  0  1  0  0  0  0  0  0
  -28.1950  -25.2910   20.1280 O   0  0  0  0  0  0  0  0  0  0  0  0
  -24.7220  -31.7780   23.0420 C   0  0  0  0  0  0  0  0  0  0  0  0
  -27.2410  -26.5740   20.0620 C   0  0  0  0  0  0  0  0  0  0  0  0
  -23.5360  -30.3700   21.4150 C   0  0  0  0  0  3  0  0  0  0  0  0
  -24.9830  -28.6970   20.0050 C   0  0  0  0  0  0  0  0  0  0  0  0
  -26.1200  -30.4770   21.2980 C   0  0  0  0  0  2  0  0  0  0  0  0
  -26.1830  -29.0280   20.6440 C   0  0  0  0  0  0  0  0  0  0  0  0
  -27.2880  -27.9990   20.6360 C   0  0  0  0  0  3  0  0  0  0  0  0
  -26.0050  -26.4930   19.3610 C   0  0  0  0  0  3  0  0  0  0  0  0
  -24.9420  -27.4570   19.3390 C   0  0  0  0  0  3  0  0  0  0  0  0
  -23.7790  -29.6610   20.0490 C   0  0  0  0  0  2  0  0  0  0  0  0
  -24.8180  -30.9120   21.9700 N   0  0  0  0  0  0  0  0  0  0  0  0
  -23.6270  -32.0800   23.5500 O   0  0  0  0  0  0  0  0  0  0  0  0
  -22.8130  -29.4050   22.3960 C   0  0  0  0  0  0  0  0  0  0  0  0
  -21.4760  -29.2740   22.2960 N   0  0  0  0  0  0  0  0  0  0  0  0
  -23.4720  -28.7680   23.2220 O   0  0  0  0  0  0  0  0  0  0  0  0
  -20.9920  -29.8360   21.6100 H   0  0  0  0  0  0  0  0  0  0  0  0
  -18.0800  -28.1080   22.8820 C   0  0  0  0  0  0  0  0  0  0  0  0
  -20.6510  -28.3420   23.0770 C   0  0  0  0  0  3  0  0  0  0  0  0
  -20.7150  -26.9140   22.4860 C   0  0  0  0  0  2  0  0  0  0  0  0
  -19.5850  -26.6200   21.4950 C   0  0  0  0  0  2  0  0  0  0  0  0
  -18.2230  -26.7700   22.1770 C   0  0  0  0  0  2  0  0  0  0  0  0
  -19.2190  -28.8530   23.2900 C   0  0  0  0  0  0  0  0  0  0  0  0
  -19.0260  -30.1030   23.9180 C   0  0  0  0  0  3  0  0  0  0  0  0
  -17.7310  -30.6090   24.1360 C   0  0  0  0  0  3  0  0  0  0  0  0
  -16.6080  -29.8620   23.7390 C   0  0  0  0  0  3  0  0  0  0  0  0
  -16.7840  -28.6120   23.1180 C   0  0  0  0  0  3  0  0  0  0  0  0
  -25.9790  -32.4410   23.6830 C   0  0  0  0  0  3  0  0  0  0  0  0
  -25.6320  -33.8270   24.0630 N   0  0  0  0  0  0  0  0  0  0  0  0
  -25.9330  -34.9240   23.3550 C   0  0  0  0  0  0  0  0  0  0  0  0
  -26.5860  -34.8790   22.3100 O   0  0  0  0  0  0  0  0  0  0  0  0
  -25.0460  -33.9330   24.8790 H   0  0  0  0  0  0  0  0  0  0  0  0
  -24.1640  -36.7090   23.1370 C   0  0  0  0  0  1  0  0  0  0  0  0
  -25.4380  -36.2880   23.8870 C   0  0  0  0  0  3  0  0  0  0  0  0
  -27.5830  -37.1860   24.6840 C   0  0  0  0  0  1  0  0  0  0  0  0
  -26.4470  -37.3670   23.7840 N   0  0  0  0  0  0  0  0  0  0  0  0
  -26.0280  -38.2720   23.9810 H   0  0  0  0  0  0  0  0  0  0  0  0
  -26.5090  -31.6630   24.9510 C   0  0  1  0  0  0  0  0  0  0  0  0
  -25.4240  -31.4030   26.0240 C   0  0  0  0  0  1  0  0  0  0  0  0
  -27.1050  -30.2940   24.5550 C   0  0  0  0  0  1  0  0  0  0  0  0
  -27.6560  -32.4610   25.6140 C   0  0  0  0  0  1  0  0  0  0  0  0
  2  7  1  0
  3  4  1  0
  3  2  1  0
  5  4  1  0
  5 18  1  0
  5  6  1  0
  7  1  1  0
  7  6  1  0
  8  1  2  0
  9 11  1  0
  9 13  1  0
 10 12  1  0
 11 14  1  0
 13 10  1  0
 14  1  1  0
 14 12  1  0
 15 16  2  0
 16 17  1  0
 16 35  1  0
 17 20  1  0
 18 15  1  0
 18 19  1  0
 19 17  2  0
 20 21  1  0
 21 22  2  0
 23 26  1  0
 23 22  1  0
 24 23  2  0
 25 24  1  0
 25 20  2  0
 26 27  1  0
 27 28  1  0
 28 29  2  0
 30 29  1  0
 30 34  1  0
 31 30  2  0
 32 27  2  0
 32 31  1  0
 33 32  1  0
 35 36  1  0
 36 39  1  0
 36 38  1  0
 37 35  2  0
 40 41  1  0
 40 15  1  0
 42 40  1  0
 43 44  1  0
 45 56  2  0
 46 44  1  0
 46 51  1  0
 47 55  1  0
 47 57  1  0
 48 54  1  0
 48 50  1  0
 49 55  1  0
 50 49  1  0
 51 50  2  0
 52 46  2  0
 53 52  1  0
 53 48  2  0
 54 47  1  0
 55 45  1  0
 57 59  2  0
 58 57  1  0
 60 58  1  0
 61 70  2  0
 61 66  1  0
 62 58  1  0
 62 66  1  0
 63 62  1  0
 64 65  1  0
 64 63  1  0
 65 61  1  0
 66 67  2  0
 67 68  1  0
 69 68  2  0
 70 69  1  0
 71 45  1  0
 71 72  1  0
 71 81  1  0
 72 75  1  0
 73 77  1  0
 73 72  1  0
 74 73  2  0
 77 76  1  0
 79 77  1  0
 79 80  1  0
 79 78  1  0
 81 84  1  1
 81 82  1  0
 83 81  1  0
M  ISO  4   1 100  14 100  43 101  44 101
M  END
>  <TORSDO>  (23) 
F 16

>  <SCORE>  (23) 
-15.898

>  <name>  (23) 
22

>  <ligand_id>  (23) 
22

>  <original_smiles>  (23) 
[H]c1c([H])c([H])c2c(c1[H])C([H])([H])C([H])([H])C([H])([H])C2([H])N([H])C(=O)C1([H])N(C(=O)C([H])(N([H])C(=O)C([H])(N([H])C([H])([H])[H])C([H])([H])[H])C(C([H])([H])[H])(C([H])([H])[H])C([H])([H])[H])C([H])([H])c2c([H])c(OC([H])([H])C3([H])C([H])([H])C([H])([H])N(C(=O)N4C([H])([H])C([H])([H])C([H])([H])C([H])(n5nc(-c6c([H])c([H])c(Oc7c([H])c([H])c(F)c([H])c7F)c([H])c6[H])c(C(=O)N([H])[H])c5N([H])[H])C4([H])[H])C([H])([H])C3([H])[H])c([H])c([H])c2C1([H])[H]

>  <smiles>  (23) 
[H]c1c([H])c([H])c2c(c1[H])C([H])([H])C([H])([H])C([H])([H])C2([H])N([H])C(=O)C1([H])N(C(=O)C([H])(N([H])C(=O)C([H])(N([H])C([H])([H])[H])C([H])([H])[H])C(C([H])([H])[H])(C([H])([H])[H])C([H])([H])[H])C([H])([H])c2c([H])c(OC([H])([H])C3([H])C([H])([H])C([H])([H])N(C(=O)N4C([H])([H])C([H])([H])C([H])([H])C([H])(n5nc(-c6c([H])c([H])c(Oc7c([H])c([H])c(F)c([H])c7F)c([H])c6[H])c(C(=O)N([H])[H])c5N([H])[H])C4([H])[H])C([H])([H])C3([H])[H])c([H])c([H])c2C1([H])[H]

$$$$
23:0:0
     RDKit          3D

 98107  0  0  1  0  0  0  0  0999 V2000
  -30.6290  -24.5820   19.6470 C   0  0  0  0  0  3  0  0  0  0  0  0
  -31.6950  -23.6660   19.7200 C   0  0  0  0  0  0  0  0  0  0  0  0
  -31.4570  -22.3770   20.2710 C   0  0  0  0  0  0  0  0  0  0  0  0
  -29.3610  -24.2030   20.1070 C   0  0  0  0  0  0  0  0  0  0  0  0
  -30.1450  -22.0510   20.7050 C   0  0  0  0  0  0  0  0  0  0  0  0
  -32.6170  -21.3760   20.3580 C   0  0  0  0  0  2  0  0  0  0  0  0
  -33.0790  -24.0910   19.2290 C   0  0  0  0  0  2  0  0  0  0  0  0
  -34.0010  -22.0180   20.1500 C   0  0  0  0  0  2  0  0  0  0  0  0
  -29.1310  -22.9550   20.6080 N   0  0  0  0  0  0  0  0  0  0  0  0
  -33.9710  -22.9420   19.0030 N   0  0  0  0  0  4  0  0  0  0  0  0
  -34.8990  -23.2840   18.8190 H   0  0  0  0  0  0  0  0  0  0  0  0
  -33.6520  -22.4460   18.1880 H   0  0  0  0  0  0  0  0  0  0  0  0
  -29.8080  -20.6920   21.3720 C   0  0  0  0  0  2  0  0  0  0  0  0
  -29.8970  -19.5090   20.4690 N   0  0  0  0  0  4  0  0  0  0  0  0
  -30.7820  -19.5610   19.9960 H   0  0  0  0  0  0  0  0  0  0  0  0
  -29.1770  -19.6140   19.7710 H   0  0  0  0  0  0  0  0  0  0  0  0
  -29.7680  -18.1660   21.1250 C   0  0  0  0  0  2  0  0  0  0  0  0
  -30.1640  -16.9760   20.1920 C   0  0  0  0  0  2  0  0  0  0  0  0
  -30.6550  -14.5190   20.4130 C   0  0  0  0  0  0  0  0  0  0  0  0
  -30.3500  -12.3260   19.3380 C   0  0  0  0  0  2  0  0  0  0  0  0
  -29.4080  -12.5160   18.1300 C   0  0  0  0  0  2  0  0  0  0  0  0
  -27.9350  -12.3880   18.5640 C   0  0  0  0  0  2  0  0  0  0  0  0
  -27.6030  -13.2380   19.8200 C   0  0  0  0  0  3  0  0  0  0  0  0
  -28.6670  -13.0480   20.9280 C   0  0  0  0  0  2  0  0  0  0  0  0
  -29.9850  -13.3350   20.3450 N   0  0  0  0  0  0  0  0  0  0  0  0
  -31.8070  -14.6520   19.9880 O   0  0  0  0  0  0  0  0  0  0  0  0
  -29.9090  -15.6070   20.7150 N   0  0  0  0  0  0  0  0  0  0  0  0
  -28.9760  -15.4160   21.0510 H   0  0  0  0  0  0  0  0  0  0  0  0
  -25.2160  -13.8560   20.5530 C   0  0  0  0  0  0  0  0  0  0  0  0
  -24.1460  -13.0910   20.9310 C   0  0  0  0  0  0  0  0  0  0  0  0
  -24.6000  -11.7360   20.8970 C   0  0  0  0  0  0  0  0  0  0  0  0
  -26.2540  -12.9690   20.3120 N   0  0  0  0  0  0  0  0  0  0  0  0
  -25.8870  -11.6890   20.5780 N   0  0  0  0  0  0  0  0  0  0  0  0
  -23.8680  -10.4790   21.0940 C   0  0  0  0  0  0  0  0  0  0  0  0
  -24.3210   -9.4950   22.0000 C   0  0  0  0  0  3  0  0  0  0  0  0
  -23.5890   -8.3020   22.1840 C   0  0  0  0  0  3  0  0  0  0  0  0
  -22.3910   -8.0850   21.4620 C   0  0  0  0  0  0  0  0  0  0  0  0
  -21.9580   -9.0570   20.5440 C   0  0  0  0  0  3  0  0  0  0  0  0
  -22.6890  -10.2410   20.3580 C   0  0  0  0  0  3  0  0  0  0  0  0
  -21.6300   -6.9450   21.5580 O   0  0  0  0  0  0  0  0  0  0  0  0
  -21.6300   -6.1720   22.6900 C   0  0  0  0  0  0  0  0  0  0  0  0
  -21.2960   -6.7030   23.9550 C   0  0  0  0  0  3  0  0  0  0  0  0
  -21.2390   -5.8570   25.0810 C   0  0  0  0  0  3  0  0  0  0  0  0
  -21.5090   -4.4820   24.9430 C   0  0  0  0  0  0  0  0  0  0  0  0
  -21.8420   -3.9520   23.6850 C   0  0  0  0  0  3  0  0  0  0  0  0
  -21.8970   -4.7940   22.5610 C   0  0  0  0  0  0  0  0  0  0  0  0
  -22.1940   -4.2740   21.3460 F   0  0  0  0  0  0  0  0  0  0  0  0
  -21.4510   -3.6690   26.0240 F   0  0  0  0  0  0  0  0  0  0  0  0
  -22.7540  -13.5780   21.2140 C   0  0  0  0  0  0  0  0  0  0  0  0
  -22.0290  -12.8890   22.0880 N   0  0  0  0  0  0  0  0  0  0  0  0
  -22.3180  -14.6040   20.6940 O   0  0  0  0  0  0  0  0  0  0  0  0
  -22.3940  -12.0610   22.5360 H   0  0  0  0  0  0  0  0  0  0  0  0
  -21.0950  -13.1980   22.3170 H   0  0  0  0  0  0  0  0  0  0  0  0
  -25.3890  -15.2260   20.3750 N   0  0  0  0  0  0  0  0  0  0  0  0
  -24.6280  -15.8850   20.4990 H   0  0  0  0  0  0  0  0  0  0  0  0
  -26.2320  -15.6580   20.0180 H   0  0  0  0  0  0  0  0  0  0  0  0
  -28.1520  -25.1410   19.9320 C   0  0  0  0  0  2  0  0  0  0  0  0
  -28.3570  -26.5690   20.1430 O   0  0  0  0  0  0  0  0  0  0  0  0
  -24.6240  -31.8670   23.2210 C   0  0  0  0  0  0  0  0  0  0  0  0
  -27.2110  -27.3620   20.1210 C   0  0  0  0  0  0  0  0  0  0  0  0
  -23.4000  -30.4680   21.5960 C   0  0  0  0  0  3  0  0  0  0  0  0
  -24.8330  -28.9280   20.1560 C   0  0  0  0  0  0  0  0  0  0  0  0
  -25.9330  -30.8010   21.3800 C   0  0  0  0  0  2  0  0  0  0  0  0
  -26.0060  -29.4290   20.7330 C   0  0  0  0  0  0  0  0  0  0  0  0
  -27.1980  -28.6550   20.7110 C   0  0  0  0  0  3  0  0  0  0  0  0
  -26.0070  -26.8980   19.5330 C   0  0  0  0  0  3  0  0  0  0  0  0
  -24.8320  -27.6640   19.5540 C   0  0  0  0  0  3  0  0  0  0  0  0
  -23.5950  -29.7950   20.2140 C   0  0  0  0  0  2  0  0  0  0  0  0
  -24.6720  -31.0590   22.1230 N   0  0  0  0  0  0  0  0  0  0  0  0
  -23.5480  -32.1460   23.7650 O   0  0  0  0  0  0  0  0  0  0  0  0
  -22.7530  -29.4480   22.5600 C   0  0  0  0  0  0  0  0  0  0  0  0
  -21.4260  -29.2710   22.4460 N   0  0  0  0  0  0  0  0  0  0  0  0
  -23.4400  -28.8190   23.3700 O   0  0  0  0  0  0  0  0  0  0  0  0
  -20.9310  -29.8280   21.7650 H   0  0  0  0  0  0  0  0  0  0  0  0
  -18.0530  -28.0800   22.9720 C   0  0  0  0  0  0  0  0  0  0  0  0
  -20.6130  -28.3370   23.2260 C   0  0  0  0  0  3  0  0  0  0  0  0
  -20.7110  -26.9020   22.6560 C   0  0  0  0  0  2  0  0  0  0  0  0
  -19.6020  -26.5760   21.6510 C   0  0  0  0  0  2  0  0  0  0  0  0
  -18.2250  -26.7260   22.3030 C   0  0  0  0  0  2  0  0  0  0  0  0
  -19.1750  -28.8420   23.3910 C   0  0  0  0  0  0  0  0  0  0  0  0
  -18.9610  -30.1100   23.9760 C   0  0  0  0  0  3  0  0  0  0  0  0
  -17.6580  -30.6130   24.1480 C   0  0  0  0  0  3  0  0  0  0  0  0
  -16.5510  -29.8480   23.7440 C   0  0  0  0  0  3  0  0  0  0  0  0
  -16.7490  -28.5820   23.1620 C   0  0  0  0  0  3  0  0  0  0  0  0
  -25.9160  -32.4950   23.8280 C   0  0  0  0  0  3  0  0  0  0  0  0
  -25.6070  -33.8900   24.1760 N   0  0  0  0  0  0  0  0  0  0  0  0
  -25.9190  -34.9490   23.4200 C   0  0  0  0  0  0  0  0  0  0  0  0
  -26.5690  -34.8580   22.3740 O   0  0  0  0  0  0  0  0  0  0  0  0
  -25.0260  -34.0350   24.9890 H   0  0  0  0  0  0  0  0  0  0  0  0
  -24.1720  -36.7330   23.1200 C   0  0  0  0  0  1  0  0  0  0  0  0
  -25.4340  -36.3300   23.8990 C   0  0  0  0  0  3  0  0  0  0  0  0
  -27.5840  -37.2190   24.6820 C   0  0  0  0  0  1  0  0  0  0  0  0
  -26.4570  -37.3910   23.7700 N   0  0  0  0  0  0  0  0  0  0  0  0
  -26.0490  -38.3070   23.9400 H   0  0  0  0  0  0  0  0  0  0  0  0
  -26.4580  -31.7120   25.0860 C   0  0  1  0  0  0  0  0  0  0  0  0
  -25.3850  -31.4620   26.1700 C   0  0  0  0  0  1  0  0  0  0  0  0
  -27.0370  -30.3410   24.6690 C   0  0  0  0  0  1  0  0  0  0  0  0
  -27.6200  -32.5030   25.7330 C   0  0  0  0  0  1  0  0  0  0  0  0
  1  2  2  0
  1  4  1  0
  2  3  1  0
  3  6  1  0
  3  5  2  0
  4  9  2  0
  5 13  1  0
  7  2  1  0
  8  6  1  0
  9  5  1  0
 10  7  1  0
 10  8  1  0
 11 10  1  0
 12 10  1  0
 14 17  1  0
 14 13  1  0
 15 14  1  0
 16 14  1  0
 18 27  1  0
 18 17  1  0
 19 27  1  0
 20 25  1  0
 21 22  1  0
 21 20  1  0
 23 22  1  0
 23 32  1  0
 23 24  1  0
 25 19  1  0
 25 24  1  0
 26 19  2  0
 27 28  1  0
 29 30  2  0
 30 49  1  0
 31 30  1  0
 31 34  1  0
 32 29  1  0
 32 33  1  0
 33 31  2  0
 34 35  1  0
 35 36  2  0
 37 40  1  0
 37 36  1  0
 38 37  2  0
 39 38  1  0
 39 34  2  0
 40 41  1  0
 41 42  1  0
 42 43  2  0
 44 43  1  0
 44 48  1  0
 45 44  2  0
 46 41  2  0
 46 45  1  0
 47 46  1  0
 49 50  1  0
 50 53  1  0
 50 52  1  0
 51 49  2  0
 54 55  1  0
 54 29  1  0
 56 54  1  0
 57  4  1  0
 57 58  1  0
 59 70  2  0
 60 58  1  0
 60 65  1  0
 61 69  1  0
 61 71  1  0
 62 68  1  0
 62 64  1  0
 63 69  1  0
 64 63  1  0
 65 64  2  0
 66 67  1  0
 66 60  2  0
 67 62  2  0
 68 61  1  0
 69 59  1  0
 71 73  2  0
 72 71  1  0
 74 72  1  0
 75 84  2  0
 75 80  1  0
 76 72  1  0
 76 80  1  0
 77 76  1  0
 78 79  1  0
 78 77  1  0
 79 75  1  0
 80 81  2  0
 81 82  1  0
 83 82  2  0
 84 83  1  0
 85 59  1  0
 85 86  1  0
 85 95  1  0
 86 89  1  0
 87 91  1  0
 87 86  1  0
 88 87  2  0
 91 90  1  0
 93 91  1  0
 93 94  1  0
 93 92  1  0
 95 98  1  1
 95 96  1  0
 97 95  1  0
M  ISO  4  19 100  27 100  57 101  58 101
M  END
>  <TORSDO>  (24) 
F 21

>  <SCORE>  (24) 
-13.404

>  <name>  (24) 
23

>  <ligand_id>  (24) 
23

>  <original_smiles>  (24) 
[H]c1c([H])c([H])c2c(c1[H])C([H])([H])C([H])([H])C([H])([H])C2([H])N([H])C(=O)C1([H])N(C(=O)C([H])(N([H])C(=O)C([H])(N([H])C([H])([H])[H])C([H])([H])[H])C(C([H])([H])[H])(C([H])([H])[H])C([H])([H])[H])C([H])([H])c2c([H])c(OC([H])([H])c3nc(C([H])([H])[N+]([H])([H])C([H])([H])C([H])([H])N([H])C(=O)N4C([H])([H])C([H])([H])C([H])([H])C([H])(n5nc(-c6c([H])c([H])c(Oc7c([H])c([H])c(F)c([H])c7F)c([H])c6[H])c(C(=O)N([H])[H])c5N([H])[H])C4([H])[H])c4c(c3[H])C([H])([H])[N+]([H])([H])C([H])([H])C4([H])[H])c([H])c([H])c2C1([H])[H]

>  <smiles>  (24) 
[H]c1c([H])c([H])c2c(c1[H])C([H])([H])C([H])([H])C([H])([H])C2([H])N([H])C(=O)C1([H])N(C(=O)C([H])(N([H])C(=O)C([H])(N([H])C([H])([H])[H])C([H])([H])[H])C(C([H])([H])[H])(C([H])([H])[H])C([H])([H])[H])C([H])([H])c2c([H])c(OC([H])([H])c3nc(C([H])([H])[N+]([H])([H])C([H])([H])C([H])([H])N([H])C(=O)N4C([H])([H])C([H])([H])C([H])([H])C([H])(n5nc(-c6c([H])c([H])c(Oc7c([H])c([H])c(F)c([H])c7F)c([H])c6[H])c(C(=O)N([H])[H])c5N([H])[H])C4([H])[H])c4c(c3[H])C([H])([H])[N+]([H])([H])C([H])([H])C4([H])[H])c([H])c([H])c2C1([H])[H]

$$$$
24:0:0
     RDKit          3D

102110  0  0  1  0  0  0  0  0999 V2000
  -27.8660  -23.0250   20.2550 N   0  0  0  0  0  4  0  0  0  0  0  0
  -27.0560  -22.4470   20.4450 H   0  0  0  0  0  0  0  0  0  0  0  0
  -28.5040  -22.9100   21.0250 H   0  0  0  0  0  0  0  0  0  0  0  0
  -25.6230  -24.1520   21.9180 C   0  0  0  0  0  2  0  0  0  0  0  0
  -25.9300  -24.5420   20.4610 C   0  0  0  0  0  2  0  0  0  0  0  0
  -26.7500  -24.5610   22.8950 C   0  0  0  0  0  2  0  0  0  0  0  0
  -27.4420  -24.4400   20.1630 C   0  0  0  0  0  3  0  0  0  0  0  0
  -28.2830  -25.3400   21.1330 C   0  0  0  0  0  3  0  0  0  0  0  0
  -27.5320  -25.6710   22.3530 N   0  0  0  0  0  0  0  0  0  0  0  0
  -28.1720  -26.0350   23.0530 H   0  0  0  0  0  0  0  0  0  0  0  0
  -30.3290  -26.5200   20.1230 C   0  0  0  0  0  1  0  0  0  0  0  0
  -28.8650  -26.6720   20.5410 C   0  0  0  0  0  3  0  0  0  0  0  0
  -28.1940  -27.1090   19.3610 O   0  0  0  0  0  0  0  0  0  0  0  0
  -24.5030  -31.8500   23.2170 C   0  0  0  0  0  0  0  0  0  0  0  0
  -27.0500  -27.8440   19.5440 C   0  0  0  0  0  0  0  0  0  0  0  0
  -23.2500  -30.6520   21.4550 C   0  0  0  0  0  3  0  0  0  0  0  0
  -24.6580  -29.3090   19.8120 C   0  0  0  0  0  0  0  0  0  0  0  0
  -25.7640  -31.0360   21.2340 C   0  0  0  0  0  2  0  0  0  0  0  0
  -25.8280  -29.7520   20.4400 C   0  0  0  0  0  0  0  0  0  0  0  0
  -27.0260  -29.0190   20.3250 C   0  0  0  0  0  3  0  0  0  0  0  0
  -25.8780  -27.4320   18.8790 C   0  0  0  0  0  3  0  0  0  0  0  0
  -24.6720  -28.1380   19.0390 C   0  0  0  0  0  3  0  0  0  0  0  0
  -23.4230  -30.1580   19.9940 C   0  0  0  0  0  2  0  0  0  0  0  0
  -24.5240  -31.1880   22.0280 N   0  0  0  0  0  0  0  0  0  0  0  0
  -23.4370  -32.0550   23.8140 O   0  0  0  0  0  0  0  0  0  0  0  0
  -22.6280  -29.5150   22.2960 C   0  0  0  0  0  0  0  0  0  0  0  0
  -21.2990  -29.3590   22.1920 N   0  0  0  0  0  0  0  0  0  0  0  0
  -23.3360  -28.7920   23.0020 O   0  0  0  0  0  0  0  0  0  0  0  0
  -20.8000  -29.9970   21.5910 H   0  0  0  0  0  0  0  0  0  0  0  0
  -17.9260  -28.1560   22.6910 C   0  0  0  0  0  0  0  0  0  0  0  0
  -20.4990  -28.3360   22.8650 C   0  0  0  0  0  3  0  0  0  0  0  0
  -20.5420  -26.9980   22.0870 C   0  0  0  0  0  2  0  0  0  0  0  0
  -19.3820  -26.8440   21.0970 C   0  0  0  0  0  2  0  0  0  0  0  0
  -18.0380  -26.9090   21.8350 C   0  0  0  0  0  2  0  0  0  0  0  0
  -19.0810  -28.8350   23.1640 C   0  0  0  0  0  0  0  0  0  0  0  0
  -18.9200  -30.0090   23.9330 C   0  0  0  0  0  3  0  0  0  0  0  0
  -17.6380  -30.5050   24.2290 C   0  0  0  0  0  3  0  0  0  0  0  0
  -16.4970  -29.8200   23.7740 C   0  0  0  0  0  3  0  0  0  0  0  0
  -16.6430  -28.6470   23.0090 C   0  0  0  0  0  3  0  0  0  0  0  0
  -25.8070  -32.4020   23.8730 C   0  0  0  0  0  3  0  0  0  0  0  0
  -26.3200  -31.5180   25.0750 C   0  0  1  0  0  0  0  0  0  0  0  0
  -25.2370  -31.2090   26.1340 C   0  0  0  0  0  1  0  0  0  0  0  0
  -26.8710  -30.1710   24.5540 C   0  0  0  0  0  1  0  0  0  0  0  0
  -27.4930  -32.2320   25.7840 C   0  0  0  0  0  1  0  0  0  0  0  0
  -25.5300  -33.7750   24.3160 N   0  0  0  0  0  0  0  0  0  0  0  0
  -25.9030  -34.8770   23.6510 C   0  0  0  0  0  0  0  0  0  0  0  0
  -26.5920  -34.8420   22.6260 O   0  0  0  0  0  0  0  0  0  0  0  0
  -24.9330  -33.8780   25.1240 H   0  0  0  0  0  0  0  0  0  0  0  0
  -24.2440  -36.7450   23.4000 C   0  0  0  0  0  1  0  0  0  0  0  0
  -25.4430  -36.2330   24.2150 C   0  0  0  0  0  3  0  0  0  0  0  0
  -27.5720  -36.9690   25.1890 C   0  0  0  0  0  1  0  0  0  0  0  0
  -26.5110  -37.2570   24.2290 N   0  0  0  0  0  0  0  0  0  0  0  0
  -26.1290  -38.1740   24.4450 H   0  0  0  0  0  0  0  0  0  0  0  0
  -28.4210  -22.4430   19.0150 C   0  0  0  0  0  2  0  0  0  0  0  0
  -28.1840  -20.9220   18.9810 C   0  0  0  0  0  3  0  0  0  0  0  0
  -26.8070  -20.6790   19.4240 N   0  0  0  0  0  0  0  0  0  0  0  0
  -26.5070  -19.7330   19.2170 H   0  0  0  0  0  0  0  0  0  0  0  0
  -26.1630  -21.2310   18.8640 H   0  0  0  0  0  0  0  0  0  0  0  0
  -29.2020  -20.0960   19.8090 C   0  0  0  0  0  2  0  0  0  0  0  0
  -29.1620  -18.6820   19.3830 N   0  0  0  0  0  4  0  0  0  0  0  0
  -28.3650  -18.5960   18.7740 H   0  0  0  0  0  0  0  0  0  0  0  0
  -29.9700  -18.4760   18.8170 H   0  0  0  0  0  0  0  0  0  0  0  0
  -29.0060  -17.6550   20.4370 C   0  0  0  0  0  2  0  0  0  0  0  0
  -30.3470  -17.1140   20.9810 C   0  0  0  0  0  2  0  0  0  0  0  0
  -30.9710  -14.7200   21.1460 C   0  0  0  0  0  0  0  0  0  0  0  0
  -30.7830  -12.5730   19.9670 C   0  0  0  0  0  2  0  0  0  0  0  0
  -29.9520  -12.8220   18.6910 C   0  0  0  0  0  2  0  0  0  0  0  0
  -28.4450  -12.6760   18.9850 C   0  0  0  0  0  2  0  0  0  0  0  0
  -27.9980  -13.4800   20.2350 C   0  0  0  0  0  3  0  0  0  0  0  0
  -28.9560  -13.2350   21.4300 C   0  0  0  0  0  2  0  0  0  0  0  0
  -30.3280  -13.5360   20.9830 N   0  0  0  0  0  0  0  0  0  0  0  0
  -32.1310  -14.9230   20.7760 O   0  0  0  0  0  0  0  0  0  0  0  0
  -30.1780  -15.7460   21.4960 N   0  0  0  0  0  0  0  0  0  0  0  0
  -29.2670  -15.4930   21.8500 H   0  0  0  0  0  0  0  0  0  0  0  0
  -25.5370  -14.0800   20.7190 C   0  0  0  0  0  0  0  0  0  0  0  0
  -24.4450  -13.3080   21.0080 C   0  0  0  0  0  0  0  0  0  0  0  0
  -24.9140  -11.9560   21.0190 C   0  0  0  0  0  0  0  0  0  0  0  0
  -26.6050  -13.2040   20.5870 N   0  0  0  0  0  0  0  0  0  0  0  0
  -26.2270  -11.9230   20.8220 N   0  0  0  0  0  0  0  0  0  0  0  0
  -24.1820  -10.6920   21.1500 C   0  0  0  0  0  0  0  0  0  0  0  0
  -24.5330   -9.7310   22.1260 C   0  0  0  0  0  3  0  0  0  0  0  0
  -23.8000   -8.5300   22.2420 C   0  0  0  0  0  3  0  0  0  0  0  0
  -22.7040   -8.2810   21.3820 C   0  0  0  0  0  0  0  0  0  0  0  0
  -22.3760   -9.2290   20.3990 C   0  0  0  0  0  3  0  0  0  0  0  0
  -23.1090  -10.4200   20.2780 C   0  0  0  0  0  3  0  0  0  0  0  0
  -21.9540   -7.1300   21.4040 O   0  0  0  0  0  0  0  0  0  0  0  0
  -21.7870   -6.4000   22.5530 C   0  0  0  0  0  0  0  0  0  0  0  0
  -21.2050   -6.9550   23.7130 C   0  0  0  0  0  3  0  0  0  0  0  0
  -20.9940   -6.1510   24.8500 C   0  0  0  0  0  3  0  0  0  0  0  0
  -21.3530   -4.7900   24.8270 C   0  0  0  0  0  0  0  0  0  0  0  0
  -21.9310   -4.2340   23.6720 C   0  0  0  0  0  3  0  0  0  0  0  0
  -22.1460   -5.0370   22.5370 C   0  0  0  0  0  0  0  0  0  0  0  0
  -22.6830   -4.4890   21.4200 F   0  0  0  0  0  0  0  0  0  0  0  0
  -21.1450   -4.0160   25.9170 F   0  0  0  0  0  0  0  0  0  0  0  0
  -23.0240  -13.7810   21.1480 C   0  0  0  0  0  0  0  0  0  0  0  0
  -22.2190  -13.0930   21.9480 N   0  0  0  0  0  0  0  0  0  0  0  0
  -22.6310  -14.7970   20.5770 O   0  0  0  0  0  0  0  0  0  0  0  0
  -22.5390  -12.2730   22.4410 H   0  0  0  0  0  0  0  0  0  0  0  0
  -21.2640  -13.3990   22.0760 H   0  0  0  0  0  0  0  0  0  0  0  0
  -25.7090  -15.4490   20.5320 N   0  0  0  0  0  0  0  0  0  0  0  0
  -24.8950  -16.0490   20.4570 H   0  0  0  0  0  0  0  0  0  0  0  0
  -26.5000  -15.8010   20.0100 H   0  0  0  0  0  0  0  0  0  0  0  0
  1  2  1  0
  1  3  1  0
  4  6  1  0
  5  4  1  0
  7  1  1  0
  7  5  1  0
  7  8  1  0
  8 12  1  0
  8  9  1  0
  9  6  1  0
  9 10  1  0
 12 11  1  0
 13 15  1  0
 13 12  1  0
 14 25  2  0
 15 20  1  0
 16 24  1  0
 16 26  1  0
 17 23  1  0
 17 19  1  0
 18 24  1  0
 19 18  1  0
 20 19  2  0
 21 22  1  0
 21 15  2  0
 22 17  2  0
 23 16  1  0
 24 14  1  0
 26 28  2  0
 27 26  1  0
 29 27  1  0
 30 39  2  0
 30 35  1  0
 31 27  1  0
 31 35  1  0
 32 31  1  0
 33 34  1  0
 33 32  1  0
 34 30  1  0
 35 36  2  0
 36 37  1  0
 38 37  2  0
 39 38  1  0
 40 14  1  0
 40 45  1  0
 40 41  1  0
 41 44  1  1
 41 42  1  0
 43 41  1  0
 45 48  1  0
 46 50  1  0
 46 45  1  0
 47 46  2  0
 50 49  1  0
 50 52  1  0
 52 53  1  0
 52 51  1  0
 54  1  1  0
 55 54  1  0
 55 56  1  0
 55 59  1  0
 57 56  1  0
 58 56  1  0
 60 59  1  0
 60 63  1  0
 61 60  1  0
 62 60  1  0
 63 64  1  0
 64 73  1  0
 65 73  1  0
 66 71  1  0
 67 68  1  0
 67 66  1  0
 69 68  1  0
 69 78  1  0
 69 70  1  0
 71 65  1  0
 71 70  1  0
 72 65  2  0
 73 74  1  0
 75 76  2  0
 76 77  1  0
 76 95  1  0
 77 80  1  0
 78 75  1  0
 78 79  1  0
 79 77  2  0
 80 81  1  0
 81 82  2  0
 83 86  1  0
 83 82  1  0
 84 83  2  0
 85 84  1  0
 85 80  2  0
 86 87  1  0
 87 88  1  0
 88 89  2  0
 90 89  1  0
 90 94  1  0
 91 90  2  0
 92 87  2  0
 92 91  1  0
 93 92  1  0
 95 96  1  0
 96 99  1  0
 96 98  1  0
 97 95  2  0
100 75  1  0
101100  1  0
102100  1  0
M  ISO  4  12 101  13 101  65 100  73 100
M  END
>  <TORSDO>  (25) 
F 25

>  <SCORE>  (25) 
-11.444

>  <name>  (25) 
24

>  <ligand_id>  (25) 
24

>  <original_smiles>  (25) 
[H]c1c([H])c([H])c2c(c1[H])C([H])([H])C([H])([H])C([H])([H])C2([H])N([H])C(=O)C1([H])N(C(=O)C([H])(N([H])C(=O)C([H])(N([H])C([H])([H])[H])C([H])([H])[H])C(C([H])([H])[H])(C([H])([H])[H])C([H])([H])[H])C([H])([H])c2c([H])c(OC([H])(C([H])([H])[H])C3([H])N([H])C([H])([H])C([H])([H])C([H])([H])C3([H])[N+]([H])([H])C([H])([H])C([H])(N([H])[H])C([H])([H])[N+]([H])([H])C([H])([H])C([H])([H])N([H])C(=O)N3C([H])([H])C([H])([H])C([H])([H])C([H])(n4nc(-c5c([H])c([H])c(Oc6c([H])c([H])c(F)c([H])c6F)c([H])c5[H])c(C(=O)N([H])[H])c4N([H])[H])C3([H])[H])c([H])c([H])c2C1([H])[H]

>  <smiles>  (25) 
[H]c1c([H])c([H])c2c(c1[H])C([H])([H])C([H])([H])C([H])([H])C2([H])N([H])C(=O)C1([H])N(C(=O)C([H])(N([H])C(=O)C([H])(N([H])C([H])([H])[H])C([H])([H])[H])C(C([H])([H])[H])(C([H])([H])[H])C([H])([H])[H])C([H])([H])c2c([H])c(OC([H])(C([H])([H])[H])C3([H])N([H])C([H])([H])C([H])([H])C([H])([H])C3([H])[N+]([H])([H])C([H])([H])C([H])(N([H])[H])C([H])([H])[N+]([H])([H])C([H])([H])C([H])([H])N([H])C(=O)N3C([H])([H])C([H])([H])C([H])([H])C([H])(n4nc(-c5c([H])c([H])c(Oc6c([H])c([H])c(F)c([H])c6F)c([H])c5[H])c(C(=O)N([H])[H])c4N([H])[H])C3([H])[H])c([H])c([H])c2C1([H])[H]

$$$$
25:0:0
     RDKit          3D

 98107  0  0  1  0  0  0  0  0999 V2000
  -27.3270  -21.6660   18.3790 C   0  0  0  0  0  2  0  0  0  0  0  0
  -26.6710  -22.9960   17.9790 C   0  0  0  0  0  2  0  0  0  0  0  0
  -27.9420  -21.8590   19.7740 C   0  0  0  0  0  3  0  0  0  0  0  0
  -27.2980  -24.1160   18.8380 C   0  0  0  0  0  3  0  0  0  0  0  0
  -28.3660  -23.3790   19.7200 C   0  0  0  0  0  3  0  0  0  0  0  0
  -28.5430  -24.8120   23.8900 C   0  0  0  0  0  2  0  0  0  0  0  0
  -27.5100  -25.3950   22.9160 C   0  0  0  0  0  2  0  0  0  0  0  0
  -29.8270  -24.4220   23.1410 C   0  0  0  0  0  2  0  0  0  0  0  0
  -27.2520  -24.4300   21.7460 C   0  0  0  0  0  2  0  0  0  0  0  0
  -29.5260  -23.4820   21.9550 C   0  0  0  0  0  2  0  0  0  0  0  0
  -28.5190  -24.0810   21.0370 N   0  0  1  0  0  4  0  0  0  0  0  0
  -28.9310  -24.9680   20.7830 H   0  0  0  0  0  0  0  0  0  0  0  0
  -29.0270  -20.7460   20.0800 C   0  0  0  0  0  2  0  0  0  0  0  0
  -28.4280  -19.4730   20.5990 N   0  0  0  0  0  4  0  0  0  0  0  0
  -27.4610  -19.4870   20.3150 H   0  0  0  0  0  0  0  0  0  0  0  0
  -28.4210  -19.4860   21.6060 H   0  0  0  0  0  0  0  0  0  0  0  0
  -28.9170  -18.1370   20.1240 C   0  0  0  0  0  2  0  0  0  0  0  0
  -29.8310  -17.3430   21.1190 C   0  0  0  0  0  2  0  0  0  0  0  0
  -30.5400  -14.9130   20.5770 C   0  0  0  0  0  0  0  0  0  0  0  0
  -30.4910  -12.6410   19.5870 C   0  0  0  0  0  2  0  0  0  0  0  0
  -29.5620  -12.6510   18.3520 C   0  0  0  0  0  2  0  0  0  0  0  0
  -28.0880  -12.4420   18.7570 C   0  0  0  0  0  2  0  0  0  0  0  0
  -27.6560  -13.3540   19.9350 C   0  0  0  0  0  3  0  0  0  0  0  0
  -28.6890  -13.2810   21.0800 C   0  0  0  0  0  2  0  0  0  0  0  0
  -30.0000  -13.6630   20.5250 N   0  0  0  0  0  0  0  0  0  0  0  0
  -31.6630  -15.1790   20.1390 O   0  0  0  0  0  0  0  0  0  0  0  0
  -29.6870  -15.8690   21.0050 N   0  0  0  0  0  0  0  0  0  0  0  0
  -28.8010  -15.5020   21.3200 H   0  0  0  0  0  0  0  0  0  0  0  0
  -25.2350  -13.8830   20.6320 C   0  0  0  0  0  0  0  0  0  0  0  0
  -24.1880  -13.0750   20.9830 C   0  0  0  0  0  0  0  0  0  0  0  0
  -24.6890  -11.7380   20.9350 C   0  0  0  0  0  0  0  0  0  0  0  0
  -26.3070  -13.0350   20.3960 N   0  0  0  0  0  0  0  0  0  0  0  0
  -25.9810  -11.7400   20.6350 N   0  0  0  0  0  0  0  0  0  0  0  0
  -23.9980  -10.4520   21.0970 C   0  0  0  0  0  0  0  0  0  0  0  0
  -24.3980   -9.5210   22.0820 C   0  0  0  0  0  3  0  0  0  0  0  0
  -23.7090   -8.2980   22.2310 C   0  0  0  0  0  3  0  0  0  0  0  0
  -22.6070   -7.9980   21.3940 C   0  0  0  0  0  0  0  0  0  0  0  0
  -22.2290   -8.9180   20.4020 C   0  0  0  0  0  3  0  0  0  0  0  0
  -22.9180  -10.1320   20.2500 C   0  0  0  0  0  3  0  0  0  0  0  0
  -21.8930   -6.8250   21.4520 O   0  0  0  0  0  0  0  0  0  0  0  0
  -21.7360   -6.1350   22.6260 C   0  0  0  0  0  0  0  0  0  0  0  0
  -21.0480   -6.6870   23.7290 C   0  0  0  0  0  3  0  0  0  0  0  0
  -20.8480   -5.9170   24.8920 C   0  0  0  0  0  3  0  0  0  0  0  0
  -21.3260   -4.5940   24.9520 C   0  0  0  0  0  0  0  0  0  0  0  0
  -22.0080   -4.0410   23.8540 C   0  0  0  0  0  3  0  0  0  0  0  0
  -22.2090   -4.8090   22.6930 C   0  0  0  0  0  0  0  0  0  0  0  0
  -22.8470   -4.2630   21.6300 F   0  0  0  0  0  0  0  0  0  0  0  0
  -21.1280   -3.8520   26.0650 F   0  0  0  0  0  0  0  0  0  0  0  0
  -22.7750  -13.5060   21.2510 C   0  0  0  0  0  0  0  0  0  0  0  0
  -22.0570  -12.7660   22.0880 N   0  0  0  0  0  0  0  0  0  0  0  0
  -22.3140  -14.5330   20.7530 O   0  0  0  0  0  0  0  0  0  0  0  0
  -22.4420  -11.9330   22.5100 H   0  0  0  0  0  0  0  0  0  0  0  0
  -21.1090  -13.0340   22.3100 H   0  0  0  0  0  0  0  0  0  0  0  0
  -25.3640  -15.2600   20.4730 N   0  0  0  0  0  0  0  0  0  0  0  0
  -24.5710  -15.8860   20.5620 H   0  0  0  0  0  0  0  0  0  0  0  0
  -26.1800  -15.7080   20.0800 H   0  0  0  0  0  0  0  0  0  0  0  0
  -27.8000  -25.3490   18.0000 C   0  0  0  0  0  2  0  0  0  0  0  0
  -27.8700  -26.6210   18.6900 O   0  0  0  0  0  0  0  0  0  0  0  0
  -24.6020  -31.4020   22.8800 C   0  0  0  0  0  0  0  0  0  0  0  0
  -26.7250  -27.3820   18.8940 C   0  0  0  0  0  0  0  0  0  0  0  0
  -23.1790  -30.3000   21.1850 C   0  0  0  0  0  3  0  0  0  0  0  0
  -24.4140  -28.9610   19.3950 C   0  0  0  0  0  0  0  0  0  0  0  0
  -25.6880  -30.6060   20.7770 C   0  0  0  0  0  2  0  0  0  0  0  0
  -25.6490  -29.3450   19.9330 C   0  0  0  0  0  0  0  0  0  0  0  0
  -26.8030  -28.5590   19.6840 C   0  0  0  0  0  3  0  0  0  0  0  0
  -25.4660  -27.0230   18.3600 C   0  0  0  0  0  3  0  0  0  0  0  0
  -24.3180  -27.8010   18.6080 C   0  0  0  0  0  3  0  0  0  0  0  0
  -23.2200  -29.8360   19.7040 C   0  0  0  0  0  2  0  0  0  0  0  0
  -24.5150  -30.7760   21.6710 N   0  0  0  0  0  0  0  0  0  0  0  0
  -23.5920  -31.6170   23.5650 O   0  0  0  0  0  0  0  0  0  0  0  0
  -22.5860  -29.1610   22.0450 C   0  0  0  0  0  0  0  0  0  0  0  0
  -21.2550  -28.9870   21.9740 N   0  0  0  0  0  0  0  0  0  0  0  0
  -23.3160  -28.4430   22.7320 O   0  0  0  0  0  0  0  0  0  0  0  0
  -20.7260  -29.6220   21.3940 H   0  0  0  0  0  0  0  0  0  0  0  0
  -17.9220  -27.6830   22.4750 C   0  0  0  0  0  0  0  0  0  0  0  0
  -20.4860  -27.9530   22.6660 C   0  0  0  0  0  3  0  0  0  0  0  0
  -20.5820  -26.6010   21.9240 C   0  0  0  0  0  2  0  0  0  0  0  0
  -19.4390  -26.3760   20.9270 C   0  0  0  0  0  2  0  0  0  0  0  0
  -18.0850  -26.4230   21.6420 C   0  0  0  0  0  2  0  0  0  0  0  0
  -19.0490  -28.4090   22.9430 C   0  0  0  0  0  0  0  0  0  0  0  0
  -18.8420  -29.5930   23.6850 C   0  0  0  0  0  3  0  0  0  0  0  0
  -17.5400  -30.0510   23.9620 C   0  0  0  0  0  3  0  0  0  0  0  0
  -16.4270  -29.3190   23.5100 C   0  0  0  0  0  3  0  0  0  0  0  0
  -16.6200  -28.1370   22.7740 C   0  0  0  0  0  3  0  0  0  0  0  0
  -25.9670  -31.8980   23.4470 C   0  0  0  0  0  3  0  0  0  0  0  0
  -25.7590  -33.2460   23.9910 N   0  0  0  0  0  0  0  0  0  0  0  0
  -26.1330  -34.3780   23.3780 C   0  0  0  0  0  0  0  0  0  0  0  0
  -26.7590  -34.3880   22.3150 O   0  0  0  0  0  0  0  0  0  0  0  0
  -25.2010  -33.3150   24.8280 H   0  0  0  0  0  0  0  0  0  0  0  0
  -24.5300  -36.3160   23.3370 C   0  0  0  0  0  1  0  0  0  0  0  0
  -25.7490  -35.7110   24.0510 C   0  0  0  0  0  3  0  0  0  0  0  0
  -27.9390  -36.3230   24.9780 C   0  0  0  0  0  1  0  0  0  0  0  0
  -26.8530  -36.6950   24.0750 N   0  0  0  0  0  0  0  0  0  0  0  0
  -26.5110  -37.6110   24.3510 H   0  0  0  0  0  0  0  0  0  0  0  0
  -26.5670  -30.9400   24.5500 C   0  0  1  0  0  0  0  0  0  0  0  0
  -25.5710  -30.5970   25.6830 C   0  0  0  0  0  1  0  0  0  0  0  0
  -27.0380  -29.6100   23.9170 C   0  0  0  0  0  1  0  0  0  0  0  0
  -27.8150  -31.5930   25.1880 C   0  0  0  0  0  1  0  0  0  0  0  0
  1  3  1  0
  2  1  1  0
  2  4  1  0
  3 13  1  0
  4 57  1  0
  4  5  1  0
  5  3  1  0
  5 11  1  0
  7  6  1  0
  8  6  1  0
  9  7  1  0
 10  8  1  0
 11  9  1  0
 11 10  1  0
 11 12  1  6
 13 14  1  0
 14 16  1  0
 15 14  1  0
 17 14  1  0
 17 18  1  0
 19 27  1  0
 20 25  1  0
 21 22  1  0
 21 20  1  0
 23 22  1  0
 23 32  1  0
 23 24  1  0
 25 19  1  0
 25 24  1  0
 26 19  2  0
 27 18  1  0
 27 28  1  0
 29 30  2  0
 30 49  1  0
 31 30  1  0
 31 34  1  0
 32 29  1  0
 32 33  1  0
 33 31  2  0
 34 35  1  0
 35 36  2  0
 37 40  1  0
 37 36  1  0
 38 37  2  0
 39 38  1  0
 39 34  2  0
 40 41  1  0
 41 46  2  0
 41 42  1  0
 42 43  2  0
 43 44  1  0
 44 48  1  0
 45 44  2  0
 46 45  1  0
 47 46  1  0
 49 50  1  0
 50 53  1  0
 50 52  1  0
 51 49  2  0
 54 55  1  0
 54 29  1  0
 56 54  1  0
 57 58  1  0
 58 60  1  0
 59 70  2  0
 60 65  1  0
 61 69  1  0
 61 71  1  0
 62 68  1  0
 62 64  1  0
 63 69  1  0
 64 63  1  0
 65 64  2  0
 66 67  1  0
 66 60  2  0
 67 62  2  0
 68 61  1  0
 69 59  1  0
 71 73  2  0
 72 71  1  0
 74 72  1  0
 75 84  2  0
 75 80  1  0
 76 72  1  0
 76 80  1  0
 77 76  1  0
 78 79  1  0
 78 77  1  0
 79 75  1  0
 80 81  2  0
 81 82  1  0
 83 82  2  0
 84 83  1  0
 85 59  1  0
 85 86  1  0
 85 95  1  0
 86 89  1  0
 87 86  1  0
 87 91  1  0
 88 87  2  0
 91 90  1  0
 91 93  1  0
 93 94  1  0
 93 92  1  0
 95 98  1  1
 95 96  1  0
 97 95  1  0
M  ISO  4  19 100  27 100  57 101  58 101
M  END
>  <TORSDO>  (26) 
F 22

>  <SCORE>  (26) 
-11.517

>  <name>  (26) 
25

>  <ligand_id>  (26) 
25

>  <original_smiles>  (26) 
[H]c1c([H])c([H])c2c(c1[H])C([H])([H])C([H])([H])C([H])([H])C2([H])N([H])C(=O)C1([H])N(C(=O)C([H])(N([H])C(=O)C([H])(N([H])C([H])([H])[H])C([H])([H])[H])C(C([H])([H])[H])(C([H])([H])[H])C([H])([H])[H])C([H])([H])c2c([H])c(OC([H])([H])C3([H])C([H])([H])C([H])([H])C([H])(C([H])([H])[N+]([H])([H])C([H])([H])C([H])([H])N([H])C(=O)N4C([H])([H])C([H])([H])C([H])([H])C([H])(n5nc(-c6c([H])c([H])c(Oc7c([H])c([H])c(F)c([H])c7F)c([H])c6[H])c(C(=O)N([H])[H])c5N([H])[H])C4([H])[H])C3([H])[N+]3([H])C([H])([H])C([H])([H])C([H])([H])C([H])([H])C3([H])[H])c([H])c([H])c2C1([H])[H]

>  <smiles>  (26) 
[H]c1c([H])c([H])c2c(c1[H])C([H])([H])C([H])([H])C([H])([H])C2([H])N([H])C(=O)C1([H])N(C(=O)C([H])(N([H])C(=O)C([H])(N([H])C([H])([H])[H])C([H])([H])[H])C(C([H])([H])[H])(C([H])([H])[H])C([H])([H])[H])C([H])([H])c2c([H])c(OC([H])([H])C3([H])C([H])([H])C([H])([H])C([H])(C([H])([H])[N+]([H])([H])C([H])([H])C([H])([H])N([H])C(=O)N4C([H])([H])C([H])([H])C([H])([H])C([H])(n5nc(-c6c([H])c([H])c(Oc7c([H])c([H])c(F)c([H])c7F)c([H])c6[H])c(C(=O)N([H])[H])c5N([H])[H])C4([H])[H])C3([H])[N+]3([H])C([H])([H])C([H])([H])C([H])([H])C([H])([H])C3([H])[H])c([H])c([H])c2C1([H])[H]

$$$$
26:0:0
     RDKit          3D

100108  0  0  1  0  0  0  0  0999 V2000
  -29.0320  -25.6660   22.1340 C   0  0  0  0  0  2  0  0  0  0  0  0
  -29.7670  -22.9640   22.6490 C   0  0  0  0  0  2  0  0  0  0  0  0
  -29.1480  -24.7420   20.8940 C   0  0  0  0  0  3  0  0  0  0  0  0
  -28.9440  -23.2220   21.3480 C   0  0  0  0  0  3  0  0  0  0  0  0
  -29.9080  -25.2340   23.3140 C   0  0  0  0  0  3  0  0  0  0  0  0
  -29.7630  -26.1790   24.5130 C   0  0  0  0  0  1  0  0  0  0  0  0
  -29.4760  -23.9080   23.7190 N   0  0  0  0  0  0  0  0  0  0  0  0
  -30.0070  -23.6310   24.5420 H   0  0  0  0  0  0  0  0  0  0  0  0
  -29.3330  -22.1700   20.3410 N   0  0  0  0  0  4  0  0  0  0  0  0
  -30.3200  -22.2690   20.1760 H   0  0  0  0  0  0  0  0  0  0  0  0
  -28.8690  -22.3700   19.4700 H   0  0  0  0  0  0  0  0  0  0  0  0
  -29.0550  -20.7200   20.6910 C   0  0  0  0  0  2  0  0  0  0  0  0
  -31.3650  -19.8540   20.0010 C   0  0  0  0  0  1  0  0  0  0  0  0
  -29.8440  -19.6640   19.8220 C   0  0  0  0  0  3  0  0  0  0  0  0
  -29.4590  -18.1130   19.9060 C   0  0  0  0  0  3  0  0  0  0  0  0
  -27.2450  -18.3000   18.7340 C   0  0  0  0  0  1  0  0  0  0  0  0
  -27.9950  -17.8670   19.9340 N   0  0  0  0  0  4  0  0  0  0  0  0
  -27.8620  -16.8740   20.0110 H   0  0  0  0  0  0  0  0  0  0  0  0
  -27.5750  -18.2670   20.7570 H   0  0  0  0  0  0  0  0  0  0  0  0
  -30.2000  -17.1870   20.9470 C   0  0  0  0  0  2  0  0  0  0  0  0
  -30.6140  -14.7320   20.3360 C   0  0  0  0  0  0  0  0  0  0  0  0
  -30.3860  -12.5660   19.1580 C   0  0  0  0  0  2  0  0  0  0  0  0
  -29.4290  -12.7550   17.9620 C   0  0  0  0  0  2  0  0  0  0  0  0
  -27.9600  -12.5700   18.3980 C   0  0  0  0  0  2  0  0  0  0  0  0
  -27.6130  -13.3740   19.6780 C   0  0  0  0  0  3  0  0  0  0  0  0
  -28.6810  -13.1650   20.7760 C   0  0  0  0  0  2  0  0  0  0  0  0
  -29.9890  -13.5240   20.2050 N   0  0  0  0  0  0  0  0  0  0  0  0
  -31.7330  -14.9490   19.8660 O   0  0  0  0  0  0  0  0  0  0  0  0
  -29.8620  -15.7330   20.8620 N   0  0  0  0  0  0  0  0  0  0  0  0
  -29.0030  -15.4260   21.2940 H   0  0  0  0  0  0  0  0  0  0  0  0
  -25.1940  -13.9160   20.3640 C   0  0  0  0  0  0  0  0  0  0  0  0
  -24.1560  -13.1200   20.7680 C   0  0  0  0  0  0  0  0  0  0  0  0
  -24.6630  -11.7850   20.7780 C   0  0  0  0  0  0  0  0  0  0  0  0
  -26.2690  -13.0640   20.1600 N   0  0  0  0  0  0  0  0  0  0  0  0
  -25.9530  -11.7810   20.4670 N   0  0  0  0  0  0  0  0  0  0  0  0
  -23.9820  -10.5040   21.0030 C   0  0  0  0  0  0  0  0  0  0  0  0
  -24.4200   -9.6020   21.9970 C   0  0  0  0  0  3  0  0  0  0  0  0
  -23.7380   -8.3840   22.2090 C   0  0  0  0  0  3  0  0  0  0  0  0
  -22.6040   -8.0600   21.4260 C   0  0  0  0  0  0  0  0  0  0  0  0
  -22.1870   -8.9520   20.4230 C   0  0  0  0  0  3  0  0  0  0  0  0
  -22.8700  -10.1600   20.2090 C   0  0  0  0  0  3  0  0  0  0  0  0
  -21.8950   -6.8900   21.5460 O   0  0  0  0  0  0  0  0  0  0  0  0
  -21.8070   -6.2200   22.7390 C   0  0  0  0  0  0  0  0  0  0  0  0
  -21.2300   -6.8100   23.8850 C   0  0  0  0  0  3  0  0  0  0  0  0
  -21.0980   -6.0620   25.0710 C   0  0  0  0  0  3  0  0  0  0  0  0
  -21.5310   -4.7230   25.1130 C   0  0  0  0  0  0  0  0  0  0  0  0
  -22.1000   -4.1310   23.9700 C   0  0  0  0  0  3  0  0  0  0  0  0
  -22.2340   -4.8780   22.7860 C   0  0  0  0  0  0  0  0  0  0  0  0
  -22.7640   -4.2960   21.6830 F   0  0  0  0  0  0  0  0  0  0  0  0
  -21.3960   -4.0000   26.2490 F   0  0  0  0  0  0  0  0  0  0  0  0
  -22.7410  -13.5560   21.0170 C   0  0  0  0  0  0  0  0  0  0  0  0
  -22.0320  -12.8650   21.9020 N   0  0  0  0  0  0  0  0  0  0  0  0
  -22.2730  -14.5470   20.4580 O   0  0  0  0  0  0  0  0  0  0  0  0
  -22.4240  -12.0640   22.3750 H   0  0  0  0  0  0  0  0  0  0  0  0
  -21.0830  -13.1400   22.1110 H   0  0  0  0  0  0  0  0  0  0  0  0
  -25.3100  -15.2810   20.1120 N   0  0  0  0  0  0  0  0  0  0  0  0
  -24.4120  -15.7540   20.1310 H   0  0  0  0  0  0  0  0  0  0  0  0
  -25.7740  -15.4540   19.2310 H   0  0  0  0  0  0  0  0  0  0  0  0
  -28.1690  -25.3440   19.8250 C   0  0  0  0  0  2  0  0  0  0  0  0
  -28.2780  -26.7960   19.7270 O   0  0  0  0  0  0  0  0  0  0  0  0
  -24.4770  -31.7990   23.1470 C   0  0  0  0  0  0  0  0  0  0  0  0
  -27.1100  -27.5460   19.7670 C   0  0  0  0  0  0  0  0  0  0  0  0
  -23.2620  -30.4920   21.4360 C   0  0  0  0  0  3  0  0  0  0  0  0
  -24.7090  -29.0580   19.8960 C   0  0  0  0  0  0  0  0  0  0  0  0
  -25.7850  -30.8790   21.2280 C   0  0  0  0  0  2  0  0  0  0  0  0
  -25.8740  -29.5490   20.4980 C   0  0  0  0  0  0  0  0  0  0  0  0
  -27.0780  -28.8040   20.4230 C   0  0  0  0  0  3  0  0  0  0  0  0
  -25.9260  -27.0820   19.1540 C   0  0  0  0  0  3  0  0  0  0  0  0
  -24.7320  -27.8270   19.2170 C   0  0  0  0  0  3  0  0  0  0  0  0
  -23.4580  -29.9030   20.0140 C   0  0  0  0  0  2  0  0  0  0  0  0
  -24.5270  -31.0690   21.9960 N   0  0  0  0  0  0  0  0  0  0  0  0
  -23.4000  -32.0260   23.7180 O   0  0  0  0  0  0  0  0  0  0  0  0
  -22.6310  -29.4070   22.3400 C   0  0  0  0  0  0  0  0  0  0  0  0
  -21.3040  -29.2320   22.2330 N   0  0  0  0  0  0  0  0  0  0  0  0
  -23.3330  -28.7290   23.0950 O   0  0  0  0  0  0  0  0  0  0  0  0
  -20.7980  -29.8340   21.5980 H   0  0  0  0  0  0  0  0  0  0  0  0
  -17.9330  -28.0500   22.7850 C   0  0  0  0  0  0  0  0  0  0  0  0
  -20.5050  -28.2420   22.9550 C   0  0  0  0  0  3  0  0  0  0  0  0
  -20.5520  -26.8680   22.2490 C   0  0  0  0  0  2  0  0  0  0  0  0
  -19.3980  -26.6560   21.2640 C   0  0  0  0  0  2  0  0  0  0  0  0
  -18.0500  -26.7640   21.9850 C   0  0  0  0  0  2  0  0  0  0  0  0
  -19.0860  -28.7510   23.2280 C   0  0  0  0  0  0  0  0  0  0  0  0
  -18.9190  -29.9600   23.9390 C   0  0  0  0  0  3  0  0  0  0  0  0
  -17.6350  -30.4660   24.2100 C   0  0  0  0  0  3  0  0  0  0  0  0
  -16.4970  -29.7580   23.7840 C   0  0  0  0  0  3  0  0  0  0  0  0
  -16.6480  -28.5520   23.0770 C   0  0  0  0  0  3  0  0  0  0  0  0
  -25.7640  -32.4030   23.7890 C   0  0  0  0  0  3  0  0  0  0  0  0
  -25.4780  -33.8060   24.1210 N   0  0  0  0  0  0  0  0  0  0  0  0
  -25.8620  -34.8570   23.3830 C   0  0  0  0  0  0  0  0  0  0  0  0
  -26.5650  -34.7450   22.3750 O   0  0  0  0  0  0  0  0  0  0  0  0
  -24.8600  -33.9690   24.9020 H   0  0  0  0  0  0  0  0  0  0  0  0
  -24.1960  -36.6960   22.9780 C   0  0  0  0  0  1  0  0  0  0  0  0
  -25.3930  -36.2520   23.8360 C   0  0  0  0  0  3  0  0  0  0  0  0
  -27.5050  -37.0820   24.7720 C   0  0  0  0  0  1  0  0  0  0  0  0
  -26.4550  -37.2790   23.7760 N   0  0  0  0  0  0  0  0  0  0  0  0
  -26.0660  -38.2090   23.9060 H   0  0  0  0  0  0  0  0  0  0  0  0
  -26.2510  -31.6160   25.0680 C   0  0  1  0  0  0  0  0  0  0  0  0
  -25.1390  -31.3910   26.1190 C   0  0  0  0  0  1  0  0  0  0  0  0
  -26.8160  -30.2310   24.6730 C   0  0  0  0  0  1  0  0  0  0  0  0
  -27.4060  -32.3870   25.7500 C   0  0  0  0  0  1  0  0  0  0  0  0
  1  5  1  0
  2  7  1  0
  3 59  1  0
  3  4  1  0
  3  1  1  0
  4  9  1  0
  4  2  1  0
  5  7  1  0
  5  6  1  0
  7  8  1  0
  9 12  1  0
 10  9  1  0
 11  9  1  0
 14 15  1  0
 14 13  1  0
 14 12  1  0
 15 17  1  0
 15 20  1  0
 16 17  1  0
 17 18  1  0
 17 19  1  0
 21 29  1  0
 22 27  1  0
 23 24  1  0
 23 22  1  0
 25 24  1  0
 25 34  1  0
 25 26  1  0
 27 21  1  0
 27 26  1  0
 28 21  2  0
 29 20  1  0
 29 30  1  0
 31 32  2  0
 32 33  1  0
 32 51  1  0
 33 36  1  0
 34 31  1  0
 34 35  1  0
 35 33  2  0
 36 37  1  0
 37 38  2  0
 39 42  1  0
 39 38  1  0
 40 39  2  0
 41 40  1  0
 41 36  2  0
 42 43  1  0
 43 48  2  0
 43 44  1  0
 44 45  2  0
 45 46  1  0
 46 50  1  0
 47 46  2  0
 48 47  1  0
 49 48  1  0
 51 52  1  0
 52 55  1  0
 52 54  1  0
 53 51  2  0
 56 57  1  0
 56 31  1  0
 58 56  1  0
 60 62  1  0
 60 59  1  0
 61 72  2  0
 62 67  1  0
 63 71  1  0
 63 73  1  0
 64 70  1  0
 64 66  1  0
 65 71  1  0
 66 65  1  0
 67 66  2  0
 68 69  1  0
 68 62  2  0
 69 64  2  0
 70 63  1  0
 71 61  1  0
 73 75  2  0
 74 73  1  0
 76 74  1  0
 77 86  2  0
 77 82  1  0
 78 74  1  0
 78 82  1  0
 79 78  1  0
 80 81  1  0
 80 79  1  0
 81 77  1  0
 82 83  2  0
 83 84  1  0
 85 84  2  0
 86 85  1  0
 87 61  1  0
 87 88  1  0
 87 97  1  0
 88 91  1  0
 89 93  1  0
 89 88  1  0
 90 89  2  0
 93 92  1  0
 95 93  1  0
 95 96  1  0
 95 94  1  0
 97100  1  1
 97 98  1  0
 99 97  1  0
M  ISO  4  21 100  29 100  59 101  60 101
M  END
>  <TORSDO>  (27) 
F 23

>  <SCORE>  (27) 
-12.203

>  <name>  (27) 
26

>  <ligand_id>  (27) 
26

>  <original_smiles>  (27) 
[H]c1c([H])c([H])c2c(c1[H])C([H])([H])C([H])([H])C([H])([H])C2([H])N([H])C(=O)C1([H])N(C(=O)C([H])(N([H])C(=O)C([H])(N([H])C([H])([H])[H])C([H])([H])[H])C(C([H])([H])[H])(C([H])([H])[H])C([H])([H])[H])C([H])([H])c2c([H])c(OC([H])([H])C3([H])C([H])([H])C([H])(C([H])([H])[H])N([H])C([H])([H])C3([H])[N+]([H])([H])C([H])([H])C([H])(C([H])([H])[H])C([H])(C([H])([H])N([H])C(=O)N3C([H])([H])C([H])([H])C([H])([H])C([H])(n4nc(-c5c([H])c([H])c(Oc6c([H])c([H])c(F)c([H])c6F)c([H])c5[H])c(C(=O)N([H])[H])c4N([H])[H])C3([H])[H])[N+]([H])([H])C([H])([H])[H])c([H])c([H])c2C1([H])[H]

>  <smiles>  (27) 
[H]c1c([H])c([H])c2c(c1[H])C([H])([H])C([H])([H])C([H])([H])C2([H])N([H])C(=O)C1([H])N(C(=O)C([H])(N([H])C(=O)C([H])(N([H])C([H])([H])[H])C([H])([H])[H])C(C([H])([H])[H])(C([H])([H])[H])C([H])([H])[H])C([H])([H])c2c([H])c(OC([H])([H])C3([H])C([H])([H])C([H])(C([H])([H])[H])N([H])C([H])([H])C3([H])[N+]([H])([H])C([H])([H])C([H])(C([H])([H])[H])C([H])(C([H])([H])N([H])C(=O)N3C([H])([H])C([H])([H])C([H])([H])C([H])(n4nc(-c5c([H])c([H])c(Oc6c([H])c([H])c(F)c([H])c6F)c([H])c5[H])c(C(=O)N([H])[H])c4N([H])[H])C3([H])[H])[N+]([H])([H])C([H])([H])[H])c([H])c([H])c2C1([H])[H]

$$$$
27:0:0
     RDKit          3D

 96105  0  0  1  0  0  0  0  0999 V2000
  -26.9790  -18.7570   19.9450 C   0  0  0  0  0  3  0  0  0  0  0  0
  -27.9800  -17.7760   20.0580 C   0  0  0  0  0  3  0  0  0  0  0  0
  -27.3240  -20.1170   20.0670 C   0  0  0  0  0  3  0  0  0  0  0  0
  -29.3180  -18.1720   20.2560 C   0  0  0  0  0  0  0  0  0  0  0  0
  -28.6670  -20.4750   20.2830 C   0  0  0  0  0  0  0  0  0  0  0  0
  -29.6390  -19.5110   20.3280 N   0  0  0  0  0  0  0  0  0  0  0  0
  -30.6020  -14.6580   19.7860 C   0  0  0  0  0  0  0  0  0  0  0  0
  -30.1770  -12.4780   18.6370 C   0  0  0  0  0  2  0  0  0  0  0  0
  -29.1120  -12.6370   17.5340 C   0  0  0  0  0  2  0  0  0  0  0  0
  -27.6970  -12.4610   18.1160 C   0  0  0  0  0  2  0  0  0  0  0  0
  -27.4800  -13.3040   19.3940 C   0  0  0  0  0  3  0  0  0  0  0  0
  -28.6450  -13.1270   20.3850 C   0  0  0  0  0  2  0  0  0  0  0  0
  -29.9020  -13.4750   19.6970 N   0  0  0  0  0  0  0  0  0  0  0  0
  -31.5910  -14.8440   19.0720 O   0  0  0  0  0  0  0  0  0  0  0  0
  -31.3450  -16.2250   22.5380 C   0  0  0  0  0  2  0  0  0  0  0  0
  -30.1540  -15.4210   22.0380 C   0  0  0  0  0  2  0  0  0  0  0  0
  -30.4700  -17.1250   20.4150 C   0  0  0  0  0  3  0  0  0  0  0  0
  -31.3120  -17.4730   21.6750 C   0  0  0  0  0  3  0  0  0  0  0  0
  -30.1080  -15.6620   20.5890 N   0  0  0  0  0  0  0  0  0  0  0  0
  -25.2060  -13.8940   20.4360 C   0  0  0  0  0  0  0  0  0  0  0  0
  -24.1850  -13.1150   20.9060 C   0  0  0  0  0  0  0  0  0  0  0  0
  -24.6150  -11.7620   20.7510 C   0  0  0  0  0  0  0  0  0  0  0  0
  -26.1960  -13.0150   20.0250 N   0  0  0  0  0  0  0  0  0  0  0  0
  -25.8530  -11.7240   20.2750 N   0  0  0  0  0  0  0  0  0  0  0  0
  -23.8970  -10.5000   20.9680 C   0  0  0  0  0  0  0  0  0  0  0  0
  -24.3600   -9.5400   21.8930 C   0  0  0  0  0  3  0  0  0  0  0  0
  -23.6440   -8.3430   22.1010 C   0  0  0  0  0  3  0  0  0  0  0  0
  -22.4510   -8.0970   21.3830 C   0  0  0  0  0  0  0  0  0  0  0  0
  -22.0050   -9.0470   20.4470 C   0  0  0  0  0  3  0  0  0  0  0  0
  -22.7220  -10.2360   20.2390 C   0  0  0  0  0  3  0  0  0  0  0  0
  -21.6990   -6.9530   21.5020 O   0  0  0  0  0  0  0  0  0  0  0  0
  -21.6090   -6.2740   22.6900 C   0  0  0  0  0  0  0  0  0  0  0  0
  -21.1260   -6.8850   23.8670 C   0  0  0  0  0  3  0  0  0  0  0  0
  -20.9860   -6.1280   25.0460 C   0  0  0  0  0  3  0  0  0  0  0  0
  -21.3160   -4.7590   25.0500 C   0  0  0  0  0  0  0  0  0  0  0  0
  -21.7900   -4.1470   23.8750 C   0  0  0  0  0  3  0  0  0  0  0  0
  -21.9330   -4.9020   22.6980 C   0  0  0  0  0  0  0  0  0  0  0  0
  -22.3720   -4.3040   21.5650 F   0  0  0  0  0  0  0  0  0  0  0  0
  -21.1720   -4.0280   26.1790 F   0  0  0  0  0  0  0  0  0  0  0  0
  -22.8420  -13.5940   21.3770 C   0  0  0  0  0  0  0  0  0  0  0  0
  -22.2330  -12.8720   22.3110 N   0  0  0  0  0  0  0  0  0  0  0  0
  -22.3480  -14.6380   20.9530 O   0  0  0  0  0  0  0  0  0  0  0  0
  -22.6490  -12.0230   22.6660 H   0  0  0  0  0  0  0  0  0  0  0  0
  -21.3380  -13.1670   22.6740 H   0  0  0  0  0  0  0  0  0  0  0  0
  -25.3570  -15.2690   20.2980 N   0  0  0  0  0  0  0  0  0  0  0  0
  -24.6010  -15.9110   20.5220 H   0  0  0  0  0  0  0  0  0  0  0  0
  -26.1190  -15.7060   19.7990 H   0  0  0  0  0  0  0  0  0  0  0  0
  -32.6310  -17.9060   21.3680 O   0  0  0  0  0  0  0  0  0  0  0  0
  -32.5590  -18.7600   20.9520 H   0  0  0  0  0  0  0  0  0  0  0  0
  -29.0160  -21.9500   20.6480 C   0  0  0  0  0  2  0  0  0  0  0  0
  -29.0110  -22.9370   19.5230 N   0  0  0  0  0  4  0  0  0  0  0  0
  -28.9130  -22.3770   18.6910 H   0  0  0  0  0  0  0  0  0  0  0  0
  -29.9390  -23.3280   19.4800 H   0  0  0  0  0  0  0  0  0  0  0  0
  -27.9980  -24.0680   19.4790 C   0  0  0  0  0  2  0  0  0  0  0  0
  -28.2360  -25.3070   20.4240 C   0  0  0  0  0  2  0  0  0  0  0  0
  -28.2640  -26.6330   19.8050 O   0  0  0  0  0  0  0  0  0  0  0  0
  -24.5290  -31.8500   23.0190 C   0  0  0  0  0  0  0  0  0  0  0  0
  -27.1130  -27.4090   19.8420 C   0  0  0  0  0  0  0  0  0  0  0  0
  -23.3090  -30.5070   21.3380 C   0  0  0  0  0  3  0  0  0  0  0  0
  -24.7470  -28.9840   19.8750 C   0  0  0  0  0  0  0  0  0  0  0  0
  -25.8410  -30.8350   21.1480 C   0  0  0  0  0  2  0  0  0  0  0  0
  -25.9150  -29.4710   20.4770 C   0  0  0  0  0  0  0  0  0  0  0  0
  -27.1030  -28.6960   20.4480 C   0  0  0  0  0  3  0  0  0  0  0  0
  -25.9260  -26.9450   19.2360 C   0  0  0  0  0  3  0  0  0  0  0  0
  -24.7510  -27.7240   19.2480 C   0  0  0  0  0  3  0  0  0  0  0  0
  -23.5170  -29.8660   19.9390 C   0  0  0  0  0  2  0  0  0  0  0  0
  -24.5790  -31.0790   21.8940 N   0  0  0  0  0  0  0  0  0  0  0  0
  -23.4510  -32.1190   23.5650 O   0  0  0  0  0  0  0  0  0  0  0  0
  -22.6400  -29.4710   22.2690 C   0  0  0  0  0  0  0  0  0  0  0  0
  -21.3070  -29.3390   22.1610 N   0  0  0  0  0  0  0  0  0  0  0  0
  -23.3170  -28.7920   23.0460 O   0  0  0  0  0  0  0  0  0  0  0  0
  -20.8240  -29.9350   21.5040 H   0  0  0  0  0  0  0  0  0  0  0  0
  -17.9040  -28.2350   22.6840 C   0  0  0  0  0  0  0  0  0  0  0  0
  -20.4750  -28.3940   22.9050 C   0  0  0  0  0  3  0  0  0  0  0  0
  -20.5160  -26.9890   22.2610 C   0  0  0  0  0  2  0  0  0  0  0  0
  -19.3810  -26.7510   21.2590 C   0  0  0  0  0  2  0  0  0  0  0  0
  -18.0200  -26.9120   21.9440 C   0  0  0  0  0  2  0  0  0  0  0  0
  -19.0580  -28.9350   23.1210 C   0  0  0  0  0  0  0  0  0  0  0  0
  -18.8980  -30.1760   23.7770 C   0  0  0  0  0  3  0  0  0  0  0  0
  -17.6170  -30.7140   23.9980 C   0  0  0  0  0  3  0  0  0  0  0  0
  -16.4770  -30.0080   23.5790 C   0  0  0  0  0  3  0  0  0  0  0  0
  -16.6210  -28.7700   22.9260 C   0  0  0  0  0  3  0  0  0  0  0  0
  -25.8210  -32.4470   23.6590 C   0  0  0  0  0  3  0  0  0  0  0  0
  -25.5290  -33.8360   24.0390 N   0  0  0  0  0  0  0  0  0  0  0  0
  -25.8700  -34.9100   23.3130 C   0  0  0  0  0  0  0  0  0  0  0  0
  -26.5370  -34.8330   22.2780 O   0  0  0  0  0  0  0  0  0  0  0  0
  -24.9370  -33.9740   24.8440 H   0  0  0  0  0  0  0  0  0  0  0  0
  -24.1580  -36.7300   23.0220 C   0  0  0  0  0  1  0  0  0  0  0  0
  -25.3980  -36.2880   23.8170 C   0  0  0  0  0  3  0  0  0  0  0  0
  -27.5430  -37.1270   24.6730 C   0  0  0  0  0  1  0  0  0  0  0  0
  -26.4410  -37.3340   23.7360 N   0  0  0  0  0  0  0  0  0  0  0  0
  -26.0420  -38.2530   23.9130 H   0  0  0  0  0  0  0  0  0  0  0  0
  -26.3340  -31.6270   24.9060 C   0  0  1  0  0  0  0  0  0  0  0  0
  -25.2470  -31.3760   25.9770 C   0  0  0  0  0  1  0  0  0  0  0  0
  -26.8890  -30.2530   24.4640 C   0  0  0  0  0  1  0  0  0  0  0  0
  -27.5040  -32.3790   25.5840 C   0  0  0  0  0  1  0  0  0  0  0  0
  1  2  2  0
  1  3  1  0
  2  4  1  0
  3  5  2  0
  4  6  2  0
  5  6  1  0
  5 50  1  0
  7 19  1  0
  8 13  1  0
  9 10  1  0
  9  8  1  0
 11 10  1  0
 11 23  1  0
 11 12  1  0
 13  7  1  0
 13 12  1  0
 14  7  2  0
 16 15  1  0
 17  4  1  0
 17 19  1  0
 17 18  1  0
 18 48  1  0
 18 15  1  0
 19 16  1  0
 20 21  2  0
 21 40  1  0
 22 21  1  0
 22 25  1  0
 23 24  1  0
 23 20  1  0
 24 22  2  0
 25 26  1  0
 26 27  2  0
 28 31  1  0
 28 27  1  0
 29 28  2  0
 30 29  1  0
 30 25  2  0
 31 32  1  0
 32 37  2  0
 32 33  1  0
 33 34  2  0
 34 35  1  0
 35 39  1  0
 36 35  2  0
 37 36  1  0
 38 37  1  0
 40 41  1  0
 41 43  1  0
 41 44  1  0
 42 40  2  0
 45 20  1  0
 45 46  1  0
 47 45  1  0
 49 48  1  0
 51 50  1  0
 52 51  1  0
 53 51  1  0
 54 51  1  0
 54 55  1  0
 56 58  1  0
 56 55  1  0
 57 68  2  0
 58 63  1  0
 59 67  1  0
 59 69  1  0
 60 66  1  0
 60 62  1  0
 61 67  1  0
 62 61  1  0
 63 62  2  0
 64 65  1  0
 64 58  2  0
 65 60  2  0
 66 59  1  0
 67 57  1  0
 69 71  2  0
 70 69  1  0
 72 70  1  0
 73 82  2  0
 73 78  1  0
 74 70  1  0
 74 78  1  0
 75 74  1  0
 76 77  1  0
 76 75  1  0
 77 73  1  0
 78 79  2  0
 79 80  1  0
 81 80  2  0
 82 81  1  0
 83 57  1  0
 83 84  1  0
 83 93  1  0
 84 87  1  0
 85 89  1  0
 85 84  1  0
 86 85  2  0
 89 88  1  0
 91 89  1  0
 91 92  1  0
 91 90  1  0
 93 96  1  1
 93 94  1  0
 95 93  1  0
M  ISO  4   7 100  19 100  55 101  56 101
M  END
>  <TORSDO>  (28) 
F 21

>  <SCORE>  (28) 
-11.573

>  <name>  (28) 
27

>  <ligand_id>  (28) 
27

>  <original_smiles>  (28) 
[H]OC1([H])C([H])(c2nc(C([H])([H])[N+]([H])([H])C([H])([H])C([H])([H])Oc3c([H])c([H])c4c(c3[H])C([H])([H])N(C(=O)C([H])(N([H])C(=O)C([H])(N([H])C([H])([H])[H])C([H])([H])[H])C(C([H])([H])[H])(C([H])([H])[H])C([H])([H])[H])C([H])(C(=O)N([H])C3([H])c5c([H])c([H])c([H])c([H])c5C([H])([H])C([H])([H])C3([H])[H])C4([H])[H])c([H])c([H])c2[H])N(C(=O)N2C([H])([H])C([H])([H])C([H])([H])C([H])(n3nc(-c4c([H])c([H])c(Oc5c([H])c([H])c(F)c([H])c5F)c([H])c4[H])c(C(=O)N([H])[H])c3N([H])[H])C2([H])[H])C([H])([H])C1([H])[H]

>  <smiles>  (28) 
[H]OC1([H])C([H])(c2nc(C([H])([H])[N+]([H])([H])C([H])([H])C([H])([H])Oc3c([H])c([H])c4c(c3[H])C([H])([H])N(C(=O)C([H])(N([H])C(=O)C([H])(N([H])C([H])([H])[H])C([H])([H])[H])C(C([H])([H])[H])(C([H])([H])[H])C([H])([H])[H])C([H])(C(=O)N([H])C3([H])c5c([H])c([H])c([H])c([H])c5C([H])([H])C([H])([H])C3([H])[H])C4([H])[H])c([H])c([H])c2[H])N(C(=O)N2C([H])([H])C([H])([H])C([H])([H])C([H])(n3nc(-c4c([H])c([H])c(Oc5c([H])c([H])c(F)c([H])c5F)c([H])c4[H])c(C(=O)N([H])[H])c3N([H])[H])C2([H])[H])C([H])([H])C1([H])[H]

$$$$
28:0:0
     RDKit          3D

 96105  0  0  1  0  0  0  0  0999 V2000
  -30.4270  -19.7040   21.5000 C   0  0  0  0  0  3  0  0  0  0  0  0
  -30.5800  -18.2750   21.5180 C   0  0  0  0  0  3  0  0  0  0  0  0
  -28.5940  -19.5090   19.9950 C   0  0  0  0  0  3  0  0  0  0  0  0
  -28.7230  -18.0700   20.0050 C   0  0  0  0  0  0  0  0  0  0  0  0
  -29.4150  -20.3840   20.7580 C   0  0  0  0  0  0  0  0  0  0  0  0
  -29.7300  -17.3940   20.7900 C   0  0  0  0  0  0  0  0  0  0  0  0
  -30.6280  -14.8830   20.8770 C   0  0  0  0  0  0  0  0  0  0  0  0
  -30.6190  -12.5580   19.9470 C   0  0  0  0  0  2  0  0  0  0  0  0
  -29.7480  -12.5530   18.6710 C   0  0  0  0  0  2  0  0  0  0  0  0
  -28.2590  -12.3410   19.0180 C   0  0  0  0  0  2  0  0  0  0  0  0
  -27.7830  -13.2530   20.1790 C   0  0  0  0  0  3  0  0  0  0  0  0
  -28.7760  -13.2220   21.3620 C   0  0  0  0  0  2  0  0  0  0  0  0
  -30.0940  -13.6140   20.8410 N   0  0  0  0  0  0  0  0  0  0  0  0
  -31.8230  -15.0650   20.6170 O   0  0  0  0  0  0  0  0  0  0  0  0
  -29.7200  -15.9200   21.0260 N   0  0  0  0  0  0  0  0  0  0  0  0
  -28.7920  -15.5450   21.1440 H   0  0  0  0  0  0  0  0  0  0  0  0
  -25.3510  -13.8080   20.7820 C   0  0  0  0  0  0  0  0  0  0  0  0
  -24.2790  -13.0160   21.0930 C   0  0  0  0  0  0  0  0  0  0  0  0
  -24.7640  -11.6730   21.0770 C   0  0  0  0  0  0  0  0  0  0  0  0
  -26.4190  -12.9460   20.5940 N   0  0  0  0  0  0  0  0  0  0  0  0
  -26.0700  -11.6560   20.8350 N   0  0  0  0  0  0  0  0  0  0  0  0
  -24.0490  -10.3990   21.2200 C   0  0  0  0  0  0  0  0  0  0  0  0
  -24.4450   -9.4320   22.1700 C   0  0  0  0  0  3  0  0  0  0  0  0
  -23.7300   -8.2220   22.3020 C   0  0  0  0  0  3  0  0  0  0  0  0
  -22.6040   -7.9710   21.4820 C   0  0  0  0  0  0  0  0  0  0  0  0
  -22.2260   -8.9280   20.5230 C   0  0  0  0  0  3  0  0  0  0  0  0
  -22.9440  -10.1290   20.3890 C   0  0  0  0  0  3  0  0  0  0  0  0
  -21.8630   -6.8150   21.5230 O   0  0  0  0  0  0  0  0  0  0  0  0
  -21.7600   -6.0660   22.6680 C   0  0  0  0  0  0  0  0  0  0  0  0
  -21.2280   -6.6020   23.8610 C   0  0  0  0  0  3  0  0  0  0  0  0
  -21.0750   -5.7780   24.9940 C   0  0  0  0  0  3  0  0  0  0  0  0
  -21.4430   -4.4200   24.9350 C   0  0  0  0  0  0  0  0  0  0  0  0
  -21.9680   -3.8840   23.7450 C   0  0  0  0  0  3  0  0  0  0  0  0
  -22.1220   -4.7060   22.6140 C   0  0  0  0  0  0  0  0  0  0  0  0
  -22.6080   -4.1800   21.4640 F   0  0  0  0  0  0  0  0  0  0  0  0
  -21.2890   -3.6270   26.0200 F   0  0  0  0  0  0  0  0  0  0  0  0
  -22.8630  -13.4710   21.2910 C   0  0  0  0  0  0  0  0  0  0  0  0
  -22.1000  -12.7600   22.1160 N   0  0  0  0  0  0  0  0  0  0  0  0
  -22.4370  -14.4920   20.7520 O   0  0  0  0  0  0  0  0  0  0  0  0
  -22.4560  -11.9340   22.5740 H   0  0  0  0  0  0  0  0  0  0  0  0
  -21.1480  -13.0470   22.2910 H   0  0  0  0  0  0  0  0  0  0  0  0
  -25.4950  -15.1820   20.6200 N   0  0  0  0  0  0  0  0  0  0  0  0
  -24.6960  -15.8030   20.6750 H   0  0  0  0  0  0  0  0  0  0  0  0
  -26.3150  -15.6340   20.2360 H   0  0  0  0  0  0  0  0  0  0  0  0
  -27.8020  -22.5540   21.1090 C   0  0  0  0  0  2  0  0  0  0  0  0
  -29.7400  -22.8270   19.6160 C   0  0  0  0  0  2  0  0  0  0  0  0
  -27.7160  -24.1330   21.3040 C   0  0  0  0  0  2  0  0  0  0  0  0
  -29.6690  -24.4020   19.8190 C   0  0  0  0  0  2  0  0  0  0  0  0
  -29.2330  -21.9810   20.8260 C   0  0  0  0  0  3  0  0  0  0  0  0
  -28.2610  -25.0160   20.1280 C   0  0  0  0  0  3  0  0  0  0  0  0
  -28.3180  -26.5060   20.3620 O   0  0  0  0  0  0  0  0  0  0  0  0
  -24.6470  -32.0140   23.3380 C   0  0  0  0  0  0  0  0  0  0  0  0
  -27.1900  -27.3600   20.3130 C   0  0  0  0  0  0  0  0  0  0  0  0
  -23.4200  -30.6140   21.7160 C   0  0  0  0  0  3  0  0  0  0  0  0
  -24.8440  -29.0260   20.2980 C   0  0  0  0  0  0  0  0  0  0  0  0
  -25.9650  -30.8910   21.5200 C   0  0  0  0  0  2  0  0  0  0  0  0
  -26.0240  -29.5030   20.8830 C   0  0  0  0  0  0  0  0  0  0  0  0
  -27.1970  -28.6820   20.8760 C   0  0  0  0  0  3  0  0  0  0  0  0
  -25.9820  -26.9430   19.7120 C   0  0  0  0  0  3  0  0  0  0  0  0
  -24.8290  -27.7550   19.7030 C   0  0  0  0  0  3  0  0  0  0  0  0
  -23.6200  -29.9210   20.3430 C   0  0  0  0  0  2  0  0  0  0  0  0
  -24.6980  -31.1930   22.2480 N   0  0  0  0  0  0  0  0  0  0  0  0
  -23.5690  -32.3100   23.8750 O   0  0  0  0  0  0  0  0  0  0  0  0
  -22.7470  -29.6180   22.6900 C   0  0  0  0  0  0  0  0  0  0  0  0
  -21.4270  -29.4190   22.5390 N   0  0  0  0  0  0  0  0  0  0  0  0
  -23.4140  -29.0250   23.5420 O   0  0  0  0  0  0  0  0  0  0  0  0
  -20.9460  -29.9480   21.8250 H   0  0  0  0  0  0  0  0  0  0  0  0
  -18.0660  -28.1440   22.9560 C   0  0  0  0  0  0  0  0  0  0  0  0
  -20.6030  -28.4900   23.3160 C   0  0  0  0  0  3  0  0  0  0  0  0
  -20.7690  -27.0400   22.8080 C   0  0  0  0  0  2  0  0  0  0  0  0
  -19.7190  -26.6420   21.7650 C   0  0  0  0  0  2  0  0  0  0  0  0
  -18.3090  -26.7730   22.3460 C   0  0  0  0  0  2  0  0  0  0  0  0
  -19.1440  -28.9570   23.3970 C   0  0  0  0  0  0  0  0  0  0  0  0
  -18.8660  -30.2360   23.9260 C   0  0  0  0  0  3  0  0  0  0  0  0
  -17.5400  -30.7040   24.0190 C   0  0  0  0  0  3  0  0  0  0  0  0
  -16.4770  -29.8880   23.5940 C   0  0  0  0  0  3  0  0  0  0  0  0
  -16.7400  -28.6110   23.0690 C   0  0  0  0  0  3  0  0  0  0  0  0
  -25.9390  -32.6380   23.9500 C   0  0  0  0  0  3  0  0  0  0  0  0
  -25.6430  -34.0390   24.2820 N   0  0  0  0  0  0  0  0  0  0  0  0
  -25.9420  -35.0880   23.5040 C   0  0  0  0  0  0  0  0  0  0  0  0
  -26.5660  -34.9760   22.4450 O   0  0  0  0  0  0  0  0  0  0  0  0
  -25.0840  -34.1990   25.1080 H   0  0  0  0  0  0  0  0  0  0  0  0
  -24.1800  -36.8640   23.2420 C   0  0  0  0  0  1  0  0  0  0  0  0
  -25.4770  -36.4790   23.9730 C   0  0  0  0  0  3  0  0  0  0  0  0
  -27.6510  -37.3980   24.6500 C   0  0  0  0  0  1  0  0  0  0  0  0
  -26.4910  -37.5380   23.7740 N   0  0  0  0  0  0  0  0  0  0  0  0
  -26.0870  -38.4580   23.9280 H   0  0  0  0  0  0  0  0  0  0  0  0
  -26.4580  -31.8660   25.2250 C   0  0  1  0  0  0  0  0  0  0  0  0
  -25.3650  -31.6200   26.2920 C   0  0  0  0  0  1  0  0  0  0  0  0
  -27.0470  -30.4910   24.8310 C   0  0  0  0  0  1  0  0  0  0  0  0
  -27.6050  -32.6620   25.8900 C   0  0  0  0  0  1  0  0  0  0  0  0
  -27.7760  -17.2880   19.1340 C   0  0  0  0  0  0  0  0  0  0  0  0
  -26.5280  -17.7360   19.0770 N   0  0  0  0  0  0  0  0  0  0  0  0
  -28.1240  -16.2700   18.5400 O   0  0  0  0  0  0  0  0  0  0  0  0
  -26.2650  -18.5610   19.5950 H   0  0  0  0  0  0  0  0  0  0  0  0
  -25.8420  -17.2660   18.5050 H   0  0  0  0  0  0  0  0  0  0  0  0
  1  2  1  0
  3  4  2  0
  3  5  1  0
  4  6  1  0
  5  1  2  0
  6 15  1  0
  6  2  2  0
  7 15  1  0
  8 13  1  0
  9 10  1  0
  9  8  1  0
 11 10  1  0
 11 20  1  0
 11 12  1  0
 13  7  1  0
 13 12  1  0
 14  7  2  0
 15 16  1  0
 17 18  2  0
 18 37  1  0
 19 18  1  0
 19 22  1  0
 20 17  1  0
 20 21  1  0
 21 19  2  0
 22 23  1  0
 23 24  2  0
 25 28  1  0
 25 24  1  0
 26 25  2  0
 27 26  1  0
 27 22  2  0
 28 29  1  0
 29 30  1  0
 30 31  2  0
 32 31  1  0
 32 36  1  0
 33 32  2  0
 34 29  2  0
 34 33  1  0
 35 34  1  0
 37 38  1  0
 38 41  1  0
 38 40  1  0
 39 37  2  0
 42 43  1  0
 42 17  1  0
 44 42  1  0
 45 47  1  0
 46 48  1  0
 46 49  1  0
 48 50  1  0
 49  5  1  0
 49 45  1  0
 50 51  1  0
 50 47  1  0
 52 63  2  0
 53 51  1  0
 53 58  1  0
 54 62  1  0
 54 64  1  0
 55 61  1  0
 55 57  1  0
 56 62  1  0
 57 56  1  0
 58 57  2  0
 59 53  2  0
 60 59  1  0
 60 55  2  0
 61 54  1  0
 62 52  1  0
 64 66  2  0
 65 64  1  0
 67 65  1  0
 68 77  2  0
 68 73  1  0
 69 65  1  0
 69 73  1  0
 70 69  1  0
 71 72  1  0
 71 70  1  0
 72 68  1  0
 73 74  2  0
 74 75  1  0
 76 75  2  0
 77 76  1  0
 78 52  1  0
 78 79  1  0
 78 88  1  0
 79 82  1  0
 80 84  1  0
 80 79  1  0
 81 80  2  0
 84 83  1  0
 86 87  1  0
 86 84  1  0
 86 85  1  0
 88 91  1  1
 88 89  1  0
 90 88  1  0
 92  4  1  0
 93 92  1  0
 93 95  1  0
 94 92  2  0
 96 93  1  0
M  ISO  4   7 100  15 100  50 101  51 101
M  END
>  <TORSDO>  (29) 
F 18

>  <SCORE>  (29) 
-14.498

>  <name>  (29) 
28

>  <ligand_id>  (29) 
28

>  <original_smiles>  (29) 
[H]c1c([H])c([H])c2c(c1[H])C([H])([H])C([H])([H])C([H])([H])C2([H])N([H])C(=O)C1([H])N(C(=O)C([H])(N([H])C(=O)C([H])(N([H])C([H])([H])[H])C([H])([H])[H])C(C([H])([H])[H])(C([H])([H])[H])C([H])([H])[H])C([H])([H])c2c([H])c(OC3([H])C([H])([H])C([H])([H])C([H])(c4c([H])c([H])c(N([H])C(=O)N5C([H])([H])C([H])([H])C([H])([H])C([H])(n6nc(-c7c([H])c([H])c(Oc8c([H])c([H])c(F)c([H])c8F)c([H])c7[H])c(C(=O)N([H])[H])c6N([H])[H])C5([H])[H])c(C(=O)N([H])[H])c4[H])C([H])([H])C3([H])[H])c([H])c([H])c2C1([H])[H]

>  <smiles>  (29) 
[H]c1c([H])c([H])c2c(c1[H])C([H])([H])C([H])([H])C([H])([H])C2([H])N([H])C(=O)C1([H])N(C(=O)C([H])(N([H])C(=O)C([H])(N([H])C([H])([H])[H])C([H])([H])[H])C(C([H])([H])[H])(C([H])([H])[H])C([H])([H])[H])C([H])([H])c2c([H])c(OC3([H])C([H])([H])C([H])([H])C([H])(c4c([H])c([H])c(N([H])C(=O)N5C([H])([H])C([H])([H])C([H])([H])C([H])(n6nc(-c7c([H])c([H])c(Oc8c([H])c([H])c(F)c([H])c8F)c([H])c7[H])c(C(=O)N([H])[H])c6N([H])[H])C5([H])[H])c(C(=O)N([H])[H])c4[H])C([H])([H])C3([H])[H])c([H])c([H])c2C1([H])[H]

$$$$
29:0:0
     RDKit          3D

 94102  0  0  1  0  0  0  0  0999 V2000
  -26.6860  -23.8260   20.7980 C   0  0  0  0  0  2  0  0  0  0  0  0
  -25.4320  -23.2550   20.1160 C   0  0  0  0  0  2  0  0  0  0  0  0
  -27.0740  -23.4030   18.4200 C   0  0  0  0  0  2  0  0  0  0  0  0
  -27.8300  -23.7640   19.7500 C   0  0  2  0  0  0  0  0  0  0  0  0
  -25.6250  -23.4600   18.6760 N   0  0  0  0  0  4  0  0  0  0  0  0
  -25.2700  -24.3670   18.4170 H   0  0  0  0  0  0  0  0  0  0  0  0
  -25.1220  -22.7800   18.1250 H   0  0  0  0  0  0  0  0  0  0  0  0
  -28.8490  -22.5440   20.1190 C   0  0  0  0  0  3  0  0  0  0  0  0
  -28.3640  -20.9980   20.2340 C   0  0  0  0  0  3  0  0  0  0  0  0
  -29.4080  -19.9110   20.5060 N   0  0  0  0  0  4  0  0  0  0  0  0
  -29.8480  -20.1150   21.3880 H   0  0  0  0  0  0  0  0  0  0  0  0
  -30.1110  -19.9900   19.7890 H   0  0  0  0  0  0  0  0  0  0  0  0
  -28.9610  -18.4430   20.5530 C   0  0  0  0  0  3  0  0  0  0  0  0
  -30.1100  -17.3090   20.6560 C   0  0  0  0  0  3  0  0  0  0  0  0
  -30.5400  -14.7370   20.4380 C   0  0  0  0  0  0  0  0  0  0  0  0
  -30.3720  -12.4800   19.3910 C   0  0  0  0  0  2  0  0  0  0  0  0
  -29.4460  -12.5750   18.1580 C   0  0  0  0  0  2  0  0  0  0  0  0
  -27.9660  -12.4170   18.5680 C   0  0  0  0  0  2  0  0  0  0  0  0
  -27.5870  -13.2860   19.7970 C   0  0  0  0  0  3  0  0  0  0  0  0
  -28.6290  -13.1580   20.9270 C   0  0  0  0  0  2  0  0  0  0  0  0
  -29.9330  -13.5100   20.3570 N   0  0  0  0  0  0  0  0  0  0  0  0
  -31.7180  -14.8760   20.0970 O   0  0  0  0  0  0  0  0  0  0  0  0
  -29.7420  -15.8320   20.7020 N   0  0  0  0  0  0  0  0  0  0  0  0
  -28.7900  -15.6150   20.9630 H   0  0  0  0  0  0  0  0  0  0  0  0
  -25.1980  -13.8890   20.4960 C   0  0  0  0  0  0  0  0  0  0  0  0
  -24.1310  -13.1170   20.8650 C   0  0  0  0  0  0  0  0  0  0  0  0
  -24.5910  -11.7650   20.8410 C   0  0  0  0  0  0  0  0  0  0  0  0
  -26.2390  -13.0050   20.2700 N   0  0  0  0  0  0  0  0  0  0  0  0
  -25.8830  -11.7240   20.5430 N   0  0  0  0  0  0  0  0  0  0  0  0
  -23.8610  -10.5050   21.0310 C   0  0  0  0  0  0  0  0  0  0  0  0
  -24.2840   -9.5440   21.9740 C   0  0  0  0  0  3  0  0  0  0  0  0
  -23.5580   -8.3480   22.1530 C   0  0  0  0  0  3  0  0  0  0  0  0
  -22.3910   -8.1060   21.3900 C   0  0  0  0  0  0  0  0  0  0  0  0
  -21.9840   -9.0570   20.4390 C   0  0  0  0  0  3  0  0  0  0  0  0
  -22.7120  -10.2460   20.2570 C   0  0  0  0  0  3  0  0  0  0  0  0
  -21.6350   -6.9620   21.4770 O   0  0  0  0  0  0  0  0  0  0  0  0
  -21.5760   -6.2240   22.6300 C   0  0  0  0  0  0  0  0  0  0  0  0
  -21.1350   -6.7830   23.8500 C   0  0  0  0  0  3  0  0  0  0  0  0
  -21.0230   -5.9720   24.9970 C   0  0  0  0  0  3  0  0  0  0  0  0
  -21.3400   -4.6010   24.9240 C   0  0  0  0  0  0  0  0  0  0  0  0
  -21.7760   -4.0430   23.7090 C   0  0  0  0  0  3  0  0  0  0  0  0
  -21.8910   -4.8520   22.5660 C   0  0  0  0  0  0  0  0  0  0  0  0
  -22.2880   -4.3040   21.3920 F   0  0  0  0  0  0  0  0  0  0  0  0
  -21.2260   -3.8180   26.0220 F   0  0  0  0  0  0  0  0  0  0  0  0
  -22.7320  -13.5950   21.1210 C   0  0  0  0  0  0  0  0  0  0  0  0
  -21.9950  -12.9080   21.9850 N   0  0  0  0  0  0  0  0  0  0  0  0
  -22.2990  -14.6160   20.5870 O   0  0  0  0  0  0  0  0  0  0  0  0
  -22.3520  -12.0820   22.4400 H   0  0  0  0  0  0  0  0  0  0  0  0
  -21.0550  -13.2150   22.1940 H   0  0  0  0  0  0  0  0  0  0  0  0
  -25.3670  -15.2590   20.3070 N   0  0  0  0  0  0  0  0  0  0  0  0
  -24.5890  -15.9070   20.3580 H   0  0  0  0  0  0  0  0  0  0  0  0
  -26.2030  -15.6770   19.9170 H   0  0  0  0  0  0  0  0  0  0  0  0
  -28.5250  -25.2290   19.5330 C   0  0  0  0  0  2  0  0  0  0  0  0
  -28.3160  -26.4910   20.2960 O   0  0  0  0  0  0  0  0  0  0  0  0
  -24.6000  -31.9070   23.2470 C   0  0  0  0  0  0  0  0  0  0  0  0
  -27.2090  -27.3460   20.1750 C   0  0  0  0  0  0  0  0  0  0  0  0
  -23.3970  -30.5050   21.6030 C   0  0  0  0  0  3  0  0  0  0  0  0
  -24.8450  -28.9630   20.1630 C   0  0  0  0  0  0  0  0  0  0  0  0
  -25.9330  -30.8270   21.4200 C   0  0  0  0  0  2  0  0  0  0  0  0
  -26.0110  -29.4470   20.7730 C   0  0  0  0  0  0  0  0  0  0  0  0
  -27.1890  -28.6420   20.7810 C   0  0  0  0  0  3  0  0  0  0  0  0
  -26.0360  -26.9360   19.5100 C   0  0  0  0  0  3  0  0  0  0  0  0
  -24.8610  -27.7110   19.5250 C   0  0  0  0  0  3  0  0  0  0  0  0
  -23.6100  -29.8390   20.2180 C   0  0  0  0  0  2  0  0  0  0  0  0
  -24.6640  -31.0950   22.1500 N   0  0  0  0  0  0  0  0  0  0  0  0
  -23.5160  -32.1770   23.7850 O   0  0  0  0  0  0  0  0  0  0  0  0
  -22.7360  -29.4860   22.5650 C   0  0  0  0  0  0  0  0  0  0  0  0
  -21.4080  -29.3090   22.4390 N   0  0  0  0  0  0  0  0  0  0  0  0
  -23.4130  -28.8610   23.3810 O   0  0  0  0  0  0  0  0  0  0  0  0
  -20.9190  -29.8680   21.7550 H   0  0  0  0  0  0  0  0  0  0  0  0
  -18.0310  -28.1120   22.9470 C   0  0  0  0  0  0  0  0  0  0  0  0
  -20.5900  -28.3730   23.2130 C   0  0  0  0  0  3  0  0  0  0  0  0
  -20.6970  -26.9430   22.6360 C   0  0  0  0  0  2  0  0  0  0  0  0
  -19.5930  -26.6180   21.6250 C   0  0  0  0  0  2  0  0  0  0  0  0
  -18.2100  -26.7640   22.2680 C   0  0  0  0  0  2  0  0  0  0  0  0
  -19.1510  -28.8750   23.3760 C   0  0  0  0  0  0  0  0  0  0  0  0
  -18.9340  -30.1370   23.9710 C   0  0  0  0  0  3  0  0  0  0  0  0
  -17.6300  -30.6380   24.1380 C   0  0  0  0  0  3  0  0  0  0  0  0
  -16.5240  -29.8730   23.7260 C   0  0  0  0  0  3  0  0  0  0  0  0
  -16.7270  -28.6110   23.1380 C   0  0  0  0  0  3  0  0  0  0  0  0
  -25.8810  -32.5470   23.8670 C   0  0  0  0  0  3  0  0  0  0  0  0
  -25.5710  -33.9470   24.1890 N   0  0  0  0  0  0  0  0  0  0  0  0
  -25.9030  -34.9980   23.4260 C   0  0  0  0  0  0  0  0  0  0  0  0
  -26.5730  -34.8920   22.3960 O   0  0  0  0  0  0  0  0  0  0  0  0
  -24.9850  -34.1050   24.9960 H   0  0  0  0  0  0  0  0  0  0  0  0
  -24.1760  -36.7920   23.0680 C   0  0  0  0  0  1  0  0  0  0  0  0
  -25.4170  -36.3870   23.8820 C   0  0  0  0  0  3  0  0  0  0  0  0
  -27.5480  -37.2700   24.7170 C   0  0  0  0  0  1  0  0  0  0  0  0
  -26.4500  -37.4400   23.7690 N   0  0  0  0  0  0  0  0  0  0  0  0
  -26.0430  -38.3590   23.9250 H   0  0  0  0  0  0  0  0  0  0  0  0
  -26.3960  -31.7850   25.1490 C   0  0  1  0  0  0  0  0  0  0  0  0
  -25.3010  -31.5510   26.2140 C   0  0  0  0  0  1  0  0  0  0  0  0
  -26.9790  -30.4080   24.7630 C   0  0  0  0  0  1  0  0  0  0  0  0
  -27.5470  -32.5800   25.8090 C   0  0  0  0  0  1  0  0  0  0  0  0
  2  1  1  0
  3  5  1  0
  3  4  1  0
  4 53  1  6
  4  8  1  0
  4  1  1  0
  5  2  1  0
  6  5  1  0
  7  5  1  0
  8  9  2  0
  9 10  1  0
 10 13  1  0
 10 11  1  0
 12 10  1  0
 13 14  2  0
 14 23  1  0
 15 23  1  0
 16 21  1  0
 17 18  1  0
 17 16  1  0
 19 18  1  0
 19 28  1  0
 19 20  1  0
 21 15  1  0
 21 20  1  0
 22 15  2  0
 23 24  1  0
 25 26  2  0
 26 45  1  0
 27 26  1  0
 27 30  1  0
 28 25  1  0
 28 29  1  0
 29 27  2  0
 30 31  1  0
 31 32  2  0
 33 36  1  0
 33 32  1  0
 34 33  2  0
 35 34  1  0
 35 30  2  0
 36 37  1  0
 37 38  1  0
 38 39  2  0
 40 39  1  0
 40 44  1  0
 41 40  2  0
 42 37  2  0
 42 41  1  0
 43 42  1  0
 45 46  1  0
 46 49  1  0
 46 48  1  0
 47 45  2  0
 50 51  1  0
 50 25  1  0
 52 50  1  0
 53 54  1  0
 55 66  2  0
 56 54  1  0
 56 61  1  0
 57 65  1  0
 57 67  1  0
 58 64  1  0
 58 60  1  0
 59 65  1  0
 60 61  2  0
 60 59  1  0
 62 63  1  0
 62 56  2  0
 63 58  2  0
 64 57  1  0
 65 55  1  0
 67 69  2  0
 68 67  1  0
 70 68  1  0
 71 80  2  0
 71 76  1  0
 72 68  1  0
 72 76  1  0
 73 72  1  0
 74 75  1  0
 74 73  1  0
 75 71  1  0
 76 77  2  0
 77 78  1  0
 79 78  2  0
 80 79  1  0
 81 55  1  0
 81 82  1  0
 81 91  1  0
 82 85  1  0
 83 87  1  0
 83 82  1  0
 84 83  2  0
 87 86  1  0
 89 87  1  0
 89 90  1  0
 89 88  1  0
 91 94  1  1
 91 92  1  0
 93 91  1  0
M  ISO  4  15 100  23 100  53 101  54 101
M  END
>  <TORSDO>  (30) 
F 22

>  <SCORE>  (30) 
-13.137

>  <name>  (30) 
29

>  <ligand_id>  (30) 
29

>  <original_smiles>  (30) 
[H]c1c([H])c([H])c2c(c1[H])C([H])([H])C([H])([H])C([H])([H])C2([H])N([H])C(=O)C1([H])N(C(=O)C([H])(N([H])C(=O)C([H])(N([H])C([H])([H])[H])C([H])([H])[H])C(C([H])([H])[H])(C([H])([H])[H])C([H])([H])[H])C([H])([H])c2c([H])c(OC([H])([H])C3(C([H])([H])C([H])([H])[N+]([H])([H])C([H])([H])C([H])([H])N([H])C(=O)N4C([H])([H])C([H])([H])C([H])([H])C([H])(n5nc(-c6c([H])c([H])c(Oc7c([H])c([H])c(F)c([H])c7F)c([H])c6[H])c(C(=O)N([H])[H])c5N([H])[H])C4([H])[H])C([H])([H])C([H])([H])[N+]([H])([H])C3([H])[H])c([H])c([H])c2C1([H])[H]

>  <smiles>  (30) 
[H]c1c([H])c([H])c2c(c1[H])C([H])([H])C([H])([H])C([H])([H])C2([H])N([H])C(=O)C1([H])N(C(=O)C([H])(N([H])C(=O)C([H])(N([H])C([H])([H])[H])C([H])([H])[H])C(C([H])([H])[H])(C([H])([H])[H])C([H])([H])[H])C([H])([H])c2c([H])c(OC([H])([H])C3(C([H])([H])C([H])([H])[N+]([H])([H])C([H])([H])C([H])([H])N([H])C(=O)N4C([H])([H])C([H])([H])C([H])([H])C([H])(n5nc(-c6c([H])c([H])c(Oc7c([H])c([H])c(F)c([H])c7F)c([H])c6[H])c(C(=O)N([H])[H])c5N([H])[H])C4([H])[H])C([H])([H])C([H])([H])[N+]([H])([H])C3([H])[H])c([H])c([H])c2C1([H])[H]

$$$$
30:0:0
     RDKit          3D

 90 98  0  0  1  0  0  0  0  0999 V2000
  -28.0100  -22.5170   21.9800 C   0  0  0  0  0  2  0  0  0  0  0  0
  -27.8300  -24.0300   21.8970 C   0  0  0  0  0  2  0  0  0  0  0  0
  -28.4490  -22.4950   20.5100 C   0  0  0  0  0  3  0  0  0  0  0  0
  -28.7550  -24.0660   20.6730 C   0  0  0  0  0  3  0  0  0  0  0  0
  -29.4570  -21.3430   20.0770 C   0  0  0  0  0  3  0  0  0  0  0  0
  -29.2200  -19.8890   20.7110 C   0  0  0  0  0  3  0  0  0  0  0  0
  -29.8880  -18.6930   20.0480 N   0  0  0  0  0  4  0  0  0  0  0  0
  -30.7830  -18.9940   19.6930 H   0  0  0  0  0  0  0  0  0  0  0  0
  -29.3330  -18.4490   19.2430 H   0  0  0  0  0  0  0  0  0  0  0  0
  -31.5940  -17.4510   21.4120 C   0  0  0  0  0  1  0  0  0  0  0  0
  -30.1460  -17.4390   20.8840 C   0  0  0  0  0  3  0  0  0  0  0  0
  -29.6580  -16.0300   20.2710 C   0  0  0  0  0  2  0  0  0  0  0  0
  -30.5570  -14.7210   20.1180 C   0  0  0  0  0  0  0  0  0  0  0  0
  -30.3570  -12.4660   19.0920 C   0  0  0  0  0  2  0  0  0  0  0  0
  -29.3820  -12.6000   17.8990 C   0  0  0  0  0  2  0  0  0  0  0  0
  -27.9170  -12.4330   18.3580 C   0  0  0  0  0  2  0  0  0  0  0  0
  -27.5860  -13.2850   19.6120 C   0  0  0  0  0  3  0  0  0  0  0  0
  -28.6750  -13.1280   20.6950 C   0  0  0  0  0  2  0  0  0  0  0  0
  -29.9700  -13.4790   20.0950 N   0  0  0  0  0  0  0  0  0  0  0  0
  -31.7310  -14.8510   19.7560 O   0  0  0  0  0  0  0  0  0  0  0  0
  -25.2110  -13.8730   20.3930 C   0  0  0  0  0  0  0  0  0  0  0  0
  -24.1570  -13.0960   20.7910 C   0  0  0  0  0  0  0  0  0  0  0  0
  -24.6250  -11.7460   20.7470 C   0  0  0  0  0  0  0  0  0  0  0  0
  -26.2520  -12.9960   20.1310 N   0  0  0  0  0  0  0  0  0  0  0  0
  -25.9060  -11.7120   20.4040 N   0  0  0  0  0  0  0  0  0  0  0  0
  -23.9080  -10.4800   20.9550 C   0  0  0  0  0  0  0  0  0  0  0  0
  -24.3590   -9.5230   21.8910 C   0  0  0  0  0  3  0  0  0  0  0  0
  -23.6440   -8.3220   22.0880 C   0  0  0  0  0  3  0  0  0  0  0  0
  -22.4640   -8.0710   21.3490 C   0  0  0  0  0  0  0  0  0  0  0  0
  -22.0320   -9.0170   20.4020 C   0  0  0  0  0  3  0  0  0  0  0  0
  -22.7470  -10.2090   20.2040 C   0  0  0  0  0  3  0  0  0  0  0  0
  -21.7170   -6.9230   21.4540 O   0  0  0  0  0  0  0  0  0  0  0  0
  -21.6790   -6.1930   22.6150 C   0  0  0  0  0  0  0  0  0  0  0  0
  -21.2570   -6.7600   23.8380 C   0  0  0  0  0  3  0  0  0  0  0  0
  -21.1670   -5.9560   24.9920 C   0  0  0  0  0  3  0  0  0  0  0  0
  -21.4890   -4.5880   24.9250 C   0  0  0  0  0  0  0  0  0  0  0  0
  -21.9020   -4.0200   23.7070 C   0  0  0  0  0  3  0  0  0  0  0  0
  -21.9940   -4.8210   22.5540 C   0  0  0  0  0  0  0  0  0  0  0  0
  -22.3740   -4.2660   21.3780 F   0  0  0  0  0  0  0  0  0  0  0  0
  -21.3940   -3.8130   26.0300 F   0  0  0  0  0  0  0  0  0  0  0  0
  -22.7650  -13.5660   21.1000 C   0  0  0  0  0  0  0  0  0  0  0  0
  -22.0630  -12.8630   21.9830 N   0  0  0  0  0  0  0  0  0  0  0  0
  -22.3090  -14.5900   20.5950 O   0  0  0  0  0  0  0  0  0  0  0  0
  -22.4450  -12.0350   22.4150 H   0  0  0  0  0  0  0  0  0  0  0  0
  -21.1290  -13.1590   22.2310 H   0  0  0  0  0  0  0  0  0  0  0  0
  -25.3640  -15.2450   20.2110 N   0  0  0  0  0  0  0  0  0  0  0  0
  -24.5990  -15.8980   20.3410 H   0  0  0  0  0  0  0  0  0  0  0  0
  -26.1990  -15.6840   19.8450 H   0  0  0  0  0  0  0  0  0  0  0  0
  -28.4260  -25.1980   19.6240 C   0  0  0  0  0  2  0  0  0  0  0  0
  -28.3590  -26.5920   20.1270 O   0  0  0  0  0  0  0  0  0  0  0  0
  -24.5970  -31.9090   23.2180 C   0  0  0  0  0  0  0  0  0  0  0  0
  -27.1940  -27.3790   20.1000 C   0  0  0  0  0  0  0  0  0  0  0  0
  -23.3810  -30.5220   21.5760 C   0  0  0  0  0  3  0  0  0  0  0  0
  -24.8190  -28.9800   20.1320 C   0  0  0  0  0  0  0  0  0  0  0  0
  -25.9190  -30.8420   21.3760 C   0  0  0  0  0  2  0  0  0  0  0  0
  -25.9900  -29.4670   20.7210 C   0  0  0  0  0  0  0  0  0  0  0  0
  -27.1760  -28.6750   20.7000 C   0  0  0  0  0  3  0  0  0  0  0  0
  -25.9890  -26.9370   19.5030 C   0  0  0  0  0  3  0  0  0  0  0  0
  -24.8180  -27.7180   19.5200 C   0  0  0  0  0  3  0  0  0  0  0  0
  -23.5850  -29.8540   20.1900 C   0  0  0  0  0  2  0  0  0  0  0  0
  -24.6520  -31.1080   22.1130 N   0  0  0  0  0  0  0  0  0  0  0  0
  -23.5170  -32.1850   23.7620 O   0  0  0  0  0  0  0  0  0  0  0  0
  -22.7240  -29.5000   22.5340 C   0  0  0  0  0  0  0  0  0  0  0  0
  -21.3990  -29.3140   22.4030 N   0  0  0  0  0  0  0  0  0  0  0  0
  -23.4050  -28.8770   23.3520 O   0  0  0  0  0  0  0  0  0  0  0  0
  -20.9070  -29.8700   21.7190 H   0  0  0  0  0  0  0  0  0  0  0  0
  -18.0310  -28.0840   22.8760 C   0  0  0  0  0  0  0  0  0  0  0  0
  -20.5840  -28.3710   23.1710 C   0  0  0  0  0  3  0  0  0  0  0  0
  -20.7070  -26.9380   22.6030 C   0  0  0  0  0  2  0  0  0  0  0  0
  -19.6180  -26.6000   21.5800 C   0  0  0  0  0  2  0  0  0  0  0  0
  -18.2290  -26.7320   22.2090 C   0  0  0  0  0  2  0  0  0  0  0  0
  -19.1380  -28.8600   23.3120 C   0  0  0  0  0  0  0  0  0  0  0  0
  -18.9000  -30.1220   23.8960 C   0  0  0  0  0  3  0  0  0  0  0  0
  -17.5880  -30.6100   24.0510 C   0  0  0  0  0  3  0  0  0  0  0  0
  -16.4960  -29.8310   23.6310 C   0  0  0  0  0  3  0  0  0  0  0  0
  -16.7180  -28.5720   23.0470 C   0  0  0  0  0  3  0  0  0  0  0  0
  -25.8840  -32.5350   23.8350 C   0  0  0  0  0  3  0  0  0  0  0  0
  -25.5790  -33.9360   24.1710 N   0  0  0  0  0  0  0  0  0  0  0  0
  -25.9150  -34.9900   23.4170 C   0  0  0  0  0  0  0  0  0  0  0  0
  -26.5840  -34.8890   22.3860 O   0  0  0  0  0  0  0  0  0  0  0  0
  -24.9840  -34.0880   24.9730 H   0  0  0  0  0  0  0  0  0  0  0  0
  -24.1930  -36.7940   23.0750 C   0  0  0  0  0  1  0  0  0  0  0  0
  -25.4350  -36.3780   23.8820 C   0  0  0  0  0  3  0  0  0  0  0  0
  -27.5740  -37.2500   24.7140 C   0  0  0  0  0  1  0  0  0  0  0  0
  -26.4700  -37.4270   23.7720 N   0  0  0  0  0  0  0  0  0  0  0  0
  -26.0680  -38.3480   23.9260 H   0  0  0  0  0  0  0  0  0  0  0  0
  -26.4020  -31.7610   25.1090 C   0  0  1  0  0  0  0  0  0  0  0  0
  -25.3110  -31.5290   26.1820 C   0  0  0  0  0  1  0  0  0  0  0  0
  -26.9760  -30.3810   24.7140 C   0  0  0  0  0  1  0  0  0  0  0  0
  -27.5550  -32.5510   25.7700 C   0  0  0  0  0  1  0  0  0  0  0  0
  2  1  1  0
  3  5  1  0
  3  4  1  0
  3  1  1  0
  4 49  1  0
  4  2  1  0
  5  6  2  0
  7  6  1  0
  7 11  1  0
  8  7  1  0
  9  7  1  0
 11 10  1  0
 12 11  1  0
 13 12  1  0
 14 19  1  0
 15 16  1  0
 15 14  1  0
 17 16  1  0
 17 24  1  0
 17 18  1  0
 19 13  1  0
 19 18  1  0
 20 13  2  0
 21 22  2  0
 22 41  1  0
 23 22  1  0
 23 26  1  0
 24 21  1  0
 24 25  1  0
 25 23  2  0
 26 27  1  0
 27 28  2  0
 29 32  1  0
 29 28  1  0
 30 29  2  0
 31 30  1  0
 31 26  2  0
 32 33  1  0
 33 34  1  0
 34 35  2  0
 36 35  1  0
 36 40  1  0
 37 36  2  0
 38 33  2  0
 38 37  1  0
 39 38  1  0
 41 42  1  0
 42 45  1  0
 42 44  1  0
 43 41  2  0
 46 47  1  0
 46 21  1  0
 48 46  1  0
 49 50  1  0
 51 62  2  0
 52 50  1  0
 52 57  1  0
 53 61  1  0
 53 63  1  0
 54 60  1  0
 54 56  1  0
 55 61  1  0
 56 55  1  0
 57 56  2  0
 58 59  1  0
 58 52  2  0
 59 54  2  0
 60 53  1  0
 61 51  1  0
 63 65  2  0
 64 63  1  0
 66 64  1  0
 67 76  2  0
 67 72  1  0
 68 64  1  0
 68 72  1  0
 69 68  1  0
 70 71  1  0
 70 69  1  0
 71 67  1  0
 72 73  2  0
 73 74  1  0
 75 74  2  0
 76 75  1  0
 77 51  1  0
 77 78  1  0
 77 87  1  0
 78 81  1  0
 79 83  1  0
 79 78  1  0
 80 79  2  0
 83 82  1  0
 85 83  1  0
 85 86  1  0
 85 84  1  0
 87 90  1  1
 87 88  1  0
 89 87  1  0
M  ISO  4  12 100  13 100  49 101  50 101
M  END
>  <TORSDO>  (31) 
F 22

>  <SCORE>  (31) 
-12.890

>  <name>  (31) 
30

>  <ligand_id>  (31) 
30

>  <original_smiles>  (31) 
[H]c1c([H])c([H])c2c(c1[H])C([H])([H])C([H])([H])C([H])([H])C2([H])N([H])C(=O)C1([H])N(C(=O)C([H])(N([H])C(=O)C([H])(N([H])C([H])([H])[H])C([H])([H])[H])C(C([H])([H])[H])(C([H])([H])[H])C([H])([H])[H])C([H])([H])c2c([H])c(OC([H])([H])C3([H])C([H])([H])C([H])([H])C3([H])C([H])([H])C([H])([H])[N+]([H])([H])C([H])(C([H])([H])[H])C([H])([H])C(=O)N3C([H])([H])C([H])([H])C([H])([H])C([H])(n4nc(-c5c([H])c([H])c(Oc6c([H])c([H])c(F)c([H])c6F)c([H])c5[H])c(C(=O)N([H])[H])c4N([H])[H])C3([H])[H])c([H])c([H])c2C1([H])[H]

>  <smiles>  (31) 
[H]c1c([H])c([H])c2c(c1[H])C([H])([H])C([H])([H])C([H])([H])C2([H])N([H])C(=O)C1([H])N(C(=O)C([H])(N([H])C(=O)C([H])(N([H])C([H])([H])[H])C([H])([H])[H])C(C([H])([H])[H])(C([H])([H])[H])C([H])([H])[H])C([H])([H])c2c([H])c(OC([H])([H])C3([H])C([H])([H])C([H])([H])C3([H])C([H])([H])C([H])([H])[N+]([H])([H])C([H])(C([H])([H])[H])C([H])([H])C(=O)N3C([H])([H])C([H])([H])C([H])([H])C([H])(n4nc(-c5c([H])c([H])c(Oc6c([H])c([H])c(F)c([H])c6F)c([H])c5[H])c(C(=O)N([H])[H])c4N([H])[H])C3([H])[H])c([H])c([H])c2C1([H])[H]

$$$$
31:0:0
     RDKit          3D

 98106  0  0  1  0  0  0  0  0999 V2000
  -25.9820  -21.2070   20.7220 C   0  0  0  0  0  2  0  0  0  0  0  0
  -27.3550  -20.8160   20.3540 N   0  0  0  0  0  4  0  0  0  0  0  0
  -27.8790  -21.6260   20.0810 H   0  0  0  0  0  0  0  0  0  0  0  0
  -27.7990  -20.4320   21.1730 H   0  0  0  0  0  0  0  0  0  0  0  0
  -27.4780  -19.8420   19.2550 C   0  0  0  0  0  2  0  0  0  0  0  0
  -28.9560  -19.7170   18.8460 C   0  0  0  0  0  2  0  0  0  0  0  0
  -29.4020  -18.2630   18.6540 C   0  0  0  0  0  2  0  0  0  0  0  0
  -32.2480  -20.0850   17.9730 C   0  0  0  0  0  2  0  0  0  0  0  0
  -31.7890  -19.5270   16.6280 C   0  0  0  0  0  2  0  0  0  0  0  0
  -31.8200  -19.0820   19.0580 C   0  0  0  0  0  2  0  0  0  0  0  0
  -31.2600  -18.1130   16.8960 C   0  0  0  0  0  2  0  0  0  0  0  0
  -30.9140  -18.0130   18.4070 C   0  0  2  0  0  0  0  0  0  0  0  0
  -31.8310  -15.6170   18.7460 C   0  0  0  0  0  0  0  0  0  0  0  0
  -31.7940  -13.1590   18.8570 C   0  0  0  0  0  2  0  0  0  0  0  0
  -30.8380  -12.5990   17.7860 C   0  0  0  0  0  2  0  0  0  0  0  0
  -29.4010  -12.5240   18.3320 C   0  0  0  0  0  2  0  0  0  0  0  0
  -28.9370  -13.8520   18.9760 C   0  0  0  0  0  3  0  0  0  0  0  0
  -30.0020  -14.3680   19.9730 C   0  0  0  0  0  2  0  0  0  0  0  0
  -31.2990  -14.4790   19.2660 N   0  0  0  0  0  0  0  0  0  0  0  0
  -32.8200  -15.6260   18.0120 O   0  0  0  0  0  0  0  0  0  0  0  0
  -31.1520  -16.7230   19.0710 N   0  0  0  0  0  0  0  0  0  0  0  0
  -30.4990  -16.5400   19.8160 H   0  0  0  0  0  0  0  0  0  0  0  0
  -26.7120  -14.6780   19.9900 C   0  0  0  0  0  0  0  0  0  0  0  0
  -25.6230  -14.0030   20.4700 C   0  0  0  0  0  0  0  0  0  0  0  0
  -25.9310  -12.6120   20.3470 C   0  0  0  0  0  0  0  0  0  0  0  0
  -27.6260  -13.7040   19.6090 N   0  0  0  0  0  0  0  0  0  0  0  0
  -27.1590  -12.4570   19.8720 N   0  0  0  0  0  0  0  0  0  0  0  0
  -25.1030  -11.4210   20.5880 C   0  0  0  0  0  0  0  0  0  0  0  0
  -25.4160  -10.4910   21.6060 C   0  0  0  0  0  3  0  0  0  0  0  0
  -24.5940   -9.3640   21.8250 C   0  0  0  0  0  3  0  0  0  0  0  0
  -23.4440   -9.1580   21.0250 C   0  0  0  0  0  0  0  0  0  0  0  0
  -23.1540  -10.0700   19.9970 C   0  0  0  0  0  3  0  0  0  0  0  0
  -23.9760  -11.1890   19.7760 C   0  0  0  0  0  3  0  0  0  0  0  0
  -22.5960   -8.0860   21.1570 O   0  0  0  0  0  0  0  0  0  0  0  0
  -22.2680   -7.5740   22.3890 C   0  0  0  0  0  0  0  0  0  0  0  0
  -21.6290   -8.3570   23.3730 C   0  0  0  0  0  3  0  0  0  0  0  0
  -21.2550   -7.7770   24.6020 C   0  0  0  0  0  3  0  0  0  0  0  0
  -21.5040   -6.4120   24.8420 C   0  0  0  0  0  0  0  0  0  0  0  0
  -22.1320   -5.6290   23.8570 C   0  0  0  0  0  3  0  0  0  0  0  0
  -22.5140   -6.2080   22.6360 C   0  0  0  0  0  0  0  0  0  0  0  0
  -23.1050   -5.4450   21.6850 F   0  0  0  0  0  0  0  0  0  0  0  0
  -21.1370   -5.8530   26.0170 F   0  0  0  0  0  0  0  0  0  0  0  0
  -24.3260  -14.6030   20.9310 C   0  0  0  0  0  0  0  0  0  0  0  0
  -23.6420  -13.9470   21.8640 N   0  0  0  0  0  0  0  0  0  0  0  0
  -23.9320  -15.6840   20.4960 O   0  0  0  0  0  0  0  0  0  0  0  0
  -23.9720  -13.0620   22.2270 H   0  0  0  0  0  0  0  0  0  0  0  0
  -22.7730  -14.3240   22.2210 H   0  0  0  0  0  0  0  0  0  0  0  0
  -27.0000  -16.0290   19.8260 N   0  0  0  0  0  0  0  0  0  0  0  0
  -26.3020  -16.7470   19.9750 H   0  0  0  0  0  0  0  0  0  0  0  0
  -27.8410  -16.3690   19.3820 H   0  0  0  0  0  0  0  0  0  0  0  0
  -25.9780  -22.5240   21.5290 C   0  0  0  0  0  2  0  0  0  0  0  0
  -26.2090  -23.7970   20.6920 C   0  0  0  0  0  2  0  0  0  0  0  0
  -27.6200  -24.2710   20.5640 N   0  0  0  0  0  4  0  0  0  0  0  0
  -28.2460  -23.5450   20.2560 H   0  0  0  0  0  0  0  0  0  0  0  0
  -27.9310  -24.5850   21.4740 H   0  0  0  0  0  0  0  0  0  0  0  0
  -27.7130  -25.3810   19.5840 C   0  0  0  0  0  2  0  0  0  0  0  0
  -28.8110  -26.4510   19.8340 C   0  0  0  0  0  2  0  0  0  0  0  0
  -28.6820  -27.6330   19.0110 O   0  0  0  0  0  0  0  0  0  0  0  0
  -24.8630  -31.6350   23.4900 C   0  0  0  0  0  0  0  0  0  0  0  0
  -27.5220  -28.3410   19.2210 C   0  0  0  0  0  0  0  0  0  0  0  0
  -23.6470  -30.5940   21.6290 C   0  0  0  0  0  3  0  0  0  0  0  0
  -25.0610  -29.6000   19.7640 C   0  0  0  0  0  0  0  0  0  0  0  0
  -26.1140  -31.1870   21.3820 C   0  0  0  0  0  2  0  0  0  0  0  0
  -26.2270  -30.0320   20.4110 C   0  0  0  0  0  0  0  0  0  0  0  0
  -27.4620  -29.3970   20.1560 C   0  0  0  0  0  3  0  0  0  0  0  0
  -26.3580  -28.0070   18.4950 C   0  0  0  0  0  3  0  0  0  0  0  0
  -25.1180  -28.5770   18.8090 C   0  0  0  0  0  3  0  0  0  0  0  0
  -23.7780  -30.3100   20.1100 C   0  0  0  0  0  2  0  0  0  0  0  0
  -24.8990  -31.1380   22.2260 N   0  0  0  0  0  0  0  0  0  0  0  0
  -23.8040  -31.6750   24.1330 O   0  0  0  0  0  0  0  0  0  0  0  0
  -23.1330  -29.3240   22.3350 C   0  0  0  0  0  0  0  0  0  0  0  0
  -21.8360  -29.1160   22.1460 N   0  0  0  0  0  0  0  0  0  0  0  0
  -23.8720  -28.5650   22.9640 O   0  0  0  0  0  0  0  0  0  0  0  0
  -21.3570  -29.8750   21.6790 H   0  0  0  0  0  0  0  0  0  0  0  0
  -18.6320  -27.1920   22.0560 C   0  0  0  0  0  0  0  0  0  0  0  0
  -21.0170  -27.9390   22.2840 C   0  0  0  0  0  3  0  0  0  0  0  0
  -21.5170  -26.5450   21.8870 C   0  0  0  0  0  2  0  0  0  0  0  0
  -20.5720  -25.9920   20.7990 C   0  0  0  0  0  2  0  0  0  0  0  0
  -19.0930  -25.9690   21.2550 C   0  0  0  0  0  2  0  0  0  0  0  0
  -19.5610  -28.0820   22.6510 C   0  0  0  0  0  0  0  0  0  0  0  0
  -19.1130  -29.1870   23.4000 C   0  0  0  0  0  3  0  0  0  0  0  0
  -17.7340  -29.4420   23.5150 C   0  0  0  0  0  3  0  0  0  0  0  0
  -16.8060  -28.5830   22.8950 C   0  0  0  0  0  3  0  0  0  0  0  0
  -17.2530  -27.4530   22.1850 C   0  0  0  0  0  3  0  0  0  0  0  0
  -26.1430  -32.1890   24.1790 C   0  0  0  0  0  3  0  0  0  0  0  0
  -26.6960  -31.2350   25.3060 C   0  0  1  0  0  0  0  0  0  0  0  0
  -25.6310  -30.8130   26.3460 C   0  0  0  0  0  1  0  0  0  0  0  0
  -27.2880  -29.9450   24.6890 C   0  0  0  0  0  1  0  0  0  0  0  0
  -27.8530  -31.9360   26.0560 C   0  0  0  0  0  1  0  0  0  0  0  0
  -25.8060  -33.5100   24.7230 N   0  0  0  0  0  0  0  0  0  0  0  0
  -26.1140  -34.6720   24.1310 C   0  0  0  0  0  0  0  0  0  0  0  0
  -26.7800  -34.7400   23.0950 O   0  0  0  0  0  0  0  0  0  0  0  0
  -25.2050  -33.5280   25.5320 H   0  0  0  0  0  0  0  0  0  0  0  0
  -24.3530  -36.4660   24.0510 C   0  0  0  0  0  1  0  0  0  0  0  0
  -25.6020  -35.9650   24.7950 C   0  0  0  0  0  3  0  0  0  0  0  0
  -27.7200  -36.7450   25.7570 C   0  0  0  0  0  1  0  0  0  0  0  0
  -26.6160  -37.0400   24.8470 N   0  0  0  0  0  0  0  0  0  0  0  0
  -26.1960  -37.9200   25.1330 H   0  0  0  0  0  0  0  0  0  0  0  0
  1 51  1  0
  2  1  1  0
  2  4  1  0
  3  2  1  0
  5  2  1  0
  6  5  1  0
  7  6  1  0
  8 10  1  0
  9 11  1  0
  9  8  1  0
 11 12  1  0
 12  7  1  6
 12 10  1  0
 12 21  1  0
 13 21  1  0
 13 19  1  0
 14 19  1  0
 15 16  1  0
 15 14  1  0
 17 16  1  0
 17 26  1  0
 17 18  1  0
 19 18  1  0
 20 13  2  0
 21 22  1  0
 23 24  2  0
 24 43  1  0
 25 24  1  0
 25 28  1  0
 26 27  1  0
 26 23  1  0
 27 25  2  0
 28 29  1  0
 29 30  2  0
 31 34  1  0
 31 30  1  0
 32 31  2  0
 33 32  1  0
 33 28  2  0
 34 35  1  0
 35 40  2  0
 35 36  1  0
 36 37  2  0
 37 38  1  0
 38 42  1  0
 39 38  2  0
 40 39  1  0
 41 40  1  0
 43 44  1  0
 44 47  1  0
 44 46  1  0
 45 43  2  0
 48 49  1  0
 48 23  1  0
 50 48  1  0
 52 51  1  0
 53 52  1  0
 53 55  1  0
 54 53  1  0
 56 57  1  0
 56 53  1  0
 58 60  1  0
 58 57  1  0
 59 70  2  0
 60 65  1  0
 61 69  1  0
 61 71  1  0
 62 68  1  0
 62 64  1  0
 63 69  1  0
 64 63  1  0
 65 64  2  0
 66 67  1  0
 66 60  2  0
 67 62  2  0
 68 61  1  0
 69 59  1  0
 71 73  2  0
 72 71  1  0
 74 72  1  0
 75 84  2  0
 75 80  1  0
 76 72  1  0
 76 80  1  0
 77 76  1  0
 78 79  1  0
 78 77  1  0
 79 75  1  0
 80 81  2  0
 81 82  1  0
 83 82  2  0
 84 83  1  0
 85 59  1  0
 85 90  1  0
 85 86  1  0
 86 89  1  1
 86 87  1  0
 88 86  1  0
 90 93  1  0
 91 90  1  0
 91 95  1  0
 92 91  2  0
 95 94  1  0
 95 97  1  0
 97 98  1  0
 97 96  1  0
M  ISO  4  13 100  21 100  57 101  58 101
M  END
>  <TORSDO>  (32) 
F 26

>  <SCORE>  (32) 
-4.362

>  <name>  (32) 
31

>  <ligand_id>  (32) 
31

>  <original_smiles>  (32) 
[H]c1c([H])c([H])c2c(c1[H])C([H])([H])C([H])([H])C([H])([H])C2([H])N([H])C(=O)C1([H])N(C(=O)C([H])(N([H])C(=O)C([H])(N([H])C([H])([H])[H])C([H])([H])[H])C(C([H])([H])[H])(C([H])([H])[H])C([H])([H])[H])C([H])([H])c2c([H])c(OC([H])([H])C([H])([H])[N+]([H])([H])C([H])([H])C([H])([H])C([H])([H])[N+]([H])([H])C([H])([H])C([H])([H])C([H])([H])C3(N([H])C(=O)N4C([H])([H])C([H])([H])C([H])([H])C([H])(n5nc(-c6c([H])c([H])c(Oc7c([H])c([H])c(F)c([H])c7F)c([H])c6[H])c(C(=O)N([H])[H])c5N([H])[H])C4([H])[H])C([H])([H])C([H])([H])C([H])([H])C3([H])[H])c([H])c([H])c2C1([H])[H]

>  <smiles>  (32) 
[H]c1c([H])c([H])c2c(c1[H])C([H])([H])C([H])([H])C([H])([H])C2([H])N([H])C(=O)C1([H])N(C(=O)C([H])(N([H])C(=O)C([H])(N([H])C([H])([H])[H])C([H])([H])[H])C(C([H])([H])[H])(C([H])([H])[H])C([H])([H])[H])C([H])([H])c2c([H])c(OC([H])([H])C([H])([H])[N+]([H])([H])C([H])([H])C([H])([H])C([H])([H])[N+]([H])([H])C([H])([H])C([H])([H])C([H])([H])C3(N([H])C(=O)N4C([H])([H])C([H])([H])C([H])([H])C([H])(n5nc(-c6c([H])c([H])c(Oc7c([H])c([H])c(F)c([H])c7F)c([H])c6[H])c(C(=O)N([H])[H])c5N([H])[H])C4([H])[H])C([H])([H])C([H])([H])C([H])([H])C3([H])[H])c([H])c([H])c2C1([H])[H]

$$$$
32:0:0
     RDKit          3D

 93101  0  0  1  0  0  0  0  0999 V2000
  -30.4360  -21.3170   19.7500 C   0  0  0  0  0  2  0  0  0  0  0  0
  -30.4000  -18.0650   21.7400 C   0  0  0  0  0  3  0  0  0  0  0  0
  -30.5780  -17.5070   20.5000 C   0  0  0  0  0  0  0  0  0  0  0  0
  -30.4060  -19.8110   20.2960 C   0  0  0  0  0  3  0  0  0  0  0  0
  -30.3220  -19.4390   21.5940 N   0  0  0  0  0  0  0  0  0  0  0  0
  -30.5770  -18.6110   19.6230 N   0  0  0  0  0  0  0  0  0  0  0  0
  -30.6730  -18.5480   18.6180 H   0  0  0  0  0  0  0  0  0  0  0  0
  -31.3670  -14.9610   19.9600 C   0  0  0  0  0  0  0  0  0  0  0  0
  -31.0970  -12.6770   18.9460 C   0  0  0  0  0  2  0  0  0  0  0  0
  -30.0950  -12.7720   17.7700 C   0  0  0  0  0  2  0  0  0  0  0  0
  -28.6380  -12.6630   18.2630 C   0  0  0  0  0  2  0  0  0  0  0  0
  -28.3580  -13.5690   19.4890 C   0  0  0  0  0  3  0  0  0  0  0  0
  -29.4570  -13.4040   20.5630 C   0  0  0  0  0  2  0  0  0  0  0  0
  -30.7460  -13.7290   19.9270 N   0  0  0  0  0  0  0  0  0  0  0  0
  -32.5180  -15.0930   19.5270 O   0  0  0  0  0  0  0  0  0  0  0  0
  -30.5560  -16.0180   20.3480 N   0  0  0  0  0  0  0  0  0  0  0  0
  -29.7060  -15.6230   20.7180 H   0  0  0  0  0  0  0  0  0  0  0  0
  -26.0650  -14.3020   20.3830 C   0  0  0  0  0  0  0  0  0  0  0  0
  -24.9590  -13.5910   20.7650 C   0  0  0  0  0  0  0  0  0  0  0  0
  -25.3080  -12.2130   20.6220 C   0  0  0  0  0  0  0  0  0  0  0  0
  -27.0190  -13.3600   20.0330 N   0  0  0  0  0  0  0  0  0  0  0  0
  -26.5730  -12.0940   20.2380 N   0  0  0  0  0  0  0  0  0  0  0  0
  -24.4910  -11.0020   20.7720 C   0  0  0  0  0  0  0  0  0  0  0  0
  -24.8360   -9.9880   21.6940 C   0  0  0  0  0  3  0  0  0  0  0  0
  -24.0250   -8.8420   21.8330 C   0  0  0  0  0  3  0  0  0  0  0  0
  -22.8540   -8.7010   21.0510 C   0  0  0  0  0  0  0  0  0  0  0  0
  -22.5280   -9.7020   20.1200 C   0  0  0  0  0  3  0  0  0  0  0  0
  -23.3390  -10.8400   19.9780 C   0  0  0  0  0  3  0  0  0  0  0  0
  -22.0210   -7.6100   21.1010 O   0  0  0  0  0  0  0  0  0  0  0  0
  -21.8230   -6.9070   22.2630 C   0  0  0  0  0  0  0  0  0  0  0  0
  -21.3050   -7.5200   23.4250 C   0  0  0  0  0  3  0  0  0  0  0  0
  -21.0530   -6.7470   24.5750 C   0  0  0  0  0  3  0  0  0  0  0  0
  -21.3070   -5.3620   24.5630 C   0  0  0  0  0  0  0  0  0  0  0  0
  -21.8180   -4.7500   23.4050 C   0  0  0  0  0  3  0  0  0  0  0  0
  -22.0720   -5.5200   22.2580 C   0  0  0  0  0  0  0  0  0  0  0  0
  -22.5440   -4.9220   21.1380 F   0  0  0  0  0  0  0  0  0  0  0  0
  -21.0570   -4.6170   25.6660 F   0  0  0  0  0  0  0  0  0  0  0  0
  -23.6210  -14.1570   21.1430 C   0  0  0  0  0  0  0  0  0  0  0  0
  -22.9010  -13.4840   22.0330 N   0  0  0  0  0  0  0  0  0  0  0  0
  -23.2280  -15.2300   20.6850 O   0  0  0  0  0  0  0  0  0  0  0  0
  -23.2320  -12.6150   22.4240 H   0  0  0  0  0  0  0  0  0  0  0  0
  -22.0030  -13.8430   22.3280 H   0  0  0  0  0  0  0  0  0  0  0  0
  -26.3310  -15.6640   20.2810 N   0  0  0  0  0  0  0  0  0  0  0  0
  -25.6140  -16.3600   20.4580 H   0  0  0  0  0  0  0  0  0  0  0  0
  -27.1620  -16.0560   19.8570 H   0  0  0  0  0  0  0  0  0  0  0  0
  -31.4750  -21.1560   22.9910 C   0  0  0  0  0  1  0  0  0  0  0  0
  -30.1790  -20.3800   22.7130 C   0  0  0  0  0  2  0  0  0  0  0  0
  -29.3590  -22.3740   20.0140 N   0  0  0  0  0  0  0  0  0  0  0  0
  -28.6250  -22.2150   19.3290 H   0  0  0  0  0  0  0  0  0  0  0  0
  -30.5910  -24.1530   18.7680 C   0  0  0  0  0  1  0  0  0  0  0  0
  -29.6800  -23.8720   19.9730 C   0  0  0  0  0  3  0  0  0  0  0  0
  -28.4420  -24.9420   19.9530 C   0  0  0  0  0  2  0  0  0  0  0  0
  -28.6100  -26.4450   20.0610 O   0  0  0  0  0  0  0  0  0  0  0  0
  -24.6100  -31.7090   23.1360 C   0  0  0  0  0  0  0  0  0  0  0  0
  -27.4640  -27.2870   20.0200 C   0  0  0  0  0  0  0  0  0  0  0  0
  -23.4880  -30.2770   21.4720 C   0  0  0  0  0  3  0  0  0  0  0  0
  -25.0230  -28.8240   20.0250 C   0  0  0  0  0  0  0  0  0  0  0  0
  -26.0150  -30.7150   21.3050 C   0  0  0  0  0  2  0  0  0  0  0  0
  -26.1690  -29.3490   20.6340 C   0  0  0  0  0  0  0  0  0  0  0  0
  -27.3910  -28.5960   20.6170 C   0  0  0  0  0  3  0  0  0  0  0  0
  -26.2830  -26.8350   19.3870 C   0  0  0  0  0  3  0  0  0  0  0  0
  -25.0850  -27.5760   19.3900 C   0  0  0  0  0  3  0  0  0  0  0  0
  -23.7430  -29.6380   20.0820 C   0  0  0  0  0  2  0  0  0  0  0  0
  -24.7230  -30.9200   22.0280 N   0  0  0  0  0  0  0  0  0  0  0  0
  -23.5100  -31.9220   23.6690 O   0  0  0  0  0  0  0  0  0  0  0  0
  -22.8730  -29.2130   22.4130 C   0  0  0  0  0  0  0  0  0  0  0  0
  -21.5590  -28.9630   22.2740 N   0  0  0  0  0  0  0  0  0  0  0  0
  -23.5790  -28.6160   23.2310 O   0  0  0  0  0  0  0  0  0  0  0  0
  -21.0450  -29.5000   21.5900 H   0  0  0  0  0  0  0  0  0  0  0  0
  -18.2540  -27.5560   22.7230 C   0  0  0  0  0  0  0  0  0  0  0  0
  -20.7890  -27.9700   23.0260 C   0  0  0  0  0  3  0  0  0  0  0  0
  -20.9850  -26.5530   22.4410 C   0  0  0  0  0  2  0  0  0  0  0  0
  -19.9180  -26.1720   21.4100 C   0  0  0  0  0  2  0  0  0  0  0  0
  -18.5220  -26.2260   22.0380 C   0  0  0  0  0  2  0  0  0  0  0  0
  -19.3190  -28.3820   23.1730 C   0  0  0  0  0  0  0  0  0  0  0  0
  -19.0150  -29.6220   23.7740 C   0  0  0  0  0  3  0  0  0  0  0  0
  -17.6800  -30.0400   23.9280 C   0  0  0  0  0  3  0  0  0  0  0  0
  -16.6300  -29.2130   23.4940 C   0  0  0  0  0  3  0  0  0  0  0  0
  -16.9180  -27.9730   22.8970 C   0  0  0  0  0  3  0  0  0  0  0  0
  -25.8530  -32.4010   23.7740 C   0  0  0  0  0  3  0  0  0  0  0  0
  -25.4690  -33.7790   24.1170 N   0  0  0  0  0  0  0  0  0  0  0  0
  -25.7570  -34.8580   23.3760 C   0  0  0  0  0  0  0  0  0  0  0  0
  -26.4410  -34.8010   22.3510 O   0  0  0  0  0  0  0  0  0  0  0  0
  -24.8600  -33.8930   24.9140 H   0  0  0  0  0  0  0  0  0  0  0  0
  -23.9460  -36.5680   23.0310 C   0  0  0  0  0  1  0  0  0  0  0  0
  -25.1990  -36.2140   23.8460 C   0  0  0  0  0  3  0  0  0  0  0  0
  -27.2770  -37.1970   24.7110 C   0  0  0  0  0  1  0  0  0  0  0  0
  -26.1790  -37.3190   23.7550 N   0  0  0  0  0  0  0  0  0  0  0  0
  -25.7260  -38.2150   23.9060 H   0  0  0  0  0  0  0  0  0  0  0  0
  -26.3980  -31.6460   25.0480 C   0  0  1  0  0  0  0  0  0  0  0  0
  -25.3080  -31.3380   26.1020 C   0  0  0  0  0  1  0  0  0  0  0  0
  -27.0580  -30.3050   24.6500 C   0  0  0  0  0  1  0  0  0  0  0  0
  -27.4960  -32.4930   25.7310 C   0  0  0  0  0  1  0  0  0  0  0  0
  1 48  1  0
  3  2  2  0
  4  1  1  0
  4  5  1  0
  5  2  1  0
  5 47  1  0
  6  4  1  0
  6  3  1  0
  7  6  1  0
  8 16  1  0
  9 14  1  0
 10 11  1  0
 10  9  1  0
 12 11  1  0
 12 21  1  0
 12 13  1  0
 14  8  1  0
 14 13  1  0
 15  8  2  0
 16  3  1  0
 16 17  1  0
 18 19  2  0
 19 38  1  0
 20 19  1  0
 20 23  1  0
 21 22  1  0
 21 18  1  0
 22 20  2  0
 23 24  1  0
 24 25  2  0
 26 29  1  0
 26 25  1  0
 27 26  2  0
 28 27  1  0
 28 23  2  0
 29 30  1  0
 30 31  1  0
 31 32  2  0
 33 32  1  0
 33 37  1  0
 34 33  2  0
 35 30  2  0
 35 34  1  0
 36 35  1  0
 38 39  1  0
 39 42  1  0
 39 41  1  0
 40 38  2  0
 43 18  1  0
 43 44  1  0
 45 43  1  0
 47 46  1  0
 49 48  1  0
 51 50  1  0
 51 48  1  0
 52 51  1  0
 52 53  1  0
 54 65  2  0
 55 53  1  0
 55 60  1  0
 56 64  1  0
 56 66  1  0
 57 63  1  0
 57 59  1  0
 58 64  1  0
 59 58  1  0
 60 59  2  0
 61 62  1  0
 61 55  2  0
 62 57  2  0
 63 56  1  0
 64 54  1  0
 66 68  2  0
 67 66  1  0
 69 67  1  0
 70 79  2  0
 70 75  1  0
 71 67  1  0
 71 75  1  0
 72 71  1  0
 73 74  1  0
 73 72  1  0
 74 70  1  0
 75 76  2  0
 76 77  1  0
 78 77  2  0
 79 78  1  0
 80 54  1  0
 80 81  1  0
 80 90  1  0
 81 84  1  0
 82 86  1  0
 82 81  1  0
 83 82  2  0
 86 85  1  0
 88 86  1  0
 88 89  1  0
 88 87  1  0
 90 93  1  1
 90 91  1  0
 92 90  1  0
M  ISO  4   8 100  16 100  52 101  53 101
M  END
>  <TORSDO>  (33) 
F 21

>  <SCORE>  (33) 
-11.863

>  <name>  (33) 
32

>  <ligand_id>  (33) 
32

>  <original_smiles>  (33) 
[H]c1c([H])c([H])c2c(c1[H])C([H])([H])C([H])([H])C([H])([H])C2([H])N([H])C(=O)C1([H])N(C(=O)C([H])(N([H])C(=O)C([H])(N([H])C([H])([H])[H])C([H])([H])[H])C(C([H])([H])[H])(C([H])([H])[H])C([H])([H])[H])C([H])([H])c2c([H])c(OC([H])([H])C([H])(N([H])C([H])([H])c3n(C([H])([H])C([H])([H])[H])c([H])c(N([H])C(=O)N4C([H])([H])C([H])([H])C([H])([H])C([H])(n5nc(-c6c([H])c([H])c(Oc7c([H])c([H])c(F)c([H])c7F)c([H])c6[H])c(C(=O)N([H])[H])c5N([H])[H])C4([H])[H])[n+]3[H])C([H])([H])[H])c([H])c([H])c2C1([H])[H]

>  <smiles>  (33) 
[H]c1c([H])c([H])c2c(c1[H])C([H])([H])C([H])([H])C([H])([H])C2([H])N([H])C(=O)C1([H])N(C(=O)C([H])(N([H])C(=O)C([H])(N([H])C([H])([H])[H])C([H])([H])[H])C(C([H])([H])[H])(C([H])([H])[H])C([H])([H])[H])C([H])([H])c2c([H])c(OC([H])([H])C([H])(N([H])C([H])([H])c3n(C([H])([H])C([H])([H])[H])c([H])c(N([H])C(=O)N4C([H])([H])C([H])([H])C([H])([H])C([H])(n5nc(-c6c([H])c([H])c(Oc7c([H])c([H])c(F)c([H])c7F)c([H])c6[H])c(C(=O)N([H])[H])c5N([H])[H])C4([H])[H])[n+]3[H])C([H])([H])[H])c([H])c([H])c2C1([H])[H]

$$$$
33:0:0
     RDKit          3D

 92100  0  0  1  0  0  0  0  0999 V2000
  -29.2400  -22.3040   21.5300 C   0  0  0  0  0  2  0  0  0  0  0  0
  -29.9960  -20.8490   21.3870 C   0  0  0  0  0  2  0  0  0  0  0  0
  -28.5070  -22.0850   19.3020 C   0  0  0  0  0  2  0  0  0  0  0  0
  -29.0550  -23.2630   20.2600 C   0  0  0  0  0  3  0  0  0  0  0  0
  -29.4590  -19.6550   20.4390 C   0  0  0  0  0  3  0  0  0  0  0  0
  -29.2040  -20.5930   19.1430 C   0  0  0  0  0  3  0  0  0  0  0  0
  -28.3950  -19.8480   18.1470 N   0  0  0  0  0  4  0  0  0  0  0  0
  -27.8830  -20.5300   17.6110 H   0  0  0  0  0  0  0  0  0  0  0  0
  -27.7170  -19.2850   18.6340 H   0  0  0  0  0  0  0  0  0  0  0  0
  -28.2020  -18.3790   16.1410 C   0  0  0  0  0  1  0  0  0  0  0  0
  -29.1400  -19.0150   17.1760 C   0  0  0  0  0  2  0  0  0  0  0  0
  -30.4150  -18.1890   20.3950 C   0  0  0  0  0  2  0  0  0  0  0  0
  -30.7960  -15.3980   20.3080 C   0  0  0  0  0  0  0  0  0  0  0  0
  -30.7410  -13.0060   19.3990 C   0  0  0  0  0  2  0  0  0  0  0  0
  -29.8160  -12.8760   18.1660 C   0  0  0  0  0  2  0  0  0  0  0  0
  -28.3630  -12.6180   18.6020 C   0  0  0  0  0  2  0  0  0  0  0  0
  -27.9210  -13.5600   19.7510 C   0  0  0  0  0  3  0  0  0  0  0  0
  -28.9710  -13.6550   20.8790 C   0  0  0  0  0  2  0  0  0  0  0  0
  -30.2190  -14.1170   20.2580 N   0  0  0  0  0  0  0  0  0  0  0  0
  -32.0040  -15.4450   20.0490 O   0  0  0  0  0  0  0  0  0  0  0  0
  -30.0270  -16.6190   20.4440 N   0  0  0  0  0  0  0  0  0  0  0  0
  -29.0490  -16.4410   20.6230 H   0  0  0  0  0  0  0  0  0  0  0  0
  -25.5440  -14.0940   20.5220 C   0  0  0  0  0  0  0  0  0  0  0  0
  -24.4900  -13.3010   20.8810 C   0  0  0  0  0  0  0  0  0  0  0  0
  -24.9670  -11.9560   20.8190 C   0  0  0  0  0  0  0  0  0  0  0  0
  -26.5930  -13.2320   20.2560 N   0  0  0  0  0  0  0  0  0  0  0  0
  -26.2580  -11.9380   20.5020 N   0  0  0  0  0  0  0  0  0  0  0  0
  -24.2520  -10.6830   20.9840 C   0  0  0  0  0  0  0  0  0  0  0  0
  -24.6430   -9.7350   21.9540 C   0  0  0  0  0  3  0  0  0  0  0  0
  -23.9250   -8.5290   22.1070 C   0  0  0  0  0  3  0  0  0  0  0  0
  -22.8010   -8.2630   21.2890 C   0  0  0  0  0  0  0  0  0  0  0  0
  -22.4300   -9.2010   20.3090 C   0  0  0  0  0  3  0  0  0  0  0  0
  -23.1490  -10.3980   20.1550 C   0  0  0  0  0  3  0  0  0  0  0  0
  -22.0590   -7.1080   21.3490 O   0  0  0  0  0  0  0  0  0  0  0  0
  -21.8710   -6.4340   22.5290 C   0  0  0  0  0  0  0  0  0  0  0  0
  -21.2590   -7.0420   23.6470 C   0  0  0  0  0  3  0  0  0  0  0  0
  -21.0240   -6.2930   24.8160 C   0  0  0  0  0  3  0  0  0  0  0  0
  -21.3890   -4.9340   24.8670 C   0  0  0  0  0  0  0  0  0  0  0  0
  -21.9940   -4.3240   23.7530 C   0  0  0  0  0  3  0  0  0  0  0  0
  -22.2310   -5.0720   22.5860 C   0  0  0  0  0  0  0  0  0  0  0  0
  -22.7940   -4.4750   21.5090 F   0  0  0  0  0  0  0  0  0  0  0  0
  -21.1560   -4.2100   25.9870 F   0  0  0  0  0  0  0  0  0  0  0  0
  -23.0910  -13.7610   21.1650 C   0  0  0  0  0  0  0  0  0  0  0  0
  -22.3750  -13.0490   22.0290 N   0  0  0  0  0  0  0  0  0  0  0  0
  -22.6400  -14.7880   20.6580 O   0  0  0  0  0  0  0  0  0  0  0  0
  -22.7520  -12.2190   22.4590 H   0  0  0  0  0  0  0  0  0  0  0  0
  -21.4360  -13.3390   22.2620 H   0  0  0  0  0  0  0  0  0  0  0  0
  -25.6940  -15.4690   20.3720 N   0  0  0  0  0  0  0  0  0  0  0  0
  -24.9160  -16.1090   20.4940 H   0  0  0  0  0  0  0  0  0  0  0  0
  -26.5300  -15.9200   20.0290 H   0  0  0  0  0  0  0  0  0  0  0  0
  -28.1560  -24.7650   20.2760 C   0  0  0  0  0  2  0  0  0  0  0  0
  -28.4670  -26.3230   20.4510 O   0  0  0  0  0  0  0  0  0  0  0  0
  -24.8100  -32.0630   23.5060 C   0  0  0  0  0  0  0  0  0  0  0  0
  -27.4330  -27.3630   20.4000 C   0  0  0  0  0  0  0  0  0  0  0  0
  -23.6400  -30.7050   21.8180 C   0  0  0  0  0  3  0  0  0  0  0  0
  -25.1130  -29.1630   20.3740 C   0  0  0  0  0  0  0  0  0  0  0  0
  -26.2020  -30.9620   21.7000 C   0  0  0  0  0  2  0  0  0  0  0  0
  -26.2880  -29.5790   21.0120 C   0  0  0  0  0  0  0  0  0  0  0  0
  -27.4480  -28.6990   21.0030 C   0  0  0  0  0  3  0  0  0  0  0  0
  -26.2270  -27.0750   19.7230 C   0  0  0  0  0  3  0  0  0  0  0  0
  -25.1010  -27.9280   19.7120 C   0  0  0  0  0  3  0  0  0  0  0  0
  -23.8850  -30.0630   20.4270 C   0  0  0  0  0  2  0  0  0  0  0  0
  -24.9040  -31.2660   22.3960 N   0  0  0  0  0  0  0  0  0  0  0  0
  -23.7150  -32.3310   24.0230 O   0  0  0  0  0  0  0  0  0  0  0  0
  -22.9480  -29.6740   22.7470 C   0  0  0  0  0  0  0  0  0  0  0  0
  -21.6270  -29.4780   22.5780 N   0  0  0  0  0  0  0  0  0  0  0  0
  -23.6040  -29.0530   23.5870 O   0  0  0  0  0  0  0  0  0  0  0  0
  -21.1520  -30.0330   21.8790 H   0  0  0  0  0  0  0  0  0  0  0  0
  -18.2610  -28.1840   22.9530 C   0  0  0  0  0  0  0  0  0  0  0  0
  -20.8010  -28.5140   23.3120 C   0  0  0  0  0  3  0  0  0  0  0  0
  -20.9610  -27.0890   22.7330 C   0  0  0  0  0  2  0  0  0  0  0  0
  -19.9060  -26.7430   21.6780 C   0  0  0  0  0  2  0  0  0  0  0  0
  -18.4980  -26.8460   22.2710 C   0  0  0  0  0  2  0  0  0  0  0  0
  -19.3420  -28.9730   23.4270 C   0  0  0  0  0  0  0  0  0  0  0  0
  -19.0660  -30.2230   24.0240 C   0  0  0  0  0  3  0  0  0  0  0  0
  -17.7430  -30.6840   24.1490 C   0  0  0  0  0  3  0  0  0  0  0  0
  -16.6750  -29.8920   23.6890 C   0  0  0  0  0  3  0  0  0  0  0  0
  -16.9350  -28.6430   23.0980 C   0  0  0  0  0  3  0  0  0  0  0  0
  -26.0730  -32.6920   24.1660 C   0  0  0  0  0  3  0  0  0  0  0  0
  -26.5360  -31.9280   25.4680 C   0  0  1  0  0  0  0  0  0  0  0  0
  -25.3980  -31.6880   26.4880 C   0  0  0  0  0  1  0  0  0  0  0  0
  -27.1460  -30.5530   25.1130 C   0  0  0  0  0  1  0  0  0  0  0  0
  -27.6510  -32.7320   26.1790 C   0  0  0  0  0  1  0  0  0  0  0  0
  -25.7650  -34.0960   24.4840 N   0  0  0  0  0  0  0  0  0  0  0  0
  -26.0910  -35.1440   23.7150 C   0  0  0  0  0  0  0  0  0  0  0  0
  -26.7490  -35.0310   22.6770 O   0  0  0  0  0  0  0  0  0  0  0  0
  -25.1810  -34.2590   25.2900 H   0  0  0  0  0  0  0  0  0  0  0  0
  -24.3450  -36.9300   23.3950 C   0  0  0  0  0  1  0  0  0  0  0  0
  -25.6150  -36.5390   24.1680 C   0  0  0  0  0  3  0  0  0  0  0  0
  -27.7660  -37.4530   24.9210 C   0  0  0  0  0  1  0  0  0  0  0  0
  -26.6390  -37.5950   24.0050 N   0  0  0  0  0  0  0  0  0  0  0  0
  -26.2310  -38.5160   24.1440 H   0  0  0  0  0  0  0  0  0  0  0  0
  2  1  1  0
  3  4  1  0
  4 51  1  0
  4  1  1  0
  5 12  1  0
  5  2  1  0
  6  7  1  0
  6  3  1  0
  6  5  1  0
  7  9  1  0
  8  7  1  0
 10 11  1  0
 11  7  1  0
 12 21  1  0
 13 21  1  0
 14 19  1  0
 15 16  1  0
 15 14  1  0
 17 16  1  0
 17 26  1  0
 17 18  1  0
 19 13  1  0
 19 18  1  0
 20 13  2  0
 21 22  1  0
 23 24  2  0
 24 43  1  0
 25 24  1  0
 25 28  1  0
 26 27  1  0
 26 23  1  0
 27 25  2  0
 28 29  1  0
 29 30  2  0
 31 34  1  0
 31 30  1  0
 32 31  2  0
 33 32  1  0
 33 28  2  0
 34 35  1  0
 35 40  2  0
 35 36  1  0
 36 37  2  0
 37 38  1  0
 38 42  1  0
 39 38  2  0
 40 39  1  0
 41 40  1  0
 43 44  1  0
 44 47  1  0
 44 46  1  0
 45 43  2  0
 48 49  1  0
 48 23  1  0
 50 48  1  0
 51 52  1  0
 53 64  2  0
 54 52  1  0
 54 59  1  0
 55 63  1  0
 55 65  1  0
 56 62  1  0
 56 58  1  0
 57 63  1  0
 58 57  1  0
 59 58  2  0
 60 54  2  0
 61 60  1  0
 61 56  2  0
 62 55  1  0
 63 53  1  0
 65 67  2  0
 66 65  1  0
 68 66  1  0
 69 78  2  0
 69 74  1  0
 70 66  1  0
 70 74  1  0
 71 70  1  0
 72 73  1  0
 72 71  1  0
 73 69  1  0
 74 75  2  0
 75 76  1  0
 77 76  2  0
 78 77  1  0
 79 53  1  0
 79 84  1  0
 79 80  1  0
 80 83  1  1
 80 81  1  0
 82 80  1  0
 84 87  1  0
 85 89  1  0
 85 84  1  0
 86 85  2  0
 89 88  1  0
 91 92  1  0
 91 89  1  0
 91 90  1  0
M  ISO  4  13 100  21 100  51 101  52 101
M  END
>  <TORSDO>  (34) 
F 20

>  <SCORE>  (34) 
-14.341

>  <name>  (34) 
33

>  <ligand_id>  (34) 
33

>  <original_smiles>  (34) 
[H]c1c([H])c([H])c2c(c1[H])C([H])([H])C([H])([H])C([H])([H])C2([H])N([H])C(=O)C1([H])N(C(=O)C([H])(N([H])C(=O)C([H])(N([H])C([H])([H])[H])C([H])([H])[H])C(C([H])([H])[H])(C([H])([H])[H])C([H])([H])[H])C([H])([H])c2c([H])c(OC([H])([H])C3([H])C([H])([H])C([H])([H])C([H])(C([H])([H])N([H])C(=O)N4C([H])([H])C([H])([H])C([H])([H])C([H])(n5nc(-c6c([H])c([H])c(Oc7c([H])c([H])c(F)c([H])c7F)c([H])c6[H])c(C(=O)N([H])[H])c5N([H])[H])C4([H])[H])C([H])([N+]([H])([H])C([H])([H])C([H])([H])[H])C3([H])[H])c([H])c([H])c2C1([H])[H]

>  <smiles>  (34) 
[H]c1c([H])c([H])c2c(c1[H])C([H])([H])C([H])([H])C([H])([H])C2([H])N([H])C(=O)C1([H])N(C(=O)C([H])(N([H])C(=O)C([H])(N([H])C([H])([H])[H])C([H])([H])[H])C(C([H])([H])[H])(C([H])([H])[H])C([H])([H])[H])C([H])([H])c2c([H])c(OC([H])([H])C3([H])C([H])([H])C([H])([H])C([H])(C([H])([H])N([H])C(=O)N4C([H])([H])C([H])([H])C([H])([H])C([H])(n5nc(-c6c([H])c([H])c(Oc7c([H])c([H])c(F)c([H])c7F)c([H])c6[H])c(C(=O)N([H])[H])c5N([H])[H])C4([H])[H])C([H])([N+]([H])([H])C([H])([H])C([H])([H])[H])C3([H])[H])c([H])c([H])c2C1([H])[H]

$$$$
34:0:0
     RDKit          3D

 87 95  0  0  1  0  0  0  0  0999 V2000
  -29.9240  -22.7470   20.7570 C   0  0  0  0  0  3  0  0  0  0  0  0
  -28.1690  -21.7840   20.0690 C   0  0  0  0  0  3  0  0  0  0  0  0
  -28.6190  -23.1210   20.2740 C   0  0  0  0  0  0  0  0  0  0  0  0
  -30.1830  -21.4010   20.8370 N   0  0  0  0  0  0  0  0  0  0  0  0
  -29.0950  -20.7090   20.3830 N   0  0  0  0  0  0  0  0  0  0  0  0
  -27.8190  -24.5790   19.9940 C   0  0  0  0  0  2  0  0  0  0  0  0
  -28.1940  -26.0840   20.2860 O   0  0  0  0  0  0  0  0  0  0  0  0
  -24.6260  -31.8890   23.2390 C   0  0  0  0  0  0  0  0  0  0  0  0
  -27.1790  -27.1310   20.2000 C   0  0  0  0  0  0  0  0  0  0  0  0
  -23.4230  -30.5000   21.6000 C   0  0  0  0  0  3  0  0  0  0  0  0
  -24.8650  -28.9260   20.1680 C   0  0  0  0  0  0  0  0  0  0  0  0
  -25.9830  -30.7440   21.4420 C   0  0  0  0  0  2  0  0  0  0  0  0
  -26.0500  -29.3510   20.7830 C   0  0  0  0  0  0  0  0  0  0  0  0
  -27.2050  -28.4690   20.7840 C   0  0  0  0  0  3  0  0  0  0  0  0
  -25.9680  -26.8350   19.5300 C   0  0  0  0  0  3  0  0  0  0  0  0
  -24.8410  -27.6830   19.5260 C   0  0  0  0  0  3  0  0  0  0  0  0
  -23.6430  -29.8300   20.2200 C   0  0  0  0  0  2  0  0  0  0  0  0
  -24.6980  -31.0680   22.1470 N   0  0  0  0  0  0  0  0  0  0  0  0
  -23.5400  -32.1770   23.7650 O   0  0  0  0  0  0  0  0  0  0  0  0
  -22.7370  -29.4960   22.5600 C   0  0  0  0  0  0  0  0  0  0  0  0
  -21.4070  -29.3300   22.4340 N   0  0  0  0  0  0  0  0  0  0  0  0
  -23.4040  -28.8650   23.3830 O   0  0  0  0  0  0  0  0  0  0  0  0
  -20.9200  -29.8920   21.7500 H   0  0  0  0  0  0  0  0  0  0  0  0
  -18.0220  -28.1360   22.9400 C   0  0  0  0  0  0  0  0  0  0  0  0
  -20.5830  -28.3940   23.2060 C   0  0  0  0  0  3  0  0  0  0  0  0
  -20.6800  -26.9620   22.6300 C   0  0  0  0  0  2  0  0  0  0  0  0
  -19.5770  -26.6400   21.6180 C   0  0  0  0  0  2  0  0  0  0  0  0
  -18.1960  -26.7870   22.2640 C   0  0  0  0  0  2  0  0  0  0  0  0
  -19.1430  -28.8970   23.3690 C   0  0  0  0  0  0  0  0  0  0  0  0
  -18.9260  -30.1570   23.9660 C   0  0  0  0  0  3  0  0  0  0  0  0
  -17.6210  -30.6580   24.1360 C   0  0  0  0  0  3  0  0  0  0  0  0
  -16.5160  -29.8950   23.7200 C   0  0  0  0  0  3  0  0  0  0  0  0
  -16.7170  -28.6350   23.1310 C   0  0  0  0  0  3  0  0  0  0  0  0
  -25.9040  -32.5220   23.8680 C   0  0  0  0  0  3  0  0  0  0  0  0
  -26.4140  -31.7480   25.1460 C   0  0  1  0  0  0  0  0  0  0  0  0
  -25.3180  -31.5130   26.2120 C   0  0  0  0  0  1  0  0  0  0  0  0
  -26.9960  -30.3680   24.7630 C   0  0  0  0  0  1  0  0  0  0  0  0
  -27.5650  -32.5390   25.8120 C   0  0  0  0  0  1  0  0  0  0  0  0
  -25.5920  -33.9200   24.2100 N   0  0  0  0  0  0  0  0  0  0  0  0
  -25.8950  -34.9790   23.4470 C   0  0  0  0  0  0  0  0  0  0  0  0
  -26.5330  -34.8830   22.3960 O   0  0  0  0  0  0  0  0  0  0  0  0
  -25.0190  -34.0670   25.0270 H   0  0  0  0  0  0  0  0  0  0  0  0
  -24.1350  -36.7580   23.1760 C   0  0  0  0  0  1  0  0  0  0  0  0
  -25.4170  -36.3640   23.9270 C   0  0  0  0  0  3  0  0  0  0  0  0
  -27.5780  -37.2760   24.6560 C   0  0  0  0  0  1  0  0  0  0  0  0
  -26.4320  -37.4280   23.7640 N   0  0  0  0  0  0  0  0  0  0  0  0
  -26.0240  -38.3440   23.9250 H   0  0  0  0  0  0  0  0  0  0  0  0
  -28.9240  -19.1030   20.3890 C   0  0  0  0  0  3  0  0  0  0  0  0
  -30.0760  -17.8390   20.4630 C   0  0  0  0  0  3  0  0  0  0  0  0
  -30.5080  -15.0600   20.3410 C   0  0  0  0  0  0  0  0  0  0  0  0
  -30.4020  -12.6940   19.4000 C   0  0  0  0  0  2  0  0  0  0  0  0
  -29.4720  -12.6250   18.1680 C   0  0  0  0  0  2  0  0  0  0  0  0
  -28.0080  -12.4040   18.5940 C   0  0  0  0  0  2  0  0  0  0  0  0
  -27.5940  -13.3200   19.7760 C   0  0  0  0  0  3  0  0  0  0  0  0
  -28.6520  -13.3570   20.9000 C   0  0  0  0  0  2  0  0  0  0  0  0
  -29.9120  -13.7940   20.2850 N   0  0  0  0  0  0  0  0  0  0  0  0
  -31.7120  -15.1100   20.0720 O   0  0  0  0  0  0  0  0  0  0  0  0
  -29.7410  -16.2650   20.4930 N   0  0  0  0  0  0  0  0  0  0  0  0
  -28.7630  -16.0710   20.6460 H   0  0  0  0  0  0  0  0  0  0  0  0
  -25.2130  -13.8740   20.5260 C   0  0  0  0  0  0  0  0  0  0  0  0
  -24.1550  -13.0880   20.8950 C   0  0  0  0  0  0  0  0  0  0  0  0
  -24.6320  -11.7420   20.8590 C   0  0  0  0  0  0  0  0  0  0  0  0
  -26.2610  -13.0060   20.2800 N   0  0  0  0  0  0  0  0  0  0  0  0
  -25.9230  -11.7180   20.5480 N   0  0  0  0  0  0  0  0  0  0  0  0
  -23.9120  -10.4740   21.0440 C   0  0  0  0  0  0  0  0  0  0  0  0
  -24.3440   -9.5090   21.9810 C   0  0  0  0  0  3  0  0  0  0  0  0
  -23.6250   -8.3080   22.1580 C   0  0  0  0  0  3  0  0  0  0  0  0
  -22.4580   -8.0610   21.3940 C   0  0  0  0  0  0  0  0  0  0  0  0
  -22.0460   -9.0130   20.4450 C   0  0  0  0  0  3  0  0  0  0  0  0
  -22.7660  -10.2060   20.2680 C   0  0  0  0  0  3  0  0  0  0  0  0
  -21.7120   -6.9090   21.4780 O   0  0  0  0  0  0  0  0  0  0  0  0
  -21.6530   -6.1710   22.6330 C   0  0  0  0  0  0  0  0  0  0  0  0
  -21.1950   -6.7250   23.8490 C   0  0  0  0  0  3  0  0  0  0  0  0
  -21.0860   -5.9120   24.9950 C   0  0  0  0  0  3  0  0  0  0  0  0
  -21.4250   -4.5470   24.9260 C   0  0  0  0  0  0  0  0  0  0  0  0
  -21.8750   -3.9930   23.7150 C   0  0  0  0  0  3  0  0  0  0  0  0
  -21.9860   -4.8030   22.5700 C   0  0  0  0  0  0  0  0  0  0  0  0
  -22.3990   -4.2590   21.4000 F   0  0  0  0  0  0  0  0  0  0  0  0
  -21.3130   -3.7640   26.0240 F   0  0  0  0  0  0  0  0  0  0  0  0
  -22.7540  -13.5540   21.1640 C   0  0  0  0  0  0  0  0  0  0  0  0
  -22.0300  -12.8520   22.0290 N   0  0  0  0  0  0  0  0  0  0  0  0
  -22.3090  -14.5750   20.6400 O   0  0  0  0  0  0  0  0  0  0  0  0
  -22.4040  -12.0270   22.4740 H   0  0  0  0  0  0  0  0  0  0  0  0
  -21.0900  -13.1450   22.2530 H   0  0  0  0  0  0  0  0  0  0  0  0
  -25.3610  -15.2480   20.3510 N   0  0  0  0  0  0  0  0  0  0  0  0
  -24.5830  -15.8890   20.4630 H   0  0  0  0  0  0  0  0  0  0  0  0
  -26.1860  -15.6950   19.9750 H   0  0  0  0  0  0  0  0  0  0  0  0
  1  4  2  0
  2  3  2  0
  2  5  1  0
  3  1  1  0
  5 48  1  0
  5  4  1  0
  6  3  1  0
  6  7  1  0
  8 19  2  0
  9  7  1  0
  9 14  1  0
 10 18  1  0
 10 20  1  0
 11 17  1  0
 11 13  1  0
 12 18  1  0
 13 14  2  0
 13 12  1  0
 15  9  2  0
 16 15  1  0
 16 11  2  0
 17 10  1  0
 18  8  1  0
 20 22  2  0
 21 20  1  0
 23 21  1  0
 24 33  2  0
 24 29  1  0
 25 21  1  0
 25 29  1  0
 26 25  1  0
 27 28  1  0
 27 26  1  0
 28 24  1  0
 29 30  2  0
 30 31  1  0
 32 31  2  0
 33 32  1  0
 34  8  1  0
 34 39  1  0
 34 35  1  0
 35 38  1  1
 35 36  1  0
 37 35  1  0
 39 42  1  0
 40 44  1  0
 40 39  1  0
 41 40  2  0
 44 43  1  0
 46 47  1  0
 46 44  1  0
 46 45  1  0
 48 49  2  0
 49 58  1  0
 50 58  1  0
 51 56  1  0
 52 53  1  0
 52 51  1  0
 54 53  1  0
 54 63  1  0
 54 55  1  0
 56 50  1  0
 56 55  1  0
 57 50  2  0
 58 59  1  0
 60 61  2  0
 61 80  1  0
 62 61  1  0
 62 65  1  0
 63 60  1  0
 63 64  1  0
 64 62  2  0
 65 66  1  0
 66 67  2  0
 68 71  1  0
 68 67  1  0
 69 68  2  0
 70 69  1  0
 70 65  2  0
 71 72  1  0
 72 73  1  0
 73 74  2  0
 75 74  1  0
 75 79  1  0
 76 75  2  0
 77 72  2  0
 77 76  1  0
 78 77  1  0
 80 81  1  0
 81 84  1  0
 81 83  1  0
 82 80  2  0
 85 86  1  0
 85 60  1  0
 87 85  1  0
M  ISO  4   6 101   7 101  50 100  58 100
M  END
>  <TORSDO>  (35) 
F 19

>  <SCORE>  (35) 
-14.942

>  <name>  (35) 
34

>  <ligand_id>  (35) 
34

>  <original_smiles>  (35) 
[H]c1nn(C([H])([H])C([H])([H])N([H])C(=O)N2C([H])([H])C([H])([H])C([H])([H])C([H])(n3nc(-c4c([H])c([H])c(Oc5c([H])c([H])c(F)c([H])c5F)c([H])c4[H])c(C(=O)N([H])[H])c3N([H])[H])C2([H])[H])c([H])c1C([H])([H])Oc1c([H])c([H])c2c(c1[H])C([H])([H])N(C(=O)C([H])(N([H])C(=O)C([H])(N([H])C([H])([H])[H])C([H])([H])[H])C(C([H])([H])[H])(C([H])([H])[H])C([H])([H])[H])C([H])(C(=O)N([H])C1([H])c3c([H])c([H])c([H])c([H])c3C([H])([H])C([H])([H])C1([H])[H])C2([H])[H]

>  <smiles>  (35) 
[H]c1nn(C([H])([H])C([H])([H])N([H])C(=O)N2C([H])([H])C([H])([H])C([H])([H])C([H])(n3nc(-c4c([H])c([H])c(Oc5c([H])c([H])c(F)c([H])c5F)c([H])c4[H])c(C(=O)N([H])[H])c3N([H])[H])C2([H])[H])c([H])c1C([H])([H])Oc1c([H])c([H])c2c(c1[H])C([H])([H])N(C(=O)C([H])(N([H])C(=O)C([H])(N([H])C([H])([H])[H])C([H])([H])[H])C(C([H])([H])[H])(C([H])([H])[H])C([H])([H])[H])C([H])(C(=O)N([H])C1([H])c3c([H])c([H])c([H])c([H])c3C([H])([H])C([H])([H])C1([H])[H])C2([H])[H]

$$$$
35:0:0
     RDKit          3D

 91 99  0  0  1  0  0  0  0  0999 V2000
  -28.7870  -21.0790   21.9780 C   0  0  0  0  0  2  0  0  0  0  0  0
  -30.0150  -21.1040   19.8140 C   0  0  0  0  0  2  0  0  0  0  0  0
  -29.0060  -22.6010   22.1070 C   0  0  0  0  0  2  0  0  0  0  0  0
  -30.1950  -22.6400   19.9560 C   0  0  0  0  0  2  0  0  0  0  0  0
  -29.9190  -20.4010   21.1840 C   0  0  0  0  0  3  0  0  0  0  0  0
  -29.1230  -23.2700   20.7820 N   0  0  2  0  0  4  0  0  0  0  0  0
  -28.2470  -23.0950   20.3130 H   0  0  0  0  0  0  0  0  0  0  0  0
  -29.7380  -18.8560   21.1120 C   0  0  0  0  0  2  0  0  0  0  0  0
  -31.0000  -18.0740   20.6680 C   0  0  0  0  0  2  0  0  0  0  0  0
  -31.2660  -16.7430   21.4220 C   0  0  0  0  0  2  0  0  0  0  0  0
  -31.0240  -14.6440   20.0860 C   0  0  0  0  0  0  0  0  0  0  0  0
  -30.6270  -12.5000   18.9230 C   0  0  0  0  0  2  0  0  0  0  0  0
  -29.6280  -12.6810   17.7650 C   0  0  0  0  0  2  0  0  0  0  0  0
  -28.1790  -12.5440   18.2710 C   0  0  0  0  0  2  0  0  0  0  0  0
  -27.9020  -13.4050   19.5320 C   0  0  0  0  0  3  0  0  0  0  0  0
  -29.0080  -13.2030   20.5920 C   0  0  0  0  0  2  0  0  0  0  0  0
  -30.3070  -13.4950   19.9600 N   0  0  0  0  0  0  0  0  0  0  0  0
  -32.0690  -14.8490   19.4630 O   0  0  0  0  0  0  0  0  0  0  0  0
  -30.5300  -15.5680   20.9310 N   0  0  0  0  0  0  0  0  0  0  0  0
  -29.6530  -15.3470   21.3800 H   0  0  0  0  0  0  0  0  0  0  0  0
  -25.5610  -14.0300   20.4000 C   0  0  0  0  0  0  0  0  0  0  0  0
  -24.5010  -13.2650   20.8030 C   0  0  0  0  0  0  0  0  0  0  0  0
  -24.9320  -11.9070   20.6980 C   0  0  0  0  0  0  0  0  0  0  0  0
  -26.5730  -13.1380   20.0780 N   0  0  0  0  0  0  0  0  0  0  0  0
  -26.2000  -11.8540   20.3140 N   0  0  0  0  0  0  0  0  0  0  0  0
  -24.1910  -10.6520   20.8870 C   0  0  0  0  0  0  0  0  0  0  0  0
  -24.5890   -9.6960   21.8470 C   0  0  0  0  0  3  0  0  0  0  0  0
  -23.8510   -8.5060   22.0220 C   0  0  0  0  0  3  0  0  0  0  0  0
  -22.6990   -8.2630   21.2360 C   0  0  0  0  0  0  0  0  0  0  0  0
  -22.3200   -9.2070   20.2650 C   0  0  0  0  0  3  0  0  0  0  0  0
  -23.0590  -10.3890   20.0890 C   0  0  0  0  0  3  0  0  0  0  0  0
  -21.9360   -7.1250   21.3190 O   0  0  0  0  0  0  0  0  0  0  0  0
  -21.7640   -6.4580   22.5050 C   0  0  0  0  0  0  0  0  0  0  0  0
  -21.1690   -7.0740   23.6270 C   0  0  0  0  0  3  0  0  0  0  0  0
  -20.9490   -6.3300   24.8040 C   0  0  0  0  0  3  0  0  0  0  0  0
  -21.3130   -4.9710   24.8580 C   0  0  0  0  0  0  0  0  0  0  0  0
  -21.9000   -4.3550   23.7390 C   0  0  0  0  0  3  0  0  0  0  0  0
  -22.1220   -5.0960   22.5650 C   0  0  0  0  0  0  0  0  0  0  0  0
  -22.6680   -4.4910   21.4830 F   0  0  0  0  0  0  0  0  0  0  0  0
  -21.0950   -4.2550   25.9850 F   0  0  0  0  0  0  0  0  0  0  0  0
  -23.1320  -13.7580   21.1740 C   0  0  0  0  0  0  0  0  0  0  0  0
  -22.4480  -13.0530   22.0680 N   0  0  0  0  0  0  0  0  0  0  0  0
  -22.6790  -14.8030   20.7060 O   0  0  0  0  0  0  0  0  0  0  0  0
  -22.8270  -12.2080   22.4690 H   0  0  0  0  0  0  0  0  0  0  0  0
  -21.5300  -13.3640   22.3580 H   0  0  0  0  0  0  0  0  0  0  0  0
  -25.7450  -15.4030   20.2620 N   0  0  0  0  0  0  0  0  0  0  0  0
  -25.0030  -16.0710   20.4400 H   0  0  0  0  0  0  0  0  0  0  0  0
  -26.5910  -15.8350   19.9110 H   0  0  0  0  0  0  0  0  0  0  0  0
  -29.2550  -24.7600   20.9120 C   0  0  0  0  0  2  0  0  0  0  0  0
  -28.7140  -25.5480   19.6970 C   0  0  0  0  0  2  0  0  0  0  0  0
  -28.6550  -26.9640   19.9860 O   0  0  0  0  0  0  0  0  0  0  0  0
  -24.6510  -31.8850   23.2350 C   0  0  0  0  0  0  0  0  0  0  0  0
  -27.4440  -27.6380   19.9860 C   0  0  0  0  0  0  0  0  0  0  0  0
  -23.5010  -30.5300   21.5170 C   0  0  0  0  0  3  0  0  0  0  0  0
  -25.0100  -29.0980   20.0420 C   0  0  0  0  0  0  0  0  0  0  0  0
  -26.0220  -30.9550   21.3710 C   0  0  0  0  0  2  0  0  0  0  0  0
  -26.1480  -29.6160   20.6710 C   0  0  0  0  0  0  0  0  0  0  0  0
  -27.3650  -28.8920   20.6420 C   0  0  0  0  0  3  0  0  0  0  0  0
  -26.2840  -27.1530   19.3350 C   0  0  0  0  0  3  0  0  0  0  0  0
  -25.0730  -27.8660   19.3740 C   0  0  0  0  0  3  0  0  0  0  0  0
  -23.7450  -29.9240   20.1100 C   0  0  0  0  0  2  0  0  0  0  0  0
  -24.7420  -31.1370   22.0990 N   0  0  0  0  0  0  0  0  0  0  0  0
  -23.5560  -32.1040   23.7710 O   0  0  0  0  0  0  0  0  0  0  0  0
  -22.8670  -29.4470   22.4190 C   0  0  0  0  0  0  0  0  0  0  0  0
  -21.5510  -29.2280   22.2590 N   0  0  0  0  0  0  0  0  0  0  0  0
  -23.5560  -28.8080   23.2190 O   0  0  0  0  0  0  0  0  0  0  0  0
  -21.0550  -29.7970   21.5870 H   0  0  0  0  0  0  0  0  0  0  0  0
  -18.2010  -27.9430   22.6760 C   0  0  0  0  0  0  0  0  0  0  0  0
  -20.7510  -28.2330   22.9730 C   0  0  0  0  0  3  0  0  0  0  0  0
  -20.8840  -26.8390   22.3200 C   0  0  0  0  0  2  0  0  0  0  0  0
  -19.7930  -26.5510   21.2840 C   0  0  0  0  0  2  0  0  0  0  0  0
  -18.4060  -26.6360   21.9290 C   0  0  0  0  0  2  0  0  0  0  0  0
  -19.3030  -28.7010   23.1520 C   0  0  0  0  0  0  0  0  0  0  0  0
  -19.0580  -29.9270   23.8090 C   0  0  0  0  0  3  0  0  0  0  0  0
  -17.7430  -30.3950   23.9940 C   0  0  0  0  0  3  0  0  0  0  0  0
  -16.6550  -29.6320   23.5340 C   0  0  0  0  0  3  0  0  0  0  0  0
  -16.8850  -28.4080   22.8810 C   0  0  0  0  0  3  0  0  0  0  0  0
  -25.9120  -32.5200   23.8980 C   0  0  0  0  0  3  0  0  0  0  0  0
  -25.5820  -33.9120   24.2320 N   0  0  0  0  0  0  0  0  0  0  0  0
  -25.9350  -34.9750   23.4960 C   0  0  0  0  0  0  0  0  0  0  0  0
  -26.6450  -34.8860   22.4900 O   0  0  0  0  0  0  0  0  0  0  0  0
  -24.9570  -34.0540   25.0110 H   0  0  0  0  0  0  0  0  0  0  0  0
  -24.2190  -36.7650   23.0810 C   0  0  0  0  0  1  0  0  0  0  0  0
  -25.4200  -36.3540   23.9480 C   0  0  0  0  0  3  0  0  0  0  0  0
  -27.4990  -37.2400   24.9080 C   0  0  0  0  0  1  0  0  0  0  0  0
  -26.4520  -37.4120   23.9020 N   0  0  0  0  0  0  0  0  0  0  0  0
  -26.0350  -38.3300   24.0330 H   0  0  0  0  0  0  0  0  0  0  0  0
  -26.3990  -31.7390   25.1800 C   0  0  1  0  0  0  0  0  0  0  0  0
  -25.2750  -31.4600   26.2030 C   0  0  0  0  0  1  0  0  0  0  0  0
  -27.0290  -30.3820   24.7860 C   0  0  0  0  0  1  0  0  0  0  0  0
  -27.5070  -32.5490   25.8960 C   0  0  0  0  0  1  0  0  0  0  0  0
  1  3  1  0
  2  4  1  0
  2  5  1  0
  4  6  1  0
  5  8  1  0
  5  1  1  0
  6 49  1  0
  6  3  1  0
  6  7  1  6
  9  8  1  0
  9 10  1  0
 11 19  1  0
 12 17  1  0
 13 14  1  0
 13 12  1  0
 15 14  1  0
 15 24  1  0
 15 16  1  0
 17 11  1  0
 17 16  1  0
 18 11  2  0
 19 20  1  0
 19 10  1  0
 21 22  2  0
 22 41  1  0
 23 22  1  0
 23 26  1  0
 24 25  1  0
 24 21  1  0
 25 23  2  0
 26 27  1  0
 27 28  2  0
 29 32  1  0
 29 28  1  0
 30 29  2  0
 31 30  1  0
 31 26  2  0
 32 33  1  0
 33 38  2  0
 33 34  1  0
 34 35  2  0
 35 36  1  0
 36 40  1  0
 37 36  2  0
 38 37  1  0
 39 38  1  0
 41 42  1  0
 42 45  1  0
 42 44  1  0
 43 41  2  0
 46 21  1  0
 46 47  1  0
 48 46  1  0
 50 51  1  0
 50 49  1  0
 52 63  2  0
 53 51  1  0
 53 58  1  0
 54 62  1  0
 54 64  1  0
 55 61  1  0
 55 57  1  0
 56 62  1  0
 57 56  1  0
 58 57  2  0
 59 60  1  0
 59 53  2  0
 60 55  2  0
 61 54  1  0
 62 52  1  0
 64 66  2  0
 65 64  1  0
 67 65  1  0
 68 77  2  0
 68 73  1  0
 69 65  1  0
 69 73  1  0
 70 69  1  0
 71 72  1  0
 71 70  1  0
 72 68  1  0
 73 74  2  0
 74 75  1  0
 76 75  2  0
 77 76  1  0
 78 52  1  0
 78 79  1  0
 78 88  1  0
 79 82  1  0
 80 84  1  0
 80 79  1  0
 81 80  2  0
 84 83  1  0
 86 84  1  0
 86 87  1  0
 86 85  1  0
 88 91  1  1
 88 89  1  0
 90 88  1  0
M  ISO  4  11 100  19 100  50 101  51 101
M  END
>  <TORSDO>  (36) 
F 21

>  <SCORE>  (36) 
-12.651

>  <name>  (36) 
35

>  <ligand_id>  (36) 
35

>  <original_smiles>  (36) 
[H]c1c([H])c([H])c2c(c1[H])C([H])([H])C([H])([H])C([H])([H])C2([H])N([H])C(=O)C1([H])N(C(=O)C([H])(N([H])C(=O)C([H])(N([H])C([H])([H])[H])C([H])([H])[H])C(C([H])([H])[H])(C([H])([H])[H])C([H])([H])[H])C([H])([H])c2c([H])c(OC([H])([H])C([H])([H])[N+]3([H])C([H])([H])C([H])([H])C([H])(C([H])([H])C([H])([H])C([H])([H])N([H])C(=O)N4C([H])([H])C([H])([H])C([H])([H])C([H])(n5nc(-c6c([H])c([H])c(Oc7c([H])c([H])c(F)c([H])c7F)c([H])c6[H])c(C(=O)N([H])[H])c5N([H])[H])C4([H])[H])C([H])([H])C3([H])[H])c([H])c([H])c2C1([H])[H]

>  <smiles>  (36) 
[H]c1c([H])c([H])c2c(c1[H])C([H])([H])C([H])([H])C([H])([H])C2([H])N([H])C(=O)C1([H])N(C(=O)C([H])(N([H])C(=O)C([H])(N([H])C([H])([H])[H])C([H])([H])[H])C(C([H])([H])[H])(C([H])([H])[H])C([H])([H])[H])C([H])([H])c2c([H])c(OC([H])([H])C([H])([H])[N+]3([H])C([H])([H])C([H])([H])C([H])(C([H])([H])C([H])([H])C([H])([H])N([H])C(=O)N4C([H])([H])C([H])([H])C([H])([H])C([H])(n5nc(-c6c([H])c([H])c(Oc7c([H])c([H])c(F)c([H])c7F)c([H])c6[H])c(C(=O)N([H])[H])c5N([H])[H])C4([H])[H])C([H])([H])C3([H])[H])c([H])c([H])c2C1([H])[H]

$$$$
36:0:0
     RDKit          3D

 93101  0  0  1  0  0  0  0  0999 V2000
  -27.8570  -21.9810   21.1750 C   0  0  0  0  0  3  0  0  0  0  0  0
  -29.4710  -22.5090   19.4370 C   0  0  0  0  0  3  0  0  0  0  0  0
  -27.7820  -23.3470   21.5180 C   0  0  0  0  0  3  0  0  0  0  0  0
  -29.3890  -23.8800   19.7750 C   0  0  0  0  0  3  0  0  0  0  0  0
  -28.7030  -21.5460   20.1310 C   0  0  0  0  0  0  0  0  0  0  0  0
  -28.5430  -24.3130   20.8210 C   0  0  0  0  0  0  0  0  0  0  0  0
  -29.7320  -26.1440   22.0940 C   0  0  0  0  0  1  0  0  0  0  0  0
  -28.4970  -25.7800   21.2630 C   0  0  0  0  0  3  0  0  0  0  0  0
  -28.4190  -26.7210   20.1810 O   0  0  0  0  0  0  0  0  0  0  0  0
  -24.5800  -31.8980   23.2420 C   0  0  0  0  0  0  0  0  0  0  0  0
  -27.2690  -27.4760   20.1820 C   0  0  0  0  0  0  0  0  0  0  0  0
  -23.3930  -30.4900   21.5900 C   0  0  0  0  0  3  0  0  0  0  0  0
  -24.8680  -28.9590   20.1750 C   0  0  0  0  0  0  0  0  0  0  0  0
  -25.9180  -30.8640   21.4120 C   0  0  0  0  0  2  0  0  0  0  0  0
  -26.0170  -29.4930   20.7730 C   0  0  0  0  0  0  0  0  0  0  0  0
  -27.2250  -28.7580   20.7730 C   0  0  0  0  0  3  0  0  0  0  0  0
  -26.1070  -26.9500   19.5820 C   0  0  0  0  0  3  0  0  0  0  0  0
  -24.9070  -27.6870   19.5780 C   0  0  0  0  0  3  0  0  0  0  0  0
  -23.6170  -29.8110   20.2120 C   0  0  0  0  0  2  0  0  0  0  0  0
  -24.6480  -31.0980   22.1400 N   0  0  0  0  0  0  0  0  0  0  0  0
  -23.4940  -32.1640   23.7750 O   0  0  0  0  0  0  0  0  0  0  0  0
  -22.7400  -29.4660   22.5460 C   0  0  0  0  0  0  0  0  0  0  0  0
  -21.4170  -29.2780   22.4060 N   0  0  0  0  0  0  0  0  0  0  0  0
  -23.4190  -28.8430   23.3660 O   0  0  0  0  0  0  0  0  0  0  0  0
  -20.9310  -29.8330   21.7160 H   0  0  0  0  0  0  0  0  0  0  0  0
  -18.0410  -28.0820   22.8810 C   0  0  0  0  0  0  0  0  0  0  0  0
  -20.5970  -28.3370   23.1680 C   0  0  0  0  0  3  0  0  0  0  0  0
  -20.7010  -26.9090   22.5840 C   0  0  0  0  0  2  0  0  0  0  0  0
  -19.6040  -26.5920   21.5640 C   0  0  0  0  0  2  0  0  0  0  0  0
  -18.2200  -26.7350   22.2030 C   0  0  0  0  0  2  0  0  0  0  0  0
  -19.1580  -28.8410   23.3200 C   0  0  0  0  0  0  0  0  0  0  0  0
  -18.9370  -30.1040   23.9140 C   0  0  0  0  0  3  0  0  0  0  0  0
  -17.6320  -30.6060   24.0740 C   0  0  0  0  0  3  0  0  0  0  0  0
  -16.5290  -29.8430   23.6530 C   0  0  0  0  0  3  0  0  0  0  0  0
  -16.7350  -28.5830   23.0620 C   0  0  0  0  0  3  0  0  0  0  0  0
  -25.8590  -32.5340   23.8730 C   0  0  0  0  0  3  0  0  0  0  0  0
  -25.5460  -33.9340   24.1890 N   0  0  0  0  0  0  0  0  0  0  0  0
  -25.8930  -34.9800   23.4270 C   0  0  0  0  0  0  0  0  0  0  0  0
  -26.5810  -34.8680   22.4100 O   0  0  0  0  0  0  0  0  0  0  0  0
  -24.9380  -34.0940   24.9780 H   0  0  0  0  0  0  0  0  0  0  0  0
  -24.1790  -36.7750   23.0210 C   0  0  0  0  0  1  0  0  0  0  0  0
  -25.3980  -36.3720   23.8660 C   0  0  0  0  0  3  0  0  0  0  0  0
  -27.5140  -37.2550   24.7460 C   0  0  0  0  0  1  0  0  0  0  0  0
  -26.4360  -37.4210   23.7740 N   0  0  0  0  0  0  0  0  0  0  0  0
  -26.0290  -38.3430   23.9060 H   0  0  0  0  0  0  0  0  0  0  0  0
  -26.3640  -31.7710   25.1580 C   0  0  1  0  0  0  0  0  0  0  0  0
  -25.2620  -31.5370   26.2180 C   0  0  0  0  0  1  0  0  0  0  0  0
  -26.9530  -30.3920   24.7780 C   0  0  0  0  0  1  0  0  0  0  0  0
  -27.5070  -32.5700   25.8270 C   0  0  0  0  0  1  0  0  0  0  0  0
  -28.7270  -20.0670   19.7270 C   0  0  0  0  0  2  0  0  0  0  0  0
  -29.5860  -19.2210   20.5920 N   0  0  0  0  0  4  0  0  0  0  0  0
  -29.3710  -19.4430   21.5490 H   0  0  0  0  0  0  0  0  0  0  0  0
  -30.5450  -19.4710   20.4260 H   0  0  0  0  0  0  0  0  0  0  0  0
  -29.3990  -17.7580   20.3830 C   0  0  0  0  0  2  0  0  0  0  0  0
  -30.3020  -16.8670   21.2780 C   0  0  0  0  0  2  0  0  0  0  0  0
  -30.6680  -14.4860   20.5030 C   0  0  0  0  0  0  0  0  0  0  0  0
  -30.3760  -12.3550   19.2900 C   0  0  0  0  0  2  0  0  0  0  0  0
  -29.4270  -12.5850   18.0950 C   0  0  0  0  0  2  0  0  0  0  0  0
  -27.9530  -12.4480   18.5230 C   0  0  0  0  0  2  0  0  0  0  0  0
  -27.6240  -13.2590   19.8070 C   0  0  0  0  0  3  0  0  0  0  0  0
  -28.6790  -12.9910   20.9050 C   0  0  0  0  0  2  0  0  0  0  0  0
  -30.0050  -13.3090   20.3450 N   0  0  0  0  0  0  0  0  0  0  0  0
  -31.7680  -14.7190   19.9920 O   0  0  0  0  0  0  0  0  0  0  0  0
  -29.9740  -15.4390   21.1470 N   0  0  0  0  0  0  0  0  0  0  0  0
  -29.0900  -15.1400   21.5320 H   0  0  0  0  0  0  0  0  0  0  0  0
  -25.2230  -13.8700   20.5020 C   0  0  0  0  0  0  0  0  0  0  0  0
  -24.1530  -13.0990   20.8700 C   0  0  0  0  0  0  0  0  0  0  0  0
  -24.6140  -11.7470   20.8440 C   0  0  0  0  0  0  0  0  0  0  0  0
  -26.2690  -12.9880   20.2800 N   0  0  0  0  0  0  0  0  0  0  0  0
  -25.9050  -11.7060   20.5410 N   0  0  0  0  0  0  0  0  0  0  0  0
  -23.8860  -10.4860   21.0360 C   0  0  0  0  0  0  0  0  0  0  0  0
  -24.3180   -9.5210   21.9720 C   0  0  0  0  0  3  0  0  0  0  0  0
  -23.5940   -8.3220   22.1500 C   0  0  0  0  0  3  0  0  0  0  0  0
  -22.4240   -8.0810   21.3920 C   0  0  0  0  0  0  0  0  0  0  0  0
  -22.0120   -9.0340   20.4450 C   0  0  0  0  0  3  0  0  0  0  0  0
  -22.7360  -10.2250   20.2640 C   0  0  0  0  0  3  0  0  0  0  0  0
  -21.6720   -6.9350   21.4800 O   0  0  0  0  0  0  0  0  0  0  0  0
  -21.6220   -6.1940   22.6330 C   0  0  0  0  0  0  0  0  0  0  0  0
  -21.1830   -6.7460   23.8560 C   0  0  0  0  0  3  0  0  0  0  0  0
  -21.0810   -5.9310   25.0000 C   0  0  0  0  0  3  0  0  0  0  0  0
  -21.4060   -4.5640   24.9230 C   0  0  0  0  0  0  0  0  0  0  0  0
  -21.8360   -4.0100   23.7050 C   0  0  0  0  0  3  0  0  0  0  0  0
  -21.9400   -4.8230   22.5630 C   0  0  0  0  0  0  0  0  0  0  0  0
  -22.3350   -4.2780   21.3860 F   0  0  0  0  0  0  0  0  0  0  0  0
  -21.2990   -3.7770   26.0210 F   0  0  0  0  0  0  0  0  0  0  0  0
  -22.7540  -13.5770   21.1370 C   0  0  0  0  0  0  0  0  0  0  0  0
  -22.0230  -12.8810   22.0010 N   0  0  0  0  0  0  0  0  0  0  0  0
  -22.3180  -14.6030   20.6160 O   0  0  0  0  0  0  0  0  0  0  0  0
  -22.3880  -12.0510   22.4440 H   0  0  0  0  0  0  0  0  0  0  0  0
  -21.0860  -13.1850   22.2230 H   0  0  0  0  0  0  0  0  0  0  0  0
  -25.3910  -15.2400   20.3190 N   0  0  0  0  0  0  0  0  0  0  0  0
  -24.6210  -15.8950   20.4060 H   0  0  0  0  0  0  0  0  0  0  0  0
  -26.2320  -15.6650   19.9510 H   0  0  0  0  0  0  0  0  0  0  0  0
  1  3  1  0
  2  4  2  0
  2  5  1  0
  4  6  1  0
  5  1  2  0
  6  8  1  0
  6  3  2  0
  8  7  1  0
  9 11  1  0
  9  8  1  0
 10 21  2  0
 11 16  1  0
 12 20  1  0
 12 22  1  0
 13 19  1  0
 13 15  1  0
 14 20  1  0
 15 16  2  0
 15 14  1  0
 17 11  2  0
 18 17  1  0
 18 13  2  0
 19 12  1  0
 20 10  1  0
 22 24  2  0
 23 22  1  0
 25 23  1  0
 26 35  2  0
 26 31  1  0
 27 23  1  0
 27 31  1  0
 28 27  1  0
 29 30  1  0
 29 28  1  0
 30 26  1  0
 31 32  2  0
 32 33  1  0
 34 33  2  0
 35 34  1  0
 36 10  1  0
 36 37  1  0
 36 46  1  0
 37 40  1  0
 38 42  1  0
 38 37  1  0
 39 38  2  0
 42 41  1  0
 44 42  1  0
 44 45  1  0
 44 43  1  0
 46 49  1  1
 46 47  1  0
 48 46  1  0
 50  5  1  0
 50 51  1  0
 51 52  1  0
 53 51  1  0
 54 51  1  0
 54 55  1  0
 56 64  1  0
 57 62  1  0
 58 59  1  0
 58 57  1  0
 60 59  1  0
 60 69  1  0
 60 61  1  0
 62 56  1  0
 62 61  1  0
 63 56  2  0
 64 55  1  0
 64 65  1  0
 66 67  2  0
 67 86  1  0
 68 67  1  0
 68 71  1  0
 69 66  1  0
 69 70  1  0
 70 68  2  0
 71 72  1  0
 72 73  2  0
 74 77  1  0
 74 73  1  0
 75 74  2  0
 76 75  1  0
 76 71  2  0
 77 78  1  0
 78 79  1  0
 79 80  2  0
 81 80  1  0
 81 85  1  0
 82 81  2  0
 83 78  2  0
 83 82  1  0
 84 83  1  0
 86 87  1  0
 87 90  1  0
 87 89  1  0
 88 86  2  0
 91 92  1  0
 91 66  1  0
 93 91  1  0
M  ISO  4   8 101   9 101  56 100  64 100
M  END
>  <TORSDO>  (37) 
F 21

>  <SCORE>  (37) 
-13.758

>  <name>  (37) 
36

>  <ligand_id>  (37) 
36

>  <original_smiles>  (37) 
[H]c1c([H])c([H])c2c(c1[H])C([H])([H])C([H])([H])C([H])([H])C2([H])N([H])C(=O)C1([H])N(C(=O)C([H])(N([H])C(=O)C([H])(N([H])C([H])([H])[H])C([H])([H])[H])C(C([H])([H])[H])(C([H])([H])[H])C([H])([H])[H])C([H])([H])c2c([H])c(OC([H])(c3c([H])c([H])c(C([H])([H])[N+]([H])([H])C([H])([H])C([H])([H])N([H])C(=O)N4C([H])([H])C([H])([H])C([H])([H])C([H])(n5nc(-c6c([H])c([H])c(Oc7c([H])c([H])c(F)c([H])c7F)c([H])c6[H])c(C(=O)N([H])[H])c5N([H])[H])C4([H])[H])c([H])c3[H])C([H])([H])[H])c([H])c([H])c2C1([H])[H]

>  <smiles>  (37) 
[H]c1c([H])c([H])c2c(c1[H])C([H])([H])C([H])([H])C([H])([H])C2([H])N([H])C(=O)C1([H])N(C(=O)C([H])(N([H])C(=O)C([H])(N([H])C([H])([H])[H])C([H])([H])[H])C(C([H])([H])[H])(C([H])([H])[H])C([H])([H])[H])C([H])([H])c2c([H])c(OC([H])(c3c([H])c([H])c(C([H])([H])[N+]([H])([H])C([H])([H])C([H])([H])N([H])C(=O)N4C([H])([H])C([H])([H])C([H])([H])C([H])(n5nc(-c6c([H])c([H])c(Oc7c([H])c([H])c(F)c([H])c7F)c([H])c6[H])c(C(=O)N([H])[H])c5N([H])[H])C4([H])[H])c([H])c3[H])C([H])([H])[H])c([H])c([H])c2C1([H])[H]

$$$$
37:0:0
     RDKit          3D

102111  0  0  1  0  0  0  0  0999 V2000
  -32.0550  -22.8480   24.8720 C   0  0  0  0  0  2  0  0  0  0  0  0
  -32.4010  -22.7210   22.3720 C   0  0  0  0  0  2  0  0  0  0  0  0
  -30.7090  -23.5510   24.6570 C   0  0  0  0  0  2  0  0  0  0  0  0
  -31.0540  -23.4370   22.1540 C   0  0  0  0  0  2  0  0  0  0  0  0
  -32.4140  -21.9240   23.6950 C   0  0  0  0  0  3  0  0  0  0  0  0
  -30.6890  -24.3570   23.3420 C   0  0  0  0  0  3  0  0  0  0  0  0
  -29.3720  -25.0130   23.1650 N   0  0  0  0  0  4  0  0  0  0  0  0
  -29.1550  -25.4560   24.0450 H   0  0  0  0  0  0  0  0  0  0  0  0
  -28.6510  -24.3260   23.0050 H   0  0  0  0  0  0  0  0  0  0  0  0
  -29.3020  -26.0830   22.1410 C   0  0  0  0  0  2  0  0  0  0  0  0
  -28.5210  -25.6580   20.8860 C   0  0  0  0  0  2  0  0  0  0  0  0
  -28.4210  -26.7790   20.0130 O   0  0  0  0  0  0  0  0  0  0  0  0
  -24.6090  -31.8730   23.2120 C   0  0  0  0  0  0  0  0  0  0  0  0
  -27.2430  -27.4760   20.0880 C   0  0  0  0  0  0  0  0  0  0  0  0
  -23.3960  -30.4940   21.5530 C   0  0  0  0  0  3  0  0  0  0  0  0
  -24.8450  -28.9590   20.1220 C   0  0  0  0  0  0  0  0  0  0  0  0
  -25.9240  -30.8430   21.3700 C   0  0  0  0  0  2  0  0  0  0  0  0
  -26.0030  -29.4820   20.7150 C   0  0  0  0  0  0  0  0  0  0  0  0
  -27.2050  -28.7460   20.6970 C   0  0  0  0  0  3  0  0  0  0  0  0
  -26.0730  -26.9530   19.4980 C   0  0  0  0  0  3  0  0  0  0  0  0
  -24.8730  -27.6900   19.5160 C   0  0  0  0  0  3  0  0  0  0  0  0
  -23.6040  -29.8230   20.1690 C   0  0  0  0  0  2  0  0  0  0  0  0
  -24.6600  -31.0840   22.1020 N   0  0  0  0  0  0  0  0  0  0  0  0
  -23.5280  -32.1470   23.7520 O   0  0  0  0  0  0  0  0  0  0  0  0
  -22.7380  -29.4660   22.5000 C   0  0  0  0  0  0  0  0  0  0  0  0
  -21.4110  -29.3020   22.3740 N   0  0  0  0  0  0  0  0  0  0  0  0
  -23.4170  -28.8210   23.3030 O   0  0  0  0  0  0  0  0  0  0  0  0
  -20.9230  -29.8780   21.7030 H   0  0  0  0  0  0  0  0  0  0  0  0
  -18.0270  -28.1350   22.8490 C   0  0  0  0  0  0  0  0  0  0  0  0
  -20.5860  -28.3630   23.1330 C   0  0  0  0  0  3  0  0  0  0  0  0
  -20.6750  -26.9370   22.5440 C   0  0  0  0  0  2  0  0  0  0  0  0
  -19.5740  -26.6360   21.5200 C   0  0  0  0  0  2  0  0  0  0  0  0
  -18.1920  -26.7910   22.1610 C   0  0  0  0  0  2  0  0  0  0  0  0
  -19.1520  -28.8810   23.2930 C   0  0  0  0  0  0  0  0  0  0  0  0
  -18.9460  -30.1400   23.8960 C   0  0  0  0  0  3  0  0  0  0  0  0
  -17.6470  -30.6580   24.0550 C   0  0  0  0  0  3  0  0  0  0  0  0
  -16.5350  -29.9090   23.6310 C   0  0  0  0  0  3  0  0  0  0  0  0
  -16.7270  -28.6490   23.0360 C   0  0  0  0  0  3  0  0  0  0  0  0
  -25.9000  -32.4860   23.8400 C   0  0  0  0  0  3  0  0  0  0  0  0
  -25.5880  -33.8650   24.2330 N   0  0  0  0  0  0  0  0  0  0  0  0
  -25.9040  -34.9490   23.5130 C   0  0  0  0  0  0  0  0  0  0  0  0
  -26.5600  -34.8920   22.4690 O   0  0  0  0  0  0  0  0  0  0  0  0
  -25.0060  -33.9840   25.0480 H   0  0  0  0  0  0  0  0  0  0  0  0
  -24.1500  -36.7300   23.2650 C   0  0  0  0  0  1  0  0  0  0  0  0
  -25.4130  -36.3120   24.0350 C   0  0  0  0  0  3  0  0  0  0  0  0
  -27.5600  -37.1830   24.8460 C   0  0  0  0  0  1  0  0  0  0  0  0
  -26.4320  -37.3800   23.9400 N   0  0  0  0  0  0  0  0  0  0  0  0
  -26.0220  -38.2890   24.1370 H   0  0  0  0  0  0  0  0  0  0  0  0
  -26.4430  -31.6650   25.0730 C   0  0  1  0  0  0  0  0  0  0  0  0
  -25.3690  -31.3850   26.1500 C   0  0  0  0  0  1  0  0  0  0  0  0
  -27.0220  -30.3050   24.6120 C   0  0  0  0  0  1  0  0  0  0  0  0
  -27.6000  -32.4380   25.7490 C   0  0  0  0  0  1  0  0  0  0  0  0
  -33.7400  -21.4010   23.9960 N   0  0  0  0  0  0  0  0  0  0  0  0
  -33.7860  -21.1190   24.9720 H   0  0  0  0  0  0  0  0  0  0  0  0
  -35.7820  -20.2790   23.5120 C   0  0  0  0  0  1  0  0  0  0  0  0
  -34.2910  -20.3410   23.1500 C   0  0  0  0  0  3  0  0  0  0  0  0
  -33.6110  -18.9660   23.3840 C   0  0  0  0  0  2  0  0  0  0  0  0
  -32.4570  -18.7610   22.4820 N   0  0  0  0  0  4  0  0  0  0  0  0
  -31.8760  -19.5800   22.5460 H   0  0  0  0  0  0  0  0  0  0  0  0
  -32.8060  -18.7120   21.5380 H   0  0  0  0  0  0  0  0  0  0  0  0
  -30.7950  -14.3340   20.7090 C   0  0  0  0  0  0  0  0  0  0  0  0
  -30.4110  -12.2880   19.3870 C   0  0  0  0  0  2  0  0  0  0  0  0
  -29.4790  -12.5340   18.1890 C   0  0  0  0  0  2  0  0  0  0  0  0
  -28.0060  -12.3850   18.6090 C   0  0  0  0  0  2  0  0  0  0  0  0
  -27.6660  -13.2060   19.8800 C   0  0  0  0  0  3  0  0  0  0  0  0
  -28.7040  -12.9520   20.9960 C   0  0  0  0  0  2  0  0  0  0  0  0
  -30.0500  -13.2260   20.4610 N   0  0  0  0  0  0  0  0  0  0  0  0
  -31.7850  -14.6490   20.0390 O   0  0  0  0  0  0  0  0  0  0  0  0
  -32.4230  -16.2510   22.8120 C   0  0  0  0  0  2  0  0  0  0  0  0
  -30.4840  -17.4480   21.7000 C   0  0  0  0  0  2  0  0  0  0  0  0
  -31.5060  -15.0180   22.9450 C   0  0  0  0  0  2  0  0  0  0  0  0
  -29.6490  -16.1580   21.8700 C   0  0  0  0  0  2  0  0  0  0  0  0
  -31.6110  -17.5690   22.7550 C   0  0  0  0  0  3  0  0  0  0  0  0
  -30.5140  -14.9720   21.8660 N   0  0  0  0  0  0  0  0  0  0  0  0
  -25.2600  -13.8170   20.5680 C   0  0  0  0  0  0  0  0  0  0  0  0
  -24.1840  -13.0440   20.9170 C   0  0  0  0  0  0  0  0  0  0  0  0
  -24.6400  -11.6910   20.8730 C   0  0  0  0  0  0  0  0  0  0  0  0
  -26.3040  -12.9340   20.3390 N   0  0  0  0  0  0  0  0  0  0  0  0
  -25.9320  -11.6490   20.5760 N   0  0  0  0  0  0  0  0  0  0  0  0
  -23.9060  -10.4290   21.0400 C   0  0  0  0  0  0  0  0  0  0  0  0
  -24.3610   -9.4210   21.9180 C   0  0  0  0  0  3  0  0  0  0  0  0
  -23.6290   -8.2250   22.0750 C   0  0  0  0  0  3  0  0  0  0  0  0
  -22.4270   -8.0280   21.3540 C   0  0  0  0  0  0  0  0  0  0  0  0
  -21.9910   -9.0250   20.4650 C   0  0  0  0  0  3  0  0  0  0  0  0
  -22.7240  -10.2140   20.3050 C   0  0  0  0  0  3  0  0  0  0  0  0
  -21.6630   -6.8880   21.4240 O   0  0  0  0  0  0  0  0  0  0  0  0
  -21.6850   -6.0740   22.5280 C   0  0  0  0  0  0  0  0  0  0  0  0
  -21.4010   -6.5640   23.8210 C   0  0  0  0  0  3  0  0  0  0  0  0
  -21.3660   -5.6790   24.9170 C   0  0  0  0  0  3  0  0  0  0  0  0
  -21.6040   -4.3050   24.7220 C   0  0  0  0  0  0  0  0  0  0  0  0
  -21.8820   -3.8150   23.4340 C   0  0  0  0  0  3  0  0  0  0  0  0
  -21.9190   -4.6970   22.3400 C   0  0  0  0  0  0  0  0  0  0  0  0
  -22.1660   -4.2150   21.0980 F   0  0  0  0  0  0  0  0  0  0  0  0
  -21.5630   -3.4540   25.7740 F   0  0  0  0  0  0  0  0  0  0  0  0
  -22.7860  -13.5240   21.1830 C   0  0  0  0  0  0  0  0  0  0  0  0
  -22.0500  -12.8230   22.0390 N   0  0  0  0  0  0  0  0  0  0  0  0
  -22.3550  -14.5550   20.6690 O   0  0  0  0  0  0  0  0  0  0  0  0
  -22.4100  -11.9880   22.4770 H   0  0  0  0  0  0  0  0  0  0  0  0
  -21.1120  -13.1250   22.2590 H   0  0  0  0  0  0  0  0  0  0  0  0
  -25.4320  -15.1880   20.4090 N   0  0  0  0  0  0  0  0  0  0  0  0
  -24.6680  -15.8470   20.5160 H   0  0  0  0  0  0  0  0  0  0  0  0
  -26.2910  -15.6270   20.1000 H   0  0  0  0  0  0  0  0  0  0  0  0
  2  5  1  0
  3  1  1  0
  4  2  1  0
  4  6  1  0
  5 53  1  0
  5  1  1  0
  6  7  1  0
  6  3  1  0
  7  8  1  0
  9  7  1  0
 10  7  1  0
 11 10  1  0
 12 14  1  0
 12 11  1  0
 13 24  2  0
 14 19  1  0
 15 23  1  0
 15 25  1  0
 16 22  1  0
 16 18  1  0
 17 23  1  0
 18 17  1  0
 19 18  2  0
 20 21  1  0
 20 14  2  0
 21 16  2  0
 22 15  1  0
 23 13  1  0
 25 27  2  0
 26 25  1  0
 28 26  1  0
 29 38  2  0
 29 34  1  0
 30 26  1  0
 30 34  1  0
 31 30  1  0
 32 33  1  0
 32 31  1  0
 33 29  1  0
 34 35  2  0
 35 36  1  0
 37 36  2  0
 38 37  1  0
 39 13  1  0
 39 40  1  0
 39 49  1  0
 40 43  1  0
 41 45  1  0
 41 40  1  0
 42 41  2  0
 45 44  1  0
 47 45  1  0
 47 48  1  0
 47 46  1  0
 49 52  1  1
 49 50  1  0
 51 49  1  0
 53 54  1  0
 56 57  1  0
 56 55  1  0
 56 53  1  0
 58 59  1  0
 58 57  1  0
 60 58  1  0
 61 74  1  0
 62 67  1  0
 63 64  1  0
 63 62  1  0
 65 64  1  0
 65 78  1  0
 65 66  1  0
 67 61  1  0
 67 66  1  0
 68 61  2  0
 69 71  1  0
 70 72  1  0
 70 73  1  0
 73 58  1  0
 73 69  1  0
 74 72  1  0
 74 71  1  0
 75 76  2  0
 76 95  1  0
 77 76  1  0
 77 80  1  0
 78 75  1  0
 78 79  1  0
 79 77  2  0
 80 81  1  0
 81 82  2  0
 83 86  1  0
 83 82  1  0
 84 83  2  0
 85 84  1  0
 85 80  2  0
 86 87  1  0
 87 88  1  0
 88 89  2  0
 90 89  1  0
 90 94  1  0
 91 90  2  0
 92 87  2  0
 92 91  1  0
 93 92  1  0
 95 96  1  0
 96 99  1  0
 96 98  1  0
 97 95  2  0
100101  1  0
100 75  1  0
102100  1  0
M  ISO  4  11 101  12 101  61 100  74 100
M  END
>  <TORSDO>  (38) 
F 23

>  <SCORE>  (38) 
5.528

>  <name>  (38) 
37

>  <ligand_id>  (38) 
37

>  <original_smiles>  (38) 
[H]c1c([H])c([H])c2c(c1[H])C([H])([H])C([H])([H])C([H])([H])C2([H])N([H])C(=O)C1([H])N(C(=O)C([H])(N([H])C(=O)C([H])(N([H])C([H])([H])[H])C([H])([H])[H])C(C([H])([H])[H])(C([H])([H])[H])C([H])([H])[H])C([H])([H])c2c([H])c(OC([H])([H])C([H])([H])[N+]([H])([H])C3([H])C([H])([H])C([H])([H])C([H])(N([H])C([H])(C([H])([H])[H])C([H])([H])[N+]([H])([H])C4([H])C([H])([H])C([H])([H])N(C(=O)N5C([H])([H])C([H])([H])C([H])([H])C([H])(n6nc(-c7c([H])c([H])c(Oc8c([H])c([H])c(F)c([H])c8F)c([H])c7[H])c(C(=O)N([H])[H])c6N([H])[H])C5([H])[H])C([H])([H])C4([H])[H])C([H])([H])C3([H])[H])c([H])c([H])c2C1([H])[H]

>  <smiles>  (38) 
[H]c1c([H])c([H])c2c(c1[H])C([H])([H])C([H])([H])C([H])([H])C2([H])N([H])C(=O)C1([H])N(C(=O)C([H])(N([H])C(=O)C([H])(N([H])C([H])([H])[H])C([H])([H])[H])C(C([H])([H])[H])(C([H])([H])[H])C([H])([H])[H])C([H])([H])c2c([H])c(OC([H])([H])C([H])([H])[N+]([H])([H])C3([H])C([H])([H])C([H])([H])C([H])(N([H])C([H])(C([H])([H])[H])C([H])([H])[N+]([H])([H])C4([H])C([H])([H])C([H])([H])N(C(=O)N5C([H])([H])C([H])([H])C([H])([H])C([H])(n6nc(-c7c([H])c([H])c(Oc8c([H])c([H])c(F)c([H])c8F)c([H])c7[H])c(C(=O)N([H])[H])c6N([H])[H])C5([H])[H])C([H])([H])C4([H])[H])C([H])([H])C3([H])[H])c([H])c([H])c2C1([H])[H]

$$$$
38:0:0
     RDKit          3D

 96105  0  0  1  0  0  0  0  0999 V2000
  -28.7060  -22.1710   20.2370 C   0  0  0  0  0  3  0  0  0  0  0  0
  -28.9460  -20.8340   20.6440 C   0  0  0  0  0  3  0  0  0  0  0  0
  -31.2950  -21.3580   20.9300 C   0  0  0  0  0  3  0  0  0  0  0  0
  -29.7570  -23.1200   20.1640 C   0  0  0  0  0  0  0  0  0  0  0  0
  -31.0660  -22.6810   20.4960 C   0  0  0  0  0  0  0  0  0  0  0  0
  -30.2490  -20.4190   21.0060 C   0  0  0  0  0  0  0  0  0  0  0  0
  -32.2520  -23.6190   20.3670 C   0  0  0  0  0  2  0  0  0  0  0  0
  -31.9770  -24.7270   19.3460 C   0  0  0  0  0  2  0  0  0  0  0  0
  -29.5100  -24.5660   19.6470 C   0  0  0  0  0  3  0  0  0  0  0  0
  -30.7270  -25.4160   19.7020 N   0  0  0  0  0  4  0  0  0  0  0  0
  -30.5900  -26.2030   19.0870 H   0  0  0  0  0  0  0  0  0  0  0  0
  -30.8230  -25.7840   20.6340 H   0  0  0  0  0  0  0  0  0  0  0  0
  -30.5690  -19.1290   21.4620 N   0  0  0  0  0  0  0  0  0  0  0  0
  -31.5220  -19.0040   21.7910 H   0  0  0  0  0  0  0  0  0  0  0  0
  -29.9380  -17.9190   20.9360 C   0  0  0  0  0  2  0  0  0  0  0  0
  -30.7430  -16.6760   21.3880 C   0  0  0  0  0  2  0  0  0  0  0  0
  -30.7460  -14.4530   20.2250 C   0  0  0  0  0  0  0  0  0  0  0  0
  -30.3790  -12.3150   19.0400 C   0  0  0  0  0  2  0  0  0  0  0  0
  -29.3850  -12.5200   17.8810 C   0  0  0  0  0  2  0  0  0  0  0  0
  -27.9310  -12.3850   18.3750 C   0  0  0  0  0  2  0  0  0  0  0  0
  -27.6530  -13.2210   19.6530 C   0  0  0  0  0  3  0  0  0  0  0  0
  -28.7510  -12.9840   20.7120 C   0  0  0  0  0  2  0  0  0  0  0  0
  -30.0510  -13.2910   20.0900 N   0  0  0  0  0  0  0  0  0  0  0  0
  -31.8180  -14.6630   19.6490 O   0  0  0  0  0  0  0  0  0  0  0  0
  -30.1570  -15.3950   20.9820 N   0  0  0  0  0  0  0  0  0  0  0  0
  -29.2600  -15.1560   21.3760 H   0  0  0  0  0  0  0  0  0  0  0  0
  -25.2990  -13.8440   20.4860 C   0  0  0  0  0  0  0  0  0  0  0  0
  -24.2380  -13.0770   20.8900 C   0  0  0  0  0  0  0  0  0  0  0  0
  -24.6780  -11.7200   20.8060 C   0  0  0  0  0  0  0  0  0  0  0  0
  -26.3200  -12.9540   20.1880 N   0  0  0  0  0  0  0  0  0  0  0  0
  -25.9510  -11.6690   20.4350 N   0  0  0  0  0  0  0  0  0  0  0  0
  -23.9440  -10.4640   21.0020 C   0  0  0  0  0  0  0  0  0  0  0  0
  -24.3930   -9.4830   21.9150 C   0  0  0  0  0  3  0  0  0  0  0  0
  -23.6620   -8.2900   22.0990 C   0  0  0  0  0  3  0  0  0  0  0  0
  -22.4670   -8.0710   21.3740 C   0  0  0  0  0  0  0  0  0  0  0  0
  -22.0370   -9.0400   20.4510 C   0  0  0  0  0  3  0  0  0  0  0  0
  -22.7680  -10.2240   20.2640 C   0  0  0  0  0  3  0  0  0  0  0  0
  -21.7050   -6.9310   21.4710 O   0  0  0  0  0  0  0  0  0  0  0  0
  -21.6620   -6.1890   22.6240 C   0  0  0  0  0  0  0  0  0  0  0  0
  -21.2250   -6.7400   23.8490 C   0  0  0  0  0  3  0  0  0  0  0  0
  -21.1290   -5.9240   24.9940 C   0  0  0  0  0  3  0  0  0  0  0  0
  -21.4620   -4.5570   24.9150 C   0  0  0  0  0  0  0  0  0  0  0  0
  -21.8910   -4.0060   23.6950 C   0  0  0  0  0  3  0  0  0  0  0  0
  -21.9880   -4.8200   22.5530 C   0  0  0  0  0  0  0  0  0  0  0  0
  -22.3820   -4.2790   21.3750 F   0  0  0  0  0  0  0  0  0  0  0  0
  -21.3630   -3.7720   26.0120 F   0  0  0  0  0  0  0  0  0  0  0  0
  -22.8620  -13.5660   21.2400 C   0  0  0  0  0  0  0  0  0  0  0  0
  -22.1660  -12.8570   22.1220 N   0  0  0  0  0  0  0  0  0  0  0  0
  -22.4140  -14.6090   20.7670 O   0  0  0  0  0  0  0  0  0  0  0  0
  -22.5420  -12.0120   22.5260 H   0  0  0  0  0  0  0  0  0  0  0  0
  -21.2450  -13.1640   22.3970 H   0  0  0  0  0  0  0  0  0  0  0  0
  -25.4750  -15.2160   20.3310 N   0  0  0  0  0  0  0  0  0  0  0  0
  -24.7250  -15.8800   20.4880 H   0  0  0  0  0  0  0  0  0  0  0  0
  -26.3180  -15.6470   19.9710 H   0  0  0  0  0  0  0  0  0  0  0  0
  -28.3480  -25.3360   20.3270 C   0  0  0  0  0  2  0  0  0  0  0  0
  -28.3940  -26.7270   19.9380 O   0  0  0  0  0  0  0  0  0  0  0  0
  -24.5730  -31.8280   23.1430 C   0  0  0  0  0  0  0  0  0  0  0  0
  -27.2150  -27.4400   19.9760 C   0  0  0  0  0  0  0  0  0  0  0  0
  -23.3650  -30.4510   21.4820 C   0  0  0  0  0  3  0  0  0  0  0  0
  -24.8170  -28.9440   20.0240 C   0  0  0  0  0  0  0  0  0  0  0  0
  -25.8900  -30.8210   21.2790 C   0  0  0  0  0  2  0  0  0  0  0  0
  -25.9770  -29.4610   20.6150 C   0  0  0  0  0  0  0  0  0  0  0  0
  -27.1800  -28.7180   20.5850 C   0  0  0  0  0  3  0  0  0  0  0  0
  -26.0380  -26.9440   19.3720 C   0  0  0  0  0  3  0  0  0  0  0  0
  -24.8430  -27.6860   19.3990 C   0  0  0  0  0  3  0  0  0  0  0  0
  -23.5710  -29.7980   20.0900 C   0  0  0  0  0  2  0  0  0  0  0  0
  -24.6280  -31.0470   22.0270 N   0  0  0  0  0  0  0  0  0  0  0  0
  -23.4930  -32.0850   23.6920 O   0  0  0  0  0  0  0  0  0  0  0  0
  -22.7240  -29.4090   22.4260 C   0  0  0  0  0  0  0  0  0  0  0  0
  -21.4030  -29.2110   22.2900 N   0  0  0  0  0  0  0  0  0  0  0  0
  -23.4130  -28.7810   23.2360 O   0  0  0  0  0  0  0  0  0  0  0  0
  -20.9090  -29.7690   21.6080 H   0  0  0  0  0  0  0  0  0  0  0  0
  -18.0450  -27.9510   22.7340 C   0  0  0  0  0  0  0  0  0  0  0  0
  -20.5940  -28.2520   23.0440 C   0  0  0  0  0  3  0  0  0  0  0  0
  -20.7300  -26.8270   22.4590 C   0  0  0  0  0  2  0  0  0  0  0  0
  -19.6480  -26.4930   21.4280 C   0  0  0  0  0  2  0  0  0  0  0  0
  -18.2560  -26.6090   22.0530 C   0  0  0  0  0  2  0  0  0  0  0  0
  -19.1440  -28.7300   23.1850 C   0  0  0  0  0  0  0  0  0  0  0  0
  -18.8940  -29.9860   23.7790 C   0  0  0  0  0  3  0  0  0  0  0  0
  -17.5780  -30.4640   23.9270 C   0  0  0  0  0  3  0  0  0  0  0  0
  -16.4950  -29.6810   23.4940 C   0  0  0  0  0  3  0  0  0  0  0  0
  -16.7290  -28.4260   22.9040 C   0  0  0  0  0  3  0  0  0  0  0  0
  -25.8590  -32.4530   23.7680 C   0  0  0  0  0  3  0  0  0  0  0  0
  -26.3870  -31.6590   25.0260 C   0  0  1  0  0  0  0  0  0  0  0  0
  -25.3010  -31.3950   26.0960 C   0  0  0  0  0  1  0  0  0  0  0  0
  -26.9740  -30.2930   24.6030 C   0  0  0  0  0  1  0  0  0  0  0  0
  -27.5380  -32.4470   25.6970 C   0  0  0  0  0  1  0  0  0  0  0  0
  -25.5490  -33.8430   24.1230 N   0  0  0  0  0  0  0  0  0  0  0  0
  -25.8770  -34.9090   23.3800 C   0  0  0  0  0  0  0  0  0  0  0  0
  -26.5460  -34.8240   22.3460 O   0  0  0  0  0  0  0  0  0  0  0  0
  -24.9550  -33.9830   24.9270 H   0  0  0  0  0  0  0  0  0  0  0  0
  -24.1500  -36.7060   23.0480 C   0  0  0  0  0  1  0  0  0  0  0  0
  -25.3860  -36.2880   23.8610 C   0  0  0  0  0  3  0  0  0  0  0  0
  -27.5090  -37.1620   24.7280 C   0  0  0  0  0  1  0  0  0  0  0  0
  -26.4190  -37.3430   23.7750 N   0  0  0  0  0  0  0  0  0  0  0  0
  -26.0100  -38.2600   23.9310 H   0  0  0  0  0  0  0  0  0  0  0  0
  1  2  1  0
  2  6  2  0
  3  6  1  0
  4  1  2  0
  4  5  1  0
  5  3  2  0
  6 13  1  0
  7  5  1  0
  8 10  1  0
  8  7  1  0
  9 10  1  0
  9  4  1  0
  9 55  1  0
 10 12  1  0
 11 10  1  0
 13 14  1  0
 15 16  1  0
 15 13  1  0
 17 25  1  0
 18 23  1  0
 19 20  1  0
 19 18  1  0
 21 20  1  0
 21 30  1  0
 21 22  1  0
 23 17  1  0
 23 22  1  0
 24 17  2  0
 25 26  1  0
 25 16  1  0
 27 28  2  0
 28 47  1  0
 29 28  1  0
 29 32  1  0
 30 31  1  0
 30 27  1  0
 31 29  2  0
 32 33  1  0
 33 34  2  0
 35 38  1  0
 35 34  1  0
 36 35  2  0
 37 36  1  0
 37 32  2  0
 38 39  1  0
 39 40  1  0
 40 41  2  0
 42 41  1  0
 42 46  1  0
 43 42  2  0
 44 39  2  0
 44 43  1  0
 45 44  1  0
 47 48  1  0
 48 51  1  0
 48 50  1  0
 49 47  2  0
 52 27  1  0
 52 53  1  0
 54 52  1  0
 56 58  1  0
 56 55  1  0
 57 68  2  0
 58 63  1  0
 59 67  1  0
 59 69  1  0
 60 66  1  0
 60 62  1  0
 61 67  1  0
 62 61  1  0
 63 62  2  0
 64 65  1  0
 64 58  2  0
 65 60  2  0
 66 59  1  0
 67 57  1  0
 69 71  2  0
 70 69  1  0
 72 70  1  0
 73 82  2  0
 73 78  1  0
 74 70  1  0
 74 78  1  0
 75 74  1  0
 76 77  1  0
 76 75  1  0
 77 73  1  0
 78 79  2  0
 79 80  1  0
 81 80  2  0
 82 81  1  0
 83 57  1  0
 83 88  1  0
 83 84  1  0
 84 87  1  1
 84 85  1  0
 86 84  1  0
 88 91  1  0
 89 93  1  0
 89 88  1  0
 90 89  2  0
 93 92  1  0
 95 93  1  0
 95 96  1  0
 95 94  1  0
M  ISO  4  17 100  25 100  55 101  56 101
M  END
>  <TORSDO>  (39) 
F 20

>  <SCORE>  (39) 
-13.891

>  <name>  (39) 
38

>  <ligand_id>  (39) 
38

>  <original_smiles>  (39) 
[H]c1c([H])c([H])c2c(c1[H])C([H])([H])C([H])([H])C([H])([H])C2([H])N([H])C(=O)C1([H])N(C(=O)C([H])(N([H])C(=O)C([H])(N([H])C([H])([H])[H])C([H])([H])[H])C(C([H])([H])[H])(C([H])([H])[H])C([H])([H])[H])C([H])([H])c2c([H])c(OC([H])([H])C3([H])c4c([H])c([H])c(N([H])C([H])([H])C([H])([H])N([H])C(=O)N5C([H])([H])C([H])([H])C([H])([H])C([H])(n6nc(-c7c([H])c([H])c(Oc8c([H])c([H])c(F)c([H])c8F)c([H])c7[H])c(C(=O)N([H])[H])c6N([H])[H])C5([H])[H])c([H])c4C([H])([H])C([H])([H])[N+]3([H])[H])c([H])c([H])c2C1([H])[H]

>  <smiles>  (39) 
[H]c1c([H])c([H])c2c(c1[H])C([H])([H])C([H])([H])C([H])([H])C2([H])N([H])C(=O)C1([H])N(C(=O)C([H])(N([H])C(=O)C([H])(N([H])C([H])([H])[H])C([H])([H])[H])C(C([H])([H])[H])(C([H])([H])[H])C([H])([H])[H])C([H])([H])c2c([H])c(OC([H])([H])C3([H])c4c([H])c([H])c(N([H])C([H])([H])C([H])([H])N([H])C(=O)N5C([H])([H])C([H])([H])C([H])([H])C([H])(n6nc(-c7c([H])c([H])c(Oc8c([H])c([H])c(F)c([H])c8F)c([H])c7[H])c(C(=O)N([H])[H])c6N([H])[H])C5([H])[H])c([H])c4C([H])([H])C([H])([H])[N+]3([H])[H])c([H])c([H])c2C1([H])[H]

$$$$
39:0:0
     RDKit          3D

 91100  0  0  1  0  0  0  0  0999 V2000
  -29.5830  -22.8860   19.9050 C   0  0  0  0  0  3  0  0  0  0  0  0
  -28.0270  -21.0530   21.1700 C   0  0  0  0  0  3  0  0  0  0  0  0
  -29.9160  -21.4640   19.8150 C   0  0  0  0  0  0  0  0  0  0  0  0
  -29.0980  -20.4510   20.4440 C   0  0  0  0  0  0  0  0  0  0  0  0
  -28.4400  -23.3760   20.6110 C   0  0  0  0  0  0  0  0  0  0  0  0
  -27.7240  -22.3950   21.2450 N   0  0  0  0  0  0  0  0  0  0  0  0
  -32.4640  -21.7390   19.2910 C   0  0  0  0  0  2  0  0  0  0  0  0
  -31.7800  -21.8590   17.9490 C   0  0  0  0  0  2  0  0  0  0  0  0
  -31.1460  -21.0400   19.0510 C   0  0  0  0  0  3  0  0  0  0  0  0
  -29.1070  -18.8190   20.2120 C   0  0  0  0  0  3  0  0  0  0  0  0
  -30.2350  -17.6650   20.5980 C   0  0  0  0  0  3  0  0  0  0  0  0
  -30.6750  -14.9800   20.3380 C   0  0  0  0  0  0  0  0  0  0  0  0
  -30.5460  -12.6520   19.3740 C   0  0  0  0  0  2  0  0  0  0  0  0
  -29.6050  -12.6170   18.1480 C   0  0  0  0  0  2  0  0  0  0  0  0
  -28.1450  -12.4000   18.5890 C   0  0  0  0  0  2  0  0  0  0  0  0
  -27.7390  -13.3310   19.7610 C   0  0  0  0  0  3  0  0  0  0  0  0
  -28.7950  -13.3330   20.8880 C   0  0  0  0  0  2  0  0  0  0  0  0
  -30.0720  -13.7310   20.2810 N   0  0  0  0  0  0  0  0  0  0  0  0
  -31.8680  -15.0690   20.0360 O   0  0  0  0  0  0  0  0  0  0  0  0
  -29.8920  -16.1360   20.5380 N   0  0  0  0  0  0  0  0  0  0  0  0
  -28.9200  -15.9270   20.7110 H   0  0  0  0  0  0  0  0  0  0  0  0
  -25.3560  -13.9050   20.5070 C   0  0  0  0  0  0  0  0  0  0  0  0
  -24.2960  -13.1270   20.8840 C   0  0  0  0  0  0  0  0  0  0  0  0
  -24.7650  -11.7770   20.8500 C   0  0  0  0  0  0  0  0  0  0  0  0
  -26.4030  -13.0310   20.2640 N   0  0  0  0  0  0  0  0  0  0  0  0
  -26.0560  -11.7460   20.5350 N   0  0  0  0  0  0  0  0  0  0  0  0
  -24.0470  -10.5110   21.0410 C   0  0  0  0  0  0  0  0  0  0  0  0
  -24.4730   -9.5540   21.9870 C   0  0  0  0  0  3  0  0  0  0  0  0
  -23.7540   -8.3520   22.1650 C   0  0  0  0  0  3  0  0  0  0  0  0
  -22.5930   -8.0990   21.3960 C   0  0  0  0  0  0  0  0  0  0  0  0
  -22.1860   -9.0460   20.4400 C   0  0  0  0  0  3  0  0  0  0  0  0
  -22.9060  -10.2380   20.2600 C   0  0  0  0  0  3  0  0  0  0  0  0
  -21.8420   -6.9500   21.4840 O   0  0  0  0  0  0  0  0  0  0  0  0
  -21.7670   -6.2270   22.6480 C   0  0  0  0  0  0  0  0  0  0  0  0
  -21.2800   -6.7940   23.8460 C   0  0  0  0  0  3  0  0  0  0  0  0
  -21.1510   -5.9970   25.0020 C   0  0  0  0  0  3  0  0  0  0  0  0
  -21.4990   -4.6330   24.9590 C   0  0  0  0  0  0  0  0  0  0  0  0
  -21.9820   -4.0660   23.7650 C   0  0  0  0  0  3  0  0  0  0  0  0
  -22.1120   -4.8610   22.6130 C   0  0  0  0  0  0  0  0  0  0  0  0
  -22.5530   -4.3050   21.4600 F   0  0  0  0  0  0  0  0  0  0  0  0
  -21.3710   -3.8660   26.0660 F   0  0  0  0  0  0  0  0  0  0  0  0
  -22.8980  -13.5980   21.1580 C   0  0  0  0  0  0  0  0  0  0  0  0
  -22.1670  -12.8940   22.0170 N   0  0  0  0  0  0  0  0  0  0  0  0
  -22.4580  -14.6240   20.6420 O   0  0  0  0  0  0  0  0  0  0  0  0
  -22.5340  -12.0650   22.4630 H   0  0  0  0  0  0  0  0  0  0  0  0
  -21.2280  -13.1920   22.2360 H   0  0  0  0  0  0  0  0  0  0  0  0
  -25.5120  -15.2760   20.3260 N   0  0  0  0  0  0  0  0  0  0  0  0
  -24.7370  -15.9220   20.4310 H   0  0  0  0  0  0  0  0  0  0  0  0
  -26.3380  -15.7080   19.9320 H   0  0  0  0  0  0  0  0  0  0  0  0
  -27.8420  -24.8970   20.8170 C   0  0  0  0  0  2  0  0  0  0  0  0
  -28.2480  -26.2570   20.2200 O   0  0  0  0  0  0  0  0  0  0  0  0
  -24.6150  -31.8950   23.2150 C   0  0  0  0  0  0  0  0  0  0  0  0
  -27.2180  -27.2550   20.1620 C   0  0  0  0  0  0  0  0  0  0  0  0
  -23.4190  -30.5030   21.5680 C   0  0  0  0  0  3  0  0  0  0  0  0
  -24.8780  -28.9590   20.1290 C   0  0  0  0  0  0  0  0  0  0  0  0
  -25.9670  -30.8010   21.3980 C   0  0  0  0  0  2  0  0  0  0  0  0
  -26.0540  -29.4160   20.7420 C   0  0  0  0  0  0  0  0  0  0  0  0
  -27.2280  -28.5780   20.7460 C   0  0  0  0  0  3  0  0  0  0  0  0
  -26.0300  -26.9050   19.4840 C   0  0  0  0  0  3  0  0  0  0  0  0
  -24.8780  -27.7160   19.4810 C   0  0  0  0  0  3  0  0  0  0  0  0
  -23.6410  -29.8400   20.1830 C   0  0  0  0  0  2  0  0  0  0  0  0
  -24.6860  -31.0860   22.1150 N   0  0  0  0  0  0  0  0  0  0  0  0
  -23.5280  -32.1670   23.7500 O   0  0  0  0  0  0  0  0  0  0  0  0
  -22.7530  -29.4820   22.5230 C   0  0  0  0  0  0  0  0  0  0  0  0
  -21.4250  -29.3070   22.4030 N   0  0  0  0  0  0  0  0  0  0  0  0
  -23.4330  -28.8520   23.3370 O   0  0  0  0  0  0  0  0  0  0  0  0
  -20.9350  -29.8680   21.7200 H   0  0  0  0  0  0  0  0  0  0  0  0
  -18.0490  -28.1050   22.9220 C   0  0  0  0  0  0  0  0  0  0  0  0
  -20.6100  -28.3620   23.1710 C   0  0  0  0  0  3  0  0  0  0  0  0
  -20.7060  -26.9370   22.5810 C   0  0  0  0  0  2  0  0  0  0  0  0
  -19.5960  -26.6250   21.5720 C   0  0  0  0  0  2  0  0  0  0  0  0
  -18.2200  -26.7630   22.2290 C   0  0  0  0  0  2  0  0  0  0  0  0
  -19.1710  -28.8630   23.3500 C   0  0  0  0  0  0  0  0  0  0  0  0
  -18.9580  -30.1170   23.9610 C   0  0  0  0  0  3  0  0  0  0  0  0
  -17.6530  -30.6150   24.1440 C   0  0  0  0  0  3  0  0  0  0  0  0
  -16.5460  -29.8550   23.7300 C   0  0  0  0  0  3  0  0  0  0  0  0
  -16.7440  -28.6010   23.1260 C   0  0  0  0  0  3  0  0  0  0  0  0
  -25.8920  -32.5330   23.8420 C   0  0  0  0  0  3  0  0  0  0  0  0
  -26.4050  -31.7650   25.1220 C   0  0  1  0  0  0  0  0  0  0  0  0
  -25.3080  -31.5260   26.1850 C   0  0  0  0  0  1  0  0  0  0  0  0
  -26.9940  -30.3880   24.7370 C   0  0  0  0  0  1  0  0  0  0  0  0
  -27.5500  -32.5640   25.7880 C   0  0  0  0  0  1  0  0  0  0  0  0
  -25.5750  -33.9310   24.1750 N   0  0  0  0  0  0  0  0  0  0  0  0
  -25.9050  -34.9880   23.4210 C   0  0  0  0  0  0  0  0  0  0  0  0
  -26.5740  -34.8900   22.3890 O   0  0  0  0  0  0  0  0  0  0  0  0
  -24.9790  -34.0800   24.9760 H   0  0  0  0  0  0  0  0  0  0  0  0
  -24.1820  -36.7880   23.0620 C   0  0  0  0  0  1  0  0  0  0  0  0
  -25.4150  -36.3750   23.8820 C   0  0  0  0  0  3  0  0  0  0  0  0
  -27.5400  -37.2550   24.7450 C   0  0  0  0  0  1  0  0  0  0  0  0
  -26.4490  -37.4280   23.7880 N   0  0  0  0  0  0  0  0  0  0  0  0
  -26.0430  -38.3480   23.9310 H   0  0  0  0  0  0  0  0  0  0  0  0
  1  5  1  0
  2  6  1  0
  3  1  2  0
  3  4  1  0
  4  2  2  0
  5 50  1  0
  5  6  2  0
  8  9  1  0
  8  7  1  0
  9  7  1  0
  9  3  1  0
 10  4  1  0
 10 11  2  0
 12 20  1  0
 13 18  1  0
 14 15  1  0
 14 13  1  0
 16 15  1  0
 16 25  1  0
 16 17  1  0
 18 12  1  0
 18 17  1  0
 19 12  2  0
 20 11  1  0
 20 21  1  0
 22 23  2  0
 23 42  1  0
 24 23  1  0
 24 27  1  0
 25 22  1  0
 25 26  1  0
 26 24  2  0
 27 28  1  0
 28 29  2  0
 30 33  1  0
 30 29  1  0
 31 30  2  0
 32 31  1  0
 32 27  2  0
 33 34  1  0
 34 35  1  0
 35 36  2  0
 37 36  1  0
 37 41  1  0
 38 37  2  0
 39 34  2  0
 39 38  1  0
 40 39  1  0
 42 43  1  0
 43 46  1  0
 43 45  1  0
 44 42  2  0
 47 48  1  0
 47 22  1  0
 49 47  1  0
 51 50  1  0
 52 63  2  0
 53 51  1  0
 53 58  1  0
 54 62  1  0
 54 64  1  0
 55 61  1  0
 55 57  1  0
 56 62  1  0
 57 58  2  0
 57 56  1  0
 59 53  2  0
 60 59  1  0
 60 55  2  0
 61 54  1  0
 62 52  1  0
 64 66  2  0
 65 64  1  0
 67 65  1  0
 68 77  2  0
 68 73  1  0
 69 65  1  0
 69 73  1  0
 70 69  1  0
 71 72  1  0
 71 70  1  0
 72 68  1  0
 73 74  2  0
 74 75  1  0
 76 75  2  0
 77 76  1  0
 78 52  1  0
 78 83  1  0
 78 79  1  0
 79 82  1  1
 79 80  1  0
 81 79  1  0
 83 86  1  0
 84 88  1  0
 84 83  1  0
 85 84  2  0
 88 87  1  0
 90 88  1  0
 90 91  1  0
 90 89  1  0
M  ISO  4  12 100  20 100  50 101  51 101
M  END
>  <TORSDO>  (40) 
F 20

>  <SCORE>  (40) 
-13.719

>  <name>  (40) 
39

>  <ligand_id>  (40) 
39

>  <original_smiles>  (40) 
[H]c1nc(C([H])([H])Oc2c([H])c([H])c3c(c2[H])C([H])([H])N(C(=O)C([H])(N([H])C(=O)C([H])(N([H])C([H])([H])[H])C([H])([H])[H])C(C([H])([H])[H])(C([H])([H])[H])C([H])([H])[H])C([H])(C(=O)N([H])C2([H])c4c([H])c([H])c([H])c([H])c4C([H])([H])C([H])([H])C2([H])[H])C3([H])[H])c([H])c(C2([H])C([H])([H])C2([H])[H])c1C([H])([H])C([H])([H])N([H])C(=O)N1C([H])([H])C([H])([H])C([H])([H])C([H])(n2nc(-c3c([H])c([H])c(Oc4c([H])c([H])c(F)c([H])c4F)c([H])c3[H])c(C(=O)N([H])[H])c2N([H])[H])C1([H])[H]

>  <smiles>  (40) 
[H]c1nc(C([H])([H])Oc2c([H])c([H])c3c(c2[H])C([H])([H])N(C(=O)C([H])(N([H])C(=O)C([H])(N([H])C([H])([H])[H])C([H])([H])[H])C(C([H])([H])[H])(C([H])([H])[H])C([H])([H])[H])C([H])(C(=O)N([H])C2([H])c4c([H])c([H])c([H])c([H])c4C([H])([H])C([H])([H])C2([H])[H])C3([H])[H])c([H])c(C2([H])C([H])([H])C2([H])[H])c1C([H])([H])C([H])([H])N([H])C(=O)N1C([H])([H])C([H])([H])C([H])([H])C([H])(n2nc(-c3c([H])c([H])c(Oc4c([H])c([H])c(F)c([H])c4F)c([H])c3[H])c(C(=O)N([H])[H])c2N([H])[H])C1([H])[H]

$$$$
40:0:0
     RDKit          3D

 96106  0  0  1  0  0  0  0  0999 V2000
  -28.2470  -20.8440   20.9000 C   0  0  0  0  0  3  0  0  0  0  0  0
  -27.9360  -22.2680   20.8900 C   0  0  0  0  0  3  0  0  0  0  0  0
  -29.5120  -22.6020   19.1910 C   0  0  0  0  0  3  0  0  0  0  0  0
  -29.1970  -20.1820   20.0460 C   0  0  0  0  0  0  0  0  0  0  0  0
  -28.5200  -23.2450   20.0120 C   0  0  0  0  0  0  0  0  0  0  0  0
  -29.8520  -21.1730   19.2090 C   0  0  0  0  0  0  0  0  0  0  0  0
  -30.6170  -15.0900   20.1260 C   0  0  0  0  0  0  0  0  0  0  0  0
  -30.4420  -12.7360   19.1930 C   0  0  0  0  0  2  0  0  0  0  0  0
  -29.4740  -12.6710   17.9930 C   0  0  0  0  0  2  0  0  0  0  0  0
  -28.0310  -12.4540   18.4850 C   0  0  0  0  0  2  0  0  0  0  0  0
  -27.6540  -13.3870   19.6640 C   0  0  0  0  0  3  0  0  0  0  0  0
  -28.7500  -13.4380   20.7500 C   0  0  0  0  0  2  0  0  0  0  0  0
  -29.9840  -13.8490   20.0750 N   0  0  0  0  0  0  0  0  0  0  0  0
  -31.8230  -15.0970   19.8540 O   0  0  0  0  0  0  0  0  0  0  0  0
  -30.3850  -17.5420   19.2810 C   0  0  0  0  0  2  0  0  0  0  0  0
  -29.4610  -17.3550   21.0630 C   0  0  0  0  0  2  0  0  0  0  0  0
  -29.3390  -18.5090   19.9680 C   0  0  0  0  0  3  0  0  0  0  0  0
  -29.8880  -16.3190   20.0310 N   0  0  0  0  0  0  0  0  0  0  0  0
  -25.3110  -13.9480   20.5200 C   0  0  0  0  0  0  0  0  0  0  0  0
  -24.2590  -13.1660   20.9090 C   0  0  0  0  0  0  0  0  0  0  0  0
  -24.7180  -11.8150   20.8240 C   0  0  0  0  0  0  0  0  0  0  0  0
  -26.3410  -13.0750   20.2130 N   0  0  0  0  0  0  0  0  0  0  0  0
  -25.9960  -11.7840   20.4630 N   0  0  0  0  0  0  0  0  0  0  0  0
  -23.9960  -10.5490   21.0060 C   0  0  0  0  0  0  0  0  0  0  0  0
  -24.4290   -9.5750   21.9310 C   0  0  0  0  0  3  0  0  0  0  0  0
  -23.7030   -8.3760   22.1010 C   0  0  0  0  0  3  0  0  0  0  0  0
  -22.5290   -8.1440   21.3470 C   0  0  0  0  0  0  0  0  0  0  0  0
  -22.1140   -9.1060   20.4100 C   0  0  0  0  0  3  0  0  0  0  0  0
  -22.8400  -10.2970   20.2380 C   0  0  0  0  0  3  0  0  0  0  0  0
  -21.7750   -6.9990   21.4290 O   0  0  0  0  0  0  0  0  0  0  0  0
  -21.6820   -6.2790   22.5930 C   0  0  0  0  0  0  0  0  0  0  0  0
  -21.1420   -6.8370   23.7710 C   0  0  0  0  0  3  0  0  0  0  0  0
  -20.9980   -6.0410   24.9250 C   0  0  0  0  0  3  0  0  0  0  0  0
  -21.3870   -4.6890   24.9010 C   0  0  0  0  0  0  0  0  0  0  0  0
  -21.9200   -4.1310   23.7260 C   0  0  0  0  0  3  0  0  0  0  0  0
  -22.0630   -4.9220   22.5740 C   0  0  0  0  0  0  0  0  0  0  0  0
  -22.5580   -4.3750   21.4380 F   0  0  0  0  0  0  0  0  0  0  0  0
  -21.2420   -3.9220   26.0060 F   0  0  0  0  0  0  0  0  0  0  0  0
  -22.8750  -13.6400   21.2450 C   0  0  0  0  0  0  0  0  0  0  0  0
  -22.1740  -12.9230   22.1160 N   0  0  0  0  0  0  0  0  0  0  0  0
  -22.4260  -14.6820   20.7720 O   0  0  0  0  0  0  0  0  0  0  0  0
  -22.5470  -12.0780   22.5250 H   0  0  0  0  0  0  0  0  0  0  0  0
  -21.2470  -13.2270   22.3800 H   0  0  0  0  0  0  0  0  0  0  0  0
  -25.4740  -15.3240   20.3730 N   0  0  0  0  0  0  0  0  0  0  0  0
  -24.7150  -15.9780   20.5200 H   0  0  0  0  0  0  0  0  0  0  0  0
  -26.3150  -15.7650   20.0240 H   0  0  0  0  0  0  0  0  0  0  0  0
  -31.0000  -20.7390   18.3050 C   0  0  0  0  0  2  0  0  0  0  0  0
  -31.3010  -19.6420   14.7010 C   0  0  0  0  0  2  0  0  0  0  0  0
  -31.8100  -19.6570   16.1380 C   0  0  0  0  0  2  0  0  0  0  0  0
  -30.3500  -20.8450   14.6430 C   0  0  0  0  0  2  0  0  0  0  0  0
  -30.6020  -20.1700   16.9270 C   0  0  0  0  0  3  0  0  0  0  0  0
  -29.9480  -21.1430   16.0330 N   0  0  0  0  0  4  0  0  0  0  0  0
  -28.9460  -21.1000   16.1350 H   0  0  0  0  0  0  0  0  0  0  0  0
  -30.2530  -22.0760   16.2550 H   0  0  0  0  0  0  0  0  0  0  0  0
  -27.8240  -24.7340   19.7470 C   0  0  0  0  0  2  0  0  0  0  0  0
  -28.1830  -26.1900   20.1910 O   0  0  0  0  0  0  0  0  0  0  0  0
  -24.5990  -31.9130   23.2460 C   0  0  0  0  0  0  0  0  0  0  0  0
  -27.1630  -27.2250   20.1250 C   0  0  0  0  0  0  0  0  0  0  0  0
  -23.3950  -30.5320   21.6010 C   0  0  0  0  0  3  0  0  0  0  0  0
  -24.8400  -28.9900   20.1420 C   0  0  0  0  0  0  0  0  0  0  0  0
  -25.9530  -30.7960   21.4340 C   0  0  0  0  0  2  0  0  0  0  0  0
  -26.0250  -29.4160   20.7560 C   0  0  0  0  0  0  0  0  0  0  0  0
  -27.1870  -28.5460   20.7390 C   0  0  0  0  0  3  0  0  0  0  0  0
  -25.9560  -26.9300   19.4510 C   0  0  0  0  0  3  0  0  0  0  0  0
  -24.8190  -27.7610   19.4750 C   0  0  0  0  0  3  0  0  0  0  0  0
  -23.6110  -29.8820   20.2120 C   0  0  0  0  0  2  0  0  0  0  0  0
  -24.6680  -31.1030   22.1470 N   0  0  0  0  0  0  0  0  0  0  0  0
  -23.5150  -32.1880   23.7820 O   0  0  0  0  0  0  0  0  0  0  0  0
  -22.7260  -29.5080   22.5510 C   0  0  0  0  0  0  0  0  0  0  0  0
  -21.4020  -29.3150   22.4130 N   0  0  0  0  0  0  0  0  0  0  0  0
  -23.4010  -28.8910   23.3800 O   0  0  0  0  0  0  0  0  0  0  0  0
  -20.9120  -29.8650   21.7210 H   0  0  0  0  0  0  0  0  0  0  0  0
  -18.0310  -28.0810   22.9110 C   0  0  0  0  0  0  0  0  0  0  0  0
  -20.5880  -28.3640   23.1780 C   0  0  0  0  0  3  0  0  0  0  0  0
  -20.7020  -26.9380   22.5920 C   0  0  0  0  0  2  0  0  0  0  0  0
  -19.6030  -26.6140   21.5760 C   0  0  0  0  0  2  0  0  0  0  0  0
  -18.2210  -26.7400   22.2230 C   0  0  0  0  0  2  0  0  0  0  0  0
  -19.1430  -28.8510   23.3460 C   0  0  0  0  0  0  0  0  0  0  0  0
  -18.9110  -30.1050   23.9520 C   0  0  0  0  0  3  0  0  0  0  0  0
  -17.6010  -30.5890   24.1260 C   0  0  0  0  0  3  0  0  0  0  0  0
  -16.5040  -29.8150   23.7070 C   0  0  0  0  0  3  0  0  0  0  0  0
  -16.7210  -28.5630   23.1050 C   0  0  0  0  0  3  0  0  0  0  0  0
  -25.8770  -32.5470   23.8720 C   0  0  0  0  0  3  0  0  0  0  0  0
  -26.3890  -31.7760   25.1500 C   0  0  1  0  0  0  0  0  0  0  0  0
  -25.2880  -31.5300   26.2100 C   0  0  0  0  0  1  0  0  0  0  0  0
  -26.9840  -30.4010   24.7680 C   0  0  0  0  0  1  0  0  0  0  0  0
  -27.5290  -32.5760   25.8210 C   0  0  0  0  0  1  0  0  0  0  0  0
  -25.5640  -33.9440   24.2090 N   0  0  0  0  0  0  0  0  0  0  0  0
  -25.8630  -35.0020   23.4430 C   0  0  0  0  0  0  0  0  0  0  0  0
  -26.5010  -34.9050   22.3910 O   0  0  0  0  0  0  0  0  0  0  0  0
  -24.9920  -34.0910   25.0270 H   0  0  0  0  0  0  0  0  0  0  0  0
  -24.1110  -36.7850   23.1550 C   0  0  0  0  0  1  0  0  0  0  0  0
  -25.3820  -36.3870   23.9210 C   0  0  0  0  0  3  0  0  0  0  0  0
  -27.5300  -37.2970   24.6900 C   0  0  0  0  0  1  0  0  0  0  0  0
  -26.4020  -37.4500   23.7760 N   0  0  0  0  0  0  0  0  0  0  0  0
  -25.9900  -38.3660   23.9310 H   0  0  0  0  0  0  0  0  0  0  0  0
  2  1  1  0
  3  6  2  0
  3  5  1  0
  4  1  2  0
  5  2  2  0
  6  4  1  0
  8 13  1  0
  9 10  1  0
  9  8  1  0
 11 10  1  0
 11 22  1  0
 11 12  1  0
 13  7  1  0
 13 12  1  0
 14  7  2  0
 15 17  1  0
 15 18  1  0
 17  4  1  0
 17 16  1  0
 18  7  1  0
 18 16  1  0
 19 20  2  0
 20 39  1  0
 21 20  1  0
 21 24  1  0
 22 23  1  0
 22 19  1  0
 23 21  2  0
 24 25  1  0
 25 26  2  0
 27 30  1  0
 27 26  1  0
 28 27  2  0
 29 28  1  0
 29 24  2  0
 30 31  1  0
 31 32  1  0
 32 33  2  0
 34 33  1  0
 34 38  1  0
 35 34  2  0
 36 31  2  0
 36 35  1  0
 37 36  1  0
 39 40  1  0
 40 43  1  0
 40 42  1  0
 41 39  2  0
 44 19  1  0
 44 45  1  0
 46 44  1  0
 47  6  1  0
 48 49  1  0
 49 51  1  0
 50 48  1  0
 50 52  1  0
 51 47  1  0
 52 53  1  0
 52 54  1  0
 52 51  1  0
 55  5  1  0
 55 56  1  0
 57 68  2  0
 58 56  1  0
 58 63  1  0
 59 67  1  0
 59 69  1  0
 60 66  1  0
 60 62  1  0
 61 67  1  0
 62 61  1  0
 63 62  2  0
 64 65  1  0
 64 58  2  0
 65 60  2  0
 66 59  1  0
 67 57  1  0
 69 71  2  0
 70 69  1  0
 72 70  1  0
 73 82  2  0
 73 78  1  0
 74 70  1  0
 74 78  1  0
 75 74  1  0
 76 77  1  0
 76 75  1  0
 77 73  1  0
 78 79  2  0
 79 80  1  0
 81 80  2  0
 82 81  1  0
 83 57  1  0
 83 88  1  0
 83 84  1  0
 84 87  1  1
 84 85  1  0
 86 84  1  0
 88 91  1  0
 89 93  1  0
 89 88  1  0
 90 89  2  0
 93 92  1  0
 95 93  1  0
 95 96  1  0
 95 94  1  0
M  ISO  4   7 100  18 100  55 101  56 101
M  END
>  <TORSDO>  (41) 
F 19

>  <SCORE>  (41) 
-14.540

>  <name>  (41) 
40

>  <ligand_id>  (41) 
40

>  <original_smiles>  (41) 
[H]c1c([H])c([H])c2c(c1[H])C([H])([H])C([H])([H])C([H])([H])C2([H])N([H])C(=O)C1([H])N(C(=O)C([H])(N([H])C(=O)C([H])(N([H])C([H])([H])[H])C([H])([H])[H])C(C([H])([H])[H])(C([H])([H])[H])C([H])([H])[H])C([H])([H])c2c([H])c(OC([H])([H])c3c([H])c([H])c(C4([H])C([H])([H])N(C(=O)N5C([H])([H])C([H])([H])C([H])([H])C([H])(n6nc(-c7c([H])c([H])c(Oc8c([H])c([H])c(F)c([H])c8F)c([H])c7[H])c(C(=O)N([H])[H])c6N([H])[H])C5([H])[H])C4([H])[H])c(C([H])([H])C4([H])C([H])([H])C([H])([H])C([H])([H])[N+]4([H])[H])c3[H])c([H])c([H])c2C1([H])[H]

>  <smiles>  (41) 
[H]c1c([H])c([H])c2c(c1[H])C([H])([H])C([H])([H])C([H])([H])C2([H])N([H])C(=O)C1([H])N(C(=O)C([H])(N([H])C(=O)C([H])(N([H])C([H])([H])[H])C([H])([H])[H])C(C([H])([H])[H])(C([H])([H])[H])C([H])([H])[H])C([H])([H])c2c([H])c(OC([H])([H])c3c([H])c([H])c(C4([H])C([H])([H])N(C(=O)N5C([H])([H])C([H])([H])C([H])([H])C([H])(n6nc(-c7c([H])c([H])c(Oc8c([H])c([H])c(F)c([H])c8F)c([H])c7[H])c(C(=O)N([H])[H])c6N([H])[H])C5([H])[H])C4([H])[H])c(C([H])([H])C4([H])C([H])([H])C([H])([H])C([H])([H])[N+]4([H])[H])c3[H])c([H])c([H])c2C1([H])[H]

$$$$
41:0:0
     RDKit          3D

 98108  0  0  1  0  0  0  0  0999 V2000
  -27.8360  -20.7800   19.0400 C   0  0  0  0  0  3  0  0  0  0  0  0
  -27.6600  -19.4040   18.8050 C   0  0  0  0  0  3  0  0  0  0  0  0
  -29.0250  -21.2740   19.6170 C   0  0  0  0  0  0  0  0  0  0  0  0
  -30.0230  -20.2510   19.9010 C   0  0  0  0  0  0  0  0  0  0  0  0
  -29.7710  -18.8490   19.5990 C   0  0  0  0  0  0  0  0  0  0  0  0
  -28.5880  -18.4640   19.0790 N   0  0  0  0  0  0  0  0  0  0  0  0
  -27.9040  -23.3660   20.7100 C   0  0  0  0  0  2  0  0  0  0  0  0
  -29.1040  -22.8160   19.9830 C   0  0  0  0  0  3  0  0  0  0  0  0
  -28.3160  -24.1130   19.4570 C   0  0  0  0  0  3  0  0  0  0  0  0
  -28.6630  -25.6460   19.7250 C   0  0  0  0  0  2  0  0  0  0  0  0
  -28.3320  -26.7750   18.8210 O   0  0  0  0  0  0  0  0  0  0  0  0
  -24.4950  -31.4800   22.7740 C   0  0  0  0  0  0  0  0  0  0  0  0
  -27.1580  -27.5060   19.0370 C   0  0  0  0  0  0  0  0  0  0  0  0
  -23.2570  -30.1760   21.0790 C   0  0  0  0  0  3  0  0  0  0  0  0
  -24.6900  -28.9050   19.3820 C   0  0  0  0  0  0  0  0  0  0  0  0
  -25.7390  -30.7200   20.7370 C   0  0  0  0  0  2  0  0  0  0  0  0
  -25.8660  -29.4280   19.9380 C   0  0  0  0  0  0  0  0  0  0  0  0
  -27.1040  -28.7430   19.7510 C   0  0  0  0  0  3  0  0  0  0  0  0
  -25.9600  -27.0270   18.4740 C   0  0  0  0  0  3  0  0  0  0  0  0
  -24.7380  -27.7120   18.6400 C   0  0  0  0  0  3  0  0  0  0  0  0
  -23.4010  -29.6670   19.6190 C   0  0  0  0  0  2  0  0  0  0  0  0
  -24.5190  -30.8060   21.5870 N   0  0  0  0  0  0  0  0  0  0  0  0
  -23.4450  -31.6070   23.4200 O   0  0  0  0  0  0  0  0  0  0  0  0
  -22.7540  -29.0130   21.9660 C   0  0  0  0  0  0  0  0  0  0  0  0
  -21.4450  -28.7190   21.8910 N   0  0  0  0  0  0  0  0  0  0  0  0
  -23.5370  -28.3810   22.6800 O   0  0  0  0  0  0  0  0  0  0  0  0
  -20.8650  -29.2890   21.2910 H   0  0  0  0  0  0  0  0  0  0  0  0
  -18.2440  -27.1060   22.3870 C   0  0  0  0  0  0  0  0  0  0  0  0
  -20.7660  -27.6340   22.6040 C   0  0  0  0  0  3  0  0  0  0  0  0
  -21.0060  -26.2750   21.9070 C   0  0  0  0  0  2  0  0  0  0  0  0
  -19.9100  -25.9100   20.9010 C   0  0  0  0  0  2  0  0  0  0  0  0
  -18.5450  -25.8440   21.5940 C   0  0  0  0  0  2  0  0  0  0  0  0
  -19.2860  -27.9540   22.8470 C   0  0  0  0  0  0  0  0  0  0  0  0
  -18.9500  -29.1310   23.5510 C   0  0  0  0  0  3  0  0  0  0  0  0
  -17.6060  -29.4650   23.7960 C   0  0  0  0  0  3  0  0  0  0  0  0
  -16.5780  -28.6130   23.3520 C   0  0  0  0  0  3  0  0  0  0  0  0
  -16.8990  -27.4360   22.6530 C   0  0  0  0  0  3  0  0  0  0  0  0
  -25.7780  -32.1410   23.3660 C   0  0  0  0  0  3  0  0  0  0  0  0
  -25.4090  -33.4820   23.8400 N   0  0  0  0  0  0  0  0  0  0  0  0
  -25.6530  -34.6200   23.1770 C   0  0  0  0  0  0  0  0  0  0  0  0
  -26.2850  -34.6540   22.1180 O   0  0  0  0  0  0  0  0  0  0  0  0
  -24.8440  -33.5260   24.6740 H   0  0  0  0  0  0  0  0  0  0  0  0
  -23.8300  -36.3480   23.0520 C   0  0  0  0  0  1  0  0  0  0  0  0
  -25.1130  -35.9280   23.7860 C   0  0  0  0  0  3  0  0  0  0  0  0
  -27.2220  -36.8390   24.6530 C   0  0  0  0  0  1  0  0  0  0  0  0
  -26.0880  -37.0400   23.7550 N   0  0  0  0  0  0  0  0  0  0  0  0
  -25.6410  -37.9190   24.0000 H   0  0  0  0  0  0  0  0  0  0  0  0
  -26.4300  -31.3010   24.5320 C   0  0  1  0  0  0  0  0  0  0  0  0
  -25.4360  -30.9140   25.6530 C   0  0  0  0  0  1  0  0  0  0  0  0
  -27.0530  -29.9960   23.9840 C   0  0  0  0  0  1  0  0  0  0  0  0
  -27.5860  -32.1040   25.1730 C   0  0  0  0  0  1  0  0  0  0  0  0
  -31.3740  -20.6760   20.4990 C   0  0  0  0  0  2  0  0  0  0  0  0
  -31.2450  -21.3910   21.7910 N   0  0  0  0  0  4  0  0  0  0  0  0
  -31.8660  -22.1830   21.7290 H   0  0  0  0  0  0  0  0  0  0  0  0
  -30.3130  -21.7570   21.8900 H   0  0  0  0  0  0  0  0  0  0  0  0
  -30.9210  -19.8570   24.8380 C   0  0  0  0  0  2  0  0  0  0  0  0
  -30.7830  -19.4220   23.3730 C   0  0  0  0  0  2  0  0  0  0  0  0
  -31.1830  -21.2760   24.3230 C   0  0  0  0  0  2  0  0  0  0  0  0
  -31.6530  -20.6370   23.0020 C   0  0  0  0  0  3  0  0  0  0  0  0
  -30.8120  -17.6640   19.7220 C   0  0  0  0  0  2  0  0  0  0  0  0
  -31.1080  -15.0890   19.5990 C   0  0  0  0  0  0  0  0  0  0  0  0
  -30.9050  -12.7000   18.9060 C   0  0  0  0  0  2  0  0  0  0  0  0
  -29.9230  -12.5840   17.7210 C   0  0  0  0  0  2  0  0  0  0  0  0
  -28.4730  -12.4580   18.2260 C   0  0  0  0  0  2  0  0  0  0  0  0
  -28.1250  -13.5090   19.3140 C   0  0  0  0  0  3  0  0  0  0  0  0
  -29.2220  -13.5950   20.3970 C   0  0  0  0  0  2  0  0  0  0  0  0
  -30.4910  -13.8690   19.7130 N   0  0  0  0  0  0  0  0  0  0  0  0
  -32.2730  -15.1650   19.2000 O   0  0  0  0  0  0  0  0  0  0  0  0
  -30.3510  -16.2220   19.7710 N   0  0  0  0  0  0  0  0  0  0  0  0
  -29.3710  -16.0920   19.9710 H   0  0  0  0  0  0  0  0  0  0  0  0
  -25.8240  -14.1930   20.2210 C   0  0  0  0  0  0  0  0  0  0  0  0
  -24.7510  -13.4600   20.6460 C   0  0  0  0  0  0  0  0  0  0  0  0
  -25.1430  -12.0920   20.5490 C   0  0  0  0  0  0  0  0  0  0  0  0
  -26.8060  -13.2720   19.8900 N   0  0  0  0  0  0  0  0  0  0  0  0
  -26.4060  -12.0010   20.1500 N   0  0  0  0  0  0  0  0  0  0  0  0
  -24.3710  -10.8590   20.7590 C   0  0  0  0  0  0  0  0  0  0  0  0
  -24.7620   -9.8940   21.7150 C   0  0  0  0  0  3  0  0  0  0  0  0
  -23.9920   -8.7280   21.9090 C   0  0  0  0  0  3  0  0  0  0  0  0
  -22.8160   -8.5170   21.1490 C   0  0  0  0  0  0  0  0  0  0  0  0
  -22.4440   -9.4690   20.1830 C   0  0  0  0  0  3  0  0  0  0  0  0
  -23.2150  -10.6270   19.9860 C   0  0  0  0  0  3  0  0  0  0  0  0
  -22.0200   -7.4010   21.2540 O   0  0  0  0  0  0  0  0  0  0  0  0
  -21.8320   -6.7610   22.4510 C   0  0  0  0  0  0  0  0  0  0  0  0
  -21.2670   -7.4170   23.5670 C   0  0  0  0  0  3  0  0  0  0  0  0
  -21.0280   -6.7020   24.7570 C   0  0  0  0  0  3  0  0  0  0  0  0
  -21.3420   -5.3320   24.8320 C   0  0  0  0  0  0  0  0  0  0  0  0
  -21.8990   -4.6760   23.7210 C   0  0  0  0  0  3  0  0  0  0  0  0
  -22.1400   -5.3890   22.5330 C   0  0  0  0  0  0  0  0  0  0  0  0
  -22.6580   -4.7460   21.4580 F   0  0  0  0  0  0  0  0  0  0  0  0
  -21.1050   -4.6420   25.9730 F   0  0  0  0  0  0  0  0  0  0  0  0
  -23.4000  -13.9950   21.0270 C   0  0  0  0  0  0  0  0  0  0  0  0
  -22.7070  -13.3170   21.9350 N   0  0  0  0  0  0  0  0  0  0  0  0
  -22.9720  -15.0480   20.5540 O   0  0  0  0  0  0  0  0  0  0  0  0
  -23.0680  -12.4640   22.3360 H   0  0  0  0  0  0  0  0  0  0  0  0
  -21.8040  -13.6550   22.2350 H   0  0  0  0  0  0  0  0  0  0  0  0
  -26.0440  -15.5600   20.0660 N   0  0  0  0  0  0  0  0  0  0  0  0
  -25.3170  -16.2430   20.2390 H   0  0  0  0  0  0  0  0  0  0  0  0
  -26.8810  -15.9670   19.6700 H   0  0  0  0  0  0  0  0  0  0  0  0
  1  3  1  0
  2  1  2  0
  2  6  1  0
  3  4  2  0
  4 52  1  0
  5 60  1  0
  5  4  1  0
  6  5  2  0
  8  3  1  0
  8  7  1  0
  9 10  1  0
  9  8  1  0
  9  7  1  0
 11 13  1  0
 11 10  1  0
 12 23  2  0
 13 18  1  0
 14 22  1  0
 14 24  1  0
 15 21  1  0
 15 17  1  0
 16 22  1  0
 17 16  1  0
 18 17  2  0
 19 20  1  0
 19 13  2  0
 20 15  2  0
 21 14  1  0
 22 12  1  0
 24 26  2  0
 25 24  1  0
 27 25  1  0
 28 37  2  0
 28 33  1  0
 29 25  1  0
 29 33  1  0
 30 29  1  0
 31 32  1  0
 31 30  1  0
 32 28  1  0
 33 34  2  0
 34 35  1  0
 36 35  2  0
 37 36  1  0
 38 12  1  0
 38 39  1  0
 38 48  1  0
 39 42  1  0
 40 44  1  0
 40 39  1  0
 41 40  2  0
 44 43  1  0
 46 44  1  0
 46 47  1  0
 46 45  1  0
 48 51  1  1
 48 49  1  0
 50 48  1  0
 52 53  1  0
 53 55  1  0
 53 59  1  0
 54 53  1  0
 57 56  1  0
 58 56  1  0
 59 57  1  0
 59 58  1  0
 60 69  1  0
 61 67  1  0
 61 69  1  0
 62 67  1  0
 63 64  1  0
 63 62  1  0
 65 64  1  0
 65 74  1  0
 65 66  1  0
 67 66  1  0
 68 61  2  0
 69 70  1  0
 71 72  2  0
 72 91  1  0
 73 72  1  0
 73 76  1  0
 74 75  1  0
 74 71  1  0
 75 73  2  0
 76 77  1  0
 77 78  2  0
 79 82  1  0
 79 78  1  0
 80 79  2  0
 81 80  1  0
 81 76  2  0
 82 83  1  0
 83 88  2  0
 83 84  1  0
 84 85  2  0
 85 86  1  0
 86 90  1  0
 87 86  2  0
 88 87  1  0
 89 88  1  0
 91 92  1  0
 92 95  1  0
 92 94  1  0
 93 91  2  0
 96 71  1  0
 96 97  1  0
 98 96  1  0
M  ISO  4  10 101  11 101  61 100  69 100
M  END
>  <TORSDO>  (42) 
F 22

>  <SCORE>  (42) 
-10.824

>  <name>  (42) 
41

>  <ligand_id>  (42) 
41

>  <original_smiles>  (42) 
[H]c1nc(C([H])([H])N([H])C(=O)N2C([H])([H])C([H])([H])C([H])([H])C([H])(n3nc(-c4c([H])c([H])c(Oc5c([H])c([H])c(F)c([H])c5F)c([H])c4[H])c(C(=O)N([H])[H])c3N([H])[H])C2([H])[H])c(C([H])([H])[N+]([H])([H])C2([H])C([H])([H])C([H])([H])C2([H])[H])c(C2([H])C([H])([H])C2([H])C([H])([H])Oc2c([H])c([H])c3c(c2[H])C([H])([H])N(C(=O)C([H])(N([H])C(=O)C([H])(N([H])C([H])([H])[H])C([H])([H])[H])C(C([H])([H])[H])(C([H])([H])[H])C([H])([H])[H])C([H])(C(=O)N([H])C2([H])c4c([H])c([H])c([H])c([H])c4C([H])([H])C([H])([H])C2([H])[H])C3([H])[H])c1[H]

>  <smiles>  (42) 
[H]c1nc(C([H])([H])N([H])C(=O)N2C([H])([H])C([H])([H])C([H])([H])C([H])(n3nc(-c4c([H])c([H])c(Oc5c([H])c([H])c(F)c([H])c5F)c([H])c4[H])c(C(=O)N([H])[H])c3N([H])[H])C2([H])[H])c(C([H])([H])[N+]([H])([H])C2([H])C([H])([H])C([H])([H])C2([H])[H])c(C2([H])C([H])([H])C2([H])C([H])([H])Oc2c([H])c([H])c3c(c2[H])C([H])([H])N(C(=O)C([H])(N([H])C(=O)C([H])(N([H])C([H])([H])[H])C([H])([H])[H])C(C([H])([H])[H])(C([H])([H])[H])C([H])([H])[H])C([H])(C(=O)N([H])C2([H])c4c([H])c([H])c([H])c([H])c4C([H])([H])C([H])([H])C2([H])[H])C3([H])[H])c1[H]

$$$$
42:0:0
     RDKit          3D

 98107  0  0  1  0  0  0  0  0999 V2000
  -25.6060  -19.8310   18.6670 C   0  0  0  0  0  2  0  0  0  0  0  0
  -26.8390  -19.0140   19.0850 C   0  0  0  0  0  2  0  0  0  0  0  0
  -27.2160  -21.3610   19.6770 C   0  0  0  0  0  3  0  0  0  0  0  0
  -26.1150  -21.2700   18.5510 C   0  0  0  0  0  3  0  0  0  0  0  0
  -28.0020  -20.0100   19.3640 C   0  0  0  0  0  3  0  0  0  0  0  0
  -27.6220  -23.5110   21.0920 C   0  0  0  0  0  2  0  0  0  0  0  0
  -29.2570  -23.2130   19.2590 C   0  0  0  0  0  2  0  0  0  0  0  0
  -27.5890  -25.0410   20.9340 C   0  0  0  0  0  2  0  0  0  0  0  0
  -29.3420  -24.7690   19.0570 C   0  0  0  0  0  2  0  0  0  0  0  0
  -27.8330  -22.8270   19.7140 C   0  0  0  0  0  3  0  0  0  0  0  0
  -28.8570  -25.6360   20.2570 C   0  0  0  0  0  3  0  0  0  0  0  0
  -28.8140  -27.0550   19.9000 O   0  0  0  0  0  0  0  0  0  0  0  0
  -24.6700  -31.7440   23.3350 C   0  0  0  0  0  0  0  0  0  0  0  0
  -27.6210  -27.7620   19.9040 C   0  0  0  0  0  0  0  0  0  0  0  0
  -23.5920  -30.4960   21.4890 C   0  0  0  0  0  3  0  0  0  0  0  0
  -25.1730  -29.1930   19.9560 C   0  0  0  0  0  0  0  0  0  0  0  0
  -26.1090  -30.9540   21.4590 C   0  0  0  0  0  2  0  0  0  0  0  0
  -26.2770  -29.6710   20.6720 C   0  0  0  0  0  0  0  0  0  0  0  0
  -27.4990  -28.9580   20.6520 C   0  0  0  0  0  3  0  0  0  0  0  0
  -26.5260  -27.3590   19.1060 C   0  0  0  0  0  3  0  0  0  0  0  0
  -25.2960  -28.0410   19.1660 C   0  0  0  0  0  3  0  0  0  0  0  0
  -23.8870  -29.9850   20.0540 C   0  0  0  0  0  2  0  0  0  0  0  0
  -24.8050  -31.0750   22.1560 N   0  0  0  0  0  0  0  0  0  0  0  0
  -23.5560  -31.9160   23.8460 O   0  0  0  0  0  0  0  0  0  0  0  0
  -22.9400  -29.3540   22.3000 C   0  0  0  0  0  0  0  0  0  0  0  0
  -21.6180  -29.1790   22.1320 N   0  0  0  0  0  0  0  0  0  0  0  0
  -23.6220  -28.6330   23.0340 O   0  0  0  0  0  0  0  0  0  0  0  0
  -21.1340  -29.8150   21.5150 H   0  0  0  0  0  0  0  0  0  0  0  0
  -18.2400  -27.9440   22.4650 C   0  0  0  0  0  0  0  0  0  0  0  0
  -20.8000  -28.1440   22.7590 C   0  0  0  0  0  3  0  0  0  0  0  0
  -20.8910  -26.8120   21.9750 C   0  0  0  0  0  2  0  0  0  0  0  0
  -19.7810  -26.6520   20.9320 C   0  0  0  0  0  2  0  0  0  0  0  0
  -18.4040  -26.7080   21.5970 C   0  0  0  0  0  2  0  0  0  0  0  0
  -19.3650  -28.6270   22.9980 C   0  0  0  0  0  0  0  0  0  0  0  0
  -19.1560  -29.7910   23.7710 C   0  0  0  0  0  3  0  0  0  0  0  0
  -17.8560  -30.2700   24.0150 C   0  0  0  0  0  3  0  0  0  0  0  0
  -16.7440  -29.5810   23.4960 C   0  0  0  0  0  3  0  0  0  0  0  0
  -16.9390  -28.4190   22.7290 C   0  0  0  0  0  3  0  0  0  0  0  0
  -25.9030  -32.3420   24.0790 C   0  0  0  0  0  3  0  0  0  0  0  0
  -25.6100  -33.7560   24.3530 N   0  0  0  0  0  0  0  0  0  0  0  0
  -26.0050  -34.7750   23.5820 C   0  0  0  0  0  0  0  0  0  0  0  0
  -26.7170  -34.6230   22.5840 O   0  0  0  0  0  0  0  0  0  0  0  0
  -24.9840  -33.9480   25.1220 H   0  0  0  0  0  0  0  0  0  0  0  0
  -24.3040  -36.5710   23.1200 C   0  0  0  0  0  1  0  0  0  0  0  0
  -25.5270  -36.1870   23.9690 C   0  0  0  0  0  3  0  0  0  0  0  0
  -27.6460  -37.0980   24.8150 C   0  0  0  0  0  1  0  0  0  0  0  0
  -26.5760  -37.2210   23.8270 N   0  0  0  0  0  0  0  0  0  0  0  0
  -26.1780  -38.1530   23.9050 H   0  0  0  0  0  0  0  0  0  0  0  0
  -26.2520  -31.5740   25.4130 C   0  0  1  0  0  0  0  0  0  0  0  0
  -25.0490  -31.4100   26.3710 C   0  0  0  0  0  1  0  0  0  0  0  0
  -26.7980  -30.1620   25.1000 C   0  0  0  0  0  1  0  0  0  0  0  0
  -27.3760  -32.3200   26.1680 C   0  0  0  0  0  1  0  0  0  0  0  0
  -24.8210  -22.7820   16.9280 C   0  0  0  0  0  1  0  0  0  0  0  0
  -23.6040  -22.0200   18.9830 C   0  0  0  0  0  1  0  0  0  0  0  0
  -24.9880  -22.3700   18.4060 C   0  0  0  0  0  3  0  0  0  0  0  0
  -29.0620  -19.5030   20.3220 N   0  0  0  0  0  4  0  0  0  0  0  0
  -29.0210  -20.0390   21.1710 H   0  0  0  0  0  0  0  0  0  0  0  0
  -29.9440  -19.7090   19.8850 H   0  0  0  0  0  0  0  0  0  0  0  0
  -29.0750  -18.0450   20.7200 C   0  0  0  0  0  2  0  0  0  0  0  0
  -30.4680  -17.3450   20.8500 C   0  0  0  0  0  2  0  0  0  0  0  0
  -31.0230  -14.8630   20.5430 C   0  0  0  0  0  0  0  0  0  0  0  0
  -30.8220  -12.5850   19.5920 C   0  0  0  0  0  2  0  0  0  0  0  0
  -29.9520  -12.6840   18.3170 C   0  0  0  0  0  2  0  0  0  0  0  0
  -28.4550  -12.5530   18.6620 C   0  0  0  0  0  2  0  0  0  0  0  0
  -28.0460  -13.4840   19.8310 C   0  0  0  0  0  3  0  0  0  0  0  0
  -29.0300  -13.3690   21.0110 C   0  0  0  0  0  2  0  0  0  0  0  0
  -30.3910  -13.6530   20.5130 N   0  0  0  0  0  0  0  0  0  0  0  0
  -32.1130  -15.0530   19.9950 O   0  0  0  0  0  0  0  0  0  0  0  0
  -30.3180  -15.8800   21.0970 N   0  0  0  0  0  0  0  0  0  0  0  0
  -29.5120  -15.6010   21.6380 H   0  0  0  0  0  0  0  0  0  0  0  0
  -25.6530  -14.1360   20.5150 C   0  0  0  0  0  0  0  0  0  0  0  0
  -24.5560  -13.3790   20.8310 C   0  0  0  0  0  0  0  0  0  0  0  0
  -24.9700  -12.0190   20.7450 C   0  0  0  0  0  0  0  0  0  0  0  0
  -26.6690  -13.2270   20.2570 N   0  0  0  0  0  0  0  0  0  0  0  0
  -26.2630  -11.9430   20.4570 N   0  0  0  0  0  0  0  0  0  0  0  0
  -24.1890  -10.7780   20.8650 C   0  0  0  0  0  0  0  0  0  0  0  0
  -24.5360   -9.7690   21.7900 C   0  0  0  0  0  3  0  0  0  0  0  0
  -23.7640   -8.5890   21.8810 C   0  0  0  0  0  3  0  0  0  0  0  0
  -22.6240   -8.4240   21.0560 C   0  0  0  0  0  0  0  0  0  0  0  0
  -22.3030   -9.4200   20.1190 C   0  0  0  0  0  3  0  0  0  0  0  0
  -23.0720  -10.5880   20.0260 C   0  0  0  0  0  3  0  0  0  0  0  0
  -21.8190   -7.3100   21.0690 O   0  0  0  0  0  0  0  0  0  0  0  0
  -21.6370   -6.5670   22.2100 C   0  0  0  0  0  0  0  0  0  0  0  0
  -21.0520   -7.1210   23.3670 C   0  0  0  0  0  3  0  0  0  0  0  0
  -20.8160   -6.3070   24.4930 C   0  0  0  0  0  3  0  0  0  0  0  0
  -21.1540   -4.9400   24.4660 C   0  0  0  0  0  0  0  0  0  0  0  0
  -21.7340   -4.3850   23.3090 C   0  0  0  0  0  3  0  0  0  0  0  0
  -21.9710   -5.1980   22.1850 C   0  0  0  0  0  0  0  0  0  0  0  0
  -22.5090   -4.6540   21.0690 F   0  0  0  0  0  0  0  0  0  0  0  0
  -20.9170   -4.1580   25.5420 F   0  0  0  0  0  0  0  0  0  0  0  0
  -23.1780  -13.8960   21.1310 C   0  0  0  0  0  0  0  0  0  0  0  0
  -22.4250  -13.1830   21.9740 N   0  0  0  0  0  0  0  0  0  0  0  0
  -22.7710  -14.9540   20.6650 O   0  0  0  0  0  0  0  0  0  0  0  0
  -22.7530  -12.3110   22.3670 H   0  0  0  0  0  0  0  0  0  0  0  0
  -21.4970  -13.5000   22.2100 H   0  0  0  0  0  0  0  0  0  0  0  0
  -25.8740  -15.5060   20.4220 N   0  0  0  0  0  0  0  0  0  0  0  0
  -25.1380  -16.1770   20.5960 H   0  0  0  0  0  0  0  0  0  0  0  0
  -26.7470  -15.9400   20.1540 H   0  0  0  0  0  0  0  0  0  0  0  0
  1  2  1  0
  2  5  1  0
  3 10  1  0
  4 55  1  0
  4  1  1  0
  4  3  1  0
  5  3  1  0
  5 56  1  0
  8  6  1  0
  9  7  1  0
  9 11  1  0
 10  7  1  0
 10  6  1  0
 11 12  1  0
 11  8  1  0
 12 14  1  0
 13 24  2  0
 14 19  1  0
 15 23  1  0
 15 25  1  0
 16 22  1  0
 16 18  1  0
 17 23  1  0
 18 17  1  0
 19 18  2  0
 20 21  1  0
 20 14  2  0
 21 16  2  0
 22 15  1  0
 23 13  1  0
 25 27  2  0
 26 25  1  0
 28 26  1  0
 29 38  2  0
 29 34  1  0
 30 26  1  0
 30 34  1  0
 31 30  1  0
 32 33  1  0
 32 31  1  0
 33 29  1  0
 34 35  2  0
 35 36  1  0
 37 36  2  0
 38 37  1  0
 39 13  1  0
 39 40  1  0
 39 49  1  0
 40 43  1  0
 41 45  1  0
 41 40  1  0
 42 41  2  0
 45 44  1  0
 47 48  1  0
 47 45  1  0
 47 46  1  0
 49 52  1  1
 49 50  1  0
 51 49  1  0
 53 55  1  0
 55 54  1  0
 56 59  1  0
 56 57  1  0
 58 56  1  0
 59 60  1  0
 60 69  1  0
 61 69  1  0
 62 67  1  0
 63 64  1  0
 63 62  1  0
 65 64  1  0
 65 74  1  0
 65 66  1  0
 67 61  1  0
 67 66  1  0
 68 61  2  0
 69 70  1  0
 71 72  2  0
 72 91  1  0
 73 72  1  0
 73 76  1  0
 74 75  1  0
 74 71  1  0
 75 73  2  0
 76 77  1  0
 77 78  2  0
 79 82  1  0
 79 78  1  0
 80 79  2  0
 81 80  1  0
 81 76  2  0
 82 83  1  0
 83 84  1  0
 84 85  2  0
 86 85  1  0
 86 90  1  0
 87 86  2  0
 88 83  2  0
 88 87  1  0
 89 88  1  0
 91 92  1  0
 92 95  1  0
 92 94  1  0
 93 91  2  0
 96 71  1  0
 96 97  1  0
 98 96  1  0
M  ISO  4  11 101  12 101  61 100  69 100
M  END
>  <TORSDO>  (43) 
F 21

>  <SCORE>  (43) 
-11.791

>  <name>  (43) 
42

>  <ligand_id>  (43) 
42

>  <original_smiles>  (43) 
[H]c1c([H])c([H])c2c(c1[H])C([H])([H])C([H])([H])C([H])([H])C2([H])N([H])C(=O)C1([H])N(C(=O)C([H])(N([H])C(=O)C([H])(N([H])C([H])([H])[H])C([H])([H])[H])C(C([H])([H])[H])(C([H])([H])[H])C([H])([H])[H])C([H])([H])c2c([H])c(OC3([H])C([H])([H])C([H])([H])C([H])(C4([H])C([H])(C([H])(C([H])([H])[H])C([H])([H])[H])C([H])([H])C([H])([H])C4([H])[N+]([H])([H])C([H])([H])C([H])([H])N([H])C(=O)N4C([H])([H])C([H])([H])C([H])([H])C([H])(n5nc(-c6c([H])c([H])c(Oc7c([H])c([H])c(F)c([H])c7F)c([H])c6[H])c(C(=O)N([H])[H])c5N([H])[H])C4([H])[H])C([H])([H])C3([H])[H])c([H])c([H])c2C1([H])[H]

>  <smiles>  (43) 
[H]c1c([H])c([H])c2c(c1[H])C([H])([H])C([H])([H])C([H])([H])C2([H])N([H])C(=O)C1([H])N(C(=O)C([H])(N([H])C(=O)C([H])(N([H])C([H])([H])[H])C([H])([H])[H])C(C([H])([H])[H])(C([H])([H])[H])C([H])([H])[H])C([H])([H])c2c([H])c(OC3([H])C([H])([H])C([H])([H])C([H])(C4([H])C([H])(C([H])(C([H])([H])[H])C([H])([H])[H])C([H])([H])C([H])([H])C4([H])[N+]([H])([H])C([H])([H])C([H])([H])N([H])C(=O)N4C([H])([H])C([H])([H])C([H])([H])C([H])(n5nc(-c6c([H])c([H])c(Oc7c([H])c([H])c(F)c([H])c7F)c([H])c6[H])c(C(=O)N([H])[H])c5N([H])[H])C4([H])[H])C([H])([H])C3([H])[H])c([H])c([H])c2C1([H])[H]

$$$$
43:0:0
     RDKit          3D

 94102  0  0  1  0  0  0  0  0999 V2000
  -29.6580  -21.5300   21.1250 C   0  0  0  0  0  2  0  0  0  0  0  0
  -30.0120  -20.3090   22.0040 C   0  0  0  0  0  0  0  0  0  0  0  0
  -31.7120  -17.2650   21.7900 C   0  0  0  0  0  2  0  0  0  0  0  0
  -31.0690  -18.0620   19.4460 C   0  0  0  0  0  2  0  0  0  0  0  0
  -30.3760  -17.8650   22.2720 C   0  0  0  0  0  2  0  0  0  0  0  0
  -29.8010  -18.6910   20.0700 C   0  0  0  0  0  2  0  0  0  0  0  0
  -31.6850  -16.9110   20.2870 C   0  0  0  0  0  3  0  0  0  0  0  0
  -30.0530  -19.0570   21.4710 N   0  0  0  0  0  0  0  0  0  0  0  0
  -30.2550  -20.5030   23.2010 O   0  0  0  0  0  0  0  0  0  0  0  0
  -31.5380  -14.5670   19.3960 C   0  0  0  0  0  0  0  0  0  0  0  0
  -31.0950  -12.2820   18.5700 C   0  0  0  0  0  2  0  0  0  0  0  0
  -30.0630  -12.3080   17.4260 C   0  0  0  0  0  2  0  0  0  0  0  0
  -28.6270  -12.2750   17.9820 C   0  0  0  0  0  2  0  0  0  0  0  0
  -28.3970  -13.3180   19.1080 C   0  0  0  0  0  3  0  0  0  0  0  0
  -29.5260  -13.2440   20.1590 C   0  0  0  0  0  2  0  0  0  0  0  0
  -30.8120  -13.4200   19.4600 N   0  0  0  0  0  0  0  0  0  0  0  0
  -32.5750  -14.6720   18.7340 O   0  0  0  0  0  0  0  0  0  0  0  0
  -31.0340  -15.6100   20.0770 N   0  0  0  0  0  0  0  0  0  0  0  0
  -30.1700  -15.4420   20.5680 H   0  0  0  0  0  0  0  0  0  0  0  0
  -26.1510  -14.1320   20.0680 C   0  0  0  0  0  0  0  0  0  0  0  0
  -25.0560  -13.4550   20.5330 C   0  0  0  0  0  0  0  0  0  0  0  0
  -25.3790  -12.0670   20.4330 C   0  0  0  0  0  0  0  0  0  0  0  0
  -27.0780  -13.1620   19.7180 N   0  0  0  0  0  0  0  0  0  0  0  0
  -26.6210  -11.9140   19.9920 N   0  0  0  0  0  0  0  0  0  0  0  0
  -24.5570  -10.8740   20.6770 C   0  0  0  0  0  0  0  0  0  0  0  0
  -24.9300   -9.9050   21.6350 C   0  0  0  0  0  3  0  0  0  0  0  0
  -24.1150   -8.7760   21.8640 C   0  0  0  0  0  3  0  0  0  0  0  0
  -22.9130   -8.6080   21.1360 C   0  0  0  0  0  0  0  0  0  0  0  0
  -22.5590   -9.5640   20.1670 C   0  0  0  0  0  3  0  0  0  0  0  0
  -23.3740  -10.6840   19.9370 C   0  0  0  0  0  3  0  0  0  0  0  0
  -22.0720   -7.5310   21.2740 O   0  0  0  0  0  0  0  0  0  0  0  0
  -21.8950   -6.9050   22.4820 C   0  0  0  0  0  0  0  0  0  0  0  0
  -21.4370   -7.6020   23.6220 C   0  0  0  0  0  3  0  0  0  0  0  0
  -21.2030   -6.9060   24.8240 C   0  0  0  0  0  3  0  0  0  0  0  0
  -21.4150   -5.5160   24.8880 C   0  0  0  0  0  0  0  0  0  0  0  0
  -21.8660   -4.8200   23.7520 C   0  0  0  0  0  3  0  0  0  0  0  0
  -22.1020   -5.5120   22.5520 C   0  0  0  0  0  0  0  0  0  0  0  0
  -22.5160   -4.8340   21.4550 F   0  0  0  0  0  0  0  0  0  0  0  0
  -21.1830   -4.8460   26.0410 F   0  0  0  0  0  0  0  0  0  0  0  0
  -23.7470  -14.0540   20.9580 C   0  0  0  0  0  0  0  0  0  0  0  0
  -23.0600  -13.4210   21.9040 N   0  0  0  0  0  0  0  0  0  0  0  0
  -23.3470  -15.1170   20.4850 O   0  0  0  0  0  0  0  0  0  0  0  0
  -23.3990  -12.5600   22.3070 H   0  0  0  0  0  0  0  0  0  0  0  0
  -22.1860  -13.8050   22.2310 H   0  0  0  0  0  0  0  0  0  0  0  0
  -26.4300  -15.4850   19.8970 N   0  0  0  0  0  0  0  0  0  0  0  0
  -25.7460  -16.2070   20.0920 H   0  0  0  0  0  0  0  0  0  0  0  0
  -27.2810  -15.8460   19.4850 H   0  0  0  0  0  0  0  0  0  0  0  0
  -29.3480  -22.8060   21.9590 C   0  0  0  0  0  2  0  0  0  0  0  0
  -29.3150  -24.0710   21.1770 N   0  0  0  0  0  4  0  0  0  0  0  0
  -28.6580  -23.9840   20.4140 H   0  0  0  0  0  0  0  0  0  0  0  0
  -30.2260  -24.2280   20.7730 H   0  0  0  0  0  0  0  0  0  0  0  0
  -28.9390  -25.2590   21.9960 C   0  0  0  0  0  2  0  0  0  0  0  0
  -29.2960  -26.6100   21.3360 C   0  0  0  0  0  2  0  0  0  0  0  0
  -28.5430  -26.8150   20.1370 O   0  0  0  0  0  0  0  0  0  0  0  0
  -24.6390  -31.9570   23.2440 C   0  0  0  0  0  0  0  0  0  0  0  0
  -27.3870  -27.5620   20.2080 C   0  0  0  0  0  0  0  0  0  0  0  0
  -23.4650  -30.5310   21.5950 C   0  0  0  0  0  3  0  0  0  0  0  0
  -24.9580  -29.0090   20.1920 C   0  0  0  0  0  0  0  0  0  0  0  0
  -25.9820  -30.9360   21.4120 C   0  0  0  0  0  2  0  0  0  0  0  0
  -26.0980  -29.5600   20.7900 C   0  0  0  0  0  0  0  0  0  0  0  0
  -27.3150  -28.8450   20.8020 C   0  0  0  0  0  3  0  0  0  0  0  0
  -26.2370  -27.0280   19.5950 C   0  0  0  0  0  3  0  0  0  0  0  0
  -25.0200  -27.7390   19.5930 C   0  0  0  0  0  3  0  0  0  0  0  0
  -23.6970  -29.8460   20.2200 C   0  0  0  0  0  2  0  0  0  0  0  0
  -24.7120  -31.1570   22.1420 N   0  0  0  0  0  0  0  0  0  0  0  0
  -23.5520  -32.2140   23.7770 O   0  0  0  0  0  0  0  0  0  0  0  0
  -22.8250  -29.5030   22.5550 C   0  0  0  0  0  0  0  0  0  0  0  0
  -21.5140  -29.2690   22.3920 N   0  0  0  0  0  0  0  0  0  0  0  0
  -23.5080  -28.9170   23.3990 O   0  0  0  0  0  0  0  0  0  0  0  0
  -21.0240  -29.7940   21.6820 H   0  0  0  0  0  0  0  0  0  0  0  0
  -18.1810  -27.9290   22.7760 C   0  0  0  0  0  0  0  0  0  0  0  0
  -20.7090  -28.3150   23.1540 C   0  0  0  0  0  3  0  0  0  0  0  0
  -20.9050  -26.8750   22.6240 C   0  0  0  0  0  2  0  0  0  0  0  0
  -19.8660  -26.4740   21.5720 C   0  0  0  0  0  2  0  0  0  0  0  0
  -18.4500  -26.5710   22.1500 C   0  0  0  0  0  2  0  0  0  0  0  0
  -19.2430  -28.7540   23.2330 C   0  0  0  0  0  0  0  0  0  0  0  0
  -18.9400  -30.0230   23.7740 C   0  0  0  0  0  3  0  0  0  0  0  0
  -17.6090  -30.4670   23.8660 C   0  0  0  0  0  3  0  0  0  0  0  0
  -16.5600  -29.6400   23.4280 C   0  0  0  0  0  3  0  0  0  0  0  0
  -16.8470  -28.3720   22.8880 C   0  0  0  0  0  3  0  0  0  0  0  0
  -25.9130  -32.6070   23.8690 C   0  0  0  0  0  3  0  0  0  0  0  0
  -25.5870  -34.0040   24.1870 N   0  0  0  0  0  0  0  0  0  0  0  0
  -25.9180  -35.0530   23.4230 C   0  0  0  0  0  0  0  0  0  0  0  0
  -26.6020  -34.9500   22.4020 O   0  0  0  0  0  0  0  0  0  0  0  0
  -24.9820  -34.1570   24.9790 H   0  0  0  0  0  0  0  0  0  0  0  0
  -24.1710  -36.8190   23.0320 C   0  0  0  0  0  1  0  0  0  0  0  0
  -25.4070  -36.4390   23.8620 C   0  0  0  0  0  3  0  0  0  0  0  0
  -27.5230  -37.3560   24.7060 C   0  0  0  0  0  1  0  0  0  0  0  0
  -26.4280  -37.5040   23.7510 N   0  0  0  0  0  0  0  0  0  0  0  0
  -26.0090  -38.4190   23.8890 H   0  0  0  0  0  0  0  0  0  0  0  0
  -26.4340  -31.8490   25.1510 C   0  0  1  0  0  0  0  0  0  0  0  0
  -25.3330  -31.5800   26.2030 C   0  0  0  0  0  1  0  0  0  0  0  0
  -27.0600  -30.4880   24.7620 C   0  0  0  0  0  1  0  0  0  0  0  0
  -27.5520  -32.6720   25.8320 C   0  0  0  0  0  1  0  0  0  0  0  0
  1 48  1  0
  1  2  1  0
  2  9  2  0
  3  5  1  0
  4  6  1  0
  4  7  1  0
  6  8  1  0
  7 18  1  0
  7  3  1  0
  8  2  1  0
  8  5  1  0
 10 16  1  0
 10 18  1  0
 11 16  1  0
 12 13  1  0
 12 11  1  0
 14 13  1  0
 14 23  1  0
 14 15  1  0
 16 15  1  0
 17 10  2  0
 18 19  1  0
 20 21  2  0
 21 40  1  0
 22 21  1  0
 22 25  1  0
 23 24  1  0
 23 20  1  0
 24 22  2  0
 25 26  1  0
 26 27  2  0
 28 31  1  0
 28 27  1  0
 29 28  2  0
 30 29  1  0
 30 25  2  0
 31 32  1  0
 32 37  2  0
 32 33  1  0
 33 34  2  0
 34 35  1  0
 35 39  1  0
 36 35  2  0
 37 36  1  0
 38 37  1  0
 40 41  1  0
 41 44  1  0
 41 43  1  0
 42 40  2  0
 45 20  1  0
 45 46  1  0
 47 45  1  0
 49 48  1  0
 49 52  1  0
 50 49  1  0
 51 49  1  0
 53 52  1  0
 54 56  1  0
 54 53  1  0
 55 66  2  0
 56 61  1  0
 57 65  1  0
 57 67  1  0
 58 64  1  0
 58 60  1  0
 59 65  1  0
 60 61  2  0
 60 59  1  0
 62 56  2  0
 63 62  1  0
 63 58  2  0
 64 57  1  0
 65 55  1  0
 67 69  2  0
 68 67  1  0
 70 68  1  0
 71 80  2  0
 71 76  1  0
 72 68  1  0
 72 76  1  0
 73 72  1  0
 74 75  1  0
 74 73  1  0
 75 71  1  0
 76 77  2  0
 77 78  1  0
 79 78  2  0
 80 79  1  0
 81 55  1  0
 81 82  1  0
 81 91  1  0
 82 85  1  0
 83 87  1  0
 83 82  1  0
 84 83  2  0
 87 86  1  0
 89 87  1  0
 89 90  1  0
 89 88  1  0
 91 94  1  1
 91 92  1  0
 93 91  1  0
M  ISO  4  10 100  18 100  53 101  54 101
M  END
>  <TORSDO>  (44) 
F 21

>  <SCORE>  (44) 
-11.407

>  <name>  (44) 
43

>  <ligand_id>  (44) 
43

>  <original_smiles>  (44) 
[H]c1c([H])c([H])c2c(c1[H])C([H])([H])C([H])([H])C([H])([H])C2([H])N([H])C(=O)C1([H])N(C(=O)C([H])(N([H])C(=O)C([H])(N([H])C([H])([H])[H])C([H])([H])[H])C(C([H])([H])[H])(C([H])([H])[H])C([H])([H])[H])C([H])([H])c2c([H])c(OC([H])([H])C([H])([H])[N+]([H])([H])C([H])([H])C([H])([H])C(=O)N3C([H])([H])C([H])([H])C([H])(N([H])C(=O)N4C([H])([H])C([H])([H])C([H])([H])C([H])(n5nc(-c6c([H])c([H])c(Oc7c([H])c([H])c(F)c([H])c7F)c([H])c6[H])c(C(=O)N([H])[H])c5N([H])[H])C4([H])[H])C([H])([H])C3([H])[H])c([H])c([H])c2C1([H])[H]

>  <smiles>  (44) 
[H]c1c([H])c([H])c2c(c1[H])C([H])([H])C([H])([H])C([H])([H])C2([H])N([H])C(=O)C1([H])N(C(=O)C([H])(N([H])C(=O)C([H])(N([H])C([H])([H])[H])C([H])([H])[H])C(C([H])([H])[H])(C([H])([H])[H])C([H])([H])[H])C([H])([H])c2c([H])c(OC([H])([H])C([H])([H])[N+]([H])([H])C([H])([H])C([H])([H])C(=O)N3C([H])([H])C([H])([H])C([H])(N([H])C(=O)N4C([H])([H])C([H])([H])C([H])([H])C([H])(n5nc(-c6c([H])c([H])c(Oc7c([H])c([H])c(F)c([H])c7F)c([H])c6[H])c(C(=O)N([H])[H])c5N([H])[H])C4([H])[H])C([H])([H])C3([H])[H])c([H])c([H])c2C1([H])[H]

$$$$
44:0:0
     RDKit          3D

 90 98  0  0  1  0  0  0  0  0999 V2000
  -29.9120  -19.7890   18.8170 C   0  0  0  0  0  3  0  0  0  0  0  0
  -30.0460  -18.5650   18.1460 C   0  0  0  0  0  3  0  0  0  0  0  0
  -29.7500  -18.5660   20.9150 C   0  0  0  0  0  3  0  0  0  0  0  0
  -29.7280  -19.8370   20.2110 C   0  0  0  0  0  0  0  0  0  0  0  0
  -30.0290  -17.3320   18.8300 C   0  0  0  0  0  0  0  0  0  0  0  0
  -29.9310  -17.2860   20.2520 C   0  0  0  0  0  0  0  0  0  0  0  0
  -30.0400  -16.0870   17.9650 C   0  0  0  0  0  1  0  0  0  0  0  0
  -30.7010  -14.8800   20.8410 C   0  0  0  0  0  0  0  0  0  0  0  0
  -30.6470  -12.5460   19.9750 C   0  0  0  0  0  2  0  0  0  0  0  0
  -29.8160  -12.5000   18.6730 C   0  0  0  0  0  2  0  0  0  0  0  0
  -28.3100  -12.3650   18.9740 C   0  0  0  0  0  2  0  0  0  0  0  0
  -27.8180  -13.3020   20.1110 C   0  0  0  0  0  3  0  0  0  0  0  0
  -28.7790  -13.2900   21.3200 C   0  0  0  0  0  2  0  0  0  0  0  0
  -30.1180  -13.6370   20.8250 N   0  0  0  0  0  0  0  0  0  0  0  0
  -31.9040  -15.0070   20.5940 O   0  0  0  0  0  0  0  0  0  0  0  0
  -29.8770  -15.9840   20.9560 N   0  0  0  0  0  0  0  0  0  0  0  0
  -28.9890  -15.7810   21.3890 H   0  0  0  0  0  0  0  0  0  0  0  0
  -25.3640  -13.8540   20.6310 C   0  0  0  0  0  0  0  0  0  0  0  0
  -24.2900  -13.0630   20.9410 C   0  0  0  0  0  0  0  0  0  0  0  0
  -24.7880  -11.7250   20.9890 C   0  0  0  0  0  0  0  0  0  0  0  0
  -26.4450  -12.9970   20.5040 N   0  0  0  0  0  0  0  0  0  0  0  0
  -26.0990  -11.7130   20.7840 N   0  0  0  0  0  0  0  0  0  0  0  0
  -24.0790  -10.4500   21.1600 C   0  0  0  0  0  0  0  0  0  0  0  0
  -24.4620   -9.5180   22.1510 C   0  0  0  0  0  3  0  0  0  0  0  0
  -23.7540   -8.3070   22.3080 C   0  0  0  0  0  3  0  0  0  0  0  0
  -22.6460   -8.0190   21.4740 C   0  0  0  0  0  0  0  0  0  0  0  0
  -22.2840   -8.9390   20.4740 C   0  0  0  0  0  3  0  0  0  0  0  0
  -22.9940  -10.1410   20.3150 C   0  0  0  0  0  3  0  0  0  0  0  0
  -21.9150   -6.8580   21.5380 O   0  0  0  0  0  0  0  0  0  0  0  0
  -21.7920   -6.1480   22.7050 C   0  0  0  0  0  0  0  0  0  0  0  0
  -21.2430   -6.7230   23.8730 C   0  0  0  0  0  3  0  0  0  0  0  0
  -21.0710   -5.9370   25.0300 C   0  0  0  0  0  3  0  0  0  0  0  0
  -21.4360   -4.5770   25.0200 C   0  0  0  0  0  0  0  0  0  0  0  0
  -21.9780   -4.0030   23.8560 C   0  0  0  0  0  3  0  0  0  0  0  0
  -22.1520   -4.7860   22.7010 C   0  0  0  0  0  0  0  0  0  0  0  0
  -22.6540   -4.2210   21.5770 F   0  0  0  0  0  0  0  0  0  0  0  0
  -21.2640   -3.8210   26.1280 F   0  0  0  0  0  0  0  0  0  0  0  0
  -22.8650  -13.5110   21.0860 C   0  0  0  0  0  0  0  0  0  0  0  0
  -22.0860  -12.8170   21.9100 N   0  0  0  0  0  0  0  0  0  0  0  0
  -22.4460  -14.5110   20.5060 O   0  0  0  0  0  0  0  0  0  0  0  0
  -22.4350  -12.0100   22.4030 H   0  0  0  0  0  0  0  0  0  0  0  0
  -21.1260  -13.1010   22.0500 H   0  0  0  0  0  0  0  0  0  0  0  0
  -25.5080  -15.2230   20.4240 N   0  0  0  0  0  0  0  0  0  0  0  0
  -24.7170  -15.8570   20.4520 H   0  0  0  0  0  0  0  0  0  0  0  0
  -26.3660  -15.6760   20.1380 H   0  0  0  0  0  0  0  0  0  0  0  0
  -29.6100  -21.2650   20.8860 C   0  0  0  0  0  3  0  0  0  0  0  0
  -28.8730  -22.4720   20.1140 C   0  0  0  0  0  3  0  0  0  0  0  0
  -29.1180  -24.0020   20.5430 C   0  0  0  0  0  3  0  0  0  0  0  0
  -28.1560  -25.1080   19.9020 C   0  0  0  0  0  3  0  0  0  0  0  0
  -28.3660  -26.5680   20.1200 O   0  0  0  0  0  0  0  0  0  0  0  0
  -24.5910  -31.8930   23.2140 C   0  0  0  0  0  0  0  0  0  0  0  0
  -27.2510  -27.4290   20.0540 C   0  0  0  0  0  0  0  0  0  0  0  0
  -23.4040  -30.5230   21.5390 C   0  0  0  0  0  3  0  0  0  0  0  0
  -24.8720  -29.0300   20.0730 C   0  0  0  0  0  0  0  0  0  0  0  0
  -25.9410  -30.8700   21.3690 C   0  0  0  0  0  2  0  0  0  0  0  0
  -26.0350  -29.5090   20.6870 C   0  0  0  0  0  0  0  0  0  0  0  0
  -27.2260  -28.7200   20.6720 C   0  0  0  0  0  3  0  0  0  0  0  0
  -26.0660  -27.0190   19.3940 C   0  0  0  0  0  3  0  0  0  0  0  0
  -24.8910  -27.7910   19.4160 C   0  0  0  0  0  3  0  0  0  0  0  0
  -23.6250  -29.8880   20.1420 C   0  0  0  0  0  2  0  0  0  0  0  0
  -24.6630  -31.1120   22.0970 N   0  0  0  0  0  0  0  0  0  0  0  0
  -23.5040  -32.1470   23.7540 O   0  0  0  0  0  0  0  0  0  0  0  0
  -22.7510  -29.4750   22.4730 C   0  0  0  0  0  0  0  0  0  0  0  0
  -21.4230  -29.3040   22.3560 N   0  0  0  0  0  0  0  0  0  0  0  0
  -23.4380  -28.8220   23.2610 O   0  0  0  0  0  0  0  0  0  0  0  0
  -20.9280  -29.8850   21.6940 H   0  0  0  0  0  0  0  0  0  0  0  0
  -18.0480  -28.1070   22.8660 C   0  0  0  0  0  0  0  0  0  0  0  0
  -20.6110  -28.3440   23.1060 C   0  0  0  0  0  3  0  0  0  0  0  0
  -20.6960  -26.9330   22.4780 C   0  0  0  0  0  2  0  0  0  0  0  0
  -19.5770  -26.6520   21.4700 C   0  0  0  0  0  2  0  0  0  0  0  0
  -18.2060  -26.7820   22.1400 C   0  0  0  0  0  2  0  0  0  0  0  0
  -19.1770  -28.8480   23.3060 C   0  0  0  0  0  0  0  0  0  0  0  0
  -18.9740  -30.0900   23.9450 C   0  0  0  0  0  3  0  0  0  0  0  0
  -17.6740  -30.5910   24.1490 C   0  0  0  0  0  3  0  0  0  0  0  0
  -16.5600  -29.8470   23.7260 C   0  0  0  0  0  3  0  0  0  0  0  0
  -16.7470  -28.6070   23.0900 C   0  0  0  0  0  3  0  0  0  0  0  0
  -25.8670  -32.5240   23.8530 C   0  0  0  0  0  3  0  0  0  0  0  0
  -26.3950  -31.7210   25.1040 C   0  0  1  0  0  0  0  0  0  0  0  0
  -25.3080  -31.4370   26.1660 C   0  0  0  0  0  1  0  0  0  0  0  0
  -26.9960  -30.3630   24.6700 C   0  0  0  0  0  1  0  0  0  0  0  0
  -27.5370  -32.5100   25.7880 C   0  0  0  0  0  1  0  0  0  0  0  0
  -25.5380  -33.9070   24.2280 N   0  0  0  0  0  0  0  0  0  0  0  0
  -25.8770  -34.9900   23.5150 C   0  0  0  0  0  0  0  0  0  0  0  0
  -26.5690  -34.9300   22.4960 O   0  0  0  0  0  0  0  0  0  0  0  0
  -24.9250  -34.0270   25.0210 H   0  0  0  0  0  0  0  0  0  0  0  0
  -24.1600  -36.7960   23.1750 C   0  0  0  0  0  1  0  0  0  0  0  0
  -25.3690  -36.3560   24.0150 C   0  0  0  0  0  3  0  0  0  0  0  0
  -27.4680  -37.2060   24.9660 C   0  0  0  0  0  1  0  0  0  0  0  0
  -26.4040  -37.4140   23.9880 N   0  0  0  0  0  0  0  0  0  0  0  0
  -25.9900  -38.3270   24.1590 H   0  0  0  0  0  0  0  0  0  0  0  0
  1  4  1  0
  2  1  2  0
  2  5  1  0
  4 46  1  0
  4  3  2  0
  5  6  2  0
  6  3  1  0
  6 16  1  0
  7  5  1  0
  8 16  1  0
  9 14  1  0
 10 11  1  0
 10  9  1  0
 12 11  1  0
 12 21  1  0
 12 13  1  0
 14  8  1  0
 14 13  1  0
 15  8  2  0
 16 17  1  0
 18 19  2  0
 19 20  1  0
 19 38  1  0
 20 23  1  0
 21 18  1  0
 21 22  1  0
 22 20  2  0
 23 24  1  0
 24 25  2  0
 26 29  1  0
 26 25  1  0
 27 26  2  0
 28 27  1  0
 28 23  2  0
 29 30  1  0
 30 31  1  0
 31 32  2  0
 33 32  1  0
 33 37  1  0
 34 33  2  0
 35 30  2  0
 35 34  1  0
 36 35  1  0
 38 39  1  0
 39 42  1  0
 39 41  1  0
 40 38  2  0
 43 44  1  0
 43 18  1  0
 45 43  1  0
 47 48  1  0
 47 46  2  0
 49 50  1  0
 49 48  2  0
 51 62  2  0
 52 50  1  0
 52 57  1  0
 53 61  1  0
 53 63  1  0
 54 60  1  0
 54 56  1  0
 55 61  1  0
 56 55  1  0
 57 56  2  0
 58 59  1  0
 58 52  2  0
 59 54  2  0
 60 53  1  0
 61 51  1  0
 63 65  2  0
 64 63  1  0
 66 64  1  0
 67 76  2  0
 67 72  1  0
 68 64  1  0
 68 72  1  0
 69 68  1  0
 70 71  1  0
 70 69  1  0
 71 67  1  0
 72 73  2  0
 73 74  1  0
 75 74  2  0
 76 75  1  0
 77 51  1  0
 77 82  1  0
 77 78  1  0
 78 81  1  1
 78 79  1  0
 80 78  1  0
 82 85  1  0
 83 87  1  0
 83 82  1  0
 84 83  2  0
 87 86  1  0
 89 87  1  0
 89 90  1  0
 89 88  1  0
M  ISO  4   8 100  16 100  49 101  50 101
M  END
>  <TORSDO>  (45) 
F 20

>  <SCORE>  (45) 
-12.711

>  <name>  (45) 
44

>  <ligand_id>  (45) 
44

>  <original_smiles>  (45) 
[H]c1c([H])c([H])c2c(c1[H])C([H])([H])C([H])([H])C([H])([H])C2([H])N([H])C(=O)C1([H])N(C(=O)C([H])(N([H])C(=O)C([H])(N([H])C([H])([H])[H])C([H])([H])[H])C(C([H])([H])[H])(C([H])([H])[H])C([H])([H])[H])C([H])([H])c2c([H])c(OC([H])([H])C([H])([H])C([H])([H])C([H])([H])c3c([H])c([H])c(C([H])([H])[H])c(N([H])C(=O)N4C([H])([H])C([H])([H])C([H])([H])C([H])(n5nc(-c6c([H])c([H])c(Oc7c([H])c([H])c(F)c([H])c7F)c([H])c6[H])c(C(=O)N([H])[H])c5N([H])[H])C4([H])[H])c3[H])c([H])c([H])c2C1([H])[H]

>  <smiles>  (45) 
[H]c1c([H])c([H])c2c(c1[H])C([H])([H])C([H])([H])C([H])([H])C2([H])N([H])C(=O)C1([H])N(C(=O)C([H])(N([H])C(=O)C([H])(N([H])C([H])([H])[H])C([H])([H])[H])C(C([H])([H])[H])(C([H])([H])[H])C([H])([H])[H])C([H])([H])c2c([H])c(OC([H])([H])C([H])([H])C([H])([H])C([H])([H])c3c([H])c([H])c(C([H])([H])[H])c(N([H])C(=O)N4C([H])([H])C([H])([H])C([H])([H])C([H])(n5nc(-c6c([H])c([H])c(Oc7c([H])c([H])c(F)c([H])c7F)c([H])c6[H])c(C(=O)N([H])[H])c5N([H])[H])C4([H])[H])c3[H])c([H])c([H])c2C1([H])[H]

$$$$
45:0:0
     RDKit          3D

 93102  0  0  1  0  0  0  0  0999 V2000
  -26.1010  -21.1380   19.1990 C   0  0  0  0  0  2  0  0  0  0  0  0
  -27.3750  -20.8320   18.4020 C   0  0  0  0  0  2  0  0  0  0  0  0
  -26.3470  -22.5820   19.6310 C   0  0  0  0  0  2  0  0  0  0  0  0
  -28.5450  -21.4910   19.1990 C   0  0  0  0  0  3  0  0  0  0  0  0
  -27.8050  -22.5350   20.1510 C   0  0  0  0  0  3  0  0  0  0  0  0
  -29.5300  -20.4030   19.8130 C   0  0  0  0  0  3  0  0  0  0  0  0
  -29.2260  -19.1440   19.9520 N   0  0  0  0  0  2  0  0  0  0  0  0
  -30.9530  -17.8950   21.4440 C   0  0  0  0  0  2  0  0  0  0  0  0
  -30.1980  -18.0230   20.1330 C   0  0  0  0  0  3  0  0  0  0  0  0
  -29.7440  -17.0170   21.2110 C   0  0  0  0  0  3  0  0  0  0  0  0
  -30.5960  -14.6270   20.4840 C   0  0  0  0  0  0  0  0  0  0  0  0
  -30.4120  -12.4460   19.2950 C   0  0  0  0  0  2  0  0  0  0  0  0
  -29.4730  -12.6220   18.0810 C   0  0  0  0  0  2  0  0  0  0  0  0
  -27.9900  -12.4690   18.4910 C   0  0  0  0  0  2  0  0  0  0  0  0
  -27.6350  -13.2810   19.7670 C   0  0  0  0  0  3  0  0  0  0  0  0
  -28.6780  -13.0330   20.8760 C   0  0  0  0  0  2  0  0  0  0  0  0
  -29.9990  -13.4030   20.3400 N   0  0  0  0  0  0  0  0  0  0  0  0
  -31.7030  -14.8860   19.9990 O   0  0  0  0  0  0  0  0  0  0  0  0
  -29.7920  -15.5540   21.0800 N   0  0  0  0  0  0  0  0  0  0  0  0
  -28.9630  -15.1160   21.4520 H   0  0  0  0  0  0  0  0  0  0  0  0
  -25.2260  -13.8960   20.4510 C   0  0  0  0  0  0  0  0  0  0  0  0
  -24.1510  -13.1300   20.8160 C   0  0  0  0  0  0  0  0  0  0  0  0
  -24.6060  -11.7760   20.7940 C   0  0  0  0  0  0  0  0  0  0  0  0
  -26.2730  -13.0100   20.2340 N   0  0  0  0  0  0  0  0  0  0  0  0
  -25.9010  -11.7300   20.4960 N   0  0  0  0  0  0  0  0  0  0  0  0
  -23.8770  -10.5180   20.9960 C   0  0  0  0  0  0  0  0  0  0  0  0
  -24.3000   -9.5610   21.9430 C   0  0  0  0  0  3  0  0  0  0  0  0
  -23.5760   -8.3610   22.1250 C   0  0  0  0  0  3  0  0  0  0  0  0
  -22.4110   -8.1160   21.3620 C   0  0  0  0  0  0  0  0  0  0  0  0
  -22.0030   -9.0620   20.4060 C   0  0  0  0  0  3  0  0  0  0  0  0
  -22.7300  -10.2510   20.2210 C   0  0  0  0  0  3  0  0  0  0  0  0
  -21.6540   -6.9710   21.4550 O   0  0  0  0  0  0  0  0  0  0  0  0
  -21.5940   -6.2430   22.6150 C   0  0  0  0  0  0  0  0  0  0  0  0
  -21.1390   -6.8060   23.8280 C   0  0  0  0  0  3  0  0  0  0  0  0
  -21.0250   -6.0000   24.9790 C   0  0  0  0  0  3  0  0  0  0  0  0
  -21.3540   -4.6330   24.9170 C   0  0  0  0  0  0  0  0  0  0  0  0
  -21.7960   -4.0690   23.7080 C   0  0  0  0  0  3  0  0  0  0  0  0
  -21.9130   -4.8710   22.5580 C   0  0  0  0  0  0  0  0  0  0  0  0
  -22.3240   -4.3170   21.3910 F   0  0  0  0  0  0  0  0  0  0  0  0
  -21.2360   -3.8560   26.0200 F   0  0  0  0  0  0  0  0  0  0  0  0
  -22.7500  -13.6150   21.0700 C   0  0  0  0  0  0  0  0  0  0  0  0
  -22.0070  -12.9290   21.9360 N   0  0  0  0  0  0  0  0  0  0  0  0
  -22.3190  -14.6340   20.5370 O   0  0  0  0  0  0  0  0  0  0  0  0
  -22.3650  -12.1140   22.4120 H   0  0  0  0  0  0  0  0  0  0  0  0
  -21.0650  -13.2360   22.1330 H   0  0  0  0  0  0  0  0  0  0  0  0
  -25.3920  -15.2630   20.2540 N   0  0  0  0  0  0  0  0  0  0  0  0
  -24.6110  -15.9100   20.3120 H   0  0  0  0  0  0  0  0  0  0  0  0
  -26.2470  -15.7010   19.9300 H   0  0  0  0  0  0  0  0  0  0  0  0
  -31.9710  -20.7270   19.0600 C   0  0  0  0  0  1  0  0  0  0  0  0
  -30.9080  -20.9700   20.1410 C   0  0  0  0  0  2  0  0  0  0  0  0
  -28.3560  -23.9830   20.5310 C   0  0  0  0  0  2  0  0  0  0  0  0
  -28.4210  -25.2050   19.5280 C   0  0  0  0  0  2  0  0  0  0  0  0
  -28.3820  -26.5650   20.1190 O   0  0  0  0  0  0  0  0  0  0  0  0
  -24.6020  -31.8970   23.2390 C   0  0  0  0  0  0  0  0  0  0  0  0
  -27.2220  -27.3560   20.1300 C   0  0  0  0  0  0  0  0  0  0  0  0
  -23.3980  -30.4950   21.6040 C   0  0  0  0  0  3  0  0  0  0  0  0
  -24.8450  -28.9510   20.1710 C   0  0  0  0  0  0  0  0  0  0  0  0
  -25.9390  -30.8170   21.4170 C   0  0  0  0  0  2  0  0  0  0  0  0
  -26.0180  -29.4440   20.7610 C   0  0  0  0  0  0  0  0  0  0  0  0
  -27.2050  -28.6540   20.7330 C   0  0  0  0  0  3  0  0  0  0  0  0
  -26.0140  -26.9040   19.5540 C   0  0  0  0  0  3  0  0  0  0  0  0
  -24.8470  -27.6870   19.5690 C   0  0  0  0  0  3  0  0  0  0  0  0
  -23.6060  -29.8210   20.2230 C   0  0  0  0  0  2  0  0  0  0  0  0
  -24.6640  -31.0880   22.1420 N   0  0  0  0  0  0  0  0  0  0  0  0
  -23.5170  -32.1720   23.7760 O   0  0  0  0  0  0  0  0  0  0  0  0
  -22.7440  -29.4740   22.5640 C   0  0  0  0  0  0  0  0  0  0  0  0
  -21.4170  -29.2930   22.4400 N   0  0  0  0  0  0  0  0  0  0  0  0
  -23.4260  -28.8460   23.3760 O   0  0  0  0  0  0  0  0  0  0  0  0
  -20.9220  -29.8510   21.7590 H   0  0  0  0  0  0  0  0  0  0  0  0
  -18.0430  -28.0950   22.9460 C   0  0  0  0  0  0  0  0  0  0  0  0
  -20.6020  -28.3510   23.2090 C   0  0  0  0  0  3  0  0  0  0  0  0
  -20.7010  -26.9220   22.6270 C   0  0  0  0  0  2  0  0  0  0  0  0
  -19.5950  -26.6040   21.6160 C   0  0  0  0  0  2  0  0  0  0  0  0
  -18.2160  -26.7480   22.2650 C   0  0  0  0  0  2  0  0  0  0  0  0
  -19.1640  -28.8540   23.3740 C   0  0  0  0  0  0  0  0  0  0  0  0
  -18.9470  -30.1170   23.9700 C   0  0  0  0  0  3  0  0  0  0  0  0
  -17.6420  -30.6190   24.1420 C   0  0  0  0  0  3  0  0  0  0  0  0
  -16.5370  -29.8540   23.7310 C   0  0  0  0  0  3  0  0  0  0  0  0
  -16.7380  -28.5950   23.1380 C   0  0  0  0  0  3  0  0  0  0  0  0
  -25.8830  -32.5310   23.8600 C   0  0  0  0  0  3  0  0  0  0  0  0
  -25.5700  -33.9300   24.1850 N   0  0  0  0  0  0  0  0  0  0  0  0
  -25.9060  -34.9810   23.4250 C   0  0  0  0  0  0  0  0  0  0  0  0
  -26.5780  -34.8760   22.3960 O   0  0  0  0  0  0  0  0  0  0  0  0
  -24.9660  -34.0830   24.9790 H   0  0  0  0  0  0  0  0  0  0  0  0
  -24.1790  -36.7760   23.0640 C   0  0  0  0  0  1  0  0  0  0  0  0
  -25.4160  -36.3690   23.8800 C   0  0  0  0  0  3  0  0  0  0  0  0
  -27.5500  -37.2570   24.7160 C   0  0  0  0  0  1  0  0  0  0  0  0
  -26.4480  -37.4240   23.7730 N   0  0  0  0  0  0  0  0  0  0  0  0
  -26.0370  -38.3420   23.9220 H   0  0  0  0  0  0  0  0  0  0  0  0
  -26.3970  -31.7640   25.1400 C   0  0  1  0  0  0  0  0  0  0  0  0
  -25.3050  -31.5310   26.2100 C   0  0  0  0  0  1  0  0  0  0  0  0
  -26.9800  -30.3820   24.7590 C   0  0  0  0  0  1  0  0  0  0  0  0
  -27.5480  -32.5600   25.7980 C   0  0  0  0  0  1  0  0  0  0  0  0
  1  3  1  0
  2  4  1  0
  2  1  1  0
  3  5  1  0
  4  6  1  0
  4  5  1  0
  5 51  1  0
  6  7  1  0
  6 50  1  0
  9  7  1  0
  9 10  1  0
  9  8  1  0
 10 19  1  0
 10  8  1  0
 11 19  1  0
 12 17  1  0
 13 14  1  0
 13 12  1  0
 15 14  1  0
 15 24  1  0
 15 16  1  0
 17 11  1  0
 17 16  1  0
 18 11  2  0
 19 20  1  0
 21 22  2  0
 22 41  1  0
 23 22  1  0
 23 26  1  0
 24 21  1  0
 24 25  1  0
 25 23  2  0
 26 27  1  0
 27 28  2  0
 29 32  1  0
 29 28  1  0
 30 29  2  0
 31 30  1  0
 31 26  2  0
 32 33  1  0
 33 34  1  0
 34 35  2  0
 36 35  1  0
 36 40  1  0
 37 36  2  0
 38 33  2  0
 38 37  1  0
 39 38  1  0
 41 42  1  0
 42 45  1  0
 42 44  1  0
 43 41  2  0
 46 47  1  0
 46 21  1  0
 48 46  1  0
 49 50  1  0
 52 53  1  0
 52 51  1  0
 53 55  1  0
 54 65  2  0
 55 60  1  0
 56 64  1  0
 56 66  1  0
 57 63  1  0
 57 59  1  0
 58 64  1  0
 59 58  1  0
 60 59  2  0
 61 62  1  0
 61 55  2  0
 62 57  2  0
 63 56  1  0
 64 54  1  0
 66 68  2  0
 67 66  1  0
 69 67  1  0
 70 79  2  0
 70 75  1  0
 71 67  1  0
 71 75  1  0
 72 71  1  0
 73 74  1  0
 73 72  1  0
 74 70  1  0
 75 76  2  0
 76 77  1  0
 78 77  2  0
 79 78  1  0
 80 54  1  0
 80 81  1  0
 80 90  1  0
 81 84  1  0
 82 86  1  0
 82 81  1  0
 83 82  2  0
 86 85  1  0
 88 86  1  0
 88 89  1  0
 88 87  1  0
 90 93  1  1
 90 91  1  0
 92 90  1  0
M  ISO  4  11 100  19 100  52 101  53 101
M  END
>  <TORSDO>  (46) 
F 21

>  <SCORE>  (46) 
-13.389

>  <name>  (46) 
45

>  <ligand_id>  (46) 
45

>  <original_smiles>  (46) 
[H]c1c([H])c([H])c2c(c1[H])C([H])([H])C([H])([H])C([H])([H])C2([H])N([H])C(=O)C1([H])N(C(=O)C([H])(N([H])C(=O)C([H])(N([H])C([H])([H])[H])C([H])([H])[H])C(C([H])([H])[H])(C([H])([H])[H])C([H])([H])[H])C([H])([H])c2c([H])c(OC([H])([H])C([H])([H])C3([H])C([H])([H])C([H])([H])C([H])([H])C3([H])C(=NC3([H])C([H])([H])C3([H])N([H])C(=O)N3C([H])([H])C([H])([H])C([H])([H])C([H])(n4nc(-c5c([H])c([H])c(Oc6c([H])c([H])c(F)c([H])c6F)c([H])c5[H])c(C(=O)N([H])[H])c4N([H])[H])C3([H])[H])C([H])([H])C([H])([H])[H])c([H])c([H])c2C1([H])[H]

>  <smiles>  (46) 
[H]c1c([H])c([H])c2c(c1[H])C([H])([H])C([H])([H])C([H])([H])C2([H])N([H])C(=O)C1([H])N(C(=O)C([H])(N([H])C(=O)C([H])(N([H])C([H])([H])[H])C([H])([H])[H])C(C([H])([H])[H])(C([H])([H])[H])C([H])([H])[H])C([H])([H])c2c([H])c(OC([H])([H])C([H])([H])C3([H])C([H])([H])C([H])([H])C([H])([H])C3([H])C(=NC3([H])C([H])([H])C3([H])N([H])C(=O)N3C([H])([H])C([H])([H])C([H])([H])C([H])(n4nc(-c5c([H])c([H])c(Oc6c([H])c([H])c(F)c([H])c6F)c([H])c5[H])c(C(=O)N([H])[H])c4N([H])[H])C3([H])[H])C([H])([H])C([H])([H])[H])c([H])c([H])c2C1([H])[H]

$$$$
46:0:0
     RDKit          3D

 91 99  0  0  1  0  0  0  0  0999 V2000
  -28.4650  -20.9500   18.2290 C   0  0  0  0  0  2  0  0  0  0  0  0
  -27.6390  -22.2610   18.2650 C   0  0  0  0  0  3  0  0  0  0  0  0
  -28.5470  -22.7860   19.3920 C   0  0  0  0  0  3  0  0  0  0  0  0
  -29.1420  -21.1910   19.5210 N   0  0  1  0  0  4  0  0  0  0  0  0
  -30.1290  -21.3030   19.3420 H   0  0  0  0  0  0  0  0  0  0  0  0
  -25.4230  -21.1450   17.4920 C   0  0  0  0  0  1  0  0  0  0  0  0
  -26.0940  -22.2590   18.3320 C   0  0  0  0  0  3  0  0  0  0  0  0
  -25.6700  -22.1570   19.6740 O   0  0  0  0  0  0  0  0  0  0  0  0
  -25.1130  -21.3900   19.7500 H   0  0  0  0  0  0  0  0  0  0  0  0
  -28.1390  -24.2540   20.3470 C   0  0  0  0  0  2  0  0  0  0  0  0
  -28.2470  -25.8960   20.0990 O   0  0  0  0  0  0  0  0  0  0  0  0
  -24.6650  -31.8560   23.1980 C   0  0  0  0  0  0  0  0  0  0  0  0
  -27.2100  -26.9660   20.1600 C   0  0  0  0  0  0  0  0  0  0  0  0
  -23.4670  -30.4580   21.5670 C   0  0  0  0  0  3  0  0  0  0  0  0
  -24.9030  -28.8360   20.1620 C   0  0  0  0  0  0  0  0  0  0  0  0
  -26.0320  -30.6670   21.4050 C   0  0  0  0  0  2  0  0  0  0  0  0
  -26.1040  -29.2530   20.7510 C   0  0  0  0  0  0  0  0  0  0  0  0
  -27.2570  -28.3450   20.7120 C   0  0  0  0  0  3  0  0  0  0  0  0
  -25.9580  -26.6800   19.5810 C   0  0  0  0  0  3  0  0  0  0  0  0
  -24.8490  -27.5630   19.5700 C   0  0  0  0  0  3  0  0  0  0  0  0
  -23.6920  -29.7630   20.1990 C   0  0  0  0  0  2  0  0  0  0  0  0
  -24.7450  -31.0220   22.1100 N   0  0  0  0  0  0  0  0  0  0  0  0
  -23.5770  -32.1480   23.7230 O   0  0  0  0  0  0  0  0  0  0  0  0
  -22.7800  -29.4660   22.5410 C   0  0  0  0  0  0  0  0  0  0  0  0
  -21.4520  -29.2950   22.4220 N   0  0  0  0  0  0  0  0  0  0  0  0
  -23.4480  -28.8440   23.3720 O   0  0  0  0  0  0  0  0  0  0  0  0
  -20.9650  -29.8410   21.7280 H   0  0  0  0  0  0  0  0  0  0  0  0
  -18.0800  -28.0730   22.9270 C   0  0  0  0  0  0  0  0  0  0  0  0
  -20.6380  -28.3580   23.2010 C   0  0  0  0  0  3  0  0  0  0  0  0
  -20.7550  -26.9190   22.6450 C   0  0  0  0  0  2  0  0  0  0  0  0
  -19.6690  -26.5870   21.6160 C   0  0  0  0  0  2  0  0  0  0  0  0
  -18.2730  -26.7290   22.2380 C   0  0  0  0  0  2  0  0  0  0  0  0
  -19.1920  -28.8440   23.3630 C   0  0  0  0  0  0  0  0  0  0  0  0
  -18.9570  -30.1030   23.9610 C   0  0  0  0  0  3  0  0  0  0  0  0
  -17.6470  -30.5860   24.1360 C   0  0  0  0  0  3  0  0  0  0  0  0
  -16.5520  -29.8090   23.7210 C   0  0  0  0  0  3  0  0  0  0  0  0
  -16.7690  -28.5560   23.1190 C   0  0  0  0  0  3  0  0  0  0  0  0
  -25.9350  -32.5060   23.8230 C   0  0  0  0  0  3  0  0  0  0  0  0
  -25.6130  -33.9080   24.1460 N   0  0  0  0  0  0  0  0  0  0  0  0
  -25.9530  -34.9720   23.4020 C   0  0  0  0  0  0  0  0  0  0  0  0
  -26.6360  -34.8700   22.3790 O   0  0  0  0  0  0  0  0  0  0  0  0
  -25.0090  -34.0540   24.9410 H   0  0  0  0  0  0  0  0  0  0  0  0
  -24.2450  -36.7870   23.0410 C   0  0  0  0  0  1  0  0  0  0  0  0
  -25.4680  -36.3610   23.8680 C   0  0  0  0  0  3  0  0  0  0  0  0
  -27.5890  -37.2360   24.7450 C   0  0  0  0  0  1  0  0  0  0  0  0
  -26.5050  -37.4110   23.7830 N   0  0  0  0  0  0  0  0  0  0  0  0
  -26.1000  -38.3310   23.9280 H   0  0  0  0  0  0  0  0  0  0  0  0
  -26.4440  -31.7550   25.1160 C   0  0  1  0  0  0  0  0  0  0  0  0
  -25.3440  -31.5400   26.1820 C   0  0  0  0  0  1  0  0  0  0  0  0
  -27.0250  -30.3670   24.7580 C   0  0  0  0  0  1  0  0  0  0  0  0
  -27.5880  -32.5620   25.7760 C   0  0  0  0  0  1  0  0  0  0  0  0
  -29.0520  -19.7570   20.3600 C   0  0  0  0  0  3  0  0  0  0  0  0
  -29.6720  -18.1440   19.7890 C   0  0  0  0  0  3  0  0  0  0  0  0
  -30.4030  -15.3080   20.2360 C   0  0  0  0  0  0  0  0  0  0  0  0
  -30.3990  -12.8480   19.4070 C   0  0  0  0  0  2  0  0  0  0  0  0
  -29.4830  -12.6850   18.1660 C   0  0  0  0  0  2  0  0  0  0  0  0
  -28.0200  -12.4520   18.5780 C   0  0  0  0  0  2  0  0  0  0  0  0
  -27.5910  -13.3830   19.7380 C   0  0  0  0  0  3  0  0  0  0  0  0
  -28.6370  -13.4740   20.8710 C   0  0  0  0  0  2  0  0  0  0  0  0
  -29.8690  -13.9870   20.2480 N   0  0  0  0  0  0  0  0  0  0  0  0
  -31.6080  -15.3320   19.9460 O   0  0  0  0  0  0  0  0  0  0  0  0
  -29.6180  -16.5630   20.3510 N   0  0  0  0  0  0  0  0  0  0  0  0
  -28.7200  -16.3550   20.7690 H   0  0  0  0  0  0  0  0  0  0  0  0
  -25.2090  -13.9460   20.4400 C   0  0  0  0  0  0  0  0  0  0  0  0
  -24.1420  -13.1670   20.7990 C   0  0  0  0  0  0  0  0  0  0  0  0
  -24.6130  -11.8180   20.7850 C   0  0  0  0  0  0  0  0  0  0  0  0
  -26.2540  -13.0720   20.2210 N   0  0  0  0  0  0  0  0  0  0  0  0
  -25.9060  -11.7850   20.4920 N   0  0  0  0  0  0  0  0  0  0  0  0
  -23.8890  -10.5500   20.9680 C   0  0  0  0  0  0  0  0  0  0  0  0
  -24.3030   -9.5870   21.9150 C   0  0  0  0  0  3  0  0  0  0  0  0
  -23.5680   -8.3920   22.0890 C   0  0  0  0  0  3  0  0  0  0  0  0
  -22.4050   -8.1530   21.3220 C   0  0  0  0  0  0  0  0  0  0  0  0
  -22.0200   -9.0990   20.3580 C   0  0  0  0  0  3  0  0  0  0  0  0
  -22.7540  -10.2830   20.1780 C   0  0  0  0  0  3  0  0  0  0  0  0
  -21.6440   -7.0130   21.4120 O   0  0  0  0  0  0  0  0  0  0  0  0
  -21.5690   -6.2880   22.5740 C   0  0  0  0  0  0  0  0  0  0  0  0
  -21.1000   -6.8580   23.7800 C   0  0  0  0  0  3  0  0  0  0  0  0
  -20.9670   -6.0560   24.9320 C   0  0  0  0  0  3  0  0  0  0  0  0
  -21.2960   -4.6910   24.8810 C   0  0  0  0  0  0  0  0  0  0  0  0
  -21.7620   -4.1220   23.6840 C   0  0  0  0  0  3  0  0  0  0  0  0
  -21.8930   -4.9170   22.5330 C   0  0  0  0  0  0  0  0  0  0  0  0
  -22.3200   -4.3570   21.3740 F   0  0  0  0  0  0  0  0  0  0  0  0
  -21.1620   -3.9190   25.9890 F   0  0  0  0  0  0  0  0  0  0  0  0
  -22.7380  -13.6370   21.0450 C   0  0  0  0  0  0  0  0  0  0  0  0
  -21.9970  -12.9360   21.9000 N   0  0  0  0  0  0  0  0  0  0  0  0
  -22.3050  -14.6550   20.5110 O   0  0  0  0  0  0  0  0  0  0  0  0
  -22.3570  -12.1030   22.3450 H   0  0  0  0  0  0  0  0  0  0  0  0
  -21.0520  -13.2310   22.1060 H   0  0  0  0  0  0  0  0  0  0  0  0
  -25.3820  -15.3140   20.2510 N   0  0  0  0  0  0  0  0  0  0  0  0
  -24.6410  -15.9940   20.3740 H   0  0  0  0  0  0  0  0  0  0  0  0
  -26.2300  -15.7380   19.8970 H   0  0  0  0  0  0  0  0  0  0  0  0
  1  2  1  0
  1  4  1  0
  2  7  1  0
  2  3  1  0
  3  4  1  0
  3 10  1  0
  4 52  1  0
  4  5  1  6
  7  6  1  0
  7  8  1  0
  8  9  1  0
 11 13  1  0
 11 10  1  0
 12 23  2  0
 13 18  1  0
 14 22  1  0
 14 24  1  0
 15 21  1  0
 15 17  1  0
 16 22  1  0
 17 16  1  0
 18 17  2  0
 19 13  2  0
 20 19  1  0
 20 15  2  0
 21 14  1  0
 22 12  1  0
 24 26  2  0
 25 24  1  0
 27 25  1  0
 28 37  2  0
 28 33  1  0
 29 25  1  0
 29 33  1  0
 30 29  1  0
 31 32  1  0
 31 30  1  0
 32 28  1  0
 33 34  2  0
 34 35  1  0
 36 35  2  0
 37 36  1  0
 38 12  1  0
 38 39  1  0
 38 48  1  0
 39 42  1  0
 40 44  1  0
 40 39  1  0
 41 40  2  0
 44 43  1  0
 46 44  1  0
 46 47  1  0
 46 45  1  0
 48 51  1  1
 48 49  1  0
 50 48  1  0
 53 62  1  0
 53 52  2  0
 54 60  1  0
 54 62  1  0
 55 60  1  0
 56 57  1  0
 56 55  1  0
 58 57  1  0
 58 67  1  0
 58 59  1  0
 60 59  1  0
 61 54  2  0
 62 63  1  0
 64 65  2  0
 65 84  1  0
 66 65  1  0
 66 69  1  0
 67 64  1  0
 67 68  1  0
 68 66  2  0
 69 70  1  0
 70 71  2  0
 72 75  1  0
 72 71  1  0
 73 72  2  0
 74 73  1  0
 74 69  2  0
 75 76  1  0
 76 77  1  0
 77 78  2  0
 79 78  1  0
 79 83  1  0
 80 79  2  0
 81 76  2  0
 81 80  1  0
 82 81  1  0
 84 85  1  0
 85 88  1  0
 85 87  1  0
 86 84  2  0
 89 90  1  0
 89 64  1  0
 91 89  1  0
M  ISO  4  10 101  11 101  54 100  62 100
M  END
>  <TORSDO>  (47) 
F 21

>  <SCORE>  (47) 
-15.811

>  <name>  (47) 
46

>  <ligand_id>  (47) 
46

>  <original_smiles>  (47) 
[H]OC([H])(C([H])([H])[H])C1([H])C([H])([H])[N+]([H])(C([H])([H])C([H])([H])N([H])C(=O)N2C([H])([H])C([H])([H])C([H])([H])C([H])(n3nc(-c4c([H])c([H])c(Oc5c([H])c([H])c(F)c([H])c5F)c([H])c4[H])c(C(=O)N([H])[H])c3N([H])[H])C2([H])[H])C1([H])C([H])([H])Oc1c([H])c([H])c2c(c1[H])C([H])([H])N(C(=O)C([H])(N([H])C(=O)C([H])(N([H])C([H])([H])[H])C([H])([H])[H])C(C([H])([H])[H])(C([H])([H])[H])C([H])([H])[H])C([H])(C(=O)N([H])C1([H])c3c([H])c([H])c([H])c([H])c3C([H])([H])C([H])([H])C1([H])[H])C2([H])[H]

>  <smiles>  (47) 
[H]OC([H])(C([H])([H])[H])C1([H])C([H])([H])[N+]([H])(C([H])([H])C([H])([H])N([H])C(=O)N2C([H])([H])C([H])([H])C([H])([H])C([H])(n3nc(-c4c([H])c([H])c(Oc5c([H])c([H])c(F)c([H])c5F)c([H])c4[H])c(C(=O)N([H])[H])c3N([H])[H])C2([H])[H])C1([H])C([H])([H])Oc1c([H])c([H])c2c(c1[H])C([H])([H])N(C(=O)C([H])(N([H])C(=O)C([H])(N([H])C([H])([H])[H])C([H])([H])[H])C(C([H])([H])[H])(C([H])([H])[H])C([H])([H])[H])C([H])(C(=O)N([H])C1([H])c3c([H])c([H])c([H])c([H])c3C([H])([H])C([H])([H])C1([H])[H])C2([H])[H]

$$$$
47:0:0
     RDKit          3D

 95104  0  0  1  0  0  0  0  0999 V2000
  -29.8700  -21.0200   18.9270 C   0  0  0  0  0  3  0  0  0  0  0  0
  -30.5030  -18.6660   19.0870 C   0  0  0  0  0  0  0  0  0  0  0  0
  -30.4650  -19.8670   18.3830 C   0  0  0  0  0  0  0  0  0  0  0  0
  -29.2990  -20.9540   20.2200 C   0  0  0  0  0  0  0  0  0  0  0  0
  -29.9320  -18.5390   20.3700 C   0  0  0  0  0  0  0  0  0  0  0  0
  -31.2950  -17.6530   18.3240 C   0  0  0  0  0  2  0  0  0  0  0  0
  -31.8340  -18.5030   17.1560 C   0  0  0  0  0  2  0  0  0  0  0  0
  -29.3530  -19.7120   20.8710 N   0  0  0  0  0  0  0  0  0  0  0  0
  -31.1170  -19.7860   17.1490 N   0  0  0  0  0  0  0  0  0  0  0  0
  -28.9580  -19.6620   21.8130 H   0  0  0  0  0  0  0  0  0  0  0  0
  -31.6300  -20.6140   16.8640 H   0  0  0  0  0  0  0  0  0  0  0  0
  -28.6330  -22.2510   20.8610 C   0  0  0  0  0  3  0  0  0  0  0  0
  -28.8590  -23.7290   20.2210 C   0  0  0  0  0  2  0  0  0  0  0  0
  -28.4440  -25.1560   22.3470 C   0  0  0  0  0  1  0  0  0  0  0  0
  -28.1130  -25.0210   20.8520 C   0  0  0  0  0  3  0  0  0  0  0  0
  -28.3360  -26.3920   20.2790 O   0  0  0  0  0  0  0  0  0  0  0  0
  -24.6260  -31.8690   23.2440 C   0  0  0  0  0  0  0  0  0  0  0  0
  -27.2430  -27.2810   20.2350 C   0  0  0  0  0  0  0  0  0  0  0  0
  -23.4290  -30.4670   21.6010 C   0  0  0  0  0  3  0  0  0  0  0  0
  -24.8870  -28.9120   20.1830 C   0  0  0  0  0  0  0  0  0  0  0  0
  -25.9690  -30.7850   21.4230 C   0  0  0  0  0  2  0  0  0  0  0  0
  -26.0530  -29.4020   20.7840 C   0  0  0  0  0  0  0  0  0  0  0  0
  -27.2380  -28.5990   20.7970 C   0  0  0  0  0  3  0  0  0  0  0  0
  -26.0580  -26.8560   19.5950 C   0  0  0  0  0  3  0  0  0  0  0  0
  -24.8930  -27.6470   19.5730 C   0  0  0  0  0  3  0  0  0  0  0  0
  -23.6500  -29.7880   20.2230 C   0  0  0  0  0  2  0  0  0  0  0  0
  -24.6930  -31.0590   22.1460 N   0  0  0  0  0  0  0  0  0  0  0  0
  -23.5410  -32.1440   23.7760 O   0  0  0  0  0  0  0  0  0  0  0  0
  -22.7640  -29.4510   22.5620 C   0  0  0  0  0  0  0  0  0  0  0  0
  -21.4370  -29.2730   22.4330 N   0  0  0  0  0  0  0  0  0  0  0  0
  -23.4400  -28.8260   23.3840 O   0  0  0  0  0  0  0  0  0  0  0  0
  -20.9500  -29.8310   21.7460 H   0  0  0  0  0  0  0  0  0  0  0  0
  -18.0590  -28.0780   22.9300 C   0  0  0  0  0  0  0  0  0  0  0  0
  -20.6170  -28.3380   23.2040 C   0  0  0  0  0  3  0  0  0  0  0  0
  -20.7190  -26.9040   22.6310 C   0  0  0  0  0  2  0  0  0  0  0  0
  -19.6200  -26.5820   21.6140 C   0  0  0  0  0  2  0  0  0  0  0  0
  -18.2370  -26.7270   22.2560 C   0  0  0  0  0  2  0  0  0  0  0  0
  -19.1780  -28.8400   23.3620 C   0  0  0  0  0  0  0  0  0  0  0  0
  -18.9570  -30.1030   23.9540 C   0  0  0  0  0  3  0  0  0  0  0  0
  -17.6530  -30.6040   24.1160 C   0  0  0  0  0  3  0  0  0  0  0  0
  -16.5480  -29.8400   23.7010 C   0  0  0  0  0  3  0  0  0  0  0  0
  -16.7530  -28.5780   23.1130 C   0  0  0  0  0  3  0  0  0  0  0  0
  -25.9060  -32.5050   23.8690 C   0  0  0  0  0  3  0  0  0  0  0  0
  -26.4190  -31.7380   25.1500 C   0  0  1  0  0  0  0  0  0  0  0  0
  -25.3230  -31.5080   26.2170 C   0  0  0  0  0  1  0  0  0  0  0  0
  -26.9980  -30.3560   24.7650 C   0  0  0  0  0  1  0  0  0  0  0  0
  -27.5670  -32.5330   25.8140 C   0  0  0  0  0  1  0  0  0  0  0  0
  -25.5940  -33.9030   24.1940 N   0  0  0  0  0  0  0  0  0  0  0  0
  -25.9260  -34.9550   23.4330 C   0  0  0  0  0  0  0  0  0  0  0  0
  -26.5980  -34.8480   22.4030 O   0  0  0  0  0  0  0  0  0  0  0  0
  -25.0020  -34.0600   24.9970 H   0  0  0  0  0  0  0  0  0  0  0  0
  -24.1960  -36.7450   23.0770 C   0  0  0  0  0  1  0  0  0  0  0  0
  -25.4390  -36.3440   23.8880 C   0  0  0  0  0  3  0  0  0  0  0  0
  -27.5730  -37.2330   24.7140 C   0  0  0  0  0  1  0  0  0  0  0  0
  -26.4700  -37.3990   23.7730 N   0  0  0  0  0  0  0  0  0  0  0  0
  -26.0630  -38.3180   23.9200 H   0  0  0  0  0  0  0  0  0  0  0  0
  -30.1250  -17.2130   21.2250 C   0  0  0  0  0  2  0  0  0  0  0  0
  -30.5800  -14.7130   20.4580 C   0  0  0  0  0  0  0  0  0  0  0  0
  -30.3960  -12.4610   19.3800 C   0  0  0  0  0  2  0  0  0  0  0  0
  -29.4710  -12.5450   18.1460 C   0  0  0  0  0  2  0  0  0  0  0  0
  -27.9900  -12.3880   18.5530 C   0  0  0  0  0  2  0  0  0  0  0  0
  -27.6070  -13.2640   19.7760 C   0  0  0  0  0  3  0  0  0  0  0  0
  -28.6490  -13.1390   20.9080 C   0  0  0  0  0  2  0  0  0  0  0  0
  -29.9520  -13.4960   20.3380 N   0  0  0  0  0  0  0  0  0  0  0  0
  -31.7720  -14.8330   20.1690 O   0  0  0  0  0  0  0  0  0  0  0  0
  -29.7860  -15.8090   20.7350 N   0  0  0  0  0  0  0  0  0  0  0  0
  -28.8100  -15.5780   20.8200 H   0  0  0  0  0  0  0  0  0  0  0  0
  -25.2090  -13.8710   20.4610 C   0  0  0  0  0  0  0  0  0  0  0  0
  -24.1360  -13.1050   20.8260 C   0  0  0  0  0  0  0  0  0  0  0  0
  -24.5960  -11.7530   20.8190 C   0  0  0  0  0  0  0  0  0  0  0  0
  -26.2550  -12.9870   20.2490 N   0  0  0  0  0  0  0  0  0  0  0  0
  -25.8910  -11.7100   20.5300 N   0  0  0  0  0  0  0  0  0  0  0  0
  -23.8650  -10.4950   21.0140 C   0  0  0  0  0  0  0  0  0  0  0  0
  -24.2850   -9.5330   21.9600 C   0  0  0  0  0  3  0  0  0  0  0  0
  -23.5530   -8.3400   22.1440 C   0  0  0  0  0  3  0  0  0  0  0  0
  -22.3840   -8.1000   21.3810 C   0  0  0  0  0  0  0  0  0  0  0  0
  -21.9820   -9.0490   20.4240 C   0  0  0  0  0  3  0  0  0  0  0  0
  -22.7170  -10.2330   20.2390 C   0  0  0  0  0  3  0  0  0  0  0  0
  -21.6240   -6.9590   21.4720 O   0  0  0  0  0  0  0  0  0  0  0  0
  -21.5680   -6.2220   22.6280 C   0  0  0  0  0  0  0  0  0  0  0  0
  -21.1500   -6.7870   23.8530 C   0  0  0  0  0  3  0  0  0  0  0  0
  -21.0410   -5.9760   24.9990 C   0  0  0  0  0  3  0  0  0  0  0  0
  -21.3400   -4.6020   24.9240 C   0  0  0  0  0  0  0  0  0  0  0  0
  -21.7540   -4.0390   23.7040 C   0  0  0  0  0  3  0  0  0  0  0  0
  -21.8650   -4.8470   22.5590 C   0  0  0  0  0  0  0  0  0  0  0  0
  -22.2420   -4.2940   21.3810 F   0  0  0  0  0  0  0  0  0  0  0  0
  -21.2290   -3.8220   26.0240 F   0  0  0  0  0  0  0  0  0  0  0  0
  -22.7360  -13.5890   21.0690 C   0  0  0  0  0  0  0  0  0  0  0  0
  -21.9920  -12.9070   21.9310 N   0  0  0  0  0  0  0  0  0  0  0  0
  -22.3100  -14.6070   20.5270 O   0  0  0  0  0  0  0  0  0  0  0  0
  -22.3490  -12.0870   22.3960 H   0  0  0  0  0  0  0  0  0  0  0  0
  -21.0510  -13.2150   22.1340 H   0  0  0  0  0  0  0  0  0  0  0  0
  -25.3780  -15.2390   20.2670 N   0  0  0  0  0  0  0  0  0  0  0  0
  -24.6010  -15.8870   20.3380 H   0  0  0  0  0  0  0  0  0  0  0  0
  -26.2130  -15.6650   19.8890 H   0  0  0  0  0  0  0  0  0  0  0  0
  1  4  1  0
  2  5  2  0
  3  1  2  0
  3  2  1  0
  4 12  2  0
  4  8  1  0
  5  8  1  0
  5 57  1  0
  6  2  1  0
  7  6  1  0
  8 10  1  0
  9  7  1  0
  9  3  1  0
 11  9  1  0
 13 15  1  0
 13 12  1  0
 15 14  1  0
 16 15  1  0
 17 28  2  0
 18 16  1  0
 18 23  1  0
 19 27  1  0
 19 29  1  0
 20 26  1  0
 20 22  1  0
 21 27  1  0
 22 23  2  0
 22 21  1  0
 24 18  2  0
 25 24  1  0
 25 20  2  0
 26 19  1  0
 27 17  1  0
 29 31  2  0
 30 29  1  0
 32 30  1  0
 33 42  2  0
 33 38  1  0
 34 30  1  0
 34 38  1  0
 35 34  1  0
 36 37  1  0
 36 35  1  0
 37 33  1  0
 38 39  2  0
 39 40  1  0
 41 40  2  0
 42 41  1  0
 43 17  1  0
 43 48  1  0
 43 44  1  0
 44 47  1  1
 44 45  1  0
 46 44  1  0
 48 51  1  0
 49 53  1  0
 49 48  1  0
 50 49  2  0
 53 52  1  0
 55 53  1  0
 55 56  1  0
 55 54  1  0
 58 66  1  0
 59 64  1  0
 60 61  1  0
 60 59  1  0
 62 61  1  0
 62 71  1  0
 62 63  1  0
 64 58  1  0
 64 63  1  0
 65 58  2  0
 66 67  1  0
 66 57  1  0
 68 69  2  0
 69 88  1  0
 70 69  1  0
 70 73  1  0
 71 68  1  0
 71 72  1  0
 72 70  2  0
 73 74  1  0
 74 75  2  0
 76 79  1  0
 76 75  1  0
 77 76  2  0
 78 77  1  0
 78 73  2  0
 79 80  1  0
 80 81  1  0
 81 82  2  0
 83 82  1  0
 83 87  1  0
 84 83  2  0
 85 80  2  0
 85 84  1  0
 86 85  1  0
 88 89  1  0
 89 92  1  0
 89 91  1  0
 90 88  2  0
 93 94  1  0
 93 68  1  0
 95 93  1  0
M  ISO  4  15 101  16 101  58 100  66 100
M  END
>  <TORSDO>  (48) 
F 20

>  <SCORE>  (48) 
-14.157

>  <name>  (48) 
47

>  <ligand_id>  (48) 
47

>  <original_smiles>  (48) 
[H]c1c([H])c([H])c2c(c1[H])C([H])([H])C([H])([H])C([H])([H])C2([H])N([H])C(=O)C1([H])N(C(=O)C([H])(N([H])C(=O)C([H])(N([H])C([H])([H])[H])C([H])([H])[H])C(C([H])([H])[H])(C([H])([H])[H])C([H])([H])[H])C([H])([H])c2c([H])c(OC([H])(C([H])([H])[H])C([H])([H])C([H])([H])c3c([H])c4c(c(C([H])([H])N([H])C(=O)N5C([H])([H])C([H])([H])C([H])([H])C([H])(n6nc(-c7c([H])c([H])c(Oc8c([H])c([H])c(F)c([H])c8F)c([H])c7[H])c(C(=O)N([H])[H])c6N([H])[H])C5([H])[H])[n+]3[H])C([H])([H])C([H])([H])N4[H])c([H])c([H])c2C1([H])[H]

>  <smiles>  (48) 
[H]c1c([H])c([H])c2c(c1[H])C([H])([H])C([H])([H])C([H])([H])C2([H])N([H])C(=O)C1([H])N(C(=O)C([H])(N([H])C(=O)C([H])(N([H])C([H])([H])[H])C([H])([H])[H])C(C([H])([H])[H])(C([H])([H])[H])C([H])([H])[H])C([H])([H])c2c([H])c(OC([H])(C([H])([H])[H])C([H])([H])C([H])([H])c3c([H])c4c(c(C([H])([H])N([H])C(=O)N5C([H])([H])C([H])([H])C([H])([H])C([H])(n6nc(-c7c([H])c([H])c(Oc8c([H])c([H])c(F)c([H])c8F)c([H])c7[H])c(C(=O)N([H])[H])c6N([H])[H])C5([H])[H])[n+]3[H])C([H])([H])C([H])([H])N4[H])c([H])c([H])c2C1([H])[H]

$$$$
48:0:0
     RDKit          3D

 96101  0  0  1  0  0  0  0  0999 V2000
  -20.2790  -25.9040   23.5560 C   0  0  0  0  0 15  0  0  0  0  0  0
  -22.0210  -24.9420   23.8070 C   0  0  0  0  0  1  0  0  0  0  0  0
  -22.5510  -27.0360   20.8010 C   0  0  0  0  0  1  0  0  0  0  0  0
  -20.6080  -27.4230   21.0730 C   0  0  0  0  0  1  0  0  0  0  0  0
  -23.7920  -25.8700   21.6750 C   0  0  0  0  0  3  0  0  0  0  0  0
  -23.3600  -24.3360   22.5320 C   0  0  0  0  0  3  0  0  0  0  0  0
  -20.0300  -27.3230   19.6070 C   0  0  0  0  0  1  0  0  0  0  0  0
  -24.5850  -23.0140   22.7460 N   0  0  0  0  0  4  0  0  0  0  0  0
  -25.4310  -23.5020   22.9890 H   0  0  0  0  0  0  0  0  0  0  0  0
  -24.2580  -22.6840   23.6390 H   0  0  0  0  0  0  0  0  0  0  0  0
  -27.0150  -19.4100   20.5060 C   0  0  0  0  0  2  0  0  0  0  0  0
  -26.7720  -18.7070   22.6290 C   0  0  0  0  0  2  0  0  0  0  0  0
  -26.3630  -21.0070   20.9510 C   0  0  0  0  0  2  0  0  0  0  0  0
  -26.0750  -20.2820   23.0470 C   0  0  0  0  0  2  0  0  0  0  0  0
  -27.9220  -18.2880   21.4360 C   0  0  0  0  0  3  0  0  0  0  0  0
  -25.1750  -21.4180   22.1220 C   0  0  0  0  0  3  0  0  0  0  0  0
  -29.7610  -15.5470   20.6920 C   0  0  0  0  0  0  0  0  0  0  0  0
  -30.3410  -13.1020   19.6750 C   0  0  0  0  0  2  0  0  0  0  0  0
  -29.5400  -12.6960   18.3950 C   0  0  0  0  0  2  0  0  0  0  0  0
  -28.0950  -12.3000   18.7480 C   0  0  0  0  0  2  0  0  0  0  0  0
  -27.5340  -13.2490   19.8340 C   0  0  0  0  0  3  0  0  0  0  0  0
  -28.4480  -13.3850   21.0470 C   0  0  0  0  0  2  0  0  0  0  0  0
  -29.5630  -14.1260   20.5220 N   0  0  0  0  0  0  0  0  0  0  0  0
  -30.9790  -15.7330   20.4170 O   0  0  0  0  0  0  0  0  0  0  0  0
  -28.6780  -16.6680   21.0250 N   0  0  0  0  0  0  0  0  0  0  0  0
  -29.4960  -17.2200   20.8010 H   0  0  0  0  0  0  0  0  0  0  0  0
  -25.1990  -13.8150   20.5650 C   0  0  0  0  0  0  0  0  0  0  0  0
  -24.1400  -13.0360   20.9220 C   0  0  0  0  0  0  0  0  0  0  0  0
  -24.6050  -11.6850   20.8720 C   0  0  0  0  0  0  0  0  0  0  0  0
  -26.2160  -12.9280   20.2880 N   0  0  0  0  0  0  0  0  0  0  0  0
  -25.8890  -11.6430   20.5500 N   0  0  0  0  0  0  0  0  0  0  0  0
  -23.8870  -10.4220   21.0420 C   0  0  0  0  0  0  0  0  0  0  0  0
  -24.3510   -9.4180   21.9190 C   0  0  0  0  0  3  0  0  0  0  0  0
  -23.6230   -8.2190   22.0750 C   0  0  0  0  0  3  0  0  0  0  0  0
  -22.4220   -8.0210   21.3530 C   0  0  0  0  0  0  0  0  0  0  0  0
  -21.9800   -9.0160   20.4650 C   0  0  0  0  0  3  0  0  0  0  0  0
  -22.7070  -10.2060   20.3060 C   0  0  0  0  0  3  0  0  0  0  0  0
  -21.6600   -6.8810   21.4240 O   0  0  0  0  0  0  0  0  0  0  0  0
  -21.6830   -6.0700   22.5290 C   0  0  0  0  0  0  0  0  0  0  0  0
  -21.4000   -6.5610   23.8220 C   0  0  0  0  0  3  0  0  0  0  0  0
  -21.3650   -5.6770   24.9190 C   0  0  0  0  0  3  0  0  0  0  0  0
  -21.6050   -4.3040   24.7240 C   0  0  0  0  0  0  0  0  0  0  0  0
  -21.8830   -3.8120   23.4360 C   0  0  0  0  0  3  0  0  0  0  0  0
  -21.9190   -4.6930   22.3410 C   0  0  0  0  0  0  0  0  0  0  0  0
  -22.1660   -4.2120   21.0990 F   0  0  0  0  0  0  0  0  0  0  0  0
  -21.5630   -3.4530   25.7760 F   0  0  0  0  0  0  0  0  0  0  0  0
  -22.7490  -13.5170   21.1950 C   0  0  0  0  0  0  0  0  0  0  0  0
  -22.0210  -12.8160   22.0540 N   0  0  0  0  0  0  0  0  0  0  0  0
  -22.3210  -14.5490   20.6810 O   0  0  0  0  0  0  0  0  0  0  0  0
  -22.3840  -11.9820   22.4900 H   0  0  0  0  0  0  0  0  0  0  0  0
  -21.0850  -13.1200   22.2830 H   0  0  0  0  0  0  0  0  0  0  0  0
  -25.3820  -15.1910   20.4340 N   0  0  0  0  0  0  0  0  0  0  0  0
  -24.6340  -15.8540   20.6080 H   0  0  0  0  0  0  0  0  0  0  0  0
  -26.2660  -15.6370   20.2200 H   0  0  0  0  0  0  0  0  0  0  0  0
  -25.4080  -25.5800   21.0800 C   0  0  0  0  0  2  0  0  0  0  0  0
  -26.8340  -26.2670   20.9060 O   0  0  0  0  0  0  0  0  0  0  0  0
  -24.6610  -31.9390   23.2380 C   0  0  0  0  0  0  0  0  0  0  0  0
  -26.8650  -27.3840   20.1480 C   0  0  0  0  0  0  0  0  0  0  0  0
  -23.4760  -30.5880   21.6040 C   0  0  0  0  0  3  0  0  0  0  0  0
  -24.8720  -29.2240   19.9380 C   0  0  0  0  0  0  0  0  0  0  0  0
  -25.9980  -30.8790   21.4170 C   0  0  0  0  0  2  0  0  0  0  0  0
  -26.0090  -29.5560   20.6820 C   0  0  0  0  0  0  0  0  0  0  0  0
  -27.0560  -28.6220   20.7950 C   0  0  0  0  0  3  0  0  0  0  0  0
  -25.9680  -27.2330   19.1040 C   0  0  0  0  0  3  0  0  0  0  0  0
  -24.8730  -28.0920   19.1010 C   0  0  0  0  0  3  0  0  0  0  0  0
  -23.6590  -30.1160   20.1220 C   0  0  0  0  0  2  0  0  0  0  0  0
  -24.7280  -31.1870   22.1120 N   0  0  0  0  0  0  0  0  0  0  0  0
  -23.5760  -32.2020   23.7810 O   0  0  0  0  0  0  0  0  0  0  0  0
  -23.0690  -29.4780   22.6020 C   0  0  0  0  0  0  0  0  0  0  0  0
  -21.8350  -29.0880   22.6050 N   0  0  0  0  0  0  0  0  0  0  0  0
  -23.8600  -28.8930   23.3300 O   0  0  0  0  0  0  0  0  0  0  0  0
  -21.1630  -29.6100   22.0620 H   0  0  0  0  0  0  0  0  0  0  0  0
  -18.4070  -27.8550   22.7960 C   0  0  0  0  0  0  0  0  0  0  0  0
  -21.3690  -27.7530   23.0980 C   0  0  0  0  0  2  0  0  0  0  0  0
  -21.0530  -25.3780   21.6100 C   0  0  0  0  0  1  0  0  0  0  0  0
  -19.3090  -25.3650   21.3340 C   0  0  0  0  0  3  0  0  0  0  0  0
  -18.2090  -26.4790   21.9710 C   0  0  0  0  0  3  0  0  0  0  0  0
  -19.6800  -28.4570   23.3250 C   0  0  0  0  0  0  0  0  0  0  0  0
  -19.3890  -29.7660   23.9120 C   0  0  0  0  0  3  0  0  0  0  0  0
  -18.0990  -30.3870   24.0410 C   0  0  0  0  0  3  0  0  0  0  0  0
  -16.9420  -29.7430   23.5870 C   0  0  0  0  0  3  0  0  0  0  0  0
  -17.1210  -28.4940   22.9750 C   0  0  0  0  0  3  0  0  0  0  0  0
  -25.9490  -32.5160   23.8730 C   0  0  0  0  0  3  0  0  0  0  0  0
  -26.4630  -31.6710   25.0990 C   0  0  1  0  0  0  0  0  0  0  0  0
  -25.3760  -31.3780   26.1590 C   0  0  0  0  0  1  0  0  0  0  0  0
  -27.0430  -30.3130   24.6370 C   0  0  0  0  0  1  0  0  0  0  0  0
  -27.6190  -32.4300   25.7880 C   0  0  0  0  0  1  0  0  0  0  0  0
  -25.6360  -33.8910   24.2680 N   0  0  0  0  0  0  0  0  0  0  0  0
  -25.9120  -34.9650   23.5210 C   0  0  0  0  0  0  0  0  0  0  0  0
  -26.5470  -34.9010   22.4640 O   0  0  0  0  0  0  0  0  0  0  0  0
  -25.0740  -34.0120   25.0990 H   0  0  0  0  0  0  0  0  0  0  0  0
  -24.1510  -36.7390   23.2590 C   0  0  0  0  0  1  0  0  0  0  0  0
  -25.4120  -36.3250   24.0350 C   0  0  0  0  0  3  0  0  0  0  0  0
  -27.5610  -37.1890   24.8460 C   0  0  0  0  0  1  0  0  0  0  0  0
  -26.4310  -37.3920   23.9430 N   0  0  0  0  0  0  0  0  0  0  0  0
  -26.0190  -38.2990   24.1460 H   0  0  0  0  0  0  0  0  0  0  0  0
  5  3  1  0
  5  6  1  0
  6  8  1  0
  6  2  1  0
  7  4  1  0
  8  9  1  0
  8 10  1  0
 11 13  1  0
 11 15  1  0
 12 14  1  0
 13 16  1  0
 15 25  1  0
 15 12  1  0
 16  8  1  0
 16 14  1  0
 17 25  1  0
 18 23  1  0
 19 20  1  0
 19 18  1  0
 21 20  1  0
 21 30  1  0
 21 22  1  0
 23 17  1  0
 23 22  1  0
 24 17  2  0
 26 25  1  0
 27 28  2  0
 28 47  1  0
 29 28  1  0
 29 32  1  0
 30 31  1  0
 30 27  1  0
 31 29  2  0
 32 33  1  0
 33 34  2  0
 35 38  1  0
 35 34  1  0
 36 35  2  0
 37 36  1  0
 37 32  2  0
 38 39  1  0
 39 40  1  0
 40 41  2  0
 42 41  1  0
 42 46  1  0
 43 42  2  0
 44 39  2  0
 44 43  1  0
 45 44  1  0
 47 48  1  0
 48 51  1  0
 48 50  1  0
 49 47  2  0
 52 27  1  0
 52 53  1  0
 54 52  1  0
 55  5  1  0
 56 55  1  0
 57 68  2  0
 58 63  1  0
 58 56  1  0
 59 67  1  0
 59 69  1  0
 60 66  1  0
 60 62  1  0
 61 67  1  0
 62 63  2  0
 62 61  1  0
 64 58  2  0
 65 64  1  0
 65 60  2  0
 66 59  1  0
 67 57  1  0
 69 70  1  0
 69 71  2  0
 70 74  1  0
 72 70  1  0
 73 82  2  0
 73 78  1  0
 74 78  1  0
 76 75  1  0
 76 77  2  0
 77 73  1  0
 78 79  2  0
 79 80  1  0
 81 80  2  0
 82 81  1  0
 83 57  1  0
 83 88  1  0
 83 84  1  0
 84 87  1  1
 84 85  1  0
 86 84  1  0
 88 91  1  0
 89 93  1  0
 89 88  1  0
 90 89  2  0
 93 92  1  0
 95 93  1  0
 95 96  1  0
 95 94  1  0
M  ISO  4  17 100  25 100  55 101  56 101
M  END
>  <TORSDO>  (49) 
F 19

>  <SCORE>  (49) 
25.092

>  <name>  (49) 
48

>  <ligand_id>  (49) 
48

>  <original_smiles>  (49) 
[H]c1c([H])c([H])c2c(c1[H])C([H])([H])C([H])([H])C([H])([H])C2([H])N([H])C(=O)C1([H])N(C(=O)C([H])(N([H])C(=O)C([H])(N([H])C([H])([H])[H])C([H])([H])[H])C(C([H])([H])[H])(C([H])([H])[H])C([H])([H])[H])C([H])([H])c2c([H])c(OC([H])([H])C3([H])C([H])([H])C([H])(C([H])([H])[H])C([H])([H])C([H])([H])C3([H])[N+]([H])([H])C3([H])C([H])([H])C([H])([H])C([H])(N([H])C(=O)N4C([H])([H])C([H])([H])C([H])([H])C([H])(n5nc(-c6c([H])c([H])c(Oc7c([H])c([H])c(F)c([H])c7F)c([H])c6[H])c(C(=O)N([H])[H])c5N([H])[H])C4([H])[H])C([H])([H])C3([H])[H])c([H])c([H])c2C1([H])[H]

>  <smiles>  (49) 
[H]c1c([H])c([H])c2c(c1[H])C([H])([H])C([H])([H])C([H])([H])C2([H])N([H])C(=O)C1([H])N(C(=O)C([H])(N([H])C(=O)C([H])(N([H])C([H])([H])[H])C([H])([H])[H])C(C([H])([H])[H])(C([H])([H])[H])C([H])([H])[H])C([H])([H])c2c([H])c(OC([H])([H])C3([H])C([H])([H])C([H])(C([H])([H])[H])C([H])([H])C([H])([H])C3([H])[N+]([H])([H])C3([H])C([H])([H])C([H])([H])C([H])(N([H])C(=O)N4C([H])([H])C([H])([H])C([H])([H])C([H])(n5nc(-c6c([H])c([H])c(Oc7c([H])c([H])c(F)c([H])c7F)c([H])c6[H])c(C(=O)N([H])[H])c5N([H])[H])C4([H])[H])C([H])([H])C3([H])[H])c([H])c([H])c2C1([H])[H]

$$$$
49:0:0
     RDKit          3D

 92101  0  0  1  0  0  0  0  0999 V2000
  -28.5550  -20.8140   20.3320 C   0  0  0  0  0  3  0  0  0  0  0  0
  -28.1380  -22.2230   20.1200 C   0  0  0  0  0  0  0  0  0  0  0  0
  -29.0070  -23.3480   19.7490 C   0  0  0  0  0  0  0  0  0  0  0  0
  -29.8960  -20.3070   20.1990 C   0  0  0  0  0  0  0  0  0  0  0  0
  -30.3320  -22.7510   19.6510 C   0  0  0  0  0  0  0  0  0  0  0  0
  -30.7140  -21.3920   19.8630 N   0  0  0  0  0  0  0  0  0  0  0  0
  -26.1780  -23.8370   20.7630 C   0  0  0  0  0  2  0  0  0  0  0  0
  -26.0090  -22.6130   21.6290 C   0  0  0  0  0  2  0  0  0  0  0  0
  -26.6690  -22.4950   20.2720 C   0  0  0  0  0  3  0  0  0  0  0  0
  -31.7410  -23.5630   17.7120 C   0  0  0  0  0  1  0  0  0  0  0  0
  -31.4800  -23.6450   19.2200 C   0  0  0  0  0  2  0  0  0  0  0  0
  -28.4100  -24.9130   19.2360 C   0  0  0  0  0  2  0  0  0  0  0  0
  -28.6700  -26.4880   19.5610 O   0  0  0  0  0  0  0  0  0  0  0  0
  -24.6390  -31.7820   23.0860 C   0  0  0  0  0  0  0  0  0  0  0  0
  -27.5930  -27.5150   19.5800 C   0  0  0  0  0  0  0  0  0  0  0  0
  -23.5660  -30.4790   21.2950 C   0  0  0  0  0  3  0  0  0  0  0  0
  -25.1440  -29.1750   19.7160 C   0  0  0  0  0  0  0  0  0  0  0  0
  -26.1040  -30.9250   21.1950 C   0  0  0  0  0  2  0  0  0  0  0  0
  -26.2910  -29.6080   20.3920 C   0  0  0  0  0  0  0  0  0  0  0  0
  -27.5090  -28.7990   20.3070 C   0  0  0  0  0  3  0  0  0  0  0  0
  -26.4060  -27.2400   18.8610 C   0  0  0  0  0  3  0  0  0  0  0  0
  -25.2220  -28.0160   18.9320 C   0  0  0  0  0  3  0  0  0  0  0  0
  -23.8500  -29.9750   19.8540 C   0  0  0  0  0  2  0  0  0  0  0  0
  -24.7890  -31.0840   21.9150 N   0  0  0  0  0  0  0  0  0  0  0  0
  -23.5300  -31.9210   23.6260 O   0  0  0  0  0  0  0  0  0  0  0  0
  -22.9610  -29.3270   22.1400 C   0  0  0  0  0  0  0  0  0  0  0  0
  -21.6440  -29.0820   22.0060 N   0  0  0  0  0  0  0  0  0  0  0  0
  -23.6830  -28.6580   22.8840 O   0  0  0  0  0  0  0  0  0  0  0  0
  -21.1110  -29.6800   21.3910 H   0  0  0  0  0  0  0  0  0  0  0  0
  -18.3650  -27.5760   22.3890 C   0  0  0  0  0  0  0  0  0  0  0  0
  -20.9020  -28.0040   22.6680 C   0  0  0  0  0  3  0  0  0  0  0  0
  -21.1020  -26.6570   21.9350 C   0  0  0  0  0  2  0  0  0  0  0  0
  -20.0140  -26.3690   20.8950 C   0  0  0  0  0  2  0  0  0  0  0  0
  -18.6340  -26.3330   21.5570 C   0  0  0  0  0  2  0  0  0  0  0  0
  -19.4290  -28.3690   22.8960 C   0  0  0  0  0  0  0  0  0  0  0  0
  -19.1210  -29.5310   23.6370 C   0  0  0  0  0  3  0  0  0  0  0  0
  -17.7840  -29.9040   23.8700 C   0  0  0  0  0  3  0  0  0  0  0  0
  -16.7350  -29.1090   23.3750 C   0  0  0  0  0  3  0  0  0  0  0  0
  -17.0270  -27.9460   22.6400 C   0  0  0  0  0  3  0  0  0  0  0  0
  -25.8530  -32.4570   23.7940 C   0  0  0  0  0  3  0  0  0  0  0  0
  -26.3190  -31.6880   25.0920 C   0  0  1  0  0  0  0  0  0  0  0  0
  -25.1750  -31.4140   26.0970 C   0  0  0  0  0  1  0  0  0  0  0  0
  -26.9570  -30.3290   24.7280 C   0  0  0  0  0  1  0  0  0  0  0  0
  -27.4120  -32.5040   25.8200 C   0  0  0  0  0  1  0  0  0  0  0  0
  -25.4690  -33.8380   24.1350 N   0  0  0  0  0  0  0  0  0  0  0  0
  -25.8050  -34.9250   23.4290 C   0  0  0  0  0  0  0  0  0  0  0  0
  -26.5330  -34.8740   22.4350 O   0  0  0  0  0  0  0  0  0  0  0  0
  -24.8270  -33.9490   24.9060 H   0  0  0  0  0  0  0  0  0  0  0  0
  -24.0160  -36.6580   23.0550 C   0  0  0  0  0  1  0  0  0  0  0  0
  -25.2460  -36.2860   23.8970 C   0  0  0  0  0  3  0  0  0  0  0  0
  -27.3110  -37.2460   24.8180 C   0  0  0  0  0  1  0  0  0  0  0  0
  -26.2380  -37.3820   23.8370 N   0  0  0  0  0  0  0  0  0  0  0  0
  -25.7880  -38.2830   23.9800 H   0  0  0  0  0  0  0  0  0  0  0  0
  -30.5910  -18.7300   20.4490 C   0  0  0  0  0  2  0  0  0  0  0  0
  -30.8490  -15.8720   20.4640 C   0  0  0  0  0  0  0  0  0  0  0  0
  -30.8190  -13.4370   19.5960 C   0  0  0  0  0  2  0  0  0  0  0  0
  -29.9650  -13.2510   18.3180 C   0  0  0  0  0  2  0  0  0  0  0  0
  -28.4900  -13.0070   18.6820 C   0  0  0  0  0  2  0  0  0  0  0  0
  -27.9940  -13.9780   19.7830 C   0  0  0  0  0  3  0  0  0  0  0  0
  -28.9820  -14.1150   20.9600 C   0  0  0  0  0  2  0  0  0  0  0  0
  -30.2540  -14.5860   20.3890 N   0  0  0  0  0  0  0  0  0  0  0  0
  -32.0770  -15.8520   20.3000 O   0  0  0  0  0  0  0  0  0  0  0  0
  -30.1240  -17.1530   20.5190 N   0  0  0  0  0  0  0  0  0  0  0  0
  -29.1260  -17.0440   20.5990 H   0  0  0  0  0  0  0  0  0  0  0  0
  -25.5880  -14.5560   20.4010 C   0  0  0  0  0  0  0  0  0  0  0  0
  -24.5040  -13.7860   20.7180 C   0  0  0  0  0  0  0  0  0  0  0  0
  -24.9670  -12.4340   20.7250 C   0  0  0  0  0  0  0  0  0  0  0  0
  -26.6390  -13.6740   20.2220 N   0  0  0  0  0  0  0  0  0  0  0  0
  -26.2730  -12.3930   20.4870 N   0  0  0  0  0  0  0  0  0  0  0  0
  -24.2250  -11.1760   20.8840 C   0  0  0  0  0  0  0  0  0  0  0  0
  -24.6210  -10.1950   21.8200 C   0  0  0  0  0  3  0  0  0  0  0  0
  -23.8770   -9.0050   21.9690 C   0  0  0  0  0  3  0  0  0  0  0  0
  -22.7210   -8.7870   21.1820 C   0  0  0  0  0  0  0  0  0  0  0  0
  -22.3430   -9.7560   20.2350 C   0  0  0  0  0  3  0  0  0  0  0  0
  -23.0890  -10.9370   20.0840 C   0  0  0  0  0  3  0  0  0  0  0  0
  -21.9510   -7.6500   21.2410 O   0  0  0  0  0  0  0  0  0  0  0  0
  -21.8950   -6.8770   22.3720 C   0  0  0  0  0  0  0  0  0  0  0  0
  -21.4920   -7.4070   23.6180 C   0  0  0  0  0  3  0  0  0  0  0  0
  -21.3820   -6.5610   24.7400 C   0  0  0  0  0  3  0  0  0  0  0  0
  -21.6630   -5.1880   24.6180 C   0  0  0  0  0  0  0  0  0  0  0  0
  -22.0570   -4.6570   23.3770 C   0  0  0  0  0  3  0  0  0  0  0  0
  -22.1690   -5.5000   22.2570 C   0  0  0  0  0  0  0  0  0  0  0  0
  -22.5300   -4.9790   21.0590 F   0  0  0  0  0  0  0  0  0  0  0  0
  -21.5490   -4.3730   25.6930 F   0  0  0  0  0  0  0  0  0  0  0  0
  -23.0960  -14.2700   20.9030 C   0  0  0  0  0  0  0  0  0  0  0  0
  -22.3220  -13.5950   21.7440 N   0  0  0  0  0  0  0  0  0  0  0  0
  -22.6910  -15.2850   20.3370 O   0  0  0  0  0  0  0  0  0  0  0  0
  -22.6640  -12.7750   22.2240 H   0  0  0  0  0  0  0  0  0  0  0  0
  -21.3750  -13.9010   21.9120 H   0  0  0  0  0  0  0  0  0  0  0  0
  -25.7640  -15.9240   20.2180 N   0  0  0  0  0  0  0  0  0  0  0  0
  -24.9880  -16.5750   20.2720 H   0  0  0  0  0  0  0  0  0  0  0  0
  -26.6190  -16.3550   19.8930 H   0  0  0  0  0  0  0  0  0  0  0  0
  2  9  1  0
  2  1  2  0
  3  2  1  0
  4  1  1  0
  4 54  1  0
  5  3  2  0
  5  6  1  0
  6  4  2  0
  7  8  1  0
  9  7  1  0
  9  8  1  0
 10 11  1  0
 11  5  1  0
 12 13  1  0
 12  3  1  0
 13 15  1  0
 14 25  2  0
 15 20  1  0
 16 24  1  0
 16 26  1  0
 17 23  1  0
 17 19  1  0
 18 24  1  0
 19 18  1  0
 20 19  2  0
 21 22  1  0
 21 15  2  0
 22 17  2  0
 23 16  1  0
 24 14  1  0
 26 28  2  0
 27 26  1  0
 29 27  1  0
 30 39  2  0
 30 35  1  0
 31 27  1  0
 31 35  1  0
 32 31  1  0
 33 34  1  0
 33 32  1  0
 34 30  1  0
 35 36  2  0
 36 37  1  0
 38 37  2  0
 39 38  1  0
 40 14  1  0
 40 45  1  0
 40 41  1  0
 41 44  1  1
 41 42  1  0
 43 41  1  0
 45 48  1  0
 46 50  1  0
 46 45  1  0
 47 46  2  0
 50 49  1  0
 52 50  1  0
 52 53  1  0
 52 51  1  0
 54 63  1  0
 55 63  1  0
 56 61  1  0
 57 58  1  0
 57 56  1  0
 59 58  1  0
 59 68  1  0
 59 60  1  0
 61 55  1  0
 61 60  1  0
 62 55  2  0
 63 64  1  0
 65 66  2  0
 66 67  1  0
 66 85  1  0
 67 70  1  0
 68 65  1  0
 68 69  1  0
 69 67  2  0
 70 71  1  0
 71 72  2  0
 73 76  1  0
 73 72  1  0
 74 73  2  0
 75 74  1  0
 75 70  2  0
 76 77  1  0
 77 78  1  0
 78 79  2  0
 80 79  1  0
 80 84  1  0
 81 80  2  0
 82 77  2  0
 82 81  1  0
 83 82  1  0
 85 86  1  0
 86 89  1  0
 86 88  1  0
 87 85  2  0
 90 91  1  0
 90 65  1  0
 92 90  1  0
M  ISO  4  12 101  13 101  55 100  63 100
M  END
>  <TORSDO>  (50) 
F 20

>  <SCORE>  (50) 
-12.478

>  <name>  (50) 
49

>  <ligand_id>  (50) 
49

>  <original_smiles>  (50) 
[H]c1c([H])c([H])c2c(c1[H])C([H])([H])C([H])([H])C([H])([H])C2([H])N([H])C(=O)C1([H])N(C(=O)C([H])(N([H])C(=O)C([H])(N([H])C([H])([H])[H])C([H])([H])[H])C(C([H])([H])[H])(C([H])([H])[H])C([H])([H])[H])C([H])([H])c2c([H])c(OC([H])([H])c3c(C([H])([H])C([H])([H])[H])nc(C([H])([H])N([H])C(=O)N4C([H])([H])C([H])([H])C([H])([H])C([H])(n5nc(-c6c([H])c([H])c(Oc7c([H])c([H])c(F)c([H])c7F)c([H])c6[H])c(C(=O)N([H])[H])c5N([H])[H])C4([H])[H])c([H])c3C3([H])C([H])([H])C3([H])[H])c([H])c([H])c2C1([H])[H]

>  <smiles>  (50) 
[H]c1c([H])c([H])c2c(c1[H])C([H])([H])C([H])([H])C([H])([H])C2([H])N([H])C(=O)C1([H])N(C(=O)C([H])(N([H])C(=O)C([H])(N([H])C([H])([H])[H])C([H])([H])[H])C(C([H])([H])[H])(C([H])([H])[H])C([H])([H])[H])C([H])([H])c2c([H])c(OC([H])([H])c3c(C([H])([H])C([H])([H])[H])nc(C([H])([H])N([H])C(=O)N4C([H])([H])C([H])([H])C([H])([H])C([H])(n5nc(-c6c([H])c([H])c(Oc7c([H])c([H])c(F)c([H])c7F)c([H])c6[H])c(C(=O)N([H])[H])c5N([H])[H])C4([H])[H])c([H])c3C3([H])C([H])([H])C3([H])[H])c([H])c([H])c2C1([H])[H]

$$$$
50:0:0
     RDKit          3D

 90 98  0  0  1  0  0  0  0  0999 V2000
  -29.6340  -21.4160   19.8200 N   0  0  0  0  0  0  0  0  0  0  0  0
  -30.1340  -21.7260   18.9900 H   0  0  0  0  0  0  0  0  0  0  0  0
  -30.8210  -17.8240   19.5300 C   0  0  0  0  0  3  0  0  0  0  0  0
  -29.1680  -17.9040   21.2760 C   0  0  0  0  0  3  0  0  0  0  0  0
  -30.6830  -19.2340   19.3600 C   0  0  0  0  0  3  0  0  0  0  0  0
  -29.0480  -19.3190   21.1230 C   0  0  0  0  0  3  0  0  0  0  0  0
  -30.0360  -17.1120   20.4730 C   0  0  0  0  0  0  0  0  0  0  0  0
  -29.7800  -20.0200   20.1280 C   0  0  0  0  0  0  0  0  0  0  0  0
  -30.7130  -14.6430   20.0390 C   0  0  0  0  0  0  0  0  0  0  0  0
  -30.4010  -12.4420   18.9220 C   0  0  0  0  0  2  0  0  0  0  0  0
  -29.3870  -12.6400   17.7730 C   0  0  0  0  0  2  0  0  0  0  0  0
  -27.9420  -12.4720   18.2850 C   0  0  0  0  0  2  0  0  0  0  0  0
  -27.6740  -13.2860   19.5790 C   0  0  0  0  0  3  0  0  0  0  0  0
  -28.8030  -13.0770   20.6150 C   0  0  0  0  0  2  0  0  0  0  0  0
  -30.0800  -13.4260   19.9720 N   0  0  0  0  0  0  0  0  0  0  0  0
  -31.8150  -14.8200   19.5110 O   0  0  0  0  0  0  0  0  0  0  0  0
  -30.0100  -15.6550   20.6290 N   0  0  0  0  0  0  0  0  0  0  0  0
  -29.2260  -15.3110   21.1620 H   0  0  0  0  0  0  0  0  0  0  0  0
  -25.3320  -13.8690   20.4670 C   0  0  0  0  0  0  0  0  0  0  0  0
  -24.2850  -13.0890   20.8770 C   0  0  0  0  0  0  0  0  0  0  0  0
  -24.7360  -11.7360   20.7720 C   0  0  0  0  0  0  0  0  0  0  0  0
  -26.3550  -12.9930   20.1360 N   0  0  0  0  0  0  0  0  0  0  0  0
  -26.0040  -11.7030   20.3790 N   0  0  0  0  0  0  0  0  0  0  0  0
  -24.0150  -10.4700   20.9660 C   0  0  0  0  0  0  0  0  0  0  0  0
  -24.4660   -9.5000   21.8880 C   0  0  0  0  0  3  0  0  0  0  0  0
  -23.7470   -8.2980   22.0690 C   0  0  0  0  0  3  0  0  0  0  0  0
  -22.5640   -8.0610   21.3300 C   0  0  0  0  0  0  0  0  0  0  0  0
  -22.1330   -9.0210   20.3970 C   0  0  0  0  0  3  0  0  0  0  0  0
  -22.8520  -10.2140   20.2140 C   0  0  0  0  0  3  0  0  0  0  0  0
  -21.8140   -6.9150   21.4240 O   0  0  0  0  0  0  0  0  0  0  0  0
  -21.7380   -6.1970   22.5900 C   0  0  0  0  0  0  0  0  0  0  0  0
  -21.2550   -6.7660   23.7890 C   0  0  0  0  0  3  0  0  0  0  0  0
  -21.1320   -5.9710   24.9450 C   0  0  0  0  0  3  0  0  0  0  0  0
  -21.4800   -4.6070   24.9050 C   0  0  0  0  0  0  0  0  0  0  0  0
  -21.9560   -4.0380   23.7120 C   0  0  0  0  0  3  0  0  0  0  0  0
  -22.0810   -4.8290   22.5560 C   0  0  0  0  0  0  0  0  0  0  0  0
  -22.5200   -4.2710   21.4040 F   0  0  0  0  0  0  0  0  0  0  0  0
  -21.3540   -3.8410   26.0150 F   0  0  0  0  0  0  0  0  0  0  0  0
  -22.9100  -13.5630   21.2480 C   0  0  0  0  0  0  0  0  0  0  0  0
  -22.2280  -12.8440   22.1330 N   0  0  0  0  0  0  0  0  0  0  0  0
  -22.4500  -14.6080   20.7900 O   0  0  0  0  0  0  0  0  0  0  0  0
  -22.6110  -12.0010   22.5340 H   0  0  0  0  0  0  0  0  0  0  0  0
  -21.3070  -13.1470   22.4170 H   0  0  0  0  0  0  0  0  0  0  0  0
  -25.5000  -15.2440   20.3270 N   0  0  0  0  0  0  0  0  0  0  0  0
  -24.7560  -15.9080   20.5120 H   0  0  0  0  0  0  0  0  0  0  0  0
  -26.3390  -15.6810   19.9680 H   0  0  0  0  0  0  0  0  0  0  0  0
  -29.1150  -22.5150   20.6920 C   0  0  0  0  0  2  0  0  0  0  0  0
  -28.9140  -23.9370   19.9780 C   0  0  0  0  0  3  0  0  0  0  0  0
  -28.3480  -25.1710   20.8140 C   0  0  0  0  0  3  0  0  0  0  0  0
  -28.4670  -26.5320   20.2450 O   0  0  0  0  0  0  0  0  0  0  0  0
  -24.6800  -31.9040   23.1960 C   0  0  0  0  0  0  0  0  0  0  0  0
  -27.3280  -27.3450   20.2220 C   0  0  0  0  0  0  0  0  0  0  0  0
  -23.4820  -30.4760   21.5730 C   0  0  0  0  0  3  0  0  0  0  0  0
  -24.9460  -28.9150   20.1720 C   0  0  0  0  0  0  0  0  0  0  0  0
  -26.0150  -30.8210   21.3810 C   0  0  0  0  0  2  0  0  0  0  0  0
  -26.1080  -29.4340   20.7580 C   0  0  0  0  0  0  0  0  0  0  0  0
  -27.3040  -28.6610   20.7690 C   0  0  0  0  0  3  0  0  0  0  0  0
  -26.1470  -26.8640   19.6190 C   0  0  0  0  0  3  0  0  0  0  0  0
  -24.9660  -27.6350   19.5950 C   0  0  0  0  0  3  0  0  0  0  0  0
  -23.7030  -29.7820   20.2010 C   0  0  0  0  0  2  0  0  0  0  0  0
  -24.7440  -31.0860   22.1060 N   0  0  0  0  0  0  0  0  0  0  0  0
  -23.5970  -32.1810   23.7320 O   0  0  0  0  0  0  0  0  0  0  0  0
  -22.8310  -29.4660   22.5470 C   0  0  0  0  0  0  0  0  0  0  0  0
  -21.5040  -29.2890   22.4330 N   0  0  0  0  0  0  0  0  0  0  0  0
  -23.5180  -28.8460   23.3610 O   0  0  0  0  0  0  0  0  0  0  0  0
  -21.0100  -29.8400   21.7450 H   0  0  0  0  0  0  0  0  0  0  0  0
  -18.1290  -28.1050   22.9700 C   0  0  0  0  0  0  0  0  0  0  0  0
  -20.6910  -28.3580   23.2160 C   0  0  0  0  0  3  0  0  0  0  0  0
  -20.7830  -26.9230   22.6480 C   0  0  0  0  0  2  0  0  0  0  0  0
  -19.6710  -26.5970   21.6460 C   0  0  0  0  0  2  0  0  0  0  0  0
  -18.2950  -26.7500   22.3010 C   0  0  0  0  0  2  0  0  0  0  0  0
  -19.2540  -28.8670   23.3850 C   0  0  0  0  0  0  0  0  0  0  0  0
  -19.0440  -30.1340   23.9690 C   0  0  0  0  0  3  0  0  0  0  0  0
  -17.7420  -30.6400   24.1460 C   0  0  0  0  0  3  0  0  0  0  0  0
  -16.6320  -29.8750   23.7490 C   0  0  0  0  0  3  0  0  0  0  0  0
  -16.8260  -28.6100   23.1660 C   0  0  0  0  0  3  0  0  0  0  0  0
  -25.9620  -32.5500   23.8110 C   0  0  0  0  0  3  0  0  0  0  0  0
  -26.5040  -31.7760   25.0750 C   0  0  1  0  0  0  0  0  0  0  0  0
  -25.4260  -31.5120   26.1530 C   0  0  0  0  0  1  0  0  0  0  0  0
  -27.1070  -30.4120   24.6660 C   0  0  0  0  0  1  0  0  0  0  0  0
  -27.6490  -32.5830   25.7320 C   0  0  0  0  0  1  0  0  0  0  0  0
  -25.6380  -33.9420   24.1540 N   0  0  0  0  0  0  0  0  0  0  0  0
  -25.9390  -35.0030   23.3950 C   0  0  0  0  0  0  0  0  0  0  0  0
  -26.5900  -34.9150   22.3490 O   0  0  0  0  0  0  0  0  0  0  0  0
  -25.0590  -34.0830   24.9690 H   0  0  0  0  0  0  0  0  0  0  0  0
  -24.1760  -36.7680   23.0860 C   0  0  0  0  0  1  0  0  0  0  0  0
  -25.4390  -36.3800   23.8690 C   0  0  0  0  0  3  0  0  0  0  0  0
  -27.5730  -37.2960   24.6640 C   0  0  0  0  0  1  0  0  0  0  0  0
  -26.4500  -37.4510   23.7420 N   0  0  0  0  0  0  0  0  0  0  0  0
  -26.0330  -38.3640   23.9020 H   0  0  0  0  0  0  0  0  0  0  0  0
  1  8  1  0
  1 47  1  0
  2  1  1  0
  3  7  1  0
  5  3  2  0
  5  8  1  0
  6  4  1  0
  7 17  1  0
  7  4  2  0
  8  6  2  0
  9 17  1  0
 10 15  1  0
 11 12  1  0
 11 10  1  0
 13 12  1  0
 13 22  1  0
 13 14  1  0
 15  9  1  0
 15 14  1  0
 16  9  2  0
 17 18  1  0
 19 20  2  0
 20 39  1  0
 21 20  1  0
 21 24  1  0
 22 23  1  0
 22 19  1  0
 23 21  2  0
 24 25  1  0
 25 26  2  0
 27 30  1  0
 27 26  1  0
 28 27  2  0
 29 28  1  0
 29 24  2  0
 30 31  1  0
 31 32  1  0
 32 33  2  0
 34 33  1  0
 34 38  1  0
 35 34  2  0
 36 31  2  0
 36 35  1  0
 37 36  1  0
 39 40  1  0
 40 43  1  0
 40 42  1  0
 41 39  2  0
 44 19  1  0
 44 45  1  0
 46 44  1  0
 48 47  1  0
 48 49  2  0
 50 49  1  0
 51 62  2  0
 52 50  1  0
 52 57  1  0
 53 61  1  0
 53 63  1  0
 54 60  1  0
 54 56  1  0
 55 61  1  0
 56 57  2  0
 56 55  1  0
 58 52  2  0
 59 58  1  0
 59 54  2  0
 60 53  1  0
 61 51  1  0
 63 65  2  0
 64 63  1  0
 66 64  1  0
 67 76  2  0
 67 72  1  0
 68 64  1  0
 68 72  1  0
 69 68  1  0
 70 71  1  0
 70 69  1  0
 71 67  1  0
 72 73  2  0
 73 74  1  0
 75 74  2  0
 76 75  1  0
 77 51  1  0
 77 82  1  0
 77 78  1  0
 78 81  1  1
 78 79  1  0
 80 78  1  0
 82 85  1  0
 83 87  1  0
 83 82  1  0
 84 83  2  0
 87 86  1  0
 89 87  1  0
 89 90  1  0
 89 88  1  0
M  ISO  4   9 100  17 100  49 101  50 101
M  END
>  <TORSDO>  (51) 
F 20

>  <SCORE>  (51) 
-13.017

>  <name>  (51) 
50

>  <ligand_id>  (51) 
50

>  <original_smiles>  (51) 
[H]c1c([H])c([H])c2c(c1[H])C([H])([H])C([H])([H])C([H])([H])C2([H])N([H])C(=O)C1([H])N(C(=O)C([H])(N([H])C(=O)C([H])(N([H])C([H])([H])[H])C([H])([H])[H])C(C([H])([H])[H])(C([H])([H])[H])C([H])([H])[H])C([H])([H])c2c([H])c(OC([H])([H])C([H])([H])C([H])([H])N([H])c3c([H])c([H])c(N([H])C(=O)N4C([H])([H])C([H])([H])C([H])([H])C([H])(n5nc(-c6c([H])c([H])c(Oc7c([H])c([H])c(F)c([H])c7F)c([H])c6[H])c(C(=O)N([H])[H])c5N([H])[H])C4([H])[H])c([H])c3[H])c([H])c([H])c2C1([H])[H]

>  <smiles>  (51) 
[H]c1c([H])c([H])c2c(c1[H])C([H])([H])C([H])([H])C([H])([H])C2([H])N([H])C(=O)C1([H])N(C(=O)C([H])(N([H])C(=O)C([H])(N([H])C([H])([H])[H])C([H])([H])[H])C(C([H])([H])[H])(C([H])([H])[H])C([H])([H])[H])C([H])([H])c2c([H])c(OC([H])([H])C([H])([H])C([H])([H])N([H])c3c([H])c([H])c(N([H])C(=O)N4C([H])([H])C([H])([H])C([H])([H])C([H])(n5nc(-c6c([H])c([H])c(Oc7c([H])c([H])c(F)c([H])c7F)c([H])c6[H])c(C(=O)N([H])[H])c5N([H])[H])C4([H])[H])c([H])c3[H])c([H])c([H])c2C1([H])[H]

$$$$
51:0:0
     RDKit          3D

 96105  0  0  1  0  0  0  0  0999 V2000
  -30.6510  -22.2480   20.0390 C   0  0  0  0  0  3  0  0  0  0  0  0
  -30.3420  -23.6250   19.9080 C   0  0  0  0  0  3  0  0  0  0  0  0
  -28.0050  -23.0890   19.8660 C   0  0  0  0  0  3  0  0  0  0  0  0
  -29.6610  -21.2220   19.9840 C   0  0  0  0  0  0  0  0  0  0  0  0
  -29.0150  -24.0750   19.7340 C   0  0  0  0  0  0  0  0  0  0  0  0
  -28.3110  -21.6960   20.0100 C   0  0  0  0  0  0  0  0  0  0  0  0
  -27.1570  -20.7180   20.1300 C   0  0  0  0  0  1  0  0  0  0  0  0
  -30.9930  -18.6310   21.7080 C   0  0  0  0  0  2  0  0  0  0  0  0
  -32.2430  -19.4500   21.3010 C   0  0  0  0  0  2  0  0  0  0  0  0
  -31.4610  -19.6540   18.9160 C   0  0  0  0  0  2  0  0  0  0  0  0
  -30.0530  -19.7280   19.5890 C   0  0  0  0  0  3  0  0  0  0  0  0
  -29.9480  -18.4730   20.5810 C   0  0  0  0  0  3  0  0  0  0  0  0
  -32.5610  -19.3190   19.8600 N   0  0  0  0  0  4  0  0  0  0  0  0
  -32.8300  -18.3620   19.6980 H   0  0  0  0  0  0  0  0  0  0  0  0
  -33.3680  -19.8790   19.6360 H   0  0  0  0  0  0  0  0  0  0  0  0
  -30.1060  -17.0760   19.8010 C   0  0  0  0  0  2  0  0  0  0  0  0
  -30.8320  -14.6480   20.0660 C   0  0  0  0  0  0  0  0  0  0  0  0
  -30.5280  -12.4470   18.9590 C   0  0  0  0  0  2  0  0  0  0  0  0
  -29.5390  -12.6300   17.7840 C   0  0  0  0  0  2  0  0  0  0  0  0
  -28.0840  -12.4920   18.2730 C   0  0  0  0  0  2  0  0  0  0  0  0
  -27.8030  -13.3220   19.5550 C   0  0  0  0  0  3  0  0  0  0  0  0
  -28.9000  -13.1230   20.6240 C   0  0  0  0  0  2  0  0  0  0  0  0
  -30.1900  -13.4430   19.9980 N   0  0  0  0  0  0  0  0  0  0  0  0
  -31.9550  -14.8010   19.5720 O   0  0  0  0  0  0  0  0  0  0  0  0
  -30.0880  -15.7280   20.4720 N   0  0  0  0  0  0  0  0  0  0  0  0
  -29.2290  -15.4840   20.9440 H   0  0  0  0  0  0  0  0  0  0  0  0
  -25.4520  -13.9390   20.3850 C   0  0  0  0  0  0  0  0  0  0  0  0
  -24.3940  -13.1730   20.7930 C   0  0  0  0  0  0  0  0  0  0  0  0
  -24.8360  -11.8170   20.7200 C   0  0  0  0  0  0  0  0  0  0  0  0
  -26.4730  -13.0490   20.0910 N   0  0  0  0  0  0  0  0  0  0  0  0
  -26.1100  -11.7660   20.3510 N   0  0  0  0  0  0  0  0  0  0  0  0
  -24.1040  -10.5610   20.9270 C   0  0  0  0  0  0  0  0  0  0  0  0
  -24.5420   -9.5940   21.8590 C   0  0  0  0  0  3  0  0  0  0  0  0
  -23.8120   -8.4010   22.0500 C   0  0  0  0  0  3  0  0  0  0  0  0
  -22.6270   -8.1670   21.3120 C   0  0  0  0  0  0  0  0  0  0  0  0
  -22.2080   -9.1230   20.3700 C   0  0  0  0  0  3  0  0  0  0  0  0
  -22.9400  -10.3050   20.1740 C   0  0  0  0  0  3  0  0  0  0  0  0
  -21.8680   -7.0250   21.4150 O   0  0  0  0  0  0  0  0  0  0  0  0
  -21.8010   -6.3100   22.5840 C   0  0  0  0  0  0  0  0  0  0  0  0
  -21.3300   -6.8850   23.7830 C   0  0  0  0  0  3  0  0  0  0  0  0
  -21.2080   -6.0940   24.9430 C   0  0  0  0  0  3  0  0  0  0  0  0
  -21.5480   -4.7280   24.9040 C   0  0  0  0  0  0  0  0  0  0  0  0
  -22.0120   -4.1510   23.7080 C   0  0  0  0  0  3  0  0  0  0  0  0
  -22.1350   -4.9410   22.5510 C   0  0  0  0  0  0  0  0  0  0  0  0
  -22.5620   -4.3750   21.3960 F   0  0  0  0  0  0  0  0  0  0  0  0
  -21.4250   -3.9660   26.0150 F   0  0  0  0  0  0  0  0  0  0  0  0
  -23.0190  -13.6650   21.1400 C   0  0  0  0  0  0  0  0  0  0  0  0
  -22.3210  -12.9610   22.0240 N   0  0  0  0  0  0  0  0  0  0  0  0
  -22.5740  -14.7070   20.6610 O   0  0  0  0  0  0  0  0  0  0  0  0
  -22.6940  -12.1170   22.4330 H   0  0  0  0  0  0  0  0  0  0  0  0
  -21.4000  -13.2720   22.2980 H   0  0  0  0  0  0  0  0  0  0  0  0
  -25.6290  -15.3090   20.2200 N   0  0  0  0  0  0  0  0  0  0  0  0
  -24.8740  -15.9680   20.3730 H   0  0  0  0  0  0  0  0  0  0  0  0
  -26.4710  -15.7440   19.8650 H   0  0  0  0  0  0  0  0  0  0  0  0
  -28.7430  -25.5250   19.2120 C   0  0  0  0  0  2  0  0  0  0  0  0
  -28.4860  -26.6020   20.1650 O   0  0  0  0  0  0  0  0  0  0  0  0
  -24.5890  -31.8340   23.1380 C   0  0  0  0  0  0  0  0  0  0  0  0
  -27.3230  -27.3720   20.0860 C   0  0  0  0  0  0  0  0  0  0  0  0
  -23.4330  -30.4410   21.4590 C   0  0  0  0  0  3  0  0  0  0  0  0
  -24.9260  -28.9220   20.0520 C   0  0  0  0  0  0  0  0  0  0  0  0
  -25.9700  -30.7940   21.3310 C   0  0  0  0  0  2  0  0  0  0  0  0
  -26.0750  -29.4300   20.6680 C   0  0  0  0  0  0  0  0  0  0  0  0
  -27.2730  -28.6660   20.6790 C   0  0  0  0  0  3  0  0  0  0  0  0
  -26.1380  -26.8840   19.4880 C   0  0  0  0  0  3  0  0  0  0  0  0
  -24.9550  -27.6490   19.4600 C   0  0  0  0  0  3  0  0  0  0  0  0
  -23.6810  -29.7830   20.0760 C   0  0  0  0  0  2  0  0  0  0  0  0
  -24.6810  -31.0390   22.0320 N   0  0  0  0  0  0  0  0  0  0  0  0
  -23.4930  -32.0970   23.6520 O   0  0  0  0  0  0  0  0  0  0  0  0
  -22.7640  -29.4060   22.3910 C   0  0  0  0  0  0  0  0  0  0  0  0
  -21.4350  -29.2600   22.2710 N   0  0  0  0  0  0  0  0  0  0  0  0
  -23.4390  -28.7390   23.1820 O   0  0  0  0  0  0  0  0  0  0  0  0
  -20.9540  -29.8500   21.6060 H   0  0  0  0  0  0  0  0  0  0  0  0
  -18.0270  -28.1780   22.8180 C   0  0  0  0  0  0  0  0  0  0  0  0
  -20.6010  -28.3180   23.0200 C   0  0  0  0  0  3  0  0  0  0  0  0
  -20.6270  -26.9150   22.3700 C   0  0  0  0  0  2  0  0  0  0  0  0
  -19.4830  -26.6890   21.3780 C   0  0  0  0  0  2  0  0  0  0  0  0
  -18.1280  -26.8590   22.0720 C   0  0  0  0  0  2  0  0  0  0  0  0
  -19.1900  -28.8710   23.2490 C   0  0  0  0  0  0  0  0  0  0  0  0
  -19.0410  -30.1110   23.9060 C   0  0  0  0  0  3  0  0  0  0  0  0
  -17.7640  -30.6560   24.1400 C   0  0  0  0  0  3  0  0  0  0  0  0
  -16.6170  -29.9560   23.7260 C   0  0  0  0  0  3  0  0  0  0  0  0
  -16.7510  -28.7190   23.0700 C   0  0  0  0  0  3  0  0  0  0  0  0
  -25.8530  -32.4700   23.7950 C   0  0  0  0  0  3  0  0  0  0  0  0
  -26.3530  -31.6870   25.0720 C   0  0  1  0  0  0  0  0  0  0  0  0
  -25.2410  -31.4210   26.1130 C   0  0  0  0  0  1  0  0  0  0  0  0
  -26.9620  -30.3230   24.6730 C   0  0  0  0  0  1  0  0  0  0  0  0
  -27.4780  -32.4860   25.7700 C   0  0  0  0  0  1  0  0  0  0  0  0
  -25.5230  -33.8600   24.1390 N   0  0  0  0  0  0  0  0  0  0  0  0
  -25.8470  -34.9280   23.3970 C   0  0  0  0  0  0  0  0  0  0  0  0
  -26.5250  -34.8460   22.3700 O   0  0  0  0  0  0  0  0  0  0  0  0
  -24.9300  -33.9980   24.9450 H   0  0  0  0  0  0  0  0  0  0  0  0
  -24.0970  -36.6990   23.0440 C   0  0  0  0  0  1  0  0  0  0  0  0
  -25.3330  -36.3030   23.8670 C   0  0  0  0  0  3  0  0  0  0  0  0
  -27.4420  -37.2080   24.7410 C   0  0  0  0  0  1  0  0  0  0  0  0
  -26.3530  -37.3720   23.7810 N   0  0  0  0  0  0  0  0  0  0  0  0
  -25.9320  -38.2850   23.9310 H   0  0  0  0  0  0  0  0  0  0  0  0
  2  1  2  0
  3  6  1  0
  4  6  2  0
  4  1  1  0
  5  3  2  0
  5  2  1  0
  6  7  1  0
  9  8  1  0
 10 11  1  0
 10 13  1  0
 11  4  1  0
 11 12  1  0
 12 16  1  0
 12  8  1  0
 13  9  1  0
 14 13  1  0
 15 13  1  0
 16 25  1  0
 17 25  1  0
 18 23  1  0
 19 20  1  0
 19 18  1  0
 21 20  1  0
 21 30  1  0
 21 22  1  0
 23 17  1  0
 23 22  1  0
 24 17  2  0
 25 26  1  0
 27 28  2  0
 28 47  1  0
 29 28  1  0
 29 32  1  0
 30 31  1  0
 30 27  1  0
 31 29  2  0
 32 33  1  0
 33 34  2  0
 35 38  1  0
 35 34  1  0
 36 35  2  0
 37 36  1  0
 37 32  2  0
 38 39  1  0
 39 40  1  0
 40 41  2  0
 42 41  1  0
 42 46  1  0
 43 42  2  0
 44 39  2  0
 44 43  1  0
 45 44  1  0
 47 48  1  0
 48 51  1  0
 48 50  1  0
 49 47  2  0
 52 53  1  0
 52 27  1  0
 54 52  1  0
 55  5  1  0
 55 56  1  0
 57 68  2  0
 58 56  1  0
 58 63  1  0
 59 67  1  0
 59 69  1  0
 60 66  1  0
 60 62  1  0
 61 67  1  0
 62 63  2  0
 62 61  1  0
 64 58  2  0
 65 64  1  0
 65 60  2  0
 66 59  1  0
 67 57  1  0
 69 71  2  0
 70 69  1  0
 72 70  1  0
 73 82  2  0
 73 78  1  0
 74 70  1  0
 74 78  1  0
 75 74  1  0
 76 77  1  0
 76 75  1  0
 77 73  1  0
 78 79  2  0
 79 80  1  0
 81 80  2  0
 82 81  1  0
 83 57  1  0
 83 88  1  0
 83 84  1  0
 84 87  1  1
 84 85  1  0
 86 84  1  0
 88 91  1  0
 89 93  1  0
 89 88  1  0
 90 89  2  0
 93 92  1  0
 95 93  1  0
 95 96  1  0
 95 94  1  0
M  ISO  4  17 100  25 100  55 101  56 101
M  END
>  <TORSDO>  (52) 
F 19

>  <SCORE>  (52) 
-13.858

>  <name>  (52) 
51

>  <ligand_id>  (52) 
51

>  <original_smiles>  (52) 
[H]c1c([H])c([H])c2c(c1[H])C([H])([H])C([H])([H])C([H])([H])C2([H])N([H])C(=O)C1([H])N(C(=O)C([H])(N([H])C(=O)C([H])(N([H])C([H])([H])[H])C([H])([H])[H])C(C([H])([H])[H])(C([H])([H])[H])C([H])([H])[H])C([H])([H])c2c([H])c(OC([H])([H])c3c([H])c([H])c(C4([H])C([H])(C([H])([H])N([H])C(=O)N5C([H])([H])C([H])([H])C([H])([H])C([H])(n6nc(-c7c([H])c([H])c(Oc8c([H])c([H])c(F)c([H])c8F)c([H])c7[H])c(C(=O)N([H])[H])c6N([H])[H])C5([H])[H])C([H])([H])C([H])([H])[N+]([H])([H])C4([H])[H])c(C([H])([H])[H])c3[H])c([H])c([H])c2C1([H])[H]

>  <smiles>  (52) 
[H]c1c([H])c([H])c2c(c1[H])C([H])([H])C([H])([H])C([H])([H])C2([H])N([H])C(=O)C1([H])N(C(=O)C([H])(N([H])C(=O)C([H])(N([H])C([H])([H])[H])C([H])([H])[H])C(C([H])([H])[H])(C([H])([H])[H])C([H])([H])[H])C([H])([H])c2c([H])c(OC([H])([H])c3c([H])c([H])c(C4([H])C([H])(C([H])([H])N([H])C(=O)N5C([H])([H])C([H])([H])C([H])([H])C([H])(n6nc(-c7c([H])c([H])c(Oc8c([H])c([H])c(F)c([H])c8F)c([H])c7[H])c(C(=O)N([H])[H])c6N([H])[H])C5([H])[H])C([H])([H])C([H])([H])[N+]([H])([H])C4([H])[H])c(C([H])([H])[H])c3[H])c([H])c([H])c2C1([H])[H]

$$$$
52:0:0
     RDKit          3D

 92101  0  0  1  0  0  0  0  0999 V2000
  -28.1710  -20.8170   19.9960 C   0  0  0  0  0  2  0  0  0  0  0  0
  -30.0560  -21.5650   21.3200 C   0  0  0  0  0  2  0  0  0  0  0  0
  -28.0230  -22.3100   19.4350 C   0  0  0  0  0  2  0  0  0  0  0  0
  -29.9290  -23.0440   20.7470 C   0  0  0  0  0  2  0  0  0  0  0  0
  -29.6130  -20.3370   20.4050 C   0  0  0  0  0  3  0  0  0  0  0  0
  -28.5010  -23.5260   20.3320 C   0  0  0  0  0  3  0  0  0  0  0  0
  -31.2700  -17.4990   21.8470 C   0  0  0  0  0  2  0  0  0  0  0  0
  -30.4760  -17.4230   20.5470 C   0  0  0  0  0  3  0  0  0  0  0  0
  -29.7770  -18.8240   21.0820 C   0  0  0  0  0  3  0  0  0  0  0  0
  -31.0360  -18.9230   21.8500 N   0  0  0  0  0  4  0  0  0  0  0  0
  -31.7570  -19.3950   21.3310 H   0  0  0  0  0  0  0  0  0  0  0  0
  -30.9380  -19.3070   22.7750 H   0  0  0  0  0  0  0  0  0  0  0  0
  -30.5900  -14.8140   20.2630 C   0  0  0  0  0  0  0  0  0  0  0  0
  -30.3600  -12.5410   19.2390 C   0  0  0  0  0  2  0  0  0  0  0  0
  -29.4030  -12.5990   18.0290 C   0  0  0  0  0  2  0  0  0  0  0  0
  -27.9440  -12.4130   18.4860 C   0  0  0  0  0  2  0  0  0  0  0  0
  -27.5840  -13.2980   19.7100 C   0  0  0  0  0  3  0  0  0  0  0  0
  -28.6630  -13.2340   20.8110 C   0  0  0  0  0  2  0  0  0  0  0  0
  -29.9400  -13.6000   20.1880 N   0  0  0  0  0  0  0  0  0  0  0  0
  -31.7790  -14.8750   19.9360 O   0  0  0  0  0  0  0  0  0  0  0  0
  -29.8830  -15.9960   20.5070 N   0  0  0  0  0  0  0  0  0  0  0  0
  -28.8940  -15.9010   20.6860 H   0  0  0  0  0  0  0  0  0  0  0  0
  -25.2090  -13.8690   20.4840 C   0  0  0  0  0  0  0  0  0  0  0  0
  -24.1550  -13.0870   20.8680 C   0  0  0  0  0  0  0  0  0  0  0  0
  -24.6250  -11.7390   20.8240 C   0  0  0  0  0  0  0  0  0  0  0  0
  -26.2530  -12.9970   20.2260 N   0  0  0  0  0  0  0  0  0  0  0  0
  -25.9110  -11.7100   20.4940 N   0  0  0  0  0  0  0  0  0  0  0  0
  -23.9070  -10.4710   21.0180 C   0  0  0  0  0  0  0  0  0  0  0  0
  -24.3530   -9.5050   21.9460 C   0  0  0  0  0  3  0  0  0  0  0  0
  -23.6350   -8.3030   22.1280 C   0  0  0  0  0  3  0  0  0  0  0  0
  -22.4560   -8.0610   21.3830 C   0  0  0  0  0  0  0  0  0  0  0  0
  -22.0300   -9.0160   20.4450 C   0  0  0  0  0  3  0  0  0  0  0  0
  -22.7480  -10.2090   20.2600 C   0  0  0  0  0  3  0  0  0  0  0  0
  -21.7080   -6.9120   21.4760 O   0  0  0  0  0  0  0  0  0  0  0  0
  -21.6700   -6.1690   22.6290 C   0  0  0  0  0  0  0  0  0  0  0  0
  -21.2360   -6.7190   23.8550 C   0  0  0  0  0  3  0  0  0  0  0  0
  -21.1460   -5.9020   25.0000 C   0  0  0  0  0  3  0  0  0  0  0  0
  -21.4790   -4.5370   24.9200 C   0  0  0  0  0  0  0  0  0  0  0  0
  -21.9060   -3.9870   23.6980 C   0  0  0  0  0  3  0  0  0  0  0  0
  -21.9970   -4.8000   22.5550 C   0  0  0  0  0  0  0  0  0  0  0  0
  -22.3890   -4.2610   21.3760 F   0  0  0  0  0  0  0  0  0  0  0  0
  -21.3850   -3.7490   26.0170 F   0  0  0  0  0  0  0  0  0  0  0  0
  -22.7590  -13.5560   21.1610 C   0  0  0  0  0  0  0  0  0  0  0  0
  -22.0460  -12.8510   22.0320 N   0  0  0  0  0  0  0  0  0  0  0  0
  -22.3100  -14.5820   20.6510 O   0  0  0  0  0  0  0  0  0  0  0  0
  -22.4230  -12.0210   22.4640 H   0  0  0  0  0  0  0  0  0  0  0  0
  -21.1100  -13.1460   22.2710 H   0  0  0  0  0  0  0  0  0  0  0  0
  -25.3610  -15.2410   20.3080 N   0  0  0  0  0  0  0  0  0  0  0  0
  -24.5880  -15.8870   20.4250 H   0  0  0  0  0  0  0  0  0  0  0  0
  -26.1910  -15.6850   19.9350 H   0  0  0  0  0  0  0  0  0  0  0  0
  -28.3920  -25.0050   19.6140 C   0  0  0  0  0  2  0  0  0  0  0  0
  -28.3110  -26.3690   20.2760 O   0  0  0  0  0  0  0  0  0  0  0  0
  -24.6060  -31.8870   23.2500 C   0  0  0  0  0  0  0  0  0  0  0  0
  -27.1990  -27.2540   20.1930 C   0  0  0  0  0  0  0  0  0  0  0  0
  -23.4010  -30.4890   21.6140 C   0  0  0  0  0  3  0  0  0  0  0  0
  -24.8460  -28.9310   20.1840 C   0  0  0  0  0  0  0  0  0  0  0  0
  -25.9470  -30.7840   21.4320 C   0  0  0  0  0  2  0  0  0  0  0  0
  -26.0220  -29.3990   20.7820 C   0  0  0  0  0  0  0  0  0  0  0  0
  -27.1960  -28.5740   20.7760 C   0  0  0  0  0  3  0  0  0  0  0  0
  -25.9890  -26.8580   19.5790 C   0  0  0  0  0  3  0  0  0  0  0  0
  -24.8370  -27.6690   19.5720 C   0  0  0  0  0  3  0  0  0  0  0  0
  -23.6140  -29.8150   20.2340 C   0  0  0  0  0  2  0  0  0  0  0  0
  -24.6720  -31.0730   22.1540 N   0  0  0  0  0  0  0  0  0  0  0  0
  -23.5220  -32.1670   23.7840 O   0  0  0  0  0  0  0  0  0  0  0  0
  -22.7350  -29.4750   22.5760 C   0  0  0  0  0  0  0  0  0  0  0  0
  -21.4080  -29.2980   22.4510 N   0  0  0  0  0  0  0  0  0  0  0  0
  -23.4130  -28.8510   23.3970 O   0  0  0  0  0  0  0  0  0  0  0  0
  -20.9190  -29.8530   21.7640 H   0  0  0  0  0  0  0  0  0  0  0  0
  -18.0300  -28.1010   22.9630 C   0  0  0  0  0  0  0  0  0  0  0  0
  -20.5900  -28.3600   23.2250 C   0  0  0  0  0  3  0  0  0  0  0  0
  -20.6900  -26.9290   22.6500 C   0  0  0  0  0  2  0  0  0  0  0  0
  -19.5840  -26.6060   21.6390 C   0  0  0  0  0  2  0  0  0  0  0  0
  -18.2050  -26.7520   22.2860 C   0  0  0  0  0  2  0  0  0  0  0  0
  -19.1510  -28.8630   23.3900 C   0  0  0  0  0  0  0  0  0  0  0  0
  -18.9330  -30.1250   23.9840 C   0  0  0  0  0  3  0  0  0  0  0  0
  -17.6290  -30.6260   24.1540 C   0  0  0  0  0  3  0  0  0  0  0  0
  -16.5230  -29.8620   23.7440 C   0  0  0  0  0  3  0  0  0  0  0  0
  -16.7250  -28.6000   23.1530 C   0  0  0  0  0  3  0  0  0  0  0  0
  -25.8870  -32.5240   23.8710 C   0  0  0  0  0  3  0  0  0  0  0  0
  -25.5790  -33.9240   24.1940 N   0  0  0  0  0  0  0  0  0  0  0  0
  -25.9110  -34.9740   23.4310 C   0  0  0  0  0  0  0  0  0  0  0  0
  -26.5770  -34.8650   22.3980 O   0  0  0  0  0  0  0  0  0  0  0  0
  -24.9860  -34.0830   24.9960 H   0  0  0  0  0  0  0  0  0  0  0  0
  -24.1850  -36.7710   23.0720 C   0  0  0  0  0  1  0  0  0  0  0  0
  -25.4260  -36.3650   23.8840 C   0  0  0  0  0  3  0  0  0  0  0  0
  -27.5620  -37.2480   24.7140 C   0  0  0  0  0  1  0  0  0  0  0  0
  -26.4600  -37.4170   23.7700 N   0  0  0  0  0  0  0  0  0  0  0  0
  -26.0550  -38.3370   23.9180 H   0  0  0  0  0  0  0  0  0  0  0  0
  -26.3980  -31.7600   25.1550 C   0  0  1  0  0  0  0  0  0  0  0  0
  -25.3020  -31.5330   26.2220 C   0  0  0  0  0  1  0  0  0  0  0  0
  -26.9790  -30.3780   24.7770 C   0  0  0  0  0  1  0  0  0  0  0  0
  -27.5480  -32.5570   25.8140 C   0  0  0  0  0  1  0  0  0  0  0  0
  3  1  1  0
  3  6  1  0
  4  2  1  0
  5  1  1  0
  5  2  1  0
  6 51  1  0
  6  4  1  0
  7 10  1  0
  8 21  1  0
  8  9  1  0
  8  7  1  0
  9  5  1  0
  9 10  1  0
 10 12  1  0
 11 10  1  0
 13 21  1  0
 14 19  1  0
 15 16  1  0
 15 14  1  0
 17 16  1  0
 17 26  1  0
 17 18  1  0
 19 13  1  0
 19 18  1  0
 20 13  2  0
 21 22  1  0
 23 24  2  0
 24 43  1  0
 25 24  1  0
 25 28  1  0
 26 23  1  0
 26 27  1  0
 27 25  2  0
 28 29  1  0
 29 30  2  0
 31 34  1  0
 31 30  1  0
 32 31  2  0
 33 32  1  0
 33 28  2  0
 34 35  1  0
 35 36  1  0
 36 37  2  0
 38 37  1  0
 38 42  1  0
 39 38  2  0
 40 35  2  0
 40 39  1  0
 41 40  1  0
 43 44  1  0
 44 47  1  0
 44 46  1  0
 45 43  2  0
 48 49  1  0
 48 23  1  0
 50 48  1  0
 51 52  1  0
 53 64  2  0
 54 52  1  0
 54 59  1  0
 55 63  1  0
 55 65  1  0
 56 62  1  0
 56 58  1  0
 57 63  1  0
 58 57  1  0
 59 58  2  0
 60 54  2  0
 61 60  1  0
 61 56  2  0
 62 55  1  0
 63 53  1  0
 65 67  2  0
 66 65  1  0
 68 66  1  0
 69 78  2  0
 69 74  1  0
 70 66  1  0
 70 74  1  0
 71 70  1  0
 72 73  1  0
 72 71  1  0
 73 69  1  0
 74 75  2  0
 75 76  1  0
 77 76  2  0
 78 77  1  0
 79 53  1  0
 79 80  1  0
 79 89  1  0
 80 83  1  0
 81 85  1  0
 81 80  1  0
 82 81  2  0
 85 84  1  0
 87 85  1  0
 87 88  1  0
 87 86  1  0
 89 92  1  1
 89 90  1  0
 91 89  1  0
M  ISO  4  13 100  21 100  51 101  52 101
M  END
>  <TORSDO>  (53) 
F 18

>  <SCORE>  (53) 
-14.631

>  <name>  (53) 
52

>  <ligand_id>  (53) 
52

>  <original_smiles>  (53) 
[H]c1c([H])c([H])c2c(c1[H])C([H])([H])C([H])([H])C([H])([H])C2([H])N([H])C(=O)C1([H])N(C(=O)C([H])(N([H])C(=O)C([H])(N([H])C([H])([H])[H])C([H])([H])[H])C(C([H])([H])[H])(C([H])([H])[H])C([H])([H])[H])C([H])([H])c2c([H])c(OC([H])([H])C3([H])C([H])([H])C([H])([H])C([H])(C4([H])C([H])(N([H])C(=O)N5C([H])([H])C([H])([H])C([H])([H])C([H])(n6nc(-c7c([H])c([H])c(Oc8c([H])c([H])c(F)c([H])c8F)c([H])c7[H])c(C(=O)N([H])[H])c6N([H])[H])C5([H])[H])C([H])([H])[N+]4([H])[H])C([H])([H])C3([H])[H])c([H])c([H])c2C1([H])[H]

>  <smiles>  (53) 
[H]c1c([H])c([H])c2c(c1[H])C([H])([H])C([H])([H])C([H])([H])C2([H])N([H])C(=O)C1([H])N(C(=O)C([H])(N([H])C(=O)C([H])(N([H])C([H])([H])[H])C([H])([H])[H])C(C([H])([H])[H])(C([H])([H])[H])C([H])([H])[H])C([H])([H])c2c([H])c(OC([H])([H])C3([H])C([H])([H])C([H])([H])C([H])(C4([H])C([H])(N([H])C(=O)N5C([H])([H])C([H])([H])C([H])([H])C([H])(n6nc(-c7c([H])c([H])c(Oc8c([H])c([H])c(F)c([H])c8F)c([H])c7[H])c(C(=O)N([H])[H])c6N([H])[H])C5([H])[H])C([H])([H])[N+]4([H])[H])C([H])([H])C3([H])[H])c([H])c([H])c2C1([H])[H]

$$$$
53:0:0
     RDKit          3D

 94102  0  0  1  0  0  0  0  0999 V2000
  -29.9880  -20.9190   22.3890 C   0  0  0  0  0  2  0  0  0  0  0  0
  -29.5060  -19.4570   22.2520 C   0  0  0  0  0  2  0  0  0  0  0  0
  -29.0880  -19.8350   19.8360 C   0  0  0  0  0  2  0  0  0  0  0  0
  -29.2500  -21.8770   21.4170 C   0  0  0  0  0  3  0  0  0  0  0  0
  -29.5080  -21.3360   19.9810 C   0  0  0  0  0  3  0  0  0  0  0  0
  -30.9330  -21.5980   19.4550 C   0  0  0  0  0  1  0  0  0  0  0  0
  -29.6260  -18.9000   20.8740 N   0  0  1  0  0  4  0  0  0  0  0  0
  -28.9760  -18.1270   20.8550 H   0  0  0  0  0  0  0  0  0  0  0  0
  -29.5160  -23.7550   23.1640 C   0  0  0  0  0  1  0  0  0  0  0  0
  -29.5220  -23.4220   21.6520 C   0  0  0  0  0  3  0  0  0  0  0  0
  -27.0980  -24.1140   21.1310 C   0  0  0  0  0  1  0  0  0  0  0  0
  -28.5850  -24.4190   20.8610 C   0  0  0  0  0  3  0  0  0  0  0  0
  -28.9010  -25.9400   21.1190 C   0  0  0  0  0  2  0  0  0  0  0  0
  -28.6350  -26.8480   20.0320 O   0  0  0  0  0  0  0  0  0  0  0  0
  -24.6820  -31.9110   23.2210 C   0  0  0  0  0  0  0  0  0  0  0  0
  -27.4700  -27.5820   20.0940 C   0  0  0  0  0  0  0  0  0  0  0  0
  -23.5330  -30.5100   21.5390 C   0  0  0  0  0  3  0  0  0  0  0  0
  -25.0430  -29.0380   20.1010 C   0  0  0  0  0  0  0  0  0  0  0  0
  -26.0520  -30.9310   21.3830 C   0  0  0  0  0  2  0  0  0  0  0  0
  -26.1800  -29.5710   20.7250 C   0  0  0  0  0  0  0  0  0  0  0  0
  -27.3980  -28.8460   20.7290 C   0  0  0  0  0  3  0  0  0  0  0  0
  -26.3280  -27.0840   19.4370 C   0  0  0  0  0  3  0  0  0  0  0  0
  -25.1120  -27.7910   19.4570 C   0  0  0  0  0  3  0  0  0  0  0  0
  -23.7770  -29.8650   20.1490 C   0  0  0  0  0  2  0  0  0  0  0  0
  -24.7720  -31.1330   22.1050 N   0  0  0  0  0  0  0  0  0  0  0  0
  -23.5890  -32.1450   23.7530 O   0  0  0  0  0  0  0  0  0  0  0  0
  -22.8980  -29.4540   22.4720 C   0  0  0  0  0  0  0  0  0  0  0  0
  -21.5770  -29.2530   22.3380 N   0  0  0  0  0  0  0  0  0  0  0  0
  -23.5910  -28.8190   23.2720 O   0  0  0  0  0  0  0  0  0  0  0  0
  -21.0780  -29.8180   21.6660 H   0  0  0  0  0  0  0  0  0  0  0  0
  -18.2150  -28.0200   22.8340 C   0  0  0  0  0  0  0  0  0  0  0  0
  -20.7740  -28.2820   23.0830 C   0  0  0  0  0  3  0  0  0  0  0  0
  -20.8770  -26.8740   22.4510 C   0  0  0  0  0  2  0  0  0  0  0  0
  -19.7640  -26.5850   21.4390 C   0  0  0  0  0  2  0  0  0  0  0  0
  -18.3900  -26.6990   22.1050 C   0  0  0  0  0  2  0  0  0  0  0  0
  -19.3350  -28.7710   23.2790 C   0  0  0  0  0  0  0  0  0  0  0  0
  -19.1190  -30.0100   23.9190 C   0  0  0  0  0  3  0  0  0  0  0  0
  -17.8150  -30.4980   24.1200 C   0  0  0  0  0  3  0  0  0  0  0  0
  -16.7090  -29.7440   23.6920 C   0  0  0  0  0  3  0  0  0  0  0  0
  -16.9090  -28.5060   23.0550 C   0  0  0  0  0  3  0  0  0  0  0  0
  -25.9450  -32.5630   23.8660 C   0  0  0  0  0  3  0  0  0  0  0  0
  -25.6070  -33.9540   24.1930 N   0  0  0  0  0  0  0  0  0  0  0  0
  -25.9320  -35.0140   23.4400 C   0  0  0  0  0  0  0  0  0  0  0  0
  -26.6200  -34.9240   22.4200 O   0  0  0  0  0  0  0  0  0  0  0  0
  -24.9950  -34.0960   24.9830 H   0  0  0  0  0  0  0  0  0  0  0  0
  -24.1740  -36.7720   23.0620 C   0  0  0  0  0  1  0  0  0  0  0  0
  -25.4110  -36.3910   23.8900 C   0  0  0  0  0  3  0  0  0  0  0  0
  -27.5110  -37.3200   24.7580 C   0  0  0  0  0  1  0  0  0  0  0  0
  -26.4250  -37.4640   23.7920 N   0  0  0  0  0  0  0  0  0  0  0  0
  -25.9980  -38.3760   23.9300 H   0  0  0  0  0  0  0  0  0  0  0  0
  -26.4550  -31.7960   25.1480 C   0  0  1  0  0  0  0  0  0  0  0  0
  -25.3450  -31.5140   26.1850 C   0  0  0  0  0  1  0  0  0  0  0  0
  -27.0910  -30.4410   24.7570 C   0  0  0  0  0  1  0  0  0  0  0  0
  -27.5650  -32.6200   25.8450 C   0  0  0  0  0  1  0  0  0  0  0  0
  -30.9270  -18.2350   20.5390 C   0  0  0  0  0  2  0  0  0  0  0  0
  -31.2720  -16.9560   21.3730 C   0  0  0  0  0  2  0  0  0  0  0  0
  -31.2120  -14.7090   20.2300 C   0  0  0  0  0  0  0  0  0  0  0  0
  -30.8250  -12.5630   19.0620 C   0  0  0  0  0  2  0  0  0  0  0  0
  -29.8540  -12.7700   17.8820 C   0  0  0  0  0  2  0  0  0  0  0  0
  -28.3900  -12.6590   18.3540 C   0  0  0  0  0  2  0  0  0  0  0  0
  -28.1030  -13.5140   19.6160 C   0  0  0  0  0  3  0  0  0  0  0  0
  -29.1810  -13.2810   20.6990 C   0  0  0  0  0  2  0  0  0  0  0  0
  -30.4950  -13.5590   20.0960 N   0  0  0  0  0  0  0  0  0  0  0  0
  -32.3010  -14.8850   19.6780 O   0  0  0  0  0  0  0  0  0  0  0  0
  -30.6310  -15.6920   20.9490 N   0  0  0  0  0  0  0  0  0  0  0  0
  -29.7330  -15.4680   21.3520 H   0  0  0  0  0  0  0  0  0  0  0  0
  -25.7550  -14.1850   20.4270 C   0  0  0  0  0  0  0  0  0  0  0  0
  -24.6710  -13.4400   20.8060 C   0  0  0  0  0  0  0  0  0  0  0  0
  -25.0760  -12.0730   20.7080 C   0  0  0  0  0  0  0  0  0  0  0  0
  -26.7560  -13.2740   20.1300 N   0  0  0  0  0  0  0  0  0  0  0  0
  -26.3530  -11.9970   20.3540 N   0  0  0  0  0  0  0  0  0  0  0  0
  -24.3080  -10.8340   20.8750 C   0  0  0  0  0  0  0  0  0  0  0  0
  -24.6890   -9.8490   21.8120 C   0  0  0  0  0  3  0  0  0  0  0  0
  -23.9240   -8.6730   21.9670 C   0  0  0  0  0  3  0  0  0  0  0  0
  -22.7620   -8.4750   21.1840 C   0  0  0  0  0  0  0  0  0  0  0  0
  -22.3990   -9.4480   20.2360 C   0  0  0  0  0  3  0  0  0  0  0  0
  -23.1650  -10.6150   20.0790 C   0  0  0  0  0  3  0  0  0  0  0  0
  -21.9710   -7.3530   21.2470 O   0  0  0  0  0  0  0  0  0  0  0  0
  -21.8110   -6.6500   22.4140 C   0  0  0  0  0  0  0  0  0  0  0  0
  -21.2830   -7.2500   23.5780 C   0  0  0  0  0  3  0  0  0  0  0  0
  -21.0710   -6.4740   24.7360 C   0  0  0  0  0  3  0  0  0  0  0  0
  -21.3760   -5.1000   24.7290 C   0  0  0  0  0  0  0  0  0  0  0  0
  -21.8980   -4.5000   23.5690 C   0  0  0  0  0  3  0  0  0  0  0  0
  -22.1110   -5.2720   22.4140 C   0  0  0  0  0  0  0  0  0  0  0  0
  -22.5930   -4.6860   21.2920 F   0  0  0  0  0  0  0  0  0  0  0  0
  -21.1660   -4.3520   25.8370 F   0  0  0  0  0  0  0  0  0  0  0  0
  -23.3030  -13.9600   21.1430 C   0  0  0  0  0  0  0  0  0  0  0  0
  -22.5800  -13.2620   22.0140 N   0  0  0  0  0  0  0  0  0  0  0  0
  -22.8870  -15.0170   20.6730 O   0  0  0  0  0  0  0  0  0  0  0  0
  -22.9310  -12.4040   22.4140 H   0  0  0  0  0  0  0  0  0  0  0  0
  -21.6640  -13.5910   22.2820 H   0  0  0  0  0  0  0  0  0  0  0  0
  -25.9680  -15.5530   20.2910 N   0  0  0  0  0  0  0  0  0  0  0  0
  -25.2180  -16.2250   20.4150 H   0  0  0  0  0  0  0  0  0  0  0  0
  -26.8000  -15.9580   19.8830 H   0  0  0  0  0  0  0  0  0  0  0  0
  2  1  1  0
  3  5  1  0
  3  7  1  0
  4 10  1  0
  4  1  1  0
  5  6  1  0
  5  4  1  0
  7  2  1  0
  7  8  1  1
 10  9  1  0
 12 13  1  0
 12 11  1  0
 12 10  1  0
 14 16  1  0
 14 13  1  0
 15 26  2  0
 16 21  1  0
 17 25  1  0
 17 27  1  0
 18 24  1  0
 18 20  1  0
 19 25  1  0
 20 21  2  0
 20 19  1  0
 22 23  1  0
 22 16  2  0
 23 18  2  0
 24 17  1  0
 25 15  1  0
 27 29  2  0
 28 27  1  0
 30 28  1  0
 31 40  2  0
 31 36  1  0
 32 28  1  0
 32 36  1  0
 33 32  1  0
 34 35  1  0
 34 33  1  0
 35 31  1  0
 36 37  2  0
 37 38  1  0
 39 38  2  0
 40 39  1  0
 41 15  1  0
 41 42  1  0
 41 51  1  0
 42 45  1  0
 43 47  1  0
 43 42  1  0
 44 43  2  0
 47 46  1  0
 49 47  1  0
 49 50  1  0
 49 48  1  0
 51 54  1  1
 51 52  1  0
 53 51  1  0
 55  7  1  0
 55 56  1  0
 57 65  1  0
 58 63  1  0
 59 60  1  0
 59 58  1  0
 61 60  1  0
 61 70  1  0
 61 62  1  0
 63 57  1  0
 63 62  1  0
 64 57  2  0
 65 66  1  0
 65 56  1  0
 67 68  2  0
 68 87  1  0
 69 68  1  0
 69 72  1  0
 70 71  1  0
 70 67  1  0
 71 69  2  0
 72 73  1  0
 73 74  2  0
 75 78  1  0
 75 74  1  0
 76 75  2  0
 77 76  1  0
 77 72  2  0
 78 79  1  0
 79 80  1  0
 80 81  2  0
 82 81  1  0
 82 86  1  0
 83 82  2  0
 84 79  2  0
 84 83  1  0
 85 84  1  0
 87 88  1  0
 88 91  1  0
 88 90  1  0
 89 87  2  0
 92 93  1  0
 92 67  1  0
 94 92  1  0
M  ISO  4  13 101  14 101  57 100  65 100
M  END
>  <TORSDO>  (54) 
F 21

>  <SCORE>  (54) 
-12.098

>  <name>  (54) 
53

>  <ligand_id>  (54) 
53

>  <original_smiles>  (54) 
[H]c1c([H])c([H])c2c(c1[H])C([H])([H])C([H])([H])C([H])([H])C2([H])N([H])C(=O)C1([H])N(C(=O)C([H])(N([H])C(=O)C([H])(N([H])C([H])([H])[H])C([H])([H])[H])C(C([H])([H])[H])(C([H])([H])[H])C([H])([H])[H])C([H])([H])c2c([H])c(OC([H])([H])C([H])(C([H])([H])[H])C([H])(C([H])([H])[H])C3([H])C([H])([H])C([H])([H])[N+]([H])(C([H])([H])C([H])([H])N([H])C(=O)N4C([H])([H])C([H])([H])C([H])([H])C([H])(n5nc(-c6c([H])c([H])c(Oc7c([H])c([H])c(F)c([H])c7F)c([H])c6[H])c(C(=O)N([H])[H])c5N([H])[H])C4([H])[H])C([H])([H])C3([H])C([H])([H])[H])c([H])c([H])c2C1([H])[H]

>  <smiles>  (54) 
[H]c1c([H])c([H])c2c(c1[H])C([H])([H])C([H])([H])C([H])([H])C2([H])N([H])C(=O)C1([H])N(C(=O)C([H])(N([H])C(=O)C([H])(N([H])C([H])([H])[H])C([H])([H])[H])C(C([H])([H])[H])(C([H])([H])[H])C([H])([H])[H])C([H])([H])c2c([H])c(OC([H])([H])C([H])(C([H])([H])[H])C([H])(C([H])([H])[H])C3([H])C([H])([H])C([H])([H])[N+]([H])(C([H])([H])C([H])([H])N([H])C(=O)N4C([H])([H])C([H])([H])C([H])([H])C([H])(n5nc(-c6c([H])c([H])c(Oc7c([H])c([H])c(F)c([H])c7F)c([H])c6[H])c(C(=O)N([H])[H])c5N([H])[H])C4([H])[H])C([H])([H])C3([H])C([H])([H])[H])c([H])c([H])c2C1([H])[H]

$$$$
54:0:0
     RDKit          3D

 96105  0  0  1  0  0  0  0  0999 V2000
  -28.3720  -23.2530   23.3040 C   0  0  0  0  0  3  0  0  0  0  0  0
  -28.0530  -24.6140   23.2030 C   0  0  0  0  0  3  0  0  0  0  0  0
  -28.8120  -22.5540   22.1680 C   0  0  0  0  0  3  0  0  0  0  0  0
  -28.1740  -25.2710   21.9670 C   0  0  0  0  0  3  0  0  0  0  0  0
  -28.9310  -23.1860   20.9040 C   0  0  0  0  0  0  0  0  0  0  0  0
  -28.6140  -24.5940   20.8030 C   0  0  0  0  0  0  0  0  0  0  0  0
  -29.4550  -22.3090   19.7390 C   0  0  0  0  0  2  0  0  0  0  0  0
  -27.7400  -19.0290   18.6270 C   0  0  0  0  0  2  0  0  0  0  0  0
  -28.8290  -17.9980   18.9650 C   0  0  0  0  0  2  0  0  0  0  0  0
  -28.3110  -20.4570   18.5260 C   0  0  0  0  0  2  0  0  0  0  0  0
  -30.0640  -19.8640   20.1640 C   0  0  0  0  0  2  0  0  0  0  0  0
  -29.5540  -18.3690   20.2730 C   0  0  0  0  0  3  0  0  0  0  0  0
  -29.0040  -20.8660   19.7750 N   0  0  1  0  0  4  0  0  0  0  0  0
  -28.3020  -20.8420   20.4990 H   0  0  0  0  0  0  0  0  0  0  0  0
  -31.3330  -17.6080   21.9860 C   0  0  0  0  0  1  0  0  0  0  0  0
  -30.6700  -17.3030   20.6300 C   0  0  0  0  0  3  0  0  0  0  0  0
  -30.9140  -14.8000   20.2120 C   0  0  0  0  0  0  0  0  0  0  0  0
  -30.6140  -12.5880   19.1470 C   0  0  0  0  0  2  0  0  0  0  0  0
  -29.6640  -12.7430   17.9400 C   0  0  0  0  0  2  0  0  0  0  0  0
  -28.1950  -12.6080   18.3860 C   0  0  0  0  0  2  0  0  0  0  0  0
  -27.8620  -13.4850   19.6240 C   0  0  0  0  0  3  0  0  0  0  0  0
  -28.9280  -13.3240   20.7310 C   0  0  0  0  0  2  0  0  0  0  0  0
  -30.2410  -13.6160   20.1360 N   0  0  0  0  0  0  0  0  0  0  0  0
  -32.0590  -14.9290   19.7700 O   0  0  0  0  0  0  0  0  0  0  0  0
  -30.2080  -15.8810   20.6330 N   0  0  0  0  0  0  0  0  0  0  0  0
  -29.2690  -15.7010   20.9550 H   0  0  0  0  0  0  0  0  0  0  0  0
  -25.4810  -14.1080   20.3660 C   0  0  0  0  0  0  0  0  0  0  0  0
  -24.4110  -13.3450   20.7460 C   0  0  0  0  0  0  0  0  0  0  0  0
  -24.8600  -11.9890   20.7080 C   0  0  0  0  0  0  0  0  0  0  0  0
  -26.5150  -13.2180   20.1220 N   0  0  0  0  0  0  0  0  0  0  0  0
  -26.1470  -11.9390   20.3870 N   0  0  0  0  0  0  0  0  0  0  0  0
  -24.1250  -10.7330   20.9050 C   0  0  0  0  0  0  0  0  0  0  0  0
  -24.5190   -9.7900   21.8790 C   0  0  0  0  0  3  0  0  0  0  0  0
  -23.7840   -8.5990   22.0620 C   0  0  0  0  0  3  0  0  0  0  0  0
  -22.6410   -8.3420   21.2690 C   0  0  0  0  0  0  0  0  0  0  0  0
  -22.2670   -9.2730   20.2840 C   0  0  0  0  0  3  0  0  0  0  0  0
  -23.0020  -10.4550   20.0990 C   0  0  0  0  0  3  0  0  0  0  0  0
  -21.8820   -7.2010   21.3580 O   0  0  0  0  0  0  0  0  0  0  0  0
  -21.7530   -6.5130   22.5380 C   0  0  0  0  0  0  0  0  0  0  0  0
  -21.1980   -7.1100   23.6910 C   0  0  0  0  0  3  0  0  0  0  0  0
  -21.0190   -6.3460   24.8620 C   0  0  0  0  0  3  0  0  0  0  0  0
  -21.3830   -4.9860   24.8790 C   0  0  0  0  0  0  0  0  0  0  0  0
  -21.9300   -4.3900   23.7300 C   0  0  0  0  0  3  0  0  0  0  0  0
  -22.1110   -5.1500   22.5620 C   0  0  0  0  0  0  0  0  0  0  0  0
  -22.6180   -4.5640   21.4510 F   0  0  0  0  0  0  0  0  0  0  0  0
  -21.2040   -4.2510   26.0010 F   0  0  0  0  0  0  0  0  0  0  0  0
  -23.0220  -13.8340   21.0340 C   0  0  0  0  0  0  0  0  0  0  0  0
  -22.2980  -13.1430   21.9080 N   0  0  0  0  0  0  0  0  0  0  0  0
  -22.5880  -14.8650   20.5210 O   0  0  0  0  0  0  0  0  0  0  0  0
  -22.6640  -12.3090   22.3420 H   0  0  0  0  0  0  0  0  0  0  0  0
  -21.3660  -13.4520   22.1450 H   0  0  0  0  0  0  0  0  0  0  0  0
  -25.6560  -15.4780   20.1860 N   0  0  0  0  0  0  0  0  0  0  0  0
  -24.8920  -16.1350   20.2950 H   0  0  0  0  0  0  0  0  0  0  0  0
  -26.4970  -15.9060   19.8240 H   0  0  0  0  0  0  0  0  0  0  0  0
  -28.7440  -25.4360   19.5090 C   0  0  0  0  0  2  0  0  0  0  0  0
  -28.6180  -26.8870   19.6610 O   0  0  0  0  0  0  0  0  0  0  0  0
  -24.4800  -31.6390   23.0470 C   0  0  0  0  0  0  0  0  0  0  0  0
  -27.3840  -27.5320   19.6920 C   0  0  0  0  0  0  0  0  0  0  0  0
  -23.3540  -30.2570   21.3350 C   0  0  0  0  0  3  0  0  0  0  0  0
  -24.8930  -28.9060   19.8090 C   0  0  0  0  0  0  0  0  0  0  0  0
  -25.8540  -30.7890   21.1430 C   0  0  0  0  0  2  0  0  0  0  0  0
  -26.0230  -29.4640   20.4170 C   0  0  0  0  0  0  0  0  0  0  0  0
  -27.2690  -28.7880   20.3490 C   0  0  0  0  0  3  0  0  0  0  0  0
  -26.2260  -26.9980   19.0850 C   0  0  0  0  0  3  0  0  0  0  0  0
  -24.9920  -27.6750   19.1410 C   0  0  0  0  0  3  0  0  0  0  0  0
  -23.5940  -29.6770   19.9170 C   0  0  0  0  0  2  0  0  0  0  0  0
  -24.5810  -30.9080   21.9000 N   0  0  0  0  0  0  0  0  0  0  0  0
  -23.3880  -31.8030   23.6100 O   0  0  0  0  0  0  0  0  0  0  0  0
  -22.7860  -29.1370   22.2390 C   0  0  0  0  0  0  0  0  0  0  0  0
  -21.4880  -28.8370   22.0780 N   0  0  0  0  0  0  0  0  0  0  0  0
  -23.5120  -28.5450   23.0430 O   0  0  0  0  0  0  0  0  0  0  0  0
  -20.9580  -29.3740   21.4050 H   0  0  0  0  0  0  0  0  0  0  0  0
  -18.2350  -27.3040   22.4500 C   0  0  0  0  0  0  0  0  0  0  0  0
  -20.7510  -27.7920   22.7900 C   0  0  0  0  0  3  0  0  0  0  0  0
  -21.0010  -26.4050   22.1570 C   0  0  0  0  0  2  0  0  0  0  0  0
  -19.9540  -26.0230   21.1070 C   0  0  0  0  0  2  0  0  0  0  0  0
  -18.5520  -26.0090   21.7240 C   0  0  0  0  0  2  0  0  0  0  0  0
  -19.2670  -28.1500   22.9380 C   0  0  0  0  0  0  0  0  0  0  0  0
  -18.9180  -29.3610   23.5740 C   0  0  0  0  0  3  0  0  0  0  0  0
  -17.5670  -29.7270   23.7310 C   0  0  0  0  0  3  0  0  0  0  0  0
  -16.5490  -28.8800   23.2610 C   0  0  0  0  0  3  0  0  0  0  0  0
  -16.8840  -27.6700   22.6260 C   0  0  0  0  0  3  0  0  0  0  0  0
  -25.7240  -32.3230   23.6950 C   0  0  0  0  0  3  0  0  0  0  0  0
  -26.2780  -31.5440   24.9500 C   0  0  1  0  0  0  0  0  0  0  0  0
  -25.1950  -31.2110   26.0050 C   0  0  0  0  0  1  0  0  0  0  0  0
  -26.9420  -30.2150   24.5190 C   0  0  0  0  0  1  0  0  0  0  0  0
  -27.3780  -32.3820   25.6420 C   0  0  0  0  0  1  0  0  0  0  0  0
  -25.3360  -33.6910   24.0630 N   0  0  0  0  0  0  0  0  0  0  0  0
  -25.6240  -34.7830   23.3430 C   0  0  0  0  0  0  0  0  0  0  0  0
  -26.3150  -34.7490   22.3210 O   0  0  0  0  0  0  0  0  0  0  0  0
  -24.7230  -33.7890   24.8600 H   0  0  0  0  0  0  0  0  0  0  0  0
  -23.8130  -36.4940   23.0140 C   0  0  0  0  0  1  0  0  0  0  0  0
  -25.0580  -36.1290   23.8360 C   0  0  0  0  0  3  0  0  0  0  0  0
  -27.1230  -37.0970   24.7450 C   0  0  0  0  0  1  0  0  0  0  0  0
  -26.0360  -37.2370   23.7780 N   0  0  0  0  0  0  0  0  0  0  0  0
  -25.5810  -38.1300   23.9400 H   0  0  0  0  0  0  0  0  0  0  0  0
  2  1  1  0
  3  1  2  0
  4  2  2  0
  5  3  1  0
  6  5  2  0
  6  4  1  0
  7 13  1  0
  7  5  1  0
  8  9  1  0
  9 12  1  0
 10  8  1  0
 10 13  1  0
 11 12  1  0
 12 16  1  0
 13 11  1  0
 13 14  1  1
 16 25  1  0
 16 15  1  0
 17 25  1  0
 18 23  1  0
 19 20  1  0
 19 18  1  0
 21 20  1  0
 21 30  1  0
 21 22  1  0
 23 17  1  0
 23 22  1  0
 24 17  2  0
 25 26  1  0
 27 28  2  0
 28 47  1  0
 29 28  1  0
 29 32  1  0
 30 27  1  0
 30 31  1  0
 31 29  2  0
 32 33  1  0
 33 34  2  0
 35 38  1  0
 35 34  1  0
 36 35  2  0
 37 36  1  0
 37 32  2  0
 38 39  1  0
 39 44  2  0
 39 40  1  0
 40 41  2  0
 41 42  1  0
 42 46  1  0
 43 42  2  0
 44 43  1  0
 45 44  1  0
 47 48  1  0
 48 51  1  0
 48 50  1  0
 49 47  2  0
 52 53  1  0
 52 27  1  0
 54 52  1  0
 55 56  1  0
 55  6  1  0
 56 58  1  0
 57 68  2  0
 58 63  1  0
 59 67  1  0
 59 69  1  0
 60 66  1  0
 60 62  1  0
 61 67  1  0
 62 61  1  0
 63 62  2  0
 64 65  1  0
 64 58  2  0
 65 60  2  0
 66 59  1  0
 67 57  1  0
 69 71  2  0
 70 69  1  0
 72 70  1  0
 73 82  2  0
 73 78  1  0
 74 70  1  0
 74 78  1  0
 75 74  1  0
 76 77  1  0
 76 75  1  0
 77 73  1  0
 78 79  2  0
 79 80  1  0
 81 80  2  0
 82 81  1  0
 83 57  1  0
 83 88  1  0
 83 84  1  0
 84 87  1  1
 84 85  1  0
 86 84  1  0
 88 91  1  0
 89 93  1  0
 89 88  1  0
 90 89  2  0
 93 92  1  0
 95 93  1  0
 95 96  1  0
 95 94  1  0
M  ISO  4  17 100  25 100  55 101  56 101
M  END
>  <TORSDO>  (55) 
F 20

>  <SCORE>  (55) 
-11.732

>  <name>  (55) 
54

>  <ligand_id>  (55) 
54

>  <original_smiles>  (55) 
[H]c1c([H])c([H])c(C([H])([H])[N+]2([H])C([H])([H])C([H])([H])C([H])([H])C([H])(C([H])(N([H])C(=O)N3C([H])([H])C([H])([H])C([H])([H])C([H])(n4nc(-c5c([H])c([H])c(Oc6c([H])c([H])c(F)c([H])c6F)c([H])c5[H])c(C(=O)N([H])[H])c4N([H])[H])C3([H])[H])C([H])([H])[H])C2([H])[H])c(C([H])([H])Oc2c([H])c([H])c3c(c2[H])C([H])([H])N(C(=O)C([H])(N([H])C(=O)C([H])(N([H])C([H])([H])[H])C([H])([H])[H])C(C([H])([H])[H])(C([H])([H])[H])C([H])([H])[H])C([H])(C(=O)N([H])C2([H])c4c([H])c([H])c([H])c([H])c4C([H])([H])C([H])([H])C2([H])[H])C3([H])[H])c1[H]

>  <smiles>  (55) 
[H]c1c([H])c([H])c(C([H])([H])[N+]2([H])C([H])([H])C([H])([H])C([H])([H])C([H])(C([H])(N([H])C(=O)N3C([H])([H])C([H])([H])C([H])([H])C([H])(n4nc(-c5c([H])c([H])c(Oc6c([H])c([H])c(F)c([H])c6F)c([H])c5[H])c(C(=O)N([H])[H])c4N([H])[H])C3([H])[H])C([H])([H])[H])C2([H])[H])c(C([H])([H])Oc2c([H])c([H])c3c(c2[H])C([H])([H])N(C(=O)C([H])(N([H])C(=O)C([H])(N([H])C([H])([H])[H])C([H])([H])[H])C(C([H])([H])[H])(C([H])([H])[H])C([H])([H])[H])C([H])(C(=O)N([H])C2([H])c4c([H])c([H])c([H])c([H])c4C([H])([H])C([H])([H])C2([H])[H])C3([H])[H])c1[H]

$$$$
55:0:0
     RDKit          3D

 97107  0  0  1  0  0  0  0  0999 V2000
  -29.9430  -21.3610   21.4970 C   0  0  0  0  0  3  0  0  0  0  0  0
  -30.5330  -20.6030   22.5140 C   0  0  0  0  0  3  0  0  0  0  0  0
  -29.3010  -19.2720   20.3960 C   0  0  0  0  0  3  0  0  0  0  0  0
  -30.5380  -16.4740   22.7140 C   0  0  0  0  0  3  0  0  0  0  0  0
  -29.8690  -18.4700   21.4570 C   0  0  0  0  0  0  0  0  0  0  0  0
  -29.3460  -20.7260   20.3960 C   0  0  0  0  0  0  0  0  0  0  0  0
  -30.5300  -19.1970   22.5050 C   0  0  0  0  0  0  0  0  0  0  0  0
  -29.8710  -17.0090   21.5850 C   0  0  0  0  0  0  0  0  0  0  0  0
  -31.2150  -17.2860   23.6150 C   0  0  0  0  0  0  0  0  0  0  0  0
  -32.0400  -16.6610   24.7190 C   0  0  0  0  0  1  0  0  0  0  0  0
  -31.1930  -18.6190   23.5310 N   0  0  0  0  0  0  0  0  0  0  0  0
  -29.8990  -14.9650   20.1260 C   0  0  0  0  0  0  0  0  0  0  0  0
  -29.6660  -12.8600   18.8250 C   0  0  0  0  0  2  0  0  0  0  0  0
  -28.5890  -13.0220   17.7350 C   0  0  0  0  0  2  0  0  0  0  0  0
  -27.1950  -12.6850   18.2980 C   0  0  0  0  0  2  0  0  0  0  0  0
  -26.9120  -13.3690   19.6640 C   0  0  0  0  0  3  0  0  0  0  0  0
  -28.1030  -13.2420   20.6390 C   0  0  0  0  0  2  0  0  0  0  0  0
  -29.2920  -13.7510   19.9460 N   0  0  0  0  0  0  0  0  0  0  0  0
  -30.9920  -15.1940   19.5990 O   0  0  0  0  0  0  0  0  0  0  0  0
  -29.2290  -15.9900   20.7560 N   0  0  0  0  0  0  0  0  0  0  0  0
  -28.2370  -15.8650   20.8950 H   0  0  0  0  0  0  0  0  0  0  0  0
  -24.5580  -13.6320   20.6540 C   0  0  0  0  0  0  0  0  0  0  0  0
  -23.6250  -12.7170   21.0560 C   0  0  0  0  0  0  0  0  0  0  0  0
  -24.2220  -11.4320   20.8740 C   0  0  0  0  0  0  0  0  0  0  0  0
  -25.6640  -12.8960   20.2560 N   0  0  0  0  0  0  0  0  0  0  0  0
  -25.4730  -11.5640   20.4470 N   0  0  0  0  0  0  0  0  0  0  0  0
  -23.6550  -10.0850   21.0270 C   0  0  0  0  0  0  0  0  0  0  0  0
  -24.1800   -9.1640   21.9590 C   0  0  0  0  0  3  0  0  0  0  0  0
  -23.6050   -7.8840   22.1030 C   0  0  0  0  0  3  0  0  0  0  0  0
  -22.4910   -7.5130   21.3120 C   0  0  0  0  0  0  0  0  0  0  0  0
  -21.9850   -8.4260   20.3690 C   0  0  0  0  0  3  0  0  0  0  0  0
  -22.5620   -9.6990   20.2250 C   0  0  0  0  0  3  0  0  0  0  0  0
  -21.8830   -6.2820   21.3650 O   0  0  0  0  0  0  0  0  0  0  0  0
  -21.8240   -5.5560   22.5280 C   0  0  0  0  0  0  0  0  0  0  0  0
  -21.1790   -6.0500   23.6820 C   0  0  0  0  0  3  0  0  0  0  0  0
  -21.0800   -5.2440   24.8340 C   0  0  0  0  0  3  0  0  0  0  0  0
  -21.6180   -3.9420   24.8310 C   0  0  0  0  0  0  0  0  0  0  0  0
  -22.2550   -3.4460   23.6800 C   0  0  0  0  0  3  0  0  0  0  0  0
  -22.3560   -4.2500   22.5310 C   0  0  0  0  0  0  0  0  0  0  0  0
  -22.9530   -3.7590   21.4190 F   0  0  0  0  0  0  0  0  0  0  0  0
  -21.5160   -3.1650   25.9340 F   0  0  0  0  0  0  0  0  0  0  0  0
  -22.2170  -13.0140   21.4890 C   0  0  0  0  0  0  0  0  0  0  0  0
  -21.6760  -12.2160   22.4020 N   0  0  0  0  0  0  0  0  0  0  0  0
  -21.6040  -13.9830   21.0480 O   0  0  0  0  0  0  0  0  0  0  0  0
  -22.1860  -11.4340   22.7840 H   0  0  0  0  0  0  0  0  0  0  0  0
  -20.7350  -12.3960   22.7260 H   0  0  0  0  0  0  0  0  0  0  0  0
  -24.5510  -15.0210   20.5710 N   0  0  0  0  0  0  0  0  0  0  0  0
  -23.7250  -15.5650   20.7980 H   0  0  0  0  0  0  0  0  0  0  0  0
  -25.2950  -15.5810   20.1780 H   0  0  0  0  0  0  0  0  0  0  0  0
  -28.7000  -21.6180   19.2790 C   0  0  0  0  0  2  0  0  0  0  0  0
  -30.3190  -25.1350   19.3020 C   0  0  0  0  0  2  0  0  0  0  0  0
  -30.3970  -23.6050   19.0300 C   0  0  0  0  0  2  0  0  0  0  0  0
  -28.1980  -24.1880   19.7810 C   0  0  0  0  0  2  0  0  0  0  0  0
  -28.8250  -25.5400   19.2760 C   0  0  0  0  0  3  0  0  0  0  0  0
  -29.0050  -23.1090   19.1110 N   0  0  2  0  0  4  0  0  0  0  0  0
  -28.7070  -23.2220   18.1520 H   0  0  0  0  0  0  0  0  0  0  0  0
  -28.6140  -26.8250   19.9740 O   0  0  0  0  0  0  0  0  0  0  0  0
  -24.6230  -31.8060   23.2710 C   0  0  0  0  0  0  0  0  0  0  0  0
  -27.4210  -27.5600   19.9480 C   0  0  0  0  0  0  0  0  0  0  0  0
  -23.4730  -30.4880   21.5220 C   0  0  0  0  0  3  0  0  0  0  0  0
  -24.9860  -29.0580   20.0290 C   0  0  0  0  0  0  0  0  0  0  0  0
  -25.9970  -30.9000   21.3840 C   0  0  0  0  0  2  0  0  0  0  0  0
  -26.1290  -29.5630   20.6600 C   0  0  0  0  0  0  0  0  0  0  0  0
  -27.3430  -28.8220   20.6130 C   0  0  0  0  0  3  0  0  0  0  0  0
  -26.2520  -27.0960   19.3030 C   0  0  0  0  0  3  0  0  0  0  0  0
  -25.0430  -27.8270   19.3500 C   0  0  0  0  0  3  0  0  0  0  0  0
  -23.7230  -29.8880   20.1100 C   0  0  0  0  0  2  0  0  0  0  0  0
  -24.7150  -31.0790   22.1190 N   0  0  0  0  0  0  0  0  0  0  0  0
  -23.5290  -32.0200   23.8120 O   0  0  0  0  0  0  0  0  0  0  0  0
  -22.8200  -29.4050   22.4120 C   0  0  0  0  0  0  0  0  0  0  0  0
  -21.4980  -29.2110   22.2580 N   0  0  0  0  0  0  0  0  0  0  0  0
  -23.5010  -28.7390   23.1950 O   0  0  0  0  0  0  0  0  0  0  0  0
  -21.0050  -29.8040   21.6040 H   0  0  0  0  0  0  0  0  0  0  0  0
  -18.1390  -27.9280   22.6270 C   0  0  0  0  0  0  0  0  0  0  0  0
  -20.6880  -28.2090   22.9530 C   0  0  0  0  0  3  0  0  0  0  0  0
  -20.8230  -26.8220   22.2800 C   0  0  0  0  0  2  0  0  0  0  0  0
  -19.7410  -26.5540   21.2310 C   0  0  0  0  0  2  0  0  0  0  0  0
  -18.3480  -26.6320   21.8610 C   0  0  0  0  0  2  0  0  0  0  0  0
  -19.2380  -28.6760   23.1240 C   0  0  0  0  0  0  0  0  0  0  0  0
  -18.9880  -29.8940   23.7940 C   0  0  0  0  0  3  0  0  0  0  0  0
  -17.6720  -30.3590   23.9780 C   0  0  0  0  0  3  0  0  0  0  0  0
  -16.5870  -29.6030   23.5000 C   0  0  0  0  0  3  0  0  0  0  0  0
  -16.8200  -28.3900   22.8290 C   0  0  0  0  0  3  0  0  0  0  0  0
  -25.8860  -32.4220   23.9560 C   0  0  0  0  0  3  0  0  0  0  0  0
  -25.5420  -33.7830   24.3950 N   0  0  0  0  0  0  0  0  0  0  0  0
  -25.8730  -34.9000   23.7360 C   0  0  0  0  0  0  0  0  0  0  0  0
  -26.5670  -34.8930   22.7140 O   0  0  0  0  0  0  0  0  0  0  0  0
  -24.9340  -33.8610   25.1980 H   0  0  0  0  0  0  0  0  0  0  0  0
  -24.1460  -36.7020   23.4630 C   0  0  0  0  0  1  0  0  0  0  0  0
  -25.3500  -36.2370   24.2940 C   0  0  0  0  0  3  0  0  0  0  0  0
  -27.4310  -37.0560   25.3040 C   0  0  0  0  0  1  0  0  0  0  0  0
  -26.3740  -37.3030   24.3260 N   0  0  0  0  0  0  0  0  0  0  0  0
  -25.9550  -38.2050   24.5350 H   0  0  0  0  0  0  0  0  0  0  0  0
  -26.4120  -31.5630   25.1730 C   0  0  1  0  0  0  0  0  0  0  0  0
  -25.3160  -31.2040   26.2040 C   0  0  0  0  0  1  0  0  0  0  0  0
  -27.0390  -30.2430   24.6720 C   0  0  0  0  0  1  0  0  0  0  0  0
  -27.5310  -32.3300   25.9120 C   0  0  0  0  0  1  0  0  0  0  0  0
  1  2  1  0
  3  5  2  0
  4  9  1  0
  5  8  1  0
  5  7  1  0
  6  3  1  0
  6  1  2  0
  7  2  2  0
  7 11  1  0
  8  4  2  0
  9 10  1  0
 11  9  2  0
 12 20  1  0
 13 18  1  0
 14 15  1  0
 14 13  1  0
 16 15  1  0
 16 25  1  0
 16 17  1  0
 18 12  1  0
 18 17  1  0
 19 12  2  0
 20 21  1  0
 20  8  1  0
 22 23  2  0
 23 42  1  0
 24 27  1  0
 24 23  1  0
 25 26  1  0
 25 22  1  0
 26 24  2  0
 27 28  1  0
 28 29  2  0
 30 33  1  0
 30 29  1  0
 31 30  2  0
 32 31  1  0
 32 27  2  0
 33 34  1  0
 34 39  2  0
 34 35  1  0
 35 36  2  0
 37 36  1  0
 37 41  1  0
 38 37  2  0
 39 38  1  0
 40 39  1  0
 42 43  1  0
 43 46  1  0
 43 45  1  0
 44 42  2  0
 47 22  1  0
 47 48  1  0
 49 47  1  0
 50  6  1  0
 52 55  1  0
 52 51  1  0
 54 51  1  0
 54 53  1  0
 54 57  1  0
 55 50  1  0
 55 53  1  0
 55 56  1  6
 58 69  2  0
 59 57  1  0
 59 64  1  0
 60 68  1  0
 60 70  1  0
 61 67  1  0
 61 63  1  0
 62 68  1  0
 63 62  1  0
 64 63  2  0
 65 66  1  0
 65 59  2  0
 66 61  2  0
 67 60  1  0
 68 58  1  0
 70 72  2  0
 71 70  1  0
 73 71  1  0
 74 83  2  0
 74 79  1  0
 75 71  1  0
 75 79  1  0
 76 75  1  0
 77 78  1  0
 77 76  1  0
 78 74  1  0
 79 80  2  0
 80 81  1  0
 82 81  2  0
 83 82  1  0
 84 58  1  0
 84 85  1  0
 84 94  1  0
 85 88  1  0
 86 90  1  0
 86 85  1  0
 87 86  2  0
 90 89  1  0
 90 92  1  0
 92 93  1  0
 92 91  1  0
 94 97  1  1
 94 95  1  0
 96 94  1  0
M  ISO  4  12 100  20 100  54 101  57 101
M  END
>  <TORSDO>  (56) 
F 18

>  <SCORE>  (56) 
-5.706

>  <name>  (56) 
55

>  <ligand_id>  (56) 
55

>  <original_smiles>  (56) 
[H]c1c([H])c([H])c2c(c1[H])C([H])([H])C([H])([H])C([H])([H])C2([H])N([H])C(=O)C1([H])N(C(=O)C([H])(N([H])C(=O)C([H])(N([H])C([H])([H])[H])C([H])([H])[H])C(C([H])([H])[H])(C([H])([H])[H])C([H])([H])[H])C([H])([H])c2c([H])c(OC3([H])C([H])([H])C([H])([H])[N+]([H])(C([H])([H])c4c([H])c([H])c5nc(C([H])([H])[H])c([H])c(N([H])C(=O)N6C([H])([H])C([H])([H])C([H])([H])C([H])(n7nc(-c8c([H])c([H])c(Oc9c([H])c([H])c(F)c([H])c9F)c([H])c8[H])c(C(=O)N([H])[H])c7N([H])[H])C6([H])[H])c5c4[H])C3([H])[H])c([H])c([H])c2C1([H])[H]

>  <smiles>  (56) 
[H]c1c([H])c([H])c2c(c1[H])C([H])([H])C([H])([H])C([H])([H])C2([H])N([H])C(=O)C1([H])N(C(=O)C([H])(N([H])C(=O)C([H])(N([H])C([H])([H])[H])C([H])([H])[H])C(C([H])([H])[H])(C([H])([H])[H])C([H])([H])[H])C([H])([H])c2c([H])c(OC3([H])C([H])([H])C([H])([H])[N+]([H])(C([H])([H])c4c([H])c([H])c5nc(C([H])([H])[H])c([H])c(N([H])C(=O)N6C([H])([H])C([H])([H])C([H])([H])C([H])(n7nc(-c8c([H])c([H])c(Oc9c([H])c([H])c(F)c([H])c9F)c([H])c8[H])c(C(=O)N([H])[H])c7N([H])[H])C6([H])[H])c5c4[H])C3([H])[H])c([H])c([H])c2C1([H])[H]

$$$$
56:0:0
     RDKit          3D

 94102  0  0  1  0  0  0  0  0999 V2000
  -29.4210  -23.4740   21.3110 C   0  0  0  0  0  3  0  0  0  0  0  0
  -29.9480  -22.1610   21.5020 C   0  0  0  0  0  3  0  0  0  0  0  0
  -28.7340  -22.8230   19.0960 C   0  0  0  0  0  3  0  0  0  0  0  0
  -29.2590  -21.5130   19.2660 C   0  0  0  0  0  0  0  0  0  0  0  0
  -28.7950  -23.8280   20.0940 C   0  0  0  0  0  0  0  0  0  0  0  0
  -29.8720  -21.1460   20.5020 C   0  0  0  0  0  0  0  0  0  0  0  0
  -29.1720  -20.5670   18.1010 C   0  0  0  0  0  0  0  0  0  0  0  0
  -27.9730  -20.4390   17.5490 N   0  0  0  0  0  0  0  0  0  0  0  0
  -30.1460  -19.9400   17.6910 O   0  0  0  0  0  0  0  0  0  0  0  0
  -27.1890  -20.9560   17.9200 H   0  0  0  0  0  0  0  0  0  0  0  0
  -27.8340  -19.8100   16.7730 H   0  0  0  0  0  0  0  0  0  0  0  0
  -30.5540  -19.7590   20.7510 C   0  0  0  0  0  2  0  0  0  0  0  0
  -29.7230  -18.4110   20.7540 C   0  0  0  0  0  2  0  0  0  0  0  0
  -30.6420  -17.1270   20.7090 C   0  0  0  0  0  2  0  0  0  0  0  0
  -30.6860  -14.6240   20.4260 C   0  0  0  0  0  0  0  0  0  0  0  0
  -30.3620  -12.4290   19.3350 C   0  0  0  0  0  2  0  0  0  0  0  0
  -29.4140  -12.5830   18.1290 C   0  0  0  0  0  2  0  0  0  0  0  0
  -27.9500  -12.4270   18.5770 C   0  0  0  0  0  2  0  0  0  0  0  0
  -27.6080  -13.2910   19.8200 C   0  0  0  0  0  3  0  0  0  0  0  0
  -28.6780  -13.1570   20.9270 C   0  0  0  0  0  2  0  0  0  0  0  0
  -29.9840  -13.4560   20.3250 N   0  0  0  0  0  0  0  0  0  0  0  0
  -31.8590  -14.7000   20.0530 O   0  0  0  0  0  0  0  0  0  0  0  0
  -30.0140  -15.7670   20.7410 N   0  0  0  0  0  0  0  0  0  0  0  0
  -29.0310  -15.6930   20.9540 H   0  0  0  0  0  0  0  0  0  0  0  0
  -25.2200  -13.8740   20.5680 C   0  0  0  0  0  0  0  0  0  0  0  0
  -24.1580  -13.0940   20.9360 C   0  0  0  0  0  0  0  0  0  0  0  0
  -24.6250  -11.7440   20.8930 C   0  0  0  0  0  0  0  0  0  0  0  0
  -26.2660  -13.0000   20.3200 N   0  0  0  0  0  0  0  0  0  0  0  0
  -25.9140  -11.7140   20.5780 N   0  0  0  0  0  0  0  0  0  0  0  0
  -23.9050  -10.4790   21.0780 C   0  0  0  0  0  0  0  0  0  0  0  0
  -24.3450   -9.5050   22.0010 C   0  0  0  0  0  3  0  0  0  0  0  0
  -23.6260   -8.3030   22.1740 C   0  0  0  0  0  3  0  0  0  0  0  0
  -22.4490   -8.0670   21.4240 C   0  0  0  0  0  0  0  0  0  0  0  0
  -22.0270   -9.0290   20.4890 C   0  0  0  0  0  3  0  0  0  0  0  0
  -22.7470  -10.2220   20.3150 C   0  0  0  0  0  3  0  0  0  0  0  0
  -21.6980   -6.9200   21.5090 O   0  0  0  0  0  0  0  0  0  0  0  0
  -21.6600   -6.1670   22.6550 C   0  0  0  0  0  0  0  0  0  0  0  0
  -21.2220   -6.7050   23.8850 C   0  0  0  0  0  3  0  0  0  0  0  0
  -21.1320   -5.8790   25.0220 C   0  0  0  0  0  3  0  0  0  0  0  0
  -21.4690   -4.5150   24.9310 C   0  0  0  0  0  0  0  0  0  0  0  0
  -21.8970   -3.9760   23.7060 C   0  0  0  0  0  3  0  0  0  0  0  0
  -21.9900   -4.8000   22.5700 C   0  0  0  0  0  0  0  0  0  0  0  0
  -22.3850   -4.2720   21.3870 F   0  0  0  0  0  0  0  0  0  0  0  0
  -21.3750   -3.7180   26.0220 F   0  0  0  0  0  0  0  0  0  0  0  0
  -22.7600  -13.5620   21.2210 C   0  0  0  0  0  0  0  0  0  0  0  0
  -22.0440  -12.8590   22.0910 N   0  0  0  0  0  0  0  0  0  0  0  0
  -22.3140  -14.5880   20.7090 O   0  0  0  0  0  0  0  0  0  0  0  0
  -22.4190  -12.0270   22.5220 H   0  0  0  0  0  0  0  0  0  0  0  0
  -21.1080  -13.1530   22.3290 H   0  0  0  0  0  0  0  0  0  0  0  0
  -25.3770  -15.2480   20.4010 N   0  0  0  0  0  0  0  0  0  0  0  0
  -24.6090  -15.8970   20.5290 H   0  0  0  0  0  0  0  0  0  0  0  0
  -26.2210  -15.6960   20.0710 H   0  0  0  0  0  0  0  0  0  0  0  0
  -27.9300  -25.0960   19.8550 C   0  0  0  0  0  2  0  0  0  0  0  0
  -28.2740  -26.4780   20.2320 O   0  0  0  0  0  0  0  0  0  0  0  0
  -24.5870  -31.8820   23.2660 C   0  0  0  0  0  0  0  0  0  0  0  0
  -27.1770  -27.3620   20.1600 C   0  0  0  0  0  0  0  0  0  0  0  0
  -23.3730  -30.4980   21.6240 C   0  0  0  0  0  3  0  0  0  0  0  0
  -24.8160  -28.9810   20.1730 C   0  0  0  0  0  0  0  0  0  0  0  0
  -25.9140  -30.8220   21.4310 C   0  0  0  0  0  2  0  0  0  0  0  0
  -25.9910  -29.4540   20.7730 C   0  0  0  0  0  0  0  0  0  0  0  0
  -27.1730  -28.6550   20.7660 C   0  0  0  0  0  3  0  0  0  0  0  0
  -25.9760  -26.9670   19.5120 C   0  0  0  0  0  3  0  0  0  0  0  0
  -24.8110  -27.7390   19.5360 C   0  0  0  0  0  3  0  0  0  0  0  0
  -23.5790  -29.8460   20.2350 C   0  0  0  0  0  2  0  0  0  0  0  0
  -24.6440  -31.0810   22.1630 N   0  0  0  0  0  0  0  0  0  0  0  0
  -23.5070  -32.1530   23.8080 O   0  0  0  0  0  0  0  0  0  0  0  0
  -22.7200  -29.4650   22.5750 C   0  0  0  0  0  0  0  0  0  0  0  0
  -21.3950  -29.2820   22.4520 N   0  0  0  0  0  0  0  0  0  0  0  0
  -23.4050  -28.8350   23.3870 O   0  0  0  0  0  0  0  0  0  0  0  0
  -20.9010  -29.8460   21.7750 H   0  0  0  0  0  0  0  0  0  0  0  0
  -18.0210  -28.0690   22.9470 C   0  0  0  0  0  0  0  0  0  0  0  0
  -20.5800  -28.3370   23.2190 C   0  0  0  0  0  3  0  0  0  0  0  0
  -20.6880  -26.9060   22.6390 C   0  0  0  0  0  2  0  0  0  0  0  0
  -19.5860  -26.5790   21.6260 C   0  0  0  0  0  2  0  0  0  0  0  0
  -18.2020  -26.7210   22.2700 C   0  0  0  0  0  2  0  0  0  0  0  0
  -19.1380  -28.8350   23.3780 C   0  0  0  0  0  0  0  0  0  0  0  0
  -18.9150  -30.0960   23.9700 C   0  0  0  0  0  3  0  0  0  0  0  0
  -17.6080  -30.5920   24.1380 C   0  0  0  0  0  3  0  0  0  0  0  0
  -16.5070  -29.8240   23.7240 C   0  0  0  0  0  3  0  0  0  0  0  0
  -16.7140  -28.5640   23.1340 C   0  0  0  0  0  3  0  0  0  0  0  0
  -25.8740  -32.5100   23.8820 C   0  0  0  0  0  3  0  0  0  0  0  0
  -25.5680  -33.9060   24.2190 N   0  0  0  0  0  0  0  0  0  0  0  0
  -25.8700  -34.9600   23.4480 C   0  0  0  0  0  0  0  0  0  0  0  0
  -26.5100  -34.8580   22.3980 O   0  0  0  0  0  0  0  0  0  0  0  0
  -25.0100  -34.0580   25.0460 H   0  0  0  0  0  0  0  0  0  0  0  0
  -24.1160  -36.7360   23.1490 C   0  0  0  0  0  1  0  0  0  0  0  0
  -25.3880  -36.3460   23.9180 C   0  0  0  0  0  3  0  0  0  0  0  0
  -27.5430  -37.2520   24.6720 C   0  0  0  0  0  1  0  0  0  0  0  0
  -26.4090  -37.4060   23.7660 N   0  0  0  0  0  0  0  0  0  0  0  0
  -25.9990  -38.3240   23.9230 H   0  0  0  0  0  0  0  0  0  0  0  0
  -26.3970  -31.7320   25.1510 C   0  0  1  0  0  0  0  0  0  0  0  0
  -25.3090  -31.4870   26.2220 C   0  0  0  0  0  1  0  0  0  0  0  0
  -26.9820  -30.3580   24.7480 C   0  0  0  0  0  1  0  0  0  0  0  0
  -27.5490  -32.5260   25.8120 C   0  0  0  0  0  1  0  0  0  0  0  0
  1  2  1  0
  3  4  2  0
  3  5  1  0
  4  6  1  0
  5  1  2  0
  6 12  1  0
  6  2  2  0
  7  4  1  0
  8 10  1  0
  8  7  1  0
  9  7  2  0
 11  8  1  0
 12 13  1  0
 14 23  1  0
 14 13  1  0
 15 23  1  0
 16 21  1  0
 17 18  1  0
 17 16  1  0
 19 18  1  0
 19 28  1  0
 19 20  1  0
 21 15  1  0
 21 20  1  0
 22 15  2  0
 23 24  1  0
 25 26  2  0
 26 45  1  0
 27 26  1  0
 27 30  1  0
 28 25  1  0
 28 29  1  0
 29 27  2  0
 30 31  1  0
 31 32  2  0
 33 36  1  0
 33 32  1  0
 34 33  2  0
 35 34  1  0
 35 30  2  0
 36 37  1  0
 37 38  1  0
 38 39  2  0
 40 39  1  0
 40 44  1  0
 41 40  2  0
 42 37  2  0
 42 41  1  0
 43 42  1  0
 45 46  1  0
 46 49  1  0
 46 48  1  0
 47 45  2  0
 50 51  1  0
 50 25  1  0
 52 50  1  0
 53  5  1  0
 53 54  1  0
 55 66  2  0
 56 54  1  0
 56 61  1  0
 57 65  1  0
 57 67  1  0
 58 64  1  0
 58 60  1  0
 59 65  1  0
 60 59  1  0
 61 60  2  0
 62 63  1  0
 62 56  2  0
 63 58  2  0
 64 57  1  0
 65 55  1  0
 67 69  2  0
 68 67  1  0
 70 68  1  0
 71 80  2  0
 71 76  1  0
 72 68  1  0
 72 76  1  0
 73 72  1  0
 74 75  1  0
 74 73  1  0
 75 71  1  0
 76 77  2  0
 77 78  1  0
 79 78  2  0
 80 79  1  0
 81 55  1  0
 81 82  1  0
 81 91  1  0
 82 85  1  0
 83 87  1  0
 83 82  1  0
 84 83  2  0
 87 86  1  0
 89 87  1  0
 89 90  1  0
 89 88  1  0
 91 94  1  1
 91 92  1  0
 93 91  1  0
M  ISO  4  15 100  23 100  53 101  54 101
M  END
>  <TORSDO>  (57) 
F 21

>  <SCORE>  (57) 
-13.614

>  <name>  (57) 
56

>  <ligand_id>  (57) 
56

>  <original_smiles>  (57) 
[H]c1c([H])c([H])c2c(c1[H])C([H])([H])C([H])([H])C([H])([H])C2([H])N([H])C(=O)C1([H])N(C(=O)C([H])(N([H])C(=O)C([H])(N([H])C([H])([H])[H])C([H])([H])[H])C(C([H])([H])[H])(C([H])([H])[H])C([H])([H])[H])C([H])([H])c2c([H])c(OC([H])([H])c3c([H])c([H])c(C([H])([H])C([H])([H])C([H])([H])N([H])C(=O)N4C([H])([H])C([H])([H])C([H])([H])C([H])(n5nc(-c6c([H])c([H])c(Oc7c([H])c([H])c(F)c([H])c7F)c([H])c6[H])c(C(=O)N([H])[H])c5N([H])[H])C4([H])[H])c(C(=O)N([H])[H])c3[H])c([H])c([H])c2C1([H])[H]

>  <smiles>  (57) 
[H]c1c([H])c([H])c2c(c1[H])C([H])([H])C([H])([H])C([H])([H])C2([H])N([H])C(=O)C1([H])N(C(=O)C([H])(N([H])C(=O)C([H])(N([H])C([H])([H])[H])C([H])([H])[H])C(C([H])([H])[H])(C([H])([H])[H])C([H])([H])[H])C([H])([H])c2c([H])c(OC([H])([H])c3c([H])c([H])c(C([H])([H])C([H])([H])C([H])([H])N([H])C(=O)N4C([H])([H])C([H])([H])C([H])([H])C([H])(n5nc(-c6c([H])c([H])c(Oc7c([H])c([H])c(F)c([H])c7F)c([H])c6[H])c(C(=O)N([H])[H])c5N([H])[H])C4([H])[H])c(C(=O)N([H])[H])c3[H])c([H])c([H])c2C1([H])[H]

$$$$
57:0:0
     RDKit          3D

 91 99  0  0  1  0  0  0  0  0999 V2000
  -30.2520  -23.4300   20.0210 C   0  0  0  0  0  2  0  0  0  0  0  0
  -27.8390  -22.8180   19.9380 C   0  0  0  0  0  2  0  0  0  0  0  0
  -30.5600  -22.0650   20.7090 C   0  0  0  0  0  2  0  0  0  0  0  0
  -28.1610  -21.4430   20.6240 C   0  0  0  0  0  2  0  0  0  0  0  0
  -28.8220  -23.9850   20.2720 C   0  0  0  0  0  3  0  0  0  0  0  0
  -29.5910  -20.9080   20.3230 C   0  0  0  0  0  3  0  0  0  0  0  0
  -29.9700  -19.6270   21.0370 N   0  0  0  0  0  4  0  0  0  0  0  0
  -29.7220  -19.7080   22.0100 H   0  0  0  0  0  0  0  0  0  0  0  0
  -30.9760  -19.5890   21.0020 H   0  0  0  0  0  0  0  0  0  0  0  0
  -29.5080  -18.2800   20.5340 C   0  0  0  0  0  2  0  0  0  0  0  0
  -30.3250  -17.0670   21.1500 C   0  0  0  0  0  2  0  0  0  0  0  0
  -30.5980  -14.5980   20.4760 C   0  0  0  0  0  0  0  0  0  0  0  0
  -30.3490  -12.3910   19.3720 C   0  0  0  0  0  2  0  0  0  0  0  0
  -29.4130  -12.5380   18.1540 C   0  0  0  0  0  2  0  0  0  0  0  0
  -27.9390  -12.3850   18.5760 C   0  0  0  0  0  2  0  0  0  0  0  0
  -27.5780  -13.2440   19.8170 C   0  0  0  0  0  3  0  0  0  0  0  0
  -28.6300  -13.0800   20.9370 C   0  0  0  0  0  2  0  0  0  0  0  0
  -29.9440  -13.4050   20.3630 N   0  0  0  0  0  0  0  0  0  0  0  0
  -31.7610  -14.7400   20.0940 O   0  0  0  0  0  0  0  0  0  0  0  0
  -29.8560  -15.6710   20.8740 N   0  0  0  0  0  0  0  0  0  0  0  0
  -28.8960  -15.4670   21.1080 H   0  0  0  0  0  0  0  0  0  0  0  0
  -25.1790  -13.8460   20.5130 C   0  0  0  0  0  0  0  0  0  0  0  0
  -24.1100  -13.0730   20.8790 C   0  0  0  0  0  0  0  0  0  0  0  0
  -24.5750  -11.7220   20.8600 C   0  0  0  0  0  0  0  0  0  0  0  0
  -26.2260  -12.9650   20.2940 N   0  0  0  0  0  0  0  0  0  0  0  0
  -25.8670  -11.6840   20.5620 N   0  0  0  0  0  0  0  0  0  0  0  0
  -23.8490  -10.4600   21.0500 C   0  0  0  0  0  0  0  0  0  0  0  0
  -24.2890   -9.4870   21.9750 C   0  0  0  0  0  3  0  0  0  0  0  0
  -23.5640   -8.2890   22.1520 C   0  0  0  0  0  3  0  0  0  0  0  0
  -22.3840   -8.0560   21.4060 C   0  0  0  0  0  0  0  0  0  0  0  0
  -21.9640   -9.0170   20.4710 C   0  0  0  0  0  3  0  0  0  0  0  0
  -22.6890  -10.2060   20.2910 C   0  0  0  0  0  3  0  0  0  0  0  0
  -21.6300   -6.9120   21.4950 O   0  0  0  0  0  0  0  0  0  0  0  0
  -21.6040   -6.1520   22.6380 C   0  0  0  0  0  0  0  0  0  0  0  0
  -21.2200   -6.6950   23.8830 C   0  0  0  0  0  3  0  0  0  0  0  0
  -21.1410   -5.8630   25.0190 C   0  0  0  0  0  3  0  0  0  0  0  0
  -21.4350   -4.4900   24.9090 C   0  0  0  0  0  0  0  0  0  0  0  0
  -21.8130   -3.9490   23.6680 C   0  0  0  0  0  3  0  0  0  0  0  0
  -21.8940   -4.7770   22.5350 C   0  0  0  0  0  0  0  0  0  0  0  0
  -22.2380   -4.2450   21.3370 F   0  0  0  0  0  0  0  0  0  0  0  0
  -21.3520   -3.6900   25.9970 F   0  0  0  0  0  0  0  0  0  0  0  0
  -22.7100  -13.5490   21.1370 C   0  0  0  0  0  0  0  0  0  0  0  0
  -21.9770  -12.8570   22.0000 N   0  0  0  0  0  0  0  0  0  0  0  0
  -22.2750  -14.5710   20.6070 O   0  0  0  0  0  0  0  0  0  0  0  0
  -22.3410  -12.0310   22.4500 H   0  0  0  0  0  0  0  0  0  0  0  0
  -21.0360  -13.1580   22.2160 H   0  0  0  0  0  0  0  0  0  0  0  0
  -25.3420  -15.2150   20.3270 N   0  0  0  0  0  0  0  0  0  0  0  0
  -24.5670  -15.8640   20.4130 H   0  0  0  0  0  0  0  0  0  0  0  0
  -26.1810  -15.6480   19.9630 H   0  0  0  0  0  0  0  0  0  0  0  0
  -28.5420  -25.3240   19.4570 C   0  0  0  0  0  2  0  0  0  0  0  0
  -28.4010  -26.5930   20.1780 O   0  0  0  0  0  0  0  0  0  0  0  0
  -24.6300  -31.8840   23.2370 C   0  0  0  0  0  0  0  0  0  0  0  0
  -27.2320  -27.3610   20.1400 C   0  0  0  0  0  0  0  0  0  0  0  0
  -23.4110  -30.4830   21.6090 C   0  0  0  0  0  3  0  0  0  0  0  0
  -24.8480  -28.9370   20.1710 C   0  0  0  0  0  0  0  0  0  0  0  0
  -25.9440  -30.8150   21.3960 C   0  0  0  0  0  2  0  0  0  0  0  0
  -26.0190  -29.4400   20.7510 C   0  0  0  0  0  0  0  0  0  0  0  0
  -27.2090  -28.6600   20.7280 C   0  0  0  0  0  3  0  0  0  0  0  0
  -26.0240  -26.8900   19.5700 C   0  0  0  0  0  3  0  0  0  0  0  0
  -24.8500  -27.6660   19.5780 C   0  0  0  0  0  3  0  0  0  0  0  0
  -23.6100  -29.8060   20.2270 C   0  0  0  0  0  2  0  0  0  0  0  0
  -24.6810  -31.0780   22.1380 N   0  0  0  0  0  0  0  0  0  0  0  0
  -23.5520  -32.1590   23.7830 O   0  0  0  0  0  0  0  0  0  0  0  0
  -22.7620  -29.4660   22.5750 C   0  0  0  0  0  0  0  0  0  0  0  0
  -21.4360  -29.2830   22.4570 N   0  0  0  0  0  0  0  0  0  0  0  0
  -23.4490  -28.8410   23.3880 O   0  0  0  0  0  0  0  0  0  0  0  0
  -20.9410  -29.8390   21.7730 H   0  0  0  0  0  0  0  0  0  0  0  0
  -18.0670  -28.0740   22.9700 C   0  0  0  0  0  0  0  0  0  0  0  0
  -20.6240  -28.3460   23.2340 C   0  0  0  0  0  3  0  0  0  0  0  0
  -20.7320  -26.9120   22.6660 C   0  0  0  0  0  2  0  0  0  0  0  0
  -19.6300  -26.5790   21.6560 C   0  0  0  0  0  2  0  0  0  0  0  0
  -18.2480  -26.7220   22.3010 C   0  0  0  0  0  2  0  0  0  0  0  0
  -19.1820  -28.8440   23.3930 C   0  0  0  0  0  0  0  0  0  0  0  0
  -18.9590  -30.1100   23.9770 C   0  0  0  0  0  3  0  0  0  0  0  0
  -17.6530  -30.6060   24.1420 C   0  0  0  0  0  3  0  0  0  0  0  0
  -16.5510  -29.8340   23.7350 C   0  0  0  0  0  3  0  0  0  0  0  0
  -16.7590  -28.5690   23.1540 C   0  0  0  0  0  3  0  0  0  0  0  0
  -25.9200  -32.5160   23.8470 C   0  0  0  0  0  3  0  0  0  0  0  0
  -26.4530  -31.7410   25.1150 C   0  0  1  0  0  0  0  0  0  0  0  0
  -25.3740  -31.4970   26.1950 C   0  0  0  0  0  1  0  0  0  0  0  0
  -27.0330  -30.3660   24.7090 C   0  0  0  0  0  1  0  0  0  0  0  0
  -27.6110  -32.5340   25.7650 C   0  0  0  0  0  1  0  0  0  0  0  0
  -25.6110  -33.9120   24.1880 N   0  0  0  0  0  0  0  0  0  0  0  0
  -25.9290  -34.9690   23.4290 C   0  0  0  0  0  0  0  0  0  0  0  0
  -26.5850  -34.8720   22.3870 O   0  0  0  0  0  0  0  0  0  0  0  0
  -25.0260  -34.0610   24.9970 H   0  0  0  0  0  0  0  0  0  0  0  0
  -24.1880  -36.7560   23.1100 C   0  0  0  0  0  1  0  0  0  0  0  0
  -25.4440  -36.3540   23.8990 C   0  0  0  0  0  3  0  0  0  0  0  0
  -27.5900  -37.2430   24.6940 C   0  0  0  0  0  1  0  0  0  0  0  0
  -26.4700  -37.4110   23.7720 N   0  0  0  0  0  0  0  0  0  0  0  0
  -26.0630  -38.3300   23.9330 H   0  0  0  0  0  0  0  0  0  0  0  0
  1  5  1  0
  1  3  1  0
  2  5  1  0
  2  4  1  0
  5 50  1  0
  6  4  1  0
  6  3  1  0
  6  7  1  0
  7  8  1  0
  9  7  1  0
 10  7  1  0
 10 11  1  0
 12 20  1  0
 13 18  1  0
 14 15  1  0
 14 13  1  0
 16 15  1  0
 16 25  1  0
 16 17  1  0
 18 12  1  0
 18 17  1  0
 19 12  2  0
 20 21  1  0
 20 11  1  0
 22 23  2  0
 23 42  1  0
 24 23  1  0
 24 27  1  0
 25 22  1  0
 25 26  1  0
 26 24  2  0
 27 28  1  0
 28 29  2  0
 30 33  1  0
 30 29  1  0
 31 30  2  0
 32 31  1  0
 32 27  2  0
 33 34  1  0
 34 35  1  0
 35 36  2  0
 37 36  1  0
 37 41  1  0
 38 37  2  0
 39 34  2  0
 39 38  1  0
 40 39  1  0
 42 43  1  0
 43 46  1  0
 43 45  1  0
 44 42  2  0
 47 48  1  0
 47 22  1  0
 49 47  1  0
 50 51  1  0
 52 63  2  0
 53 51  1  0
 53 58  1  0
 54 62  1  0
 54 64  1  0
 55 61  1  0
 55 57  1  0
 56 62  1  0
 57 56  1  0
 58 57  2  0
 59 60  1  0
 59 53  2  0
 60 55  2  0
 61 54  1  0
 62 52  1  0
 64 66  2  0
 65 64  1  0
 67 65  1  0
 68 77  2  0
 68 73  1  0
 69 65  1  0
 69 73  1  0
 70 69  1  0
 71 72  1  0
 71 70  1  0
 72 68  1  0
 73 74  2  0
 74 75  1  0
 76 75  2  0
 77 76  1  0
 78 52  1  0
 78 83  1  0
 78 79  1  0
 79 82  1  1
 79 80  1  0
 81 79  1  0
 83 86  1  0
 84 88  1  0
 84 83  1  0
 85 84  2  0
 88 87  1  0
 90 88  1  0
 90 91  1  0
 90 89  1  0
M  ISO  4  12 100  20 100  50 101  51 101
M  END
>  <TORSDO>  (58) 
F 20

>  <SCORE>  (58) 
-13.890

>  <name>  (58) 
57

>  <ligand_id>  (58) 
57

>  <original_smiles>  (58) 
[H]c1c([H])c([H])c2c(c1[H])C([H])([H])C([H])([H])C([H])([H])C2([H])N([H])C(=O)C1([H])N(C(=O)C([H])(N([H])C(=O)C([H])(N([H])C([H])([H])[H])C([H])([H])[H])C(C([H])([H])[H])(C([H])([H])[H])C([H])([H])[H])C([H])([H])c2c([H])c(OC([H])([H])C3([H])C([H])([H])C([H])([H])C([H])([N+]([H])([H])C([H])([H])C([H])([H])N([H])C(=O)N4C([H])([H])C([H])([H])C([H])([H])C([H])(n5nc(-c6c([H])c([H])c(Oc7c([H])c([H])c(F)c([H])c7F)c([H])c6[H])c(C(=O)N([H])[H])c5N([H])[H])C4([H])[H])C([H])([H])C3([H])[H])c([H])c([H])c2C1([H])[H]

>  <smiles>  (58) 
[H]c1c([H])c([H])c2c(c1[H])C([H])([H])C([H])([H])C([H])([H])C2([H])N([H])C(=O)C1([H])N(C(=O)C([H])(N([H])C(=O)C([H])(N([H])C([H])([H])[H])C([H])([H])[H])C(C([H])([H])[H])(C([H])([H])[H])C([H])([H])[H])C([H])([H])c2c([H])c(OC([H])([H])C3([H])C([H])([H])C([H])([H])C([H])([N+]([H])([H])C([H])([H])C([H])([H])N([H])C(=O)N4C([H])([H])C([H])([H])C([H])([H])C([H])(n5nc(-c6c([H])c([H])c(Oc7c([H])c([H])c(F)c([H])c7F)c([H])c6[H])c(C(=O)N([H])[H])c5N([H])[H])C4([H])[H])C([H])([H])C3([H])[H])c([H])c([H])c2C1([H])[H]

$$$$
58:0:0
     RDKit          3D

100107  0  0  1  0  0  0  0  0999 V2000
  -26.5450  -14.4250   18.0540 C   0  0  0  0  0  2  0  0  0  0  0  0
  -27.1780  -12.6280   17.6710 C   0  0  0  0  0  2  0  0  0  0  0  0
  -29.8900  -14.8180   17.9130 C   0  0  0  0  0  1  0  0  0  0  0  0
  -28.9350  -16.5250   17.7990 C   0  0  0  0  0  3  0  0  0  0  0  0
  -27.5700  -16.0050   18.4570 C   0  0  0  0  0  3  0  0  0  0  0  0
  -28.9420  -12.5120   17.6470 N   0  0  0  0  0  0  0  0  0  0  0  0
  -29.2490  -12.1580   16.7550 H   0  0  0  0  0  0  0  0  0  0  0  0
  -29.2720  -11.8990   18.3750 H   0  0  0  0  0  0  0  0  0  0  0  0
  -29.9610  -19.2810   19.0180 C   0  0  0  0  0  3  0  0  0  0  0  0
  -29.8770  -20.7730   19.3890 C   0  0  0  0  0  3  0  0  0  0  0  0
  -28.1230  -20.9680   18.0280 C   0  0  0  0  0  3  0  0  0  0  0  0
  -29.0760  -18.3920   18.1770 C   0  0  0  0  0  0  0  0  0  0  0  0
  -28.9220  -21.8430   18.9430 C   0  0  0  0  0  0  0  0  0  0  0  0
  -28.1710  -19.4820   17.6670 C   0  0  0  0  0  0  0  0  0  0  0  0
  -27.1100  -19.1530   16.5890 C   0  0  0  0  0  1  0  0  0  0  0  0
  -28.5290  -23.6510   19.2860 C   0  0  0  0  0  2  0  0  0  0  0  0
  -29.0350  -25.1670   20.0380 O   0  0  0  0  0  0  0  0  0  0  0  0
  -25.8270  -31.2170   23.9610 C   0  0  0  0  0  0  0  0  0  0  0  0
  -28.2280  -26.4740   20.2620 C   0  0  0  0  0  0  0  0  0  0  0  0
  -24.6920  -30.1560   22.0710 C   0  0  0  0  0  3  0  0  0  0  0  0
  -26.1260  -28.6470   20.5100 C   0  0  0  0  0  0  0  0  0  0  0  0
  -27.2840  -30.1030   22.1470 C   0  0  0  0  0  2  0  0  0  0  0  0
  -27.3020  -28.7960   21.2530 C   0  0  0  0  0  0  0  0  0  0  0  0
  -28.3500  -27.7290   21.1150 C   0  0  0  0  0  3  0  0  0  0  0  0
  -27.0220  -26.5460   19.5420 C   0  0  0  0  0  3  0  0  0  0  0  0
  -26.0210  -27.5440   19.6550 C   0  0  0  0  0  3  0  0  0  0  0  0
  -24.9880  -29.6690   20.6290 C   0  0  0  0  0  2  0  0  0  0  0  0
  -25.9590  -30.5160   22.7840 N   0  0  0  0  0  0  0  0  0  0  0  0
  -24.7150  -31.5170   24.4300 O   0  0  0  0  0  0  0  0  0  0  0  0
  -23.8520  -29.0930   22.8280 C   0  0  0  0  0  0  0  0  0  0  0  0
  -22.5460  -28.9820   22.5180 N   0  0  0  0  0  0  0  0  0  0  0  0
  -24.3910  -28.3700   23.6700 O   0  0  0  0  0  0  0  0  0  0  0  0
  -22.1650  -29.6160   21.8300 H   0  0  0  0  0  0  0  0  0  0  0  0
  -19.1200  -27.7800   22.4440 C   0  0  0  0  0  0  0  0  0  0  0  0
  -21.6190  -27.9910   23.0780 C   0  0  0  0  0  3  0  0  0  0  0  0
  -21.7970  -26.6160   22.3930 C   0  0  0  0  0  2  0  0  0  0  0  0
  -20.8460  -26.4010   21.2130 C   0  0  0  0  0  2  0  0  0  0  0  0
  -19.3880  -26.5020   21.6700 C   0  0  0  0  0  2  0  0  0  0  0  0
  -20.1680  -28.4880   23.0930 C   0  0  0  0  0  0  0  0  0  0  0  0
  -19.8630  -29.6860   23.7740 C   0  0  0  0  0  3  0  0  0  0  0  0
  -18.5430  -30.1760   23.8150 C   0  0  0  0  0  3  0  0  0  0  0  0
  -17.5090  -29.4650   23.1820 C   0  0  0  0  0  3  0  0  0  0  0  0
  -17.7980  -28.2690   22.5020 C   0  0  0  0  0  3  0  0  0  0  0  0
  -27.0680  -31.6890   24.7790 C   0  0  0  0  0  3  0  0  0  0  0  0
  -26.8090  -33.0650   25.2470 N   0  0  0  0  0  0  0  0  0  0  0  0
  -27.2620  -34.1810   24.6620 C   0  0  0  0  0  0  0  0  0  0  0  0
  -27.9980  -34.1590   23.6730 O   0  0  0  0  0  0  0  0  0  0  0  0
  -26.1610  -33.1610   26.0150 H   0  0  0  0  0  0  0  0  0  0  0  0
  -25.6750  -36.1310   24.4520 C   0  0  0  0  0  1  0  0  0  0  0  0
  -26.8340  -35.5360   25.2670 C   0  0  0  0  0  3  0  0  0  0  0  0
  -28.9540  -36.1770   26.3320 C   0  0  0  0  0  1  0  0  0  0  0  0
  -27.9330  -36.5230   25.3470 N   0  0  0  0  0  0  0  0  0  0  0  0
  -27.5710  -37.4450   25.5740 H   0  0  0  0  0  0  0  0  0  0  0  0
  -27.3790  -30.7610   26.0190 C   0  0  1  0  0  0  0  0  0  0  0  0
  -26.1600  -30.5300   26.9440 C   0  0  0  0  0  1  0  0  0  0  0  0
  -27.8880  -29.3750   25.5650 C   0  0  0  0  0  1  0  0  0  0  0  0
  -28.5070  -31.3870   26.8740 C   0  0  0  0  0  1  0  0  0  0  0  0
  -28.1750  -16.3710   19.8680 N   0  0  0  0  0  4  0  0  0  0  0  0
  -28.4890  -15.4160   19.6840 H   0  0  0  0  0  0  0  0  0  0  0  0
  -27.3640  -16.2660   20.4990 H   0  0  0  0  0  0  0  0  0  0  0  0
  -29.5290  -16.2610   20.7060 C   0  0  0  0  0  2  0  0  0  0  0  0
  -29.8690  -15.1580   21.9190 C   0  0  0  0  0  2  0  0  0  0  0  0
  -31.9740  -13.3160   22.1380 C   0  0  0  0  0  0  0  0  0  0  0  0
  -32.1840  -11.0180   20.9630 C   0  0  0  0  0  2  0  0  0  0  0  0
  -31.9150  -10.7820   19.1080 C   0  0  0  0  0  2  0  0  0  0  0  0
  -30.2630  -11.3690   18.2560 C   0  0  0  0  0  1  0  0  0  0  0  0
  -28.7560  -12.4420   20.5480 C   0  0  0  0  0  2  0  0  0  0  0  0
  -29.7350  -12.2060   22.0670 C   0  0  0  0  0  2  0  0  0  0  0  0
  -31.3360  -12.0860   21.9620 N   0  0  0  0  0  0  0  0  0  0  0  0
  -33.1670  -13.4080   21.8430 O   0  0  0  0  0  0  0  0  0  0  0  0
  -31.2650  -14.5290   22.2230 N   0  0  0  0  0  0  0  0  0  0  0  0
  -31.9490  -15.2640   22.3410 H   0  0  0  0  0  0  0  0  0  0  0  0
  -26.4330  -12.8750   21.3700 C   0  0  0  0  0  0  0  0  0  0  0  0
  -25.2660  -12.2420   21.4380 C   0  0  0  0  0  0  0  0  0  0  0  0
  -25.5260  -10.8590   21.2160 C   0  0  0  0  0  0  0  0  0  0  0  0
  -27.3850  -11.9810   21.0160 N   0  0  0  0  0  0  0  0  0  0  0  0
  -26.8570  -10.6960   21.0350 N   0  0  0  0  0  0  0  0  0  0  0  0
  -24.5450   -9.7650   21.1660 C   0  0  0  0  0  0  0  0  0  0  0  0
  -24.6100   -8.6620   22.0470 C   0  0  0  0  0  3  0  0  0  0  0  0
  -23.5770   -7.6920   22.0590 C   0  0  0  0  0  3  0  0  0  0  0  0
  -22.4670   -7.8210   21.1950 C   0  0  0  0  0  0  0  0  0  0  0  0
  -22.4230   -8.8970   20.2930 C   0  0  0  0  0  3  0  0  0  0  0  0
  -23.4500   -9.8540   20.2730 C   0  0  0  0  0  3  0  0  0  0  0  0
  -21.4390   -6.9090   21.1260 O   0  0  0  0  0  0  0  0  0  0  0  0
  -21.0560   -6.1720   22.2160 C   0  0  0  0  0  0  0  0  0  0  0  0
  -20.5590   -6.7850   23.3880 C   0  0  0  0  0  3  0  0  0  0  0  0
  -20.1270   -5.9900   24.4690 C   0  0  0  0  0  3  0  0  0  0  0  0
  -20.1720   -4.5870   24.3730 C   0  0  0  0  0  0  0  0  0  0  0  0
  -20.6520   -3.9750   23.2030 C   0  0  0  0  0  3  0  0  0  0  0  0
  -21.0940   -4.7660   22.1270 C   0  0  0  0  0  0  0  0  0  0  0  0
  -21.5460   -4.1720   20.9950 F   0  0  0  0  0  0  0  0  0  0  0  0
  -19.7440   -3.8220   25.4050 F   0  0  0  0  0  0  0  0  0  0  0  0
  -23.9970  -12.9780   21.6690 C   0  0  0  0  0  0  0  0  0  0  0  0
  -23.1080  -12.3950   22.4500 N   0  0  0  0  0  0  0  0  0  0  0  0
  -23.8640  -14.1300   21.2460 O   0  0  0  0  0  0  0  0  0  0  0  0
  -23.2710  -11.4660   22.8040 H   0  0  0  0  0  0  0  0  0  0  0  0
  -22.2350  -12.8510   22.6720 H   0  0  0  0  0  0  0  0  0  0  0  0
  -26.7020  -14.2050   21.5300 N   0  0  0  0  0  0  0  0  0  0  0  0
  -26.5060  -14.3800   22.5190 H   0  0  0  0  0  0  0  0  0  0  0  0
  -25.8640  -14.6160   21.1240 H   0  0  0  0  0  0  0  0  0  0  0  0
  2  1  1  0
  4  3  1  0
  4 12  1  0
  4  5  1  0
  5  1  1  0
  5 58  1  0
  6  2  1  0
  6  8  1  0
  7  6  1  0
  9 10  1  0
 11 13  1  0
 12  9  2  0
 13 16  1  0
 13 10  2  0
 14 11  2  0
 14 12  1  0
 15 14  1  0
 16 17  1  0
 17 19  1  0
 18 29  2  0
 19 24  1  0
 20 28  1  0
 20 30  1  0
 21 27  1  0
 21 23  1  0
 22 28  1  0
 23 22  1  0
 24 23  2  0
 25 26  1  0
 25 19  2  0
 26 21  2  0
 27 20  1  0
 28 18  1  0
 30 32  2  0
 31 30  1  0
 33 31  1  0
 34 43  2  0
 34 39  1  0
 35 31  1  0
 35 39  1  0
 36 35  1  0
 37 38  1  0
 37 36  1  0
 38 34  1  0
 39 40  2  0
 40 41  1  0
 42 41  2  0
 43 42  1  0
 44 18  1  0
 44 45  1  0
 44 54  1  0
 45 48  1  0
 46 45  1  0
 46 50  1  0
 47 46  2  0
 50 49  1  0
 50 52  1  0
 52 53  1  0
 52 51  1  0
 54 57  1  1
 54 55  1  0
 56 54  1  0
 58 60  1  0
 58 61  1  0
 59 58  1  0
 61 62  1  0
 62 71  1  0
 63 71  1  0
 64 69  1  0
 65 64  1  0
 66 65  1  0
 67 76  1  0
 67 68  1  0
 69 68  1  0
 69 63  1  0
 70 63  2  0
 71 72  1  0
 73 74  2  0
 73 98  1  0
 74 93  1  0
 75 74  1  0
 76 77  1  0
 76 73  1  0
 77 75  2  0
 78 75  1  0
 78 79  1  0
 79 80  2  0
 81 80  1  0
 82 81  2  0
 83 82  1  0
 83 78  2  0
 84 81  1  0
 84 85  1  0
 85 86  1  0
 86 87  2  0
 88 87  1  0
 88 92  1  0
 89 88  2  0
 90 85  2  0
 90 89  1  0
 91 90  1  0
 93 94  1  0
 94 97  1  0
 94 96  1  0
 95 93  2  0
 98 99  1  0
100 98  1  0
M  ISO  4  16 101  17 101  63 100  71 100
M  END
>  <TORSDO>  (59) 
F 21

>  <SCORE>  (59) 
-2.114

>  <name>  (59) 
58

>  <ligand_id>  (59) 
58

>  <original_smiles>  (59) 
[H]c1c([H])c([H])c2c(c1[H])C([H])([H])C([H])([H])C([H])([H])C2([H])N([H])C(=O)C1([H])N(C(=O)C([H])(N([H])C(=O)C([H])(N([H])C([H])([H])[H])C([H])([H])[H])C(C([H])([H])[H])(C([H])([H])[H])C([H])([H])[H])C([H])([H])c2c([H])c(OC([H])([H])c3c([H])c([H])c(C4([H])C([H])([H])[N+]([H])([H])C([H])([H])C([H])([H])C4([H])[N+]([H])([H])C([H])([H])C([H])([H])N([H])C(=O)N4C([H])([H])C([H])([H])C([H])([H])C([H])(n5nc(-c6c([H])c([H])c(Oc7c([H])c([H])c(F)c([H])c7F)c([H])c6[H])c(C(=O)N([H])[H])c5N([H])[H])C4([H])[H])c(C([H])([H])[H])c3[H])c([H])c([H])c2C1([H])[H]

>  <smiles>  (59) 
[H]c1c([H])c([H])c2c(c1[H])C([H])([H])C([H])([H])C([H])([H])C2([H])N([H])C(=O)C1([H])N(C(=O)C([H])(N([H])C(=O)C([H])(N([H])C([H])([H])[H])C([H])([H])[H])C(C([H])([H])[H])(C([H])([H])[H])C([H])([H])[H])C([H])([H])c2c([H])c(OC([H])([H])c3c([H])c([H])c(C4([H])C([H])([H])[N+]([H])([H])C([H])([H])C([H])([H])C4([H])[N+]([H])([H])C([H])([H])C([H])([H])N([H])C(=O)N4C([H])([H])C([H])([H])C([H])([H])C([H])(n5nc(-c6c([H])c([H])c(Oc7c([H])c([H])c(F)c([H])c7F)c([H])c6[H])c(C(=O)N([H])[H])c5N([H])[H])C4([H])[H])c(C([H])([H])[H])c3[H])c([H])c([H])c2C1([H])[H]

$$$$
59:0:0
     RDKit          3D

 94103  0  0  1  0  0  0  0  0999 V2000
  -31.1640  -17.8250   19.2730 C   0  0  0  0  0  3  0  0  0  0  0  0
  -29.3020  -19.6100   20.3930 C   0  0  0  0  0  0  0  0  0  0  0  0
  -30.3590  -20.1460   19.6290 C   0  0  0  0  0  0  0  0  0  0  0  0
  -31.2870  -19.2280   19.0580 C   0  0  0  0  0  0  0  0  0  0  0  0
  -29.1840  -18.1890   20.6180 C   0  0  0  0  0  0  0  0  0  0  0  0
  -30.1310  -17.2590   20.0640 C   0  0  0  0  0  0  0  0  0  0  0  0
  -28.3580  -20.6620   20.9920 C   0  0  0  0  0  2  0  0  0  0  0  0
  -30.5180  -21.7050   19.5500 C   0  0  0  0  0  2  0  0  0  0  0  0
  -28.0670  -21.8750   20.0490 C   0  0  0  0  0  2  0  0  0  0  0  0
  -32.4500  -19.7260   18.2160 C   0  0  0  0  0  1  0  0  0  0  0  0
  -28.0390  -17.6710   21.4800 C   0  0  0  0  0  1  0  0  0  0  0  0
  -29.2610  -22.5370   19.4320 N   0  0  1  0  0  4  0  0  0  0  0  0
  -29.0650  -22.4950   18.4420 H   0  0  0  0  0  0  0  0  0  0  0  0
  -30.7090  -14.7240   19.8200 C   0  0  0  0  0  0  0  0  0  0  0  0
  -30.3630  -12.4920   18.7790 C   0  0  0  0  0  2  0  0  0  0  0  0
  -29.3360  -12.6490   17.6360 C   0  0  0  0  0  2  0  0  0  0  0  0
  -27.8950  -12.5260   18.1700 C   0  0  0  0  0  2  0  0  0  0  0  0
  -27.6510  -13.3910   19.4340 C   0  0  0  0  0  3  0  0  0  0  0  0
  -28.7840  -13.2090   20.4700 C   0  0  0  0  0  2  0  0  0  0  0  0
  -30.0560  -13.5180   19.7990 N   0  0  0  0  0  0  0  0  0  0  0  0
  -31.8420  -14.8360   19.3410 O   0  0  0  0  0  0  0  0  0  0  0  0
  -29.9840  -15.8060   20.2610 N   0  0  0  0  0  0  0  0  0  0  0  0
  -29.1360  -15.5360   20.7320 H   0  0  0  0  0  0  0  0  0  0  0  0
  -25.3610  -14.0530   20.3920 C   0  0  0  0  0  0  0  0  0  0  0  0
  -24.2900  -13.3080   20.8040 C   0  0  0  0  0  0  0  0  0  0  0  0
  -24.6760  -11.9420   20.6500 C   0  0  0  0  0  0  0  0  0  0  0  0
  -26.3340  -13.1420   20.0150 N   0  0  0  0  0  0  0  0  0  0  0  0
  -25.9330  -11.8630   20.2290 N   0  0  0  0  0  0  0  0  0  0  0  0
  -23.9030  -10.7050   20.8230 C   0  0  0  0  0  0  0  0  0  0  0  0
  -24.3700   -9.6490   21.6370 C   0  0  0  0  0  3  0  0  0  0  0  0
  -23.5990   -8.4790   21.8030 C   0  0  0  0  0  3  0  0  0  0  0  0
  -22.3460   -8.3550   21.1560 C   0  0  0  0  0  0  0  0  0  0  0  0
  -21.8960   -9.4000   20.3300 C   0  0  0  0  0  3  0  0  0  0  0  0
  -22.6670  -10.5620   20.1600 C   0  0  0  0  0  3  0  0  0  0  0  0
  -21.5410   -7.2450   21.2390 O   0  0  0  0  0  0  0  0  0  0  0  0
  -21.5860   -6.4020   22.3210 C   0  0  0  0  0  0  0  0  0  0  0  0
  -21.3370   -6.8600   23.6330 C   0  0  0  0  0  3  0  0  0  0  0  0
  -21.3260   -5.9470   24.7060 C   0  0  0  0  0  3  0  0  0  0  0  0
  -21.5530   -4.5780   24.4710 C   0  0  0  0  0  0  0  0  0  0  0  0
  -21.7960   -4.1200   23.1630 C   0  0  0  0  0  3  0  0  0  0  0  0
  -21.8090   -5.0290   22.0920 C   0  0  0  0  0  0  0  0  0  0  0  0
  -22.0230   -4.5790   20.8320 F   0  0  0  0  0  0  0  0  0  0  0  0
  -21.5340   -3.6990   25.5000 F   0  0  0  0  0  0  0  0  0  0  0  0
  -22.9460  -13.8320   21.2230 C   0  0  0  0  0  0  0  0  0  0  0  0
  -22.2630  -13.1220   22.1140 N   0  0  0  0  0  0  0  0  0  0  0  0
  -22.5160  -14.9030   20.7960 O   0  0  0  0  0  0  0  0  0  0  0  0
  -22.6250  -12.2530   22.4790 H   0  0  0  0  0  0  0  0  0  0  0  0
  -21.3630  -13.4530   22.4360 H   0  0  0  0  0  0  0  0  0  0  0  0
  -25.5820  -15.4240   20.2840 N   0  0  0  0  0  0  0  0  0  0  0  0
  -24.8560  -16.1010   20.4880 H   0  0  0  0  0  0  0  0  0  0  0  0
  -26.4100  -15.8410   19.8790 H   0  0  0  0  0  0  0  0  0  0  0  0
  -29.4380  -24.0340   19.7390 C   0  0  0  0  0  3  0  0  0  0  0  0
  -28.2850  -25.0430   19.2920 C   0  0  0  0  0  3  0  0  0  0  0  0
  -28.4290  -26.4990   19.5640 O   0  0  0  0  0  0  0  0  0  0  0  0
  -24.5030  -31.4900   23.0050 C   0  0  0  0  0  0  0  0  0  0  0  0
  -27.2690  -27.2960   19.5810 C   0  0  0  0  0  0  0  0  0  0  0  0
  -23.3340  -30.1500   21.2930 C   0  0  0  0  0  3  0  0  0  0  0  0
  -24.8270  -28.7840   19.7310 C   0  0  0  0  0  0  0  0  0  0  0  0
  -25.8500  -30.6100   21.0860 C   0  0  0  0  0  2  0  0  0  0  0  0
  -25.9840  -29.2880   20.3390 C   0  0  0  0  0  0  0  0  0  0  0  0
  -27.2070  -28.5550   20.2560 C   0  0  0  0  0  3  0  0  0  0  0  0
  -26.0840  -26.8520   18.9470 C   0  0  0  0  0  3  0  0  0  0  0  0
  -24.8800  -27.5730   19.0260 C   0  0  0  0  0  3  0  0  0  0  0  0
  -23.5500  -29.5880   19.8640 C   0  0  0  0  0  2  0  0  0  0  0  0
  -24.5810  -30.7640   21.8520 N   0  0  0  0  0  0  0  0  0  0  0  0
  -23.4190  -31.6730   23.5790 O   0  0  0  0  0  0  0  0  0  0  0  0
  -22.7460  -29.0340   22.1900 C   0  0  0  0  0  0  0  0  0  0  0  0
  -21.4280  -28.7980   22.0760 N   0  0  0  0  0  0  0  0  0  0  0  0
  -23.4730  -28.3860   22.9480 O   0  0  0  0  0  0  0  0  0  0  0  0
  -20.8970  -29.3780   21.4400 H   0  0  0  0  0  0  0  0  0  0  0  0
  -18.1250  -27.3980   22.5460 C   0  0  0  0  0  0  0  0  0  0  0  0
  -20.6720  -27.7700   22.7930 C   0  0  0  0  0  3  0  0  0  0  0  0
  -20.8340  -26.3890   22.1190 C   0  0  0  0  0  2  0  0  0  0  0  0
  -19.7300  -26.0790   21.1030 C   0  0  0  0  0  2  0  0  0  0  0  0
  -18.3560  -26.1090   21.7770 C   0  0  0  0  0  2  0  0  0  0  0  0
  -19.2120  -28.1870   23.0100 C   0  0  0  0  0  0  0  0  0  0  0  0
  -18.9420  -29.3940   23.6900 C   0  0  0  0  0  3  0  0  0  0  0  0
  -17.6160  -29.8140   23.9120 C   0  0  0  0  0  3  0  0  0  0  0  0
  -16.5450  -29.0230   23.4650 C   0  0  0  0  0  3  0  0  0  0  0  0
  -16.8000  -27.8170   22.7880 C   0  0  0  0  0  3  0  0  0  0  0  0
  -25.7670  -32.1400   23.6460 C   0  0  0  0  0  3  0  0  0  0  0  0
  -25.4060  -33.5080   24.0500 N   0  0  0  0  0  0  0  0  0  0  0  0
  -25.6910  -34.6100   23.3440 C   0  0  0  0  0  0  0  0  0  0  0  0
  -26.3560  -34.5870   22.3050 O   0  0  0  0  0  0  0  0  0  0  0  0
  -24.8140  -33.5960   24.8620 H   0  0  0  0  0  0  0  0  0  0  0  0
  -23.8830  -36.3430   23.1050 C   0  0  0  0  0  1  0  0  0  0  0  0
  -25.1540  -35.9530   23.8770 C   0  0  0  0  0  3  0  0  0  0  0  0
  -27.2590  -36.8900   24.7230 C   0  0  0  0  0  1  0  0  0  0  0  0
  -26.1380  -37.0530   23.8000 N   0  0  0  0  0  0  0  0  0  0  0  0
  -25.6970  -37.9480   23.9950 H   0  0  0  0  0  0  0  0  0  0  0  0
  -26.3290  -31.3290   24.8780 C   0  0  1  0  0  0  0  0  0  0  0  0
  -25.2590  -31.0010   25.9450 C   0  0  0  0  0  1  0  0  0  0  0  0
  -26.9550  -29.9930   24.4130 C   0  0  0  0  0  1  0  0  0  0  0  0
  -27.4590  -32.1300   25.5630 C   0  0  0  0  0  1  0  0  0  0  0  0
  1  6  1  0
  2  5  1  0
  2  7  1  0
  3  2  2  0
  4  1  2  0
  4  3  1  0
  5 11  1  0
  6 22  1  0
  6  5  2  0
  8  3  1  0
  9  7  1  0
 10  4  1  0
 12  8  1  0
 12 52  1  0
 12  9  1  0
 12 13  1  6
 14 22  1  0
 15 20  1  0
 16 17  1  0
 16 15  1  0
 18 17  1  0
 18 27  1  0
 18 19  1  0
 20 14  1  0
 20 19  1  0
 21 14  2  0
 22 23  1  0
 24 25  2  0
 25 44  1  0
 26 25  1  0
 26 29  1  0
 27 28  1  0
 27 24  1  0
 28 26  2  0
 29 30  1  0
 30 31  2  0
 32 35  1  0
 32 31  1  0
 33 32  2  0
 34 33  1  0
 34 29  2  0
 35 36  1  0
 36 37  1  0
 37 38  2  0
 39 38  1  0
 39 43  1  0
 40 39  2  0
 41 36  2  0
 41 40  1  0
 42 41  1  0
 44 45  1  0
 45 48  1  0
 45 47  1  0
 46 44  2  0
 49 24  1  0
 49 50  1  0
 51 49  1  0
 53 54  1  0
 53 52  2  0
 54 56  1  0
 55 66  2  0
 56 61  1  0
 57 65  1  0
 57 67  1  0
 58 64  1  0
 58 60  1  0
 59 65  1  0
 60 59  1  0
 61 60  2  0
 62 63  1  0
 62 56  2  0
 63 58  2  0
 64 57  1  0
 65 55  1  0
 67 69  2  0
 68 67  1  0
 70 68  1  0
 71 80  2  0
 71 76  1  0
 72 68  1  0
 72 76  1  0
 73 72  1  0
 74 75  1  0
 74 73  1  0
 75 71  1  0
 76 77  2  0
 77 78  1  0
 79 78  2  0
 80 79  1  0
 81 55  1  0
 81 82  1  0
 81 91  1  0
 82 85  1  0
 83 87  1  0
 83 82  1  0
 84 83  2  0
 87 86  1  0
 89 87  1  0
 89 90  1  0
 89 88  1  0
 91 94  1  1
 91 92  1  0
 93 91  1  0
M  ISO  4  14 100  22 100  53 101  54 101
M  END
>  <TORSDO>  (60) 
F 18

>  <SCORE>  (60) 
-11.595

>  <name>  (60) 
59

>  <ligand_id>  (60) 
59

>  <original_smiles>  (60) 
[H]c1c([H])c([H])c2c(c1[H])C([H])([H])C([H])([H])C([H])([H])C2([H])N([H])C(=O)C1([H])N(C(=O)C([H])(N([H])C(=O)C([H])(N([H])C([H])([H])[H])C([H])([H])[H])C(C([H])([H])[H])(C([H])([H])[H])C([H])([H])[H])C([H])([H])c2c([H])c(OC([H])([H])C([H])([H])[N+]3([H])C([H])([H])c4c(C([H])([H])[H])c([H])c(N([H])C(=O)N5C([H])([H])C([H])([H])C([H])([H])C([H])(n6nc(-c7c([H])c([H])c(Oc8c([H])c([H])c(F)c([H])c8F)c([H])c7[H])c(C(=O)N([H])[H])c6N([H])[H])C5([H])[H])c(C([H])([H])[H])c4C([H])([H])C3([H])[H])c([H])c([H])c2C1([H])[H]

>  <smiles>  (60) 
[H]c1c([H])c([H])c2c(c1[H])C([H])([H])C([H])([H])C([H])([H])C2([H])N([H])C(=O)C1([H])N(C(=O)C([H])(N([H])C(=O)C([H])(N([H])C([H])([H])[H])C([H])([H])[H])C(C([H])([H])[H])(C([H])([H])[H])C([H])([H])[H])C([H])([H])c2c([H])c(OC([H])([H])C([H])([H])[N+]3([H])C([H])([H])c4c(C([H])([H])[H])c([H])c(N([H])C(=O)N5C([H])([H])C([H])([H])C([H])([H])C([H])(n6nc(-c7c([H])c([H])c(Oc8c([H])c([H])c(F)c([H])c8F)c([H])c7[H])c(C(=O)N([H])[H])c6N([H])[H])C5([H])[H])c(C([H])([H])[H])c4C([H])([H])C3([H])[H])c([H])c([H])c2C1([H])[H]

$$$$
60:0:0
     RDKit          3D

 97105  0  0  1  0  0  0  0  0999 V2000
  -26.4490  -23.0790   20.6770 C   0  0  0  0  0  2  0  0  0  0  0  0
  -28.8610  -23.1710   21.5290 C   0  0  0  0  0  2  0  0  0  0  0  0
  -26.6400  -24.6030   20.8210 C   0  0  0  0  0  2  0  0  0  0  0  0
  -29.0730  -24.1790   20.3870 C   0  0  0  0  0  2  0  0  0  0  0  0
  -27.6260  -22.2730   21.2730 C   0  0  0  0  0  3  0  0  0  0  0  0
  -27.8960  -25.0780   20.1710 N   0  0  1  0  0  4  0  0  0  0  0  0
  -28.1290  -25.9290   20.6610 H   0  0  0  0  0  0  0  0  0  0  0  0
  -27.9120  -21.1460   20.3800 N   0  0  0  0  0  0  0  0  0  0  0  0
  -27.0140  -20.7210   20.1530 H   0  0  0  0  0  0  0  0  0  0  0  0
  -28.7280  -20.1260   21.0370 C   0  0  0  0  0  2  0  0  0  0  0  0
  -28.5250  -18.7490   20.3920 C   0  0  0  0  0  2  0  0  0  0  0  0
  -29.6960  -18.2970   19.6090 N   0  0  0  0  0  4  0  0  0  0  0  0
  -29.5070  -18.4630   18.6320 H   0  0  0  0  0  0  0  0  0  0  0  0
  -30.4900  -18.8580   19.8640 H   0  0  0  0  0  0  0  0  0  0  0  0
  -29.9870  -16.8690   19.8600 C   0  0  0  0  0  2  0  0  0  0  0  0
  -31.4680  -16.4470   19.7190 C   0  0  0  0  0  2  0  0  0  0  0  0
  -32.1700  -14.0550   20.0820 C   0  0  0  0  0  0  0  0  0  0  0  0
  -31.9870  -11.5990   20.3130 C   0  0  0  0  0  2  0  0  0  0  0  0
  -31.1130  -10.9920   19.1960 C   0  0  0  0  0  2  0  0  0  0  0  0
  -29.6140  -11.0680   19.5430 C   0  0  0  0  0  2  0  0  0  0  0  0
  -29.1860  -12.4800   20.0130 C   0  0  0  0  0  3  0  0  0  0  0  0
  -30.1480  -12.9740   21.1190 C   0  0  0  0  0  2  0  0  0  0  0  0
  -31.5280  -12.9690   20.5830 N   0  0  0  0  0  0  0  0  0  0  0  0
  -33.1660  -14.0060   19.3530 O   0  0  0  0  0  0  0  0  0  0  0  0
  -31.6110  -15.2030   20.4710 N   0  0  0  0  0  0  0  0  0  0  0  0
  -30.9430  -15.0780   21.2170 H   0  0  0  0  0  0  0  0  0  0  0  0
  -26.9500  -13.5710   20.7010 C   0  0  0  0  0  0  0  0  0  0  0  0
  -25.7370  -13.0300   21.0340 C   0  0  0  0  0  0  0  0  0  0  0  0
  -25.9040  -11.6140   20.9640 C   0  0  0  0  0  0  0  0  0  0  0  0
  -27.7920  -12.4950   20.4580 N   0  0  0  0  0  0  0  0  0  0  0  0
  -27.1610  -11.3120   20.6680 N   0  0  0  0  0  0  0  0  0  0  0  0
  -24.9280  -10.5250   21.1070 C   0  0  0  0  0  0  0  0  0  0  0  0
  -25.1240   -9.4760   22.0300 C   0  0  0  0  0  3  0  0  0  0  0  0
  -24.1640   -8.4500   22.1600 C   0  0  0  0  0  3  0  0  0  0  0  0
  -22.9940   -8.4670   21.3660 C   0  0  0  0  0  0  0  0  0  0  0  0
  -22.8150   -9.5020   20.4310 C   0  0  0  0  0  3  0  0  0  0  0  0
  -23.7740  -10.5200   20.2980 C   0  0  0  0  0  3  0  0  0  0  0  0
  -22.0200   -7.5010   21.4070 O   0  0  0  0  0  0  0  0  0  0  0  0
  -21.7820   -6.7680   22.5410 C   0  0  0  0  0  0  0  0  0  0  0  0
  -21.4290   -7.3770   23.7650 C   0  0  0  0  0  3  0  0  0  0  0  0
  -21.1260   -6.5790   24.8870 C   0  0  0  0  0  3  0  0  0  0  0  0
  -21.1630   -5.1750   24.7850 C   0  0  0  0  0  0  0  0  0  0  0  0
  -21.5100   -4.5680   23.5650 C   0  0  0  0  0  3  0  0  0  0  0  0
  -21.8160   -5.3620   22.4460 C   0  0  0  0  0  0  0  0  0  0  0  0
  -22.1280   -4.7700   21.2680 F   0  0  0  0  0  0  0  0  0  0  0  0
  -20.8660   -4.4070   25.8590 F   0  0  0  0  0  0  0  0  0  0  0  0
  -24.4640  -13.7800   21.3070 C   0  0  0  0  0  0  0  0  0  0  0  0
  -23.6030  -13.2330   22.1570 N   0  0  0  0  0  0  0  0  0  0  0  0
  -24.2500  -14.8810   20.8020 O   0  0  0  0  0  0  0  0  0  0  0  0
  -23.7880  -12.3380   22.5830 H   0  0  0  0  0  0  0  0  0  0  0  0
  -22.7420  -13.7120   22.3800 H   0  0  0  0  0  0  0  0  0  0  0  0
  -27.3950  -14.8830   20.5630 N   0  0  0  0  0  0  0  0  0  0  0  0
  -26.7260  -15.6440   20.6170 H   0  0  0  0  0  0  0  0  0  0  0  0
  -28.2310  -15.1280   20.0490 H   0  0  0  0  0  0  0  0  0  0  0  0
  -27.7130  -25.4830   18.7470 C   0  0  0  0  0  2  0  0  0  0  0  0
  -28.0750  -26.9600   18.4890 C   0  0  0  0  0  2  0  0  0  0  0  0
  -27.1070  -27.5400   17.6210 O   0  0  0  0  0  0  0  0  0  0  0  0
  -25.0130  -31.3960   23.2330 C   0  0  0  0  0  0  0  0  0  0  0  0
  -26.1170  -28.2470   18.2470 C   0  0  0  0  0  0  0  0  0  0  0  0
  -23.2330  -30.7370   21.6400 C   0  0  0  0  0  3  0  0  0  0  0  0
  -24.0410  -29.7300   19.4380 C   0  0  0  0  0  0  0  0  0  0  0  0
  -25.6470  -31.0190   20.8590 C   0  0  0  0  0  2  0  0  0  0  0  0
  -25.3700  -29.9530   19.8210 C   0  0  0  0  0  0  0  0  0  0  0  0
  -26.4130  -29.2060   19.2370 C   0  0  0  0  0  3  0  0  0  0  0  0
  -24.7810  -28.0460   17.8480 C   0  0  0  0  0  3  0  0  0  0  0  0
  -23.7390  -28.7710   18.4550 C   0  0  0  0  0  3  0  0  0  0  0  0
  -22.9840  -30.5720   20.1160 C   0  0  0  0  0  2  0  0  0  0  0  0
  -24.6660  -31.0430   21.9640 N   0  0  0  0  0  0  0  0  0  0  0  0
  -24.1590  -31.5110   24.1220 O   0  0  0  0  0  0  0  0  0  0  0  0
  -22.7050  -29.4780   22.3590 C   0  0  0  0  0  0  0  0  0  0  0  0
  -21.3790  -29.2750   22.3060 N   0  0  0  0  0  0  0  0  0  0  0  0
  -23.4790  -28.6950   22.9180 O   0  0  0  0  0  0  0  0  0  0  0  0
  -20.8150  -29.9630   21.8250 H   0  0  0  0  0  0  0  0  0  0  0  0
  -18.1620  -27.6400   22.4440 C   0  0  0  0  0  0  0  0  0  0  0  0
  -20.6610  -28.1380   22.8780 C   0  0  0  0  0  3  0  0  0  0  0  0
  -20.9520  -26.8440   22.0840 C   0  0  0  0  0  2  0  0  0  0  0  0
  -19.9280  -26.5760   20.9760 C   0  0  0  0  0  2  0  0  0  0  0  0
  -18.5200  -26.4510   21.5670 C   0  0  0  0  0  2  0  0  0  0  0  0
  -19.1680  -28.4440   23.0440 C   0  0  0  0  0  0  0  0  0  0  0  0
  -18.7840  -29.5620   23.8140 C   0  0  0  0  0  3  0  0  0  0  0  0
  -17.4260  -29.8800   23.9930 C   0  0  0  0  0  3  0  0  0  0  0  0
  -16.4330  -29.0710   23.4140 C   0  0  0  0  0  3  0  0  0  0  0  0
  -16.8010  -27.9530   22.6450 C   0  0  0  0  0  3  0  0  0  0  0  0
  -26.4960  -31.6930   23.6230 C   0  0  0  0  0  3  0  0  0  0  0  0
  -26.5050  -32.9310   24.4130 N   0  0  0  0  0  0  0  0  0  0  0  0
  -26.8840  -34.1280   23.9460 C   0  0  0  0  0  0  0  0  0  0  0  0
  -27.3390  -34.2910   22.8100 O   0  0  0  0  0  0  0  0  0  0  0  0
  -26.0960  -32.8800   25.3340 H   0  0  0  0  0  0  0  0  0  0  0  0
  -25.4860  -36.1460   24.4950 C   0  0  0  0  0  1  0  0  0  0  0  0
  -26.7330  -35.3380   24.8880 C   0  0  0  0  0  3  0  0  0  0  0  0
  -29.0930  -35.6090   25.5110 C   0  0  0  0  0  1  0  0  0  0  0  0
  -27.9160  -36.2240   24.9020 N   0  0  0  0  0  0  0  0  0  0  0  0
  -27.7160  -37.0850   25.4030 H   0  0  0  0  0  0  0  0  0  0  0  0
  -27.1780  -30.5150   24.4220 C   0  0  1  0  0  0  0  0  0  0  0  0
  -26.3560  -30.0350   25.6400 C   0  0  0  0  0  1  0  0  0  0  0  0
  -27.4180  -29.2970   23.4980 C   0  0  0  0  0  1  0  0  0  0  0  0
  -28.5660  -30.9650   24.9350 C   0  0  0  0  0  1  0  0  0  0  0  0
  1  3  1  0
  1  5  1  0
  4  2  1  0
  5  8  1  0
  5  2  1  0
  6  4  1  0
  6  7  1  1
  6  3  1  0
  8 10  1  0
  9  8  1  0
 11 10  1  0
 12 15  1  0
 12 14  1  0
 12 11  1  0
 13 12  1  0
 16 15  1  0
 16 25  1  0
 17 25  1  0
 17 23  1  0
 18 23  1  0
 19 20  1  0
 19 18  1  0
 21 20  1  0
 21 30  1  0
 21 22  1  0
 23 22  1  0
 24 17  2  0
 25 26  1  0
 27 28  2  0
 28 47  1  0
 29 28  1  0
 29 32  1  0
 30 31  1  0
 30 27  1  0
 31 29  2  0
 32 33  1  0
 33 34  2  0
 35 38  1  0
 35 34  1  0
 36 35  2  0
 37 36  1  0
 37 32  2  0
 38 39  1  0
 39 40  1  0
 40 41  2  0
 42 41  1  0
 42 46  1  0
 43 42  2  0
 44 39  2  0
 44 43  1  0
 45 44  1  0
 47 48  1  0
 48 51  1  0
 48 50  1  0
 49 47  2  0
 52 53  1  0
 52 27  1  0
 54 52  1  0
 55  6  1  0
 56 55  1  0
 57 59  1  0
 57 56  1  0
 58 69  2  0
 59 64  1  0
 60 68  1  0
 60 70  1  0
 61 63  1  0
 61 67  1  0
 62 68  1  0
 63 62  1  0
 64 63  2  0
 65 59  2  0
 65 66  1  0
 66 61  2  0
 67 60  1  0
 68 58  1  0
 70 72  2  0
 71 70  1  0
 73 71  1  0
 74 83  2  0
 74 79  1  0
 75 71  1  0
 75 79  1  0
 76 75  1  0
 77 78  1  0
 77 76  1  0
 78 74  1  0
 79 80  2  0
 80 81  1  0
 82 81  2  0
 83 82  1  0
 84 58  1  0
 84 85  1  0
 84 94  1  0
 85 88  1  0
 86 85  1  0
 86 90  1  0
 87 86  2  0
 90 89  1  0
 90 92  1  0
 92 93  1  0
 92 91  1  0
 94 97  1  1
 94 95  1  0
 96 94  1  0
M  ISO  4  17 100  25 100  56 101  57 101
M  END
>  <TORSDO>  (61) 
F 24

>  <SCORE>  (61) 
-9.426

>  <name>  (61) 
60

>  <ligand_id>  (61) 
60

>  <original_smiles>  (61) 
[H]c1c([H])c([H])c2c(c1[H])C([H])([H])C([H])([H])C([H])([H])C2([H])N([H])C(=O)C1([H])N(C(=O)C([H])(N([H])C(=O)C([H])(N([H])C([H])([H])[H])C([H])([H])[H])C(C([H])([H])[H])(C([H])([H])[H])C([H])([H])[H])C([H])([H])c2c([H])c(OC([H])([H])C([H])([H])[N+]3([H])C([H])([H])C([H])([H])C([H])(N([H])C([H])([H])C([H])([H])[N+]([H])([H])C([H])([H])C([H])([H])N([H])C(=O)N4C([H])([H])C([H])([H])C([H])([H])C([H])(n5nc(-c6c([H])c([H])c(Oc7c([H])c([H])c(F)c([H])c7F)c([H])c6[H])c(C(=O)N([H])[H])c5N([H])[H])C4([H])[H])C([H])([H])C3([H])[H])c([H])c([H])c2C1([H])[H]

>  <smiles>  (61) 
[H]c1c([H])c([H])c2c(c1[H])C([H])([H])C([H])([H])C([H])([H])C2([H])N([H])C(=O)C1([H])N(C(=O)C([H])(N([H])C(=O)C([H])(N([H])C([H])([H])[H])C([H])([H])[H])C(C([H])([H])[H])(C([H])([H])[H])C([H])([H])[H])C([H])([H])c2c([H])c(OC([H])([H])C([H])([H])[N+]3([H])C([H])([H])C([H])([H])C([H])(N([H])C([H])([H])C([H])([H])[N+]([H])([H])C([H])([H])C([H])([H])N([H])C(=O)N4C([H])([H])C([H])([H])C([H])([H])C([H])(n5nc(-c6c([H])c([H])c(Oc7c([H])c([H])c(F)c([H])c7F)c([H])c6[H])c(C(=O)N([H])[H])c5N([H])[H])C4([H])[H])C([H])([H])C3([H])[H])c([H])c([H])c2C1([H])[H]

$$$$
61:0:0
     RDKit          3D

101110  0  0  1  0  0  0  0  0999 V2000
  -27.9700  -19.7280   19.4700 C   0  0  0  0  0  2  0  0  0  0  0  0
  -29.3460  -19.7470   20.1930 C   0  0  0  0  0  3  0  0  0  0  0  0
  -29.0000  -22.6610   20.3750 C   0  0  0  0  0  3  0  0  0  0  0  0
  -28.2980  -22.2370   19.0290 C   0  0  0  0  0  3  0  0  0  0  0  0
  -29.3110  -21.1750   20.9860 N   0  0  0  0  0  0  0  0  0  0  0  0
  -27.3570  -21.0860   19.2530 N   0  0  0  0  0  4  0  0  0  0  0  0
  -30.1190  -21.2420   21.6010 H   0  0  0  0  0  0  0  0  0  0  0  0
  -26.8180  -21.2940   20.0770 H   0  0  0  0  0  0  0  0  0  0  0  0
  -26.7400  -21.0250   18.4550 H   0  0  0  0  0  0  0  0  0  0  0  0
  -29.9430  -18.1100   20.6970 C   0  0  0  0  0  2  0  0  0  0  0  0
  -30.4260  -15.2420   20.0340 C   0  0  0  0  0  0  0  0  0  0  0  0
  -30.2820  -12.8740   18.9710 C   0  0  0  0  0  2  0  0  0  0  0  0
  -29.2650  -12.7620   17.8070 C   0  0  0  0  0  2  0  0  0  0  0  0
  -27.8510  -12.4820   18.3430 C   0  0  0  0  0  2  0  0  0  0  0  0
  -27.5050  -13.3760   19.5590 C   0  0  0  0  0  3  0  0  0  0  0  0
  -28.6380  -13.4300   20.6050 C   0  0  0  0  0  2  0  0  0  0  0  0
  -29.8200  -13.9620   19.9050 N   0  0  0  0  0  0  0  0  0  0  0  0
  -31.6420  -15.2250   19.7890 O   0  0  0  0  0  0  0  0  0  0  0  0
  -29.6890  -16.5170   20.2360 N   0  0  0  0  0  0  0  0  0  0  0  0
  -28.7030  -16.3050   20.2640 H   0  0  0  0  0  0  0  0  0  0  0  0
  -25.1970  -13.9250   20.4890 C   0  0  0  0  0  0  0  0  0  0  0  0
  -24.1520  -13.1440   20.8940 C   0  0  0  0  0  0  0  0  0  0  0  0
  -24.6020  -11.7920   20.7790 C   0  0  0  0  0  0  0  0  0  0  0  0
  -26.2120  -13.0520   20.1450 N   0  0  0  0  0  0  0  0  0  0  0  0
  -25.8700  -11.7590   20.3850 N   0  0  0  0  0  0  0  0  0  0  0  0
  -23.8740  -10.5290   20.9630 C   0  0  0  0  0  0  0  0  0  0  0  0
  -24.3310   -9.5340   21.8530 C   0  0  0  0  0  3  0  0  0  0  0  0
  -23.6010   -8.3390   22.0270 C   0  0  0  0  0  3  0  0  0  0  0  0
  -22.3980   -8.1300   21.3120 C   0  0  0  0  0  0  0  0  0  0  0  0
  -21.9600   -9.1150   20.4080 C   0  0  0  0  0  3  0  0  0  0  0  0
  -22.6910  -10.3020   20.2310 C   0  0  0  0  0  3  0  0  0  0  0  0
  -21.6350   -6.9900   21.3980 O   0  0  0  0  0  0  0  0  0  0  0  0
  -21.6030   -6.2310   22.5400 C   0  0  0  0  0  0  0  0  0  0  0  0
  -21.1980   -6.7690   23.7820 C   0  0  0  0  0  3  0  0  0  0  0  0
  -21.1120   -5.9370   24.9150 C   0  0  0  0  0  3  0  0  0  0  0  0
  -21.4240   -4.5690   24.8100 C   0  0  0  0  0  0  0  0  0  0  0  0
  -21.8230   -4.0310   23.5740 C   0  0  0  0  0  3  0  0  0  0  0  0
  -21.9110   -4.8610   22.4420 C   0  0  0  0  0  0  0  0  0  0  0  0
  -22.2760   -4.3320   21.2490 F   0  0  0  0  0  0  0  0  0  0  0  0
  -21.3370   -3.7670   25.8970 F   0  0  0  0  0  0  0  0  0  0  0  0
  -22.7820  -13.6210   21.2710 C   0  0  0  0  0  0  0  0  0  0  0  0
  -22.1040  -12.8980   22.1550 N   0  0  0  0  0  0  0  0  0  0  0  0
  -22.3250  -14.6710   20.8190 O   0  0  0  0  0  0  0  0  0  0  0  0
  -22.4890  -12.0470   22.5360 H   0  0  0  0  0  0  0  0  0  0  0  0
  -21.1860  -13.1970   22.4550 H   0  0  0  0  0  0  0  0  0  0  0  0
  -25.3580  -15.3000   20.3540 N   0  0  0  0  0  0  0  0  0  0  0  0
  -24.5930  -15.9450   20.5150 H   0  0  0  0  0  0  0  0  0  0  0  0
  -26.1730  -15.7470   19.9570 H   0  0  0  0  0  0  0  0  0  0  0  0
  -28.3720  -24.2000   21.1280 C   0  0  0  0  0  2  0  0  0  0  0  0
  -28.5620  -25.8340   20.9220 O   0  0  0  0  0  0  0  0  0  0  0  0
  -24.7070  -31.8980   23.3570 C   0  0  0  0  0  0  0  0  0  0  0  0
  -27.5190  -26.8980   20.8050 C   0  0  0  0  0  0  0  0  0  0  0  0
  -23.6470  -30.4010   21.7160 C   0  0  0  0  0  3  0  0  0  0  0  0
  -25.2050  -28.7410   20.4940 C   0  0  0  0  0  0  0  0  0  0  0  0
  -26.2150  -30.6400   21.7390 C   0  0  0  0  0  2  0  0  0  0  0  0
  -26.3450  -29.1960   21.1680 C   0  0  0  0  0  0  0  0  0  0  0  0
  -27.4990  -28.2990   21.2900 C   0  0  0  0  0  3  0  0  0  0  0  0
  -26.3470  -26.5900   20.0780 C   0  0  0  0  0  3  0  0  0  0  0  0
  -25.2330  -27.4560   19.9270 C   0  0  0  0  0  3  0  0  0  0  0  0
  -23.9810  -29.6510   20.3980 C   0  0  0  0  0  2  0  0  0  0  0  0
  -24.8740  -31.0120   22.3230 N   0  0  0  0  0  0  0  0  0  0  0  0
  -23.5810  -32.1980   23.7870 O   0  0  0  0  0  0  0  0  0  0  0  0
  -22.8950  -29.4480   22.6830 C   0  0  0  0  0  0  0  0  0  0  0  0
  -21.5780  -29.2580   22.4770 N   0  0  0  0  0  0  0  0  0  0  0  0
  -23.5070  -28.8780   23.5900 O   0  0  0  0  0  0  0  0  0  0  0  0
  -21.1340  -29.7720   21.7290 H   0  0  0  0  0  0  0  0  0  0  0  0
  -18.1830  -28.0230   22.8120 C   0  0  0  0  0  0  0  0  0  0  0  0
  -20.7150  -28.3510   23.2410 C   0  0  0  0  0  3  0  0  0  0  0  0
  -20.8770  -26.8900   22.7590 C   0  0  0  0  0  2  0  0  0  0  0  0
  -19.8560  -26.4920   21.6890 C   0  0  0  0  0  2  0  0  0  0  0  0
  -18.4300  -26.6440   22.2240 C   0  0  0  0  0  2  0  0  0  0  0  0
  -19.2570  -28.8300   23.2750 C   0  0  0  0  0  0  0  0  0  0  0  0
  -18.9740  -30.1170   23.7830 C   0  0  0  0  0  3  0  0  0  0  0  0
  -17.6510  -30.5980   23.8340 C   0  0  0  0  0  3  0  0  0  0  0  0
  -16.5920  -29.7890   23.3870 C   0  0  0  0  0  3  0  0  0  0  0  0
  -16.8590  -28.5040   22.8830 C   0  0  0  0  0  3  0  0  0  0  0  0
  -25.9240  -32.5920   24.0420 C   0  0  0  0  0  3  0  0  0  0  0  0
  -25.5650  -33.9990   24.2910 N   0  0  0  0  0  0  0  0  0  0  0  0
  -25.9120  -35.0310   23.5110 C   0  0  0  0  0  0  0  0  0  0  0  0
  -26.6310  -34.9010   22.5180 O   0  0  0  0  0  0  0  0  0  0  0  0
  -24.9330  -34.1730   25.0600 H   0  0  0  0  0  0  0  0  0  0  0  0
  -24.1550  -36.7680   23.0210 C   0  0  0  0  0  1  0  0  0  0  0  0
  -25.3760  -36.4270   23.8900 C   0  0  0  0  0  3  0  0  0  0  0  0
  -27.4550  -37.4030   24.7590 C   0  0  0  0  0  1  0  0  0  0  0  0
  -26.3850  -37.5010   23.7680 N   0  0  0  0  0  0  0  0  0  0  0  0
  -25.9510  -38.4140   23.8610 H   0  0  0  0  0  0  0  0  0  0  0  0
  -26.3540  -31.8980   25.3930 C   0  0  1  0  0  0  0  0  0  0  0  0
  -25.1830  -31.6720   26.3780 C   0  0  0  0  0  1  0  0  0  0  0  0
  -27.0130  -30.5250   25.1260 C   0  0  0  0  0  1  0  0  0  0  0  0
  -27.4150  -32.7650   26.1110 C   0  0  0  0  0  1  0  0  0  0  0  0
  -27.7120  -23.4300   18.1820 C   0  0  0  0  0  3  0  0  0  0  0  0
  -29.7820  -23.9420   14.9250 C   0  0  0  0  0  2  0  0  0  0  0  0
  -29.4400  -25.3890   15.3220 C   0  0  0  0  0  2  0  0  0  0  0  0
  -29.1050  -23.0340   15.9640 C   0  0  0  0  0  2  0  0  0  0  0  0
  -28.4180  -25.2830   16.4560 C   0  0  0  0  0  2  0  0  0  0  0  0
  -28.7590  -23.9560   17.1490 C   0  0  0  0  0  3  0  0  0  0  0  0
  -26.3240  -23.1520   17.5620 C   0  0  0  0  0  0  0  0  0  0  0  0
  -25.4450  -24.1470   17.5200 N   0  0  0  0  0  0  0  0  0  0  0  0
  -26.0160  -22.0230   17.1860 O   0  0  0  0  0  0  0  0  0  0  0  0
  -25.6920  -25.0770   17.8300 H   0  0  0  0  0  0  0  0  0  0  0  0
  -24.5170  -23.9920   17.1480 H   0  0  0  0  0  0  0  0  0  0  0  0
  1  2  1  0
  2 10  1  0
  2  5  1  0
  3  5  1  0
  3 49  1  0
  4 91  1  0
  4  6  1  0
  4  3  1  0
  5  7  1  0
  6  1  1  0
  6  8  1  0
  9  6  1  0
 11 19  1  0
 12 17  1  0
 13 14  1  0
 13 12  1  0
 15 14  1  0
 15 24  1  0
 15 16  1  0
 17 11  1  0
 17 16  1  0
 18 11  2  0
 19 20  1  0
 19 10  1  0
 21 22  2  0
 22 41  1  0
 23 22  1  0
 23 26  1  0
 24 25  1  0
 24 21  1  0
 25 23  2  0
 26 27  1  0
 27 28  2  0
 29 32  1  0
 29 28  1  0
 30 29  2  0
 31 30  1  0
 31 26  2  0
 32 33  1  0
 33 34  1  0
 34 35  2  0
 36 35  1  0
 36 40  1  0
 37 36  2  0
 38 33  2  0
 38 37  1  0
 39 38  1  0
 41 42  1  0
 42 45  1  0
 42 44  1  0
 43 41  2  0
 46 21  1  0
 46 47  1  0
 48 46  1  0
 50 49  1  0
 51 62  2  0
 52 50  1  0
 52 57  1  0
 53 61  1  0
 53 63  1  0
 54 56  1  0
 55 61  1  0
 56 57  2  0
 56 55  1  0
 58 52  2  0
 59 58  1  0
 59 54  2  0
 60 54  1  0
 60 53  1  0
 61 51  1  0
 63 65  2  0
 64 63  1  0
 66 64  1  0
 67 76  2  0
 67 72  1  0
 68 64  1  0
 68 72  1  0
 69 68  1  0
 70 71  1  0
 70 69  1  0
 71 67  1  0
 72 73  2  0
 73 74  1  0
 75 74  2  0
 76 75  1  0
 77 51  1  0
 77 78  1  0
 77 87  1  0
 78 81  1  0
 79 83  1  0
 79 78  1  0
 80 79  2  0
 83 82  1  0
 85 86  1  0
 85 83  1  0
 85 84  1  0
 87 90  1  1
 87 88  1  0
 89 87  1  0
 91 97  1  0
 92 93  1  0
 92 94  1  0
 93 95  1  0
 94 96  1  0
 95 96  1  0
 96 91  1  0
 98 97  1  0
 98100  1  0
 99 97  2  0
101 98  1  0
M  ISO  4  11 100  19 100  49 101  50 101
M  END
>  <TORSDO>  (62) 
F 21

>  <SCORE>  (62) 
-14.619

>  <name>  (62) 
61

>  <ligand_id>  (62) 
61

>  <original_smiles>  (62) 
[H]c1c([H])c([H])c2c(c1[H])C([H])([H])C([H])([H])C([H])([H])C2([H])N([H])C(=O)C1([H])N(C(=O)C([H])(N([H])C(=O)C([H])(N([H])C([H])([H])[H])C([H])([H])[H])C(C([H])([H])[H])(C([H])([H])[H])C([H])([H])[H])C([H])([H])c2c([H])c(OC([H])([H])C3([H])N([H])C([H])(C([H])([H])N([H])C(=O)N4C([H])([H])C([H])([H])C([H])([H])C([H])(n5nc(-c6c([H])c([H])c(Oc7c([H])c([H])c(F)c([H])c7F)c([H])c6[H])c(C(=O)N([H])[H])c5N([H])[H])C4([H])[H])C([H])([H])[N+]([H])([H])C3([H])C([H])(C(=O)N([H])[H])C3([H])C([H])([H])C([H])([H])C([H])([H])C3([H])[H])c([H])c([H])c2C1([H])[H]

>  <smiles>  (62) 
[H]c1c([H])c([H])c2c(c1[H])C([H])([H])C([H])([H])C([H])([H])C2([H])N([H])C(=O)C1([H])N(C(=O)C([H])(N([H])C(=O)C([H])(N([H])C([H])([H])[H])C([H])([H])[H])C(C([H])([H])[H])(C([H])([H])[H])C([H])([H])[H])C([H])([H])c2c([H])c(OC([H])([H])C3([H])N([H])C([H])(C([H])([H])N([H])C(=O)N4C([H])([H])C([H])([H])C([H])([H])C([H])(n5nc(-c6c([H])c([H])c(Oc7c([H])c([H])c(F)c([H])c7F)c([H])c6[H])c(C(=O)N([H])[H])c5N([H])[H])C4([H])[H])C([H])([H])[N+]([H])([H])C3([H])C([H])(C(=O)N([H])[H])C3([H])C([H])([H])C([H])([H])C([H])([H])C3([H])[H])c([H])c([H])c2C1([H])[H]

$$$$
62:0:0
     RDKit          3D

100108  0  0  1  0  0  0  0  0999 V2000
  -31.3260  -22.0670   19.9720 C   0  0  0  0  0  3  0  0  0  0  0  0
  -30.2810  -22.9770   20.1860 C   0  0  0  0  0  3  0  0  0  0  0  0
  -29.4610  -22.5430   17.9440 C   0  0  0  0  0  3  0  0  0  0  0  0
  -31.4260  -21.3520   18.7630 C   0  0  0  0  0  0  0  0  0  0  0  0
  -30.5000  -21.6130   17.7150 C   0  0  0  0  0  0  0  0  0  0  0  0
  -29.3210  -23.2090   19.1770 C   0  0  0  0  0  0  0  0  0  0  0  0
  -32.4930  -20.2670   18.6860 C   0  0  0  0  0  2  0  0  0  0  0  0
  -31.8950  -18.8630   18.8920 C   0  0  0  0  0  2  0  0  0  0  0  0
  -31.1040  -18.7530   20.1420 N   0  0  0  0  0  4  0  0  0  0  0  0
  -30.4680  -19.5340   20.1900 H   0  0  0  0  0  0  0  0  0  0  0  0
  -31.7220  -18.8130   20.9360 H   0  0  0  0  0  0  0  0  0  0  0  0
  -30.3130  -17.5110   20.2390 C   0  0  0  0  0  2  0  0  0  0  0  0
  -30.7030  -16.6630   21.4670 C   0  0  0  0  0  2  0  0  0  0  0  0
  -30.7050  -14.3790   20.5650 C   0  0  0  0  0  0  0  0  0  0  0  0
  -30.3260  -12.2890   19.3310 C   0  0  0  0  0  2  0  0  0  0  0  0
  -29.4000  -12.5550   18.1300 C   0  0  0  0  0  2  0  0  0  0  0  0
  -27.9220  -12.4410   18.5510 C   0  0  0  0  0  2  0  0  0  0  0  0
  -27.5960  -13.2540   19.8310 C   0  0  0  0  0  3  0  0  0  0  0  0
  -28.6390  -12.9810   20.9390 C   0  0  0  0  0  2  0  0  0  0  0  0
  -29.9800  -13.2460   20.3900 N   0  0  0  0  0  0  0  0  0  0  0  0
  -31.7660  -14.6030   19.9780 O   0  0  0  0  0  0  0  0  0  0  0  0
  -30.1600  -15.3100   21.3560 N   0  0  0  0  0  0  0  0  0  0  0  0
  -29.2840  -15.0980   21.8130 H   0  0  0  0  0  0  0  0  0  0  0  0
  -25.1920  -13.8830   20.5110 C   0  0  0  0  0  0  0  0  0  0  0  0
  -24.1170  -13.1200   20.8800 C   0  0  0  0  0  0  0  0  0  0  0  0
  -24.5700  -11.7650   20.8630 C   0  0  0  0  0  0  0  0  0  0  0  0
  -26.2350  -12.9950   20.2960 N   0  0  0  0  0  0  0  0  0  0  0  0
  -25.8630  -11.7160   20.5620 N   0  0  0  0  0  0  0  0  0  0  0  0
  -23.8390  -10.5080   21.0590 C   0  0  0  0  0  0  0  0  0  0  0  0
  -24.2760   -9.5360   21.9860 C   0  0  0  0  0  3  0  0  0  0  0  0
  -23.5440   -8.3430   22.1720 C   0  0  0  0  0  3  0  0  0  0  0  0
  -22.3620   -8.1130   21.4290 C   0  0  0  0  0  0  0  0  0  0  0  0
  -21.9440   -9.0730   20.4890 C   0  0  0  0  0  3  0  0  0  0  0  0
  -22.6760  -10.2570   20.3030 C   0  0  0  0  0  3  0  0  0  0  0  0
  -21.6040   -6.9710   21.5200 O   0  0  0  0  0  0  0  0  0  0  0  0
  -21.5800   -6.2130   22.6630 C   0  0  0  0  0  0  0  0  0  0  0  0
  -21.2030   -6.7590   23.9100 C   0  0  0  0  0  3  0  0  0  0  0  0
  -21.1220   -5.9300   25.0450 C   0  0  0  0  0  3  0  0  0  0  0  0
  -21.4100   -4.5570   24.9380 C   0  0  0  0  0  0  0  0  0  0  0  0
  -21.7810   -4.0100   23.6960 C   0  0  0  0  0  3  0  0  0  0  0  0
  -21.8620   -4.8360   22.5610 C   0  0  0  0  0  0  0  0  0  0  0  0
  -22.1990   -4.3020   21.3640 F   0  0  0  0  0  0  0  0  0  0  0  0
  -21.3250   -3.7580   26.0270 F   0  0  0  0  0  0  0  0  0  0  0  0
  -22.7190  -13.6050   21.1390 C   0  0  0  0  0  0  0  0  0  0  0  0
  -21.9830  -12.9230   22.0070 N   0  0  0  0  0  0  0  0  0  0  0  0
  -22.2890  -14.6260   20.6040 O   0  0  0  0  0  0  0  0  0  0  0  0
  -22.3440  -12.0980   22.4620 H   0  0  0  0  0  0  0  0  0  0  0  0
  -21.0440  -13.2300   22.2210 H   0  0  0  0  0  0  0  0  0  0  0  0
  -25.3660  -15.2520   20.3250 N   0  0  0  0  0  0  0  0  0  0  0  0
  -24.6060  -15.9130   20.4380 H   0  0  0  0  0  0  0  0  0  0  0  0
  -26.2230  -15.6840   20.0050 H   0  0  0  0  0  0  0  0  0  0  0  0
  -30.5290  -20.8670   16.3790 C   0  0  0  0  0  2  0  0  0  0  0  0
  -30.4900  -21.7430   15.1070 C   0  0  0  0  0  2  0  0  0  0  0  0
  -31.8840  -22.7100   13.2280 C   0  0  0  0  0  1  0  0  0  0  0  0
  -32.0370  -23.7330   15.5350 C   0  0  0  0  0  1  0  0  0  0  0  0
  -31.8200  -22.4360   14.7410 C   0  0  0  0  0  3  0  0  0  0  0  0
  -28.2300  -24.0360   19.3270 O   0  0  0  0  0  0  0  0  0  0  0  0
  -27.8420  -24.4370   20.6430 C   0  0  0  0  0  2  0  0  0  0  0  0
  -28.5320  -25.7480   21.0750 C   0  0  0  0  0  2  0  0  0  0  0  0
  -28.4100  -26.7830   20.1020 O   0  0  0  0  0  0  0  0  0  0  0  0
  -24.5880  -31.8880   23.2420 C   0  0  0  0  0  0  0  0  0  0  0  0
  -27.2330  -27.4820   20.1500 C   0  0  0  0  0  0  0  0  0  0  0  0
  -23.3780  -30.4880   21.5960 C   0  0  0  0  0  3  0  0  0  0  0  0
  -24.8320  -28.9520   20.1770 C   0  0  0  0  0  0  0  0  0  0  0  0
  -25.9000  -30.8570   21.3970 C   0  0  0  0  0  2  0  0  0  0  0  0
  -25.9860  -29.4860   20.7650 C   0  0  0  0  0  0  0  0  0  0  0  0
  -27.1900  -28.7540   20.7570 C   0  0  0  0  0  3  0  0  0  0  0  0
  -26.0710  -26.9580   19.5490 C   0  0  0  0  0  3  0  0  0  0  0  0
  -24.8660  -27.6820   19.5720 C   0  0  0  0  0  3  0  0  0  0  0  0
  -23.5870  -29.8080   20.2170 C   0  0  0  0  0  2  0  0  0  0  0  0
  -24.6390  -31.0930   22.1370 N   0  0  0  0  0  0  0  0  0  0  0  0
  -23.5080  -32.1580   23.7860 O   0  0  0  0  0  0  0  0  0  0  0  0
  -22.7320  -29.4640   22.5560 C   0  0  0  0  0  0  0  0  0  0  0  0
  -21.4080  -29.2790   22.4290 N   0  0  0  0  0  0  0  0  0  0  0  0
  -23.4170  -28.8380   23.3690 O   0  0  0  0  0  0  0  0  0  0  0  0
  -20.9170  -29.8330   21.7410 H   0  0  0  0  0  0  0  0  0  0  0  0
  -18.0360  -28.0840   22.9170 C   0  0  0  0  0  0  0  0  0  0  0  0
  -20.5930  -28.3420   23.1990 C   0  0  0  0  0  3  0  0  0  0  0  0
  -20.6990  -26.9110   22.6240 C   0  0  0  0  0  2  0  0  0  0  0  0
  -19.6000  -26.5870   21.6080 C   0  0  0  0  0  2  0  0  0  0  0  0
  -18.2150  -26.7330   22.2460 C   0  0  0  0  0  2  0  0  0  0  0  0
  -19.1530  -28.8450   23.3510 C   0  0  0  0  0  0  0  0  0  0  0  0
  -18.9340  -30.1110   23.9380 C   0  0  0  0  0  3  0  0  0  0  0  0
  -17.6290  -30.6140   24.0970 C   0  0  0  0  0  3  0  0  0  0  0  0
  -16.5260  -29.8480   23.6820 C   0  0  0  0  0  3  0  0  0  0  0  0
  -16.7300  -28.5850   23.0970 C   0  0  0  0  0  3  0  0  0  0  0  0
  -25.8780  -32.5170   23.8580 C   0  0  0  0  0  3  0  0  0  0  0  0
  -25.5730  -33.9150   24.1880 N   0  0  0  0  0  0  0  0  0  0  0  0
  -25.9100  -34.9650   23.4280 C   0  0  0  0  0  0  0  0  0  0  0  0
  -26.5820  -34.8590   22.3980 O   0  0  0  0  0  0  0  0  0  0  0  0
  -24.9820  -34.0720   24.9910 H   0  0  0  0  0  0  0  0  0  0  0  0
  -24.1850  -36.7580   23.0610 C   0  0  0  0  0  1  0  0  0  0  0  0
  -25.4210  -36.3540   23.8820 C   0  0  0  0  0  3  0  0  0  0  0  0
  -27.5520  -37.2320   24.7240 C   0  0  0  0  0  1  0  0  0  0  0  0
  -26.4550  -37.4050   23.7770 N   0  0  0  0  0  0  0  0  0  0  0  0
  -26.0490  -38.3240   23.9270 H   0  0  0  0  0  0  0  0  0  0  0  0
  -26.4030  -31.7420   25.1300 C   0  0  1  0  0  0  0  0  0  0  0  0
  -25.3170  -31.5030   26.2040 C   0  0  0  0  0  1  0  0  0  0  0  0
  -26.9830  -30.3640   24.7300 C   0  0  0  0  0  1  0  0  0  0  0  0
  -27.5550  -32.5360   25.7890 C   0  0  0  0  0  1  0  0  0  0  0  0
  1  2  1  0
  3  6  1  0
  4  1  2  0
  5  3  2  0
  5  4  1  0
  6 57  1  0
  6  2  2  0
  7  4  1  0
  7  8  1  0
  8  9  1  0
  9 10  1  0
  9 12  1  0
  9 11  1  0
 12 13  1  0
 14 22  1  0
 15 20  1  0
 16 17  1  0
 16 15  1  0
 18 17  1  0
 18 27  1  0
 18 19  1  0
 20 14  1  0
 20 19  1  0
 21 14  2  0
 22 13  1  0
 22 23  1  0
 24 25  2  0
 25 44  1  0
 26 25  1  0
 26 29  1  0
 27 24  1  0
 27 28  1  0
 28 26  2  0
 29 30  1  0
 30 31  2  0
 32 35  1  0
 32 31  1  0
 33 32  2  0
 34 33  1  0
 34 29  2  0
 35 36  1  0
 36 37  1  0
 37 38  2  0
 39 38  1  0
 39 43  1  0
 40 39  2  0
 41 36  2  0
 41 40  1  0
 42 41  1  0
 44 45  1  0
 45 48  1  0
 45 47  1  0
 46 44  2  0
 49 50  1  0
 49 24  1  0
 51 49  1  0
 52  5  1  0
 53 52  1  0
 54 56  1  0
 56 53  1  0
 56 55  1  0
 57 58  1  0
 58 59  1  0
 60 62  1  0
 60 59  1  0
 61 72  2  0
 62 67  1  0
 63 71  1  0
 63 73  1  0
 64 70  1  0
 64 66  1  0
 65 71  1  0
 66 65  1  0
 67 66  2  0
 68 69  1  0
 68 62  2  0
 69 64  2  0
 70 63  1  0
 71 61  1  0
 73 75  2  0
 74 73  1  0
 76 74  1  0
 77 86  2  0
 77 82  1  0
 78 74  1  0
 78 82  1  0
 79 78  1  0
 80 81  1  0
 80 79  1  0
 81 77  1  0
 82 83  2  0
 83 84  1  0
 85 84  2  0
 86 85  1  0
 87 61  1  0
 87 88  1  0
 87 97  1  0
 88 91  1  0
 89 93  1  0
 89 88  1  0
 90 89  2  0
 93 92  1  0
 95 93  1  0
 95 96  1  0
 95 94  1  0
 97100  1  1
 97 98  1  0
 99 97  1  0
M  ISO  4  14 100  22 100  59 101  60 101
M  END
>  <TORSDO>  (63) 
F 27

>  <SCORE>  (63) 
-11.739

>  <name>  (63) 
62

>  <ligand_id>  (63) 
62

>  <original_smiles>  (63) 
[H]c1c([H])c([H])c2c(c1[H])C([H])([H])C([H])([H])C([H])([H])C2([H])N([H])C(=O)C1([H])N(C(=O)C([H])(N([H])C(=O)C([H])(N([H])C([H])([H])[H])C([H])([H])[H])C(C([H])([H])[H])(C([H])([H])[H])C([H])([H])[H])C([H])([H])c2c([H])c(OC([H])([H])C([H])([H])Oc3c([H])c([H])c(C([H])([H])C([H])([H])[N+]([H])([H])C([H])([H])C([H])([H])N([H])C(=O)N4C([H])([H])C([H])([H])C([H])([H])C([H])(n5nc(-c6c([H])c([H])c(Oc7c([H])c([H])c(F)c([H])c7F)c([H])c6[H])c(C(=O)N([H])[H])c5N([H])[H])C4([H])[H])c(C([H])([H])C([H])([H])C([H])(C([H])([H])[H])C([H])([H])[H])c3[H])c([H])c([H])c2C1([H])[H]

>  <smiles>  (63) 
[H]c1c([H])c([H])c2c(c1[H])C([H])([H])C([H])([H])C([H])([H])C2([H])N([H])C(=O)C1([H])N(C(=O)C([H])(N([H])C(=O)C([H])(N([H])C([H])([H])[H])C([H])([H])[H])C(C([H])([H])[H])(C([H])([H])[H])C([H])([H])[H])C([H])([H])c2c([H])c(OC([H])([H])C([H])([H])Oc3c([H])c([H])c(C([H])([H])C([H])([H])[N+]([H])([H])C([H])([H])C([H])([H])N([H])C(=O)N4C([H])([H])C([H])([H])C([H])([H])C([H])(n5nc(-c6c([H])c([H])c(Oc7c([H])c([H])c(F)c([H])c7F)c([H])c6[H])c(C(=O)N([H])[H])c5N([H])[H])C4([H])[H])c(C([H])([H])C([H])([H])C([H])(C([H])([H])[H])C([H])([H])[H])c3[H])c([H])c([H])c2C1([H])[H]

$$$$
63:0:0
     RDKit          3D

 95103  0  0  1  0  0  0  0  0999 V2000
  -28.2270  -21.8540   19.7020 N   0  0  0  0  0  0  0  0  0  0  0  0
  -27.2980  -21.4380   19.7820 H   0  0  0  0  0  0  0  0  0  0  0  0
  -28.3080  -24.2600   19.5780 C   0  0  0  0  0  0  0  0  0  0  0  0
  -28.1680  -23.0620   18.9690 N   0  0  0  0  0  0  0  0  0  0  0  0
  -28.6690  -24.3600   20.7570 O   0  0  0  0  0  0  0  0  0  0  0  0
  -27.8550  -23.0340   18.0050 H   0  0  0  0  0  0  0  0  0  0  0  0
  -28.0050  -25.5290   18.7490 C   0  0  0  0  0  2  0  0  0  0  0  0
  -27.9970  -26.7210   19.5600 O   0  0  0  0  0  0  0  0  0  0  0  0
  -24.7290  -31.8430   23.2830 C   0  0  0  0  0  0  0  0  0  0  0  0
  -26.8410  -27.4690   19.7080 C   0  0  0  0  0  0  0  0  0  0  0  0
  -23.3090  -30.6210   21.6690 C   0  0  0  0  0  3  0  0  0  0  0  0
  -24.5440  -29.0990   20.0400 C   0  0  0  0  0  0  0  0  0  0  0  0
  -25.8300  -30.8470   21.2810 C   0  0  0  0  0  2  0  0  0  0  0  0
  -25.7760  -29.5160   20.5560 C   0  0  0  0  0  0  0  0  0  0  0  0
  -26.9220  -28.7050   20.3910 C   0  0  0  0  0  3  0  0  0  0  0  0
  -25.5800  -27.0570   19.2140 C   0  0  0  0  0  3  0  0  0  0  0  0
  -24.4390  -27.8660   19.3750 C   0  0  0  0  0  3  0  0  0  0  0  0
  -23.3630  -30.0230   20.2400 C   0  0  0  0  0  2  0  0  0  0  0  0
  -24.6470  -31.1140   22.1360 N   0  0  0  0  0  0  0  0  0  0  0  0
  -23.7130  -32.1400   23.9280 O   0  0  0  0  0  0  0  0  0  0  0  0
  -22.6770  -29.5770   22.6170 C   0  0  0  0  0  0  0  0  0  0  0  0
  -21.3560  -29.3690   22.4820 N   0  0  0  0  0  0  0  0  0  0  0  0
  -23.3700  -28.9540   23.4270 O   0  0  0  0  0  0  0  0  0  0  0  0
  -20.8600  -29.9120   21.7900 H   0  0  0  0  0  0  0  0  0  0  0  0
  -18.0430  -27.9750   22.8270 C   0  0  0  0  0  0  0  0  0  0  0  0
  -20.5560  -28.4100   23.2430 C   0  0  0  0  0  3  0  0  0  0  0  0
  -20.7850  -26.9700   22.7320 C   0  0  0  0  0  2  0  0  0  0  0  0
  -19.7720  -26.5370   21.6690 C   0  0  0  0  0  2  0  0  0  0  0  0
  -18.3460  -26.6160   22.2190 C   0  0  0  0  0  2  0  0  0  0  0  0
  -19.0820  -28.8260   23.2930 C   0  0  0  0  0  0  0  0  0  0  0  0
  -18.7470  -30.0940   23.8160 C   0  0  0  0  0  3  0  0  0  0  0  0
  -17.4050  -30.5130   23.8810 C   0  0  0  0  0  3  0  0  0  0  0  0
  -16.3810  -29.6590   23.4360 C   0  0  0  0  0  3  0  0  0  0  0  0
  -16.6980  -28.3940   22.9140 C   0  0  0  0  0  3  0  0  0  0  0  0
  -26.0960  -32.3600   23.8300 C   0  0  0  0  0  3  0  0  0  0  0  0
  -25.8960  -33.7430   24.2820 N   0  0  0  0  0  0  0  0  0  0  0  0
  -26.2410  -34.8300   23.5790 C   0  0  0  0  0  0  0  0  0  0  0  0
  -26.8320  -34.7670   22.4980 O   0  0  0  0  0  0  0  0  0  0  0  0
  -25.3650  -33.8710   25.1320 H   0  0  0  0  0  0  0  0  0  0  0  0
  -24.6030  -36.7350   23.4760 C   0  0  0  0  0  1  0  0  0  0  0  0
  -25.8690  -36.2040   24.1680 C   0  0  0  0  0  3  0  0  0  0  0  0
  -28.1040  -36.9020   24.9030 C   0  0  0  0  0  1  0  0  0  0  0  0
  -26.9540  -37.2030   24.0570 N   0  0  0  0  0  0  0  0  0  0  0  0
  -26.6140  -38.1320   24.2990 H   0  0  0  0  0  0  0  0  0  0  0  0
  -26.6750  -31.4700   24.9980 C   0  0  1  0  0  0  0  0  0  0  0  0
  -25.6630  -31.1930   26.1340 C   0  0  0  0  0  1  0  0  0  0  0  0
  -27.1520  -30.1060   24.4510 C   0  0  0  0  0  1  0  0  0  0  0  0
  -27.9130  -32.1600   25.6170 C   0  0  0  0  0  1  0  0  0  0  0  0
  -29.2190  -20.8510   19.2460 C   0  0  0  0  0  2  0  0  0  0  0  0
  -30.7890  -19.2200   22.3620 C   0  0  0  0  0  2  0  0  0  0  0  0
  -29.5770  -19.8090   21.6230 C   0  0  0  0  0  2  0  0  0  0  0  0
  -31.9880  -19.4740   21.4310 C   0  0  0  0  0  2  0  0  0  0  0  0
  -30.1970  -20.4760   20.3870 C   0  0  0  0  0  3  0  0  0  0  0  0
  -31.4110  -19.6640   20.0750 N   0  0  2  0  0  4  0  0  0  0  0  0
  -32.0390  -20.2140   19.5060 H   0  0  0  0  0  0  0  0  0  0  0  0
  -31.1990  -18.3410   19.4020 C   0  0  0  0  0  2  0  0  0  0  0  0
  -32.3910  -17.3490   19.5910 C   0  0  0  0  0  2  0  0  0  0  0  0
  -32.5740  -14.8200   19.4650 C   0  0  0  0  0  0  0  0  0  0  0  0
  -32.1810  -12.4100   19.1010 C   0  0  0  0  0  2  0  0  0  0  0  0
  -31.2210  -12.2320   17.9110 C   0  0  0  0  0  2  0  0  0  0  0  0
  -29.7520  -12.3060   18.3770 C   0  0  0  0  0  2  0  0  0  0  0  0
  -29.4700  -13.5410   19.2740 C   0  0  0  0  0  3  0  0  0  0  0  0
  -30.5380  -13.6520   20.3870 C   0  0  0  0  0  2  0  0  0  0  0  0
  -31.8650  -13.6930   19.7410 N   0  0  0  0  0  0  0  0  0  0  0  0
  -33.6700  -14.8170   18.8970 O   0  0  0  0  0  0  0  0  0  0  0  0
  -31.9380  -15.9620   19.7710 N   0  0  0  0  0  0  0  0  0  0  0  0
  -31.0480  -15.8330   20.2300 H   0  0  0  0  0  0  0  0  0  0  0  0
  -27.2720  -14.5590   20.1470 C   0  0  0  0  0  0  0  0  0  0  0  0
  -26.0940  -13.9850   20.5490 C   0  0  0  0  0  0  0  0  0  0  0  0
  -26.2850  -12.5730   20.4340 C   0  0  0  0  0  0  0  0  0  0  0  0
  -28.1150  -13.5080   19.8200 N   0  0  0  0  0  0  0  0  0  0  0  0
  -27.5260  -12.3070   20.0450 N   0  0  0  0  0  0  0  0  0  0  0  0
  -25.3430  -11.4620   20.6150 C   0  0  0  0  0  0  0  0  0  0  0  0
  -25.5890  -10.4270   21.5440 C   0  0  0  0  0  3  0  0  0  0  0  0
  -24.6580   -9.3810   21.7140 C   0  0  0  0  0  3  0  0  0  0  0  0
  -23.4660   -9.3610   20.9510 C   0  0  0  0  0  0  0  0  0  0  0  0
  -23.2360  -10.3820   20.0130 C   0  0  0  0  0  3  0  0  0  0  0  0
  -24.1660  -11.4210   19.8430 C   0  0  0  0  0  3  0  0  0  0  0  0
  -22.5180   -8.3690   21.0300 O   0  0  0  0  0  0  0  0  0  0  0  0
  -22.2590   -7.7130   22.2050 C   0  0  0  0  0  0  0  0  0  0  0  0
  -21.8400   -8.4010   23.3660 C   0  0  0  0  0  3  0  0  0  0  0  0
  -21.5200   -7.6790   24.5330 C   0  0  0  0  0  3  0  0  0  0  0  0
  -21.6080   -6.2740   24.5410 C   0  0  0  0  0  0  0  0  0  0  0  0
  -22.0200   -5.5880   23.3840 C   0  0  0  0  0  3  0  0  0  0  0  0
  -22.3420   -6.3060   22.2190 C   0  0  0  0  0  0  0  0  0  0  0  0
  -22.7190   -5.6400   21.1000 F   0  0  0  0  0  0  0  0  0  0  0  0
  -21.2910   -5.5790   25.6580 F   0  0  0  0  0  0  0  0  0  0  0  0
  -24.8320  -14.7030   20.9240 C   0  0  0  0  0  0  0  0  0  0  0  0
  -24.0470  -14.1240   21.8270 N   0  0  0  0  0  0  0  0  0  0  0  0
  -24.5620  -15.8070   20.4570 O   0  0  0  0  0  0  0  0  0  0  0  0
  -24.2850  -13.2310   22.2300 H   0  0  0  0  0  0  0  0  0  0  0  0
  -23.1980  -14.5870   22.1230 H   0  0  0  0  0  0  0  0  0  0  0  0
  -27.6830  -15.8820   20.0090 N   0  0  0  0  0  0  0  0  0  0  0  0
  -27.0460  -16.6530   20.1770 H   0  0  0  0  0  0  0  0  0  0  0  0
  -28.5580  -16.1690   19.5910 H   0  0  0  0  0  0  0  0  0  0  0  0
  1  2  1  0
  3  5  2  0
  4  3  1  0
  4  1  1  0
  6  4  1  0
  7  8  1  0
  7  3  1  0
  8 10  1  0
  9 20  2  0
 10 15  1  0
 11 19  1  0
 11 21  1  0
 12 18  1  0
 12 14  1  0
 13 19  1  0
 14 13  1  0
 15 14  2  0
 16 17  1  0
 16 10  2  0
 17 12  2  0
 18 11  1  0
 19  9  1  0
 21 23  2  0
 22 21  1  0
 24 22  1  0
 25 34  2  0
 25 30  1  0
 26 22  1  0
 26 30  1  0
 27 26  1  0
 28 29  1  0
 28 27  1  0
 29 25  1  0
 30 31  2  0
 31 32  1  0
 33 32  2  0
 34 33  1  0
 35  9  1  0
 35 36  1  0
 35 45  1  0
 36 39  1  0
 37 41  1  0
 37 36  1  0
 38 37  2  0
 41 40  1  0
 43 41  1  0
 43 44  1  0
 43 42  1  0
 45 48  1  1
 45 46  1  0
 47 45  1  0
 49  1  1  0
 51 50  1  0
 52 50  1  0
 53 49  1  0
 53 51  1  0
 54 53  1  0
 54 52  1  0
 54 55  1  6
 56 57  1  0
 56 54  1  0
 57 66  1  0
 58 64  1  0
 58 66  1  0
 59 64  1  0
 60 61  1  0
 60 59  1  0
 62 61  1  0
 62 71  1  0
 62 63  1  0
 64 63  1  0
 65 58  2  0
 66 67  1  0
 68 69  2  0
 69 88  1  0
 70 69  1  0
 70 73  1  0
 71 72  1  0
 71 68  1  0
 72 70  2  0
 73 74  1  0
 74 75  2  0
 76 79  1  0
 76 75  1  0
 77 76  2  0
 78 77  1  0
 78 73  2  0
 79 80  1  0
 80 85  2  0
 80 81  1  0
 81 82  2  0
 82 83  1  0
 83 87  1  0
 84 83  2  0
 85 84  1  0
 86 85  1  0
 88 89  1  0
 89 92  1  0
 89 91  1  0
 90 88  2  0
 93 68  1  0
 93 94  1  0
 95 93  1  0
M  ISO  4   7 101   8 101  58 100  66 100
M  END
>  <TORSDO>  (64) 
F 22

>  <SCORE>  (64) 
-10.178

>  <name>  (64) 
63

>  <ligand_id>  (64) 
63

>  <original_smiles>  (64) 
[H]c1c([H])c([H])c2c(c1[H])C([H])([H])C([H])([H])C([H])([H])C2([H])N([H])C(=O)C1([H])N(C(=O)C([H])(N([H])C(=O)C([H])(N([H])C([H])([H])[H])C([H])([H])[H])C(C([H])([H])[H])(C([H])([H])[H])C([H])([H])[H])C([H])([H])c2c([H])c(OC([H])([H])C(=O)N([H])N([H])C([H])([H])C3([H])C([H])([H])C([H])([H])C([H])([H])[N+]3([H])C([H])([H])C([H])([H])N([H])C(=O)N3C([H])([H])C([H])([H])C([H])([H])C([H])(n4nc(-c5c([H])c([H])c(Oc6c([H])c([H])c(F)c([H])c6F)c([H])c5[H])c(C(=O)N([H])[H])c4N([H])[H])C3([H])[H])c([H])c([H])c2C1([H])[H]

>  <smiles>  (64) 
[H]c1c([H])c([H])c2c(c1[H])C([H])([H])C([H])([H])C([H])([H])C2([H])N([H])C(=O)C1([H])N(C(=O)C([H])(N([H])C(=O)C([H])(N([H])C([H])([H])[H])C([H])([H])[H])C(C([H])([H])[H])(C([H])([H])[H])C([H])([H])[H])C([H])([H])c2c([H])c(OC([H])([H])C(=O)N([H])N([H])C([H])([H])C3([H])C([H])([H])C([H])([H])C([H])([H])[N+]3([H])C([H])([H])C([H])([H])N([H])C(=O)N3C([H])([H])C([H])([H])C([H])([H])C([H])(n4nc(-c5c([H])c([H])c(Oc6c([H])c([H])c(F)c([H])c6F)c([H])c5[H])c(C(=O)N([H])[H])c4N([H])[H])C3([H])[H])c([H])c([H])c2C1([H])[H]

$$$$
64:0:0
     RDKit          3D

 98107  0  0  1  0  0  0  0  0999 V2000
  -29.2260  -23.8730   20.5280 C   0  0  0  0  0  3  0  0  0  0  0  0
  -29.7300  -22.5610   20.7150 C   0  0  0  0  0  3  0  0  0  0  0  0
  -29.8990  -23.7830   18.2050 C   0  0  0  0  0  3  0  0  0  0  0  0
  -29.3090  -24.5010   19.2670 C   0  0  0  0  0  0  0  0  0  0  0  0
  -30.3280  -21.8400   19.6500 C   0  0  0  0  0  0  0  0  0  0  0  0
  -30.4070  -22.4740   18.3790 C   0  0  0  0  0  0  0  0  0  0  0  0
  -31.0380  -21.7840   17.1790 C   0  0  0  0  0  1  0  0  0  0  0  0
  -30.8770  -20.4060   19.8800 C   0  0  0  0  0  2  0  0  0  0  0  0
  -29.0030  -18.0840   17.7940 C   0  0  0  0  0  2  0  0  0  0  0  0
  -29.4680  -17.0780   18.8350 C   0  0  0  0  0  2  0  0  0  0  0  0
  -28.9610  -19.4160   18.5550 C   0  0  0  0  0  3  0  0  0  0  0  0
  -30.4290  -17.8770   19.7210 C   0  0  0  0  0  3  0  0  0  0  0  0
  -29.8950  -19.2870   19.7080 N   0  0  1  0  0  4  0  0  0  0  0  0
  -29.2340  -19.3720   20.4740 H   0  0  0  0  0  0  0  0  0  0  0  0
  -27.5800  -19.7030   19.1690 C   0  0  0  0  0  0  0  0  0  0  0  0
  -26.4360  -20.0250   18.2180 C   0  0  0  0  0  1  0  0  0  0  0  0
  -27.3790  -19.6770   20.3880 O   0  0  0  0  0  0  0  0  0  0  0  0
  -30.6180  -17.2290   21.1340 C   0  0  0  0  0  2  0  0  0  0  0  0
  -31.1390  -14.7360   20.7630 C   0  0  0  0  0  0  0  0  0  0  0  0
  -30.9400  -12.4670   19.7950 C   0  0  0  0  0  2  0  0  0  0  0  0
  -30.1060  -12.5520   18.4990 C   0  0  0  0  0  2  0  0  0  0  0  0
  -28.5950  -12.4670   18.8030 C   0  0  0  0  0  2  0  0  0  0  0  0
  -28.1610  -13.4230   19.9450 C   0  0  0  0  0  3  0  0  0  0  0  0
  -29.1090  -13.2910   21.1590 C   0  0  0  0  0  2  0  0  0  0  0  0
  -30.4860  -13.5420   20.6910 N   0  0  0  0  0  0  0  0  0  0  0  0
  -32.2930  -14.9010   20.3590 O   0  0  0  0  0  0  0  0  0  0  0  0
  -30.3720  -15.7670   21.1660 N   0  0  0  0  0  0  0  0  0  0  0  0
  -29.4560  -15.4900   21.4880 H   0  0  0  0  0  0  0  0  0  0  0  0
  -25.7400  -14.1550   20.4310 C   0  0  0  0  0  0  0  0  0  0  0  0
  -24.6140  -13.4420   20.7390 C   0  0  0  0  0  0  0  0  0  0  0  0
  -25.0180  -12.0720   20.7850 C   0  0  0  0  0  0  0  0  0  0  0  0
  -26.7630  -13.2240   20.3170 N   0  0  0  0  0  0  0  0  0  0  0  0
  -26.3250  -11.9690   20.5840 N   0  0  0  0  0  0  0  0  0  0  0  0
  -24.2260  -10.8480   20.9480 C   0  0  0  0  0  0  0  0  0  0  0  0
  -24.5780   -9.8630   21.8970 C   0  0  0  0  0  3  0  0  0  0  0  0
  -23.7890   -8.7030   22.0500 C   0  0  0  0  0  3  0  0  0  0  0  0
  -22.6340   -8.5220   21.2530 C   0  0  0  0  0  0  0  0  0  0  0  0
  -22.3010   -9.4940   20.2950 C   0  0  0  0  0  3  0  0  0  0  0  0
  -23.0890  -10.6460   20.1400 C   0  0  0  0  0  3  0  0  0  0  0  0
  -21.8220   -7.4150   21.3140 O   0  0  0  0  0  0  0  0  0  0  0  0
  -21.7320   -6.6510   22.4510 C   0  0  0  0  0  0  0  0  0  0  0  0
  -21.3610   -7.2080   23.6950 C   0  0  0  0  0  3  0  0  0  0  0  0
  -21.2140   -6.3760   24.8220 C   0  0  0  0  0  3  0  0  0  0  0  0
  -21.4240   -4.9880   24.7060 C   0  0  0  0  0  0  0  0  0  0  0  0
  -21.7860   -4.4320   23.4670 C   0  0  0  0  0  3  0  0  0  0  0  0
  -21.9370   -5.2610   22.3420 C   0  0  0  0  0  0  0  0  0  0  0  0
  -22.2660   -4.7180   21.1450 F   0  0  0  0  0  0  0  0  0  0  0  0
  -21.2740   -4.1870   25.7870 F   0  0  0  0  0  0  0  0  0  0  0  0
  -23.2220  -13.9860   20.8820 C   0  0  0  0  0  0  0  0  0  0  0  0
  -22.4000  -13.3570   21.7160 N   0  0  0  0  0  0  0  0  0  0  0  0
  -22.8690  -15.0040   20.2890 O   0  0  0  0  0  0  0  0  0  0  0  0
  -22.6960  -12.5330   22.2180 H   0  0  0  0  0  0  0  0  0  0  0  0
  -21.4630  -13.7070   21.8550 H   0  0  0  0  0  0  0  0  0  0  0  0
  -25.9700  -15.5110   20.2170 N   0  0  0  0  0  0  0  0  0  0  0  0
  -25.2080  -16.1790   20.2110 H   0  0  0  0  0  0  0  0  0  0  0  0
  -26.8330  -15.8860   19.8500 H   0  0  0  0  0  0  0  0  0  0  0  0
  -28.8010  -25.9260   18.9930 C   0  0  0  0  0  2  0  0  0  0  0  0
  -28.4460  -26.7180   20.1430 O   0  0  0  0  0  0  0  0  0  0  0  0
  -24.5940  -31.8750   23.2370 C   0  0  0  0  0  0  0  0  0  0  0  0
  -27.2650  -27.4430   20.1270 C   0  0  0  0  0  0  0  0  0  0  0  0
  -23.3970  -30.4790   21.5850 C   0  0  0  0  0  3  0  0  0  0  0  0
  -24.8590  -28.9480   20.1590 C   0  0  0  0  0  0  0  0  0  0  0  0
  -25.9250  -30.8380   21.3990 C   0  0  0  0  0  2  0  0  0  0  0  0
  -26.0160  -29.4690   20.7510 C   0  0  0  0  0  0  0  0  0  0  0  0
  -27.2170  -28.7190   20.7400 C   0  0  0  0  0  3  0  0  0  0  0  0
  -26.0770  -26.9290   19.5580 C   0  0  0  0  0  3  0  0  0  0  0  0
  -24.8830  -27.6760   19.5660 C   0  0  0  0  0  3  0  0  0  0  0  0
  -23.6140  -29.8070   20.2030 C   0  0  0  0  0  2  0  0  0  0  0  0
  -24.6560  -31.0790   22.1320 N   0  0  0  0  0  0  0  0  0  0  0  0
  -23.5110  -32.1420   23.7750 O   0  0  0  0  0  0  0  0  0  0  0  0
  -22.7440  -29.4520   22.5380 C   0  0  0  0  0  0  0  0  0  0  0  0
  -21.4160  -29.2830   22.4190 N   0  0  0  0  0  0  0  0  0  0  0  0
  -23.4280  -28.8110   23.3400 O   0  0  0  0  0  0  0  0  0  0  0  0
  -20.9250  -29.8540   21.7460 H   0  0  0  0  0  0  0  0  0  0  0  0
  -18.0350  -28.1120   22.9240 C   0  0  0  0  0  0  0  0  0  0  0  0
  -20.5970  -28.3420   23.1820 C   0  0  0  0  0  3  0  0  0  0  0  0
  -20.6820  -26.9170   22.5880 C   0  0  0  0  0  2  0  0  0  0  0  0
  -19.5720  -26.6170   21.5770 C   0  0  0  0  0  2  0  0  0  0  0  0
  -18.1950  -26.7690   22.2310 C   0  0  0  0  0  2  0  0  0  0  0  0
  -19.1640  -28.8580   23.3560 C   0  0  0  0  0  0  0  0  0  0  0  0
  -18.9620  -30.1160   23.9620 C   0  0  0  0  0  3  0  0  0  0  0  0
  -17.6640  -30.6290   24.1420 C   0  0  0  0  0  3  0  0  0  0  0  0
  -16.5490  -29.8800   23.7280 C   0  0  0  0  0  3  0  0  0  0  0  0
  -16.7360  -28.6230   23.1240 C   0  0  0  0  0  3  0  0  0  0  0  0
  -25.8780  -32.5060   23.8630 C   0  0  0  0  0  3  0  0  0  0  0  0
  -25.5700  -33.9060   24.1860 N   0  0  0  0  0  0  0  0  0  0  0  0
  -25.9190  -34.9550   23.4310 C   0  0  0  0  0  0  0  0  0  0  0  0
  -26.6060  -34.8470   22.4100 O   0  0  0  0  0  0  0  0  0  0  0  0
  -24.9630  -34.0640   24.9770 H   0  0  0  0  0  0  0  0  0  0  0  0
  -24.1990  -36.7490   23.0500 C   0  0  0  0  0  1  0  0  0  0  0  0
  -25.4290  -36.3460   23.8770 C   0  0  0  0  0  3  0  0  0  0  0  0
  -27.5590  -37.2250   24.7260 C   0  0  0  0  0  1  0  0  0  0  0  0
  -26.4640  -37.3970   23.7740 N   0  0  0  0  0  0  0  0  0  0  0  0
  -26.0600  -38.3170   23.9200 H   0  0  0  0  0  0  0  0  0  0  0  0
  -26.3860  -31.7380   25.1440 C   0  0  1  0  0  0  0  0  0  0  0  0
  -25.2860  -31.5050   26.2070 C   0  0  0  0  0  1  0  0  0  0  0  0
  -26.9680  -30.3580   24.7580 C   0  0  0  0  0  1  0  0  0  0  0  0
  -27.5320  -32.5320   25.8120 C   0  0  0  0  0  1  0  0  0  0  0  0
  1  2  1  0
  3  6  2  0
  3  4  1  0
  4  1  2  0
  5  8  1  0
  5  2  2  0
  6  5  1  0
  7  6  1  0
  9 11  1  0
  9 10  1  0
 10 12  1  0
 11 15  1  0
 11 13  1  0
 12 18  1  0
 13 12  1  0
 13  8  1  0
 13 14  1  1
 15 17  2  0
 16 15  1  0
 18 27  1  0
 19 27  1  0
 20 25  1  0
 21 22  1  0
 21 20  1  0
 23 22  1  0
 23 32  1  0
 23 24  1  0
 25 19  1  0
 25 24  1  0
 26 19  2  0
 27 28  1  0
 29 30  2  0
 30 31  1  0
 30 49  1  0
 31 34  1  0
 32 29  1  0
 32 33  1  0
 33 31  2  0
 34 35  1  0
 35 36  2  0
 37 40  1  0
 37 36  1  0
 38 37  2  0
 39 38  1  0
 39 34  2  0
 40 41  1  0
 41 42  1  0
 42 43  2  0
 44 43  1  0
 44 48  1  0
 45 44  2  0
 46 41  2  0
 46 45  1  0
 47 46  1  0
 49 50  1  0
 50 53  1  0
 50 52  1  0
 51 49  2  0
 54 29  1  0
 55 54  1  0
 56 54  1  0
 57  4  1  0
 57 58  1  0
 59 70  2  0
 60 58  1  0
 60 65  1  0
 61 69  1  0
 61 71  1  0
 62 68  1  0
 62 64  1  0
 63 69  1  0
 64 63  1  0
 65 64  2  0
 66 67  1  0
 66 60  2  0
 67 62  2  0
 68 61  1  0
 69 59  1  0
 71 73  2  0
 72 71  1  0
 74 72  1  0
 75 84  2  0
 75 80  1  0
 76 72  1  0
 76 80  1  0
 77 76  1  0
 78 79  1  0
 78 77  1  0
 79 75  1  0
 80 81  2  0
 81 82  1  0
 83 82  2  0
 84 83  1  0
 85 59  1  0
 85 86  1  0
 85 95  1  0
 86 89  1  0
 87 91  1  0
 87 86  1  0
 88 87  2  0
 91 90  1  0
 93 91  1  0
 93 94  1  0
 93 92  1  0
 95 98  1  1
 95 96  1  0
 97 95  1  0
M  ISO  4  19 100  27 100  57 101  58 101
M  END
>  <TORSDO>  (65) 
F 21

>  <SCORE>  (65) 
-13.051

>  <name>  (65) 
64

>  <ligand_id>  (65) 
64

>  <original_smiles>  (65) 
[H]c1c([H])c([H])c2c(c1[H])C([H])([H])C([H])([H])C([H])([H])C2([H])N([H])C(=O)C1([H])N(C(=O)C([H])(N([H])C(=O)C([H])(N([H])C([H])([H])[H])C([H])([H])[H])C(C([H])([H])[H])(C([H])([H])[H])C([H])([H])[H])C([H])([H])c2c([H])c(OC([H])([H])c3c([H])c([H])c(C([H])([H])[N+]4([H])C([H])(C(=O)C([H])([H])[H])C([H])([H])C([H])([H])C4([H])C([H])([H])N([H])C(=O)N4C([H])([H])C([H])([H])C([H])([H])C([H])(n5nc(-c6c([H])c([H])c(Oc7c([H])c([H])c(F)c([H])c7F)c([H])c6[H])c(C(=O)N([H])[H])c5N([H])[H])C4([H])[H])c(C([H])([H])[H])c3[H])c([H])c([H])c2C1([H])[H]

>  <smiles>  (65) 
[H]c1c([H])c([H])c2c(c1[H])C([H])([H])C([H])([H])C([H])([H])C2([H])N([H])C(=O)C1([H])N(C(=O)C([H])(N([H])C(=O)C([H])(N([H])C([H])([H])[H])C([H])([H])[H])C(C([H])([H])[H])(C([H])([H])[H])C([H])([H])[H])C([H])([H])c2c([H])c(OC([H])([H])c3c([H])c([H])c(C([H])([H])[N+]4([H])C([H])(C(=O)C([H])([H])[H])C([H])([H])C([H])([H])C4([H])C([H])([H])N([H])C(=O)N4C([H])([H])C([H])([H])C([H])([H])C([H])(n5nc(-c6c([H])c([H])c(Oc7c([H])c([H])c(F)c([H])c7F)c([H])c6[H])c(C(=O)N([H])[H])c5N([H])[H])C4([H])[H])c(C([H])([H])[H])c3[H])c([H])c([H])c2C1([H])[H]

$$$$
65:0:0
     RDKit          3D

 91100  0  0  1  0  0  0  0  0999 V2000
  -28.4360  -21.6720   20.1770 C   0  0  0  0  0  3  0  0  0  0  0  0
  -28.8780  -20.2540   20.1060 C   0  0  0  0  0  0  0  0  0  0  0  0
  -29.2470  -22.8770   20.0410 C   0  0  0  0  0  0  0  0  0  0  0  0
  -30.2470  -19.8420   19.8600 C   0  0  0  0  0  0  0  0  0  0  0  0
  -30.5870  -22.3580   19.8040 C   0  0  0  0  0  0  0  0  0  0  0  0
  -31.6930  -23.3610   19.5500 C   0  0  0  0  0  1  0  0  0  0  0  0
  -31.0230  -21.0000   19.7450 N   0  0  0  0  0  0  0  0  0  0  0  0
  -27.9430  -17.8610   19.5890 C   0  0  0  0  0  2  0  0  0  0  0  0
  -26.8230  -18.8270   19.2900 C   0  0  0  0  0  2  0  0  0  0  0  0
  -27.8620  -19.1750   20.3320 C   0  0  0  0  0  3  0  0  0  0  0  0
  -28.6220  -24.4880   19.7900 C   0  0  0  0  0  2  0  0  0  0  0  0
  -28.8190  -25.9780   20.4230 O   0  0  0  0  0  0  0  0  0  0  0  0
  -24.9280  -31.7100   23.3840 C   0  0  0  0  0  0  0  0  0  0  0  0
  -27.7970  -27.0550   20.3310 C   0  0  0  0  0  0  0  0  0  0  0  0
  -23.8680  -30.3450   21.6330 C   0  0  0  0  0  3  0  0  0  0  0  0
  -25.4420  -28.8500   20.2300 C   0  0  0  0  0  0  0  0  0  0  0  0
  -26.4300  -30.6480   21.6310 C   0  0  0  0  0  2  0  0  0  0  0  0
  -26.5810  -29.2700   20.9300 C   0  0  0  0  0  0  0  0  0  0  0  0
  -27.7550  -28.3940   20.9580 C   0  0  0  0  0  3  0  0  0  0  0  0
  -26.6260  -26.7890   19.5830 C   0  0  0  0  0  3  0  0  0  0  0  0
  -25.4890  -27.6310   19.5380 C   0  0  0  0  0  3  0  0  0  0  0  0
  -24.1920  -29.7270   20.2450 C   0  0  0  0  0  2  0  0  0  0  0  0
  -25.0930  -30.9250   22.2720 N   0  0  0  0  0  0  0  0  0  0  0  0
  -23.8050  -31.9460   23.8560 O   0  0  0  0  0  0  0  0  0  0  0  0
  -23.1580  -29.2890   22.5200 C   0  0  0  0  0  0  0  0  0  0  0  0
  -21.8500  -29.0640   22.2930 N   0  0  0  0  0  0  0  0  0  0  0  0
  -23.7920  -28.6740   23.3800 O   0  0  0  0  0  0  0  0  0  0  0  0
  -21.3890  -29.6150   21.5820 H   0  0  0  0  0  0  0  0  0  0  0  0
  -18.4930  -27.7150   22.5560 C   0  0  0  0  0  0  0  0  0  0  0  0
  -21.0200  -28.0680   22.9810 C   0  0  0  0  0  3  0  0  0  0  0  0
  -21.2110  -26.6630   22.3640 C   0  0  0  0  0  2  0  0  0  0  0  0
  -20.1830  -26.3370   21.2750 C   0  0  0  0  0  2  0  0  0  0  0  0
  -18.7630  -26.4020   21.8420 C   0  0  0  0  0  2  0  0  0  0  0  0
  -19.5530  -28.5040   23.0770 C   0  0  0  0  0  0  0  0  0  0  0  0
  -19.2460  -29.7300   23.7060 C   0  0  0  0  0  3  0  0  0  0  0  0
  -17.9130  -30.1700   23.8180 C   0  0  0  0  0  3  0  0  0  0  0  0
  -16.8670  -29.3780   23.3120 C   0  0  0  0  0  3  0  0  0  0  0  0
  -17.1580  -28.1520   22.6870 C   0  0  0  0  0  3  0  0  0  0  0  0
  -26.1430  -32.3660   24.1070 C   0  0  0  0  0  3  0  0  0  0  0  0
  -26.5230  -31.6390   25.4570 C   0  0  1  0  0  0  0  0  0  0  0  0
  -25.3220  -31.4180   26.4060 C   0  0  0  0  0  1  0  0  0  0  0  0
  -27.1620  -30.2590   25.1800 C   0  0  0  0  0  1  0  0  0  0  0  0
  -27.5850  -32.4690   26.2160 C   0  0  0  0  0  1  0  0  0  0  0  0
  -25.8080  -33.7770   24.3680 N   0  0  0  0  0  0  0  0  0  0  0  0
  -26.1910  -34.8100   23.6060 C   0  0  0  0  0  0  0  0  0  0  0  0
  -26.9280  -34.6760   22.6260 O   0  0  0  0  0  0  0  0  0  0  0  0
  -25.1610  -33.9530   25.1220 H   0  0  0  0  0  0  0  0  0  0  0  0
  -24.4930  -36.5970   23.0970 C   0  0  0  0  0  1  0  0  0  0  0  0
  -25.6820  -36.2140   23.9920 C   0  0  0  0  0  3  0  0  0  0  0  0
  -27.7640  -37.1280   24.9240 C   0  0  0  0  0  1  0  0  0  0  0  0
  -26.7220  -37.2630   23.9090 N   0  0  0  0  0  0  0  0  0  0  0  0
  -26.3100  -38.1890   23.9990 H   0  0  0  0  0  0  0  0  0  0  0  0
  -31.0030  -18.2780   19.9740 C   0  0  0  0  0  2  0  0  0  0  0  0
  -31.3160  -15.4300   20.1910 C   0  0  0  0  0  0  0  0  0  0  0  0
  -31.2890  -12.9440   19.4900 C   0  0  0  0  0  2  0  0  0  0  0  0
  -30.3860  -12.6640   18.2630 C   0  0  0  0  0  2  0  0  0  0  0  0
  -28.9310  -12.4280   18.7010 C   0  0  0  0  0  2  0  0  0  0  0  0
  -28.4630  -13.4630   19.7540 C   0  0  0  0  0  3  0  0  0  0  0  0
  -29.4980  -13.6890   20.8790 C   0  0  0  0  0  2  0  0  0  0  0  0
  -30.7380  -14.1350   20.2280 N   0  0  0  0  0  0  0  0  0  0  0  0
  -32.5350  -15.4170   19.9770 O   0  0  0  0  0  0  0  0  0  0  0  0
  -30.5730  -16.7010   20.1890 N   0  0  0  0  0  0  0  0  0  0  0  0
  -29.5820  -16.5820   20.3280 H   0  0  0  0  0  0  0  0  0  0  0  0
  -26.1320  -14.0720   20.5890 C   0  0  0  0  0  0  0  0  0  0  0  0
  -25.0440  -13.3190   20.9270 C   0  0  0  0  0  0  0  0  0  0  0  0
  -25.4510  -11.9550   20.8000 C   0  0  0  0  0  0  0  0  0  0  0  0
  -27.1320  -13.1720   20.2680 N   0  0  0  0  0  0  0  0  0  0  0  0
  -26.7340  -11.8870   20.4630 N   0  0  0  0  0  0  0  0  0  0  0  0
  -24.6720  -10.7140   20.9190 C   0  0  0  0  0  0  0  0  0  0  0  0
  -24.9770   -9.7400   21.8940 C   0  0  0  0  0  3  0  0  0  0  0  0
  -24.2000   -8.5670   22.0020 C   0  0  0  0  0  3  0  0  0  0  0  0
  -23.1020   -8.3600   21.1340 C   0  0  0  0  0  0  0  0  0  0  0  0
  -22.8150   -9.3240   20.1500 C   0  0  0  0  0  3  0  0  0  0  0  0
  -23.5940  -10.4870   20.0400 C   0  0  0  0  0  3  0  0  0  0  0  0
  -22.3050   -7.2400   21.1500 O   0  0  0  0  0  0  0  0  0  0  0  0
  -21.9800   -6.6060   22.3220 C   0  0  0  0  0  0  0  0  0  0  0  0
  -21.3350   -7.2810   23.3810 C   0  0  0  0  0  3  0  0  0  0  0  0
  -20.9560   -6.5740   24.5390 C   0  0  0  0  0  3  0  0  0  0  0  0
  -21.2100   -5.1930   24.6360 C   0  0  0  0  0  0  0  0  0  0  0  0
  -21.8460   -4.5170   23.5800 C   0  0  0  0  0  3  0  0  0  0  0  0
  -22.2260   -5.2220   22.4240 C   0  0  0  0  0  0  0  0  0  0  0  0
  -22.8190   -4.5620   21.4010 F   0  0  0  0  0  0  0  0  0  0  0  0
  -20.8390   -4.5120   25.7460 F   0  0  0  0  0  0  0  0  0  0  0  0
  -23.6720  -13.8360   21.2500 C   0  0  0  0  0  0  0  0  0  0  0  0
  -22.9430  -13.1410   22.1150 N   0  0  0  0  0  0  0  0  0  0  0  0
  -23.2590  -14.8910   20.7690 O   0  0  0  0  0  0  0  0  0  0  0  0
  -23.2920  -12.2870   22.5240 H   0  0  0  0  0  0  0  0  0  0  0  0
  -22.0230  -13.4690   22.3720 H   0  0  0  0  0  0  0  0  0  0  0  0
  -26.3490  -15.4440   20.4940 N   0  0  0  0  0  0  0  0  0  0  0  0
  -25.6090  -16.1170   20.6580 H   0  0  0  0  0  0  0  0  0  0  0  0
  -27.1920  -15.8650   20.1280 H   0  0  0  0  0  0  0  0  0  0  0  0
  2  1  1  0
  2 10  1  0
  3  1  2  0
  4 53  1  0
  4  2  2  0
  5  3  1  0
  6  5  1  0
  7  5  2  0
  7  4  1  0
  8 10  1  0
  9  8  1  0
  9 10  1  0
 11  3  1  0
 11 12  1  0
 13 24  2  0
 14 12  1  0
 14 19  1  0
 15 23  1  0
 15 25  1  0
 16 22  1  0
 16 18  1  0
 17 23  1  0
 18 19  2  0
 18 17  1  0
 20 14  2  0
 21 20  1  0
 21 16  2  0
 22 15  1  0
 23 13  1  0
 25 27  2  0
 26 25  1  0
 28 26  1  0
 29 38  2  0
 29 34  1  0
 30 26  1  0
 30 34  1  0
 31 30  1  0
 32 33  1  0
 32 31  1  0
 33 29  1  0
 34 35  2  0
 35 36  1  0
 37 36  2  0
 38 37  1  0
 39 13  1  0
 39 44  1  0
 39 40  1  0
 40 43  1  1
 40 41  1  0
 42 40  1  0
 44 47  1  0
 45 49  1  0
 45 44  1  0
 46 45  2  0
 49 48  1  0
 51 49  1  0
 51 52  1  0
 51 50  1  0
 53 62  1  0
 54 60  1  0
 55 60  1  0
 56 57  1  0
 56 55  1  0
 58 57  1  0
 58 67  1  0
 58 59  1  0
 60 59  1  0
 61 54  2  0
 62 54  1  0
 62 63  1  0
 64 65  2  0
 65 84  1  0
 66 69  1  0
 66 65  1  0
 67 68  1  0
 67 64  1  0
 68 66  2  0
 69 70  1  0
 70 71  2  0
 72 75  1  0
 72 71  1  0
 73 72  2  0
 74 73  1  0
 74 69  2  0
 75 76  1  0
 76 81  2  0
 76 77  1  0
 77 78  2  0
 78 79  1  0
 79 83  1  0
 80 79  2  0
 81 80  1  0
 82 81  1  0
 84 85  1  0
 85 88  1  0
 85 87  1  0
 86 84  2  0
 89 64  1  0
 89 90  1  0
 91 89  1  0
M  ISO  4  11 101  12 101  54 100  62 100
M  END
>  <TORSDO>  (66) 
F 19

>  <SCORE>  (66) 
-13.574

>  <name>  (66) 
65

>  <ligand_id>  (66) 
65

>  <original_smiles>  (66) 
[H]c1c([H])c([H])c2c(c1[H])C([H])([H])C([H])([H])C([H])([H])C2([H])N([H])C(=O)C1([H])N(C(=O)C([H])(N([H])C(=O)C([H])(N([H])C([H])([H])[H])C([H])([H])[H])C(C([H])([H])[H])(C([H])([H])[H])C([H])([H])[H])C([H])([H])c2c([H])c(OC([H])([H])c3c(C([H])([H])[H])nc(C([H])([H])N([H])C(=O)N4C([H])([H])C([H])([H])C([H])([H])C([H])(n5nc(-c6c([H])c([H])c(Oc7c([H])c([H])c(F)c([H])c7F)c([H])c6[H])c(C(=O)N([H])[H])c5N([H])[H])C4([H])[H])c(C4([H])C([H])([H])C4([H])[H])c3[H])c([H])c([H])c2C1([H])[H]

>  <smiles>  (66) 
[H]c1c([H])c([H])c2c(c1[H])C([H])([H])C([H])([H])C([H])([H])C2([H])N([H])C(=O)C1([H])N(C(=O)C([H])(N([H])C(=O)C([H])(N([H])C([H])([H])[H])C([H])([H])[H])C(C([H])([H])[H])(C([H])([H])[H])C([H])([H])[H])C([H])([H])c2c([H])c(OC([H])([H])c3c(C([H])([H])[H])nc(C([H])([H])N([H])C(=O)N4C([H])([H])C([H])([H])C([H])([H])C([H])(n5nc(-c6c([H])c([H])c(Oc7c([H])c([H])c(F)c([H])c7F)c([H])c6[H])c(C(=O)N([H])[H])c5N([H])[H])C4([H])[H])c(C4([H])C([H])([H])C4([H])[H])c3[H])c([H])c([H])c2C1([H])[H]

$$$$
66:0:0
     RDKit          3D

 94102  0  0  1  0  0  0  0  0999 V2000
  -28.7310  -22.8180   20.7980 C   0  0  0  0  0  2  0  0  0  0  0  0
  -30.8940  -22.1870   19.7110 C   0  0  0  0  0  2  0  0  0  0  0  0
  -30.3290  -24.5950   19.8460 C   0  0  0  0  0  2  0  0  0  0  0  0
  -29.8860  -21.7870   20.8300 C   0  0  0  0  0  3  0  0  0  0  0  0
  -29.1790  -24.3130   20.8360 C   0  0  0  0  0  3  0  0  0  0  0  0
  -31.3920  -23.5710   19.9080 N   0  0  0  0  0  4  0  0  0  0  0  0
  -32.0660  -23.7880   19.1910 H   0  0  0  0  0  0  0  0  0  0  0  0
  -31.8690  -23.6480   20.7910 H   0  0  0  0  0  0  0  0  0  0  0  0
  -29.3020  -20.3330   20.7300 C   0  0  0  0  0  2  0  0  0  0  0  0
  -30.2380  -19.2340   21.0970 N   0  0  0  0  0  4  0  0  0  0  0  0
  -30.6530  -19.4380   21.9920 H   0  0  0  0  0  0  0  0  0  0  0  0
  -30.9780  -19.2050   20.4140 H   0  0  0  0  0  0  0  0  0  0  0  0
  -29.6310  -17.8710   21.1610 C   0  0  0  0  0  2  0  0  0  0  0  0
  -30.7070  -16.7570   21.2840 C   0  0  0  0  0  2  0  0  0  0  0  0
  -30.7050  -14.4310   20.3630 C   0  0  0  0  0  0  0  0  0  0  0  0
  -30.3270  -12.2940   19.1850 C   0  0  0  0  0  2  0  0  0  0  0  0
  -29.3910  -12.5210   17.9820 C   0  0  0  0  0  2  0  0  0  0  0  0
  -27.9130  -12.4270   18.4100 C   0  0  0  0  0  2  0  0  0  0  0  0
  -27.5980  -13.2460   19.6950 C   0  0  0  0  0  3  0  0  0  0  0  0
  -28.6600  -13.0110   20.7940 C   0  0  0  0  0  2  0  0  0  0  0  0
  -29.9880  -13.2850   20.2190 N   0  0  0  0  0  0  0  0  0  0  0  0
  -31.7620  -14.6360   19.7590 O   0  0  0  0  0  0  0  0  0  0  0  0
  -30.1750  -15.3850   21.1520 N   0  0  0  0  0  0  0  0  0  0  0  0
  -29.3460  -15.1390   21.6770 H   0  0  0  0  0  0  0  0  0  0  0  0
  -25.2130  -13.8510   20.4640 C   0  0  0  0  0  0  0  0  0  0  0  0
  -24.1530  -13.0790   20.8550 C   0  0  0  0  0  0  0  0  0  0  0  0
  -24.6050  -11.7250   20.7940 C   0  0  0  0  0  0  0  0  0  0  0  0
  -26.2490  -12.9710   20.1930 N   0  0  0  0  0  0  0  0  0  0  0  0
  -25.8890  -11.6860   20.4520 N   0  0  0  0  0  0  0  0  0  0  0  0
  -23.8790  -10.4660   20.9920 C   0  0  0  0  0  0  0  0  0  0  0  0
  -24.3100   -9.4980   21.9260 C   0  0  0  0  0  3  0  0  0  0  0  0
  -23.5790   -8.3020   22.1080 C   0  0  0  0  0  3  0  0  0  0  0  0
  -22.4020   -8.0710   21.3570 C   0  0  0  0  0  0  0  0  0  0  0  0
  -21.9890   -9.0280   20.4160 C   0  0  0  0  0  3  0  0  0  0  0  0
  -22.7200  -10.2120   20.2310 C   0  0  0  0  0  3  0  0  0  0  0  0
  -21.6440   -6.9270   21.4480 O   0  0  0  0  0  0  0  0  0  0  0  0
  -21.5760   -6.2010   22.6070 C   0  0  0  0  0  0  0  0  0  0  0  0
  -21.1120   -6.7670   23.8160 C   0  0  0  0  0  3  0  0  0  0  0  0
  -20.9900   -5.9650   24.9670 C   0  0  0  0  0  3  0  0  0  0  0  0
  -21.3230   -4.5980   24.9160 C   0  0  0  0  0  0  0  0  0  0  0  0
  -21.7800   -4.0310   23.7110 C   0  0  0  0  0  3  0  0  0  0  0  0
  -21.9010   -4.8300   22.5620 C   0  0  0  0  0  0  0  0  0  0  0  0
  -22.3230   -4.2730   21.4000 F   0  0  0  0  0  0  0  0  0  0  0  0
  -21.1960   -3.8280   26.0200 F   0  0  0  0  0  0  0  0  0  0  0  0
  -22.7610  -13.5630   21.1570 C   0  0  0  0  0  0  0  0  0  0  0  0
  -22.0390  -12.8760   22.0330 N   0  0  0  0  0  0  0  0  0  0  0  0
  -22.3250  -14.5950   20.6500 O   0  0  0  0  0  0  0  0  0  0  0  0
  -22.4030  -12.0510   22.4850 H   0  0  0  0  0  0  0  0  0  0  0  0
  -21.1010  -13.1820   22.2530 H   0  0  0  0  0  0  0  0  0  0  0  0
  -25.3600  -15.2240   20.2940 N   0  0  0  0  0  0  0  0  0  0  0  0
  -24.5640  -15.8420   20.4060 H   0  0  0  0  0  0  0  0  0  0  0  0
  -26.1530  -15.6780   19.8560 H   0  0  0  0  0  0  0  0  0  0  0  0
  -27.9760  -25.2180   20.5030 C   0  0  0  0  0  2  0  0  0  0  0  0
  -28.2970  -26.6250   20.3440 O   0  0  0  0  0  0  0  0  0  0  0  0
  -24.5960  -31.9230   23.2620 C   0  0  0  0  0  0  0  0  0  0  0  0
  -27.1920  -27.4420   20.2230 C   0  0  0  0  0  0  0  0  0  0  0  0
  -23.3890  -30.5360   21.6130 C   0  0  0  0  0  3  0  0  0  0  0  0
  -24.8380  -29.0090   20.1800 C   0  0  0  0  0  0  0  0  0  0  0  0
  -25.9200  -30.8780   21.4280 C   0  0  0  0  0  2  0  0  0  0  0  0
  -25.9970  -29.5070   20.7850 C   0  0  0  0  0  0  0  0  0  0  0  0
  -27.1830  -28.7340   20.8010 C   0  0  0  0  0  3  0  0  0  0  0  0
  -26.0260  -26.9910   19.5580 C   0  0  0  0  0  3  0  0  0  0  0  0
  -24.8510  -27.7560   19.5520 C   0  0  0  0  0  3  0  0  0  0  0  0
  -23.5990  -29.8720   20.2280 C   0  0  0  0  0  2  0  0  0  0  0  0
  -24.6530  -31.1240   22.1600 N   0  0  0  0  0  0  0  0  0  0  0  0
  -23.5130  -32.2020   23.7960 O   0  0  0  0  0  0  0  0  0  0  0  0
  -22.7270  -29.5090   22.5620 C   0  0  0  0  0  0  0  0  0  0  0  0
  -21.4010  -29.3430   22.4320 N   0  0  0  0  0  0  0  0  0  0  0  0
  -23.4030  -28.8710   23.3730 O   0  0  0  0  0  0  0  0  0  0  0  0
  -20.9190  -29.9060   21.7470 H   0  0  0  0  0  0  0  0  0  0  0  0
  -18.0060  -28.2090   22.9370 C   0  0  0  0  0  0  0  0  0  0  0  0
  -20.5710  -28.4110   23.1970 C   0  0  0  0  0  3  0  0  0  0  0  0
  -20.6410  -26.9850   22.6040 C   0  0  0  0  0  2  0  0  0  0  0  0
  -19.5250  -26.6970   21.5920 C   0  0  0  0  0  2  0  0  0  0  0  0
  -18.1510  -26.8640   22.2470 C   0  0  0  0  0  2  0  0  0  0  0  0
  -19.1420  -28.9440   23.3690 C   0  0  0  0  0  0  0  0  0  0  0  0
  -18.9510  -30.2060   23.9720 C   0  0  0  0  0  3  0  0  0  0  0  0
  -17.6580  -30.7320   24.1510 C   0  0  0  0  0  3  0  0  0  0  0  0
  -16.5370  -29.9930   23.7350 C   0  0  0  0  0  3  0  0  0  0  0  0
  -16.7120  -28.7340   23.1340 C   0  0  0  0  0  3  0  0  0  0  0  0
  -25.8810  -32.5440   23.8890 C   0  0  0  0  0  3  0  0  0  0  0  0
  -25.5800  -33.9430   24.2140 N   0  0  0  0  0  0  0  0  0  0  0  0
  -25.9100  -34.9910   23.4450 C   0  0  0  0  0  0  0  0  0  0  0  0
  -26.5720  -34.8790   22.4090 O   0  0  0  0  0  0  0  0  0  0  0  0
  -24.9900  -34.1050   25.0170 H   0  0  0  0  0  0  0  0  0  0  0  0
  -24.1810  -36.7840   23.0940 C   0  0  0  0  0  1  0  0  0  0  0  0
  -25.4290  -36.3820   23.8960 C   0  0  0  0  0  3  0  0  0  0  0  0
  -27.5730  -37.2690   24.7010 C   0  0  0  0  0  1  0  0  0  0  0  0
  -26.4620  -37.4330   23.7660 N   0  0  0  0  0  0  0  0  0  0  0  0
  -26.0600  -38.3540   23.9140 H   0  0  0  0  0  0  0  0  0  0  0  0
  -26.3880  -31.7680   25.1650 C   0  0  1  0  0  0  0  0  0  0  0  0
  -25.2880  -31.5330   26.2270 C   0  0  0  0  0  1  0  0  0  0  0  0
  -26.9650  -30.3880   24.7700 C   0  0  0  0  0  1  0  0  0  0  0  0
  -27.5410  -32.5520   25.8340 C   0  0  0  0  0  1  0  0  0  0  0  0
  1  4  1  0
  1  5  1  0
  2  6  1  0
  2  4  1  0
  3  6  1  0
  3  5  1  0
  4  9  1  0
  5 53  1  0
  6  8  1  0
  7  6  1  0
  9 10  1  0
 10 13  1  0
 10 11  1  0
 12 10  1  0
 13 14  1  0
 15 23  1  0
 16 21  1  0
 17 18  1  0
 17 16  1  0
 19 18  1  0
 19 28  1  0
 19 20  1  0
 21 15  1  0
 21 20  1  0
 22 15  2  0
 23 14  1  0
 23 24  1  0
 25 26  2  0
 26 45  1  0
 27 26  1  0
 27 30  1  0
 28 29  1  0
 28 25  1  0
 29 27  2  0
 30 31  1  0
 31 32  2  0
 33 36  1  0
 33 32  1  0
 34 33  2  0
 35 34  1  0
 35 30  2  0
 36 37  1  0
 37 38  1  0
 38 39  2  0
 40 39  1  0
 40 44  1  0
 41 40  2  0
 42 37  2  0
 42 41  1  0
 43 42  1  0
 45 46  1  0
 46 49  1  0
 46 48  1  0
 47 45  2  0
 50 51  1  0
 50 25  1  0
 52 50  1  0
 54 53  1  0
 55 66  2  0
 56 54  1  0
 56 61  1  0
 57 65  1  0
 57 67  1  0
 58 64  1  0
 58 60  1  0
 59 65  1  0
 60 61  2  0
 60 59  1  0
 62 56  2  0
 63 62  1  0
 63 58  2  0
 64 57  1  0
 65 55  1  0
 67 69  2  0
 68 67  1  0
 70 68  1  0
 71 80  2  0
 71 76  1  0
 72 68  1  0
 72 76  1  0
 73 72  1  0
 74 75  1  0
 74 73  1  0
 75 71  1  0
 76 77  2  0
 77 78  1  0
 79 78  2  0
 80 79  1  0
 81 55  1  0
 81 82  1  0
 81 91  1  0
 82 85  1  0
 83 87  1  0
 83 82  1  0
 84 83  2  0
 87 86  1  0
 89 87  1  0
 89 90  1  0
 89 88  1  0
 91 94  1  1
 91 92  1  0
 93 91  1  0
M  ISO  4  15 100  23 100  53 101  54 101
M  END
>  <TORSDO>  (67) 
F 21

>  <SCORE>  (67) 
-13.529

>  <name>  (67) 
66

>  <ligand_id>  (67) 
66

>  <original_smiles>  (67) 
[H]c1c([H])c([H])c2c(c1[H])C([H])([H])C([H])([H])C([H])([H])C2([H])N([H])C(=O)C1([H])N(C(=O)C([H])(N([H])C(=O)C([H])(N([H])C([H])([H])[H])C([H])([H])[H])C(C([H])([H])[H])(C([H])([H])[H])C([H])([H])[H])C([H])([H])c2c([H])c(OC([H])([H])C3([H])C([H])([H])C([H])(C([H])([H])[N+]([H])([H])C([H])([H])C([H])([H])N([H])C(=O)N4C([H])([H])C([H])([H])C([H])([H])C([H])(n5nc(-c6c([H])c([H])c(Oc7c([H])c([H])c(F)c([H])c7F)c([H])c6[H])c(C(=O)N([H])[H])c5N([H])[H])C4([H])[H])C([H])([H])[N+]([H])([H])C3([H])[H])c([H])c([H])c2C1([H])[H]

>  <smiles>  (67) 
[H]c1c([H])c([H])c2c(c1[H])C([H])([H])C([H])([H])C([H])([H])C2([H])N([H])C(=O)C1([H])N(C(=O)C([H])(N([H])C(=O)C([H])(N([H])C([H])([H])[H])C([H])([H])[H])C(C([H])([H])[H])(C([H])([H])[H])C([H])([H])[H])C([H])([H])c2c([H])c(OC([H])([H])C3([H])C([H])([H])C([H])(C([H])([H])[N+]([H])([H])C([H])([H])C([H])([H])N([H])C(=O)N4C([H])([H])C([H])([H])C([H])([H])C([H])(n5nc(-c6c([H])c([H])c(Oc7c([H])c([H])c(F)c([H])c7F)c([H])c6[H])c(C(=O)N([H])[H])c5N([H])[H])C4([H])[H])C([H])([H])[N+]([H])([H])C3([H])[H])c([H])c([H])c2C1([H])[H]

$$$$
67:0:0
     RDKit          3D

 95104  0  0  1  0  0  0  0  0999 V2000
  -26.3920  -21.9960   21.7490 C   0  0  0  0  0  3  0  0  0  0  0  0
  -27.2110  -21.0910   21.0450 C   0  0  0  0  0  3  0  0  0  0  0  0
  -28.4940  -22.9420   20.0640 C   0  0  0  0  0  3  0  0  0  0  0  0
  -26.6190  -23.3700   21.5670 C   0  0  0  0  0  0  0  0  0  0  0  0
  -27.6410  -23.8280   20.7450 C   0  0  0  0  0  0  0  0  0  0  0  0
  -28.2610  -21.5570   20.2090 C   0  0  0  0  0  0  0  0  0  0  0  0
  -25.7500  -24.4900   22.0730 C   0  0  0  0  0  2  0  0  0  0  0  0
  -26.4010  -25.7660   21.4900 C   0  0  0  0  0  2  0  0  0  0  0  0
  -27.5000  -25.3000   20.4930 C   0  0  0  0  0  3  0  0  0  0  0  0
  -29.1080  -20.5550   19.4600 C   0  0  0  0  0  2  0  0  0  0  0  0
  -29.6330  -19.5740   20.4240 N   0  0  0  0  0  4  0  0  0  0  0  0
  -28.8480  -19.2890   20.9820 H   0  0  0  0  0  0  0  0  0  0  0  0
  -30.2780  -20.0470   21.0330 H   0  0  0  0  0  0  0  0  0  0  0  0
  -30.2510  -18.3770   19.8210 C   0  0  0  0  0  2  0  0  0  0  0  0
  -29.9850  -17.1080   20.6680 C   0  0  0  0  0  2  0  0  0  0  0  0
  -31.2420  -14.9560   20.6030 C   0  0  0  0  0  0  0  0  0  0  0  0
  -31.0380  -12.7030   19.7070 C   0  0  0  0  0  2  0  0  0  0  0  0
  -30.1980  -12.7830   18.4160 C   0  0  0  0  0  2  0  0  0  0  0  0
  -28.6870  -12.7260   18.7270 C   0  0  0  0  0  2  0  0  0  0  0  0
  -28.2460  -13.6520   19.8950 C   0  0  0  0  0  3  0  0  0  0  0  0
  -29.2140  -13.5490   21.0950 C   0  0  0  0  0  2  0  0  0  0  0  0
  -30.5770  -13.7730   20.5910 N   0  0  0  0  0  0  0  0  0  0  0  0
  -32.4590  -15.0540   20.4810 O   0  0  0  0  0  0  0  0  0  0  0  0
  -30.5290  -15.9220   20.0130 N   0  0  0  0  0  0  0  0  0  0  0  0
  -30.9660  -16.1690   19.1340 H   0  0  0  0  0  0  0  0  0  0  0  0
  -25.8190  -14.3190   20.4500 C   0  0  0  0  0  0  0  0  0  0  0  0
  -24.7120  -13.5750   20.7550 C   0  0  0  0  0  0  0  0  0  0  0  0
  -25.1420  -12.2110   20.7550 C   0  0  0  0  0  0  0  0  0  0  0  0
  -26.8580  -13.4130   20.2840 N   0  0  0  0  0  0  0  0  0  0  0  0
  -26.4490  -12.1440   20.5240 N   0  0  0  0  0  0  0  0  0  0  0  0
  -24.3790  -10.9650   20.8940 C   0  0  0  0  0  0  0  0  0  0  0  0
  -24.6970  -10.0090   21.8820 C   0  0  0  0  0  3  0  0  0  0  0  0
  -23.9350   -8.8240   22.0040 C   0  0  0  0  0  3  0  0  0  0  0  0
  -22.8390   -8.5930   21.1380 C   0  0  0  0  0  0  0  0  0  0  0  0
  -22.5410   -9.5400   20.1400 C   0  0  0  0  0  3  0  0  0  0  0  0
  -23.3020  -10.7160   20.0160 C   0  0  0  0  0  3  0  0  0  0  0  0
  -22.0580   -7.4630   21.1670 O   0  0  0  0  0  0  0  0  0  0  0  0
  -21.8220   -6.7820   22.3350 C   0  0  0  0  0  0  0  0  0  0  0  0
  -21.2110   -7.4020   23.4480 C   0  0  0  0  0  3  0  0  0  0  0  0
  -20.9220   -6.6490   24.6040 C   0  0  0  0  0  3  0  0  0  0  0  0
  -21.2360   -5.2770   24.6490 C   0  0  0  0  0  0  0  0  0  0  0  0
  -21.8430   -4.6580   23.5400 C   0  0  0  0  0  3  0  0  0  0  0  0
  -22.1320   -5.4070   22.3880 C   0  0  0  0  0  0  0  0  0  0  0  0
  -22.6950   -4.8030   21.3140 F   0  0  0  0  0  0  0  0  0  0  0  0
  -20.9560   -4.5510   25.7560 F   0  0  0  0  0  0  0  0  0  0  0  0
  -23.3090  -14.0870   20.9300 C   0  0  0  0  0  0  0  0  0  0  0  0
  -22.5040  -13.4230   21.7520 N   0  0  0  0  0  0  0  0  0  0  0  0
  -22.9300  -15.1170   20.3710 O   0  0  0  0  0  0  0  0  0  0  0  0
  -22.8090  -12.5860   22.2250 H   0  0  0  0  0  0  0  0  0  0  0  0
  -21.5620  -13.7570   21.8970 H   0  0  0  0  0  0  0  0  0  0  0  0
  -26.0420  -15.6820   20.2880 N   0  0  0  0  0  0  0  0  0  0  0  0
  -25.3060  -16.3750   20.3510 H   0  0  0  0  0  0  0  0  0  0  0  0
  -26.9240  -16.0620   19.9740 H   0  0  0  0  0  0  0  0  0  0  0  0
  -28.7910  -26.1700   20.4510 C   0  0  0  0  0  2  0  0  0  0  0  0
  -28.7080  -27.3280   19.5990 O   0  0  0  0  0  0  0  0  0  0  0  0
  -24.9360  -31.8550   23.5720 C   0  0  0  0  0  0  0  0  0  0  0  0
  -27.5720  -28.0830   19.7280 C   0  0  0  0  0  0  0  0  0  0  0  0
  -23.7220  -30.7730   21.7040 C   0  0  0  0  0  3  0  0  0  0  0  0
  -25.1760  -29.5260   20.0200 C   0  0  0  0  0  0  0  0  0  0  0  0
  -26.2440  -31.1550   21.5790 C   0  0  0  0  0  2  0  0  0  0  0  0
  -26.3260  -29.9220   20.7140 C   0  0  0  0  0  0  0  0  0  0  0  0
  -27.5270  -29.1850   20.5980 C   0  0  0  0  0  3  0  0  0  0  0  0
  -26.4400  -27.7700   18.9470 C   0  0  0  0  0  3  0  0  0  0  0  0
  -25.2230  -28.4380   19.1390 C   0  0  0  0  0  3  0  0  0  0  0  0
  -23.9280  -30.3480   20.2250 C   0  0  0  0  0  2  0  0  0  0  0  0
  -24.9830  -31.2660   22.3440 N   0  0  0  0  0  0  0  0  0  0  0  0
  -23.8570  -32.0260   24.1580 O   0  0  0  0  0  0  0  0  0  0  0  0
  -23.0720  -29.5910   22.4600 C   0  0  0  0  0  0  0  0  0  0  0  0
  -21.7550  -29.4090   22.2750 N   0  0  0  0  0  0  0  0  0  0  0  0
  -23.7560  -28.8460   23.1700 O   0  0  0  0  0  0  0  0  0  0  0  0
  -21.2660  -30.0400   21.6530 H   0  0  0  0  0  0  0  0  0  0  0  0
  -18.3940  -28.1290   22.5570 C   0  0  0  0  0  0  0  0  0  0  0  0
  -20.9520  -28.3370   22.8690 C   0  0  0  0  0  3  0  0  0  0  0  0
  -21.0630  -27.0370   22.0350 C   0  0  0  0  0  2  0  0  0  0  0  0
  -19.9490  -26.8860   20.9920 C   0  0  0  0  0  2  0  0  0  0  0  0
  -18.5690  -26.9220   21.6550 C   0  0  0  0  0  2  0  0  0  0  0  0
  -19.5100  -28.7960   23.1270 C   0  0  0  0  0  0  0  0  0  0  0  0
  -19.2830  -29.9140   23.9590 C   0  0  0  0  0  3  0  0  0  0  0  0
  -17.9780  -30.3840   24.2010 C   0  0  0  0  0  3  0  0  0  0  0  0
  -16.8790  -29.7180   23.6330 C   0  0  0  0  0  3  0  0  0  0  0  0
  -17.0870  -28.5910   22.8200 C   0  0  0  0  0  3  0  0  0  0  0  0
  -26.2270  -32.3680   24.2820 C   0  0  0  0  0  3  0  0  0  0  0  0
  -25.9660  -33.7420   24.7350 N   0  0  0  0  0  0  0  0  0  0  0  0
  -26.3660  -34.8430   24.0840 C   0  0  0  0  0  0  0  0  0  0  0  0
  -27.0680  -34.8040   23.0680 O   0  0  0  0  0  0  0  0  0  0  0  0
  -25.3540  -33.8480   25.5310 H   0  0  0  0  0  0  0  0  0  0  0  0
  -24.7340  -36.7330   23.8350 C   0  0  0  0  0  1  0  0  0  0  0  0
  -25.9210  -36.2030   24.6540 C   0  0  0  0  0  3  0  0  0  0  0  0
  -28.0560  -36.9080   25.6370 C   0  0  0  0  0  1  0  0  0  0  0  0
  -27.0020  -37.2130   24.6700 N   0  0  0  0  0  0  0  0  0  0  0  0
  -26.6320  -38.1370   24.8750 H   0  0  0  0  0  0  0  0  0  0  0  0
  -26.6760  -31.4570   25.4880 C   0  0  1  0  0  0  0  0  0  0  0  0
  -25.5360  -31.1390   26.4830 C   0  0  0  0  0  1  0  0  0  0  0  0
  -27.2380  -30.1120   24.9780 C   0  0  0  0  0  1  0  0  0  0  0  0
  -27.8190  -32.1440   26.2660 C   0  0  0  0  0  1  0  0  0  0  0  0
  2  1  2  0
  3  6  2  0
  3  5  1  0
  4  1  1  0
  4  7  1  0
  5  4  2  0
  6  2  1  0
  8  7  1  0
  9 54  1  0
  9  5  1  0
  9  8  1  0
 10  6  1  0
 10 11  1  0
 11 12  1  0
 11 13  1  0
 14 11  1  0
 14 15  1  0
 17 22  1  0
 18 19  1  0
 18 17  1  0
 20 19  1  0
 20 29  1  0
 20 21  1  0
 22 16  1  0
 22 21  1  0
 23 16  2  0
 24 16  1  0
 24 15  1  0
 25 24  1  0
 26 27  2  0
 27 28  1  0
 27 46  1  0
 28 31  1  0
 29 26  1  0
 29 30  1  0
 30 28  2  0
 31 32  1  0
 32 33  2  0
 34 37  1  0
 34 33  1  0
 35 34  2  0
 36 35  1  0
 36 31  2  0
 37 38  1  0
 38 43  2  0
 38 39  1  0
 39 40  2  0
 40 41  1  0
 41 45  1  0
 42 41  2  0
 43 42  1  0
 44 43  1  0
 46 47  1  0
 47 50  1  0
 47 49  1  0
 48 46  2  0
 51 52  1  0
 51 26  1  0
 53 51  1  0
 55 57  1  0
 55 54  1  0
 56 67  2  0
 57 62  1  0
 58 66  1  0
 58 68  1  0
 59 65  1  0
 59 61  1  0
 60 66  1  0
 61 60  1  0
 62 61  2  0
 63 64  1  0
 63 57  2  0
 64 59  2  0
 65 58  1  0
 66 56  1  0
 68 70  2  0
 69 68  1  0
 71 69  1  0
 72 81  2  0
 72 77  1  0
 73 69  1  0
 73 77  1  0
 74 73  1  0
 75 76  1  0
 75 74  1  0
 76 72  1  0
 77 78  2  0
 78 79  1  0
 80 79  2  0
 81 80  1  0
 82 56  1  0
 82 83  1  0
 82 92  1  0
 83 86  1  0
 84 88  1  0
 84 83  1  0
 85 84  2  0
 88 87  1  0
 88 90  1  0
 90 91  1  0
 90 89  1  0
 92 95  1  1
 92 93  1  0
 94 92  1  0
M  ISO  4  16 100  24 100  54 101  55 101
M  END
>  <TORSDO>  (68) 
F 21

>  <SCORE>  (68) 
-9.344

>  <name>  (68) 
67

>  <ligand_id>  (68) 
67

>  <original_smiles>  (68) 
[H]c1c([H])c([H])c2c(c1[H])C([H])([H])C([H])([H])C([H])([H])C2([H])N([H])C(=O)C1([H])N(C(=O)C([H])(N([H])C(=O)C([H])(N([H])C([H])([H])[H])C([H])([H])[H])C(C([H])([H])[H])(C([H])([H])[H])C([H])([H])[H])C([H])([H])c2c([H])c(OC([H])([H])C3([H])c4c([H])c(C([H])([H])[N+]([H])([H])C([H])([H])C([H])([H])N([H])C(=O)N5C([H])([H])C([H])([H])C([H])([H])C([H])(n6nc(-c7c([H])c([H])c(Oc8c([H])c([H])c(F)c([H])c8F)c([H])c7[H])c(C(=O)N([H])[H])c6N([H])[H])C5([H])[H])c([H])c([H])c4C([H])([H])C3([H])[H])c([H])c([H])c2C1([H])[H]

>  <smiles>  (68) 
[H]c1c([H])c([H])c2c(c1[H])C([H])([H])C([H])([H])C([H])([H])C2([H])N([H])C(=O)C1([H])N(C(=O)C([H])(N([H])C(=O)C([H])(N([H])C([H])([H])[H])C([H])([H])[H])C(C([H])([H])[H])(C([H])([H])[H])C([H])([H])[H])C([H])([H])c2c([H])c(OC([H])([H])C3([H])c4c([H])c(C([H])([H])[N+]([H])([H])C([H])([H])C([H])([H])N([H])C(=O)N5C([H])([H])C([H])([H])C([H])([H])C([H])(n6nc(-c7c([H])c([H])c(Oc8c([H])c([H])c(F)c([H])c8F)c([H])c7[H])c(C(=O)N([H])[H])c6N([H])[H])C5([H])[H])c([H])c([H])c4C([H])([H])C3([H])[H])c([H])c([H])c2C1([H])[H]

$$$$
68:0:0
     RDKit          3D

 91 99  0  0  1  0  0  0  0  0999 V2000
  -30.5200  -23.1080   18.5470 C   0  0  0  0  0  3  0  0  0  0  0  0
  -30.9930  -21.7400   18.6870 C   0  0  0  0  0  3  0  0  0  0  0  0
  -28.8010  -22.6570   20.0890 C   0  0  0  0  0  3  0  0  0  0  0  0
  -29.2350  -21.2770   20.2250 C   0  0  0  0  0  0  0  0  0  0  0  0
  -29.3900  -23.6470   19.2440 C   0  0  0  0  0  0  0  0  0  0  0  0
  -30.3800  -20.7390   19.5150 C   0  0  0  0  0  0  0  0  0  0  0  0
  -28.4030  -20.4240   21.1520 C   0  0  0  0  0  0  0  0  0  0  0  0
  -28.0490  -19.2740   20.8210 O   0  0  0  0  0  0  0  0  0  0  0  0
  -28.0230  -20.8920   22.2440 O   0  0  0  0  0  1  0  0  0  0  0  0
  -31.0340  -19.2510   19.8060 C   0  0  0  0  0  2  0  0  0  0  0  0
  -30.8180  -17.8430   18.9700 C   0  0  0  0  0  2  0  0  0  0  0  0
  -31.6220  -15.2630   19.4010 C   0  0  0  0  0  0  0  0  0  0  0  0
  -31.3830  -12.8650   18.6740 C   0  0  0  0  0  2  0  0  0  0  0  0
  -30.3310  -12.7850   17.5420 C   0  0  0  0  0  2  0  0  0  0  0  0
  -28.9140  -12.6400   18.1230 C   0  0  0  0  0  2  0  0  0  0  0  0
  -28.6390  -13.6580   19.2610 C   0  0  0  0  0  3  0  0  0  0  0  0
  -29.7970  -13.7070   20.2840 C   0  0  0  0  0  2  0  0  0  0  0  0
  -31.0280  -14.0180   19.5450 N   0  0  0  0  0  0  0  0  0  0  0  0
  -32.7470  -15.3250   18.8970 O   0  0  0  0  0  0  0  0  0  0  0  0
  -30.8600  -16.4210   19.6270 N   0  0  0  0  0  0  0  0  0  0  0  0
  -30.0110  -16.2090   20.1290 H   0  0  0  0  0  0  0  0  0  0  0  0
  -26.4360  -14.3560   20.3690 C   0  0  0  0  0  0  0  0  0  0  0  0
  -25.3550  -13.6370   20.7980 C   0  0  0  0  0  0  0  0  0  0  0  0
  -25.6760  -12.2630   20.5670 C   0  0  0  0  0  0  0  0  0  0  0  0
  -27.3490  -13.4250   19.9000 N   0  0  0  0  0  0  0  0  0  0  0  0
  -26.9060  -12.1530   20.0810 N   0  0  0  0  0  0  0  0  0  0  0  0
  -24.8570  -11.0550   20.7260 C   0  0  0  0  0  0  0  0  0  0  0  0
  -25.2130  -10.0370   21.6390 C   0  0  0  0  0  3  0  0  0  0  0  0
  -24.4000   -8.8940   21.7870 C   0  0  0  0  0  3  0  0  0  0  0  0
  -23.2160   -8.7600   21.0240 C   0  0  0  0  0  0  0  0  0  0  0  0
  -22.8780   -9.7660   20.1010 C   0  0  0  0  0  3  0  0  0  0  0  0
  -23.6910  -10.9010   19.9500 C   0  0  0  0  0  3  0  0  0  0  0  0
  -22.3770   -7.6730   21.0840 O   0  0  0  0  0  0  0  0  0  0  0  0
  -22.1190   -7.0260   22.2660 C   0  0  0  0  0  0  0  0  0  0  0  0
  -21.5250   -7.6890   23.3620 C   0  0  0  0  0  3  0  0  0  0  0  0
  -21.2130   -6.9700   24.5330 C   0  0  0  0  0  3  0  0  0  0  0  0
  -21.4840   -5.5910   24.6080 C   0  0  0  0  0  0  0  0  0  0  0  0
  -22.0720   -4.9300   23.5150 C   0  0  0  0  0  3  0  0  0  0  0  0
  -22.3860   -5.6450   22.3470 C   0  0  0  0  0  0  0  0  0  0  0  0
  -22.9320   -4.9980   21.2880 F   0  0  0  0  0  0  0  0  0  0  0  0
  -21.1790   -4.8990   25.7300 F   0  0  0  0  0  0  0  0  0  0  0  0
  -24.0580  -14.1960   21.3060 C   0  0  0  0  0  0  0  0  0  0  0  0
  -23.4010  -13.4910   22.2190 N   0  0  0  0  0  0  0  0  0  0  0  0
  -23.6440  -15.2920   20.9290 O   0  0  0  0  0  0  0  0  0  0  0  0
  -23.7500  -12.5990   22.5390 H   0  0  0  0  0  0  0  0  0  0  0  0
  -22.5360  -13.8460   22.6020 H   0  0  0  0  0  0  0  0  0  0  0  0
  -26.7110  -15.7180   20.3150 N   0  0  0  0  0  0  0  0  0  0  0  0
  -26.0470  -16.4160   20.6330 H   0  0  0  0  0  0  0  0  0  0  0  0
  -27.5610  -16.1270   19.9490 H   0  0  0  0  0  0  0  0  0  0  0  0
  -28.5860  -25.0170   18.8550 C   0  0  0  0  0  2  0  0  0  0  0  0
  -28.7890  -26.4790   19.2920 O   0  0  0  0  0  0  0  0  0  0  0  0
  -24.6500  -31.4340   22.7740 C   0  0  0  0  0  0  0  0  0  0  0  0
  -27.6490  -27.3590   19.2850 C   0  0  0  0  0  0  0  0  0  0  0  0
  -23.5680  -30.0750   21.0260 C   0  0  0  0  0  3  0  0  0  0  0  0
  -25.1460  -28.8210   19.4400 C   0  0  0  0  0  0  0  0  0  0  0  0
  -26.0740  -30.6350   20.8610 C   0  0  0  0  0  2  0  0  0  0  0  0
  -26.2820  -29.3310   20.0810 C   0  0  0  0  0  0  0  0  0  0  0  0
  -27.5310  -28.6140   20.0000 C   0  0  0  0  0  3  0  0  0  0  0  0
  -26.4820  -26.9690   18.5840 C   0  0  0  0  0  3  0  0  0  0  0  0
  -25.2560  -27.6530   18.6780 C   0  0  0  0  0  3  0  0  0  0  0  0
  -23.8290  -29.5630   19.5860 C   0  0  0  0  0  2  0  0  0  0  0  0
  -24.7810  -30.7320   21.6090 N   0  0  0  0  0  0  0  0  0  0  0  0
  -23.5520  -31.5500   23.3400 O   0  0  0  0  0  0  0  0  0  0  0  0
  -23.0260  -28.9130   21.8940 C   0  0  0  0  0  0  0  0  0  0  0  0
  -21.7210  -28.6130   21.7700 N   0  0  0  0  0  0  0  0  0  0  0  0
  -23.7800  -28.2890   22.6450 O   0  0  0  0  0  0  0  0  0  0  0  0
  -21.1610  -29.1760   21.1440 H   0  0  0  0  0  0  0  0  0  0  0  0
  -18.4990  -27.0170   22.2030 C   0  0  0  0  0  0  0  0  0  0  0  0
  -21.0220  -27.5240   22.4570 C   0  0  0  0  0  3  0  0  0  0  0  0
  -21.2610  -26.1720   21.7470 C   0  0  0  0  0  2  0  0  0  0  0  0
  -20.1720  -25.8270   20.7240 C   0  0  0  0  0  2  0  0  0  0  0  0
  -18.8010  -25.7610   21.4000 C   0  0  0  0  0  2  0  0  0  0  0  0
  -19.5410  -27.8510   22.6860 C   0  0  0  0  0  0  0  0  0  0  0  0
  -19.2050  -29.0220   23.4000 C   0  0  0  0  0  3  0  0  0  0  0  0
  -17.8590  -29.3640   23.6300 C   0  0  0  0  0  3  0  0  0  0  0  0
  -16.8320  -28.5270   23.1610 C   0  0  0  0  0  3  0  0  0  0  0  0
  -17.1530  -27.3550   22.4540 C   0  0  0  0  0  3  0  0  0  0  0  0
  -25.8680  -32.1430   23.4390 C   0  0  0  0  0  3  0  0  0  0  0  0
  -26.4870  -31.3200   24.6360 C   0  0  1  0  0  0  0  0  0  0  0  0
  -25.4440  -30.8770   25.6880 C   0  0  0  0  0  1  0  0  0  0  0  0
  -27.2020  -30.0490   24.1220 C   0  0  0  0  0  1  0  0  0  0  0  0
  -27.5600  -32.1700   25.3550 C   0  0  0  0  0  1  0  0  0  0  0  0
  -25.4170  -33.4640   23.9030 N   0  0  0  0  0  0  0  0  0  0  0  0
  -25.6870  -34.6230   23.2880 C   0  0  0  0  0  0  0  0  0  0  0  0
  -26.4100  -34.6970   22.2910 O   0  0  0  0  0  0  0  0  0  0  0  0
  -24.7720  -33.4730   24.6800 H   0  0  0  0  0  0  0  0  0  0  0  0
  -23.8380  -36.3100   23.0330 C   0  0  0  0  0  1  0  0  0  0  0  0
  -25.0580  -35.9030   23.8730 C   0  0  0  0  0  3  0  0  0  0  0  0
  -27.0490  -36.8470   24.9600 C   0  0  0  0  0  1  0  0  0  0  0  0
  -26.0030  -37.0380   23.9570 N   0  0  0  0  0  0  0  0  0  0  0  0
  -25.5100  -37.9010   24.1740 H   0  0  0  0  0  0  0  0  0  0  0  0
  1  2  2  0
  1  5  1  0
  2  6  1  0
  3  4  1  0
  4  7  1  0
  5  3  2  0
  6 10  1  0
  6  4  2  0
  7  9  1  0
  8  7  2  0
 11 20  1  0
 11 10  1  0
 12 18  1  0
 12 20  1  0
 13 18  1  0
 14 15  1  0
 14 13  1  0
 16 15  1  0
 16 25  1  0
 16 17  1  0
 18 17  1  0
 19 12  2  0
 20 21  1  0
 22 23  2  0
 23 42  1  0
 24 27  1  0
 24 23  1  0
 25 26  1  0
 25 22  1  0
 26 24  2  0
 27 28  1  0
 28 29  2  0
 30 33  1  0
 30 29  1  0
 31 30  2  0
 32 31  1  0
 32 27  2  0
 33 34  1  0
 34 39  2  0
 34 35  1  0
 35 36  2  0
 36 37  1  0
 37 41  1  0
 38 37  2  0
 39 38  1  0
 40 39  1  0
 42 43  1  0
 43 45  1  0
 43 46  1  0
 44 42  2  0
 47 22  1  0
 47 48  1  0
 49 47  1  0
 50  5  1  0
 50 51  1  0
 52 63  2  0
 53 51  1  0
 53 58  1  0
 54 62  1  0
 54 64  1  0
 55 61  1  0
 55 57  1  0
 56 62  1  0
 57 56  1  0
 58 57  2  0
 59 60  1  0
 59 53  2  0
 60 55  2  0
 61 54  1  0
 62 52  1  0
 64 66  2  0
 65 64  1  0
 67 65  1  0
 68 77  2  0
 68 73  1  0
 69 65  1  0
 69 73  1  0
 70 69  1  0
 71 72  1  0
 71 70  1  0
 72 68  1  0
 73 74  2  0
 74 75  1  0
 76 75  2  0
 77 76  1  0
 78 52  1  0
 78 83  1  0
 78 79  1  0
 79 82  1  1
 79 80  1  0
 81 79  1  0
 83 86  1  0
 84 88  1  0
 84 83  1  0
 85 84  2  0
 88 87  1  0
 88 90  1  0
 90 91  1  0
 90 89  1  0
M  ISO  4  12 100  20 100  50 101  51 101
M  END
>  <TORSDO>  (69) 
F 20

>  <SCORE>  (69) 
-8.848

>  <name>  (69) 
68

>  <ligand_id>  (69) 
68

>  <original_smiles>  (69) 
[H]c1c([H])c([H])c2c(c1[H])C([H])([H])C([H])([H])C([H])([H])C2([H])N([H])C(=O)C1([H])N(C(=O)C([H])(N([H])C(=O)C([H])(N([H])C([H])([H])[H])C([H])([H])[H])C(C([H])([H])[H])(C([H])([H])[H])C([H])([H])[H])C([H])([H])c2c([H])c(OC([H])([H])c3c([H])c([H])c(C([H])([H])C([H])([H])N([H])C(=O)N4C([H])([H])C([H])([H])C([H])([H])C([H])(n5nc(-c6c([H])c([H])c(Oc7c([H])c([H])c(F)c([H])c7F)c([H])c6[H])c(C(=O)N([H])[H])c5N([H])[H])C4([H])[H])c(C(=O)[O-])c3[H])c([H])c([H])c2C1([H])[H]

>  <smiles>  (69) 
[H]c1c([H])c([H])c2c(c1[H])C([H])([H])C([H])([H])C([H])([H])C2([H])N([H])C(=O)C1([H])N(C(=O)C([H])(N([H])C(=O)C([H])(N([H])C([H])([H])[H])C([H])([H])[H])C(C([H])([H])[H])(C([H])([H])[H])C([H])([H])[H])C([H])([H])c2c([H])c(OC([H])([H])c3c([H])c([H])c(C([H])([H])C([H])([H])N([H])C(=O)N4C([H])([H])C([H])([H])C([H])([H])C([H])(n5nc(-c6c([H])c([H])c(Oc7c([H])c([H])c(F)c([H])c7F)c([H])c6[H])c(C(=O)N([H])[H])c5N([H])[H])C4([H])[H])c(C(=O)[O-])c3[H])c([H])c([H])c2C1([H])[H]

$$$$
69:0:0
     RDKit          3D

 97106  0  0  1  0  0  0  0  0999 V2000
  -29.7790  -23.6640   23.2710 C   0  0  0  0  0  2  0  0  0  0  0  0
  -30.3460  -24.9710   23.8380 C   0  0  0  0  0  2  0  0  0  0  0  0
  -29.0460  -26.2600   22.2040 C   0  0  0  0  0  2  0  0  0  0  0  0
  -29.4290  -23.7670   21.7610 C   0  0  0  0  0  3  0  0  0  0  0  0
  -28.4500  -24.9800   21.5440 C   0  0  0  0  0  3  0  0  0  0  0  0
  -29.3920  -26.0700   23.6260 N   0  0  0  0  0  4  0  0  0  0  0  0
  -29.7980  -26.9220   23.9820 H   0  0  0  0  0  0  0  0  0  0  0  0
  -28.5570  -25.8940   24.1620 H   0  0  0  0  0  0  0  0  0  0  0  0
  -28.9530  -22.3650   21.2510 C   0  0  0  0  0  2  0  0  0  0  0  0
  -30.1230  -21.3410   21.1110 C   0  0  0  0  0  2  0  0  0  0  0  0
  -29.0450  -17.7460   20.0970 C   0  0  0  0  0  2  0  0  0  0  0  0
  -30.5090  -17.6110   22.1000 C   0  0  0  0  0  2  0  0  0  0  0  0
  -29.3610  -19.2600   19.9670 C   0  0  0  0  0  2  0  0  0  0  0  0
  -30.8250  -19.1190   21.9490 C   0  0  0  0  0  2  0  0  0  0  0  0
  -30.2150  -16.9680   20.7350 C   0  0  0  0  0  3  0  0  0  0  0  0
  -29.7500  -19.8960   21.2600 N   0  0  1  0  0  4  0  0  0  0  0  0
  -28.9460  -19.8650   21.8680 H   0  0  0  0  0  0  0  0  0  0  0  0
  -30.6400  -14.5250   20.2950 C   0  0  0  0  0  0  0  0  0  0  0  0
  -30.3660  -12.3780   19.1180 C   0  0  0  0  0  2  0  0  0  0  0  0
  -29.3800  -12.5740   17.9470 C   0  0  0  0  0  2  0  0  0  0  0  0
  -27.9250  -12.3880   18.4210 C   0  0  0  0  0  2  0  0  0  0  0  0
  -27.6040  -13.1930   19.7090 C   0  0  0  0  0  3  0  0  0  0  0  0
  -28.7010  -12.9840   20.7810 C   0  0  0  0  0  2  0  0  0  0  0  0
  -29.9990  -13.3310   20.1770 N   0  0  0  0  0  0  0  0  0  0  0  0
  -31.7430  -14.7430   19.7850 O   0  0  0  0  0  0  0  0  0  0  0  0
  -29.9200  -15.5230   20.8440 N   0  0  0  0  0  0  0  0  0  0  0  0
  -29.0330  -15.2560   21.2450 H   0  0  0  0  0  0  0  0  0  0  0  0
  -25.2040  -13.7120   20.4810 C   0  0  0  0  0  0  0  0  0  0  0  0
  -24.1760  -12.9010   20.8770 C   0  0  0  0  0  0  0  0  0  0  0  0
  -24.6840  -11.5680   20.8340 C   0  0  0  0  0  0  0  0  0  0  0  0
  -26.2750  -12.8700   20.2240 N   0  0  0  0  0  0  0  0  0  0  0  0
  -25.9670  -11.5750   20.4930 N   0  0  0  0  0  0  0  0  0  0  0  0
  -24.0100  -10.2800   21.0430 C   0  0  0  0  0  0  0  0  0  0  0  0
  -24.4500   -9.3670   22.0280 C   0  0  0  0  0  3  0  0  0  0  0  0
  -23.7740   -8.1430   22.2210 C   0  0  0  0  0  3  0  0  0  0  0  0
  -22.6470   -7.8210   21.4290 C   0  0  0  0  0  0  0  0  0  0  0  0
  -22.2270   -8.7230   20.4350 C   0  0  0  0  0  3  0  0  0  0  0  0
  -22.9040   -9.9380   20.2400 C   0  0  0  0  0  3  0  0  0  0  0  0
  -21.9440   -6.6440   21.5290 O   0  0  0  0  0  0  0  0  0  0  0  0
  -21.8200   -5.9800   22.7220 C   0  0  0  0  0  0  0  0  0  0  0  0
  -21.1920   -6.5690   23.8410 C   0  0  0  0  0  3  0  0  0  0  0  0
  -21.0240   -5.8260   25.0260 C   0  0  0  0  0  3  0  0  0  0  0  0
  -21.4710   -4.4930   25.0930 C   0  0  0  0  0  0  0  0  0  0  0  0
  -22.0900   -3.9020   23.9770 C   0  0  0  0  0  3  0  0  0  0  0  0
  -22.2610   -4.6430   22.7940 C   0  0  0  0  0  0  0  0  0  0  0  0
  -22.8390   -4.0620   21.7150 F   0  0  0  0  0  0  0  0  0  0  0  0
  -21.3020   -3.7750   26.2280 F   0  0  0  0  0  0  0  0  0  0  0  0
  -22.7690  -13.3270   21.1870 C   0  0  0  0  0  0  0  0  0  0  0  0
  -22.0900  -12.6050   22.0710 N   0  0  0  0  0  0  0  0  0  0  0  0
  -22.2790  -14.3360   20.6800 O   0  0  0  0  0  0  0  0  0  0  0  0
  -22.4990  -11.7880   22.5030 H   0  0  0  0  0  0  0  0  0  0  0  0
  -21.1470  -12.8710   22.3190 H   0  0  0  0  0  0  0  0  0  0  0  0
  -25.3140  -15.0880   20.2980 N   0  0  0  0  0  0  0  0  0  0  0  0
  -24.5240  -15.7120   20.4220 H   0  0  0  0  0  0  0  0  0  0  0  0
  -26.1340  -15.5540   19.9310 H   0  0  0  0  0  0  0  0  0  0  0  0
  -28.1070  -25.2640   20.0480 C   0  0  0  0  0  2  0  0  0  0  0  0
  -28.0410  -26.6700   19.7460 O   0  0  0  0  0  0  0  0  0  0  0  0
  -24.4790  -31.8190   23.1270 C   0  0  0  0  0  0  0  0  0  0  0  0
  -26.8550  -27.3660   19.8540 C   0  0  0  0  0  0  0  0  0  0  0  0
  -23.1570  -30.4900   21.5120 C   0  0  0  0  0  3  0  0  0  0  0  0
  -24.4990  -28.9310   19.9990 C   0  0  0  0  0  0  0  0  0  0  0  0
  -25.6790  -30.7800   21.2030 C   0  0  0  0  0  2  0  0  0  0  0  0
  -25.6950  -29.4170   20.5400 C   0  0  0  0  0  0  0  0  0  0  0  0
  -26.8740  -28.6450   20.4560 C   0  0  0  0  0  3  0  0  0  0  0  0
  -25.6400  -26.8870   19.3140 C   0  0  0  0  0  3  0  0  0  0  0  0
  -24.4660  -27.6650   19.3850 C   0  0  0  0  0  3  0  0  0  0  0  0
  -23.2850  -29.8250   20.1130 C   0  0  0  0  0  2  0  0  0  0  0  0
  -24.4600  -31.0440   22.0060 N   0  0  0  0  0  0  0  0  0  0  0  0
  -23.4330  -32.1100   23.7240 O   0  0  0  0  0  0  0  0  0  0  0  0
  -22.5200  -29.4690   22.4820 C   0  0  0  0  0  0  0  0  0  0  0  0
  -21.1900  -29.3030   22.3850 N   0  0  0  0  0  0  0  0  0  0  0  0
  -23.2160  -28.8290   23.2740 O   0  0  0  0  0  0  0  0  0  0  0  0
  -20.6910  -29.8710   21.7170 H   0  0  0  0  0  0  0  0  0  0  0  0
  -17.8190  -28.1320   22.9340 C   0  0  0  0  0  0  0  0  0  0  0  0
  -20.3810  -28.3680   23.1660 C   0  0  0  0  0  3  0  0  0  0  0  0
  -20.4640  -26.9390   22.5820 C   0  0  0  0  0  2  0  0  0  0  0  0
  -19.3420  -26.6290   21.5850 C   0  0  0  0  0  2  0  0  0  0  0  0
  -17.9720  -26.7830   22.2530 C   0  0  0  0  0  2  0  0  0  0  0  0
  -18.9500  -28.8830   23.3490 C   0  0  0  0  0  0  0  0  0  0  0  0
  -18.7530  -30.1460   23.9470 C   0  0  0  0  0  3  0  0  0  0  0  0
  -17.4550  -30.6580   24.1370 C   0  0  0  0  0  3  0  0  0  0  0  0
  -16.3380  -29.9040   23.7400 C   0  0  0  0  0  3  0  0  0  0  0  0
  -16.5200  -28.6430   23.1440 C   0  0  0  0  0  3  0  0  0  0  0  0
  -25.8120  -32.3960   23.7000 C   0  0  0  0  0  3  0  0  0  0  0  0
  -26.3660  -31.5760   24.9290 C   0  0  1  0  0  0  0  0  0  0  0  0
  -25.3180  -31.3390   26.0410 C   0  0  0  0  0  1  0  0  0  0  0  0
  -26.8920  -30.1970   24.4690 C   0  0  0  0  0  1  0  0  0  0  0  0
  -27.5670  -32.3210   25.5580 C   0  0  0  0  0  1  0  0  0  0  0  0
  -25.5630  -33.7930   24.0780 N   0  0  0  0  0  0  0  0  0  0  0  0
  -25.9250  -34.8550   23.3450 C   0  0  0  0  0  0  0  0  0  0  0  0
  -26.5730  -34.7570   22.2990 O   0  0  0  0  0  0  0  0  0  0  0  0
  -24.9860  -33.9460   24.8910 H   0  0  0  0  0  0  0  0  0  0  0  0
  -24.2750  -36.7310   23.0520 C   0  0  0  0  0  1  0  0  0  0  0  0
  -25.4970  -36.2460   23.8500 C   0  0  0  0  0  3  0  0  0  0  0  0
  -27.6600  -37.0150   24.7190 C   0  0  0  0  0  1  0  0  0  0  0  0
  -26.5740  -37.2560   23.7730 N   0  0  0  0  0  0  0  0  0  0  0  0
  -26.2070  -38.1890   23.9440 H   0  0  0  0  0  0  0  0  0  0  0  0
  1  2  1  0
  3  6  1  0
  4  9  1  0
  4  1  1  0
  5 56  1  0
  5  4  1  0
  5  3  1  0
  6  2  1  0
  6  7  1  0
  6  8  1  0
 10  9  1  0
 10 16  1  0
 11 15  1  0
 13 11  1  0
 13 16  1  0
 14 12  1  0
 15 26  1  0
 15 12  1  0
 16 17  1  1
 16 14  1  0
 18 26  1  0
 19 24  1  0
 20 21  1  0
 20 19  1  0
 22 21  1  0
 22 31  1  0
 22 23  1  0
 24 18  1  0
 24 23  1  0
 25 18  2  0
 26 27  1  0
 28 29  2  0
 29 48  1  0
 30 29  1  0
 30 33  1  0
 31 28  1  0
 31 32  1  0
 32 30  2  0
 33 34  1  0
 34 35  2  0
 36 39  1  0
 36 35  1  0
 37 36  2  0
 38 37  1  0
 38 33  2  0
 39 40  1  0
 40 45  2  0
 40 41  1  0
 41 42  2  0
 42 43  1  0
 43 47  1  0
 44 43  2  0
 45 44  1  0
 46 45  1  0
 48 49  1  0
 49 52  1  0
 49 51  1  0
 50 48  2  0
 53 54  1  0
 53 28  1  0
 55 53  1  0
 57 59  1  0
 57 56  1  0
 58 69  2  0
 59 64  1  0
 60 68  1  0
 60 70  1  0
 61 67  1  0
 61 63  1  0
 62 68  1  0
 63 62  1  0
 64 63  2  0
 65 66  1  0
 65 59  2  0
 66 61  2  0
 67 60  1  0
 68 58  1  0
 70 72  2  0
 71 70  1  0
 73 71  1  0
 74 83  2  0
 74 79  1  0
 75 71  1  0
 75 79  1  0
 76 75  1  0
 77 78  1  0
 77 76  1  0
 78 74  1  0
 79 80  2  0
 80 81  1  0
 82 81  2  0
 83 82  1  0
 84 58  1  0
 84 89  1  0
 84 85  1  0
 85 88  1  1
 85 86  1  0
 87 85  1  0
 89 92  1  0
 90 94  1  0
 90 89  1  0
 91 90  2  0
 94 93  1  0
 96 94  1  0
 96 97  1  0
 96 95  1  0
M  ISO  4  18 100  26 100  56 101  57 101
M  END
>  <TORSDO>  (70) 
F 20

>  <SCORE>  (70) 
-12.691

>  <name>  (70) 
69

>  <ligand_id>  (70) 
69

>  <original_smiles>  (70) 
[H]c1c([H])c([H])c2c(c1[H])C([H])([H])C([H])([H])C([H])([H])C2([H])N([H])C(=O)C1([H])N(C(=O)C([H])(N([H])C(=O)C([H])(N([H])C([H])([H])[H])C([H])([H])[H])C(C([H])([H])[H])(C([H])([H])[H])C([H])([H])[H])C([H])([H])c2c([H])c(OC([H])([H])C3([H])C([H])(C([H])([H])C([H])([H])[N+]4([H])C([H])([H])C([H])([H])C([H])(N([H])C(=O)N5C([H])([H])C([H])([H])C([H])([H])C([H])(n6nc(-c7c([H])c([H])c(Oc8c([H])c([H])c(F)c([H])c8F)c([H])c7[H])c(C(=O)N([H])[H])c6N([H])[H])C5([H])[H])C([H])([H])C4([H])[H])C([H])([H])C([H])([H])[N+]([H])([H])C3([H])[H])c([H])c([H])c2C1([H])[H]

>  <smiles>  (70) 
[H]c1c([H])c([H])c2c(c1[H])C([H])([H])C([H])([H])C([H])([H])C2([H])N([H])C(=O)C1([H])N(C(=O)C([H])(N([H])C(=O)C([H])(N([H])C([H])([H])[H])C([H])([H])[H])C(C([H])([H])[H])(C([H])([H])[H])C([H])([H])[H])C([H])([H])c2c([H])c(OC([H])([H])C3([H])C([H])(C([H])([H])C([H])([H])[N+]4([H])C([H])([H])C([H])([H])C([H])(N([H])C(=O)N5C([H])([H])C([H])([H])C([H])([H])C([H])(n6nc(-c7c([H])c([H])c(Oc8c([H])c([H])c(F)c([H])c8F)c([H])c7[H])c(C(=O)N([H])[H])c6N([H])[H])C5([H])[H])C([H])([H])C4([H])[H])C([H])([H])C([H])([H])[N+]([H])([H])C3([H])[H])c([H])c([H])c2C1([H])[H]

$$$$
70:0:0
     RDKit          3D

 93102  0  0  1  0  0  0  0  0999 V2000
  -29.9480  -24.8520   19.5420 C   0  0  0  0  0  2  0  0  0  0  0  0
  -27.8420  -24.2170   20.6080 C   0  0  0  0  0  2  0  0  0  0  0  0
  -30.0960  -23.4220   18.9600 C   0  0  0  0  0  2  0  0  0  0  0  0
  -27.9770  -22.7670   20.0440 C   0  0  0  0  0  2  0  0  0  0  0  0
  -28.4750  -25.2760   19.6730 C   0  0  0  0  0  3  0  0  0  0  0  0
  -29.3800  -22.3470   19.7230 N   0  0  1  0  0  4  0  0  0  0  0  0
  -29.8790  -22.2130   20.5900 H   0  0  0  0  0  0  0  0  0  0  0  0
  -28.4130  -26.6450   20.1570 O   0  0  0  0  0  0  0  0  0  0  0  0
  -24.6270  -31.8720   23.2150 C   0  0  0  0  0  0  0  0  0  0  0  0
  -27.2300  -27.3760   20.1270 C   0  0  0  0  0  0  0  0  0  0  0  0
  -23.4020  -30.4670   21.5910 C   0  0  0  0  0  3  0  0  0  0  0  0
  -24.8370  -28.9160   20.1560 C   0  0  0  0  0  0  0  0  0  0  0  0
  -25.9290  -30.8090   21.3690 C   0  0  0  0  0  2  0  0  0  0  0  0
  -26.0040  -29.4320   20.7310 C   0  0  0  0  0  0  0  0  0  0  0  0
  -27.1990  -28.6700   20.7130 C   0  0  0  0  0  3  0  0  0  0  0  0
  -26.0370  -26.8860   19.5430 C   0  0  0  0  0  3  0  0  0  0  0  0
  -24.8510  -27.6440   19.5580 C   0  0  0  0  0  3  0  0  0  0  0  0
  -23.5960  -29.7800   20.2120 C   0  0  0  0  0  2  0  0  0  0  0  0
  -24.6720  -31.0660   22.1160 N   0  0  0  0  0  0  0  0  0  0  0  0
  -23.5520  -32.1500   23.7640 O   0  0  0  0  0  0  0  0  0  0  0  0
  -22.7570  -29.4540   22.5630 C   0  0  0  0  0  0  0  0  0  0  0  0
  -21.4300  -29.2730   22.4480 N   0  0  0  0  0  0  0  0  0  0  0  0
  -23.4450  -28.8310   23.3760 O   0  0  0  0  0  0  0  0  0  0  0  0
  -20.9360  -29.8260   21.7630 H   0  0  0  0  0  0  0  0  0  0  0  0
  -18.0610  -28.0730   22.9690 C   0  0  0  0  0  0  0  0  0  0  0  0
  -20.6190  -28.3380   23.2290 C   0  0  0  0  0  3  0  0  0  0  0  0
  -20.7230  -26.9040   22.6630 C   0  0  0  0  0  2  0  0  0  0  0  0
  -19.6180  -26.5710   21.6550 C   0  0  0  0  0  2  0  0  0  0  0  0
  -18.2380  -26.7180   22.3040 C   0  0  0  0  0  2  0  0  0  0  0  0
  -19.1790  -28.8410   23.3880 C   0  0  0  0  0  0  0  0  0  0  0  0
  -18.9610  -30.1080   23.9700 C   0  0  0  0  0  3  0  0  0  0  0  0
  -17.6550  -30.6090   24.1370 C   0  0  0  0  0  3  0  0  0  0  0  0
  -16.5510  -29.8380   23.7340 C   0  0  0  0  0  3  0  0  0  0  0  0
  -16.7550  -28.5720   23.1560 C   0  0  0  0  0  3  0  0  0  0  0  0
  -25.9200  -32.5040   23.8200 C   0  0  0  0  0  3  0  0  0  0  0  0
  -25.6110  -33.8970   24.1680 N   0  0  0  0  0  0  0  0  0  0  0  0
  -25.9270  -34.9590   23.4140 C   0  0  0  0  0  0  0  0  0  0  0  0
  -26.5800  -34.8670   22.3710 O   0  0  0  0  0  0  0  0  0  0  0  0
  -25.0270  -34.0410   24.9790 H   0  0  0  0  0  0  0  0  0  0  0  0
  -24.1820  -36.7440   23.1090 C   0  0  0  0  0  1  0  0  0  0  0  0
  -25.4400  -36.3400   23.8920 C   0  0  0  0  0  3  0  0  0  0  0  0
  -27.5890  -37.2270   24.6850 C   0  0  0  0  0  1  0  0  0  0  0  0
  -26.4640  -37.4000   23.7690 N   0  0  0  0  0  0  0  0  0  0  0  0
  -26.0570  -38.3150   23.9380 H   0  0  0  0  0  0  0  0  0  0  0  0
  -26.4640  -31.7220   25.0790 C   0  0  1  0  0  0  0  0  0  0  0  0
  -25.3920  -31.4680   26.1640 C   0  0  0  0  0  1  0  0  0  0  0  0
  -27.0460  -30.3510   24.6610 C   0  0  0  0  0  1  0  0  0  0  0  0
  -27.6240  -32.5140   25.7270 C   0  0  0  0  0  1  0  0  0  0  0  0
  -29.4490  -21.0430   18.9700 C   0  0  0  0  0  2  0  0  0  0  0  0
  -30.8710  -19.0240   19.6980 C   0  0  0  0  0  3  0  0  0  0  0  0
  -28.5150  -18.9960   20.2510 C   0  0  0  0  0  3  0  0  0  0  0  0
  -30.9900  -17.6700   20.1040 C   0  0  0  0  0  3  0  0  0  0  0  0
  -28.6380  -17.6460   20.6660 C   0  0  0  0  0  3  0  0  0  0  0  0
  -29.6230  -19.6980   19.7210 C   0  0  0  0  0  0  0  0  0  0  0  0
  -29.8620  -16.9390   20.5550 C   0  0  0  0  0  0  0  0  0  0  0  0
  -30.6230  -14.5220   20.3810 C   0  0  0  0  0  0  0  0  0  0  0  0
  -30.3440  -12.3340   19.2600 C   0  0  0  0  0  2  0  0  0  0  0  0
  -29.3860  -12.5380   18.0640 C   0  0  0  0  0  2  0  0  0  0  0  0
  -27.9150  -12.4060   18.5090 C   0  0  0  0  0  2  0  0  0  0  0  0
  -27.5970  -13.2400   19.7780 C   0  0  0  0  0  3  0  0  0  0  0  0
  -28.6650  -13.0070   20.8740 C   0  0  0  0  0  2  0  0  0  0  0  0
  -29.9820  -13.3200   20.2940 N   0  0  0  0  0  0  0  0  0  0  0  0
  -31.7570  -14.6930   19.9200 O   0  0  0  0  0  0  0  0  0  0  0  0
  -29.8750  -15.5340   20.8890 N   0  0  0  0  0  0  0  0  0  0  0  0
  -29.0230  -15.1990   21.3100 H   0  0  0  0  0  0  0  0  0  0  0  0
  -25.2120  -13.8700   20.5090 C   0  0  0  0  0  0  0  0  0  0  0  0
  -24.1420  -13.1080   20.8930 C   0  0  0  0  0  0  0  0  0  0  0  0
  -24.5890  -11.7520   20.8580 C   0  0  0  0  0  0  0  0  0  0  0  0
  -26.2460  -12.9790   20.2700 N   0  0  0  0  0  0  0  0  0  0  0  0
  -25.8760  -11.7000   20.5360 N   0  0  0  0  0  0  0  0  0  0  0  0
  -23.8530  -10.4970   21.0570 C   0  0  0  0  0  0  0  0  0  0  0  0
  -24.3000   -9.5140   21.9680 C   0  0  0  0  0  3  0  0  0  0  0  0
  -23.5650   -8.3230   22.1540 C   0  0  0  0  0  3  0  0  0  0  0  0
  -22.3690   -8.1080   21.4300 C   0  0  0  0  0  0  0  0  0  0  0  0
  -21.9400   -9.0780   20.5080 C   0  0  0  0  0  3  0  0  0  0  0  0
  -22.6760  -10.2600   20.3200 C   0  0  0  0  0  3  0  0  0  0  0  0
  -21.6030   -6.9710   21.5280 O   0  0  0  0  0  0  0  0  0  0  0  0
  -21.5940   -6.2050   22.6660 C   0  0  0  0  0  0  0  0  0  0  0  0
  -21.2430   -6.7420   23.9240 C   0  0  0  0  0  3  0  0  0  0  0  0
  -21.1810   -5.9040   25.0560 C   0  0  0  0  0  3  0  0  0  0  0  0
  -21.4570   -4.5300   24.9300 C   0  0  0  0  0  0  0  0  0  0  0  0
  -21.8010   -3.9920   23.6780 C   0  0  0  0  0  3  0  0  0  0  0  0
  -21.8660   -4.8260   22.5480 C   0  0  0  0  0  0  0  0  0  0  0  0
  -22.1770   -4.2990   21.3400 F   0  0  0  0  0  0  0  0  0  0  0  0
  -21.3900   -3.7220   26.0150 F   0  0  0  0  0  0  0  0  0  0  0  0
  -22.7510  -13.5980   21.1800 C   0  0  0  0  0  0  0  0  0  0  0  0
  -22.0260  -12.9120   22.0570 N   0  0  0  0  0  0  0  0  0  0  0  0
  -22.3160  -14.6260   20.6610 O   0  0  0  0  0  0  0  0  0  0  0  0
  -22.3900  -12.0800   22.4980 H   0  0  0  0  0  0  0  0  0  0  0  0
  -21.0950  -13.2250   22.2900 H   0  0  0  0  0  0  0  0  0  0  0  0
  -25.3880  -15.2380   20.3240 N   0  0  0  0  0  0  0  0  0  0  0  0
  -24.6210  -15.8940   20.4230 H   0  0  0  0  0  0  0  0  0  0  0  0
  -26.2210  -15.6560   19.9320 H   0  0  0  0  0  0  0  0  0  0  0  0
  1  5  1  0
  3  1  1  0
  3  6  1  0
  4  2  1  0
  5  8  1  0
  5  2  1  0
  6  4  1  0
  6  7  1  1
  9 20  2  0
 10  8  1  0
 10 15  1  0
 11 19  1  0
 11 21  1  0
 12 18  1  0
 12 14  1  0
 13 19  1  0
 14 13  1  0
 15 14  2  0
 16 17  1  0
 16 10  2  0
 17 12  2  0
 18 11  1  0
 19  9  1  0
 21 23  2  0
 22 21  1  0
 24 22  1  0
 25 34  2  0
 25 30  1  0
 26 22  1  0
 26 30  1  0
 27 26  1  0
 28 29  1  0
 28 27  1  0
 29 25  1  0
 30 31  2  0
 31 32  1  0
 33 32  2  0
 34 33  1  0
 35  9  1  0
 35 36  1  0
 35 45  1  0
 36 39  1  0
 37 41  1  0
 37 36  1  0
 38 37  2  0
 41 40  1  0
 43 41  1  0
 43 44  1  0
 43 42  1  0
 45 48  1  1
 45 46  1  0
 47 45  1  0
 49 54  1  0
 49  6  1  0
 50 54  2  0
 50 52  1  0
 51 53  2  0
 52 55  2  0
 54 51  1  0
 55 53  1  0
 55 64  1  0
 56 64  1  0
 57 62  1  0
 58 59  1  0
 58 57  1  0
 60 59  1  0
 60 69  1  0
 60 61  1  0
 62 56  1  0
 62 61  1  0
 63 56  2  0
 64 65  1  0
 66 67  2  0
 67 86  1  0
 68 67  1  0
 68 71  1  0
 69 66  1  0
 69 70  1  0
 70 68  2  0
 71 72  1  0
 72 73  2  0
 74 77  1  0
 74 73  1  0
 75 74  2  0
 76 75  1  0
 76 71  2  0
 77 78  1  0
 78 79  1  0
 79 80  2  0
 81 80  1  0
 81 85  1  0
 82 81  2  0
 83 78  2  0
 83 82  1  0
 84 83  1  0
 86 87  1  0
 87 90  1  0
 87 89  1  0
 88 86  2  0
 91 92  1  0
 91 66  1  0
 93 91  1  0
M  ISO  4   5 101   8 101  56 100  64 100
M  END
>  <TORSDO>  (71) 
F 18

>  <SCORE>  (71) 
-14.735

>  <name>  (71) 
70

>  <ligand_id>  (71) 
70

>  <original_smiles>  (71) 
[H]c1c([H])c([H])c2c(c1[H])C([H])([H])C([H])([H])C([H])([H])C2([H])N([H])C(=O)C1([H])N(C(=O)C([H])(N([H])C(=O)C([H])(N([H])C([H])([H])[H])C([H])([H])[H])C(C([H])([H])[H])(C([H])([H])[H])C([H])([H])[H])C([H])([H])c2c([H])c(OC3([H])C([H])([H])C([H])([H])[N+]([H])(C([H])([H])c4c([H])c([H])c(N([H])C(=O)N5C([H])([H])C([H])([H])C([H])([H])C([H])(n6nc(-c7c([H])c([H])c(Oc8c([H])c([H])c(F)c([H])c8F)c([H])c7[H])c(C(=O)N([H])[H])c6N([H])[H])C5([H])[H])c([H])c4[H])C([H])([H])C3([H])[H])c([H])c([H])c2C1([H])[H]

>  <smiles>  (71) 
[H]c1c([H])c([H])c2c(c1[H])C([H])([H])C([H])([H])C([H])([H])C2([H])N([H])C(=O)C1([H])N(C(=O)C([H])(N([H])C(=O)C([H])(N([H])C([H])([H])[H])C([H])([H])[H])C(C([H])([H])[H])(C([H])([H])[H])C([H])([H])[H])C([H])([H])c2c([H])c(OC3([H])C([H])([H])C([H])([H])[N+]([H])(C([H])([H])c4c([H])c([H])c(N([H])C(=O)N5C([H])([H])C([H])([H])C([H])([H])C([H])(n6nc(-c7c([H])c([H])c(Oc8c([H])c([H])c(F)c([H])c8F)c([H])c7[H])c(C(=O)N([H])[H])c6N([H])[H])C5([H])[H])c([H])c4[H])C([H])([H])C3([H])[H])c([H])c([H])c2C1([H])[H]

$$$$
71:0:0
     RDKit          3D

 98107  0  0  1  0  0  0  0  0999 V2000
  -29.7840  -20.5720   19.4260 C   0  0  0  0  0  3  0  0  0  0  0  0
  -29.4840  -21.1660   16.8490 C   0  0  0  0  0  2  0  0  0  0  0  0
  -29.2740  -20.3640   15.5690 C   0  0  0  0  0  2  0  0  0  0  0  0
  -30.0010  -18.9180   17.3210 C   0  0  0  0  0  2  0  0  0  0  0  0
  -29.2900  -20.1340   17.9830 C   0  0  0  0  0  3  0  0  0  0  0  0
  -29.8540  -19.0460   15.8550 N   0  0  0  0  0  4  0  0  0  0  0  0
  -30.7580  -18.9650   15.4160 H   0  0  0  0  0  0  0  0  0  0  0  0
  -29.2620  -18.3220   15.4810 H   0  0  0  0  0  0  0  0  0  0  0  0
  -27.8410  -22.4550   19.8220 C   0  0  0  0  0  2  0  0  0  0  0  0
  -30.0350  -22.9390   20.8390 C   0  0  0  0  0  2  0  0  0  0  0  0
  -27.5820  -23.9740   19.5390 C   0  0  0  0  0  2  0  0  0  0  0  0
  -29.8170  -24.4850   20.6120 C   0  0  0  0  0  2  0  0  0  0  0  0
  -29.3450  -22.0980   19.7380 C   0  0  0  0  0  3  0  0  0  0  0  0
  -28.3430  -24.9920   20.4550 C   0  0  0  0  0  3  0  0  0  0  0  0
  -28.3770  -26.4230   20.0520 O   0  0  0  0  0  0  0  0  0  0  0  0
  -24.6920  -31.7120   23.3180 C   0  0  0  0  0  0  0  0  0  0  0  0
  -27.2450  -27.2490   20.0910 C   0  0  0  0  0  0  0  0  0  0  0  0
  -23.4840  -30.4260   21.5920 C   0  0  0  0  0  3  0  0  0  0  0  0
  -24.9190  -28.9110   20.1230 C   0  0  0  0  0  0  0  0  0  0  0  0
  -26.0340  -30.6860   21.4740 C   0  0  0  0  0  2  0  0  0  0  0  0
  -26.0880  -29.3390   20.7650 C   0  0  0  0  0  0  0  0  0  0  0  0
  -27.2530  -28.5190   20.7440 C   0  0  0  0  0  3  0  0  0  0  0  0
  -26.0660  -26.8900   19.4030 C   0  0  0  0  0  3  0  0  0  0  0  0
  -24.9100  -27.6900   19.4360 C   0  0  0  0  0  3  0  0  0  0  0  0
  -23.7050  -29.8140   20.1860 C   0  0  0  0  0  2  0  0  0  0  0  0
  -24.7540  -30.9570   22.1840 N   0  0  0  0  0  0  0  0  0  0  0  0
  -23.6070  -31.9920   23.8470 O   0  0  0  0  0  0  0  0  0  0  0  0
  -22.7800  -29.3810   22.4900 C   0  0  0  0  0  0  0  0  0  0  0  0
  -21.4500  -29.2550   22.3400 N   0  0  0  0  0  0  0  0  0  0  0  0
  -23.4290  -28.6900   23.2790 O   0  0  0  0  0  0  0  0  0  0  0  0
  -20.9890  -29.8600   21.6760 H   0  0  0  0  0  0  0  0  0  0  0  0
  -18.0260  -28.1780   22.7790 C   0  0  0  0  0  0  0  0  0  0  0  0
  -20.5940  -28.3080   23.0540 C   0  0  0  0  0  3  0  0  0  0  0  0
  -20.6320  -26.9130   22.3890 C   0  0  0  0  0  2  0  0  0  0  0  0
  -19.5160  -26.7030   21.3610 C   0  0  0  0  0  2  0  0  0  0  0  0
  -18.1420  -26.8680   22.0170 C   0  0  0  0  0  2  0  0  0  0  0  0
  -19.1780  -28.8610   23.2510 C   0  0  0  0  0  0  0  0  0  0  0  0
  -19.0170  -30.0920   23.9230 C   0  0  0  0  0  3  0  0  0  0  0  0
  -17.7360  -30.6400   24.1270 C   0  0  0  0  0  3  0  0  0  0  0  0
  -16.5980  -29.9530   23.6690 C   0  0  0  0  0  3  0  0  0  0  0  0
  -16.7440  -28.7230   23.0030 C   0  0  0  0  0  3  0  0  0  0  0  0
  -25.9810  -32.2800   23.9890 C   0  0  0  0  0  3  0  0  0  0  0  0
  -25.7020  -33.6710   24.3700 N   0  0  0  0  0  0  0  0  0  0  0  0
  -26.1080  -34.7460   23.6800 C   0  0  0  0  0  0  0  0  0  0  0  0
  -26.8270  -34.6660   22.6790 O   0  0  0  0  0  0  0  0  0  0  0  0
  -25.0700  -33.8100   25.1450 H   0  0  0  0  0  0  0  0  0  0  0  0
  -24.4880  -36.6360   23.3090 C   0  0  0  0  0  1  0  0  0  0  0  0
  -25.6480  -36.1280   24.1810 C   0  0  0  0  0  3  0  0  0  0  0  0
  -27.7440  -36.8720   25.2230 C   0  0  0  0  0  1  0  0  0  0  0  0
  -26.7300  -37.1360   24.2040 N   0  0  0  0  0  0  0  0  0  0  0  0
  -26.3520  -38.0660   24.3690 H   0  0  0  0  0  0  0  0  0  0  0  0
  -26.4490  -31.4440   25.2430 C   0  0  1  0  0  0  0  0  0  0  0  0
  -25.3270  -31.1920   26.2770 C   0  0  0  0  0  1  0  0  0  0  0  0
  -27.0060  -30.0670   24.8110 C   0  0  0  0  0  1  0  0  0  0  0  0
  -27.6060  -32.1820   25.9580 C   0  0  0  0  0  1  0  0  0  0  0  0
  -29.5190  -19.5280   20.5070 N   0  0  0  0  0  4  0  0  0  0  0  0
  -30.1140  -19.7510   21.2890 H   0  0  0  0  0  0  0  0  0  0  0  0
  -28.5720  -19.6440   20.8320 H   0  0  0  0  0  0  0  0  0  0  0  0
  -29.7110  -18.0530   20.1740 C   0  0  0  0  0  3  0  0  0  0  0  0
  -29.9920  -17.0390   21.3590 C   0  0  0  0  0  3  0  0  0  0  0  0
  -30.6000  -14.5530   20.7550 C   0  0  0  0  0  0  0  0  0  0  0  0
  -30.4700  -12.3260   19.6580 C   0  0  0  0  0  2  0  0  0  0  0  0
  -29.5610  -12.4300   18.4120 C   0  0  0  0  0  2  0  0  0  0  0  0
  -28.0770  -12.2520   18.7900 C   0  0  0  0  0  2  0  0  0  0  0  0
  -27.6610  -13.1130   20.0100 C   0  0  0  0  0  3  0  0  0  0  0  0
  -28.6800  -12.9680   21.1630 C   0  0  0  0  0  2  0  0  0  0  0  0
  -30.0030  -13.3290   20.6310 N   0  0  0  0  0  0  0  0  0  0  0  0
  -31.7750  -14.7460   20.4330 O   0  0  0  0  0  0  0  0  0  0  0  0
  -29.7630  -15.5800   21.0800 N   0  0  0  0  0  0  0  0  0  0  0  0
  -28.8160  -15.2730   21.2410 H   0  0  0  0  0  0  0  0  0  0  0  0
  -25.2260  -13.6810   20.6080 C   0  0  0  0  0  0  0  0  0  0  0  0
  -24.1600  -12.8950   20.9520 C   0  0  0  0  0  0  0  0  0  0  0  0
  -24.6520  -11.5540   20.9780 C   0  0  0  0  0  0  0  0  0  0  0  0
  -26.2980  -12.8180   20.4430 N   0  0  0  0  0  0  0  0  0  0  0  0
  -25.9550  -11.5350   20.7270 N   0  0  0  0  0  0  0  0  0  0  0  0
  -23.9460  -10.2800   21.1680 C   0  0  0  0  0  0  0  0  0  0  0  0
  -24.3490   -9.3500   22.1530 C   0  0  0  0  0  3  0  0  0  0  0  0
  -23.6410   -8.1420   22.3280 C   0  0  0  0  0  3  0  0  0  0  0  0
  -22.5160   -7.8550   21.5180 C   0  0  0  0  0  0  0  0  0  0  0  0
  -22.1340   -8.7730   20.5240 C   0  0  0  0  0  3  0  0  0  0  0  0
  -22.8430   -9.9720   20.3470 C   0  0  0  0  0  3  0  0  0  0  0  0
  -21.7830   -6.6950   21.6010 O   0  0  0  0  0  0  0  0  0  0  0  0
  -21.6820   -5.9890   22.7730 C   0  0  0  0  0  0  0  0  0  0  0  0
  -21.1320   -6.5620   23.9420 C   0  0  0  0  0  3  0  0  0  0  0  0
  -20.9820   -5.7800   25.1050 C   0  0  0  0  0  3  0  0  0  0  0  0
  -21.3710   -4.4260   25.0990 C   0  0  0  0  0  0  0  0  0  0  0  0
  -21.9130   -3.8540   23.9350 C   0  0  0  0  0  3  0  0  0  0  0  0
  -22.0640   -4.6330   22.7750 C   0  0  0  0  0  0  0  0  0  0  0  0
  -22.5680   -4.0710   21.6500 F   0  0  0  0  0  0  0  0  0  0  0  0
  -21.2190   -3.6740   26.2130 F   0  0  0  0  0  0  0  0  0  0  0  0
  -22.7420  -13.3460   21.1510 C   0  0  0  0  0  0  0  0  0  0  0  0
  -21.9920  -12.6540   22.0010 N   0  0  0  0  0  0  0  0  0  0  0  0
  -22.3060  -14.3490   20.5880 O   0  0  0  0  0  0  0  0  0  0  0  0
  -22.3570  -11.8400   22.4750 H   0  0  0  0  0  0  0  0  0  0  0  0
  -21.0400  -12.9390   22.1810 H   0  0  0  0  0  0  0  0  0  0  0  0
  -25.3690  -15.0500   20.4000 N   0  0  0  0  0  0  0  0  0  0  0  0
  -24.5800  -15.6860   20.4540 H   0  0  0  0  0  0  0  0  0  0  0  0
  -26.2090  -15.4940   20.0560 H   0  0  0  0  0  0  0  0  0  0  0  0
  1 56  1  0
  2  5  1  0
  3  6  1  0
  3  2  1  0
  4  5  1  0
  5  1  1  0
  6  4  1  0
  7  6  1  0
  8  6  1  0
 11  9  1  0
 11 14  1  0
 12 10  1  0
 13  1  1  0
 13  9  1  0
 13 10  1  0
 14 15  1  0
 14 12  1  0
 15 17  1  0
 16 27  2  0
 17 22  1  0
 18 26  1  0
 18 28  1  0
 19 25  1  0
 19 21  1  0
 20 26  1  0
 21 20  1  0
 22 21  2  0
 23 24  1  0
 23 17  2  0
 24 19  2  0
 25 18  1  0
 26 16  1  0
 28 30  2  0
 29 28  1  0
 31 29  1  0
 32 41  2  0
 32 37  1  0
 33 29  1  0
 33 37  1  0
 34 33  1  0
 35 36  1  0
 35 34  1  0
 36 32  1  0
 37 38  2  0
 38 39  1  0
 40 39  2  0
 41 40  1  0
 42 16  1  0
 42 43  1  0
 42 52  1  0
 43 46  1  0
 44 48  1  0
 44 43  1  0
 45 44  2  0
 48 47  1  0
 48 50  1  0
 50 51  1  0
 50 49  1  0
 52 55  1  1
 52 53  1  0
 54 52  1  0
 56 58  1  0
 56 57  1  0
 59 56  1  0
 59 60  2  0
 61 69  1  0
 62 67  1  0
 63 64  1  0
 63 62  1  0
 65 64  1  0
 65 74  1  0
 65 66  1  0
 67 61  1  0
 67 66  1  0
 68 61  2  0
 69 70  1  0
 69 60  1  0
 71 72  2  0
 72 73  1  0
 72 91  1  0
 73 76  1  0
 74 71  1  0
 74 75  1  0
 75 73  2  0
 76 77  1  0
 77 78  2  0
 79 82  1  0
 79 78  1  0
 80 79  2  0
 81 80  1  0
 81 76  2  0
 82 83  1  0
 83 88  2  0
 83 84  1  0
 84 85  2  0
 86 85  1  0
 86 90  1  0
 87 86  2  0
 88 87  1  0
 89 88  1  0
 91 92  1  0
 92 95  1  0
 92 94  1  0
 93 91  2  0
 96 97  1  0
 96 71  1  0
 98 96  1  0
M  ISO  4  14 101  15 101  61 100  69 100
M  END
>  <TORSDO>  (72) 
F 21

>  <SCORE>  (72) 
-13.081

>  <name>  (72) 
71

>  <ligand_id>  (72) 
71

>  <original_smiles>  (72) 
[H]c1c([H])c([H])c2c(c1[H])C([H])([H])C([H])([H])C([H])([H])C2([H])N([H])C(=O)C1([H])N(C(=O)C([H])(N([H])C(=O)C([H])(N([H])C([H])([H])[H])C([H])([H])[H])C(C([H])([H])[H])(C([H])([H])[H])C([H])([H])[H])C([H])([H])c2c([H])c(OC3([H])C([H])([H])C([H])([H])C([H])(C([H])(C4([H])C([H])([H])C([H])([H])[N+]([H])([H])C4([H])[H])[N+]([H])([H])C([H])([H])C([H])([H])N([H])C(=O)N4C([H])([H])C([H])([H])C([H])([H])C([H])(n5nc(-c6c([H])c([H])c(Oc7c([H])c([H])c(F)c([H])c7F)c([H])c6[H])c(C(=O)N([H])[H])c5N([H])[H])C4([H])[H])C([H])([H])C3([H])[H])c([H])c([H])c2C1([H])[H]

>  <smiles>  (72) 
[H]c1c([H])c([H])c2c(c1[H])C([H])([H])C([H])([H])C([H])([H])C2([H])N([H])C(=O)C1([H])N(C(=O)C([H])(N([H])C(=O)C([H])(N([H])C([H])([H])[H])C([H])([H])[H])C(C([H])([H])[H])(C([H])([H])[H])C([H])([H])[H])C([H])([H])c2c([H])c(OC3([H])C([H])([H])C([H])([H])C([H])(C([H])(C4([H])C([H])([H])C([H])([H])[N+]([H])([H])C4([H])[H])[N+]([H])([H])C([H])([H])C([H])([H])N([H])C(=O)N4C([H])([H])C([H])([H])C([H])([H])C([H])(n5nc(-c6c([H])c([H])c(Oc7c([H])c([H])c(F)c([H])c7F)c([H])c6[H])c(C(=O)N([H])[H])c5N([H])[H])C4([H])[H])C([H])([H])C3([H])[H])c([H])c([H])c2C1([H])[H]

$$$$
72:0:0
     RDKit          3D

 94103  0  0  1  0  0  0  0  0999 V2000
  -28.1230  -23.8620   21.0180 C   0  0  0  0  0  2  0  0  0  0  0  0
  -30.1060  -23.5780   19.4840 C   0  0  0  0  0  2  0  0  0  0  0  0
  -28.7120  -22.8060   21.9690 C   0  0  0  0  0  2  0  0  0  0  0  0
  -30.6930  -22.5120   20.4330 C   0  0  0  0  0  2  0  0  0  0  0  0
  -29.2290  -24.5980   20.2390 C   0  0  0  0  0  3  0  0  0  0  0  0
  -29.5830  -21.7670   21.2180 C   0  0  0  0  0  3  0  0  0  0  0  0
  -31.1100  -21.1470   23.2130 C   0  0  0  0  0  1  0  0  0  0  0  0
  -30.1040  -20.6320   22.1530 C   0  0  0  0  0  3  0  0  0  0  0  0
  -29.8150  -18.2390   21.3710 C   0  0  0  0  0  2  0  0  0  0  0  0
  -31.7570  -18.6970   21.8610 C   0  0  0  0  0  2  0  0  0  0  0  0
  -31.1230  -17.4530   21.2470 C   0  0  0  0  0  3  0  0  0  0  0  0
  -30.6160  -19.4710   21.3550 N   0  0  2  0  0  4  0  0  0  0  0  0
  -30.7980  -19.7430   20.4010 H   0  0  0  0  0  0  0  0  0  0  0  0
  -31.3070  -16.1060   21.9530 C   0  0  0  0  0  2  0  0  0  0  0  0
  -30.8140  -14.3620   20.2470 C   0  0  0  0  0  0  0  0  0  0  0  0
  -30.3470  -12.3350   18.9220 C   0  0  0  0  0  2  0  0  0  0  0  0
  -29.3500  -12.5980   17.7810 C   0  0  0  0  0  2  0  0  0  0  0  0
  -27.8990  -12.4660   18.2800 C   0  0  0  0  0  2  0  0  0  0  0  0
  -27.6420  -13.2780   19.5760 C   0  0  0  0  0  3  0  0  0  0  0  0
  -28.7350  -12.9880   20.6280 C   0  0  0  0  0  2  0  0  0  0  0  0
  -30.0530  -13.2630   20.0240 N   0  0  0  0  0  0  0  0  0  0  0  0
  -31.7780  -14.6810   19.5420 O   0  0  0  0  0  0  0  0  0  0  0  0
  -30.5080  -15.0410   21.3580 N   0  0  0  0  0  0  0  0  0  0  0  0
  -29.7280  -14.6920   21.8940 H   0  0  0  0  0  0  0  0  0  0  0  0
  -25.2800  -13.9150   20.3840 C   0  0  0  0  0  0  0  0  0  0  0  0
  -24.2170  -13.1550   20.7940 C   0  0  0  0  0  0  0  0  0  0  0  0
  -24.6600  -11.7960   20.7390 C   0  0  0  0  0  0  0  0  0  0  0  0
  -26.3030  -13.0220   20.1080 N   0  0  0  0  0  0  0  0  0  0  0  0
  -25.9350  -11.7420   20.3750 N   0  0  0  0  0  0  0  0  0  0  0  0
  -23.9280  -10.5420   20.9550 C   0  0  0  0  0  0  0  0  0  0  0  0
  -24.3850   -9.5680   21.8700 C   0  0  0  0  0  3  0  0  0  0  0  0
  -23.6540   -8.3780   22.0740 C   0  0  0  0  0  3  0  0  0  0  0  0
  -22.4530   -8.1530   21.3630 C   0  0  0  0  0  0  0  0  0  0  0  0
  -22.0140   -9.1150   20.4360 C   0  0  0  0  0  3  0  0  0  0  0  0
  -22.7440  -10.2970   20.2310 C   0  0  0  0  0  3  0  0  0  0  0  0
  -21.6910   -7.0140   21.4760 O   0  0  0  0  0  0  0  0  0  0  0  0
  -21.6720   -6.2730   22.6300 C   0  0  0  0  0  0  0  0  0  0  0  0
  -21.3130   -6.8370   23.8730 C   0  0  0  0  0  3  0  0  0  0  0  0
  -21.2400   -6.0230   25.0200 C   0  0  0  0  0  3  0  0  0  0  0  0
  -21.5160   -4.6470   24.9270 C   0  0  0  0  0  0  0  0  0  0  0  0
  -21.8700   -4.0820   23.6890 C   0  0  0  0  0  3  0  0  0  0  0  0
  -21.9460   -4.8930   22.5430 C   0  0  0  0  0  0  0  0  0  0  0  0
  -22.2650   -4.3400   21.3480 F   0  0  0  0  0  0  0  0  0  0  0  0
  -21.4390   -3.8620   26.0280 F   0  0  0  0  0  0  0  0  0  0  0  0
  -22.8390  -13.6460   21.1280 C   0  0  0  0  0  0  0  0  0  0  0  0
  -22.1420  -12.9560   22.0250 N   0  0  0  0  0  0  0  0  0  0  0  0
  -22.3890  -14.6770   20.6290 O   0  0  0  0  0  0  0  0  0  0  0  0
  -22.5180  -12.1220   22.4510 H   0  0  0  0  0  0  0  0  0  0  0  0
  -21.2180  -13.2660   22.2890 H   0  0  0  0  0  0  0  0  0  0  0  0
  -25.4560  -15.2830   20.2050 N   0  0  0  0  0  0  0  0  0  0  0  0
  -24.7070  -15.9520   20.3480 H   0  0  0  0  0  0  0  0  0  0  0  0
  -26.3030  -15.7080   19.8510 H   0  0  0  0  0  0  0  0  0  0  0  0
  -28.6450  -25.6930   19.3190 C   0  0  0  0  0  2  0  0  0  0  0  0
  -28.3600  -26.8470   20.1140 O   0  0  0  0  0  0  0  0  0  0  0  0
  -24.5520  -31.9250   23.2590 C   0  0  0  0  0  0  0  0  0  0  0  0
  -27.1390  -27.4880   20.1090 C   0  0  0  0  0  0  0  0  0  0  0  0
  -23.3130  -30.5340   21.6290 C   0  0  0  0  0  3  0  0  0  0  0  0
  -24.7340  -28.9870   20.1820 C   0  0  0  0  0  0  0  0  0  0  0  0
  -25.8370  -30.8770   21.3980 C   0  0  0  0  0  2  0  0  0  0  0  0
  -25.8990  -29.5080   20.7530 C   0  0  0  0  0  0  0  0  0  0  0  0
  -27.0940  -28.7610   20.7210 C   0  0  0  0  0  3  0  0  0  0  0  0
  -25.9470  -26.9650   19.5520 C   0  0  0  0  0  3  0  0  0  0  0  0
  -24.7500  -27.7130   19.5860 C   0  0  0  0  0  3  0  0  0  0  0  0
  -23.4980  -29.8560   20.2460 C   0  0  0  0  0  2  0  0  0  0  0  0
  -24.5860  -31.1290   22.1520 N   0  0  0  0  0  0  0  0  0  0  0  0
  -23.4820  -32.2000   23.8180 O   0  0  0  0  0  0  0  0  0  0  0  0
  -22.6740  -29.5120   22.5980 C   0  0  0  0  0  0  0  0  0  0  0  0
  -21.3510  -29.3190   22.4730 N   0  0  0  0  0  0  0  0  0  0  0  0
  -23.3630  -28.8980   23.4160 O   0  0  0  0  0  0  0  0  0  0  0  0
  -20.8590  -29.8730   21.7870 H   0  0  0  0  0  0  0  0  0  0  0  0
  -17.9940  -28.0710   22.9380 C   0  0  0  0  0  0  0  0  0  0  0  0
  -20.5410  -28.3800   23.2480 C   0  0  0  0  0  3  0  0  0  0  0  0
  -20.6790  -26.9400   22.7010 C   0  0  0  0  0  2  0  0  0  0  0  0
  -19.6000  -26.5800   21.6750 C   0  0  0  0  0  2  0  0  0  0  0  0
  -18.2050  -26.7120   22.2940 C   0  0  0  0  0  2  0  0  0  0  0  0
  -19.0920  -28.8600   23.3710 C   0  0  0  0  0  0  0  0  0  0  0  0
  -18.8410  -30.1310   23.9320 C   0  0  0  0  0  3  0  0  0  0  0  0
  -17.5260  -30.6120   24.0700 C   0  0  0  0  0  3  0  0  0  0  0  0
  -16.4430  -29.8180   23.6560 C   0  0  0  0  0  3  0  0  0  0  0  0
  -16.6770  -28.5510   23.0930 C   0  0  0  0  0  3  0  0  0  0  0  0
  -25.8520  -32.5450   23.8620 C   0  0  0  0  0  3  0  0  0  0  0  0
  -26.3810  -31.7720   25.1320 C   0  0  1  0  0  0  0  0  0  0  0  0
  -25.3050  -31.5450   26.2190 C   0  0  0  0  0  1  0  0  0  0  0  0
  -26.9470  -30.3900   24.7290 C   0  0  0  0  0  1  0  0  0  0  0  0
  -27.5490  -32.5560   25.7750 C   0  0  0  0  0  1  0  0  0  0  0  0
  -25.5630  -33.9470   24.1900 N   0  0  0  0  0  0  0  0  0  0  0  0
  -25.8940  -34.9910   23.4190 C   0  0  0  0  0  0  0  0  0  0  0  0
  -26.5460  -34.8770   22.3770 O   0  0  0  0  0  0  0  0  0  0  0  0
  -24.9850  -34.1110   25.0000 H   0  0  0  0  0  0  0  0  0  0  0  0
  -24.1690  -36.7900   23.0880 C   0  0  0  0  0  1  0  0  0  0  0  0
  -25.4260  -36.3860   23.8760 C   0  0  0  0  0  3  0  0  0  0  0  0
  -27.5850  -37.2620   24.6460 C   0  0  0  0  0  1  0  0  0  0  0  0
  -26.4620  -37.4340   23.7290 N   0  0  0  0  0  0  0  0  0  0  0  0
  -26.0650  -38.3570   23.8820 H   0  0  0  0  0  0  0  0  0  0  0  0
  1  3  1  0
  2  5  1  0
  2  4  1  0
  4  6  1  0
  5 53  1  0
  5  1  1  0
  6  3  1  0
  6  8  1  0
  8  7  1  0
 11  9  1  0
 11 10  1  0
 11 14  1  0
 12  9  1  0
 12 10  1  0
 12  8  1  0
 12 13  1  6
 15 23  1  0
 16 21  1  0
 17 18  1  0
 17 16  1  0
 19 18  1  0
 19 28  1  0
 19 20  1  0
 21 15  1  0
 21 20  1  0
 22 15  2  0
 23 24  1  0
 23 14  1  0
 25 26  2  0
 26 45  1  0
 27 26  1  0
 27 30  1  0
 28 29  1  0
 28 25  1  0
 29 27  2  0
 30 31  1  0
 31 32  2  0
 33 36  1  0
 33 32  1  0
 34 33  2  0
 35 34  1  0
 35 30  2  0
 36 37  1  0
 37 38  1  0
 38 39  2  0
 40 39  1  0
 40 44  1  0
 41 40  2  0
 42 37  2  0
 42 41  1  0
 43 42  1  0
 45 46  1  0
 46 49  1  0
 46 48  1  0
 47 45  2  0
 50 51  1  0
 50 25  1  0
 52 50  1  0
 53 54  1  0
 55 66  2  0
 56 54  1  0
 56 61  1  0
 57 65  1  0
 57 67  1  0
 58 64  1  0
 58 60  1  0
 59 65  1  0
 60 59  1  0
 61 60  2  0
 62 63  1  0
 62 56  2  0
 63 58  2  0
 64 57  1  0
 65 55  1  0
 67 69  2  0
 68 67  1  0
 70 68  1  0
 71 80  2  0
 71 76  1  0
 72 68  1  0
 72 76  1  0
 73 72  1  0
 74 75  1  0
 74 73  1  0
 75 71  1  0
 76 77  2  0
 77 78  1  0
 79 78  2  0
 80 79  1  0
 81 55  1  0
 81 86  1  0
 81 82  1  0
 82 85  1  1
 82 83  1  0
 84 82  1  0
 86 89  1  0
 87 91  1  0
 87 86  1  0
 88 87  2  0
 91 90  1  0
 93 91  1  0
 93 94  1  0
 93 92  1  0
M  ISO  4  15 100  23 100  53 101  54 101
M  END
>  <TORSDO>  (73) 
F 20

>  <SCORE>  (73) 
-13.664

>  <name>  (73) 
72

>  <ligand_id>  (73) 
72

>  <original_smiles>  (73) 
[H]c1c([H])c([H])c2c(c1[H])C([H])([H])C([H])([H])C([H])([H])C2([H])N([H])C(=O)C1([H])N(C(=O)C([H])(N([H])C(=O)C([H])(N([H])C([H])([H])[H])C([H])([H])[H])C(C([H])([H])[H])(C([H])([H])[H])C([H])([H])[H])C([H])([H])c2c([H])c(OC([H])([H])C3([H])C([H])([H])C([H])([H])C([H])(C([H])(C([H])([H])[H])[N+]4([H])C([H])([H])C([H])(C([H])([H])N([H])C(=O)N5C([H])([H])C([H])([H])C([H])([H])C([H])(n6nc(-c7c([H])c([H])c(Oc8c([H])c([H])c(F)c([H])c8F)c([H])c7[H])c(C(=O)N([H])[H])c6N([H])[H])C5([H])[H])C4([H])[H])C([H])([H])C3([H])[H])c([H])c([H])c2C1([H])[H]

>  <smiles>  (73) 
[H]c1c([H])c([H])c2c(c1[H])C([H])([H])C([H])([H])C([H])([H])C2([H])N([H])C(=O)C1([H])N(C(=O)C([H])(N([H])C(=O)C([H])(N([H])C([H])([H])[H])C([H])([H])[H])C(C([H])([H])[H])(C([H])([H])[H])C([H])([H])[H])C([H])([H])c2c([H])c(OC([H])([H])C3([H])C([H])([H])C([H])([H])C([H])(C([H])(C([H])([H])[H])[N+]4([H])C([H])([H])C([H])(C([H])([H])N([H])C(=O)N5C([H])([H])C([H])([H])C([H])([H])C([H])(n6nc(-c7c([H])c([H])c(Oc8c([H])c([H])c(F)c([H])c8F)c([H])c7[H])c(C(=O)N([H])[H])c6N([H])[H])C5([H])[H])C4([H])[H])C([H])([H])C3([H])[H])c([H])c([H])c2C1([H])[H]

$$$$
73:0:0
     RDKit          3D

 94103  0  0  1  0  0  0  0  0999 V2000
  -30.1450  -19.3360   19.1270 C   0  0  0  0  0  3  0  0  0  0  0  0
  -30.3660  -17.9140   19.1030 C   0  0  0  0  0  3  0  0  0  0  0  0
  -30.7500  -19.3720   21.4420 C   0  0  0  0  0  3  0  0  0  0  0  0
  -30.9370  -17.9540   21.4480 C   0  0  0  0  0  0  0  0  0  0  0  0
  -30.3340  -20.1210   20.3050 C   0  0  0  0  0  0  0  0  0  0  0  0
  -30.7750  -17.1860   20.2610 C   0  0  0  0  0  0  0  0  0  0  0  0
  -31.5820  -14.7360   19.7180 C   0  0  0  0  0  0  0  0  0  0  0  0
  -31.2600  -12.4900   18.6870 C   0  0  0  0  0  2  0  0  0  0  0  0
  -30.2090  -12.6270   17.5590 C   0  0  0  0  0  2  0  0  0  0  0  0
  -28.7780  -12.5190   18.1210 C   0  0  0  0  0  2  0  0  0  0  0  0
  -28.5670  -13.4140   19.3670 C   0  0  0  0  0  3  0  0  0  0  0  0
  -29.6980  -13.1950   20.3930 C   0  0  0  0  0  2  0  0  0  0  0  0
  -30.9700  -13.5080   19.7150 N   0  0  0  0  0  0  0  0  0  0  0  0
  -32.6550  -14.9180   19.1330 O   0  0  0  0  0  0  0  0  0  0  0  0
  -30.8910  -15.7260   20.3670 N   0  0  0  0  0  0  0  0  0  0  0  0
  -30.2280  -15.3310   21.0170 H   0  0  0  0  0  0  0  0  0  0  0  0
  -26.2940  -14.1330   20.3180 C   0  0  0  0  0  0  0  0  0  0  0  0
  -25.2250  -13.4120   20.7710 C   0  0  0  0  0  0  0  0  0  0  0  0
  -25.5910  -12.0380   20.6450 C   0  0  0  0  0  0  0  0  0  0  0  0
  -27.2560  -13.2000   19.9640 N   0  0  0  0  0  0  0  0  0  0  0  0
  -26.8400  -11.9310   20.2130 N   0  0  0  0  0  0  0  0  0  0  0  0
  -24.8000  -10.8190   20.8530 C   0  0  0  0  0  0  0  0  0  0  0  0
  -25.1450   -9.8770   21.8450 C   0  0  0  0  0  3  0  0  0  0  0  0
  -24.3570   -8.7210   22.0340 C   0  0  0  0  0  3  0  0  0  0  0  0
  -23.2120   -8.5030   21.2330 C   0  0  0  0  0  0  0  0  0  0  0  0
  -22.8870   -9.4350   20.2320 C   0  0  0  0  0  3  0  0  0  0  0  0
  -23.6730  -10.5810   20.0400 C   0  0  0  0  0  3  0  0  0  0  0  0
  -22.4020   -7.3970   21.3320 O   0  0  0  0  0  0  0  0  0  0  0  0
  -22.1240   -6.8160   22.5440 C   0  0  0  0  0  0  0  0  0  0  0  0
  -21.5320   -7.5420   23.6020 C   0  0  0  0  0  3  0  0  0  0  0  0
  -21.1970   -6.8860   24.8020 C   0  0  0  0  0  3  0  0  0  0  0  0
  -21.4490   -5.5090   24.9470 C   0  0  0  0  0  0  0  0  0  0  0  0
  -22.0340   -4.7840   23.8940 C   0  0  0  0  0  3  0  0  0  0  0  0
  -22.3680   -5.4360   22.6940 C   0  0  0  0  0  0  0  0  0  0  0  0
  -22.9120   -4.7280   21.6740 F   0  0  0  0  0  0  0  0  0  0  0  0
  -21.1220   -4.8780   26.0990 F   0  0  0  0  0  0  0  0  0  0  0  0
  -23.8960  -13.9670   21.1970 C   0  0  0  0  0  0  0  0  0  0  0  0
  -23.2220  -13.3000   22.1260 N   0  0  0  0  0  0  0  0  0  0  0  0
  -23.4720  -15.0300   20.7430 O   0  0  0  0  0  0  0  0  0  0  0  0
  -23.5770  -12.4390   22.5150 H   0  0  0  0  0  0  0  0  0  0  0  0
  -22.3430  -13.6650   22.4610 H   0  0  0  0  0  0  0  0  0  0  0  0
  -26.5150  -15.4940   20.1500 N   0  0  0  0  0  0  0  0  0  0  0  0
  -25.7530  -16.1530   20.2690 H   0  0  0  0  0  0  0  0  0  0  0  0
  -27.3120  -15.8900   19.6670 H   0  0  0  0  0  0  0  0  0  0  0  0
  -30.3360  -16.2950   23.3970 C   0  0  0  0  0  2  0  0  0  0  0  0
  -30.6420  -17.6130   24.0610 C   0  0  0  0  0  2  0  0  0  0  0  0
  -31.2970  -17.2620   22.7420 C   0  0  0  0  0  3  0  0  0  0  0  0
  -30.0250  -21.6750   20.5020 C   0  0  0  0  0  2  0  0  0  0  0  0
  -30.0160  -22.6940   19.3630 N   0  0  0  0  0  4  0  0  0  0  0  0
  -29.7620  -22.1820   18.5300 H   0  0  0  0  0  0  0  0  0  0  0  0
  -30.9540  -23.0290   19.1920 H   0  0  0  0  0  0  0  0  0  0  0  0
  -29.0240  -23.8740   19.4050 C   0  0  0  0  0  2  0  0  0  0  0  0
  -29.3760  -25.2120   20.2100 C   0  0  0  0  0  2  0  0  0  0  0  0
  -29.2550  -26.5460   19.5560 O   0  0  0  0  0  0  0  0  0  0  0  0
  -24.9460  -31.2690   22.9360 C   0  0  0  0  0  0  0  0  0  0  0  0
  -28.0530  -27.2710   19.5920 C   0  0  0  0  0  0  0  0  0  0  0  0
  -23.9400  -29.9780   21.0810 C   0  0  0  0  0  3  0  0  0  0  0  0
  -25.5800  -28.7050   19.5850 C   0  0  0  0  0  0  0  0  0  0  0  0
  -26.4500  -30.4970   21.0910 C   0  0  0  0  0  2  0  0  0  0  0  0
  -26.6700  -29.2100   20.3020 C   0  0  0  0  0  0  0  0  0  0  0  0
  -27.9130  -28.5100   20.2870 C   0  0  0  0  0  3  0  0  0  0  0  0
  -26.9400  -26.8050   18.8670 C   0  0  0  0  0  3  0  0  0  0  0  0
  -25.7180  -27.5120   18.8570 C   0  0  0  0  0  3  0  0  0  0  0  0
  -24.2790  -29.4830   19.6490 C   0  0  0  0  0  2  0  0  0  0  0  0
  -25.1240  -30.5930   21.7630 N   0  0  0  0  0  0  0  0  0  0  0  0
  -23.8180  -31.4130   23.4330 O   0  0  0  0  0  0  0  0  0  0  0  0
  -23.3140  -28.8140   21.8850 C   0  0  0  0  0  0  0  0  0  0  0  0
  -22.0320  -28.5180   21.6150 N   0  0  0  0  0  0  0  0  0  0  0  0
  -23.9850  -28.1890   22.7080 O   0  0  0  0  0  0  0  0  0  0  0  0
  -21.5520  -29.0780   20.9250 H   0  0  0  0  0  0  0  0  0  0  0  0
  -18.7790  -26.9390   21.6380 C   0  0  0  0  0  0  0  0  0  0  0  0
  -21.2500  -27.4380   22.2170 C   0  0  0  0  0  3  0  0  0  0  0  0
  -21.5750  -26.0850   21.5470 C   0  0  0  0  0  2  0  0  0  0  0  0
  -20.6270  -25.7390   20.3960 C   0  0  0  0  0  2  0  0  0  0  0  0
  -19.1780  -25.6790   20.8880 C   0  0  0  0  0  2  0  0  0  0  0  0
  -19.7560  -27.7740   22.2470 C   0  0  0  0  0  0  0  0  0  0  0  0
  -19.3380  -28.9500   22.9060 C   0  0  0  0  0  3  0  0  0  0  0  0
  -17.9760  -29.2970   22.9680 C   0  0  0  0  0  3  0  0  0  0  0  0
  -17.0120  -28.4570   22.3850 C   0  0  0  0  0  3  0  0  0  0  0  0
  -17.4130  -27.2810   21.7220 C   0  0  0  0  0  3  0  0  0  0  0  0
  -26.1490  -31.9090   23.6970 C   0  0  0  0  0  3  0  0  0  0  0  0
  -25.6880  -33.1840   24.2650 N   0  0  0  0  0  0  0  0  0  0  0  0
  -25.9370  -34.3900   23.7360 C   0  0  0  0  0  0  0  0  0  0  0  0
  -26.6470  -34.5480   22.7380 O   0  0  0  0  0  0  0  0  0  0  0  0
  -25.0650  -33.1260   25.0560 H   0  0  0  0  0  0  0  0  0  0  0  0
  -24.0510  -36.0470   23.6180 C   0  0  0  0  0  1  0  0  0  0  0  0
  -25.2870  -35.6100   24.4170 C   0  0  0  0  0  3  0  0  0  0  0  0
  -27.2770  -36.5120   25.5330 C   0  0  0  0  0  1  0  0  0  0  0  0
  -26.2090  -36.7550   24.5700 N   0  0  0  0  0  0  0  0  0  0  0  0
  -25.7060  -37.5900   24.8560 H   0  0  0  0  0  0  0  0  0  0  0  0
  -26.7350  -30.9800   24.8290 C   0  0  1  0  0  0  0  0  0  0  0  0
  -25.6590  -30.4330   25.7950 C   0  0  0  0  0  1  0  0  0  0  0  0
  -27.4870  -29.7740   24.2170 C   0  0  0  0  0  1  0  0  0  0  0  0
  -27.7700  -31.7700   25.6660 C   0  0  0  0  0  1  0  0  0  0  0  0
  1  5  1  0
  2  1  2  0
  2  6  1  0
  3  4  1  0
  4 47  1  0
  5 48  1  0
  5  3  2  0
  6 15  1  0
  6  4  2  0
  7 15  1  0
  8 13  1  0
  9 10  1  0
  9  8  1  0
 11 10  1  0
 11 20  1  0
 11 12  1  0
 13  7  1  0
 13 12  1  0
 14  7  2  0
 15 16  1  0
 17 18  2  0
 18 37  1  0
 19 18  1  0
 19 22  1  0
 20 21  1  0
 20 17  1  0
 21 19  2  0
 22 23  1  0
 23 24  2  0
 25 28  1  0
 25 24  1  0
 26 25  2  0
 27 26  1  0
 27 22  2  0
 28 29  1  0
 29 34  2  0
 29 30  1  0
 30 31  2  0
 31 32  1  0
 32 36  1  0
 33 32  2  0
 34 33  1  0
 35 34  1  0
 37 38  1  0
 38 41  1  0
 38 40  1  0
 39 37  2  0
 42 43  1  0
 42 17  1  0
 44 42  1  0
 45 46  1  0
 47 45  1  0
 47 46  1  0
 49 52  1  0
 49 48  1  0
 50 49  1  0
 51 49  1  0
 52 53  1  0
 54 56  1  0
 54 53  1  0
 55 66  2  0
 56 61  1  0
 57 65  1  0
 57 67  1  0
 58 64  1  0
 58 60  1  0
 59 65  1  0
 60 59  1  0
 61 60  2  0
 62 56  2  0
 63 62  1  0
 63 58  2  0
 64 57  1  0
 65 55  1  0
 67 69  2  0
 68 67  1  0
 70 68  1  0
 71 80  2  0
 71 76  1  0
 72 68  1  0
 72 76  1  0
 73 72  1  0
 74 75  1  0
 74 73  1  0
 75 71  1  0
 76 77  2  0
 77 78  1  0
 79 78  2  0
 80 79  1  0
 81 55  1  0
 81 82  1  0
 81 91  1  0
 82 85  1  0
 83 82  1  0
 83 87  1  0
 84 83  2  0
 87 86  1  0
 87 89  1  0
 89 90  1  0
 89 88  1  0
 91 94  1  1
 91 92  1  0
 93 91  1  0
M  ISO  4   7 100  15 100  53 101  54 101
M  END
>  <TORSDO>  (74) 
F 21

>  <SCORE>  (74) 
-6.199

>  <name>  (74) 
73

>  <ligand_id>  (74) 
73

>  <original_smiles>  (74) 
[H]c1c([H])c([H])c2c(c1[H])C([H])([H])C([H])([H])C([H])([H])C2([H])N([H])C(=O)C1([H])N(C(=O)C([H])(N([H])C(=O)C([H])(N([H])C([H])([H])[H])C([H])([H])[H])C(C([H])([H])[H])(C([H])([H])[H])C([H])([H])[H])C([H])([H])c2c([H])c(OC([H])([H])C([H])([H])[N+]([H])([H])C([H])([H])c3c([H])c([H])c(N([H])C(=O)N4C([H])([H])C([H])([H])C([H])([H])C([H])(n5nc(-c6c([H])c([H])c(Oc7c([H])c([H])c(F)c([H])c7F)c([H])c6[H])c(C(=O)N([H])[H])c5N([H])[H])C4([H])[H])c(C4([H])C([H])([H])C4([H])[H])c3[H])c([H])c([H])c2C1([H])[H]

>  <smiles>  (74) 
[H]c1c([H])c([H])c2c(c1[H])C([H])([H])C([H])([H])C([H])([H])C2([H])N([H])C(=O)C1([H])N(C(=O)C([H])(N([H])C(=O)C([H])(N([H])C([H])([H])[H])C([H])([H])[H])C(C([H])([H])[H])(C([H])([H])[H])C([H])([H])[H])C([H])([H])c2c([H])c(OC([H])([H])C([H])([H])[N+]([H])([H])C([H])([H])c3c([H])c([H])c(N([H])C(=O)N4C([H])([H])C([H])([H])C([H])([H])C([H])(n5nc(-c6c([H])c([H])c(Oc7c([H])c([H])c(F)c([H])c7F)c([H])c6[H])c(C(=O)N([H])[H])c5N([H])[H])C4([H])[H])c(C4([H])C([H])([H])C4([H])[H])c3[H])c([H])c([H])c2C1([H])[H]

$$$$
74:0:0
     RDKit          3D

 98 96  0  0  1  0  0  0  0  0999 V2000
  -28.3780  -14.6330   17.8290 C   0  0  0  0  0 15  0  0  0  0  0  0
  -29.5250  -13.2930   19.5020 C   0  0  0  0  0 15  0  0  0  0  0  0
  -28.3150  -16.6470   18.3400 C   0  0  0  0  0 15  0  0  0  0  0  0
  -29.1210  -16.5650   21.3370 C   0  0  0  0  0  1  0  0  0  0  0  0
  -29.5340  -14.4120   21.3070 C   0  0  0  0  0  1  0  0  0  0  0  0
  -28.5620  -17.8800   19.9030 C   0  0  0  0  0 15  0  0  0  0  0  0
  -29.9340  -13.6800   22.5840 C   0  0  0  0  0  1  0  0  0  0  0  0
  -27.4560  -17.5250   24.4860 C   0  0  0  0  0  2  0  0  0  0  0  0
  -28.6010  -17.9920   25.4330 C   0  0  0  0  0  2  0  0  0  0  0  0
  -29.0320  -17.0390   22.7830 C   0  0  0  0  0  3  0  0  0  0  0  0
  -30.1650  -17.8780   23.4210 C   0  0  0  0  0  3  0  0  0  0  0  0
  -27.7790  -17.7190   23.0660 N   0  0  0  0  0  0  0  0  0  0  0  0
  -29.9810  -17.7600   24.8970 N   0  0  0  0  0  4  0  0  0  0  0  0
  -27.0690  -17.3430   22.4470 H   0  0  0  0  0  0  0  0  0  0  0  0
  -30.2620  -16.8260   25.1430 H   0  0  0  0  0  0  0  0  0  0  0  0
  -30.6220  -18.3840   25.3570 H   0  0  0  0  0  0  0  0  0  0  0  0
  -31.6190  -17.4750   23.0370 C   0  0  0  0  0  2  0  0  0  0  0  0
  -32.1730  -17.9760   21.6660 C   0  0  0  0  0  2  0  0  0  0  0  0
  -31.4680  -15.9280   20.4510 C   0  0  0  0  0  0  0  0  0  0  0  0
  -31.4360  -14.6400   18.9920 C   0  0  0  0  0  1  0  0  0  0  0  0
  -30.2940  -15.1160   18.5640 C   0  0  0  0  0  2  0  0  0  0  0  0
  -27.5940  -14.0590   19.7960 C   0  0  0  0  0  2  0  0  0  0  0  0
  -26.5310  -14.3540   19.5360 C   0  0  0  0  0  2  0  0  0  0  0  0
  -27.8140  -15.2000   20.0890 C   0  0  0  0  0  1  0  0  0  0  0  0
  -30.2530  -15.5650   19.5640 N   0  0  0  0  0  2  0  0  0  0  0  0
  -32.2170  -15.1480   21.0790 O   0  0  0  0  0  0  0  0  0  0  0  0
  -31.6620  -17.2560   20.5020 N   0  0  0  0  0  0  0  0  0  0  0  0
  -31.0930  -17.7820   19.8520 H   0  0  0  0  0  0  0  0  0  0  0  0
  -24.7420  -14.0640   20.8810 C   0  0  0  0  0  3  0  0  0  0  0  0
  -23.8740  -13.0850   21.1220 C   0  0  0  0  0  0  0  0  0  0  0  0
  -24.4970  -11.8100   20.9210 C   0  0  0  0  0  0  0  0  0  0  0  0
  -25.7090  -13.4320   20.3150 N   0  0  0  0  0  0  0  0  0  0  0  0
  -25.7040  -12.0320   20.4120 N   0  0  0  0  0  2  0  0  0  0  0  0
  -23.8960  -10.4640   21.0310 C   0  0  0  0  0  0  0  0  0  0  0  0
  -24.3710   -9.4570   21.9060 C   0  0  0  0  0  3  0  0  0  0  0  0
  -23.6510   -8.2470   22.0630 C   0  0  0  0  0  3  0  0  0  0  0  0
  -22.4470   -8.0350   21.3490 C   0  0  0  0  0  0  0  0  0  0  0  0
  -22.0050   -9.0210   20.4530 C   0  0  0  0  0  3  0  0  0  0  0  0
  -22.7210  -10.2170   20.2930 C   0  0  0  0  0  3  0  0  0  0  0  0
  -21.6840   -6.8940   21.4230 O   0  0  0  0  0  0  0  0  0  0  0  0
  -21.6970   -6.0810   22.5280 C   0  0  0  0  0  0  0  0  0  0  0  0
  -21.4080   -6.5690   23.8200 C   0  0  0  0  0  3  0  0  0  0  0  0
  -21.3650   -5.6830   24.9150 C   0  0  0  0  0  3  0  0  0  0  0  0
  -21.6030   -4.3090   24.7200 C   0  0  0  0  0  0  0  0  0  0  0  0
  -21.8820   -3.8190   23.4310 C   0  0  0  0  0  3  0  0  0  0  0  0
  -21.9240   -4.7020   22.3380 C   0  0  0  0  0  0  0  0  0  0  0  0
  -22.1710   -4.2210   21.0960 F   0  0  0  0  0  0  0  0  0  0  0  0
  -21.5600   -3.4560   25.7700 F   0  0  0  0  0  0  0  0  0  0  0  0
  -22.4670  -13.4310   21.3060 C   0  0  0  0  0  0  0  0  0  0  0  0
  -21.7870  -12.6950   22.1560 N   0  0  0  0  0  0  0  0  0  0  0  0
  -22.0060  -14.4190   20.7310 O   0  0  0  0  0  0  0  0  0  0  0  0
  -22.2220  -11.9210   22.6350 H   0  0  0  0  0  0  0  0  0  0  0  0
  -20.8180  -12.9100   22.3460 H   0  0  0  0  0  0  0  0  0  0  0  0
  -24.7320  -15.4590   20.9030 N   0  0  0  0  0  0  0  0  0  0  0  0
  -23.8660  -15.9210   21.1550 H   0  0  0  0  0  0  0  0  0  0  0  0
  -25.3750  -16.0590   20.4070 H   0  0  0  0  0  0  0  0  0  0  0  0
  -27.9210  -20.5430   19.9830 C   0  0  0  0  0 15  0  0  0  0  0  0
  -27.9010  -23.1590   20.1940 O   0  0  0  0  0 15  0  0  0  0  0  0
  -24.8260  -31.5770   23.0240 C   0  0  0  0  0  0  0  0  0  0  0  0
  -27.1620  -25.0690   20.2280 C   0  0  0  0  0  3  0  0  0  0  0  0
  -23.7050  -30.1050   21.4220 C   0  0  0  0  0  3  0  0  0  0  0  0
  -25.1270  -28.0830   20.1510 C   0  0  0  0  0  0  0  0  0  0  0  0
  -26.2990  -29.7470   21.5340 C   0  0  0  0  0  2  0  0  0  0  0  0
  -26.3250  -28.1390   20.8680 C   0  0  0  0  0  0  0  0  0  0  0  0
  -27.2500  -26.7270   20.8360 C   0  0  0  0  0  3  0  0  0  0  0  0
  -25.9660  -25.6230   19.4800 C   0  0  0  0  0  3  0  0  0  0  0  0
  -25.0760  -26.8460   19.4360 C   0  0  0  0  0  3  0  0  0  0  0  0
  -24.0130  -29.2350   20.1320 C   0  0  0  0  0  2  0  0  0  0  0  0
  -24.9960  -30.5530   22.0440 N   0  0  0  0  0  0  0  0  0  0  0  0
  -23.7010  -31.9590   23.4190 O   0  0  0  0  0  0  0  0  0  0  0  0
  -22.8270  -29.3170   22.4420 C   0  0  0  0  0  0  0  0  0  0  0  0
  -21.4820  -29.2660   22.3090 N   0  0  0  0  0  0  0  0  0  0  0  0
  -23.3990  -28.7250   23.3590 O   0  0  0  0  0  0  0  0  0  0  0  0
  -21.0470  -29.7930   21.5640 H   0  0  0  0  0  0  0  0  0  0  0  0
  -18.0380  -28.1410   22.8460 C   0  0  0  0  0  0  0  0  0  0  0  0
  -20.6070  -28.3750   23.0980 C   0  0  0  0  0  3  0  0  0  0  0  0
  -20.6700  -26.9290   22.5490 C   0  0  0  0  0  2  0  0  0  0  0  0
  -19.5700  -26.6240   21.5260 C   0  0  0  0  0  2  0  0  0  0  0  0
  -18.1900  -26.7920   22.1640 C   0  0  0  0  0  2  0  0  0  0  0  0
  -19.1690  -28.8950   23.2640 C   0  0  0  0  0  0  0  0  0  0  0  0
  -18.9620  -30.1530   23.8690 C   0  0  0  0  0  3  0  0  0  0  0  0
  -17.6600  -30.6610   24.0490 C   0  0  0  0  0  3  0  0  0  0  0  0
  -16.5460  -29.9060   23.6400 C   0  0  0  0  0  3  0  0  0  0  0  0
  -16.7360  -28.6460   23.0470 C   0  0  0  0  0  3  0  0  0  0  0  0
  -25.9970  -32.3450   23.7380 C   0  0  0  0  0  3  0  0  0  0  0  0
  -26.4760  -31.6290   25.0640 C   0  0  1  0  0  0  0  0  0  0  0  0
  -25.3590  -31.3920   26.1100 C   0  0  0  0  0  1  0  0  0  0  0  0
  -27.1000  -30.2620   24.7490 C   0  0  0  0  0  1  0  0  0  0  0  0
  -27.5840  -32.4620   25.7490 C   0  0  0  0  0  1  0  0  0  0  0  0
  -25.5880  -33.7370   24.1040 N   0  0  0  0  0  0  0  0  0  0  0  0
  -25.9210  -34.8710   23.4620 C   0  0  0  0  0  0  0  0  0  0  0  0
  -26.6100  -34.8620   22.4420 O   0  0  0  0  0  0  0  0  0  0  0  0
  -24.9700  -33.8160   24.8970 H   0  0  0  0  0  0  0  0  0  0  0  0
  -24.1440  -36.6600   23.2730 C   0  0  0  0  0  1  0  0  0  0  0  0
  -25.4130  -36.2250   24.0230 C   0  0  0  0  0  3  0  0  0  0  0  0
  -27.5450  -37.1410   24.8480 C   0  0  0  0  0  1  0  0  0  0  0  0
  -26.4060  -37.3240   23.9530 N   0  0  0  0  0  0  0  0  0  0  0  0
  -25.9700  -38.2140   24.1790 H   0  0  0  0  0  0  0  0  0  0  0  0
  5  7  1  0
  8  9  1  0
 10  4  1  0
 10 12  1  0
 10 11  1  0
 11 17  1  0
 11 13  1  0
 12  8  1  0
 13 15  1  0
 13 16  1  0
 13  9  1  0
 14 12  1  0
 18 17  1  0
 19 27  1  0
 19 26  2  0
 21 20  1  0
 21 25  1  0
 22 24  1  0
 23 22  1  0
 23 32  1  0
 25 19  1  0
 27 18  1  0
 28 27  1  0
 29 54  1  0
 29 30  1  0
 30 49  1  0
 31 34  1  0
 31 30  2  0
 32 33  1  0
 32 29  1  0
 33 31  1  0
 34 35  1  0
 35 36  2  0
 37 40  1  0
 37 36  1  0
 38 37  2  0
 39 38  1  0
 39 34  2  0
 40 41  1  0
 41 42  1  0
 42 43  2  0
 44 43  1  0
 44 48  1  0
 45 44  2  0
 46 41  2  0
 46 45  1  0
 47 46  1  0
 49 50  1  0
 50 53  1  0
 50 52  1  0
 51 49  2  0
 54 55  1  0
 56 54  1  0
 59 70  2  0
 60 65  1  0
 61 69  1  0
 61 71  1  0
 62 64  1  0
 63 69  1  0
 64 63  1  0
 65 64  2  0
 66 60  2  0
 67 66  1  0
 67 62  2  0
 68 62  1  0
 68 61  1  0
 69 59  1  0
 71 73  2  0
 72 71  1  0
 74 72  1  0
 75 84  2  0
 75 80  1  0
 76 72  1  0
 76 80  1  0
 77 76  1  0
 78 79  1  0
 78 77  1  0
 79 75  1  0
 80 81  2  0
 81 82  1  0
 83 82  2  0
 84 83  1  0
 85 59  1  0
 85 90  1  0
 85 86  1  0
 86 89  1  1
 86 87  1  0
 88 86  1  0
 90 93  1  0
 91 95  1  0
 91 90  1  0
 92 91  2  0
 95 94  1  0
 97 95  1  0
 97 98  1  0
 97 96  1  0
M  ISO  4  19 100  27 100  57 101  58 101
M  END
>  <TORSDO>  (75) 
F 20

>  <SCORE>  (75) 
21.291

>  <name>  (75) 
74

>  <ligand_id>  (75) 
74

>  <original_smiles>  (75) 
[H]c1c([H])c(C([H])([H])[H])c(C2([H])N([H])C([H])([H])C([H])([H])[N+]([H])([H])C2([H])C([H])([H])C([H])([H])N([H])C(=O)N2C([H])([H])C([H])([H])C([H])([H])C([H])(n3nc(-c4c([H])c([H])c(Oc5c([H])c([H])c(F)c([H])c5F)c([H])c4[H])c(C(=O)N([H])[H])c3N([H])[H])C2([H])[H])c(C([H])([H])Oc2c([H])c([H])c3c(c2[H])C([H])([H])N(C(=O)C([H])(N([H])C(=O)C([H])(N([H])C([H])([H])[H])C([H])([H])[H])C(C([H])([H])[H])(C([H])([H])[H])C([H])([H])[H])C([H])(C(=O)N([H])C2([H])c4c([H])c([H])c([H])c([H])c4C([H])([H])C([H])([H])C2([H])[H])C3([H])[H])c1[H]

>  <smiles>  (75) 
[H]c1c([H])c(C([H])([H])[H])c(C2([H])N([H])C([H])([H])C([H])([H])[N+]([H])([H])C2([H])C([H])([H])C([H])([H])N([H])C(=O)N2C([H])([H])C([H])([H])C([H])([H])C([H])(n3nc(-c4c([H])c([H])c(Oc5c([H])c([H])c(F)c([H])c5F)c([H])c4[H])c(C(=O)N([H])[H])c3N([H])[H])C2([H])[H])c(C([H])([H])Oc2c([H])c([H])c3c(c2[H])C([H])([H])N(C(=O)C([H])(N([H])C(=O)C([H])(N([H])C([H])([H])[H])C([H])([H])[H])C(C([H])([H])[H])(C([H])([H])[H])C([H])([H])[H])C([H])(C(=O)N([H])C2([H])c4c([H])c([H])c([H])c([H])c4C([H])([H])C([H])([H])C2([H])[H])C3([H])[H])c1[H]

$$$$
75:0:0
     RDKit          3D

 96104  0  0  1  0  0  0  0  0999 V2000
  -27.1970  -24.0590   17.9530 C   0  0  0  0  0  3  0  0  0  0  0  0
  -28.9200  -23.6370   19.2780 C   0  0  0  0  0  3  0  0  0  0  0  0
  -28.3200  -24.6550   18.5860 C   0  0  0  0  0  0  0  0  0  0  0  0
  -27.0520  -22.7560   18.3530 C   0  0  0  0  0  0  0  0  0  0  0  0
  -28.1880  -22.4560   19.1300 N   0  0  0  0  0  0  0  0  0  0  0  0
  -26.0890  -20.5900   17.2680 C   0  0  0  0  0  1  0  0  0  0  0  0
  -24.7020  -22.6530   17.3870 C   0  0  0  0  0  1  0  0  0  0  0  0
  -25.8430  -21.8750   18.0750 C   0  0  0  0  0  3  0  0  0  0  0  0
  -27.5710  -20.6470   20.7520 C   0  0  0  0  0  1  0  0  0  0  0  0
  -28.6090  -21.1890   19.7600 C   0  0  0  0  0  3  0  0  0  0  0  0
  -29.1120  -20.1120   18.7530 C   0  0  0  0  0  2  0  0  0  0  0  0
  -30.2760  -19.3220   19.2280 N   0  0  0  0  0  4  0  0  0  0  0  0
  -30.9890  -19.3880   18.5200 H   0  0  0  0  0  0  0  0  0  0  0  0
  -30.6350  -19.7650   20.0580 H   0  0  0  0  0  0  0  0  0  0  0  0
  -29.9930  -17.8860   19.5000 C   0  0  0  0  0  2  0  0  0  0  0  0
  -31.2500  -17.0840   19.9280 C   0  0  0  0  0  2  0  0  0  0  0  0
  -31.6000  -14.6020   19.9230 C   0  0  0  0  0  0  0  0  0  0  0  0
  -31.1600  -12.3940   18.9490 C   0  0  0  0  0  2  0  0  0  0  0  0
  -30.2050  -12.5930   17.7540 C   0  0  0  0  0  2  0  0  0  0  0  0
  -28.7340  -12.5930   18.2140 C   0  0  0  0  0  2  0  0  0  0  0  0
  -28.4780  -13.5080   19.4430 C   0  0  0  0  0  3  0  0  0  0  0  0
  -29.5450  -13.2860   20.5390 C   0  0  0  0  0  2  0  0  0  0  0  0
  -30.8740  -13.4560   19.9230 N   0  0  0  0  0  0  0  0  0  0  0  0
  -32.7330  -14.6950   19.4400 O   0  0  0  0  0  0  0  0  0  0  0  0
  -30.9080  -15.6960   20.2760 N   0  0  0  0  0  0  0  0  0  0  0  0
  -30.0020  -15.5310   20.6920 H   0  0  0  0  0  0  0  0  0  0  0  0
  -26.1660  -14.3070   20.2410 C   0  0  0  0  0  0  0  0  0  0  0  0
  -25.0460  -13.6250   20.6360 C   0  0  0  0  0  0  0  0  0  0  0  0
  -25.3820  -12.2370   20.5640 C   0  0  0  0  0  0  0  0  0  0  0  0
  -27.1220  -13.3430   19.9610 N   0  0  0  0  0  0  0  0  0  0  0  0
  -26.6530  -12.0920   20.2060 N   0  0  0  0  0  0  0  0  0  0  0  0
  -24.5500  -11.0420   20.7490 C   0  0  0  0  0  0  0  0  0  0  0  0
  -24.8900  -10.0450   21.6880 C   0  0  0  0  0  3  0  0  0  0  0  0
  -24.0630   -8.9160   21.8660 C   0  0  0  0  0  3  0  0  0  0  0  0
  -22.8800   -8.7750   21.1010 C   0  0  0  0  0  0  0  0  0  0  0  0
  -22.5580   -9.7590   20.1510 C   0  0  0  0  0  3  0  0  0  0  0  0
  -23.3850  -10.8790   19.9720 C   0  0  0  0  0  3  0  0  0  0  0  0
  -22.0280   -7.6990   21.1860 O   0  0  0  0  0  0  0  0  0  0  0  0
  -21.8600   -7.0060   22.3580 C   0  0  0  0  0  0  0  0  0  0  0  0
  -21.3920   -7.6360   23.5320 C   0  0  0  0  0  3  0  0  0  0  0  0
  -21.1660   -6.8750   24.6970 C   0  0  0  0  0  3  0  0  0  0  0  0
  -21.3920   -5.4850   24.6860 C   0  0  0  0  0  0  0  0  0  0  0  0
  -21.8550   -4.8560   23.5170 C   0  0  0  0  0  3  0  0  0  0  0  0
  -22.0820   -5.6150   22.3550 C   0  0  0  0  0  0  0  0  0  0  0  0
  -22.5050   -5.0000   21.2240 F   0  0  0  0  0  0  0  0  0  0  0  0
  -21.1700   -4.7530   25.8020 F   0  0  0  0  0  0  0  0  0  0  0  0
  -23.7050  -14.2210   20.9620 C   0  0  0  0  0  0  0  0  0  0  0  0
  -22.9530  -13.5840   21.8540 N   0  0  0  0  0  0  0  0  0  0  0  0
  -23.3400  -15.2860   20.4650 O   0  0  0  0  0  0  0  0  0  0  0  0
  -23.2600  -12.7210   22.2780 H   0  0  0  0  0  0  0  0  0  0  0  0
  -22.0520  -13.9640   22.1140 H   0  0  0  0  0  0  0  0  0  0  0  0
  -26.4440  -15.6610   20.0810 N   0  0  0  0  0  0  0  0  0  0  0  0
  -25.7240  -16.3690   20.1910 H   0  0  0  0  0  0  0  0  0  0  0  0
  -27.2850  -16.0180   19.6510 H   0  0  0  0  0  0  0  0  0  0  0  0
  -28.7530  -26.1120   18.4440 C   0  0  0  0  0  2  0  0  0  0  0  0
  -28.5150  -26.9890   19.5640 O   0  0  0  0  0  0  0  0  0  0  0  0
  -24.6120  -31.8150   23.1210 C   0  0  0  0  0  0  0  0  0  0  0  0
  -27.3130  -27.6740   19.6510 C   0  0  0  0  0  0  0  0  0  0  0  0
  -23.4080  -30.4760   21.4280 C   0  0  0  0  0  3  0  0  0  0  0  0
  -24.8670  -29.0930   19.8650 C   0  0  0  0  0  0  0  0  0  0  0  0
  -25.9150  -30.9330   21.1830 C   0  0  0  0  0  2  0  0  0  0  0  0
  -26.0290  -29.6080   20.4580 C   0  0  0  0  0  0  0  0  0  0  0  0
  -27.2510  -28.8980   20.3620 C   0  0  0  0  0  3  0  0  0  0  0  0
  -26.1230  -27.1830   19.0680 C   0  0  0  0  0  3  0  0  0  0  0  0
  -24.9080  -27.8750   19.1790 C   0  0  0  0  0  3  0  0  0  0  0  0
  -23.6010  -29.9000   20.0020 C   0  0  0  0  0  2  0  0  0  0  0  0
  -24.6650  -31.0880   21.9680 N   0  0  0  0  0  0  0  0  0  0  0  0
  -23.5400  -32.0060   23.7120 O   0  0  0  0  0  0  0  0  0  0  0  0
  -22.8270  -29.3670   22.3360 C   0  0  0  0  0  0  0  0  0  0  0  0
  -21.5110  -29.1280   22.2230 N   0  0  0  0  0  0  0  0  0  0  0  0
  -23.5570  -28.7320   23.1010 O   0  0  0  0  0  0  0  0  0  0  0  0
  -20.9760  -29.6990   21.5840 H   0  0  0  0  0  0  0  0  0  0  0  0
  -18.2210  -27.7110   22.6850 C   0  0  0  0  0  0  0  0  0  0  0  0
  -20.7610  -28.1080   22.9560 C   0  0  0  0  0  3  0  0  0  0  0  0
  -20.9420  -26.7140   22.3130 C   0  0  0  0  0  2  0  0  0  0  0  0
  -19.8550  -26.3710   21.2880 C   0  0  0  0  0  2  0  0  0  0  0  0
  -18.4720  -26.4070   21.9470 C   0  0  0  0  0  2  0  0  0  0  0  0
  -19.2960  -28.5160   23.1460 C   0  0  0  0  0  0  0  0  0  0  0  0
  -19.0060  -29.7350   23.7950 C   0  0  0  0  0  3  0  0  0  0  0  0
  -17.6750  -30.1540   23.9820 C   0  0  0  0  0  3  0  0  0  0  0  0
  -16.6160  -29.3450   23.5400 C   0  0  0  0  0  3  0  0  0  0  0  0
  -16.8880  -28.1240   22.8960 C   0  0  0  0  0  3  0  0  0  0  0  0
  -25.8920  -32.4570   23.7370 C   0  0  0  0  0  3  0  0  0  0  0  0
  -25.5600  -33.8310   24.1240 N   0  0  0  0  0  0  0  0  0  0  0  0
  -25.8560  -34.9210   23.3970 C   0  0  0  0  0  0  0  0  0  0  0  0
  -26.5140  -34.8690   22.3540 O   0  0  0  0  0  0  0  0  0  0  0  0
  -24.9650  -33.9420   24.9310 H   0  0  0  0  0  0  0  0  0  0  0  0
  -24.0850  -36.6820   23.1230 C   0  0  0  0  0  1  0  0  0  0  0  0
  -25.3420  -36.2780   23.9090 C   0  0  0  0  0  3  0  0  0  0  0  0
  -27.4620  -37.1870   24.7570 C   0  0  0  0  0  1  0  0  0  0  0  0
  -26.3500  -37.3570   23.8240 N   0  0  0  0  0  0  0  0  0  0  0  0
  -25.9240  -38.2610   23.9930 H   0  0  0  0  0  0  0  0  0  0  0  0
  -26.4560  -31.6510   24.9710 C   0  0  1  0  0  0  0  0  0  0  0  0
  -25.4000  -31.3450   26.0550 C   0  0  0  0  0  1  0  0  0  0  0  0
  -27.0610  -30.3080   24.5100 C   0  0  0  0  0  1  0  0  0  0  0  0
  -27.6040  -32.4430   25.6400 C   0  0  0  0  0  1  0  0  0  0  0  0
  1  4  2  0
  1  3  1  0
  3  2  2  0
  4  5  1  0
  5  2  1  0
  5 10  1  0
  6  8  1  0
  7  8  1  0
  8  4  1  0
 10  9  1  0
 11 12  1  0
 11 10  1  0
 12 15  1  0
 12 14  1  0
 13 12  1  0
 15 16  1  0
 16 25  1  0
 17 25  1  0
 18 23  1  0
 19 20  1  0
 19 18  1  0
 21 20  1  0
 21 30  1  0
 21 22  1  0
 23 17  1  0
 23 22  1  0
 24 17  2  0
 25 26  1  0
 27 28  2  0
 28 47  1  0
 29 28  1  0
 29 32  1  0
 30 31  1  0
 30 27  1  0
 31 29  2  0
 32 33  1  0
 33 34  2  0
 35 38  1  0
 35 34  1  0
 36 35  2  0
 37 36  1  0
 37 32  2  0
 38 39  1  0
 39 40  1  0
 40 41  2  0
 42 41  1  0
 42 46  1  0
 43 42  2  0
 44 39  2  0
 44 43  1  0
 45 44  1  0
 47 48  1  0
 48 51  1  0
 48 50  1  0
 49 47  2  0
 52 53  1  0
 52 27  1  0
 54 52  1  0
 55  3  1  0
 55 56  1  0
 56 58  1  0
 57 68  2  0
 58 63  1  0
 59 67  1  0
 59 69  1  0
 60 66  1  0
 60 62  1  0
 61 67  1  0
 62 61  1  0
 63 62  2  0
 64 65  1  0
 64 58  2  0
 65 60  2  0
 66 59  1  0
 67 57  1  0
 69 71  2  0
 70 69  1  0
 72 70  1  0
 73 82  2  0
 73 78  1  0
 74 70  1  0
 74 78  1  0
 75 74  1  0
 76 77  1  0
 76 75  1  0
 77 73  1  0
 78 79  2  0
 79 80  1  0
 81 80  2  0
 82 81  1  0
 83 57  1  0
 83 84  1  0
 83 93  1  0
 84 87  1  0
 85 89  1  0
 85 84  1  0
 86 85  2  0
 89 88  1  0
 91 89  1  0
 91 92  1  0
 91 90  1  0
 93 96  1  1
 93 94  1  0
 95 93  1  0
M  ISO  4  17 100  25 100  55 101  56 101
M  END
>  <TORSDO>  (76) 
F 23

>  <SCORE>  (76) 
-11.318

>  <name>  (76) 
75

>  <ligand_id>  (76) 
75

>  <original_smiles>  (76) 
[H]c1c([H])c([H])c2c(c1[H])C([H])([H])C([H])([H])C([H])([H])C2([H])N([H])C(=O)C1([H])N(C(=O)C([H])(N([H])C(=O)C([H])(N([H])C([H])([H])[H])C([H])([H])[H])C(C([H])([H])[H])(C([H])([H])[H])C([H])([H])[H])C([H])([H])c2c([H])c(OC([H])([H])c3c([H])c(C([H])(C([H])([H])[H])C([H])([H])[H])n(C([H])(C([H])([H])[H])C([H])([H])[N+]([H])([H])C([H])([H])C([H])([H])N([H])C(=O)N4C([H])([H])C([H])([H])C([H])([H])C([H])(n5nc(-c6c([H])c([H])c(Oc7c([H])c([H])c(F)c([H])c7F)c([H])c6[H])c(C(=O)N([H])[H])c5N([H])[H])C4([H])[H])c3[H])c([H])c([H])c2C1([H])[H]

>  <smiles>  (76) 
[H]c1c([H])c([H])c2c(c1[H])C([H])([H])C([H])([H])C([H])([H])C2([H])N([H])C(=O)C1([H])N(C(=O)C([H])(N([H])C(=O)C([H])(N([H])C([H])([H])[H])C([H])([H])[H])C(C([H])([H])[H])(C([H])([H])[H])C([H])([H])[H])C([H])([H])c2c([H])c(OC([H])([H])c3c([H])c(C([H])(C([H])([H])[H])C([H])([H])[H])n(C([H])(C([H])([H])[H])C([H])([H])[N+]([H])([H])C([H])([H])C([H])([H])N([H])C(=O)N4C([H])([H])C([H])([H])C([H])([H])C([H])(n5nc(-c6c([H])c([H])c(Oc7c([H])c([H])c(F)c([H])c7F)c([H])c6[H])c(C(=O)N([H])[H])c5N([H])[H])C4([H])[H])c3[H])c([H])c([H])c2C1([H])[H]

$$$$
76:0:0
     RDKit          3D

104113  0  0  1  0  0  0  0  0999 V2000
  -29.2740  -19.4380   18.7940 N   0  0  0  0  0  4  0  0  0  0  0  0
  -30.1050  -19.8440   18.4000 H   0  0  0  0  0  0  0  0  0  0  0  0
  -28.7900  -18.9670   18.0490 H   0  0  0  0  0  0  0  0  0  0  0  0
  -26.5070  -21.7870   17.2610 C   0  0  0  0  0  2  0  0  0  0  0  0
  -26.2770  -20.3750   17.8060 C   0  0  0  0  0  2  0  0  0  0  0  0
  -28.0080  -22.0850   17.1950 C   0  0  0  0  0  2  0  0  0  0  0  0
  -26.8860  -20.2290   19.2120 C   0  0  0  0  0  2  0  0  0  0  0  0
  -28.7030  -21.9420   18.5760 C   0  0  0  0  0  3  0  0  0  0  0  0
  -28.4050  -20.5590   19.2790 C   0  0  0  0  0  3  0  0  0  0  0  0
  -28.3350  -23.0430   19.4860 N   0  0  0  0  0  0  0  0  0  0  0  0
  -28.8280  -22.9240   20.3670 H   0  0  0  0  0  0  0  0  0  0  0  0
  -28.5610  -24.4170   19.0080 C   0  0  0  0  0  2  0  0  0  0  0  0
  -28.2080  -25.4450   20.1010 C   0  0  0  0  0  2  0  0  0  0  0  0
  -28.2260  -26.7770   19.5760 O   0  0  0  0  0  0  0  0  0  0  0  0
  -24.4840  -31.6240   23.1660 C   0  0  0  0  0  0  0  0  0  0  0  0
  -27.0420  -27.4680   19.6700 C   0  0  0  0  0  0  0  0  0  0  0  0
  -23.2160  -30.3230   21.4850 C   0  0  0  0  0  3  0  0  0  0  0  0
  -24.6200  -28.9100   19.8890 C   0  0  0  0  0  0  0  0  0  0  0  0
  -25.7220  -30.7430   21.1910 C   0  0  0  0  0  2  0  0  0  0  0  0
  -25.7970  -29.4240   20.4510 C   0  0  0  0  0  0  0  0  0  0  0  0
  -27.0120  -28.7140   20.3340 C   0  0  0  0  0  3  0  0  0  0  0  0
  -25.8510  -26.9610   19.1070 C   0  0  0  0  0  3  0  0  0  0  0  0
  -24.6430  -27.6760   19.2130 C   0  0  0  0  0  3  0  0  0  0  0  0
  -23.3690  -29.7420   20.0510 C   0  0  0  0  0  2  0  0  0  0  0  0
  -24.4950  -30.9070   22.0080 N   0  0  0  0  0  0  0  0  0  0  0  0
  -23.4280  -31.8360   23.7770 O   0  0  0  0  0  0  0  0  0  0  0  0
  -22.6240  -29.2290   22.3980 C   0  0  0  0  0  0  0  0  0  0  0  0
  -21.3110  -28.9810   22.2640 N   0  0  0  0  0  0  0  0  0  0  0  0
  -23.3410  -28.6060   23.1880 O   0  0  0  0  0  0  0  0  0  0  0  0
  -20.7900  -29.5350   21.5990 H   0  0  0  0  0  0  0  0  0  0  0  0
  -18.0210  -27.5440   22.6650 C   0  0  0  0  0  0  0  0  0  0  0  0
  -20.5480  -27.9690   22.9950 C   0  0  0  0  0  3  0  0  0  0  0  0
  -20.7630  -26.5640   22.3840 C   0  0  0  0  0  2  0  0  0  0  0  0
  -19.7040  -26.1930   21.3410 C   0  0  0  0  0  2  0  0  0  0  0  0
  -18.3030  -26.2280   21.9570 C   0  0  0  0  0  2  0  0  0  0  0  0
  -19.0760  -28.3680   23.1370 C   0  0  0  0  0  0  0  0  0  0  0  0
  -18.7580  -29.5980   23.7520 C   0  0  0  0  0  3  0  0  0  0  0  0
  -17.4180  -30.0060   23.9010 C   0  0  0  0  0  3  0  0  0  0  0  0
  -16.3790  -29.1760   23.4480 C   0  0  0  0  0  3  0  0  0  0  0  0
  -16.6800  -27.9470   22.8360 C   0  0  0  0  0  3  0  0  0  0  0  0
  -25.7930  -32.2320   23.7640 C   0  0  0  0  0  3  0  0  0  0  0  0
  -26.3330  -31.4370   25.0140 C   0  0  1  0  0  0  0  0  0  0  0  0
  -25.2660  -31.1770   26.1020 C   0  0  0  0  0  1  0  0  0  0  0  0
  -26.9030  -30.0670   24.5810 C   0  0  0  0  0  1  0  0  0  0  0  0
  -27.5000  -32.2130   25.6660 C   0  0  0  0  0  1  0  0  0  0  0  0
  -25.5100  -33.6300   24.1190 N   0  0  0  0  0  0  0  0  0  0  0  0
  -25.8450  -34.6890   23.3680 C   0  0  0  0  0  0  0  0  0  0  0  0
  -26.5000  -34.5920   22.3280 O   0  0  0  0  0  0  0  0  0  0  0  0
  -24.9500  -33.7830   24.9450 H   0  0  0  0  0  0  0  0  0  0  0  0
  -24.1470  -36.5120   23.0430 C   0  0  0  0  0  1  0  0  0  0  0  0
  -25.3810  -36.0770   23.8490 C   0  0  0  0  0  3  0  0  0  0  0  0
  -27.5240  -36.9190   24.6990 C   0  0  0  0  0  1  0  0  0  0  0  0
  -26.4290  -37.1150   23.7530 N   0  0  0  0  0  0  0  0  0  0  0  0
  -26.0360  -38.0390   23.9140 H   0  0  0  0  0  0  0  0  0  0  0  0
  -29.7300  -18.4150   19.7900 C   0  0  0  0  0  3  0  0  0  0  0  0
  -30.8100  -19.5860   21.8670 C   0  0  0  0  0  3  0  0  0  0  0  0
  -32.2340  -19.0050   20.2390 C   0  0  0  0  0  3  0  0  0  0  0  0
  -30.9020  -18.9650   20.5890 C   0  0  0  0  0  0  0  0  0  0  0  0
  -32.0580  -20.0170   22.2140 C   0  0  0  0  0  0  0  0  0  0  0  0
  -32.9580  -19.6390   21.2410 N   0  0  0  0  0  0  0  0  0  0  0  0
  -34.6630  -21.2650   20.5570 C   0  0  0  0  0  1  0  0  0  0  0  0
  -35.2600  -18.7720   20.7500 C   0  0  0  0  0  1  0  0  0  0  0  0
  -34.3900  -19.9330   21.2660 C   0  0  0  0  0  3  0  0  0  0  0  0
  -31.5440  -20.7570   24.3610 C   0  0  0  0  0  1  0  0  0  0  0  0
  -32.4740  -20.7150   23.2930 O   0  0  0  0  0  0  0  0  0  0  0  0
  -30.0380  -17.0280   19.1330 C   0  0  0  0  0  2  0  0  0  0  0  0
  -30.8420  -14.7630   19.8370 C   0  0  0  0  0  0  0  0  0  0  0  0
  -30.5880  -12.4760   18.9700 C   0  0  0  0  0  2  0  0  0  0  0  0
  -29.6170  -12.5450   17.7710 C   0  0  0  0  0  2  0  0  0  0  0  0
  -28.1510  -12.4250   18.2340 C   0  0  0  0  0  2  0  0  0  0  0  0
  -27.8260  -13.3790   19.4140 C   0  0  0  0  0  3  0  0  0  0  0  0
  -28.9060  -13.2890   20.5170 C   0  0  0  0  0  2  0  0  0  0  0  0
  -30.2140  -13.5550   19.8990 N   0  0  0  0  0  0  0  0  0  0  0  0
  -31.9790  -14.8970   19.3800 O   0  0  0  0  0  0  0  0  0  0  0  0
  -30.0370  -15.8330   20.0190 N   0  0  0  0  0  0  0  0  0  0  0  0
  -29.1620  -15.6230   20.4750 H   0  0  0  0  0  0  0  0  0  0  0  0
  -25.4780  -14.0530   20.2220 C   0  0  0  0  0  0  0  0  0  0  0  0
  -24.4060  -13.3100   20.6420 C   0  0  0  0  0  0  0  0  0  0  0  0
  -24.8310  -11.9460   20.5970 C   0  0  0  0  0  0  0  0  0  0  0  0
  -26.4870  -13.1420   19.9510 N   0  0  0  0  0  0  0  0  0  0  0  0
  -26.1050  -11.8700   20.2350 N   0  0  0  0  0  0  0  0  0  0  0  0
  -24.0820  -10.7040   20.8240 C   0  0  0  0  0  0  0  0  0  0  0  0
  -24.5210   -9.7390   21.7560 C   0  0  0  0  0  3  0  0  0  0  0  0
  -23.7770   -8.5600   21.9700 C   0  0  0  0  0  3  0  0  0  0  0  0
  -22.5800   -8.3360   21.2500 C   0  0  0  0  0  0  0  0  0  0  0  0
  -22.1580   -9.2890   20.3060 C   0  0  0  0  0  3  0  0  0  0  0  0
  -22.9030  -10.4610   20.0910 C   0  0  0  0  0  3  0  0  0  0  0  0
  -21.8030   -7.2100   21.3740 O   0  0  0  0  0  0  0  0  0  0  0  0
  -21.7390   -6.5040   22.5470 C   0  0  0  0  0  0  0  0  0  0  0  0
  -21.2970   -7.0970   23.7500 C   0  0  0  0  0  3  0  0  0  0  0  0
  -21.1850   -6.3180   24.9190 C   0  0  0  0  0  3  0  0  0  0  0  0
  -21.4980   -4.9460   24.8860 C   0  0  0  0  0  0  0  0  0  0  0  0
  -21.9300   -4.3520   23.6860 C   0  0  0  0  0  3  0  0  0  0  0  0
  -22.0480   -5.1290   22.5200 C   0  0  0  0  0  0  0  0  0  0  0  0
  -22.4450   -4.5480   21.3620 F   0  0  0  0  0  0  0  0  0  0  0  0
  -21.3820   -4.1950   26.0060 F   0  0  0  0  0  0  0  0  0  0  0  0
  -23.0340  -13.8240   20.9690 C   0  0  0  0  0  0  0  0  0  0  0  0
  -22.3460  -13.1790   21.9070 N   0  0  0  0  0  0  0  0  0  0  0  0
  -22.5820  -14.8340   20.4310 O   0  0  0  0  0  0  0  0  0  0  0  0
  -22.7270  -12.3640   22.3650 H   0  0  0  0  0  0  0  0  0  0  0  0
  -21.4240  -13.5010   22.1650 H   0  0  0  0  0  0  0  0  0  0  0  0
  -25.6730  -15.4180   20.0300 N   0  0  0  0  0  0  0  0  0  0  0  0
  -24.9300  -16.0930   20.1600 H   0  0  0  0  0  0  0  0  0  0  0  0
  -26.5030  -15.8140   19.6100 H   0  0  0  0  0  0  0  0  0  0  0  0
  1 55  1  0
  2  1  1  0
  3  1  1  0
  4  5  1  0
  5  7  1  0
  6  4  1  0
  6  8  1  0
  7  9  1  0
  8  9  1  0
  8 10  1  0
  9  1  1  0
 10 11  1  0
 12 10  1  0
 12 13  1  0
 14 16  1  0
 14 13  1  0
 15 26  2  0
 16 21  1  0
 17 25  1  0
 17 27  1  0
 18 24  1  0
 18 20  1  0
 19 25  1  0
 20 19  1  0
 21 20  2  0
 22 23  1  0
 22 16  2  0
 23 18  2  0
 24 17  1  0
 25 15  1  0
 27 29  2  0
 28 27  1  0
 30 28  1  0
 31 40  2  0
 31 36  1  0
 32 28  1  0
 32 36  1  0
 33 32  1  0
 34 35  1  0
 34 33  1  0
 35 31  1  0
 36 37  2  0
 37 38  1  0
 39 38  2  0
 40 39  1  0
 41 15  1  0
 41 46  1  0
 41 42  1  0
 42 45  1  1
 42 43  1  0
 44 42  1  0
 46 49  1  0
 47 51  1  0
 47 46  1  0
 48 47  2  0
 51 50  1  0
 53 51  1  0
 53 54  1  0
 53 52  1  0
 55 66  1  0
 55 58  1  0
 56 59  2  0
 57 58  2  0
 57 60  1  0
 58 56  1  0
 59 65  1  0
 60 63  1  0
 60 59  1  0
 61 63  1  0
 62 63  1  0
 65 64  1  0
 66 75  1  0
 67 73  1  0
 67 75  1  0
 68 73  1  0
 69 70  1  0
 69 68  1  0
 71 70  1  0
 71 80  1  0
 71 72  1  0
 73 72  1  0
 74 67  2  0
 75 76  1  0
 77 78  2  0
 78 97  1  0
 79 78  1  0
 79 82  1  0
 80 77  1  0
 80 81  1  0
 81 79  2  0
 82 83  1  0
 83 84  2  0
 85 88  1  0
 85 84  1  0
 86 85  2  0
 87 86  1  0
 87 82  2  0
 88 89  1  0
 89 90  1  0
 90 91  2  0
 92 91  1  0
 92 96  1  0
 93 92  2  0
 94 89  2  0
 94 93  1  0
 95 94  1  0
 97 98  1  0
 98101  1  0
 98100  1  0
 99 97  2  0
102103  1  0
102 77  1  0
104102  1  0
M  ISO  4  13 101  14 101  67 100  75 100
M  END
>  <TORSDO>  (77) 
F 25

>  <SCORE>  (77) 
-11.403

>  <name>  (77) 
76

>  <ligand_id>  (77) 
76

>  <original_smiles>  (77) 
[H]c1c([H])c([H])c2c(c1[H])C([H])([H])C([H])([H])C([H])([H])C2([H])N([H])C(=O)C1([H])N(C(=O)C([H])(N([H])C(=O)C([H])(N([H])C([H])([H])[H])C([H])([H])[H])C(C([H])([H])[H])(C([H])([H])[H])C([H])([H])[H])C([H])([H])c2c([H])c(OC([H])([H])C([H])([H])N([H])C3([H])C([H])([H])C([H])([H])C([H])([H])C([H])([H])C3([H])[N+]([H])([H])C([H])(c3c([H])c(OC([H])([H])[H])n(C([H])(C([H])([H])[H])C([H])([H])[H])c3[H])C([H])([H])N([H])C(=O)N3C([H])([H])C([H])([H])C([H])([H])C([H])(n4nc(-c5c([H])c([H])c(Oc6c([H])c([H])c(F)c([H])c6F)c([H])c5[H])c(C(=O)N([H])[H])c4N([H])[H])C3([H])[H])c([H])c([H])c2C1([H])[H]

>  <smiles>  (77) 
[H]c1c([H])c([H])c2c(c1[H])C([H])([H])C([H])([H])C([H])([H])C2([H])N([H])C(=O)C1([H])N(C(=O)C([H])(N([H])C(=O)C([H])(N([H])C([H])([H])[H])C([H])([H])[H])C(C([H])([H])[H])(C([H])([H])[H])C([H])([H])[H])C([H])([H])c2c([H])c(OC([H])([H])C([H])([H])N([H])C3([H])C([H])([H])C([H])([H])C([H])([H])C([H])([H])C3([H])[N+]([H])([H])C([H])(c3c([H])c(OC([H])([H])[H])n(C([H])(C([H])([H])[H])C([H])([H])[H])c3[H])C([H])([H])N([H])C(=O)N3C([H])([H])C([H])([H])C([H])([H])C([H])(n4nc(-c5c([H])c([H])c(Oc6c([H])c([H])c(F)c([H])c6F)c([H])c5[H])c(C(=O)N([H])[H])c4N([H])[H])C3([H])[H])c([H])c([H])c2C1([H])[H]

$$$$
77:0:0
     RDKit          3D

 96106  0  0  1  0  0  0  0  0999 V2000
  -28.9100  -20.0580   19.8950 N   0  0  0  0  0  4  0  0  0  0  0  0
  -28.5450  -19.8020   18.9910 H   0  0  0  0  0  0  0  0  0  0  0  0
  -28.2420  -19.7130   20.5650 H   0  0  0  0  0  0  0  0  0  0  0  0
  -29.3300  -22.5540   18.8270 C   0  0  0  0  0  2  0  0  0  0  0  0
  -27.4750  -22.3250   20.3800 C   0  0  0  0  0  2  0  0  0  0  0  0
  -29.3290  -24.1460   19.0760 C   0  0  0  0  0  2  0  0  0  0  0  0
  -27.4630  -23.9170   20.6350 C   0  0  0  0  0  2  0  0  0  0  0  0
  -28.8650  -21.6500   20.0340 C   0  0  0  0  0  3  0  0  0  0  0  0
  -27.9760  -24.8650   19.4800 C   0  0  0  0  0  3  0  0  0  0  0  0
  -28.0960  -26.3810   19.7380 O   0  0  0  0  0  0  0  0  0  0  0  0
  -24.6110  -31.8550   23.1220 C   0  0  0  0  0  0  0  0  0  0  0  0
  -27.0070  -27.3070   19.7630 C   0  0  0  0  0  0  0  0  0  0  0  0
  -23.3220  -30.5420   21.4780 C   0  0  0  0  0  3  0  0  0  0  0  0
  -24.6870  -29.0290   19.9190 C   0  0  0  0  0  0  0  0  0  0  0  0
  -25.8630  -30.8130   21.2020 C   0  0  0  0  0  2  0  0  0  0  0  0
  -25.8930  -29.4550   20.4890 C   0  0  0  0  0  0  0  0  0  0  0  0
  -27.0530  -28.6090   20.3940 C   0  0  0  0  0  3  0  0  0  0  0  0
  -25.7720  -26.9630   19.1720 C   0  0  0  0  0  3  0  0  0  0  0  0
  -24.6350  -27.7970   19.2490 C   0  0  0  0  0  3  0  0  0  0  0  0
  -23.4700  -29.9260   20.0620 C   0  0  0  0  0  2  0  0  0  0  0  0
  -24.6210  -31.0890   21.9890 N   0  0  0  0  0  0  0  0  0  0  0  0
  -23.5530  -32.1220   23.7130 O   0  0  0  0  0  0  0  0  0  0  0  0
  -22.6840  -29.4950   22.4240 C   0  0  0  0  0  0  0  0  0  0  0  0
  -21.3600  -29.2910   22.3060 N   0  0  0  0  0  0  0  0  0  0  0  0
  -23.3820  -28.8700   23.2270 O   0  0  0  0  0  0  0  0  0  0  0  0
  -20.8530  -29.8490   21.6330 H   0  0  0  0  0  0  0  0  0  0  0  0
  -18.0340  -27.9300   22.7440 C   0  0  0  0  0  0  0  0  0  0  0  0
  -20.5700  -28.3170   23.0630 C   0  0  0  0  0  3  0  0  0  0  0  0
  -20.7530  -26.8900   22.4970 C   0  0  0  0  0  2  0  0  0  0  0  0
  -19.6900  -26.5110   21.4610 C   0  0  0  0  0  2  0  0  0  0  0  0
  -18.2900  -26.5890   22.0760 C   0  0  0  0  0  2  0  0  0  0  0  0
  -19.1040  -28.7480   23.1920 C   0  0  0  0  0  0  0  0  0  0  0  0
  -18.8110  -29.9990   23.7760 C   0  0  0  0  0  3  0  0  0  0  0  0
  -17.4790  -30.4340   23.9170 C   0  0  0  0  0  3  0  0  0  0  0  0
  -16.4230  -29.6150   23.4830 C   0  0  0  0  0  3  0  0  0  0  0  0
  -16.7000  -28.3650   22.9020 C   0  0  0  0  0  3  0  0  0  0  0  0
  -25.9230  -32.4510   23.7150 C   0  0  0  0  0  3  0  0  0  0  0  0
  -26.4880  -31.6180   24.9320 C   0  0  1  0  0  0  0  0  0  0  0  0
  -25.4420  -31.3420   26.0350 C   0  0  0  0  0  1  0  0  0  0  0  0
  -27.0410  -30.2550   24.4560 C   0  0  0  0  0  1  0  0  0  0  0  0
  -27.6740  -32.3740   25.5770 C   0  0  0  0  0  1  0  0  0  0  0  0
  -25.6380  -33.8350   24.1290 N   0  0  0  0  0  0  0  0  0  0  0  0
  -25.9600  -34.9250   23.4190 C   0  0  0  0  0  0  0  0  0  0  0  0
  -26.5950  -34.8700   22.3630 O   0  0  0  0  0  0  0  0  0  0  0  0
  -25.0720  -33.9510   24.9570 H   0  0  0  0  0  0  0  0  0  0  0  0
  -24.2570  -36.7670   23.2110 C   0  0  0  0  0  1  0  0  0  0  0  0
  -25.5070  -36.2920   23.9700 C   0  0  0  0  0  3  0  0  0  0  0  0
  -27.6660  -37.1020   24.8160 C   0  0  0  0  0  1  0  0  0  0  0  0
  -26.5550  -37.3330   23.8970 N   0  0  0  0  0  0  0  0  0  0  0  0
  -26.1650  -38.2520   24.0950 H   0  0  0  0  0  0  0  0  0  0  0  0
  -30.2100  -19.2120   20.1540 C   0  0  0  0  0  3  0  0  0  0  0  0
  -30.6400  -15.0090   19.8030 C   0  0  0  0  0  0  0  0  0  0  0  0
  -30.4630  -12.6280   18.9670 C   0  0  0  0  0  2  0  0  0  0  0  0
  -29.4590  -12.5010   17.8030 C   0  0  0  0  0  2  0  0  0  0  0  0
  -28.0280  -12.3010   18.3400 C   0  0  0  0  0  2  0  0  0  0  0  0
  -27.6790  -13.2950   19.4800 C   0  0  0  0  0  3  0  0  0  0  0  0
  -28.7980  -13.3860   20.5350 C   0  0  0  0  0  2  0  0  0  0  0  0
  -30.0200  -13.7670   19.8170 N   0  0  0  0  0  0  0  0  0  0  0  0
  -31.8180  -15.0520   19.4370 O   0  0  0  0  0  0  0  0  0  0  0  0
  -29.3840  -16.7450   21.1380 C   0  0  0  0  0  2  0  0  0  0  0  0
  -30.4190  -17.5630   20.3910 C   0  0  0  0  0  3  0  0  0  0  0  0
  -29.9020  -16.2170   19.9170 N   0  0  0  0  0  0  0  0  0  0  0  0
  -25.3800  -13.9000   20.4270 C   0  0  0  0  0  0  0  0  0  0  0  0
  -24.3320  -13.1350   20.8590 C   0  0  0  0  0  0  0  0  0  0  0  0
  -24.7650  -11.7770   20.7530 C   0  0  0  0  0  0  0  0  0  0  0  0
  -26.3800  -13.0090   20.0780 N   0  0  0  0  0  0  0  0  0  0  0  0
  -26.0240  -11.7250   20.3380 N   0  0  0  0  0  0  0  0  0  0  0  0
  -24.0290  -10.5230   20.9640 C   0  0  0  0  0  0  0  0  0  0  0  0
  -24.5130   -9.5170   21.8300 C   0  0  0  0  0  3  0  0  0  0  0  0
  -23.7770   -8.3290   22.0310 C   0  0  0  0  0  3  0  0  0  0  0  0
  -22.5420   -8.1380   21.3660 C   0  0  0  0  0  0  0  0  0  0  0  0
  -22.0760   -9.1320   20.4870 C   0  0  0  0  0  3  0  0  0  0  0  0
  -22.8120  -10.3110   20.2840 C   0  0  0  0  0  3  0  0  0  0  0  0
  -21.7710   -7.0070   21.4810 O   0  0  0  0  0  0  0  0  0  0  0  0
  -21.7960   -6.2310   22.6120 C   0  0  0  0  0  0  0  0  0  0  0  0
  -21.4330   -6.7450   23.8750 C   0  0  0  0  0  3  0  0  0  0  0  0
  -21.4040   -5.8950   24.9990 C   0  0  0  0  0  3  0  0  0  0  0  0
  -21.7310   -4.5330   24.8620 C   0  0  0  0  0  0  0  0  0  0  0  0
  -22.0880   -4.0180   23.6030 C   0  0  0  0  0  3  0  0  0  0  0  0
  -22.1180   -4.8650   22.4810 C   0  0  0  0  0  0  0  0  0  0  0  0
  -22.4430   -4.3590   21.2660 F   0  0  0  0  0  0  0  0  0  0  0  0
  -21.6960   -3.7140   25.9390 F   0  0  0  0  0  0  0  0  0  0  0  0
  -22.9710  -13.6300   21.2530 C   0  0  0  0  0  0  0  0  0  0  0  0
  -22.3070  -12.9330   22.1680 N   0  0  0  0  0  0  0  0  0  0  0  0
  -22.5100  -14.6690   20.7850 O   0  0  0  0  0  0  0  0  0  0  0  0
  -22.6950  -12.0900   22.5670 H   0  0  0  0  0  0  0  0  0  0  0  0
  -21.3970  -13.2450   22.4740 H   0  0  0  0  0  0  0  0  0  0  0  0
  -25.5610  -15.2710   20.2770 N   0  0  0  0  0  0  0  0  0  0  0  0
  -24.8220  -15.9390   20.4680 H   0  0  0  0  0  0  0  0  0  0  0  0
  -26.3930  -15.6990   19.8900 H   0  0  0  0  0  0  0  0  0  0  0  0
  -33.4100  -20.9910   22.8380 C   0  0  0  0  0  2  0  0  0  0  0  0
  -32.3350  -20.0920   23.4650 C   0  0  0  0  0  2  0  0  0  0  0  0
  -32.8510  -21.7710   21.6400 C   0  0  0  0  0  2  0  0  0  0  0  0
  -31.6970  -19.1620   22.4160 C   0  0  0  0  0  2  0  0  0  0  0  0
  -32.1990  -20.8290   20.6140 C   0  0  0  0  0  2  0  0  0  0  0  0
  -31.0720  -19.9710   21.2470 C   0  0  0  0  0  3  0  0  0  0  0  0
  1  3  1  0
  2  1  1  0
  4  6  1  0
  4  8  1  0
  5  7  1  0
  6  9  1  0
  8  1  1  0
  8  5  1  0
  9 10  1  0
  9  7  1  0
 10 12  1  0
 11 22  2  0
 12 17  1  0
 13 21  1  0
 13 23  1  0
 14 20  1  0
 14 16  1  0
 15 21  1  0
 16 15  1  0
 17 16  2  0
 18 19  1  0
 18 12  2  0
 19 14  2  0
 20 13  1  0
 21 11  1  0
 23 25  2  0
 24 23  1  0
 26 24  1  0
 27 36  2  0
 27 32  1  0
 28 24  1  0
 28 32  1  0
 29 28  1  0
 30 31  1  0
 30 29  1  0
 31 27  1  0
 32 33  2  0
 33 34  1  0
 35 34  2  0
 36 35  1  0
 37 11  1  0
 37 42  1  0
 37 38  1  0
 38 41  1  1
 38 39  1  0
 40 38  1  0
 42 45  1  0
 43 47  1  0
 43 42  1  0
 44 43  2  0
 47 46  1  0
 49 47  1  0
 49 50  1  0
 49 48  1  0
 51  1  1  0
 51 96  1  0
 52 58  1  0
 52 62  1  0
 53 58  1  0
 54 55  1  0
 54 53  1  0
 56 55  1  0
 56 66  1  0
 56 57  1  0
 58 57  1  0
 59 52  2  0
 61 51  1  0
 61 60  1  0
 62 61  1  0
 62 60  1  0
 63 64  2  0
 64 83  1  0
 65 64  1  0
 65 68  1  0
 66 67  1  0
 66 63  1  0
 67 65  2  0
 68 69  1  0
 69 70  2  0
 71 74  1  0
 71 70  1  0
 72 71  2  0
 73 72  1  0
 73 68  2  0
 74 75  1  0
 75 76  1  0
 76 77  2  0
 78 77  1  0
 78 82  1  0
 79 78  2  0
 80 75  2  0
 80 79  1  0
 81 80  1  0
 83 84  1  0
 84 87  1  0
 84 86  1  0
 85 83  2  0
 88 63  1  0
 88 89  1  0
 90 88  1  0
 91 92  1  0
 93 91  1  0
 94 92  1  0
 95 96  1  0
 95 93  1  0
 96 94  1  0
M  ISO  4   9 101  10 101  52 100  62 100
M  END
>  <TORSDO>  (78) 
F 19

>  <SCORE>  (78) 
-13.555

>  <name>  (78) 
77

>  <ligand_id>  (78) 
77

>  <original_smiles>  (78) 
[H]c1c([H])c([H])c2c(c1[H])C([H])([H])C([H])([H])C([H])([H])C2([H])N([H])C(=O)C1([H])N(C(=O)C([H])(N([H])C(=O)C([H])(N([H])C([H])([H])[H])C([H])([H])[H])C(C([H])([H])[H])(C([H])([H])[H])C([H])([H])[H])C([H])([H])c2c([H])c(OC3([H])C([H])([H])C([H])([H])C([H])([N+]([H])([H])C([H])(C4([H])N(C(=O)N5C([H])([H])C([H])([H])C([H])([H])C([H])(n6nc(-c7c([H])c([H])c(Oc8c([H])c([H])c(F)c([H])c8F)c([H])c7[H])c(C(=O)N([H])[H])c6N([H])[H])C5([H])[H])C4([H])[H])C4([H])C([H])([H])C([H])([H])C([H])([H])C([H])([H])C4([H])[H])C([H])([H])C3([H])[H])c([H])c([H])c2C1([H])[H]

>  <smiles>  (78) 
[H]c1c([H])c([H])c2c(c1[H])C([H])([H])C([H])([H])C([H])([H])C2([H])N([H])C(=O)C1([H])N(C(=O)C([H])(N([H])C(=O)C([H])(N([H])C([H])([H])[H])C([H])([H])[H])C(C([H])([H])[H])(C([H])([H])[H])C([H])([H])[H])C([H])([H])c2c([H])c(OC3([H])C([H])([H])C([H])([H])C([H])([N+]([H])([H])C([H])(C4([H])N(C(=O)N5C([H])([H])C([H])([H])C([H])([H])C([H])(n6nc(-c7c([H])c([H])c(Oc8c([H])c([H])c(F)c([H])c8F)c([H])c7[H])c(C(=O)N([H])[H])c6N([H])[H])C5([H])[H])C4([H])[H])C4([H])C([H])([H])C([H])([H])C([H])([H])C([H])([H])C4([H])[H])C([H])([H])C3([H])[H])c([H])c([H])c2C1([H])[H]

$$$$
78:0:0
     RDKit          3D

 95103  0  0  1  0  0  0  0  0999 V2000
  -30.6520  -22.0330   20.5330 C   0  0  0  0  0  3  0  0  0  0  0  0
  -30.8960  -20.6520   20.4180 C   0  0  0  0  0  3  0  0  0  0  0  0
  -29.3200  -22.4860   20.6870 C   0  0  0  0  0  0  0  0  0  0  0  0
  -28.2990  -21.5070   20.7100 C   0  0  0  0  0  0  0  0  0  0  0  0
  -29.8100  -19.7600   20.4740 C   0  0  0  0  0  0  0  0  0  0  0  0
  -26.8370  -21.8910   20.8600 C   0  0  0  0  0  1  0  0  0  0  0  0
  -28.5420  -20.1820   20.6060 N   0  0  0  0  0  0  0  0  0  0  0  0
  -29.9590  -18.3730   20.4130 N   0  0  0  0  0  0  0  0  0  0  0  0
  -29.1240  -17.8180   20.5560 H   0  0  0  0  0  0  0  0  0  0  0  0
  -29.5870  -24.9640   20.4080 C   0  0  0  0  0  0  0  0  0  0  0  0
  -28.9700  -23.8590   20.8640 N   0  0  0  0  0  0  0  0  0  0  0  0
  -30.5770  -24.9420   19.6710 O   0  0  0  0  0  0  0  0  0  0  0  0
  -28.1190  -24.0350   21.3810 H   0  0  0  0  0  0  0  0  0  0  0  0
  -28.9740  -26.3090   20.8260 C   0  0  0  0  0  2  0  0  0  0  0  0
  -28.6650  -27.0710   19.6610 O   0  0  0  0  0  0  0  0  0  0  0  0
  -24.5730  -31.7930   23.0680 C   0  0  0  0  0  0  0  0  0  0  0  0
  -27.4680  -27.7280   19.7380 C   0  0  0  0  0  0  0  0  0  0  0  0
  -23.4450  -30.4170   21.3480 C   0  0  0  0  0  3  0  0  0  0  0  0
  -24.9840  -29.0510   19.8410 C   0  0  0  0  0  0  0  0  0  0  0  0
  -25.9390  -30.9430   21.1680 C   0  0  0  0  0  2  0  0  0  0  0  0
  -26.1050  -29.6180   20.4600 C   0  0  0  0  0  0  0  0  0  0  0  0
  -27.3520  -28.9600   20.4140 C   0  0  0  0  0  3  0  0  0  0  0  0
  -26.3360  -27.1630   19.1180 C   0  0  0  0  0  3  0  0  0  0  0  0
  -25.0910  -27.8180   19.1720 C   0  0  0  0  0  3  0  0  0  0  0  0
  -23.6880  -29.8260   19.9330 C   0  0  0  0  0  2  0  0  0  0  0  0
  -24.6700  -31.0630   21.9220 N   0  0  0  0  0  0  0  0  0  0  0  0
  -23.4810  -31.9700   23.6250 O   0  0  0  0  0  0  0  0  0  0  0  0
  -22.8590  -29.3070   22.2500 C   0  0  0  0  0  0  0  0  0  0  0  0
  -21.5420  -29.0730   22.1290 N   0  0  0  0  0  0  0  0  0  0  0  0
  -23.5850  -28.6630   23.0120 O   0  0  0  0  0  0  0  0  0  0  0  0
  -21.0160  -29.6490   21.4880 H   0  0  0  0  0  0  0  0  0  0  0  0
  -18.2270  -27.7280   22.6260 C   0  0  0  0  0  0  0  0  0  0  0  0
  -20.7820  -28.0520   22.8480 C   0  0  0  0  0  3  0  0  0  0  0  0
  -20.9150  -26.6730   22.1600 C   0  0  0  0  0  2  0  0  0  0  0  0
  -19.7940  -26.3900   21.1540 C   0  0  0  0  0  2  0  0  0  0  0  0
  -18.4270  -26.4390   21.8440 C   0  0  0  0  0  2  0  0  0  0  0  0
  -19.3330  -28.4920   23.0820 C   0  0  0  0  0  0  0  0  0  0  0  0
  -19.0910  -29.7000   23.7720 C   0  0  0  0  0  3  0  0  0  0  0  0
  -17.7770  -30.1440   24.0100 C   0  0  0  0  0  3  0  0  0  0  0  0
  -16.6860  -29.3740   23.5700 C   0  0  0  0  0  3  0  0  0  0  0  0
  -16.9120  -28.1670   22.8830 C   0  0  0  0  0  3  0  0  0  0  0  0
  -25.8240  -32.4610   23.7220 C   0  0  0  0  0  3  0  0  0  0  0  0
  -26.3630  -31.6740   24.9790 C   0  0  1  0  0  0  0  0  0  0  0  0
  -25.2710  -31.3520   26.0250 C   0  0  0  0  0  1  0  0  0  0  0  0
  -27.0140  -30.3390   24.5480 C   0  0  0  0  0  1  0  0  0  0  0  0
  -27.4690  -32.4990   25.6790 C   0  0  0  0  0  1  0  0  0  0  0  0
  -25.4530  -33.8340   24.0860 N   0  0  0  0  0  0  0  0  0  0  0  0
  -25.7600  -34.9200   23.3640 C   0  0  0  0  0  0  0  0  0  0  0  0
  -26.4570  -34.8740   22.3470 O   0  0  0  0  0  0  0  0  0  0  0  0
  -24.8360  -33.9420   24.8780 H   0  0  0  0  0  0  0  0  0  0  0  0
  -23.9690  -36.6510   23.0140 C   0  0  0  0  0  1  0  0  0  0  0  0
  -25.2040  -36.2740   23.8470 C   0  0  0  0  0  3  0  0  0  0  0  0
  -27.2760  -37.2200   24.7650 C   0  0  0  0  0  1  0  0  0  0  0  0
  -26.1950  -37.3700   23.7930 N   0  0  0  0  0  0  0  0  0  0  0  0
  -25.7480  -38.2690   23.9520 H   0  0  0  0  0  0  0  0  0  0  0  0
  -31.2300  -17.7720   20.8050 C   0  0  0  0  0  2  0  0  0  0  0  0
  -31.0400  -16.6490   21.8370 C   0  0  0  0  0  2  0  0  0  0  0  0
  -30.7490  -14.7060   20.3070 C   0  0  0  0  0  0  0  0  0  0  0  0
  -30.4250  -12.5610   19.1280 C   0  0  0  0  0  2  0  0  0  0  0  0
  -29.4380  -12.6930   17.9540 C   0  0  0  0  0  2  0  0  0  0  0  0
  -27.9870  -12.5120   18.4380 C   0  0  0  0  0  2  0  0  0  0  0  0
  -27.6610  -13.3890   19.6750 C   0  0  0  0  0  3  0  0  0  0  0  0
  -28.7490  -13.2320   20.7600 C   0  0  0  0  0  2  0  0  0  0  0  0
  -30.0570  -13.5470   20.1540 N   0  0  0  0  0  0  0  0  0  0  0  0
  -31.7370  -15.0020   19.6290 O   0  0  0  0  0  0  0  0  0  0  0  0
  -30.3260  -15.4900   21.3060 N   0  0  0  0  0  0  0  0  0  0  0  0
  -29.5160  -15.1710   21.8160 H   0  0  0  0  0  0  0  0  0  0  0  0
  -25.2900  -13.9600   20.5030 C   0  0  0  0  0  0  0  0  0  0  0  0
  -24.2430  -13.1690   20.8950 C   0  0  0  0  0  0  0  0  0  0  0  0
  -24.7110  -11.8210   20.8020 C   0  0  0  0  0  0  0  0  0  0  0  0
  -26.3290  -13.0940   20.2020 N   0  0  0  0  0  0  0  0  0  0  0  0
  -25.9850  -11.8010   20.4350 N   0  0  0  0  0  0  0  0  0  0  0  0
  -24.0020  -10.5490   20.9830 C   0  0  0  0  0  0  0  0  0  0  0  0
  -24.4270   -9.5960   21.9350 C   0  0  0  0  0  3  0  0  0  0  0  0
  -23.7180   -8.3860   22.1040 C   0  0  0  0  0  3  0  0  0  0  0  0
  -22.5700   -8.1230   21.3210 C   0  0  0  0  0  0  0  0  0  0  0  0
  -22.1640   -9.0640   20.3590 C   0  0  0  0  0  3  0  0  0  0  0  0
  -22.8740  -10.2650   20.1880 C   0  0  0  0  0  3  0  0  0  0  0  0
  -21.8330   -6.9650   21.3970 O   0  0  0  0  0  0  0  0  0  0  0  0
  -21.7140   -6.2650   22.5710 C   0  0  0  0  0  0  0  0  0  0  0  0
  -21.1630   -6.8470   23.7330 C   0  0  0  0  0  3  0  0  0  0  0  0
  -20.9940   -6.0710   24.8970 C   0  0  0  0  0  3  0  0  0  0  0  0
  -21.3650   -4.7140   24.8980 C   0  0  0  0  0  0  0  0  0  0  0  0
  -21.9090   -4.1310   23.7400 C   0  0  0  0  0  3  0  0  0  0  0  0
  -22.0800   -4.9040   22.5790 C   0  0  0  0  0  0  0  0  0  0  0  0
  -22.5840   -4.3320   21.4600 F   0  0  0  0  0  0  0  0  0  0  0  0
  -21.1960   -3.9660   26.0140 F   0  0  0  0  0  0  0  0  0  0  0  0
  -22.8570  -13.6260   21.2450 C   0  0  0  0  0  0  0  0  0  0  0  0
  -22.1770  -12.9020   22.1280 N   0  0  0  0  0  0  0  0  0  0  0  0
  -22.3860  -14.6600   20.7730 O   0  0  0  0  0  0  0  0  0  0  0  0
  -22.5710  -12.0650   22.5310 H   0  0  0  0  0  0  0  0  0  0  0  0
  -21.2490  -13.1910   22.4060 H   0  0  0  0  0  0  0  0  0  0  0  0
  -25.4390  -15.3360   20.3620 N   0  0  0  0  0  0  0  0  0  0  0  0
  -24.6770  -15.9840   20.5270 H   0  0  0  0  0  0  0  0  0  0  0  0
  -26.2770  -15.7890   20.0210 H   0  0  0  0  0  0  0  0  0  0  0  0
  1  3  1  0
  2  5  1  0
  2  1  2  0
  3  4  2  0
  3 11  1  0
  4  6  1  0
  5  7  2  0
  7  4  1  0
  8  5  1  0
  8  9  1  0
  8 56  1  0
 10 14  1  0
 10 11  1  0
 11 13  1  0
 12 10  2  0
 15 17  1  0
 15 14  1  0
 16 27  2  0
 17 22  1  0
 18 26  1  0
 18 28  1  0
 19 25  1  0
 19 21  1  0
 20 26  1  0
 21 20  1  0
 22 21  2  0
 23 24  1  0
 23 17  2  0
 24 19  2  0
 25 18  1  0
 26 16  1  0
 28 30  2  0
 29 28  1  0
 31 29  1  0
 32 41  2  0
 32 37  1  0
 33 29  1  0
 33 37  1  0
 34 33  1  0
 35 36  1  0
 35 34  1  0
 36 32  1  0
 37 38  2  0
 38 39  1  0
 40 39  2  0
 41 40  1  0
 42 16  1  0
 42 47  1  0
 42 43  1  0
 43 46  1  1
 43 44  1  0
 45 43  1  0
 47 50  1  0
 48 52  1  0
 48 47  1  0
 49 48  2  0
 52 51  1  0
 54 52  1  0
 54 55  1  0
 54 53  1  0
 56 57  1  0
 58 66  1  0
 59 64  1  0
 60 61  1  0
 60 59  1  0
 62 61  1  0
 62 71  1  0
 62 63  1  0
 64 58  1  0
 64 63  1  0
 65 58  2  0
 66 67  1  0
 66 57  1  0
 68 69  2  0
 69 88  1  0
 70 69  1  0
 70 73  1  0
 71 72  1  0
 71 68  1  0
 72 70  2  0
 73 74  1  0
 74 75  2  0
 76 79  1  0
 76 75  1  0
 77 76  2  0
 78 77  1  0
 78 73  2  0
 79 80  1  0
 80 85  2  0
 80 81  1  0
 81 82  2  0
 82 83  1  0
 83 87  1  0
 84 83  2  0
 85 84  1  0
 86 85  1  0
 88 89  1  0
 89 92  1  0
 89 91  1  0
 90 88  2  0
 93 68  1  0
 93 94  1  0
 95 93  1  0
M  ISO  4  14 101  15 101  58 100  66 100
M  END
>  <TORSDO>  (79) 
F 20

>  <SCORE>  (79) 
-13.137

>  <name>  (79) 
78

>  <ligand_id>  (79) 
78

>  <original_smiles>  (79) 
[H]c1c(N([H])C([H])([H])C([H])([H])N([H])C(=O)N2C([H])([H])C([H])([H])C([H])([H])C([H])(n3nc(-c4c([H])c([H])c(Oc5c([H])c([H])c(F)c([H])c5F)c([H])c4[H])c(C(=O)N([H])[H])c3N([H])[H])C2([H])[H])nc(C([H])([H])[H])c(N([H])C(=O)C([H])([H])Oc2c([H])c([H])c3c(c2[H])C([H])([H])N(C(=O)C([H])(N([H])C(=O)C([H])(N([H])C([H])([H])[H])C([H])([H])[H])C(C([H])([H])[H])(C([H])([H])[H])C([H])([H])[H])C([H])(C(=O)N([H])C2([H])c4c([H])c([H])c([H])c([H])c4C([H])([H])C([H])([H])C2([H])[H])C3([H])[H])c1[H]

>  <smiles>  (79) 
[H]c1c(N([H])C([H])([H])C([H])([H])N([H])C(=O)N2C([H])([H])C([H])([H])C([H])([H])C([H])(n3nc(-c4c([H])c([H])c(Oc5c([H])c([H])c(F)c([H])c5F)c([H])c4[H])c(C(=O)N([H])[H])c3N([H])[H])C2([H])[H])nc(C([H])([H])[H])c(N([H])C(=O)C([H])([H])Oc2c([H])c([H])c3c(c2[H])C([H])([H])N(C(=O)C([H])(N([H])C(=O)C([H])(N([H])C([H])([H])[H])C([H])([H])[H])C(C([H])([H])[H])(C([H])([H])[H])C([H])([H])[H])C([H])(C(=O)N([H])C2([H])c4c([H])c([H])c([H])c([H])c4C([H])([H])C([H])([H])C2([H])[H])C3([H])[H])c1[H]

$$$$
79:0:0
     RDKit          3D

 94103  0  0  1  0  0  0  0  0999 V2000
  -29.9130  -22.6990   19.7950 C   0  0  0  0  0  3  0  0  0  0  0  0
  -30.3600  -21.3220   19.5880 C   0  0  0  0  0  3  0  0  0  0  0  0
  -27.7110  -22.0350   19.2940 C   0  0  0  0  0  3  0  0  0  0  0  0
  -28.5520  -23.1350   19.6420 C   0  0  0  0  0  0  0  0  0  0  0  0
  -29.5000  -20.2220   19.2330 C   0  0  0  0  0  0  0  0  0  0  0  0
  -28.1350  -20.6670   19.0970 C   0  0  0  0  0  0  0  0  0  0  0  0
  -27.1460  -19.7490   18.7170 N   0  0  0  0  0  0  0  0  0  0  0  0
  -27.4830  -18.9870   18.1400 H   0  0  0  0  0  0  0  0  0  0  0  0
  -25.9380  -17.1930   19.6130 C   0  0  0  0  0  2  0  0  0  0  0  0
  -26.7660  -18.0870   20.5440 C   0  0  0  0  0  2  0  0  0  0  0  0
  -25.0970  -18.4260   19.2640 C   0  0  0  0  0  2  0  0  0  0  0  0
  -26.2430  -19.3110   19.7780 C   0  0  0  0  0  3  0  0  0  0  0  0
  -29.9640  -18.6900   18.8120 C   0  0  0  0  0  2  0  0  0  0  0  0
  -31.0220  -17.6370   19.5350 C   0  0  0  0  0  2  0  0  0  0  0  0
  -31.4310  -14.9210   19.6120 C   0  0  0  0  0  0  0  0  0  0  0  0
  -31.1910  -12.4920   18.9630 C   0  0  0  0  0  2  0  0  0  0  0  0
  -30.1980  -12.3570   17.7850 C   0  0  0  0  0  2  0  0  0  0  0  0
  -28.7510  -12.2590   18.3060 C   0  0  0  0  0  2  0  0  0  0  0  0
  -28.4340  -13.3310   19.3820 C   0  0  0  0  0  3  0  0  0  0  0  0
  -29.5400  -13.4260   20.4510 C   0  0  0  0  0  2  0  0  0  0  0  0
  -30.7980  -13.6950   19.7450 N   0  0  0  0  0  0  0  0  0  0  0  0
  -32.6160  -14.9340   19.2630 O   0  0  0  0  0  0  0  0  0  0  0  0
  -30.6750  -16.1110   19.6770 N   0  0  0  0  0  0  0  0  0  0  0  0
  -29.7080  -15.9340   19.9060 H   0  0  0  0  0  0  0  0  0  0  0  0
  -26.2010  -14.1030   20.3670 C   0  0  0  0  0  0  0  0  0  0  0  0
  -25.0900  -13.4200   20.7740 C   0  0  0  0  0  0  0  0  0  0  0  0
  -25.3920  -12.0350   20.6040 C   0  0  0  0  0  0  0  0  0  0  0  0
  -27.1140  -13.1410   19.9730 N   0  0  0  0  0  0  0  0  0  0  0  0
  -26.6410  -11.8840   20.1790 N   0  0  0  0  0  0  0  0  0  0  0  0
  -24.5420  -10.8470   20.7620 C   0  0  0  0  0  0  0  0  0  0  0  0
  -24.9120   -9.7830   21.6130 C   0  0  0  0  0  3  0  0  0  0  0  0
  -24.0670   -8.6610   21.7640 C   0  0  0  0  0  3  0  0  0  0  0  0
  -22.8380   -8.5980   21.0660 C   0  0  0  0  0  0  0  0  0  0  0  0
  -22.4830   -9.6510   20.2040 C   0  0  0  0  0  3  0  0  0  0  0  0
  -23.3280  -10.7640   20.0490 C   0  0  0  0  0  3  0  0  0  0  0  0
  -21.9660   -7.5380   21.1320 O   0  0  0  0  0  0  0  0  0  0  0  0
  -21.8630   -6.7600   22.2580 C   0  0  0  0  0  0  0  0  0  0  0  0
  -21.5300   -7.3080   23.5150 C   0  0  0  0  0  3  0  0  0  0  0  0
  -21.3640   -6.4630   24.6300 C   0  0  0  0  0  3  0  0  0  0  0  0
  -21.5260   -5.0710   24.4900 C   0  0  0  0  0  0  0  0  0  0  0  0
  -21.8550   -4.5240   23.2380 C   0  0  0  0  0  3  0  0  0  0  0  0
  -22.0200   -5.3660   22.1250 C   0  0  0  0  0  0  0  0  0  0  0  0
  -22.3150   -4.8300   20.9170 F   0  0  0  0  0  0  0  0  0  0  0  0
  -21.3610   -4.2580   25.5600 F   0  0  0  0  0  0  0  0  0  0  0  0
  -23.7820  -14.0200   21.2010 C   0  0  0  0  0  0  0  0  0  0  0  0
  -23.0620  -13.3470   22.0910 N   0  0  0  0  0  0  0  0  0  0  0  0
  -23.4180  -15.1180   20.7810 O   0  0  0  0  0  0  0  0  0  0  0  0
  -23.3790  -12.4590   22.4500 H   0  0  0  0  0  0  0  0  0  0  0  0
  -22.1890  -13.7290   22.4250 H   0  0  0  0  0  0  0  0  0  0  0  0
  -26.5050  -15.4580   20.2730 N   0  0  0  0  0  0  0  0  0  0  0  0
  -25.8070  -16.1720   20.4500 H   0  0  0  0  0  0  0  0  0  0  0  0
  -27.3470  -15.8250   19.8480 H   0  0  0  0  0  0  0  0  0  0  0  0
  -27.8530  -24.5630   20.0550 C   0  0  0  0  0  2  0  0  0  0  0  0
  -28.1650  -25.9930   19.6180 O   0  0  0  0  0  0  0  0  0  0  0  0
  -24.6510  -31.5050   22.9960 C   0  0  0  0  0  0  0  0  0  0  0  0
  -27.1270  -26.9710   19.6870 C   0  0  0  0  0  0  0  0  0  0  0  0
  -23.4130  -30.2290   21.2870 C   0  0  0  0  0  3  0  0  0  0  0  0
  -24.8230  -28.7150   19.7670 C   0  0  0  0  0  0  0  0  0  0  0  0
  -25.9660  -30.4720   21.1140 C   0  0  0  0  0  2  0  0  0  0  0  0
  -26.0120  -29.1200   20.3890 C   0  0  0  0  0  0  0  0  0  0  0  0
  -27.1700  -28.2650   20.3320 C   0  0  0  0  0  3  0  0  0  0  0  0
  -25.9170  -26.6520   19.0380 C   0  0  0  0  0  3  0  0  0  0  0  0
  -24.7850  -27.4920   19.0780 C   0  0  0  0  0  3  0  0  0  0  0  0
  -23.6110  -29.6260   19.8700 C   0  0  0  0  0  2  0  0  0  0  0  0
  -24.6970  -30.7530   21.8550 N   0  0  0  0  0  0  0  0  0  0  0  0
  -23.5740  -31.7770   23.5480 O   0  0  0  0  0  0  0  0  0  0  0  0
  -22.7240  -29.1800   22.1940 C   0  0  0  0  0  0  0  0  0  0  0  0
  -21.3840  -29.0830   22.1100 N   0  0  0  0  0  0  0  0  0  0  0  0
  -23.3930  -28.4580   22.9360 O   0  0  0  0  0  0  0  0  0  0  0  0
  -20.9030  -29.7160   21.4860 H   0  0  0  0  0  0  0  0  0  0  0  0
  -17.9610  -28.0600   22.7010 C   0  0  0  0  0  0  0  0  0  0  0  0
  -20.5440  -28.1300   22.8380 C   0  0  0  0  0  3  0  0  0  0  0  0
  -20.5150  -26.7570   22.1250 C   0  0  0  0  0  2  0  0  0  0  0  0
  -19.3390  -26.6060   21.1540 C   0  0  0  0  0  2  0  0  0  0  0  0
  -18.0080  -26.7740   21.8920 C   0  0  0  0  0  2  0  0  0  0  0  0
  -19.1520  -28.7050   23.1310 C   0  0  0  0  0  0  0  0  0  0  0  0
  -19.0510  -29.9140   23.8530 C   0  0  0  0  0  3  0  0  0  0  0  0
  -17.7940  -30.4750   24.1460 C   0  0  0  0  0  3  0  0  0  0  0  0
  -16.6200  -29.8260   23.7290 C   0  0  0  0  0  3  0  0  0  0  0  0
  -16.7050  -28.6190   23.0120 C   0  0  0  0  0  3  0  0  0  0  0  0
  -25.9450  -32.0770   23.6490 C   0  0  0  0  0  3  0  0  0  0  0  0
  -25.6770  -33.4730   24.0270 N   0  0  0  0  0  0  0  0  0  0  0  0
  -26.0690  -34.5430   23.3220 C   0  0  0  0  0  0  0  0  0  0  0  0
  -26.7590  -34.4560   22.3030 O   0  0  0  0  0  0  0  0  0  0  0  0
  -25.0670  -33.6190   24.8170 H   0  0  0  0  0  0  0  0  0  0  0  0
  -24.4180  -36.4160   23.0100 C   0  0  0  0  0  1  0  0  0  0  0  0
  -25.6260  -35.9310   23.8260 C   0  0  0  0  0  3  0  0  0  0  0  0
  -27.7800  -36.6980   24.7260 C   0  0  0  0  0  1  0  0  0  0  0  0
  -26.7010  -36.9470   23.7730 N   0  0  0  0  0  0  0  0  0  0  0  0
  -26.3280  -37.8760   23.9520 H   0  0  0  0  0  0  0  0  0  0  0  0
  -26.4240  -31.2470   24.9030 C   0  0  1  0  0  0  0  0  0  0  0  0
  -25.3160  -31.0150   25.9570 C   0  0  0  0  0  1  0  0  0  0  0  0
  -26.9590  -29.8630   24.4700 C   0  0  0  0  0  1  0  0  0  0  0  0
  -27.6010  -31.9750   25.5930 C   0  0  0  0  0  1  0  0  0  0  0  0
  2  1  2  0
  3  4  2  0
  4  1  1  0
  4 53  1  0
  5  2  1  0
  6  5  2  0
  6  3  1  0
  7  6  1  0
  7 12  1  0
  8  7  1  0
  9 10  1  0
 11  9  1  0
 11 12  1  0
 12 10  1  0
 13  5  1  0
 13 14  1  0
 14 23  1  0
 15 23  1  0
 15 21  1  0
 16 21  1  0
 17 18  1  0
 17 16  1  0
 19 18  1  0
 19 28  1  0
 19 20  1  0
 21 20  1  0
 22 15  2  0
 23 24  1  0
 25 26  2  0
 26 45  1  0
 27 30  1  0
 27 26  1  0
 28 29  1  0
 28 25  1  0
 29 27  2  0
 30 31  1  0
 31 32  2  0
 33 36  1  0
 33 32  1  0
 34 33  2  0
 35 34  1  0
 35 30  2  0
 36 37  1  0
 37 38  1  0
 38 39  2  0
 40 39  1  0
 40 44  1  0
 41 40  2  0
 42 37  2  0
 42 41  1  0
 43 42  1  0
 45 46  1  0
 46 49  1  0
 46 48  1  0
 47 45  2  0
 50 25  1  0
 50 51  1  0
 52 50  1  0
 54 56  1  0
 54 53  1  0
 55 66  2  0
 56 61  1  0
 57 65  1  0
 57 67  1  0
 58 64  1  0
 58 60  1  0
 59 65  1  0
 60 59  1  0
 61 60  2  0
 62 63  1  0
 62 56  2  0
 63 58  2  0
 64 57  1  0
 65 55  1  0
 67 69  2  0
 68 67  1  0
 70 68  1  0
 71 80  2  0
 71 76  1  0
 72 68  1  0
 72 76  1  0
 73 72  1  0
 74 75  1  0
 74 73  1  0
 75 71  1  0
 76 77  2  0
 77 78  1  0
 79 78  2  0
 80 79  1  0
 81 55  1  0
 81 82  1  0
 81 91  1  0
 82 85  1  0
 83 87  1  0
 83 82  1  0
 84 83  2  0
 87 86  1  0
 89 87  1  0
 89 90  1  0
 89 88  1  0
 91 94  1  1
 91 92  1  0
 93 91  1  0
M  ISO  4  15 100  23 100  53 101  54 101
M  END
>  <TORSDO>  (80) 
F 21

>  <SCORE>  (80) 
-10.394

>  <name>  (80) 
79

>  <ligand_id>  (80) 
79

>  <original_smiles>  (80) 
[H]c1c([H])c([H])c2c(c1[H])C([H])([H])C([H])([H])C([H])([H])C2([H])N([H])C(=O)C1([H])N(C(=O)C([H])(N([H])C(=O)C([H])(N([H])C([H])([H])[H])C([H])([H])[H])C(C([H])([H])[H])(C([H])([H])[H])C([H])([H])[H])C([H])([H])c2c([H])c(OC([H])([H])c3c([H])c([H])c(C([H])([H])C([H])([H])N([H])C(=O)N4C([H])([H])C([H])([H])C([H])([H])C([H])(n5nc(-c6c([H])c([H])c(Oc7c([H])c([H])c(F)c([H])c7F)c([H])c6[H])c(C(=O)N([H])[H])c5N([H])[H])C4([H])[H])c(N([H])C4([H])C([H])([H])C([H])([H])C4([H])[H])c3[H])c([H])c([H])c2C1([H])[H]

>  <smiles>  (80) 
[H]c1c([H])c([H])c2c(c1[H])C([H])([H])C([H])([H])C([H])([H])C2([H])N([H])C(=O)C1([H])N(C(=O)C([H])(N([H])C(=O)C([H])(N([H])C([H])([H])[H])C([H])([H])[H])C(C([H])([H])[H])(C([H])([H])[H])C([H])([H])[H])C([H])([H])c2c([H])c(OC([H])([H])c3c([H])c([H])c(C([H])([H])C([H])([H])N([H])C(=O)N4C([H])([H])C([H])([H])C([H])([H])C([H])(n5nc(-c6c([H])c([H])c(Oc7c([H])c([H])c(F)c([H])c7F)c([H])c6[H])c(C(=O)N([H])[H])c5N([H])[H])C4([H])[H])c(N([H])C4([H])C([H])([H])C([H])([H])C4([H])[H])c3[H])c([H])c([H])c2C1([H])[H]

$$$$
80:0:0
     RDKit          3D

 95104  0  0  1  0  0  0  0  0999 V2000
  -29.6470  -23.7480   23.1560 C   0  0  0  0  0  2  0  0  0  0  0  0
  -28.6230  -22.7250   22.6880 C   0  0  0  0  0  2  0  0  0  0  0  0
  -29.6480  -24.7480   21.9980 C   0  0  0  0  0  2  0  0  0  0  0  0
  -28.9070  -22.5960   21.1820 C   0  0  0  0  0  3  0  0  0  0  0  0
  -29.3460  -23.9720   20.7640 N   0  0  1  0  0  4  0  0  0  0  0  0
  -30.2210  -23.8620   20.2650 H   0  0  0  0  0  0  0  0  0  0  0  0
  -29.9770  -21.5120   20.8450 C   0  0  0  0  0  2  0  0  0  0  0  0
  -29.5990  -20.1960   21.2990 O   0  0  0  0  0  0  0  0  0  0  0  0
  -32.8530  -18.3830   21.0030 C   0  0  0  0  0  3  0  0  0  0  0  0
  -32.3990  -17.0680   20.8140 C   0  0  0  0  0  3  0  0  0  0  0  0
  -31.9330  -19.4330   21.1780 C   0  0  0  0  0  3  0  0  0  0  0  0
  -30.0960  -17.8430   21.0460 C   0  0  0  0  0  3  0  0  0  0  0  0
  -31.0160  -16.7860   20.8360 C   0  0  0  0  0  0  0  0  0  0  0  0
  -30.5370  -19.1860   21.1650 C   0  0  0  0  0  0  0  0  0  0  0  0
  -31.0280  -14.5180   19.8610 C   0  0  0  0  0  0  0  0  0  0  0  0
  -30.6180  -12.3150   18.8200 C   0  0  0  0  0  2  0  0  0  0  0  0
  -29.6270  -12.4410   17.6470 C   0  0  0  0  0  2  0  0  0  0  0  0
  -28.1750  -12.3490   18.1520 C   0  0  0  0  0  2  0  0  0  0  0  0
  -27.9000  -13.2940   19.3480 C   0  0  0  0  0  3  0  0  0  0  0  0
  -28.9930  -13.1340   20.4280 C   0  0  0  0  0  2  0  0  0  0  0  0
  -30.3070  -13.3670   19.8000 N   0  0  0  0  0  0  0  0  0  0  0  0
  -32.0460  -14.7050   19.1880 O   0  0  0  0  0  0  0  0  0  0  0  0
  -30.5400  -15.4540   20.6900 N   0  0  0  0  0  0  0  0  0  0  0  0
  -29.6700  -15.2200   21.1440 H   0  0  0  0  0  0  0  0  0  0  0  0
  -25.5690  -14.0200   20.1710 C   0  0  0  0  0  0  0  0  0  0  0  0
  -24.4820  -13.2950   20.5910 C   0  0  0  0  0  0  0  0  0  0  0  0
  -24.8780  -11.9250   20.5390 C   0  0  0  0  0  0  0  0  0  0  0  0
  -26.5580  -13.0890   19.8930 N   0  0  0  0  0  0  0  0  0  0  0  0
  -26.1480  -11.8250   20.1710 N   0  0  0  0  0  0  0  0  0  0  0  0
  -24.1060  -10.6960   20.7690 C   0  0  0  0  0  0  0  0  0  0  0  0
  -24.5060   -9.7440   21.7330 C   0  0  0  0  0  3  0  0  0  0  0  0
  -23.7400   -8.5780   21.9480 C   0  0  0  0  0  3  0  0  0  0  0  0
  -22.5600   -8.3560   21.1980 C   0  0  0  0  0  0  0  0  0  0  0  0
  -22.1770   -9.2970   20.2270 C   0  0  0  0  0  3  0  0  0  0  0  0
  -22.9430  -10.4560   20.0110 C   0  0  0  0  0  3  0  0  0  0  0  0
  -21.7690   -7.2390   21.3170 O   0  0  0  0  0  0  0  0  0  0  0  0
  -21.6570   -6.5610   22.5040 C   0  0  0  0  0  0  0  0  0  0  0  0
  -21.2060   -7.1930   23.6820 C   0  0  0  0  0  3  0  0  0  0  0  0
  -21.0390   -6.4440   24.8630 C   0  0  0  0  0  3  0  0  0  0  0  0
  -21.3130   -5.0630   24.8670 C   0  0  0  0  0  0  0  0  0  0  0  0
  -21.7550   -4.4300   23.6920 C   0  0  0  0  0  3  0  0  0  0  0  0
  -21.9250   -5.1770   22.5130 C   0  0  0  0  0  0  0  0  0  0  0  0
  -22.3320   -4.5570   21.3790 F   0  0  0  0  0  0  0  0  0  0  0  0
  -21.1430   -4.3410   25.9990 F   0  0  0  0  0  0  0  0  0  0  0  0
  -23.1250  -13.8390   20.9300 C   0  0  0  0  0  0  0  0  0  0  0  0
  -22.4210  -13.1890   21.8500 N   0  0  0  0  0  0  0  0  0  0  0  0
  -22.7000  -14.8720   20.4170 O   0  0  0  0  0  0  0  0  0  0  0  0
  -22.7780  -12.3550   22.2880 H   0  0  0  0  0  0  0  0  0  0  0  0
  -21.5110  -13.5350   22.1170 H   0  0  0  0  0  0  0  0  0  0  0  0
  -25.7900  -15.3800   19.9810 N   0  0  0  0  0  0  0  0  0  0  0  0
  -25.0590  -16.0730   20.0970 H   0  0  0  0  0  0  0  0  0  0  0  0
  -26.6490  -15.7660   19.6010 H   0  0  0  0  0  0  0  0  0  0  0  0
  -28.3890  -24.6590   19.8350 C   0  0  0  0  0  2  0  0  0  0  0  0
  -28.9020  -26.0020   19.2440 C   0  0  0  0  0  2  0  0  0  0  0  0
  -28.6550  -27.1580   20.0600 O   0  0  0  0  0  0  0  0  0  0  0  0
  -24.5460  -31.9390   23.3450 C   0  0  0  0  0  0  0  0  0  0  0  0
  -27.4240  -27.7890   20.0570 C   0  0  0  0  0  0  0  0  0  0  0  0
  -23.4220  -30.5820   21.6090 C   0  0  0  0  0  3  0  0  0  0  0  0
  -24.9560  -29.1870   20.1220 C   0  0  0  0  0  0  0  0  0  0  0  0
  -25.9310  -31.0550   21.4690 C   0  0  0  0  0  2  0  0  0  0  0  0
  -26.0820  -29.7270   20.7520 C   0  0  0  0  0  0  0  0  0  0  0  0
  -27.3120  -29.0340   20.7180 C   0  0  0  0  0  3  0  0  0  0  0  0
  -26.2690  -27.2540   19.4340 C   0  0  0  0  0  3  0  0  0  0  0  0
  -25.0450  -27.9480   19.4640 C   0  0  0  0  0  3  0  0  0  0  0  0
  -23.6760  -29.9890   20.1970 C   0  0  0  0  0  2  0  0  0  0  0  0
  -24.6500  -31.2080   22.1990 N   0  0  0  0  0  0  0  0  0  0  0  0
  -23.4490  -32.1310   23.8860 O   0  0  0  0  0  0  0  0  0  0  0  0
  -22.8090  -29.4800   22.5040 C   0  0  0  0  0  0  0  0  0  0  0  0
  -21.5080  -29.2080   22.3130 N   0  0  0  0  0  0  0  0  0  0  0  0
  -23.5020  -28.8740   23.3270 O   0  0  0  0  0  0  0  0  0  0  0  0
  -21.0110  -29.7590   21.6290 H   0  0  0  0  0  0  0  0  0  0  0  0
  -18.2180  -27.7390   22.5820 C   0  0  0  0  0  0  0  0  0  0  0  0
  -20.7270  -28.1880   23.0120 C   0  0  0  0  0  3  0  0  0  0  0  0
  -20.9760  -26.7850   22.4120 C   0  0  0  0  0  2  0  0  0  0  0  0
  -19.9630  -26.4090   21.3250 C   0  0  0  0  0  2  0  0  0  0  0  0
  -18.5380  -26.4270   21.8870 C   0  0  0  0  0  2  0  0  0  0  0  0
  -19.2460  -28.5730   23.0940 C   0  0  0  0  0  0  0  0  0  0  0  0
  -18.8960  -29.8000   23.6950 C   0  0  0  0  0  3  0  0  0  0  0  0
  -17.5500  -30.1950   23.7940 C   0  0  0  0  0  3  0  0  0  0  0  0
  -16.5340  -29.3560   23.3030 C   0  0  0  0  0  3  0  0  0  0  0  0
  -16.8690  -28.1310   22.7000 C   0  0  0  0  0  3  0  0  0  0  0  0
  -25.7950  -32.5910   24.0150 C   0  0  0  0  0  3  0  0  0  0  0  0
  -25.4470  -33.9800   24.3400 N   0  0  0  0  0  0  0  0  0  0  0  0
  -25.7860  -35.0420   23.5960 C   0  0  0  0  0  0  0  0  0  0  0  0
  -26.4890  -34.9550   22.5860 O   0  0  0  0  0  0  0  0  0  0  0  0
  -24.8250  -34.1220   25.1210 H   0  0  0  0  0  0  0  0  0  0  0  0
  -24.0220  -36.7870   23.2000 C   0  0  0  0  0  1  0  0  0  0  0  0
  -25.2550  -36.4180   24.0430 C   0  0  0  0  0  3  0  0  0  0  0  0
  -27.3480  -37.3430   24.9250 C   0  0  0  0  0  1  0  0  0  0  0  0
  -26.2650  -37.4960   23.9570 N   0  0  0  0  0  0  0  0  0  0  0  0
  -25.8360  -38.4060   24.1020 H   0  0  0  0  0  0  0  0  0  0  0  0
  -26.2830  -31.8230   25.3040 C   0  0  1  0  0  0  0  0  0  0  0  0
  -25.1590  -31.5380   26.3290 C   0  0  0  0  0  1  0  0  0  0  0  0
  -26.9280  -30.4730   24.9180 C   0  0  0  0  0  1  0  0  0  0  0  0
  -27.3760  -32.6510   26.0180 C   0  0  0  0  0  1  0  0  0  0  0  0
  2  1  1  0
  3  1  1  0
  4  7  1  0
  4  2  1  0
  5  4  1  0
  5  3  1  0
  5  6  1  6
  7  8  1  0
  9 11  1  0
 10 13  1  0
 10  9  2  0
 12 14  1  0
 13 12  2  0
 14 11  2  0
 14  8  1  0
 15 23  1  0
 16 21  1  0
 17 18  1  0
 17 16  1  0
 19 18  1  0
 19 28  1  0
 19 20  1  0
 21 15  1  0
 21 20  1  0
 22 15  2  0
 23 13  1  0
 23 24  1  0
 25 26  2  0
 26 45  1  0
 27 26  1  0
 27 30  1  0
 28 25  1  0
 28 29  1  0
 29 27  2  0
 30 31  1  0
 31 32  2  0
 33 36  1  0
 33 32  1  0
 34 33  2  0
 35 34  1  0
 35 30  2  0
 36 37  1  0
 37 42  2  0
 37 38  1  0
 38 39  2  0
 39 40  1  0
 40 44  1  0
 41 40  2  0
 42 41  1  0
 43 42  1  0
 45 46  1  0
 46 49  1  0
 46 48  1  0
 47 45  2  0
 50 51  1  0
 50 25  1  0
 52 50  1  0
 53  5  1  0
 54 53  1  0
 54 55  1  0
 56 67  2  0
 57 55  1  0
 57 62  1  0
 58 66  1  0
 58 68  1  0
 59 65  1  0
 59 61  1  0
 60 66  1  0
 61 60  1  0
 62 61  2  0
 63 64  1  0
 63 57  2  0
 64 59  2  0
 65 58  1  0
 66 56  1  0
 68 70  2  0
 69 68  1  0
 71 69  1  0
 72 81  2  0
 72 77  1  0
 73 69  1  0
 73 77  1  0
 74 73  1  0
 75 76  1  0
 75 74  1  0
 76 72  1  0
 77 78  2  0
 78 79  1  0
 80 79  2  0
 81 80  1  0
 82 56  1  0
 82 83  1  0
 82 92  1  0
 83 86  1  0
 84 88  1  0
 84 83  1  0
 85 84  2  0
 88 87  1  0
 90 88  1  0
 90 91  1  0
 90 89  1  0
 92 95  1  1
 92 93  1  0
 94 92  1  0
M  ISO  4  15 100  23 100  54 101  55 101
M  END
>  <TORSDO>  (81) 
F 21

>  <SCORE>  (81) 
-12.360

>  <name>  (81) 
80

>  <ligand_id>  (81) 
80

>  <original_smiles>  (81) 
[H]c1c([H])c(OC([H])([H])C2([H])C([H])([H])C([H])([H])C([H])([H])[N+]2([H])C([H])([H])C([H])([H])Oc2c([H])c([H])c3c(c2[H])C([H])([H])N(C(=O)C([H])(N([H])C(=O)C([H])(N([H])C([H])([H])[H])C([H])([H])[H])C(C([H])([H])[H])(C([H])([H])[H])C([H])([H])[H])C([H])(C(=O)N([H])C2([H])c4c([H])c([H])c([H])c([H])c4C([H])([H])C([H])([H])C2([H])[H])C3([H])[H])c([H])c(N([H])C(=O)N2C([H])([H])C([H])([H])C([H])([H])C([H])(n3nc(-c4c([H])c([H])c(Oc5c([H])c([H])c(F)c([H])c5F)c([H])c4[H])c(C(=O)N([H])[H])c3N([H])[H])C2([H])[H])c1[H]

>  <smiles>  (81) 
[H]c1c([H])c(OC([H])([H])C2([H])C([H])([H])C([H])([H])C([H])([H])[N+]2([H])C([H])([H])C([H])([H])Oc2c([H])c([H])c3c(c2[H])C([H])([H])N(C(=O)C([H])(N([H])C(=O)C([H])(N([H])C([H])([H])[H])C([H])([H])[H])C(C([H])([H])[H])(C([H])([H])[H])C([H])([H])[H])C([H])(C(=O)N([H])C2([H])c4c([H])c([H])c([H])c([H])c4C([H])([H])C([H])([H])C2([H])[H])C3([H])[H])c([H])c(N([H])C(=O)N2C([H])([H])C([H])([H])C([H])([H])C([H])(n3nc(-c4c([H])c([H])c(Oc5c([H])c([H])c(F)c([H])c5F)c([H])c4[H])c(C(=O)N([H])[H])c3N([H])[H])C2([H])[H])c1[H]

$$$$
81:0:0
     RDKit          3D

 91 99  0  0  1  0  0  0  0  0999 V2000
  -28.5120  -21.2520   22.1960 C   0  0  0  0  0  2  0  0  0  0  0  0
  -28.8990  -21.5110   19.6950 C   0  0  0  0  0  2  0  0  0  0  0  0
  -29.8010  -20.4100   22.0730 C   0  0  0  0  0  2  0  0  0  0  0  0
  -28.9410  -19.9650   19.7730 C   0  0  0  0  0  2  0  0  0  0  0  0
  -28.2450  -22.1290   20.9530 C   0  0  0  0  0  3  0  0  0  0  0  0
  -29.7880  -19.4760   20.9050 N   0  0  2  0  0  4  0  0  0  0  0  0
  -30.7430  -19.5060   20.5780 H   0  0  0  0  0  0  0  0  0  0  0  0
  -29.5590  -18.0350   21.2490 C   0  0  0  0  0  2  0  0  0  0  0  0
  -30.3830  -17.0710   20.3570 C   0  0  0  0  0  2  0  0  0  0  0  0
  -30.8510  -14.6400   20.1080 C   0  0  0  0  0  0  0  0  0  0  0  0
  -30.5540  -12.4950   18.9460 C   0  0  0  0  0  2  0  0  0  0  0  0
  -29.5750  -12.7160   17.7730 C   0  0  0  0  0  2  0  0  0  0  0  0
  -28.1110  -12.5720   18.2390 C   0  0  0  0  0  2  0  0  0  0  0  0
  -27.8090  -13.3870   19.5240 C   0  0  0  0  0  3  0  0  0  0  0  0
  -28.8920  -13.1390   20.5990 C   0  0  0  0  0  2  0  0  0  0  0  0
  -30.2010  -13.4520   20.0030 N   0  0  0  0  0  0  0  0  0  0  0  0
  -31.9590  -14.8500   19.6110 O   0  0  0  0  0  0  0  0  0  0  0  0
  -30.1110  -15.6460   20.6070 N   0  0  0  0  0  0  0  0  0  0  0  0
  -29.2060  -15.3890   20.9750 H   0  0  0  0  0  0  0  0  0  0  0  0
  -25.4230  -13.9810   20.2800 C   0  0  0  0  0  0  0  0  0  0  0  0
  -24.3710  -13.2030   20.6850 C   0  0  0  0  0  0  0  0  0  0  0  0
  -24.8450  -11.8560   20.6630 C   0  0  0  0  0  0  0  0  0  0  0  0
  -26.4700  -13.1080   20.0350 N   0  0  0  0  0  0  0  0  0  0  0  0
  -26.1270  -11.8260   20.3210 N   0  0  0  0  0  0  0  0  0  0  0  0
  -24.1390  -10.5880   20.8860 C   0  0  0  0  0  0  0  0  0  0  0  0
  -24.5600   -9.6730   21.8760 C   0  0  0  0  0  3  0  0  0  0  0  0
  -23.8530   -8.4700   22.0840 C   0  0  0  0  0  3  0  0  0  0  0  0
  -22.7120   -8.1740   21.3030 C   0  0  0  0  0  0  0  0  0  0  0  0
  -22.3110   -9.0780   20.3020 C   0  0  0  0  0  3  0  0  0  0  0  0
  -23.0200  -10.2720   20.0930 C   0  0  0  0  0  3  0  0  0  0  0  0
  -21.9770   -7.0200   21.4190 O   0  0  0  0  0  0  0  0  0  0  0  0
  -21.8380   -6.3710   22.6190 C   0  0  0  0  0  0  0  0  0  0  0  0
  -21.2750   -7.0060   23.7480 C   0  0  0  0  0  3  0  0  0  0  0  0
  -21.0850   -6.2820   24.9420 C   0  0  0  0  0  3  0  0  0  0  0  0
  -21.4480   -4.9230   25.0080 C   0  0  0  0  0  0  0  0  0  0  0  0
  -22.0050   -4.2880   23.8840 C   0  0  0  0  0  3  0  0  0  0  0  0
  -22.1950   -5.0100   22.6920 C   0  0  0  0  0  0  0  0  0  0  0  0
  -22.7110   -4.3860   21.6060 F   0  0  0  0  0  0  0  0  0  0  0  0
  -21.2590   -4.2250   26.1520 F   0  0  0  0  0  0  0  0  0  0  0  0
  -22.9750  -13.6700   20.9810 C   0  0  0  0  0  0  0  0  0  0  0  0
  -22.2760  -12.9830   21.8800 N   0  0  0  0  0  0  0  0  0  0  0  0
  -22.5110  -14.6780   20.4520 O   0  0  0  0  0  0  0  0  0  0  0  0
  -22.6640  -12.1680   22.3310 H   0  0  0  0  0  0  0  0  0  0  0  0
  -21.3440  -13.2840   22.1270 H   0  0  0  0  0  0  0  0  0  0  0  0
  -25.5670  -15.3520   20.0830 N   0  0  0  0  0  0  0  0  0  0  0  0
  -24.7810  -15.9850   20.1910 H   0  0  0  0  0  0  0  0  0  0  0  0
  -26.3830  -15.7950   19.6820 H   0  0  0  0  0  0  0  0  0  0  0  0
  -28.7380  -23.4490   21.1980 O   0  0  0  0  0  0  0  0  0  0  0  0
  -28.2040  -24.4670   20.3450 C   0  0  0  0  0  2  0  0  0  0  0  0
  -28.6380  -25.8570   20.8570 C   0  0  0  0  0  2  0  0  0  0  0  0
  -28.4730  -26.8970   19.8880 O   0  0  0  0  0  0  0  0  0  0  0  0
  -24.5140  -31.8210   23.1700 C   0  0  0  0  0  0  0  0  0  0  0  0
  -27.2810  -27.5730   19.9520 C   0  0  0  0  0  0  0  0  0  0  0  0
  -23.3420  -30.4340   21.4880 C   0  0  0  0  0  3  0  0  0  0  0  0
  -24.8360  -28.9830   20.0150 C   0  0  0  0  0  0  0  0  0  0  0  0
  -25.8500  -30.8830   21.2900 C   0  0  0  0  0  2  0  0  0  0  0  0
  -25.9780  -29.5330   20.6140 C   0  0  0  0  0  0  0  0  0  0  0  0
  -27.2040  -28.8340   20.5830 C   0  0  0  0  0  3  0  0  0  0  0  0
  -26.1300  -27.0310   19.3470 C   0  0  0  0  0  3  0  0  0  0  0  0
  -24.9070  -27.7290   19.3800 C   0  0  0  0  0  3  0  0  0  0  0  0
  -23.5660  -29.7980   20.0890 C   0  0  0  0  0  2  0  0  0  0  0  0
  -24.5860  -31.0600   22.0420 N   0  0  0  0  0  0  0  0  0  0  0  0
  -23.4290  -32.0420   23.7260 O   0  0  0  0  0  0  0  0  0  0  0  0
  -22.7280  -29.3650   22.4200 C   0  0  0  0  0  0  0  0  0  0  0  0
  -21.4140  -29.1300   22.2790 N   0  0  0  0  0  0  0  0  0  0  0  0
  -23.4330  -28.7490   23.2250 O   0  0  0  0  0  0  0  0  0  0  0  0
  -20.9050  -29.6820   21.6040 H   0  0  0  0  0  0  0  0  0  0  0  0
  -18.0920  -27.7800   22.7150 C   0  0  0  0  0  0  0  0  0  0  0  0
  -20.6330  -28.1410   23.0210 C   0  0  0  0  0  3  0  0  0  0  0  0
  -20.8030  -26.7290   22.4140 C   0  0  0  0  0  2  0  0  0  0  0  0
  -19.7270  -26.3830   21.3810 C   0  0  0  0  0  2  0  0  0  0  0  0
  -18.3330  -26.4550   22.0120 C   0  0  0  0  0  2  0  0  0  0  0  0
  -19.1720  -28.5800   23.1740 C   0  0  0  0  0  0  0  0  0  0  0  0
  -18.8940  -29.8200   23.7880 C   0  0  0  0  0  3  0  0  0  0  0  0
  -17.5670  -30.2630   23.9480 C   0  0  0  0  0  3  0  0  0  0  0  0
  -16.5010  -29.4600   23.5050 C   0  0  0  0  0  3  0  0  0  0  0  0
  -16.7640  -28.2210   22.8950 C   0  0  0  0  0  3  0  0  0  0  0  0
  -25.7850  -32.4710   23.8020 C   0  0  0  0  0  3  0  0  0  0  0  0
  -25.4500  -33.8590   24.1450 N   0  0  0  0  0  0  0  0  0  0  0  0
  -25.7750  -34.9250   23.4010 C   0  0  0  0  0  0  0  0  0  0  0  0
  -26.4620  -34.8440   22.3790 O   0  0  0  0  0  0  0  0  0  0  0  0
  -24.8430  -33.9960   24.9400 H   0  0  0  0  0  0  0  0  0  0  0  0
  -24.0290  -36.6950   23.0280 C   0  0  0  0  0  1  0  0  0  0  0  0
  -25.2570  -36.3000   23.8640 C   0  0  0  0  0  3  0  0  0  0  0  0
  -27.3560  -37.2070   24.7590 C   0  0  0  0  0  1  0  0  0  0  0  0
  -26.2760  -37.3700   23.7890 N   0  0  0  0  0  0  0  0  0  0  0  0
  -25.8530  -38.2820   23.9360 H   0  0  0  0  0  0  0  0  0  0  0  0
  -26.3140  -31.6960   25.0710 C   0  0  1  0  0  0  0  0  0  0  0  0
  -25.2220  -31.4220   26.1320 C   0  0  0  0  0  1  0  0  0  0  0  0
  -26.9280  -30.3370   24.6640 C   0  0  0  0  0  1  0  0  0  0  0  0
  -27.4450  -32.5060   25.7490 C   0  0  0  0  0  1  0  0  0  0  0  0
  2  4  1  0
  2  5  1  0
  3  1  1  0
  4  6  1  0
  5 48  1  0
  5  1  1  0
  6  8  1  0
  6  3  1  0
  6  7  1  6
  9 18  1  0
  9  8  1  0
 10 18  1  0
 11 16  1  0
 12 13  1  0
 12 11  1  0
 14 13  1  0
 14 23  1  0
 14 15  1  0
 16 10  1  0
 16 15  1  0
 17 10  2  0
 18 19  1  0
 20 21  2  0
 21 40  1  0
 22 21  1  0
 22 25  1  0
 23 20  1  0
 23 24  1  0
 24 22  2  0
 25 26  1  0
 26 27  2  0
 28 31  1  0
 28 27  1  0
 29 28  2  0
 30 29  1  0
 30 25  2  0
 31 32  1  0
 32 37  2  0
 32 33  1  0
 33 34  2  0
 34 35  1  0
 35 39  1  0
 36 35  2  0
 37 36  1  0
 38 37  1  0
 40 41  1  0
 41 44  1  0
 41 43  1  0
 42 40  2  0
 45 46  1  0
 45 20  1  0
 47 45  1  0
 49 50  1  0
 49 48  1  0
 51 53  1  0
 51 50  1  0
 52 63  2  0
 53 58  1  0
 54 62  1  0
 54 64  1  0
 55 61  1  0
 55 57  1  0
 56 62  1  0
 57 56  1  0
 58 57  2  0
 59 60  1  0
 59 53  2  0
 60 55  2  0
 61 54  1  0
 62 52  1  0
 64 66  2  0
 65 64  1  0
 67 65  1  0
 68 77  2  0
 68 73  1  0
 69 65  1  0
 69 73  1  0
 70 69  1  0
 71 72  1  0
 71 70  1  0
 72 68  1  0
 73 74  2  0
 74 75  1  0
 76 75  2  0
 77 76  1  0
 78 52  1  0
 78 79  1  0
 78 88  1  0
 79 82  1  0
 80 84  1  0
 80 79  1  0
 81 80  2  0
 84 83  1  0
 86 84  1  0
 86 87  1  0
 86 85  1  0
 88 91  1  1
 88 89  1  0
 90 88  1  0
M  ISO  4  10 100  18 100  50 101  51 101
M  END
>  <TORSDO>  (82) 
F 21

>  <SCORE>  (82) 
-12.254

>  <name>  (82) 
81

>  <ligand_id>  (82) 
81

>  <original_smiles>  (82) 
[H]c1c([H])c([H])c2c(c1[H])C([H])([H])C([H])([H])C([H])([H])C2([H])N([H])C(=O)C1([H])N(C(=O)C([H])(N([H])C(=O)C([H])(N([H])C([H])([H])[H])C([H])([H])[H])C(C([H])([H])[H])(C([H])([H])[H])C([H])([H])[H])C([H])([H])c2c([H])c(OC([H])([H])C([H])([H])OC3([H])C([H])([H])C([H])([H])[N+]([H])(C([H])([H])C([H])([H])N([H])C(=O)N4C([H])([H])C([H])([H])C([H])([H])C([H])(n5nc(-c6c([H])c([H])c(Oc7c([H])c([H])c(F)c([H])c7F)c([H])c6[H])c(C(=O)N([H])[H])c5N([H])[H])C4([H])[H])C([H])([H])C3([H])[H])c([H])c([H])c2C1([H])[H]

>  <smiles>  (82) 
[H]c1c([H])c([H])c2c(c1[H])C([H])([H])C([H])([H])C([H])([H])C2([H])N([H])C(=O)C1([H])N(C(=O)C([H])(N([H])C(=O)C([H])(N([H])C([H])([H])[H])C([H])([H])[H])C(C([H])([H])[H])(C([H])([H])[H])C([H])([H])[H])C([H])([H])c2c([H])c(OC([H])([H])C([H])([H])OC3([H])C([H])([H])C([H])([H])[N+]([H])(C([H])([H])C([H])([H])N([H])C(=O)N4C([H])([H])C([H])([H])C([H])([H])C([H])(n5nc(-c6c([H])c([H])c(Oc7c([H])c([H])c(F)c([H])c7F)c([H])c6[H])c(C(=O)N([H])[H])c5N([H])[H])C4([H])[H])C([H])([H])C3([H])[H])c([H])c([H])c2C1([H])[H]

$$$$
82:0:0
     RDKit          3D

 98107  0  0  1  0  0  0  0  0999 V2000
  -24.5920  -20.8050   19.1560 C   0  0  0  0  0  2  0  0  0  0  0  0
  -25.7030  -19.8530   19.6310 C   0  0  0  0  0  2  0  0  0  0  0  0
  -26.9510  -20.0610   17.3620 C   0  0  0  0  0  2  0  0  0  0  0  0
  -26.4010  -21.5200   17.4760 C   0  0  0  0  0  3  0  0  0  0  0  0
  -24.8700  -21.3640   17.7560 C   0  0  0  0  0  3  0  0  0  0  0  0
  -26.4160  -19.0850   18.4720 C   0  0  0  0  0  3  0  0  0  0  0  0
  -23.8620  -22.5030   17.3910 C   0  0  0  0  0  1  0  0  0  0  0  0
  -26.7260  -23.6660   18.8880 C   0  0  0  0  0  3  0  0  0  0  0  0
  -28.5400  -22.1080   18.9140 C   0  0  0  0  0  3  0  0  0  0  0  0
  -27.4830  -24.5440   19.6800 C   0  0  0  0  0  3  0  0  0  0  0  0
  -29.3050  -23.0100   19.7090 C   0  0  0  0  0  3  0  0  0  0  0  0
  -27.2390  -22.4250   18.4490 C   0  0  0  0  0  0  0  0  0  0  0  0
  -28.8290  -24.2860   20.0760 C   0  0  0  0  0  0  0  0  0  0  0  0
  -29.8460  -25.3240   20.6890 C   0  0  0  0  0  2  0  0  0  0  0  0
  -29.4620  -26.4170   21.5900 O   0  0  0  0  0  0  0  0  0  0  0  0
  -25.0080  -31.7550   23.4760 C   0  0  0  0  0  0  0  0  0  0  0  0
  -28.3900  -27.2290   21.2760 C   0  0  0  0  0  0  0  0  0  0  0  0
  -24.1770  -30.0980   21.8510 C   0  0  0  0  0  3  0  0  0  0  0  0
  -25.9340  -28.5640   20.8250 C   0  0  0  0  0  0  0  0  0  0  0  0
  -26.6740  -30.6000   22.0420 C   0  0  0  0  0  2  0  0  0  0  0  0
  -26.9410  -29.1850   21.5710 C   0  0  0  0  0  0  0  0  0  0  0  0
  -28.1570  -28.5080   21.8490 C   0  0  0  0  0  3  0  0  0  0  0  0
  -27.4370  -26.7700   20.3520 C   0  0  0  0  0  3  0  0  0  0  0  0
  -26.1710  -27.3400   20.2140 C   0  0  0  0  0  3  0  0  0  0  0  0
  -24.6340  -29.2930   20.6020 C   0  0  0  0  0  2  0  0  0  0  0  0
  -25.2870  -30.8490   22.4940 N   0  0  0  0  0  0  0  0  0  0  0  0
  -23.8330  -31.9910   23.7960 O   0  0  0  0  0  0  0  0  0  0  0  0
  -23.4630  -29.1390   22.8320 C   0  0  0  0  0  0  0  0  0  0  0  0
  -22.1780  -28.8680   22.5460 N   0  0  0  0  0  0  0  0  0  0  0  0
  -24.0450  -28.6650   23.8070 O   0  0  0  0  0  0  0  0  0  0  0  0
  -21.7470  -29.3930   21.8130 H   0  0  0  0  0  0  0  0  0  0  0  0
  -18.8600  -27.4690   22.7600 C   0  0  0  0  0  0  0  0  0  0  0  0
  -21.3360  -27.9120   23.2660 C   0  0  0  0  0  3  0  0  0  0  0  0
  -21.5980  -26.4660   22.7850 C   0  0  0  0  0  2  0  0  0  0  0  0
  -20.6460  -26.0890   21.6560 C   0  0  0  0  0  2  0  0  0  0  0  0
  -19.1970  -26.1200   22.1480 C   0  0  0  0  0  2  0  0  0  0  0  0
  -19.8620  -28.3170   23.2860 C   0  0  0  0  0  0  0  0  0  0  0  0
  -19.4860  -29.5720   23.8140 C   0  0  0  0  0  3  0  0  0  0  0  0
  -18.1290  -29.9710   23.8390 C   0  0  0  0  0  3  0  0  0  0  0  0
  -17.1450  -29.1210   23.3380 C   0  0  0  0  0  3  0  0  0  0  0  0
  -17.5070  -27.8780   22.7940 C   0  0  0  0  0  3  0  0  0  0  0  0
  -26.1360  -32.5460   24.2010 C   0  0  0  0  0  3  0  0  0  0  0  0
  -25.6720  -33.9350   24.3110 N   0  0  0  0  0  0  0  0  0  0  0  0
  -25.9700  -34.9010   23.4350 C   0  0  0  0  0  0  0  0  0  0  0  0
  -26.7230  -34.7250   22.4760 O   0  0  0  0  0  0  0  0  0  0  0  0
  -25.0110  -34.1500   25.0400 H   0  0  0  0  0  0  0  0  0  0  0  0
  -24.1070  -36.4380   22.7210 C   0  0  0  0  0  1  0  0  0  0  0  0
  -25.3140  -36.2810   23.6610 C   0  0  0  0  0  3  0  0  0  0  0  0
  -27.2800  -37.5020   24.4830 C   0  0  0  0  0  1  0  0  0  0  0  0
  -26.2470  -37.4130   23.4570 N   0  0  0  0  0  0  0  0  0  0  0  0
  -25.7430  -38.2960   23.4240 H   0  0  0  0  0  0  0  0  0  0  0  0
  -26.4980  -31.9680   25.6260 C   0  0  1  0  0  0  0  0  0  0  0  0
  -25.2680  -31.6900   26.5150 C   0  0  0  0  0  1  0  0  0  0  0  0
  -27.3080  -30.6590   25.5090 C   0  0  0  0  0  1  0  0  0  0  0  0
  -27.4080  -32.9650   26.3800 C   0  0  0  0  0  1  0  0  0  0  0  0
  -27.2980  -18.0070   19.0370 N   0  0  0  0  0  4  0  0  0  0  0  0
  -26.6880  -17.2020   19.2100 H   0  0  0  0  0  0  0  0  0  0  0  0
  -27.5600  -18.3530   19.9330 H   0  0  0  0  0  0  0  0  0  0  0  0
  -28.5450  -17.4190   18.3980 C   0  0  0  0  0  2  0  0  0  0  0  0
  -29.3760  -16.6120   19.5060 C   0  0  0  0  0  2  0  0  0  0  0  0
  -31.4460  -15.0440   19.8050 C   0  0  0  0  0  0  0  0  0  0  0  0
  -31.4980  -12.6110   19.5330 C   0  0  0  0  0  2  0  0  0  0  0  0
  -30.6140  -12.3310   18.3010 C   0  0  0  0  0  2  0  0  0  0  0  0
  -29.1240  -12.2100   18.6860 C   0  0  0  0  0  2  0  0  0  0  0  0
  -28.6440  -13.3290   19.6540 C   0  0  0  0  0  3  0  0  0  0  0  0
  -29.6590  -13.6010   20.7910 C   0  0  0  0  0  2  0  0  0  0  0  0
  -30.9490  -13.8270   20.1450 N   0  0  0  0  0  0  0  0  0  0  0  0
  -32.6460  -15.2120   19.6060 O   0  0  0  0  0  0  0  0  0  0  0  0
  -30.5810  -15.8310   19.0910 N   0  0  0  0  0  0  0  0  0  0  0  0
  -31.1010  -16.3650   18.4130 H   0  0  0  0  0  0  0  0  0  0  0  0
  -26.3160  -14.0130   20.4890 C   0  0  0  0  0  0  0  0  0  0  0  0
  -25.2250  -13.2900   20.8760 C   0  0  0  0  0  0  0  0  0  0  0  0
  -25.6020  -11.9260   20.7260 C   0  0  0  0  0  0  0  0  0  0  0  0
  -27.3020  -13.0980   20.1690 N   0  0  0  0  0  0  0  0  0  0  0  0
  -26.8760  -11.8310   20.3700 N   0  0  0  0  0  0  0  0  0  0  0  0
  -24.8020  -10.7050   20.8350 C   0  0  0  0  0  0  0  0  0  0  0  0
  -25.0660   -9.7540   21.8420 C   0  0  0  0  0  3  0  0  0  0  0  0
  -24.2700   -8.5960   21.9470 C   0  0  0  0  0  3  0  0  0  0  0  0
  -23.2000   -8.3880   21.0420 C   0  0  0  0  0  0  0  0  0  0  0  0
  -22.9520   -9.3330   20.0340 C   0  0  0  0  0  3  0  0  0  0  0  0
  -23.7480  -10.4850   19.9260 C   0  0  0  0  0  3  0  0  0  0  0  0
  -22.3840   -7.2830   21.0560 O   0  0  0  0  0  0  0  0  0  0  0  0
  -21.9990   -6.6950   22.2320 C   0  0  0  0  0  0  0  0  0  0  0  0
  -21.2330   -7.3870   23.1960 C   0  0  0  0  0  3  0  0  0  0  0  0
  -20.7920   -6.7200   24.3570 C   0  0  0  0  0  3  0  0  0  0  0  0
  -21.1110   -5.3620   24.5530 C   0  0  0  0  0  0  0  0  0  0  0  0
  -21.8680   -4.6700   23.5900 C   0  0  0  0  0  3  0  0  0  0  0  0
  -22.3060   -5.3350   22.4320 C   0  0  0  0  0  0  0  0  0  0  0  0
  -23.0200   -4.6570   21.5020 F   0  0  0  0  0  0  0  0  0  0  0  0
  -20.6800   -4.7190   25.6640 F   0  0  0  0  0  0  0  0  0  0  0  0
  -23.8710  -13.8460   21.2110 C   0  0  0  0  0  0  0  0  0  0  0  0
  -23.1040  -13.1460   22.0420 N   0  0  0  0  0  0  0  0  0  0  0  0
  -23.4870  -14.9150   20.7530 O   0  0  0  0  0  0  0  0  0  0  0  0
  -23.4100  -12.2620   22.4180 H   0  0  0  0  0  0  0  0  0  0  0  0
  -22.1970  -13.5090   22.3000 H   0  0  0  0  0  0  0  0  0  0  0  0
  -26.4970  -15.3590   20.3200 N   0  0  0  0  0  0  0  0  0  0  0  0
  -25.5550  -15.7140   20.1640 H   0  0  0  0  0  0  0  0  0  0  0  0
  -27.0180  -15.3940   19.4520 H   0  0  0  0  0  0  0  0  0  0  0  0
  1  2  1  0
  3  4  1  0
  3  6  1  0
  4  5  1  0
  4 12  1  0
  5  7  1  0
  5  1  1  0
  6 56  1  0
  6  2  1  0
  8 10  1  0
  9 11  2  0
 10 13  2  0
 11 13  1  0
 12  8  2  0
 12  9  1  0
 13 14  1  0
 14 15  1  0
 16 27  2  0
 17 15  1  0
 17 22  1  0
 18 26  1  0
 18 28  1  0
 19 21  1  0
 20 26  1  0
 21 22  2  0
 21 20  1  0
 23 17  2  0
 24 23  1  0
 24 19  2  0
 25 19  1  0
 25 18  1  0
 26 16  1  0
 28 30  2  0
 29 28  1  0
 31 29  1  0
 32 41  2  0
 32 37  1  0
 33 29  1  0
 33 37  1  0
 34 33  1  0
 35 36  1  0
 35 34  1  0
 36 32  1  0
 37 38  2  0
 38 39  1  0
 40 39  2  0
 41 40  1  0
 42 16  1  0
 42 43  1  0
 42 52  1  0
 43 46  1  0
 44 48  1  0
 44 43  1  0
 45 44  2  0
 48 47  1  0
 50 48  1  0
 50 49  1  0
 51 50  1  0
 52 55  1  1
 52 53  1  0
 54 52  1  0
 56 57  1  0
 56 58  1  0
 59 56  1  0
 59 60  1  0
 61 67  1  0
 62 67  1  0
 63 64  1  0
 63 62  1  0
 65 64  1  0
 65 74  1  0
 65 66  1  0
 67 66  1  0
 68 61  2  0
 69 60  1  0
 69 61  1  0
 70 69  1  0
 71 72  2  0
 72 91  1  0
 73 76  1  0
 73 72  1  0
 74 75  1  0
 74 71  1  0
 75 73  2  0
 76 77  1  0
 77 78  2  0
 79 82  1  0
 79 78  1  0
 80 79  2  0
 81 80  1  0
 81 76  2  0
 82 83  1  0
 83 88  2  0
 83 84  1  0
 84 85  2  0
 85 86  1  0
 86 90  1  0
 87 86  2  0
 88 87  1  0
 89 88  1  0
 91 92  1  0
 92 95  1  0
 92 94  1  0
 93 91  2  0
 96 71  1  0
 97 96  1  0
 98 96  1  0
M  ISO  4  14 101  15 101  61 100  69 100
M  END
>  <TORSDO>  (83) 
F 21

>  <SCORE>  (83) 
-8.487

>  <name>  (83) 
82

>  <ligand_id>  (83) 
82

>  <original_smiles>  (83) 
[H]c1c([H])c([H])c2c(c1[H])C([H])([H])C([H])([H])C([H])([H])C2([H])N([H])C(=O)C1([H])N(C(=O)C([H])(N([H])C(=O)C([H])(N([H])C([H])([H])[H])C([H])([H])[H])C(C([H])([H])[H])(C([H])([H])[H])C([H])([H])[H])C([H])([H])c2c([H])c(OC([H])([H])c3c([H])c([H])c(C4([H])C([H])([H])C([H])([N+]([H])([H])C([H])([H])C([H])([H])N([H])C(=O)N5C([H])([H])C([H])([H])C([H])([H])C([H])(n6nc(-c7c([H])c([H])c(Oc8c([H])c([H])c(F)c([H])c8F)c([H])c7[H])c(C(=O)N([H])[H])c6N([H])[H])C5([H])[H])C([H])([H])C([H])([H])C4([H])C([H])([H])[H])c([H])c3[H])c([H])c([H])c2C1([H])[H]

>  <smiles>  (83) 
[H]c1c([H])c([H])c2c(c1[H])C([H])([H])C([H])([H])C([H])([H])C2([H])N([H])C(=O)C1([H])N(C(=O)C([H])(N([H])C(=O)C([H])(N([H])C([H])([H])[H])C([H])([H])[H])C(C([H])([H])[H])(C([H])([H])[H])C([H])([H])[H])C([H])([H])c2c([H])c(OC([H])([H])c3c([H])c([H])c(C4([H])C([H])([H])C([H])([N+]([H])([H])C([H])([H])C([H])([H])N([H])C(=O)N5C([H])([H])C([H])([H])C([H])([H])C([H])(n6nc(-c7c([H])c([H])c(Oc8c([H])c([H])c(F)c([H])c8F)c([H])c7[H])c(C(=O)N([H])[H])c6N([H])[H])C5([H])[H])C([H])([H])C([H])([H])C4([H])C([H])([H])[H])c([H])c3[H])c([H])c([H])c2C1([H])[H]

$$$$
83:0:0
     RDKit          3D

100109  0  0  1  0  0  0  0  0999 V2000
  -27.5220  -21.5270   20.4740 C   0  0  0  0  0  2  0  0  0  0  0  0
  -28.5820  -20.8250   19.7210 N   0  0  0  0  0  4  0  0  0  0  0  0
  -29.2220  -21.5040   19.3420 H   0  0  0  0  0  0  0  0  0  0  0  0
  -28.1520  -20.3360   18.9530 H   0  0  0  0  0  0  0  0  0  0  0  0
  -29.3310  -19.8480   20.5370 C   0  0  0  0  0  2  0  0  0  0  0  0
  -29.7220  -18.6010   19.7230 C   0  0  0  0  0  2  0  0  0  0  0  0
  -30.6850  -17.9000   21.8320 C   0  0  0  0  0  2  0  0  0  0  0  0
  -30.7880  -16.7090   22.8130 C   0  0  0  0  0  2  0  0  0  0  0  0
  -31.7990  -15.6880   20.7930 C   0  0  0  0  0  2  0  0  0  0  0  0
  -30.7400  -16.3980   19.8910 C   0  0  0  0  0  3  0  0  0  0  0  0
  -29.9990  -17.4620   20.6080 N   0  0  0  0  0  0  0  0  0  0  0  0
  -31.2820  -15.4760   22.1600 N   0  0  0  0  0  4  0  0  0  0  0  0
  -30.5050  -14.8410   22.1040 H   0  0  0  0  0  0  0  0  0  0  0  0
  -31.9860  -15.0460   22.7370 H   0  0  0  0  0  0  0  0  0  0  0  0
  -29.7090  -15.4180   19.2610 C   0  0  0  0  0  2  0  0  0  0  0  0
  -30.3020  -14.0630   18.8320 C   0  0  0  0  0  0  0  0  0  0  0  0
  -30.3840  -11.6010   19.0160 C   0  0  0  0  0  2  0  0  0  0  0  0
  -29.4160  -10.9200   18.0320 C   0  0  0  0  0  2  0  0  0  0  0  0
  -28.0150  -10.7880   18.6560 C   0  0  0  0  0  2  0  0  0  0  0  0
  -27.5060  -12.1250   19.2530 C   0  0  0  0  0  3  0  0  0  0  0  0
  -28.5810  -12.7810   20.1510 C   0  0  0  0  0  2  0  0  0  0  0  0
  -29.8260  -12.9120   19.3740 N   0  0  0  0  0  0  0  0  0  0  0  0
  -31.2210  -14.0670   18.0080 O   0  0  0  0  0  0  0  0  0  0  0  0
  -25.3180  -12.8880   20.3820 C   0  0  0  0  0  0  0  0  0  0  0  0
  -24.2810  -12.1850   20.9350 C   0  0  0  0  0  0  0  0  0  0  0  0
  -24.6310  -10.8060   20.8150 C   0  0  0  0  0  0  0  0  0  0  0  0
  -26.2420  -11.9390   19.9660 N   0  0  0  0  0  0  0  0  0  0  0  0
  -25.8390  -10.6810   20.2800 N   0  0  0  0  0  0  0  0  0  0  0  0
  -23.8620   -9.5940   21.1270 C   0  0  0  0  0  0  0  0  0  0  0  0
  -23.9950   -8.9350   22.3710 C   0  0  0  0  0  3  0  0  0  0  0  0
  -23.2320   -7.7820   22.6560 C   0  0  0  0  0  3  0  0  0  0  0  0
  -22.3210   -7.2800   21.6960 C   0  0  0  0  0  0  0  0  0  0  0  0
  -22.2080   -7.9250   20.4530 C   0  0  0  0  0  3  0  0  0  0  0  0
  -22.9730   -9.0700   20.1690 C   0  0  0  0  0  3  0  0  0  0  0  0
  -21.5550   -6.1530   21.8760 O   0  0  0  0  0  0  0  0  0  0  0  0
  -20.8120   -5.9610   23.0120 C   0  0  0  0  0  0  0  0  0  0  0  0
  -19.7640   -6.8350   23.3740 C   0  0  0  0  0  3  0  0  0  0  0  0
  -18.9800   -6.5630   24.5120 C   0  0  0  0  0  3  0  0  0  0  0  0
  -19.2340   -5.4140   25.2840 C   0  0  0  0  0  0  0  0  0  0  0  0
  -20.2720   -4.5380   24.9220 C   0  0  0  0  0  3  0  0  0  0  0  0
  -21.0580   -4.8100   23.7880 C   0  0  0  0  0  0  0  0  0  0  0  0
  -22.0450   -3.9520   23.4330 F   0  0  0  0  0  0  0  0  0  0  0  0
  -18.4760   -5.1470   26.3730 F   0  0  0  0  0  0  0  0  0  0  0  0
  -22.9930  -12.7540   21.4580 C   0  0  0  0  0  0  0  0  0  0  0  0
  -22.3890  -12.0980   22.4430 N   0  0  0  0  0  0  0  0  0  0  0  0
  -22.5410  -13.8140   21.0280 O   0  0  0  0  0  0  0  0  0  0  0  0
  -22.7690  -11.2380   22.8100 H   0  0  0  0  0  0  0  0  0  0  0  0
  -21.5300  -12.4590   22.8350 H   0  0  0  0  0  0  0  0  0  0  0  0
  -25.5450  -14.2460   20.1800 N   0  0  0  0  0  0  0  0  0  0  0  0
  -24.8510  -14.9500   20.4090 H   0  0  0  0  0  0  0  0  0  0  0  0
  -26.3510  -14.6260   19.6990 H   0  0  0  0  0  0  0  0  0  0  0  0
  -26.5730  -22.3200   19.5590 C   0  0  0  0  0  2  0  0  0  0  0  0
  -27.6490  -24.1650   18.1960 C   0  0  0  0  0  3  0  0  0  0  0  0
  -27.8790  -25.5240   17.9030 C   0  0  0  0  0  3  0  0  0  0  0  0
  -26.8150  -26.1440   20.0010 C   0  0  0  0  0  3  0  0  0  0  0  0
  -26.9520  -23.7860   19.3660 C   0  0  0  0  0  0  0  0  0  0  0  0
  -26.5530  -24.7890   20.2880 C   0  0  0  0  0  0  0  0  0  0  0  0
  -27.4200  -26.5230   18.7830 C   0  0  0  0  0  0  0  0  0  0  0  0
  -25.7780  -24.4630   21.5570 C   0  0  0  0  0  1  0  0  0  0  0  0
  -27.4060  -27.8410   18.3860 O   0  0  0  0  0  0  0  0  0  0  0  0
  -24.2990  -31.7880   23.4070 C   0  0  0  0  0  0  0  0  0  0  0  0
  -26.2740  -28.5260   18.7710 C   0  0  0  0  0  0  0  0  0  0  0  0
  -22.7850  -30.7630   21.7430 C   0  0  0  0  0  3  0  0  0  0  0  0
  -23.9150  -29.7720   19.6840 C   0  0  0  0  0  0  0  0  0  0  0  0
  -25.1970  -31.3600   21.1260 C   0  0  0  0  0  2  0  0  0  0  0  0
  -25.1650  -30.2130   20.1400 C   0  0  0  0  0  0  0  0  0  0  0  0
  -26.3510  -29.5930   19.6890 C   0  0  0  0  0  3  0  0  0  0  0  0
  -25.0080  -28.1090   18.2990 C   0  0  0  0  0  3  0  0  0  0  0  0
  -23.8290  -28.7170   18.7620 C   0  0  0  0  0  3  0  0  0  0  0  0
  -22.6940  -30.4840   20.2200 C   0  0  0  0  0  2  0  0  0  0  0  0
  -24.1240  -31.3040   22.1460 N   0  0  0  0  0  0  0  0  0  0  0  0
  -23.3590  -31.8280   24.2130 O   0  0  0  0  0  0  0  0  0  0  0  0
  -22.3880  -29.4790   22.5070 C   0  0  0  0  0  0  0  0  0  0  0  0
  -21.1130  -29.0790   22.3780 N   0  0  0  0  0  0  0  0  0  0  0  0
  -23.2200  -28.8580   23.1740 O   0  0  0  0  0  0  0  0  0  0  0  0
  -20.4910  -29.6540   21.8250 H   0  0  0  0  0  0  0  0  0  0  0  0
  -18.1290  -27.0440   22.4690 C   0  0  0  0  0  0  0  0  0  0  0  0
  -20.5200  -27.8840   22.9770 C   0  0  0  0  0  3  0  0  0  0  0  0
  -21.0120  -26.6010   22.2690 C   0  0  0  0  0  2  0  0  0  0  0  0
  -20.0850  -26.1430   21.1390 C   0  0  0  0  0  2  0  0  0  0  0  0
  -18.6770  -25.8700   21.6750 C   0  0  0  0  0  2  0  0  0  0  0  0
  -18.9940  -27.9990   23.0670 C   0  0  0  0  0  0  0  0  0  0  0  0
  -18.4340  -29.0920   23.7620 C   0  0  0  0  0  3  0  0  0  0  0  0
  -17.0380  -29.2370   23.8700 C   0  0  0  0  0  3  0  0  0  0  0  0
  -16.1860  -28.2800   23.2900 C   0  0  0  0  0  3  0  0  0  0  0  0
  -16.7320  -27.1860   22.5940 C   0  0  0  0  0  3  0  0  0  0  0  0
  -25.6780  -32.3390   23.8880 C   0  0  0  0  0  3  0  0  0  0  0  0
  -25.4900  -33.7500   24.2480 N   0  0  0  0  0  0  0  0  0  0  0  0
  -25.8150  -34.7840   23.4630 C   0  0  0  0  0  0  0  0  0  0  0  0
  -26.3800  -34.6490   22.3750 O   0  0  0  0  0  0  0  0  0  0  0  0
  -24.9840  -33.9350   25.1030 H   0  0  0  0  0  0  0  0  0  0  0  0
  -24.2000  -36.6980   23.2390 C   0  0  0  0  0  1  0  0  0  0  0  0
  -25.4570  -36.1960   23.9660 C   0  0  0  0  0  3  0  0  0  0  0  0
  -27.6860  -36.9260   24.6920 C   0  0  0  0  0  1  0  0  0  0  0  0
  -26.5530  -37.1760   23.8030 N   0  0  0  0  0  0  0  0  0  0  0  0
  -26.2190  -38.1210   23.9720 H   0  0  0  0  0  0  0  0  0  0  0  0
  -26.2850  -31.5280   25.0990 C   0  0  1  0  0  0  0  0  0  0  0  0
  -25.3110  -31.3640   26.2870 C   0  0  0  0  0  1  0  0  0  0  0  0
  -26.7230  -30.1150   24.6450 C   0  0  0  0  0  1  0  0  0  0  0  0
  -27.5560  -32.2400   25.6190 C   0  0  0  0  0  1  0  0  0  0  0  0
  2  1  1  0
  2  5  1  0
  3  2  1  0
  4  2  1  0
  6  5  1  0
  6 11  1  0
  7  8  1  0
  9 12  1  0
 10 15  1  0
 10 11  1  0
 10  9  1  0
 11  7  1  0
 12 14  1  0
 12  8  1  0
 13 12  1  0
 16 15  1  0
 16 22  1  0
 17 22  1  0
 18 19  1  0
 18 17  1  0
 20 19  1  0
 20 27  1  0
 20 21  1  0
 22 21  1  0
 23 16  2  0
 24 25  2  0
 25 44  1  0
 26 25  1  0
 26 29  1  0
 27 28  1  0
 27 24  1  0
 28 26  2  0
 29 30  1  0
 30 31  2  0
 32 35  1  0
 32 31  1  0
 33 32  2  0
 34 33  1  0
 34 29  2  0
 35 36  1  0
 36 37  2  0
 36 41  1  0
 37 38  1  0
 38 39  2  0
 39 43  1  0
 40 39  1  0
 41 40  2  0
 42 41  1  0
 44 45  1  0
 45 47  1  0
 45 48  1  0
 46 44  2  0
 49 24  1  0
 49 50  1  0
 51 49  1  0
 52  1  1  0
 53 56  1  0
 54 53  2  0
 54 58  1  0
 55 57  1  0
 56 52  1  0
 56 57  2  0
 57 59  1  0
 58 55  2  0
 60 62  1  0
 60 58  1  0
 61 72  2  0
 62 67  1  0
 63 71  1  0
 63 73  1  0
 64 66  1  0
 64 70  1  0
 65 71  1  0
 66 65  1  0
 67 66  2  0
 68 69  1  0
 68 62  2  0
 69 64  2  0
 70 63  1  0
 71 61  1  0
 73 75  2  0
 74 73  1  0
 76 74  1  0
 77 86  2  0
 77 82  1  0
 78 74  1  0
 78 82  1  0
 79 78  1  0
 80 81  1  0
 80 79  1  0
 81 77  1  0
 82 83  2  0
 83 84  1  0
 85 84  2  0
 86 85  1  0
 87 61  1  0
 87 88  1  0
 87 97  1  0
 88 91  1  0
 89 93  1  0
 89 88  1  0
 90 89  2  0
 93 92  1  0
 95 93  1  0
 95 96  1  0
 95 94  1  0
 97100  1  1
 97 98  1  0
 99 97  1  0
M  ISO  4  15 100  16 100  58 101  60 101
M  END
>  <TORSDO>  (84) 
F 23

>  <SCORE>  (84) 
-7.912

>  <name>  (84) 
83

>  <ligand_id>  (84) 
83

>  <original_smiles>  (84) 
[H]c1c([H])c([H])c2c(c1[H])C([H])([H])C([H])([H])C([H])([H])C2([H])N([H])C(=O)C1([H])N(C(=O)C([H])(N([H])C(=O)C([H])(N([H])C([H])([H])[H])C([H])([H])[H])C(C([H])([H])[H])(C([H])([H])[H])C([H])([H])[H])C([H])([H])c2c([H])c(Oc3c([H])c([H])c(C([H])([H])C([H])([H])[N+]([H])([H])C([H])([H])C([H])([H])N4C([H])([H])C([H])([H])[N+]([H])([H])C([H])([H])C4([H])C([H])([H])C(=O)N4C([H])([H])C([H])([H])C([H])([H])C([H])(n5nc(-c6c([H])c([H])c(Oc7c([H])c([H])c(F)c([H])c7F)c([H])c6[H])c(C(=O)N([H])[H])c5N([H])[H])C4([H])[H])c(C([H])([H])[H])c3[H])c([H])c([H])c2C1([H])[H]

>  <smiles>  (84) 
[H]c1c([H])c([H])c2c(c1[H])C([H])([H])C([H])([H])C([H])([H])C2([H])N([H])C(=O)C1([H])N(C(=O)C([H])(N([H])C(=O)C([H])(N([H])C([H])([H])[H])C([H])([H])[H])C(C([H])([H])[H])(C([H])([H])[H])C([H])([H])[H])C([H])([H])c2c([H])c(Oc3c([H])c([H])c(C([H])([H])C([H])([H])[N+]([H])([H])C([H])([H])C([H])([H])N4C([H])([H])C([H])([H])[N+]([H])([H])C([H])([H])C4([H])C([H])([H])C(=O)N4C([H])([H])C([H])([H])C([H])([H])C([H])(n5nc(-c6c([H])c([H])c(Oc7c([H])c([H])c(F)c([H])c7F)c([H])c6[H])c(C(=O)N([H])[H])c5N([H])[H])C4([H])[H])c(C([H])([H])[H])c3[H])c([H])c([H])c2C1([H])[H]

$$$$
84:0:0
     RDKit          3D

 92100  0  0  1  0  0  0  0  0999 V2000
  -30.6650  -20.8510   18.2190 C   0  0  0  0  0  2  0  0  0  0  0  0
  -29.2900  -20.2070   18.2410 C   0  0  0  0  0  2  0  0  0  0  0  0
  -30.4110  -22.1680   18.9610 C   0  0  0  0  0  3  0  0  0  0  0  0
  -29.2690  -21.8640   20.0110 C   0  0  0  0  0  3  0  0  0  0  0  0
  -28.8800  -20.3420   19.6550 N   0  0  2  0  0  4  0  0  0  0  0  0
  -27.8710  -20.2920   19.6500 H   0  0  0  0  0  0  0  0  0  0  0  0
  -32.9850  -22.1230   19.4430 C   0  0  0  0  0  1  0  0  0  0  0  0
  -31.9200  -24.1240   18.3070 C   0  0  0  0  0  1  0  0  0  0  0  0
  -31.6980  -22.9810   19.3320 C   0  0  0  0  0  3  0  0  0  0  0  0
  -28.1840  -23.1840   19.8720 C   0  0  0  0  0  2  0  0  0  0  0  0
  -28.2460  -24.7070   20.6360 C   0  0  0  0  0  2  0  0  0  0  0  0
  -28.3090  -26.1880   20.1340 O   0  0  0  0  0  0  0  0  0  0  0  0
  -24.6570  -31.8810   23.2320 C   0  0  0  0  0  0  0  0  0  0  0  0
  -27.2290  -27.1420   20.1950 C   0  0  0  0  0  0  0  0  0  0  0  0
  -23.4580  -30.4720   21.6110 C   0  0  0  0  0  3  0  0  0  0  0  0
  -24.8910  -28.8760   20.1950 C   0  0  0  0  0  0  0  0  0  0  0  0
  -26.0110  -30.7330   21.4330 C   0  0  0  0  0  2  0  0  0  0  0  0
  -26.0790  -29.3330   20.7790 C   0  0  0  0  0  0  0  0  0  0  0  0
  -27.2510  -28.4860   20.7500 C   0  0  0  0  0  3  0  0  0  0  0  0
  -26.0090  -26.7710   19.5970 C   0  0  0  0  0  3  0  0  0  0  0  0
  -24.8650  -27.6040   19.5940 C   0  0  0  0  0  3  0  0  0  0  0  0
  -23.6710  -29.7840   20.2360 C   0  0  0  0  0  2  0  0  0  0  0  0
  -24.7310  -31.0490   22.1480 N   0  0  0  0  0  0  0  0  0  0  0  0
  -23.5710  -32.1670   23.7580 O   0  0  0  0  0  0  0  0  0  0  0  0
  -22.7810  -29.4690   22.5820 C   0  0  0  0  0  0  0  0  0  0  0  0
  -21.4520  -29.2950   22.4580 N   0  0  0  0  0  0  0  0  0  0  0  0
  -23.4520  -28.8500   23.4120 O   0  0  0  0  0  0  0  0  0  0  0  0
  -20.9610  -29.8590   21.7790 H   0  0  0  0  0  0  0  0  0  0  0  0
  -18.0740  -28.0770   22.9610 C   0  0  0  0  0  0  0  0  0  0  0  0
  -20.6310  -28.3540   23.2290 C   0  0  0  0  0  3  0  0  0  0  0  0
  -20.7380  -26.9200   22.6620 C   0  0  0  0  0  2  0  0  0  0  0  0
  -19.6370  -26.5830   21.6490 C   0  0  0  0  0  2  0  0  0  0  0  0
  -18.2560  -26.7250   22.2900 C   0  0  0  0  0  2  0  0  0  0  0  0
  -19.1880  -28.8510   23.3850 C   0  0  0  0  0  0  0  0  0  0  0  0
  -18.9590  -30.1140   23.9700 C   0  0  0  0  0  3  0  0  0  0  0  0
  -17.6510  -30.6090   24.1300 C   0  0  0  0  0  3  0  0  0  0  0  0
  -16.5540  -29.8330   23.7220 C   0  0  0  0  0  3  0  0  0  0  0  0
  -16.7650  -28.5670   23.1450 C   0  0  0  0  0  3  0  0  0  0  0  0
  -25.9310  -32.5230   23.8590 C   0  0  0  0  0  3  0  0  0  0  0  0
  -25.6100  -33.9210   24.1910 N   0  0  0  0  0  0  0  0  0  0  0  0
  -25.9350  -34.9800   23.4390 C   0  0  0  0  0  0  0  0  0  0  0  0
  -26.6010  -34.8820   22.4050 O   0  0  0  0  0  0  0  0  0  0  0  0
  -25.0250  -34.0680   25.0000 H   0  0  0  0  0  0  0  0  0  0  0  0
  -24.2010  -36.7670   23.1050 C   0  0  0  0  0  1  0  0  0  0  0  0
  -25.4530  -36.3680   23.9060 C   0  0  0  0  0  3  0  0  0  0  0  0
  -27.5980  -37.2550   24.7110 C   0  0  0  0  0  1  0  0  0  0  0  0
  -26.4820  -37.4270   23.7810 N   0  0  0  0  0  0  0  0  0  0  0  0
  -26.0800  -38.3500   23.9300 H   0  0  0  0  0  0  0  0  0  0  0  0
  -26.4390  -31.7610   25.1460 C   0  0  1  0  0  0  0  0  0  0  0  0
  -25.3420  -31.5310   26.2150 C   0  0  0  0  0  1  0  0  0  0  0  0
  -27.0260  -30.3840   24.7720 C   0  0  0  0  0  1  0  0  0  0  0  0
  -27.5920  -32.5620   25.7980 C   0  0  0  0  0  1  0  0  0  0  0  0
  -29.3360  -19.0480   20.4960 C   0  0  0  0  0  2  0  0  0  0  0  0
  -29.6790  -17.5220   19.8190 C   0  0  0  0  0  2  0  0  0  0  0  0
  -30.4580  -14.9250   20.3260 C   0  0  0  0  0  0  0  0  0  0  0  0
  -30.3550  -12.5840   19.3810 C   0  0  0  0  0  2  0  0  0  0  0  0
  -29.4240  -12.5510   18.1470 C   0  0  0  0  0  2  0  0  0  0  0  0
  -27.9410  -12.4010   18.5340 C   0  0  0  0  0  2  0  0  0  0  0  0
  -27.5520  -13.2970   19.7410 C   0  0  0  0  0  3  0  0  0  0  0  0
  -28.5980  -13.2340   20.8760 C   0  0  0  0  0  2  0  0  0  0  0  0
  -29.8810  -13.6590   20.2970 N   0  0  0  0  0  0  0  0  0  0  0  0
  -31.6490  -15.0150   19.9910 O   0  0  0  0  0  0  0  0  0  0  0  0
  -29.6630  -16.0870   20.4920 N   0  0  0  0  0  0  0  0  0  0  0  0
  -28.7490  -15.8450   20.8510 H   0  0  0  0  0  0  0  0  0  0  0  0
  -25.1610  -13.8900   20.4400 C   0  0  0  0  0  0  0  0  0  0  0  0
  -24.0910  -13.1220   20.8040 C   0  0  0  0  0  0  0  0  0  0  0  0
  -24.5540  -11.7700   20.7960 C   0  0  0  0  0  0  0  0  0  0  0  0
  -26.2080  -13.0090   20.2210 N   0  0  0  0  0  0  0  0  0  0  0  0
  -25.8490  -11.7320   20.5060 N   0  0  0  0  0  0  0  0  0  0  0  0
  -23.8250  -10.5130   20.9920 C   0  0  0  0  0  0  0  0  0  0  0  0
  -24.2480   -9.5580   21.9420 C   0  0  0  0  0  3  0  0  0  0  0  0
  -23.5250   -8.3620   22.1280 C   0  0  0  0  0  3  0  0  0  0  0  0
  -22.3600   -8.1100   21.3670 C   0  0  0  0  0  0  0  0  0  0  0  0
  -21.9510   -9.0520   20.4070 C   0  0  0  0  0  3  0  0  0  0  0  0
  -22.6770  -10.2420   20.2170 C   0  0  0  0  0  3  0  0  0  0  0  0
  -21.6040   -6.9670   21.4610 O   0  0  0  0  0  0  0  0  0  0  0  0
  -21.5470   -6.2360   22.6190 C   0  0  0  0  0  0  0  0  0  0  0  0
  -21.1210   -6.8030   23.8400 C   0  0  0  0  0  3  0  0  0  0  0  0
  -21.0120   -5.9960   24.9890 C   0  0  0  0  0  3  0  0  0  0  0  0
  -21.3230   -4.6260   24.9230 C   0  0  0  0  0  0  0  0  0  0  0  0
  -21.7410   -4.0600   23.7070 C   0  0  0  0  0  3  0  0  0  0  0  0
  -21.8500   -4.8610   22.5580 C   0  0  0  0  0  0  0  0  0  0  0  0
  -22.2360   -4.3060   21.3830 F   0  0  0  0  0  0  0  0  0  0  0  0
  -21.2050   -3.8500   26.0270 F   0  0  0  0  0  0  0  0  0  0  0  0
  -22.6920  -13.6020   21.0530 C   0  0  0  0  0  0  0  0  0  0  0  0
  -21.9600  -12.9120   21.9200 N   0  0  0  0  0  0  0  0  0  0  0  0
  -22.2600  -14.6170   20.5070 O   0  0  0  0  0  0  0  0  0  0  0  0
  -22.3330  -12.0930   22.3770 H   0  0  0  0  0  0  0  0  0  0  0  0
  -21.0120  -13.2000   22.1310 H   0  0  0  0  0  0  0  0  0  0  0  0
  -25.3210  -15.2600   20.2490 N   0  0  0  0  0  0  0  0  0  0  0  0
  -24.5390  -15.8940   20.3720 H   0  0  0  0  0  0  0  0  0  0  0  0
  -26.1190  -15.7040   19.8160 H   0  0  0  0  0  0  0  0  0  0  0  0
  1  2  1  0
  1  3  1  0
  2  5  1  0
  3  9  1  0
  3  4  1  0
  4 10  1  0
  5  4  1  0
  5 53  1  0
  5  6  1  6
  8  9  1  0
  9  7  1  0
 10 11  1  0
 12 14  1  0
 12 11  1  0
 13 24  2  0
 14 19  1  0
 15 23  1  0
 15 25  1  0
 16 22  1  0
 16 18  1  0
 17 23  1  0
 18 17  1  0
 19 18  2  0
 20 14  2  0
 21 20  1  0
 21 16  2  0
 22 15  1  0
 23 13  1  0
 25 27  2  0
 26 25  1  0
 28 26  1  0
 29 38  2  0
 29 34  1  0
 30 26  1  0
 30 34  1  0
 31 30  1  0
 32 33  1  0
 32 31  1  0
 33 29  1  0
 34 35  2  0
 35 36  1  0
 37 36  2  0
 38 37  1  0
 39 13  1  0
 39 40  1  0
 39 49  1  0
 40 43  1  0
 41 45  1  0
 41 40  1  0
 42 41  2  0
 45 44  1  0
 47 45  1  0
 47 48  1  0
 47 46  1  0
 49 52  1  1
 49 50  1  0
 51 49  1  0
 54 63  1  0
 54 53  1  0
 55 63  1  0
 56 61  1  0
 57 58  1  0
 57 56  1  0
 59 58  1  0
 59 68  1  0
 59 60  1  0
 61 55  1  0
 61 60  1  0
 62 55  2  0
 63 64  1  0
 65 66  2  0
 66 85  1  0
 67 66  1  0
 67 70  1  0
 68 65  1  0
 68 69  1  0
 69 67  2  0
 70 71  1  0
 71 72  2  0
 73 76  1  0
 73 72  1  0
 74 73  2  0
 75 74  1  0
 75 70  2  0
 76 77  1  0
 77 78  1  0
 78 79  2  0
 80 79  1  0
 80 84  1  0
 81 80  2  0
 82 77  2  0
 82 81  1  0
 83 82  1  0
 85 86  1  0
 86 89  1  0
 86 88  1  0
 87 85  2  0
 90 91  1  0
 90 65  1  0
 92 90  1  0
M  ISO  4  11 101  12 101  55 100  63 100
M  END
>  <TORSDO>  (85) 
F 21

>  <SCORE>  (85) 
-15.066

>  <name>  (85) 
84

>  <ligand_id>  (85) 
84

>  <original_smiles>  (85) 
[H]c1c([H])c([H])c2c(c1[H])C([H])([H])C([H])([H])C([H])([H])C2([H])N([H])C(=O)C1([H])N(C(=O)C([H])(N([H])C(=O)C([H])(N([H])C([H])([H])[H])C([H])([H])[H])C(C([H])([H])[H])(C([H])([H])[H])C([H])([H])[H])C([H])([H])c2c([H])c(OC([H])([H])C([H])([H])C3([H])C([H])(C([H])(C([H])([H])[H])C([H])([H])[H])C([H])([H])C([H])([H])[N+]3([H])C([H])([H])C([H])([H])N([H])C(=O)N3C([H])([H])C([H])([H])C([H])([H])C([H])(n4nc(-c5c([H])c([H])c(Oc6c([H])c([H])c(F)c([H])c6F)c([H])c5[H])c(C(=O)N([H])[H])c4N([H])[H])C3([H])[H])c([H])c([H])c2C1([H])[H]

>  <smiles>  (85) 
[H]c1c([H])c([H])c2c(c1[H])C([H])([H])C([H])([H])C([H])([H])C2([H])N([H])C(=O)C1([H])N(C(=O)C([H])(N([H])C(=O)C([H])(N([H])C([H])([H])[H])C([H])([H])[H])C(C([H])([H])[H])(C([H])([H])[H])C([H])([H])[H])C([H])([H])c2c([H])c(OC([H])([H])C([H])([H])C3([H])C([H])(C([H])(C([H])([H])[H])C([H])([H])[H])C([H])([H])C([H])([H])[N+]3([H])C([H])([H])C([H])([H])N([H])C(=O)N3C([H])([H])C([H])([H])C([H])([H])C([H])(n4nc(-c5c([H])c([H])c(Oc6c([H])c([H])c(F)c([H])c6F)c([H])c5[H])c(C(=O)N([H])[H])c4N([H])[H])C3([H])[H])c([H])c([H])c2C1([H])[H]

$$$$
85:0:0
     RDKit          3D

 94103  0  0  1  0  0  0  0  0999 V2000
  -29.7430  -21.7520   20.5040 C   0  0  0  0  0  3  0  0  0  0  0  0
  -28.1660  -22.5780   18.8930 C   0  0  0  0  0  3  0  0  0  0  0  0
  -29.1040  -22.8650   19.8990 C   0  0  0  0  0  0  0  0  0  0  0  0
  -29.4520  -20.4180   20.0900 C   0  0  0  0  0  0  0  0  0  0  0  0
  -28.5040  -20.2750   19.0270 C   0  0  0  0  0  0  0  0  0  0  0  0
  -27.8750  -21.3350   18.4800 N   0  0  0  0  0  0  0  0  0  0  0  0
  -28.9580  -18.1820   17.4830 C   0  0  0  0  0  2  0  0  0  0  0  0
  -27.7460  -18.8550   16.9150 C   0  0  0  0  0  2  0  0  0  0  0  0
  -28.0450  -18.9760   18.4030 C   0  0  0  0  0  3  0  0  0  0  0  0
  -30.1130  -19.3540   20.7670 N   0  0  0  0  0  0  0  0  0  0  0  0
  -30.7890  -19.5910   21.4890 H   0  0  0  0  0  0  0  0  0  0  0  0
  -29.7820  -17.9320   20.6040 C   0  0  0  0  0  2  0  0  0  0  0  0
  -30.6050  -16.9590   21.4810 C   0  0  0  0  0  2  0  0  0  0  0  0
  -30.7860  -14.6210   20.5510 C   0  0  0  0  0  0  0  0  0  0  0  0
  -30.4720  -12.5190   19.2870 C   0  0  0  0  0  2  0  0  0  0  0  0
  -29.5370  -12.7620   18.0840 C   0  0  0  0  0  2  0  0  0  0  0  0
  -28.0610  -12.6120   18.4980 C   0  0  0  0  0  2  0  0  0  0  0  0
  -27.7170  -13.4030   19.7880 C   0  0  0  0  0  3  0  0  0  0  0  0
  -28.7640  -13.1410   20.8950 C   0  0  0  0  0  2  0  0  0  0  0  0
  -30.0950  -13.4620   20.3540 N   0  0  0  0  0  0  0  0  0  0  0  0
  -31.8780  -14.8410   20.0210 O   0  0  0  0  0  0  0  0  0  0  0  0
  -30.1660  -15.5650   21.2820 N   0  0  0  0  0  0  0  0  0  0  0  0
  -29.2770  -15.3060   21.6840 H   0  0  0  0  0  0  0  0  0  0  0  0
  -25.2960  -13.9820   20.4480 C   0  0  0  0  0  0  0  0  0  0  0  0
  -24.2320  -13.1980   20.8080 C   0  0  0  0  0  0  0  0  0  0  0  0
  -24.7100  -11.8520   20.7940 C   0  0  0  0  0  0  0  0  0  0  0  0
  -26.3580  -13.1130   20.2440 N   0  0  0  0  0  0  0  0  0  0  0  0
  -26.0070  -11.8280   20.5090 N   0  0  0  0  0  0  0  0  0  0  0  0
  -23.9960  -10.5830   20.9810 C   0  0  0  0  0  0  0  0  0  0  0  0
  -24.4040   -9.6450   21.9550 C   0  0  0  0  0  3  0  0  0  0  0  0
  -23.6910   -8.4390   22.1310 C   0  0  0  0  0  3  0  0  0  0  0  0
  -22.5560   -8.1630   21.3320 C   0  0  0  0  0  0  0  0  0  0  0  0
  -22.1680   -9.0900   20.3470 C   0  0  0  0  0  3  0  0  0  0  0  0
  -22.8830  -10.2870   20.1710 C   0  0  0  0  0  3  0  0  0  0  0  0
  -21.8170   -7.0070   21.4130 O   0  0  0  0  0  0  0  0  0  0  0  0
  -21.7020   -6.3070   22.5880 C   0  0  0  0  0  0  0  0  0  0  0  0
  -21.1420   -6.8880   23.7490 C   0  0  0  0  0  3  0  0  0  0  0  0
  -20.9780   -6.1120   24.9140 C   0  0  0  0  0  3  0  0  0  0  0  0
  -21.3630   -4.7580   24.9200 C   0  0  0  0  0  0  0  0  0  0  0  0
  -21.9140   -4.1780   23.7640 C   0  0  0  0  0  3  0  0  0  0  0  0
  -22.0800   -4.9500   22.6010 C   0  0  0  0  0  0  0  0  0  0  0  0
  -22.5920   -4.3810   21.4840 F   0  0  0  0  0  0  0  0  0  0  0  0
  -21.1990   -4.0120   26.0360 F   0  0  0  0  0  0  0  0  0  0  0  0
  -22.8240  -13.6600   21.0530 C   0  0  0  0  0  0  0  0  0  0  0  0
  -22.0880  -12.9570   21.9070 N   0  0  0  0  0  0  0  0  0  0  0  0
  -22.3840  -14.6780   20.5200 O   0  0  0  0  0  0  0  0  0  0  0  0
  -22.4560  -12.1340   22.3610 H   0  0  0  0  0  0  0  0  0  0  0  0
  -21.1410  -13.2450   22.1080 H   0  0  0  0  0  0  0  0  0  0  0  0
  -25.4470  -15.3530   20.2610 N   0  0  0  0  0  0  0  0  0  0  0  0
  -24.6700  -16.0000   20.3580 H   0  0  0  0  0  0  0  0  0  0  0  0
  -26.2990  -15.7970   19.9450 H   0  0  0  0  0  0  0  0  0  0  0  0
  -29.4110  -24.3280   20.3140 C   0  0  0  0  0  2  0  0  0  0  0  0
  -28.3250  -25.3580   19.8870 C   0  0  0  0  0  2  0  0  0  0  0  0
  -28.4830  -26.7530   20.2510 O   0  0  0  0  0  0  0  0  0  0  0  0
  -24.6240  -31.9880   23.2460 C   0  0  0  0  0  0  0  0  0  0  0  0
  -27.3230  -27.5230   20.2000 C   0  0  0  0  0  0  0  0  0  0  0  0
  -23.4430  -30.5640   21.6110 C   0  0  0  0  0  3  0  0  0  0  0  0
  -24.9180  -29.0420   20.1980 C   0  0  0  0  0  0  0  0  0  0  0  0
  -25.9740  -30.9370   21.4280 C   0  0  0  0  0  2  0  0  0  0  0  0
  -26.0740  -29.5630   20.7920 C   0  0  0  0  0  0  0  0  0  0  0  0
  -27.2790  -28.8130   20.7920 C   0  0  0  0  0  3  0  0  0  0  0  0
  -26.1400  -27.0430   19.5810 C   0  0  0  0  0  3  0  0  0  0  0  0
  -24.9480  -27.7810   19.5900 C   0  0  0  0  0  3  0  0  0  0  0  0
  -23.6680  -29.8890   20.2350 C   0  0  0  0  0  2  0  0  0  0  0  0
  -24.6990  -31.1790   22.1520 N   0  0  0  0  0  0  0  0  0  0  0  0
  -23.5360  -32.2500   23.7780 O   0  0  0  0  0  0  0  0  0  0  0  0
  -22.7990  -29.5370   22.5720 C   0  0  0  0  0  0  0  0  0  0  0  0
  -21.4800  -29.3270   22.4300 N   0  0  0  0  0  0  0  0  0  0  0  0
  -23.4840  -28.9320   23.4010 O   0  0  0  0  0  0  0  0  0  0  0  0
  -20.9880  -29.8690   21.7340 H   0  0  0  0  0  0  0  0  0  0  0  0
  -18.1150  -28.1020   22.9310 C   0  0  0  0  0  0  0  0  0  0  0  0
  -20.6720  -28.3820   23.2000 C   0  0  0  0  0  3  0  0  0  0  0  0
  -20.7850  -26.9510   22.6240 C   0  0  0  0  0  2  0  0  0  0  0  0
  -19.6850  -26.6180   21.6120 C   0  0  0  0  0  2  0  0  0  0  0  0
  -18.3030  -26.7530   22.2570 C   0  0  0  0  0  2  0  0  0  0  0  0
  -19.2280  -28.8730   23.3600 C   0  0  0  0  0  0  0  0  0  0  0  0
  -18.9990  -30.1360   23.9500 C   0  0  0  0  0  3  0  0  0  0  0  0
  -17.6910  -30.6260   24.1140 C   0  0  0  0  0  3  0  0  0  0  0  0
  -16.5920  -29.8530   23.7010 C   0  0  0  0  0  3  0  0  0  0  0  0
  -16.8060  -28.5920   23.1160 C   0  0  0  0  0  3  0  0  0  0  0  0
  -25.8980  -32.6380   23.8670 C   0  0  0  0  0  3  0  0  0  0  0  0
  -25.5650  -34.0300   24.2010 N   0  0  0  0  0  0  0  0  0  0  0  0
  -25.8830  -35.0900   23.4450 C   0  0  0  0  0  0  0  0  0  0  0  0
  -26.5570  -34.9980   22.4150 O   0  0  0  0  0  0  0  0  0  0  0  0
  -24.9670  -34.1730   25.0010 H   0  0  0  0  0  0  0  0  0  0  0  0
  -24.1410  -36.8630   23.0690 C   0  0  0  0  0  1  0  0  0  0  0  0
  -25.3700  -36.4680   23.9030 C   0  0  0  0  0  3  0  0  0  0  0  0
  -27.4730  -37.3740   24.7890 C   0  0  0  0  0  1  0  0  0  0  0  0
  -26.3930  -37.5340   23.8190 N   0  0  0  0  0  0  0  0  0  0  0  0
  -25.9740  -38.4490   23.9580 H   0  0  0  0  0  0  0  0  0  0  0  0
  -26.4300  -31.8710   25.1400 C   0  0  1  0  0  0  0  0  0  0  0  0
  -25.3350  -31.5740   26.1900 C   0  0  0  0  0  1  0  0  0  0  0  0
  -27.0730  -30.5240   24.7350 C   0  0  0  0  0  1  0  0  0  0  0  0
  -27.5410  -32.7020   25.8250 C   0  0  0  0  0  1  0  0  0  0  0  0
  2  3  1  0
  3 52  1  0
  3  1  2  0
  4  1  1  0
  4 10  1  0
  5  4  2  0
  6  2  2  0
  6  5  1  0
  7  9  1  0
  8  7  1  0
  8  9  1  0
  9  5  1  0
 10 11  1  0
 12 10  1  0
 12 13  1  0
 14 22  1  0
 15 20  1  0
 16 17  1  0
 16 15  1  0
 18 17  1  0
 18 27  1  0
 18 19  1  0
 20 14  1  0
 20 19  1  0
 21 14  2  0
 22 13  1  0
 22 23  1  0
 24 25  2  0
 25 44  1  0
 26 25  1  0
 26 29  1  0
 27 24  1  0
 27 28  1  0
 28 26  2  0
 29 30  1  0
 30 31  2  0
 32 35  1  0
 32 31  1  0
 33 32  2  0
 34 33  1  0
 34 29  2  0
 35 36  1  0
 36 41  2  0
 36 37  1  0
 37 38  2  0
 38 39  1  0
 39 43  1  0
 40 39  2  0
 41 40  1  0
 42 41  1  0
 44 45  1  0
 45 48  1  0
 45 47  1  0
 46 44  2  0
 49 50  1  0
 49 24  1  0
 51 49  1  0
 53 54  1  0
 53 52  1  0
 55 66  2  0
 56 54  1  0
 56 61  1  0
 57 65  1  0
 57 67  1  0
 58 64  1  0
 58 60  1  0
 59 65  1  0
 60 61  2  0
 60 59  1  0
 62 63  1  0
 62 56  2  0
 63 58  2  0
 64 57  1  0
 65 55  1  0
 67 69  2  0
 68 67  1  0
 70 68  1  0
 71 80  2  0
 71 76  1  0
 72 68  1  0
 72 76  1  0
 73 72  1  0
 74 75  1  0
 74 73  1  0
 75 71  1  0
 76 77  2  0
 77 78  1  0
 79 78  2  0
 80 79  1  0
 81 55  1  0
 81 82  1  0
 81 91  1  0
 82 85  1  0
 83 87  1  0
 83 82  1  0
 84 83  2  0
 87 86  1  0
 89 87  1  0
 89 90  1  0
 89 88  1  0
 91 94  1  1
 91 92  1  0
 93 91  1  0
M  ISO  4  14 100  22 100  53 101  54 101
M  END
>  <TORSDO>  (86) 
F 22

>  <SCORE>  (86) 
-13.467

>  <name>  (86) 
85

>  <ligand_id>  (86) 
85

>  <original_smiles>  (86) 
[H]c1nc(C2([H])C([H])([H])C2([H])[H])c(N([H])C([H])([H])C([H])([H])N([H])C(=O)N2C([H])([H])C([H])([H])C([H])([H])C([H])(n3nc(-c4c([H])c([H])c(Oc5c([H])c([H])c(F)c([H])c5F)c([H])c4[H])c(C(=O)N([H])[H])c3N([H])[H])C2([H])[H])c([H])c1C([H])([H])C([H])([H])Oc1c([H])c([H])c2c(c1[H])C([H])([H])N(C(=O)C([H])(N([H])C(=O)C([H])(N([H])C([H])([H])[H])C([H])([H])[H])C(C([H])([H])[H])(C([H])([H])[H])C([H])([H])[H])C([H])(C(=O)N([H])C1([H])c3c([H])c([H])c([H])c([H])c3C([H])([H])C([H])([H])C1([H])[H])C2([H])[H]

>  <smiles>  (86) 
[H]c1nc(C2([H])C([H])([H])C2([H])[H])c(N([H])C([H])([H])C([H])([H])N([H])C(=O)N2C([H])([H])C([H])([H])C([H])([H])C([H])(n3nc(-c4c([H])c([H])c(Oc5c([H])c([H])c(F)c([H])c5F)c([H])c4[H])c(C(=O)N([H])[H])c3N([H])[H])C2([H])[H])c([H])c1C([H])([H])C([H])([H])Oc1c([H])c([H])c2c(c1[H])C([H])([H])N(C(=O)C([H])(N([H])C(=O)C([H])(N([H])C([H])([H])[H])C([H])([H])[H])C(C([H])([H])[H])(C([H])([H])[H])C([H])([H])[H])C([H])(C(=O)N([H])C1([H])c3c([H])c([H])c([H])c([H])c3C([H])([H])C([H])([H])C1([H])[H])C2([H])[H]

$$$$
86:0:0
     RDKit          3D

 96104  0  0  1  0  0  0  0  0999 V2000
  -29.1510  -20.9210   20.0670 C   0  0  0  0  0  3  0  0  0  0  0  0
  -29.5660  -19.9390   21.1930 C   0  0  0  0  0  0  0  0  0  0  0  0
  -30.3950  -18.8960   21.0160 N   0  0  0  0  0  0  0  0  0  0  0  0
  -29.0440  -20.0800   22.2980 O   0  0  0  0  0  0  0  0  0  0  0  0
  -30.5400  -18.3670   21.8650 H   0  0  0  0  0  0  0  0  0  0  0  0
  -31.1510  -18.4070   19.8620 C   0  0  0  0  0  2  0  0  0  0  0  0
  -31.9970  -15.3050   19.6960 C   0  0  0  0  0  0  0  0  0  0  0  0
  -31.6550  -12.9770   19.0340 C   0  0  0  0  0  2  0  0  0  0  0  0
  -30.6780  -12.9390   17.8300 C   0  0  0  0  0  2  0  0  0  0  0  0
  -29.2080  -12.9670   18.2870 C   0  0  0  0  0  2  0  0  0  0  0  0
  -28.9150  -14.0100   19.3920 C   0  0  0  0  0  3  0  0  0  0  0  0
  -29.9980  -13.9990   20.4970 C   0  0  0  0  0  2  0  0  0  0  0  0
  -31.3100  -14.1460   19.8550 N   0  0  0  0  0  0  0  0  0  0  0  0
  -33.2280  -15.3380   19.6600 O   0  0  0  0  0  0  0  0  0  0  0  0
  -30.9150  -17.3510   16.7720 C   0  0  0  0  0  2  0  0  0  0  0  0
  -29.8420  -17.6850   17.8100 C   0  0  0  0  0  2  0  0  0  0  0  0
  -31.8830  -16.3900   17.4790 C   0  0  0  0  0  2  0  0  0  0  0  0
  -30.4250  -17.2280   19.1630 C   0  0  0  0  0  3  0  0  0  0  0  0
  -31.3580  -16.1410   18.8290 N   0  0  0  0  0  0  0  0  0  0  0  0
  -26.6190  -14.7860   20.2430 C   0  0  0  0  0  0  0  0  0  0  0  0
  -25.5080  -14.0850   20.6110 C   0  0  0  0  0  0  0  0  0  0  0  0
  -25.8640  -12.7030   20.5250 C   0  0  0  0  0  0  0  0  0  0  0  0
  -27.5830  -13.8350   19.9420 N   0  0  0  0  0  0  0  0  0  0  0  0
  -27.1380  -12.5780   20.1890 N   0  0  0  0  0  0  0  0  0  0  0  0
  -25.0550  -11.4890   20.6770 C   0  0  0  0  0  0  0  0  0  0  0  0
  -25.4050  -10.4910   21.6110 C   0  0  0  0  0  3  0  0  0  0  0  0
  -24.6050   -9.3390   21.7610 C   0  0  0  0  0  3  0  0  0  0  0  0
  -23.4450   -9.1760   20.9690 C   0  0  0  0  0  0  0  0  0  0  0  0
  -23.1150  -10.1610   20.0200 C   0  0  0  0  0  3  0  0  0  0  0  0
  -23.9130  -11.3050   19.8700 C   0  0  0  0  0  3  0  0  0  0  0  0
  -22.6210   -8.0790   21.0240 O   0  0  0  0  0  0  0  0  0  0  0  0
  -22.3810   -7.4170   22.2010 C   0  0  0  0  0  0  0  0  0  0  0  0
  -21.8100   -8.0630   23.3200 C   0  0  0  0  0  3  0  0  0  0  0  0
  -21.5190   -7.3270   24.4850 C   0  0  0  0  0  3  0  0  0  0  0  0
  -21.7880   -5.9460   24.5320 C   0  0  0  0  0  0  0  0  0  0  0  0
  -22.3520   -5.3000   23.4190 C   0  0  0  0  0  3  0  0  0  0  0  0
  -22.6460   -6.0340   22.2550 C   0  0  0  0  0  0  0  0  0  0  0  0
  -23.1680   -5.4020   21.1760 F   0  0  0  0  0  0  0  0  0  0  0  0
  -21.5020   -5.2370   25.6480 F   0  0  0  0  0  0  0  0  0  0  0  0
  -24.1530  -14.6500   20.9310 C   0  0  0  0  0  0  0  0  0  0  0  0
  -23.3970  -13.9850   21.7960 N   0  0  0  0  0  0  0  0  0  0  0  0
  -23.7740  -15.7140   20.4420 O   0  0  0  0  0  0  0  0  0  0  0  0
  -23.7200  -13.1230   22.2120 H   0  0  0  0  0  0  0  0  0  0  0  0
  -22.4880  -14.3430   22.0530 H   0  0  0  0  0  0  0  0  0  0  0  0
  -26.8910  -16.1470   20.1110 N   0  0  0  0  0  0  0  0  0  0  0  0
  -26.1870  -16.8560   20.2940 H   0  0  0  0  0  0  0  0  0  0  0  0
  -27.7500  -16.5280   19.7460 H   0  0  0  0  0  0  0  0  0  0  0  0
  -27.8270  -20.5820   19.6880 O   0  0  0  0  0  0  0  0  0  0  0  0
  -27.3840  -20.3360   20.5000 H   0  0  0  0  0  0  0  0  0  0  0  0
  -29.1160  -22.4050   20.5580 C   0  0  0  0  0  2  0  0  0  0  0  0
  -28.6180  -23.3320   19.5120 N   0  0  0  0  0  4  0  0  0  0  0  0
  -29.2540  -23.2880   18.7310 H   0  0  0  0  0  0  0  0  0  0  0  0
  -27.7390  -22.9460   19.1930 H   0  0  0  0  0  0  0  0  0  0  0  0
  -28.4130  -24.7500   19.9300 C   0  0  0  0  0  2  0  0  0  0  0  0
  -28.2990  -25.6980   18.7150 C   0  0  0  0  0  2  0  0  0  0  0  0
  -28.2090  -27.0830   19.0870 O   0  0  0  0  0  0  0  0  0  0  0  0
  -24.5330  -31.7360   23.0230 C   0  0  0  0  0  0  0  0  0  0  0  0
  -26.9880  -27.7150   19.2600 C   0  0  0  0  0  0  0  0  0  0  0  0
  -23.2110  -30.4770   21.3540 C   0  0  0  0  0  3  0  0  0  0  0  0
  -24.5650  -29.1400   19.6550 C   0  0  0  0  0  0  0  0  0  0  0  0
  -25.7000  -30.9370   20.9680 C   0  0  0  0  0  2  0  0  0  0  0  0
  -25.7600  -29.6380   20.1860 C   0  0  0  0  0  0  0  0  0  0  0  0
  -26.9690  -28.9340   19.9840 C   0  0  0  0  0  3  0  0  0  0  0  0
  -25.7640  -27.2290   18.7380 C   0  0  0  0  0  3  0  0  0  0  0  0
  -24.5630  -27.9360   18.9360 C   0  0  0  0  0  3  0  0  0  0  0  0
  -23.3130  -29.9510   19.8970 C   0  0  0  0  0  2  0  0  0  0  0  0
  -24.5050  -31.0590   21.8410 N   0  0  0  0  0  0  0  0  0  0  0  0
  -23.5010  -31.9200   23.6820 O   0  0  0  0  0  0  0  0  0  0  0  0
  -22.6750  -29.3420   22.2530 C   0  0  0  0  0  0  0  0  0  0  0  0
  -21.3580  -29.0880   22.1780 N   0  0  0  0  0  0  0  0  0  0  0  0
  -23.4380  -28.6930   22.9750 O   0  0  0  0  0  0  0  0  0  0  0  0
  -20.7970  -29.6660   21.5660 H   0  0  0  0  0  0  0  0  0  0  0  0
  -18.1030  -27.6020   22.6700 C   0  0  0  0  0  0  0  0  0  0  0  0
  -20.6390  -28.0420   22.9050 C   0  0  0  0  0  3  0  0  0  0  0  0
  -20.8380  -26.6630   22.2350 C   0  0  0  0  0  2  0  0  0  0  0  0
  -19.7380  -26.3200   21.2240 C   0  0  0  0  0  2  0  0  0  0  0  0
  -18.3680  -26.3160   21.9060 C   0  0  0  0  0  2  0  0  0  0  0  0
  -19.1700  -28.4210   23.1250 C   0  0  0  0  0  0  0  0  0  0  0  0
  -18.8720  -29.6250   23.7980 C   0  0  0  0  0  3  0  0  0  0  0  0
  -17.5360  -30.0130   24.0220 C   0  0  0  0  0  3  0  0  0  0  0  0
  -16.4850  -29.1890   23.5860 C   0  0  0  0  0  3  0  0  0  0  0  0
  -16.7680  -27.9870   22.9150 C   0  0  0  0  0  3  0  0  0  0  0  0
  -25.8570  -32.3420   23.5880 C   0  0  0  0  0  3  0  0  0  0  0  0
  -25.5690  -33.7160   24.0210 N   0  0  0  0  0  0  0  0  0  0  0  0
  -25.8910  -34.8160   23.3270 C   0  0  0  0  0  0  0  0  0  0  0  0
  -26.5350  -34.7780   22.2740 O   0  0  0  0  0  0  0  0  0  0  0  0
  -24.9950  -33.8200   24.8470 H   0  0  0  0  0  0  0  0  0  0  0  0
  -24.1740  -36.6410   23.1340 C   0  0  0  0  0  1  0  0  0  0  0  0
  -25.4260  -36.1710   23.8910 C   0  0  0  0  0  3  0  0  0  0  0  0
  -27.5760  -36.9800   24.7540 C   0  0  0  0  0  1  0  0  0  0  0  0
  -26.4650  -37.2200   23.8380 N   0  0  0  0  0  0  0  0  0  0  0  0
  -26.0670  -38.1280   24.0550 H   0  0  0  0  0  0  0  0  0  0  0  0
  -26.4690  -31.5000   24.7720 C   0  0  1  0  0  0  0  0  0  0  0  0
  -25.4600  -31.1920   25.9010 C   0  0  0  0  0  1  0  0  0  0  0  0
  -27.0220  -30.1540   24.2500 C   0  0  0  0  0  1  0  0  0  0  0  0
  -27.6630  -32.2600   25.3980 C   0  0  0  0  0  1  0  0  0  0  0  0
  1 50  1  0
  1  2  1  0
  2  4  2  0
  3  2  1  0
  3  5  1  0
  6  3  1  0
  7 13  1  0
  8 13  1  0
  9 10  1  0
  9  8  1  0
 11 10  1  0
 11 23  1  0
 11 12  1  0
 13 12  1  0
 14  7  2  0
 15 17  1  0
 15 16  1  0
 16 18  1  0
 17 19  1  0
 18  6  1  0
 19 18  1  0
 19  7  1  0
 20 21  2  0
 21 40  1  0
 22 21  1  0
 22 25  1  0
 23 24  1  0
 23 20  1  0
 24 22  2  0
 25 26  1  0
 26 27  2  0
 28 31  1  0
 28 27  1  0
 29 28  2  0
 30 29  1  0
 30 25  2  0
 31 32  1  0
 32 37  2  0
 32 33  1  0
 33 34  2  0
 34 35  1  0
 35 39  1  0
 36 35  2  0
 37 36  1  0
 38 37  1  0
 40 41  1  0
 41 44  1  0
 41 43  1  0
 42 40  2  0
 45 20  1  0
 45 46  1  0
 47 45  1  0
 48  1  1  0
 48 49  1  0
 51 54  1  0
 51 50  1  0
 52 51  1  0
 53 51  1  0
 55 56  1  0
 55 54  1  0
 56 58  1  0
 57 68  2  0
 58 63  1  0
 59 67  1  0
 59 69  1  0
 60 66  1  0
 60 62  1  0
 61 67  1  0
 62 61  1  0
 63 62  2  0
 64 65  1  0
 64 58  2  0
 65 60  2  0
 66 59  1  0
 67 57  1  0
 69 71  2  0
 70 69  1  0
 72 70  1  0
 73 82  2  0
 73 78  1  0
 74 70  1  0
 74 78  1  0
 75 74  1  0
 76 77  1  0
 76 75  1  0
 77 73  1  0
 78 79  2  0
 79 80  1  0
 81 80  2  0
 82 81  1  0
 83 57  1  0
 83 84  1  0
 83 93  1  0
 84 87  1  0
 85 89  1  0
 85 84  1  0
 86 85  2  0
 89 88  1  0
 91 89  1  0
 91 92  1  0
 91 90  1  0
 93 96  1  1
 93 94  1  0
 95 93  1  0
M  ISO  4   7 100  19 100  55 101  56 101
M  END
>  <TORSDO>  (87) 
F 23

>  <SCORE>  (87) 
-8.783

>  <name>  (87) 
86

>  <ligand_id>  (87) 
86

>  <original_smiles>  (87) 
[H]OC([H])(C(=O)N([H])C([H])([H])C1([H])N(C(=O)N2C([H])([H])C([H])([H])C([H])([H])C([H])(n3nc(-c4c([H])c([H])c(Oc5c([H])c([H])c(F)c([H])c5F)c([H])c4[H])c(C(=O)N([H])[H])c3N([H])[H])C2([H])[H])C([H])([H])C([H])([H])C1([H])[H])C([H])([H])[N+]([H])([H])C([H])([H])C([H])([H])Oc1c([H])c([H])c2c(c1[H])C([H])([H])N(C(=O)C([H])(N([H])C(=O)C([H])(N([H])C([H])([H])[H])C([H])([H])[H])C(C([H])([H])[H])(C([H])([H])[H])C([H])([H])[H])C([H])(C(=O)N([H])C1([H])c3c([H])c([H])c([H])c([H])c3C([H])([H])C([H])([H])C1([H])[H])C2([H])[H]

>  <smiles>  (87) 
[H]OC([H])(C(=O)N([H])C([H])([H])C1([H])N(C(=O)N2C([H])([H])C([H])([H])C([H])([H])C([H])(n3nc(-c4c([H])c([H])c(Oc5c([H])c([H])c(F)c([H])c5F)c([H])c4[H])c(C(=O)N([H])[H])c3N([H])[H])C2([H])[H])C([H])([H])C([H])([H])C1([H])[H])C([H])([H])[N+]([H])([H])C([H])([H])C([H])([H])Oc1c([H])c([H])c2c(c1[H])C([H])([H])N(C(=O)C([H])(N([H])C(=O)C([H])(N([H])C([H])([H])[H])C([H])([H])[H])C(C([H])([H])[H])(C([H])([H])[H])C([H])([H])[H])C([H])(C(=O)N([H])C1([H])c3c([H])c([H])c([H])c([H])c3C([H])([H])C([H])([H])C1([H])[H])C2([H])[H]

$$$$
87:0:0
     RDKit          3D

105113  0  0  1  0  0  0  0  0999 V2000
  -30.1480  -20.7970   19.5190 C   0  0  0  0  0  3  0  0  0  0  0  0
  -29.9480  -22.2730   20.1050 N   0  0  0  0  0  0  0  0  0  0  0  0
  -30.8530  -22.7380   20.1780 H   0  0  0  0  0  0  0  0  0  0  0  0
  -28.8170  -23.3480   19.7080 C   0  0  0  0  0  2  0  0  0  0  0  0
  -29.0800  -24.9600   19.2560 C   0  0  0  0  0  2  0  0  0  0  0  0
  -28.9850  -26.3210   20.0200 O   0  0  0  0  0  0  0  0  0  0  0  0
  -25.2760  -31.4380   23.7570 C   0  0  0  0  0  0  0  0  0  0  0  0
  -27.9430  -27.3120   20.0170 C   0  0  0  0  0  0  0  0  0  0  0  0
  -24.1580  -30.4200   21.8100 C   0  0  0  0  0  3  0  0  0  0  0  0
  -25.6580  -29.1010   20.1900 C   0  0  0  0  0  0  0  0  0  0  0  0
  -26.7220  -30.6260   21.8560 C   0  0  0  0  0  2  0  0  0  0  0  0
  -26.8030  -29.3870   20.9440 C   0  0  0  0  0  0  0  0  0  0  0  0
  -27.9430  -28.5080   20.8430 C   0  0  0  0  0  3  0  0  0  0  0  0
  -26.7810  -27.1280   19.2410 C   0  0  0  0  0  3  0  0  0  0  0  0
  -25.6580  -27.9840   19.3380 C   0  0  0  0  0  3  0  0  0  0  0  0
  -24.4480  -30.0080   20.3420 C   0  0  0  0  0  2  0  0  0  0  0  0
  -25.4020  -30.8370   22.5330 N   0  0  0  0  0  0  0  0  0  0  0  0
  -24.1630  -31.6500   24.2630 O   0  0  0  0  0  0  0  0  0  0  0  0
  -23.3990  -29.2710   22.5150 C   0  0  0  0  0  0  0  0  0  0  0  0
  -22.0840  -29.1610   22.2610 N   0  0  0  0  0  0  0  0  0  0  0  0
  -23.9960  -28.4890   23.2590 O   0  0  0  0  0  0  0  0  0  0  0  0
  -21.6610  -29.8410   21.6470 H   0  0  0  0  0  0  0  0  0  0  0  0
  -18.6610  -27.9720   22.2800 C   0  0  0  0  0  0  0  0  0  0  0  0
  -21.1960  -28.1170   22.7790 C   0  0  0  0  0  3  0  0  0  0  0  0
  -21.3260  -26.8150   21.9560 C   0  0  0  0  0  2  0  0  0  0  0  0
  -20.3010  -26.7140   20.8210 C   0  0  0  0  0  2  0  0  0  0  0  0
  -18.8750  -26.7700   21.3750 C   0  0  0  0  0  2  0  0  0  0  0  0
  -19.7520  -28.6140   22.9250 C   0  0  0  0  0  0  0  0  0  0  0  0
  -19.5000  -29.7480   23.7280 C   0  0  0  0  0  3  0  0  0  0  0  0
  -18.1910  -30.2380   23.8930 C   0  0  0  0  0  3  0  0  0  0  0  0
  -17.1140  -29.5890   23.2640 C   0  0  0  0  0  3  0  0  0  0  0  0
  -17.3500  -28.4580   22.4640 C   0  0  0  0  0  3  0  0  0  0  0  0
  -26.5210  -31.8980   24.5750 C   0  0  0  0  0  3  0  0  0  0  0  0
  -26.2770  -33.2790   25.0190 N   0  0  0  0  0  0  0  0  0  0  0  0
  -26.8910  -34.3620   24.5250 C   0  0  0  0  0  0  0  0  0  0  0  0
  -27.7800  -34.2940   23.6730 O   0  0  0  0  0  0  0  0  0  0  0  0
  -25.5210  -33.4140   25.6760 H   0  0  0  0  0  0  0  0  0  0  0  0
  -25.5420  -36.4280   24.0270 C   0  0  0  0  0  1  0  0  0  0  0  0
  -26.4490  -35.7390   25.0600 C   0  0  0  0  0  3  0  0  0  0  0  0
  -28.3340  -36.1770   26.5720 C   0  0  0  0  0  1  0  0  0  0  0  0
  -27.5800  -36.6290   25.4050 N   0  0  0  0  0  0  0  0  0  0  0  0
  -27.2530  -37.5730   25.5890 H   0  0  0  0  0  0  0  0  0  0  0  0
  -26.8270  -30.9700   25.8140 C   0  0  1  0  0  0  0  0  0  0  0  0
  -25.6070  -30.7470   26.7380 C   0  0  0  0  0  1  0  0  0  0  0  0
  -27.3330  -29.5840   25.3560 C   0  0  0  0  0  1  0  0  0  0  0  0
  -27.9610  -31.5930   26.6630 C   0  0  0  0  0  1  0  0  0  0  0  0
  -30.8390  -20.9690   18.1400 C   0  0  0  0  0  2  0  0  0  0  0  0
  -30.8990  -19.6980   17.4240 N   0  0  0  0  0  0  0  0  0  0  0  0
  -30.0690  -19.6580   16.8060 H   0  0  0  0  0  0  0  0  0  0  0  0
  -34.0000  -17.8320   15.1580 C   0  0  0  0  0  2  0  0  0  0  0  0
  -32.7790  -18.3490   14.3830 C   0  0  0  0  0  2  0  0  0  0  0  0
  -34.3470  -18.7910   16.3100 C   0  0  0  0  0  2  0  0  0  0  0  0
  -31.5680  -18.6100   15.3140 C   0  0  0  0  0  3  0  0  0  0  0  0
  -32.0040  -19.5520   16.4760 C   0  0  0  0  0  3  0  0  0  0  0  0
  -33.1760  -18.9990   17.1920 N   0  0  0  0  0  4  0  0  0  0  0  0
  -33.4510  -19.6250   17.9310 H   0  0  0  0  0  0  0  0  0  0  0  0
  -32.9270  -18.1190   17.6130 H   0  0  0  0  0  0  0  0  0  0  0  0
  -29.6570  -17.9470   13.7430 C   0  0  0  0  0  1  0  0  0  0  0  0
  -30.3620  -19.1130   14.4510 C   0  0  0  0  0  3  0  0  0  0  0  0
  -29.3300  -19.7420   15.1980 O   0  0  0  0  0  0  0  0  0  0  0  0
  -28.6770  -20.0620   14.5810 H   0  0  0  0  0  0  0  0  0  0  0  0
  -30.8870  -19.5220   20.4030 C   0  0  0  0  0  3  0  0  0  0  0  0
  -30.5750  -20.5970   22.6620 C   0  0  0  0  0  1  0  0  0  0  0  0
  -30.2760  -19.4660   21.7550 N   0  0  0  0  0  4  0  0  0  0  0  0
  -29.2790  -19.3760   21.6590 H   0  0  0  0  0  0  0  0  0  0  0  0
  -30.6110  -18.6360   22.2170 H   0  0  0  0  0  0  0  0  0  0  0  0
  -31.0630  -17.9240   19.8440 C   0  0  0  0  0  2  0  0  0  0  0  0
  -31.6920  -15.3850   20.7270 C   0  0  0  0  0  0  0  0  0  0  0  0
  -31.6880  -12.9120   20.1760 C   0  0  0  0  0  2  0  0  0  0  0  0
  -30.9510  -12.6870   18.8310 C   0  0  0  0  0  2  0  0  0  0  0  0
  -29.4370  -12.5430   19.0640 C   0  0  0  0  0  2  0  0  0  0  0  0
  -28.8810  -13.6450   20.0070 C   0  0  0  0  0  3  0  0  0  0  0  0
  -29.7470  -13.8080   21.2750 C   0  0  0  0  0  2  0  0  0  0  0  0
  -31.1070  -14.1260   20.8250 N   0  0  0  0  0  0  0  0  0  0  0  0
  -32.9130  -15.4240   20.5260 O   0  0  0  0  0  0  0  0  0  0  0  0
  -30.8890  -16.5570   20.6360 N   0  0  0  0  0  0  0  0  0  0  0  0
  -29.9300  -16.3580   20.8850 H   0  0  0  0  0  0  0  0  0  0  0  0
  -26.4500  -14.3640   20.3620 C   0  0  0  0  0  0  0  0  0  0  0  0
  -25.3160  -13.6610   20.6510 C   0  0  0  0  0  0  0  0  0  0  0  0
  -25.7170  -12.2930   20.7700 C   0  0  0  0  0  0  0  0  0  0  0  0
  -27.4750  -13.4360   20.3310 N   0  0  0  0  0  0  0  0  0  0  0  0
  -27.0340  -12.1880   20.6360 N   0  0  0  0  0  0  0  0  0  0  0  0
  -24.9150  -11.0740   20.9360 C   0  0  0  0  0  0  0  0  0  0  0  0
  -25.1610  -10.1660   21.9910 C   0  0  0  0  0  3  0  0  0  0  0  0
  -24.3610   -9.0130   22.1410 C   0  0  0  0  0  3  0  0  0  0  0  0
  -23.3020   -8.7580   21.2360 C   0  0  0  0  0  0  0  0  0  0  0  0
  -23.0780   -9.6540   20.1760 C   0  0  0  0  0  3  0  0  0  0  0  0
  -23.8770  -10.7980   20.0240 C   0  0  0  0  0  3  0  0  0  0  0  0
  -22.4900   -7.6500   21.2900 O   0  0  0  0  0  0  0  0  0  0  0  0
  -22.2260   -7.0090   22.4730 C   0  0  0  0  0  0  0  0  0  0  0  0
  -21.5750   -7.6610   23.5430 C   0  0  0  0  0  3  0  0  0  0  0  0
  -21.2600   -6.9440   24.7160 C   0  0  0  0  0  3  0  0  0  0  0  0
  -21.5860   -5.5780   24.8150 C   0  0  0  0  0  0  0  0  0  0  0  0
  -22.2310   -4.9280   23.7490 C   0  0  0  0  0  3  0  0  0  0  0  0
  -22.5460   -5.6410   22.5790 C   0  0  0  0  0  0  0  0  0  0  0  0
  -23.1490   -5.0050   21.5450 F   0  0  0  0  0  0  0  0  0  0  0  0
  -21.2770   -4.8860   25.9380 F   0  0  0  0  0  0  0  0  0  0  0  0
  -23.9170  -14.2050   20.6950 C   0  0  0  0  0  0  0  0  0  0  0  0
  -23.0620  -13.6170   21.5240 N   0  0  0  0  0  0  0  0  0  0  0  0
  -23.5950  -15.1910   20.0340 O   0  0  0  0  0  0  0  0  0  0  0  0
  -23.3370  -12.8220   22.0840 H   0  0  0  0  0  0  0  0  0  0  0  0
  -22.1200  -13.9720   21.6120 H   0  0  0  0  0  0  0  0  0  0  0  0
  -26.6910  -15.7070   20.0880 N   0  0  0  0  0  0  0  0  0  0  0  0
  -25.8610  -16.2620   19.8940 H   0  0  0  0  0  0  0  0  0  0  0  0
  -27.4270  -15.9180   19.4300 H   0  0  0  0  0  0  0  0  0  0  0  0
  1 47  1  0
  1  2  1  0
  1 62  1  0
  2  3  1  0
  4  2  1  0
  5  4  1  0
  5  6  1  0
  7 18  2  0
  8  6  1  0
  8 13  1  0
  9 19  1  0
  9 17  1  0
 10 16  1  0
 10 12  1  0
 11 17  1  0
 12 11  1  0
 13 12  2  0
 14 15  1  0
 14  8  2  0
 15 10  2  0
 16  9  1  0
 17  7  1  0
 19 21  2  0
 20 19  1  0
 22 20  1  0
 23 32  2  0
 23 28  1  0
 24 20  1  0
 24 28  1  0
 25 24  1  0
 26 27  1  0
 26 25  1  0
 27 23  1  0
 28 29  2  0
 29 30  1  0
 31 30  2  0
 32 31  1  0
 33  7  1  0
 33 34  1  0
 33 43  1  0
 34 37  1  0
 35 34  1  0
 35 39  1  0
 36 35  2  0
 39 38  1  0
 39 41  1  0
 41 42  1  0
 41 40  1  0
 43 46  1  1
 43 44  1  0
 45 43  1  0
 48 47  1  0
 49 48  1  0
 50 52  1  0
 51 50  1  0
 51 53  1  0
 52 55  1  0
 53 59  1  0
 53 54  1  0
 54 55  1  0
 54 48  1  0
 55 57  1  0
 55 56  1  0
 59 58  1  0
 59 60  1  0
 61 60  1  0
 62 67  1  0
 62 64  1  0
 64 66  1  0
 64 63  1  0
 65 64  1  0
 67 76  1  0
 68 74  1  0
 69 74  1  0
 70 71  1  0
 70 69  1  0
 72 71  1  0
 72 81  1  0
 72 73  1  0
 74 73  1  0
 75 68  2  0
 76 68  1  0
 76 77  1  0
 78 79  2  0
 79 98  1  0
 79 80  1  0
 80 83  1  0
 81 78  1  0
 81 82  1  0
 82 80  2  0
 83 84  1  0
 84 85  2  0
 86 89  1  0
 86 85  1  0
 87 86  2  0
 88 87  1  0
 88 83  2  0
 89 90  1  0
 90 95  2  0
 90 91  1  0
 91 92  2  0
 92 93  1  0
 93 97  1  0
 94 93  2  0
 95 94  1  0
 96 95  1  0
 98 99  1  0
 99102  1  0
 99101  1  0
100 98  2  0
103 78  1  0
104103  1  0
105103  1  0
M  ISO  4   5 101   6 101  68 100  76 100
M  END
>  <TORSDO>  (88) 
F 27

>  <SCORE>  (88) 
-9.978

>  <name>  (88) 
87

>  <ligand_id>  (88) 
87

>  <original_smiles>  (88) 
[H]OC([H])(C([H])([H])[H])C1([H])C([H])([H])C([H])([H])C([H])([H])[N+]([H])([H])C1([H])N([H])C([H])([H])C([H])(N([H])C([H])([H])C([H])([H])Oc1c([H])c([H])c2c(c1[H])C([H])([H])N(C(=O)C([H])(N([H])C(=O)C([H])(N([H])C([H])([H])[H])C([H])([H])[H])C(C([H])([H])[H])(C([H])([H])[H])C([H])([H])[H])C([H])(C(=O)N([H])C1([H])c3c([H])c([H])c([H])c([H])c3C([H])([H])C([H])([H])C1([H])[H])C2([H])[H])C([H])(C([H])([H])N([H])C(=O)N1C([H])([H])C([H])([H])C([H])([H])C([H])(n2nc(-c3c([H])c([H])c(Oc4c([H])c([H])c(F)c([H])c4F)c([H])c3[H])c(C(=O)N([H])[H])c2N([H])[H])C1([H])[H])[N+]([H])([H])C([H])([H])[H]

>  <smiles>  (88) 
[H]OC([H])(C([H])([H])[H])C1([H])C([H])([H])C([H])([H])C([H])([H])[N+]([H])([H])C1([H])N([H])C([H])([H])C([H])(N([H])C([H])([H])C([H])([H])Oc1c([H])c([H])c2c(c1[H])C([H])([H])N(C(=O)C([H])(N([H])C(=O)C([H])(N([H])C([H])([H])[H])C([H])([H])[H])C(C([H])([H])[H])(C([H])([H])[H])C([H])([H])[H])C([H])(C(=O)N([H])C1([H])c3c([H])c([H])c([H])c([H])c3C([H])([H])C([H])([H])C1([H])[H])C2([H])[H])C([H])(C([H])([H])N([H])C(=O)N1C([H])([H])C([H])([H])C([H])([H])C([H])(n2nc(-c3c([H])c([H])c(Oc4c([H])c([H])c(F)c([H])c4F)c([H])c3[H])c(C(=O)N([H])[H])c2N([H])[H])C1([H])[H])[N+]([H])([H])C([H])([H])[H]

$$$$
88:0:0
     RDKit          3D

 98106  0  0  1  0  0  0  0  0999 V2000
  -29.4960  -18.5490   22.3550 C   0  0  0  0  0  2  0  0  0  0  0  0
  -31.5660  -17.0600   21.9840 C   0  0  0  0  0  2  0  0  0  0  0  0
  -30.0290  -17.1630   21.8810 C   0  0  0  0  0  3  0  0  0  0  0  0
  -30.3580  -19.8180   22.0530 C   0  0  0  0  0  3  0  0  0  0  0  0
  -31.8840  -19.5000   22.2090 C   0  0  0  0  0  3  0  0  0  0  0  0
  -32.2350  -18.2710   21.4620 N   0  0  0  0  0  4  0  0  0  0  0  0
  -32.0500  -18.3760   20.4760 H   0  0  0  0  0  0  0  0  0  0  0  0
  -33.2290  -18.1320   21.5610 H   0  0  0  0  0  0  0  0  0  0  0  0
  -32.8930  -21.7420   23.0120 C   0  0  0  0  0  1  0  0  0  0  0  0
  -34.3270  -20.1740   21.7130 C   0  0  0  0  0  1  0  0  0  0  0  0
  -32.8770  -20.6650   21.9050 C   0  0  0  0  0  3  0  0  0  0  0  0
  -29.4760  -16.6560   20.5210 C   0  0  0  0  0  2  0  0  0  0  0  0
  -29.9790  -14.3140   19.6950 C   0  0  0  0  0  0  0  0  0  0  0  0
  -29.6180  -12.2260   18.4330 C   0  0  0  0  0  2  0  0  0  0  0  0
  -28.4830  -12.4380   17.4060 C   0  0  0  0  0  2  0  0  0  0  0  0
  -27.1010  -12.1960   18.0470 C   0  0  0  0  0  2  0  0  0  0  0  0
  -26.9280  -12.9410   19.3970 C   0  0  0  0  0  3  0  0  0  0  0  0
  -28.1490  -12.6940   20.3120 C   0  0  0  0  0  2  0  0  0  0  0  0
  -29.3610  -13.1090   19.5790 N   0  0  0  0  0  0  0  0  0  0  0  0
  -30.9670  -14.6390   19.0300 O   0  0  0  0  0  0  0  0  0  0  0  0
  -29.3460  -15.1910   20.4920 N   0  0  0  0  0  0  0  0  0  0  0  0
  -28.5580  -14.8020   20.9910 H   0  0  0  0  0  0  0  0  0  0  0  0
  -24.6260  -13.3860   20.4680 C   0  0  0  0  0  0  0  0  0  0  0  0
  -23.6700  -12.5390   20.9620 C   0  0  0  0  0  0  0  0  0  0  0  0
  -24.1970  -11.2190   20.8160 C   0  0  0  0  0  0  0  0  0  0  0  0
  -25.6750  -12.5760   20.0570 N   0  0  0  0  0  0  0  0  0  0  0  0
  -25.4270  -11.2670   20.3200 N   0  0  0  0  0  0  0  0  0  0  0  0
  -23.5800   -9.9110   21.0640 C   0  0  0  0  0  0  0  0  0  0  0  0
  -24.1320   -8.9980   21.9900 C   0  0  0  0  0  3  0  0  0  0  0  0
  -23.5110   -7.7530   22.2240 C   0  0  0  0  0  3  0  0  0  0  0  0
  -22.3230   -7.4130   21.5340 C   0  0  0  0  0  0  0  0  0  0  0  0
  -21.7900   -8.3150   20.5970 C   0  0  0  0  0  3  0  0  0  0  0  0
  -22.4130   -9.5520   20.3610 C   0  0  0  0  0  3  0  0  0  0  0  0
  -21.6640   -6.2160   21.6800 O   0  0  0  0  0  0  0  0  0  0  0  0
  -21.6610   -5.5350   22.8720 C   0  0  0  0  0  0  0  0  0  0  0  0
  -21.1210   -6.0950   24.0490 C   0  0  0  0  0  3  0  0  0  0  0  0
  -21.0770   -5.3340   25.2350 C   0  0  0  0  0  3  0  0  0  0  0  0
  -21.5600   -4.0130   25.2430 C   0  0  0  0  0  0  0  0  0  0  0  0
  -22.0950   -3.4510   24.0690 C   0  0  0  0  0  3  0  0  0  0  0  0
  -22.1420   -4.2090   22.8860 C   0  0  0  0  0  0  0  0  0  0  0  0
  -22.6380   -3.6550   21.7530 F   0  0  0  0  0  0  0  0  0  0  0  0
  -21.5110   -3.2790   26.3790 F   0  0  0  0  0  0  0  0  0  0  0  0
  -22.3020  -12.9230   21.4510 C   0  0  0  0  0  0  0  0  0  0  0  0
  -21.7500  -12.1640   22.3910 N   0  0  0  0  0  0  0  0  0  0  0  0
  -21.7350  -13.9330   21.0350 O   0  0  0  0  0  0  0  0  0  0  0  0
  -22.2230  -11.3480   22.7500 H   0  0  0  0  0  0  0  0  0  0  0  0
  -20.8380  -12.4010   22.7530 H   0  0  0  0  0  0  0  0  0  0  0  0
  -24.6870  -14.7670   20.3160 N   0  0  0  0  0  0  0  0  0  0  0  0
  -23.9100  -15.3730   20.5610 H   0  0  0  0  0  0  0  0  0  0  0  0
  -25.4510  -15.2640   19.8760 H   0  0  0  0  0  0  0  0  0  0  0  0
  -29.8940  -20.5940   20.7720 C   0  0  0  0  0  2  0  0  0  0  0  0
  -29.9840  -22.0760   20.9200 N   0  0  0  0  0  4  0  0  0  0  0  0
  -30.9500  -22.3600   20.9360 H   0  0  0  0  0  0  0  0  0  0  0  0
  -29.5700  -22.3160   21.8050 H   0  0  0  0  0  0  0  0  0  0  0  0
  -29.2800  -22.8970   19.9000 C   0  0  0  0  0  2  0  0  0  0  0  0
  -29.2490  -24.3980   20.2920 C   0  0  0  0  0  2  0  0  0  0  0  0
  -28.2640  -25.2390   19.4580 C   0  0  0  0  0  2  0  0  0  0  0  0
  -28.2580  -26.5930   19.9320 O   0  0  0  0  0  0  0  0  0  0  0  0
  -24.6450  -31.7400   23.2370 C   0  0  0  0  0  0  0  0  0  0  0  0
  -27.0760  -27.3100   19.9620 C   0  0  0  0  0  0  0  0  0  0  0  0
  -23.3450  -30.4000   21.6120 C   0  0  0  0  0  3  0  0  0  0  0  0
  -24.7100  -28.8630   20.1040 C   0  0  0  0  0  0  0  0  0  0  0  0
  -25.8700  -30.7080   21.3280 C   0  0  0  0  0  2  0  0  0  0  0  0
  -25.9000  -29.3500   20.6590 C   0  0  0  0  0  0  0  0  0  0  0  0
  -27.0800  -28.5780   20.5900 C   0  0  0  0  0  3  0  0  0  0  0  0
  -25.8670  -26.8480   19.3880 C   0  0  0  0  0  3  0  0  0  0  0  0
  -24.6890  -27.6110   19.4720 C   0  0  0  0  0  3  0  0  0  0  0  0
  -23.4900  -29.7480   20.2130 C   0  0  0  0  0  2  0  0  0  0  0  0
  -24.6400  -30.9630   22.1170 N   0  0  0  0  0  0  0  0  0  0  0  0
  -23.5920  -32.0250   23.8240 O   0  0  0  0  0  0  0  0  0  0  0  0
  -22.7130  -29.3710   22.5790 C   0  0  0  0  0  0  0  0  0  0  0  0
  -21.3940  -29.1580   22.4470 N   0  0  0  0  0  0  0  0  0  0  0  0
  -23.4070  -28.7680   23.4020 O   0  0  0  0  0  0  0  0  0  0  0  0
  -20.8950  -29.7000   21.7530 H   0  0  0  0  0  0  0  0  0  0  0  0
  -18.0600  -27.8400   22.8800 C   0  0  0  0  0  0  0  0  0  0  0  0
  -20.5940  -28.2080   23.2200 C   0  0  0  0  0  3  0  0  0  0  0  0
  -20.7720  -26.7660   22.6920 C   0  0  0  0  0  2  0  0  0  0  0  0
  -19.7170  -26.3710   21.6560 C   0  0  0  0  0  2  0  0  0  0  0  0
  -18.3100  -26.4800   22.2530 C   0  0  0  0  0  2  0  0  0  0  0  0
  -19.1330  -28.6580   23.3230 C   0  0  0  0  0  0  0  0  0  0  0  0
  -18.8480  -29.9270   23.8690 C   0  0  0  0  0  3  0  0  0  0  0  0
  -17.5210  -30.3800   23.9810 C   0  0  0  0  0  3  0  0  0  0  0  0
  -16.4590  -29.5610   23.5570 C   0  0  0  0  0  3  0  0  0  0  0  0
  -16.7300  -28.2940   23.0100 C   0  0  0  0  0  3  0  0  0  0  0  0
  -25.9690  -32.3330   23.8150 C   0  0  0  0  0  3  0  0  0  0  0  0
  -25.7130  -33.7390   24.1580 N   0  0  0  0  0  0  0  0  0  0  0  0
  -26.0300  -34.7810   23.3790 C   0  0  0  0  0  0  0  0  0  0  0  0
  -26.6430  -34.6590   22.3140 O   0  0  0  0  0  0  0  0  0  0  0  0
  -25.1700  -33.9110   24.9910 H   0  0  0  0  0  0  0  0  0  0  0  0
  -24.3200  -36.6030   23.1220 C   0  0  0  0  0  1  0  0  0  0  0  0
  -25.6000  -36.1810   23.8590 C   0  0  0  0  0  3  0  0  0  0  0  0
  -27.7920  -37.0350   24.5580 C   0  0  0  0  0  1  0  0  0  0  0  0
  -26.6440  -37.2120   23.6750 N   0  0  0  0  0  0  0  0  0  0  0  0
  -26.2650  -38.1420   23.8310 H   0  0  0  0  0  0  0  0  0  0  0  0
  -26.5070  -31.5440   25.0700 C   0  0  1  0  0  0  0  0  0  0  0  0
  -25.4400  -31.3130   26.1650 C   0  0  0  0  0  1  0  0  0  0  0  0
  -27.0610  -30.1620   24.6450 C   0  0  0  0  0  1  0  0  0  0  0  0
  -27.6860  -32.3140   25.7070 C   0  0  0  0  0  1  0  0  0  0  0  0
  3 12  1  0
  3  2  1  0
  3  1  1  0
  4 51  1  0
  4  5  1  0
  4  1  1  0
  5 11  1  0
  6  8  1  0
  6  2  1  0
  6  5  1  0
  7  6  1  0
 10 11  1  0
 11  9  1  0
 13 21  1  0
 14 19  1  0
 15 16  1  0
 15 14  1  0
 17 16  1  0
 17 26  1  0
 17 18  1  0
 19 13  1  0
 19 18  1  0
 20 13  2  0
 21 12  1  0
 21 22  1  0
 23 24  2  0
 24 43  1  0
 25 24  1  0
 25 28  1  0
 26 27  1  0
 26 23  1  0
 27 25  2  0
 28 29  1  0
 29 30  2  0
 31 34  1  0
 31 30  1  0
 32 31  2  0
 33 32  1  0
 33 28  2  0
 34 35  1  0
 35 40  2  0
 35 36  1  0
 36 37  2  0
 37 38  1  0
 38 42  1  0
 39 38  2  0
 40 39  1  0
 41 40  1  0
 43 44  1  0
 44 46  1  0
 44 47  1  0
 45 43  2  0
 48 23  1  0
 48 49  1  0
 50 48  1  0
 51 52  1  0
 52 53  1  0
 52 54  1  0
 55 56  1  0
 55 52  1  0
 57 58  1  0
 57 56  1  0
 58 60  1  0
 59 70  2  0
 60 65  1  0
 61 69  1  0
 61 71  1  0
 62 68  1  0
 62 64  1  0
 63 69  1  0
 64 63  1  0
 65 64  2  0
 66 67  1  0
 66 60  2  0
 67 62  2  0
 68 61  1  0
 69 59  1  0
 71 73  2  0
 72 71  1  0
 74 72  1  0
 75 84  2  0
 75 80  1  0
 76 72  1  0
 76 80  1  0
 77 76  1  0
 78 79  1  0
 78 77  1  0
 79 75  1  0
 80 81  2  0
 81 82  1  0
 83 82  2  0
 84 83  1  0
 85 59  1  0
 85 86  1  0
 85 95  1  0
 86 89  1  0
 87 91  1  0
 87 86  1  0
 88 87  2  0
 91 90  1  0
 93 94  1  0
 93 91  1  0
 93 92  1  0
 95 98  1  1
 95 96  1  0
 97 95  1  0
M  ISO  4  13 100  21 100  57 101  58 101
M  END
>  <TORSDO>  (89) 
F 23

>  <SCORE>  (89) 
-8.471

>  <name>  (89) 
88

>  <ligand_id>  (89) 
88

>  <original_smiles>  (89) 
[H]c1c([H])c([H])c2c(c1[H])C([H])([H])C([H])([H])C([H])([H])C2([H])N([H])C(=O)C1([H])N(C(=O)C([H])(N([H])C(=O)C([H])(N([H])C([H])([H])[H])C([H])([H])[H])C(C([H])([H])[H])(C([H])([H])[H])C([H])([H])[H])C([H])([H])c2c([H])c(OC([H])([H])C([H])([H])C([H])([H])[N+]([H])([H])C([H])([H])C3([H])C([H])([H])C([H])(C([H])([H])N([H])C(=O)N4C([H])([H])C([H])([H])C([H])([H])C([H])(n5nc(-c6c([H])c([H])c(Oc7c([H])c([H])c(F)c([H])c7F)c([H])c6[H])c(C(=O)N([H])[H])c5N([H])[H])C4([H])[H])C([H])([H])[N+]([H])([H])C3([H])C([H])(C([H])([H])[H])C([H])([H])[H])c([H])c([H])c2C1([H])[H]

>  <smiles>  (89) 
[H]c1c([H])c([H])c2c(c1[H])C([H])([H])C([H])([H])C([H])([H])C2([H])N([H])C(=O)C1([H])N(C(=O)C([H])(N([H])C(=O)C([H])(N([H])C([H])([H])[H])C([H])([H])[H])C(C([H])([H])[H])(C([H])([H])[H])C([H])([H])[H])C([H])([H])c2c([H])c(OC([H])([H])C([H])([H])C([H])([H])[N+]([H])([H])C([H])([H])C3([H])C([H])([H])C([H])(C([H])([H])N([H])C(=O)N4C([H])([H])C([H])([H])C([H])([H])C([H])(n5nc(-c6c([H])c([H])c(Oc7c([H])c([H])c(F)c([H])c7F)c([H])c6[H])c(C(=O)N([H])[H])c5N([H])[H])C4([H])[H])C([H])([H])[N+]([H])([H])C3([H])C([H])(C([H])([H])[H])C([H])([H])[H])c([H])c([H])c2C1([H])[H]

$$$$
89:0:0
     RDKit          3D

100110  0  0  1  0  0  0  0  0999 V2000
  -30.6710  -24.1480   21.5620 C   0  0  0  0  0  3  0  0  0  0  0  0
  -29.6680  -24.9830   21.0510 C   0  0  0  0  0  3  0  0  0  0  0  0
  -31.2280  -23.1200   20.7760 C   0  0  0  0  0  0  0  0  0  0  0  0
  -29.2090  -24.8390   19.7260 C   0  0  0  0  0  0  0  0  0  0  0  0
  -30.7910  -22.9690   19.4240 C   0  0  0  0  0  0  0  0  0  0  0  0
  -29.8030  -23.8510   18.8950 C   0  0  0  0  0  0  0  0  0  0  0  0
  -31.3290  -21.8690   18.5050 C   0  0  0  0  0  1  0  0  0  0  0  0
  -29.3720  -23.6870   17.4370 C   0  0  0  0  0  1  0  0  0  0  0  0
  -32.2330  -22.1990   21.4730 C   0  0  0  0  0  2  0  0  0  0  0  0
  -31.6120  -21.6360   22.6880 N   0  0  0  0  0  4  0  0  0  0  0  0
  -30.6170  -21.6880   22.5710 H   0  0  0  0  0  0  0  0  0  0  0  0
  -31.8740  -22.2150   23.4650 H   0  0  0  0  0  0  0  0  0  0  0  0
  -31.9530  -20.2420   23.0320 C   0  0  0  0  0  2  0  0  0  0  0  0
  -30.8790  -13.9550   19.8150 C   0  0  0  0  0  0  0  0  0  0  0  0
  -30.3840  -11.7940   18.7440 C   0  0  0  0  0  2  0  0  0  0  0  0
  -29.3330  -11.9520   17.6290 C   0  0  0  0  0  2  0  0  0  0  0  0
  -27.9050  -11.8750   18.2010 C   0  0  0  0  0  2  0  0  0  0  0  0
  -27.7000  -12.7880   19.4360 C   0  0  0  0  0  3  0  0  0  0  0  0
  -28.8460  -12.5960   20.4560 C   0  0  0  0  0  2  0  0  0  0  0  0
  -30.1280  -12.8230   19.7620 N   0  0  0  0  0  0  0  0  0  0  0  0
  -31.8940  -14.1310   19.1340 O   0  0  0  0  0  0  0  0  0  0  0  0
  -29.5300  -18.5040   20.5790 C   0  0  0  0  0  3  0  0  0  0  0  0
  -30.1680  -19.5220   21.3140 C   0  0  0  0  0  3  0  0  0  0  0  0
  -30.0200  -17.2050   20.7640 C   0  0  0  0  0  0  0  0  0  0  0  0
  -31.0830  -16.9720   21.6020 C   0  0  0  0  0  0  0  0  0  0  0  0
  -31.2620  -19.1960   22.1600 C   0  0  0  0  0  0  0  0  0  0  0  0
  -29.5460  -15.9200   20.1490 C   0  0  0  0  0  3  0  0  0  0  0  0
  -31.4210  -15.5090   21.6250 C   0  0  0  0  0  3  0  0  0  0  0  0
  -31.7200  -17.9250   22.3060 N   0  0  0  0  0  0  0  0  0  0  0  0
  -30.4590  -14.8880   20.6830 N   0  0  0  0  0  0  0  0  0  0  0  0
  -25.4130  -13.4860   20.3900 C   0  0  0  0  0  0  0  0  0  0  0  0
  -24.3510  -12.7530   20.8510 C   0  0  0  0  0  0  0  0  0  0  0  0
  -24.7440  -11.3840   20.7470 C   0  0  0  0  0  0  0  0  0  0  0  0
  -26.3890  -12.5640   20.0430 N   0  0  0  0  0  0  0  0  0  0  0  0
  -25.9930  -11.2950   20.3110 N   0  0  0  0  0  0  0  0  0  0  0  0
  -23.9810  -10.1510   20.9840 C   0  0  0  0  0  0  0  0  0  0  0  0
  -24.3910   -9.2020   21.9460 C   0  0  0  0  0  3  0  0  0  0  0  0
  -23.6320   -8.0320   22.1640 C   0  0  0  0  0  3  0  0  0  0  0  0
  -22.4490   -7.8030   21.4210 C   0  0  0  0  0  0  0  0  0  0  0  0
  -22.0600   -8.7400   20.4480 C   0  0  0  0  0  3  0  0  0  0  0  0
  -22.8180   -9.9020   20.2280 C   0  0  0  0  0  3  0  0  0  0  0  0
  -21.6620   -6.6850   21.5510 O   0  0  0  0  0  0  0  0  0  0  0  0
  -21.5390   -6.0260   22.7490 C   0  0  0  0  0  0  0  0  0  0  0  0
  -21.0240   -6.6600   23.9000 C   0  0  0  0  0  3  0  0  0  0  0  0
  -20.8500   -5.9260   25.0890 C   0  0  0  0  0  3  0  0  0  0  0  0
  -21.1810   -4.5570   25.1290 C   0  0  0  0  0  0  0  0  0  0  0  0
  -21.6860   -3.9220   23.9810 C   0  0  0  0  0  3  0  0  0  0  0  0
  -21.8630   -4.6550   22.7950 C   0  0  0  0  0  0  0  0  0  0  0  0
  -22.3310   -4.0330   21.6860 F   0  0  0  0  0  0  0  0  0  0  0  0
  -21.0060   -3.8500   26.2700 F   0  0  0  0  0  0  0  0  0  0  0  0
  -23.0130  -13.2850   21.2730 C   0  0  0  0  0  0  0  0  0  0  0  0
  -22.3490  -12.6070   22.2040 N   0  0  0  0  0  0  0  0  0  0  0  0
  -22.5690  -14.3350   20.8120 O   0  0  0  0  0  0  0  0  0  0  0  0
  -22.7200  -11.7550   22.5950 H   0  0  0  0  0  0  0  0  0  0  0  0
  -21.4570  -12.9500   22.5320 H   0  0  0  0  0  0  0  0  0  0  0  0
  -25.6240  -14.8510   20.2210 N   0  0  0  0  0  0  0  0  0  0  0  0
  -24.8970  -15.5360   20.3980 H   0  0  0  0  0  0  0  0  0  0  0  0
  -26.4400  -15.2510   19.7750 H   0  0  0  0  0  0  0  0  0  0  0  0
  -28.0130  -25.6830   19.2800 C   0  0  0  0  0  2  0  0  0  0  0  0
  -27.9090  -26.8860   20.0360 O   0  0  0  0  0  0  0  0  0  0  0  0
  -24.4500  -32.0610   23.4700 C   0  0  0  0  0  0  0  0  0  0  0  0
  -26.7370  -27.6050   20.0950 C   0  0  0  0  0  0  0  0  0  0  0  0
  -23.1410  -30.7780   21.8390 C   0  0  0  0  0  3  0  0  0  0  0  0
  -24.4310  -29.2170   20.3060 C   0  0  0  0  0  0  0  0  0  0  0  0
  -25.6610  -31.0390   21.5260 C   0  0  0  0  0  2  0  0  0  0  0  0
  -25.6420  -29.6690   20.8520 C   0  0  0  0  0  0  0  0  0  0  0  0
  -26.7910  -28.8560   20.7540 C   0  0  0  0  0  3  0  0  0  0  0  0
  -25.5040  -27.1680   19.5540 C   0  0  0  0  0  3  0  0  0  0  0  0
  -24.3530  -27.9680   19.6640 C   0  0  0  0  0  3  0  0  0  0  0  0
  -23.2390  -30.1320   20.4360 C   0  0  0  0  0  2  0  0  0  0  0  0
  -24.4550  -31.3040   22.3370 N   0  0  0  0  0  0  0  0  0  0  0  0
  -23.3690  -32.3640   23.9990 O   0  0  0  0  0  0  0  0  0  0  0  0
  -22.4960  -29.7640   22.8120 C   0  0  0  0  0  0  0  0  0  0  0  0
  -21.1840  -29.5380   22.6510 N   0  0  0  0  0  0  0  0  0  0  0  0
  -23.1730  -29.1900   23.6700 O   0  0  0  0  0  0  0  0  0  0  0  0
  -20.6970  -30.0570   21.9320 H   0  0  0  0  0  0  0  0  0  0  0  0
  -17.8840  -28.1190   22.9390 C   0  0  0  0  0  0  0  0  0  0  0  0
  -20.3730  -28.6090   23.4300 C   0  0  0  0  0  3  0  0  0  0  0  0
  -20.6420  -27.1490   23.0010 C   0  0  0  0  0  2  0  0  0  0  0  0
  -19.6770  -26.6520   21.9200 C   0  0  0  0  0  2  0  0  0  0  0  0
  -18.2290  -26.7370   22.4120 C   0  0  0  0  0  2  0  0  0  0  0  0
  -18.8920  -29.0030   23.4050 C   0  0  0  0  0  0  0  0  0  0  0  0
  -18.5210  -30.2890   23.8530 C   0  0  0  0  0  3  0  0  0  0  0  0
  -17.1730  -30.6930   23.8460 C   0  0  0  0  0  3  0  0  0  0  0  0
  -16.1770  -29.8060   23.4010 C   0  0  0  0  0  3  0  0  0  0  0  0
  -16.5320  -28.5220   22.9510 C   0  0  0  0  0  3  0  0  0  0  0  0
  -25.7420  -32.6010   24.1590 C   0  0  0  0  0  0  0  0  0  0  0  0
  -26.4350  -31.7250   25.2840 C   0  0  1  0  0  0  0  0  0  0  0  0
  -25.4710  -31.4110   26.4720 C   0  0  0  0  0  1  0  0  0  0  0  0
  -26.9340  -30.3630   24.7590 C   0  0  0  0  0  1  0  0  0  0  0  0
  -27.6620  -32.4690   25.8620 C   0  0  0  0  0  1  0  0  0  0  0  0
  -25.7720  -34.0460   24.3280 N   0  0  0  0  0  4  0  0  0  0  0  0
  -26.1580  -35.0060   23.4980 C   0  0  0  0  0  0  0  0  0  0  0  0
  -26.7200  -34.7950   22.4240 O   0  0  0  0  0  0  0  0  0  0  0  0
  -25.3130  -34.3720   25.1660 H   0  0  0  0  0  0  0  0  0  0  0  0
  -24.5260  -36.9220   23.2810 C   0  0  0  0  0  1  0  0  0  0  0  0
  -25.8160  -36.4370   23.9640 C   0  0  0  0  0  3  0  0  0  0  0  0
  -28.0510  -37.1850   24.6190 C   0  0  0  0  0  1  0  0  0  0  0  0
  -26.9040  -37.4080   23.7440 N   0  0  0  0  0  0  0  0  0  0  0  0
  -26.5730  -38.3590   23.8880 H   0  0  0  0  0  0  0  0  0  0  0  0
  2  1  1  0
  3  9  1  0
  3  1  2  0
  4  2  2  0
  5  3  1  0
  6  5  2  0
  6  4  1  0
  7  5  1  0
  8  6  1  0
  9 10  1  0
 10 13  1  0
 10 12  1  0
 11 10  1  0
 14 30  1  0
 15 20  1  0
 16 17  1  0
 16 15  1  0
 18 17  1  0
 18 34  1  0
 18 19  1  0
 20 14  1  0
 20 19  1  0
 21 14  2  0
 22 24  1  0
 22 23  2  0
 23 26  1  0
 24 25  1  0
 25 28  2  0
 25 29  1  0
 26 29  2  0
 26 13  1  0
 27 30  1  0
 27 24  2  0
 30 28  1  0
 31 32  2  0
 32 51  1  0
 33 32  1  0
 33 36  1  0
 34 35  1  0
 34 31  1  0
 35 33  2  0
 36 37  1  0
 37 38  2  0
 39 42  1  0
 39 38  1  0
 40 39  2  0
 41 40  1  0
 41 36  2  0
 42 43  1  0
 43 48  2  0
 43 44  1  0
 44 45  2  0
 45 46  1  0
 46 50  1  0
 47 46  2  0
 48 47  1  0
 49 48  1  0
 51 52  1  0
 52 55  1  0
 52 54  1  0
 53 51  2  0
 56 31  1  0
 56 57  1  0
 58 56  1  0
 59  4  1  0
 59 60  1  0
 60 62  1  0
 61 72  2  0
 61 87  1  0
 62 67  1  0
 63 71  1  0
 63 73  1  0
 64 70  1  0
 64 66  1  0
 65 71  1  0
 66 65  1  0
 67 66  2  0
 68 69  1  0
 68 62  2  0
 69 64  2  0
 70 63  1  0
 71 61  1  0
 73 75  2  0
 74 73  1  0
 76 74  1  0
 77 86  2  0
 77 82  1  0
 78 74  1  0
 79 78  1  0
 80 81  1  0
 80 79  1  0
 81 77  1  0
 82 78  1  0
 82 83  2  0
 84 83  1  0
 85 84  2  0
 86 85  1  0
 87 92  2  3
 87 88  1  0
 88 91  1  1
 88 89  1  0
 90 88  1  0
 92 95  1  0
 93 97  1  0
 93 92  1  0
 94 93  2  0
 97 96  1  0
 99100  1  0
 99 97  1  0
 99 98  1  0
M  ISO  4  14 100  30 100  59 101  60 101
M  END
>  <TORSDO>  (90) 
F 20

>  <SCORE>  (90) 
-12.442

>  <name>  (90) 
89

>  <ligand_id>  (90) 
89

>  <original_smiles>  (90) 
[H]c1c(C([H])([H])[N+]([H])([H])C([H])([H])c2c([H])c([H])c(C([H])([H])Oc3c([H])c([H])c4c(c3[H])C([H])([H])N(C(=O)C([H])(N([H])C(=O)C([H])(N([H])C([H])([H])[H])C([H])([H])[H])C(C([H])([H])[H])(C([H])([H])[H])C([H])([H])[H])C([H])(C(=O)N([H])C3([H])c5c([H])c([H])c([H])c([H])c5C([H])([H])C([H])([H])C3([H])[H])C4([H])[H])c(C([H])([H])[H])c2C([H])([H])[H])nc2c(c1[H])C([H])([H])N(C(=O)N1C([H])([H])C([H])([H])C([H])([H])C([H])(n3nc(-c4c([H])c([H])c(Oc5c([H])c([H])c(F)c([H])c5F)c([H])c4[H])c(C(=O)N([H])[H])c3N([H])[H])C1([H])[H])C2([H])[H]

>  <smiles>  (90) 
[H]c1c(C([H])([H])[N+]([H])([H])C([H])([H])c2c([H])c([H])c(C([H])([H])Oc3c([H])c([H])c4c(c3[H])C([H])([H])N(C(=O)C([H])(N([H])C(=O)C([H])(N([H])C([H])([H])[H])C([H])([H])[H])C(C([H])([H])[H])(C([H])([H])[H])C([H])([H])[H])C([H])(C(=O)N([H])C3([H])c5c([H])c([H])c([H])c([H])c5C([H])([H])C([H])([H])C3([H])[H])C4([H])[H])c(C([H])([H])[H])c2C([H])([H])[H])nc2c(c1[H])C([H])([H])N(C(=O)N1C([H])([H])C([H])([H])C([H])([H])C([H])(n3nc(-c4c([H])c([H])c(Oc5c([H])c([H])c(F)c([H])c5F)c([H])c4[H])c(C(=O)N([H])[H])c3N([H])[H])C1([H])[H])C2([H])[H]

$$$$
90:0:0
     RDKit          3D

 98108  0  0  1  0  0  0  0  0999 V2000
  -26.9040  -22.3280   20.3930 C   0  0  0  0  0  3  0  0  0  0  0  0
  -27.4690  -24.6640   20.5880 C   0  0  0  0  0  3  0  0  0  0  0  0
  -26.5840  -23.6080   20.8820 C   0  0  0  0  0  0  0  0  0  0  0  0
  -28.0730  -22.1610   19.6270 C   0  0  0  0  0  0  0  0  0  0  0  0
  -28.6110  -24.4110   19.8110 C   0  0  0  0  0  0  0  0  0  0  0  0
  -28.9130  -23.1830   19.3440 N   0  0  0  0  0  0  0  0  0  0  0  0
  -25.3720  -24.4480   23.0490 C   0  0  0  0  0  3  0  0  0  0  0  0
  -24.9800  -23.0010   22.8680 C   0  0  0  0  0  2  0  0  0  0  0  0
  -25.3300  -23.8470   21.6650 C   0  0  0  0  0  3  0  0  0  0  0  0
  -29.4790  -25.4560   19.4900 N   0  0  0  0  0  0  0  0  0  0  0  0
  -29.5620  -26.1470   20.2250 H   0  0  0  0  0  0  0  0  0  0  0  0
  -29.2680  -26.0560   18.1750 C   0  0  0  0  0  2  0  0  0  0  0  0
  -29.7720  -27.5110   18.1130 C   0  0  0  0  0  2  0  0  0  0  0  0
  -28.7920  -28.3590   17.5150 O   0  0  0  0  0  0  0  0  0  0  0  0
  -25.5420  -28.1060   23.8430 C   0  0  0  0  0  0  0  0  0  0  0  0
  -27.6220  -28.4510   18.2250 C   0  0  0  0  0  0  0  0  0  0  0  0
  -24.0600  -28.1040   21.8580 C   0  0  0  0  0  3  0  0  0  0  0  0
  -25.1900  -28.6400   19.6350 C   0  0  0  0  0  0  0  0  0  0  0  0
  -26.3610  -29.2130   21.7690 C   0  0  0  0  0  2  0  0  0  0  0  0
  -26.4020  -28.8680   20.2980 C   0  0  0  0  0  0  0  0  0  0  0  0
  -27.6230  -28.7740   19.5980 C   0  0  0  0  0  3  0  0  0  0  0  0
  -26.3990  -28.2350   17.5620 C   0  0  0  0  0  3  0  0  0  0  0  0
  -25.1810  -28.3180   18.2640 C   0  0  0  0  0  3  0  0  0  0  0  0
  -23.9270  -28.7620   20.4590 C   0  0  0  0  0  2  0  0  0  0  0  0
  -25.3520  -28.4460   22.5350 N   0  0  0  0  0  0  0  0  0  0  0  0
  -24.6440  -27.5570   24.4960 O   0  0  0  0  0  0  0  0  0  0  0  0
  -23.8310  -26.5820   21.7100 C   0  0  0  0  0  3  0  0  0  0  0  0
  -22.6390  -26.2030   21.2200 N   0  0  0  0  0  0  0  0  0  0  0  0
  -24.7190  -25.7780   22.0040 O   0  0  0  0  0  0  0  0  0  0  0  0
  -21.9640  -26.9250   21.0100 H   0  0  0  0  0  0  0  0  0  0  0  0
  -20.1150  -24.1990   19.5910 C   0  0  0  0  0  0  0  0  0  0  0  0
  -22.2150  -24.8290   20.9580 C   0  0  0  0  0  3  0  0  0  0  0  0
  -23.0310  -24.2050   19.8010 C   0  0  0  0  0  2  0  0  0  0  0  0
  -22.3590  -24.3690   18.4340 C   0  0  0  0  0  2  0  0  0  0  0  0
  -20.9740  -23.7160   18.4350 C   0  0  0  0  0  2  0  0  0  0  0  0
  -20.6980  -24.7360   20.7700 C   0  0  0  0  0  0  0  0  0  0  0  0
  -19.8530  -25.2040   21.7990 C   0  0  0  0  0  3  0  0  0  0  0  0
  -18.4530  -25.1380   21.6690 C   0  0  0  0  0  3  0  0  0  0  0  0
  -17.8820  -24.5900   20.5070 C   0  0  0  0  0  3  0  0  0  0  0  0
  -18.7120  -24.1190   19.4750 C   0  0  0  0  0  3  0  0  0  0  0  0
  -26.8800  -28.4130   24.5830 C   0  0  0  0  0  3  0  0  0  0  0  0
  -26.5400  -28.9140   25.9210 N   0  0  0  0  0  0  0  0  0  0  0  0
  -26.7250  -30.1760   26.3280 C   0  0  0  0  0  0  0  0  0  0  0  0
  -27.2720  -31.0340   25.6280 O   0  0  0  0  0  0  0  0  0  0  0  0
  -26.0380  -28.2820   26.5270 H   0  0  0  0  0  0  0  0  0  0  0  0
  -24.9260  -31.3710   27.6180 C   0  0  0  0  0  1  0  0  0  0  0  0
  -26.2190  -30.5480   27.7350 C   0  0  0  0  0  3  0  0  0  0  0  0
  -28.3590  -30.4820   28.9380 C   0  0  0  0  0  1  0  0  0  0  0  0
  -27.2130  -31.2940   28.5390 N   0  0  0  0  0  0  0  0  0  0  0  0
  -26.7850  -31.6750   29.3780 H   0  0  0  0  0  0  0  0  0  0  0  0
  -27.8380  -27.1630   24.6810 C   0  0  1  0  0  0  0  0  0  0  0  0
  -27.1390  -25.8820   25.1910 C   0  0  0  0  0  1  0  0  0  0  0  0
  -28.4620  -26.8440   23.3020 C   0  0  0  0  0  1  0  0  0  0  0  0
  -29.0150  -27.4780   25.6350 C   0  0  0  0  0  1  0  0  0  0  0  0
  -28.4360  -20.7960   19.0710 C   0  0  0  0  0  2  0  0  0  0  0  0
  -29.3930  -20.0990   19.9510 N   0  0  0  0  0  4  0  0  0  0  0  0
  -28.9440  -19.9580   20.8390 H   0  0  0  0  0  0  0  0  0  0  0  0
  -30.1710  -20.7220   20.0900 H   0  0  0  0  0  0  0  0  0  0  0  0
  -29.8510  -18.8090   19.3920 C   0  0  0  0  0  2  0  0  0  0  0  0
  -30.6890  -17.9450   20.3610 C   0  0  0  0  0  2  0  0  0  0  0  0
  -31.9900  -15.8370   20.0980 C   0  0  0  0  0  0  0  0  0  0  0  0
  -31.9470  -13.4200   19.6900 C   0  0  0  0  0  2  0  0  0  0  0  0
  -31.1280  -13.1740   18.4050 C   0  0  0  0  0  2  0  0  0  0  0  0
  -29.6250  -13.0520   18.7300 C   0  0  0  0  0  2  0  0  0  0  0  0
  -29.1060  -14.2010   19.6360 C   0  0  0  0  0  3  0  0  0  0  0  0
  -30.0510  -14.4270   20.8390 C   0  0  0  0  0  2  0  0  0  0  0  0
  -31.4080  -14.6320   20.3150 N   0  0  0  0  0  0  0  0  0  0  0  0
  -33.1790  -15.9860   19.8190 O   0  0  0  0  0  0  0  0  0  0  0  0
  -31.1290  -16.7530   19.6430 N   0  0  0  0  0  0  0  0  0  0  0  0
  -31.3820  -16.9940   18.6960 H   0  0  0  0  0  0  0  0  0  0  0  0
  -26.6930  -14.8810   20.2240 C   0  0  0  0  0  0  0  0  0  0  0  0
  -25.5930  -14.1410   20.5630 C   0  0  0  0  0  0  0  0  0  0  0  0
  -26.0240  -12.7800   20.5820 C   0  0  0  0  0  0  0  0  0  0  0  0
  -27.7270  -13.9710   20.0610 N   0  0  0  0  0  0  0  0  0  0  0  0
  -27.3250  -12.7030   20.3340 N   0  0  0  0  0  0  0  0  0  0  0  0
  -25.2630  -11.5370   20.7650 C   0  0  0  0  0  0  0  0  0  0  0  0
  -25.5400  -10.6510   21.8290 C   0  0  0  0  0  3  0  0  0  0  0  0
  -24.7830   -9.4720   21.9940 C   0  0  0  0  0  3  0  0  0  0  0  0
  -23.7350   -9.1690   21.0920 C   0  0  0  0  0  0  0  0  0  0  0  0
  -23.4780  -10.0440   20.0200 C   0  0  0  0  0  3  0  0  0  0  0  0
  -24.2360  -11.2150   19.8540 C   0  0  0  0  0  3  0  0  0  0  0  0
  -22.9620   -8.0350   21.1600 O   0  0  0  0  0  0  0  0  0  0  0  0
  -22.4760   -7.5670   22.3540 C   0  0  0  0  0  0  0  0  0  0  0  0
  -21.5960   -8.3310   23.1520 C   0  0  0  0  0  3  0  0  0  0  0  0
  -21.0660   -7.7830   24.3370 C   0  0  0  0  0  3  0  0  0  0  0  0
  -21.4060   -6.4710   24.7210 C   0  0  0  0  0  0  0  0  0  0  0  0
  -22.2780   -5.7090   23.9250 C   0  0  0  0  0  3  0  0  0  0  0  0
  -22.8090   -6.2540   22.7440 C   0  0  0  0  0  0  0  0  0  0  0  0
  -23.6310   -5.5070   21.9680 F   0  0  0  0  0  0  0  0  0  0  0  0
  -20.8920   -5.9410   25.8550 F   0  0  0  0  0  0  0  0  0  0  0  0
  -24.1950  -14.6530   20.7580 C   0  0  0  0  0  0  0  0  0  0  0  0
  -23.4190  -14.0050   21.6190 N   0  0  0  0  0  0  0  0  0  0  0  0
  -23.7990  -15.6660   20.1830 O   0  0  0  0  0  0  0  0  0  0  0  0
  -23.7480  -13.1860   22.1100 H   0  0  0  0  0  0  0  0  0  0  0  0
  -22.4780  -14.3330   21.7910 H   0  0  0  0  0  0  0  0  0  0  0  0
  -26.8960  -16.2420   20.0170 N   0  0  0  0  0  0  0  0  0  0  0  0
  -26.1240  -16.9000   20.0240 H   0  0  0  0  0  0  0  0  0  0  0  0
  -27.7450  -16.6220   19.6210 H   0  0  0  0  0  0  0  0  0  0  0  0
  1  3  1  0
  2  3  2  0
  3  9  1  0
  4  1  2  0
  5  2  1  0
  6  4  1  0
  6  5  2  0
  7  8  1  0
  9  8  1  0
  9  7  1  0
 10  5  1  0
 10 11  1  0
 12 10  1  0
 13 12  1  0
 14 13  1  0
 14 16  1  0
 15 26  2  0
 16 21  1  0
 17 24  1  0
 17 25  1  0
 18 20  1  0
 18 24  1  0
 19 25  1  0
 20 19  1  0
 21 20  2  0
 22 16  2  0
 22 23  1  0
 23 18  2  0
 25 15  1  0
 27 28  1  0
 27 17  1  0
 27 29  1  0
 29  7  1  0
 30 28  1  0
 31 36  1  0
 32 28  1  0
 33 32  1  0
 34 35  1  0
 34 33  1  0
 35 31  1  0
 36 32  1  0
 36 37  2  0
 38 37  1  0
 39 38  2  0
 40 31  2  0
 40 39  1  0
 41 15  1  0
 41 51  1  0
 41 42  1  0
 42 43  1  0
 42 45  1  0
 43 47  1  0
 44 43  2  0
 47 46  1  0
 47 49  1  0
 49 48  1  0
 49 50  1  0
 51 52  1  1
 51 54  1  0
 53 51  1  0
 55  4  1  0
 55 56  1  0
 56 58  1  0
 56 57  1  0
 59 56  1  0
 59 60  1  0
 61 67  1  0
 62 67  1  0
 63 64  1  0
 63 62  1  0
 65 64  1  0
 65 74  1  0
 65 66  1  0
 67 66  1  0
 68 61  2  0
 69 61  1  0
 69 60  1  0
 70 69  1  0
 71 72  2  0
 72 73  1  0
 72 91  1  0
 73 76  1  0
 74 71  1  0
 74 75  1  0
 75 73  2  0
 76 77  1  0
 77 78  2  0
 79 82  1  0
 79 78  1  0
 80 79  2  0
 81 80  1  0
 81 76  2  0
 82 83  1  0
 83 88  2  0
 83 84  1  0
 84 85  2  0
 85 86  1  0
 86 90  1  0
 87 86  2  0
 88 87  1  0
 89 88  1  0
 91 92  1  0
 92 95  1  0
 92 94  1  0
 93 91  2  0
 96 97  1  0
 96 71  1  0
 98 96  1  0
M  ISO  4  13 101  14 101  61 100  69 100
M  END
>  <TORSDO>  (91) 
F 24

>  <SCORE>  (91) 
-3.514

>  <name>  (91) 
90

>  <ligand_id>  (91) 
90

>  <original_smiles>  (91) 
[H]c1c([H])c([H])c2c(c1[H])C([H])([H])C([H])([H])C([H])([H])C2([H])N([H])C(=O)C1([H])N(C(=O)C([H])(N([H])C(=O)C([H])(N([H])C([H])([H])[H])C([H])([H])[H])C(C([H])([H])[H])(C([H])([H])[H])C([H])([H])[H])C([H])([H])c2c([H])c(OC([H])([H])C([H])([H])N([H])c3nc(C([H])([H])[N+]([H])([H])C([H])([H])C([H])([H])N([H])C(=O)N4C([H])([H])C([H])([H])C([H])([H])C([H])(n5nc(-c6c([H])c([H])c(Oc7c([H])c([H])c(F)c([H])c7F)c([H])c6[H])c(C(=O)N([H])[H])c5N([H])[H])C4([H])[H])c([H])c(C4([H])C([H])([H])C4([H])[H])c3[H])c([H])c([H])c2C1([H])[H]

>  <smiles>  (91) 
[H]c1c([H])c([H])c2c(c1[H])C([H])([H])C([H])([H])C([H])([H])C2([H])N([H])C(=O)C1([H])N(C(=O)C([H])(N([H])C(=O)C([H])(N([H])C([H])([H])[H])C([H])([H])[H])C(C([H])([H])[H])(C([H])([H])[H])C([H])([H])[H])C([H])([H])c2c([H])c(OC([H])([H])C([H])([H])N([H])c3nc(C([H])([H])[N+]([H])([H])C([H])([H])C([H])([H])N([H])C(=O)N4C([H])([H])C([H])([H])C([H])([H])C([H])(n5nc(-c6c([H])c([H])c(Oc7c([H])c([H])c(F)c([H])c7F)c([H])c6[H])c(C(=O)N([H])[H])c5N([H])[H])C4([H])[H])c([H])c(C4([H])C([H])([H])C4([H])[H])c3[H])c([H])c([H])c2C1([H])[H]

$$$$
91:0:0
     RDKit          3D

 95103  0  0  1  0  0  0  0  0999 V2000
  -27.5970  -22.1370   19.7670 C   0  0  0  0  0  3  0  0  0  0  0  0
  -27.2580  -23.4890   20.0600 C   0  0  0  0  0  3  0  0  0  0  0  0
  -28.9240  -21.9380   20.0310 C   0  0  0  0  0  0  0  0  0  0  0  0
  -28.3730  -24.1460   20.5050 C   0  0  0  0  0  0  0  0  0  0  0  0
  -29.4080  -23.1780   20.5090 N   0  0  0  0  0  0  0  0  0  0  0  0
  -29.7600  -20.6720   19.7490 C   0  0  0  0  0  2  0  0  0  0  0  0
  -29.7230  -19.5590   20.7550 N   0  0  0  0  0  4  0  0  0  0  0  0
  -28.8950  -19.6770   21.3140 H   0  0  0  0  0  0  0  0  0  0  0  0
  -30.5140  -19.6800   21.3630 H   0  0  0  0  0  0  0  0  0  0  0  0
  -29.7250  -18.1470   20.2160 C   0  0  0  0  0  3  0  0  0  0  0  0
  -30.2250  -17.0430   21.2230 C   0  0  0  0  0  3  0  0  0  0  0  0
  -30.6270  -14.6010   20.4480 C   0  0  0  0  0  0  0  0  0  0  0  0
  -30.3790  -12.4020   19.3220 C   0  0  0  0  0  2  0  0  0  0  0  0
  -29.4330  -12.5570   18.1110 C   0  0  0  0  0  2  0  0  0  0  0  0
  -27.9580  -12.4140   18.5380 C   0  0  0  0  0  2  0  0  0  0  0  0
  -27.6110  -13.2700   19.7850 C   0  0  0  0  0  3  0  0  0  0  0  0
  -28.6630  -13.0780   20.8970 C   0  0  0  0  0  2  0  0  0  0  0  0
  -29.9800  -13.4040   20.3250 N   0  0  0  0  0  0  0  0  0  0  0  0
  -31.7780  -14.7770   20.0390 O   0  0  0  0  0  0  0  0  0  0  0  0
  -29.8670  -15.6290   20.9050 N   0  0  0  0  0  0  0  0  0  0  0  0
  -28.9260  -15.3610   21.1510 H   0  0  0  0  0  0  0  0  0  0  0  0
  -25.2150  -13.8950   20.4810 C   0  0  0  0  0  0  0  0  0  0  0  0
  -24.1420  -13.1320   20.8540 C   0  0  0  0  0  0  0  0  0  0  0  0
  -24.5960  -11.7780   20.8380 C   0  0  0  0  0  0  0  0  0  0  0  0
  -26.2560  -13.0060   20.2620 N   0  0  0  0  0  0  0  0  0  0  0  0
  -25.8870  -11.7280   20.5360 N   0  0  0  0  0  0  0  0  0  0  0  0
  -23.8620  -10.5220   21.0360 C   0  0  0  0  0  0  0  0  0  0  0  0
  -24.3010   -9.5480   21.9620 C   0  0  0  0  0  3  0  0  0  0  0  0
  -23.5680   -8.3570   22.1480 C   0  0  0  0  0  3  0  0  0  0  0  0
  -22.3830   -8.1290   21.4090 C   0  0  0  0  0  0  0  0  0  0  0  0
  -21.9640   -9.0910   20.4720 C   0  0  0  0  0  3  0  0  0  0  0  0
  -22.6970  -10.2740   20.2850 C   0  0  0  0  0  3  0  0  0  0  0  0
  -21.6220   -6.9900   21.5050 O   0  0  0  0  0  0  0  0  0  0  0  0
  -21.5980   -6.2340   22.6500 C   0  0  0  0  0  0  0  0  0  0  0  0
  -21.2310   -6.7830   23.8980 C   0  0  0  0  0  3  0  0  0  0  0  0
  -21.1540   -5.9540   25.0350 C   0  0  0  0  0  3  0  0  0  0  0  0
  -21.4320   -4.5790   24.9260 C   0  0  0  0  0  0  0  0  0  0  0  0
  -21.7930   -4.0290   23.6830 C   0  0  0  0  0  3  0  0  0  0  0  0
  -21.8720   -4.8550   22.5470 C   0  0  0  0  0  0  0  0  0  0  0  0
  -22.1990   -4.3170   21.3470 F   0  0  0  0  0  0  0  0  0  0  0  0
  -21.3510   -3.7810   26.0160 F   0  0  0  0  0  0  0  0  0  0  0  0
  -22.7460  -13.6190   21.1160 C   0  0  0  0  0  0  0  0  0  0  0  0
  -22.0120  -12.9360   21.9860 N   0  0  0  0  0  0  0  0  0  0  0  0
  -22.3150  -14.6410   20.5830 O   0  0  0  0  0  0  0  0  0  0  0  0
  -22.3740  -12.1090   22.4390 H   0  0  0  0  0  0  0  0  0  0  0  0
  -21.0750  -13.2430   22.2050 H   0  0  0  0  0  0  0  0  0  0  0  0
  -25.3900  -15.2630   20.2910 N   0  0  0  0  0  0  0  0  0  0  0  0
  -24.6220  -15.9200   20.3760 H   0  0  0  0  0  0  0  0  0  0  0  0
  -26.2340  -15.6870   19.9280 H   0  0  0  0  0  0  0  0  0  0  0  0
  -28.4890  -25.5930   21.0260 C   0  0  0  0  0  2  0  0  0  0  0  0
  -28.3230  -26.6020   19.9920 O   0  0  0  0  0  0  0  0  0  0  0  0
  -24.6160  -31.8810   23.1900 C   0  0  0  0  0  0  0  0  0  0  0  0
  -27.1850  -27.3950   20.0620 C   0  0  0  0  0  0  0  0  0  0  0  0
  -23.3790  -30.4860   21.5660 C   0  0  0  0  0  3  0  0  0  0  0  0
  -24.8060  -28.9430   20.1130 C   0  0  0  0  0  0  0  0  0  0  0  0
  -25.9070  -30.8280   21.3270 C   0  0  0  0  0  2  0  0  0  0  0  0
  -25.9790  -29.4530   20.6860 C   0  0  0  0  0  0  0  0  0  0  0  0
  -27.1750  -28.6850   20.6570 C   0  0  0  0  0  3  0  0  0  0  0  0
  -25.9980  -26.9170   19.4750 C   0  0  0  0  0  3  0  0  0  0  0  0
  -24.8120  -27.6770   19.5050 C   0  0  0  0  0  3  0  0  0  0  0  0
  -23.5660  -29.8100   20.1820 C   0  0  0  0  0  2  0  0  0  0  0  0
  -24.6530  -31.0810   22.0850 N   0  0  0  0  0  0  0  0  0  0  0  0
  -23.5450  -32.1540   23.7490 O   0  0  0  0  0  0  0  0  0  0  0  0
  -22.7400  -29.4640   22.5360 C   0  0  0  0  0  0  0  0  0  0  0  0
  -21.4130  -29.2830   22.4290 N   0  0  0  0  0  0  0  0  0  0  0  0
  -23.4350  -28.8370   23.3390 O   0  0  0  0  0  0  0  0  0  0  0  0
  -20.9140  -29.8410   21.7510 H   0  0  0  0  0  0  0  0  0  0  0  0
  -18.0500  -28.0670   22.9630 C   0  0  0  0  0  0  0  0  0  0  0  0
  -20.6090  -28.3430   23.2100 C   0  0  0  0  0  3  0  0  0  0  0  0
  -20.7150  -26.9110   22.6380 C   0  0  0  0  0  2  0  0  0  0  0  0
  -19.6060  -26.5770   21.6350 C   0  0  0  0  0  2  0  0  0  0  0  0
  -18.2280  -26.7170   22.2900 C   0  0  0  0  0  2  0  0  0  0  0  0
  -19.1670  -28.8380   23.3800 C   0  0  0  0  0  0  0  0  0  0  0  0
  -18.9450  -30.1020   23.9680 C   0  0  0  0  0  3  0  0  0  0  0  0
  -17.6400  -30.5960   24.1440 C   0  0  0  0  0  3  0  0  0  0  0  0
  -16.5370  -29.8230   23.7440 C   0  0  0  0  0  3  0  0  0  0  0  0
  -16.7430  -28.5610   23.1580 C   0  0  0  0  0  3  0  0  0  0  0  0
  -25.9130  -32.5090   23.7890 C   0  0  0  0  0  3  0  0  0  0  0  0
  -25.6060  -33.9000   24.1490 N   0  0  0  0  0  0  0  0  0  0  0  0
  -25.9200  -34.9660   23.4000 C   0  0  0  0  0  0  0  0  0  0  0  0
  -26.5690  -34.8810   22.3540 O   0  0  0  0  0  0  0  0  0  0  0  0
  -25.0290  -34.0390   24.9660 H   0  0  0  0  0  0  0  0  0  0  0  0
  -24.1800  -36.7570   23.1100 C   0  0  0  0  0  1  0  0  0  0  0  0
  -25.4390  -36.3450   23.8900 C   0  0  0  0  0  3  0  0  0  0  0  0
  -27.5880  -37.2190   24.6890 C   0  0  0  0  0  1  0  0  0  0  0  0
  -26.4660  -37.4030   23.7740 N   0  0  0  0  0  0  0  0  0  0  0  0
  -26.0610  -38.3180   23.9490 H   0  0  0  0  0  0  0  0  0  0  0  0
  -26.4660  -31.7180   25.0390 C   0  0  1  0  0  0  0  0  0  0  0  0
  -25.4020  -31.4590   26.1310 C   0  0  0  0  0  1  0  0  0  0  0  0
  -27.0420  -30.3500   24.6070 C   0  0  0  0  0  1  0  0  0  0  0  0
  -27.6330  -32.5050   25.6820 C   0  0  0  0  0  1  0  0  0  0  0  0
  -30.7800  -23.4150   20.9590 C   0  0  0  0  0  2  0  0  0  0  0  0
  -32.4390  -25.2670   20.3890 C   0  0  0  0  0  1  0  0  0  0  0  0
  -31.1410  -24.2200   18.4880 C   0  0  0  0  0  1  0  0  0  0  0  0
  -31.7480  -23.9890   19.8860 C   0  0  0  0  0  3  0  0  0  0  0  0
  1  3  2  0
  1  2  1  0
  2  4  2  0
  3  5  1  0
  4  5  1  0
  4 50  1  0
  5 92  1  0
  6  3  1  0
  6  7  1  0
  7  8  1  0
  7  9  1  0
 10  7  1  0
 10 11  2  0
 12 20  1  0
 13 18  1  0
 14 15  1  0
 14 13  1  0
 16 15  1  0
 16 25  1  0
 16 17  1  0
 18 12  1  0
 18 17  1  0
 19 12  2  0
 20 21  1  0
 20 11  1  0
 22 23  2  0
 23 42  1  0
 24 23  1  0
 24 27  1  0
 25 22  1  0
 25 26  1  0
 26 24  2  0
 27 28  1  0
 28 29  2  0
 30 33  1  0
 30 29  1  0
 31 30  2  0
 32 31  1  0
 32 27  2  0
 33 34  1  0
 34 35  1  0
 35 36  2  0
 37 36  1  0
 37 41  1  0
 38 37  2  0
 39 34  2  0
 39 38  1  0
 40 39  1  0
 42 43  1  0
 43 46  1  0
 43 45  1  0
 44 42  2  0
 47 48  1  0
 47 22  1  0
 49 47  1  0
 51 53  1  0
 51 50  1  0
 52 63  2  0
 53 58  1  0
 54 62  1  0
 54 64  1  0
 55 61  1  0
 55 57  1  0
 56 62  1  0
 57 56  1  0
 58 57  2  0
 59 60  1  0
 59 53  2  0
 60 55  2  0
 61 54  1  0
 62 52  1  0
 64 66  2  0
 65 64  1  0
 67 65  1  0
 68 77  2  0
 68 73  1  0
 69 65  1  0
 69 73  1  0
 70 69  1  0
 71 72  1  0
 71 70  1  0
 72 68  1  0
 73 74  2  0
 74 75  1  0
 76 75  2  0
 77 76  1  0
 78 52  1  0
 78 79  1  0
 78 88  1  0
 79 82  1  0
 80 84  1  0
 80 79  1  0
 81 80  2  0
 84 83  1  0
 86 84  1  0
 86 87  1  0
 86 85  1  0
 88 91  1  1
 88 89  1  0
 90 88  1  0
 94 95  1  0
 95 93  1  0
 95 92  1  0
M  ISO  4  12 100  20 100  50 101  51 101
M  END
>  <TORSDO>  (92) 
F 23

>  <SCORE>  (92) 
-12.886

>  <name>  (92) 
91

>  <ligand_id>  (92) 
91

>  <original_smiles>  (92) 
[H]c1c([H])c([H])c2c(c1[H])C([H])([H])C([H])([H])C([H])([H])C2([H])N([H])C(=O)C1([H])N(C(=O)C([H])(N([H])C(=O)C([H])(N([H])C([H])([H])[H])C([H])([H])[H])C(C([H])([H])[H])(C([H])([H])[H])C([H])([H])[H])C([H])([H])c2c([H])c(OC([H])([H])c3c([H])c([H])c(C([H])([H])[N+]([H])([H])C([H])([H])C([H])([H])N([H])C(=O)N4C([H])([H])C([H])([H])C([H])([H])C([H])(n5nc(-c6c([H])c([H])c(Oc7c([H])c([H])c(F)c([H])c7F)c([H])c6[H])c(C(=O)N([H])[H])c5N([H])[H])C4([H])[H])n3C([H])([H])C([H])(C([H])([H])[H])C([H])([H])[H])c([H])c([H])c2C1([H])[H]

>  <smiles>  (92) 
[H]c1c([H])c([H])c2c(c1[H])C([H])([H])C([H])([H])C([H])([H])C2([H])N([H])C(=O)C1([H])N(C(=O)C([H])(N([H])C(=O)C([H])(N([H])C([H])([H])[H])C([H])([H])[H])C(C([H])([H])[H])(C([H])([H])[H])C([H])([H])[H])C([H])([H])c2c([H])c(OC([H])([H])c3c([H])c([H])c(C([H])([H])[N+]([H])([H])C([H])([H])C([H])([H])N([H])C(=O)N4C([H])([H])C([H])([H])C([H])([H])C([H])(n5nc(-c6c([H])c([H])c(Oc7c([H])c([H])c(F)c([H])c7F)c([H])c6[H])c(C(=O)N([H])[H])c5N([H])[H])C4([H])[H])n3C([H])([H])C([H])(C([H])([H])[H])C([H])([H])[H])c([H])c([H])c2C1([H])[H]

$$$$
92:0:0
     RDKit          3D

 91100  0  0  1  0  0  0  0  0999 V2000
  -29.0880  -22.2630   21.2900 C   0  0  0  0  0  3  0  0  0  0  0  0
  -29.5540  -20.8560   21.3090 C   0  0  0  0  0  0  0  0  0  0  0  0
  -29.7370  -20.0050   20.1420 C   0  0  0  0  0  0  0  0  0  0  0  0
  -28.7880  -23.0540   20.1130 C   0  0  0  0  0  0  0  0  0  0  0  0
  -29.4400  -20.8780   19.0060 C   0  0  0  0  0  0  0  0  0  0  0  0
  -29.9300  -20.2640   22.6550 C   0  0  0  0  0  1  0  0  0  0  0  0
  -29.6600  -20.3290   17.6070 C   0  0  0  0  0  1  0  0  0  0  0  0
  -28.9900  -22.2290   19.0030 N   0  0  0  0  0  0  0  0  0  0  0  0
  -30.4390  -18.3990   20.1090 C   0  0  0  0  0  2  0  0  0  0  0  0
  -30.6650  -15.5310   20.1350 C   0  0  0  0  0  0  0  0  0  0  0  0
  -30.6400  -13.0750   19.3040 C   0  0  0  0  0  2  0  0  0  0  0  0
  -29.6720  -12.8290   18.1220 C   0  0  0  0  0  2  0  0  0  0  0  0
  -28.2540  -12.5070   18.6320 C   0  0  0  0  0  2  0  0  0  0  0  0
  -27.8200  -13.4600   19.7720 C   0  0  0  0  0  3  0  0  0  0  0  0
  -28.9240  -13.6740   20.8360 C   0  0  0  0  0  2  0  0  0  0  0  0
  -30.0950  -14.2200   20.1170 N   0  0  0  0  0  0  0  0  0  0  0  0
  -31.8960  -15.5100   19.9990 O   0  0  0  0  0  0  0  0  0  0  0  0
  -29.9190  -16.8290   20.0770 N   0  0  0  0  0  0  0  0  0  0  0  0
  -25.4680  -14.0210   20.6220 C   0  0  0  0  0  0  0  0  0  0  0  0
  -24.4230  -13.2380   21.0090 C   0  0  0  0  0  0  0  0  0  0  0  0
  -24.8860  -11.8920   20.9020 C   0  0  0  0  0  0  0  0  0  0  0  0
  -26.5090  -13.1540   20.3220 N   0  0  0  0  0  0  0  0  0  0  0  0
  -26.1650  -11.8650   20.5500 N   0  0  0  0  0  0  0  0  0  0  0  0
  -24.1640  -10.6260   21.0570 C   0  0  0  0  0  0  0  0  0  0  0  0
  -24.5740   -9.6560   21.9960 C   0  0  0  0  0  3  0  0  0  0  0  0
  -23.8490   -8.4550   22.1440 C   0  0  0  0  0  3  0  0  0  0  0  0
  -22.7010   -8.2180   21.3530 C   0  0  0  0  0  0  0  0  0  0  0  0
  -22.3120   -9.1770   20.4020 C   0  0  0  0  0  3  0  0  0  0  0  0
  -23.0390  -10.3690   20.2510 C   0  0  0  0  0  3  0  0  0  0  0  0
  -21.9510   -7.0690   21.4120 O   0  0  0  0  0  0  0  0  0  0  0  0
  -21.7850   -6.3800   22.5860 C   0  0  0  0  0  0  0  0  0  0  0  0
  -21.1580   -6.9630   23.7090 C   0  0  0  0  0  3  0  0  0  0  0  0
  -20.9430   -6.1960   24.8710 C   0  0  0  0  0  3  0  0  0  0  0  0
  -21.3460   -4.8470   24.9100 C   0  0  0  0  0  0  0  0  0  0  0  0
  -21.9640   -4.2650   23.7900 C   0  0  0  0  0  3  0  0  0  0  0  0
  -22.1800   -5.0280   22.6300 C   0  0  0  0  0  0  0  0  0  0  0  0
  -22.7550   -4.4560   21.5460 F   0  0  0  0  0  0  0  0  0  0  0  0
  -21.1350   -4.1060   26.0230 F   0  0  0  0  0  0  0  0  0  0  0  0
  -23.0380  -13.7060   21.3490 C   0  0  0  0  0  0  0  0  0  0  0  0
  -22.3450  -12.9860   22.2240 N   0  0  0  0  0  0  0  0  0  0  0  0
  -22.5850  -14.7500   20.8790 O   0  0  0  0  0  0  0  0  0  0  0  0
  -22.7230  -12.1400   22.6240 H   0  0  0  0  0  0  0  0  0  0  0  0
  -21.4210  -13.2830   22.5020 H   0  0  0  0  0  0  0  0  0  0  0  0
  -25.5940  -15.3950   20.4640 N   0  0  0  0  0  0  0  0  0  0  0  0
  -24.7630  -15.9780   20.4680 H   0  0  0  0  0  0  0  0  0  0  0  0
  -26.3700  -15.8270   19.9820 H   0  0  0  0  0  0  0  0  0  0  0  0
  -27.9830  -16.8710   18.4460 C   0  0  0  0  0  2  0  0  0  0  0  0
  -27.5860  -17.9130   19.4420 C   0  0  0  0  0  2  0  0  0  0  0  0
  -28.4950  -16.7690   19.8830 C   0  0  0  0  0  3  0  0  0  0  0  0
  -27.9110  -24.5530   20.0240 C   0  0  0  0  0  2  0  0  0  0  0  0
  -28.2440  -26.1340   20.2180 O   0  0  0  0  0  0  0  0  0  0  0  0
  -24.6670  -31.9920   23.3180 C   0  0  0  0  0  0  0  0  0  0  0  0
  -27.2200  -27.2100   20.1840 C   0  0  0  0  0  0  0  0  0  0  0  0
  -23.4550  -30.6060   21.6860 C   0  0  0  0  0  3  0  0  0  0  0  0
  -24.8920  -29.0380   20.2170 C   0  0  0  0  0  0  0  0  0  0  0  0
  -26.0130  -30.8520   21.4910 C   0  0  0  0  0  2  0  0  0  0  0  0
  -26.0870  -29.4530   20.8190 C   0  0  0  0  0  0  0  0  0  0  0  0
  -27.2440  -28.5580   20.7830 C   0  0  0  0  0  3  0  0  0  0  0  0
  -25.9910  -26.9400   19.5360 C   0  0  0  0  0  3  0  0  0  0  0  0
  -24.8650  -27.7990   19.5600 C   0  0  0  0  0  3  0  0  0  0  0  0
  -23.6640  -29.9420   20.2970 C   0  0  0  0  0  2  0  0  0  0  0  0
  -24.7330  -31.1750   22.2190 N   0  0  0  0  0  0  0  0  0  0  0  0
  -23.5850  -32.2670   23.8620 O   0  0  0  0  0  0  0  0  0  0  0  0
  -22.7870  -29.5920   22.6500 C   0  0  0  0  0  0  0  0  0  0  0  0
  -21.4720  -29.3550   22.4900 N   0  0  0  0  0  0  0  0  0  0  0  0
  -23.4590  -29.0170   23.5100 O   0  0  0  0  0  0  0  0  0  0  0  0
  -20.9790  -29.8750   21.7780 H   0  0  0  0  0  0  0  0  0  0  0  0
  -18.1560  -27.9410   22.8890 C   0  0  0  0  0  0  0  0  0  0  0  0
  -20.6760  -28.3910   23.2580 C   0  0  0  0  0  3  0  0  0  0  0  0
  -20.9000  -26.9500   22.7430 C   0  0  0  0  0  2  0  0  0  0  0  0
  -19.8710  -26.5180   21.6930 C   0  0  0  0  0  2  0  0  0  0  0  0
  -18.4530  -26.5880   22.2680 C   0  0  0  0  0  2  0  0  0  0  0  0
  -19.1990  -28.7950   23.3390 C   0  0  0  0  0  0  0  0  0  0  0  0
  -18.8650  -30.0540   23.8810 C   0  0  0  0  0  3  0  0  0  0  0  0
  -17.5230  -30.4650   23.9780 C   0  0  0  0  0  3  0  0  0  0  0  0
  -16.4930  -29.6130   23.5400 C   0  0  0  0  0  3  0  0  0  0  0  0
  -16.8110  -28.3530   23.0030 C   0  0  0  0  0  3  0  0  0  0  0  0
  -25.9440  -32.6350   23.9360 C   0  0  0  0  0  3  0  0  0  0  0  0
  -26.4560  -31.8820   25.2250 C   0  0  1  0  0  0  0  0  0  0  0  0
  -25.3550  -31.6460   26.2870 C   0  0  0  0  0  1  0  0  0  0  0  0
  -27.0580  -30.5060   24.8600 C   0  0  0  0  0  1  0  0  0  0  0  0
  -27.5900  -32.6990   25.8900 C   0  0  0  0  0  1  0  0  0  0  0  0
  -25.6330  -34.0390   24.2570 N   0  0  0  0  0  0  0  0  0  0  0  0
  -25.9500  -35.0900   23.4900 C   0  0  0  0  0  0  0  0  0  0  0  0
  -26.5980  -34.9810   22.4460 O   0  0  0  0  0  0  0  0  0  0  0  0
  -25.0550  -34.1970   25.0690 H   0  0  0  0  0  0  0  0  0  0  0  0
  -24.2170  -36.8910   23.1720 C   0  0  0  0  0  1  0  0  0  0  0  0
  -25.4770  -36.4840   23.9530 C   0  0  0  0  0  3  0  0  0  0  0  0
  -27.6240  -37.3820   24.7370 C   0  0  0  0  0  1  0  0  0  0  0  0
  -26.5070  -37.5360   23.8100 N   0  0  0  0  0  0  0  0  0  0  0  0
  -26.1020  -38.4570   23.9520 H   0  0  0  0  0  0  0  0  0  0  0  0
  1  2  1  0
  2  6  1  0
  3  2  2  0
  4  1  2  0
  5  3  1  0
  7  5  1  0
  8  5  2  0
  8  4  1  0
  9  3  1  0
 11 16  1  0
 12 13  1  0
 12 11  1  0
 14 13  1  0
 14 22  1  0
 14 15  1  0
 16 10  1  0
 16 15  1  0
 17 10  2  0
 18  9  1  0
 18 10  1  0
 19 20  2  0
 20 39  1  0
 21 20  1  0
 21 24  1  0
 22 23  1  0
 22 19  1  0
 23 21  2  0
 24 25  1  0
 25 26  2  0
 27 30  1  0
 27 26  1  0
 28 27  2  0
 29 28  1  0
 29 24  2  0
 30 31  1  0
 31 36  2  0
 31 32  1  0
 32 33  2  0
 33 34  1  0
 34 38  1  0
 35 34  2  0
 36 35  1  0
 37 36  1  0
 39 40  1  0
 40 43  1  0
 40 42  1  0
 41 39  2  0
 44 45  1  0
 44 19  1  0
 46 44  1  0
 47 48  1  0
 47 49  1  0
 48 49  1  0
 49 18  1  0
 50  4  1  0
 50 51  1  0
 52 63  2  0
 53 51  1  0
 53 58  1  0
 54 62  1  0
 54 64  1  0
 55 61  1  0
 55 57  1  0
 56 62  1  0
 57 56  1  0
 58 57  2  0
 59 60  1  0
 59 53  2  0
 60 55  2  0
 61 54  1  0
 62 52  1  0
 64 66  2  0
 65 64  1  0
 67 65  1  0
 68 77  2  0
 68 73  1  0
 69 65  1  0
 69 73  1  0
 70 69  1  0
 71 72  1  0
 71 70  1  0
 72 68  1  0
 73 74  2  0
 74 75  1  0
 76 75  2  0
 77 76  1  0
 78 52  1  0
 78 83  1  0
 78 79  1  0
 79 82  1  1
 79 80  1  0
 81 79  1  0
 83 86  1  0
 84 88  1  0
 84 83  1  0
 85 84  2  0
 88 87  1  0
 90 91  1  0
 90 88  1  0
 90 89  1  0
M  ISO  4  10 100  18 100  50 101  51 101
M  END
>  <TORSDO>  (93) 
F 19

>  <SCORE>  (93) 
-14.726

>  <name>  (93) 
92

>  <ligand_id>  (93) 
92

>  <original_smiles>  (93) 
[H]c1c([H])c([H])c2c(c1[H])C([H])([H])C([H])([H])C([H])([H])C2([H])N([H])C(=O)C1([H])N(C(=O)C([H])(N([H])C(=O)C([H])(N([H])C([H])([H])[H])C([H])([H])[H])C(C([H])([H])[H])(C([H])([H])[H])C([H])([H])[H])C([H])([H])c2c([H])c(OC([H])([H])c3nc(C([H])([H])[H])c(C([H])([H])N(C(=O)N4C([H])([H])C([H])([H])C([H])([H])C([H])(n5nc(-c6c([H])c([H])c(Oc7c([H])c([H])c(F)c([H])c7F)c([H])c6[H])c(C(=O)N([H])[H])c5N([H])[H])C4([H])[H])C4([H])C([H])([H])C4([H])[H])c(C([H])([H])[H])c3[H])c([H])c([H])c2C1([H])[H]

>  <smiles>  (93) 
[H]c1c([H])c([H])c2c(c1[H])C([H])([H])C([H])([H])C([H])([H])C2([H])N([H])C(=O)C1([H])N(C(=O)C([H])(N([H])C(=O)C([H])(N([H])C([H])([H])[H])C([H])([H])[H])C(C([H])([H])[H])(C([H])([H])[H])C([H])([H])[H])C([H])([H])c2c([H])c(OC([H])([H])c3nc(C([H])([H])[H])c(C([H])([H])N(C(=O)N4C([H])([H])C([H])([H])C([H])([H])C([H])(n5nc(-c6c([H])c([H])c(Oc7c([H])c([H])c(F)c([H])c7F)c([H])c6[H])c(C(=O)N([H])[H])c5N([H])[H])C4([H])[H])C4([H])C([H])([H])C4([H])[H])c(C([H])([H])[H])c3[H])c([H])c([H])c2C1([H])[H]

$$$$
93:0:0
     RDKit          3D

 95104  0  0  1  0  0  0  0  0999 V2000
  -29.7320  -23.0520   19.7390 C   0  0  0  0  0  3  0  0  0  0  0  0
  -29.6880  -24.4850   19.7620 C   0  0  0  0  0  3  0  0  0  0  0  0
  -27.3150  -24.4180   20.0060 C   0  0  0  0  0  3  0  0  0  0  0  0
  -28.5600  -22.2510   19.7970 C   0  0  0  0  0  0  0  0  0  0  0  0
  -27.3420  -22.9950   19.9150 C   0  0  0  0  0  0  0  0  0  0  0  0
  -28.4750  -25.2210   19.8860 C   0  0  0  0  0  0  0  0  0  0  0  0
  -28.5470  -20.7090   19.6430 C   0  0  0  0  0  0  0  0  0  0  0  0
  -25.9840  -22.3110   19.8420 C   0  0  0  0  0  2  0  0  0  0  0  0
  -26.0360  -20.7900   19.6410 C   0  0  0  0  0  2  0  0  0  0  0  0
  -27.2740  -20.2870   18.8700 C   0  0  0  0  0  3  0  0  0  0  0  0
  -29.4480  -19.8360   20.0390 N   0  0  0  0  0  0  0  0  0  0  0  0
  -28.6320  -20.3450   16.6500 C   0  0  0  0  0  1  0  0  0  0  0  0
  -26.1510  -20.1430   16.5520 C   0  0  0  0  0  1  0  0  0  0  0  0
  -27.3190  -20.7230   17.3680 C   0  0  0  0  0  3  0  0  0  0  0  0
  -28.4780  -26.6440   19.9070 O   0  0  0  0  0  0  0  0  0  0  0  0
  -24.5980  -31.8130   23.1410 C   0  0  0  0  0  0  0  0  0  0  0  0
  -27.3200  -27.4350   19.9250 C   0  0  0  0  0  0  0  0  0  0  0  0
  -23.4290  -30.4520   21.4440 C   0  0  0  0  0  3  0  0  0  0  0  0
  -24.9180  -28.9850   19.9710 C   0  0  0  0  0  0  0  0  0  0  0  0
  -25.9610  -30.8290   21.2870 C   0  0  0  0  0  2  0  0  0  0  0  0
  -26.0710  -29.4750   20.5960 C   0  0  0  0  0  0  0  0  0  0  0  0
  -27.2710  -28.7070   20.5730 C   0  0  0  0  0  3  0  0  0  0  0  0
  -26.1510  -27.0100   19.2540 C   0  0  0  0  0  3  0  0  0  0  0  0
  -24.9570  -27.7540   19.2960 C   0  0  0  0  0  3  0  0  0  0  0  0
  -23.6640  -29.8310   20.0420 C   0  0  0  0  0  2  0  0  0  0  0  0
  -24.6810  -31.0470   22.0150 N   0  0  0  0  0  0  0  0  0  0  0  0
  -23.5080  -32.0490   23.6810 O   0  0  0  0  0  0  0  0  0  0  0  0
  -22.7850  -29.3860   22.3610 C   0  0  0  0  0  0  0  0  0  0  0  0
  -21.4570  -29.2100   22.2450 N   0  0  0  0  0  0  0  0  0  0  0  0
  -23.4770  -28.7230   23.1380 O   0  0  0  0  0  0  0  0  0  0  0  0
  -20.9560  -29.7960   21.5930 H   0  0  0  0  0  0  0  0  0  0  0  0
  -18.0830  -28.0290   22.7860 C   0  0  0  0  0  0  0  0  0  0  0  0
  -20.6530  -28.2350   22.9820 C   0  0  0  0  0  3  0  0  0  0  0  0
  -20.7120  -26.8430   22.3100 C   0  0  0  0  0  2  0  0  0  0  0  0
  -19.5700  -26.6040   21.3170 C   0  0  0  0  0  2  0  0  0  0  0  0
  -18.2150  -26.7260   22.0180 C   0  0  0  0  0  2  0  0  0  0  0  0
  -19.2280  -28.7460   23.2270 C   0  0  0  0  0  0  0  0  0  0  0  0
  -19.0490  -29.9700   23.9070 C   0  0  0  0  0  3  0  0  0  0  0  0
  -17.7600  -30.4780   24.1500 C   0  0  0  0  0  3  0  0  0  0  0  0
  -16.6290  -29.7570   23.7260 C   0  0  0  0  0  3  0  0  0  0  0  0
  -16.7920  -28.5340   23.0510 C   0  0  0  0  0  3  0  0  0  0  0  0
  -25.8670  -32.4470   23.7910 C   0  0  0  0  0  3  0  0  0  0  0  0
  -26.3760  -31.6580   25.0590 C   0  0  1  0  0  0  0  0  0  0  0  0
  -25.2720  -31.3900   26.1080 C   0  0  0  0  0  1  0  0  0  0  0  0
  -26.9790  -30.2940   24.6480 C   0  0  0  0  0  1  0  0  0  0  0  0
  -27.5090  -32.4500   25.7510 C   0  0  0  0  0  1  0  0  0  0  0  0
  -25.5380  -33.8350   24.1440 N   0  0  0  0  0  0  0  0  0  0  0  0
  -25.8590  -34.9050   23.4040 C   0  0  0  0  0  0  0  0  0  0  0  0
  -26.5310  -34.8270   22.3720 O   0  0  0  0  0  0  0  0  0  0  0  0
  -24.9430  -33.9690   24.9480 H   0  0  0  0  0  0  0  0  0  0  0  0
  -24.1030  -36.6740   23.0830 C   0  0  0  0  0  1  0  0  0  0  0  0
  -25.3530  -36.2790   23.8840 C   0  0  0  0  0  3  0  0  0  0  0  0
  -27.4760  -37.1830   24.7230 C   0  0  0  0  0  1  0  0  0  0  0  0
  -26.3700  -37.3490   23.7840 N   0  0  0  0  0  0  0  0  0  0  0  0
  -25.9500  -38.2600   23.9460 H   0  0  0  0  0  0  0  0  0  0  0  0
  -29.2480  -18.3500   19.8580 C   0  0  0  0  0  3  0  0  0  0  0  0
  -30.4720  -17.3820   20.1750 C   0  0  0  0  0  3  0  0  0  0  0  0
  -30.9170  -14.8210   20.1830 C   0  0  0  0  0  0  0  0  0  0  0  0
  -30.6950  -12.5170   19.2800 C   0  0  0  0  0  2  0  0  0  0  0  0
  -29.7460  -12.5700   18.0620 C   0  0  0  0  0  2  0  0  0  0  0  0
  -28.2750  -12.4500   18.5100 C   0  0  0  0  0  2  0  0  0  0  0  0
  -27.9270  -13.3870   19.6980 C   0  0  0  0  0  3  0  0  0  0  0  0
  -28.9940  -13.3050   20.8120 C   0  0  0  0  0  2  0  0  0  0  0  0
  -30.2940  -13.6020   20.1980 N   0  0  0  0  0  0  0  0  0  0  0  0
  -32.0880  -14.9350   19.8080 O   0  0  0  0  0  0  0  0  0  0  0  0
  -30.1310  -15.9250   20.3880 N   0  0  0  0  0  0  0  0  0  0  0  0
  -29.1850  -15.7290   20.6780 H   0  0  0  0  0  0  0  0  0  0  0  0
  -25.5710  -14.0470   20.4800 C   0  0  0  0  0  0  0  0  0  0  0  0
  -24.4870  -13.3010   20.8590 C   0  0  0  0  0  0  0  0  0  0  0  0
  -24.9050  -11.9370   20.7940 C   0  0  0  0  0  0  0  0  0  0  0  0
  -26.5810  -13.1370   20.2080 N   0  0  0  0  0  0  0  0  0  0  0  0
  -26.1870  -11.8630   20.4590 N   0  0  0  0  0  0  0  0  0  0  0  0
  -24.1400  -10.6950   20.9780 C   0  0  0  0  0  0  0  0  0  0  0  0
  -24.5360   -9.7150   21.9140 C   0  0  0  0  0  3  0  0  0  0  0  0
  -23.7730   -8.5400   22.0860 C   0  0  0  0  0  3  0  0  0  0  0  0
  -22.5990   -8.3370   21.3210 C   0  0  0  0  0  0  0  0  0  0  0  0
  -22.2210   -9.3070   20.3740 C   0  0  0  0  0  3  0  0  0  0  0  0
  -22.9860  -10.4730   20.2020 C   0  0  0  0  0  3  0  0  0  0  0  0
  -21.8080   -7.2170   21.4020 O   0  0  0  0  0  0  0  0  0  0  0  0
  -21.7010   -6.4950   22.5650 C   0  0  0  0  0  0  0  0  0  0  0  0
  -21.2410   -7.0800   23.7640 C   0  0  0  0  0  3  0  0  0  0  0  0
  -21.0770   -6.2850   24.9170 C   0  0  0  0  0  3  0  0  0  0  0  0
  -21.3670   -4.9090   24.8700 C   0  0  0  0  0  0  0  0  0  0  0  0
  -21.8210   -4.3230   23.6760 C   0  0  0  0  0  3  0  0  0  0  0  0
  -21.9860   -5.1150   22.5250 C   0  0  0  0  0  0  0  0  0  0  0  0
  -22.4040   -4.5430   21.3700 F   0  0  0  0  0  0  0  0  0  0  0  0
  -21.2040   -4.1440   25.9750 F   0  0  0  0  0  0  0  0  0  0  0  0
  -23.1110  -13.8210   21.1630 C   0  0  0  0  0  0  0  0  0  0  0  0
  -22.3790  -13.1430   22.0410 N   0  0  0  0  0  0  0  0  0  0  0  0
  -22.6960  -14.8640   20.6590 O   0  0  0  0  0  0  0  0  0  0  0  0
  -22.7280  -12.3020   22.4740 H   0  0  0  0  0  0  0  0  0  0  0  0
  -21.4580  -13.4780   22.2870 H   0  0  0  0  0  0  0  0  0  0  0  0
  -25.7720  -15.4160   20.3190 N   0  0  0  0  0  0  0  0  0  0  0  0
  -25.0130  -16.0780   20.4420 H   0  0  0  0  0  0  0  0  0  0  0  0
  -26.5990  -15.8290   19.9110 H   0  0  0  0  0  0  0  0  0  0  0  0
  1  2  2  0
  1  4  1  0
  2  6  1  0
  4  5  2  0
  5  3  1  0
  6 15  1  0
  6  3  2  0
  7  4  1  0
  7 11  2  0
  8  5  1  0
  9  8  1  0
 10 14  1  0
 10  9  1  0
 10  7  1  0
 12 14  1  0
 13 14  1  0
 15 17  1  0
 16 27  2  0
 17 22  1  0
 18 26  1  0
 18 28  1  0
 19 25  1  0
 19 21  1  0
 20 26  1  0
 21 20  1  0
 22 21  2  0
 23 24  1  0
 23 17  2  0
 24 19  2  0
 25 18  1  0
 26 16  1  0
 28 30  2  0
 29 28  1  0
 31 29  1  0
 32 41  2  0
 32 37  1  0
 33 29  1  0
 33 37  1  0
 34 33  1  0
 35 36  1  0
 35 34  1  0
 36 32  1  0
 37 38  2  0
 38 39  1  0
 40 39  2  0
 41 40  1  0
 42 16  1  0
 42 47  1  0
 42 43  1  0
 43 46  1  1
 43 44  1  0
 45 43  1  0
 47 50  1  0
 48 52  1  0
 48 47  1  0
 49 48  2  0
 52 51  1  0
 54 52  1  0
 54 55  1  0
 54 53  1  0
 56 11  1  0
 56 57  2  0
 57 66  1  0
 58 64  1  0
 58 66  1  0
 59 64  1  0
 60 61  1  0
 60 59  1  0
 62 61  1  0
 62 71  1  0
 62 63  1  0
 64 63  1  0
 65 58  2  0
 66 67  1  0
 68 69  2  0
 69 88  1  0
 70 69  1  0
 70 73  1  0
 71 72  1  0
 71 68  1  0
 72 70  2  0
 73 74  1  0
 74 75  2  0
 76 79  1  0
 76 75  1  0
 77 76  2  0
 78 77  1  0
 78 73  2  0
 79 80  1  0
 80 81  1  0
 81 82  2  0
 83 82  1  0
 83 87  1  0
 84 83  2  0
 85 80  2  0
 85 84  1  0
 86 85  1  0
 88 89  1  0
 89 92  1  0
 89 91  1  0
 90 88  2  0
 93 94  1  0
 93 68  1  0
 95 93  1  0
M  ISO  4   6 101  15 101  58 100  66 100
M  END
>  <TORSDO>  (94) 
F 19

>  <SCORE>  (94) 
-12.148

>  <name>  (94) 
93

>  <ligand_id>  (94) 
93

>  <original_smiles>  (94) 
[H]c1c([H])c([H])c2c(c1[H])C([H])([H])C([H])([H])C([H])([H])C2([H])N([H])C(=O)C1([H])N(C(=O)C([H])(N([H])C(=O)C([H])(N([H])C([H])([H])[H])C([H])([H])[H])C(C([H])([H])[H])(C([H])([H])[H])C([H])([H])[H])C([H])([H])c2c([H])c(Oc3c([H])c([H])c4c(c3[H])C([H])([H])C([H])([H])C([H])(C([H])(C([H])([H])[H])C([H])([H])[H])C4=NC([H])([H])C([H])([H])N([H])C(=O)N3C([H])([H])C([H])([H])C([H])([H])C([H])(n4nc(-c5c([H])c([H])c(Oc6c([H])c([H])c(F)c([H])c6F)c([H])c5[H])c(C(=O)N([H])[H])c4N([H])[H])C3([H])[H])c([H])c([H])c2C1([H])[H]

>  <smiles>  (94) 
[H]c1c([H])c([H])c2c(c1[H])C([H])([H])C([H])([H])C([H])([H])C2([H])N([H])C(=O)C1([H])N(C(=O)C([H])(N([H])C(=O)C([H])(N([H])C([H])([H])[H])C([H])([H])[H])C(C([H])([H])[H])(C([H])([H])[H])C([H])([H])[H])C([H])([H])c2c([H])c(Oc3c([H])c([H])c4c(c3[H])C([H])([H])C([H])([H])C([H])(C([H])(C([H])([H])[H])C([H])([H])[H])C4=NC([H])([H])C([H])([H])N([H])C(=O)N3C([H])([H])C([H])([H])C([H])([H])C([H])(n4nc(-c5c([H])c([H])c(Oc6c([H])c([H])c(F)c([H])c6F)c([H])c5[H])c(C(=O)N([H])[H])c4N([H])[H])C3([H])[H])c([H])c([H])c2C1([H])[H]

$$$$
94:0:0
     RDKit          3D

 93102  0  0  1  0  0  0  0  0999 V2000
  -30.7840  -21.8340   18.9800 C   0  0  0  0  0  3  0  0  0  0  0  0
  -31.4730  -22.6870   18.1290 C   0  0  0  0  0  3  0  0  0  0  0  0
  -29.2460  -23.6860   19.5350 C   0  0  0  0  0  0  0  0  0  0  0  0
  -29.6160  -22.2120   19.6900 C   0  0  0  0  0  0  0  0  0  0  0  0
  -29.9730  -24.3830   18.5090 C   0  0  0  0  0  0  0  0  0  0  0  0
  -29.5860  -25.7430   17.9400 C   0  0  0  0  0  1  0  0  0  0  0  0
  -31.0510  -23.9170   17.8620 N   0  0  0  0  0  0  0  0  0  0  0  0
  -28.1370  -24.6580   20.2440 C   0  0  0  0  0  2  0  0  0  0  0  0
  -28.2900  -26.2150   20.2540 O   0  0  0  0  0  0  0  0  0  0  0  0
  -24.6410  -31.8670   23.2420 C   0  0  0  0  0  0  0  0  0  0  0  0
  -27.2040  -27.1580   20.2140 C   0  0  0  0  0  0  0  0  0  0  0  0
  -23.4320  -30.4650   21.6140 C   0  0  0  0  0  3  0  0  0  0  0  0
  -24.8720  -28.8890   20.1870 C   0  0  0  0  0  0  0  0  0  0  0  0
  -25.9830  -30.7380   21.4300 C   0  0  0  0  0  2  0  0  0  0  0  0
  -26.0530  -29.3440   20.7850 C   0  0  0  0  0  0  0  0  0  0  0  0
  -27.2200  -28.4960   20.7790 C   0  0  0  0  0  3  0  0  0  0  0  0
  -25.9970  -26.8020   19.5720 C   0  0  0  0  0  3  0  0  0  0  0  0
  -24.8560  -27.6310   19.5660 C   0  0  0  0  0  3  0  0  0  0  0  0
  -23.6440  -29.7840   20.2370 C   0  0  0  0  0  2  0  0  0  0  0  0
  -24.7060  -31.0450   22.1500 N   0  0  0  0  0  0  0  0  0  0  0  0
  -23.5580  -32.1510   23.7770 O   0  0  0  0  0  0  0  0  0  0  0  0
  -22.7640  -29.4580   22.5840 C   0  0  0  0  0  0  0  0  0  0  0  0
  -21.4360  -29.2790   22.4620 N   0  0  0  0  0  0  0  0  0  0  0  0
  -23.4420  -28.8400   23.4100 O   0  0  0  0  0  0  0  0  0  0  0  0
  -20.9460  -29.8290   21.7710 H   0  0  0  0  0  0  0  0  0  0  0  0
  -18.0650  -28.0540   22.9680 C   0  0  0  0  0  0  0  0  0  0  0  0
  -20.6210  -28.3430   23.2410 C   0  0  0  0  0  3  0  0  0  0  0  0
  -20.7380  -26.9060   22.6820 C   0  0  0  0  0  2  0  0  0  0  0  0
  -19.6420  -26.5610   21.6680 C   0  0  0  0  0  2  0  0  0  0  0  0
  -18.2570  -26.7000   22.3060 C   0  0  0  0  0  2  0  0  0  0  0  0
  -19.1760  -28.8330   23.3920 C   0  0  0  0  0  0  0  0  0  0  0  0
  -18.9420  -30.0970   23.9730 C   0  0  0  0  0  3  0  0  0  0  0  0
  -17.6300  -30.5860   24.1320 C   0  0  0  0  0  3  0  0  0  0  0  0
  -16.5360  -29.8060   23.7220 C   0  0  0  0  0  3  0  0  0  0  0  0
  -16.7540  -28.5420   23.1460 C   0  0  0  0  0  3  0  0  0  0  0  0
  -25.9230  -32.5060   23.8580 C   0  0  0  0  0  3  0  0  0  0  0  0
  -25.6080  -33.9030   24.1960 N   0  0  0  0  0  0  0  0  0  0  0  0
  -25.9240  -34.9630   23.4390 C   0  0  0  0  0  0  0  0  0  0  0  0
  -26.5790  -34.8670   22.3980 O   0  0  0  0  0  0  0  0  0  0  0  0
  -25.0240  -34.0510   25.0060 H   0  0  0  0  0  0  0  0  0  0  0  0
  -24.1800  -36.7500   23.1280 C   0  0  0  0  0  1  0  0  0  0  0  0
  -25.4390  -36.3480   23.9120 C   0  0  0  0  0  3  0  0  0  0  0  0
  -27.5870  -37.2430   24.7000 C   0  0  0  0  0  1  0  0  0  0  0  0
  -26.4640  -37.4060   23.7810 N   0  0  0  0  0  0  0  0  0  0  0  0
  -26.0560  -38.3250   23.9390 H   0  0  0  0  0  0  0  0  0  0  0  0
  -26.4470  -31.7380   25.1340 C   0  0  1  0  0  0  0  0  0  0  0  0
  -25.3610  -31.5020   26.2090 C   0  0  0  0  0  1  0  0  0  0  0  0
  -27.0280  -30.3590   24.7450 C   0  0  0  0  0  1  0  0  0  0  0  0
  -27.6010  -32.5340   25.7870 C   0  0  0  0  0  1  0  0  0  0  0  0
  -29.0370  -21.0680   20.4000 O   0  0  0  0  0  0  0  0  0  0  0  0
  -30.5970  -14.9410   20.3400 C   0  0  0  0  0  0  0  0  0  0  0  0
  -30.3460  -12.6170   19.3780 C   0  0  0  0  0  2  0  0  0  0  0  0
  -29.4230  -12.5730   18.1440 C   0  0  0  0  0  2  0  0  0  0  0  0
  -27.9650  -12.3660   18.5880 C   0  0  0  0  0  2  0  0  0  0  0  0
  -27.5620  -13.3030   19.7550 C   0  0  0  0  0  3  0  0  0  0  0  0
  -28.6200  -13.3590   20.8780 C   0  0  0  0  0  2  0  0  0  0  0  0
  -29.8890  -13.7420   20.2490 N   0  0  0  0  0  0  0  0  0  0  0  0
  -31.8090  -14.8530   20.1140 O   0  0  0  0  0  0  0  0  0  0  0  0
  -28.3650  -18.4130   20.2740 C   0  0  0  0  0  2  0  0  0  0  0  0
  -28.7670  -16.8510   20.0140 C   0  0  0  0  0  2  0  0  0  0  0  0
  -31.0010  -17.4050   20.7750 C   0  0  0  0  0  2  0  0  0  0  0  0
  -30.5040  -18.8880   21.1610 C   0  0  0  0  0  3  0  0  0  0  0  0
  -29.4560  -19.5630   20.1850 C   0  0  0  0  0  3  0  0  0  0  0  0
  -31.7350  -19.7690   21.4210 C   0  0  0  0  0  1  0  0  0  0  0  0
  -30.0440  -16.2540   20.5510 N   0  0  0  0  0  0  0  0  0  0  0  0
  -25.1840  -13.8790   20.4980 C   0  0  0  0  0  0  0  0  0  0  0  0
  -24.1240  -13.1030   20.8730 C   0  0  0  0  0  0  0  0  0  0  0  0
  -24.5950  -11.7540   20.8570 C   0  0  0  0  0  0  0  0  0  0  0  0
  -26.2310  -13.0030   20.2650 N   0  0  0  0  0  0  0  0  0  0  0  0
  -25.8870  -11.7200   20.5500 N   0  0  0  0  0  0  0  0  0  0  0  0
  -23.8720  -10.4910   21.0540 C   0  0  0  0  0  0  0  0  0  0  0  0
  -24.3100   -9.5250   21.9860 C   0  0  0  0  0  3  0  0  0  0  0  0
  -23.5840   -8.3300   22.1730 C   0  0  0  0  0  3  0  0  0  0  0  0
  -22.4060   -8.0900   21.4260 C   0  0  0  0  0  0  0  0  0  0  0  0
  -21.9870   -9.0450   20.4820 C   0  0  0  0  0  3  0  0  0  0  0  0
  -22.7130  -10.2310   20.2930 C   0  0  0  0  0  3  0  0  0  0  0  0
  -21.6520   -6.9460   21.5220 O   0  0  0  0  0  0  0  0  0  0  0  0
  -21.6220   -6.1980   22.6720 C   0  0  0  0  0  0  0  0  0  0  0  0
  -21.2250   -6.7500   23.9090 C   0  0  0  0  0  3  0  0  0  0  0  0
  -21.1420   -5.9280   25.0510 C   0  0  0  0  0  3  0  0  0  0  0  0
  -21.4450   -4.5570   24.9580 C   0  0  0  0  0  0  0  0  0  0  0  0
  -21.8360   -4.0050   23.7250 C   0  0  0  0  0  3  0  0  0  0  0  0
  -21.9200   -4.8230   22.5840 C   0  0  0  0  0  0  0  0  0  0  0  0
  -22.2760   -4.2820   21.3950 F   0  0  0  0  0  0  0  0  0  0  0  0
  -21.3590   -3.7660   26.0530 F   0  0  0  0  0  0  0  0  0  0  0  0
  -22.7240  -13.5790   21.1320 C   0  0  0  0  0  0  0  0  0  0  0  0
  -21.9960  -12.8930   22.0040 N   0  0  0  0  0  0  0  0  0  0  0  0
  -22.2870  -14.5950   20.5950 O   0  0  0  0  0  0  0  0  0  0  0  0
  -22.3630  -12.0710   22.4610 H   0  0  0  0  0  0  0  0  0  0  0  0
  -21.0560  -13.1940   22.2220 H   0  0  0  0  0  0  0  0  0  0  0  0
  -25.3370  -15.2470   20.3050 N   0  0  0  0  0  0  0  0  0  0  0  0
  -24.5630  -15.8940   20.4110 H   0  0  0  0  0  0  0  0  0  0  0  0
  -26.1770  -15.6900   19.9570 H   0  0  0  0  0  0  0  0  0  0  0  0
  1  4  1  0
  2  1  2  0
  3  4  2  0
  3  8  1  0
  4 50  1  0
  5  3  1  0
  6  5  1  0
  7  2  1  0
  7  5  2  0
  8  9  1  0
 10 21  2  0
 11  9  1  0
 11 16  1  0
 12 20  1  0
 12 22  1  0
 13 19  1  0
 13 15  1  0
 14 20  1  0
 15 14  1  0
 16 15  2  0
 17 11  2  0
 18 17  1  0
 18 13  2  0
 19 12  1  0
 20 10  1  0
 22 24  2  0
 23 22  1  0
 25 23  1  0
 26 35  2  0
 26 31  1  0
 27 23  1  0
 27 31  1  0
 28 27  1  0
 29 30  1  0
 29 28  1  0
 30 26  1  0
 31 32  2  0
 32 33  1  0
 34 33  2  0
 35 34  1  0
 36 10  1  0
 36 37  1  0
 36 46  1  0
 37 40  1  0
 38 42  1  0
 38 37  1  0
 39 38  2  0
 42 41  1  0
 44 42  1  0
 44 45  1  0
 44 43  1  0
 46 49  1  1
 46 47  1  0
 48 46  1  0
 51 65  1  0
 52 57  1  0
 53 54  1  0
 53 52  1  0
 55 54  1  0
 55 69  1  0
 55 56  1  0
 57 51  1  0
 57 56  1  0
 58 51  2  0
 60 59  1  0
 60 65  1  0
 61 62  1  0
 62 64  1  0
 63 59  1  0
 63 50  1  0
 63 62  1  0
 65 61  1  0
 66 67  2  0
 67 86  1  0
 68 67  1  0
 68 71  1  0
 69 66  1  0
 69 70  1  0
 70 68  2  0
 71 72  1  0
 72 73  2  0
 74 77  1  0
 74 73  1  0
 75 74  2  0
 76 75  1  0
 76 71  2  0
 77 78  1  0
 78 79  1  0
 79 80  2  0
 81 80  1  0
 81 85  1  0
 82 81  2  0
 83 78  2  0
 83 82  1  0
 84 83  1  0
 86 87  1  0
 87 90  1  0
 87 89  1  0
 88 86  2  0
 91 92  1  0
 91 66  1  0
 93 91  1  0
M  ISO  4   8 101   9 101  51 100  65 100
M  END
>  <TORSDO>  (95) 
F 18

>  <SCORE>  (95) 
-14.863

>  <name>  (95) 
94

>  <ligand_id>  (95) 
94

>  <original_smiles>  (95) 
[H]c1nc(C([H])([H])[H])c(C([H])([H])Oc2c([H])c([H])c3c(c2[H])C([H])([H])N(C(=O)C([H])(N([H])C(=O)C([H])(N([H])C([H])([H])[H])C([H])([H])[H])C(C([H])([H])[H])(C([H])([H])[H])C([H])([H])[H])C([H])(C(=O)N([H])C2([H])c4c([H])c([H])c([H])c([H])c4C([H])([H])C([H])([H])C2([H])[H])C3([H])[H])c(OC2([H])C([H])([H])C([H])([H])N(C(=O)N3C([H])([H])C([H])([H])C([H])([H])C([H])(n4nc(-c5c([H])c([H])c(Oc6c([H])c([H])c(F)c([H])c6F)c([H])c5[H])c(C(=O)N([H])[H])c4N([H])[H])C3([H])[H])C([H])([H])C2([H])C([H])([H])[H])c1[H]

>  <smiles>  (95) 
[H]c1nc(C([H])([H])[H])c(C([H])([H])Oc2c([H])c([H])c3c(c2[H])C([H])([H])N(C(=O)C([H])(N([H])C(=O)C([H])(N([H])C([H])([H])[H])C([H])([H])[H])C(C([H])([H])[H])(C([H])([H])[H])C([H])([H])[H])C([H])(C(=O)N([H])C2([H])c4c([H])c([H])c([H])c([H])c4C([H])([H])C([H])([H])C2([H])[H])C3([H])[H])c(OC2([H])C([H])([H])C([H])([H])N(C(=O)N3C([H])([H])C([H])([H])C([H])([H])C([H])(n4nc(-c5c([H])c([H])c(Oc6c([H])c([H])c(F)c([H])c6F)c([H])c5[H])c(C(=O)N([H])[H])c4N([H])[H])C3([H])[H])C([H])([H])C2([H])C([H])([H])[H])c1[H]

$$$$
95:0:0
     RDKit          3D

 97106  0  0  1  0  0  0  0  0999 V2000
  -30.1670  -23.4550   19.7320 C   0  0  0  0  0  3  0  0  0  0  0  0
  -30.6010  -22.1330   20.0170 C   0  0  0  0  0  3  0  0  0  0  0  0
  -28.3430  -21.4730   20.4230 C   0  0  0  0  0  3  0  0  0  0  0  0
  -27.8790  -22.8140   20.1740 C   0  0  0  0  0  0  0  0  0  0  0  0
  -28.8020  -23.8460   19.7450 C   0  0  0  0  0  0  0  0  0  0  0  0
  -29.7010  -21.0860   20.3170 C   0  0  0  0  0  0  0  0  0  0  0  0
  -26.1100  -23.4450   21.8920 C   0  0  0  0  0  2  0  0  0  0  0  0
  -25.5620  -23.8900   19.5010 C   0  0  0  0  0  2  0  0  0  0  0  0
  -24.6050  -23.4650   22.2300 C   0  0  0  0  0  2  0  0  0  0  0  0
  -24.0620  -23.8730   19.8510 C   0  0  0  0  0  2  0  0  0  0  0  0
  -26.3710  -22.9910   20.4400 C   0  0  0  0  0  3  0  0  0  0  0  0
  -23.8320  -24.2700   21.2590 N   0  0  0  0  0  4  0  0  0  0  0  0
  -24.0620  -25.2450   21.3770 H   0  0  0  0  0  0  0  0  0  0  0  0
  -22.8510  -24.1700   21.4670 H   0  0  0  0  0  0  0  0  0  0  0  0
  -28.4500  -25.2100   19.0070 C   0  0  0  0  0  2  0  0  0  0  0  0
  -28.4380  -26.5510   19.6550 O   0  0  0  0  0  0  0  0  0  0  0  0
  -24.6060  -31.7150   22.9340 C   0  0  0  0  0  0  0  0  0  0  0  0
  -27.3050  -27.3930   19.5950 C   0  0  0  0  0  0  0  0  0  0  0  0
  -23.4170  -30.3490   21.2610 C   0  0  0  0  0  3  0  0  0  0  0  0
  -24.8870  -28.9410   19.7190 C   0  0  0  0  0  0  0  0  0  0  0  0
  -25.9400  -30.7660   21.0390 C   0  0  0  0  0  2  0  0  0  0  0  0
  -26.0530  -29.4240   20.3250 C   0  0  0  0  0  0  0  0  0  0  0  0
  -27.2570  -28.6570   20.2680 C   0  0  0  0  0  3  0  0  0  0  0  0
  -26.1150  -27.0010   18.9290 C   0  0  0  0  0  3  0  0  0  0  0  0
  -24.9220  -27.7360   19.0120 C   0  0  0  0  0  3  0  0  0  0  0  0
  -23.6190  -29.7600   19.8430 C   0  0  0  0  0  2  0  0  0  0  0  0
  -24.6750  -30.9570   21.8010 N   0  0  0  0  0  0  0  0  0  0  0  0
  -23.5260  -31.9250   23.5050 O   0  0  0  0  0  0  0  0  0  0  0  0
  -22.8200  -29.2570   22.1820 C   0  0  0  0  0  0  0  0  0  0  0  0
  -21.4960  -29.0490   22.0950 N   0  0  0  0  0  0  0  0  0  0  0  0
  -23.5470  -28.6020   22.9350 O   0  0  0  0  0  0  0  0  0  0  0  0
  -20.9670  -29.6290   21.4590 H   0  0  0  0  0  0  0  0  0  0  0  0
  -18.1690  -27.7510   22.6760 C   0  0  0  0  0  0  0  0  0  0  0  0
  -20.7330  -28.0490   22.8450 C   0  0  0  0  0  3  0  0  0  0  0  0
  -20.8340  -26.6580   22.1790 C   0  0  0  0  0  2  0  0  0  0  0  0
  -19.6920  -26.3710   21.1990 C   0  0  0  0  0  2  0  0  0  0  0  0
  -18.3390  -26.4480   21.9130 C   0  0  0  0  0  2  0  0  0  0  0  0
  -19.2930  -28.5100   23.1010 C   0  0  0  0  0  0  0  0  0  0  0  0
  -19.0780  -29.7300   23.7780 C   0  0  0  0  0  3  0  0  0  0  0  0
  -17.7730  -30.1920   24.0330 C   0  0  0  0  0  3  0  0  0  0  0  0
  -16.6650  -29.4300   23.6230 C   0  0  0  0  0  3  0  0  0  0  0  0
  -16.8640  -28.2110   22.9500 C   0  0  0  0  0  3  0  0  0  0  0  0
  -25.8780  -32.3690   23.5520 C   0  0  0  0  0  3  0  0  0  0  0  0
  -25.5140  -33.7250   23.9830 N   0  0  0  0  0  0  0  0  0  0  0  0
  -25.7990  -34.8440   23.3010 C   0  0  0  0  0  0  0  0  0  0  0  0
  -26.4680  -34.8410   22.2640 O   0  0  0  0  0  0  0  0  0  0  0  0
  -24.9130  -33.7960   24.7910 H   0  0  0  0  0  0  0  0  0  0  0  0
  -24.0000  -36.5880   23.0770 C   0  0  0  0  0  1  0  0  0  0  0  0
  -25.2570  -36.1730   23.8580 C   0  0  0  0  0  3  0  0  0  0  0  0
  -27.3600  -37.0740   24.7520 C   0  0  0  0  0  1  0  0  0  0  0  0
  -26.2480  -37.2720   23.8260 N   0  0  0  0  0  0  0  0  0  0  0  0
  -25.8080  -38.1610   24.0440 H   0  0  0  0  0  0  0  0  0  0  0  0
  -26.4730  -31.5450   24.7580 C   0  0  1  0  0  0  0  0  0  0  0  0
  -25.4290  -31.1950   25.8440 C   0  0  0  0  0  1  0  0  0  0  0  0
  -27.1010  -30.2210   24.2640 C   0  0  0  0  0  1  0  0  0  0  0  0
  -27.6140  -32.3470   25.4280 C   0  0  0  0  0  1  0  0  0  0  0  0
  -30.2330  -19.7970   20.5250 O   0  0  0  0  0  0  0  0  0  0  0  0
  -29.4540  -18.5570   20.5520 C   0  0  0  0  0  2  0  0  0  0  0  0
  -30.4100  -17.2870   20.6780 C   0  0  0  0  0  2  0  0  0  0  0  0
  -30.5560  -14.7620   20.3260 C   0  0  0  0  0  0  0  0  0  0  0  0
  -30.2810  -12.5440   19.2440 C   0  0  0  0  0  2  0  0  0  0  0  0
  -29.3240  -12.6620   18.0400 C   0  0  0  0  0  2  0  0  0  0  0  0
  -27.8620  -12.4900   18.4970 C   0  0  0  0  0  2  0  0  0  0  0  0
  -27.5160  -13.3640   19.7310 C   0  0  0  0  0  3  0  0  0  0  0  0
  -28.5900  -13.2410   20.8350 C   0  0  0  0  0  2  0  0  0  0  0  0
  -29.8870  -13.5710   20.2320 N   0  0  0  0  0  0  0  0  0  0  0  0
  -31.7180  -14.8720   19.9340 O   0  0  0  0  0  0  0  0  0  0  0  0
  -29.8510  -15.8840   20.6760 N   0  0  0  0  0  0  0  0  0  0  0  0
  -28.8810  -15.7580   20.9250 H   0  0  0  0  0  0  0  0  0  0  0  0
  -25.1280  -13.9430   20.4740 C   0  0  0  0  0  0  0  0  0  0  0  0
  -24.0700  -13.1610   20.8500 C   0  0  0  0  0  0  0  0  0  0  0  0
  -24.5420  -11.8130   20.8130 C   0  0  0  0  0  0  0  0  0  0  0  0
  -26.1770  -13.0710   20.2310 N   0  0  0  0  0  0  0  0  0  0  0  0
  -25.8300  -11.7840   20.4960 N   0  0  0  0  0  0  0  0  0  0  0  0
  -23.8260  -10.5450   21.0030 C   0  0  0  0  0  0  0  0  0  0  0  0
  -24.2920   -9.5610   21.9020 C   0  0  0  0  0  3  0  0  0  0  0  0
  -23.5750   -8.3580   22.0810 C   0  0  0  0  0  3  0  0  0  0  0  0
  -22.3780   -8.1310   21.3620 C   0  0  0  0  0  0  0  0  0  0  0  0
  -21.9320   -9.1040   20.4500 C   0  0  0  0  0  3  0  0  0  0  0  0
  -22.6490  -10.2980   20.2690 C   0  0  0  0  0  3  0  0  0  0  0  0
  -21.6290   -6.9820   21.4530 O   0  0  0  0  0  0  0  0  0  0  0  0
  -21.6520   -6.1970   22.5780 C   0  0  0  0  0  0  0  0  0  0  0  0
  -21.3210   -6.7110   23.8520 C   0  0  0  0  0  3  0  0  0  0  0  0
  -21.2890   -5.8520   24.9700 C   0  0  0  0  0  3  0  0  0  0  0  0
  -21.5770   -4.4840   24.8160 C   0  0  0  0  0  0  0  0  0  0  0  0
  -21.9010   -3.9700   23.5480 C   0  0  0  0  0  3  0  0  0  0  0  0
  -21.9360   -4.8250   22.4320 C   0  0  0  0  0  0  0  0  0  0  0  0
  -22.2280   -4.3200   21.2100 F   0  0  0  0  0  0  0  0  0  0  0  0
  -21.5390   -3.6590   25.8890 F   0  0  0  0  0  0  0  0  0  0  0  0
  -22.6720  -13.6280   21.1310 C   0  0  0  0  0  0  0  0  0  0  0  0
  -21.9570  -12.9300   22.0070 N   0  0  0  0  0  0  0  0  0  0  0  0
  -22.2220  -14.6490   20.6130 O   0  0  0  0  0  0  0  0  0  0  0  0
  -22.3310  -12.1020   22.4470 H   0  0  0  0  0  0  0  0  0  0  0  0
  -21.0230  -13.2320   22.2430 H   0  0  0  0  0  0  0  0  0  0  0  0
  -25.2800  -15.3150   20.2970 N   0  0  0  0  0  0  0  0  0  0  0  0
  -24.5050  -15.9580   20.4130 H   0  0  0  0  0  0  0  0  0  0  0  0
  -26.1130  -15.7600   19.9320 H   0  0  0  0  0  0  0  0  0  0  0  0
  1  5  2  0
  1  2  1  0
  2  6  2  0
  4  3  2  0
  4 11  1  0
  5  4  1  0
  6  3  1  0
  6 57  1  0
  7  9  1  0
  8 10  1  0
  8 11  1  0
 10 12  1  0
 11  7  1  0
 12 13  1  0
 12 14  1  0
 12  9  1  0
 15 16  1  0
 15  5  1  0
 17 28  2  0
 18 16  1  0
 18 23  1  0
 19 27  1  0
 19 29  1  0
 20 26  1  0
 20 22  1  0
 21 27  1  0
 22 21  1  0
 23 22  2  0
 24 25  1  0
 24 18  2  0
 25 20  2  0
 26 19  1  0
 27 17  1  0
 29 31  2  0
 30 29  1  0
 32 30  1  0
 33 42  2  0
 33 38  1  0
 34 30  1  0
 34 38  1  0
 35 34  1  0
 36 37  1  0
 36 35  1  0
 37 33  1  0
 38 39  2  0
 39 40  1  0
 41 40  2  0
 42 41  1  0
 43 17  1  0
 43 44  1  0
 43 53  1  0
 44 47  1  0
 45 49  1  0
 45 44  1  0
 46 45  2  0
 49 48  1  0
 51 49  1  0
 51 52  1  0
 51 50  1  0
 53 56  1  1
 53 54  1  0
 55 53  1  0
 57 58  1  0
 58 59  1  0
 60 68  1  0
 61 66  1  0
 62 63  1  0
 62 61  1  0
 64 63  1  0
 64 73  1  0
 64 65  1  0
 66 60  1  0
 66 65  1  0
 67 60  2  0
 68 59  1  0
 68 69  1  0
 70 71  2  0
 71 90  1  0
 72 71  1  0
 72 75  1  0
 73 70  1  0
 73 74  1  0
 74 72  2  0
 75 76  1  0
 76 77  2  0
 78 81  1  0
 78 77  1  0
 79 78  2  0
 80 79  1  0
 80 75  2  0
 81 82  1  0
 82 83  1  0
 83 84  2  0
 85 84  1  0
 85 89  1  0
 86 85  2  0
 87 82  2  0
 87 86  1  0
 88 87  1  0
 90 91  1  0
 91 94  1  0
 91 93  1  0
 92 90  2  0
 95 96  1  0
 95 70  1  0
 97 95  1  0
M  ISO  4  15 101  16 101  60 100  68 100
M  END
>  <TORSDO>  (96) 
F 21

>  <SCORE>  (96) 
-13.127

>  <name>  (96) 
95

>  <ligand_id>  (96) 
95

>  <original_smiles>  (96) 
[H]c1c([H])c([H])c2c(c1[H])C([H])([H])C([H])([H])C([H])([H])C2([H])N([H])C(=O)C1([H])N(C(=O)C([H])(N([H])C(=O)C([H])(N([H])C([H])([H])[H])C([H])([H])[H])C(C([H])([H])[H])(C([H])([H])[H])C([H])([H])[H])C([H])([H])c2c([H])c(OC([H])([H])c3c([H])c([H])c(OC([H])([H])C([H])([H])N([H])C(=O)N4C([H])([H])C([H])([H])C([H])([H])C([H])(n5nc(-c6c([H])c([H])c(Oc7c([H])c([H])c(F)c([H])c7F)c([H])c6[H])c(C(=O)N([H])[H])c5N([H])[H])C4([H])[H])c([H])c3C3([H])C([H])([H])C([H])([H])[N+]([H])([H])C([H])([H])C3([H])[H])c([H])c([H])c2C1([H])[H]

>  <smiles>  (96) 
[H]c1c([H])c([H])c2c(c1[H])C([H])([H])C([H])([H])C([H])([H])C2([H])N([H])C(=O)C1([H])N(C(=O)C([H])(N([H])C(=O)C([H])(N([H])C([H])([H])[H])C([H])([H])[H])C(C([H])([H])[H])(C([H])([H])[H])C([H])([H])[H])C([H])([H])c2c([H])c(OC([H])([H])c3c([H])c([H])c(OC([H])([H])C([H])([H])N([H])C(=O)N4C([H])([H])C([H])([H])C([H])([H])C([H])(n5nc(-c6c([H])c([H])c(Oc7c([H])c([H])c(F)c([H])c7F)c([H])c6[H])c(C(=O)N([H])[H])c5N([H])[H])C4([H])[H])c([H])c3C3([H])C([H])([H])C([H])([H])[N+]([H])([H])C([H])([H])C3([H])[H])c([H])c([H])c2C1([H])[H]

$$$$
96:0:0
     RDKit          3D

 94103  0  0  1  0  0  0  0  0999 V2000
  -29.4200  -23.0420   21.8330 C   0  0  0  0  0  3  0  0  0  0  0  0
  -29.9510  -20.6600   21.7420 C   0  0  0  0  0  3  0  0  0  0  0  0
  -28.5980  -21.6780   19.9910 C   0  0  0  0  0  3  0  0  0  0  0  0
  -30.0490  -21.9100   22.3910 C   0  0  0  0  0  0  0  0  0  0  0  0
  -28.6780  -22.9440   20.6420 C   0  0  0  0  0  0  0  0  0  0  0  0
  -29.2300  -20.5210   20.5360 C   0  0  0  0  0  0  0  0  0  0  0  0
  -30.4180  -21.2580   24.8990 C   0  0  0  0  0  2  0  0  0  0  0  0
  -30.2520  -22.7600   24.8670 C   0  0  0  0  0  2  0  0  0  0  0  0
  -30.8210  -22.0340   23.6690 C   0  0  0  0  0  3  0  0  0  0  0  0
  -29.1530  -19.2750   19.8640 N   0  0  0  0  0  0  0  0  0  0  0  0
  -28.6480  -19.2880   18.9790 H   0  0  0  0  0  0  0  0  0  0  0  0
  -29.1160  -17.9770   20.5720 C   0  0  0  0  0  2  0  0  0  0  0  0
  -30.1810  -16.9440   20.0760 C   0  0  0  0  0  2  0  0  0  0  0  0
  -30.5970  -14.4630   19.9840 C   0  0  0  0  0  0  0  0  0  0  0  0
  -30.2850  -12.2440   18.9500 C   0  0  0  0  0  2  0  0  0  0  0  0
  -29.2820  -12.3860   17.7860 C   0  0  0  0  0  2  0  0  0  0  0  0
  -27.8320  -12.2540   18.2950 C   0  0  0  0  0  2  0  0  0  0  0  0
  -27.5500  -13.1300   19.5480 C   0  0  0  0  0  3  0  0  0  0  0  0
  -28.6640  -12.9650   20.6070 C   0  0  0  0  0  2  0  0  0  0  0  0
  -29.9480  -13.2660   19.9550 N   0  0  0  0  0  0  0  0  0  0  0  0
  -31.7170  -14.6200   19.4910 O   0  0  0  0  0  0  0  0  0  0  0  0
  -29.8590  -15.5280   20.3760 N   0  0  0  0  0  0  0  0  0  0  0  0
  -28.9420  -15.3280   20.7450 H   0  0  0  0  0  0  0  0  0  0  0  0
  -25.2080  -13.7470   20.4100 C   0  0  0  0  0  0  0  0  0  0  0  0
  -24.1590  -12.9800   20.8390 C   0  0  0  0  0  0  0  0  0  0  0  0
  -24.6070  -11.6250   20.7720 C   0  0  0  0  0  0  0  0  0  0  0  0
  -26.2290  -12.8590   20.1070 N   0  0  0  0  0  0  0  0  0  0  0  0
  -25.8750  -11.5780   20.3830 N   0  0  0  0  0  0  0  0  0  0  0  0
  -23.8840  -10.3670   20.9960 C   0  0  0  0  0  0  0  0  0  0  0  0
  -24.3440   -9.4070   21.9230 C   0  0  0  0  0  3  0  0  0  0  0  0
  -23.6230   -8.2140   22.1350 C   0  0  0  0  0  3  0  0  0  0  0  0
  -22.4250   -7.9710   21.4200 C   0  0  0  0  0  0  0  0  0  0  0  0
  -21.9850   -8.9190   20.4800 C   0  0  0  0  0  3  0  0  0  0  0  0
  -22.7080  -10.1050   20.2660 C   0  0  0  0  0  3  0  0  0  0  0  0
  -21.6720   -6.8290   21.5410 O   0  0  0  0  0  0  0  0  0  0  0  0
  -21.6380   -6.1110   22.7110 C   0  0  0  0  0  0  0  0  0  0  0  0
  -21.2240   -6.6890   23.9300 C   0  0  0  0  0  3  0  0  0  0  0  0
  -21.1350   -5.8960   25.0920 C   0  0  0  0  0  3  0  0  0  0  0  0
  -21.4540   -4.5260   25.0350 C   0  0  0  0  0  0  0  0  0  0  0  0
  -21.8610   -3.9470   23.8190 C   0  0  0  0  0  3  0  0  0  0  0  0
  -21.9500   -4.7370   22.6610 C   0  0  0  0  0  0  0  0  0  0  0  0
  -22.3230   -4.1680   21.4890 F   0  0  0  0  0  0  0  0  0  0  0  0
  -21.3620   -3.7610   26.1480 F   0  0  0  0  0  0  0  0  0  0  0  0
  -22.7840  -13.4660   21.1970 C   0  0  0  0  0  0  0  0  0  0  0  0
  -22.1020  -12.7690   22.0980 N   0  0  0  0  0  0  0  0  0  0  0  0
  -22.3250  -14.5000   20.7100 O   0  0  0  0  0  0  0  0  0  0  0  0
  -22.4880  -11.9340   22.5140 H   0  0  0  0  0  0  0  0  0  0  0  0
  -21.1810  -13.0760   22.3770 H   0  0  0  0  0  0  0  0  0  0  0  0
  -25.3730  -15.1180   20.2330 N   0  0  0  0  0  0  0  0  0  0  0  0
  -24.6140  -15.7730   20.3840 H   0  0  0  0  0  0  0  0  0  0  0  0
  -26.1920  -15.5520   19.8260 H   0  0  0  0  0  0  0  0  0  0  0  0
  -27.9090  -24.1890   20.1480 C   0  0  0  0  0  2  0  0  0  0  0  0
  -28.7600  -25.3690   19.5730 C   0  0  0  0  0  2  0  0  0  0  0  0
  -28.6150  -26.6650   20.2070 O   0  0  0  0  0  0  0  0  0  0  0  0
  -24.6580  -31.7780   23.2160 C   0  0  0  0  0  0  0  0  0  0  0  0
  -27.4310  -27.3820   20.1380 C   0  0  0  0  0  0  0  0  0  0  0  0
  -23.5160  -30.3940   21.5140 C   0  0  0  0  0  3  0  0  0  0  0  0
  -25.0250  -28.8920   20.1040 C   0  0  0  0  0  0  0  0  0  0  0  0
  -26.0460  -30.7690   21.4030 C   0  0  0  0  0  2  0  0  0  0  0  0
  -26.1620  -29.4090   20.7370 C   0  0  0  0  0  0  0  0  0  0  0  0
  -27.3640  -28.6610   20.7500 C   0  0  0  0  0  3  0  0  0  0  0  0
  -26.2730  -26.8880   19.4980 C   0  0  0  0  0  3  0  0  0  0  0  0
  -25.0770  -27.6320   19.4840 C   0  0  0  0  0  3  0  0  0  0  0  0
  -23.7720  -29.7410   20.1300 C   0  0  0  0  0  2  0  0  0  0  0  0
  -24.7570  -30.9960   22.1020 N   0  0  0  0  0  0  0  0  0  0  0  0
  -23.5580  -32.0300   23.7260 O   0  0  0  0  0  0  0  0  0  0  0  0
  -22.8480  -29.3500   22.4370 C   0  0  0  0  0  0  0  0  0  0  0  0
  -21.5290  -29.1590   22.2700 N   0  0  0  0  0  0  0  0  0  0  0  0
  -23.5140  -28.7160   23.2610 O   0  0  0  0  0  0  0  0  0  0  0  0
  -21.0530  -29.7210   21.5770 H   0  0  0  0  0  0  0  0  0  0  0  0
  -18.1500  -27.9430   22.6670 C   0  0  0  0  0  0  0  0  0  0  0  0
  -20.7000  -28.1990   22.9990 C   0  0  0  0  0  3  0  0  0  0  0  0
  -20.8190  -26.7840   22.3860 C   0  0  0  0  0  2  0  0  0  0  0  0
  -19.7390  -26.4870   21.3400 C   0  0  0  0  0  2  0  0  0  0  0  0
  -18.3440  -26.6120   21.9590 C   0  0  0  0  0  2  0  0  0  0  0  0
  -19.2570  -28.6960   23.1410 C   0  0  0  0  0  0  0  0  0  0  0  0
  -19.0220  -29.9430   23.7600 C   0  0  0  0  0  3  0  0  0  0  0  0
  -17.7140  -30.4380   23.9100 C   0  0  0  0  0  3  0  0  0  0  0  0
  -16.6200  -29.6820   23.4530 C   0  0  0  0  0  3  0  0  0  0  0  0
  -16.8390  -28.4360   22.8390 C   0  0  0  0  0  3  0  0  0  0  0  0
  -25.9180  -32.4090   23.8860 C   0  0  0  0  0  3  0  0  0  0  0  0
  -25.5950  -33.8050   24.2110 N   0  0  0  0  0  0  0  0  0  0  0  0
  -25.9450  -34.8610   23.4620 C   0  0  0  0  0  0  0  0  0  0  0  0
  -26.6450  -34.7620   22.4510 O   0  0  0  0  0  0  0  0  0  0  0  0
  -24.9780  -33.9560   24.9950 H   0  0  0  0  0  0  0  0  0  0  0  0
  -24.2110  -36.6380   23.0680 C   0  0  0  0  0  1  0  0  0  0  0  0
  -25.4370  -36.2440   23.9080 C   0  0  0  0  0  3  0  0  0  0  0  0
  -27.5430  -37.1490   24.7900 C   0  0  0  0  0  1  0  0  0  0  0  0
  -26.4640  -37.3040   23.8150 N   0  0  0  0  0  0  0  0  0  0  0  0
  -26.0490  -38.2230   23.9450 H   0  0  0  0  0  0  0  0  0  0  0  0
  -26.3940  -31.6340   25.1760 C   0  0  1  0  0  0  0  0  0  0  0  0
  -25.2630  -31.3830   26.2000 C   0  0  0  0  0  1  0  0  0  0  0  0
  -26.9990  -30.2620   24.7950 C   0  0  0  0  0  1  0  0  0  0  0  0
  -27.5170  -32.4300   25.8820 C   0  0  0  0  0  1  0  0  0  0  0  0
  1  4  1  0
  2  4  2  0
  3  6  2  0
  3  5  1  0
  4  9  1  0
  5  1  2  0
  6  2  1  0
  8  7  1  0
  9  8  1  0
  9  7  1  0
 10  6  1  0
 10 12  1  0
 11 10  1  0
 13 22  1  0
 13 12  1  0
 14 22  1  0
 15 20  1  0
 16 17  1  0
 16 15  1  0
 18 17  1  0
 18 27  1  0
 18 19  1  0
 20 14  1  0
 20 19  1  0
 21 14  2  0
 22 23  1  0
 24 25  2  0
 25 44  1  0
 26 25  1  0
 26 29  1  0
 27 28  1  0
 27 24  1  0
 28 26  2  0
 29 30  1  0
 30 31  2  0
 32 35  1  0
 32 31  1  0
 33 32  2  0
 34 33  1  0
 34 29  2  0
 35 36  1  0
 36 37  1  0
 37 38  2  0
 39 38  1  0
 39 43  1  0
 40 39  2  0
 41 36  2  0
 41 40  1  0
 42 41  1  0
 44 45  1  0
 45 48  1  0
 45 47  1  0
 46 44  2  0
 49 50  1  0
 49 24  1  0
 51 49  1  0
 52  5  1  0
 53 52  1  0
 53 54  1  0
 55 66  2  0
 56 54  1  0
 56 61  1  0
 57 65  1  0
 57 67  1  0
 58 64  1  0
 58 60  1  0
 59 65  1  0
 60 61  2  0
 60 59  1  0
 62 56  2  0
 63 62  1  0
 63 58  2  0
 64 57  1  0
 65 55  1  0
 67 69  2  0
 68 67  1  0
 70 68  1  0
 71 80  2  0
 71 76  1  0
 72 68  1  0
 72 76  1  0
 73 72  1  0
 74 75  1  0
 74 73  1  0
 75 71  1  0
 76 77  2  0
 77 78  1  0
 79 78  2  0
 80 79  1  0
 81 55  1  0
 81 82  1  0
 81 91  1  0
 82 85  1  0
 83 87  1  0
 83 82  1  0
 84 83  2  0
 87 86  1  0
 89 87  1  0
 89 90  1  0
 89 88  1  0
 91 94  1  1
 91 92  1  0
 93 91  1  0
M  ISO  4  14 100  22 100  53 101  54 101
M  END
>  <TORSDO>  (97) 
F 22

>  <SCORE>  (97) 
-12.988

>  <name>  (97) 
96

>  <ligand_id>  (97) 
96

>  <original_smiles>  (97) 
[H]c1c([H])c([H])c2c(c1[H])C([H])([H])C([H])([H])C([H])([H])C2([H])N([H])C(=O)C1([H])N(C(=O)C([H])(N([H])C(=O)C([H])(N([H])C([H])([H])[H])C([H])([H])[H])C(C([H])([H])[H])(C([H])([H])[H])C([H])([H])[H])C([H])([H])c2c([H])c(OC([H])([H])C([H])([H])c3c([H])c(N([H])C([H])([H])C([H])([H])N([H])C(=O)N4C([H])([H])C([H])([H])C([H])([H])C([H])(n5nc(-c6c([H])c([H])c(Oc7c([H])c([H])c(F)c([H])c7F)c([H])c6[H])c(C(=O)N([H])[H])c5N([H])[H])C4([H])[H])c([H])c(C4([H])C([H])([H])C4([H])[H])c3[H])c([H])c([H])c2C1([H])[H]

>  <smiles>  (97) 
[H]c1c([H])c([H])c2c(c1[H])C([H])([H])C([H])([H])C([H])([H])C2([H])N([H])C(=O)C1([H])N(C(=O)C([H])(N([H])C(=O)C([H])(N([H])C([H])([H])[H])C([H])([H])[H])C(C([H])([H])[H])(C([H])([H])[H])C([H])([H])[H])C([H])([H])c2c([H])c(OC([H])([H])C([H])([H])c3c([H])c(N([H])C([H])([H])C([H])([H])N([H])C(=O)N4C([H])([H])C([H])([H])C([H])([H])C([H])(n5nc(-c6c([H])c([H])c(Oc7c([H])c([H])c(F)c([H])c7F)c([H])c6[H])c(C(=O)N([H])[H])c5N([H])[H])C4([H])[H])c([H])c(C4([H])C([H])([H])C4([H])[H])c3[H])c([H])c([H])c2C1([H])[H]

$$$$
97:0:0
     RDKit          3D

 95104  0  0  1  0  0  0  0  0999 V2000
  -29.6080  -19.7290   21.1250 C   0  0  0  0  0  2  0  0  0  0  0  0
  -28.9760  -20.3820   22.3480 C   0  0  0  0  0  2  0  0  0  0  0  0
  -29.1100  -22.6170   21.3780 C   0  0  0  0  0  2  0  0  0  0  0  0
  -29.3840  -20.4770   19.7920 C   0  0  0  0  0  3  0  0  0  0  0  0
  -29.6730  -22.1980   19.9850 C   0  0  0  0  0  3  0  0  0  0  0  0
  -29.4990  -21.7420   22.4980 N   0  0  0  0  0  4  0  0  0  0  0  0
  -30.5030  -21.7140   22.5910 H   0  0  0  0  0  0  0  0  0  0  0  0
  -29.1320  -22.1290   23.3530 H   0  0  0  0  0  0  0  0  0  0  0  0
  -31.0320  -19.7940   16.4370 C   0  0  0  0  0  3  0  0  0  0  0  0
  -31.1820  -18.4240   16.2740 C   0  0  0  0  0  3  0  0  0  0  0  0
  -30.4830  -20.2830   17.6240 C   0  0  0  0  0  3  0  0  0  0  0  0
  -30.8220  -17.5530   17.3090 C   0  0  0  0  0  3  0  0  0  0  0  0
  -30.0730  -19.4680   18.7080 C   0  0  0  0  0  0  0  0  0  0  0  0
  -30.3050  -17.9450   18.5820 C   0  0  0  0  0  0  0  0  0  0  0  0
  -30.8080  -15.4370   19.5200 C   0  0  0  0  0  0  0  0  0  0  0  0
  -30.7220  -12.9740   18.9340 C   0  0  0  0  0  2  0  0  0  0  0  0
  -29.7540  -12.7160   17.7580 C   0  0  0  0  0  2  0  0  0  0  0  0
  -28.3250  -12.5000   18.2860 C   0  0  0  0  0  2  0  0  0  0  0  0
  -27.9160  -13.5600   19.3420 C   0  0  0  0  0  3  0  0  0  0  0  0
  -29.0100  -13.8010   20.4030 C   0  0  0  0  0  2  0  0  0  0  0  0
  -30.2270  -14.1750   19.6750 N   0  0  0  0  0  0  0  0  0  0  0  0
  -32.0210  -15.4270   19.2790 O   0  0  0  0  0  0  0  0  0  0  0  0
  -30.0520  -16.6670   19.4310 N   0  0  0  0  0  0  0  0  0  0  0  0
  -29.1280  -16.6040   19.8320 H   0  0  0  0  0  0  0  0  0  0  0  0
  -25.6330  -14.1590   20.3260 C   0  0  0  0  0  0  0  0  0  0  0  0
  -24.5790  -13.3950   20.7430 C   0  0  0  0  0  0  0  0  0  0  0  0
  -24.9930  -12.0340   20.5950 C   0  0  0  0  0  0  0  0  0  0  0  0
  -26.6190  -13.2670   19.9440 N   0  0  0  0  0  0  0  0  0  0  0  0
  -26.2520  -11.9790   20.1730 N   0  0  0  0  0  0  0  0  0  0  0  0
  -24.2410  -10.7850   20.7760 C   0  0  0  0  0  0  0  0  0  0  0  0
  -24.6760   -9.7810   21.6670 C   0  0  0  0  0  3  0  0  0  0  0  0
  -23.9240   -8.5990   21.8390 C   0  0  0  0  0  3  0  0  0  0  0  0
  -22.7180   -8.4150   21.1200 C   0  0  0  0  0  0  0  0  0  0  0  0
  -22.3000   -9.4080   20.2170 C   0  0  0  0  0  3  0  0  0  0  0  0
  -23.0540  -10.5810   20.0420 C   0  0  0  0  0  3  0  0  0  0  0  0
  -21.9350   -7.2890   21.2030 O   0  0  0  0  0  0  0  0  0  0  0  0
  -21.8760   -6.5360   22.3480 C   0  0  0  0  0  0  0  0  0  0  0  0
  -21.4300   -7.0790   23.5730 C   0  0  0  0  0  3  0  0  0  0  0  0
  -21.3160   -6.2530   24.7090 C   0  0  0  0  0  3  0  0  0  0  0  0
  -21.6410   -4.8860   24.6230 C   0  0  0  0  0  0  0  0  0  0  0  0
  -22.0810   -4.3430   23.4020 C   0  0  0  0  0  3  0  0  0  0  0  0
  -22.1970   -5.1660   22.2680 C   0  0  0  0  0  0  0  0  0  0  0  0
  -22.6000   -4.6330   21.0900 F   0  0  0  0  0  0  0  0  0  0  0  0
  -21.5250   -4.0900   25.7100 F   0  0  0  0  0  0  0  0  0  0  0  0
  -23.2270  -13.8990   21.1550 C   0  0  0  0  0  0  0  0  0  0  0  0
  -22.5460  -13.1780   22.0380 N   0  0  0  0  0  0  0  0  0  0  0  0
  -22.7870  -14.9660   20.7290 O   0  0  0  0  0  0  0  0  0  0  0  0
  -22.9160  -12.3140   22.4060 H   0  0  0  0  0  0  0  0  0  0  0  0
  -21.6410  -13.4960   22.3530 H   0  0  0  0  0  0  0  0  0  0  0  0
  -25.8260  -15.5330   20.2120 N   0  0  0  0  0  0  0  0  0  0  0  0
  -25.0840  -16.1950   20.4110 H   0  0  0  0  0  0  0  0  0  0  0  0
  -26.6380  -15.9660   19.7930 H   0  0  0  0  0  0  0  0  0  0  0  0
  -29.2860  -23.5740   19.0280 C   0  0  0  0  0  3  0  0  0  0  0  0
  -28.7470  -25.1050   19.6090 C   0  0  0  0  0  3  0  0  0  0  0  0
  -28.6160  -26.5300   18.9610 O   0  0  0  0  0  0  0  0  0  0  0  0
  -24.6420  -31.4740   22.8030 C   0  0  0  0  0  0  0  0  0  0  0  0
  -27.4690  -27.3920   19.1360 C   0  0  0  0  0  0  0  0  0  0  0  0
  -23.4860  -30.1530   21.0740 C   0  0  0  0  0  3  0  0  0  0  0  0
  -24.9900  -28.8960   19.4110 C   0  0  0  0  0  0  0  0  0  0  0  0
  -25.9890  -30.6930   20.8140 C   0  0  0  0  0  2  0  0  0  0  0  0
  -26.1570  -29.3920   20.0060 C   0  0  0  0  0  0  0  0  0  0  0  0
  -27.3980  -28.6620   19.8450 C   0  0  0  0  0  3  0  0  0  0  0  0
  -26.2640  -26.9970   18.5200 C   0  0  0  0  0  3  0  0  0  0  0  0
  -25.0550  -27.7160   18.6510 C   0  0  0  0  0  3  0  0  0  0  0  0
  -23.6890  -29.6570   19.6190 C   0  0  0  0  0  2  0  0  0  0  0  0
  -24.7270  -30.7920   21.6200 N   0  0  0  0  0  0  0  0  0  0  0  0
  -23.5680  -31.5840   23.4140 O   0  0  0  0  0  0  0  0  0  0  0  0
  -22.9660  -28.9820   21.9460 C   0  0  0  0  0  0  0  0  0  0  0  0
  -21.6700  -28.6480   21.8170 N   0  0  0  0  0  0  0  0  0  0  0  0
  -23.7330  -28.3800   22.7020 O   0  0  0  0  0  0  0  0  0  0  0  0
  -21.1010  -29.1940   21.1850 H   0  0  0  0  0  0  0  0  0  0  0  0
  -18.5010  -26.9340   22.2020 C   0  0  0  0  0  0  0  0  0  0  0  0
  -20.9960  -27.5430   22.5040 C   0  0  0  0  0  3  0  0  0  0  0  0
  -21.3020  -26.1920   21.8160 C   0  0  0  0  0  2  0  0  0  0  0  0
  -20.2520  -25.7950   20.7730 C   0  0  0  0  0  2  0  0  0  0  0  0
  -18.8680  -25.6850   21.4190 C   0  0  0  0  0  2  0  0  0  0  0  0
  -19.4990  -27.8140   22.6990 C   0  0  0  0  0  0  0  0  0  0  0  0
  -19.1010  -28.9770   23.3940 C   0  0  0  0  0  3  0  0  0  0  0  0
  -17.7390  -29.2660   23.5940 C   0  0  0  0  0  3  0  0  0  0  0  0
  -16.7550  -28.3840   23.1130 C   0  0  0  0  0  3  0  0  0  0  0  0
  -17.1370  -27.2190   22.4240 C   0  0  0  0  0  3  0  0  0  0  0  0
  -25.8880  -32.1660   23.4390 C   0  0  0  0  0  3  0  0  0  0  0  0
  -26.5360  -31.3230   24.6060 C   0  0  1  0  0  0  0  0  0  0  0  0
  -25.5260  -30.8840   25.6930 C   0  0  0  0  0  1  0  0  0  0  0  0
  -27.2130  -30.0490   24.0530 C   0  0  0  0  0  1  0  0  0  0  0  0
  -27.6490  -32.1500   25.2910 C   0  0  0  0  0  1  0  0  0  0  0  0
  -25.4650  -33.4860   23.9350 N   0  0  0  0  0  0  0  0  0  0  0  0
  -25.6880  -34.6470   23.3050 C   0  0  0  0  0  0  0  0  0  0  0  0
  -26.3360  -34.7240   22.2590 O   0  0  0  0  0  0  0  0  0  0  0  0
  -24.8800  -33.4920   24.7580 H   0  0  0  0  0  0  0  0  0  0  0  0
  -23.8080  -36.3170   23.2000 C   0  0  0  0  0  1  0  0  0  0  0  0
  -25.0990  -35.9260   23.9350 C   0  0  0  0  0  3  0  0  0  0  0  0
  -27.1690  -36.8900   24.8380 C   0  0  0  0  0  1  0  0  0  0  0  0
  -26.0380  -37.0690   23.9330 N   0  0  0  0  0  0  0  0  0  0  0  0
  -25.5590  -37.9290   24.1900 H   0  0  0  0  0  0  0  0  0  0  0  0
  1  2  1  0
  2  6  1  0
  3  6  1  0
  4 13  1  0
  4  5  1  0
  4  1  1  0
  5 53  1  0
  5  3  1  0
  6  7  1  0
  6  8  1  0
  9 11  1  0
 10  9  2  0
 10 12  1  0
 11 13  2  0
 12 14  2  0
 14 13  1  0
 14 23  1  0
 15 21  1  0
 16 21  1  0
 17 18  1  0
 17 16  1  0
 19 18  1  0
 19 28  1  0
 19 20  1  0
 21 20  1  0
 22 15  2  0
 23 15  1  0
 23 24  1  0
 25 26  2  0
 26 45  1  0
 27 26  1  0
 27 30  1  0
 28 29  1  0
 28 25  1  0
 29 27  2  0
 30 31  1  0
 31 32  2  0
 33 36  1  0
 33 32  1  0
 34 33  2  0
 35 34  1  0
 35 30  2  0
 36 37  1  0
 37 38  1  0
 38 39  2  0
 40 39  1  0
 40 44  1  0
 41 40  2  0
 42 37  2  0
 42 41  1  0
 43 42  1  0
 45 46  1  0
 46 49  1  0
 46 48  1  0
 47 45  2  0
 50 25  1  0
 50 51  1  0
 52 50  1  0
 53 54  2  0
 55 57  1  0
 55 54  1  0
 56 67  2  0
 57 62  1  0
 58 66  1  0
 58 68  1  0
 59 65  1  0
 59 61  1  0
 60 66  1  0
 61 60  1  0
 62 61  2  0
 63 64  1  0
 63 57  2  0
 64 59  2  0
 65 58  1  0
 66 56  1  0
 68 70  2  0
 69 68  1  0
 71 69  1  0
 72 81  2  0
 72 77  1  0
 73 69  1  0
 73 77  1  0
 74 73  1  0
 75 76  1  0
 75 74  1  0
 76 72  1  0
 77 78  2  0
 78 79  1  0
 80 79  2  0
 81 80  1  0
 82 56  1  0
 82 87  1  0
 82 83  1  0
 83 86  1  1
 83 84  1  0
 85 83  1  0
 87 90  1  0
 88 87  1  0
 88 92  1  0
 89 88  2  0
 92 91  1  0
 94 92  1  0
 94 95  1  0
 94 93  1  0
M  ISO  4  15 100  23 100  54 101  55 101
M  END
>  <TORSDO>  (98) 
F 19

>  <SCORE>  (98) 
-11.422

>  <name>  (98) 
97

>  <ligand_id>  (98) 
97

>  <original_smiles>  (98) 
[H]c1c([H])c([H])c(C2([H])C([H])([H])C([H])([H])[N+]([H])([H])C([H])([H])C2([H])C([H])([H])C([H])([H])Oc2c([H])c([H])c3c(c2[H])C([H])([H])N(C(=O)C([H])(N([H])C(=O)C([H])(N([H])C([H])([H])[H])C([H])([H])[H])C(C([H])([H])[H])(C([H])([H])[H])C([H])([H])[H])C([H])(C(=O)N([H])C2([H])c4c([H])c([H])c([H])c([H])c4C([H])([H])C([H])([H])C2([H])[H])C3([H])[H])c(N([H])C(=O)N2C([H])([H])C([H])([H])C([H])([H])C([H])(n3nc(-c4c([H])c([H])c(Oc5c([H])c([H])c(F)c([H])c5F)c([H])c4[H])c(C(=O)N([H])[H])c3N([H])[H])C2([H])[H])c1[H]

>  <smiles>  (98) 
[H]c1c([H])c([H])c(C2([H])C([H])([H])C([H])([H])[N+]([H])([H])C([H])([H])C2([H])C([H])([H])C([H])([H])Oc2c([H])c([H])c3c(c2[H])C([H])([H])N(C(=O)C([H])(N([H])C(=O)C([H])(N([H])C([H])([H])[H])C([H])([H])[H])C(C([H])([H])[H])(C([H])([H])[H])C([H])([H])[H])C([H])(C(=O)N([H])C2([H])c4c([H])c([H])c([H])c([H])c4C([H])([H])C([H])([H])C2([H])[H])C3([H])[H])c(N([H])C(=O)N2C([H])([H])C([H])([H])C([H])([H])C([H])(n3nc(-c4c([H])c([H])c(Oc5c([H])c([H])c(F)c([H])c5F)c([H])c4[H])c(C(=O)N([H])[H])c3N([H])[H])C2([H])[H])c1[H]

$$$$
