0:0:0
     RDKit          3D

 94103  0  0  1  0  0  0  0  0999 V2000
  -29.2360  -21.5010   19.2220 C   0  0  0  0  0  2  0  0  0  0  0  0
  -30.8380  -14.7070   19.7770 C   0  0  0  0  0  0  0  0  0  0  0  0
  -30.5110  -12.4700   18.7260 C   0  0  0  0  0  2  0  0  0  0  0  0
  -29.4680  -12.6250   17.5960 C   0  0  0  0  0  2  0  0  0  0  0  0
  -28.0340  -12.4910   18.1460 C   0  0  0  0  0  2  0  0  0  0  0  0
  -27.8000  -13.3520   19.4150 C   0  0  0  0  0  3  0  0  0  0  0  0
  -28.9460  -13.1590   20.4370 C   0  0  0  0  0  2  0  0  0  0  0  0
  -30.2110  -13.4860   19.7560 N   0  0  0  0  0  0  0  0  0  0  0  0
  -31.9540  -14.8550   19.2670 O   0  0  0  0  0  0  0  0  0  0  0  0
  -28.9230  -17.8420   20.6590 C   0  0  0  0  0  3  0  0  0  0  0  0
  -28.6790  -19.2340   20.4740 C   0  0  0  0  0  0  0  0  0  0  0  0
  -29.5870  -20.0270   19.7160 C   0  0  0  0  0  0  0  0  0  0  0  0
  -30.7300  -19.3050   19.2450 C   0  0  0  0  0  0  0  0  0  0  0  0
  -30.0440  -17.1840   20.0980 C   0  0  0  0  0  0  0  0  0  0  0  0
  -27.4090  -19.8160   21.0750 C   0  0  0  0  0  1  0  0  0  0  0  0
  -31.8210  -19.9980   18.4490 C   0  0  0  0  0  1  0  0  0  0  0  0
  -30.9380  -17.9580   19.4240 N   0  0  0  0  0  0  0  0  0  0  0  0
  -30.0870  -15.7340   20.2880 N   0  0  0  0  0  0  0  0  0  0  0  0
  -29.2730  -15.3810   20.7630 H   0  0  0  0  0  0  0  0  0  0  0  0
  -25.5090  -14.0080   20.3740 C   0  0  0  0  0  0  0  0  0  0  0  0
  -24.4510  -13.2570   20.8120 C   0  0  0  0  0  0  0  0  0  0  0  0
  -24.8560  -11.8930   20.6890 C   0  0  0  0  0  0  0  0  0  0  0  0
  -26.4920  -13.1000   20.0100 N   0  0  0  0  0  0  0  0  0  0  0  0
  -26.1090  -11.8200   20.2600 N   0  0  0  0  0  0  0  0  0  0  0  0
  -24.1030  -10.6490   20.8990 C   0  0  0  0  0  0  0  0  0  0  0  0
  -24.5480   -9.6590   21.8010 C   0  0  0  0  0  3  0  0  0  0  0  0
  -23.7960   -8.4800   21.9970 C   0  0  0  0  0  3  0  0  0  0  0  0
  -22.5850   -8.2850   21.2930 C   0  0  0  0  0  0  0  0  0  0  0  0
  -22.1570   -9.2650   20.3790 C   0  0  0  0  0  3  0  0  0  0  0  0
  -22.9090  -10.4350   20.1800 C   0  0  0  0  0  3  0  0  0  0  0  0
  -21.8010   -7.1610   21.4020 O   0  0  0  0  0  0  0  0  0  0  0  0
  -21.7260   -6.4470   22.5710 C   0  0  0  0  0  0  0  0  0  0  0  0
  -21.2580   -7.0290   23.7700 C   0  0  0  0  0  3  0  0  0  0  0  0
  -21.1290   -6.2410   24.9310 C   0  0  0  0  0  3  0  0  0  0  0  0
  -21.4580   -4.8720   24.8950 C   0  0  0  0  0  0  0  0  0  0  0  0
  -21.9190   -4.2910   23.7000 C   0  0  0  0  0  3  0  0  0  0  0  0
  -22.0480   -5.0760   22.5420 C   0  0  0  0  0  0  0  0  0  0  0  0
  -22.4710   -4.5040   21.3870 F   0  0  0  0  0  0  0  0  0  0  0  0
  -21.3260   -4.1140   26.0080 F   0  0  0  0  0  0  0  0  0  0  0  0
  -23.1030  -13.7720   21.2300 C   0  0  0  0  0  0  0  0  0  0  0  0
  -22.4350  -13.0740   22.1410 N   0  0  0  0  0  0  0  0  0  0  0  0
  -22.6550  -14.8260   20.7820 O   0  0  0  0  0  0  0  0  0  0  0  0
  -22.8100  -12.2190   22.5230 H   0  0  0  0  0  0  0  0  0  0  0  0
  -21.5340  -13.4010   22.4610 H   0  0  0  0  0  0  0  0  0  0  0  0
  -25.7110  -15.3780   20.2330 N   0  0  0  0  0  0  0  0  0  0  0  0
  -24.9880  -16.0570   20.4420 H   0  0  0  0  0  0  0  0  0  0  0  0
  -26.5240  -15.7930   19.7930 H   0  0  0  0  0  0  0  0  0  0  0  0
  -28.4190  -24.4890   21.4170 C   0  0  0  0  0  2  0  0  0  0  0  0
  -28.5890  -22.9600   21.2300 C   0  0  0  0  0  2  0  0  0  0  0  0
  -29.4160  -24.0830   19.3070 C   0  0  0  0  0  2  0  0  0  0  0  0
  -28.3640  -25.0310   19.9880 C   0  0  0  0  0  3  0  0  0  0  0  0
  -29.4740  -22.7600   20.0520 N   0  0  2  0  0  4  0  0  0  0  0  0
  -30.4170  -22.6960   20.4080 H   0  0  0  0  0  0  0  0  0  0  0  0
  -28.5030  -26.5130   19.8900 O   0  0  0  0  0  0  0  0  0  0  0  0
  -24.5350  -31.6680   23.0490 C   0  0  0  0  0  0  0  0  0  0  0  0
  -27.3460  -27.3130   19.8740 C   0  0  0  0  0  0  0  0  0  0  0  0
  -23.3990  -30.2760   21.3550 C   0  0  0  0  0  3  0  0  0  0  0  0
  -24.9210  -28.8350   19.8940 C   0  0  0  0  0  0  0  0  0  0  0  0
  -25.9260  -30.7020   21.2050 C   0  0  0  0  0  2  0  0  0  0  0  0
  -26.0650  -29.3470   20.5190 C   0  0  0  0  0  0  0  0  0  0  0  0
  -27.2800  -28.5970   20.5020 C   0  0  0  0  0  3  0  0  0  0  0  0
  -26.1800  -26.8720   19.2040 C   0  0  0  0  0  3  0  0  0  0  0  0
  -24.9810  -27.6030   19.2280 C   0  0  0  0  0  3  0  0  0  0  0  0
  -23.6510  -29.6590   19.9550 C   0  0  0  0  0  2  0  0  0  0  0  0
  -24.6390  -30.8970   21.9270 N   0  0  0  0  0  0  0  0  0  0  0  0
  -23.4390  -31.8840   23.5840 O   0  0  0  0  0  0  0  0  0  0  0  0
  -22.7740  -29.2010   22.2760 C   0  0  0  0  0  0  0  0  0  0  0  0
  -21.4540  -28.9870   22.1460 N   0  0  0  0  0  0  0  0  0  0  0  0
  -23.4750  -28.5650   23.0670 O   0  0  0  0  0  0  0  0  0  0  0  0
  -20.9480  -29.5510   21.4770 H   0  0  0  0  0  0  0  0  0  0  0  0
  -18.1060  -27.7190   22.6620 C   0  0  0  0  0  0  0  0  0  0  0  0
  -20.6660  -28.0000   22.8850 C   0  0  0  0  0  3  0  0  0  0  0  0
  -20.7720  -26.6030   22.2320 C   0  0  0  0  0  2  0  0  0  0  0  0
  -19.6500  -26.3200   21.2270 C   0  0  0  0  0  2  0  0  0  0  0  0
  -18.2820  -26.4100   21.9100 C   0  0  0  0  0  2  0  0  0  0  0  0
  -19.2250  -28.4720   23.1070 C   0  0  0  0  0  0  0  0  0  0  0  0
  -19.0040  -29.6970   23.7730 C   0  0  0  0  0  3  0  0  0  0  0  0
  -17.6970  -30.1710   23.9950 C   0  0  0  0  0  3  0  0  0  0  0  0
  -16.5930  -29.4150   23.5650 C   0  0  0  0  0  3  0  0  0  0  0  0
  -16.7980  -28.1900   22.9060 C   0  0  0  0  0  3  0  0  0  0  0  0
  -25.7880  -32.3300   23.7010 C   0  0  0  0  0  3  0  0  0  0  0  0
  -25.4270  -33.7110   24.0490 N   0  0  0  0  0  0  0  0  0  0  0  0
  -25.7190  -34.7850   23.3030 C   0  0  0  0  0  0  0  0  0  0  0  0
  -26.3900  -34.7190   22.2690 O   0  0  0  0  0  0  0  0  0  0  0  0
  -24.8250  -33.8340   24.8500 H   0  0  0  0  0  0  0  0  0  0  0  0
  -23.9160  -36.5100   22.9870 C   0  0  0  0  0  1  0  0  0  0  0  0
  -25.1820  -36.1480   23.7800 C   0  0  0  0  0  3  0  0  0  0  0  0
  -27.2810  -37.1160   24.6060 C   0  0  0  0  0  1  0  0  0  0  0  0
  -26.1700  -37.2420   23.6670 N   0  0  0  0  0  0  0  0  0  0  0  0
  -25.7280  -38.1450   23.8200 H   0  0  0  0  0  0  0  0  0  0  0  0
  -26.3090  -31.5530   24.9710 C   0  0  1  0  0  0  0  0  0  0  0  0
  -25.2070  -31.2550   26.0130 C   0  0  0  0  0  1  0  0  0  0  0  0
  -26.9490  -30.2050   24.5630 C   0  0  0  0  0  1  0  0  0  0  0  0
  -27.4200  -32.3750   25.6680 C   0  0  0  0  0  1  0  0  0  0  0  0
  1 12  1  0
  1 52  1  0
  2 18  1  0
  3  8  1  0
  4  5  1  0
  4  3  1  0
  6  5  1  0
  6 23  1  0
  6  7  1  0
  8  2  1  0
  8  7  1  0
  9  2  2  0
 11 10  1  0
 11 15  1  0
 12 11  2  0
 13 17  2  0
 13 12  1  0
 14 18  1  0
 14 10  2  0
 16 13  1  0
 17 14  1  0
 18 19  1  0
 20 21  2  0
 21 40  1  0
 22 21  1  0
 22 25  1  0
 23 24  1  0
 23 20  1  0
 24 22  2  0
 25 26  1  0
 26 27  2  0
 28 31  1  0
 28 27  1  0
 29 28  2  0
 30 29  1  0
 30 25  2  0
 31 32  1  0
 32 33  1  0
 33 34  2  0
 35 34  1  0
 35 39  1  0
 36 35  2  0
 37 32  2  0
 37 36  1  0
 38 37  1  0
 40 41  1  0
 41 44  1  0
 41 43  1  0
 42 40  2  0
 45 20  1  0
 45 46  1  0
 47 45  1  0
 49 48  1  0
 50 51  1  0
 50 52  1  0
 51 54  1  0
 51 48  1  0
 52 53  1  1
 52 49  1  0
 55 66  2  0
 56 54  1  0
 56 61  1  0
 57 65  1  0
 57 67  1  0
 58 64  1  0
 58 60  1  0
 59 65  1  0
 60 59  1  0
 61 60  2  0
 62 63  1  0
 62 56  2  0
 63 58  2  0
 64 57  1  0
 65 55  1  0
 67 69  2  0
 68 67  1  0
 70 68  1  0
 71 80  2  0
 71 76  1  0
 72 68  1  0
 72 76  1  0
 73 72  1  0
 74 75  1  0
 74 73  1  0
 75 71  1  0
 76 77  2  0
 77 78  1  0
 79 78  2  0
 80 79  1  0
 81 55  1  0
 81 82  1  0
 81 91  1  0
 82 85  1  0
 83 87  1  0
 83 82  1  0
 84 83  2  0
 87 86  1  0
 89 87  1  0
 89 90  1  0
 89 88  1  0
 91 94  1  1
 91 92  1  0
 93 91  1  0
M  ISO  4   2 100  18 100  51 101  54 101
M  END
>  <TORSDO>  (1) 
F 17

>  <SCORE>  (1) 
-12.992

>  <name>  (1) 
0

>  <ligand_id>  (1) 
0

>  <original_smiles>  (1) 
[H]c1c([H])c([H])c2c(c1[H])C([H])([H])C([H])([H])C([H])([H])C2([H])N([H])C(=O)C1([H])N(C(=O)C([H])(N([H])C(=O)C([H])(N([H])C([H])([H])[H])C([H])([H])[H])C(C([H])([H])[H])(C([H])([H])[H])C([H])([H])[H])C([H])([H])c2c([H])c(OC3([H])C([H])([H])C([H])([H])[N+]([H])(C([H])([H])c4c(C([H])([H])[H])nc(N([H])C(=O)N5C([H])([H])C([H])([H])C([H])([H])C([H])(n6nc(-c7c([H])c([H])c(Oc8c([H])c([H])c(F)c([H])c8F)c([H])c7[H])c(C(=O)N([H])[H])c6N([H])[H])C5([H])[H])c([H])c4C([H])([H])[H])C3([H])[H])c([H])c([H])c2C1([H])[H]

>  <smiles>  (1) 
[H]c1c([H])c([H])c2c(c1[H])C([H])([H])C([H])([H])C([H])([H])C2([H])N([H])C(=O)C1([H])N(C(=O)C([H])(N([H])C(=O)C([H])(N([H])C([H])([H])[H])C([H])([H])[H])C(C([H])([H])[H])(C([H])([H])[H])C([H])([H])[H])C([H])([H])c2c([H])c(OC3([H])C([H])([H])C([H])([H])[N+]([H])(C([H])([H])c4c(C([H])([H])[H])nc(N([H])C(=O)N5C([H])([H])C([H])([H])C([H])([H])C([H])(n6nc(-c7c([H])c([H])c(Oc8c([H])c([H])c(F)c([H])c8F)c([H])c7[H])c(C(=O)N([H])[H])c6N([H])[H])C5([H])[H])c([H])c4C([H])([H])[H])C3([H])[H])c([H])c([H])c2C1([H])[H]

$$$$
1:0:0
     RDKit          3D

 95104  0  0  1  0  0  0  0  0999 V2000
  -29.8530  -24.9040   20.7980 C   0  0  0  0  0  0  0  0  0  0  0  0
  -30.6660  -21.5010   19.6590 C   0  0  0  0  0  2  0  0  0  0  0  0
  -29.6260  -22.6050   19.8300 C   0  0  0  0  0  2  0  0  0  0  0  0
  -31.5230  -23.1380   21.2190 C   0  0  0  0  0  2  0  0  0  0  0  0
  -31.6200  -21.6560   20.8460 C   0  0  0  0  0  3  0  0  0  0  0  0
  -30.2920  -23.6420   20.6140 N   0  0  0  0  0  0  0  0  0  0  0  0
  -30.5000  -25.7210   21.4660 O   0  0  0  0  0  0  0  0  0  0  0  0
  -31.2600  -20.8070   21.9810 N   0  0  0  0  0  0  0  0  0  0  0  0
  -30.6720  -21.2220   22.6990 H   0  0  0  0  0  0  0  0  0  0  0  0
  -31.2390  -14.4820   20.1910 C   0  0  0  0  0  0  0  0  0  0  0  0
  -30.7960  -12.4260   18.8990 C   0  0  0  0  0  2  0  0  0  0  0  0
  -29.8020  -12.7180   17.7590 C   0  0  0  0  0  2  0  0  0  0  0  0
  -28.3490  -12.5890   18.2540 C   0  0  0  0  0  2  0  0  0  0  0  0
  -28.0960  -13.3780   19.5650 C   0  0  0  0  0  3  0  0  0  0  0  0
  -29.1910  -13.0640   20.6090 C   0  0  0  0  0  2  0  0  0  0  0  0
  -30.5090  -13.3500   20.0060 N   0  0  0  0  0  0  0  0  0  0  0  0
  -32.2520  -14.7300   19.5270 O   0  0  0  0  0  0  0  0  0  0  0  0
  -30.2680  -18.6620   22.5510 C   0  0  0  0  0  3  0  0  0  0  0  0
  -30.1700  -17.2780   22.3290 C   0  0  0  0  0  3  0  0  0  0  0  0
  -32.0320  -18.7040   20.9140 C   0  0  0  0  0  3  0  0  0  0  0  0
  -31.2050  -19.4130   21.8140 C   0  0  0  0  0  0  0  0  0  0  0  0
  -31.0060  -16.6610   21.3770 C   0  0  0  0  0  0  0  0  0  0  0  0
  -31.9320  -17.3780   20.7040 N   0  0  0  0  0  0  0  0  0  0  0  0
  -30.7800  -15.2800   21.1690 N   0  0  0  0  0  0  0  0  0  0  0  0
  -30.0250  -14.8810   21.7030 H   0  0  0  0  0  0  0  0  0  0  0  0
  -25.7410  -14.0120   20.3940 C   0  0  0  0  0  0  0  0  0  0  0  0
  -24.6760  -13.2490   20.7930 C   0  0  0  0  0  0  0  0  0  0  0  0
  -25.1100  -11.8910   20.7040 C   0  0  0  0  0  0  0  0  0  0  0  0
  -26.7580  -13.1190   20.0930 N   0  0  0  0  0  0  0  0  0  0  0  0
  -26.3820  -11.8370   20.3330 N   0  0  0  0  0  0  0  0  0  0  0  0
  -24.3700  -10.6360   20.8960 C   0  0  0  0  0  0  0  0  0  0  0  0
  -24.7610   -9.6910   21.8700 C   0  0  0  0  0  3  0  0  0  0  0  0
  -24.0220   -8.5000   22.0470 C   0  0  0  0  0  3  0  0  0  0  0  0
  -22.8820   -8.2470   21.2500 C   0  0  0  0  0  0  0  0  0  0  0  0
  -22.5110   -9.1810   20.2660 C   0  0  0  0  0  3  0  0  0  0  0  0
  -23.2500  -10.3630   20.0870 C   0  0  0  0  0  3  0  0  0  0  0  0
  -22.1190   -7.1060   21.3340 O   0  0  0  0  0  0  0  0  0  0  0  0
  -21.9210   -6.4600   22.5270 C   0  0  0  0  0  0  0  0  0  0  0  0
  -21.3420   -7.1100   23.6390 C   0  0  0  0  0  3  0  0  0  0  0  0
  -21.0920   -6.3890   24.8240 C   0  0  0  0  0  3  0  0  0  0  0  0
  -21.4100   -5.0200   24.8960 C   0  0  0  0  0  0  0  0  0  0  0  0
  -21.9820   -4.3700   23.7870 C   0  0  0  0  0  3  0  0  0  0  0  0
  -22.2330   -5.0880   22.6060 C   0  0  0  0  0  0  0  0  0  0  0  0
  -22.7650   -4.4530   21.5340 F   0  0  0  0  0  0  0  0  0  0  0  0
  -21.1630   -4.3250   26.0310 F   0  0  0  0  0  0  0  0  0  0  0  0
  -23.3030  -13.7420   21.1480 C   0  0  0  0  0  0  0  0  0  0  0  0
  -22.6210  -13.0580   22.0600 N   0  0  0  0  0  0  0  0  0  0  0  0
  -22.8450  -14.7700   20.6490 O   0  0  0  0  0  0  0  0  0  0  0  0
  -23.0050  -12.2270   22.4830 H   0  0  0  0  0  0  0  0  0  0  0  0
  -21.7020  -13.3720   22.3390 H   0  0  0  0  0  0  0  0  0  0  0  0
  -25.9240  -15.3840   20.2460 N   0  0  0  0  0  0  0  0  0  0  0  0
  -25.1750  -16.0490   20.4070 H   0  0  0  0  0  0  0  0  0  0  0  0
  -26.7690  -15.8180   19.8980 H   0  0  0  0  0  0  0  0  0  0  0  0
  -28.5090  -25.3260   20.1810 C   0  0  0  0  0  2  0  0  0  0  0  0
  -28.4880  -26.7470   20.0860 O   0  0  0  0  0  0  0  0  0  0  0  0
  -24.6510  -31.8380   23.1490 C   0  0  0  0  0  0  0  0  0  0  0  0
  -27.2770  -27.3940   20.0910 C   0  0  0  0  0  0  0  0  0  0  0  0
  -23.4280  -30.4160   21.5330 C   0  0  0  0  0  3  0  0  0  0  0  0
  -24.8680  -28.8610   20.1170 C   0  0  0  0  0  0  0  0  0  0  0  0
  -25.9470  -30.7850   21.3040 C   0  0  0  0  0  2  0  0  0  0  0  0
  -26.0270  -29.4070   20.6820 C   0  0  0  0  0  0  0  0  0  0  0  0
  -27.2320  -28.6780   20.6660 C   0  0  0  0  0  3  0  0  0  0  0  0
  -26.1030  -26.8480   19.5250 C   0  0  0  0  0  3  0  0  0  0  0  0
  -24.8990  -27.5790   19.5390 C   0  0  0  0  0  3  0  0  0  0  0  0
  -23.6220  -29.7160   20.1610 C   0  0  0  0  0  2  0  0  0  0  0  0
  -24.6940  -31.0280   22.0550 N   0  0  0  0  0  0  0  0  0  0  0  0
  -23.5750  -32.1160   23.6970 O   0  0  0  0  0  0  0  0  0  0  0  0
  -22.7890  -29.4070   22.5130 C   0  0  0  0  0  0  0  0  0  0  0  0
  -21.4620  -29.2340   22.4090 N   0  0  0  0  0  0  0  0  0  0  0  0
  -23.4820  -28.7800   23.3180 O   0  0  0  0  0  0  0  0  0  0  0  0
  -20.9650  -29.7910   21.7280 H   0  0  0  0  0  0  0  0  0  0  0  0
  -18.0850  -28.0850   22.9730 C   0  0  0  0  0  0  0  0  0  0  0  0
  -20.6500  -28.3100   23.1980 C   0  0  0  0  0  3  0  0  0  0  0  0
  -20.7250  -26.8760   22.6250 C   0  0  0  0  0  2  0  0  0  0  0  0
  -19.6010  -26.5640   21.6320 C   0  0  0  0  0  2  0  0  0  0  0  0
  -18.2320  -26.7300   22.3000 C   0  0  0  0  0  2  0  0  0  0  0  0
  -19.2210  -28.8330   23.3800 C   0  0  0  0  0  0  0  0  0  0  0  0
  -19.0300  -30.1020   23.9680 C   0  0  0  0  0  3  0  0  0  0  0  0
  -17.7350  -30.6210   24.1550 C   0  0  0  0  0  3  0  0  0  0  0  0
  -16.6140  -29.8700   23.7650 C   0  0  0  0  0  3  0  0  0  0  0  0
  -16.7900  -28.6030   23.1800 C   0  0  0  0  0  3  0  0  0  0  0  0
  -25.9450  -32.4750   23.7490 C   0  0  0  0  0  3  0  0  0  0  0  0
  -25.6250  -33.8610   24.1140 N   0  0  0  0  0  0  0  0  0  0  0  0
  -25.9580  -34.9340   23.3840 C   0  0  0  0  0  0  0  0  0  0  0  0
  -26.6370  -34.8610   22.3570 O   0  0  0  0  0  0  0  0  0  0  0  0
  -25.0210  -33.9910   24.9120 H   0  0  0  0  0  0  0  0  0  0  0  0
  -24.2430  -36.7400   23.0360 C   0  0  0  0  0  1  0  0  0  0  0  0
  -25.4580  -36.3070   23.8720 C   0  0  0  0  0  3  0  0  0  0  0  0
  -27.5650  -37.1590   24.8010 C   0  0  0  0  0  1  0  0  0  0  0  0
  -26.4940  -37.3610   23.8280 N   0  0  0  0  0  0  0  0  0  0  0  0
  -26.0840  -38.2760   23.9950 H   0  0  0  0  0  0  0  0  0  0  0  0
  -26.5070  -31.6840   24.9940 C   0  0  1  0  0  0  0  0  0  0  0  0
  -25.4470  -31.4030   26.0840 C   0  0  0  0  0  1  0  0  0  0  0  0
  -27.1020  -30.3270   24.5530 C   0  0  0  0  0  1  0  0  0  0  0  0
  -27.6630  -32.4820   25.6420 C   0  0  0  0  0  1  0  0  0  0  0  0
  1  7  2  0
  2  3  1  0
  2  5  1  0
  3  6  1  0
  5  4  1  0
  5  8  1  0
  6  1  1  0
  6  4  1  0
  8  9  1  0
 10 24  1  0
 11 16  1  0
 12 13  1  0
 12 11  1  0
 14 13  1  0
 14 29  1  0
 14 15  1  0
 16 10  1  0
 16 15  1  0
 17 10  2  0
 19 18  1  0
 20 21  1  0
 21  8  1  0
 21 18  2  0
 22 19  2  0
 23 20  2  0
 23 22  1  0
 24 22  1  0
 24 25  1  0
 26 27  2  0
 27 46  1  0
 28 27  1  0
 28 31  1  0
 29 30  1  0
 29 26  1  0
 30 28  2  0
 31 32  1  0
 32 33  2  0
 34 37  1  0
 34 33  1  0
 35 34  2  0
 36 35  1  0
 36 31  2  0
 37 38  1  0
 38 43  2  0
 38 39  1  0
 39 40  2  0
 40 41  1  0
 41 45  1  0
 42 41  2  0
 43 42  1  0
 44 43  1  0
 46 47  1  0
 47 50  1  0
 47 49  1  0
 48 46  2  0
 51 26  1  0
 51 52  1  0
 53 51  1  0
 54  1  1  0
 55 57  1  0
 55 54  1  0
 56 67  2  0
 57 62  1  0
 58 66  1  0
 58 68  1  0
 59 65  1  0
 59 61  1  0
 60 66  1  0
 61 60  1  0
 62 61  2  0
 63 64  1  0
 63 57  2  0
 64 59  2  0
 65 58  1  0
 66 56  1  0
 68 70  2  0
 69 68  1  0
 71 69  1  0
 72 81  2  0
 72 77  1  0
 73 69  1  0
 73 77  1  0
 74 73  1  0
 75 76  1  0
 75 74  1  0
 76 72  1  0
 77 78  2  0
 78 79  1  0
 80 79  2  0
 81 80  1  0
 82 56  1  0
 82 83  1  0
 82 92  1  0
 83 86  1  0
 84 88  1  0
 84 83  1  0
 85 84  2  0
 88 87  1  0
 90 88  1  0
 90 91  1  0
 90 89  1  0
 92 95  1  1
 92 93  1  0
 94 92  1  0
M  ISO  4  10 100  24 100  54 101  55 101
M  END
>  <TORSDO>  (2) 
F 18

>  <SCORE>  (2) 
-13.526

>  <name>  (2) 
1

>  <ligand_id>  (2) 
1

>  <original_smiles>  (2) 
[H]c1nc(N([H])C(=O)N2C([H])([H])C([H])([H])C([H])([H])C([H])(n3nc(-c4c([H])c([H])c(Oc5c([H])c([H])c(F)c([H])c5F)c([H])c4[H])c(C(=O)N([H])[H])c3N([H])[H])C2([H])[H])c([H])c([H])c1N([H])C1([H])C([H])([H])N(C(=O)C([H])([H])Oc2c([H])c([H])c3c(c2[H])C([H])([H])N(C(=O)C([H])(N([H])C(=O)C([H])(N([H])C([H])([H])[H])C([H])([H])[H])C(C([H])([H])[H])(C([H])([H])[H])C([H])([H])[H])C([H])(C(=O)N([H])C2([H])c4c([H])c([H])c([H])c([H])c4C([H])([H])C([H])([H])C2([H])[H])C3([H])[H])C([H])([H])C1([H])[H]

>  <smiles>  (2) 
[H]c1nc(N([H])C(=O)N2C([H])([H])C([H])([H])C([H])([H])C([H])(n3nc(-c4c([H])c([H])c(Oc5c([H])c([H])c(F)c([H])c5F)c([H])c4[H])c(C(=O)N([H])[H])c3N([H])[H])C2([H])[H])c([H])c([H])c1N([H])C1([H])C([H])([H])N(C(=O)C([H])([H])Oc2c([H])c([H])c3c(c2[H])C([H])([H])N(C(=O)C([H])(N([H])C(=O)C([H])(N([H])C([H])([H])[H])C([H])([H])[H])C(C([H])([H])[H])(C([H])([H])[H])C([H])([H])[H])C([H])(C(=O)N([H])C2([H])c4c([H])c([H])c([H])c([H])c4C([H])([H])C([H])([H])C2([H])[H])C3([H])[H])C([H])([H])C1([H])[H]

$$$$
2:0:0
     RDKit          3D

 91 99  0  0  1  0  0  0  0  0999 V2000
  -29.9870  -23.4590   21.7720 C   0  0  0  0  0  3  0  0  0  0  0  0
  -30.3880  -22.0970   21.7670 C   0  0  0  0  0  3  0  0  0  0  0  0
  -28.3930  -22.9050   20.0920 C   0  0  0  0  0  3  0  0  0  0  0  0
  -28.9440  -23.9220   20.9340 C   0  0  0  0  0  0  0  0  0  0  0  0
  -29.7530  -21.1480   20.9360 C   0  0  0  0  0  0  0  0  0  0  0  0
  -28.7740  -21.5740   20.0940 N   0  0  0  0  0  0  0  0  0  0  0  0
  -30.2230  -19.7930   20.9820 N   0  0  0  0  0  0  0  0  0  0  0  0
  -30.9930  -19.6930   21.6370 H   0  0  0  0  0  0  0  0  0  0  0  0
  -27.0070  -25.1900   21.9950 C   0  0  0  0  0  1  0  0  0  0  0  0
  -28.3230  -25.3620   21.2060 C   0  0  0  0  0  3  0  0  0  0  0  0
  -28.3020  -26.4390   20.1740 O   0  0  0  0  0  0  0  0  0  0  0  0
  -24.6100  -31.8770   23.2280 C   0  0  0  0  0  0  0  0  0  0  0  0
  -27.2130  -27.3270   20.1600 C   0  0  0  0  0  0  0  0  0  0  0  0
  -23.4010  -30.4750   21.5960 C   0  0  0  0  0  3  0  0  0  0  0  0
  -24.8490  -28.9340   20.1500 C   0  0  0  0  0  0  0  0  0  0  0  0
  -25.9340  -30.8040   21.3940 C   0  0  0  0  0  2  0  0  0  0  0  0
  -26.0180  -29.4240   20.7510 C   0  0  0  0  0  0  0  0  0  0  0  0
  -27.2030  -28.6260   20.7540 C   0  0  0  0  0  3  0  0  0  0  0  0
  -26.0310  -26.8980   19.5190 C   0  0  0  0  0  3  0  0  0  0  0  0
  -24.8570  -27.6790   19.5240 C   0  0  0  0  0  3  0  0  0  0  0  0
  -23.6090  -29.8060   20.2100 C   0  0  0  0  0  2  0  0  0  0  0  0
  -24.6670  -31.0680   22.1300 N   0  0  0  0  0  0  0  0  0  0  0  0
  -23.5280  -32.1520   23.7700 O   0  0  0  0  0  0  0  0  0  0  0  0
  -22.7480  -29.4540   22.5590 C   0  0  0  0  0  0  0  0  0  0  0  0
  -21.4200  -29.2770   22.4420 N   0  0  0  0  0  0  0  0  0  0  0  0
  -23.4320  -28.8280   23.3700 O   0  0  0  0  0  0  0  0  0  0  0  0
  -20.9270  -29.8390   21.7630 H   0  0  0  0  0  0  0  0  0  0  0  0
  -18.0430  -28.0760   22.9550 C   0  0  0  0  0  0  0  0  0  0  0  0
  -20.6030  -28.3400   23.2170 C   0  0  0  0  0  3  0  0  0  0  0  0
  -20.7070  -26.9080   22.6430 C   0  0  0  0  0  2  0  0  0  0  0  0
  -19.6000  -26.5830   21.6360 C   0  0  0  0  0  2  0  0  0  0  0  0
  -18.2190  -26.7250   22.2830 C   0  0  0  0  0  2  0  0  0  0  0  0
  -19.1630  -28.8410   23.3790 C   0  0  0  0  0  0  0  0  0  0  0  0
  -18.9420  -30.1040   23.9700 C   0  0  0  0  0  3  0  0  0  0  0  0
  -17.6370  -30.6040   24.1390 C   0  0  0  0  0  3  0  0  0  0  0  0
  -16.5330  -29.8360   23.7290 C   0  0  0  0  0  3  0  0  0  0  0  0
  -16.7360  -28.5730   23.1440 C   0  0  0  0  0  3  0  0  0  0  0  0
  -25.8950  -32.5130   23.8420 C   0  0  0  0  0  3  0  0  0  0  0  0
  -26.4280  -31.7380   25.1070 C   0  0  1  0  0  0  0  0  0  0  0  0
  -25.3490  -31.4890   26.1850 C   0  0  0  0  0  1  0  0  0  0  0  0
  -27.0100  -30.3670   24.6980 C   0  0  0  0  0  1  0  0  0  0  0  0
  -27.5880  -32.5320   25.7580 C   0  0  0  0  0  1  0  0  0  0  0  0
  -25.5860  -33.9090   24.1840 N   0  0  0  0  0  0  0  0  0  0  0  0
  -25.9030  -34.9670   23.4240 C   0  0  0  0  0  0  0  0  0  0  0  0
  -26.5610  -34.8720   22.3840 O   0  0  0  0  0  0  0  0  0  0  0  0
  -25.0080  -34.0590   24.9970 H   0  0  0  0  0  0  0  0  0  0  0  0
  -24.1590  -36.7460   23.0980 C   0  0  0  0  0  1  0  0  0  0  0  0
  -25.4130  -36.3520   23.8940 C   0  0  0  0  0  3  0  0  0  0  0  0
  -27.5560  -37.2340   24.6990 C   0  0  0  0  0  1  0  0  0  0  0  0
  -26.4390  -37.4110   23.7730 N   0  0  0  0  0  0  0  0  0  0  0  0
  -26.0320  -38.3290   23.9430 H   0  0  0  0  0  0  0  0  0  0  0  0
  -29.5040  -18.4950   20.7580 C   0  0  0  0  0  2  0  0  0  0  0  0
  -30.4700  -17.2100   20.7920 C   0  0  0  0  0  2  0  0  0  0  0  0
  -30.6080  -14.6670   20.4400 C   0  0  0  0  0  0  0  0  0  0  0  0
  -30.3310  -12.4380   19.3640 C   0  0  0  0  0  2  0  0  0  0  0  0
  -29.3830  -12.5470   18.1510 C   0  0  0  0  0  2  0  0  0  0  0  0
  -27.9160  -12.4010   18.5900 C   0  0  0  0  0  2  0  0  0  0  0  0
  -27.5710  -13.2650   19.8310 C   0  0  0  0  0  3  0  0  0  0  0  0
  -28.6350  -13.1520   20.9480 C   0  0  0  0  0  2  0  0  0  0  0  0
  -29.9350  -13.4760   20.3460 N   0  0  0  0  0  0  0  0  0  0  0  0
  -31.7770  -14.7610   20.0580 O   0  0  0  0  0  0  0  0  0  0  0  0
  -29.9100  -15.8040   20.7770 N   0  0  0  0  0  0  0  0  0  0  0  0
  -28.9390  -15.6880   21.0360 H   0  0  0  0  0  0  0  0  0  0  0  0
  -25.1850  -13.8650   20.5610 C   0  0  0  0  0  0  0  0  0  0  0  0
  -24.1220  -13.0920   20.9370 C   0  0  0  0  0  0  0  0  0  0  0  0
  -24.5830  -11.7380   20.9010 C   0  0  0  0  0  0  0  0  0  0  0  0
  -26.2280  -12.9830   20.3300 N   0  0  0  0  0  0  0  0  0  0  0  0
  -25.8750  -11.6980   20.6000 N   0  0  0  0  0  0  0  0  0  0  0  0
  -23.8580  -10.4740   21.0920 C   0  0  0  0  0  0  0  0  0  0  0  0
  -24.3090   -9.4930   22.0040 C   0  0  0  0  0  3  0  0  0  0  0  0
  -23.5870   -8.2940   22.1890 C   0  0  0  0  0  3  0  0  0  0  0  0
  -22.3970   -8.0620   21.4570 C   0  0  0  0  0  0  0  0  0  0  0  0
  -21.9650   -9.0310   20.5330 C   0  0  0  0  0  3  0  0  0  0  0  0
  -22.6880  -10.2210   20.3480 C   0  0  0  0  0  3  0  0  0  0  0  0
  -21.6470   -6.9150   21.5470 O   0  0  0  0  0  0  0  0  0  0  0  0
  -21.6380   -6.1520   22.6850 C   0  0  0  0  0  0  0  0  0  0  0  0
  -21.2680   -6.6870   23.9390 C   0  0  0  0  0  3  0  0  0  0  0  0
  -21.2000   -5.8480   25.0680 C   0  0  0  0  0  3  0  0  0  0  0  0
  -21.4960   -4.4770   24.9480 C   0  0  0  0  0  0  0  0  0  0  0  0
  -21.8560   -3.9410   23.6980 C   0  0  0  0  0  3  0  0  0  0  0  0
  -21.9230   -4.7760   22.5690 C   0  0  0  0  0  0  0  0  0  0  0  0
  -22.2510   -4.2510   21.3640 F   0  0  0  0  0  0  0  0  0  0  0  0
  -21.4230   -3.6700   26.0320 F   0  0  0  0  0  0  0  0  0  0  0  0
  -22.7220  -13.5650   21.2090 C   0  0  0  0  0  0  0  0  0  0  0  0
  -21.9950  -12.8740   22.0810 N   0  0  0  0  0  0  0  0  0  0  0  0
  -22.2800  -14.5830   20.6760 O   0  0  0  0  0  0  0  0  0  0  0  0
  -22.3580  -12.0460   22.5270 H   0  0  0  0  0  0  0  0  0  0  0  0
  -21.0540  -13.1730   22.3000 H   0  0  0  0  0  0  0  0  0  0  0  0
  -25.3430  -15.2380   20.3720 N   0  0  0  0  0  0  0  0  0  0  0  0
  -24.5660  -15.8820   20.4780 H   0  0  0  0  0  0  0  0  0  0  0  0
  -26.1860  -15.6800   20.0310 H   0  0  0  0  0  0  0  0  0  0  0  0
  2  1  1  0
  3  6  2  0
  3  4  1  0
  4 10  1  0
  4  1  2  0
  5  7  1  0
  5  2  2  0
  6  5  1  0
  7  8  1  0
 10  9  1  0
 11 10  1  0
 12 23  2  0
 13 11  1  0
 13 18  1  0
 14 22  1  0
 14 24  1  0
 15 21  1  0
 15 17  1  0
 16 22  1  0
 17 18  2  0
 17 16  1  0
 19 20  1  0
 19 13  2  0
 20 15  2  0
 21 14  1  0
 22 12  1  0
 24 26  2  0
 25 24  1  0
 27 25  1  0
 28 37  2  0
 28 33  1  0
 29 25  1  0
 29 33  1  0
 30 29  1  0
 31 32  1  0
 31 30  1  0
 32 28  1  0
 33 34  2  0
 34 35  1  0
 36 35  2  0
 37 36  1  0
 38 12  1  0
 38 43  1  0
 38 39  1  0
 39 42  1  1
 39 40  1  0
 41 39  1  0
 43 46  1  0
 44 48  1  0
 44 43  1  0
 45 44  2  0
 48 47  1  0
 50 48  1  0
 50 51  1  0
 50 49  1  0
 52 53  1  0
 52  7  1  0
 54 62  1  0
 55 60  1  0
 56 57  1  0
 56 55  1  0
 58 57  1  0
 58 67  1  0
 58 59  1  0
 60 54  1  0
 60 59  1  0
 61 54  2  0
 62 53  1  0
 62 63  1  0
 64 65  2  0
 65 84  1  0
 66 65  1  0
 66 69  1  0
 67 64  1  0
 67 68  1  0
 68 66  2  0
 69 70  1  0
 70 71  2  0
 72 75  1  0
 72 71  1  0
 73 72  2  0
 74 73  1  0
 74 69  2  0
 75 76  1  0
 76 77  1  0
 77 78  2  0
 79 78  1  0
 79 83  1  0
 80 79  2  0
 81 76  2  0
 81 80  1  0
 82 81  1  0
 84 85  1  0
 85 88  1  0
 85 87  1  0
 86 84  2  0
 89 90  1  0
 89 64  1  0
 91 89  1  0
M  ISO  4  10 101  11 101  54 100  62 100
M  END
>  <TORSDO>  (3) 
F 19

>  <SCORE>  (3) 
-14.295

>  <name>  (3) 
2

>  <ligand_id>  (3) 
2

>  <original_smiles>  (3) 
[H]c1nc(N([H])C([H])([H])C([H])([H])N([H])C(=O)N2C([H])([H])C([H])([H])C([H])([H])C([H])(n3nc(-c4c([H])c([H])c(Oc5c([H])c([H])c(F)c([H])c5F)c([H])c4[H])c(C(=O)N([H])[H])c3N([H])[H])C2([H])[H])c([H])c([H])c1C([H])(Oc1c([H])c([H])c2c(c1[H])C([H])([H])N(C(=O)C([H])(N([H])C(=O)C([H])(N([H])C([H])([H])[H])C([H])([H])[H])C(C([H])([H])[H])(C([H])([H])[H])C([H])([H])[H])C([H])(C(=O)N([H])C1([H])c3c([H])c([H])c([H])c([H])c3C([H])([H])C([H])([H])C1([H])[H])C2([H])[H])C([H])([H])[H]

>  <smiles>  (3) 
[H]c1nc(N([H])C([H])([H])C([H])([H])N([H])C(=O)N2C([H])([H])C([H])([H])C([H])([H])C([H])(n3nc(-c4c([H])c([H])c(Oc5c([H])c([H])c(F)c([H])c5F)c([H])c4[H])c(C(=O)N([H])[H])c3N([H])[H])C2([H])[H])c([H])c([H])c1C([H])(Oc1c([H])c([H])c2c(c1[H])C([H])([H])N(C(=O)C([H])(N([H])C(=O)C([H])(N([H])C([H])([H])[H])C([H])([H])[H])C(C([H])([H])[H])(C([H])([H])[H])C([H])([H])[H])C([H])(C(=O)N([H])C1([H])c3c([H])c([H])c([H])c([H])c3C([H])([H])C([H])([H])C1([H])[H])C2([H])[H])C([H])([H])[H]

$$$$
3:0:0
     RDKit          3D

103113  0  0  1  0  0  0  0  0999 V2000
  -28.1920  -20.9150   18.5820 C   0  0  0  0  0  3  0  0  0  0  0  0
  -30.0450  -19.9870   19.4000 C   0  0  0  0  0  3  0  0  0  0  0  0
  -29.5540  -21.1660   18.9020 C   0  0  0  0  0  0  0  0  0  0  0  0
  -27.8900  -19.6140   18.8620 C   0  0  0  0  0  0  0  0  0  0  0  0
  -29.0360  -19.0330   19.4060 N   0  0  0  0  0  0  0  0  0  0  0  0
  -25.9300  -18.5320   20.0120 C   0  0  0  0  0  2  0  0  0  0  0  0
  -25.5770  -19.7760   17.8580 C   0  0  0  0  0  2  0  0  0  0  0  0
  -24.5270  -17.9070   19.8500 C   0  0  0  0  0  2  0  0  0  0  0  0
  -24.2060  -19.0900   17.7130 C   0  0  0  0  0  2  0  0  0  0  0  0
  -26.5730  -18.9090   18.6610 C   0  0  0  0  0  3  0  0  0  0  0  0
  -23.6360  -18.7630   19.0390 N   0  0  0  0  0  4  0  0  0  0  0  0
  -23.4360  -19.6140   19.5390 H   0  0  0  0  0  0  0  0  0  0  0  0
  -22.7580  -18.2860   18.9070 H   0  0  0  0  0  0  0  0  0  0  0  0
  -29.4300  -23.5720   18.0850 C   0  0  0  0  0  2  0  0  0  0  0  0
  -30.8840  -22.9760   20.0480 C   0  0  0  0  0  2  0  0  0  0  0  0
  -30.1840  -24.9050   17.9600 C   0  0  0  0  0  2  0  0  0  0  0  0
  -31.6110  -24.3190   19.8710 C   0  0  0  0  0  2  0  0  0  0  0  0
  -30.3050  -22.4680   18.7160 C   0  0  0  0  0  3  0  0  0  0  0  0
  -30.7150  -25.3420   19.2760 N   0  0  1  0  0  4  0  0  0  0  0  0
  -29.9250  -25.4230   19.9050 H   0  0  0  0  0  0  0  0  0  0  0  0
  -31.3050  -26.7060   19.2620 C   0  0  0  0  0  2  0  0  0  0  0  0
  -30.2170  -27.7770   19.4180 C   0  0  0  0  0  2  0  0  0  0  0  0
  -29.2590  -27.2600   20.3350 O   0  0  0  0  0  0  0  0  0  0  0  0
  -24.8410  -31.8960   23.4250 C   0  0  0  0  0  0  0  0  0  0  0  0
  -28.0530  -27.9020   20.3100 C   0  0  0  0  0  0  0  0  0  0  0  0
  -23.8690  -30.5070   21.6210 C   0  0  0  0  0  3  0  0  0  0  0  0
  -25.5420  -29.1730   20.2320 C   0  0  0  0  0  0  0  0  0  0  0  0
  -26.3590  -31.0820   21.6290 C   0  0  0  0  0  2  0  0  0  0  0  0
  -26.6050  -29.7620   20.9300 C   0  0  0  0  0  0  0  0  0  0  0  0
  -27.8630  -29.1310   20.9740 C   0  0  0  0  0  3  0  0  0  0  0  0
  -26.9760  -27.3030   19.6280 C   0  0  0  0  0  3  0  0  0  0  0  0
  -25.7190  -27.9370   19.5820 C   0  0  0  0  0  3  0  0  0  0  0  0
  -24.2300  -29.9230   20.2280 C   0  0  0  0  0  2  0  0  0  0  0  0
  -25.0350  -31.1730   22.2860 N   0  0  0  0  0  0  0  0  0  0  0  0
  -23.7070  -32.0520   23.8960 O   0  0  0  0  0  0  0  0  0  0  0  0
  -23.2360  -29.3850   22.4730 C   0  0  0  0  0  0  0  0  0  0  0  0
  -21.9300  -29.1480   22.2740 N   0  0  0  0  0  0  0  0  0  0  0  0
  -23.9190  -28.7320   23.2680 O   0  0  0  0  0  0  0  0  0  0  0  0
  -21.4390  -29.7310   21.6120 H   0  0  0  0  0  0  0  0  0  0  0  0
  -18.5870  -27.8200   22.5990 C   0  0  0  0  0  0  0  0  0  0  0  0
  -21.1320  -28.1150   22.9330 C   0  0  0  0  0  3  0  0  0  0  0  0
  -21.2810  -26.7530   22.2150 C   0  0  0  0  0  2  0  0  0  0  0  0
  -20.2000  -26.5080   21.1580 C   0  0  0  0  0  2  0  0  0  0  0  0
  -18.8080  -26.5510   21.7940 C   0  0  0  0  0  2  0  0  0  0  0  0
  -19.6790  -28.5630   23.1220 C   0  0  0  0  0  0  0  0  0  0  0  0
  -19.4200  -29.7540   23.8320 C   0  0  0  0  0  3  0  0  0  0  0  0
  -18.1000  -30.2050   24.0270 C   0  0  0  0  0  3  0  0  0  0  0  0
  -17.0220  -29.4570   23.5220 C   0  0  0  0  0  3  0  0  0  0  0  0
  -17.2650  -28.2670   22.8140 C   0  0  0  0  0  3  0  0  0  0  0  0
  -26.0270  -32.5820   24.1730 C   0  0  0  0  0  3  0  0  0  0  0  0
  -25.6150  -33.9560   24.4890 N   0  0  0  0  0  0  0  0  0  0  0  0
  -25.9580  -35.0350   23.7740 C   0  0  0  0  0  0  0  0  0  0  0  0
  -26.7240  -34.9830   22.8070 O   0  0  0  0  0  0  0  0  0  0  0  0
  -24.9430  -34.0670   25.2340 H   0  0  0  0  0  0  0  0  0  0  0  0
  -24.1660  -36.7290   23.2880 C   0  0  0  0  0  1  0  0  0  0  0  0
  -25.3560  -36.3870   24.1980 C   0  0  0  0  0  3  0  0  0  0  0  0
  -27.3590  -37.3800   25.2130 C   0  0  0  0  0  1  0  0  0  0  0  0
  -26.3320  -37.4980   24.1810 N   0  0  0  0  0  0  0  0  0  0  0  0
  -25.8620  -38.3920   24.3020 H   0  0  0  0  0  0  0  0  0  0  0  0
  -26.4680  -31.8140   25.4790 C   0  0  1  0  0  0  0  0  0  0  0  0
  -25.2950  -31.4880   26.4320 C   0  0  0  0  0  1  0  0  0  0  0  0
  -27.1680  -30.4830   25.1190 C   0  0  0  0  0  1  0  0  0  0  0  0
  -27.4990  -32.6600   26.2630 C   0  0  0  0  0  1  0  0  0  0  0  0
  -29.1680  -17.6400   19.8270 C   0  0  0  0  0  2  0  0  0  0  0  0
  -30.2460  -17.3350   20.8980 C   0  0  0  0  0  2  0  0  0  0  0  0
  -30.9760  -14.9880   20.5380 C   0  0  0  0  0  0  0  0  0  0  0  0
  -30.7160  -12.9350   19.2110 C   0  0  0  0  0  2  0  0  0  0  0  0
  -29.7640  -13.2420   18.0340 C   0  0  0  0  0  2  0  0  0  0  0  0
  -28.2900  -13.0640   18.4520 C   0  0  0  0  0  2  0  0  0  0  0  0
  -27.9520  -13.7870   19.7830 C   0  0  0  0  0  3  0  0  0  0  0  0
  -29.0090  -13.4490   20.8620 C   0  0  0  0  0  2  0  0  0  0  0  0
  -30.3390  -13.8070   20.3330 N   0  0  0  0  0  0  0  0  0  0  0  0
  -32.0580  -15.2810   20.0200 O   0  0  0  0  0  0  0  0  0  0  0  0
  -30.2390  -15.8990   21.1840 N   0  0  0  0  0  0  0  0  0  0  0  0
  -29.4100  -15.5400   21.6360 H   0  0  0  0  0  0  0  0  0  0  0  0
  -25.5390  -14.3300   20.5020 C   0  0  0  0  0  0  0  0  0  0  0  0
  -24.4750  -13.5280   20.8140 C   0  0  0  0  0  0  0  0  0  0  0  0
  -24.9560  -12.1870   20.7230 C   0  0  0  0  0  0  0  0  0  0  0  0
  -26.5980  -13.4760   20.2320 N   0  0  0  0  0  0  0  0  0  0  0  0
  -26.2480  -12.1790   20.4220 N   0  0  0  0  0  0  0  0  0  0  0  0
  -24.2500  -10.9090   20.8530 C   0  0  0  0  0  0  0  0  0  0  0  0
  -24.6330   -9.9480   21.8150 C   0  0  0  0  0  3  0  0  0  0  0  0
  -23.9260   -8.7320   21.9320 C   0  0  0  0  0  3  0  0  0  0  0  0
  -22.8240   -8.4670   21.0850 C   0  0  0  0  0  0  0  0  0  0  0  0
  -22.4610   -9.4170   20.1140 C   0  0  0  0  0  3  0  0  0  0  0  0
  -23.1670  -10.6240   19.9960 C   0  0  0  0  0  3  0  0  0  0  0  0
  -22.0960   -7.3010   21.1080 O   0  0  0  0  0  0  0  0  0  0  0  0
  -21.9170   -6.5880   22.2650 C   0  0  0  0  0  0  0  0  0  0  0  0
  -21.3010   -7.1560   23.4020 C   0  0  0  0  0  3  0  0  0  0  0  0
  -21.0740   -6.3670   24.5470 C   0  0  0  0  0  3  0  0  0  0  0  0
  -21.4500   -5.0120   24.5550 C   0  0  0  0  0  0  0  0  0  0  0  0
  -22.0590   -4.4430   23.4230 C   0  0  0  0  0  3  0  0  0  0  0  0
  -22.2890   -5.2300   22.2800 C   0  0  0  0  0  0  0  0  0  0  0  0
  -22.8550   -4.6720   21.1830 F   0  0  0  0  0  0  0  0  0  0  0  0
  -21.2260   -4.2510   25.6520 F   0  0  0  0  0  0  0  0  0  0  0  0
  -23.0690  -13.9760   21.0980 C   0  0  0  0  0  0  0  0  0  0  0  0
  -22.3610  -13.2540   21.9590 N   0  0  0  0  0  0  0  0  0  0  0  0
  -22.6090  -14.9990   20.5930 O   0  0  0  0  0  0  0  0  0  0  0  0
  -22.7460  -12.4230   22.3850 H   0  0  0  0  0  0  0  0  0  0  0  0
  -21.4200  -13.5370   22.1960 H   0  0  0  0  0  0  0  0  0  0  0  0
  -25.6960  -15.7070   20.4180 N   0  0  0  0  0  0  0  0  0  0  0  0
  -24.9710  -16.3300   20.7500 H   0  0  0  0  0  0  0  0  0  0  0  0
  -26.5900  -16.1610   20.3030 H   0  0  0  0  0  0  0  0  0  0  0  0
  1  4  2  0
  1  3  1  0
  2  5  1  0
  3  2  2  0
  4  5  1  0
  5 64  1  0
  7 10  1  0
  8  6  1  0
  9  7  1  0
  9 11  1  0
 10  4  1  0
 10  6  1  0
 11 12  1  0
 11  8  1  0
 13 11  1  0
 14 18  1  0
 16 14  1  0
 16 19  1  0
 17 15  1  0
 18  3  1  0
 18 15  1  0
 19 17  1  0
 19 20  1  1
 21 19  1  0
 21 22  1  0
 22 23  1  0
 24 35  2  0
 25 23  1  0
 25 30  1  0
 26 34  1  0
 26 36  1  0
 27 29  1  0
 28 34  1  0
 29 30  2  0
 29 28  1  0
 31 25  2  0
 32 31  1  0
 32 27  2  0
 33 27  1  0
 33 26  1  0
 34 24  1  0
 36 38  2  0
 37 36  1  0
 39 37  1  0
 40 49  2  0
 40 45  1  0
 41 37  1  0
 41 45  1  0
 42 41  1  0
 43 44  1  0
 43 42  1  0
 44 40  1  0
 45 46  2  0
 46 47  1  0
 48 47  2  0
 49 48  1  0
 50 24  1  0
 50 51  1  0
 50 60  1  0
 51 54  1  0
 52 56  1  0
 52 51  1  0
 53 52  2  0
 56 55  1  0
 58 56  1  0
 58 59  1  0
 58 57  1  0
 60 63  1  1
 60 61  1  0
 62 60  1  0
 64 65  1  0
 65 74  1  0
 66 74  1  0
 67 72  1  0
 68 69  1  0
 68 67  1  0
 70 69  1  0
 70 79  1  0
 70 71  1  0
 72 66  1  0
 72 71  1  0
 73 66  2  0
 74 75  1  0
 76 77  2  0
 77 96  1  0
 78 77  1  0
 78 81  1  0
 79 80  1  0
 79 76  1  0
 80 78  2  0
 81 82  1  0
 82 83  2  0
 84 87  1  0
 84 83  1  0
 85 84  2  0
 86 85  1  0
 86 81  2  0
 87 88  1  0
 88 93  2  0
 88 89  1  0
 89 90  2  0
 90 91  1  0
 91 95  1  0
 92 91  2  0
 93 92  1  0
 94 93  1  0
 96 97  1  0
 97100  1  0
 97 99  1  0
 98 96  2  0
101 76  1  0
101102  1  0
103101  1  0
M  ISO  4  22 101  23 101  66 100  74 100
M  END
>  <TORSDO>  (4) 
F 22

>  <SCORE>  (4) 
-7.476

>  <name>  (4) 
3

>  <ligand_id>  (4) 
3

>  <original_smiles>  (4) 
[H]c1c([H])c([H])c2c(c1[H])C([H])([H])C([H])([H])C([H])([H])C2([H])N([H])C(=O)C1([H])N(C(=O)C([H])(N([H])C(=O)C([H])(N([H])C([H])([H])[H])C([H])([H])[H])C(C([H])([H])[H])(C([H])([H])[H])C([H])([H])[H])C([H])([H])c2c([H])c(OC([H])([H])C([H])([H])[N+]3([H])C([H])([H])C([H])([H])C([H])(c4c([H])c(C5([H])C([H])([H])C([H])([H])[N+]([H])([H])C([H])([H])C5([H])[H])n(C([H])([H])C([H])([H])N([H])C(=O)N5C([H])([H])C([H])([H])C([H])([H])C([H])(n6nc(-c7c([H])c([H])c(Oc8c([H])c([H])c(F)c([H])c8F)c([H])c7[H])c(C(=O)N([H])[H])c6N([H])[H])C5([H])[H])c4[H])C([H])([H])C3([H])[H])c([H])c([H])c2C1([H])[H]

>  <smiles>  (4) 
[H]c1c([H])c([H])c2c(c1[H])C([H])([H])C([H])([H])C([H])([H])C2([H])N([H])C(=O)C1([H])N(C(=O)C([H])(N([H])C(=O)C([H])(N([H])C([H])([H])[H])C([H])([H])[H])C(C([H])([H])[H])(C([H])([H])[H])C([H])([H])[H])C([H])([H])c2c([H])c(OC([H])([H])C([H])([H])[N+]3([H])C([H])([H])C([H])([H])C([H])(c4c([H])c(C5([H])C([H])([H])C([H])([H])[N+]([H])([H])C([H])([H])C5([H])[H])n(C([H])([H])C([H])([H])N([H])C(=O)N5C([H])([H])C([H])([H])C([H])([H])C([H])(n6nc(-c7c([H])c([H])c(Oc8c([H])c([H])c(F)c([H])c8F)c([H])c7[H])c(C(=O)N([H])[H])c6N([H])[H])C5([H])[H])c4[H])C([H])([H])C3([H])[H])c([H])c([H])c2C1([H])[H]

$$$$
4:0:0
     RDKit          3D

 93102  0  0  1  0  0  0  0  0999 V2000
  -28.6610  -24.1070   21.0750 C   0  0  0  0  0  3  0  0  0  0  0  0
  -28.5180  -22.7390   21.3900 C   0  0  0  0  0  3  0  0  0  0  0  0
  -29.5360  -23.4250   18.9380 C   0  0  0  0  0  3  0  0  0  0  0  0
  -29.1560  -24.4700   19.8070 C   0  0  0  0  0  0  0  0  0  0  0  0
  -28.8880  -21.7680   20.4380 C   0  0  0  0  0  0  0  0  0  0  0  0
  -29.4010  -22.1130   19.2350 N   0  0  0  0  0  0  0  0  0  0  0  0
  -27.0250  -18.4150   19.8570 C   0  0  0  0  0  2  0  0  0  0  0  0
  -27.4660  -19.8630   19.6460 C   0  0  0  0  0  2  0  0  0  0  0  0
  -28.2180  -17.4650   19.7320 C   0  0  0  0  0  2  0  0  0  0  0  0
  -29.7590  -19.3070   20.6140 C   0  0  0  0  0  2  0  0  0  0  0  0
  -28.5480  -20.2850   20.6510 C   0  0  0  0  0  3  0  0  0  0  0  0
  -29.3410  -17.8060   20.7340 C   0  0  0  0  0  3  0  0  0  0  0  0
  -30.5540  -16.8410   20.5920 C   0  0  0  0  0  2  0  0  0  0  0  0
  -30.8080  -14.4120   20.0810 C   0  0  0  0  0  0  0  0  0  0  0  0
  -30.4950  -12.1950   19.0480 C   0  0  0  0  0  2  0  0  0  0  0  0
  -29.5130  -12.3160   17.8680 C   0  0  0  0  0  2  0  0  0  0  0  0
  -28.0590  -12.1540   18.3470 C   0  0  0  0  0  2  0  0  0  0  0  0
  -27.7380  -13.0510   19.5730 C   0  0  0  0  0  3  0  0  0  0  0  0
  -28.8320  -12.9350   20.6600 C   0  0  0  0  0  2  0  0  0  0  0  0
  -30.1370  -13.2260   20.0380 N   0  0  0  0  0  0  0  0  0  0  0  0
  -31.8620  -14.6080   19.4730 O   0  0  0  0  0  0  0  0  0  0  0  0
  -30.2020  -15.4180   20.7360 N   0  0  0  0  0  0  0  0  0  0  0  0
  -29.3550  -15.2000   21.2360 H   0  0  0  0  0  0  0  0  0  0  0  0
  -25.3610  -13.6340   20.3820 C   0  0  0  0  0  0  0  0  0  0  0  0
  -24.3180  -12.8540   20.8010 C   0  0  0  0  0  0  0  0  0  0  0  0
  -24.7880  -11.5060   20.7430 C   0  0  0  0  0  0  0  0  0  0  0  0
  -26.4060  -12.7650   20.1060 N   0  0  0  0  0  0  0  0  0  0  0  0
  -26.0620  -11.4780   20.3720 N   0  0  0  0  0  0  0  0  0  0  0  0
  -24.0790  -10.2390   20.9560 C   0  0  0  0  0  0  0  0  0  0  0  0
  -24.5200   -9.2970   21.9120 C   0  0  0  0  0  3  0  0  0  0  0  0
  -23.8110   -8.0930   22.1100 C   0  0  0  0  0  3  0  0  0  0  0  0
  -22.6480   -7.8210   21.3540 C   0  0  0  0  0  0  0  0  0  0  0  0
  -22.2250   -8.7510   20.3870 C   0  0  0  0  0  3  0  0  0  0  0  0
  -22.9360   -9.9460   20.1850 C   0  0  0  0  0  3  0  0  0  0  0  0
  -21.9100   -6.6670   21.4620 O   0  0  0  0  0  0  0  0  0  0  0  0
  -21.8020   -5.9900   22.6510 C   0  0  0  0  0  0  0  0  0  0  0  0
  -21.3000   -6.6080   23.8160 C   0  0  0  0  0  3  0  0  0  0  0  0
  -21.1390   -5.8550   24.9980 C   0  0  0  0  0  3  0  0  0  0  0  0
  -21.4720   -4.4880   25.0130 C   0  0  0  0  0  0  0  0  0  0  0  0
  -21.9680   -3.8710   23.8510 C   0  0  0  0  0  3  0  0  0  0  0  0
  -22.1300   -4.6200   22.6720 C   0  0  0  0  0  0  0  0  0  0  0  0
  -22.5870   -4.0150   21.5500 F   0  0  0  0  0  0  0  0  0  0  0  0
  -21.3110   -3.7640   26.1450 F   0  0  0  0  0  0  0  0  0  0  0  0
  -22.9330  -13.3190   21.1430 C   0  0  0  0  0  0  0  0  0  0  0  0
  -22.2520  -12.6210   22.0440 N   0  0  0  0  0  0  0  0  0  0  0  0
  -22.4600  -14.3390   20.6430 O   0  0  0  0  0  0  0  0  0  0  0  0
  -22.6460  -11.7970   22.4740 H   0  0  0  0  0  0  0  0  0  0  0  0
  -21.3220  -12.9150   22.3090 H   0  0  0  0  0  0  0  0  0  0  0  0
  -25.5010  -15.0030   20.1930 N   0  0  0  0  0  0  0  0  0  0  0  0
  -24.7220  -15.6440   20.3010 H   0  0  0  0  0  0  0  0  0  0  0  0
  -26.3320  -15.4520   19.8310 H   0  0  0  0  0  0  0  0  0  0  0  0
  -29.3190  -25.9290   19.3700 C   0  0  0  0  0  2  0  0  0  0  0  0
  -28.9030  -26.9140   20.3290 O   0  0  0  0  0  0  0  0  0  0  0  0
  -24.6520  -31.8000   23.2650 C   0  0  0  0  0  0  0  0  0  0  0  0
  -27.6620  -27.5240   20.2600 C   0  0  0  0  0  0  0  0  0  0  0  0
  -23.5900  -30.3580   21.5570 C   0  0  0  0  0  3  0  0  0  0  0  0
  -25.1810  -28.9010   20.1860 C   0  0  0  0  0  0  0  0  0  0  0  0
  -26.1000  -30.8380   21.4770 C   0  0  0  0  0  2  0  0  0  0  0  0
  -26.2800  -29.4760   20.8350 C   0  0  0  0  0  0  0  0  0  0  0  0
  -27.5140  -28.7900   20.8740 C   0  0  0  0  0  3  0  0  0  0  0  0
  -26.5360  -26.9540   19.6180 C   0  0  0  0  0  3  0  0  0  0  0  0
  -25.3050  -27.6380   19.5780 C   0  0  0  0  0  3  0  0  0  0  0  0
  -23.8940  -29.6980   20.1830 C   0  0  0  0  0  2  0  0  0  0  0  0
  -24.7950  -31.0170   22.1590 N   0  0  0  0  0  0  0  0  0  0  0  0
  -23.5350  -32.0150   23.7580 O   0  0  0  0  0  0  0  0  0  0  0  0
  -22.9430  -29.3030   22.4830 C   0  0  0  0  0  0  0  0  0  0  0  0
  -21.6320  -29.0690   22.2990 N   0  0  0  0  0  0  0  0  0  0  0  0
  -23.6190  -28.6960   23.3180 O   0  0  0  0  0  0  0  0  0  0  0  0
  -21.1450  -29.6140   21.6020 H   0  0  0  0  0  0  0  0  0  0  0  0
  -18.2940  -27.7310   22.6520 C   0  0  0  0  0  0  0  0  0  0  0  0
  -20.8280  -28.0820   23.0190 C   0  0  0  0  0  3  0  0  0  0  0  0
  -21.0100  -26.6720   22.4090 C   0  0  0  0  0  2  0  0  0  0  0  0
  -19.9530  -26.3270   21.3560 C   0  0  0  0  0  2  0  0  0  0  0  0
  -18.5470  -26.4050   21.9550 C   0  0  0  0  0  2  0  0  0  0  0  0
  -19.3670  -28.5270   23.1350 C   0  0  0  0  0  0  0  0  0  0  0  0
  -19.0780  -29.7700   23.7390 C   0  0  0  0  0  3  0  0  0  0  0  0
  -17.7500  -30.2190   23.8620 C   0  0  0  0  0  3  0  0  0  0  0  0
  -16.6910  -29.4200   23.3970 C   0  0  0  0  0  3  0  0  0  0  0  0
  -16.9640  -28.1770   22.8010 C   0  0  0  0  0  3  0  0  0  0  0  0
  -25.8780  -32.4850   23.9500 C   0  0  0  0  0  3  0  0  0  0  0  0
  -26.3550  -31.7420   25.2580 C   0  0  1  0  0  0  0  0  0  0  0  0
  -25.2130  -31.4610   26.2640 C   0  0  0  0  0  1  0  0  0  0  0  0
  -27.0180  -30.3910   24.9040 C   0  0  0  0  0  1  0  0  0  0  0  0
  -27.4320  -32.5860   25.9790 C   0  0  0  0  0  1  0  0  0  0  0  0
  -25.4990  -33.8730   24.2500 N   0  0  0  0  0  0  0  0  0  0  0  0
  -25.8260  -34.9310   23.4950 C   0  0  0  0  0  0  0  0  0  0  0  0
  -26.5460  -34.8430   22.4960 O   0  0  0  0  0  0  0  0  0  0  0  0
  -24.8660  -34.0110   25.0230 H   0  0  0  0  0  0  0  0  0  0  0  0
  -24.0440  -36.6470   23.0400 C   0  0  0  0  0  1  0  0  0  0  0  0
  -25.2640  -36.3020   23.9110 C   0  0  0  0  0  3  0  0  0  0  0  0
  -27.3220  -37.2810   24.8230 C   0  0  0  0  0  1  0  0  0  0  0  0
  -26.2570  -37.3940   23.8310 N   0  0  0  0  0  0  0  0  0  0  0  0
  -25.8100  -38.3000   23.9490 H   0  0  0  0  0  0  0  0  0  0  0  0
  1  2  1  0
  3  6  2  0
  3  4  1  0
  4  1  2  0
  5  2  2  0
  6  5  1  0
  8  7  1  0
  8 11  1  0
  9  7  1  0
  9 12  1  0
 10 11  1  0
 10 12  1  0
 11  5  1  0
 12 13  1  0
 13 22  1  0
 14 22  1  0
 15 20  1  0
 16 17  1  0
 16 15  1  0
 18 17  1  0
 18 27  1  0
 18 19  1  0
 20 14  1  0
 20 19  1  0
 21 14  2  0
 22 23  1  0
 24 25  2  0
 25 44  1  0
 26 25  1  0
 26 29  1  0
 27 28  1  0
 27 24  1  0
 28 26  2  0
 29 30  1  0
 30 31  2  0
 32 35  1  0
 32 31  1  0
 33 32  2  0
 34 33  1  0
 34 29  2  0
 35 36  1  0
 36 41  2  0
 36 37  1  0
 37 38  2  0
 38 39  1  0
 39 43  1  0
 40 39  2  0
 41 40  1  0
 42 41  1  0
 44 45  1  0
 45 48  1  0
 45 47  1  0
 46 44  2  0
 49 50  1  0
 49 24  1  0
 51 49  1  0
 52  4  1  0
 52 53  1  0
 54 65  2  0
 55 53  1  0
 55 60  1  0
 56 64  1  0
 56 66  1  0
 57 59  1  0
 58 64  1  0
 59 60  2  0
 59 58  1  0
 61 55  2  0
 62 61  1  0
 62 57  2  0
 63 57  1  0
 63 56  1  0
 64 54  1  0
 66 68  2  0
 67 66  1  0
 69 67  1  0
 70 79  2  0
 70 75  1  0
 71 67  1  0
 71 75  1  0
 72 71  1  0
 73 74  1  0
 73 72  1  0
 74 70  1  0
 75 76  2  0
 76 77  1  0
 78 77  2  0
 79 78  1  0
 80 54  1  0
 80 85  1  0
 80 81  1  0
 81 84  1  1
 81 82  1  0
 83 81  1  0
 85 88  1  0
 86 90  1  0
 86 85  1  0
 87 86  2  0
 90 89  1  0
 92 90  1  0
 92 93  1  0
 92 91  1  0
M  ISO  4  14 100  22 100  52 101  53 101
M  END
>  <TORSDO>  (5) 
F 19

>  <SCORE>  (5) 
-13.908

>  <name>  (5) 
4

>  <ligand_id>  (5) 
4

>  <original_smiles>  (5) 
[H]c1nc(C2([H])C([H])([H])C([H])([H])C([H])([H])C([H])(C([H])([H])N([H])C(=O)N3C([H])([H])C([H])([H])C([H])([H])C([H])(n4nc(-c5c([H])c([H])c(Oc6c([H])c([H])c(F)c([H])c6F)c([H])c5[H])c(C(=O)N([H])[H])c4N([H])[H])C3([H])[H])C2([H])[H])c([H])c([H])c1C([H])([H])Oc1c([H])c([H])c2c(c1[H])C([H])([H])N(C(=O)C([H])(N([H])C(=O)C([H])(N([H])C([H])([H])[H])C([H])([H])[H])C(C([H])([H])[H])(C([H])([H])[H])C([H])([H])[H])C([H])(C(=O)N([H])C1([H])c3c([H])c([H])c([H])c([H])c3C([H])([H])C([H])([H])C1([H])[H])C2([H])[H]

>  <smiles>  (5) 
[H]c1nc(C2([H])C([H])([H])C([H])([H])C([H])([H])C([H])(C([H])([H])N([H])C(=O)N3C([H])([H])C([H])([H])C([H])([H])C([H])(n4nc(-c5c([H])c([H])c(Oc6c([H])c([H])c(F)c([H])c6F)c([H])c5[H])c(C(=O)N([H])[H])c4N([H])[H])C3([H])[H])C2([H])[H])c([H])c([H])c1C([H])([H])Oc1c([H])c([H])c2c(c1[H])C([H])([H])N(C(=O)C([H])(N([H])C(=O)C([H])(N([H])C([H])([H])[H])C([H])([H])[H])C(C([H])([H])[H])(C([H])([H])[H])C([H])([H])[H])C([H])(C(=O)N([H])C1([H])c3c([H])c([H])c([H])c([H])c3C([H])([H])C([H])([H])C1([H])[H])C2([H])[H]

$$$$
5:0:0
     RDKit          3D

103112  0  0  1  0  0  0  0  0999 V2000
  -27.7030  -21.1050   21.6700 C   0  0  0  0  0  2  0  0  0  0  0  0
  -27.7290  -19.8690   20.7520 C   0  0  0  0  0  2  0  0  0  0  0  0
  -27.5860  -22.4180   20.8610 C   0  0  0  0  0  2  0  0  0  0  0  0
  -28.9020  -19.9260   19.7310 C   0  0  0  0  0  3  0  0  0  0  0  0
  -29.3480  -21.4100   19.5530 C   0  0  0  0  0  3  0  0  0  0  0  0
  -28.1860  -22.3350   19.5160 N   0  0  0  0  0  0  0  0  0  0  0  0
  -30.0130  -19.0160   20.1350 N   0  0  0  0  0  4  0  0  0  0  0  0
  -30.8550  -19.2550   19.6360 H   0  0  0  0  0  0  0  0  0  0  0  0
  -30.2100  -19.1190   21.1170 H   0  0  0  0  0  0  0  0  0  0  0  0
  -29.7290  -17.5890   19.8650 C   0  0  0  0  0  2  0  0  0  0  0  0
  -30.8910  -16.7880   19.2610 C   0  0  0  0  0  2  0  0  0  0  0  0
  -31.5580  -14.4060   19.6100 C   0  0  0  0  0  0  0  0  0  0  0  0
  -31.1160  -12.0650   19.0270 C   0  0  0  0  0  2  0  0  0  0  0  0
  -30.1440  -12.0310   17.8240 C   0  0  0  0  0  2  0  0  0  0  0  0
  -28.6710  -12.1380   18.2770 C   0  0  0  0  0  2  0  0  0  0  0  0
  -28.4370  -13.2700   19.3110 C   0  0  0  0  0  3  0  0  0  0  0  0
  -29.4960  -13.2180   20.4380 C   0  0  0  0  0  2  0  0  0  0  0  0
  -30.8370  -13.2730   19.8100 N   0  0  0  0  0  0  0  0  0  0  0  0
  -32.6440  -14.4590   19.0260 O   0  0  0  0  0  0  0  0  0  0  0  0
  -30.8730  -15.4980   19.9370 N   0  0  0  0  0  0  0  0  0  0  0  0
  -30.0250  -15.2850   20.4380 H   0  0  0  0  0  0  0  0  0  0  0  0
  -26.1840  -14.2760   20.0730 C   0  0  0  0  0  0  0  0  0  0  0  0
  -25.0250  -13.6940   20.5050 C   0  0  0  0  0  0  0  0  0  0  0  0
  -25.2650  -12.2840   20.5000 C   0  0  0  0  0  0  0  0  0  0  0  0
  -27.0730  -13.2340   19.8410 N   0  0  0  0  0  0  0  0  0  0  0  0
  -26.5180  -12.0320   20.1450 N   0  0  0  0  0  0  0  0  0  0  0  0
  -24.3610  -11.1570   20.7570 C   0  0  0  0  0  0  0  0  0  0  0  0
  -24.7770  -10.0300   21.5010 C   0  0  0  0  0  3  0  0  0  0  0  0
  -23.8840   -8.9660   21.7460 C   0  0  0  0  0  3  0  0  0  0  0  0
  -22.5600   -9.0220   21.2510 C   0  0  0  0  0  0  0  0  0  0  0  0
  -22.1600  -10.1350   20.4930 C   0  0  0  0  0  3  0  0  0  0  0  0
  -23.0500  -11.1920   20.2430 C   0  0  0  0  0  3  0  0  0  0  0  0
  -21.6300   -8.0240   21.4210 O   0  0  0  0  0  0  0  0  0  0  0  0
  -21.7730   -7.0650   22.3910 C   0  0  0  0  0  0  0  0  0  0  0  0
  -21.9720   -7.4010   23.7470 C   0  0  0  0  0  3  0  0  0  0  0  0
  -22.0430   -6.3850   24.7230 C   0  0  0  0  0  3  0  0  0  0  0  0
  -21.9070   -5.0350   24.3460 C   0  0  0  0  0  0  0  0  0  0  0  0
  -21.7020   -4.6990   22.9970 C   0  0  0  0  0  3  0  0  0  0  0  0
  -21.6330   -5.7110   22.0230 C   0  0  0  0  0  0  0  0  0  0  0  0
  -21.4130   -5.3800   20.7270 F   0  0  0  0  0  0  0  0  0  0  0  0
  -21.9700   -4.0610   25.2830 F   0  0  0  0  0  0  0  0  0  0  0  0
  -23.7310  -14.3920   20.8140 C   0  0  0  0  0  0  0  0  0  0  0  0
  -22.9530  -13.8520   21.7440 N   0  0  0  0  0  0  0  0  0  0  0  0
  -23.4290  -15.4480   20.2640 O   0  0  0  0  0  0  0  0  0  0  0  0
  -23.2100  -12.9920   22.2040 H   0  0  0  0  0  0  0  0  0  0  0  0
  -22.0850  -14.3060   21.9970 H   0  0  0  0  0  0  0  0  0  0  0  0
  -26.5610  -15.5970   19.8340 N   0  0  0  0  0  0  0  0  0  0  0  0
  -25.8810  -16.3470   19.8740 H   0  0  0  0  0  0  0  0  0  0  0  0
  -27.3670  -15.8230   19.2710 H   0  0  0  0  0  0  0  0  0  0  0  0
  -30.3830  -21.6560   18.4320 C   0  0  0  0  0  2  0  0  0  0  0  0
  -31.2870  -25.1450   18.2530 C   0  0  0  0  0  3  0  0  0  0  0  0
  -32.2150  -24.7530   19.2760 C   0  0  0  0  0  0  0  0  0  0  0  0
  -30.5680  -24.0900   17.8170 C   0  0  0  0  0  0  0  0  0  0  0  0
  -31.9980  -23.3970   19.4270 C   0  0  0  0  0  0  0  0  0  0  0  0
  -29.5160  -24.1100   16.7470 C   0  0  0  0  0  1  0  0  0  0  0  0
  -32.7260  -22.4370   20.3320 C   0  0  0  0  0  1  0  0  0  0  0  0
  -30.9640  -22.9910   18.5560 N   0  0  0  0  0  0  0  0  0  0  0  0
  -33.3250  -25.6000   19.9680 C   0  0  0  0  0  2  0  0  0  0  0  0
  -33.0160  -26.4370   21.1250 O   0  0  0  0  0  0  0  0  0  0  0  0
  -28.4340  -30.6380   24.7600 C   0  0  0  0  0  0  0  0  0  0  0  0
  -31.8550  -27.1930   21.1370 C   0  0  0  0  0  0  0  0  0  0  0  0
  -27.5940  -29.5780   22.6990 C   0  0  0  0  0  3  0  0  0  0  0  0
  -29.3520  -28.5260   21.1970 C   0  0  0  0  0  0  0  0  0  0  0  0
  -30.0880  -30.0830   22.9840 C   0  0  0  0  0  2  0  0  0  0  0  0
  -30.3670  -28.8980   22.0850 C   0  0  0  0  0  0  0  0  0  0  0  0
  -31.6020  -28.2000   22.1040 C   0  0  0  0  0  3  0  0  0  0  0  0
  -30.8780  -27.0150   20.1490 C   0  0  0  0  0  3  0  0  0  0  0  0
  -29.5960  -27.5660   20.2190 C   0  0  0  0  0  3  0  0  0  0  0  0
  -28.0490  -29.2790   21.2500 C   0  0  0  0  0  2  0  0  0  0  0  0
  -28.7170  -30.1040   23.5420 N   0  0  0  0  0  0  0  0  0  0  0  0
  -27.2670  -30.7250   25.1720 O   0  0  0  0  0  0  0  0  0  0  0  0
  -26.9270  -28.3130   23.2850 C   0  0  0  0  0  0  0  0  0  0  0  0
  -25.7810  -27.9220   22.7050 N   0  0  0  0  0  0  0  0  0  0  0  0
  -27.4390  -27.7080   24.2270 O   0  0  0  0  0  0  0  0  0  0  0  0
  -25.4220  -28.4810   21.9400 H   0  0  0  0  0  0  0  0  0  0  0  0
  -22.8450  -26.0120   21.8200 C   0  0  0  0  0  0  0  0  0  0  0  0
  -24.9780  -26.7590   23.0850 C   0  0  0  0  0  3  0  0  0  0  0  0
  -25.6170  -25.4520   22.5510 C   0  0  0  0  0  2  0  0  0  0  0  0
  -25.0890  -25.0660   21.1710 C   0  0  0  0  0  2  0  0  0  0  0  0
  -23.5800  -24.8230   21.2290 C   0  0  0  0  0  2  0  0  0  0  0  0
  -23.5080  -26.9320   22.6760 C   0  0  0  0  0  0  0  0  0  0  0  0
  -22.7980  -28.0480   23.1590 C   0  0  0  0  0  3  0  0  0  0  0  0
  -21.4470  -28.2420   22.8170 C   0  0  0  0  0  3  0  0  0  0  0  0
  -20.7890  -27.3170   21.9870 C   0  0  0  0  0  3  0  0  0  0  0  0
  -21.4850  -26.2010   21.4910 C   0  0  0  0  0  3  0  0  0  0  0  0
  -29.5660  -31.1880   25.6820 C   0  0  0  0  0  3  0  0  0  0  0  0
  -29.1420  -32.5040   26.1690 N   0  0  0  0  0  0  0  0  0  0  0  0
  -29.5170  -33.6740   25.6300 C   0  0  0  0  0  0  0  0  0  0  0  0
  -30.3340  -33.7530   24.7090 O   0  0  0  0  0  0  0  0  0  0  0  0
  -28.4380  -32.5150   26.8920 H   0  0  0  0  0  0  0  0  0  0  0  0
  -27.7350  -35.4170   25.3100 C   0  0  0  0  0  1  0  0  0  0  0  0
  -28.8910  -34.9540   26.2090 C   0  0  0  0  0  3  0  0  0  0  0  0
  -30.8630  -35.7940   27.4050 C   0  0  0  0  0  1  0  0  0  0  0  0
  -29.8620  -36.0570   26.3750 N   0  0  0  0  0  0  0  0  0  0  0  0
  -29.3840  -36.9190   26.6160 H   0  0  0  0  0  0  0  0  0  0  0  0
  -29.8970  -30.2290   26.8900 C   0  0  1  0  0  0  0  0  0  0  0  0
  -28.6430  -29.7230   27.6410 C   0  0  0  0  0  1  0  0  0  0  0  0
  -30.6900  -28.9920   26.4070 C   0  0  0  0  0  1  0  0  0  0  0  0
  -30.7970  -30.9610   27.9110 C   0  0  0  0  0  1  0  0  0  0  0  0
  -27.1420  -22.0850   18.4980 C   0  0  0  0  0  2  0  0  0  0  0  0
  -25.2690  -23.2090   17.1400 C   0  0  0  0  0  1  0  0  0  0  0  0
  -26.9040  -24.7080   18.3120 C   0  0  0  0  0  1  0  0  0  0  0  0
  -26.7150  -23.3280   17.6530 C   0  0  0  0  0  3  0  0  0  0  0  0
  2  1  1  0
  3  1  1  0
  4  7  1  0
  4  2  1  0
  5 50  1  0
  5  4  1  0
  6  5  1  0
  6  3  1  0
  7  9  1  0
  8  7  1  0
 10  7  1  0
 11 10  1  0
 11 20  1  0
 12 18  1  0
 12 20  1  0
 13 18  1  0
 14 15  1  0
 14 13  1  0
 16 15  1  0
 16 25  1  0
 16 17  1  0
 18 17  1  0
 19 12  2  0
 20 21  1  0
 22 23  2  0
 23 42  1  0
 24 23  1  0
 24 27  1  0
 25 22  1  0
 25 26  1  0
 26 24  2  0
 27 28  1  0
 28 29  2  0
 30 33  1  0
 30 29  1  0
 31 30  2  0
 32 31  1  0
 32 27  2  0
 33 34  1  0
 34 35  1  0
 35 36  2  0
 37 36  1  0
 37 41  1  0
 38 37  2  0
 39 34  2  0
 39 38  1  0
 40 39  1  0
 42 43  1  0
 43 46  1  0
 43 45  1  0
 44 42  2  0
 47 48  1  0
 47 22  1  0
 49 47  1  0
 50 57  1  0
 51 52  1  0
 52 54  2  0
 52 58  1  0
 53 51  2  0
 53 57  1  0
 54 56  1  0
 55 53  1  0
 57 54  1  0
 58 59  1  0
 59 61  1  0
 60 71  2  0
 61 66  1  0
 62 72  1  0
 62 70  1  0
 63 69  1  0
 63 65  1  0
 64 70  1  0
 65 66  2  0
 65 64  1  0
 67 68  1  0
 67 61  2  0
 68 63  2  0
 69 62  1  0
 70 60  1  0
 72 74  2  0
 73 72  1  0
 75 73  1  0
 76 81  1  0
 77 73  1  0
 78 77  1  0
 79 80  1  0
 79 78  1  0
 80 76  1  0
 81 77  1  0
 81 82  2  0
 83 82  1  0
 84 83  2  0
 85 76  2  0
 85 84  1  0
 86 60  1  0
 86 87  1  0
 86 96  1  0
 87 90  1  0
 88 87  1  0
 88 92  1  0
 89 88  2  0
 92 91  1  0
 92 94  1  0
 94 95  1  0
 94 93  1  0
 96 97  1  1
 96 99  1  0
 98 96  1  0
100  6  1  0
101103  1  0
103102  1  0
103100  1  0
M  ISO  4  12 100  20 100  58 101  59 101
M  END
>  <TORSDO>  (6) 
F 24

>  <SCORE>  (6) 
-7.099

>  <name>  (6) 
5

>  <ligand_id>  (6) 
5

>  <original_smiles>  (6) 
[H]c1c([H])c([H])c2c(c1[H])C([H])([H])C([H])([H])C([H])([H])C2([H])N([H])C(=O)C1([H])N(C(=O)C([H])(N([H])C(=O)C([H])(N([H])C([H])([H])[H])C([H])([H])[H])C(C([H])([H])[H])(C([H])([H])[H])C([H])([H])[H])C([H])([H])c2c([H])c(OC([H])([H])c3c([H])c(C([H])([H])[H])n(C([H])([H])C4([H])N(C([H])([H])C([H])(C([H])([H])[H])C([H])([H])[H])C([H])([H])C([H])([H])C([H])([H])C4([H])[N+]([H])([H])C([H])([H])C([H])([H])N([H])C(=O)N4C([H])([H])C([H])([H])C([H])([H])C([H])(n5nc(-c6c([H])c([H])c(Oc7c([H])c([H])c(F)c([H])c7F)c([H])c6[H])c(C(=O)N([H])[H])c5N([H])[H])C4([H])[H])c3C([H])([H])[H])c([H])c([H])c2C1([H])[H]

>  <smiles>  (6) 
[H]c1c([H])c([H])c2c(c1[H])C([H])([H])C([H])([H])C([H])([H])C2([H])N([H])C(=O)C1([H])N(C(=O)C([H])(N([H])C(=O)C([H])(N([H])C([H])([H])[H])C([H])([H])[H])C(C([H])([H])[H])(C([H])([H])[H])C([H])([H])[H])C([H])([H])c2c([H])c(OC([H])([H])c3c([H])c(C([H])([H])[H])n(C([H])([H])C4([H])N(C([H])([H])C([H])(C([H])([H])[H])C([H])([H])[H])C([H])([H])C([H])([H])C([H])([H])C4([H])[N+]([H])([H])C([H])([H])C([H])([H])N([H])C(=O)N4C([H])([H])C([H])([H])C([H])([H])C([H])(n5nc(-c6c([H])c([H])c(Oc7c([H])c([H])c(F)c([H])c7F)c([H])c6[H])c(C(=O)N([H])[H])c5N([H])[H])C4([H])[H])c3C([H])([H])[H])c([H])c([H])c2C1([H])[H]

$$$$
6:0:0
     RDKit          3D

 97106  0  0  1  0  0  0  0  0999 V2000
  -31.1950  -19.0820   21.6560 C   0  0  0  0  0  3  0  0  0  0  0  0
  -31.1100  -20.3840   22.1780 C   0  0  0  0  0  3  0  0  0  0  0  0
  -31.0340  -18.8950   20.2680 C   0  0  0  0  0  0  0  0  0  0  0  0
  -30.8830  -21.4530   21.2910 C   0  0  0  0  0  0  0  0  0  0  0  0
  -30.8180  -20.0290   19.4590 C   0  0  0  0  0  0  0  0  0  0  0  0
  -30.7730  -21.2680   19.9550 N   0  0  0  0  0  0  0  0  0  0  0  0
  -29.0520  -23.1110   21.6580 C   0  0  0  0  0  2  0  0  0  0  0  0
  -31.4510  -23.9350   21.0710 C   0  0  0  0  0  2  0  0  0  0  0  0
  -28.6410  -24.5800   21.7960 C   0  0  0  0  0  2  0  0  0  0  0  0
  -30.9460  -25.3730   21.3060 C   0  0  0  0  0  2  0  0  0  0  0  0
  -30.5780  -22.8640   21.7810 C   0  0  0  0  0  3  0  0  0  0  0  0
  -29.4870  -25.4300   20.8350 C   0  0  0  0  0  3  0  0  0  0  0  0
  -28.8940  -26.8180   20.5750 C   0  0  0  0  0  2  0  0  0  0  0  0
  -27.8050  -26.5690   19.6760 O   0  0  0  0  0  0  0  0  0  0  0  0
  -24.4450  -31.7610   23.1150 C   0  0  0  0  0  0  0  0  0  0  0  0
  -26.6950  -27.3610   19.7820 C   0  0  0  0  0  0  0  0  0  0  0  0
  -23.0630  -30.4710   21.5070 C   0  0  0  0  0  3  0  0  0  0  0  0
  -24.3560  -28.9220   19.9440 C   0  0  0  0  0  0  0  0  0  0  0  0
  -25.5670  -30.7580   21.1350 C   0  0  0  0  0  2  0  0  0  0  0  0
  -25.5600  -29.3990   20.4770 C   0  0  0  0  0  0  0  0  0  0  0  0
  -26.7290  -28.6250   20.4030 C   0  0  0  0  0  3  0  0  0  0  0  0
  -25.4830  -26.8860   19.2380 C   0  0  0  0  0  3  0  0  0  0  0  0
  -24.3070  -27.6620   19.3240 C   0  0  0  0  0  3  0  0  0  0  0  0
  -23.1510  -29.8250   20.0950 C   0  0  0  0  0  2  0  0  0  0  0  0
  -24.3810  -31.0080   21.9810 N   0  0  0  0  0  0  0  0  0  0  0  0
  -23.4180  -32.0560   23.7420 O   0  0  0  0  0  0  0  0  0  0  0  0
  -22.4380  -29.4460   22.4790 C   0  0  0  0  0  0  0  0  0  0  0  0
  -21.1060  -29.2800   22.4000 N   0  0  0  0  0  0  0  0  0  0  0  0
  -23.1440  -28.8000   23.2590 O   0  0  0  0  0  0  0  0  0  0  0  0
  -20.5970  -29.8560   21.7450 H   0  0  0  0  0  0  0  0  0  0  0  0
  -17.7550  -28.0630   22.9540 C   0  0  0  0  0  0  0  0  0  0  0  0
  -20.3110  -28.3410   23.1900 C   0  0  0  0  0  3  0  0  0  0  0  0
  -20.4210  -26.9060   22.6240 C   0  0  0  0  0  2  0  0  0  0  0  0
  -19.3100  -26.5680   21.6270 C   0  0  0  0  0  2  0  0  0  0  0  0
  -17.9330  -26.7110   22.2830 C   0  0  0  0  0  2  0  0  0  0  0  0
  -18.8720  -28.8350   23.3660 C   0  0  0  0  0  0  0  0  0  0  0  0
  -18.6560  -30.1030   23.9480 C   0  0  0  0  0  3  0  0  0  0  0  0
  -17.3500  -30.5990   24.1220 C   0  0  0  0  0  3  0  0  0  0  0  0
  -16.2460  -29.8220   23.7270 C   0  0  0  0  0  3  0  0  0  0  0  0
  -16.4500  -28.5550   23.1510 C   0  0  0  0  0  3  0  0  0  0  0  0
  -25.8030  -32.3120   23.6610 C   0  0  0  0  0  3  0  0  0  0  0  0
  -25.5800  -33.7040   24.0700 N   0  0  0  0  0  0  0  0  0  0  0  0
  -25.9240  -34.7760   23.3410 C   0  0  0  0  0  0  0  0  0  0  0  0
  -26.5410  -34.6900   22.2760 O   0  0  0  0  0  0  0  0  0  0  0  0
  -25.0440  -33.8480   24.9130 H   0  0  0  0  0  0  0  0  0  0  0  0
  -24.2660  -36.6560   23.1430 C   0  0  0  0  0  1  0  0  0  0  0  0
  -25.5210  -36.1600   23.8810 C   0  0  0  0  0  3  0  0  0  0  0  0
  -27.7170  -36.9250   24.6680 C   0  0  0  0  0  1  0  0  0  0  0  0
  -26.5910  -37.1740   23.7750 N   0  0  0  0  0  0  0  0  0  0  0  0
  -26.2280  -38.1020   23.9750 H   0  0  0  0  0  0  0  0  0  0  0  0
  -26.3850  -31.4620   24.8590 C   0  0  1  0  0  0  0  0  0  0  0  0
  -25.3760  -31.2430   26.0090 C   0  0  0  0  0  1  0  0  0  0  0  0
  -26.8530  -30.0700   24.3720 C   0  0  0  0  0  1  0  0  0  0  0  0
  -27.6380  -32.1600   25.4400 C   0  0  0  0  0  1  0  0  0  0  0  0
  -30.5760  -19.9660   18.0940 N   0  0  0  0  0  0  0  0  0  0  0  0
  -30.2690  -19.0920   17.6900 H   0  0  0  0  0  0  0  0  0  0  0  0
  -30.1000  -20.7620   17.6860 H   0  0  0  0  0  0  0  0  0  0  0  0
  -31.0720  -17.4860   19.7130 C   0  0  0  0  0  2  0  0  0  0  0  0
  -29.7480  -16.7300   19.9780 C   0  0  0  0  0  2  0  0  0  0  0  0
  -30.6070  -14.4270   20.3150 C   0  0  0  0  0  0  0  0  0  0  0  0
  -30.2410  -12.3090   19.1550 C   0  0  0  0  0  2  0  0  0  0  0  0
  -29.2750  -12.6280   17.9970 C   0  0  0  0  0  2  0  0  0  0  0  0
  -27.8110  -12.4890   18.4600 C   0  0  0  0  0  2  0  0  0  0  0  0
  -27.5350  -13.2730   19.7680 C   0  0  0  0  0  3  0  0  0  0  0  0
  -28.6200  -12.9710   20.8350 C   0  0  0  0  0  2  0  0  0  0  0  0
  -29.9410  -13.2470   20.2440 N   0  0  0  0  0  0  0  0  0  0  0  0
  -31.7220  -14.5990   19.8210 O   0  0  0  0  0  0  0  0  0  0  0  0
  -29.8470  -15.4580   20.7060 N   0  0  0  0  0  0  0  0  0  0  0  0
  -29.0100  -15.1870   21.1980 H   0  0  0  0  0  0  0  0  0  0  0  0
  -25.1560  -13.8730   20.5360 C   0  0  0  0  0  0  0  0  0  0  0  0
  -24.1020  -13.0910   20.9360 C   0  0  0  0  0  0  0  0  0  0  0  0
  -24.5720  -11.7450   20.8830 C   0  0  0  0  0  0  0  0  0  0  0  0
  -26.1960  -12.9950   20.2730 N   0  0  0  0  0  0  0  0  0  0  0  0
  -25.8500  -11.7100   20.5370 N   0  0  0  0  0  0  0  0  0  0  0  0
  -23.8570  -10.4740   21.0790 C   0  0  0  0  0  0  0  0  0  0  0  0
  -24.3160   -9.5000   21.9910 C   0  0  0  0  0  3  0  0  0  0  0  0
  -23.6010   -8.2970   22.1730 C   0  0  0  0  0  3  0  0  0  0  0  0
  -22.4110   -8.0610   21.4460 C   0  0  0  0  0  0  0  0  0  0  0  0
  -21.9700   -9.0270   20.5220 C   0  0  0  0  0  3  0  0  0  0  0  0
  -22.6890  -10.2190   20.3370 C   0  0  0  0  0  3  0  0  0  0  0  0
  -21.6600   -6.9160   21.5440 O   0  0  0  0  0  0  0  0  0  0  0  0
  -21.6600   -6.1520   22.6830 C   0  0  0  0  0  0  0  0  0  0  0  0
  -21.1720   -6.6460   23.9140 C   0  0  0  0  0  3  0  0  0  0  0  0
  -21.1230   -5.8020   25.0410 C   0  0  0  0  0  3  0  0  0  0  0  0
  -21.5550   -4.4670   24.9430 C   0  0  0  0  0  0  0  0  0  0  0  0
  -22.0410   -3.9750   23.7210 C   0  0  0  0  0  3  0  0  0  0  0  0
  -22.0870   -4.8120   22.5920 C   0  0  0  0  0  0  0  0  0  0  0  0
  -22.5320   -4.3260   21.4110 F   0  0  0  0  0  0  0  0  0  0  0  0
  -21.5060   -3.6550   26.0260 F   0  0  0  0  0  0  0  0  0  0  0  0
  -22.7110  -13.5570   21.2540 C   0  0  0  0  0  0  0  0  0  0  0  0
  -22.0020  -12.8360   22.1190 N   0  0  0  0  0  0  0  0  0  0  0  0
  -22.2600  -14.5910   20.7640 O   0  0  0  0  0  0  0  0  0  0  0  0
  -22.3740  -11.9900   22.5210 H   0  0  0  0  0  0  0  0  0  0  0  0
  -21.0740  -13.1360   22.3800 H   0  0  0  0  0  0  0  0  0  0  0  0
  -25.3160  -15.2430   20.3640 N   0  0  0  0  0  0  0  0  0  0  0  0
  -24.5550  -15.9030   20.4800 H   0  0  0  0  0  0  0  0  0  0  0  0
  -26.1630  -15.6670   19.9960 H   0  0  0  0  0  0  0  0  0  0  0  0
  1  2  1  0
  3  1  2  0
  4  2  2  0
  5  6  2  0
  5  3  1  0
  6  4  1  0
  7 11  1  0
  7  9  1  0
  8 10  1  0
  8 11  1  0
 11  4  1  0
 12 13  1  0
 12 10  1  0
 12  9  1  0
 14 16  1  0
 14 13  1  0
 15 26  2  0
 16 21  1  0
 17 25  1  0
 17 27  1  0
 18 24  1  0
 18 20  1  0
 19 25  1  0
 20 19  1  0
 21 20  2  0
 22 23  1  0
 22 16  2  0
 23 18  2  0
 24 17  1  0
 25 15  1  0
 27 29  2  0
 28 27  1  0
 30 28  1  0
 31 40  2  0
 31 36  1  0
 32 28  1  0
 32 36  1  0
 33 32  1  0
 34 35  1  0
 34 33  1  0
 35 31  1  0
 36 37  2  0
 37 38  1  0
 39 38  2  0
 40 39  1  0
 41 15  1  0
 41 42  1  0
 41 51  1  0
 42 45  1  0
 43 47  1  0
 43 42  1  0
 44 43  2  0
 47 46  1  0
 49 47  1  0
 49 50  1  0
 49 48  1  0
 51 54  1  1
 51 52  1  0
 53 51  1  0
 55  5  1  0
 56 55  1  0
 57 55  1  0
 58 59  1  0
 58  3  1  0
 59 68  1  0
 60 68  1  0
 61 66  1  0
 62 63  1  0
 62 61  1  0
 64 63  1  0
 64 73  1  0
 64 65  1  0
 66 60  1  0
 66 65  1  0
 67 60  2  0
 68 69  1  0
 70 71  2  0
 71 90  1  0
 72 71  1  0
 72 75  1  0
 73 70  1  0
 73 74  1  0
 74 72  2  0
 75 76  1  0
 76 77  2  0
 78 81  1  0
 78 77  1  0
 79 78  2  0
 80 79  1  0
 80 75  2  0
 81 82  1  0
 82 83  1  0
 83 84  2  0
 85 84  1  0
 85 89  1  0
 86 85  2  0
 87 82  2  0
 87 86  1  0
 88 87  1  0
 90 91  1  0
 91 94  1  0
 91 93  1  0
 92 90  2  0
 95 96  1  0
 95 70  1  0
 97 95  1  0
M  ISO  4  13 101  14 101  60 100  68 100
M  END
>  <TORSDO>  (7) 
F 21

>  <SCORE>  (7) 
-13.543

>  <name>  (7) 
6

>  <ligand_id>  (7) 
6

>  <original_smiles>  (7) 
[H]c1c(C2([H])C([H])([H])C([H])([H])C([H])(C([H])([H])Oc3c([H])c([H])c4c(c3[H])C([H])([H])N(C(=O)C([H])(N([H])C(=O)C([H])(N([H])C([H])([H])[H])C([H])([H])[H])C(C([H])([H])[H])(C([H])([H])[H])C([H])([H])[H])C([H])(C(=O)N([H])C3([H])c5c([H])c([H])c([H])c([H])c5C([H])([H])C([H])([H])C3([H])[H])C4([H])[H])C([H])([H])C2([H])[H])nc(N([H])[H])c(C([H])([H])C([H])([H])N([H])C(=O)N2C([H])([H])C([H])([H])C([H])([H])C([H])(n3nc(-c4c([H])c([H])c(Oc5c([H])c([H])c(F)c([H])c5F)c([H])c4[H])c(C(=O)N([H])[H])c3N([H])[H])C2([H])[H])c1[H]

>  <smiles>  (7) 
[H]c1c(C2([H])C([H])([H])C([H])([H])C([H])(C([H])([H])Oc3c([H])c([H])c4c(c3[H])C([H])([H])N(C(=O)C([H])(N([H])C(=O)C([H])(N([H])C([H])([H])[H])C([H])([H])[H])C(C([H])([H])[H])(C([H])([H])[H])C([H])([H])[H])C([H])(C(=O)N([H])C3([H])c5c([H])c([H])c([H])c([H])c5C([H])([H])C([H])([H])C3([H])[H])C4([H])[H])C([H])([H])C2([H])[H])nc(N([H])[H])c(C([H])([H])C([H])([H])N([H])C(=O)N2C([H])([H])C([H])([H])C([H])([H])C([H])(n3nc(-c4c([H])c([H])c(Oc5c([H])c([H])c(F)c([H])c5F)c([H])c4[H])c(C(=O)N([H])[H])c3N([H])[H])C2([H])[H])c1[H]

$$$$
7:0:0
     RDKit          3D

 95103  0  0  1  0  0  0  0  0999 V2000
  -28.0480  -20.3700   21.1090 C   0  0  0  0  0  3  0  0  0  0  0  0
  -30.2260  -21.1370   20.3240 C   0  0  0  0  0  3  0  0  0  0  0  0
  -27.8340  -21.6140   21.7360 C   0  0  0  0  0  3  0  0  0  0  0  0
  -30.0010  -22.3900   20.9300 C   0  0  0  0  0  3  0  0  0  0  0  0
  -29.2430  -20.1290   20.3970 C   0  0  0  0  0  0  0  0  0  0  0  0
  -28.8010  -22.6330   21.6290 C   0  0  0  0  0  0  0  0  0  0  0  0
  -28.5410  -23.8970   22.1610 N   0  0  0  0  0  0  0  0  0  0  0  0
  -27.8780  -23.8650   22.9320 H   0  0  0  0  0  0  0  0  0  0  0  0
  -28.0840  -24.8220   21.1250 C   0  0  0  0  0  2  0  0  0  0  0  0
  -28.8580  -26.1500   21.1160 C   0  0  0  0  0  2  0  0  0  0  0  0
  -28.5340  -26.8850   19.9390 O   0  0  0  0  0  0  0  0  0  0  0  0
  -24.6290  -31.8850   23.1540 C   0  0  0  0  0  0  0  0  0  0  0  0
  -27.3520  -27.5760   19.9990 C   0  0  0  0  0  0  0  0  0  0  0  0
  -23.4420  -30.4970   21.4820 C   0  0  0  0  0  3  0  0  0  0  0  0
  -24.9240  -29.0090   20.0350 C   0  0  0  0  0  0  0  0  0  0  0  0
  -25.9540  -30.9150   21.2800 C   0  0  0  0  0  2  0  0  0  0  0  0
  -26.0690  -29.5540   20.6320 C   0  0  0  0  0  0  0  0  0  0  0  0
  -27.2860  -28.8420   20.6190 C   0  0  0  0  0  3  0  0  0  0  0  0
  -26.2000  -27.0390   19.3920 C   0  0  0  0  0  3  0  0  0  0  0  0
  -24.9820  -27.7480   19.4140 C   0  0  0  0  0  3  0  0  0  0  0  0
  -23.6600  -29.8400   20.0930 C   0  0  0  0  0  2  0  0  0  0  0  0
  -24.6930  -31.1120   22.0320 N   0  0  0  0  0  0  0  0  0  0  0  0
  -23.5450  -32.1270   23.7030 O   0  0  0  0  0  0  0  0  0  0  0  0
  -22.8060  -29.4490   22.4240 C   0  0  0  0  0  0  0  0  0  0  0  0
  -21.4850  -29.2560   22.2980 N   0  0  0  0  0  0  0  0  0  0  0  0
  -23.5010  -28.8120   23.2200 O   0  0  0  0  0  0  0  0  0  0  0  0
  -20.9870  -29.8200   21.6220 H   0  0  0  0  0  0  0  0  0  0  0  0
  -18.1230  -28.0240   22.7770 C   0  0  0  0  0  0  0  0  0  0  0  0
  -20.6800  -28.2930   23.0490 C   0  0  0  0  0  3  0  0  0  0  0  0
  -20.7910  -26.8770   22.4360 C   0  0  0  0  0  2  0  0  0  0  0  0
  -19.6890  -26.5710   21.4180 C   0  0  0  0  0  2  0  0  0  0  0  0
  -18.3080  -26.6920   22.0700 C   0  0  0  0  0  2  0  0  0  0  0  0
  -19.2380  -28.7830   23.2240 C   0  0  0  0  0  0  0  0  0  0  0  0
  -19.0130  -30.0310   23.8440 C   0  0  0  0  0  3  0  0  0  0  0  0
  -17.7060  -30.5210   24.0210 C   0  0  0  0  0  3  0  0  0  0  0  0
  -16.6060  -29.7550   23.5980 C   0  0  0  0  0  3  0  0  0  0  0  0
  -16.8140  -28.5100   22.9800 C   0  0  0  0  0  3  0  0  0  0  0  0
  -25.9070  -32.5210   23.7830 C   0  0  0  0  0  3  0  0  0  0  0  0
  -25.5840  -33.9080   24.1400 N   0  0  0  0  0  0  0  0  0  0  0  0
  -25.9030  -34.9740   23.3950 C   0  0  0  0  0  0  0  0  0  0  0  0
  -26.5750  -34.8960   22.3630 O   0  0  0  0  0  0  0  0  0  0  0  0
  -24.9910  -34.0440   24.9440 H   0  0  0  0  0  0  0  0  0  0  0  0
  -24.1540  -36.7490   23.0590 C   0  0  0  0  0  1  0  0  0  0  0  0
  -25.3940  -36.3470   23.8730 C   0  0  0  0  0  3  0  0  0  0  0  0
  -27.5130  -37.2430   24.7300 C   0  0  0  0  0  1  0  0  0  0  0  0
  -26.4120  -37.4150   23.7840 N   0  0  0  0  0  0  0  0  0  0  0  0
  -25.9930  -38.3270   23.9450 H   0  0  0  0  0  0  0  0  0  0  0  0
  -26.4360  -31.7300   25.0430 C   0  0  1  0  0  0  0  0  0  0  0  0
  -25.3490  -31.4530   26.1080 C   0  0  0  0  0  1  0  0  0  0  0  0
  -27.0380  -30.3700   24.6140 C   0  0  0  0  0  1  0  0  0  0  0  0
  -27.5790  -32.5230   25.7180 C   0  0  0  0  0  1  0  0  0  0  0  0
  -29.4470  -18.8020   19.6820 C   0  0  0  0  0  2  0  0  0  0  0  0
  -29.7130  -17.7090   20.6300 N   0  0  0  0  0  4  0  0  0  0  0  0
  -29.4250  -16.8580   20.1790 H   0  0  0  0  0  0  0  0  0  0  0  0
  -29.1400  -17.8350   21.4470 H   0  0  0  0  0  0  0  0  0  0  0  0
  -31.1230  -17.5310   21.0340 C   0  0  0  0  0  2  0  0  0  0  0  0
  -31.3160  -16.2400   21.8620 C   0  0  0  0  0  2  0  0  0  0  0  0
  -30.8510  -14.4000   20.2370 C   0  0  0  0  0  0  0  0  0  0  0  0
  -30.3700  -12.3640   18.9390 C   0  0  0  0  0  2  0  0  0  0  0  0
  -29.3710  -12.6260   17.7970 C   0  0  0  0  0  2  0  0  0  0  0  0
  -27.9230  -12.4860   18.2970 C   0  0  0  0  0  2  0  0  0  0  0  0
  -27.6620  -13.3060   19.5880 C   0  0  0  0  0  3  0  0  0  0  0  0
  -28.7610  -13.0400   20.6420 C   0  0  0  0  0  2  0  0  0  0  0  0
  -30.0820  -13.3010   20.0330 N   0  0  0  0  0  0  0  0  0  0  0  0
  -31.7840  -14.7340   19.5030 O   0  0  0  0  0  0  0  0  0  0  0  0
  -30.5620  -15.0930   21.3440 N   0  0  0  0  0  0  0  0  0  0  0  0
  -29.8410  -14.7030   21.9350 H   0  0  0  0  0  0  0  0  0  0  0  0
  -25.3030  -13.9390   20.4100 C   0  0  0  0  0  0  0  0  0  0  0  0
  -24.2430  -13.1770   20.8220 C   0  0  0  0  0  0  0  0  0  0  0  0
  -24.6830  -11.8190   20.7500 C   0  0  0  0  0  0  0  0  0  0  0  0
  -26.3250  -13.0470   20.1210 N   0  0  0  0  0  0  0  0  0  0  0  0
  -25.9560  -11.7650   20.3800 N   0  0  0  0  0  0  0  0  0  0  0  0
  -23.9500  -10.5640   20.9560 C   0  0  0  0  0  0  0  0  0  0  0  0
  -24.4000   -9.5880   21.8730 C   0  0  0  0  0  3  0  0  0  0  0  0
  -23.6680   -8.3970   22.0680 C   0  0  0  0  0  3  0  0  0  0  0  0
  -22.4710   -8.1740   21.3460 C   0  0  0  0  0  0  0  0  0  0  0  0
  -22.0400   -9.1380   20.4180 C   0  0  0  0  0  3  0  0  0  0  0  0
  -22.7730  -10.3200   20.2210 C   0  0  0  0  0  3  0  0  0  0  0  0
  -21.7070   -7.0360   21.4520 O   0  0  0  0  0  0  0  0  0  0  0  0
  -21.6700   -6.3000   22.6090 C   0  0  0  0  0  0  0  0  0  0  0  0
  -21.2660   -6.8620   23.8400 C   0  0  0  0  0  3  0  0  0  0  0  0
  -21.1760   -6.0510   24.9890 C   0  0  0  0  0  3  0  0  0  0  0  0
  -21.4790   -4.6790   24.9090 C   0  0  0  0  0  0  0  0  0  0  0  0
  -21.8770   -4.1160   23.6840 C   0  0  0  0  0  3  0  0  0  0  0  0
  -21.9690   -4.9230   22.5370 C   0  0  0  0  0  0  0  0  0  0  0  0
  -22.3330   -4.3710   21.3540 F   0  0  0  0  0  0  0  0  0  0  0  0
  -21.3850   -3.8990   26.0100 F   0  0  0  0  0  0  0  0  0  0  0  0
  -22.8670  -13.6670   21.1700 C   0  0  0  0  0  0  0  0  0  0  0  0
  -22.1710  -12.9640   22.0560 N   0  0  0  0  0  0  0  0  0  0  0  0
  -22.4190  -14.7080   20.6900 O   0  0  0  0  0  0  0  0  0  0  0  0
  -22.5460  -12.1210   22.4650 H   0  0  0  0  0  0  0  0  0  0  0  0
  -21.2490  -13.2730   22.3310 H   0  0  0  0  0  0  0  0  0  0  0  0
  -25.4760  -15.3100   20.2390 N   0  0  0  0  0  0  0  0  0  0  0  0
  -24.7120  -15.9660   20.3660 H   0  0  0  0  0  0  0  0  0  0  0  0
  -26.2940  -15.7320   19.8210 H   0  0  0  0  0  0  0  0  0  0  0  0
  1  3  1  0
  2  5  1  0
  2  4  2  0
  4  6  1  0
  5  1  2  0
  6  3  2  0
  6  7  1  0
  7  8  1  0
  9  7  1  0
 10  9  1  0
 11 13  1  0
 11 10  1  0
 12 23  2  0
 13 18  1  0
 14 22  1  0
 14 24  1  0
 15 21  1  0
 15 17  1  0
 16 22  1  0
 17 16  1  0
 18 17  2  0
 19 20  1  0
 19 13  2  0
 20 15  2  0
 21 14  1  0
 22 12  1  0
 24 26  2  0
 25 24  1  0
 27 25  1  0
 28 37  2  0
 28 33  1  0
 29 25  1  0
 29 33  1  0
 30 29  1  0
 31 32  1  0
 31 30  1  0
 32 28  1  0
 33 34  2  0
 34 35  1  0
 36 35  2  0
 37 36  1  0
 38 12  1  0
 38 39  1  0
 38 48  1  0
 39 42  1  0
 40 44  1  0
 40 39  1  0
 41 40  2  0
 44 43  1  0
 46 44  1  0
 46 47  1  0
 46 45  1  0
 48 51  1  1
 48 49  1  0
 50 48  1  0
 52  5  1  0
 52 53  1  0
 53 56  1  0
 53 55  1  0
 54 53  1  0
 56 57  1  0
 58 66  1  0
 59 64  1  0
 60 61  1  0
 60 59  1  0
 62 61  1  0
 62 71  1  0
 62 63  1  0
 64 58  1  0
 64 63  1  0
 65 58  2  0
 66 57  1  0
 66 67  1  0
 68 69  2  0
 69 88  1  0
 70 69  1  0
 70 73  1  0
 71 72  1  0
 71 68  1  0
 72 70  2  0
 73 74  1  0
 74 75  2  0
 76 79  1  0
 76 75  1  0
 77 76  2  0
 78 77  1  0
 78 73  2  0
 79 80  1  0
 80 81  1  0
 81 82  2  0
 83 82  1  0
 83 87  1  0
 84 83  2  0
 85 80  2  0
 85 84  1  0
 86 85  1  0
 88 89  1  0
 89 92  1  0
 89 91  1  0
 90 88  2  0
 93 94  1  0
 93 68  1  0
 95 93  1  0
M  ISO  4  10 101  11 101  58 100  66 100
M  END
>  <TORSDO>  (8) 
F 23

>  <SCORE>  (8) 
-12.209

>  <name>  (8) 
7

>  <ligand_id>  (8) 
7

>  <original_smiles>  (8) 
[H]c1c([H])c([H])c2c(c1[H])C([H])([H])C([H])([H])C([H])([H])C2([H])N([H])C(=O)C1([H])N(C(=O)C([H])(N([H])C(=O)C([H])(N([H])C([H])([H])[H])C([H])([H])[H])C(C([H])([H])[H])(C([H])([H])[H])C([H])([H])[H])C([H])([H])c2c([H])c(OC([H])([H])C([H])([H])N([H])c3c([H])c([H])c(C([H])([H])[N+]([H])([H])C([H])([H])C([H])([H])N([H])C(=O)N4C([H])([H])C([H])([H])C([H])([H])C([H])(n5nc(-c6c([H])c([H])c(Oc7c([H])c([H])c(F)c([H])c7F)c([H])c6[H])c(C(=O)N([H])[H])c5N([H])[H])C4([H])[H])c([H])c3[H])c([H])c([H])c2C1([H])[H]

>  <smiles>  (8) 
[H]c1c([H])c([H])c2c(c1[H])C([H])([H])C([H])([H])C([H])([H])C2([H])N([H])C(=O)C1([H])N(C(=O)C([H])(N([H])C(=O)C([H])(N([H])C([H])([H])[H])C([H])([H])[H])C(C([H])([H])[H])(C([H])([H])[H])C([H])([H])[H])C([H])([H])c2c([H])c(OC([H])([H])C([H])([H])N([H])c3c([H])c([H])c(C([H])([H])[N+]([H])([H])C([H])([H])C([H])([H])N([H])C(=O)N4C([H])([H])C([H])([H])C([H])([H])C([H])(n5nc(-c6c([H])c([H])c(Oc7c([H])c([H])c(F)c([H])c7F)c([H])c6[H])c(C(=O)N([H])[H])c5N([H])[H])C4([H])[H])c([H])c3[H])c([H])c([H])c2C1([H])[H]

$$$$
8:0:0
     RDKit          3D

 99108  0  0  1  0  0  0  0  0999 V2000
  -29.5300  -23.5440   23.8190 N   0  0  0  0  0  0  0  0  0  0  0  0
  -30.1290  -24.0800   24.4400 H   0  0  0  0  0  0  0  0  0  0  0  0
  -29.4150  -21.4920   22.4260 C   0  0  0  0  0  3  0  0  0  0  0  0
  -30.0180  -20.2900   21.9990 C   0  0  0  0  0  3  0  0  0  0  0  0
  -31.8180  -20.6300   23.5830 C   0  0  0  0  0  3  0  0  0  0  0  0
  -31.2490  -21.8570   23.9820 C   0  0  0  0  0  0  0  0  0  0  0  0
  -30.0390  -22.3040   23.3950 C   0  0  0  0  0  0  0  0  0  0  0  0
  -31.2250  -19.8390   22.5830 C   0  0  0  0  0  0  0  0  0  0  0  0
  -31.9410  -22.6510   25.0760 C   0  0  0  0  0  1  0  0  0  0  0  0
  -31.8550  -18.6510   22.2930 O   0  0  0  0  0  0  0  0  0  0  0  0
  -31.2790  -17.7490   21.3570 C   0  0  0  0  0  2  0  0  0  0  0  0
  -32.0360  -16.4170   21.4950 C   0  0  0  0  0  2  0  0  0  0  0  0
  -31.4260  -14.6830   19.8030 C   0  0  0  0  0  0  0  0  0  0  0  0
  -30.8450  -12.6590   18.5200 C   0  0  0  0  0  2  0  0  0  0  0  0
  -29.7900  -12.9220   17.4310 C   0  0  0  0  0  2  0  0  0  0  0  0
  -28.3660  -12.8290   18.0050 C   0  0  0  0  0  2  0  0  0  0  0  0
  -28.1950  -13.6760   19.2900 C   0  0  0  0  0  3  0  0  0  0  0  0
  -29.3280  -13.3820   20.2930 C   0  0  0  0  0  2  0  0  0  0  0  0
  -30.6270  -13.6040   19.6240 N   0  0  0  0  0  0  0  0  0  0  0  0
  -32.3250  -15.0110   19.0180 O   0  0  0  0  0  0  0  0  0  0  0  0
  -31.2550  -15.3010   20.9730 N   0  0  0  0  0  0  0  0  0  0  0  0
  -30.5340  -14.9210   21.5720 H   0  0  0  0  0  0  0  0  0  0  0  0
  -25.9500  -14.4050   20.3330 C   0  0  0  0  0  0  0  0  0  0  0  0
  -24.8570  -13.6870   20.7380 C   0  0  0  0  0  0  0  0  0  0  0  0
  -25.1780  -12.3130   20.5050 C   0  0  0  0  0  0  0  0  0  0  0  0
  -26.8770  -13.4710   19.8920 N   0  0  0  0  0  0  0  0  0  0  0  0
  -26.4170  -12.2010   20.0450 N   0  0  0  0  0  0  0  0  0  0  0  0
  -24.3580  -11.1040   20.6440 C   0  0  0  0  0  0  0  0  0  0  0  0
  -24.7550  -10.0330   21.4740 C   0  0  0  0  0  3  0  0  0  0  0  0
  -23.9420   -8.8870   21.6010 C   0  0  0  0  0  3  0  0  0  0  0  0
  -22.7170   -8.8050   20.8970 C   0  0  0  0  0  0  0  0  0  0  0  0
  -22.3390   -9.8630   20.0520 C   0  0  0  0  0  3  0  0  0  0  0  0
  -23.1530  -11.0000   19.9240 C   0  0  0  0  0  3  0  0  0  0  0  0
  -21.8730   -7.7200   20.9400 O   0  0  0  0  0  0  0  0  0  0  0  0
  -21.7560   -6.9450   22.0660 C   0  0  0  0  0  0  0  0  0  0  0  0
  -21.3650   -7.4890   23.3090 C   0  0  0  0  0  3  0  0  0  0  0  0
  -21.1890   -6.6440   24.4230 C   0  0  0  0  0  3  0  0  0  0  0  0
  -21.3930   -5.2570   24.2950 C   0  0  0  0  0  0  0  0  0  0  0  0
  -21.7770   -4.7130   23.0570 C   0  0  0  0  0  3  0  0  0  0  0  0
  -21.9550   -5.5550   21.9460 C   0  0  0  0  0  0  0  0  0  0  0  0
  -22.3040   -5.0220   20.7490 F   0  0  0  0  0  0  0  0  0  0  0  0
  -21.2170   -4.4440   25.3630 F   0  0  0  0  0  0  0  0  0  0  0  0
  -23.5500  -14.2420   21.2240 C   0  0  0  0  0  0  0  0  0  0  0  0
  -22.8660  -13.5210   22.1060 N   0  0  0  0  0  0  0  0  0  0  0  0
  -23.1510  -15.3490   20.8620 O   0  0  0  0  0  0  0  0  0  0  0  0
  -23.2010  -12.6220   22.4210 H   0  0  0  0  0  0  0  0  0  0  0  0
  -21.9910  -13.8720   22.4690 H   0  0  0  0  0  0  0  0  0  0  0  0
  -26.2260  -15.7700   20.2870 N   0  0  0  0  0  0  0  0  0  0  0  0
  -25.5380  -16.4680   20.5500 H   0  0  0  0  0  0  0  0  0  0  0  0
  -27.0810  -16.1710   19.9210 H   0  0  0  0  0  0  0  0  0  0  0  0
  -28.2260  -25.5690   23.9740 C   0  0  0  0  0  2  0  0  0  0  0  0
  -28.8420  -26.1550   22.6910 C   0  0  0  0  0  2  0  0  0  0  0  0
  -27.6440  -24.1680   22.1960 C   0  0  0  0  0  2  0  0  0  0  0  0
  -28.1700  -24.0770   23.6500 C   0  0  0  0  0  3  0  0  0  0  0  0
  -28.2620  -25.3670   21.5710 N   0  0  2  0  0  4  0  0  0  0  0  0
  -27.5030  -25.9140   21.1940 H   0  0  0  0  0  0  0  0  0  0  0  0
  -29.1440  -24.9910   20.4130 C   0  0  0  0  0  3  0  0  0  0  0  0
  -29.9090  -26.1030   19.6270 C   0  0  0  0  0  3  0  0  0  0  0  0
  -29.6710  -27.4710   19.9740 O   0  0  0  0  0  0  0  0  0  0  0  0
  -24.9430  -31.6110   23.1850 C   0  0  0  0  0  0  0  0  0  0  0  0
  -28.4070  -27.9980   19.8720 C   0  0  0  0  0  0  0  0  0  0  0  0
  -24.0710  -30.2580   21.3080 C   0  0  0  0  0  3  0  0  0  0  0  0
  -25.8210  -29.1270   19.8440 C   0  0  0  0  0  0  0  0  0  0  0  0
  -26.5170  -31.0060   21.3440 C   0  0  0  0  0  2  0  0  0  0  0  0
  -26.8430  -29.7470   20.5680 C   0  0  0  0  0  0  0  0  0  0  0  0
  -28.1420  -29.1970   20.5660 C   0  0  0  0  0  3  0  0  0  0  0  0
  -27.3620  -27.3820   19.1470 C   0  0  0  0  0  3  0  0  0  0  0  0
  -26.0730  -27.9420   19.1300 C   0  0  0  0  0  3  0  0  0  0  0  0
  -24.4630  -29.7840   19.8830 C   0  0  0  0  0  2  0  0  0  0  0  0
  -25.1890  -30.9700   22.0070 N   0  0  0  0  0  0  0  0  0  0  0  0
  -23.8050  -31.6590   23.6720 O   0  0  0  0  0  0  0  0  0  0  0  0
  -23.5240  -29.0500   22.1010 C   0  0  0  0  0  0  0  0  0  0  0  0
  -22.2420  -28.7160   21.8790 N   0  0  0  0  0  0  0  0  0  0  0  0
  -24.2530  -28.4120   22.8620 O   0  0  0  0  0  0  0  0  0  0  0  0
  -21.7120  -29.3010   21.2530 H   0  0  0  0  0  0  0  0  0  0  0  0
  -19.0140  -27.0920   22.0470 C   0  0  0  0  0  0  0  0  0  0  0  0
  -21.5160  -27.5910   22.4710 C   0  0  0  0  0  3  0  0  0  0  0  0
  -21.8060  -26.2770   21.7100 C   0  0  0  0  0  2  0  0  0  0  0  0
  -20.7780  -25.9800   20.6140 C   0  0  0  0  0  2  0  0  0  0  0  0
  -19.3670  -25.8810   21.2050 C   0  0  0  0  0  2  0  0  0  0  0  0
  -20.0250  -27.9050   22.6320 C   0  0  0  0  0  0  0  0  0  0  0  0
  -19.6470  -29.0410   23.3780 C   0  0  0  0  0  3  0  0  0  0  0  0
  -18.2900  -29.3630   23.5580 C   0  0  0  0  0  3  0  0  0  0  0  0
  -17.2930  -28.5470   22.9940 C   0  0  0  0  0  3  0  0  0  0  0  0
  -17.6560  -27.4180   22.2390 C   0  0  0  0  0  3  0  0  0  0  0  0
  -26.0850  -32.3310   23.9670 C   0  0  0  0  0  3  0  0  0  0  0  0
  -25.5880  -33.6660   24.3260 N   0  0  0  0  0  0  0  0  0  0  0  0
  -25.8880  -34.7900   23.6630 C   0  0  0  0  0  0  0  0  0  0  0  0
  -26.6750  -34.8190   22.7150 O   0  0  0  0  0  0  0  0  0  0  0  0
  -24.8800  -33.7070   25.0430 H   0  0  0  0  0  0  0  0  0  0  0  0
  -24.0150  -36.4110   23.2080 C   0  0  0  0  0  1  0  0  0  0  0  0
  -25.2020  -36.0910   24.1310 C   0  0  0  0  0  3  0  0  0  0  0  0
  -27.1260  -37.1500   25.2270 C   0  0  0  0  0  1  0  0  0  0  0  0
  -26.1120  -37.2540   24.1800 N   0  0  0  0  0  0  0  0  0  0  0  0
  -25.5910  -38.1140   24.3310 H   0  0  0  0  0  0  0  0  0  0  0  0
  -26.5660  -31.5420   25.2490 C   0  0  1  0  0  0  0  0  0  0  0  0
  -25.4200  -31.1180   26.1930 C   0  0  0  0  0  1  0  0  0  0  0  0
  -27.3490  -30.2650   24.8410 C   0  0  0  0  0  1  0  0  0  0  0  0
  -27.5390  -32.4250   26.0620 C   0  0  0  0  0  1  0  0  0  0  0  0
  1  2  1  0
  3  7  1  0
  4  3  2  0
  4  8  1  0
  5  6  1  0
  6  9  1  0
  7  1  1  0
  7  6  2  0
  8  5  2  0
 10  8  1  0
 11 12  1  0
 11 10  1  0
 13 21  1  0
 14 19  1  0
 15 16  1  0
 15 14  1  0
 17 16  1  0
 17 26  1  0
 17 18  1  0
 19 13  1  0
 19 18  1  0
 20 13  2  0
 21 12  1  0
 21 22  1  0
 23 24  2  0
 24 43  1  0
 25 28  1  0
 25 24  1  0
 26 27  1  0
 26 23  1  0
 27 25  2  0
 28 29  1  0
 29 30  2  0
 31 34  1  0
 31 30  1  0
 32 31  2  0
 33 32  1  0
 33 28  2  0
 34 35  1  0
 35 36  1  0
 36 37  2  0
 38 37  1  0
 38 42  1  0
 39 38  2  0
 40 35  2  0
 40 39  1  0
 41 40  1  0
 43 44  1  0
 44 46  1  0
 44 47  1  0
 45 43  2  0
 48 23  1  0
 48 49  1  0
 50 48  1  0
 52 51  1  0
 53 54  1  0
 54  1  1  0
 54 51  1  0
 55 53  1  0
 55 52  1  0
 55 56  1  6
 57 55  1  0
 58 59  1  0
 58 57  2  0
 60 71  2  0
 61 59  1  0
 61 66  1  0
 62 70  1  0
 62 72  1  0
 63 69  1  0
 63 65  1  0
 64 70  1  0
 65 64  1  0
 66 65  2  0
 67 61  2  0
 68 67  1  0
 68 63  2  0
 69 62  1  0
 70 60  1  0
 72 74  2  0
 73 72  1  0
 75 73  1  0
 76 85  2  0
 76 81  1  0
 77 73  1  0
 77 81  1  0
 78 77  1  0
 79 80  1  0
 79 78  1  0
 80 76  1  0
 81 82  2  0
 82 83  1  0
 84 83  2  0
 85 84  1  0
 86 60  1  0
 86 87  1  0
 86 96  1  0
 87 90  1  0
 88 92  1  0
 88 87  1  0
 89 88  2  0
 92 91  1  0
 92 94  1  0
 94 95  1  0
 94 93  1  0
 96 99  1  1
 96 97  1  0
 98 96  1  0
M  ISO  4  13 100  21 100  58 101  59 101
M  END
>  <TORSDO>  (9) 
F 23

>  <SCORE>  (9) 
-5.341

>  <name>  (9) 
8

>  <ligand_id>  (9) 
8

>  <original_smiles>  (9) 
[H]c1c([H])c([H])c2c(c1[H])C([H])([H])C([H])([H])C([H])([H])C2([H])N([H])C(=O)C1([H])N(C(=O)C([H])(N([H])C(=O)C([H])(N([H])C([H])([H])[H])C([H])([H])[H])C(C([H])([H])[H])(C([H])([H])[H])C([H])([H])[H])C([H])([H])c2c([H])c(OC([H])([H])C([H])([H])[N+]3([H])C([H])([H])C([H])([H])C([H])(N([H])c4c([H])c([H])c(OC([H])([H])C([H])([H])N([H])C(=O)N5C([H])([H])C([H])([H])C([H])([H])C([H])(n6nc(-c7c([H])c([H])c(Oc8c([H])c([H])c(F)c([H])c8F)c([H])c7[H])c(C(=O)N([H])[H])c6N([H])[H])C5([H])[H])c([H])c4C([H])([H])[H])C3([H])[H])c([H])c([H])c2C1([H])[H]

>  <smiles>  (9) 
[H]c1c([H])c([H])c2c(c1[H])C([H])([H])C([H])([H])C([H])([H])C2([H])N([H])C(=O)C1([H])N(C(=O)C([H])(N([H])C(=O)C([H])(N([H])C([H])([H])[H])C([H])([H])[H])C(C([H])([H])[H])(C([H])([H])[H])C([H])([H])[H])C([H])([H])c2c([H])c(OC([H])([H])C([H])([H])[N+]3([H])C([H])([H])C([H])([H])C([H])(N([H])c4c([H])c([H])c(OC([H])([H])C([H])([H])N([H])C(=O)N5C([H])([H])C([H])([H])C([H])([H])C([H])(n6nc(-c7c([H])c([H])c(Oc8c([H])c([H])c(F)c([H])c8F)c([H])c7[H])c(C(=O)N([H])[H])c6N([H])[H])C5([H])[H])c([H])c4C([H])([H])[H])C3([H])[H])c([H])c([H])c2C1([H])[H]

$$$$
9:0:0
     RDKit          3D

 98107  0  0  1  0  0  0  0  0999 V2000
  -29.2200  -20.4030   22.2600 C   0  0  0  0  0  3  0  0  0  0  0  0
  -29.8380  -19.1730   19.9050 C   0  0  0  0  0  3  0  0  0  0  0  0
  -29.8430  -19.1380   22.3220 C   0  0  0  0  0  0  0  0  0  0  0  0
  -30.1790  -18.5000   21.1030 C   0  0  0  0  0  0  0  0  0  0  0  0
  -28.9750  -21.0170   21.0230 C   0  0  0  0  0  0  0  0  0  0  0  0
  -29.2570  -20.3990   19.8520 N   0  0  0  0  0  0  0  0  0  0  0  0
  -30.2200  -18.6080   26.6570 C   0  0  0  0  0  2  0  0  0  0  0  0
  -29.1940  -17.7560   25.8950 C   0  0  0  0  0  2  0  0  0  0  0  0
  -31.5070  -18.8170   25.8390 C   0  0  0  0  0  2  0  0  0  0  0  0
  -28.8850  -18.3640   24.5210 C   0  0  0  0  0  2  0  0  0  0  0  0
  -31.2000  -19.4070   24.4530 C   0  0  0  0  0  2  0  0  0  0  0  0
  -30.1690  -18.5490   23.6910 C   0  0  0  0  0  3  0  0  0  0  0  0
  -31.0420  -17.2230   21.0230 C   0  0  0  0  0  2  0  0  0  0  0  0
  -31.0500  -14.7830   20.6020 C   0  0  0  0  0  0  0  0  0  0  0  0
  -30.8460  -12.4650   19.7950 C   0  0  0  0  0  2  0  0  0  0  0  0
  -29.9980  -12.4270   18.5100 C   0  0  0  0  0  2  0  0  0  0  0  0
  -28.5060  -12.2920   18.8580 C   0  0  0  0  0  2  0  0  0  0  0  0
  -28.0460  -13.3100   19.9340 C   0  0  0  0  0  3  0  0  0  0  0  0
  -29.0220  -13.3550   21.1310 C   0  0  0  0  0  2  0  0  0  0  0  0
  -30.3740  -13.6000   20.6060 N   0  0  0  0  0  0  0  0  0  0  0  0
  -32.2030  -14.8710   20.1740 O   0  0  0  0  0  0  0  0  0  0  0  0
  -30.3850  -15.8970   20.9740 N   0  0  0  0  0  0  0  0  0  0  0  0
  -29.4340  -15.8070   21.2930 H   0  0  0  0  0  0  0  0  0  0  0  0
  -25.6250  -13.9350   20.5350 C   0  0  0  0  0  0  0  0  0  0  0  0
  -24.5390  -13.1710   20.8720 C   0  0  0  0  0  0  0  0  0  0  0  0
  -24.9940  -11.8170   20.8840 C   0  0  0  0  0  0  0  0  0  0  0  0
  -26.6740  -13.0460   20.3630 N   0  0  0  0  0  0  0  0  0  0  0  0
  -26.2960  -11.7690   20.6320 N   0  0  0  0  0  0  0  0  0  0  0  0
  -24.2540  -10.5610   21.0630 C   0  0  0  0  0  0  0  0  0  0  0  0
  -24.6360   -9.6120   22.0370 C   0  0  0  0  0  3  0  0  0  0  0  0
  -23.8980   -8.4200   22.2050 C   0  0  0  0  0  3  0  0  0  0  0  0
  -22.7650   -8.1680   21.3940 C   0  0  0  0  0  0  0  0  0  0  0  0
  -22.4020   -9.1050   20.4110 C   0  0  0  0  0  3  0  0  0  0  0  0
  -23.1400  -10.2890   20.2430 C   0  0  0  0  0  3  0  0  0  0  0  0
  -22.0030   -7.0250   21.4680 O   0  0  0  0  0  0  0  0  0  0  0  0
  -21.8560   -6.3340   22.6440 C   0  0  0  0  0  0  0  0  0  0  0  0
  -21.3200   -6.9390   23.8030 C   0  0  0  0  0  3  0  0  0  0  0  0
  -21.1170   -6.1730   24.9670 C   0  0  0  0  0  3  0  0  0  0  0  0
  -21.4430   -4.8030   24.9770 C   0  0  0  0  0  0  0  0  0  0  0  0
  -21.9720   -4.1980   23.8220 C   0  0  0  0  0  3  0  0  0  0  0  0
  -22.1740   -4.9610   22.6600 C   0  0  0  0  0  0  0  0  0  0  0  0
  -22.6630   -4.3680   21.5430 F   0  0  0  0  0  0  0  0  0  0  0  0
  -21.2440   -4.0660   26.0940 F   0  0  0  0  0  0  0  0  0  0  0  0
  -23.1330  -13.6560   21.0770 C   0  0  0  0  0  0  0  0  0  0  0  0
  -22.3760  -12.9940   21.9450 N   0  0  0  0  0  0  0  0  0  0  0  0
  -22.7130  -14.6590   20.5010 O   0  0  0  0  0  0  0  0  0  0  0  0
  -22.7280  -12.1850   22.4350 H   0  0  0  0  0  0  0  0  0  0  0  0
  -21.4290  -13.3010   22.1230 H   0  0  0  0  0  0  0  0  0  0  0  0
  -25.8060  -15.3000   20.3400 N   0  0  0  0  0  0  0  0  0  0  0  0
  -25.0410  -15.9630   20.3930 H   0  0  0  0  0  0  0  0  0  0  0  0
  -26.6710  -15.7210   20.0280 H   0  0  0  0  0  0  0  0  0  0  0  0
  -28.4500  -22.4550   20.9940 C   0  0  0  0  0  2  0  0  0  0  0  0
  -28.0090  -22.9210   19.6630 N   0  0  0  0  0  4  0  0  0  0  0  0
  -27.3300  -22.2550   19.3280 H   0  0  0  0  0  0  0  0  0  0  0  0
  -28.8130  -22.8400   19.0600 H   0  0  0  0  0  0  0  0  0  0  0  0
  -27.4620  -24.3120   19.6610 C   0  0  0  0  0  2  0  0  0  0  0  0
  -27.4120  -24.9580   18.2560 C   0  0  0  0  0  2  0  0  0  0  0  0
  -27.4070  -26.3930   18.3340 O   0  0  0  0  0  0  0  0  0  0  0  0
  -24.3550  -31.1030   22.6990 C   0  0  0  0  0  0  0  0  0  0  0  0
  -26.2530  -27.1000   18.6150 C   0  0  0  0  0  0  0  0  0  0  0  0
  -22.8400  -30.0290   21.0660 C   0  0  0  0  0  3  0  0  0  0  0  0
  -23.9740  -28.6740   19.2270 C   0  0  0  0  0  0  0  0  0  0  0  0
  -25.3240  -30.3180   20.5380 C   0  0  0  0  0  2  0  0  0  0  0  0
  -25.2330  -29.0550   19.7040 C   0  0  0  0  0  0  0  0  0  0  0  0
  -26.3700  -28.2730   19.4010 C   0  0  0  0  0  3  0  0  0  0  0  0
  -24.9700  -26.7300   18.1470 C   0  0  0  0  0  3  0  0  0  0  0  0
  -23.8380  -27.5120   18.4490 C   0  0  0  0  0  3  0  0  0  0  0  0
  -22.8040  -29.5620   19.5860 C   0  0  0  0  0  2  0  0  0  0  0  0
  -24.2030  -30.4860   21.4920 N   0  0  0  0  0  0  0  0  0  0  0  0
  -23.3820  -31.3280   23.4300 O   0  0  0  0  0  0  0  0  0  0  0  0
  -22.2710  -28.8970   21.9500 C   0  0  0  0  0  0  0  0  0  0  0  0
  -20.9400  -28.7210   21.9110 N   0  0  0  0  0  0  0  0  0  0  0  0
  -23.0180  -28.1820   22.6230 O   0  0  0  0  0  0  0  0  0  0  0  0
  -20.3950  -29.3540   21.3420 H   0  0  0  0  0  0  0  0  0  0  0  0
  -17.6270  -27.3800   22.4350 C   0  0  0  0  0  0  0  0  0  0  0  0
  -20.1860  -27.6920   22.6250 C   0  0  0  0  0  3  0  0  0  0  0  0
  -20.3010  -26.3230   21.9170 C   0  0  0  0  0  2  0  0  0  0  0  0
  -19.1660  -26.0600   20.9230 C   0  0  0  0  0  2  0  0  0  0  0  0
  -17.8110  -26.1020   21.6340 C   0  0  0  0  0  2  0  0  0  0  0  0
  -18.7420  -28.1360   22.8860 C   0  0  0  0  0  0  0  0  0  0  0  0
  -18.5120  -29.3350   23.5950 C   0  0  0  0  0  3  0  0  0  0  0  0
  -17.2020  -29.7770   23.8580 C   0  0  0  0  0  3  0  0  0  0  0  0
  -16.1040  -29.0180   23.4180 C   0  0  0  0  0  3  0  0  0  0  0  0
  -16.3180  -27.8210   22.7140 C   0  0  0  0  0  3  0  0  0  0  0  0
  -25.7540  -31.5730   23.2080 C   0  0  0  0  0  3  0  0  0  0  0  0
  -25.5760  -32.8870   23.8400 N   0  0  0  0  0  0  0  0  0  0  0  0
  -25.9340  -34.0510   23.2850 C   0  0  0  0  0  0  0  0  0  0  0  0
  -26.5190  -34.1240   22.2000 O   0  0  0  0  0  0  0  0  0  0  0  0
  -25.0500  -32.9040   24.7010 H   0  0  0  0  0  0  0  0  0  0  0  0
  -24.3590  -36.0080   23.4070 C   0  0  0  0  0  1  0  0  0  0  0  0
  -25.5850  -35.3420   24.0520 C   0  0  0  0  0  3  0  0  0  0  0  0
  -27.8120  -35.8510   24.9500 C   0  0  0  0  0  1  0  0  0  0  0  0
  -26.7010  -36.3090   24.1190 N   0  0  0  0  0  0  0  0  0  0  0  0
  -26.3830  -37.2050   24.4780 H   0  0  0  0  0  0  0  0  0  0  0  0
  -26.4230  -30.5580   24.2150 C   0  0  1  0  0  0  0  0  0  0  0  0
  -25.5010  -30.1420   25.3870 C   0  0  0  0  0  1  0  0  0  0  0  0
  -26.8580  -29.2740   23.4720 C   0  0  0  0  0  1  0  0  0  0  0  0
  -27.7030  -31.1820   24.8180 C   0  0  0  0  0  1  0  0  0  0  0  0
  1  3  1  0
  2  4  1  0
  3 12  1  0
  4  3  2  0
  5  1  2  0
  6  2  2  0
  6  5  1  0
  8  7  1  0
  9  7  1  0
 10  8  1  0
 11  9  1  0
 12 11  1  0
 12 10  1  0
 13  4  1  0
 14 20  1  0
 14 22  1  0
 15 20  1  0
 16 17  1  0
 16 15  1  0
 18 17  1  0
 18 27  1  0
 18 19  1  0
 20 19  1  0
 21 14  2  0
 22 13  1  0
 22 23  1  0
 24 25  2  0
 25 26  1  0
 25 44  1  0
 26 29  1  0
 27 24  1  0
 27 28  1  0
 28 26  2  0
 29 30  1  0
 30 31  2  0
 32 35  1  0
 32 31  1  0
 33 32  2  0
 34 33  1  0
 34 29  2  0
 35 36  1  0
 36 41  2  0
 36 37  1  0
 37 38  2  0
 38 39  1  0
 39 43  1  0
 40 39  2  0
 41 40  1  0
 42 41  1  0
 44 45  1  0
 45 48  1  0
 45 47  1  0
 46 44  2  0
 49 50  1  0
 49 24  1  0
 51 49  1  0
 52  5  1  0
 53 52  1  0
 54 53  1  0
 55 53  1  0
 56 53  1  0
 57 58  1  0
 57 56  1  0
 58 60  1  0
 59 70  2  0
 60 65  1  0
 61 69  1  0
 61 71  1  0
 62 68  1  0
 62 64  1  0
 63 69  1  0
 64 63  1  0
 65 64  2  0
 66 67  1  0
 66 60  2  0
 67 62  2  0
 68 61  1  0
 69 59  1  0
 71 73  2  0
 72 71  1  0
 74 72  1  0
 75 84  2  0
 75 80  1  0
 76 72  1  0
 76 80  1  0
 77 76  1  0
 78 79  1  0
 78 77  1  0
 79 75  1  0
 80 81  2  0
 81 82  1  0
 83 82  2  0
 84 83  1  0
 85 59  1  0
 85 86  1  0
 85 95  1  0
 86 89  1  0
 87 86  1  0
 87 91  1  0
 88 87  2  0
 91 90  1  0
 91 93  1  0
 93 94  1  0
 93 92  1  0
 95 98  1  1
 95 96  1  0
 97 95  1  0
M  ISO  4  14 100  22 100  57 101  58 101
M  END
>  <TORSDO>  (10) 
F 22

>  <SCORE>  (10) 
8.798

>  <name>  (10) 
9

>  <ligand_id>  (10) 
9

>  <original_smiles>  (10) 
[H]c1nc(C([H])([H])[N+]([H])([H])C([H])([H])C([H])([H])Oc2c([H])c([H])c3c(c2[H])C([H])([H])N(C(=O)C([H])(N([H])C(=O)C([H])(N([H])C([H])([H])[H])C([H])([H])[H])C(C([H])([H])[H])(C([H])([H])[H])C([H])([H])[H])C([H])(C(=O)N([H])C2([H])c4c([H])c([H])c([H])c([H])c4C([H])([H])C([H])([H])C2([H])[H])C3([H])[H])c([H])c(C2([H])C([H])([H])C([H])([H])C([H])([H])C([H])([H])C2([H])[H])c1C([H])([H])N([H])C(=O)N1C([H])([H])C([H])([H])C([H])([H])C([H])(n2nc(-c3c([H])c([H])c(Oc4c([H])c([H])c(F)c([H])c4F)c([H])c3[H])c(C(=O)N([H])[H])c2N([H])[H])C1([H])[H]

>  <smiles>  (10) 
[H]c1nc(C([H])([H])[N+]([H])([H])C([H])([H])C([H])([H])Oc2c([H])c([H])c3c(c2[H])C([H])([H])N(C(=O)C([H])(N([H])C(=O)C([H])(N([H])C([H])([H])[H])C([H])([H])[H])C(C([H])([H])[H])(C([H])([H])[H])C([H])([H])[H])C([H])(C(=O)N([H])C2([H])c4c([H])c([H])c([H])c([H])c4C([H])([H])C([H])([H])C2([H])[H])C3([H])[H])c([H])c(C2([H])C([H])([H])C([H])([H])C([H])([H])C([H])([H])C2([H])[H])c1C([H])([H])N([H])C(=O)N1C([H])([H])C([H])([H])C([H])([H])C([H])(n2nc(-c3c([H])c([H])c(Oc4c([H])c([H])c(F)c([H])c4F)c([H])c3[H])c(C(=O)N([H])[H])c2N([H])[H])C1([H])[H]

$$$$
10:0:0
     RDKit          3D

 98102  0  0  1  0  0  0  0  0999 V2000
  -26.2000  -21.6570   18.7230 C   0  0  0  0  0  2  0  0  0  0  0  0
  -27.2930  -20.6910   18.3160 C   0  0  0  0  0  3  0  0  0  0  0  0
  -28.2060  -22.3880   19.7920 C   0  0  0  0  0  2  0  0  0  0  0  0
  -28.0860  -20.5690   19.6060 N   0  0  0  0  0  0  0  0  0  0  0  0
  -26.8640  -22.7780   19.3080 N   0  0  0  0  0  4  0  0  0  0  0  0
  -26.3100  -23.0680   20.0980 H   0  0  0  0  0  0  0  0  0  0  0  0
  -26.8830  -23.5560   18.6680 H   0  0  0  0  0  0  0  0  0  0  0  0
  -26.8170  -18.1020   17.4250 C   0  0  0  0  0  1  0  0  0  0  0  0
  -25.1510  -19.8640   16.8630 C   0  0  0  0  0  1  0  0  0  0  0  0
  -26.6200  -19.6160   17.3320 C   0  0  0  0  0  3  0  0  0  0  0  0
  -28.9630  -19.0270   19.4360 C   0  0  0  0  0  1  0  0  0  0  0  0
  -28.4780  -15.2880   18.3650 C   0  0  0  0  0 15  0  0  0  0  0  0
  -29.4120  -16.5820   21.2820 C   0  0  0  0  0  3  0  0  0  0  0  0
  -29.3690  -13.1880   18.8110 C   0  0  0  0  0  1  0  0  0  0  0  0
  -30.0300  -15.0180   22.0930 C   0  0  0  0  0  3  0  0  0  0  0  0
  -28.8270  -17.0200   19.5810 C   0  0  0  0  0  1  0  0  0  0  0  0
  -30.4070  -13.3500   21.2340 C   0  0  0  0  0  2  0  0  0  0  0  0
  -31.9560  -13.0550   21.8370 C   0  0  0  0  0  2  0  0  0  0  0  0
  -33.4100  -14.1930   19.8790 C   0  0  0  0  0  0  0  0  0  0  0  0
  -33.2420  -12.7170   17.8590 C   0  0  0  0  0  2  0  0  0  0  0  0
  -32.0190  -12.8530   16.8940 C   0  0  0  0  0  2  0  0  0  0  0  0
  -30.8790  -13.8170   17.4920 C   0  0  0  0  0  2  0  0  0  0  0  0
  -30.5260  -14.3570   19.1190 C   0  0  0  0  0  3  0  0  0  0  0  0
  -31.6070  -13.0020   19.2360 C   0  0  0  0  0  2  0  0  0  0  0  0
  -32.9180  -13.2490   19.1420 N   0  0  0  0  0  0  0  0  0  0  0  0
  -34.1550  -15.0310   19.3490 O   0  0  0  0  0  0  0  0  0  0  0  0
  -33.1730  -13.8690   21.2070 N   0  0  0  0  0  0  0  0  0  0  0  0
  -33.7650  -14.3390   21.8850 H   0  0  0  0  0  0  0  0  0  0  0  0
  -27.3290  -14.9380   20.5720 C   0  0  0  0  0  0  0  0  0  0  0  0
  -26.2540  -14.1010   20.7760 C   0  0  0  0  0  0  0  0  0  0  0  0
  -26.5930  -12.7600   20.6480 C   0  0  0  0  0  3  0  0  0  0  0  0
  -28.4960  -14.2730   20.2940 N   0  0  0  0  0  2  0  0  0  0  0  0
  -27.8430  -12.9520   20.7590 N   0  0  0  0  0  2  0  0  0  0  0  0
  -25.8660  -11.4340   20.7350 C   0  0  0  0  0  0  0  0  0  0  0  0
  -26.1680  -10.3820   21.6490 C   0  0  0  0  0  3  0  0  0  0  0  0
  -25.3190   -9.2450   21.7830 C   0  0  0  0  0  3  0  0  0  0  0  0
  -24.1380   -9.1360   21.0090 C   0  0  0  0  0  0  0  0  0  0  0  0
  -23.8720  -10.1450   20.0670 C   0  0  0  0  0  3  0  0  0  0  0  0
  -24.7250  -11.2500   19.9210 C   0  0  0  0  0  3  0  0  0  0  0  0
  -23.2410   -8.0820   21.0820 O   0  0  0  0  0  0  0  0  0  0  0  0
  -22.8300   -7.5400   22.2740 C   0  0  0  0  0  0  0  0  0  0  0  0
  -22.1780   -8.3050   23.2680 C   0  0  0  0  0  3  0  0  0  0  0  0
  -21.7170   -7.6880   24.4510 C   0  0  0  0  0  3  0  0  0  0  0  0
  -21.8980   -6.3060   24.6400 C   0  0  0  0  0  0  0  0  0  0  0  0
  -22.5330   -5.5350   23.6530 C   0  0  0  0  0  3  0  0  0  0  0  0
  -22.9920   -6.1480   22.4700 C   0  0  0  0  0  0  0  0  0  0  0  0
  -23.5800   -5.3930   21.5120 F   0  0  0  0  0  0  0  0  0  0  0  0
  -21.4540   -5.7190   25.7750 F   0  0  0  0  0  0  0  0  0  0  0  0
  -24.9460  -14.5770   21.1960 C   0  0  0  0  0  0  0  0  0  0  0  0
  -24.3610  -13.9060   22.1760 N   0  0  0  0  0  0  0  0  0  0  0  0
  -24.5070  -15.6260   20.7350 O   0  0  0  0  0  0  0  0  0  0  0  0
  -24.7930  -13.0980   22.5960 H   0  0  0  0  0  0  0  0  0  0  0  0
  -23.4660  -14.2150   22.5380 H   0  0  0  0  0  0  0  0  0  0  0  0
  -27.2880  -16.2780   20.6540 N   0  0  0  0  0  0  0  0  0  0  0  0
  -26.4210  -16.7840   20.8200 H   0  0  0  0  0  0  0  0  0  0  0  0
  -28.0970  -16.8620   20.5060 H   0  0  0  0  0  0  0  0  0  0  0  0
  -28.2170  -24.0360   20.8790 C   0  0  0  0  0  1  0  0  0  0  0  0
  -28.5200  -25.8230   20.8760 O   0  0  0  0  0  0  0  0  0  0  0  0
  -25.0430  -32.2200   23.7590 C   0  0  0  0  0  0  0  0  0  0  0  0
  -27.6870  -27.1390   20.8560 C   0  0  0  0  0  0  0  0  0  0  0  0
  -24.0080  -30.8170   22.0450 C   0  0  0  0  0  3  0  0  0  0  0  0
  -25.5460  -29.2510   20.6730 C   0  0  0  0  0  0  0  0  0  0  0  0
  -26.5860  -30.9910   22.0910 C   0  0  0  0  0  2  0  0  0  0  0  0
  -26.6940  -29.5640   21.4100 C   0  0  0  0  0  0  0  0  0  0  0  0
  -27.7760  -28.5350   21.4640 C   0  0  0  0  0  3  0  0  0  0  0  0
  -26.5530  -27.0830   20.0330 C   0  0  0  0  0  3  0  0  0  0  0  0
  -25.5290  -28.0550   19.9510 C   0  0  0  0  0  3  0  0  0  0  0  0
  -24.3390  -30.1900   20.6680 C   0  0  0  0  0  2  0  0  0  0  0  0
  -25.2370  -31.3800   22.6830 N   0  0  0  0  0  0  0  0  0  0  0  0
  -23.9060  -32.4730   24.2000 O   0  0  0  0  0  0  0  0  0  0  0  0
  -23.2790  -29.7780   22.9450 C   0  0  0  0  0  0  0  0  0  0  0  0
  -21.9710  -29.5570   22.7190 N   0  0  0  0  0  0  0  0  0  0  0  0
  -23.9050  -29.1770   23.8200 O   0  0  0  0  0  0  0  0  0  0  0  0
  -21.5150  -30.0960   21.9970 H   0  0  0  0  0  0  0  0  0  0  0  0
  -18.6190  -28.1790   22.9740 C   0  0  0  0  0  0  0  0  0  0  0  0
  -21.1360  -28.5750   23.4240 C   0  0  0  0  0  3  0  0  0  0  0  0
  -21.3510  -27.1520   22.8540 C   0  0  0  0  0  2  0  0  0  0  0  0
  -20.3450  -26.7830   21.7600 C   0  0  0  0  0  2  0  0  0  0  0  0
  -18.9150  -26.8490   22.3020 C   0  0  0  0  0  2  0  0  0  0  0  0
  -19.6630  -28.9960   23.4860 C   0  0  0  0  0  0  0  0  0  0  0  0
  -19.3310  -30.2360   24.0740 C   0  0  0  0  0  3  0  0  0  0  0  0
  -17.9920  -30.6630   24.1530 C   0  0  0  0  0  3  0  0  0  0  0  0
  -16.9630  -29.8450   23.6550 C   0  0  0  0  0  3  0  0  0  0  0  0
  -17.2760  -28.6040   23.0720 C   0  0  0  0  0  3  0  0  0  0  0  0
  -26.2290  -32.9140   24.4860 C   0  0  0  0  0  3  0  0  0  0  0  0
  -25.8760  -34.3350   24.6920 N   0  0  0  0  0  0  0  0  0  0  0  0
  -26.2860  -35.3540   23.9270 C   0  0  0  0  0  0  0  0  0  0  0  0
  -27.0640  -35.2000   22.9820 O   0  0  0  0  0  0  0  0  0  0  0  0
  -25.1980  -34.5240   25.4160 H   0  0  0  0  0  0  0  0  0  0  0  0
  -24.6050  -37.1310   23.3120 C   0  0  0  0  0  1  0  0  0  0  0  0
  -25.7610  -36.7690   24.2600 C   0  0  0  0  0  3  0  0  0  0  0  0
  -27.7960  -37.7230   25.2560 C   0  0  0  0  0  1  0  0  0  0  0  0
  -26.8010  -37.8190   24.1900 N   0  0  0  0  0  0  0  0  0  0  0  0
  -26.3830  -38.7450   24.2300 H   0  0  0  0  0  0  0  0  0  0  0  0
  -26.5760  -32.2480   25.8760 C   0  0  1  0  0  0  0  0  0  0  0  0
  -25.3510  -32.0440   26.8000 C   0  0  0  0  0  1  0  0  0  0  0  0
  -27.2400  -30.8690   25.6780 C   0  0  0  0  0  1  0  0  0  0  0  0
  -27.6040  -33.1230   26.6340 C   0  0  0  0  0  1  0  0  0  0  0  0
  1  5  1  0
  2 10  1  0
  2  1  1  0
  2  4  1  0
  4  3  1  0
  5  3  1  0
  5  6  1  0
  7  5  1  0
  9 10  1  0
 10  8  1  0
 11  4  1  0
 13 15  2  0
 16 13  1  0
 17 18  1  0
 17 15  1  0
 19 27  1  0
 20 25  1  0
 21 22  1  0
 21 20  1  0
 22 23  1  0
 23 14  1  0
 23 24  1  0
 25 24  1  0
 25 19  1  0
 26 19  2  0
 27 18  1  0
 27 28  1  0
 29 54  1  0
 29 30  2  0
 30 49  1  0
 31 34  1  0
 31 33  1  0
 31 30  1  0
 32 29  1  0
 32 33  1  0
 34 35  1  0
 35 36  2  0
 37 40  1  0
 37 36  1  0
 38 37  2  0
 39 38  1  0
 39 34  2  0
 40 41  1  0
 41 46  2  0
 41 42  1  0
 42 43  2  0
 43 44  1  0
 44 48  1  0
 45 44  2  0
 46 45  1  0
 47 46  1  0
 49 50  1  0
 50 53  1  0
 50 52  1  0
 51 49  2  0
 54 55  1  0
 56 54  1  0
 58 57  1  0
 59 70  2  0
 60 58  1  0
 60 65  1  0
 61 69  1  0
 61 71  1  0
 62 64  1  0
 63 69  1  0
 64 65  2  0
 64 63  1  0
 66 60  2  0
 67 66  1  0
 67 62  2  0
 68 62  1  0
 68 61  1  0
 69 59  1  0
 71 73  2  0
 72 71  1  0
 74 72  1  0
 75 84  2  0
 75 80  1  0
 76 72  1  0
 76 80  1  0
 77 76  1  0
 78 79  1  0
 78 77  1  0
 79 75  1  0
 80 81  2  0
 81 82  1  0
 83 82  2  0
 84 83  1  0
 85 59  1  0
 85 86  1  0
 85 95  1  0
 86 89  1  0
 87 91  1  0
 87 86  1  0
 88 87  2  0
 91 90  1  0
 93 94  1  0
 93 91  1  0
 93 92  1  0
 95 98  1  1
 95 96  1  0
 97 95  1  0
M  ISO  4  19 100  27 100  57 101  58 101
M  END
>  <TORSDO>  (11) 
F 21

>  <SCORE>  (11) 
-6.170

>  <name>  (11) 
10

>  <ligand_id>  (11) 
10

>  <original_smiles>  (11) 
[H]c1c([H])c([H])c2c(c1[H])C([H])([H])C([H])([H])C([H])([H])C2([H])N([H])C(=O)C1([H])N(C(=O)C([H])(N([H])C(=O)C([H])(N([H])C([H])([H])[H])C([H])([H])[H])C(C([H])([H])[H])(C([H])([H])[H])C([H])([H])[H])C([H])([H])c2c([H])c(OC([H])([H])C3([H])N(C([H])([H])C4([H])C([H])([H])C([H])([H])C([H])(C([H])([H])N([H])C(=O)N5C([H])([H])C([H])([H])C([H])([H])C([H])(n6nc(-c7c([H])c([H])c(Oc8c([H])c([H])c(F)c([H])c8F)c([H])c7[H])c(C(=O)N([H])[H])c6N([H])[H])C5([H])[H])C([H])([H])C4([H])[H])C([H])(C([H])(C([H])([H])[H])C([H])([H])[H])C([H])([H])[N+]3([H])[H])c([H])c([H])c2C1([H])[H]

>  <smiles>  (11) 
[H]c1c([H])c([H])c2c(c1[H])C([H])([H])C([H])([H])C([H])([H])C2([H])N([H])C(=O)C1([H])N(C(=O)C([H])(N([H])C(=O)C([H])(N([H])C([H])([H])[H])C([H])([H])[H])C(C([H])([H])[H])(C([H])([H])[H])C([H])([H])[H])C([H])([H])c2c([H])c(OC([H])([H])C3([H])N(C([H])([H])C4([H])C([H])([H])C([H])([H])C([H])(C([H])([H])N([H])C(=O)N5C([H])([H])C([H])([H])C([H])([H])C([H])(n6nc(-c7c([H])c([H])c(Oc8c([H])c([H])c(F)c([H])c8F)c([H])c7[H])c(C(=O)N([H])[H])c6N([H])[H])C5([H])[H])C([H])([H])C4([H])[H])C([H])(C([H])(C([H])([H])[H])C([H])([H])[H])C([H])([H])[N+]3([H])[H])c([H])c([H])c2C1([H])[H]

$$$$
11:0:0
     RDKit          3D

 93102  0  0  1  0  0  0  0  0999 V2000
  -27.0450  -19.0710   19.4970 C   0  0  0  0  0  3  0  0  0  0  0  0
  -27.7550  -17.8710   19.7020 C   0  0  0  0  0  3  0  0  0  0  0  0
  -29.3210  -19.0730   21.1140 C   0  0  0  0  0  3  0  0  0  0  0  0
  -27.4490  -20.2630   20.1210 C   0  0  0  0  0  0  0  0  0  0  0  0
  -28.6910  -20.3160   20.7970 C   0  0  0  0  0  0  0  0  0  0  0  0
  -28.8190  -17.8320   20.6330 C   0  0  0  0  0  0  0  0  0  0  0  0
  -26.5400  -21.4940   20.0820 C   0  0  0  0  0  2  0  0  0  0  0  0
  -29.2990  -21.7040   21.1520 C   0  0  0  0  0  2  0  0  0  0  0  0
  -27.1480  -22.7050   20.8190 C   0  0  0  0  0  2  0  0  0  0  0  0
  -28.5710  -22.7940   20.4200 N   0  0  1  0  0  4  0  0  0  0  0  0
  -28.5680  -22.4440   19.4730 H   0  0  0  0  0  0  0  0  0  0  0  0
  -29.3220  -16.4680   21.1760 C   0  0  0  0  0  2  0  0  0  0  0  0
  -31.1180  -14.7220   20.3020 C   0  0  0  0  0  0  0  0  0  0  0  0
  -30.8600  -12.4570   19.3570 C   0  0  0  0  0  2  0  0  0  0  0  0
  -29.9000  -12.4840   18.1510 C   0  0  0  0  0  2  0  0  0  0  0  0
  -28.4400  -12.3360   18.6290 C   0  0  0  0  0  2  0  0  0  0  0  0
  -28.0880  -13.2880   19.8010 C   0  0  0  0  0  3  0  0  0  0  0  0
  -29.1610  -13.1880   20.9070 C   0  0  0  0  0  2  0  0  0  0  0  0
  -30.4400  -13.5360   20.2760 N   0  0  0  0  0  0  0  0  0  0  0  0
  -32.2690  -14.7930   19.8660 O   0  0  0  0  0  0  0  0  0  0  0  0
  -30.5030  -15.9260   20.4840 N   0  0  0  0  0  0  0  0  0  0  0  0
  -31.1530  -16.6690   20.2800 H   0  0  0  0  0  0  0  0  0  0  0  0
  -25.7310  -13.9280   20.6050 C   0  0  0  0  0  0  0  0  0  0  0  0
  -24.6540  -13.1720   20.9610 C   0  0  0  0  0  0  0  0  0  0  0  0
  -25.0760  -11.8110   20.8630 C   0  0  0  0  0  0  0  0  0  0  0  0
  -26.7470  -13.0310   20.3110 N   0  0  0  0  0  0  0  0  0  0  0  0
  -26.3570  -11.7480   20.5230 N   0  0  0  0  0  0  0  0  0  0  0  0
  -24.3120  -10.5700   21.0150 C   0  0  0  0  0  0  0  0  0  0  0  0
  -24.6680   -9.6060   21.9840 C   0  0  0  0  0  3  0  0  0  0  0  0
  -23.9090   -8.4270   22.1330 C   0  0  0  0  0  3  0  0  0  0  0  0
  -22.7760   -8.2080   21.3150 C   0  0  0  0  0  0  0  0  0  0  0  0
  -22.4380   -9.1560   20.3350 C   0  0  0  0  0  3  0  0  0  0  0  0
  -23.1990  -10.3260   20.1820 C   0  0  0  0  0  3  0  0  0  0  0  0
  -21.9900   -7.0840   21.3710 O   0  0  0  0  0  0  0  0  0  0  0  0
  -21.7350   -6.4440   22.5560 C   0  0  0  0  0  0  0  0  0  0  0  0
  -21.0920   -7.1000   23.6300 C   0  0  0  0  0  3  0  0  0  0  0  0
  -20.7820   -6.3860   24.8030 C   0  0  0  0  0  3  0  0  0  0  0  0
  -21.1070   -5.0200   24.9040 C   0  0  0  0  0  0  0  0  0  0  0  0
  -21.7490   -4.3670   23.8380 C   0  0  0  0  0  3  0  0  0  0  0  0
  -22.0590   -5.0770   22.6650 C   0  0  0  0  0  0  0  0  0  0  0  0
  -22.6540   -4.4410   21.6280 F   0  0  0  0  0  0  0  0  0  0  0  0
  -20.8060   -4.3310   26.0300 F   0  0  0  0  0  0  0  0  0  0  0  0
  -23.2810  -13.6790   21.2910 C   0  0  0  0  0  0  0  0  0  0  0  0
  -22.5820  -13.0070   22.1960 N   0  0  0  0  0  0  0  0  0  0  0  0
  -22.8400  -14.7090   20.7790 O   0  0  0  0  0  0  0  0  0  0  0  0
  -22.9520  -12.1720   22.6320 H   0  0  0  0  0  0  0  0  0  0  0  0
  -21.6680  -13.3400   22.4700 H   0  0  0  0  0  0  0  0  0  0  0  0
  -25.9140  -15.2950   20.4930 N   0  0  0  0  0  0  0  0  0  0  0  0
  -25.1550  -15.9540   20.6300 H   0  0  0  0  0  0  0  0  0  0  0  0
  -26.7670  -15.7340   20.1840 H   0  0  0  0  0  0  0  0  0  0  0  0
  -29.2270  -24.1640   20.3060 C   0  0  0  0  0  2  0  0  0  0  0  0
  -28.2480  -25.3140   19.8330 C   0  0  0  0  0  2  0  0  0  0  0  0
  -28.5990  -26.7480   19.8890 O   0  0  0  0  0  0  0  0  0  0  0  0
  -24.6420  -31.5980   23.2640 C   0  0  0  0  0  0  0  0  0  0  0  0
  -27.4940  -27.5940   19.7900 C   0  0  0  0  0  0  0  0  0  0  0  0
  -23.5330  -30.3070   21.4970 C   0  0  0  0  0  3  0  0  0  0  0  0
  -25.0550  -29.0410   19.8920 C   0  0  0  0  0  0  0  0  0  0  0  0
  -26.0380  -30.8350   21.3330 C   0  0  0  0  0  2  0  0  0  0  0  0
  -26.1980  -29.5420   20.5400 C   0  0  0  0  0  0  0  0  0  0  0  0
  -27.4260  -28.8240   20.4890 C   0  0  0  0  0  3  0  0  0  0  0  0
  -26.3390  -27.1590   19.0920 C   0  0  0  0  0  3  0  0  0  0  0  0
  -25.1270  -27.8560   19.1550 C   0  0  0  0  0  3  0  0  0  0  0  0
  -23.7640  -29.8140   20.0400 C   0  0  0  0  0  2  0  0  0  0  0  0
  -24.7590  -30.9250   22.0900 N   0  0  0  0  0  0  0  0  0  0  0  0
  -23.5500  -31.7390   23.8310 O   0  0  0  0  0  0  0  0  0  0  0  0
  -22.9560  -29.1410   22.3420 C   0  0  0  0  0  0  0  0  0  0  0  0
  -21.6280  -29.0680   22.2970 N   0  0  0  0  0  0  0  0  0  0  0  0
  -23.6700  -28.3500   22.9640 O   0  0  0  0  0  0  0  0  0  0  0  0
  -21.1940  -29.8520   21.8350 H   0  0  0  0  0  0  0  0  0  0  0  0
  -18.2270  -27.5410   22.6770 C   0  0  0  0  0  0  0  0  0  0  0  0
  -20.6930  -28.0030   22.5640 C   0  0  0  0  0  3  0  0  0  0  0  0
  -20.9940  -26.5220   22.2860 C   0  0  0  0  0  2  0  0  0  0  0  0
  -19.8760  -25.9910   21.3570 C   0  0  0  0  0  2  0  0  0  0  0  0
  -18.4410  -26.2350   21.9020 C   0  0  0  0  0  2  0  0  0  0  0  0
  -19.3190  -28.3360   23.0910 C   0  0  0  0  0  0  0  0  0  0  0  0
  -19.0960  -29.5310   23.7970 C   0  0  0  0  0  3  0  0  0  0  0  0
  -17.7870  -29.9630   24.0670 C   0  0  0  0  0  3  0  0  0  0  0  0
  -16.6960  -29.1860   23.6270 C   0  0  0  0  0  3  0  0  0  0  0  0
  -16.9180  -27.9720   22.9520 C   0  0  0  0  0  3  0  0  0  0  0  0
  -25.8880  -32.2440   23.9490 C   0  0  0  0  0  3  0  0  0  0  0  0
  -26.3280  -31.4870   25.2590 C   0  0  1  0  0  0  0  0  0  0  0  0
  -25.1800  -31.2740   26.2730 C   0  0  0  0  0  1  0  0  0  0  0  0
  -26.9100  -30.0940   24.9170 C   0  0  0  0  0  1  0  0  0  0  0  0
  -27.4540  -32.2780   25.9640 C   0  0  0  0  0  1  0  0  0  0  0  0
  -25.5570  -33.6470   24.2400 N   0  0  0  0  0  0  0  0  0  0  0  0
  -25.9070  -34.6800   23.4700 C   0  0  0  0  0  0  0  0  0  0  0  0
  -26.6070  -34.5630   22.4610 O   0  0  0  0  0  0  0  0  0  0  0  0
  -24.9470  -33.8120   25.0260 H   0  0  0  0  0  0  0  0  0  0  0  0
  -24.1800  -36.4550   22.9940 C   0  0  0  0  0  1  0  0  0  0  0  0
  -25.3850  -36.0780   23.8710 C   0  0  0  0  0  3  0  0  0  0  0  0
  -27.4650  -37.0040   24.7930 C   0  0  0  0  0  1  0  0  0  0  0  0
  -26.4140  -37.1360   23.7870 N   0  0  0  0  0  0  0  0  0  0  0  0
  -25.9960  -38.0580   23.8790 H   0  0  0  0  0  0  0  0  0  0  0  0
  1  2  2  0
  1  4  1  0
  2  6  1  0
  4  5  2  0
  5  3  1  0
  5  8  1  0
  6  3  2  0
  6 12  1  0
  7  4  1  0
  7  9  1  0
 10  9  1  0
 10  8  1  0
 10 11  1  6
 13 21  1  0
 14 19  1  0
 15 16  1  0
 15 14  1  0
 17 16  1  0
 17 26  1  0
 17 18  1  0
 19 13  1  0
 19 18  1  0
 20 13  2  0
 21 12  1  0
 22 21  1  0
 23 24  2  0
 24 43  1  0
 25 24  1  0
 25 28  1  0
 26 27  1  0
 26 23  1  0
 27 25  2  0
 28 29  1  0
 29 30  2  0
 31 34  1  0
 31 30  1  0
 32 31  2  0
 33 32  1  0
 33 28  2  0
 34 35  1  0
 35 40  2  0
 35 36  1  0
 36 37  2  0
 37 38  1  0
 38 42  1  0
 39 38  2  0
 40 39  1  0
 41 40  1  0
 43 44  1  0
 44 47  1  0
 44 46  1  0
 45 43  2  0
 48 23  1  0
 48 49  1  0
 50 48  1  0
 51 10  1  0
 52 53  1  0
 52 51  1  0
 54 65  2  0
 55 53  1  0
 55 60  1  0
 56 64  1  0
 56 66  1  0
 57 63  1  0
 57 59  1  0
 58 64  1  0
 59 58  1  0
 60 59  2  0
 61 62  1  0
 61 55  2  0
 62 57  2  0
 63 56  1  0
 64 54  1  0
 66 68  2  0
 67 66  1  0
 69 67  1  0
 70 79  2  0
 70 75  1  0
 71 67  1  0
 71 75  1  0
 72 71  1  0
 73 74  1  0
 73 72  1  0
 74 70  1  0
 75 76  2  0
 76 77  1  0
 78 77  2  0
 79 78  1  0
 80 54  1  0
 80 85  1  0
 80 81  1  0
 81 84  1  1
 81 82  1  0
 83 81  1  0
 85 88  1  0
 86 90  1  0
 86 85  1  0
 87 86  2  0
 90 89  1  0
 92 90  1  0
 92 93  1  0
 92 91  1  0
M  ISO  4  13 100  21 100  52 101  53 101
M  END
>  <TORSDO>  (12) 
F 19

>  <SCORE>  (12) 
-11.880

>  <name>  (12) 
11

>  <ligand_id>  (12) 
11

>  <original_smiles>  (12) 
[H]c1c([H])c([H])c2c(c1[H])C([H])([H])C([H])([H])C([H])([H])C2([H])N([H])C(=O)C1([H])N(C(=O)C([H])(N([H])C(=O)C([H])(N([H])C([H])([H])[H])C([H])([H])[H])C(C([H])([H])[H])(C([H])([H])[H])C([H])([H])[H])C([H])([H])c2c([H])c(OC([H])([H])C([H])([H])[N+]3([H])C([H])([H])c4c([H])c(C([H])([H])N([H])C(=O)N5C([H])([H])C([H])([H])C([H])([H])C([H])(n6nc(-c7c([H])c([H])c(Oc8c([H])c([H])c(F)c([H])c8F)c([H])c7[H])c(C(=O)N([H])[H])c6N([H])[H])C5([H])[H])c([H])c([H])c4C([H])([H])C3([H])[H])c([H])c([H])c2C1([H])[H]

>  <smiles>  (12) 
[H]c1c([H])c([H])c2c(c1[H])C([H])([H])C([H])([H])C([H])([H])C2([H])N([H])C(=O)C1([H])N(C(=O)C([H])(N([H])C(=O)C([H])(N([H])C([H])([H])[H])C([H])([H])[H])C(C([H])([H])[H])(C([H])([H])[H])C([H])([H])[H])C([H])([H])c2c([H])c(OC([H])([H])C([H])([H])[N+]3([H])C([H])([H])c4c([H])c(C([H])([H])N([H])C(=O)N5C([H])([H])C([H])([H])C([H])([H])C([H])(n6nc(-c7c([H])c([H])c(Oc8c([H])c([H])c(F)c([H])c8F)c([H])c7[H])c(C(=O)N([H])[H])c6N([H])[H])C5([H])[H])c([H])c([H])c4C([H])([H])C3([H])[H])c([H])c([H])c2C1([H])[H]

$$$$
12:0:0
     RDKit          3D

 94103  0  0  1  0  0  0  0  0999 V2000
  -29.7560  -21.8270   20.5120 N   0  0  0  0  0  4  0  0  0  0  0  0
  -30.7590  -21.8750   20.5720 H   0  0  0  0  0  0  0  0  0  0  0  0
  -29.5210  -21.7000   19.5410 H   0  0  0  0  0  0  0  0  0  0  0  0
  -27.6600  -23.1180   21.1460 C   0  0  0  0  0  2  0  0  0  0  0  0
  -27.3050  -24.6030   21.1920 C   0  0  0  0  0  2  0  0  0  0  0  0
  -29.5270  -24.4160   20.2460 C   0  0  0  0  0  2  0  0  0  0  0  0
  -29.1900  -23.1100   21.0390 C   0  0  0  0  0  3  0  0  0  0  0  0
  -28.2130  -25.2400   20.1240 C   0  0  0  0  0  3  0  0  0  0  0  0
  -28.3520  -26.6810   20.2590 O   0  0  0  0  0  0  0  0  0  0  0  0
  -24.5680  -31.9510   23.2350 C   0  0  0  0  0  0  0  0  0  0  0  0
  -27.2000  -27.4560   20.1870 C   0  0  0  0  0  0  0  0  0  0  0  0
  -23.3630  -30.5460   21.5990 C   0  0  0  0  0  3  0  0  0  0  0  0
  -24.8150  -29.0030   20.1770 C   0  0  0  0  0  0  0  0  0  0  0  0
  -25.8940  -30.8870   21.4110 C   0  0  0  0  0  2  0  0  0  0  0  0
  -25.9770  -29.5130   20.7710 C   0  0  0  0  0  0  0  0  0  0  0  0
  -27.1710  -28.7480   20.7730 C   0  0  0  0  0  3  0  0  0  0  0  0
  -26.0210  -26.9880   19.5580 C   0  0  0  0  0  3  0  0  0  0  0  0
  -24.8350  -27.7410   19.5660 C   0  0  0  0  0  3  0  0  0  0  0  0
  -23.5740  -29.8630   20.2220 C   0  0  0  0  0  2  0  0  0  0  0  0
  -24.6260  -31.1420   22.1400 N   0  0  0  0  0  0  0  0  0  0  0  0
  -23.4860  -32.2320   23.7710 O   0  0  0  0  0  0  0  0  0  0  0  0
  -22.7040  -29.5310   22.5620 C   0  0  0  0  0  0  0  0  0  0  0  0
  -21.3780  -29.3580   22.4390 N   0  0  0  0  0  0  0  0  0  0  0  0
  -23.3840  -28.9010   23.3770 O   0  0  0  0  0  0  0  0  0  0  0  0
  -20.8930  -29.9190   21.7520 H   0  0  0  0  0  0  0  0  0  0  0  0
  -17.9910  -28.2060   22.9580 C   0  0  0  0  0  0  0  0  0  0  0  0
  -20.5540  -28.4290   23.2120 C   0  0  0  0  0  3  0  0  0  0  0  0
  -20.6330  -26.9990   22.6300 C   0  0  0  0  0  2  0  0  0  0  0  0
  -19.5190  -26.6930   21.6230 C   0  0  0  0  0  2  0  0  0  0  0  0
  -18.1440  -26.8550   22.2780 C   0  0  0  0  0  2  0  0  0  0  0  0
  -19.1240  -28.9520   23.3810 C   0  0  0  0  0  0  0  0  0  0  0  0
  -18.9280  -30.2150   23.9770 C   0  0  0  0  0  3  0  0  0  0  0  0
  -17.6320  -30.7360   24.1540 C   0  0  0  0  0  3  0  0  0  0  0  0
  -16.5140  -29.9880   23.7460 C   0  0  0  0  0  3  0  0  0  0  0  0
  -16.6950  -28.7250   23.1550 C   0  0  0  0  0  3  0  0  0  0  0  0
  -25.8540  -32.5820   23.8540 C   0  0  0  0  0  3  0  0  0  0  0  0
  -25.5500  -33.9820   24.1740 N   0  0  0  0  0  0  0  0  0  0  0  0
  -25.8920  -35.0290   23.4090 C   0  0  0  0  0  0  0  0  0  0  0  0
  -26.5690  -34.9170   22.3830 O   0  0  0  0  0  0  0  0  0  0  0  0
  -24.9490  -34.1430   24.9690 H   0  0  0  0  0  0  0  0  0  0  0  0
  -24.1780  -36.8290   23.0270 C   0  0  0  0  0  1  0  0  0  0  0  0
  -25.4070  -36.4210   23.8550 C   0  0  0  0  0  3  0  0  0  0  0  0
  -27.5360  -37.2970   24.7090 C   0  0  0  0  0  1  0  0  0  0  0  0
  -26.4480  -37.4680   23.7510 N   0  0  0  0  0  0  0  0  0  0  0  0
  -26.0450  -38.3910   23.8900 H   0  0  0  0  0  0  0  0  0  0  0  0
  -26.3680  -31.8160   25.1350 C   0  0  1  0  0  0  0  0  0  0  0  0
  -25.2720  -31.5830   26.2010 C   0  0  0  0  0  1  0  0  0  0  0  0
  -26.9510  -30.4360   24.7490 C   0  0  0  0  0  1  0  0  0  0  0  0
  -27.5180  -32.6110   25.7960 C   0  0  0  0  0  1  0  0  0  0  0  0
  -29.3400  -20.6000   21.2530 C   0  0  0  0  0  2  0  0  0  0  0  0
  -30.7380  -14.5570   20.1240 C   0  0  0  0  0  0  0  0  0  0  0  0
  -30.3160  -12.4150   18.9700 C   0  0  0  0  0  2  0  0  0  0  0  0
  -29.3270  -12.6390   17.8100 C   0  0  0  0  0  2  0  0  0  0  0  0
  -27.8780  -12.4900   18.3090 C   0  0  0  0  0  2  0  0  0  0  0  0
  -27.6010  -13.3090   19.5980 C   0  0  0  0  0  3  0  0  0  0  0  0
  -28.7160  -13.1150   20.6550 C   0  0  0  0  0  2  0  0  0  0  0  0
  -30.0060  -13.4090   20.0150 N   0  0  0  0  0  0  0  0  0  0  0  0
  -31.8440  -14.6500   19.5830 O   0  0  0  0  0  0  0  0  0  0  0  0
  -31.6640  -19.5680   21.1280 C   0  0  0  0  0  3  0  0  0  0  0  0
  -29.7780  -18.0630   20.9140 C   0  0  0  0  0  3  0  0  0  0  0  0
  -32.4900  -18.4380   21.0490 C   0  0  0  0  0  3  0  0  0  0  0  0
  -30.2690  -19.3910   21.0670 C   0  0  0  0  0  0  0  0  0  0  0  0
  -30.6760  -16.9610   20.8330 C   0  0  0  0  0  0  0  0  0  0  0  0
  -32.0090  -17.1860   20.9220 N   0  0  0  0  0  0  0  0  0  0  0  0
  -30.1350  -15.6330   20.6890 N   0  0  0  0  0  0  0  0  0  0  0  0
  -29.1810  -15.5010   20.9820 H   0  0  0  0  0  0  0  0  0  0  0  0
  -25.2380  -13.8860   20.4350 C   0  0  0  0  0  0  0  0  0  0  0  0
  -24.1930  -13.1000   20.8410 C   0  0  0  0  0  0  0  0  0  0  0  0
  -24.6600  -11.7520   20.7680 C   0  0  0  0  0  0  0  0  0  0  0  0
  -26.2760  -13.0150   20.1410 N   0  0  0  0  0  0  0  0  0  0  0  0
  -25.9350  -11.7260   20.3990 N   0  0  0  0  0  0  0  0  0  0  0  0
  -23.9480  -10.4830   20.9710 C   0  0  0  0  0  0  0  0  0  0  0  0
  -24.4010   -9.5220   21.9030 C   0  0  0  0  0  3  0  0  0  0  0  0
  -23.6880   -8.3190   22.0930 C   0  0  0  0  0  3  0  0  0  0  0  0
  -22.5090   -8.0670   21.3540 C   0  0  0  0  0  0  0  0  0  0  0  0
  -22.0750   -9.0160   20.4110 C   0  0  0  0  0  3  0  0  0  0  0  0
  -22.7880  -10.2110   20.2180 C   0  0  0  0  0  3  0  0  0  0  0  0
  -21.7670   -6.9150   21.4550 O   0  0  0  0  0  0  0  0  0  0  0  0
  -21.7080   -6.1960   22.6220 C   0  0  0  0  0  0  0  0  0  0  0  0
  -21.2430   -6.7660   23.8260 C   0  0  0  0  0  3  0  0  0  0  0  0
  -21.1350   -5.9730   24.9860 C   0  0  0  0  0  3  0  0  0  0  0  0
  -21.4800   -4.6090   24.9410 C   0  0  0  0  0  0  0  0  0  0  0  0
  -21.9380   -4.0370   23.7410 C   0  0  0  0  0  3  0  0  0  0  0  0
  -22.0480   -4.8290   22.5830 C   0  0  0  0  0  0  0  0  0  0  0  0
  -22.4700   -4.2670   21.4240 F   0  0  0  0  0  0  0  0  0  0  0  0
  -21.3690   -3.8440   26.0520 F   0  0  0  0  0  0  0  0  0  0  0  0
  -22.8080  -13.5660   21.1870 C   0  0  0  0  0  0  0  0  0  0  0  0
  -22.1240  -12.8480   22.0710 N   0  0  0  0  0  0  0  0  0  0  0  0
  -22.3430  -14.6000   20.7100 O   0  0  0  0  0  0  0  0  0  0  0  0
  -22.5130  -12.0110   22.4780 H   0  0  0  0  0  0  0  0  0  0  0  0
  -21.1960  -13.1410   22.3450 H   0  0  0  0  0  0  0  0  0  0  0  0
  -25.3880  -15.2590   20.2680 N   0  0  0  0  0  0  0  0  0  0  0  0
  -24.6200  -15.9050   20.4120 H   0  0  0  0  0  0  0  0  0  0  0  0
  -26.2110  -15.7050   19.8820 H   0  0  0  0  0  0  0  0  0  0  0  0
  1  2  1  0
  1 50  1  0
  3  1  1  0
  4  5  1  0
  6  7  1  0
  7  1  1  0
  7  4  1  0
  8  6  1  0
  8  9  1  0
  8  5  1  0
 10 21  2  0
 11  9  1  0
 11 16  1  0
 12 20  1  0
 12 22  1  0
 13 19  1  0
 13 15  1  0
 14 20  1  0
 15 16  2  0
 15 14  1  0
 17 18  1  0
 17 11  2  0
 18 13  2  0
 19 12  1  0
 20 10  1  0
 22 24  2  0
 23 22  1  0
 25 23  1  0
 26 35  2  0
 26 31  1  0
 27 23  1  0
 27 31  1  0
 28 27  1  0
 29 30  1  0
 29 28  1  0
 30 26  1  0
 31 32  2  0
 32 33  1  0
 34 33  2  0
 35 34  1  0
 36 10  1  0
 36 37  1  0
 36 46  1  0
 37 40  1  0
 38 42  1  0
 38 37  1  0
 39 38  2  0
 42 41  1  0
 44 42  1  0
 44 45  1  0
 44 43  1  0
 46 49  1  1
 46 47  1  0
 48 46  1  0
 51 65  1  0
 52 57  1  0
 53 54  1  0
 53 52  1  0
 55 54  1  0
 55 70  1  0
 55 56  1  0
 57 51  1  0
 57 56  1  0
 58 51  2  0
 60 62  2  0
 61 59  2  0
 62 59  1  0
 62 50  1  0
 63 60  1  0
 63 64  2  0
 64 61  1  0
 65 63  1  0
 65 66  1  0
 67 68  2  0
 68 87  1  0
 69 68  1  0
 69 72  1  0
 70 71  1  0
 70 67  1  0
 71 69  2  0
 72 73  1  0
 73 74  2  0
 75 78  1  0
 75 74  1  0
 76 75  2  0
 77 76  1  0
 77 72  2  0
 78 79  1  0
 79 80  1  0
 80 81  2  0
 82 81  1  0
 82 86  1  0
 83 82  2  0
 84 79  2  0
 84 83  1  0
 85 84  1  0
 87 88  1  0
 88 91  1  0
 88 90  1  0
 89 87  2  0
 92 93  1  0
 92 67  1  0
 94 92  1  0
M  ISO  4   8 101   9 101  51 100  65 100
M  END
>  <TORSDO>  (13) 
F 18

>  <SCORE>  (13) 
-14.835

>  <name>  (13) 
12

>  <ligand_id>  (13) 
12

>  <original_smiles>  (13) 
[H]c1nc(N([H])C(=O)N2C([H])([H])C([H])([H])C([H])([H])C([H])(n3nc(-c4c([H])c([H])c(Oc5c([H])c([H])c(F)c([H])c5F)c([H])c4[H])c(C(=O)N([H])[H])c3N([H])[H])C2([H])[H])c([H])c(C([H])([H])[N+]([H])([H])C2([H])C([H])([H])C([H])([H])C([H])(Oc3c([H])c([H])c4c(c3[H])C([H])([H])N(C(=O)C([H])(N([H])C(=O)C([H])(N([H])C([H])([H])[H])C([H])([H])[H])C(C([H])([H])[H])(C([H])([H])[H])C([H])([H])[H])C([H])(C(=O)N([H])C3([H])c5c([H])c([H])c([H])c([H])c5C([H])([H])C([H])([H])C3([H])[H])C4([H])[H])C2([H])[H])c1[H]

>  <smiles>  (13) 
[H]c1nc(N([H])C(=O)N2C([H])([H])C([H])([H])C([H])([H])C([H])(n3nc(-c4c([H])c([H])c(Oc5c([H])c([H])c(F)c([H])c5F)c([H])c4[H])c(C(=O)N([H])[H])c3N([H])[H])C2([H])[H])c([H])c(C([H])([H])[N+]([H])([H])C2([H])C([H])([H])C([H])([H])C([H])(Oc3c([H])c([H])c4c(c3[H])C([H])([H])N(C(=O)C([H])(N([H])C(=O)C([H])(N([H])C([H])([H])[H])C([H])([H])[H])C(C([H])([H])[H])(C([H])([H])[H])C([H])([H])[H])C([H])(C(=O)N([H])C3([H])c5c([H])c([H])c([H])c([H])c5C([H])([H])C([H])([H])C3([H])[H])C4([H])[H])C2([H])[H])c1[H]

$$$$
13:0:0
     RDKit          3D

 96105  0  0  1  0  0  0  0  0999 V2000
  -29.9310  -22.3780   19.9120 C   0  0  0  0  0  3  0  0  0  0  0  0
  -30.4420  -21.0740   20.1170 C   0  0  0  0  0  3  0  0  0  0  0  0
  -27.6790  -21.5390   20.2380 C   0  0  0  0  0  3  0  0  0  0  0  0
  -28.5400  -22.6300   19.9920 C   0  0  0  0  0  0  0  0  0  0  0  0
  -28.1800  -20.2350   20.4500 C   0  0  0  0  0  0  0  0  0  0  0  0
  -29.5770  -19.9970   20.4180 C   0  0  0  0  0  0  0  0  0  0  0  0
  -30.0500  -18.7210   20.7770 N   0  0  0  0  0  0  0  0  0  0  0  0
  -29.4210  -18.2390   21.4120 H   0  0  0  0  0  0  0  0  0  0  0  0
  -30.6810  -17.8030   19.8330 C   0  0  0  0  0  2  0  0  0  0  0  0
  -31.5100  -16.7460   20.6130 C   0  0  0  0  0  2  0  0  0  0  0  0
  -31.6340  -14.2890   20.1530 C   0  0  0  0  0  0  0  0  0  0  0  0
  -31.3560  -11.9270   19.4970 C   0  0  0  0  0  2  0  0  0  0  0  0
  -30.4020  -11.8470   18.2880 C   0  0  0  0  0  2  0  0  0  0  0  0
  -28.9340  -11.7850   18.7540 C   0  0  0  0  0  2  0  0  0  0  0  0
  -28.5910  -12.8740   19.8070 C   0  0  0  0  0  3  0  0  0  0  0  0
  -29.6590  -12.9170   20.9220 C   0  0  0  0  0  2  0  0  0  0  0  0
  -30.9710  -13.1080   20.2830 N   0  0  0  0  0  0  0  0  0  0  0  0
  -32.7380  -14.3800   19.6130 O   0  0  0  0  0  0  0  0  0  0  0  0
  -30.9700  -15.3810   20.5640 N   0  0  0  0  0  0  0  0  0  0  0  0
  -30.0540  -15.2300   20.9580 H   0  0  0  0  0  0  0  0  0  0  0  0
  -26.3010  -13.6400   20.7000 C   0  0  0  0  0  0  0  0  0  0  0  0
  -25.1890  -12.9420   21.0860 C   0  0  0  0  0  0  0  0  0  0  0  0
  -25.5190  -11.5600   20.9380 C   0  0  0  0  0  0  0  0  0  0  0  0
  -27.2470  -12.6880   20.3500 N   0  0  0  0  0  0  0  0  0  0  0  0
  -26.7810  -11.4270   20.5480 N   0  0  0  0  0  0  0  0  0  0  0  0
  -24.6920  -10.3570   21.0900 C   0  0  0  0  0  0  0  0  0  0  0  0
  -25.0180   -9.3490   22.0240 C   0  0  0  0  0  3  0  0  0  0  0  0
  -24.1970   -8.2110   22.1650 C   0  0  0  0  0  3  0  0  0  0  0  0
  -23.0330   -8.0720   21.3710 C   0  0  0  0  0  0  0  0  0  0  0  0
  -22.7260   -9.0660   20.4250 C   0  0  0  0  0  3  0  0  0  0  0  0
  -23.5480  -10.1970   20.2820 C   0  0  0  0  0  3  0  0  0  0  0  0
  -22.1910   -6.9880   21.4200 O   0  0  0  0  0  0  0  0  0  0  0  0
  -21.9640   -6.3050   22.5870 C   0  0  0  0  0  0  0  0  0  0  0  0
  -21.4450   -6.9420   23.7360 C   0  0  0  0  0  3  0  0  0  0  0  0
  -21.1620   -6.1870   24.8920 C   0  0  0  0  0  3  0  0  0  0  0  0
  -21.3880   -4.7990   24.9000 C   0  0  0  0  0  0  0  0  0  0  0  0
  -21.9000   -4.1610   23.7560 C   0  0  0  0  0  3  0  0  0  0  0  0
  -22.1850   -4.9130   22.6020 C   0  0  0  0  0  0  0  0  0  0  0  0
  -22.6570   -4.2900   21.4950 F   0  0  0  0  0  0  0  0  0  0  0  0
  -21.1090   -4.0720   26.0070 F   0  0  0  0  0  0  0  0  0  0  0  0
  -23.8600  -13.5210   21.4750 C   0  0  0  0  0  0  0  0  0  0  0  0
  -23.1310  -12.8430   22.3550 N   0  0  0  0  0  0  0  0  0  0  0  0
  -23.4810  -14.6060   21.0350 O   0  0  0  0  0  0  0  0  0  0  0  0
  -23.4530  -11.9630   22.7310 H   0  0  0  0  0  0  0  0  0  0  0  0
  -22.2380  -13.2070   22.6540 H   0  0  0  0  0  0  0  0  0  0  0  0
  -26.5820  -14.9990   20.5960 N   0  0  0  0  0  0  0  0  0  0  0  0
  -25.8820  -15.7070   20.7800 H   0  0  0  0  0  0  0  0  0  0  0  0
  -27.4450  -15.3800   20.2320 H   0  0  0  0  0  0  0  0  0  0  0  0
  -27.1920  -19.1050   20.7360 C   0  0  0  0  0  2  0  0  0  0  0  0
  -26.5240  -16.1980   18.8160 C   0  0  0  0  0  2  0  0  0  0  0  0
  -25.7350  -17.4250   19.2850 C   0  0  0  0  0  2  0  0  0  0  0  0
  -27.6710  -16.6940   19.6990 C   0  0  0  0  0  2  0  0  0  0  0  0
  -27.0800  -18.1120   19.5750 C   0  0  0  0  0  3  0  0  0  0  0  0
  -27.9270  -24.0380   19.9290 C   0  0  0  0  0  2  0  0  0  0  0  0
  -28.5130  -25.0520   18.9200 C   0  0  0  0  0  2  0  0  0  0  0  0
  -28.4430  -26.3840   19.4570 O   0  0  0  0  0  0  0  0  0  0  0  0
  -24.7760  -31.3460   23.0110 C   0  0  0  0  0  0  0  0  0  0  0  0
  -27.2490  -27.0760   19.5490 C   0  0  0  0  0  0  0  0  0  0  0  0
  -23.5050  -30.1150   21.2830 C   0  0  0  0  0  3  0  0  0  0  0  0
  -24.8890  -28.6450   19.7240 C   0  0  0  0  0  0  0  0  0  0  0  0
  -26.0380  -30.4100   21.0720 C   0  0  0  0  0  2  0  0  0  0  0  0
  -26.0700  -29.0900   20.3290 C   0  0  0  0  0  0  0  0  0  0  0  0
  -27.2490  -28.3150   20.2360 C   0  0  0  0  0  3  0  0  0  0  0  0
  -26.0410  -26.6400   18.9550 C   0  0  0  0  0  3  0  0  0  0  0  0
  -24.8700  -27.4190   19.0370 C   0  0  0  0  0  3  0  0  0  0  0  0
  -23.6740  -29.5370   19.8520 C   0  0  0  0  0  2  0  0  0  0  0  0
  -24.7920  -30.6350   21.8470 N   0  0  0  0  0  0  0  0  0  0  0  0
  -23.7110  -31.6070   23.5880 O   0  0  0  0  0  0  0  0  0  0  0  0
  -22.8350  -29.0410   22.1710 C   0  0  0  0  0  0  0  0  0  0  0  0
  -21.4990  -28.9280   22.0730 N   0  0  0  0  0  0  0  0  0  0  0  0
  -23.5130  -28.3160   22.9050 O   0  0  0  0  0  0  0  0  0  0  0  0
  -21.0150  -29.5630   21.4540 H   0  0  0  0  0  0  0  0  0  0  0  0
  -18.0850  -27.8800   22.6090 C   0  0  0  0  0  0  0  0  0  0  0  0
  -20.6620  -27.9620   22.7840 C   0  0  0  0  0  3  0  0  0  0  0  0
  -20.6550  -26.5970   22.0610 C   0  0  0  0  0  2  0  0  0  0  0  0
  -19.4950  -26.4420   21.0740 C   0  0  0  0  0  2  0  0  0  0  0  0
  -18.1520  -26.6000   21.7930 C   0  0  0  0  0  2  0  0  0  0  0  0
  -19.2640  -28.5290   23.0610 C   0  0  0  0  0  0  0  0  0  0  0  0
  -19.1490  -29.7370   23.7830 C   0  0  0  0  0  3  0  0  0  0  0  0
  -17.8860  -30.2910   24.0610 C   0  0  0  0  0  3  0  0  0  0  0  0
  -16.7210  -29.6360   23.6260 C   0  0  0  0  0  3  0  0  0  0  0  0
  -16.8210  -28.4320   22.9050 C   0  0  0  0  0  3  0  0  0  0  0  0
  -26.0890  -31.8880   23.6590 C   0  0  0  0  0  3  0  0  0  0  0  0
  -25.8340  -33.2710   24.0870 N   0  0  0  0  0  0  0  0  0  0  0  0
  -26.2070  -34.3590   23.4000 C   0  0  0  0  0  0  0  0  0  0  0  0
  -26.8720  -34.3010   22.3620 O   0  0  0  0  0  0  0  0  0  0  0  0
  -25.2470  -33.3930   24.8980 H   0  0  0  0  0  0  0  0  0  0  0  0
  -24.5430  -36.2300   23.1760 C   0  0  0  0  0  1  0  0  0  0  0  0
  -25.7710  -35.7310   23.9510 C   0  0  0  0  0  3  0  0  0  0  0  0
  -27.9440  -36.4740   24.8210 C   0  0  0  0  0  1  0  0  0  0  0  0
  -26.8420  -36.7500   23.9030 N   0  0  0  0  0  0  0  0  0  0  0  0
  -26.4710  -37.6720   24.1200 H   0  0  0  0  0  0  0  0  0  0  0  0
  -26.5900  -31.0140   24.8730 C   0  0  1  0  0  0  0  0  0  0  0  0
  -25.4980  -30.7340   25.9310 C   0  0  0  0  0  1  0  0  0  0  0  0
  -27.1280  -29.6520   24.3770 C   0  0  0  0  0  1  0  0  0  0  0  0
  -27.7680  -31.7240   25.5800 C   0  0  0  0  0  1  0  0  0  0  0  0
  1  4  2  0
  1  2  1  0
  2  6  2  0
  3  5  2  0
  4  3  1  0
  5 49  1  0
  6  5  1  0
  6  7  1  0
  7  8  1  0
  9 10  1  0
  9  7  1  0
 11 17  1  0
 11 19  1  0
 12 17  1  0
 13 14  1  0
 13 12  1  0
 15 14  1  0
 15 24  1  0
 15 16  1  0
 17 16  1  0
 18 11  2  0
 19 10  1  0
 19 20  1  0
 21 22  2  0
 22 41  1  0
 23 22  1  0
 23 26  1  0
 24 25  1  0
 24 21  1  0
 25 23  2  0
 26 27  1  0
 27 28  2  0
 29 32  1  0
 29 28  1  0
 30 29  2  0
 31 30  1  0
 31 26  2  0
 32 33  1  0
 33 38  2  0
 33 34  1  0
 34 35  2  0
 35 36  1  0
 36 40  1  0
 37 36  2  0
 38 37  1  0
 39 38  1  0
 41 42  1  0
 42 45  1  0
 42 44  1  0
 43 41  2  0
 46 21  1  0
 46 47  1  0
 48 46  1  0
 50 51  1  0
 50 52  1  0
 51 53  1  0
 53 52  1  0
 53 49  1  0
 54  4  1  0
 55 56  1  0
 55 54  1  0
 56 58  1  0
 57 68  2  0
 58 63  1  0
 59 67  1  0
 59 69  1  0
 60 66  1  0
 60 62  1  0
 61 67  1  0
 62 61  1  0
 63 62  2  0
 64 65  1  0
 64 58  2  0
 65 60  2  0
 66 59  1  0
 67 57  1  0
 69 71  2  0
 70 69  1  0
 72 70  1  0
 73 82  2  0
 73 78  1  0
 74 70  1  0
 74 78  1  0
 75 74  1  0
 76 77  1  0
 76 75  1  0
 77 73  1  0
 78 79  2  0
 79 80  1  0
 81 80  2  0
 82 81  1  0
 83 57  1  0
 83 84  1  0
 83 93  1  0
 84 87  1  0
 85 89  1  0
 85 84  1  0
 86 85  2  0
 89 88  1  0
 91 89  1  0
 91 92  1  0
 91 90  1  0
 93 96  1  1
 93 94  1  0
 95 93  1  0
M  ISO  4  11 100  19 100  55 101  56 101
M  END
>  <TORSDO>  (14) 
F 23

>  <SCORE>  (14) 
-9.072

>  <name>  (14) 
13

>  <ligand_id>  (14) 
13

>  <original_smiles>  (14) 
[H]c1c([H])c([H])c2c(c1[H])C([H])([H])C([H])([H])C([H])([H])C2([H])N([H])C(=O)C1([H])N(C(=O)C([H])(N([H])C(=O)C([H])(N([H])C([H])([H])[H])C([H])([H])[H])C(C([H])([H])[H])(C([H])([H])[H])C([H])([H])[H])C([H])([H])c2c([H])c(OC([H])([H])C([H])([H])c3c([H])c([H])c(N([H])C([H])([H])C([H])([H])N([H])C(=O)N4C([H])([H])C([H])([H])C([H])([H])C([H])(n5nc(-c6c([H])c([H])c(Oc7c([H])c([H])c(F)c([H])c7F)c([H])c6[H])c(C(=O)N([H])[H])c5N([H])[H])C4([H])[H])c(C([H])([H])C4([H])C([H])([H])C([H])([H])C4([H])[H])c3[H])c([H])c([H])c2C1([H])[H]

>  <smiles>  (14) 
[H]c1c([H])c([H])c2c(c1[H])C([H])([H])C([H])([H])C([H])([H])C2([H])N([H])C(=O)C1([H])N(C(=O)C([H])(N([H])C(=O)C([H])(N([H])C([H])([H])[H])C([H])([H])[H])C(C([H])([H])[H])(C([H])([H])[H])C([H])([H])[H])C([H])([H])c2c([H])c(OC([H])([H])C([H])([H])c3c([H])c([H])c(N([H])C([H])([H])C([H])([H])N([H])C(=O)N4C([H])([H])C([H])([H])C([H])([H])C([H])(n5nc(-c6c([H])c([H])c(Oc7c([H])c([H])c(F)c([H])c7F)c([H])c6[H])c(C(=O)N([H])[H])c5N([H])[H])C4([H])[H])c(C([H])([H])C4([H])C([H])([H])C([H])([H])C4([H])[H])c3[H])c([H])c([H])c2C1([H])[H]

$$$$
14:0:0
     RDKit          3D

 89 97  0  0  1  0  0  0  0  0999 V2000
  -29.5130  -22.0570   21.7480 C   0  0  0  0  0  3  0  0  0  0  0  0
  -29.6710  -21.6370   19.3780 C   0  0  0  0  0  3  0  0  0  0  0  0
  -29.0200  -23.3720   21.4940 C   0  0  0  0  0  3  0  0  0  0  0  0
  -29.1830  -22.9470   19.1260 C   0  0  0  0  0  3  0  0  0  0  0  0
  -29.8310  -21.1530   20.6980 C   0  0  0  0  0  0  0  0  0  0  0  0
  -28.8330  -23.8430   20.1710 C   0  0  0  0  0  0  0  0  0  0  0  0
  -30.4750  -19.7590   20.9830 C   0  0  0  0  0  2  0  0  0  0  0  0
  -29.6990  -18.4090   20.7020 C   0  0  0  0  0  2  0  0  0  0  0  0
  -30.5830  -17.1230   20.9780 C   0  0  0  0  0  2  0  0  0  0  0  0
  -30.6630  -14.6370   20.4370 C   0  0  0  0  0  0  0  0  0  0  0  0
  -30.3650  -12.4290   19.3490 C   0  0  0  0  0  2  0  0  0  0  0  0
  -29.4190  -12.5650   18.1390 C   0  0  0  0  0  2  0  0  0  0  0  0
  -27.9530  -12.4060   18.5850 C   0  0  0  0  0  2  0  0  0  0  0  0
  -27.6050  -13.2790   19.8200 C   0  0  0  0  0  3  0  0  0  0  0  0
  -28.6710  -13.1450   20.9310 C   0  0  0  0  0  2  0  0  0  0  0  0
  -29.9760  -13.4580   20.3340 N   0  0  0  0  0  0  0  0  0  0  0  0
  -31.8250  -14.7340   20.0400 O   0  0  0  0  0  0  0  0  0  0  0  0
  -29.9820  -15.7550   20.8250 N   0  0  0  0  0  0  0  0  0  0  0  0
  -29.0140  -15.6340   21.0870 H   0  0  0  0  0  0  0  0  0  0  0  0
  -25.2160  -13.8730   20.5540 C   0  0  0  0  0  0  0  0  0  0  0  0
  -24.1520  -13.0980   20.9270 C   0  0  0  0  0  0  0  0  0  0  0  0
  -24.6150  -11.7460   20.8890 C   0  0  0  0  0  0  0  0  0  0  0  0
  -26.2600  -12.9950   20.3140 N   0  0  0  0  0  0  0  0  0  0  0  0
  -25.9050  -11.7100   20.5760 N   0  0  0  0  0  0  0  0  0  0  0  0
  -23.8910  -10.4820   21.0770 C   0  0  0  0  0  0  0  0  0  0  0  0
  -24.3350   -9.5060   21.9960 C   0  0  0  0  0  3  0  0  0  0  0  0
  -23.6120   -8.3070   22.1720 C   0  0  0  0  0  3  0  0  0  0  0  0
  -22.4280   -8.0770   21.4300 C   0  0  0  0  0  0  0  0  0  0  0  0
  -22.0030   -9.0420   20.5000 C   0  0  0  0  0  3  0  0  0  0  0  0
  -22.7270  -10.2320   20.3230 C   0  0  0  0  0  3  0  0  0  0  0  0
  -21.6750   -6.9310   21.5180 O   0  0  0  0  0  0  0  0  0  0  0  0
  -21.6450   -6.1740   22.6610 C   0  0  0  0  0  0  0  0  0  0  0  0
  -21.2300   -6.7130   23.9000 C   0  0  0  0  0  3  0  0  0  0  0  0
  -21.1480   -5.8820   25.0350 C   0  0  0  0  0  3  0  0  0  0  0  0
  -21.4700   -4.5150   24.9340 C   0  0  0  0  0  0  0  0  0  0  0  0
  -21.8760   -3.9770   23.7010 C   0  0  0  0  0  3  0  0  0  0  0  0
  -21.9600   -4.8040   22.5670 C   0  0  0  0  0  0  0  0  0  0  0  0
  -22.3330   -4.2750   21.3770 F   0  0  0  0  0  0  0  0  0  0  0  0
  -21.3830   -3.7160   26.0230 F   0  0  0  0  0  0  0  0  0  0  0  0
  -22.7550  -13.5730   21.2070 C   0  0  0  0  0  0  0  0  0  0  0  0
  -22.0340  -12.8730   22.0760 N   0  0  0  0  0  0  0  0  0  0  0  0
  -22.3130  -14.5990   20.6920 O   0  0  0  0  0  0  0  0  0  0  0  0
  -22.4050  -12.0420   22.5130 H   0  0  0  0  0  0  0  0  0  0  0  0
  -21.0970  -13.1730   22.3100 H   0  0  0  0  0  0  0  0  0  0  0  0
  -25.3800  -15.2440   20.3780 N   0  0  0  0  0  0  0  0  0  0  0  0
  -24.6110  -15.8980   20.4820 H   0  0  0  0  0  0  0  0  0  0  0  0
  -26.2240  -15.6790   20.0280 H   0  0  0  0  0  0  0  0  0  0  0  0
  -27.9780  -25.1020   19.8320 C   0  0  0  0  0  2  0  0  0  0  0  0
  -28.2880  -26.4840   20.2520 O   0  0  0  0  0  0  0  0  0  0  0  0
  -24.6170  -31.9330   23.2480 C   0  0  0  0  0  0  0  0  0  0  0  0
  -27.1990  -27.3770   20.1720 C   0  0  0  0  0  0  0  0  0  0  0  0
  -23.4070  -30.5490   21.6040 C   0  0  0  0  0  3  0  0  0  0  0  0
  -24.8490  -29.0140   20.1690 C   0  0  0  0  0  0  0  0  0  0  0  0
  -25.9510  -30.8520   21.4290 C   0  0  0  0  0  2  0  0  0  0  0  0
  -26.0220  -29.4790   20.7780 C   0  0  0  0  0  0  0  0  0  0  0  0
  -27.1980  -28.6690   20.7810 C   0  0  0  0  0  3  0  0  0  0  0  0
  -26.0010  -26.9900   19.5120 C   0  0  0  0  0  3  0  0  0  0  0  0
  -24.8420  -27.7730   19.5280 C   0  0  0  0  0  3  0  0  0  0  0  0
  -23.6180  -29.8910   20.2190 C   0  0  0  0  0  2  0  0  0  0  0  0
  -24.6770  -31.1280   22.1500 N   0  0  0  0  0  0  0  0  0  0  0  0
  -23.5330  -32.2170   23.7810 O   0  0  0  0  0  0  0  0  0  0  0  0
  -22.7400  -29.5270   22.5550 C   0  0  0  0  0  0  0  0  0  0  0  0
  -21.4130  -29.3580   22.4280 N   0  0  0  0  0  0  0  0  0  0  0  0
  -23.4150  -28.8900   23.3690 O   0  0  0  0  0  0  0  0  0  0  0  0
  -20.9280  -29.9240   21.7450 H   0  0  0  0  0  0  0  0  0  0  0  0
  -18.0230  -28.2030   22.9340 C   0  0  0  0  0  0  0  0  0  0  0  0
  -20.5860  -28.4270   23.1960 C   0  0  0  0  0  3  0  0  0  0  0  0
  -20.6660  -26.9970   22.6100 C   0  0  0  0  0  2  0  0  0  0  0  0
  -19.5570  -26.6960   21.5990 C   0  0  0  0  0  2  0  0  0  0  0  0
  -18.1790  -26.8560   22.2490 C   0  0  0  0  0  2  0  0  0  0  0  0
  -19.1530  -28.9480   23.3650 C   0  0  0  0  0  0  0  0  0  0  0  0
  -18.9540  -30.2100   23.9640 C   0  0  0  0  0  3  0  0  0  0  0  0
  -17.6560  -30.7280   24.1380 C   0  0  0  0  0  3  0  0  0  0  0  0
  -16.5390  -29.9790   23.7250 C   0  0  0  0  0  3  0  0  0  0  0  0
  -16.7250  -28.7190   23.1280 C   0  0  0  0  0  3  0  0  0  0  0  0
  -25.9030  -32.5570   23.8720 C   0  0  0  0  0  3  0  0  0  0  0  0
  -26.4150  -31.7770   25.1450 C   0  0  1  0  0  0  0  0  0  0  0  0
  -25.3180  -31.5380   26.2090 C   0  0  0  0  0  1  0  0  0  0  0  0
  -26.9930  -30.3990   24.7470 C   0  0  0  0  0  1  0  0  0  0  0  0
  -27.5680  -32.5630   25.8120 C   0  0  0  0  0  1  0  0  0  0  0  0
  -25.6020  -33.9550   24.2070 N   0  0  0  0  0  0  0  0  0  0  0  0
  -25.9140  -35.0060   23.4370 C   0  0  0  0  0  0  0  0  0  0  0  0
  -26.5600  -34.9020   22.3910 O   0  0  0  0  0  0  0  0  0  0  0  0
  -25.0280  -34.1120   25.0230 H   0  0  0  0  0  0  0  0  0  0  0  0
  -24.1680  -36.7890   23.1310 C   0  0  0  0  0  1  0  0  0  0  0  0
  -25.4360  -36.3940   23.9040 C   0  0  0  0  0  3  0  0  0  0  0  0
  -27.5920  -37.2920   24.6640 C   0  0  0  0  0  1  0  0  0  0  0  0
  -26.4600  -37.4510   23.7530 N   0  0  0  0  0  0  0  0  0  0  0  0
  -26.0550  -38.3700   23.9100 H   0  0  0  0  0  0  0  0  0  0  0  0
  2  5  1  0
  3  1  1  0
  4  2  2  0
  4  6  1  0
  5  7  1  0
  5  1  2  0
  6  3  2  0
  8  9  1  0
  8  7  1  0
 10 18  1  0
 11 16  1  0
 12 13  1  0
 12 11  1  0
 14 13  1  0
 14 23  1  0
 14 15  1  0
 16 10  1  0
 16 15  1  0
 17 10  2  0
 18  9  1  0
 18 19  1  0
 20 21  2  0
 21 40  1  0
 22 21  1  0
 22 25  1  0
 23 20  1  0
 23 24  1  0
 24 22  2  0
 25 26  1  0
 26 27  2  0
 28 31  1  0
 28 27  1  0
 29 28  2  0
 30 29  1  0
 30 25  2  0
 31 32  1  0
 32 33  1  0
 33 34  2  0
 35 34  1  0
 35 39  1  0
 36 35  2  0
 37 32  2  0
 37 36  1  0
 38 37  1  0
 40 41  1  0
 41 44  1  0
 41 43  1  0
 42 40  2  0
 45 46  1  0
 45 20  1  0
 47 45  1  0
 48  6  1  0
 48 49  1  0
 50 61  2  0
 51 49  1  0
 51 56  1  0
 52 60  1  0
 52 62  1  0
 53 59  1  0
 53 55  1  0
 54 60  1  0
 55 56  2  0
 55 54  1  0
 57 58  1  0
 57 51  2  0
 58 53  2  0
 59 52  1  0
 60 50  1  0
 62 64  2  0
 63 62  1  0
 65 63  1  0
 66 75  2  0
 66 71  1  0
 67 63  1  0
 67 71  1  0
 68 67  1  0
 69 70  1  0
 69 68  1  0
 70 66  1  0
 71 72  2  0
 72 73  1  0
 74 73  2  0
 75 74  1  0
 76 50  1  0
 76 81  1  0
 76 77  1  0
 77 80  1  1
 77 78  1  0
 79 77  1  0
 81 84  1  0
 82 86  1  0
 82 81  1  0
 83 82  2  0
 86 85  1  0
 88 86  1  0
 88 89  1  0
 88 87  1  0
M  ISO  4  10 100  18 100  48 101  49 101
M  END
>  <TORSDO>  (15) 
F 20

>  <SCORE>  (15) 
-13.854

>  <name>  (15) 
14

>  <ligand_id>  (15) 
14

>  <original_smiles>  (15) 
[H]c1c([H])c([H])c2c(c1[H])C([H])([H])C([H])([H])C([H])([H])C2([H])N([H])C(=O)C1([H])N(C(=O)C([H])(N([H])C(=O)C([H])(N([H])C([H])([H])[H])C([H])([H])[H])C(C([H])([H])[H])(C([H])([H])[H])C([H])([H])[H])C([H])([H])c2c([H])c(OC([H])([H])c3c([H])c([H])c(C([H])([H])C([H])([H])C([H])([H])N([H])C(=O)N4C([H])([H])C([H])([H])C([H])([H])C([H])(n5nc(-c6c([H])c([H])c(Oc7c([H])c([H])c(F)c([H])c7F)c([H])c6[H])c(C(=O)N([H])[H])c5N([H])[H])C4([H])[H])c([H])c3[H])c([H])c([H])c2C1([H])[H]

>  <smiles>  (15) 
[H]c1c([H])c([H])c2c(c1[H])C([H])([H])C([H])([H])C([H])([H])C2([H])N([H])C(=O)C1([H])N(C(=O)C([H])(N([H])C(=O)C([H])(N([H])C([H])([H])[H])C([H])([H])[H])C(C([H])([H])[H])(C([H])([H])[H])C([H])([H])[H])C([H])([H])c2c([H])c(OC([H])([H])c3c([H])c([H])c(C([H])([H])C([H])([H])C([H])([H])N([H])C(=O)N4C([H])([H])C([H])([H])C([H])([H])C([H])(n5nc(-c6c([H])c([H])c(Oc7c([H])c([H])c(F)c([H])c7F)c([H])c6[H])c(C(=O)N([H])[H])c5N([H])[H])C4([H])[H])c([H])c3[H])c([H])c([H])c2C1([H])[H]

$$$$
15:0:0
     RDKit          3D

103111  0  0  1  0  0  0  0  0999 V2000
  -27.8770  -18.3610   20.0760 C   0  0  0  0  0  2  0  0  0  0  0  0
  -29.4090  -18.5450   20.1040 C   0  0  0  0  0  3  0  0  0  0  0  0
  -28.9730  -21.0440   19.6600 C   0  0  0  0  0  3  0  0  0  0  0  0
  -27.4520  -20.7480   19.4610 C   0  0  0  0  0  3  0  0  0  0  0  0
  -29.6140  -19.9870   20.5530 N   0  0  0  0  0  0  0  0  0  0  0  0
  -27.2430  -19.3120   19.1380 N   0  0  0  0  0  4  0  0  0  0  0  0
  -26.2530  -19.1250   19.1160 H   0  0  0  0  0  0  0  0  0  0  0  0
  -27.6130  -19.1320   18.2200 H   0  0  0  0  0  0  0  0  0  0  0  0
  -29.3490  -22.6330   19.7580 C   0  0  0  0  0  2  0  0  0  0  0  0
  -28.4770  -23.8340   20.3960 C   0  0  0  0  0  2  0  0  0  0  0  0
  -28.5170  -25.2530   19.6280 C   0  0  0  0  0  2  0  0  0  0  0  0
  -28.3490  -26.5690   20.3030 O   0  0  0  0  0  0  0  0  0  0  0  0
  -24.5670  -31.9430   23.2760 C   0  0  0  0  0  0  0  0  0  0  0  0
  -27.2030  -27.3820   20.2190 C   0  0  0  0  0  0  0  0  0  0  0  0
  -23.3700  -30.5430   21.6310 C   0  0  0  0  0  3  0  0  0  0  0  0
  -24.8260  -28.9900   20.2060 C   0  0  0  0  0  0  0  0  0  0  0  0
  -25.9070  -30.8640   21.4530 C   0  0  0  0  0  2  0  0  0  0  0  0
  -25.9900  -29.4820   20.8100 C   0  0  0  0  0  0  0  0  0  0  0  0
  -27.1740  -28.6860   20.8120 C   0  0  0  0  0  3  0  0  0  0  0  0
  -26.0150  -26.9410   19.5950 C   0  0  0  0  0  3  0  0  0  0  0  0
  -24.8420  -27.7260   19.5910 C   0  0  0  0  0  3  0  0  0  0  0  0
  -23.5860  -29.8610   20.2520 C   0  0  0  0  0  2  0  0  0  0  0  0
  -24.6330  -31.1350   22.1770 N   0  0  0  0  0  0  0  0  0  0  0  0
  -23.4830  -32.2170   23.8100 O   0  0  0  0  0  0  0  0  0  0  0  0
  -22.7050  -29.5280   22.5910 C   0  0  0  0  0  0  0  0  0  0  0  0
  -21.3800  -29.3480   22.4590 N   0  0  0  0  0  0  0  0  0  0  0  0
  -23.3810  -28.9050   23.4140 O   0  0  0  0  0  0  0  0  0  0  0  0
  -20.8890  -29.9040   21.7720 H   0  0  0  0  0  0  0  0  0  0  0  0
  -18.0030  -28.1570   22.9600 C   0  0  0  0  0  0  0  0  0  0  0  0
  -20.5620  -28.4090   23.2280 C   0  0  0  0  0  3  0  0  0  0  0  0
  -20.6590  -26.9800   22.6430 C   0  0  0  0  0  2  0  0  0  0  0  0
  -19.5550  -26.6670   21.6270 C   0  0  0  0  0  2  0  0  0  0  0  0
  -18.1750  -26.8120   22.2750 C   0  0  0  0  0  2  0  0  0  0  0  0
  -19.1240  -28.9120   23.3930 C   0  0  0  0  0  0  0  0  0  0  0  0
  -18.9090  -30.1720   23.9920 C   0  0  0  0  0  3  0  0  0  0  0  0
  -17.6060  -30.6780   24.1620 C   0  0  0  0  0  3  0  0  0  0  0  0
  -16.5000  -29.9190   23.7420 C   0  0  0  0  0  3  0  0  0  0  0  0
  -16.6990  -28.6590   23.1490 C   0  0  0  0  0  3  0  0  0  0  0  0
  -25.8480  -32.5760   23.9030 C   0  0  0  0  0  3  0  0  0  0  0  0
  -26.3420  -31.8210   25.2000 C   0  0  1  0  0  0  0  0  0  0  0  0
  -25.2320  -31.6060   26.2540 C   0  0  0  0  0  1  0  0  0  0  0  0
  -26.9200  -30.4330   24.8390 C   0  0  0  0  0  1  0  0  0  0  0  0
  -27.4910  -32.6160   25.8640 C   0  0  0  0  0  1  0  0  0  0  0  0
  -25.5440  -33.9830   24.2060 N   0  0  0  0  0  0  0  0  0  0  0  0
  -25.9030  -35.0220   23.4390 C   0  0  0  0  0  0  0  0  0  0  0  0
  -26.5920  -34.8960   22.4230 O   0  0  0  0  0  0  0  0  0  0  0  0
  -24.9260  -34.1550   24.9850 H   0  0  0  0  0  0  0  0  0  0  0  0
  -24.2100  -36.8330   23.0170 C   0  0  0  0  0  1  0  0  0  0  0  0
  -25.4230  -36.4220   23.8670 C   0  0  0  0  0  3  0  0  0  0  0  0
  -27.5430  -37.2900   24.7480 C   0  0  0  0  0  1  0  0  0  0  0  0
  -26.4720  -37.4600   23.7690 N   0  0  0  0  0  0  0  0  0  0  0  0
  -26.0740  -38.3870   23.8920 H   0  0  0  0  0  0  0  0  0  0  0  0
  -30.1590  -17.3510   20.9090 C   0  0  0  0  0  2  0  0  0  0  0  0
  -30.6140  -14.7970   20.3980 C   0  0  0  0  0  0  0  0  0  0  0  0
  -30.4400  -12.5350   19.3530 C   0  0  0  0  0  2  0  0  0  0  0  0
  -29.5000  -12.6160   18.1300 C   0  0  0  0  0  2  0  0  0  0  0  0
  -28.0280  -12.4410   18.5560 C   0  0  0  0  0  2  0  0  0  0  0  0
  -27.6510  -13.3180   19.7790 C   0  0  0  0  0  3  0  0  0  0  0  0
  -28.7060  -13.2080   20.9010 C   0  0  0  0  0  2  0  0  0  0  0  0
  -30.0030  -13.5700   20.3140 N   0  0  0  0  0  0  0  0  0  0  0  0
  -31.7970  -14.9340   20.0730 O   0  0  0  0  0  0  0  0  0  0  0  0
  -29.8100  -15.8860   20.6690 N   0  0  0  0  0  0  0  0  0  0  0  0
  -28.8540  -15.6340   20.8680 H   0  0  0  0  0  0  0  0  0  0  0  0
  -25.2560  -13.9050   20.4960 C   0  0  0  0  0  0  0  0  0  0  0  0
  -24.1910  -13.1270   20.8580 C   0  0  0  0  0  0  0  0  0  0  0  0
  -24.6610  -11.7790   20.8300 C   0  0  0  0  0  0  0  0  0  0  0  0
  -26.3050  -13.0290   20.2630 N   0  0  0  0  0  0  0  0  0  0  0  0
  -25.9530  -11.7450   20.5270 N   0  0  0  0  0  0  0  0  0  0  0  0
  -23.9410  -10.5140   21.0130 C   0  0  0  0  0  0  0  0  0  0  0  0
  -24.3580   -9.5550   21.9630 C   0  0  0  0  0  3  0  0  0  0  0  0
  -23.6340   -8.3550   22.1330 C   0  0  0  0  0  3  0  0  0  0  0  0
  -22.4810   -8.1050   21.3510 C   0  0  0  0  0  0  0  0  0  0  0  0
  -22.0860   -9.0520   20.3890 C   0  0  0  0  0  3  0  0  0  0  0  0
  -22.8090  -10.2430   20.2180 C   0  0  0  0  0  3  0  0  0  0  0  0
  -21.7330   -6.9560   21.4280 O   0  0  0  0  0  0  0  0  0  0  0  0
  -21.6390   -6.2360   22.5920 C   0  0  0  0  0  0  0  0  0  0  0  0
  -21.1410   -6.8060   23.7830 C   0  0  0  0  0  3  0  0  0  0  0  0
  -20.9950   -6.0120   24.9380 C   0  0  0  0  0  3  0  0  0  0  0  0
  -21.3390   -4.6470   24.9020 C   0  0  0  0  0  0  0  0  0  0  0  0
  -21.8320   -4.0760   23.7150 C   0  0  0  0  0  3  0  0  0  0  0  0
  -21.9770   -4.8680   22.5630 C   0  0  0  0  0  0  0  0  0  0  0  0
  -22.4310   -4.3060   21.4160 F   0  0  0  0  0  0  0  0  0  0  0  0
  -21.1920   -3.8810   26.0080 F   0  0  0  0  0  0  0  0  0  0  0  0
  -22.7910  -13.5990   21.1230 C   0  0  0  0  0  0  0  0  0  0  0  0
  -22.0630  -12.9000   21.9860 N   0  0  0  0  0  0  0  0  0  0  0  0
  -22.3540  -14.6230   20.6010 O   0  0  0  0  0  0  0  0  0  0  0  0
  -22.4350  -12.0740   22.4300 H   0  0  0  0  0  0  0  0  0  0  0  0
  -21.1220  -13.1950   22.2070 H   0  0  0  0  0  0  0  0  0  0  0  0
  -25.4140  -15.2750   20.3150 N   0  0  0  0  0  0  0  0  0  0  0  0
  -24.6260  -15.9120   20.3710 H   0  0  0  0  0  0  0  0  0  0  0  0
  -26.2330  -15.6880   19.8990 H   0  0  0  0  0  0  0  0  0  0  0  0
  -26.8560  -21.6090   18.3090 C   0  0  0  0  0  2  0  0  0  0  0  0
  -24.6040  -22.2740   19.3420 C   0  0  0  0  0  1  0  0  0  0  0  0
  -24.9170  -22.2910   16.8400 C   0  0  0  0  0  1  0  0  0  0  0  0
  -25.3170  -21.6040   18.1560 C   0  0  0  0  0  3  0  0  0  0  0  0
  -31.0050  -20.2880   20.9130 C   0  0  0  0  0  2  0  0  0  0  0  0
  -32.0090  -20.1660   19.7450 C   0  0  0  0  0  2  0  0  0  0  0  0
  -33.1980  -21.1380   19.8500 C   0  0  0  0  0  2  0  0  0  0  0  0
  -34.7650  -20.1930   21.5410 C   0  0  0  0  0  0  0  0  0  0  0  0
  -35.3560  -20.3670   22.9330 C   0  0  0  0  0  1  0  0  0  0  0  0
  -33.8620  -21.0990   21.1500 N   0  0  0  0  0  0  0  0  0  0  0  0
  -35.1220  -19.2530   20.8330 O   0  0  0  0  0  0  0  0  0  0  0  0
  -33.6470  -21.8490   21.7950 H   0  0  0  0  0  0  0  0  0  0  0  0
  1  2  1  0
  2  5  1  0
  2 53  1  0
  3  9  1  0
  3  5  1  0
  4 92  1  0
  4  3  1  0
  5 96  1  0
  6  4  1  0
  6  1  1  0
  7  6  1  0
  8  6  1  0
  9 10  1  0
 11 12  1  0
 11 10  1  0
 13 24  2  0
 14 12  1  0
 14 19  1  0
 15 23  1  0
 15 25  1  0
 16 22  1  0
 16 18  1  0
 17 23  1  0
 18 19  2  0
 18 17  1  0
 20 14  2  0
 21 20  1  0
 21 16  2  0
 22 15  1  0
 23 13  1  0
 25 27  2  0
 26 25  1  0
 28 26  1  0
 29 38  2  0
 29 34  1  0
 30 26  1  0
 30 34  1  0
 31 30  1  0
 32 33  1  0
 32 31  1  0
 33 29  1  0
 34 35  2  0
 35 36  1  0
 37 36  2  0
 38 37  1  0
 39 13  1  0
 39 44  1  0
 39 40  1  0
 40 43  1  1
 40 41  1  0
 42 40  1  0
 44 47  1  0
 45 49  1  0
 45 44  1  0
 46 45  2  0
 49 48  1  0
 51 49  1  0
 51 52  1  0
 51 50  1  0
 54 62  1  0
 55 60  1  0
 56 57  1  0
 56 55  1  0
 58 57  1  0
 58 67  1  0
 58 59  1  0
 60 54  1  0
 60 59  1  0
 61 54  2  0
 62 63  1  0
 62 53  1  0
 64 65  2  0
 65 84  1  0
 66 65  1  0
 66 69  1  0
 67 64  1  0
 67 68  1  0
 68 66  2  0
 69 70  1  0
 70 71  2  0
 72 75  1  0
 72 71  1  0
 73 72  2  0
 74 73  1  0
 74 69  2  0
 75 76  1  0
 76 77  1  0
 77 78  2  0
 79 78  1  0
 79 83  1  0
 80 79  2  0
 81 76  2  0
 81 80  1  0
 82 81  1  0
 84 85  1  0
 85 88  1  0
 85 87  1  0
 86 84  2  0
 89 90  1  0
 89 64  1  0
 91 89  1  0
 94 95  1  0
 95 92  1  0
 95 93  1  0
 97 98  1  0
 97 96  1  0
 98101  1  0
 99100  1  0
101 99  1  0
101103  1  0
102 99  2  0
M  ISO  4  11 101  12 101  54 100  62 100
M  END
>  <TORSDO>  (16) 
F 26

>  <SCORE>  (16) 
-12.548

>  <name>  (16) 
15

>  <ligand_id>  (16) 
15

>  <original_smiles>  (16) 
[H]c1c([H])c([H])c2c(c1[H])C([H])([H])C([H])([H])C([H])([H])C2([H])N([H])C(=O)C1([H])N(C(=O)C([H])(N([H])C(=O)C([H])(N([H])C([H])([H])[H])C([H])([H])[H])C(C([H])([H])[H])(C([H])([H])[H])C([H])([H])[H])C([H])([H])c2c([H])c(OC([H])([H])C([H])([H])C([H])([H])C3([H])N(C([H])([H])C([H])([H])C([H])([H])N([H])C(=O)C([H])([H])[H])C([H])(C([H])([H])N([H])C(=O)N4C([H])([H])C([H])([H])C([H])([H])C([H])(n5nc(-c6c([H])c([H])c(Oc7c([H])c([H])c(F)c([H])c7F)c([H])c6[H])c(C(=O)N([H])[H])c5N([H])[H])C4([H])[H])C([H])([H])[N+]([H])([H])C3([H])C([H])([H])C([H])(C([H])([H])[H])C([H])([H])[H])c([H])c([H])c2C1([H])[H]

>  <smiles>  (16) 
[H]c1c([H])c([H])c2c(c1[H])C([H])([H])C([H])([H])C([H])([H])C2([H])N([H])C(=O)C1([H])N(C(=O)C([H])(N([H])C(=O)C([H])(N([H])C([H])([H])[H])C([H])([H])[H])C(C([H])([H])[H])(C([H])([H])[H])C([H])([H])[H])C([H])([H])c2c([H])c(OC([H])([H])C([H])([H])C([H])([H])C3([H])N(C([H])([H])C([H])([H])C([H])([H])N([H])C(=O)C([H])([H])[H])C([H])(C([H])([H])N([H])C(=O)N4C([H])([H])C([H])([H])C([H])([H])C([H])(n5nc(-c6c([H])c([H])c(Oc7c([H])c([H])c(F)c([H])c7F)c([H])c6[H])c(C(=O)N([H])[H])c5N([H])[H])C4([H])[H])C([H])([H])[N+]([H])([H])C3([H])C([H])([H])C([H])(C([H])([H])[H])C([H])([H])[H])c([H])c([H])c2C1([H])[H]

$$$$
16:0:0
     RDKit          3D

 95104  0  0  1  0  0  0  0  0999 V2000
  -27.1100  -23.3090   21.6770 C   0  0  0  0  0  2  0  0  0  0  0  0
  -27.4150  -24.8160   21.5810 C   0  0  0  0  0  2  0  0  0  0  0  0
  -27.8120  -22.4620   20.5970 C   0  0  0  0  0  2  0  0  0  0  0  0
  -29.4810  -24.3080   20.2210 C   0  0  0  0  0  2  0  0  0  0  0  0
  -28.1900  -25.1900   20.3000 C   0  0  0  0  0  3  0  0  0  0  0  0
  -29.2480  -22.8270   20.4700 N   0  0  2  0  0  4  0  0  0  0  0  0
  -29.6190  -22.6550   21.3940 H   0  0  0  0  0  0  0  0  0  0  0  0
  -28.3960  -26.6390   20.2450 O   0  0  0  0  0  0  0  0  0  0  0  0
  -24.5920  -31.9140   23.2650 C   0  0  0  0  0  0  0  0  0  0  0  0
  -27.2530  -27.4370   20.1890 C   0  0  0  0  0  0  0  0  0  0  0  0
  -23.4020  -30.5120   21.6180 C   0  0  0  0  0  3  0  0  0  0  0  0
  -24.8680  -28.9880   20.1940 C   0  0  0  0  0  0  0  0  0  0  0  0
  -25.9360  -30.8620   21.4410 C   0  0  0  0  0  2  0  0  0  0  0  0
  -26.0270  -29.4930   20.7930 C   0  0  0  0  0  0  0  0  0  0  0  0
  -27.2250  -28.7260   20.7870 C   0  0  0  0  0  3  0  0  0  0  0  0
  -26.0680  -26.9800   19.5590 C   0  0  0  0  0  3  0  0  0  0  0  0
  -24.8870  -27.7330   19.5730 C   0  0  0  0  0  3  0  0  0  0  0  0
  -23.6250  -29.8490   20.2360 C   0  0  0  0  0  2  0  0  0  0  0  0
  -24.6610  -31.1100   22.1650 N   0  0  0  0  0  0  0  0  0  0  0  0
  -23.5070  -32.1830   23.7970 O   0  0  0  0  0  0  0  0  0  0  0  0
  -22.7480  -29.4820   22.5690 C   0  0  0  0  0  0  0  0  0  0  0  0
  -21.4240  -29.2950   22.4370 N   0  0  0  0  0  0  0  0  0  0  0  0
  -23.4310  -28.8550   23.3840 O   0  0  0  0  0  0  0  0  0  0  0  0
  -20.9350  -29.8510   21.7490 H   0  0  0  0  0  0  0  0  0  0  0  0
  -18.0510  -28.0980   22.9290 C   0  0  0  0  0  0  0  0  0  0  0  0
  -20.6090  -28.3520   23.2040 C   0  0  0  0  0  3  0  0  0  0  0  0
  -20.7130  -26.9250   22.6170 C   0  0  0  0  0  2  0  0  0  0  0  0
  -19.6080  -26.6010   21.6060 C   0  0  0  0  0  2  0  0  0  0  0  0
  -18.2260  -26.7500   22.2510 C   0  0  0  0  0  2  0  0  0  0  0  0
  -19.1690  -28.8550   23.3660 C   0  0  0  0  0  0  0  0  0  0  0  0
  -18.9510  -30.1100   23.9710 C   0  0  0  0  0  3  0  0  0  0  0  0
  -17.6460  -30.6140   24.1380 C   0  0  0  0  0  3  0  0  0  0  0  0
  -16.5420  -29.8560   23.7080 C   0  0  0  0  0  3  0  0  0  0  0  0
  -16.7440  -28.6000   23.1110 C   0  0  0  0  0  3  0  0  0  0  0  0
  -25.8720  -32.5530   23.8870 C   0  0  0  0  0  3  0  0  0  0  0  0
  -26.3810  -31.7940   25.1730 C   0  0  1  0  0  0  0  0  0  0  0  0
  -25.2800  -31.5620   26.2360 C   0  0  0  0  0  1  0  0  0  0  0  0
  -26.9710  -30.4150   24.7960 C   0  0  0  0  0  1  0  0  0  0  0  0
  -27.5260  -32.5950   25.8360 C   0  0  0  0  0  1  0  0  0  0  0  0
  -25.5590  -33.9530   24.2030 N   0  0  0  0  0  0  0  0  0  0  0  0
  -25.8950  -34.9990   23.4370 C   0  0  0  0  0  0  0  0  0  0  0  0
  -26.5770  -34.8890   22.4150 O   0  0  0  0  0  0  0  0  0  0  0  0
  -24.9610  -34.1130   25.0000 H   0  0  0  0  0  0  0  0  0  0  0  0
  -24.1750  -36.7880   23.0360 C   0  0  0  0  0  1  0  0  0  0  0  0
  -25.4000  -36.3910   23.8750 C   0  0  0  0  0  3  0  0  0  0  0  0
  -27.5190  -37.2790   24.7400 C   0  0  0  0  0  1  0  0  0  0  0  0
  -26.4340  -37.4420   23.7760 N   0  0  0  0  0  0  0  0  0  0  0  0
  -26.0270  -38.3630   23.9110 H   0  0  0  0  0  0  0  0  0  0  0  0
  -30.0570  -21.9100   19.5940 C   0  0  0  0  0  2  0  0  0  0  0  0
  -30.2080  -19.4450   20.4530 C   0  0  0  0  0  3  0  0  0  0  0  0
  -29.0010  -17.6540   19.3170 C   0  0  0  0  0  3  0  0  0  0  0  0
  -28.7890  -19.9620   18.5440 C   0  0  0  0  0  3  0  0  0  0  0  0
  -29.8860  -18.0600   20.3410 C   0  0  0  0  0  0  0  0  0  0  0  0
  -29.6660  -20.4120   19.5570 C   0  0  0  0  0  0  0  0  0  0  0  0
  -28.4560  -18.5990   18.4280 C   0  0  0  0  0  0  0  0  0  0  0  0
  -27.6130  -18.1950   17.4480 F   0  0  0  0  0  0  0  0  0  0  0  0
  -30.5030  -17.0270   21.3080 C   0  0  0  0  0  2  0  0  0  0  0  0
  -30.7840  -14.5940   20.6690 C   0  0  0  0  0  0  0  0  0  0  0  0
  -30.5370  -12.4210   19.5240 C   0  0  0  0  0  2  0  0  0  0  0  0
  -29.6370  -12.6030   18.2830 C   0  0  0  0  0  2  0  0  0  0  0  0
  -28.1490  -12.4650   18.6620 C   0  0  0  0  0  2  0  0  0  0  0  0
  -27.7630  -13.3120   19.9050 C   0  0  0  0  0  3  0  0  0  0  0  0
  -28.7790  -13.1050   21.0510 C   0  0  0  0  0  2  0  0  0  0  0  0
  -30.1200  -13.4140   20.5260 N   0  0  0  0  0  0  0  0  0  0  0  0
  -31.9310  -14.7650   20.2470 O   0  0  0  0  0  0  0  0  0  0  0  0
  -30.0640  -15.6200   21.1670 N   0  0  0  0  0  0  0  0  0  0  0  0
  -29.1320  -15.4010   21.4840 H   0  0  0  0  0  0  0  0  0  0  0  0
  -25.3360  -13.9180   20.5070 C   0  0  0  0  0  0  0  0  0  0  0  0
  -24.2580  -13.1450   20.8470 C   0  0  0  0  0  0  0  0  0  0  0  0
  -24.7260  -11.7960   20.8630 C   0  0  0  0  0  0  0  0  0  0  0  0
  -26.3940  -13.0390   20.3350 N   0  0  0  0  0  0  0  0  0  0  0  0
  -26.0290  -11.7600   20.6100 N   0  0  0  0  0  0  0  0  0  0  0  0
  -24.0010  -10.5340   21.0500 C   0  0  0  0  0  0  0  0  0  0  0  0
  -24.4160   -9.5770   22.0030 C   0  0  0  0  0  3  0  0  0  0  0  0
  -23.6920   -8.3780   22.1750 C   0  0  0  0  0  3  0  0  0  0  0  0
  -22.5400   -8.1260   21.3930 C   0  0  0  0  0  0  0  0  0  0  0  0
  -22.1430   -9.0710   20.4310 C   0  0  0  0  0  3  0  0  0  0  0  0
  -22.8680  -10.2620   20.2560 C   0  0  0  0  0  3  0  0  0  0  0  0
  -21.7870   -6.9800   21.4760 O   0  0  0  0  0  0  0  0  0  0  0  0
  -21.7260   -6.2400   22.6300 C   0  0  0  0  0  0  0  0  0  0  0  0
  -21.2900   -6.7990   23.8500 C   0  0  0  0  0  3  0  0  0  0  0  0
  -21.1750   -5.9860   24.9960 C   0  0  0  0  0  3  0  0  0  0  0  0
  -21.4870   -4.6150   24.9200 C   0  0  0  0  0  0  0  0  0  0  0  0
  -21.9180   -4.0560   23.7030 C   0  0  0  0  0  3  0  0  0  0  0  0
  -22.0340   -4.8660   22.5620 C   0  0  0  0  0  0  0  0  0  0  0  0
  -22.4300   -4.3200   21.3860 F   0  0  0  0  0  0  0  0  0  0  0  0
  -21.3690   -3.8300   26.0170 F   0  0  0  0  0  0  0  0  0  0  0  0
  -22.8480  -13.6190   21.0530 C   0  0  0  0  0  0  0  0  0  0  0  0
  -22.0880  -12.9390   21.9030 N   0  0  0  0  0  0  0  0  0  0  0  0
  -22.4250  -14.6300   20.4910 O   0  0  0  0  0  0  0  0  0  0  0  0
  -22.4400  -12.1210   22.3800 H   0  0  0  0  0  0  0  0  0  0  0  0
  -21.1420  -13.2430   22.0830 H   0  0  0  0  0  0  0  0  0  0  0  0
  -25.5020  -15.2860   20.3090 N   0  0  0  0  0  0  0  0  0  0  0  0
  -24.7270  -15.9380   20.3710 H   0  0  0  0  0  0  0  0  0  0  0  0
  -26.3550  -15.7220   19.9850 H   0  0  0  0  0  0  0  0  0  0  0  0
  2  1  1  0
  3  1  1  0
  4  5  1  0
  4  6  1  0
  5  8  1  0
  5  2  1  0
  6  3  1  0
  6  7  1  1
  9 20  2  0
 10  8  1  0
 10 15  1  0
 11 19  1  0
 11 21  1  0
 12 18  1  0
 12 14  1  0
 13 19  1  0
 14 13  1  0
 15 14  2  0
 16 17  1  0
 16 10  2  0
 17 12  2  0
 18 11  1  0
 19  9  1  0
 21 23  2  0
 22 21  1  0
 24 22  1  0
 25 34  2  0
 25 30  1  0
 26 22  1  0
 26 30  1  0
 27 26  1  0
 28 29  1  0
 28 27  1  0
 29 25  1  0
 30 31  2  0
 31 32  1  0
 33 32  2  0
 34 33  1  0
 35  9  1  0
 35 40  1  0
 35 36  1  0
 36 39  1  1
 36 37  1  0
 38 36  1  0
 40 43  1  0
 41 45  1  0
 41 40  1  0
 42 41  2  0
 45 44  1  0
 47 45  1  0
 47 48  1  0
 47 46  1  0
 49  6  1  0
 51 53  2  0
 52 54  1  0
 53 50  1  0
 53 57  1  0
 54 49  1  0
 54 50  2  0
 55 52  2  0
 55 51  1  0
 56 55  1  0
 58 66  1  0
 59 64  1  0
 60 61  1  0
 60 59  1  0
 62 61  1  0
 62 71  1  0
 62 63  1  0
 64 58  1  0
 64 63  1  0
 65 58  2  0
 66 57  1  0
 66 67  1  0
 68 69  2  0
 69 70  1  0
 69 88  1  0
 70 73  1  0
 71 68  1  0
 71 72  1  0
 72 70  2  0
 73 74  1  0
 74 75  2  0
 76 79  1  0
 76 75  1  0
 77 76  2  0
 78 77  1  0
 78 73  2  0
 79 80  1  0
 80 81  1  0
 81 82  2  0
 83 82  1  0
 83 87  1  0
 84 83  2  0
 85 80  2  0
 85 84  1  0
 86 85  1  0
 88 89  1  0
 89 92  1  0
 89 91  1  0
 90 88  2  0
 93 94  1  0
 93 68  1  0
 95 93  1  0
M  ISO  4   5 101   8 101  58 100  66 100
M  END
>  <TORSDO>  (17) 
F 19

>  <SCORE>  (17) 
-14.642

>  <name>  (17) 
16

>  <ligand_id>  (17) 
16

>  <original_smiles>  (17) 
[H]c1c([H])c([H])c2c(c1[H])C([H])([H])C([H])([H])C([H])([H])C2([H])N([H])C(=O)C1([H])N(C(=O)C([H])(N([H])C(=O)C([H])(N([H])C([H])([H])[H])C([H])([H])[H])C(C([H])([H])[H])(C([H])([H])[H])C([H])([H])[H])C([H])([H])c2c([H])c(OC3([H])C([H])([H])C([H])([H])C([H])([H])[N+]([H])(C([H])([H])c4c([H])c(F)c([H])c(C([H])([H])N([H])C(=O)N5C([H])([H])C([H])([H])C([H])([H])C([H])(n6nc(-c7c([H])c([H])c(Oc8c([H])c([H])c(F)c([H])c8F)c([H])c7[H])c(C(=O)N([H])[H])c6N([H])[H])C5([H])[H])c4[H])C3([H])[H])c([H])c([H])c2C1([H])[H]

>  <smiles>  (17) 
[H]c1c([H])c([H])c2c(c1[H])C([H])([H])C([H])([H])C([H])([H])C2([H])N([H])C(=O)C1([H])N(C(=O)C([H])(N([H])C(=O)C([H])(N([H])C([H])([H])[H])C([H])([H])[H])C(C([H])([H])[H])(C([H])([H])[H])C([H])([H])[H])C([H])([H])c2c([H])c(OC3([H])C([H])([H])C([H])([H])C([H])([H])[N+]([H])(C([H])([H])c4c([H])c(F)c([H])c(C([H])([H])N([H])C(=O)N5C([H])([H])C([H])([H])C([H])([H])C([H])(n6nc(-c7c([H])c([H])c(Oc8c([H])c([H])c(F)c([H])c8F)c([H])c7[H])c(C(=O)N([H])[H])c6N([H])[H])C5([H])[H])c4[H])C3([H])[H])c([H])c([H])c2C1([H])[H]

$$$$
17:0:0
     RDKit          3D

 98108  0  0  1  0  0  0  0  0999 V2000
  -29.5680  -23.3460   19.4990 C   0  0  0  0  0  3  0  0  0  0  0  0
  -27.9150  -21.9740   19.9810 C   0  0  0  0  0  3  0  0  0  0  0  0
  -29.2040  -21.9330   19.5320 C   0  0  0  0  0  0  0  0  0  0  0  0
  -28.5780  -24.1840   20.0190 C   0  0  0  0  0  0  0  0  0  0  0  0
  -27.5610  -23.2740   20.3710 N   0  0  0  0  0  0  0  0  0  0  0  0
  -25.7800  -22.4050   21.9060 C   0  0  0  0  0  1  0  0  0  0  0  0
  -25.2340  -24.0930   20.0860 C   0  0  0  0  0  1  0  0  0  0  0  0
  -26.3030  -23.5860   21.0640 C   0  0  0  0  0  3  0  0  0  0  0  0
  -30.0940  -20.6640   19.1750 C   0  0  0  0  0  2  0  0  0  0  0  0
  -30.8010  -14.9990   20.0120 C   0  0  0  0  0  0  0  0  0  0  0  0
  -30.5380  -12.7100   19.0750 C   0  0  0  0  0  2  0  0  0  0  0  0
  -29.5860  -12.7890   17.8630 C   0  0  0  0  0  2  0  0  0  0  0  0
  -28.1200  -12.6580   18.3250 C   0  0  0  0  0  2  0  0  0  0  0  0
  -27.7810  -13.5640   19.5400 C   0  0  0  0  0  3  0  0  0  0  0  0
  -28.8620  -13.4880   20.6380 C   0  0  0  0  0  2  0  0  0  0  0  0
  -30.1490  -13.7910   20.0030 N   0  0  0  0  0  0  0  0  0  0  0  0
  -31.9970  -15.0620   19.7110 O   0  0  0  0  0  0  0  0  0  0  0  0
  -29.6010  -17.0680   20.9460 C   0  0  0  0  0  2  0  0  0  0  0  0
  -29.8470  -16.7700   18.5360 C   0  0  0  0  0  2  0  0  0  0  0  0
  -29.9710  -18.6080   20.7750 C   0  0  0  0  0  2  0  0  0  0  0  0
  -30.2880  -18.2670   18.4190 C   0  0  0  0  0  2  0  0  0  0  0  0
  -30.0190  -16.1370   19.8640 N   0  0  0  0  0  0  0  0  0  0  0  0
  -29.6820  -19.1990   19.4280 N   0  0  2  0  0  4  0  0  0  0  0  0
  -28.6850  -19.1710   19.2890 H   0  0  0  0  0  0  0  0  0  0  0  0
  -25.4200  -14.1940   20.3180 C   0  0  0  0  0  0  0  0  0  0  0  0
  -24.3560  -13.4380   20.7190 C   0  0  0  0  0  0  0  0  0  0  0  0
  -24.7980  -12.0790   20.6830 C   0  0  0  0  0  0  0  0  0  0  0  0
  -26.4460  -13.2990   20.0620 N   0  0  0  0  0  0  0  0  0  0  0  0
  -26.0790  -12.0210   20.3420 N   0  0  0  0  0  0  0  0  0  0  0  0
  -24.0580  -10.8280   20.8920 C   0  0  0  0  0  0  0  0  0  0  0  0
  -24.4860   -9.8680   21.8350 C   0  0  0  0  0  3  0  0  0  0  0  0
  -23.7480   -8.6820   22.0340 C   0  0  0  0  0  3  0  0  0  0  0  0
  -22.5680   -8.4470   21.2900 C   0  0  0  0  0  0  0  0  0  0  0  0
  -22.1580   -9.3950   20.3370 C   0  0  0  0  0  3  0  0  0  0  0  0
  -22.8960  -10.5740   20.1360 C   0  0  0  0  0  3  0  0  0  0  0  0
  -21.8040   -7.3090   21.3960 O   0  0  0  0  0  0  0  0  0  0  0  0
  -21.7470   -6.5850   22.5600 C   0  0  0  0  0  0  0  0  0  0  0  0
  -21.3080   -7.1560   23.7750 C   0  0  0  0  0  3  0  0  0  0  0  0
  -21.1970   -6.3590   24.9310 C   0  0  0  0  0  3  0  0  0  0  0  0
  -21.5210   -4.9900   24.8750 C   0  0  0  0  0  0  0  0  0  0  0  0
  -21.9560   -4.4170   23.6680 C   0  0  0  0  0  3  0  0  0  0  0  0
  -22.0670   -5.2130   22.5130 C   0  0  0  0  0  0  0  0  0  0  0  0
  -22.4640   -4.6500   21.3460 F   0  0  0  0  0  0  0  0  0  0  0  0
  -21.4100   -4.2210   25.9830 F   0  0  0  0  0  0  0  0  0  0  0  0
  -22.9720  -13.9350   21.0210 C   0  0  0  0  0  0  0  0  0  0  0  0
  -22.2520  -13.2610   21.9080 N   0  0  0  0  0  0  0  0  0  0  0  0
  -22.5400  -14.9660   20.5050 O   0  0  0  0  0  0  0  0  0  0  0  0
  -22.6090  -12.4250   22.3480 H   0  0  0  0  0  0  0  0  0  0  0  0
  -21.3260  -13.5850   22.1470 H   0  0  0  0  0  0  0  0  0  0  0  0
  -25.6050  -15.5620   20.1250 N   0  0  0  0  0  0  0  0  0  0  0  0
  -24.8510  -16.2310   20.2480 H   0  0  0  0  0  0  0  0  0  0  0  0
  -26.4530  -15.9750   19.7520 H   0  0  0  0  0  0  0  0  0  0  0  0
  -28.5550  -25.7110   20.4860 C   0  0  0  0  0  3  0  0  0  0  0  0
  -28.2550  -26.7590   19.4850 O   0  0  0  0  0  0  0  0  0  0  0  0
  -24.5530  -31.9290   23.0740 C   0  0  0  0  0  0  0  0  0  0  0  0
  -27.1400  -27.6010   19.6620 C   0  0  0  0  0  0  0  0  0  0  0  0
  -23.3180  -30.6090   21.3870 C   0  0  0  0  0  3  0  0  0  0  0  0
  -24.7480  -29.1710   19.8260 C   0  0  0  0  0  0  0  0  0  0  0  0
  -25.8450  -30.9840   21.1480 C   0  0  0  0  0  2  0  0  0  0  0  0
  -25.9250  -29.6420   20.4230 C   0  0  0  0  0  0  0  0  0  0  0  0
  -27.1250  -28.8700   20.3290 C   0  0  0  0  0  3  0  0  0  0  0  0
  -25.9380  -27.1860   19.0550 C   0  0  0  0  0  3  0  0  0  0  0  0
  -24.7560  -27.9500   19.1330 C   0  0  0  0  0  3  0  0  0  0  0  0
  -23.4970  -30.0200   19.9610 C   0  0  0  0  0  2  0  0  0  0  0  0
  -24.5930  -31.1910   21.9260 N   0  0  0  0  0  0  0  0  0  0  0  0
  -23.4820  -32.1530   23.6560 O   0  0  0  0  0  0  0  0  0  0  0  0
  -22.7010  -29.5260   22.3020 C   0  0  0  0  0  0  0  0  0  0  0  0
  -21.3740  -29.3320   22.2030 N   0  0  0  0  0  0  0  0  0  0  0  0
  -23.4170  -28.8640   23.0580 O   0  0  0  0  0  0  0  0  0  0  0  0
  -20.8560  -29.9180   21.5630 H   0  0  0  0  0  0  0  0  0  0  0  0
  -18.0290  -28.0740   22.7640 C   0  0  0  0  0  0  0  0  0  0  0  0
  -20.5960  -28.3330   22.9370 C   0  0  0  0  0  3  0  0  0  0  0  0
  -20.6770  -26.9480   22.2530 C   0  0  0  0  0  2  0  0  0  0  0  0
  -19.5320  -26.6950   21.2670 C   0  0  0  0  0  2  0  0  0  0  0  0
  -18.1800  -26.7790   21.9820 C   0  0  0  0  0  2  0  0  0  0  0  0
  -19.1610  -28.8100   23.1990 C   0  0  0  0  0  0  0  0  0  0  0  0
  -18.9650  -30.0250   23.8930 C   0  0  0  0  0  3  0  0  0  0  0  0
  -17.6670  -30.5020   24.1550 C   0  0  0  0  0  3  0  0  0  0  0  0
  -16.5480  -29.7600   23.7360 C   0  0  0  0  0  3  0  0  0  0  0  0
  -16.7300  -28.5480   23.0460 C   0  0  0  0  0  3  0  0  0  0  0  0
  -25.8470  -32.5440   23.6970 C   0  0  0  0  0  3  0  0  0  0  0  0
  -25.5420  -33.9330   24.0660 N   0  0  0  0  0  0  0  0  0  0  0  0
  -25.8880  -35.0110   23.3440 C   0  0  0  0  0  0  0  0  0  0  0  0
  -26.5620  -34.9370   22.3130 O   0  0  0  0  0  0  0  0  0  0  0  0
  -24.9490  -34.0650   24.8710 H   0  0  0  0  0  0  0  0  0  0  0  0
  -24.1820  -36.8330   23.0210 C   0  0  0  0  0  1  0  0  0  0  0  0
  -25.4020  -36.3860   23.8400 C   0  0  0  0  0  3  0  0  0  0  0  0
  -27.5270  -37.2230   24.7420 C   0  0  0  0  0  1  0  0  0  0  0  0
  -26.4430  -37.4360   23.7850 N   0  0  0  0  0  0  0  0  0  0  0  0
  -26.0390  -38.3530   23.9560 H   0  0  0  0  0  0  0  0  0  0  0  0
  -26.3680  -31.7360   24.9500 C   0  0  1  0  0  0  0  0  0  0  0  0
  -25.2830  -31.4800   26.0230 C   0  0  0  0  0  1  0  0  0  0  0  0
  -26.9360  -30.3650   24.5260 C   0  0  0  0  0  1  0  0  0  0  0  0
  -27.5270  -32.5080   25.6250 C   0  0  0  0  0  1  0  0  0  0  0  0
  -29.9310  -26.0610   21.0970 C   0  0  0  0  0  2  0  0  0  0  0  0
  -31.4510  -28.0810   21.8360 C   0  0  0  0  0  2  0  0  0  0  0  0
  -30.6840  -28.5470   20.6220 C   0  0  0  0  0  2  0  0  0  0  0  0
  -30.0840  -27.5070   21.5430 C   0  0  0  0  0  3  0  0  0  0  0  0
  1  3  1  0
  1  4  2  0
  2  5  1  0
  3  2  2  0
  4  5  1  0
  4 53  1  0
  5  8  1  0
  7  8  1  0
  8  6  1  0
  9 23  1  0
  9  3  1  0
 11 16  1  0
 12 13  1  0
 12 11  1  0
 14 13  1  0
 14 28  1  0
 14 15  1  0
 16 10  1  0
 16 15  1  0
 17 10  2  0
 19 22  1  0
 20 18  1  0
 21 19  1  0
 21 23  1  0
 22 10  1  0
 22 18  1  0
 23 20  1  0
 23 24  1  6
 25 26  2  0
 26 45  1  0
 27 26  1  0
 27 30  1  0
 28 25  1  0
 28 29  1  0
 29 27  2  0
 30 31  1  0
 31 32  2  0
 33 36  1  0
 33 32  1  0
 34 33  2  0
 35 34  1  0
 35 30  2  0
 36 37  1  0
 37 38  1  0
 38 39  2  0
 40 39  1  0
 40 44  1  0
 41 40  2  0
 42 37  2  0
 42 41  1  0
 43 42  1  0
 45 46  1  0
 46 49  1  0
 46 48  1  0
 47 45  2  0
 50 51  1  0
 50 25  1  0
 52 50  1  0
 53 95  1  0
 54 56  1  0
 54 53  1  0
 55 66  2  0
 56 61  1  0
 57 65  1  0
 57 67  1  0
 58 64  1  0
 58 60  1  0
 59 65  1  0
 60 59  1  0
 61 60  2  0
 62 63  1  0
 62 56  2  0
 63 58  2  0
 64 57  1  0
 65 55  1  0
 67 69  2  0
 68 67  1  0
 70 68  1  0
 71 80  2  0
 71 76  1  0
 72 68  1  0
 72 76  1  0
 73 72  1  0
 74 75  1  0
 74 73  1  0
 75 71  1  0
 76 77  2  0
 77 78  1  0
 79 78  2  0
 80 79  1  0
 81 55  1  0
 81 82  1  0
 81 91  1  0
 82 85  1  0
 83 87  1  0
 83 82  1  0
 84 83  2  0
 87 86  1  0
 89 87  1  0
 89 90  1  0
 89 88  1  0
 91 94  1  1
 91 92  1  0
 93 91  1  0
 95 98  1  0
 97 98  1  0
 97 96  1  0
 98 96  1  0
M  ISO  4  10 100  22 100  53 101  54 101
M  END
>  <TORSDO>  (18) 
F 21

>  <SCORE>  (18) 
-11.796

>  <name>  (18) 
17

>  <ligand_id>  (18) 
17

>  <original_smiles>  (18) 
[H]c1c([H])c([H])c2c(c1[H])C([H])([H])C([H])([H])C([H])([H])C2([H])N([H])C(=O)C1([H])N(C(=O)C([H])(N([H])C(=O)C([H])(N([H])C([H])([H])[H])C([H])([H])[H])C(C([H])([H])[H])(C([H])([H])[H])C([H])([H])[H])C([H])([H])c2c([H])c(OC([H])(c3c([H])c(C([H])([H])[N+]4([H])C([H])([H])C([H])([H])N(C(=O)N5C([H])([H])C([H])([H])C([H])([H])C([H])(n6nc(-c7c([H])c([H])c(Oc8c([H])c([H])c(F)c([H])c8F)c([H])c7[H])c(C(=O)N([H])[H])c6N([H])[H])C5([H])[H])C([H])([H])C4([H])[H])c([H])n3C([H])(C([H])([H])[H])C([H])([H])[H])C([H])([H])C3([H])C([H])([H])C3([H])[H])c([H])c([H])c2C1([H])[H]

>  <smiles>  (18) 
[H]c1c([H])c([H])c2c(c1[H])C([H])([H])C([H])([H])C([H])([H])C2([H])N([H])C(=O)C1([H])N(C(=O)C([H])(N([H])C(=O)C([H])(N([H])C([H])([H])[H])C([H])([H])[H])C(C([H])([H])[H])(C([H])([H])[H])C([H])([H])[H])C([H])([H])c2c([H])c(OC([H])(c3c([H])c(C([H])([H])[N+]4([H])C([H])([H])C([H])([H])N(C(=O)N5C([H])([H])C([H])([H])C([H])([H])C([H])(n6nc(-c7c([H])c([H])c(Oc8c([H])c([H])c(F)c([H])c8F)c([H])c7[H])c(C(=O)N([H])[H])c6N([H])[H])C5([H])[H])C([H])([H])C4([H])[H])c([H])n3C([H])(C([H])([H])[H])C([H])([H])[H])C([H])([H])C3([H])C([H])([H])C3([H])[H])c([H])c([H])c2C1([H])[H]

$$$$
18:0:0
     RDKit          3D

 93101  0  0  1  0  0  0  0  0999 V2000
  -28.9390  -22.2240   21.7730 N   0  0  0  0  0  0  0  0  0  0  0  0
  -28.3540  -22.4390   22.5760 H   0  0  0  0  0  0  0  0  0  0  0  0
  -29.7170  -23.4030   19.7310 C   0  0  0  0  0  2  0  0  0  0  0  0
  -29.7850  -24.9310   19.6050 C   0  0  0  0  0  2  0  0  0  0  0  0
  -28.0070  -24.4720   21.0970 C   0  0  0  0  0  2  0  0  0  0  0  0
  -28.5270  -23.0840   20.6550 C   0  0  0  0  0  3  0  0  0  0  0  0
  -28.3780  -25.4000   19.9260 C   0  0  0  0  0  3  0  0  0  0  0  0
  -28.3770  -26.8070   20.2200 O   0  0  0  0  0  0  0  0  0  0  0  0
  -24.5860  -31.9560   23.2920 C   0  0  0  0  0  0  0  0  0  0  0  0
  -27.1870  -27.5070   20.2030 C   0  0  0  0  0  0  0  0  0  0  0  0
  -23.3650  -30.5630   21.6590 C   0  0  0  0  0  3  0  0  0  0  0  0
  -24.8020  -29.0340   20.2140 C   0  0  0  0  0  0  0  0  0  0  0  0
  -25.8920  -30.9220   21.4400 C   0  0  0  0  0  2  0  0  0  0  0  0
  -25.9660  -29.5520   20.7970 C   0  0  0  0  0  0  0  0  0  0  0  0
  -27.1590  -28.7970   20.7820 C   0  0  0  0  0  3  0  0  0  0  0  0
  -25.9970  -27.0050   19.6180 C   0  0  0  0  0  3  0  0  0  0  0  0
  -24.8130  -27.7650   19.6170 C   0  0  0  0  0  3  0  0  0  0  0  0
  -23.5600  -29.8920   20.2740 C   0  0  0  0  0  2  0  0  0  0  0  0
  -24.6340  -31.1590   22.1880 N   0  0  0  0  0  0  0  0  0  0  0  0
  -23.5080  -32.2230   23.8410 O   0  0  0  0  0  0  0  0  0  0  0  0
  -22.7280  -29.5310   22.6200 C   0  0  0  0  0  0  0  0  0  0  0  0
  -21.4050  -29.3340   22.4930 N   0  0  0  0  0  0  0  0  0  0  0  0
  -23.4230  -28.9150   23.4340 O   0  0  0  0  0  0  0  0  0  0  0  0
  -20.9030  -29.8940   21.8170 H   0  0  0  0  0  0  0  0  0  0  0  0
  -18.0510  -28.0950   22.9900 C   0  0  0  0  0  0  0  0  0  0  0  0
  -20.6020  -28.3890   23.2670 C   0  0  0  0  0  3  0  0  0  0  0  0
  -20.7320  -26.9590   22.6970 C   0  0  0  0  0  2  0  0  0  0  0  0
  -19.6330  -26.6190   21.6860 C   0  0  0  0  0  2  0  0  0  0  0  0
  -18.2530  -26.7390   22.3350 C   0  0  0  0  0  2  0  0  0  0  0  0
  -19.1570  -28.8770   23.4170 C   0  0  0  0  0  0  0  0  0  0  0  0
  -18.9190  -30.1460   23.9860 C   0  0  0  0  0  3  0  0  0  0  0  0
  -17.6060  -30.6330   24.1380 C   0  0  0  0  0  3  0  0  0  0  0  0
  -16.5150  -29.8480   23.7310 C   0  0  0  0  0  3  0  0  0  0  0  0
  -16.7380  -28.5810   23.1600 C   0  0  0  0  0  3  0  0  0  0  0  0
  -25.8780  -32.5870   23.8990 C   0  0  0  0  0  3  0  0  0  0  0  0
  -25.5720  -33.9890   24.2160 N   0  0  0  0  0  0  0  0  0  0  0  0
  -25.9030  -35.0290   23.4370 C   0  0  0  0  0  0  0  0  0  0  0  0
  -26.5670  -34.9100   22.4050 O   0  0  0  0  0  0  0  0  0  0  0  0
  -24.9780  -34.1550   25.0140 H   0  0  0  0  0  0  0  0  0  0  0  0
  -24.1730  -36.8170   23.0780 C   0  0  0  0  0  1  0  0  0  0  0  0
  -25.4220  -36.4220   23.8820 C   0  0  0  0  0  3  0  0  0  0  0  0
  -27.5640  -37.3180   24.6790 C   0  0  0  0  0  1  0  0  0  0  0  0
  -26.4520  -37.4730   23.7420 N   0  0  0  0  0  0  0  0  0  0  0  0
  -26.0460  -38.3940   23.8810 H   0  0  0  0  0  0  0  0  0  0  0  0
  -26.4000  -31.8220   25.1780 C   0  0  1  0  0  0  0  0  0  0  0  0
  -25.3130  -31.5960   26.2530 C   0  0  0  0  0  1  0  0  0  0  0  0
  -26.9780  -30.4420   24.7900 C   0  0  0  0  0  1  0  0  0  0  0  0
  -27.5530  -32.6230   25.8270 C   0  0  0  0  0  1  0  0  0  0  0  0
  -28.7660  -20.7950   21.4810 C   0  0  0  0  0  2  0  0  0  0  0  0
  -30.1020  -20.0160   21.4510 C   0  0  0  0  0  2  0  0  0  0  0  0
  -29.8800  -18.5500   21.3930 N   0  0  0  0  0  4  0  0  0  0  0  0
  -29.6180  -18.2440   22.3120 H   0  0  0  0  0  0  0  0  0  0  0  0
  -29.1070  -18.3560   20.7800 H   0  0  0  0  0  0  0  0  0  0  0  0
  -31.0540  -17.7620   20.9580 C   0  0  0  0  0  2  0  0  0  0  0  0
  -31.1910  -16.4170   21.7110 C   0  0  0  0  0  2  0  0  0  0  0  0
  -30.8200  -14.4800   20.1980 C   0  0  0  0  0  0  0  0  0  0  0  0
  -30.3890  -12.3950   18.9490 C   0  0  0  0  0  2  0  0  0  0  0  0
  -29.3880  -12.6130   17.8000 C   0  0  0  0  0  2  0  0  0  0  0  0
  -27.9400  -12.4730   18.3070 C   0  0  0  0  0  2  0  0  0  0  0  0
  -27.6710  -13.3110   19.5840 C   0  0  0  0  0  3  0  0  0  0  0  0
  -28.7720  -13.0760   20.6420 C   0  0  0  0  0  2  0  0  0  0  0  0
  -30.0810  -13.3550   20.0210 N   0  0  0  0  0  0  0  0  0  0  0  0
  -31.8380  -14.7330   19.5460 O   0  0  0  0  0  0  0  0  0  0  0  0
  -30.3940  -15.3160   21.1520 N   0  0  0  0  0  0  0  0  0  0  0  0
  -29.5310  -15.0650   21.6120 H   0  0  0  0  0  0  0  0  0  0  0  0
  -25.3210  -13.9400   20.4290 C   0  0  0  0  0  0  0  0  0  0  0  0
  -24.2610  -13.1730   20.8390 C   0  0  0  0  0  0  0  0  0  0  0  0
  -24.7010  -11.8180   20.7580 C   0  0  0  0  0  0  0  0  0  0  0  0
  -26.3390  -13.0480   20.1270 N   0  0  0  0  0  0  0  0  0  0  0  0
  -25.9730  -11.7670   20.3850 N   0  0  0  0  0  0  0  0  0  0  0  0
  -23.9710  -10.5610   20.9690 C   0  0  0  0  0  0  0  0  0  0  0  0
  -24.4310   -9.5840   21.8780 C   0  0  0  0  0  3  0  0  0  0  0  0
  -23.7020   -8.3900   22.0730 C   0  0  0  0  0  3  0  0  0  0  0  0
  -22.5000   -8.1680   21.3580 C   0  0  0  0  0  0  0  0  0  0  0  0
  -22.0590   -9.1370   20.4400 C   0  0  0  0  0  3  0  0  0  0  0  0
  -22.7870  -10.3210   20.2440 C   0  0  0  0  0  3  0  0  0  0  0  0
  -21.7370   -7.0290   21.4660 O   0  0  0  0  0  0  0  0  0  0  0  0
  -21.7130   -6.2860   22.6180 C   0  0  0  0  0  0  0  0  0  0  0  0
  -21.3300   -6.8440   23.8590 C   0  0  0  0  0  3  0  0  0  0  0  0
  -21.2480   -6.0250   25.0020 C   0  0  0  0  0  3  0  0  0  0  0  0
  -21.5460   -4.6510   24.9100 C   0  0  0  0  0  0  0  0  0  0  0  0
  -21.9230   -4.0960   23.6740 C   0  0  0  0  0  3  0  0  0  0  0  0
  -22.0040   -4.9100   22.5320 C   0  0  0  0  0  0  0  0  0  0  0  0
  -22.3460   -4.3640   21.3400 F   0  0  0  0  0  0  0  0  0  0  0  0
  -21.4630   -3.8630   26.0060 F   0  0  0  0  0  0  0  0  0  0  0  0
  -22.8860  -13.6660   21.1910 C   0  0  0  0  0  0  0  0  0  0  0  0
  -22.1930  -12.9590   22.0760 N   0  0  0  0  0  0  0  0  0  0  0  0
  -22.4370  -14.7070   20.7140 O   0  0  0  0  0  0  0  0  0  0  0  0
  -22.5710  -12.1110   22.4780 H   0  0  0  0  0  0  0  0  0  0  0  0
  -21.2720  -13.2650   22.3550 H   0  0  0  0  0  0  0  0  0  0  0  0
  -25.5040  -15.3100   20.2670 N   0  0  0  0  0  0  0  0  0  0  0  0
  -24.7650  -15.9870   20.4270 H   0  0  0  0  0  0  0  0  0  0  0  0
  -26.3440  -15.7260   19.8880 H   0  0  0  0  0  0  0  0  0  0  0  0
  1  2  1  0
  3  6  1  0
  4  3  1  0
  4  7  1  0
  6  5  1  0
  6  1  1  0
  7  8  1  0
  7  5  1  0
  9 20  2  0
 10  8  1  0
 10 15  1  0
 11 19  1  0
 11 21  1  0
 12 18  1  0
 12 14  1  0
 13 19  1  0
 14 13  1  0
 15 14  2  0
 16 10  2  0
 17 16  1  0
 17 12  2  0
 18 11  1  0
 19  9  1  0
 21 23  2  0
 22 21  1  0
 24 22  1  0
 25 34  2  0
 25 30  1  0
 26 22  1  0
 26 30  1  0
 27 26  1  0
 28 29  1  0
 28 27  1  0
 29 25  1  0
 30 31  2  0
 31 32  1  0
 33 32  2  0
 34 33  1  0
 35  9  1  0
 35 36  1  0
 35 45  1  0
 36 39  1  0
 37 41  1  0
 37 36  1  0
 38 37  2  0
 41 40  1  0
 43 44  1  0
 43 41  1  0
 43 42  1  0
 45 48  1  1
 45 46  1  0
 47 45  1  0
 49  1  1  0
 50 49  1  0
 51 50  1  0
 51 52  1  0
 53 51  1  0
 54 51  1  0
 54 55  1  0
 56 64  1  0
 57 62  1  0
 58 59  1  0
 58 57  1  0
 60 59  1  0
 60 69  1  0
 60 61  1  0
 62 56  1  0
 62 61  1  0
 63 56  2  0
 64 65  1  0
 64 55  1  0
 66 67  2  0
 67 86  1  0
 68 67  1  0
 68 71  1  0
 69 70  1  0
 69 66  1  0
 70 68  2  0
 71 72  1  0
 72 73  2  0
 74 77  1  0
 74 73  1  0
 75 74  2  0
 76 75  1  0
 76 71  2  0
 77 78  1  0
 78 79  1  0
 79 80  2  0
 81 80  1  0
 81 85  1  0
 82 81  2  0
 83 78  2  0
 83 82  1  0
 84 83  1  0
 86 87  1  0
 87 90  1  0
 87 89  1  0
 88 86  2  0
 91 92  1  0
 91 66  1  0
 93 91  1  0
M  ISO  4   7 101   8 101  56 100  64 100
M  END
>  <TORSDO>  (19) 
F 22

>  <SCORE>  (19) 
-12.892

>  <name>  (19) 
18

>  <ligand_id>  (19) 
18

>  <original_smiles>  (19) 
[H]c1c([H])c([H])c2c(c1[H])C([H])([H])C([H])([H])C([H])([H])C2([H])N([H])C(=O)C1([H])N(C(=O)C([H])(N([H])C(=O)C([H])(N([H])C([H])([H])[H])C([H])([H])[H])C(C([H])([H])[H])(C([H])([H])[H])C([H])([H])[H])C([H])([H])c2c([H])c(OC3([H])C([H])([H])C([H])([H])C([H])(N([H])C([H])([H])C([H])([H])[N+]([H])([H])C([H])([H])C([H])([H])N([H])C(=O)N4C([H])([H])C([H])([H])C([H])([H])C([H])(n5nc(-c6c([H])c([H])c(Oc7c([H])c([H])c(F)c([H])c7F)c([H])c6[H])c(C(=O)N([H])[H])c5N([H])[H])C4([H])[H])C3([H])[H])c([H])c([H])c2C1([H])[H]

>  <smiles>  (19) 
[H]c1c([H])c([H])c2c(c1[H])C([H])([H])C([H])([H])C([H])([H])C2([H])N([H])C(=O)C1([H])N(C(=O)C([H])(N([H])C(=O)C([H])(N([H])C([H])([H])[H])C([H])([H])[H])C(C([H])([H])[H])(C([H])([H])[H])C([H])([H])[H])C([H])([H])c2c([H])c(OC3([H])C([H])([H])C([H])([H])C([H])(N([H])C([H])([H])C([H])([H])[N+]([H])([H])C([H])([H])C([H])([H])N([H])C(=O)N4C([H])([H])C([H])([H])C([H])([H])C([H])(n5nc(-c6c([H])c([H])c(Oc7c([H])c([H])c(F)c([H])c7F)c([H])c6[H])c(C(=O)N([H])[H])c5N([H])[H])C4([H])[H])C3([H])[H])c([H])c([H])c2C1([H])[H]

$$$$
19:0:0
     RDKit          3D

 97106  0  0  1  0  0  0  0  0999 V2000
  -29.1820  -20.9410   21.1310 C   0  0  0  0  0  3  0  0  0  0  0  0
  -32.4030  -21.1150   23.2450 C   0  0  0  0  0  2  0  0  0  0  0  0
  -31.7540  -20.8700   21.8800 C   0  0  0  0  0  2  0  0  0  0  0  0
  -31.2640  -20.8900   24.2520 C   0  0  0  0  0  2  0  0  0  0  0  0
  -30.3210  -21.3870   22.1060 C   0  0  0  0  0  3  0  0  0  0  0  0
  -30.0030  -21.0610   23.5080 N   0  0  0  0  0  4  0  0  0  0  0  0
  -29.4400  -21.7870   23.9250 H   0  0  0  0  0  0  0  0  0  0  0  0
  -29.4860  -20.1980   23.5440 H   0  0  0  0  0  0  0  0  0  0  0  0
  -27.8590  -23.1800   21.4270 C   0  0  0  0  0  2  0  0  0  0  0  0
  -29.3730  -22.9750   19.3830 C   0  0  0  0  0  2  0  0  0  0  0  0
  -27.2030  -24.4690   20.8450 C   0  0  0  0  0  2  0  0  0  0  0  0
  -29.3590  -24.5370   19.5130 C   0  0  0  0  0  2  0  0  0  0  0  0
  -28.4960  -22.1860   20.4030 C   0  0  0  0  0  3  0  0  0  0  0  0
  -27.9570  -25.1820   19.6780 C   0  0  0  0  0  3  0  0  0  0  0  0
  -28.0820  -26.6420   19.8020 O   0  0  0  0  0  0  0  0  0  0  0  0
  -24.5470  -31.9080   23.1290 C   0  0  0  0  0  0  0  0  0  0  0  0
  -26.9480  -27.4540   19.8110 C   0  0  0  0  0  0  0  0  0  0  0  0
  -23.2400  -30.5600   21.5270 C   0  0  0  0  0  3  0  0  0  0  0  0
  -24.5940  -29.0460   19.9810 C   0  0  0  0  0  0  0  0  0  0  0  0
  -25.7620  -30.8800   21.2020 C   0  0  0  0  0  2  0  0  0  0  0  0
  -25.7940  -29.5200   20.5230 C   0  0  0  0  0  0  0  0  0  0  0  0
  -26.9730  -28.7310   20.4400 C   0  0  0  0  0  3  0  0  0  0  0  0
  -25.7310  -27.0310   19.2330 C   0  0  0  0  0  3  0  0  0  0  0  0
  -24.5590  -27.8010   19.3360 C   0  0  0  0  0  3  0  0  0  0  0  0
  -23.3650  -29.9180   20.1210 C   0  0  0  0  0  2  0  0  0  0  0  0
  -24.5380  -31.1310   22.0080 N   0  0  0  0  0  0  0  0  0  0  0  0
  -23.4990  -32.1770   23.7330 O   0  0  0  0  0  0  0  0  0  0  0  0
  -22.6320  -29.5180   22.4950 C   0  0  0  0  0  0  0  0  0  0  0  0
  -21.3100  -29.3030   22.3920 N   0  0  0  0  0  0  0  0  0  0  0  0
  -23.3450  -28.9080   23.2950 O   0  0  0  0  0  0  0  0  0  0  0  0
  -20.7940  -29.8500   21.7170 H   0  0  0  0  0  0  0  0  0  0  0  0
  -17.9900  -27.9540   22.8780 C   0  0  0  0  0  0  0  0  0  0  0  0
  -20.5300  -28.3430   23.1730 C   0  0  0  0  0  3  0  0  0  0  0  0
  -20.7100  -26.9080   22.6250 C   0  0  0  0  0  2  0  0  0  0  0  0
  -19.6360  -26.5080   21.6100 C   0  0  0  0  0  2  0  0  0  0  0  0
  -18.2400  -26.6000   22.2340 C   0  0  0  0  0  2  0  0  0  0  0  0
  -19.0670  -28.7780   23.3030 C   0  0  0  0  0  0  0  0  0  0  0  0
  -18.7800  -30.0420   23.8630 C   0  0  0  0  0  3  0  0  0  0  0  0
  -17.4510  -30.4840   24.0050 C   0  0  0  0  0  3  0  0  0  0  0  0
  -16.3900  -29.6560   23.5980 C   0  0  0  0  0  3  0  0  0  0  0  0
  -16.6610  -28.3940   23.0410 C   0  0  0  0  0  3  0  0  0  0  0  0
  -25.8690  -32.5140   23.6920 C   0  0  0  0  0  3  0  0  0  0  0  0
  -25.5860  -33.9030   24.0840 N   0  0  0  0  0  0  0  0  0  0  0  0
  -25.9050  -34.9800   23.3530 C   0  0  0  0  0  0  0  0  0  0  0  0
  -26.5410  -34.9090   22.2990 O   0  0  0  0  0  0  0  0  0  0  0  0
  -25.0180  -34.0300   24.9070 H   0  0  0  0  0  0  0  0  0  0  0  0
  -24.1920  -36.8070   23.1140 C   0  0  0  0  0  1  0  0  0  0  0  0
  -25.4460  -36.3550   23.8760 C   0  0  0  0  0  3  0  0  0  0  0  0
  -27.6140  -37.1810   24.6850 C   0  0  0  0  0  1  0  0  0  0  0  0
  -26.4900  -37.3990   23.7780 N   0  0  0  0  0  0  0  0  0  0  0  0
  -26.1020  -38.3190   23.9670 H   0  0  0  0  0  0  0  0  0  0  0  0
  -26.4580  -31.7010   24.9090 C   0  0  1  0  0  0  0  0  0  0  0  0
  -25.4310  -31.4280   26.0320 C   0  0  0  0  0  1  0  0  0  0  0  0
  -27.0130  -30.3370   24.4370 C   0  0  0  0  0  1  0  0  0  0  0  0
  -27.6510  -32.4710   25.5260 C   0  0  0  0  0  1  0  0  0  0  0  0
  -29.5710  -19.7800   20.2810 N   0  0  0  0  0  0  0  0  0  0  0  0
  -29.0380  -19.8000   19.4150 H   0  0  0  0  0  0  0  0  0  0  0  0
  -29.4270  -18.4310   20.9010 C   0  0  0  0  0  2  0  0  0  0  0  0
  -30.3040  -17.3020   20.2350 C   0  0  0  0  0  2  0  0  0  0  0  0
  -30.7540  -14.7960   20.3690 C   0  0  0  0  0  0  0  0  0  0  0  0
  -30.5280  -12.5440   19.3700 C   0  0  0  0  0  2  0  0  0  0  0  0
  -29.6050  -12.6590   18.1380 C   0  0  0  0  0  2  0  0  0  0  0  0
  -28.1300  -12.5040   18.5530 C   0  0  0  0  0  2  0  0  0  0  0  0
  -27.7530  -13.4000   19.7630 C   0  0  0  0  0  3  0  0  0  0  0  0
  -28.7970  -13.2880   20.8990 C   0  0  0  0  0  2  0  0  0  0  0  0
  -30.1150  -13.5890   20.3260 N   0  0  0  0  0  0  0  0  0  0  0  0
  -31.9210  -14.9250   19.9910 O   0  0  0  0  0  0  0  0  0  0  0  0
  -29.9800  -15.8920   20.6150 N   0  0  0  0  0  0  0  0  0  0  0  0
  -29.0340  -15.7040   20.9070 H   0  0  0  0  0  0  0  0  0  0  0  0
  -25.3510  -14.0050   20.4490 C   0  0  0  0  0  0  0  0  0  0  0  0
  -24.2810  -13.2350   20.8180 C   0  0  0  0  0  0  0  0  0  0  0  0
  -24.7450  -11.8840   20.8060 C   0  0  0  0  0  0  0  0  0  0  0  0
  -26.3980  -13.1250   20.2360 N   0  0  0  0  0  0  0  0  0  0  0  0
  -26.0380  -11.8450   20.5120 N   0  0  0  0  0  0  0  0  0  0  0  0
  -24.0170  -10.6230   21.0000 C   0  0  0  0  0  0  0  0  0  0  0  0
  -24.4390   -9.6640   21.9470 C   0  0  0  0  0  3  0  0  0  0  0  0
  -23.7110   -8.4690   22.1280 C   0  0  0  0  0  3  0  0  0  0  0  0
  -22.5490   -8.2230   21.3600 C   0  0  0  0  0  0  0  0  0  0  0  0
  -22.1470   -9.1700   20.4010 C   0  0  0  0  0  3  0  0  0  0  0  0
  -22.8750  -10.3560   20.2190 C   0  0  0  0  0  3  0  0  0  0  0  0
  -21.7940   -7.0780   21.4490 O   0  0  0  0  0  0  0  0  0  0  0  0
  -21.7300   -6.3450   22.6080 C   0  0  0  0  0  0  0  0  0  0  0  0
  -21.2810   -6.9100   23.8210 C   0  0  0  0  0  3  0  0  0  0  0  0
  -21.1670   -6.1050   24.9720 C   0  0  0  0  0  3  0  0  0  0  0  0
  -21.4930   -4.7360   24.9090 C   0  0  0  0  0  0  0  0  0  0  0  0
  -21.9340   -4.1710   23.7010 C   0  0  0  0  0  3  0  0  0  0  0  0
  -22.0510   -4.9740   22.5510 C   0  0  0  0  0  0  0  0  0  0  0  0
  -22.4570   -4.4220   21.3830 F   0  0  0  0  0  0  0  0  0  0  0  0
  -21.3760   -3.9600   26.0120 F   0  0  0  0  0  0  0  0  0  0  0  0
  -22.8800  -13.7140   21.0710 C   0  0  0  0  0  0  0  0  0  0  0  0
  -22.1440  -13.0240   21.9350 N   0  0  0  0  0  0  0  0  0  0  0  0
  -22.4480  -14.7340   20.5360 O   0  0  0  0  0  0  0  0  0  0  0  0
  -22.5050  -12.1960   22.3850 H   0  0  0  0  0  0  0  0  0  0  0  0
  -21.2050  -13.3300   22.1520 H   0  0  0  0  0  0  0  0  0  0  0  0
  -25.5170  -15.3750   20.2590 N   0  0  0  0  0  0  0  0  0  0  0  0
  -24.7440  -16.0270   20.3390 H   0  0  0  0  0  0  0  0  0  0  0  0
  -26.3600  -15.8080   19.9050 H   0  0  0  0  0  0  0  0  0  0  0  0
  1 56  1  0
  2  4  1  0
  3  5  1  0
  3  2  1  0
  5  1  1  0
  5  6  1  0
  6  8  1  0
  6  7  1  0
  6  4  1  0
 10 12  1  0
 10 13  1  0
 11  9  1  0
 12 14  1  0
 13  1  1  0
 13  9  1  0
 14 15  1  0
 14 11  1  0
 15 17  1  0
 16 27  2  0
 17 22  1  0
 18 26  1  0
 18 28  1  0
 19 25  1  0
 19 21  1  0
 20 26  1  0
 21 20  1  0
 22 21  2  0
 23 24  1  0
 23 17  2  0
 24 19  2  0
 25 18  1  0
 26 16  1  0
 28 30  2  0
 29 28  1  0
 31 29  1  0
 32 41  2  0
 32 37  1  0
 33 29  1  0
 33 37  1  0
 34 33  1  0
 35 36  1  0
 35 34  1  0
 36 32  1  0
 37 38  2  0
 38 39  1  0
 40 39  2  0
 41 40  1  0
 42 16  1  0
 42 43  1  0
 42 52  1  0
 43 46  1  0
 44 48  1  0
 44 43  1  0
 45 44  2  0
 48 47  1  0
 50 48  1  0
 50 51  1  0
 50 49  1  0
 52 55  1  1
 52 53  1  0
 54 52  1  0
 56 58  1  0
 57 56  1  0
 59 68  1  0
 59 58  1  0
 60 68  1  0
 61 66  1  0
 62 63  1  0
 62 61  1  0
 64 63  1  0
 64 73  1  0
 64 65  1  0
 66 60  1  0
 66 65  1  0
 67 60  2  0
 68 69  1  0
 70 71  2  0
 71 90  1  0
 72 71  1  0
 72 75  1  0
 73 70  1  0
 73 74  1  0
 74 72  2  0
 75 76  1  0
 76 77  2  0
 78 81  1  0
 78 77  1  0
 79 78  2  0
 80 79  1  0
 80 75  2  0
 81 82  1  0
 82 83  1  0
 83 84  2  0
 85 84  1  0
 85 89  1  0
 86 85  2  0
 87 82  2  0
 87 86  1  0
 88 87  1  0
 90 91  1  0
 91 94  1  0
 91 93  1  0
 92 90  2  0
 95 96  1  0
 95 70  1  0
 97 95  1  0
M  ISO  4  14 101  15 101  60 100  68 100
M  END
>  <TORSDO>  (20) 
F 21

>  <SCORE>  (20) 
-13.974

>  <name>  (20) 
19

>  <ligand_id>  (20) 
19

>  <original_smiles>  (20) 
[H]c1c([H])c([H])c2c(c1[H])C([H])([H])C([H])([H])C([H])([H])C2([H])N([H])C(=O)C1([H])N(C(=O)C([H])(N([H])C(=O)C([H])(N([H])C([H])([H])[H])C([H])([H])[H])C(C([H])([H])[H])(C([H])([H])[H])C([H])([H])[H])C([H])([H])c2c([H])c(OC3([H])C([H])([H])C([H])([H])C([H])(C([H])(N([H])C([H])([H])C([H])([H])N([H])C(=O)N4C([H])([H])C([H])([H])C([H])([H])C([H])(n5nc(-c6c([H])c([H])c(Oc7c([H])c([H])c(F)c([H])c7F)c([H])c6[H])c(C(=O)N([H])[H])c5N([H])[H])C4([H])[H])C4([H])C([H])([H])C([H])([H])C([H])([H])[N+]4([H])[H])C([H])([H])C3([H])[H])c([H])c([H])c2C1([H])[H]

>  <smiles>  (20) 
[H]c1c([H])c([H])c2c(c1[H])C([H])([H])C([H])([H])C([H])([H])C2([H])N([H])C(=O)C1([H])N(C(=O)C([H])(N([H])C(=O)C([H])(N([H])C([H])([H])[H])C([H])([H])[H])C(C([H])([H])[H])(C([H])([H])[H])C([H])([H])[H])C([H])([H])c2c([H])c(OC3([H])C([H])([H])C([H])([H])C([H])(C([H])(N([H])C([H])([H])C([H])([H])N([H])C(=O)N4C([H])([H])C([H])([H])C([H])([H])C([H])(n5nc(-c6c([H])c([H])c(Oc7c([H])c([H])c(F)c([H])c7F)c([H])c6[H])c(C(=O)N([H])[H])c5N([H])[H])C4([H])[H])C4([H])C([H])([H])C([H])([H])C([H])([H])[N+]4([H])[H])C([H])([H])C3([H])[H])c([H])c([H])c2C1([H])[H]

$$$$
20:0:0
     RDKit          3D

 90 99  0  0  1  0  0  0  0  0999 V2000
  -28.3040  -22.5060   21.3470 C   0  0  0  0  0  3  0  0  0  0  0  0
  -28.4130  -21.1970   21.8910 C   0  0  0  0  0  3  0  0  0  0  0  0
  -29.2120  -21.5140   19.3710 C   0  0  0  0  0  0  0  0  0  0  0  0
  -28.6660  -22.8220   20.0180 C   0  0  0  0  0  0  0  0  0  0  0  0
  -29.3180  -20.0950   20.0060 C   0  0  0  0  0  0  0  0  0  0  0  0
  -28.8770  -20.0660   21.2810 N   0  0  0  0  0  0  0  0  0  0  0  0
  -31.1350  -21.3630   17.5870 C   0  0  0  0  0  2  0  0  0  0  0  0
  -30.5910  -22.7660   17.5000 C   0  0  0  0  0  2  0  0  0  0  0  0
  -29.6890  -21.6340   17.9470 C   0  0  0  0  0  3  0  0  0  0  0  0
  -28.2320  -24.4370   19.4190 C   0  0  0  0  0  2  0  0  0  0  0  0
  -28.2440  -25.9940   20.0230 O   0  0  0  0  0  0  0  0  0  0  0  0
  -24.6930  -31.9370   23.1310 C   0  0  0  0  0  0  0  0  0  0  0  0
  -27.2330  -27.1090   19.9480 C   0  0  0  0  0  0  0  0  0  0  0  0
  -23.4820  -30.5500   21.4990 C   0  0  0  0  0  3  0  0  0  0  0  0
  -24.9140  -28.9900   20.0050 C   0  0  0  0  0  0  0  0  0  0  0  0
  -26.0410  -30.7870   21.2980 C   0  0  0  0  0  2  0  0  0  0  0  0
  -26.1090  -29.3870   20.6120 C   0  0  0  0  0  0  0  0  0  0  0  0
  -27.2570  -28.4640   20.5670 C   0  0  0  0  0  3  0  0  0  0  0  0
  -26.0020  -26.8850   19.2860 C   0  0  0  0  0  3  0  0  0  0  0  0
  -24.8840  -27.7630   19.3240 C   0  0  0  0  0  3  0  0  0  0  0  0
  -23.6860  -29.8970   20.1050 C   0  0  0  0  0  2  0  0  0  0  0  0
  -24.7610  -31.1210   22.0290 N   0  0  0  0  0  0  0  0  0  0  0  0
  -23.6150  -32.2060   23.6830 O   0  0  0  0  0  0  0  0  0  0  0  0
  -22.8190  -29.5340   22.4650 C   0  0  0  0  0  0  0  0  0  0  0  0
  -21.4960  -29.3170   22.3370 N   0  0  0  0  0  0  0  0  0  0  0  0
  -23.5040  -28.9390   23.3010 O   0  0  0  0  0  0  0  0  0  0  0  0
  -20.9930  -29.8430   21.6350 H   0  0  0  0  0  0  0  0  0  0  0  0
  -18.1750  -27.9360   22.7990 C   0  0  0  0  0  0  0  0  0  0  0  0
  -20.7090  -28.3530   23.1110 C   0  0  0  0  0  3  0  0  0  0  0  0
  -20.9070  -26.9190   22.5700 C   0  0  0  0  0  2  0  0  0  0  0  0
  -19.8490  -26.5190   21.5380 C   0  0  0  0  0  2  0  0  0  0  0  0
  -18.4460  -26.5910   22.1500 C   0  0  0  0  0  2  0  0  0  0  0  0
  -19.2360  -28.7710   23.2380 C   0  0  0  0  0  0  0  0  0  0  0  0
  -18.9280  -30.0250   23.8100 C   0  0  0  0  0  3  0  0  0  0  0  0
  -17.5930  -30.4460   23.9480 C   0  0  0  0  0  3  0  0  0  0  0  0
  -16.5440  -29.6100   23.5260 C   0  0  0  0  0  3  0  0  0  0  0  0
  -16.8380  -28.3580   22.9570 C   0  0  0  0  0  3  0  0  0  0  0  0
  -25.9680  -32.5910   23.7450 C   0  0  0  0  0  3  0  0  0  0  0  0
  -26.5160  -31.8110   25.0050 C   0  0  1  0  0  0  0  0  0  0  0  0
  -25.4420  -31.5430   26.0840 C   0  0  0  0  0  1  0  0  0  0  0  0
  -27.1140  -30.4480   24.5930 C   0  0  0  0  0  1  0  0  0  0  0  0
  -27.6670  -32.6150   25.6590 C   0  0  0  0  0  1  0  0  0  0  0  0
  -25.6420  -33.9790   24.1140 N   0  0  0  0  0  0  0  0  0  0  0  0
  -25.9480  -35.0620   23.3840 C   0  0  0  0  0  0  0  0  0  0  0  0
  -26.5990  -34.9940   22.3390 O   0  0  0  0  0  0  0  0  0  0  0  0
  -25.0680  -34.1040   24.9350 H   0  0  0  0  0  0  0  0  0  0  0  0
  -24.2030  -36.8530   23.1120 C   0  0  0  0  0  1  0  0  0  0  0  0
  -25.4590  -36.4310   23.8920 C   0  0  0  0  0  3  0  0  0  0  0  0
  -27.5890  -37.3140   24.7350 C   0  0  0  0  0  1  0  0  0  0  0  0
  -26.4810  -37.4980   23.8010 N   0  0  0  0  0  0  0  0  0  0  0  0
  -26.0670  -38.4080   23.9790 H   0  0  0  0  0  0  0  0  0  0  0  0
  -30.0020  -18.5420   19.4850 C   0  0  0  0  0  2  0  0  0  0  0  0
  -30.5930  -15.6280   19.7850 C   0  0  0  0  0  0  0  0  0  0  0  0
  -30.5940  -13.1520   18.9650 C   0  0  0  0  0  2  0  0  0  0  0  0
  -29.6080  -12.8340   17.8080 C   0  0  0  0  0  2  0  0  0  0  0  0
  -28.2080  -12.5170   18.3590 C   0  0  0  0  0  2  0  0  0  0  0  0
  -27.7880  -13.5120   19.4670 C   0  0  0  0  0  3  0  0  0  0  0  0
  -28.8930  -13.7560   20.5180 C   0  0  0  0  0  2  0  0  0  0  0  0
  -30.0540  -14.3000   19.7940 N   0  0  0  0  0  0  0  0  0  0  0  0
  -31.7960  -15.6250   19.4840 O   0  0  0  0  0  0  0  0  0  0  0  0
  -29.8260  -16.9110   19.8960 N   0  0  0  0  0  0  0  0  0  0  0  0
  -28.8740  -16.7370   20.1820 H   0  0  0  0  0  0  0  0  0  0  0  0
  -25.4710  -14.0300   20.3930 C   0  0  0  0  0  0  0  0  0  0  0  0
  -24.4370  -13.2350   20.8010 C   0  0  0  0  0  0  0  0  0  0  0  0
  -24.9070  -11.8900   20.6980 C   0  0  0  0  0  0  0  0  0  0  0  0
  -26.5010  -13.1700   20.0590 N   0  0  0  0  0  0  0  0  0  0  0  0
  -26.1770  -11.8740   20.3060 N   0  0  0  0  0  0  0  0  0  0  0  0
  -24.1980  -10.6170   20.8880 C   0  0  0  0  0  0  0  0  0  0  0  0
  -24.6120   -9.6780   21.8570 C   0  0  0  0  0  3  0  0  0  0  0  0
  -23.9000   -8.4730   22.0350 C   0  0  0  0  0  3  0  0  0  0  0  0
  -22.7580   -8.1990   21.2460 C   0  0  0  0  0  0  0  0  0  0  0  0
  -22.3650   -9.1260   20.2660 C   0  0  0  0  0  3  0  0  0  0  0  0
  -23.0780  -10.3240   20.0860 C   0  0  0  0  0  3  0  0  0  0  0  0
  -22.0200   -7.0430   21.3320 O   0  0  0  0  0  0  0  0  0  0  0  0
  -21.8430   -6.3910   22.5250 C   0  0  0  0  0  0  0  0  0  0  0  0
  -21.2130   -7.0090   23.6280 C   0  0  0  0  0  3  0  0  0  0  0  0
  -20.9880   -6.2780   24.8110 C   0  0  0  0  0  3  0  0  0  0  0  0
  -21.3830   -4.9300   24.8920 C   0  0  0  0  0  0  0  0  0  0  0  0
  -22.0080   -4.3110   23.7950 C   0  0  0  0  0  3  0  0  0  0  0  0
  -22.2320   -5.0390   22.6140 C   0  0  0  0  0  0  0  0  0  0  0  0
  -22.8130   -4.4310   21.5520 F   0  0  0  0  0  0  0  0  0  0  0  0
  -21.1610   -4.2240   26.0270 F   0  0  0  0  0  0  0  0  0  0  0  0
  -23.0560  -13.6960   21.1660 C   0  0  0  0  0  0  0  0  0  0  0  0
  -22.3890  -12.9760   22.0590 N   0  0  0  0  0  0  0  0  0  0  0  0
  -22.5820  -14.7310   20.6960 O   0  0  0  0  0  0  0  0  0  0  0  0
  -22.7900  -12.1380   22.4570 H   0  0  0  0  0  0  0  0  0  0  0  0
  -21.4660  -13.2640   22.3490 H   0  0  0  0  0  0  0  0  0  0  0  0
  -25.6150  -15.4070   20.2480 N   0  0  0  0  0  0  0  0  0  0  0  0
  -24.8480  -16.0460   20.4260 H   0  0  0  0  0  0  0  0  0  0  0  0
  -26.4230  -15.8600   19.8430 H   0  0  0  0  0  0  0  0  0  0  0  0
  1  2  1  0
  3  5  2  0
  3  4  1  0
  4  1  2  0
  5  6  1  0
  6  2  2  0
  7  9  1  0
  8  7  1  0
  8  9  1  0
  9  3  1  0
 10  4  1  0
 10 11  1  0
 12 23  2  0
 13 11  1  0
 13 18  1  0
 14 22  1  0
 14 24  1  0
 15 21  1  0
 15 17  1  0
 16 22  1  0
 17 16  1  0
 18 17  2  0
 19 20  1  0
 19 13  2  0
 20 15  2  0
 21 14  1  0
 22 12  1  0
 24 26  2  0
 25 24  1  0
 27 25  1  0
 28 37  2  0
 28 33  1  0
 29 25  1  0
 29 33  1  0
 30 29  1  0
 31 32  1  0
 31 30  1  0
 32 28  1  0
 33 34  2  0
 34 35  1  0
 36 35  2  0
 37 36  1  0
 38 12  1  0
 38 43  1  0
 38 39  1  0
 39 42  1  1
 39 40  1  0
 41 39  1  0
 43 46  1  0
 44 48  1  0
 44 43  1  0
 45 44  2  0
 48 47  1  0
 50 48  1  0
 50 51  1  0
 50 49  1  0
 52 61  1  0
 52  5  1  0
 53 59  1  0
 53 61  1  0
 54 59  1  0
 55 56  1  0
 55 54  1  0
 57 56  1  0
 57 66  1  0
 57 58  1  0
 59 58  1  0
 60 53  2  0
 61 62  1  0
 63 64  2  0
 64 83  1  0
 65 64  1  0
 65 68  1  0
 66 67  1  0
 66 63  1  0
 67 65  2  0
 68 69  1  0
 69 70  2  0
 71 74  1  0
 71 70  1  0
 72 71  2  0
 73 72  1  0
 73 68  2  0
 74 75  1  0
 75 80  2  0
 75 76  1  0
 76 77  2  0
 77 78  1  0
 78 82  1  0
 79 78  2  0
 80 79  1  0
 81 80  1  0
 83 84  1  0
 84 87  1  0
 84 86  1  0
 85 83  2  0
 88 63  1  0
 88 89  1  0
 90 88  1  0
M  ISO  4  10 101  11 101  53 100  61 100
M  END
>  <TORSDO>  (21) 
F 19

>  <SCORE>  (21) 
-15.070

>  <name>  (21) 
20

>  <ligand_id>  (21) 
20

>  <original_smiles>  (21) 
[H]c1nc(C([H])([H])N([H])C(=O)N2C([H])([H])C([H])([H])C([H])([H])C([H])(n3nc(-c4c([H])c([H])c(Oc5c([H])c([H])c(F)c([H])c5F)c([H])c4[H])c(C(=O)N([H])[H])c3N([H])[H])C2([H])[H])c(C2([H])C([H])([H])C2([H])[H])c(C([H])([H])Oc2c([H])c([H])c3c(c2[H])C([H])([H])N(C(=O)C([H])(N([H])C(=O)C([H])(N([H])C([H])([H])[H])C([H])([H])[H])C(C([H])([H])[H])(C([H])([H])[H])C([H])([H])[H])C([H])(C(=O)N([H])C2([H])c4c([H])c([H])c([H])c([H])c4C([H])([H])C([H])([H])C2([H])[H])C3([H])[H])c1[H]

>  <smiles>  (21) 
[H]c1nc(C([H])([H])N([H])C(=O)N2C([H])([H])C([H])([H])C([H])([H])C([H])(n3nc(-c4c([H])c([H])c(Oc5c([H])c([H])c(F)c([H])c5F)c([H])c4[H])c(C(=O)N([H])[H])c3N([H])[H])C2([H])[H])c(C2([H])C([H])([H])C2([H])[H])c(C([H])([H])Oc2c([H])c([H])c3c(c2[H])C([H])([H])N(C(=O)C([H])(N([H])C(=O)C([H])(N([H])C([H])([H])[H])C([H])([H])[H])C(C([H])([H])[H])(C([H])([H])[H])C([H])([H])[H])C([H])(C(=O)N([H])C2([H])c4c([H])c([H])c([H])c([H])c4C([H])([H])C([H])([H])C2([H])[H])C3([H])[H])c1[H]

$$$$
21:0:0
     RDKit          3D

103112  0  0  1  0  0  0  0  0999 V2000
  -29.2820  -26.7910   20.4530 C   0  0  0  0  0  3  0  0  0  0  0  0
  -29.5670  -25.4400   20.0680 C   0  0  0  0  0  3  0  0  0  0  0  0
  -27.2260  -24.9770   19.8250 C   0  0  0  0  0  3  0  0  0  0  0  0
  -27.9530  -27.2750   20.5140 C   0  0  0  0  0  0  0  0  0  0  0  0
  -26.9340  -26.3320   20.1530 C   0  0  0  0  0  0  0  0  0  0  0  0
  -28.5520  -24.4910   19.7490 C   0  0  0  0  0  0  0  0  0  0  0  0
  -25.4690  -26.7410   20.0240 C   0  0  0  0  0  2  0  0  0  0  0  0
  -25.1740  -28.1490   20.5350 C   0  0  0  0  0  2  0  0  0  0  0  0
  -24.4720  -28.0510   21.8190 N   0  0  0  0  0  0  0  0  0  0  0  0
  -24.6830  -28.8550   22.4130 H   0  0  0  0  0  0  0  0  0  0  0  0
  -23.9430  -25.5730   24.6420 C   0  0  0  0  0  2  0  0  0  0  0  0
  -23.5060  -24.4000   23.7390 C   0  0  0  0  0  2  0  0  0  0  0  0
  -24.2880  -25.5980   21.7310 C   0  0  0  0  0  2  0  0  0  0  0  0
  -24.6930  -26.8270   22.5820 C   0  0  0  0  0  3  0  0  0  0  0  0
  -23.8590  -26.9030   23.8800 C   0  0  0  0  0  3  0  0  0  0  0  0
  -24.3110  -24.3450   22.5010 N   0  0  0  0  0  4  0  0  0  0  0  0
  -23.9570  -23.6120   21.9060 H   0  0  0  0  0  0  0  0  0  0  0  0
  -25.2660  -24.1190   22.7220 H   0  0  0  0  0  0  0  0  0  0  0  0
  -24.3480  -27.9700   24.6750 O   0  0  0  0  0  0  0  0  0  0  0  0
  -25.3010  -27.9300   24.6770 H   0  0  0  0  0  0  0  0  0  0  0  0
  -27.5250  -28.7580   20.8320 C   0  0  0  0  0  2  0  0  0  0  0  0
  -28.3540  -29.8940   21.3300 O   0  0  0  0  0  0  0  0  0  0  0  0
  -28.9840  -32.2560   28.1320 C   0  0  0  0  0  0  0  0  0  0  0  0
  -27.7500  -30.5380   22.4360 C   0  0  0  0  0  0  0  0  0  0  0  0
  -26.7170  -31.7110   27.3410 C   0  0  0  0  0  3  0  0  0  0  0  0
  -26.4470  -31.4680   24.8190 C   0  0  0  0  0  0  0  0  0  0  0  0
  -28.4970  -32.5610   25.6910 C   0  0  0  0  0  2  0  0  0  0  0  0
  -27.7940  -31.7700   24.5970 C   0  0  0  0  0  0  0  0  0  0  0  0
  -28.4500  -31.3210   23.4090 C   0  0  0  0  0  3  0  0  0  0  0  0
  -26.3650  -30.3320   22.6860 C   0  0  0  0  0  3  0  0  0  0  0  0
  -25.7300  -30.7560   23.8570 C   0  0  0  0  0  3  0  0  0  0  0  0
  -25.8040  -31.9280   26.1110 C   0  0  0  0  0  2  0  0  0  0  0  0
  -28.1190  -32.1660   27.0780 N   0  0  0  0  0  0  0  0  0  0  0  0
  -28.6180  -32.0010   29.2880 O   0  0  0  0  0  0  0  0  0  0  0  0
  -26.6230  -30.2310   27.7870 C   0  0  0  0  0  0  0  0  0  0  0  0
  -25.5760  -29.8980   28.5560 N   0  0  0  0  0  0  0  0  0  0  0  0
  -27.4700  -29.4040   27.4300 O   0  0  0  0  0  0  0  0  0  0  0  0
  -24.9340  -30.6320   28.8210 H   0  0  0  0  0  0  0  0  0  0  0  0
  -23.4040  -28.0510   30.7900 C   0  0  0  0  0  0  0  0  0  0  0  0
  -25.2650  -28.5610   29.0670 C   0  0  0  0  0  3  0  0  0  0  0  0
  -24.4090  -27.7600   28.0620 C   0  0  0  0  0  2  0  0  0  0  0  0
  -22.9040  -27.8810   28.3160 C   0  0  0  0  0  2  0  0  0  0  0  0
  -22.5510  -27.3860   29.7220 C   0  0  0  0  0  2  0  0  0  0  0  0
  -24.6690  -28.6170   30.4790 C   0  0  0  0  0  0  0  0  0  0  0  0
  -25.4020  -29.2530   31.5050 C   0  0  0  0  0  3  0  0  0  0  0  0
  -24.8980  -29.3200   32.8190 C   0  0  0  0  0  3  0  0  0  0  0  0
  -23.6530  -28.7430   33.1220 C   0  0  0  0  0  3  0  0  0  0  0  0
  -22.9090  -28.1100   32.1090 C   0  0  0  0  0  3  0  0  0  0  0  0
  -30.4620  -32.7140   27.9340 C   0  0  0  0  0  3  0  0  0  0  0  0
  -31.5060  -31.5720   28.2290 C   0  0  1  0  0  0  0  0  0  0  0  0
  -31.2940  -30.8760   29.5940 C   0  0  0  0  0  1  0  0  0  0  0  0
  -31.4570  -30.4870   27.1260 C   0  0  0  0  0  1  0  0  0  0  0  0
  -32.9380  -32.1570   28.2140 C   0  0  0  0  0  1  0  0  0  0  0  0
  -30.6860  -33.8620   28.8210 N   0  0  0  0  0  0  0  0  0  0  0  0
  -30.6540  -35.1460   28.4370 C   0  0  0  0  0  0  0  0  0  0  0  0
  -30.5030  -35.4900   27.2620 O   0  0  0  0  0  0  0  0  0  0  0  0
  -30.7700  -33.6600   29.8050 H   0  0  0  0  0  0  0  0  0  0  0  0
  -29.4610  -36.8200   29.8920 C   0  0  0  0  0  1  0  0  0  0  0  0
  -30.8260  -36.2160   29.5340 C   0  0  0  0  0  3  0  0  0  0  0  0
  -33.1570  -36.8650   29.1050 C   0  0  0  0  0  1  0  0  0  0  0  0
  -31.7630  -37.2960   29.1580 N   0  0  0  0  0  0  0  0  0  0  0  0
  -31.6990  -38.0690   29.8140 H   0  0  0  0  0  0  0  0  0  0  0  0
  -28.8930  -23.1730   19.3790 O   0  0  0  0  0  0  0  0  0  0  0  0
  -28.1900  -22.4100   18.3370 C   0  0  0  0  0  2  0  0  0  0  0  0
  -28.9270  -21.0430   17.9750 C   0  0  0  0  0  2  0  0  0  0  0  0
  -30.0630  -19.6350   16.1810 C   0  0  0  0  0  0  0  0  0  0  0  0
  -31.9290  -18.5550   14.9330 C   0  0  0  0  0  2  0  0  0  0  0  0
  -33.2730  -19.1290   15.4270 C   0  0  0  0  0  2  0  0  0  0  0  0
  -33.6410  -20.3900   14.6240 C   0  0  0  0  0  2  0  0  0  0  0  0
  -32.4600  -21.3900   14.5140 C   0  0  0  0  0  3  0  0  0  0  0  0
  -31.1320  -20.6930   14.1290 C   0  0  0  0  0  2  0  0  0  0  0  0
  -30.8990  -19.6080   15.0910 N   0  0  0  0  0  0  0  0  0  0  0  0
  -29.9030  -18.6270   16.8700 O   0  0  0  0  0  0  0  0  0  0  0  0
  -29.5500  -20.8320   16.6120 N   0  0  0  0  0  0  0  0  0  0  0  0
  -29.6330  -21.6270   15.9940 H   0  0  0  0  0  0  0  0  0  0  0  0
  -32.9110  -23.8400   13.9070 C   0  0  0  0  0  0  0  0  0  0  0  0
  -33.3040  -24.4380   12.7400 C   0  0  0  0  0  0  0  0  0  0  0  0
  -33.4070  -23.3940   11.7730 C   0  0  0  0  0  0  0  0  0  0  0  0
  -32.7860  -22.4930   13.6150 N   0  0  0  0  0  0  0  0  0  0  0  0
  -33.0340  -22.2360   12.3040 N   0  0  0  0  0  0  0  0  0  0  0  0
  -33.8940  -23.4210   10.3840 C   0  0  0  0  0  0  0  0  0  0  0  0
  -33.0040  -23.4310    9.2880 C   0  0  0  0  0  3  0  0  0  0  0  0
  -33.4960  -23.4800    7.9660 C   0  0  0  0  0  3  0  0  0  0  0  0
  -34.8920  -23.5210    7.7310 C   0  0  0  0  0  0  0  0  0  0  0  0
  -35.7730  -23.4900    8.8230 C   0  0  0  0  0  3  0  0  0  0  0  0
  -35.2820  -23.4350   10.1380 C   0  0  0  0  0  3  0  0  0  0  0  0
  -35.4600  -23.5440    6.4810 O   0  0  0  0  0  0  0  0  0  0  0  0
  -35.1190  -24.4920    5.5490 C   0  0  0  0  0  0  0  0  0  0  0  0
  -35.3720  -25.8650    5.7600 C   0  0  0  0  0  3  0  0  0  0  0  0
  -35.0670  -26.7990    4.7510 C   0  0  0  0  0  3  0  0  0  0  0  0
  -34.5230  -26.3630    3.5270 C   0  0  0  0  0  0  0  0  0  0  0  0
  -34.2760  -24.9960    3.3130 C   0  0  0  0  0  3  0  0  0  0  0  0
  -34.5780  -24.0630    4.3210 C   0  0  0  0  0  0  0  0  0  0  0  0
  -34.3590  -22.7440    4.1020 F   0  0  0  0  0  0  0  0  0  0  0  0
  -34.2380  -27.2590    2.5540 F   0  0  0  0  0  0  0  0  0  0  0  0
  -33.6520  -25.8870   12.5560 C   0  0  0  0  0  0  0  0  0  0  0  0
  -33.4110  -26.4220   11.3630 N   0  0  0  0  0  0  0  0  0  0  0  0
  -34.0920  -26.5650   13.4820 O   0  0  0  0  0  0  0  0  0  0  0  0
  -33.0330  -25.8620   10.6120 H   0  0  0  0  0  0  0  0  0  0  0  0
  -33.6040  -27.4000   11.1960 H   0  0  0  0  0  0  0  0  0  0  0  0
  -32.6660  -24.3230   15.1870 N   0  0  0  0  0  0  0  0  0  0  0  0
  -32.8490  -25.2890   15.4390 H   0  0  0  0  0  0  0  0  0  0  0  0
  -32.4020  -23.7480   15.9790 H   0  0  0  0  0  0  0  0  0  0  0  0
  1  4  1  0
  2  1  2  0
  3  5  1  0
  4 21  1  0
  5  4  2  0
  6  3  2  0
  6  2  1  0
  7  5  1  0
  7  8  1  0
  8  9  1  0
  9 10  1  0
 12 11  1  0
 13 16  1  0
 13 14  1  0
 14  9  1  0
 14 15  1  0
 15 11  1  0
 15 19  1  0
 16 18  1  0
 16 12  1  0
 17 16  1  0
 19 20  1  0
 21 22  1  0
 22 24  1  0
 23 34  2  0
 24 30  2  0
 24 29  1  0
 25 35  1  0
 26 32  1  0
 27 33  1  0
 28 26  1  0
 28 27  1  0
 29 28  2  0
 30 31  1  0
 31 26  2  0
 32 25  1  0
 33 25  1  0
 33 23  1  0
 35 36  1  0
 36 38  1  0
 37 35  2  0
 39 48  1  0
 40 36  1  0
 40 44  1  0
 41 42  1  0
 41 40  1  0
 42 43  1  0
 43 39  1  0
 44 39  2  0
 44 45  1  0
 45 46  2  0
 46 47  1  0
 48 47  2  0
 49 23  1  0
 49 50  1  0
 49 54  1  0
 50 51  1  1
 52 50  1  0
 53 50  1  0
 54 57  1  0
 55 54  1  0
 55 59  1  0
 56 55  2  0
 59 58  1  0
 60 61  1  0
 61 59  1  0
 61 62  1  0
 63  6  1  0
 64 63  1  0
 65 64  1  0
 66 74  1  0
 66 73  2  0
 67 72  1  0
 67 68  1  0
 69 68  1  0
 70 79  1  0
 70 69  1  0
 71 70  1  0
 71 72  1  0
 72 66  1  0
 74 65  1  0
 75 74  1  0
 76101  1  0
 77 76  2  0
 78 80  2  0
 78 77  1  0
 79 76  1  0
 80 79  1  0
 81 78  1  0
 82 81  2  0
 83 82  1  0
 84 83  2  0
 84 85  1  0
 85 86  2  0
 86 81  1  0
 87 84  1  0
 88 89  1  0
 88 87  1  0
 90 89  2  0
 91 90  1  0
 92 91  2  0
 92 93  1  0
 93 88  2  0
 94 93  1  0
 95 91  1  0
 96 77  1  0
 96 98  2  0
 97 96  1  0
 99 97  1  0
100 97  1  0
101102  1  0
101103  1  0
M  ISO  4  21 101  22 101  66 100  74 100
M  END
>  <TORSDO>  (22) 
F 25

>  <SCORE>  (22) 
-0.835

>  <name>  (22) 
21

>  <ligand_id>  (22) 
21

>  <original_smiles>  (22) 
[H]OC1([H])C([H])([H])C([H])([H])[N+]([H])([H])C([H])([H])C1([H])N([H])C([H])([H])C([H])([H])c1c([H])c(OC([H])([H])C([H])([H])N([H])C(=O)N2C([H])([H])C([H])([H])C([H])([H])C([H])(n3nc(-c4c([H])c([H])c(Oc5c([H])c([H])c(F)c([H])c5F)c([H])c4[H])c(C(=O)N([H])[H])c3N([H])[H])C2([H])[H])c([H])c([H])c1C([H])([H])Oc1c([H])c([H])c2c(c1[H])C([H])([H])N(C(=O)C([H])(N([H])C(=O)C([H])(N([H])C([H])([H])[H])C([H])([H])[H])C(C([H])([H])[H])(C([H])([H])[H])C([H])([H])[H])C([H])(C(=O)N([H])C1([H])c3c([H])c([H])c([H])c([H])c3C([H])([H])C([H])([H])C1([H])[H])C2([H])[H]

>  <smiles>  (22) 
[H]OC1([H])C([H])([H])C([H])([H])[N+]([H])([H])C([H])([H])C1([H])N([H])C([H])([H])C([H])([H])c1c([H])c(OC([H])([H])C([H])([H])N([H])C(=O)N2C([H])([H])C([H])([H])C([H])([H])C([H])(n3nc(-c4c([H])c([H])c(Oc5c([H])c([H])c(F)c([H])c5F)c([H])c4[H])c(C(=O)N([H])[H])c3N([H])[H])C2([H])[H])c([H])c([H])c1C([H])([H])Oc1c([H])c([H])c2c(c1[H])C([H])([H])N(C(=O)C([H])(N([H])C(=O)C([H])(N([H])C([H])([H])[H])C([H])([H])[H])C(C([H])([H])[H])(C([H])([H])[H])C([H])([H])[H])C([H])(C(=O)N([H])C1([H])c3c([H])c([H])c([H])c([H])c3C([H])([H])C([H])([H])C1([H])[H])C2([H])[H]

$$$$
22:0:0
     RDKit          3D

 96105  0  0  1  0  0  0  0  0999 V2000
  -27.7550  -23.3980   19.5530 C   0  0  0  0  0  3  0  0  0  0  0  0
  -29.8760  -23.1800   20.6580 C   0  0  0  0  0  3  0  0  0  0  0  0
  -27.7640  -21.9970   19.3750 C   0  0  0  0  0  0  0  0  0  0  0  0
  -28.8760  -24.0220   20.1290 C   0  0  0  0  0  0  0  0  0  0  0  0
  -28.8900  -21.2450   19.7930 C   0  0  0  0  0  0  0  0  0  0  0  0
  -26.6430  -21.3720   18.5590 C   0  0  0  0  0  2  0  0  0  0  0  0
  -26.8050  -18.9440   19.0500 C   0  0  0  0  0  2  0  0  0  0  0  0
  -28.1600  -18.8520   19.7910 C   0  0  0  0  0  3  0  0  0  0  0  0
  -29.8870  -21.8300   20.4840 N   0  0  0  0  0  0  0  0  0  0  0  0
  -29.1100  -19.9030   19.4080 N   0  0  0  0  0  0  0  0  0  0  0  0
  -26.0700  -20.1960   19.2100 N   0  0  0  0  0  4  0  0  0  0  0  0
  -30.0730  -19.5960   19.4520 H   0  0  0  0  0  0  0  0  0  0  0  0
  -25.2040  -20.0190   18.7250 H   0  0  0  0  0  0  0  0  0  0  0  0
  -25.8750  -20.4070   20.1670 H   0  0  0  0  0  0  0  0  0  0  0  0
  -29.1900  -25.5170   19.8790 C   0  0  0  0  0  2  0  0  0  0  0  0
  -28.7310  -26.5400   20.7880 O   0  0  0  0  0  0  0  0  0  0  0  0
  -24.4900  -31.6490   23.2490 C   0  0  0  0  0  0  0  0  0  0  0  0
  -27.5540  -27.2370   20.5470 C   0  0  0  0  0  0  0  0  0  0  0  0
  -23.4910  -30.1720   21.5350 C   0  0  0  0  0  3  0  0  0  0  0  0
  -25.1270  -28.6870   20.2660 C   0  0  0  0  0  0  0  0  0  0  0  0
  -26.0110  -30.6320   21.5570 C   0  0  0  0  0  2  0  0  0  0  0  0
  -26.2030  -29.2560   20.9570 C   0  0  0  0  0  0  0  0  0  0  0  0
  -27.4150  -28.5460   21.0920 C   0  0  0  0  0  3  0  0  0  0  0  0
  -26.4600  -26.6960   19.8280 C   0  0  0  0  0  3  0  0  0  0  0  0
  -25.2560  -27.4130   19.6990 C   0  0  0  0  0  3  0  0  0  0  0  0
  -23.8520  -29.4930   20.1860 C   0  0  0  0  0  2  0  0  0  0  0  0
  -24.6790  -30.8440   22.1720 N   0  0  0  0  0  0  0  0  0  0  0  0
  -23.3580  -31.8830   23.6830 O   0  0  0  0  0  0  0  0  0  0  0  0
  -22.8090  -29.1260   22.4510 C   0  0  0  0  0  0  0  0  0  0  0  0
  -21.4910  -28.9170   22.2710 N   0  0  0  0  0  0  0  0  0  0  0  0
  -23.4710  -28.5020   23.2800 O   0  0  0  0  0  0  0  0  0  0  0  0
  -21.0180  -29.5010   21.6000 H   0  0  0  0  0  0  0  0  0  0  0  0
  -18.0580  -27.8260   22.6050 C   0  0  0  0  0  0  0  0  0  0  0  0
  -20.6320  -27.9340   22.9410 C   0  0  0  0  0  3  0  0  0  0  0  0
  -20.6840  -26.5710   22.2300 C   0  0  0  0  0  2  0  0  0  0  0  0
  -19.5770  -26.3930   21.1890 C   0  0  0  0  0  2  0  0  0  0  0  0
  -18.1950  -26.5140   21.8510 C   0  0  0  0  0  2  0  0  0  0  0  0
  -19.2090  -28.4970   23.1020 C   0  0  0  0  0  0  0  0  0  0  0  0
  -19.0480  -29.7430   23.7460 C   0  0  0  0  0  3  0  0  0  0  0  0
  -17.7730  -30.3160   23.9020 C   0  0  0  0  0  3  0  0  0  0  0  0
  -16.6360  -29.6430   23.4200 C   0  0  0  0  0  3  0  0  0  0  0  0
  -16.7770  -28.4020   22.7760 C   0  0  0  0  0  3  0  0  0  0  0  0
  -25.6960  -32.3390   23.9670 C   0  0  0  0  0  3  0  0  0  0  0  0
  -26.1090  -31.6230   25.3100 C   0  0  1  0  0  0  0  0  0  0  0  0
  -24.9170  -31.3630   26.2580 C   0  0  0  0  0  1  0  0  0  0  0  0
  -26.8000  -30.2700   25.0220 C   0  0  0  0  0  1  0  0  0  0  0  0
  -27.1440  -32.4870   26.0650 C   0  0  0  0  0  1  0  0  0  0  0  0
  -25.3140  -33.7290   24.2130 N   0  0  0  0  0  0  0  0  0  0  0  0
  -25.6840  -34.7740   23.4570 C   0  0  0  0  0  0  0  0  0  0  0  0
  -26.4470  -34.6560   22.4910 O   0  0  0  0  0  0  0  0  0  0  0  0
  -24.6430  -33.8850   24.9460 H   0  0  0  0  0  0  0  0  0  0  0  0
  -23.9400  -36.4990   22.9040 C   0  0  0  0  0  1  0  0  0  0  0  0
  -25.1220  -36.1580   23.8250 C   0  0  0  0  0  3  0  0  0  0  0  0
  -27.1430  -37.1440   24.8110 C   0  0  0  0  0  1  0  0  0  0  0  0
  -26.1270  -37.2400   23.7670 N   0  0  0  0  0  0  0  0  0  0  0  0
  -25.6790  -38.1500   23.8380 H   0  0  0  0  0  0  0  0  0  0  0  0
  -28.5840  -17.3780   19.4890 C   0  0  0  0  0  2  0  0  0  0  0  0
  -30.0130  -16.8140   19.2830 C   0  0  0  0  0  2  0  0  0  0  0  0
  -30.7980  -14.3920   19.4470 C   0  0  0  0  0  0  0  0  0  0  0  0
  -30.6210  -11.9940   18.8830 C   0  0  0  0  0  2  0  0  0  0  0  0
  -29.5830  -11.9050   17.7480 C   0  0  0  0  0  2  0  0  0  0  0  0
  -28.1470  -11.8310   18.3250 C   0  0  0  0  0  2  0  0  0  0  0  0
  -27.8500  -12.9150   19.3990 C   0  0  0  0  0  3  0  0  0  0  0  0
  -29.0040  -12.9740   20.4310 C   0  0  0  0  0  2  0  0  0  0  0  0
  -30.2610  -13.1700   19.6900 N   0  0  0  0  0  0  0  0  0  0  0  0
  -31.9330  -14.6030   19.0140 O   0  0  0  0  0  0  0  0  0  0  0  0
  -29.8650  -15.3510   19.4780 N   0  0  0  0  0  0  0  0  0  0  0  0
  -28.9690  -14.9900   19.7820 H   0  0  0  0  0  0  0  0  0  0  0  0
  -25.6140  -13.6500   20.4510 C   0  0  0  0  0  0  0  0  0  0  0  0
  -24.5320  -12.9280   20.8910 C   0  0  0  0  0  0  0  0  0  0  0  0
  -24.8810  -11.5560   20.7120 C   0  0  0  0  0  0  0  0  0  0  0  0
  -26.5470  -12.7100   20.0290 N   0  0  0  0  0  0  0  0  0  0  0  0
  -26.1170  -11.4450   20.2450 N   0  0  0  0  0  0  0  0  0  0  0  0
  -24.0830  -10.3380   20.9050 C   0  0  0  0  0  0  0  0  0  0  0  0
  -24.4740   -9.3370   21.8210 C   0  0  0  0  0  3  0  0  0  0  0  0
  -23.6830   -8.1800   22.0000 C   0  0  0  0  0  3  0  0  0  0  0  0
  -22.4900   -8.0160   21.2590 C   0  0  0  0  0  0  0  0  0  0  0  0
  -22.1150   -9.0060   20.3320 C   0  0  0  0  0  3  0  0  0  0  0  0
  -22.9060  -10.1550   20.1530 C   0  0  0  0  0  3  0  0  0  0  0  0
  -21.6680   -6.9180   21.3520 O   0  0  0  0  0  0  0  0  0  0  0  0
  -21.4790   -6.2600   22.5400 C   0  0  0  0  0  0  0  0  0  0  0  0
  -20.9480   -6.9120   23.6740 C   0  0  0  0  0  3  0  0  0  0  0  0
  -20.6990   -6.1830   24.8520 C   0  0  0  0  0  3  0  0  0  0  0  0
  -20.9720   -4.8030   24.8990 C   0  0  0  0  0  0  0  0  0  0  0  0
  -21.4960   -4.1510   23.7710 C   0  0  0  0  0  3  0  0  0  0  0  0
  -21.7460   -4.8760   22.5930 C   0  0  0  0  0  0  0  0  0  0  0  0
  -22.2310   -4.2390   21.4990 F   0  0  0  0  0  0  0  0  0  0  0  0
  -20.7260   -4.0990   26.0310 F   0  0  0  0  0  0  0  0  0  0  0  0
  -23.2180  -13.4860   21.3580 C   0  0  0  0  0  0  0  0  0  0  0  0
  -22.5510  -12.7790   22.2640 N   0  0  0  0  0  0  0  0  0  0  0  0
  -22.7940  -14.5670   20.9570 O   0  0  0  0  0  0  0  0  0  0  0  0
  -22.9160  -11.9050   22.6060 H   0  0  0  0  0  0  0  0  0  0  0  0
  -21.6730  -13.1170   22.6250 H   0  0  0  0  0  0  0  0  0  0  0  0
  -25.8700  -15.0120   20.3580 N   0  0  0  0  0  0  0  0  0  0  0  0
  -25.1500  -15.7020   20.5550 H   0  0  0  0  0  0  0  0  0  0  0  0
  -26.6750  -15.3970   19.8820 H   0  0  0  0  0  0  0  0  0  0  0  0
  1  4  1  0
  3  1  2  0
  3  5  1  0
  4  2  2  0
  5  9  2  0
  6 11  1  0
  6  3  1  0
  7 11  1  0
  7  8  1  0
  8 57  1  0
  9  2  1  0
 10 12  1  0
 10  8  1  0
 10  5  1  0
 11 14  1  0
 13 11  1  0
 15  4  1  0
 15 16  1  0
 17 28  2  0
 18 16  1  0
 18 23  1  0
 19 27  1  0
 19 29  1  0
 20 22  1  0
 21 27  1  0
 22 23  2  0
 22 21  1  0
 24 18  2  0
 25 24  1  0
 25 20  2  0
 26 20  1  0
 26 19  1  0
 27 17  1  0
 29 31  2  0
 30 29  1  0
 32 30  1  0
 33 42  2  0
 33 38  1  0
 34 30  1  0
 34 38  1  0
 35 34  1  0
 36 37  1  0
 36 35  1  0
 37 33  1  0
 38 39  2  0
 39 40  1  0
 41 40  2  0
 42 41  1  0
 43 17  1  0
 43 48  1  0
 43 44  1  0
 44 47  1  1
 44 45  1  0
 46 44  1  0
 48 51  1  0
 49 53  1  0
 49 48  1  0
 50 49  2  0
 53 52  1  0
 55 53  1  0
 55 56  1  0
 55 54  1  0
 58 67  1  0
 58 57  1  0
 59 67  1  0
 59 65  1  0
 60 65  1  0
 61 62  1  0
 61 60  1  0
 63 62  1  0
 63 72  1  0
 63 64  1  0
 65 64  1  0
 66 59  2  0
 67 68  1  0
 69 70  2  0
 70 89  1  0
 71 70  1  0
 71 74  1  0
 72 73  1  0
 72 69  1  0
 73 71  2  0
 74 75  1  0
 75 76  2  0
 77 80  1  0
 77 76  1  0
 78 77  2  0
 79 78  1  0
 79 74  2  0
 80 81  1  0
 81 86  2  0
 81 82  1  0
 82 83  2  0
 83 84  1  0
 84 88  1  0
 85 84  2  0
 86 85  1  0
 87 86  1  0
 89 90  1  0
 90 92  1  0
 90 93  1  0
 91 89  2  0
 94 69  1  0
 94 95  1  0
 96 94  1  0
M  ISO  4  15 101  16 101  59 100  67 100
M  END
>  <TORSDO>  (23) 
F 19

>  <SCORE>  (23) 
-13.041

>  <name>  (23) 
22

>  <ligand_id>  (23) 
22

>  <original_smiles>  (23) 
[H]c1nc2c(c([H])c1C([H])([H])Oc1c([H])c([H])c3c(c1[H])C([H])([H])N(C(=O)C([H])(N([H])C(=O)C([H])(N([H])C([H])([H])[H])C([H])([H])[H])C(C([H])([H])[H])(C([H])([H])[H])C([H])([H])[H])C([H])(C(=O)N([H])C1([H])c4c([H])c([H])c([H])c([H])c4C([H])([H])C([H])([H])C1([H])[H])C3([H])[H])C([H])([H])[N+]([H])([H])C([H])([H])C([H])(C([H])([H])C([H])([H])N([H])C(=O)N1C([H])([H])C([H])([H])C([H])([H])C([H])(n3nc(-c4c([H])c([H])c(Oc5c([H])c([H])c(F)c([H])c5F)c([H])c4[H])c(C(=O)N([H])[H])c3N([H])[H])C1([H])[H])N2[H]

>  <smiles>  (23) 
[H]c1nc2c(c([H])c1C([H])([H])Oc1c([H])c([H])c3c(c1[H])C([H])([H])N(C(=O)C([H])(N([H])C(=O)C([H])(N([H])C([H])([H])[H])C([H])([H])[H])C(C([H])([H])[H])(C([H])([H])[H])C([H])([H])[H])C([H])(C(=O)N([H])C1([H])c4c([H])c([H])c([H])c([H])c4C([H])([H])C([H])([H])C1([H])[H])C3([H])[H])C([H])([H])[N+]([H])([H])C([H])([H])C([H])(C([H])([H])C([H])([H])N([H])C(=O)N1C([H])([H])C([H])([H])C([H])([H])C([H])(n3nc(-c4c([H])c([H])c(Oc5c([H])c([H])c(F)c([H])c5F)c([H])c4[H])c(C(=O)N([H])[H])c3N([H])[H])C1([H])[H])N2[H]

$$$$
23:0:0
     RDKit          3D

 95103  0  0  1  0  0  0  0  0999 V2000
  -27.7970  -22.9610   22.4430 C   0  0  0  0  0  2  0  0  0  0  0  0
  -27.7930  -20.7420   21.3340 C   0  0  0  0  0  2  0  0  0  0  0  0
  -29.5470  -21.3250   22.8270 C   0  0  0  0  0  2  0  0  0  0  0  0
  -28.7100  -19.7350   20.6070 C   0  0  0  0  0  2  0  0  0  0  0  0
  -30.5160  -20.3450   22.1360 C   0  0  0  0  0  2  0  0  0  0  0  0
  -28.6010  -21.8640   21.8410 N   0  0  0  0  0  0  0  0  0  0  0  0
  -29.7980  -19.2180   21.4810 N   0  0  2  0  0  4  0  0  0  0  0  0
  -29.3620  -18.6840   22.2170 H   0  0  0  0  0  0  0  0  0  0  0  0
  -30.7240  -18.3130   20.7410 C   0  0  0  0  0  2  0  0  0  0  0  0
  -30.6820  -16.8350   21.1920 C   0  0  0  0  0  2  0  0  0  0  0  0
  -32.0200  -14.9030   20.2770 C   0  0  0  0  0  0  0  0  0  0  0  0
  -31.5760  -12.7710   19.1570 C   0  0  0  0  0  2  0  0  0  0  0  0
  -30.6330  -13.0510   17.9680 C   0  0  0  0  0  2  0  0  0  0  0  0
  -29.1610  -12.9980   18.4200 C   0  0  0  0  0  2  0  0  0  0  0  0
  -28.8900  -13.8430   19.6940 C   0  0  0  0  0  3  0  0  0  0  0  0
  -29.9500  -13.5700   20.7860 C   0  0  0  0  0  2  0  0  0  0  0  0
  -31.2750  -13.7740   20.1870 N   0  0  0  0  0  0  0  0  0  0  0  0
  -33.1960  -14.9700   19.9250 O   0  0  0  0  0  0  0  0  0  0  0  0
  -31.3060  -16.0270   20.1440 N   0  0  0  0  0  0  0  0  0  0  0  0
  -31.7620  -16.6160   19.4630 H   0  0  0  0  0  0  0  0  0  0  0  0
  -26.5700  -14.5860   20.5250 C   0  0  0  0  0  0  0  0  0  0  0  0
  -25.4520  -13.8750   20.8670 C   0  0  0  0  0  0  0  0  0  0  0  0
  -25.7990  -12.4980   20.7170 C   0  0  0  0  0  0  0  0  0  0  0  0
  -27.5320  -13.6440   20.1950 N   0  0  0  0  0  0  0  0  0  0  0  0
  -27.0720  -12.3790   20.3680 N   0  0  0  0  0  0  0  0  0  0  0  0
  -24.9770  -11.2860   20.8290 C   0  0  0  0  0  0  0  0  0  0  0  0
  -25.3060  -10.2520   21.7340 C   0  0  0  0  0  3  0  0  0  0  0  0
  -24.4910   -9.1050   21.8360 C   0  0  0  0  0  3  0  0  0  0  0  0
  -23.3320   -8.9830   21.0320 C   0  0  0  0  0  0  0  0  0  0  0  0
  -23.0220  -10.0050   20.1170 C   0  0  0  0  0  3  0  0  0  0  0  0
  -23.8380  -11.1440   20.0130 C   0  0  0  0  0  3  0  0  0  0  0  0
  -22.4950   -7.8940   21.0460 O   0  0  0  0  0  0  0  0  0  0  0  0
  -22.2660   -7.1780   22.1930 C   0  0  0  0  0  0  0  0  0  0  0  0
  -21.7890   -7.7900   23.3720 C   0  0  0  0  0  3  0  0  0  0  0  0
  -21.5000   -7.0060   24.5070 C   0  0  0  0  0  3  0  0  0  0  0  0
  -21.6770   -5.6100   24.4620 C   0  0  0  0  0  0  0  0  0  0  0  0
  -22.1480   -4.9970   23.2870 C   0  0  0  0  0  3  0  0  0  0  0  0
  -22.4380   -5.7790   22.1550 C   0  0  0  0  0  0  0  0  0  0  0  0
  -22.8700   -5.1810   21.0190 F   0  0  0  0  0  0  0  0  0  0  0  0
  -21.3930   -4.8550   25.5490 F   0  0  0  0  0  0  0  0  0  0  0  0
  -24.1050  -14.4390   21.2160 C   0  0  0  0  0  0  0  0  0  0  0  0
  -23.3600  -13.7590   22.0820 N   0  0  0  0  0  0  0  0  0  0  0  0
  -23.7250  -15.5160   20.7580 O   0  0  0  0  0  0  0  0  0  0  0  0
  -23.6830  -12.8880   22.4760 H   0  0  0  0  0  0  0  0  0  0  0  0
  -22.4570  -14.1180   22.3580 H   0  0  0  0  0  0  0  0  0  0  0  0
  -26.8430  -15.9490   20.4450 N   0  0  0  0  0  0  0  0  0  0  0  0
  -26.1190  -16.6440   20.5800 H   0  0  0  0  0  0  0  0  0  0  0  0
  -27.6850  -16.3240   20.0300 H   0  0  0  0  0  0  0  0  0  0  0  0
  -26.8600  -23.7040   21.4690 C   0  0  0  0  0  0  0  0  0  0  0  0
  -27.3700  -24.5290   20.5450 N   0  0  0  0  0  0  0  0  0  0  0  0
  -25.6470  -23.5220   21.5420 O   0  0  0  0  0  0  0  0  0  0  0  0
  -26.7100  -25.0080   19.9490 H   0  0  0  0  0  0  0  0  0  0  0  0
  -28.7820  -24.8320   20.3280 C   0  0  0  0  0  2  0  0  0  0  0  0
  -29.0090  -25.7390   19.1010 C   0  0  0  0  0  2  0  0  0  0  0  0
  -28.8440  -27.1230   19.4140 O   0  0  0  0  0  0  0  0  0  0  0  0
  -24.7440  -31.6040   23.0680 C   0  0  0  0  0  0  0  0  0  0  0  0
  -27.5880  -27.6860   19.5030 C   0  0  0  0  0  0  0  0  0  0  0  0
  -23.5800  -30.2760   21.3340 C   0  0  0  0  0  3  0  0  0  0  0  0
  -25.0870  -28.9880   19.7300 C   0  0  0  0  0  0  0  0  0  0  0  0
  -26.0640  -30.8380   21.1000 C   0  0  0  0  0  2  0  0  0  0  0  0
  -26.2220  -29.5440   20.3290 C   0  0  0  0  0  0  0  0  0  0  0  0
  -27.4710  -28.9010   20.2140 C   0  0  0  0  0  3  0  0  0  0  0  0
  -26.4300  -27.1350   18.9040 C   0  0  0  0  0  3  0  0  0  0  0  0
  -25.1860  -27.7810   19.0160 C   0  0  0  0  0  3  0  0  0  0  0  0
  -23.7880  -29.7440   19.8900 C   0  0  0  0  0  2  0  0  0  0  0  0
  -24.8140  -30.9170   21.8930 N   0  0  0  0  0  0  0  0  0  0  0  0
  -23.6660  -31.7450   23.6620 O   0  0  0  0  0  0  0  0  0  0  0  0
  -23.0380  -29.1250   22.2100 C   0  0  0  0  0  0  0  0  0  0  0  0
  -21.7310  -28.8400   22.0810 N   0  0  0  0  0  0  0  0  0  0  0  0
  -23.7870  -28.4940   22.9600 O   0  0  0  0  0  0  0  0  0  0  0  0
  -21.1860  -29.4070   21.4470 H   0  0  0  0  0  0  0  0  0  0  0  0
  -18.4890  -27.2990   22.4750 C   0  0  0  0  0  0  0  0  0  0  0  0
  -21.0120  -27.7730   22.7720 C   0  0  0  0  0  3  0  0  0  0  0  0
  -21.2480  -26.4080   22.0840 C   0  0  0  0  0  2  0  0  0  0  0  0
  -20.1750  -26.0620   21.0470 C   0  0  0  0  0  2  0  0  0  0  0  0
  -18.7880  -26.0280   21.6970 C   0  0  0  0  0  2  0  0  0  0  0  0
  -19.5330  -28.1260   22.9650 C   0  0  0  0  0  0  0  0  0  0  0  0
  -19.2030  -29.3150   23.6510 C   0  0  0  0  0  3  0  0  0  0  0  0
  -17.8580  -29.6780   23.8530 C   0  0  0  0  0  3  0  0  0  0  0  0
  -16.8280  -28.8480   23.3800 C   0  0  0  0  0  3  0  0  0  0  0  0
  -17.1430  -27.6600   22.6960 C   0  0  0  0  0  3  0  0  0  0  0  0
  -26.0050  -32.2620   23.7110 C   0  0  0  0  0  3  0  0  0  0  0  0
  -25.6330  -33.6230   24.1200 N   0  0  0  0  0  0  0  0  0  0  0  0
  -25.9070  -34.7290   23.4160 C   0  0  0  0  0  0  0  0  0  0  0  0
  -26.5730  -34.7140   22.3780 O   0  0  0  0  0  0  0  0  0  0  0  0
  -25.0450  -33.7060   24.9370 H   0  0  0  0  0  0  0  0  0  0  0  0
  -24.0860  -36.4440   23.1650 C   0  0  0  0  0  1  0  0  0  0  0  0
  -25.3520  -36.0640   23.9490 C   0  0  0  0  0  3  0  0  0  0  0  0
  -27.4460  -37.0090   24.8140 C   0  0  0  0  0  1  0  0  0  0  0  0
  -26.3290  -37.1720   23.8870 N   0  0  0  0  0  0  0  0  0  0  0  0
  -25.8790  -38.0610   24.0860 H   0  0  0  0  0  0  0  0  0  0  0  0
  -26.5770  -31.4470   24.9360 C   0  0  1  0  0  0  0  0  0  0  0  0
  -25.5090  -31.0930   25.9970 C   0  0  0  0  0  1  0  0  0  0  0  0
  -27.2260  -30.1280   24.4580 C   0  0  0  0  0  1  0  0  0  0  0  0
  -27.6910  -32.2600   25.6360 C   0  0  0  0  0  1  0  0  0  0  0  0
  2  6  1  0
  4  2  1  0
  4  7  1  0
  5  3  1  0
  6  1  1  0
  6  3  1  0
  7  5  1  0
  7  8  1  1
  9 10  1  0
  9  7  1  0
 12 17  1  0
 13 14  1  0
 13 12  1  0
 15 14  1  0
 15 24  1  0
 15 16  1  0
 17 11  1  0
 17 16  1  0
 18 11  2  0
 19 11  1  0
 19 10  1  0
 20 19  1  0
 21 22  2  0
 22 41  1  0
 23 26  1  0
 23 22  1  0
 24 25  1  0
 24 21  1  0
 25 23  2  0
 26 27  1  0
 27 28  2  0
 29 32  1  0
 29 28  1  0
 30 29  2  0
 31 30  1  0
 31 26  2  0
 32 33  1  0
 33 34  1  0
 34 35  2  0
 36 35  1  0
 36 40  1  0
 37 36  2  0
 38 33  2  0
 38 37  1  0
 39 38  1  0
 41 42  1  0
 42 45  1  0
 42 44  1  0
 43 41  2  0
 46 21  1  0
 46 47  1  0
 48 46  1  0
 49 51  2  0
 49  1  1  0
 50 49  1  0
 52 50  1  0
 53 50  1  0
 54 55  1  0
 54 53  1  0
 55 57  1  0
 56 67  2  0
 57 62  1  0
 58 66  1  0
 58 68  1  0
 59 65  1  0
 59 61  1  0
 60 66  1  0
 61 60  1  0
 62 61  2  0
 63 64  1  0
 63 57  2  0
 64 59  2  0
 65 58  1  0
 66 56  1  0
 68 70  2  0
 69 68  1  0
 71 69  1  0
 72 81  2  0
 72 77  1  0
 73 69  1  0
 73 77  1  0
 74 73  1  0
 75 76  1  0
 75 74  1  0
 76 72  1  0
 77 78  2  0
 78 79  1  0
 80 79  2  0
 81 80  1  0
 82 56  1  0
 82 83  1  0
 82 92  1  0
 83 86  1  0
 84 88  1  0
 84 83  1  0
 85 84  2  0
 88 87  1  0
 90 88  1  0
 90 91  1  0
 90 89  1  0
 92 95  1  1
 92 93  1  0
 94 92  1  0
M  ISO  4  11 100  19 100  54 101  55 101
M  END
>  <TORSDO>  (24) 
F 22

>  <SCORE>  (24) 
-9.009

>  <name>  (24) 
23

>  <ligand_id>  (24) 
23

>  <original_smiles>  (24) 
[H]c1c([H])c([H])c2c(c1[H])C([H])([H])C([H])([H])C([H])([H])C2([H])N([H])C(=O)C1([H])N(C(=O)C([H])(N([H])C(=O)C([H])(N([H])C([H])([H])[H])C([H])([H])[H])C(C([H])([H])[H])(C([H])([H])[H])C([H])([H])[H])C([H])([H])c2c([H])c(OC([H])([H])C([H])([H])N([H])C(=O)C([H])([H])N3C([H])([H])C([H])([H])[N+]([H])(C([H])([H])C([H])([H])N([H])C(=O)N4C([H])([H])C([H])([H])C([H])([H])C([H])(n5nc(-c6c([H])c([H])c(Oc7c([H])c([H])c(F)c([H])c7F)c([H])c6[H])c(C(=O)N([H])[H])c5N([H])[H])C4([H])[H])C([H])([H])C3([H])[H])c([H])c([H])c2C1([H])[H]

>  <smiles>  (24) 
[H]c1c([H])c([H])c2c(c1[H])C([H])([H])C([H])([H])C([H])([H])C2([H])N([H])C(=O)C1([H])N(C(=O)C([H])(N([H])C(=O)C([H])(N([H])C([H])([H])[H])C([H])([H])[H])C(C([H])([H])[H])(C([H])([H])[H])C([H])([H])[H])C([H])([H])c2c([H])c(OC([H])([H])C([H])([H])N([H])C(=O)C([H])([H])N3C([H])([H])C([H])([H])[N+]([H])(C([H])([H])C([H])([H])N([H])C(=O)N4C([H])([H])C([H])([H])C([H])([H])C([H])(n5nc(-c6c([H])c([H])c(Oc7c([H])c([H])c(F)c([H])c7F)c([H])c6[H])c(C(=O)N([H])[H])c5N([H])[H])C4([H])[H])C([H])([H])C3([H])[H])c([H])c([H])c2C1([H])[H]

$$$$
24:0:0
     RDKit          3D

 94103  0  0  1  0  0  0  0  0999 V2000
  -29.1100  -21.5460   20.7560 C   0  0  0  0  0  2  0  0  0  0  0  0
  -31.0740  -18.0910   20.7140 C   0  0  0  0  0  3  0  0  0  0  0  0
  -28.8430  -17.6700   19.9660 C   0  0  0  0  0  3  0  0  0  0  0  0
  -30.8020  -19.5040   20.7030 C   0  0  0  0  0  0  0  0  0  0  0  0
  -28.5470  -19.0690   19.9480 C   0  0  0  0  0  0  0  0  0  0  0  0
  -29.5100  -20.0430   20.3790 C   0  0  0  0  0  0  0  0  0  0  0  0
  -30.0690  -17.1340   20.4150 C   0  0  0  0  0  0  0  0  0  0  0  0
  -31.9420  -20.4260   21.1150 C   0  0  0  0  0  1  0  0  0  0  0  0
  -27.1270  -19.4230   19.5220 C   0  0  0  0  0  1  0  0  0  0  0  0
  -30.9020  -14.6730   20.1400 C   0  0  0  0  0  0  0  0  0  0  0  0
  -30.6120  -12.4870   18.9930 C   0  0  0  0  0  2  0  0  0  0  0  0
  -29.6180  -12.7110   17.8310 C   0  0  0  0  0  2  0  0  0  0  0  0
  -28.1530  -12.5800   18.3080 C   0  0  0  0  0  2  0  0  0  0  0  0
  -27.8730  -13.3630   19.6190 C   0  0  0  0  0  3  0  0  0  0  0  0
  -28.9780  -13.0960   20.6660 C   0  0  0  0  0  2  0  0  0  0  0  0
  -30.2750  -13.4520   20.0580 N   0  0  0  0  0  0  0  0  0  0  0  0
  -32.0280  -14.8570   19.6750 O   0  0  0  0  0  0  0  0  0  0  0  0
  -30.1310  -15.6860   20.6390 N   0  0  0  0  0  0  0  0  0  0  0  0
  -29.3050  -15.3150   21.0810 H   0  0  0  0  0  0  0  0  0  0  0  0
  -25.5070  -13.9660   20.4280 C   0  0  0  0  0  0  0  0  0  0  0  0
  -24.4480  -13.1950   20.8340 C   0  0  0  0  0  0  0  0  0  0  0  0
  -24.8970  -11.8440   20.7620 C   0  0  0  0  0  0  0  0  0  0  0  0
  -26.5350  -13.0820   20.1430 N   0  0  0  0  0  0  0  0  0  0  0  0
  -26.1750  -11.7980   20.4020 N   0  0  0  0  0  0  0  0  0  0  0  0
  -24.1650  -10.5840   20.9580 C   0  0  0  0  0  0  0  0  0  0  0  0
  -24.5880   -9.6210   21.9000 C   0  0  0  0  0  3  0  0  0  0  0  0
  -23.8560   -8.4280   22.0840 C   0  0  0  0  0  3  0  0  0  0  0  0
  -22.6850   -8.1900   21.3260 C   0  0  0  0  0  0  0  0  0  0  0  0
  -22.2790   -9.1420   20.3750 C   0  0  0  0  0  3  0  0  0  0  0  0
  -23.0120  -10.3270   20.1890 C   0  0  0  0  0  3  0  0  0  0  0  0
  -21.9270   -7.0490   21.4190 O   0  0  0  0  0  0  0  0  0  0  0  0
  -21.8360   -6.3380   22.5900 C   0  0  0  0  0  0  0  0  0  0  0  0
  -21.3250   -6.9150   23.7730 C   0  0  0  0  0  3  0  0  0  0  0  0
  -21.1840   -6.1310   24.9350 C   0  0  0  0  0  3  0  0  0  0  0  0
  -21.5410   -4.7680   24.9130 C   0  0  0  0  0  0  0  0  0  0  0  0
  -22.0420   -4.1910   23.7320 C   0  0  0  0  0  3  0  0  0  0  0  0
  -22.1850   -4.9730   22.5740 C   0  0  0  0  0  0  0  0  0  0  0  0
  -22.6480   -4.4070   21.4330 F   0  0  0  0  0  0  0  0  0  0  0  0
  -21.3980   -4.0110   26.0250 F   0  0  0  0  0  0  0  0  0  0  0  0
  -23.0660  -13.6820   21.1600 C   0  0  0  0  0  0  0  0  0  0  0  0
  -22.3630  -12.9830   22.0450 N   0  0  0  0  0  0  0  0  0  0  0  0
  -22.6180  -14.7150   20.6660 O   0  0  0  0  0  0  0  0  0  0  0  0
  -22.7420  -12.1510   22.4700 H   0  0  0  0  0  0  0  0  0  0  0  0
  -21.4320  -13.2800   22.2970 H   0  0  0  0  0  0  0  0  0  0  0  0
  -25.6600  -15.3350   20.2490 N   0  0  0  0  0  0  0  0  0  0  0  0
  -24.8400  -15.9300   20.3060 H   0  0  0  0  0  0  0  0  0  0  0  0
  -26.3840  -15.7160   19.6530 H   0  0  0  0  0  0  0  0  0  0  0  0
  -29.9620  -24.7510   18.7940 C   0  0  0  0  0  2  0  0  0  0  0  0
  -30.3050  -23.3580   19.3880 C   0  0  0  0  0  2  0  0  0  0  0  0
  -28.2250  -23.9060   20.2530 C   0  0  0  0  0  2  0  0  0  0  0  0
  -28.5960  -25.1790   19.3990 C   0  0  0  0  0  3  0  0  0  0  0  0
  -29.0210  -22.7090   19.7680 N   0  0  2  0  0  4  0  0  0  0  0  0
  -28.5690  -22.3650   18.9290 H   0  0  0  0  0  0  0  0  0  0  0  0
  -28.5390  -26.5210   20.0600 O   0  0  0  0  0  0  0  0  0  0  0  0
  -24.5710  -31.7960   23.1940 C   0  0  0  0  0  0  0  0  0  0  0  0
  -27.3650  -27.3070   20.0870 C   0  0  0  0  0  0  0  0  0  0  0  0
  -23.4390  -30.3950   21.5060 C   0  0  0  0  0  3  0  0  0  0  0  0
  -24.9510  -28.8650   20.1200 C   0  0  0  0  0  0  0  0  0  0  0  0
  -25.9820  -30.7400   21.4030 C   0  0  0  0  0  2  0  0  0  0  0  0
  -26.1030  -29.3680   20.7390 C   0  0  0  0  0  0  0  0  0  0  0  0
  -27.3110  -28.5980   20.7170 C   0  0  0  0  0  3  0  0  0  0  0  0
  -26.1650  -26.8560   19.4850 C   0  0  0  0  0  3  0  0  0  0  0  0
  -24.9840  -27.6120   19.4930 C   0  0  0  0  0  3  0  0  0  0  0  0
  -23.7010  -29.7120   20.1400 C   0  0  0  0  0  2  0  0  0  0  0  0
  -24.6830  -30.9960   22.0890 N   0  0  0  0  0  0  0  0  0  0  0  0
  -23.4660  -32.0490   23.6980 O   0  0  0  0  0  0  0  0  0  0  0  0
  -22.7540  -29.3720   22.4420 C   0  0  0  0  0  0  0  0  0  0  0  0
  -21.4310  -29.2010   22.2890 N   0  0  0  0  0  0  0  0  0  0  0  0
  -23.4180  -28.7270   23.2570 O   0  0  0  0  0  0  0  0  0  0  0  0
  -20.9580  -29.7590   21.5910 H   0  0  0  0  0  0  0  0  0  0  0  0
  -18.0350  -28.0470   22.7550 C   0  0  0  0  0  0  0  0  0  0  0  0
  -20.5980  -28.2510   23.0300 C   0  0  0  0  0  3  0  0  0  0  0  0
  -20.6770  -26.8400   22.3990 C   0  0  0  0  0  2  0  0  0  0  0  0
  -19.5660  -26.5730   21.3790 C   0  0  0  0  0  2  0  0  0  0  0  0
  -18.1880  -26.7230   22.0260 C   0  0  0  0  0  2  0  0  0  0  0  0
  -19.1670  -28.7730   23.2110 C   0  0  0  0  0  0  0  0  0  0  0  0
  -18.9670  -30.0220   23.8400 C   0  0  0  0  0  3  0  0  0  0  0  0
  -17.6710  -30.5390   24.0250 C   0  0  0  0  0  3  0  0  0  0  0  0
  -16.5530  -29.8070   23.5880 C   0  0  0  0  0  3  0  0  0  0  0  0
  -16.7370  -28.5640   22.9540 C   0  0  0  0  0  3  0  0  0  0  0  0
  -25.8190  -32.4360   23.8660 C   0  0  0  0  0  3  0  0  0  0  0  0
  -25.5030  -33.8370   24.1720 N   0  0  0  0  0  0  0  0  0  0  0  0
  -25.8760  -34.8830   23.4200 C   0  0  0  0  0  0  0  0  0  0  0  0
  -26.5850  -34.7700   22.4180 O   0  0  0  0  0  0  0  0  0  0  0  0
  -24.8790  -33.9980   24.9510 H   0  0  0  0  0  0  0  0  0  0  0  0
  -24.1700  -36.6730   22.9740 C   0  0  0  0  0  1  0  0  0  0  0  0
  -25.3690  -36.2750   23.8490 C   0  0  0  0  0  3  0  0  0  0  0  0
  -27.4600  -37.1570   24.7860 C   0  0  0  0  0  1  0  0  0  0  0  0
  -26.4110  -37.3240   23.7830 N   0  0  0  0  0  0  0  0  0  0  0  0
  -25.9990  -38.2460   23.9080 H   0  0  0  0  0  0  0  0  0  0  0  0
  -26.2830  -31.6800   25.1700 C   0  0  1  0  0  0  0  0  0  0  0  0
  -25.1460  -31.4550   26.1920 C   0  0  0  0  0  1  0  0  0  0  0  0
  -26.8790  -30.3020   24.8110 C   0  0  0  0  0  1  0  0  0  0  0  0
  -27.4040  -32.4820   25.8720 C   0  0  0  0  0  1  0  0  0  0  0  0
  3  7  1  0
  4  2  1  0
  4  8  1  0
  5  3  2  0
  5  6  1  0
  6  4  2  0
  6  1  1  0
  7 18  1  0
  7  2  2  0
  9  5  1  0
 10 18  1  0
 11 16  1  0
 12 13  1  0
 12 11  1  0
 14 13  1  0
 14 23  1  0
 14 15  1  0
 16 10  1  0
 16 15  1  0
 17 10  2  0
 18 19  1  0
 20 21  2  0
 21 40  1  0
 22 21  1  0
 22 25  1  0
 23 24  1  0
 23 20  1  0
 24 22  2  0
 25 26  1  0
 26 27  2  0
 28 31  1  0
 28 27  1  0
 29 28  2  0
 30 29  1  0
 30 25  2  0
 31 32  1  0
 32 33  1  0
 33 34  2  0
 35 34  1  0
 35 39  1  0
 36 35  2  0
 37 32  2  0
 37 36  1  0
 38 37  1  0
 40 41  1  0
 41 44  1  0
 41 43  1  0
 42 40  2  0
 45 46  1  0
 45 20  1  0
 47 45  1  0
 48 49  1  0
 48 51  1  0
 49 52  1  0
 51 54  1  0
 51 50  1  0
 52 50  1  0
 52  1  1  0
 52 53  1  6
 54 56  1  0
 55 66  2  0
 56 61  1  0
 57 65  1  0
 57 67  1  0
 58 64  1  0
 58 60  1  0
 59 65  1  0
 60 59  1  0
 61 60  2  0
 62 63  1  0
 62 56  2  0
 63 58  2  0
 64 57  1  0
 65 55  1  0
 67 69  2  0
 68 67  1  0
 70 68  1  0
 71 80  2  0
 71 76  1  0
 72 68  1  0
 72 76  1  0
 73 72  1  0
 74 75  1  0
 74 73  1  0
 75 71  1  0
 76 77  2  0
 77 78  1  0
 79 78  2  0
 80 79  1  0
 81 55  1  0
 81 82  1  0
 81 91  1  0
 82 85  1  0
 83 87  1  0
 83 82  1  0
 84 83  2  0
 87 86  1  0
 89 87  1  0
 89 90  1  0
 89 88  1  0
 91 94  1  1
 91 92  1  0
 93 91  1  0
M  ISO  4  10 100  18 100  51 101  54 101
M  END
>  <TORSDO>  (25) 
F 18

>  <SCORE>  (25) 
-14.626

>  <name>  (25) 
24

>  <ligand_id>  (25) 
24

>  <original_smiles>  (25) 
[H]c1c([H])c([H])c2c(c1[H])C([H])([H])C([H])([H])C([H])([H])C2([H])N([H])C(=O)C1([H])N(C(=O)C([H])(N([H])C(=O)C([H])(N([H])C([H])([H])[H])C([H])([H])[H])C(C([H])([H])[H])(C([H])([H])[H])C([H])([H])[H])C([H])([H])c2c([H])c(OC3([H])C([H])([H])C([H])([H])[N+]([H])(C([H])([H])c4c(C([H])([H])[H])c([H])c(N([H])C(=O)N5C([H])([H])C([H])([H])C([H])([H])C([H])(n6nc(-c7c([H])c([H])c(Oc8c([H])c([H])c(F)c([H])c8F)c([H])c7[H])c(C(=O)N([H])[H])c6N([H])[H])C5([H])[H])c([H])c4C([H])([H])[H])C3([H])[H])c([H])c([H])c2C1([H])[H]

>  <smiles>  (25) 
[H]c1c([H])c([H])c2c(c1[H])C([H])([H])C([H])([H])C([H])([H])C2([H])N([H])C(=O)C1([H])N(C(=O)C([H])(N([H])C(=O)C([H])(N([H])C([H])([H])[H])C([H])([H])[H])C(C([H])([H])[H])(C([H])([H])[H])C([H])([H])[H])C([H])([H])c2c([H])c(OC3([H])C([H])([H])C([H])([H])[N+]([H])(C([H])([H])c4c(C([H])([H])[H])c([H])c(N([H])C(=O)N5C([H])([H])C([H])([H])C([H])([H])C([H])(n6nc(-c7c([H])c([H])c(Oc8c([H])c([H])c(F)c([H])c8F)c([H])c7[H])c(C(=O)N([H])[H])c6N([H])[H])C5([H])[H])c([H])c4C([H])([H])[H])C3([H])[H])c([H])c([H])c2C1([H])[H]

$$$$
25:0:0
     RDKit          3D

 96104  0  0  1  0  0  0  0  0999 V2000
  -27.5140  -22.1190   20.2470 C   0  0  0  0  0  2  0  0  0  0  0  0
  -28.3910  -24.0100   21.3690 C   0  0  0  0  0  2  0  0  0  0  0  0
  -28.0460  -23.5140   19.9640 C   0  0  0  0  0  3  0  0  0  0  0  0
  -28.4950  -21.6040   21.3150 C   0  0  0  0  0  3  0  0  0  0  0  0
  -28.8380  -22.8090   22.1110 N   0  0  0  0  0  4  0  0  0  0  0  0
  -28.3640  -22.7800   23.0010 H   0  0  0  0  0  0  0  0  0  0  0  0
  -29.8290  -22.8410   22.2940 H   0  0  0  0  0  0  0  0  0  0  0  0
  -29.7610  -20.9590   20.6870 C   0  0  0  0  0  2  0  0  0  0  0  0
  -29.5270  -19.5310   20.1440 C   0  0  0  0  0  2  0  0  0  0  0  0
  -30.7480  -18.9040   19.5840 N   0  0  0  0  0  4  0  0  0  0  0  0
  -30.7650  -19.0410   18.5870 H   0  0  0  0  0  0  0  0  0  0  0  0
  -31.5700  -19.3430   19.9700 H   0  0  0  0  0  0  0  0  0  0  0  0
  -30.8170  -17.4550   19.8660 C   0  0  0  0  0  2  0  0  0  0  0  0
  -32.2360  -16.8550   19.7710 C   0  0  0  0  0  2  0  0  0  0  0  0
  -32.6800  -14.3850   20.0150 C   0  0  0  0  0  0  0  0  0  0  0  0
  -32.4590  -11.9530   20.4060 C   0  0  0  0  0  2  0  0  0  0  0  0
  -31.6100  -11.2480   19.3300 C   0  0  0  0  0  2  0  0  0  0  0  0
  -30.1040  -11.3580   19.6390 C   0  0  0  0  0  2  0  0  0  0  0  0
  -29.6720  -12.8090   19.9690 C   0  0  0  0  0  3  0  0  0  0  0  0
  -30.6070  -13.4030   21.0430 C   0  0  0  0  0  2  0  0  0  0  0  0
  -32.0020  -13.3390   20.5500 N   0  0  0  0  0  0  0  0  0  0  0  0
  -33.6650  -14.2780   19.2780 O   0  0  0  0  0  0  0  0  0  0  0  0
  -32.2060  -15.5610   20.4370 N   0  0  0  0  0  0  0  0  0  0  0  0
  -31.5270  -15.4750   21.1800 H   0  0  0  0  0  0  0  0  0  0  0  0
  -27.4640  -13.9670   20.6350 C   0  0  0  0  0  0  0  0  0  0  0  0
  -26.2240  -13.4670   20.9340 C   0  0  0  0  0  0  0  0  0  0  0  0
  -26.3420  -12.0470   20.8420 C   0  0  0  0  0  0  0  0  0  0  0  0
  -28.2700  -12.8650   20.3870 N   0  0  0  0  0  0  0  0  0  0  0  0
  -27.5930  -11.7040   20.5640 N   0  0  0  0  0  0  0  0  0  0  0  0
  -25.3230  -10.9930   20.9440 C   0  0  0  0  0  0  0  0  0  0  0  0
  -25.4620   -9.9180   21.8490 C   0  0  0  0  0  3  0  0  0  0  0  0
  -24.4630   -8.9250   21.9410 C   0  0  0  0  0  3  0  0  0  0  0  0
  -23.3070   -9.0050   21.1270 C   0  0  0  0  0  0  0  0  0  0  0  0
  -23.1850  -10.0650   20.2120 C   0  0  0  0  0  3  0  0  0  0  0  0
  -24.1830  -11.0490   20.1180 C   0  0  0  0  0  3  0  0  0  0  0  0
  -22.2980   -8.0730   21.1300 O   0  0  0  0  0  0  0  0  0  0  0  0
  -21.9730   -7.3670   22.2610 C   0  0  0  0  0  0  0  0  0  0  0  0
  -21.5870   -8.0110   23.4570 C   0  0  0  0  0  3  0  0  0  0  0  0
  -21.1950   -7.2460   24.5730 C   0  0  0  0  0  3  0  0  0  0  0  0
  -21.1780   -5.8400   24.4930 C   0  0  0  0  0  0  0  0  0  0  0  0
  -21.5560   -5.1970   23.3010 C   0  0  0  0  0  3  0  0  0  0  0  0
  -21.9490   -5.9600   22.1870 C   0  0  0  0  0  0  0  0  0  0  0  0
  -22.2930   -5.3360   21.0350 F   0  0  0  0  0  0  0  0  0  0  0  0
  -20.7920   -5.1050   25.5620 F   0  0  0  0  0  0  0  0  0  0  0  0
  -24.9760  -14.2590   21.1930 C   0  0  0  0  0  0  0  0  0  0  0  0
  -24.0830  -13.7390   22.0280 N   0  0  0  0  0  0  0  0  0  0  0  0
  -24.8070  -15.3720   20.6940 O   0  0  0  0  0  0  0  0  0  0  0  0
  -24.2330  -12.8370   22.4570 H   0  0  0  0  0  0  0  0  0  0  0  0
  -23.2380  -14.2480   22.2430 H   0  0  0  0  0  0  0  0  0  0  0  0
  -27.9670  -15.2590   20.5340 N   0  0  0  0  0  0  0  0  0  0  0  0
  -27.3620  -16.0710   20.6040 H   0  0  0  0  0  0  0  0  0  0  0  0
  -28.8790  -15.4750   20.1490 H   0  0  0  0  0  0  0  0  0  0  0  0
  -27.1030  -24.3060   19.2560 O   0  0  0  0  0  0  0  0  0  0  0  0
  -27.6750  -25.5230   18.8000 C   0  0  0  0  0  2  0  0  0  0  0  0
  -26.8030  -26.1320   17.6920 C   0  0  0  0  0  2  0  0  0  0  0  0
  -26.9240  -27.5490   17.7120 O   0  0  0  0  0  0  0  0  0  0  0  0
  -25.5370  -30.8690   23.8240 C   0  0  0  0  0  0  0  0  0  0  0  0
  -26.0040  -28.2930   18.4160 C   0  0  0  0  0  0  0  0  0  0  0  0
  -23.6570  -30.7640   22.2200 C   0  0  0  0  0  3  0  0  0  0  0  0
  -24.2420  -29.9450   19.8820 C   0  0  0  0  0  0  0  0  0  0  0  0
  -26.0780  -30.7150   21.3970 C   0  0  0  0  0  2  0  0  0  0  0  0
  -25.5960  -29.8830   20.2290 C   0  0  0  0  0  0  0  0  0  0  0  0
  -26.4790  -29.0660   19.4950 C   0  0  0  0  0  3  0  0  0  0  0  0
  -24.6260  -28.3430   18.0950 C   0  0  0  0  0  3  0  0  0  0  0  0
  -23.7490  -29.1700   18.8190 C   0  0  0  0  0  3  0  0  0  0  0  0
  -23.3690  -30.8680   20.7000 C   0  0  0  0  0  2  0  0  0  0  0  0
  -25.1240  -30.7620   22.5300 N   0  0  0  0  0  0  0  0  0  0  0  0
  -24.7240  -31.0130   24.7460 O   0  0  0  0  0  0  0  0  0  0  0  0
  -22.9090  -29.5320   22.7780 C   0  0  0  0  0  0  0  0  0  0  0  0
  -21.5690  -29.5590   22.6950 N   0  0  0  0  0  0  0  0  0  0  0  0
  -23.5300  -28.5730   23.2430 O   0  0  0  0  0  0  0  0  0  0  0  0
  -21.1360  -30.3880   22.3110 H   0  0  0  0  0  0  0  0  0  0  0  0
  -18.1390  -28.4380   22.5530 C   0  0  0  0  0  0  0  0  0  0  0  0
  -20.6590  -28.4960   23.1190 C   0  0  0  0  0  3  0  0  0  0  0  0
  -20.7890  -27.2540   22.2060 C   0  0  0  0  0  2  0  0  0  0  0  0
  -19.7880  -27.2510   21.0460 C   0  0  0  0  0  2  0  0  0  0  0  0
  -18.3520  -27.2940   21.5750 C   0  0  0  0  0  2  0  0  0  0  0  0
  -19.2240  -29.0120   23.2670 C   0  0  0  0  0  0  0  0  0  0  0  0
  -18.9760  -30.0950   24.1370 C   0  0  0  0  0  3  0  0  0  0  0  0
  -17.6730  -30.6010   24.3020 C   0  0  0  0  0  3  0  0  0  0  0  0
  -16.6000  -30.0190   23.6070 C   0  0  0  0  0  3  0  0  0  0  0  0
  -16.8330  -28.9370   22.7380 C   0  0  0  0  0  3  0  0  0  0  0  0
  -27.0510  -30.8390   24.2050 C   0  0  0  0  0  3  0  0  0  0  0  0
  -27.2600  -31.8430   25.2570 N   0  0  0  0  0  0  0  0  0  0  0  0
  -27.8450  -33.0330   25.0670 C   0  0  0  0  0  0  0  0  0  0  0  0
  -28.3340  -33.3730   23.9860 O   0  0  0  0  0  0  0  0  0  0  0  0
  -26.8360  -31.6530   26.1540 H   0  0  0  0  0  0  0  0  0  0  0  0
  -26.8140  -35.0810   26.1000 C   0  0  0  0  0  1  0  0  0  0  0  0
  -27.8940  -33.9990   26.2660 C   0  0  0  0  0  3  0  0  0  0  0  0
  -30.2550  -33.7050   26.8730 C   0  0  0  0  0  1  0  0  0  0  0  0
  -29.2150  -34.6390   26.4500 N   0  0  0  0  0  0  0  0  0  0  0  0
  -29.1610  -35.3880   27.1360 H   0  0  0  0  0  0  0  0  0  0  0  0
  -27.5450  -29.4180   24.6810 C   0  0  1  0  0  0  0  0  0  0  0  0
  -26.6690  -28.7930   25.7910 C   0  0  0  0  0  1  0  0  0  0  0  0
  -27.5820  -28.4290   23.4940 C   0  0  0  0  0  1  0  0  0  0  0  0
  -28.9940  -29.5200   25.2170 C   0  0  0  0  0  1  0  0  0  0  0  0
  1  4  1  0
  2  5  1  0
  3 53  1  0
  3  1  1  0
  3  2  1  0
  4  8  1  0
  4  5  1  0
  5  7  1  0
  5  6  1  0
  9  8  1  0
 10 13  1  0
 10 12  1  0
 10  9  1  0
 11 10  1  0
 14 13  1  0
 14 23  1  0
 15 23  1  0
 15 21  1  0
 16 21  1  0
 17 18  1  0
 17 16  1  0
 19 18  1  0
 19 28  1  0
 19 20  1  0
 21 20  1  0
 22 15  2  0
 23 24  1  0
 25 26  2  0
 26 45  1  0
 27 26  1  0
 27 30  1  0
 28 29  1  0
 28 25  1  0
 29 27  2  0
 30 31  1  0
 31 32  2  0
 33 36  1  0
 33 32  1  0
 34 33  2  0
 35 34  1  0
 35 30  2  0
 36 37  1  0
 37 38  1  0
 38 39  2  0
 40 39  1  0
 40 44  1  0
 41 40  2  0
 42 37  2  0
 42 41  1  0
 43 42  1  0
 45 46  1  0
 46 49  1  0
 46 48  1  0
 47 45  2  0
 50 51  1  0
 50 25  1  0
 52 50  1  0
 54 53  1  0
 55 56  1  0
 55 54  1  0
 56 58  1  0
 57 68  2  0
 58 63  1  0
 59 67  1  0
 59 69  1  0
 60 62  1  0
 60 66  1  0
 61 67  1  0
 62 61  1  0
 63 62  2  0
 64 58  2  0
 64 65  1  0
 65 60  2  0
 66 59  1  0
 67 57  1  0
 69 71  2  0
 70 69  1  0
 72 70  1  0
 73 82  2  0
 73 78  1  0
 74 70  1  0
 74 78  1  0
 75 74  1  0
 76 77  1  0
 76 75  1  0
 77 73  1  0
 78 79  2  0
 79 80  1  0
 81 80  2  0
 82 81  1  0
 83 57  1  0
 83 93  1  0
 83 84  1  0
 84 87  1  0
 85 84  1  0
 85 89  1  0
 86 85  2  0
 89 88  1  0
 89 91  1  0
 91 90  1  0
 91 92  1  0
 93 96  1  1
 93 94  1  0
 95 93  1  0
M  ISO  4  15 100  23 100  55 101  56 101
M  END
>  <TORSDO>  (26) 
F 24

>  <SCORE>  (26) 
-9.455

>  <name>  (26) 
25

>  <ligand_id>  (26) 
25

>  <original_smiles>  (26) 
[H]c1c([H])c([H])c2c(c1[H])C([H])([H])C([H])([H])C([H])([H])C2([H])N([H])C(=O)C1([H])N(C(=O)C([H])(N([H])C(=O)C([H])(N([H])C([H])([H])[H])C([H])([H])[H])C(C([H])([H])[H])(C([H])([H])[H])C([H])([H])[H])C([H])([H])c2c([H])c(OC([H])([H])C([H])([H])OC3([H])C([H])([H])C([H])(C([H])([H])C([H])([H])[N+]([H])([H])C([H])([H])C([H])([H])N([H])C(=O)N4C([H])([H])C([H])([H])C([H])([H])C([H])(n5nc(-c6c([H])c([H])c(Oc7c([H])c([H])c(F)c([H])c7F)c([H])c6[H])c(C(=O)N([H])[H])c5N([H])[H])C4([H])[H])[N+]([H])([H])C3([H])[H])c([H])c([H])c2C1([H])[H]

>  <smiles>  (26) 
[H]c1c([H])c([H])c2c(c1[H])C([H])([H])C([H])([H])C([H])([H])C2([H])N([H])C(=O)C1([H])N(C(=O)C([H])(N([H])C(=O)C([H])(N([H])C([H])([H])[H])C([H])([H])[H])C(C([H])([H])[H])(C([H])([H])[H])C([H])([H])[H])C([H])([H])c2c([H])c(OC([H])([H])C([H])([H])OC3([H])C([H])([H])C([H])(C([H])([H])C([H])([H])[N+]([H])([H])C([H])([H])C([H])([H])N([H])C(=O)N4C([H])([H])C([H])([H])C([H])([H])C([H])(n5nc(-c6c([H])c([H])c(Oc7c([H])c([H])c(F)c([H])c7F)c([H])c6[H])c(C(=O)N([H])[H])c5N([H])[H])C4([H])[H])[N+]([H])([H])C3([H])[H])c([H])c([H])c2C1([H])[H]

$$$$
26:0:0
     RDKit          3D

 99108  0  0  1  0  0  0  0  0999 V2000
  -30.7160  -20.9100   20.8690 C   0  0  0  0  0  3  0  0  0  0  0  0
  -30.5790  -24.6630   19.5050 C   0  0  0  0  0  2  0  0  0  0  0  0
  -28.2340  -23.8400   19.8650 C   0  0  0  0  0  2  0  0  0  0  0  0
  -31.1220  -23.2270   19.6440 C   0  0  0  0  0  2  0  0  0  0  0  0
  -28.7740  -22.4110   20.0820 C   0  0  0  0  0  2  0  0  0  0  0  0
  -29.1510  -24.6570   18.9350 C   0  0  0  0  0  3  0  0  0  0  0  0
  -30.2370  -22.3850   20.5940 C   0  0  0  0  0  3  0  0  0  0  0  0
  -28.6180  -26.0730   18.6230 C   0  0  0  0  0  2  0  0  0  0  0  0
  -28.3240  -26.8180   19.8100 O   0  0  0  0  0  0  0  0  0  0  0  0
  -24.6390  -31.9180   23.1200 C   0  0  0  0  0  0  0  0  0  0  0  0
  -27.1330  -27.5090   19.8710 C   0  0  0  0  0  0  0  0  0  0  0  0
  -23.3500  -30.5320   21.5260 C   0  0  0  0  0  3  0  0  0  0  0  0
  -24.7320  -29.0000   20.0260 C   0  0  0  0  0  0  0  0  0  0  0  0
  -25.8630  -30.8870   21.2130 C   0  0  0  0  0  2  0  0  0  0  0  0
  -25.9160  -29.5190   20.5640 C   0  0  0  0  0  0  0  0  0  0  0  0
  -27.1140  -28.7770   20.4930 C   0  0  0  0  0  3  0  0  0  0  0  0
  -25.9230  -26.9860   19.3580 C   0  0  0  0  0  3  0  0  0  0  0  0
  -24.7290  -27.7290   19.4250 C   0  0  0  0  0  3  0  0  0  0  0  0
  -23.4930  -29.8570   20.1340 C   0  0  0  0  0  2  0  0  0  0  0  0
  -24.6380  -31.1250   22.0120 N   0  0  0  0  0  0  0  0  0  0  0  0
  -23.5870  -32.1940   23.7130 O   0  0  0  0  0  0  0  0  0  0  0  0
  -22.7390  -29.5100   22.5090 C   0  0  0  0  0  0  0  0  0  0  0  0
  -21.4140  -29.3120   22.4190 N   0  0  0  0  0  0  0  0  0  0  0  0
  -23.4530  -28.8960   23.3080 O   0  0  0  0  0  0  0  0  0  0  0  0
  -20.8970  -29.8590   21.7440 H   0  0  0  0  0  0  0  0  0  0  0  0
  -18.0760  -28.0590   22.9870 C   0  0  0  0  0  0  0  0  0  0  0  0
  -20.6300  -28.3700   23.2160 C   0  0  0  0  0  3  0  0  0  0  0  0
  -20.7530  -26.9340   22.6560 C   0  0  0  0  0  2  0  0  0  0  0  0
  -19.6420  -26.5770   21.6630 C   0  0  0  0  0  2  0  0  0  0  0  0
  -18.2670  -26.7050   22.3240 C   0  0  0  0  0  2  0  0  0  0  0  0
  -19.1850  -28.8470   23.3900 C   0  0  0  0  0  0  0  0  0  0  0  0
  -18.9520  -30.1160   23.9650 C   0  0  0  0  0  3  0  0  0  0  0  0
  -17.6410  -30.5960   24.1440 C   0  0  0  0  0  3  0  0  0  0  0  0
  -16.5450  -29.8040   23.7590 C   0  0  0  0  0  3  0  0  0  0  0  0
  -16.7640  -28.5390   23.1860 C   0  0  0  0  0  3  0  0  0  0  0  0
  -25.9580  -32.5370   23.6830 C   0  0  0  0  0  3  0  0  0  0  0  0
  -25.6600  -33.9150   24.0950 N   0  0  0  0  0  0  0  0  0  0  0  0
  -25.9260  -35.0020   23.3580 C   0  0  0  0  0  0  0  0  0  0  0  0
  -26.5220  -34.9520   22.2780 O   0  0  0  0  0  0  0  0  0  0  0  0
  -25.1200  -34.0280   24.9400 H   0  0  0  0  0  0  0  0  0  0  0  0
  -24.1570  -36.7850   23.1980 C   0  0  0  0  0  1  0  0  0  0  0  0
  -25.4550  -36.3630   23.9070 C   0  0  0  0  0  3  0  0  0  0  0  0
  -27.6280  -37.2450   24.6360 C   0  0  0  0  0  1  0  0  0  0  0  0
  -26.4650  -37.4340   23.7710 N   0  0  0  0  0  0  0  0  0  0  0  0
  -26.0580  -38.3410   23.9810 H   0  0  0  0  0  0  0  0  0  0  0  0
  -26.5700  -31.7140   24.8830 C   0  0  1  0  0  0  0  0  0  0  0  0
  -25.5540  -31.4040   26.0070 C   0  0  0  0  0  1  0  0  0  0  0  0
  -27.1440  -30.3660   24.3880 C   0  0  0  0  0  1  0  0  0  0  0  0
  -27.7510  -32.4950   25.5060 C   0  0  0  0  0  1  0  0  0  0  0  0
  -30.3420  -20.6840   24.8070 C   0  0  0  0  0  2  0  0  0  0  0  0
  -31.1410  -19.3960   24.8850 C   0  0  0  0  0  2  0  0  0  0  0  0
  -30.5240  -21.2720   23.4110 C   0  0  0  0  0  2  0  0  0  0  0  0
  -30.6010  -18.4450   23.8220 C   0  0  0  0  0  2  0  0  0  0  0  0
  -30.2020  -20.3020   22.2300 C   0  0  0  0  0  3  0  0  0  0  0  0
  -30.8130  -18.9580   22.4520 N   0  0  0  0  0  0  0  0  0  0  0  0
  -30.2430  -17.9160   21.5790 C   0  0  0  0  0  2  0  0  0  0  0  0
  -31.2520  -16.7640   21.3810 C   0  0  0  0  0  2  0  0  0  0  0  0
  -31.0840  -14.6170   20.1470 C   0  0  0  0  0  0  0  0  0  0  0  0
  -30.6300  -12.5540   18.8800 C   0  0  0  0  0  2  0  0  0  0  0  0
  -29.6520  -12.8480   17.7260 C   0  0  0  0  0  2  0  0  0  0  0  0
  -28.1920  -12.7480   18.2060 C   0  0  0  0  0  2  0  0  0  0  0  0
  -27.9340  -13.5340   19.5180 C   0  0  0  0  0  3  0  0  0  0  0  0
  -29.0190  -13.2210   20.5720 C   0  0  0  0  0  2  0  0  0  0  0  0
  -30.3370  -13.4960   19.9700 N   0  0  0  0  0  0  0  0  0  0  0  0
  -32.1380  -14.8300   19.5430 O   0  0  0  0  0  0  0  0  0  0  0  0
  -30.5870  -15.5180   21.0010 N   0  0  0  0  0  0  0  0  0  0  0  0
  -29.7170  -15.2870   21.4540 H   0  0  0  0  0  0  0  0  0  0  0  0
  -25.5580  -14.1790   20.2740 C   0  0  0  0  0  0  0  0  0  0  0  0
  -24.4910  -13.4210   20.6760 C   0  0  0  0  0  0  0  0  0  0  0  0
  -24.9350  -12.0640   20.6450 C   0  0  0  0  0  0  0  0  0  0  0  0
  -26.5890  -13.2830   20.0320 N   0  0  0  0  0  0  0  0  0  0  0  0
  -26.2160  -12.0070   20.3060 N   0  0  0  0  0  0  0  0  0  0  0  0
  -24.1980  -10.8140   20.8630 C   0  0  0  0  0  0  0  0  0  0  0  0
  -24.6230   -9.8630   21.8170 C   0  0  0  0  0  3  0  0  0  0  0  0
  -23.8890   -8.6760   22.0220 C   0  0  0  0  0  3  0  0  0  0  0  0
  -22.7160   -8.4290   21.2720 C   0  0  0  0  0  0  0  0  0  0  0  0
  -22.3100   -9.3680   20.3050 C   0  0  0  0  0  3  0  0  0  0  0  0
  -23.0440  -10.5470   20.1000 C   0  0  0  0  0  3  0  0  0  0  0  0
  -21.9510   -7.2920   21.3840 O   0  0  0  0  0  0  0  0  0  0  0  0
  -21.8520   -6.6060   22.5670 C   0  0  0  0  0  0  0  0  0  0  0  0
  -21.3800   -7.2210   23.7480 C   0  0  0  0  0  3  0  0  0  0  0  0
  -21.2290   -6.4620   24.9250 C   0  0  0  0  0  3  0  0  0  0  0  0
  -21.5410   -5.0880   24.9220 C   0  0  0  0  0  0  0  0  0  0  0  0
  -22.0060   -4.4740   23.7480 C   0  0  0  0  0  3  0  0  0  0  0  0
  -22.1600   -5.2310   22.5720 C   0  0  0  0  0  0  0  0  0  0  0  0
  -22.5880   -4.6280   21.4360 F   0  0  0  0  0  0  0  0  0  0  0  0
  -21.3880   -4.3570   26.0510 F   0  0  0  0  0  0  0  0  0  0  0  0
  -23.1060  -13.9180   20.9800 C   0  0  0  0  0  0  0  0  0  0  0  0
  -22.4060  -13.2570   21.8950 N   0  0  0  0  0  0  0  0  0  0  0  0
  -22.6540  -14.9260   20.4390 O   0  0  0  0  0  0  0  0  0  0  0  0
  -22.7860  -12.4410   22.3520 H   0  0  0  0  0  0  0  0  0  0  0  0
  -21.4770  -13.5710   22.1420 H   0  0  0  0  0  0  0  0  0  0  0  0
  -25.7370  -15.5450   20.0770 N   0  0  0  0  0  0  0  0  0  0  0  0
  -24.9810  -16.2130   20.1830 H   0  0  0  0  0  0  0  0  0  0  0  0
  -26.5840  -15.9610   19.7100 H   0  0  0  0  0  0  0  0  0  0  0  0
  -32.8330  -20.3620   19.6080 C   0  0  0  0  0  1  0  0  0  0  0  0
  -32.1880  -20.7590   20.8810 N   0  0  0  0  0  4  0  0  0  0  0  0
  -32.6380  -21.5610   21.2890 H   0  0  0  0  0  0  0  0  0  0  0  0
  -32.2990  -19.9870   21.5290 H   0  0  0  0  0  0  0  0  0  0  0  0
  1 97  1  0
  2  4  1  0
  3  5  1  0
  4  7  1  0
  5  7  1  0
  6  8  1  0
  6  2  1  0
  6  3  1  0
  7  1  1  0
  8  9  1  0
  9 11  1  0
 10 21  2  0
 11 16  1  0
 12 20  1  0
 12 22  1  0
 13 19  1  0
 13 15  1  0
 14 20  1  0
 15 14  1  0
 16 15  2  0
 17 18  1  0
 17 11  2  0
 18 13  2  0
 19 12  1  0
 20 10  1  0
 22 24  2  0
 23 22  1  0
 25 23  1  0
 26 35  2  0
 26 31  1  0
 27 23  1  0
 27 31  1  0
 28 27  1  0
 29 30  1  0
 29 28  1  0
 30 26  1  0
 31 32  2  0
 32 33  1  0
 34 33  2  0
 35 34  1  0
 36 10  1  0
 36 37  1  0
 36 46  1  0
 37 40  1  0
 38 42  1  0
 38 37  1  0
 39 38  2  0
 42 41  1  0
 44 42  1  0
 44 45  1  0
 44 43  1  0
 46 49  1  1
 46 47  1  0
 48 46  1  0
 50 51  1  0
 52 50  1  0
 53 51  1  0
 54  1  1  0
 54 55  1  0
 54 52  1  0
 55 53  1  0
 56 55  1  0
 57 56  1  0
 58 66  1  0
 59 64  1  0
 60 61  1  0
 60 59  1  0
 62 61  1  0
 62 71  1  0
 62 63  1  0
 64 58  1  0
 64 63  1  0
 65 58  2  0
 66 57  1  0
 66 67  1  0
 68 69  2  0
 69 88  1  0
 70 69  1  0
 70 73  1  0
 71 68  1  0
 71 72  1  0
 72 70  2  0
 73 74  1  0
 74 75  2  0
 76 79  1  0
 76 75  1  0
 77 76  2  0
 78 77  1  0
 78 73  2  0
 79 80  1  0
 80 85  2  0
 80 81  1  0
 81 82  2  0
 83 82  1  0
 83 87  1  0
 84 83  2  0
 85 84  1  0
 86 85  1  0
 88 89  1  0
 89 92  1  0
 89 91  1  0
 90 88  2  0
 93 94  1  0
 93 68  1  0
 95 93  1  0
 96 97  1  0
 97 98  1  0
 97 99  1  0
M  ISO  4   8 101   9 101  58 100  66 100
M  END
>  <TORSDO>  (27) 
F 22

>  <SCORE>  (27) 
-10.570

>  <name>  (27) 
26

>  <ligand_id>  (27) 
26

>  <original_smiles>  (27) 
[H]c1c([H])c([H])c2c(c1[H])C([H])([H])C([H])([H])C([H])([H])C2([H])N([H])C(=O)C1([H])N(C(=O)C([H])(N([H])C(=O)C([H])(N([H])C([H])([H])[H])C([H])([H])[H])C(C([H])([H])[H])(C([H])([H])[H])C([H])([H])[H])C([H])([H])c2c([H])c(OC([H])([H])C3([H])C([H])([H])C([H])([H])C([H])(C([H])(C4([H])N(C([H])([H])C([H])([H])N([H])C(=O)N5C([H])([H])C([H])([H])C([H])([H])C([H])(n6nc(-c7c([H])c([H])c(Oc8c([H])c([H])c(F)c([H])c8F)c([H])c7[H])c(C(=O)N([H])[H])c6N([H])[H])C5([H])[H])C([H])([H])C([H])([H])C([H])([H])C4([H])[H])[N+]([H])([H])C([H])([H])[H])C([H])([H])C3([H])[H])c([H])c([H])c2C1([H])[H]

>  <smiles>  (27) 
[H]c1c([H])c([H])c2c(c1[H])C([H])([H])C([H])([H])C([H])([H])C2([H])N([H])C(=O)C1([H])N(C(=O)C([H])(N([H])C(=O)C([H])(N([H])C([H])([H])[H])C([H])([H])[H])C(C([H])([H])[H])(C([H])([H])[H])C([H])([H])[H])C([H])([H])c2c([H])c(OC([H])([H])C3([H])C([H])([H])C([H])([H])C([H])(C([H])(C4([H])N(C([H])([H])C([H])([H])N([H])C(=O)N5C([H])([H])C([H])([H])C([H])([H])C([H])(n6nc(-c7c([H])c([H])c(Oc8c([H])c([H])c(F)c([H])c8F)c([H])c7[H])c(C(=O)N([H])[H])c6N([H])[H])C5([H])[H])C([H])([H])C([H])([H])C([H])([H])C4([H])[H])[N+]([H])([H])C([H])([H])[H])C([H])([H])C3([H])[H])c([H])c([H])c2C1([H])[H]

$$$$
27:0:0
     RDKit          3D

 98107  0  0  1  0  0  0  0  0999 V2000
  -28.4190  -23.5030   20.1340 C   0  0  0  0  0  3  0  0  0  0  0  0
  -28.7690  -22.1210   20.1940 C   0  0  0  0  0  3  0  0  0  0  0  0
  -29.2150  -23.7900   22.3960 C   0  0  0  0  0  3  0  0  0  0  0  0
  -28.6650  -24.3650   21.2320 C   0  0  0  0  0  0  0  0  0  0  0  0
  -29.5850  -22.4260   22.4560 C   0  0  0  0  0  0  0  0  0  0  0  0
  -29.3900  -21.5670   21.3470 C   0  0  0  0  0  0  0  0  0  0  0  0
  -30.2140  -21.9150   23.7360 C   0  0  0  0  0  1  0  0  0  0  0  0
  -29.9800  -20.2770   21.3720 N   0  0  0  0  0  0  0  0  0  0  0  0
  -30.7460  -20.2360   22.0350 H   0  0  0  0  0  0  0  0  0  0  0  0
  -29.2910  -18.9690   21.3300 C   0  0  0  0  0  2  0  0  0  0  0  0
  -28.0660  -18.6190   19.2080 C   0  0  0  0  0  1  0  0  0  0  0  0
  -29.3740  -18.2540   19.9450 C   0  0  0  0  0  3  0  0  0  0  0  0
  -31.2080  -14.7380   20.7460 C   0  0  0  0  0  0  0  0  0  0  0  0
  -30.7990  -12.5170   19.7630 C   0  0  0  0  0  2  0  0  0  0  0  0
  -29.9350  -12.4430   18.4960 C   0  0  0  0  0  2  0  0  0  0  0  0
  -28.4440  -12.3810   18.8610 C   0  0  0  0  0  2  0  0  0  0  0  0
  -28.0210  -13.3680   19.9790 C   0  0  0  0  0  3  0  0  0  0  0  0
  -29.0360  -13.4270   21.1450 C   0  0  0  0  0  2  0  0  0  0  0  0
  -30.3430  -13.6920   20.5340 N   0  0  0  0  0  0  0  0  0  0  0  0
  -32.3800  -14.4360   20.9360 O   0  0  0  0  0  0  0  0  0  0  0  0
  -30.9010  -17.0940   17.6010 C   0  0  0  0  0  2  0  0  0  0  0  0
  -29.7450  -16.3380   18.2990 C   0  0  0  0  0  2  0  0  0  0  0  0
  -32.2500  -16.9730   18.3510 C   0  0  0  0  0  3  0  0  0  0  0  0
  -29.6800  -16.6700   19.8110 C   0  0  0  0  0  3  0  0  0  0  0  0
  -32.1480  -16.8630   19.9020 C   0  0  0  0  0  3  0  0  0  0  0  0
  -33.2860  -18.0260   17.9060 C   0  0  0  0  0  1  0  0  0  0  0  0
  -32.4610  -18.1080   20.7550 C   0  0  0  0  0  1  0  0  0  0  0  0
  -30.9500  -16.0590   20.3420 N   0  0  0  0  0  0  0  0  0  0  0  0
  -25.6170  -14.0190   20.5850 C   0  0  0  0  0  0  0  0  0  0  0  0
  -24.5150  -13.2670   20.8940 C   0  0  0  0  0  0  0  0  0  0  0  0
  -24.9530  -11.9090   20.9170 C   0  0  0  0  0  0  0  0  0  0  0  0
  -26.6550  -13.1160   20.4270 N   0  0  0  0  0  0  0  0  0  0  0  0
  -26.2610  -11.8440   20.7020 N   0  0  0  0  0  0  0  0  0  0  0  0
  -24.1930  -10.6590   21.0680 C   0  0  0  0  0  0  0  0  0  0  0  0
  -24.5610   -9.6780   22.0160 C   0  0  0  0  0  3  0  0  0  0  0  0
  -23.8010   -8.4990   22.1610 C   0  0  0  0  0  3  0  0  0  0  0  0
  -22.6570   -8.2880   21.3530 C   0  0  0  0  0  0  0  0  0  0  0  0
  -22.3080   -9.2560   20.3940 C   0  0  0  0  0  3  0  0  0  0  0  0
  -23.0710  -10.4280   20.2480 C   0  0  0  0  0  3  0  0  0  0  0  0
  -21.8760   -7.1610   21.4040 O   0  0  0  0  0  0  0  0  0  0  0  0
  -21.7670   -6.4140   22.5510 C   0  0  0  0  0  0  0  0  0  0  0  0
  -21.3210   -6.9740   23.7680 C   0  0  0  0  0  3  0  0  0  0  0  0
  -21.1630   -6.1550   24.9030 C   0  0  0  0  0  3  0  0  0  0  0  0
  -21.4370   -4.7760   24.8220 C   0  0  0  0  0  0  0  0  0  0  0  0
  -21.8750   -4.2170   23.6080 C   0  0  0  0  0  3  0  0  0  0  0  0
  -22.0380   -5.0320   22.4770 C   0  0  0  0  0  0  0  0  0  0  0  0
  -22.4410   -4.4840   21.3040 F   0  0  0  0  0  0  0  0  0  0  0  0
  -21.2740   -3.9860   25.9090 F   0  0  0  0  0  0  0  0  0  0  0  0
  -23.1100  -13.7740   21.0580 C   0  0  0  0  0  0  0  0  0  0  0  0
  -22.3160  -13.1070   21.8900 N   0  0  0  0  0  0  0  0  0  0  0  0
  -22.7250  -14.7940   20.4880 O   0  0  0  0  0  0  0  0  0  0  0  0
  -22.6390  -12.2800   22.3690 H   0  0  0  0  0  0  0  0  0  0  0  0
  -21.3710  -13.4270   22.0490 H   0  0  0  0  0  0  0  0  0  0  0  0
  -25.8180  -15.3820   20.3910 N   0  0  0  0  0  0  0  0  0  0  0  0
  -25.0630  -16.0560   20.4390 H   0  0  0  0  0  0  0  0  0  0  0  0
  -26.6990  -15.7940   20.1180 H   0  0  0  0  0  0  0  0  0  0  0  0
  -28.2880  -25.8640   21.2860 C   0  0  0  0  0  2  0  0  0  0  0  0
  -28.2520  -26.6270   20.0580 O   0  0  0  0  0  0  0  0  0  0  0  0
  -24.6020  -31.9160   23.1800 C   0  0  0  0  0  0  0  0  0  0  0  0
  -27.1610  -27.4700   20.0210 C   0  0  0  0  0  0  0  0  0  0  0  0
  -23.3620  -30.5230   21.5570 C   0  0  0  0  0  3  0  0  0  0  0  0
  -24.7860  -28.9990   20.0830 C   0  0  0  0  0  0  0  0  0  0  0  0
  -25.8810  -30.8830   21.3050 C   0  0  0  0  0  2  0  0  0  0  0  0
  -25.9580  -29.5120   20.6550 C   0  0  0  0  0  0  0  0  0  0  0  0
  -27.1530  -28.7520   20.6240 C   0  0  0  0  0  3  0  0  0  0  0  0
  -25.9810  -26.9830   19.4270 C   0  0  0  0  0  3  0  0  0  0  0  0
  -24.7930  -27.7370   19.4630 C   0  0  0  0  0  3  0  0  0  0  0  0
  -23.5430  -29.8580   20.1660 C   0  0  0  0  0  2  0  0  0  0  0  0
  -24.6350  -31.1210   22.0740 N   0  0  0  0  0  0  0  0  0  0  0  0
  -23.5310  -32.1820   23.7450 O   0  0  0  0  0  0  0  0  0  0  0  0
  -22.7330  -29.4930   22.5260 C   0  0  0  0  0  0  0  0  0  0  0  0
  -21.4050  -29.3090   22.4280 N   0  0  0  0  0  0  0  0  0  0  0  0
  -23.4380  -28.8630   23.3190 O   0  0  0  0  0  0  0  0  0  0  0  0
  -20.8930  -29.8730   21.7640 H   0  0  0  0  0  0  0  0  0  0  0  0
  -18.0560  -28.0660   22.9590 C   0  0  0  0  0  0  0  0  0  0  0  0
  -20.6110  -28.3560   23.2020 C   0  0  0  0  0  3  0  0  0  0  0  0
  -20.7300  -26.9260   22.6240 C   0  0  0  0  0  2  0  0  0  0  0  0
  -19.6180  -26.5870   21.6250 C   0  0  0  0  0  2  0  0  0  0  0  0
  -18.2400  -26.7190   22.2820 C   0  0  0  0  0  2  0  0  0  0  0  0
  -19.1670  -28.8420   23.3770 C   0  0  0  0  0  0  0  0  0  0  0  0
  -18.9420  -30.1040   23.9690 C   0  0  0  0  0  3  0  0  0  0  0  0
  -17.6350  -30.5900   24.1450 C   0  0  0  0  0  3  0  0  0  0  0  0
  -16.5350  -29.8130   23.7420 C   0  0  0  0  0  3  0  0  0  0  0  0
  -16.7460  -28.5530   23.1600 C   0  0  0  0  0  3  0  0  0  0  0  0
  -25.8980  -32.5480   23.7730 C   0  0  0  0  0  3  0  0  0  0  0  0
  -26.4580  -31.7620   25.0230 C   0  0  1  0  0  0  0  0  0  0  0  0
  -25.3970  -31.5060   26.1180 C   0  0  0  0  0  1  0  0  0  0  0  0
  -27.0290  -30.3920   24.5930 C   0  0  0  0  0  1  0  0  0  0  0  0
  -27.6270  -32.5490   25.6600 C   0  0  0  0  0  1  0  0  0  0  0  0
  -25.5890  -33.9400   24.1300 N   0  0  0  0  0  0  0  0  0  0  0  0
  -25.9160  -35.0050   23.3850 C   0  0  0  0  0  0  0  0  0  0  0  0
  -26.5800  -34.9170   22.3480 O   0  0  0  0  0  0  0  0  0  0  0  0
  -24.9940  -34.0810   24.9340 H   0  0  0  0  0  0  0  0  0  0  0  0
  -24.1880  -36.8040   23.0600 C   0  0  0  0  0  1  0  0  0  0  0  0
  -25.4290  -36.3860   23.8660 C   0  0  0  0  0  3  0  0  0  0  0  0
  -27.5690  -37.2470   24.7120 C   0  0  0  0  0  1  0  0  0  0  0  0
  -26.4660  -37.4400   23.7730 N   0  0  0  0  0  0  0  0  0  0  0  0
  -26.0620  -38.3590   23.9470 H   0  0  0  0  0  0  0  0  0  0  0  0
  1  2  2  0
  1  4  1  0
  2  6  1  0
  3  5  1  0
  4 57  1  0
  4  3  2  0
  5  7  1  0
  6  8  1  0
  6  5  2  0
  8  9  1  0
 10  8  1  0
 12 11  1  0
 12 10  1  0
 13 20  2  0
 14 19  1  0
 15 16  1  0
 15 14  1  0
 17 16  1  0
 17 32  1  0
 17 18  1  0
 19 13  1  0
 19 18  1  0
 21 22  1  0
 21 23  1  0
 22 24  1  0
 23 26  1  0
 23 25  1  0
 24 12  1  0
 24 28  1  0
 25 28  1  0
 25 27  1  0
 28 13  1  0
 29 30  2  0
 30 31  1  0
 30 49  1  0
 31 34  1  0
 32 29  1  0
 32 33  1  0
 33 31  2  0
 34 35  1  0
 35 36  2  0
 37 40  1  0
 37 36  1  0
 38 37  2  0
 39 38  1  0
 39 34  2  0
 40 41  1  0
 41 42  1  0
 42 43  2  0
 44 43  1  0
 44 48  1  0
 45 44  2  0
 46 41  2  0
 46 45  1  0
 47 46  1  0
 49 50  1  0
 50 53  1  0
 50 52  1  0
 51 49  2  0
 54 55  1  0
 54 29  1  0
 56 54  1  0
 58 57  1  0
 59 70  2  0
 60 58  1  0
 60 65  1  0
 61 69  1  0
 61 71  1  0
 62 68  1  0
 62 64  1  0
 63 69  1  0
 64 63  1  0
 65 64  2  0
 66 67  1  0
 66 60  2  0
 67 62  2  0
 68 61  1  0
 69 59  1  0
 71 73  2  0
 72 71  1  0
 74 72  1  0
 75 84  2  0
 75 80  1  0
 76 72  1  0
 76 80  1  0
 77 76  1  0
 78 79  1  0
 78 77  1  0
 79 75  1  0
 80 81  2  0
 81 82  1  0
 83 82  2  0
 84 83  1  0
 85 59  1  0
 85 90  1  0
 85 86  1  0
 86 89  1  1
 86 87  1  0
 88 86  1  0
 90 93  1  0
 91 95  1  0
 91 90  1  0
 92 91  2  0
 95 94  1  0
 97 95  1  0
 97 98  1  0
 97 96  1  0
M  ISO  4  13 100  28 100  57 101  58 101
M  END
>  <TORSDO>  (28) 
F 20

>  <SCORE>  (28) 
-13.320

>  <name>  (28) 
27

>  <ligand_id>  (28) 
27

>  <original_smiles>  (28) 
[H]c1c([H])c([H])c2c(c1[H])C([H])([H])C([H])([H])C([H])([H])C2([H])N([H])C(=O)C1([H])N(C(=O)C([H])(N([H])C(=O)C([H])(N([H])C([H])([H])[H])C([H])([H])[H])C(C([H])([H])[H])(C([H])([H])[H])C([H])([H])[H])C([H])([H])c2c([H])c(OC([H])([H])c3c([H])c([H])c(N([H])C([H])([H])C([H])(C([H])([H])[H])C4([H])N(C(=O)N5C([H])([H])C([H])([H])C([H])([H])C([H])(n6nc(-c7c([H])c([H])c(Oc8c([H])c([H])c(F)c([H])c8F)c([H])c7[H])c(C(=O)N([H])[H])c6N([H])[H])C5([H])[H])C([H])(C([H])([H])[H])C([H])(C([H])([H])[H])C([H])([H])C4([H])[H])c(C([H])([H])[H])c3[H])c([H])c([H])c2C1([H])[H]

>  <smiles>  (28) 
[H]c1c([H])c([H])c2c(c1[H])C([H])([H])C([H])([H])C([H])([H])C2([H])N([H])C(=O)C1([H])N(C(=O)C([H])(N([H])C(=O)C([H])(N([H])C([H])([H])[H])C([H])([H])[H])C(C([H])([H])[H])(C([H])([H])[H])C([H])([H])[H])C([H])([H])c2c([H])c(OC([H])([H])c3c([H])c([H])c(N([H])C([H])([H])C([H])(C([H])([H])[H])C4([H])N(C(=O)N5C([H])([H])C([H])([H])C([H])([H])C([H])(n6nc(-c7c([H])c([H])c(Oc8c([H])c([H])c(F)c([H])c8F)c([H])c7[H])c(C(=O)N([H])[H])c6N([H])[H])C5([H])[H])C([H])(C([H])([H])[H])C([H])(C([H])([H])[H])C([H])([H])C4([H])[H])c(C([H])([H])[H])c3[H])c([H])c([H])c2C1([H])[H]

$$$$
28:0:0
     RDKit          3D

102111  0  0  1  0  0  0  0  0999 V2000
  -24.0080  -21.5650   19.3800 C   0  0  0  0  0  2  0  0  0  0  0  0
  -25.3670  -21.0130   19.8360 C   0  0  0  0  0  2  0  0  0  0  0  0
  -25.0510  -23.8460   19.0600 C   0  0  0  0  0  2  0  0  0  0  0  0
  -23.8700  -23.0730   19.6820 C   0  0  0  0  0  3  0  0  0  0  0  0
  -26.5290  -21.7950   19.1940 C   0  0  0  0  0  3  0  0  0  0  0  0
  -26.4180  -23.2940   19.5280 C   0  0  0  0  0  3  0  0  0  0  0  0
  -27.5480  -23.9780   18.8730 N   0  0  0  0  0  4  0  0  0  0  0  0
  -27.3160  -24.1220   17.9030 H   0  0  0  0  0  0  0  0  0  0  0  0
  -28.2890  -23.2880   18.8990 H   0  0  0  0  0  0  0  0  0  0  0  0
  -28.0030  -25.2320   19.5130 C   0  0  0  0  0  2  0  0  0  0  0  0
  -28.4510  -26.2700   18.4620 C   0  0  0  0  0  2  0  0  0  0  0  0
  -28.3120  -27.6020   18.9550 O   0  0  0  0  0  0  0  0  0  0  0  0
  -24.3430  -31.7020   23.1500 C   0  0  0  0  0  0  0  0  0  0  0  0
  -27.0500  -28.1240   19.1550 C   0  0  0  0  0  0  0  0  0  0  0  0
  -23.0980  -30.4300   21.4320 C   0  0  0  0  0  3  0  0  0  0  0  0
  -24.5230  -29.2950   19.6490 C   0  0  0  0  0  0  0  0  0  0  0  0
  -25.5340  -31.1070   21.0460 C   0  0  0  0  0  2  0  0  0  0  0  0
  -25.6790  -29.8650   20.1940 C   0  0  0  0  0  0  0  0  0  0  0  0
  -26.9410  -29.2850   19.9490 C   0  0  0  0  0  3  0  0  0  0  0  0
  -25.8690  -27.5610   18.6070 C   0  0  0  0  0  3  0  0  0  0  0  0
  -24.6110  -28.1380   18.8580 C   0  0  0  0  0  3  0  0  0  0  0  0
  -23.2130  -29.9850   19.9490 C   0  0  0  0  0  2  0  0  0  0  0  0
  -24.3480  -31.0870   21.9330 N   0  0  0  0  0  0  0  0  0  0  0  0
  -23.3110  -31.7660   23.8310 O   0  0  0  0  0  0  0  0  0  0  0  0
  -22.6650  -29.2100   22.2760 C   0  0  0  0  0  0  0  0  0  0  0  0
  -21.3800  -28.8380   22.1720 N   0  0  0  0  0  0  0  0  0  0  0  0
  -23.4800  -28.6080   22.9790 O   0  0  0  0  0  0  0  0  0  0  0  0
  -20.7720  -29.3860   21.5790 H   0  0  0  0  0  0  0  0  0  0  0  0
  -18.2940  -26.9960   22.5130 C   0  0  0  0  0  0  0  0  0  0  0  0
  -20.7590  -27.6980   22.8440 C   0  0  0  0  0  3  0  0  0  0  0  0
  -21.1270  -26.3710   22.1420 C   0  0  0  0  0  2  0  0  0  0  0  0
  -20.1010  -25.9430   21.0880 C   0  0  0  0  0  2  0  0  0  0  0  0
  -18.7180  -25.7710   21.7220 C   0  0  0  0  0  2  0  0  0  0  0  0
  -19.2520  -27.9110   23.0270 C   0  0  0  0  0  0  0  0  0  0  0  0
  -18.8030  -29.0540   23.7230 C   0  0  0  0  0  3  0  0  0  0  0  0
  -17.4280  -29.2880   23.9130 C   0  0  0  0  0  3  0  0  0  0  0  0
  -16.4850  -28.3710   23.4160 C   0  0  0  0  0  3  0  0  0  0  0  0
  -16.9180  -27.2280   22.7200 C   0  0  0  0  0  3  0  0  0  0  0  0
  -25.6270  -32.3750   23.7320 C   0  0  0  0  0  3  0  0  0  0  0  0
  -25.2750  -33.7540   24.0960 N   0  0  0  0  0  0  0  0  0  0  0  0
  -25.5810  -34.8350   23.3660 C   0  0  0  0  0  0  0  0  0  0  0  0
  -26.2610  -34.7780   22.3380 O   0  0  0  0  0  0  0  0  0  0  0  0
  -24.6700  -33.8700   24.8960 H   0  0  0  0  0  0  0  0  0  0  0  0
  -23.8200  -36.5960   23.0200 C   0  0  0  0  0  1  0  0  0  0  0  0
  -25.0470  -36.1950   23.8550 C   0  0  0  0  0  3  0  0  0  0  0  0
  -27.1320  -37.1020   24.7820 C   0  0  0  0  0  1  0  0  0  0  0  0
  -26.0570  -37.2740   23.8080 N   0  0  0  0  0  0  0  0  0  0  0  0
  -25.6250  -38.1790   23.9720 H   0  0  0  0  0  0  0  0  0  0  0  0
  -26.2250  -31.6040   24.9710 C   0  0  1  0  0  0  0  0  0  0  0  0
  -25.1900  -31.3170   26.0830 C   0  0  0  0  0  1  0  0  0  0  0  0
  -26.8300  -30.2520   24.5300 C   0  0  0  0  0  1  0  0  0  0  0  0
  -27.3810  -32.4250   25.5910 C   0  0  0  0  0  1  0  0  0  0  0  0
  -21.3140  -23.1640   20.0120 C   0  0  0  0  0  1  0  0  0  0  0  0
  -22.5220  -23.6530   19.2020 C   0  0  0  0  0  2  0  0  0  0  0  0
  -27.8170  -21.3350   19.7020 N   0  0  0  0  0  0  0  0  0  0  0  0
  -27.8040  -21.2440   20.7140 H   0  0  0  0  0  0  0  0  0  0  0  0
  -28.1930  -20.0440   19.1450 C   0  0  0  0  0  2  0  0  0  0  0  0
  -30.5350  -20.3120   20.1060 C   0  0  0  0  0  3  0  0  0  0  0  0
  -29.4820  -18.1420   20.2030 C   0  0  0  0  0  3  0  0  0  0  0  0
  -29.4270  -19.4920   19.8250 C   0  0  0  0  0  0  0  0  0  0  0  0
  -31.6470  -19.7430   20.7460 C   0  0  0  0  0  0  0  0  0  0  0  0
  -30.6480  -17.6380   20.8080 C   0  0  0  0  0  0  0  0  0  0  0  0
  -32.8610  -20.5790   21.0920 C   0  0  0  0  0  1  0  0  0  0  0  0
  -31.7040  -18.4370   21.0890 N   0  0  0  0  0  0  0  0  0  0  0  0
  -31.2740  -15.3240   20.4540 C   0  0  0  0  0  0  0  0  0  0  0  0
  -31.0910  -13.0320   19.5620 C   0  0  0  0  0  2  0  0  0  0  0  0
  -30.1960  -13.0260   18.3080 C   0  0  0  0  0  2  0  0  0  0  0  0
  -28.7090  -12.8930   18.6910 C   0  0  0  0  0  2  0  0  0  0  0  0
  -28.2850  -13.8940   19.7980 C   0  0  0  0  0  3  0  0  0  0  0  0
  -29.2890  -13.8550   20.9720 C   0  0  0  0  0  2  0  0  0  0  0  0
  -30.6400  -14.1230   20.4400 N   0  0  0  0  0  0  0  0  0  0  0  0
  -32.3450  -15.5290   19.8690 O   0  0  0  0  0  0  0  0  0  0  0  0
  -30.6340  -16.2740   21.1460 N   0  0  0  0  0  0  0  0  0  0  0  0
  -29.7890  -15.9480   21.5850 H   0  0  0  0  0  0  0  0  0  0  0  0
  -25.9050  -14.5490   20.5390 C   0  0  0  0  0  0  0  0  0  0  0  0
  -24.8070  -13.7950   20.8550 C   0  0  0  0  0  0  0  0  0  0  0  0
  -25.2140  -12.4320   20.7290 C   0  0  0  0  0  0  0  0  0  0  0  0
  -26.9160  -13.6460   20.2490 N   0  0  0  0  0  0  0  0  0  0  0  0
  -26.5020  -12.3630   20.4170 N   0  0  0  0  0  0  0  0  0  0  0  0
  -24.4400  -11.1890   20.8320 C   0  0  0  0  0  0  0  0  0  0  0  0
  -24.7900  -10.1750   21.7500 C   0  0  0  0  0  3  0  0  0  0  0  0
  -24.0190   -8.9960   21.8430 C   0  0  0  0  0  3  0  0  0  0  0  0
  -22.8840   -8.8240   21.0150 C   0  0  0  0  0  0  0  0  0  0  0  0
  -22.5540   -9.8270   20.0870 C   0  0  0  0  0  3  0  0  0  0  0  0
  -23.3250  -10.9970   19.9930 C   0  0  0  0  0  3  0  0  0  0  0  0
  -22.0920   -7.7010   21.0170 O   0  0  0  0  0  0  0  0  0  0  0  0
  -21.8790   -6.9730   22.1600 C   0  0  0  0  0  0  0  0  0  0  0  0
  -21.2940   -7.5470   23.3110 C   0  0  0  0  0  3  0  0  0  0  0  0
  -21.0290   -6.7450   24.4390 C   0  0  0  0  0  3  0  0  0  0  0  0
  -21.3380   -5.3720   24.4170 C   0  0  0  0  0  0  0  0  0  0  0  0
  -21.9140   -4.7990   23.2700 C   0  0  0  0  0  3  0  0  0  0  0  0
  -22.1810   -5.5960   22.1440 C   0  0  0  0  0  0  0  0  0  0  0  0
  -22.7160   -5.0350   21.0340 F   0  0  0  0  0  0  0  0  0  0  0  0
  -21.0750   -4.6000   25.4980 F   0  0  0  0  0  0  0  0  0  0  0  0
  -23.4280  -14.3070   21.1620 C   0  0  0  0  0  0  0  0  0  0  0  0
  -22.6710  -13.5800   21.9780 N   0  0  0  0  0  0  0  0  0  0  0  0
  -23.0310  -15.3820   20.7160 O   0  0  0  0  0  0  0  0  0  0  0  0
  -23.0030  -12.7070   22.3610 H   0  0  0  0  0  0  0  0  0  0  0  0
  -21.7460  -13.9020   22.2230 H   0  0  0  0  0  0  0  0  0  0  0  0
  -26.1220  -15.9210   20.4560 N   0  0  0  0  0  0  0  0  0  0  0  0
  -25.3750  -16.5910   20.6050 H   0  0  0  0  0  0  0  0  0  0  0  0
  -26.9770  -16.3460   20.1260 H   0  0  0  0  0  0  0  0  0  0  0  0
  1  4  1  0
  1  2  1  0
  3  6  1  0
  3  4  1  0
  4 54  1  0
  5  6  1  0
  5 55  1  0
  5  2  1  0
  6  7  1  0
  7  9  1  0
  7 10  1  0
  8  7  1  0
 11 12  1  0
 11 10  1  0
 12 14  1  0
 13 24  2  0
 14 19  1  0
 15 23  1  0
 15 25  1  0
 16 22  1  0
 16 18  1  0
 17 23  1  0
 18 17  1  0
 19 18  2  0
 20 21  1  0
 20 14  2  0
 21 16  2  0
 22 15  1  0
 23 13  1  0
 25 27  2  0
 26 25  1  0
 28 26  1  0
 29 38  2  0
 29 34  1  0
 30 26  1  0
 30 34  1  0
 31 30  1  0
 32 33  1  0
 32 31  1  0
 33 29  1  0
 34 35  2  0
 35 36  1  0
 37 36  2  0
 38 37  1  0
 39 13  1  0
 39 40  1  0
 39 49  1  0
 40 43  1  0
 41 45  1  0
 41 40  1  0
 42 41  2  0
 45 44  1  0
 47 45  1  0
 47 48  1  0
 47 46  1  0
 49 52  1  1
 49 50  1  0
 51 49  1  0
 54 53  1  0
 55 56  1  0
 57 55  1  0
 57 60  1  0
 58 61  1  0
 59 62  2  0
 60 58  2  0
 60 59  1  0
 61 64  2  0
 61 63  1  0
 62 64  1  0
 62 73  1  0
 65 73  1  0
 66 71  1  0
 67 68  1  0
 67 66  1  0
 69 68  1  0
 69 78  1  0
 69 70  1  0
 71 65  1  0
 71 70  1  0
 72 65  2  0
 73 74  1  0
 75 76  2  0
 76 95  1  0
 77 80  1  0
 77 76  1  0
 78 79  1  0
 78 75  1  0
 79 77  2  0
 80 81  1  0
 81 82  2  0
 83 86  1  0
 83 82  1  0
 84 83  2  0
 85 84  1  0
 85 80  2  0
 86 87  1  0
 87 88  1  0
 88 89  2  0
 90 89  1  0
 90 94  1  0
 91 90  2  0
 92 87  2  0
 92 91  1  0
 93 92  1  0
 95 96  1  0
 96 99  1  0
 96 98  1  0
 97 95  2  0
100 75  1  0
100101  1  0
102100  1  0
M  ISO  4  11 101  12 101  65 100  73 100
M  END
>  <TORSDO>  (29) 
F 23

>  <SCORE>  (29) 
-8.422

>  <name>  (29) 
28

>  <ligand_id>  (29) 
28

>  <original_smiles>  (29) 
[H]c1c([H])c([H])c2c(c1[H])C([H])([H])C([H])([H])C([H])([H])C2([H])N([H])C(=O)C1([H])N(C(=O)C([H])(N([H])C(=O)C([H])(N([H])C([H])([H])[H])C([H])([H])[H])C(C([H])([H])[H])(C([H])([H])[H])C([H])([H])[H])C([H])([H])c2c([H])c(OC([H])([H])C([H])([H])[N+]([H])([H])C3([H])C([H])([H])C([H])(C([H])([H])C([H])([H])[H])C([H])([H])C([H])([H])C3([H])N([H])C([H])([H])c3c([H])c(N([H])C(=O)N4C([H])([H])C([H])([H])C([H])([H])C([H])(n5nc(-c6c([H])c([H])c(Oc7c([H])c([H])c(F)c([H])c7F)c([H])c6[H])c(C(=O)N([H])[H])c5N([H])[H])C4([H])[H])nc(C([H])([H])[H])c3[H])c([H])c([H])c2C1([H])[H]

>  <smiles>  (29) 
[H]c1c([H])c([H])c2c(c1[H])C([H])([H])C([H])([H])C([H])([H])C2([H])N([H])C(=O)C1([H])N(C(=O)C([H])(N([H])C(=O)C([H])(N([H])C([H])([H])[H])C([H])([H])[H])C(C([H])([H])[H])(C([H])([H])[H])C([H])([H])[H])C([H])([H])c2c([H])c(OC([H])([H])C([H])([H])[N+]([H])([H])C3([H])C([H])([H])C([H])(C([H])([H])C([H])([H])[H])C([H])([H])C([H])([H])C3([H])N([H])C([H])([H])c3c([H])c(N([H])C(=O)N4C([H])([H])C([H])([H])C([H])([H])C([H])(n5nc(-c6c([H])c([H])c(Oc7c([H])c([H])c(F)c([H])c7F)c([H])c6[H])c(C(=O)N([H])[H])c5N([H])[H])C4([H])[H])nc(C([H])([H])[H])c3[H])c([H])c([H])c2C1([H])[H]

$$$$
29:0:0
     RDKit          3D

100109  0  0  1  0  0  0  0  0999 V2000
  -30.8500  -24.1520   21.1900 C   0  0  0  0  0  3  0  0  0  0  0  0
  -30.4610  -22.8010   21.1910 C   0  0  0  0  0  3  0  0  0  0  0  0
  -29.8010  -24.3470   19.0170 C   0  0  0  0  0  3  0  0  0  0  0  0
  -30.4980  -24.9430   20.0820 C   0  0  0  0  0  0  0  0  0  0  0  0
  -29.7390  -22.3080   20.0910 C   0  0  0  0  0  0  0  0  0  0  0  0
  -29.4240  -23.0540   19.0210 N   0  0  0  0  0  0  0  0  0  0  0  0
  -29.2520  -21.0080   20.0390 N   0  0  0  0  0  0  0  0  0  0  0  0
  -28.6900  -20.8170   19.2190 H   0  0  0  0  0  0  0  0  0  0  0  0
  -30.7890  -26.4320   20.0480 C   0  0  0  0  0  2  0  0  0  0  0  0
  -29.6050  -27.2630   20.5680 C   0  0  0  0  0  2  0  0  0  0  0  0
  -28.3870  -26.7440   20.0270 O   0  0  0  0  0  0  0  0  0  0  0  0
  -24.5800  -31.8850   23.2320 C   0  0  0  0  0  0  0  0  0  0  0  0
  -27.2340  -27.4890   20.1340 C   0  0  0  0  0  0  0  0  0  0  0  0
  -23.3570  -30.4790   21.6000 C   0  0  0  0  0  3  0  0  0  0  0  0
  -24.8060  -28.9380   20.1730 C   0  0  0  0  0  0  0  0  0  0  0  0
  -25.8730  -30.8530   21.3780 C   0  0  0  0  0  2  0  0  0  0  0  0
  -25.9580  -29.4780   20.7530 C   0  0  0  0  0  0  0  0  0  0  0  0
  -27.1680  -28.7600   20.7480 C   0  0  0  0  0  3  0  0  0  0  0  0
  -26.0630  -26.9470   19.5650 C   0  0  0  0  0  3  0  0  0  0  0  0
  -24.8480  -27.6610   19.5830 C   0  0  0  0  0  3  0  0  0  0  0  0
  -23.5570  -29.7890   20.2220 C   0  0  0  0  0  2  0  0  0  0  0  0
  -24.6200  -31.0860   22.1280 N   0  0  0  0  0  0  0  0  0  0  0  0
  -23.5040  -32.1590   23.7820 O   0  0  0  0  0  0  0  0  0  0  0  0
  -22.7170  -29.4600   22.5680 C   0  0  0  0  0  0  0  0  0  0  0  0
  -21.3930  -29.2720   22.4450 N   0  0  0  0  0  0  0  0  0  0  0  0
  -23.4060  -28.8420   23.3840 O   0  0  0  0  0  0  0  0  0  0  0  0
  -20.8980  -29.8230   21.7570 H   0  0  0  0  0  0  0  0  0  0  0  0
  -18.0270  -28.0650   22.9450 C   0  0  0  0  0  0  0  0  0  0  0  0
  -20.5830  -28.3370   23.2220 C   0  0  0  0  0  3  0  0  0  0  0  0
  -20.6930  -26.9010   22.6580 C   0  0  0  0  0  2  0  0  0  0  0  0
  -19.5950  -26.5660   21.6430 C   0  0  0  0  0  2  0  0  0  0  0  0
  -18.2120  -26.7110   22.2820 C   0  0  0  0  0  2  0  0  0  0  0  0
  -19.1420  -28.8360   23.3720 C   0  0  0  0  0  0  0  0  0  0  0  0
  -18.9170  -30.1040   23.9500 C   0  0  0  0  0  3  0  0  0  0  0  0
  -17.6100  -30.6020   24.1070 C   0  0  0  0  0  3  0  0  0  0  0  0
  -16.5100  -29.8290   23.6980 C   0  0  0  0  0  3  0  0  0  0  0  0
  -16.7200  -28.5630   23.1210 C   0  0  0  0  0  3  0  0  0  0  0  0
  -25.8730  -32.5140   23.8380 C   0  0  0  0  0  3  0  0  0  0  0  0
  -25.5690  -33.9090   24.1760 N   0  0  0  0  0  0  0  0  0  0  0  0
  -25.8990  -34.9630   23.4180 C   0  0  0  0  0  0  0  0  0  0  0  0
  -26.5630  -34.8640   22.3830 O   0  0  0  0  0  0  0  0  0  0  0  0
  -24.9770  -34.0610   24.9800 H   0  0  0  0  0  0  0  0  0  0  0  0
  -24.1710  -36.7570   23.0780 C   0  0  0  0  0  1  0  0  0  0  0  0
  -25.4140  -36.3490   23.8840 C   0  0  0  0  0  3  0  0  0  0  0  0
  -27.5530  -37.2250   24.7100 C   0  0  0  0  0  1  0  0  0  0  0  0
  -26.4460  -37.4020   23.7740 N   0  0  0  0  0  0  0  0  0  0  0  0
  -26.0410  -38.3210   23.9290 H   0  0  0  0  0  0  0  0  0  0  0  0
  -26.4140  -31.7350   25.1000 C   0  0  1  0  0  0  0  0  0  0  0  0
  -25.3400  -31.4890   26.1850 C   0  0  0  0  0  1  0  0  0  0  0  0
  -26.9950  -30.3620   24.6880 C   0  0  0  0  0  1  0  0  0  0  0  0
  -27.5730  -32.5290   25.7480 C   0  0  0  0  0  1  0  0  0  0  0  0
  -30.1500  -19.9310   20.4260 C   0  0  0  0  0  2  0  0  0  0  0  0
  -31.0300  -18.6670   17.0320 C   0  0  0  0  0  2  0  0  0  0  0  0
  -31.6540  -17.3020   17.3800 C   0  0  0  0  0  2  0  0  0  0  0  0
  -30.2230  -18.8990   19.2860 C   0  0  0  0  0  3  0  0  0  0  0  0
  -30.8440  -17.5310   19.6890 C   0  0  0  0  0  3  0  0  0  0  0  0
  -31.0140  -19.5210   18.2200 N   0  0  0  0  0  0  0  0  0  0  0  0
  -30.8990  -16.6730   18.4820 N   0  0  0  0  0  4  0  0  0  0  0  0
  -30.6040  -20.4240   17.9920 H   0  0  0  0  0  0  0  0  0  0  0  0
  -31.3600  -15.8130   18.7610 H   0  0  0  0  0  0  0  0  0  0  0  0
  -29.9670  -16.4700   18.1650 H   0  0  0  0  0  0  0  0  0  0  0  0
  -30.0810  -16.8870   20.8940 C   0  0  0  0  0  2  0  0  0  0  0  0
  -30.6870  -14.4230   20.6080 C   0  0  0  0  0  0  0  0  0  0  0  0
  -30.4420  -12.2730   19.4600 C   0  0  0  0  0  2  0  0  0  0  0  0
  -29.5310  -12.4880   18.2320 C   0  0  0  0  0  2  0  0  0  0  0  0
  -28.0410  -12.3700   18.6140 C   0  0  0  0  0  2  0  0  0  0  0  0
  -27.6710  -13.2040   19.8700 C   0  0  0  0  0  3  0  0  0  0  0  0
  -28.6900  -12.9530   21.0080 C   0  0  0  0  0  2  0  0  0  0  0  0
  -30.0380  -13.2420   20.4840 N   0  0  0  0  0  0  0  0  0  0  0  0
  -31.8240  -14.6460   20.1810 O   0  0  0  0  0  0  0  0  0  0  0  0
  -29.8740  -15.4340   20.9290 N   0  0  0  0  0  0  0  0  0  0  0  0
  -28.9500  -15.1400   21.2150 H   0  0  0  0  0  0  0  0  0  0  0  0
  -25.2450  -13.8310   20.4750 C   0  0  0  0  0  0  0  0  0  0  0  0
  -24.1640  -13.0680   20.8260 C   0  0  0  0  0  0  0  0  0  0  0  0
  -24.6260  -11.7170   20.8390 C   0  0  0  0  0  0  0  0  0  0  0  0
  -26.2980  -12.9450   20.3020 N   0  0  0  0  0  0  0  0  0  0  0  0
  -25.9250  -11.6700   20.5740 N   0  0  0  0  0  0  0  0  0  0  0  0
  -23.8950  -10.4570   21.0310 C   0  0  0  0  0  0  0  0  0  0  0  0
  -24.3130   -9.4990   21.9810 C   0  0  0  0  0  3  0  0  0  0  0  0
  -23.5850   -8.3030   22.1580 C   0  0  0  0  0  3  0  0  0  0  0  0
  -22.4250   -8.0570   21.3860 C   0  0  0  0  0  0  0  0  0  0  0  0
  -22.0270   -9.0030   20.4260 C   0  0  0  0  0  3  0  0  0  0  0  0
  -22.7560  -10.1910   20.2460 C   0  0  0  0  0  3  0  0  0  0  0  0
  -21.6700   -6.9130   21.4740 O   0  0  0  0  0  0  0  0  0  0  0  0
  -21.6180   -6.1710   22.6270 C   0  0  0  0  0  0  0  0  0  0  0  0
  -21.2040   -6.7300   23.8550 C   0  0  0  0  0  3  0  0  0  0  0  0
  -21.0970   -5.9160   24.9990 C   0  0  0  0  0  3  0  0  0  0  0  0
  -21.3960   -4.5420   24.9160 C   0  0  0  0  0  0  0  0  0  0  0  0
  -21.8030   -3.9820   23.6930 C   0  0  0  0  0  3  0  0  0  0  0  0
  -21.9110   -4.7950   22.5510 C   0  0  0  0  0  0  0  0  0  0  0  0
  -22.2840   -4.2460   21.3710 F   0  0  0  0  0  0  0  0  0  0  0  0
  -21.2860   -3.7580   26.0140 F   0  0  0  0  0  0  0  0  0  0  0  0
  -22.7580  -13.5510   21.0410 C   0  0  0  0  0  0  0  0  0  0  0  0
  -21.9990  -12.8720   21.8960 N   0  0  0  0  0  0  0  0  0  0  0  0
  -22.3370  -14.5660   20.4870 O   0  0  0  0  0  0  0  0  0  0  0  0
  -22.3510  -12.0530   22.3690 H   0  0  0  0  0  0  0  0  0  0  0  0
  -21.0540  -13.1780   22.0800 H   0  0  0  0  0  0  0  0  0  0  0  0
  -25.4160  -15.1980   20.2730 N   0  0  0  0  0  0  0  0  0  0  0  0
  -24.6440  -15.8530   20.3350 H   0  0  0  0  0  0  0  0  0  0  0  0
  -26.2670  -15.6270   19.9370 H   0  0  0  0  0  0  0  0  0  0  0  0
  1  2  1  0
  3  6  2  0
  3  4  1  0
  4  1  2  0
  5  2  2  0
  6  5  1  0
  7  5  1  0
  7 52  1  0
  8  7  1  0
  9  4  1  0
  9 10  1  0
 11 13  1  0
 11 10  1  0
 12 23  2  0
 13 18  1  0
 14 22  1  0
 14 24  1  0
 15 21  1  0
 15 17  1  0
 16 22  1  0
 17 16  1  0
 18 17  2  0
 19 20  1  0
 19 13  2  0
 20 15  2  0
 21 14  1  0
 22 12  1  0
 24 26  2  0
 25 24  1  0
 27 25  1  0
 28 37  2  0
 28 33  1  0
 29 25  1  0
 29 33  1  0
 30 29  1  0
 31 32  1  0
 31 30  1  0
 32 28  1  0
 33 34  2  0
 34 35  1  0
 36 35  2  0
 37 36  1  0
 38 12  1  0
 38 39  1  0
 38 48  1  0
 39 42  1  0
 40 44  1  0
 40 39  1  0
 41 40  2  0
 44 43  1  0
 46 44  1  0
 46 47  1  0
 46 45  1  0
 48 51  1  1
 48 49  1  0
 50 48  1  0
 53 54  1  0
 53 57  1  0
 54 58  1  0
 55 56  1  0
 55 52  1  0
 56 62  1  0
 57 55  1  0
 58 60  1  0
 58 56  1  0
 59 57  1  0
 61 58  1  0
 62 71  1  0
 63 71  1  0
 64 69  1  0
 65 66  1  0
 65 64  1  0
 67 66  1  0
 67 76  1  0
 67 68  1  0
 69 63  1  0
 69 68  1  0
 70 63  2  0
 71 72  1  0
 73 74  2  0
 74 75  1  0
 74 93  1  0
 75 78  1  0
 76 73  1  0
 76 77  1  0
 77 75  2  0
 78 79  1  0
 79 80  2  0
 81 84  1  0
 81 80  1  0
 82 81  2  0
 83 82  1  0
 83 78  2  0
 84 85  1  0
 85 86  1  0
 86 87  2  0
 88 87  1  0
 88 92  1  0
 89 88  2  0
 90 85  2  0
 90 89  1  0
 91 90  1  0
 93 94  1  0
 94 97  1  0
 94 96  1  0
 95 93  2  0
 98 99  1  0
 98 73  1  0
100 98  1  0
M  ISO  4  10 101  11 101  63 100  71 100
M  END
>  <TORSDO>  (30) 
F 21

>  <SCORE>  (30) 
-13.740

>  <name>  (30) 
29

>  <ligand_id>  (30) 
29

>  <original_smiles>  (30) 
[H]c1nc(N([H])C([H])([H])C2([H])N([H])C([H])([H])C([H])([H])[N+]([H])([H])C2([H])C([H])([H])N([H])C(=O)N2C([H])([H])C([H])([H])C([H])([H])C([H])(n3nc(-c4c([H])c([H])c(Oc5c([H])c([H])c(F)c([H])c5F)c([H])c4[H])c(C(=O)N([H])[H])c3N([H])[H])C2([H])[H])c([H])c([H])c1C([H])([H])C([H])([H])Oc1c([H])c([H])c2c(c1[H])C([H])([H])N(C(=O)C([H])(N([H])C(=O)C([H])(N([H])C([H])([H])[H])C([H])([H])[H])C(C([H])([H])[H])(C([H])([H])[H])C([H])([H])[H])C([H])(C(=O)N([H])C1([H])c3c([H])c([H])c([H])c([H])c3C([H])([H])C([H])([H])C1([H])[H])C2([H])[H]

>  <smiles>  (30) 
[H]c1nc(N([H])C([H])([H])C2([H])N([H])C([H])([H])C([H])([H])[N+]([H])([H])C2([H])C([H])([H])N([H])C(=O)N2C([H])([H])C([H])([H])C([H])([H])C([H])(n3nc(-c4c([H])c([H])c(Oc5c([H])c([H])c(F)c([H])c5F)c([H])c4[H])c(C(=O)N([H])[H])c3N([H])[H])C2([H])[H])c([H])c([H])c1C([H])([H])C([H])([H])Oc1c([H])c([H])c2c(c1[H])C([H])([H])N(C(=O)C([H])(N([H])C(=O)C([H])(N([H])C([H])([H])[H])C([H])([H])[H])C(C([H])([H])[H])(C([H])([H])[H])C([H])([H])[H])C([H])(C(=O)N([H])C1([H])c3c([H])c([H])c([H])c([H])c3C([H])([H])C([H])([H])C1([H])[H])C2([H])[H]

$$$$
30:0:0
     RDKit          3D

 97106  0  0  1  0  0  0  0  0999 V2000
  -30.1760  -15.4970   20.1880 C   0  0  0  0  0  0  0  0  0  0  0  0
  -30.3680  -12.9440   19.6180 C   0  0  0  0  0  2  0  0  0  0  0  0
  -29.5020  -12.4730   18.4220 C   0  0  0  0  0  2  0  0  0  0  0  0
  -28.0640  -12.1560   18.8720 C   0  0  0  0  0  2  0  0  0  0  0  0
  -27.5140  -13.2280   19.8460 C   0  0  0  0  0  3  0  0  0  0  0  0
  -28.5200  -13.6160   20.9480 C   0  0  0  0  0  2  0  0  0  0  0  0
  -29.7040  -14.1470   20.2500 N   0  0  0  0  0  0  0  0  0  0  0  0
  -31.4150  -15.5330   20.0910 O   0  0  0  0  0  0  0  0  0  0  0  0
  -30.1440  -20.1550   21.5620 C   0  0  0  0  0  3  0  0  0  0  0  0
  -30.1050  -18.7980   21.1600 C   0  0  0  0  0  3  0  0  0  0  0  0
  -29.4460  -21.2150   20.9130 C   0  0  0  0  0  0  0  0  0  0  0  0
  -28.6560  -20.9630   19.7630 C   0  0  0  0  0  0  0  0  0  0  0  0
  -29.3310  -18.3470   20.0790 C   0  0  0  0  0  0  0  0  0  0  0  0
  -28.6330  -19.5020   19.4190 N   0  0  0  0  0  0  0  0  0  0  0  0
  -29.3170  -16.7130   19.9470 N   0  0  0  0  0  0  0  0  0  0  0  0
  -28.3970  -16.3980   19.6860 H   0  0  0  0  0  0  0  0  0  0  0  0
  -29.3940  -24.2210   23.1540 C   0  0  0  0  0  2  0  0  0  0  0  0
  -30.6190  -24.7420   21.0090 C   0  0  0  0  0  2  0  0  0  0  0  0
  -29.4950  -22.7220   22.8210 C   0  0  0  0  0  2  0  0  0  0  0  0
  -30.7090  -23.2330   20.7300 C   0  0  0  0  0  2  0  0  0  0  0  0
  -30.5580  -25.0190   22.5240 C   0  0  0  0  0  3  0  0  0  0  0  0
  -29.6010  -22.5320   21.3730 N   0  0  0  0  0  0  0  0  0  0  0  0
  -30.4450  -26.4640   22.7920 N   0  0  0  0  0  4  0  0  0  0  0  0
  -29.5840  -26.8360   22.4340 H   0  0  0  0  0  0  0  0  0  0  0  0
  -31.2060  -26.9540   22.3540 H   0  0  0  0  0  0  0  0  0  0  0  0
  -30.4900  -26.6510   23.7780 H   0  0  0  0  0  0  0  0  0  0  0  0
  -25.1710  -13.7610   20.6820 C   0  0  0  0  0  0  0  0  0  0  0  0
  -24.1110  -12.9730   21.0330 C   0  0  0  0  0  0  0  0  0  0  0  0
  -24.5690  -11.6240   20.9290 C   0  0  0  0  0  0  0  0  0  0  0  0
  -26.2010  -12.8910   20.3740 N   0  0  0  0  0  0  0  0  0  0  0  0
  -25.8540  -11.5960   20.5920 N   0  0  0  0  0  0  0  0  0  0  0  0
  -23.8350  -10.3600   21.0700 C   0  0  0  0  0  0  0  0  0  0  0  0
  -24.2400   -9.3690   21.9910 C   0  0  0  0  0  3  0  0  0  0  0  0
  -23.5040   -8.1720   22.1230 C   0  0  0  0  0  3  0  0  0  0  0  0
  -22.3490   -7.9580   21.3340 C   0  0  0  0  0  0  0  0  0  0  0  0
  -21.9650   -8.9360   20.4010 C   0  0  0  0  0  3  0  0  0  0  0  0
  -22.7010  -10.1250   20.2660 C   0  0  0  0  0  3  0  0  0  0  0  0
  -21.5870   -6.8150   21.3770 O   0  0  0  0  0  0  0  0  0  0  0  0
  -21.4290   -6.0990   22.5360 C   0  0  0  0  0  0  0  0  0  0  0  0
  -20.8620   -6.6730   23.6950 C   0  0  0  0  0  3  0  0  0  0  0  0
  -20.6510   -5.8830   24.8420 C   0  0  0  0  0  3  0  0  0  0  0  0
  -20.9980   -4.5180   24.8310 C   0  0  0  0  0  0  0  0  0  0  0  0
  -21.5570   -3.9430   23.6760 C   0  0  0  0  0  3  0  0  0  0  0  0
  -21.7680   -4.7310   22.5310 C   0  0  0  0  0  0  0  0  0  0  0  0
  -22.2880   -4.1670   21.4150 F   0  0  0  0  0  0  0  0  0  0  0  0
  -20.7880   -3.7570   25.9300 F   0  0  0  0  0  0  0  0  0  0  0  0
  -22.7220  -13.4480   21.3460 C   0  0  0  0  0  0  0  0  0  0  0  0
  -21.9990  -12.7130   22.1810 N   0  0  0  0  0  0  0  0  0  0  0  0
  -22.2910  -14.5050   20.8870 O   0  0  0  0  0  0  0  0  0  0  0  0
  -22.3630  -11.8570   22.5720 H   0  0  0  0  0  0  0  0  0  0  0  0
  -21.0660  -13.0080   22.4310 H   0  0  0  0  0  0  0  0  0  0  0  0
  -25.3370  -15.1380   20.5670 N   0  0  0  0  0  0  0  0  0  0  0  0
  -24.5700  -15.7850   20.7110 H   0  0  0  0  0  0  0  0  0  0  0  0
  -26.1710  -15.5910   20.2200 H   0  0  0  0  0  0  0  0  0  0  0  0
  -28.0660  -22.4140   18.9090 C   0  0  0  0  0  2  0  0  0  0  0  0
  -27.3700  -24.0640   19.3620 C   0  0  0  0  0  2  0  0  0  0  0  0
  -27.3860  -25.6620   18.8340 O   0  0  0  0  0  0  0  0  0  0  0  0
  -24.5870  -31.5430   22.8120 C   0  0  0  0  0  0  0  0  0  0  0  0
  -26.4450  -26.8080   19.0870 C   0  0  0  0  0  0  0  0  0  0  0  0
  -23.1240  -30.3790   21.2140 C   0  0  0  0  0  3  0  0  0  0  0  0
  -24.2880  -28.8330   19.4930 C   0  0  0  0  0  0  0  0  0  0  0  0
  -25.6670  -30.4570   20.7740 C   0  0  0  0  0  2  0  0  0  0  0  0
  -25.5680  -29.1080   19.9910 C   0  0  0  0  0  0  0  0  0  0  0  0
  -26.6400  -28.1250   19.7570 C   0  0  0  0  0  3  0  0  0  0  0  0
  -25.1350  -26.6970   18.5700 C   0  0  0  0  0  3  0  0  0  0  0  0
  -24.0980  -27.6500   18.7630 C   0  0  0  0  0  3  0  0  0  0  0  0
  -23.1490  -29.8180   19.7660 C   0  0  0  0  0  2  0  0  0  0  0  0
  -24.4900  -30.8150   21.6520 N   0  0  0  0  0  0  0  0  0  0  0  0
  -23.5850  -31.8360   23.4860 O   0  0  0  0  0  0  0  0  0  0  0  0
  -22.4850  -29.3320   22.1650 C   0  0  0  0  0  0  0  0  0  0  0  0
  -21.1470  -29.1920   22.1320 N   0  0  0  0  0  0  0  0  0  0  0  0
  -23.2010  -28.6480   22.9010 O   0  0  0  0  0  0  0  0  0  0  0  0
  -20.6210  -29.8000   21.5190 H   0  0  0  0  0  0  0  0  0  0  0  0
  -17.8070  -27.9050   22.7250 C   0  0  0  0  0  0  0  0  0  0  0  0
  -20.3690  -28.2140   22.9010 C   0  0  0  0  0  3  0  0  0  0  0  0
  -20.4740  -26.8020   22.2750 C   0  0  0  0  0  2  0  0  0  0  0  0
  -19.3400  -26.4910   21.2930 C   0  0  0  0  0  2  0  0  0  0  0  0
  -17.9820  -26.5840   21.9950 C   0  0  0  0  0  2  0  0  0  0  0  0
  -18.9260  -28.6770   23.1380 C   0  0  0  0  0  0  0  0  0  0  0  0
  -18.7040  -29.9090   23.7900 C   0  0  0  0  0  3  0  0  0  0  0  0
  -17.3970  -30.3710   24.0330 C   0  0  0  0  0  3  0  0  0  0  0  0
  -16.2930  -29.5970   23.6340 C   0  0  0  0  0  3  0  0  0  0  0  0
  -16.4990  -28.3670   22.9850 C   0  0  0  0  0  3  0  0  0  0  0  0
  -25.9590  -32.0580   23.3410 C   0  0  0  0  0  3  0  0  0  0  0  0
  -26.6160  -31.0860   24.4000 C   0  0  1  0  0  0  0  0  0  0  0  0
  -25.6740  -30.7100   25.5700 C   0  0  0  0  0  1  0  0  0  0  0  0
  -27.0780  -29.7690   23.7330 C   0  0  0  0  0  1  0  0  0  0  0  0
  -27.8800  -31.7450   24.9980 C   0  0  0  0  0  1  0  0  0  0  0  0
  -25.7440  -33.3860   23.9430 N   0  0  0  0  0  0  0  0  0  0  0  0
  -26.0710  -34.5530   23.3730 C   0  0  0  0  0  0  0  0  0  0  0  0
  -26.6440  -34.6200   22.2830 O   0  0  0  0  0  0  0  0  0  0  0  0
  -25.2240  -33.4090   24.8070 H   0  0  0  0  0  0  0  0  0  0  0  0
  -24.4360  -36.4650   23.5170 C   0  0  0  0  0  1  0  0  0  0  0  0
  -25.7050  -35.8470   24.1270 C   0  0  0  0  0  3  0  0  0  0  0  0
  -27.9440  -36.4640   24.9310 C   0  0  0  0  0  1  0  0  0  0  0  0
  -26.7880  -36.8560   24.1290 N   0  0  0  0  0  0  0  0  0  0  0  0
  -26.4490  -37.7480   24.4770 H   0  0  0  0  0  0  0  0  0  0  0  0
  1  7  1  0
  2  7  1  0
  3  4  1  0
  3  2  1  0
  5  4  1  0
  5 30  1  0
  5  6  1  0
  7  6  1  0
  8  1  2  0
 10  9  1  0
 11 22  1  0
 11  9  2  0
 12 11  1  0
 13 10  2  0
 14 12  2  0
 14 13  1  0
 15 13  1  0
 15  1  1  0
 16 15  1  0
 18 21  1  0
 19 17  1  0
 20 18  1  0
 20 22  1  0
 21 23  1  0
 21 17  1  0
 22 19  1  0
 23 26  1  0
 24 23  1  0
 25 23  1  0
 27 28  2  0
 28 47  1  0
 29 28  1  0
 29 32  1  0
 30 31  1  0
 30 27  1  0
 31 29  2  0
 32 33  1  0
 33 34  2  0
 35 38  1  0
 35 34  1  0
 36 35  2  0
 37 36  1  0
 37 32  2  0
 38 39  1  0
 39 40  1  0
 40 41  2  0
 42 41  1  0
 42 46  1  0
 43 42  2  0
 44 39  2  0
 44 43  1  0
 45 44  1  0
 47 48  1  0
 48 51  1  0
 48 50  1  0
 49 47  2  0
 52 27  1  0
 52 53  1  0
 54 52  1  0
 55 56  1  0
 55 12  1  0
 57 59  1  0
 57 56  1  0
 58 69  2  0
 59 64  1  0
 60 68  1  0
 60 70  1  0
 61 67  1  0
 61 63  1  0
 62 68  1  0
 63 62  1  0
 64 63  2  0
 65 66  1  0
 65 59  2  0
 66 61  2  0
 67 60  1  0
 68 58  1  0
 70 72  2  0
 71 70  1  0
 73 71  1  0
 74 83  2  0
 74 79  1  0
 75 71  1  0
 75 79  1  0
 76 75  1  0
 77 78  1  0
 77 76  1  0
 78 74  1  0
 79 80  2  0
 80 81  1  0
 82 81  2  0
 83 82  1  0
 84 58  1  0
 84 89  1  0
 84 85  1  0
 85 88  1  1
 85 86  1  0
 87 85  1  0
 89 92  1  0
 90 89  1  0
 90 94  1  0
 91 90  2  0
 94 93  1  0
 94 96  1  0
 96 97  1  0
 96 95  1  0
M  ISO  4   1 100  15 100  56 101  57 101
M  END
>  <TORSDO>  (31) 
F 19

>  <SCORE>  (31) 
-13.994

>  <name>  (31) 
30

>  <ligand_id>  (31) 
30

>  <original_smiles>  (31) 
[H]c1c(N([H])C(=O)N2C([H])([H])C([H])([H])C([H])([H])C([H])(n3nc(-c4c([H])c([H])c(Oc5c([H])c([H])c(F)c([H])c5F)c([H])c4[H])c(C(=O)N([H])[H])c3N([H])[H])C2([H])[H])nc(C([H])([H])C([H])([H])Oc2c([H])c([H])c3c(c2[H])C([H])([H])N(C(=O)C([H])(N([H])C(=O)C([H])(N([H])C([H])([H])[H])C([H])([H])[H])C(C([H])([H])[H])(C([H])([H])[H])C([H])([H])[H])C([H])(C(=O)N([H])C2([H])c4c([H])c([H])c([H])c([H])c4C([H])([H])C([H])([H])C2([H])[H])C3([H])[H])c(N2C([H])([H])C([H])([H])C([H])([N+]([H])([H])[H])C([H])([H])C2([H])[H])c1[H]

>  <smiles>  (31) 
[H]c1c(N([H])C(=O)N2C([H])([H])C([H])([H])C([H])([H])C([H])(n3nc(-c4c([H])c([H])c(Oc5c([H])c([H])c(F)c([H])c5F)c([H])c4[H])c(C(=O)N([H])[H])c3N([H])[H])C2([H])[H])nc(C([H])([H])C([H])([H])Oc2c([H])c([H])c3c(c2[H])C([H])([H])N(C(=O)C([H])(N([H])C(=O)C([H])(N([H])C([H])([H])[H])C([H])([H])[H])C(C([H])([H])[H])(C([H])([H])[H])C([H])([H])[H])C([H])(C(=O)N([H])C2([H])c4c([H])c([H])c([H])c([H])c4C([H])([H])C([H])([H])C2([H])[H])C3([H])[H])c(N2C([H])([H])C([H])([H])C([H])([N+]([H])([H])[H])C([H])([H])C2([H])[H])c1[H]

$$$$
31:0:0
     RDKit          3D

 94103  0  0  1  0  0  0  0  0999 V2000
  -29.6490  -22.4990   21.9150 C   0  0  0  0  0  3  0  0  0  0  0  0
  -28.7480  -22.7930   19.6740 C   0  0  0  0  0  3  0  0  0  0  0  0
  -29.4560  -23.8690   22.1760 C   0  0  0  0  0  3  0  0  0  0  0  0
  -28.5740  -24.1630   19.9300 C   0  0  0  0  0  3  0  0  0  0  0  0
  -29.3050  -21.9470   20.6600 C   0  0  0  0  0  0  0  0  0  0  0  0
  -28.9340  -24.7140   21.1780 C   0  0  0  0  0  0  0  0  0  0  0  0
  -29.0780  -19.9280   19.0440 C   0  0  0  0  0  2  0  0  0  0  0  0
  -29.1460  -19.5560   21.5590 C   0  0  0  0  0  2  0  0  0  0  0  0
  -29.5900  -18.5040   18.7440 C   0  0  0  0  0  2  0  0  0  0  0  0
  -28.9690  -18.0750   21.1640 C   0  0  0  0  0  2  0  0  0  0  0  0
  -29.5970  -20.4710   20.3920 C   0  0  0  0  0  3  0  0  0  0  0  0
  -29.8860  -17.6530   20.0020 C   0  0  0  0  0  3  0  0  0  0  0  0
  -31.3890  -17.6700   20.3960 C   0  0  0  0  0  2  0  0  0  0  0  0
  -31.7790  -16.6430   21.4750 C   0  0  0  0  0  2  0  0  0  0  0  0
  -31.5450  -14.5560   20.1370 C   0  0  0  0  0  0  0  0  0  0  0  0
  -31.0430  -12.4360   18.9910 C   0  0  0  0  0  2  0  0  0  0  0  0
  -30.0800  -12.6270   17.8050 C   0  0  0  0  0  2  0  0  0  0  0  0
  -28.6140  -12.5910   18.2750 C   0  0  0  0  0  2  0  0  0  0  0  0
  -28.3550  -13.5320   19.4810 C   0  0  0  0  0  3  0  0  0  0  0  0
  -29.4110  -13.2980   20.5830 C   0  0  0  0  0  2  0  0  0  0  0  0
  -30.7570  -13.4640   19.9990 N   0  0  0  0  0  0  0  0  0  0  0  0
  -32.5110  -14.8050   19.4080 O   0  0  0  0  0  0  0  0  0  0  0  0
  -31.2300  -15.3260   21.1830 N   0  0  0  0  0  0  0  0  0  0  0  0
  -30.4730  -15.0010   21.7670 H   0  0  0  0  0  0  0  0  0  0  0  0
  -26.0490  -14.3370   20.3070 C   0  0  0  0  0  0  0  0  0  0  0  0
  -24.9250  -13.6520   20.6860 C   0  0  0  0  0  0  0  0  0  0  0  0
  -25.2520  -12.2660   20.5760 C   0  0  0  0  0  0  0  0  0  0  0  0
  -26.9960  -13.3710   19.9960 N   0  0  0  0  0  0  0  0  0  0  0  0
  -26.5190  -12.1190   20.2110 N   0  0  0  0  0  0  0  0  0  0  0  0
  -24.4150  -11.0690   20.7410 C   0  0  0  0  0  0  0  0  0  0  0  0
  -24.7740  -10.0340   21.6330 C   0  0  0  0  0  3  0  0  0  0  0  0
  -23.9440   -8.9030   21.7880 C   0  0  0  0  0  3  0  0  0  0  0  0
  -22.7410   -8.7990   21.0500 C   0  0  0  0  0  0  0  0  0  0  0  0
  -22.4000   -9.8210   20.1470 C   0  0  0  0  0  3  0  0  0  0  0  0
  -23.2300  -10.9450   19.9900 C   0  0  0  0  0  3  0  0  0  0  0  0
  -21.8870   -7.7250   21.1150 O   0  0  0  0  0  0  0  0  0  0  0  0
  -21.7560   -6.9780   22.2580 C   0  0  0  0  0  0  0  0  0  0  0  0
  -21.3840   -7.5590   23.4900 C   0  0  0  0  0  3  0  0  0  0  0  0
  -21.1930   -6.7440   24.6240 C   0  0  0  0  0  3  0  0  0  0  0  0
  -21.3640   -5.3510   24.5270 C   0  0  0  0  0  0  0  0  0  0  0  0
  -21.7290   -4.7700   23.3000 C   0  0  0  0  0  3  0  0  0  0  0  0
  -21.9210   -5.5820   22.1680 C   0  0  0  0  0  0  0  0  0  0  0  0
  -22.2530   -5.0140   20.9830 F   0  0  0  0  0  0  0  0  0  0  0  0
  -21.1730   -4.5670   25.6140 F   0  0  0  0  0  0  0  0  0  0  0  0
  -23.5920  -14.2450   21.0400 C   0  0  0  0  0  0  0  0  0  0  0  0
  -22.8440  -13.5900   21.9210 N   0  0  0  0  0  0  0  0  0  0  0  0
  -23.2260  -15.3230   20.5720 O   0  0  0  0  0  0  0  0  0  0  0  0
  -23.1540  -12.7180   22.3220 H   0  0  0  0  0  0  0  0  0  0  0  0
  -21.9490  -13.9670   22.1990 H   0  0  0  0  0  0  0  0  0  0  0  0
  -26.3390  -15.6910   20.1850 N   0  0  0  0  0  0  0  0  0  0  0  0
  -25.6500  -16.4130   20.3630 H   0  0  0  0  0  0  0  0  0  0  0  0
  -27.2270  -16.0610   19.8660 H   0  0  0  0  0  0  0  0  0  0  0  0
  -28.7750  -26.2000   21.4510 C   0  0  0  0  0  2  0  0  0  0  0  0
  -28.4510  -26.9240   20.2690 O   0  0  0  0  0  0  0  0  0  0  0  0
  -24.4830  -31.9770   23.3280 C   0  0  0  0  0  0  0  0  0  0  0  0
  -27.2660  -27.6080   20.3150 C   0  0  0  0  0  0  0  0  0  0  0  0
  -23.3310  -30.5540   21.6590 C   0  0  0  0  0  3  0  0  0  0  0  0
  -24.8390  -29.0350   20.2780 C   0  0  0  0  0  0  0  0  0  0  0  0
  -25.8480  -30.9630   21.5130 C   0  0  0  0  0  2  0  0  0  0  0  0
  -25.9700  -29.5880   20.8940 C   0  0  0  0  0  0  0  0  0  0  0  0
  -27.1840  -28.8760   20.9250 C   0  0  0  0  0  3  0  0  0  0  0  0
  -26.1270  -27.0610   19.6890 C   0  0  0  0  0  3  0  0  0  0  0  0
  -24.9090  -27.7650   19.6790 C   0  0  0  0  0  3  0  0  0  0  0  0
  -23.5810  -29.8710   20.2870 C   0  0  0  0  0  2  0  0  0  0  0  0
  -24.5700  -31.1790   22.2270 N   0  0  0  0  0  0  0  0  0  0  0  0
  -23.3880  -32.2340   23.8450 O   0  0  0  0  0  0  0  0  0  0  0  0
  -22.6760  -29.5260   22.6090 C   0  0  0  0  0  0  0  0  0  0  0  0
  -21.3540  -29.3380   22.4630 N   0  0  0  0  0  0  0  0  0  0  0  0
  -23.3520  -28.9000   23.4290 O   0  0  0  0  0  0  0  0  0  0  0  0
  -20.8690  -29.8970   21.7760 H   0  0  0  0  0  0  0  0  0  0  0  0
  -17.9760  -28.1450   22.9210 C   0  0  0  0  0  0  0  0  0  0  0  0
  -20.5320  -28.3930   23.2170 C   0  0  0  0  0  3  0  0  0  0  0  0
  -20.6360  -26.9680   22.6240 C   0  0  0  0  0  2  0  0  0  0  0  0
  -19.5430  -26.6600   21.5970 C   0  0  0  0  0  2  0  0  0  0  0  0
  -18.1550  -26.8010   22.2330 C   0  0  0  0  0  2  0  0  0  0  0  0
  -19.0930  -28.8990   23.3680 C   0  0  0  0  0  0  0  0  0  0  0  0
  -18.8740  -30.1580   23.9690 C   0  0  0  0  0  3  0  0  0  0  0  0
  -17.5700  -30.6630   24.1280 C   0  0  0  0  0  3  0  0  0  0  0  0
  -16.4670  -29.9050   23.6980 C   0  0  0  0  0  3  0  0  0  0  0  0
  -16.6700  -28.6470   23.1010 C   0  0  0  0  0  3  0  0  0  0  0  0
  -25.7490  -32.6230   23.9750 C   0  0  0  0  0  3  0  0  0  0  0  0
  -26.2290  -31.8790   25.2800 C   0  0  1  0  0  0  0  0  0  0  0  0
  -25.1010  -31.6380   26.3090 C   0  0  0  0  0  1  0  0  0  0  0  0
  -26.8500  -30.5060   24.9250 C   0  0  0  0  0  1  0  0  0  0  0  0
  -27.3420  -32.7000   25.9730 C   0  0  0  0  0  1  0  0  0  0  0  0
  -25.4300  -34.0280   24.2620 N   0  0  0  0  0  0  0  0  0  0  0  0
  -25.7800  -35.0600   23.4820 C   0  0  0  0  0  0  0  0  0  0  0  0
  -26.4760  -34.9310   22.4720 O   0  0  0  0  0  0  0  0  0  0  0  0
  -24.8190  -34.2040   25.0460 H   0  0  0  0  0  0  0  0  0  0  0  0
  -24.0530  -36.8330   23.0350 C   0  0  0  0  0  1  0  0  0  0  0  0
  -25.2760  -36.4580   23.8890 C   0  0  0  0  0  3  0  0  0  0  0  0
  -27.3890  -37.3720   24.7430 C   0  0  0  0  0  1  0  0  0  0  0  0
  -26.3070  -37.5130   23.7720 N   0  0  0  0  0  0  0  0  0  0  0  0
  -25.8950  -38.4340   23.8890 H   0  0  0  0  0  0  0  0  0  0  0  0
  1  3  1  0
  2  4  2  0
  2  5  1  0
  4  6  1  0
  5  1  2  0
  6 53  1  0
  6  3  2  0
  7 11  1  0
  9  7  1  0
  9 12  1  0
 10  8  1  0
 11  5  1  0
 11  8  1  0
 12 13  1  0
 12 10  1  0
 13 14  1  0
 15 23  1  0
 16 21  1  0
 17 18  1  0
 17 16  1  0
 19 18  1  0
 19 28  1  0
 19 20  1  0
 21 15  1  0
 21 20  1  0
 22 15  2  0
 23 14  1  0
 23 24  1  0
 25 26  2  0
 26 45  1  0
 27 26  1  0
 27 30  1  0
 28 29  1  0
 28 25  1  0
 29 27  2  0
 30 31  1  0
 31 32  2  0
 33 36  1  0
 33 32  1  0
 34 33  2  0
 35 34  1  0
 35 30  2  0
 36 37  1  0
 37 38  1  0
 38 39  2  0
 40 39  1  0
 40 44  1  0
 41 40  2  0
 42 37  2  0
 42 41  1  0
 43 42  1  0
 45 46  1  0
 46 49  1  0
 46 48  1  0
 47 45  2  0
 50 25  1  0
 50 51  1  0
 52 50  1  0
 54 56  1  0
 54 53  1  0
 55 66  2  0
 56 61  1  0
 57 65  1  0
 57 67  1  0
 58 64  1  0
 58 60  1  0
 59 65  1  0
 60 61  2  0
 60 59  1  0
 62 56  2  0
 63 62  1  0
 63 58  2  0
 64 57  1  0
 65 55  1  0
 67 69  2  0
 68 67  1  0
 70 68  1  0
 71 80  2  0
 71 76  1  0
 72 68  1  0
 72 76  1  0
 73 72  1  0
 74 75  1  0
 74 73  1  0
 75 71  1  0
 76 77  2  0
 77 78  1  0
 79 78  2  0
 80 79  1  0
 81 55  1  0
 81 86  1  0
 81 82  1  0
 82 85  1  1
 82 83  1  0
 84 82  1  0
 86 89  1  0
 87 91  1  0
 87 86  1  0
 88 87  2  0
 91 90  1  0
 93 91  1  0
 93 94  1  0
 93 92  1  0
M  ISO  4  15 100  23 100  53 101  54 101
M  END
>  <TORSDO>  (32) 
F 20

>  <SCORE>  (32) 
-12.059

>  <name>  (32) 
31

>  <ligand_id>  (32) 
31

>  <original_smiles>  (32) 
[H]c1c([H])c([H])c2c(c1[H])C([H])([H])C([H])([H])C([H])([H])C2([H])N([H])C(=O)C1([H])N(C(=O)C([H])(N([H])C(=O)C([H])(N([H])C([H])([H])[H])C([H])([H])[H])C(C([H])([H])[H])(C([H])([H])[H])C([H])([H])[H])C([H])([H])c2c([H])c(OC([H])([H])c3c([H])c([H])c(C4([H])C([H])([H])C([H])([H])C([H])(C([H])([H])C([H])([H])N([H])C(=O)N5C([H])([H])C([H])([H])C([H])([H])C([H])(n6nc(-c7c([H])c([H])c(Oc8c([H])c([H])c(F)c([H])c8F)c([H])c7[H])c(C(=O)N([H])[H])c6N([H])[H])C5([H])[H])C([H])([H])C4([H])[H])c([H])c3[H])c([H])c([H])c2C1([H])[H]

>  <smiles>  (32) 
[H]c1c([H])c([H])c2c(c1[H])C([H])([H])C([H])([H])C([H])([H])C2([H])N([H])C(=O)C1([H])N(C(=O)C([H])(N([H])C(=O)C([H])(N([H])C([H])([H])[H])C([H])([H])[H])C(C([H])([H])[H])(C([H])([H])[H])C([H])([H])[H])C([H])([H])c2c([H])c(OC([H])([H])c3c([H])c([H])c(C4([H])C([H])([H])C([H])([H])C([H])(C([H])([H])C([H])([H])N([H])C(=O)N5C([H])([H])C([H])([H])C([H])([H])C([H])(n6nc(-c7c([H])c([H])c(Oc8c([H])c([H])c(F)c([H])c8F)c([H])c7[H])c(C(=O)N([H])[H])c6N([H])[H])C5([H])[H])C([H])([H])C4([H])[H])c([H])c3[H])c([H])c([H])c2C1([H])[H]

$$$$
32:0:0
     RDKit          3D

 94102  0  0  1  0  0  0  0  0999 V2000
  -29.7820  -22.3370   22.8660 C   0  0  0  0  0  2  0  0  0  0  0  0
  -29.4540  -23.6070   22.1910 N   0  0  0  0  0  4  0  0  0  0  0  0
  -29.1410  -23.3770   21.2620 H   0  0  0  0  0  0  0  0  0  0  0  0
  -30.2930  -24.1590   22.1070 H   0  0  0  0  0  0  0  0  0  0  0  0
  -28.4060  -24.4200   22.8420 C   0  0  0  0  0  2  0  0  0  0  0  0
  -27.6980  -25.3330   21.8280 C   0  0  0  0  0  2  0  0  0  0  0  0
  -28.6250  -26.3080   21.0720 C   0  0  0  0  0  2  0  0  0  0  0  0
  -28.0660  -26.6210   19.7990 O   0  0  0  0  0  0  0  0  0  0  0  0
  -24.4100  -31.7450   23.0860 C   0  0  0  0  0  0  0  0  0  0  0  0
  -26.9230  -27.3740   19.8570 C   0  0  0  0  0  0  0  0  0  0  0  0
  -23.1390  -30.3820   21.4560 C   0  0  0  0  0  3  0  0  0  0  0  0
  -24.5360  -28.8580   19.9640 C   0  0  0  0  0  0  0  0  0  0  0  0
  -25.6530  -30.7350   21.1850 C   0  0  0  0  0  2  0  0  0  0  0  0
  -25.7100  -29.3760   20.5280 C   0  0  0  0  0  0  0  0  0  0  0  0
  -26.9080  -28.6380   20.4800 C   0  0  0  0  0  3  0  0  0  0  0  0
  -25.7450  -26.8620   19.2800 C   0  0  0  0  0  3  0  0  0  0  0  0
  -24.5450  -27.5970   19.3410 C   0  0  0  0  0  3  0  0  0  0  0  0
  -23.2970  -29.7180   20.0610 C   0  0  0  0  0  2  0  0  0  0  0  0
  -24.4200  -30.9650   21.9680 N   0  0  0  0  0  0  0  0  0  0  0  0
  -23.3490  -32.0170   23.6650 O   0  0  0  0  0  0  0  0  0  0  0  0
  -22.5080  -29.3510   22.4200 C   0  0  0  0  0  0  0  0  0  0  0  0
  -21.1980  -29.1090   22.2580 N   0  0  0  0  0  0  0  0  0  0  0  0
  -23.1960  -28.7720   23.2650 O   0  0  0  0  0  0  0  0  0  0  0  0
  -20.7060  -29.6290   21.5460 H   0  0  0  0  0  0  0  0  0  0  0  0
  -17.8780  -27.7460   22.6470 C   0  0  0  0  0  0  0  0  0  0  0  0
  -20.4010  -28.1530   23.0240 C   0  0  0  0  0  3  0  0  0  0  0  0
  -20.6090  -26.7110   22.5040 C   0  0  0  0  0  2  0  0  0  0  0  0
  -19.5740  -26.2950   21.4530 C   0  0  0  0  0  2  0  0  0  0  0  0
  -18.1570  -26.3860   22.0270 C   0  0  0  0  0  2  0  0  0  0  0  0
  -18.9310  -28.5820   23.0980 C   0  0  0  0  0  0  0  0  0  0  0  0
  -18.6190  -29.8510   23.6320 C   0  0  0  0  0  3  0  0  0  0  0  0
  -17.2830  -30.2840   23.7250 C   0  0  0  0  0  3  0  0  0  0  0  0
  -16.2430  -29.4460   23.2890 C   0  0  0  0  0  3  0  0  0  0  0  0
  -16.5400  -28.1800   22.7540 C   0  0  0  0  0  3  0  0  0  0  0  0
  -25.7220  -32.3510   23.6750 C   0  0  0  0  0  3  0  0  0  0  0  0
  -25.4400  -33.7440   24.0440 N   0  0  0  0  0  0  0  0  0  0  0  0
  -25.7940  -34.8110   23.3150 C   0  0  0  0  0  0  0  0  0  0  0  0
  -26.4700  -34.7240   22.2850 O   0  0  0  0  0  0  0  0  0  0  0  0
  -24.8480  -33.8880   24.8490 H   0  0  0  0  0  0  0  0  0  0  0  0
  -24.1250  -36.6600   22.9720 C   0  0  0  0  0  1  0  0  0  0  0  0
  -25.3290  -36.1940   23.8070 C   0  0  0  0  0  3  0  0  0  0  0  0
  -27.4540  -36.9930   24.7400 C   0  0  0  0  0  1  0  0  0  0  0  0
  -26.3910  -37.2220   23.7650 N   0  0  0  0  0  0  0  0  0  0  0  0
  -26.0050  -38.1470   23.9300 H   0  0  0  0  0  0  0  0  0  0  0  0
  -26.2790  -31.5450   24.9120 C   0  0  1  0  0  0  0  0  0  0  0  0
  -25.2140  -31.2570   25.9960 C   0  0  0  0  0  1  0  0  0  0  0  0
  -26.8720  -30.1900   24.4610 C   0  0  0  0  0  1  0  0  0  0  0  0
  -27.4330  -32.3330   25.5740 C   0  0  0  0  0  1  0  0  0  0  0  0
  -30.9050  -21.6070   22.1060 C   0  0  0  0  0  2  0  0  0  0  0  0
  -29.9920  -19.2250   21.9230 C   0  0  0  0  0  2  0  0  0  0  0  0
  -32.4940  -19.6670   21.9670 C   0  0  0  0  0  2  0  0  0  0  0  0
  -30.2710  -17.7240   22.1210 C   0  0  0  0  0  2  0  0  0  0  0  0
  -32.7350  -18.1660   22.1800 C   0  0  0  0  0  2  0  0  0  0  0  0
  -31.1160  -20.1280   22.4870 C   0  0  0  0  0  3  0  0  0  0  0  0
  -31.6300  -17.3290   21.5140 C   0  0  0  0  0  3  0  0  0  0  0  0
  -31.9410  -15.8270   21.6360 C   0  0  0  0  0  2  0  0  0  0  0  0
  -31.0500  -14.4380   19.7610 C   0  0  0  0  0  0  0  0  0  0  0  0
  -30.5080  -12.3900   18.4930 C   0  0  0  0  0  2  0  0  0  0  0  0
  -29.4610  -12.5900   17.3860 C   0  0  0  0  0  2  0  0  0  0  0  0
  -28.0400  -12.4500   17.9560 C   0  0  0  0  0  2  0  0  0  0  0  0
  -27.8230  -13.3270   19.2140 C   0  0  0  0  0  3  0  0  0  0  0  0
  -28.9580  -13.1180   20.2380 C   0  0  0  0  0  2  0  0  0  0  0  0
  -30.2520  -13.3580   19.5710 N   0  0  0  0  0  0  0  0  0  0  0  0
  -31.9250  -14.7920   18.9650 O   0  0  0  0  0  0  0  0  0  0  0  0
  -30.9500  -14.9730   20.9850 N   0  0  0  0  0  0  0  0  0  0  0  0
  -30.2170  -14.5990   21.5700 H   0  0  0  0  0  0  0  0  0  0  0  0
  -25.4970  -13.9770   20.1110 C   0  0  0  0  0  0  0  0  0  0  0  0
  -24.4570  -13.2220   20.5870 C   0  0  0  0  0  0  0  0  0  0  0  0
  -24.9040  -11.8660   20.5470 C   0  0  0  0  0  0  0  0  0  0  0  0
  -26.5110  -13.0790   19.8120 N   0  0  0  0  0  0  0  0  0  0  0  0
  -26.1610  -11.8070   20.1290 N   0  0  0  0  0  0  0  0  0  0  0  0
  -24.1860  -10.6160   20.8270 C   0  0  0  0  0  0  0  0  0  0  0  0
  -24.6070   -9.7360   21.8490 C   0  0  0  0  0  3  0  0  0  0  0  0
  -23.8900   -8.5480   22.1110 C   0  0  0  0  0  3  0  0  0  0  0  0
  -22.7400   -8.2310   21.3510 C   0  0  0  0  0  0  0  0  0  0  0  0
  -22.3390   -9.0980   20.3190 C   0  0  0  0  0  3  0  0  0  0  0  0
  -23.0570  -10.2770   20.0560 C   0  0  0  0  0  3  0  0  0  0  0  0
  -21.9970   -7.0870   21.5160 O   0  0  0  0  0  0  0  0  0  0  0  0
  -21.8530   -6.4940   22.7450 C   0  0  0  0  0  0  0  0  0  0  0  0
  -21.2970   -7.1830   23.8450 C   0  0  0  0  0  3  0  0  0  0  0  0
  -21.1040   -6.5140   25.0700 C   0  0  0  0  0  3  0  0  0  0  0  0
  -21.4560   -5.1570   25.1950 C   0  0  0  0  0  0  0  0  0  0  0  0
  -22.0050   -4.4670   24.1000 C   0  0  0  0  0  3  0  0  0  0  0  0
  -22.2010   -5.1340   22.8780 C   0  0  0  0  0  0  0  0  0  0  0  0
  -22.7100   -4.4600   21.8190 F   0  0  0  0  0  0  0  0  0  0  0  0
  -21.2630   -4.5120   26.3700 F   0  0  0  0  0  0  0  0  0  0  0  0
  -23.0940  -13.7200   20.9710 C   0  0  0  0  0  0  0  0  0  0  0  0
  -22.4640  -13.0850   21.9530 N   0  0  0  0  0  0  0  0  0  0  0  0
  -22.5970  -14.7070   20.4310 O   0  0  0  0  0  0  0  0  0  0  0  0
  -22.8800  -12.2870   22.4100 H   0  0  0  0  0  0  0  0  0  0  0  0
  -21.5550  -13.4020   22.2560 H   0  0  0  0  0  0  0  0  0  0  0  0
  -25.6600  -15.3410   19.8890 N   0  0  0  0  0  0  0  0  0  0  0  0
  -24.9180  -16.0130   20.0520 H   0  0  0  0  0  0  0  0  0  0  0  0
  -26.4940  -15.7600   19.4970 H   0  0  0  0  0  0  0  0  0  0  0  0
  2  5  1  0
  2  1  1  0
  3  2  1  0
  4  2  1  0
  6  5  1  0
  7  6  1  0
  8 10  1  0
  8  7  1  0
  9 20  2  0
 10 15  1  0
 11 19  1  0
 11 21  1  0
 12 18  1  0
 12 14  1  0
 13 19  1  0
 14 13  1  0
 15 14  2  0
 16 17  1  0
 16 10  2  0
 17 12  2  0
 18 11  1  0
 19  9  1  0
 21 23  2  0
 22 21  1  0
 24 22  1  0
 25 34  2  0
 25 30  1  0
 26 22  1  0
 26 30  1  0
 27 26  1  0
 28 29  1  0
 28 27  1  0
 29 25  1  0
 30 31  2  0
 31 32  1  0
 33 32  2  0
 34 33  1  0
 35  9  1  0
 35 36  1  0
 35 45  1  0
 36 39  1  0
 37 41  1  0
 37 36  1  0
 38 37  2  0
 41 40  1  0
 43 41  1  0
 43 44  1  0
 43 42  1  0
 45 48  1  1
 45 46  1  0
 47 45  1  0
 49  1  1  0
 50 52  1  0
 50 54  1  0
 51 53  1  0
 51 54  1  0
 54 49  1  0
 55 56  1  0
 55 52  1  0
 55 53  1  0
 57 65  1  0
 58 63  1  0
 59 60  1  0
 59 58  1  0
 61 60  1  0
 61 70  1  0
 61 62  1  0
 63 57  1  0
 63 62  1  0
 64 57  2  0
 65 66  1  0
 65 56  1  0
 67 68  2  0
 68 87  1  0
 69 68  1  0
 69 72  1  0
 70 67  1  0
 70 71  1  0
 71 69  2  0
 72 73  1  0
 73 74  2  0
 75 78  1  0
 75 74  1  0
 76 75  2  0
 77 76  1  0
 77 72  2  0
 78 79  1  0
 79 84  2  0
 79 80  1  0
 80 81  2  0
 81 82  1  0
 82 86  1  0
 83 82  2  0
 84 83  1  0
 85 84  1  0
 87 88  1  0
 88 91  1  0
 88 90  1  0
 89 87  2  0
 92 93  1  0
 92 67  1  0
 94 92  1  0
M  ISO  4   7 101   8 101  57 100  65 100
M  END
>  <TORSDO>  (33) 
F 23

>  <SCORE>  (33) 
-8.877

>  <name>  (33) 
32

>  <ligand_id>  (33) 
32

>  <original_smiles>  (33) 
[H]c1c([H])c([H])c2c(c1[H])C([H])([H])C([H])([H])C([H])([H])C2([H])N([H])C(=O)C1([H])N(C(=O)C([H])(N([H])C(=O)C([H])(N([H])C([H])([H])[H])C([H])([H])[H])C(C([H])([H])[H])(C([H])([H])[H])C([H])([H])[H])C([H])([H])c2c([H])c(OC([H])([H])C([H])([H])C([H])([H])[N+]([H])([H])C([H])([H])C([H])([H])C3([H])C([H])([H])C([H])([H])C([H])(C([H])([H])N([H])C(=O)N4C([H])([H])C([H])([H])C([H])([H])C([H])(n5nc(-c6c([H])c([H])c(Oc7c([H])c([H])c(F)c([H])c7F)c([H])c6[H])c(C(=O)N([H])[H])c5N([H])[H])C4([H])[H])C([H])([H])C3([H])[H])c([H])c([H])c2C1([H])[H]

>  <smiles>  (33) 
[H]c1c([H])c([H])c2c(c1[H])C([H])([H])C([H])([H])C([H])([H])C2([H])N([H])C(=O)C1([H])N(C(=O)C([H])(N([H])C(=O)C([H])(N([H])C([H])([H])[H])C([H])([H])[H])C(C([H])([H])[H])(C([H])([H])[H])C([H])([H])[H])C([H])([H])c2c([H])c(OC([H])([H])C([H])([H])C([H])([H])[N+]([H])([H])C([H])([H])C([H])([H])C3([H])C([H])([H])C([H])([H])C([H])(C([H])([H])N([H])C(=O)N4C([H])([H])C([H])([H])C([H])([H])C([H])(n5nc(-c6c([H])c([H])c(Oc7c([H])c([H])c(F)c([H])c7F)c([H])c6[H])c(C(=O)N([H])[H])c5N([H])[H])C4([H])[H])C([H])([H])C3([H])[H])c([H])c([H])c2C1([H])[H]

$$$$
33:0:0
     RDKit          3D

 98107  0  0  1  0  0  0  0  0999 V2000
  -30.3790  -19.5270   21.2080 C   0  0  0  0  0  3  0  0  0  0  0  0
  -30.3620  -20.8950   21.6110 C   0  0  0  0  0  3  0  0  0  0  0  0
  -29.9370  -19.0920   19.9420 C   0  0  0  0  0  0  0  0  0  0  0  0
  -29.4070  -20.3470   19.1870 C   0  0  0  0  0  0  0  0  0  0  0  0
  -29.4500  -21.8430   19.6370 C   0  0  0  0  0  0  0  0  0  0  0  0
  -29.9520  -21.9810   20.8870 N   0  0  0  0  0  0  0  0  0  0  0  0
  -30.3110  -17.4130   19.5010 C   0  0  0  0  0  2  0  0  0  0  0  0
  -31.1480  -14.5840   20.0540 C   0  0  0  0  0  0  0  0  0  0  0  0
  -31.1720  -12.0730   19.3380 C   0  0  0  0  0  2  0  0  0  0  0  0
  -30.3520  -11.8210   18.0450 C   0  0  0  0  0  2  0  0  0  0  0  0
  -28.8690  -11.5920   18.3780 C   0  0  0  0  0  2  0  0  0  0  0  0
  -28.3550  -12.6010   19.4340 C   0  0  0  0  0  3  0  0  0  0  0  0
  -29.3150  -12.7890   20.6300 C   0  0  0  0  0  2  0  0  0  0  0  0
  -30.5950  -13.2630   20.0830 N   0  0  0  0  0  0  0  0  0  0  0  0
  -32.3560  -14.5680   19.7690 O   0  0  0  0  0  0  0  0  0  0  0  0
  -30.3900  -15.8670   20.1790 N   0  0  0  0  0  0  0  0  0  0  0  0
  -29.5040  -15.6640   20.6200 H   0  0  0  0  0  0  0  0  0  0  0  0
  -25.9260  -13.2090   19.8830 C   0  0  0  0  0  0  0  0  0  0  0  0
  -24.8400  -12.4780   20.2700 C   0  0  0  0  0  0  0  0  0  0  0  0
  -25.3110  -11.1420   20.4600 C   0  0  0  0  0  0  0  0  0  0  0  0
  -26.9890  -12.3260   19.8560 N   0  0  0  0  0  0  0  0  0  0  0  0
  -26.6250  -11.0820   20.2670 N   0  0  0  0  0  0  0  0  0  0  0  0
  -24.5710   -9.9050   20.7510 C   0  0  0  0  0  0  0  0  0  0  0  0
  -25.0070   -8.9960   21.7410 C   0  0  0  0  0  3  0  0  0  0  0  0
  -24.2660   -7.8270   22.0170 C   0  0  0  0  0  3  0  0  0  0  0  0
  -23.0750   -7.5560   21.3010 C   0  0  0  0  0  0  0  0  0  0  0  0
  -22.6580   -8.4510   20.3010 C   0  0  0  0  0  3  0  0  0  0  0  0
  -23.3980   -9.6120   20.0250 C   0  0  0  0  0  3  0  0  0  0  0  0
  -22.3040   -6.4320   21.4840 O   0  0  0  0  0  0  0  0  0  0  0  0
  -22.1110   -5.8850   22.7270 C   0  0  0  0  0  0  0  0  0  0  0  0
  -21.5660   -6.6320   23.7940 C   0  0  0  0  0  3  0  0  0  0  0  0
  -21.3200   -6.0100   25.0350 C   0  0  0  0  0  3  0  0  0  0  0  0
  -21.6090   -4.6440   25.2080 C   0  0  0  0  0  0  0  0  0  0  0  0
  -22.1460   -3.8960   24.1440 C   0  0  0  0  0  3  0  0  0  0  0  0
  -22.3940   -4.5150   22.9080 C   0  0  0  0  0  0  0  0  0  0  0  0
  -22.8900   -3.7850   21.8790 F   0  0  0  0  0  0  0  0  0  0  0  0
  -21.3660   -4.0450   26.3970 F   0  0  0  0  0  0  0  0  0  0  0  0
  -23.4250  -12.9700   20.3540 C   0  0  0  0  0  0  0  0  0  0  0  0
  -22.6550  -12.4680   21.3130 N   0  0  0  0  0  0  0  0  0  0  0  0
  -23.0070  -13.8420   19.5920 O   0  0  0  0  0  0  0  0  0  0  0  0
  -23.0060  -11.7680   21.9500 H   0  0  0  0  0  0  0  0  0  0  0  0
  -21.7030  -12.7870   21.4060 H   0  0  0  0  0  0  0  0  0  0  0  0
  -26.1040  -14.5370   19.5140 N   0  0  0  0  0  0  0  0  0  0  0  0
  -25.3090  -15.1530   19.3940 H   0  0  0  0  0  0  0  0  0  0  0  0
  -26.9530  -14.8880   19.0940 H   0  0  0  0  0  0  0  0  0  0  0  0
  -28.7410  -20.0860   17.8350 C   0  0  0  0  0  2  0  0  0  0  0  0
  -27.3370  -19.6100   17.9500 N   0  0  0  0  0  4  0  0  0  0  0  0
  -27.0330  -19.4040   17.0100 H   0  0  0  0  0  0  0  0  0  0  0  0
  -26.7400  -20.3430   18.2890 H   0  0  0  0  0  0  0  0  0  0  0  0
  -27.0880  -18.3700   18.7250 C   0  0  0  0  0  2  0  0  0  0  0  0
  -25.8410  -18.4570   19.6410 C   0  0  0  0  0  2  0  0  0  0  0  0
  -24.5400  -15.4750   21.7070 C   0  0  0  0  0  2  0  0  0  0  0  0
  -23.3570  -15.7570   20.7690 C   0  0  0  0  0  2  0  0  0  0  0  0
  -25.6050  -16.5290   21.3750 C   0  0  0  0  0  2  0  0  0  0  0  0
  -23.6960  -17.0670   20.0510 C   0  0  0  0  0  2  0  0  0  0  0  0
  -25.2260  -17.0820   19.9990 C   0  0  0  0  0  3  0  0  0  0  0  0
  -28.9330  -23.3760   18.8840 C   0  0  0  0  0  2  0  0  0  0  0  0
  -29.1830  -25.0070   19.1800 O   0  0  0  0  0  0  0  0  0  0  0  0
  -25.2660  -30.6350   22.4240 C   0  0  0  0  0  0  0  0  0  0  0  0
  -28.1780  -26.1310   19.1240 C   0  0  0  0  0  0  0  0  0  0  0  0
  -24.2420  -29.4010   20.5570 C   0  0  0  0  0  3  0  0  0  0  0  0
  -25.8440  -27.9910   19.0830 C   0  0  0  0  0  0  0  0  0  0  0  0
  -26.8070  -29.6720   20.6380 C   0  0  0  0  0  2  0  0  0  0  0  0
  -26.9690  -28.3420   19.8400 C   0  0  0  0  0  0  0  0  0  0  0  0
  -28.1300  -27.4360   19.8360 C   0  0  0  0  0  3  0  0  0  0  0  0
  -27.0290  -25.9560   18.3190 C   0  0  0  0  0  3  0  0  0  0  0  0
  -25.9050  -26.8260   18.3020 C   0  0  0  0  0  3  0  0  0  0  0  0
  -24.5970  -28.8770   19.1360 C   0  0  0  0  0  2  0  0  0  0  0  0
  -25.4550  -29.9240   21.2630 N   0  0  0  0  0  0  0  0  0  0  0  0
  -24.1320  -30.8410   22.8860 O   0  0  0  0  0  0  0  0  0  0  0  0
  -23.5050  -28.2920   21.3530 C   0  0  0  0  0  0  0  0  0  0  0  0
  -22.1590  -28.2700   21.2990 N   0  0  0  0  0  0  0  0  0  0  0  0
  -24.1510  -27.4550   21.9920 O   0  0  0  0  0  0  0  0  0  0  0  0
  -21.6970  -28.9940   20.7660 H   0  0  0  0  0  0  0  0  0  0  0  0
  -18.7070  -27.3710   21.9710 C   0  0  0  0  0  0  0  0  0  0  0  0
  -21.2930  -27.2660   21.9260 C   0  0  0  0  0  3  0  0  0  0  0  0
  -21.1190  -26.0320   21.0090 C   0  0  0  0  0  2  0  0  0  0  0  0
  -19.8790  -26.1150   20.1130 C   0  0  0  0  0  2  0  0  0  0  0  0
  -18.6110  -26.2390   20.9620 C   0  0  0  0  0  2  0  0  0  0  0  0
  -19.9650  -27.8640   22.4110 C   0  0  0  0  0  0  0  0  0  0  0  0
  -19.9960  -28.9380   23.3270 C   0  0  0  0  0  3  0  0  0  0  0  0
  -18.8020  -29.5150   23.8010 C   0  0  0  0  0  3  0  0  0  0  0  0
  -17.5600  -29.0150   23.3710 C   0  0  0  0  0  3  0  0  0  0  0  0
  -17.5150  -27.9430   22.4620 C   0  0  0  0  0  3  0  0  0  0  0  0
  -26.4640  -31.2320   23.2200 C   0  0  0  0  0  3  0  0  0  0  0  0
  -26.0180  -32.4990   23.8280 N   0  0  0  0  0  0  0  0  0  0  0  0
  -26.4100  -33.7200   23.4410 C   0  0  0  0  0  0  0  0  0  0  0  0
  -27.2450  -33.8980   22.5510 O   0  0  0  0  0  0  0  0  0  0  0  0
  -25.2880  -32.4300   24.5220 H   0  0  0  0  0  0  0  0  0  0  0  0
  -24.6770  -35.5410   23.2660 C   0  0  0  0  0  1  0  0  0  0  0  0
  -25.7810  -34.9380   24.1510 C   0  0  0  0  0  3  0  0  0  0  0  0
  -27.6840  -35.5880   25.5610 C   0  0  0  0  0  1  0  0  0  0  0  0
  -26.7600  -35.9890   24.5040 N   0  0  0  0  0  0  0  0  0  0  0  0
  -26.2860  -36.8370   24.8040 H   0  0  0  0  0  0  0  0  0  0  0  0
  -27.0120  -30.2600   24.3380 C   0  0  1  0  0  0  0  0  0  0  0  0
  -25.9190  -29.7440   25.3050 C   0  0  0  0  0  1  0  0  0  0  0  0
  -27.6980  -29.0250   23.7120 C   0  0  0  0  0  1  0  0  0  0  0  0
  -28.0910  -30.9830   25.1770 C   0  0  0  0  0  1  0  0  0  0  0  0
  1  2  1  0
  3  1  2  0
  4  5  2  0
  4  3  1  0
  5  6  1  0
  6  2  2  0
  7  3  1  0
  7 16  1  0
  8 14  1  0
  8 16  1  0
  9 14  1  0
 10 11  1  0
 10  9  1  0
 12 11  1  0
 12 21  1  0
 12 13  1  0
 14 13  1  0
 15  8  2  0
 16 17  1  0
 18 19  2  0
 19 38  1  0
 19 20  1  0
 20 23  1  0
 21 18  1  0
 21 22  1  0
 22 20  2  0
 23 24  1  0
 24 25  2  0
 26 29  1  0
 26 25  1  0
 27 26  2  0
 28 27  1  0
 28 23  2  0
 29 30  1  0
 30 35  2  0
 30 31  1  0
 31 32  2  0
 32 33  1  0
 33 37  1  0
 34 33  2  0
 35 34  1  0
 36 35  1  0
 38 39  1  0
 39 42  1  0
 39 41  1  0
 40 38  2  0
 43 18  1  0
 44 43  1  0
 45 43  1  0
 46 47  1  0
 46  4  1  0
 47 49  1  0
 47 50  1  0
 48 47  1  0
 50 51  1  0
 51 56  1  0
 53 52  1  0
 54 52  1  0
 55 53  1  0
 56 55  1  0
 56 54  1  0
 57 58  1  0
 57  5  1  0
 59 70  2  0
 60 58  1  0
 60 65  1  0
 61 69  1  0
 61 71  1  0
 62 68  1  0
 62 64  1  0
 63 69  1  0
 64 63  1  0
 65 64  2  0
 66 60  2  0
 67 66  1  0
 67 62  2  0
 68 61  1  0
 69 59  1  0
 71 73  2  0
 72 71  1  0
 74 72  1  0
 75 80  2  0
 75 84  1  0
 76 72  1  0
 76 80  1  0
 77 76  1  0
 78 79  1  0
 78 77  1  0
 79 75  1  0
 80 81  1  0
 81 82  2  0
 83 82  1  0
 84 83  2  0
 85 59  1  0
 85 86  1  0
 85 95  1  0
 86 89  1  0
 87 86  1  0
 87 91  1  0
 88 87  2  0
 91 90  1  0
 91 93  1  0
 93 94  1  0
 93 92  1  0
 95 98  1  1
 95 96  1  0
 97 95  1  0
M  ISO  4   8 100  16 100  57 101  58 101
M  END
>  <TORSDO>  (34) 
F 23

>  <SCORE>  (34) 
-3.945

>  <name>  (34) 
33

>  <ligand_id>  (34) 
33

>  <original_smiles>  (34) 
[H]c1nc(C([H])([H])Oc2c([H])c([H])c3c(c2[H])C([H])([H])N(C(=O)C([H])(N([H])C(=O)C([H])(N([H])C([H])([H])[H])C([H])([H])[H])C(C([H])([H])[H])(C([H])([H])[H])C([H])([H])[H])C([H])(C(=O)N([H])C2([H])c4c([H])c([H])c([H])c([H])c4C([H])([H])C([H])([H])C2([H])[H])C3([H])[H])c(C([H])([H])[N+]([H])([H])C([H])([H])C([H])([H])C2([H])C([H])([H])C([H])([H])C([H])([H])C2([H])[H])c(C([H])([H])N([H])C(=O)N2C([H])([H])C([H])([H])C([H])([H])C([H])(n3nc(-c4c([H])c([H])c(Oc5c([H])c([H])c(F)c([H])c5F)c([H])c4[H])c(C(=O)N([H])[H])c3N([H])[H])C2([H])[H])c1[H]

>  <smiles>  (34) 
[H]c1nc(C([H])([H])Oc2c([H])c([H])c3c(c2[H])C([H])([H])N(C(=O)C([H])(N([H])C(=O)C([H])(N([H])C([H])([H])[H])C([H])([H])[H])C(C([H])([H])[H])(C([H])([H])[H])C([H])([H])[H])C([H])(C(=O)N([H])C2([H])c4c([H])c([H])c([H])c([H])c4C([H])([H])C([H])([H])C2([H])[H])C3([H])[H])c(C([H])([H])[N+]([H])([H])C([H])([H])C([H])([H])C2([H])C([H])([H])C([H])([H])C([H])([H])C2([H])[H])c(C([H])([H])N([H])C(=O)N2C([H])([H])C([H])([H])C([H])([H])C([H])(n3nc(-c4c([H])c([H])c(Oc5c([H])c([H])c(F)c([H])c5F)c([H])c4[H])c(C(=O)N([H])[H])c3N([H])[H])C2([H])[H])c1[H]

$$$$
34:0:0
     RDKit          3D

 98107  0  0  1  0  0  0  0  0999 V2000
  -29.2930  -24.3010   18.6480 C   0  0  0  0  0  3  0  0  0  0  0  0
  -29.4890  -23.1390   17.8930 C   0  0  0  0  0  3  0  0  0  0  0  0
  -28.8560  -25.4520   16.5690 C   0  0  0  0  0  3  0  0  0  0  0  0
  -29.0050  -25.4940   17.9690 C   0  0  0  0  0  0  0  0  0  0  0  0
  -29.3910  -23.1970   16.4880 C   0  0  0  0  0  0  0  0  0  0  0  0
  -29.6020  -20.0050   16.9680 C   0  0  0  0  0  2  0  0  0  0  0  0
  -31.8400  -21.2950   16.7100 C   0  0  0  0  0  2  0  0  0  0  0  0
  -29.0540  -20.8600   15.8070 C   0  0  0  0  0  2  0  0  0  0  0  0
  -31.2040  -21.9760   15.4860 C   0  0  0  0  0  2  0  0  0  0  0  0
  -31.1580  -19.9500   17.0520 C   0  0  0  0  0  3  0  0  0  0  0  0
  -29.0450  -24.3280   15.8420 N   0  0  0  0  0  0  0  0  0  0  0  0
  -29.7620  -22.1260   15.6600 N   0  0  0  0  0  0  0  0  0  0  0  0
  -28.9780  -26.7980   18.7330 C   0  0  0  0  0  2  0  0  0  0  0  0
  -28.3850  -26.6740   20.0230 O   0  0  0  0  0  0  0  0  0  0  0  0
  -24.6210  -31.7040   23.3500 C   0  0  0  0  0  0  0  0  0  0  0  0
  -27.2150  -27.3730   20.1190 C   0  0  0  0  0  0  0  0  0  0  0  0
  -23.4220  -30.4240   21.6080 C   0  0  0  0  0  3  0  0  0  0  0  0
  -24.8650  -28.9110   20.1540 C   0  0  0  0  0  0  0  0  0  0  0  0
  -25.9570  -30.7200   21.4970 C   0  0  0  0  0  2  0  0  0  0  0  0
  -26.0170  -29.3790   20.8010 C   0  0  0  0  0  0  0  0  0  0  0  0
  -27.1970  -28.6100   20.7920 C   0  0  0  0  0  3  0  0  0  0  0  0
  -26.0480  -26.8960   19.4870 C   0  0  0  0  0  3  0  0  0  0  0  0
  -24.8710  -27.6640   19.5030 C   0  0  0  0  0  3  0  0  0  0  0  0
  -23.6500  -29.8060   20.2030 C   0  0  0  0  0  2  0  0  0  0  0  0
  -24.6840  -30.9610   22.2110 N   0  0  0  0  0  0  0  0  0  0  0  0
  -23.5350  -31.9850   23.8740 O   0  0  0  0  0  0  0  0  0  0  0  0
  -22.7160  -29.3760   22.4970 C   0  0  0  0  0  0  0  0  0  0  0  0
  -21.3850  -29.2680   22.3470 N   0  0  0  0  0  0  0  0  0  0  0  0
  -23.3600  -28.6670   23.2740 O   0  0  0  0  0  0  0  0  0  0  0  0
  -20.9340  -29.8930   21.6940 H   0  0  0  0  0  0  0  0  0  0  0  0
  -17.9440  -28.2600   22.7730 C   0  0  0  0  0  0  0  0  0  0  0  0
  -20.5120  -28.3280   23.0470 C   0  0  0  0  0  3  0  0  0  0  0  0
  -20.5220  -26.9430   22.3600 C   0  0  0  0  0  2  0  0  0  0  0  0
  -19.4000  -26.7730   21.3320 C   0  0  0  0  0  2  0  0  0  0  0  0
  -18.0310  -26.9580   21.9940 C   0  0  0  0  0  2  0  0  0  0  0  0
  -19.1110  -28.9120   23.2520 C   0  0  0  0  0  0  0  0  0  0  0  0
  -18.9750  -30.1380   23.9400 C   0  0  0  0  0  3  0  0  0  0  0  0
  -17.7060  -30.7080   24.1530 C   0  0  0  0  0  3  0  0  0  0  0  0
  -16.5530  -30.0490   23.6900 C   0  0  0  0  0  3  0  0  0  0  0  0
  -16.6730  -28.8260   23.0070 C   0  0  0  0  0  3  0  0  0  0  0  0
  -25.9090  -32.2620   24.0360 C   0  0  0  0  0  3  0  0  0  0  0  0
  -25.6430  -33.6580   24.4100 N   0  0  0  0  0  0  0  0  0  0  0  0
  -26.0650  -34.7230   23.7160 C   0  0  0  0  0  0  0  0  0  0  0  0
  -26.7890  -34.6310   22.7210 O   0  0  0  0  0  0  0  0  0  0  0  0
  -25.0150  -33.8080   25.1870 H   0  0  0  0  0  0  0  0  0  0  0  0
  -24.4390  -36.6020   23.3360 C   0  0  0  0  0  1  0  0  0  0  0  0
  -25.6100  -36.1120   24.2040 C   0  0  0  0  0  3  0  0  0  0  0  0
  -27.7240  -36.8580   25.2000 C   0  0  0  0  0  1  0  0  0  0  0  0
  -26.6900  -37.1200   24.2030 N   0  0  0  0  0  0  0  0  0  0  0  0
  -26.3150  -38.0500   24.3740 H   0  0  0  0  0  0  0  0  0  0  0  0
  -26.3580  -31.4230   25.2940 C   0  0  1  0  0  0  0  0  0  0  0  0
  -25.2250  -31.1770   26.3180 C   0  0  0  0  0  1  0  0  0  0  0  0
  -26.9050  -30.0430   24.8580 C   0  0  0  0  0  1  0  0  0  0  0  0
  -27.5140  -32.1500   26.0230 C   0  0  0  0  0  1  0  0  0  0  0  0
  -31.6290  -19.4430   18.4350 C   0  0  0  0  0  2  0  0  0  0  0  0
  -31.1450  -18.0720   18.6710 N   0  0  0  0  0  4  0  0  0  0  0  0
  -31.6110  -17.4450   18.0340 H   0  0  0  0  0  0  0  0  0  0  0  0
  -30.1630  -18.0610   18.4480 H   0  0  0  0  0  0  0  0  0  0  0  0
  -31.2770  -17.5320   20.0390 C   0  0  0  0  0  2  0  0  0  0  0  0
  -30.1840  -16.4590   20.2090 C   0  0  0  0  0  2  0  0  0  0  0  0
  -31.0610  -14.5180   21.3200 C   0  0  0  0  0  0  0  0  0  0  0  0
  -30.8450  -12.3910   20.1470 C   0  0  0  0  0  2  0  0  0  0  0  0
  -30.0830  -12.6730   18.8320 C   0  0  0  0  0  2  0  0  0  0  0  0
  -28.5600  -12.5970   19.0510 C   0  0  0  0  0  2  0  0  0  0  0  0
  -28.0880  -13.4250   20.2740 C   0  0  0  0  0  3  0  0  0  0  0  0
  -28.9710  -13.1300   21.5130 C   0  0  0  0  0  2  0  0  0  0  0  0
  -30.3800  -13.3600   21.1490 N   0  0  0  0  0  0  0  0  0  0  0  0
  -32.2590  -14.6620   21.0640 O   0  0  0  0  0  0  0  0  0  0  0  0
  -30.2660  -15.5890   21.3810 N   0  0  0  0  0  0  0  0  0  0  0  0
  -29.3690  -15.4060   21.8120 H   0  0  0  0  0  0  0  0  0  0  0  0
  -25.6430  -14.1460   20.6440 C   0  0  0  0  0  0  0  0  0  0  0  0
  -24.4990  -13.4220   20.8420 C   0  0  0  0  0  0  0  0  0  0  0  0
  -24.8980  -12.0490   20.8520 C   0  0  0  0  0  0  0  0  0  0  0  0
  -26.6700  -13.2180   20.5500 N   0  0  0  0  0  0  0  0  0  0  0  0
  -26.2150  -11.9530   20.7260 N   0  0  0  0  0  0  0  0  0  0  0  0
  -24.1010  -10.8200   20.9170 C   0  0  0  0  0  0  0  0  0  0  0  0
  -24.3740   -9.8150   21.8710 C   0  0  0  0  0  3  0  0  0  0  0  0
  -23.5850   -8.6450   21.9260 C   0  0  0  0  0  3  0  0  0  0  0  0
  -22.5090   -8.4760   21.0220 C   0  0  0  0  0  0  0  0  0  0  0  0
  -22.2560   -9.4690   20.0570 C   0  0  0  0  0  3  0  0  0  0  0  0
  -23.0470  -10.6280   20.0020 C   0  0  0  0  0  3  0  0  0  0  0  0
  -21.7070   -7.3610   20.9840 O   0  0  0  0  0  0  0  0  0  0  0  0
  -21.4800   -6.6010   22.1030 C   0  0  0  0  0  0  0  0  0  0  0  0
  -20.9240   -7.1520   23.2790 C   0  0  0  0  0  3  0  0  0  0  0  0
  -20.6410   -6.3180   24.3800 C   0  0  0  0  0  3  0  0  0  0  0  0
  -20.9050   -4.9360   24.3050 C   0  0  0  0  0  0  0  0  0  0  0  0
  -21.4530   -4.3870   23.1320 C   0  0  0  0  0  3  0  0  0  0  0  0
  -21.7360   -5.2170   22.0330 C   0  0  0  0  0  0  0  0  0  0  0  0
  -22.2430   -4.6770   20.8980 F   0  0  0  0  0  0  0  0  0  0  0  0
  -20.6280   -4.1320   25.3570 F   0  0  0  0  0  0  0  0  0  0  0  0
  -23.0980  -13.9580   20.9350 C   0  0  0  0  0  0  0  0  0  0  0  0
  -22.2350  -13.2780   21.6810 N   0  0  0  0  0  0  0  0  0  0  0  0
  -22.7740  -15.0100   20.3840 O   0  0  0  0  0  0  0  0  0  0  0  0
  -22.5160  -12.4240   22.1420 H   0  0  0  0  0  0  0  0  0  0  0  0
  -21.2910  -13.6150   21.8050 H   0  0  0  0  0  0  0  0  0  0  0  0
  -25.8990  -15.5060   20.5130 N   0  0  0  0  0  0  0  0  0  0  0  0
  -25.1630  -16.2060   20.4860 H   0  0  0  0  0  0  0  0  0  0  0  0
  -26.8110  -15.8830   20.2930 H   0  0  0  0  0  0  0  0  0  0  0  0
  2  1  2  0
  3  4  2  0
  4  1  1  0
  4 13  1  0
  5  2  1  0
  6 10  1  0
  7 10  1  0
  8  6  1  0
  9 12  1  0
  9  7  1  0
 10 55  1  0
 11  5  2  0
 11  3  1  0
 12  8  1  0
 12  5  1  0
 13 14  1  0
 14 16  1  0
 15 26  2  0
 16 21  1  0
 17 25  1  0
 17 27  1  0
 18 24  1  0
 18 20  1  0
 19 25  1  0
 20 19  1  0
 21 20  2  0
 22 23  1  0
 22 16  2  0
 23 18  2  0
 24 17  1  0
 25 15  1  0
 27 29  2  0
 28 27  1  0
 30 28  1  0
 31 40  2  0
 31 36  1  0
 32 28  1  0
 32 36  1  0
 33 32  1  0
 34 35  1  0
 34 33  1  0
 35 31  1  0
 36 37  2  0
 37 38  1  0
 39 38  2  0
 40 39  1  0
 41 15  1  0
 41 42  1  0
 41 51  1  0
 42 45  1  0
 43 47  1  0
 43 42  1  0
 44 43  2  0
 47 46  1  0
 49 47  1  0
 49 50  1  0
 49 48  1  0
 51 54  1  1
 51 52  1  0
 53 51  1  0
 55 56  1  0
 56 59  1  0
 57 56  1  0
 58 56  1  0
 59 60  1  0
 60 69  1  0
 61 69  1  0
 62 67  1  0
 63 64  1  0
 63 62  1  0
 65 64  1  0
 65 74  1  0
 65 66  1  0
 67 61  1  0
 67 66  1  0
 68 61  2  0
 69 70  1  0
 71 72  2  0
 72 73  1  0
 72 91  1  0
 73 76  1  0
 74 71  1  0
 74 75  1  0
 75 73  2  0
 76 77  1  0
 77 78  2  0
 79 78  1  0
 80 79  2  0
 81 80  1  0
 81 76  2  0
 82 79  1  0
 82 83  1  0
 83 84  1  0
 84 85  2  0
 86 85  1  0
 86 90  1  0
 87 86  2  0
 88 83  2  0
 88 87  1  0
 89 88  1  0
 91 92  1  0
 92 95  1  0
 92 94  1  0
 93 91  2  0
 96 71  1  0
 97 96  1  0
 98 96  1  0
M  ISO  4  13 101  14 101  61 100  69 100
M  END
>  <TORSDO>  (35) 
F 21

>  <SCORE>  (35) 
-11.785

>  <name>  (35) 
34

>  <ligand_id>  (35) 
34

>  <original_smiles>  (35) 
[H]c1nc(N2C([H])([H])C([H])([H])C([H])(C([H])([H])[N+]([H])([H])C([H])([H])C([H])([H])N([H])C(=O)N3C([H])([H])C([H])([H])C([H])([H])C([H])(n4nc(-c5c([H])c([H])c(Oc6c([H])c([H])c(F)c([H])c6F)c([H])c5[H])c(C(=O)N([H])[H])c4N([H])[H])C3([H])[H])C([H])([H])C2([H])[H])c([H])c([H])c1C([H])([H])Oc1c([H])c([H])c2c(c1[H])C([H])([H])N(C(=O)C([H])(N([H])C(=O)C([H])(N([H])C([H])([H])[H])C([H])([H])[H])C(C([H])([H])[H])(C([H])([H])[H])C([H])([H])[H])C([H])(C(=O)N([H])C1([H])c3c([H])c([H])c([H])c([H])c3C([H])([H])C([H])([H])C1([H])[H])C2([H])[H]

>  <smiles>  (35) 
[H]c1nc(N2C([H])([H])C([H])([H])C([H])(C([H])([H])[N+]([H])([H])C([H])([H])C([H])([H])N([H])C(=O)N3C([H])([H])C([H])([H])C([H])([H])C([H])(n4nc(-c5c([H])c([H])c(Oc6c([H])c([H])c(F)c([H])c6F)c([H])c5[H])c(C(=O)N([H])[H])c4N([H])[H])C3([H])[H])C([H])([H])C2([H])[H])c([H])c([H])c1C([H])([H])Oc1c([H])c([H])c2c(c1[H])C([H])([H])N(C(=O)C([H])(N([H])C(=O)C([H])(N([H])C([H])([H])[H])C([H])([H])[H])C(C([H])([H])[H])(C([H])([H])[H])C([H])([H])[H])C([H])(C(=O)N([H])C1([H])c3c([H])c([H])c([H])c([H])c3C([H])([H])C([H])([H])C1([H])[H])C2([H])[H]

$$$$
35:0:0
     RDKit          3D

 99107  0  0  1  0  0  0  0  0999 V2000
  -30.6530  -22.0790   20.7180 C   0  0  0  0  0  3  0  0  0  0  0  0
  -31.0400  -20.7260   20.7920 C   0  0  0  0  0  3  0  0  0  0  0  0
  -29.3700  -22.4030   20.2200 C   0  0  0  0  0  0  0  0  0  0  0  0
  -28.5470  -21.3290   19.8030 C   0  0  0  0  0  0  0  0  0  0  0  0
  -30.1250  -19.7320   20.3970 C   0  0  0  0  0  0  0  0  0  0  0  0
  -28.9120  -20.0320   19.9170 N   0  0  0  0  0  0  0  0  0  0  0  0
  -30.3730  -18.3600   20.4620 N   0  0  0  0  0  0  0  0  0  0  0  0
  -29.6140  -17.7310   20.2360 H   0  0  0  0  0  0  0  0  0  0  0  0
  -26.8560  -20.4620   18.1410 C   0  0  0  0  0  1  0  0  0  0  0  0
  -27.1710  -21.5600   19.1750 C   0  0  0  0  0  3  0  0  0  0  0  0
  -26.0480  -21.7040   20.2270 C   0  0  0  0  0  2  0  0  0  0  0  0
  -26.1090  -22.9730   20.9770 N   0  0  0  0  0  4  0  0  0  0  0  0
  -26.9760  -23.0600   21.4780 H   0  0  0  0  0  0  0  0  0  0  0  0
  -25.3600  -23.0060   21.6460 H   0  0  0  0  0  0  0  0  0  0  0  0
  -26.0090  -23.7600   20.3600 H   0  0  0  0  0  0  0  0  0  0  0  0
  -31.4870  -17.8180   21.2280 C   0  0  0  0  0  2  0  0  0  0  0  0
  -31.0350  -16.6880   22.1730 C   0  0  0  0  0  2  0  0  0  0  0  0
  -30.5830  -14.9910   20.4120 C   0  0  0  0  0  0  0  0  0  0  0  0
  -30.2140  -13.0040   18.9990 C   0  0  0  0  0  2  0  0  0  0  0  0
  -29.2220  -13.2820   17.8560 C   0  0  0  0  0  2  0  0  0  0  0  0
  -27.7770  -13.0410   18.3300 C   0  0  0  0  0  2  0  0  0  0  0  0
  -27.4600  -13.7700   19.6610 C   0  0  0  0  0  3  0  0  0  0  0  0
  -28.5580  -13.5040   20.7150 C   0  0  0  0  0  2  0  0  0  0  0  0
  -29.8660  -13.8700   20.1360 N   0  0  0  0  0  0  0  0  0  0  0  0
  -31.5560  -15.3540   19.7450 O   0  0  0  0  0  0  0  0  0  0  0  0
  -30.2290  -15.6490   21.5230 N   0  0  0  0  0  0  0  0  0  0  0  0
  -29.4410  -15.2840   22.0360 H   0  0  0  0  0  0  0  0  0  0  0  0
  -25.0590  -14.2280   20.4760 C   0  0  0  0  0  0  0  0  0  0  0  0
  -24.0350  -13.3880   20.8210 C   0  0  0  0  0  0  0  0  0  0  0  0
  -24.5470  -12.0620   20.6850 C   0  0  0  0  0  0  0  0  0  0  0  0
  -26.1320  -13.4090   20.1580 N   0  0  0  0  0  0  0  0  0  0  0  0
  -25.8270  -12.0980   20.3380 N   0  0  0  0  0  0  0  0  0  0  0  0
  -23.8780  -10.7610   20.8090 C   0  0  0  0  0  0  0  0  0  0  0  0
  -24.3950   -9.7400   21.6370 C   0  0  0  0  0  3  0  0  0  0  0  0
  -23.7230   -8.5050   21.7540 C   0  0  0  0  0  3  0  0  0  0  0  0
  -22.5200   -8.2810   21.0440 C   0  0  0  0  0  0  0  0  0  0  0  0
  -22.0210   -9.2920   20.2030 C   0  0  0  0  0  3  0  0  0  0  0  0
  -22.6940  -10.5190   20.0830 C   0  0  0  0  0  3  0  0  0  0  0  0
  -21.8130   -7.1020   21.0750 O   0  0  0  0  0  0  0  0  0  0  0  0
  -21.8750   -6.2550   22.1520 C   0  0  0  0  0  0  0  0  0  0  0  0
  -21.5530   -6.6840   23.4580 C   0  0  0  0  0  3  0  0  0  0  0  0
  -21.5620   -5.7620   24.5240 C   0  0  0  0  0  3  0  0  0  0  0  0
  -21.8850   -4.4130   24.2860 C   0  0  0  0  0  0  0  0  0  0  0  0
  -22.2020   -3.9830   22.9860 C   0  0  0  0  0  3  0  0  0  0  0  0
  -22.1950   -4.9020   21.9220 C   0  0  0  0  0  0  0  0  0  0  0  0
  -22.4790   -4.4770   20.6660 F   0  0  0  0  0  0  0  0  0  0  0  0
  -21.8870   -3.5250   25.3090 F   0  0  0  0  0  0  0  0  0  0  0  0
  -22.6290  -13.7880   21.1690 C   0  0  0  0  0  0  0  0  0  0  0  0
  -21.9650  -13.0150   22.0190 N   0  0  0  0  0  0  0  0  0  0  0  0
  -22.1270  -14.8200   20.7230 O   0  0  0  0  0  0  0  0  0  0  0  0
  -22.3830  -12.1800   22.4020 H   0  0  0  0  0  0  0  0  0  0  0  0
  -21.0240  -13.2620   22.2960 H   0  0  0  0  0  0  0  0  0  0  0  0
  -25.1650  -15.6130   20.3890 N   0  0  0  0  0  0  0  0  0  0  0  0
  -24.3760  -16.2260   20.5630 H   0  0  0  0  0  0  0  0  0  0  0  0
  -25.9940  -16.1080   20.0860 H   0  0  0  0  0  0  0  0  0  0  0  0
  -28.8690  -23.6870   20.1560 O   0  0  0  0  0  0  0  0  0  0  0  0
  -29.7220  -24.7790   19.7970 C   0  0  0  0  0  2  0  0  0  0  0  0
  -28.8520  -25.7700   18.9970 C   0  0  0  0  0  2  0  0  0  0  0  0
  -28.7970  -27.0880   19.5630 O   0  0  0  0  0  0  0  0  0  0  0  0
  -24.6230  -31.6370   23.0940 C   0  0  0  0  0  0  0  0  0  0  0  0
  -27.5670  -27.7230   19.5920 C   0  0  0  0  0  0  0  0  0  0  0  0
  -23.5120  -30.3100   21.3280 C   0  0  0  0  0  3  0  0  0  0  0  0
  -25.0640  -29.0400   19.7580 C   0  0  0  0  0  0  0  0  0  0  0  0
  -26.0030  -30.8770   21.1650 C   0  0  0  0  0  2  0  0  0  0  0  0
  -26.1840  -29.5850   20.3930 C   0  0  0  0  0  0  0  0  0  0  0  0
  -27.4370  -28.9340   20.3110 C   0  0  0  0  0  3  0  0  0  0  0  0
  -26.4240  -27.2110   18.9300 C   0  0  0  0  0  3  0  0  0  0  0  0
  -25.1770  -27.8510   19.0240 C   0  0  0  0  0  3  0  0  0  0  0  0
  -23.7590  -29.7890   19.8890 C   0  0  0  0  0  2  0  0  0  0  0  0
  -24.7300  -30.9520   21.9210 N   0  0  0  0  0  0  0  0  0  0  0  0
  -23.5280  -31.7720   23.6580 O   0  0  0  0  0  0  0  0  0  0  0  0
  -22.9500  -29.1520   22.1860 C   0  0  0  0  0  0  0  0  0  0  0  0
  -21.6400  -28.8890   22.0530 N   0  0  0  0  0  0  0  0  0  0  0  0
  -23.6880  -28.5010   22.9300 O   0  0  0  0  0  0  0  0  0  0  0  0
  -21.1020  -29.4760   21.4310 H   0  0  0  0  0  0  0  0  0  0  0  0
  -18.3670  -27.4090   22.4490 C   0  0  0  0  0  0  0  0  0  0  0  0
  -20.9040  -27.8240   22.7320 C   0  0  0  0  0  3  0  0  0  0  0  0
  -21.1000  -26.4660   22.0210 C   0  0  0  0  0  2  0  0  0  0  0  0
  -20.0130  -26.1630   20.9850 C   0  0  0  0  0  2  0  0  0  0  0  0
  -18.6310  -26.1480   21.6450 C   0  0  0  0  0  2  0  0  0  0  0  0
  -19.4330  -28.2070   22.9450 C   0  0  0  0  0  0  0  0  0  0  0  0
  -19.1330  -29.3900   23.6540 C   0  0  0  0  0  3  0  0  0  0  0  0
  -17.7980  -29.7770   23.8750 C   0  0  0  0  0  3  0  0  0  0  0  0
  -16.7470  -28.9770   23.3930 C   0  0  0  0  0  3  0  0  0  0  0  0
  -17.0310  -27.7960   22.6870 C   0  0  0  0  0  3  0  0  0  0  0  0
  -25.8630  -32.3040   23.7670 C   0  0  0  0  0  3  0  0  0  0  0  0
  -25.4870  -33.6780   24.1220 N   0  0  0  0  0  0  0  0  0  0  0  0
  -25.8130  -34.7640   23.4090 C   0  0  0  0  0  0  0  0  0  0  0  0
  -26.5350  -34.7170   22.4090 O   0  0  0  0  0  0  0  0  0  0  0  0
  -24.8520  -33.7870   24.9000 H   0  0  0  0  0  0  0  0  0  0  0  0
  -24.0290  -36.4960   23.0280 C   0  0  0  0  0  1  0  0  0  0  0  0
  -25.2510  -36.1190   23.8800 C   0  0  0  0  0  3  0  0  0  0  0  0
  -27.3130  -37.0630   24.8230 C   0  0  0  0  0  1  0  0  0  0  0  0
  -26.2440  -37.2150   23.8390 N   0  0  0  0  0  0  0  0  0  0  0  0
  -25.7950  -38.1120   23.9960 H   0  0  0  0  0  0  0  0  0  0  0  0
  -26.3770  -31.5190   25.0350 C   0  0  1  0  0  0  0  0  0  0  0  0
  -25.2700  -31.2170   26.0720 C   0  0  0  0  0  1  0  0  0  0  0  0
  -27.0130  -30.1710   24.6220 C   0  0  0  0  0  1  0  0  0  0  0  0
  -27.4860  -32.3340   25.7380 C   0  0  0  0  0  1  0  0  0  0  0  0
  1  2  1  0
  3  1  2  0
  4  6  2  0
  4  3  1  0
  5  7  1  0
  5  2  2  0
  6  5  1  0
  7 16  1  0
  8  7  1  0
 10  9  1  0
 10  4  1  0
 10 11  1  0
 11 12  1  0
 12 13  1  0
 12 14  1  0
 15 12  1  0
 16 17  1  0
 18 26  1  0
 19 24  1  0
 20 21  1  0
 20 19  1  0
 22 21  1  0
 22 31  1  0
 22 23  1  0
 24 18  1  0
 24 23  1  0
 25 18  2  0
 26 27  1  0
 26 17  1  0
 28 29  2  0
 29 48  1  0
 30 33  1  0
 30 29  1  0
 31 32  1  0
 31 28  1  0
 32 30  2  0
 33 34  1  0
 34 35  2  0
 36 39  1  0
 36 35  1  0
 37 36  2  0
 38 37  1  0
 38 33  2  0
 39 40  1  0
 40 41  1  0
 41 42  2  0
 43 42  1  0
 43 47  1  0
 44 43  2  0
 45 40  2  0
 45 44  1  0
 46 45  1  0
 48 49  1  0
 49 52  1  0
 49 51  1  0
 50 48  2  0
 53 28  1  0
 53 54  1  0
 55 53  1  0
 56  3  1  0
 57 56  1  0
 58 59  1  0
 58 57  1  0
 59 61  1  0
 60 71  2  0
 61 66  1  0
 62 70  1  0
 62 72  1  0
 63 69  1  0
 63 65  1  0
 64 70  1  0
 65 64  1  0
 66 65  2  0
 67 68  1  0
 67 61  2  0
 68 63  2  0
 69 62  1  0
 70 60  1  0
 72 74  2  0
 73 72  1  0
 75 73  1  0
 76 85  2  0
 76 81  1  0
 77 73  1  0
 77 81  1  0
 78 77  1  0
 79 80  1  0
 79 78  1  0
 80 76  1  0
 81 82  2  0
 82 83  1  0
 84 83  2  0
 85 84  1  0
 86 60  1  0
 86 87  1  0
 86 96  1  0
 87 90  1  0
 88 92  1  0
 88 87  1  0
 89 88  2  0
 92 91  1  0
 94 92  1  0
 94 95  1  0
 94 93  1  0
 96 99  1  1
 96 97  1  0
 98 96  1  0
M  ISO  4  18 100  26 100  58 101  59 101
M  END
>  <TORSDO>  (36) 
F 24

>  <SCORE>  (36) 
-10.691

>  <name>  (36) 
35

>  <ligand_id>  (36) 
35

>  <original_smiles>  (36) 
[H]c1c(N([H])C([H])([H])C([H])([H])N([H])C(=O)N2C([H])([H])C([H])([H])C([H])([H])C([H])(n3nc(-c4c([H])c([H])c(Oc5c([H])c([H])c(F)c([H])c5F)c([H])c4[H])c(C(=O)N([H])[H])c3N([H])[H])C2([H])[H])nc(C([H])(C([H])([H])[H])C([H])([H])[N+]([H])([H])[H])c(OC([H])([H])C([H])([H])Oc2c([H])c([H])c3c(c2[H])C([H])([H])N(C(=O)C([H])(N([H])C(=O)C([H])(N([H])C([H])([H])[H])C([H])([H])[H])C(C([H])([H])[H])(C([H])([H])[H])C([H])([H])[H])C([H])(C(=O)N([H])C2([H])c4c([H])c([H])c([H])c([H])c4C([H])([H])C([H])([H])C2([H])[H])C3([H])[H])c1[H]

>  <smiles>  (36) 
[H]c1c(N([H])C([H])([H])C([H])([H])N([H])C(=O)N2C([H])([H])C([H])([H])C([H])([H])C([H])(n3nc(-c4c([H])c([H])c(Oc5c([H])c([H])c(F)c([H])c5F)c([H])c4[H])c(C(=O)N([H])[H])c3N([H])[H])C2([H])[H])nc(C([H])(C([H])([H])[H])C([H])([H])[N+]([H])([H])[H])c(OC([H])([H])C([H])([H])Oc2c([H])c([H])c3c(c2[H])C([H])([H])N(C(=O)C([H])(N([H])C(=O)C([H])(N([H])C([H])([H])[H])C([H])([H])[H])C(C([H])([H])[H])(C([H])([H])[H])C([H])([H])[H])C([H])(C(=O)N([H])C2([H])c4c([H])c([H])c([H])c([H])c4C([H])([H])C([H])([H])C2([H])[H])C3([H])[H])c1[H]

$$$$
36:0:0
     RDKit          3D

 96105  0  0  1  0  0  0  0  0999 V2000
  -31.5340  -22.7400   18.9550 C   0  0  0  0  0  2  0  0  0  0  0  0
  -29.2300  -22.9260   19.4770 C   0  0  0  0  0  2  0  0  0  0  0  0
  -31.8260  -24.0970   19.6220 C   0  0  0  0  0  2  0  0  0  0  0  0
  -29.4310  -24.3650   20.0530 C   0  0  0  0  0  3  0  0  0  0  0  0
  -30.4130  -22.0520   19.6180 N   0  0  0  0  0  0  0  0  0  0  0  0
  -30.6540  -24.9800   19.4880 N   0  0  0  0  0  4  0  0  0  0  0  0
  -30.5140  -25.1840   18.5120 H   0  0  0  0  0  0  0  0  0  0  0  0
  -30.8340  -25.8530   19.9600 H   0  0  0  0  0  0  0  0  0  0  0  0
  -30.1730  -20.7810   18.9050 C   0  0  0  0  0  2  0  0  0  0  0  0
  -30.6620  -14.4580   20.4790 C   0  0  0  0  0  0  0  0  0  0  0  0
  -30.3480  -12.3040   19.3220 C   0  0  0  0  0  2  0  0  0  0  0  0
  -29.4180  -12.5270   18.1120 C   0  0  0  0  0  2  0  0  0  0  0  0
  -27.9400  -12.3950   18.5300 C   0  0  0  0  0  2  0  0  0  0  0  0
  -27.6010  -13.2290   19.7950 C   0  0  0  0  0  3  0  0  0  0  0  0
  -28.6470  -12.9940   20.9090 C   0  0  0  0  0  2  0  0  0  0  0  0
  -29.9790  -13.2860   20.3550 N   0  0  0  0  0  0  0  0  0  0  0  0
  -31.7980  -14.5980   20.0130 O   0  0  0  0  0  0  0  0  0  0  0  0
  -28.9120  -18.9160   20.1070 C   0  0  0  0  0  3  0  0  0  0  0  0
  -28.8890  -17.5970   20.6090 C   0  0  0  0  0  3  0  0  0  0  0  0
  -30.1450  -19.4960   19.7400 C   0  0  0  0  0  0  0  0  0  0  0  0
  -31.3120  -18.7460   20.0140 C   0  0  0  0  0  0  0  0  0  0  0  0
  -30.0890  -16.8640   20.7170 C   0  0  0  0  0  0  0  0  0  0  0  0
  -32.6980  -19.2850   19.7280 C   0  0  0  0  0  1  0  0  0  0  0  0
  -31.2760  -17.4790   20.4920 N   0  0  0  0  0  0  0  0  0  0  0  0
  -29.9630  -15.4770   21.0280 N   0  0  0  0  0  0  0  0  0  0  0  0
  -29.0710  -15.1990   21.4030 H   0  0  0  0  0  0  0  0  0  0  0  0
  -25.2000  -13.8540   20.4850 C   0  0  0  0  0  0  0  0  0  0  0  0
  -24.1260  -13.0890   20.8540 C   0  0  0  0  0  0  0  0  0  0  0  0
  -24.5800  -11.7350   20.8310 C   0  0  0  0  0  0  0  0  0  0  0  0
  -26.2420  -12.9650   20.2640 N   0  0  0  0  0  0  0  0  0  0  0  0
  -25.8720  -11.6860   20.5290 N   0  0  0  0  0  0  0  0  0  0  0  0
  -23.8460  -10.4770   21.0220 C   0  0  0  0  0  0  0  0  0  0  0  0
  -24.2800   -9.5030   21.9480 C   0  0  0  0  0  3  0  0  0  0  0  0
  -23.5480   -8.3100   22.1290 C   0  0  0  0  0  3  0  0  0  0  0  0
  -22.3660   -8.0820   21.3840 C   0  0  0  0  0  0  0  0  0  0  0  0
  -21.9500   -9.0450   20.4470 C   0  0  0  0  0  3  0  0  0  0  0  0
  -22.6830  -10.2300   20.2640 C   0  0  0  0  0  3  0  0  0  0  0  0
  -21.6070   -6.9420   21.4730 O   0  0  0  0  0  0  0  0  0  0  0  0
  -21.5790   -6.1830   22.6170 C   0  0  0  0  0  0  0  0  0  0  0  0
  -21.1900   -6.7270   23.8610 C   0  0  0  0  0  3  0  0  0  0  0  0
  -21.1060   -5.8960   24.9970 C   0  0  0  0  0  3  0  0  0  0  0  0
  -21.4010   -4.5230   24.8890 C   0  0  0  0  0  0  0  0  0  0  0  0
  -21.7820   -3.9800   23.6490 C   0  0  0  0  0  3  0  0  0  0  0  0
  -21.8680   -4.8070   22.5160 C   0  0  0  0  0  0  0  0  0  0  0  0
  -22.2150   -4.2750   21.3190 F   0  0  0  0  0  0  0  0  0  0  0  0
  -21.3130   -3.7230   25.9780 F   0  0  0  0  0  0  0  0  0  0  0  0
  -22.7300  -13.5760   21.1180 C   0  0  0  0  0  0  0  0  0  0  0  0
  -21.9940  -12.8880   21.9840 N   0  0  0  0  0  0  0  0  0  0  0  0
  -22.3000  -14.5990   20.5870 O   0  0  0  0  0  0  0  0  0  0  0  0
  -22.3540  -12.0610   22.4350 H   0  0  0  0  0  0  0  0  0  0  0  0
  -21.0560  -13.1960   22.1990 H   0  0  0  0  0  0  0  0  0  0  0  0
  -25.3740  -15.2210   20.2990 N   0  0  0  0  0  0  0  0  0  0  0  0
  -24.6040  -15.8750   20.3870 H   0  0  0  0  0  0  0  0  0  0  0  0
  -26.2060  -15.6420   19.9040 H   0  0  0  0  0  0  0  0  0  0  0  0
  -28.2100  -25.2550   19.7380 C   0  0  0  0  0  2  0  0  0  0  0  0
  -28.3460  -26.6300   20.1540 O   0  0  0  0  0  0  0  0  0  0  0  0
  -24.5960  -31.8670   23.2430 C   0  0  0  0  0  0  0  0  0  0  0  0
  -27.1880  -27.3940   20.1350 C   0  0  0  0  0  0  0  0  0  0  0  0
  -23.3780  -30.4810   21.6020 C   0  0  0  0  0  3  0  0  0  0  0  0
  -24.8130  -28.9480   20.1640 C   0  0  0  0  0  0  0  0  0  0  0  0
  -25.9110  -30.8130   21.4050 C   0  0  0  0  0  2  0  0  0  0  0  0
  -25.9810  -29.4450   20.7540 C   0  0  0  0  0  0  0  0  0  0  0  0
  -27.1710  -28.6760   20.7400 C   0  0  0  0  0  3  0  0  0  0  0  0
  -25.9910  -26.9260   19.5320 C   0  0  0  0  0  3  0  0  0  0  0  0
  -24.8140  -27.6870   19.5540 C   0  0  0  0  0  3  0  0  0  0  0  0
  -23.5790  -29.8170   20.2170 C   0  0  0  0  0  2  0  0  0  0  0  0
  -24.6470  -31.0680   22.1400 N   0  0  0  0  0  0  0  0  0  0  0  0
  -23.5170  -32.1470   23.7830 O   0  0  0  0  0  0  0  0  0  0  0  0
  -22.7240  -29.4550   22.5550 C   0  0  0  0  0  0  0  0  0  0  0  0
  -21.3990  -29.2730   22.4230 N   0  0  0  0  0  0  0  0  0  0  0  0
  -23.4030  -28.8260   23.3710 O   0  0  0  0  0  0  0  0  0  0  0  0
  -20.9120  -29.8330   21.7360 H   0  0  0  0  0  0  0  0  0  0  0  0
  -18.0220  -28.0810   22.9010 C   0  0  0  0  0  0  0  0  0  0  0  0
  -20.5780  -28.3380   23.1900 C   0  0  0  0  0  3  0  0  0  0  0  0
  -20.6840  -26.9050   22.6180 C   0  0  0  0  0  2  0  0  0  0  0  0
  -19.5890  -26.5800   21.5970 C   0  0  0  0  0  2  0  0  0  0  0  0
  -18.2020  -26.7290   22.2310 C   0  0  0  0  0  2  0  0  0  0  0  0
  -19.1380  -28.8430   23.3370 C   0  0  0  0  0  0  0  0  0  0  0  0
  -18.9170  -30.1080   23.9220 C   0  0  0  0  0  3  0  0  0  0  0  0
  -17.6110  -30.6120   24.0770 C   0  0  0  0  0  3  0  0  0  0  0  0
  -16.5090  -29.8460   23.6570 C   0  0  0  0  0  3  0  0  0  0  0  0
  -16.7160  -28.5830   23.0760 C   0  0  0  0  0  3  0  0  0  0  0  0
  -25.8870  -32.4880   23.8610 C   0  0  0  0  0  3  0  0  0  0  0  0
  -25.5870  -33.8880   24.1930 N   0  0  0  0  0  0  0  0  0  0  0  0
  -25.9170  -34.9370   23.4290 C   0  0  0  0  0  0  0  0  0  0  0  0
  -26.5790  -34.8300   22.3920 O   0  0  0  0  0  0  0  0  0  0  0  0
  -25.0020  -34.0450   25.0010 H   0  0  0  0  0  0  0  0  0  0  0  0
  -24.1920  -36.7330   23.0830 C   0  0  0  0  0  1  0  0  0  0  0  0
  -25.4370  -36.3280   23.8870 C   0  0  0  0  0  3  0  0  0  0  0  0
  -27.5830  -37.2030   24.6970 C   0  0  0  0  0  1  0  0  0  0  0  0
  -26.4720  -37.3770   23.7650 N   0  0  0  0  0  0  0  0  0  0  0  0
  -26.0710  -38.2980   23.9220 H   0  0  0  0  0  0  0  0  0  0  0  0
  -26.4030  -31.7110   25.1340 C   0  0  1  0  0  0  0  0  0  0  0  0
  -25.3120  -31.4800   26.2060 C   0  0  0  0  0  1  0  0  0  0  0  0
  -26.9720  -30.3290   24.7370 C   0  0  0  0  0  1  0  0  0  0  0  0
  -27.5620  -32.4960   25.7920 C   0  0  0  0  0  1  0  0  0  0  0  0
  1  5  1  0
  1  3  1  0
  2  5  1  0
  2  4  1  0
  4 55  1  0
  6  3  1  0
  6  8  1  0
  6  4  1  0
  7  6  1  0
  9  5  1  0
  9 20  1  0
 10 25  1  0
 11 16  1  0
 12 13  1  0
 12 11  1  0
 14 13  1  0
 14 30  1  0
 14 15  1  0
 16 10  1  0
 16 15  1  0
 17 10  2  0
 18 19  1  0
 19 22  2  0
 20 21  1  0
 20 18  2  0
 21 24  2  0
 22 25  1  0
 23 21  1  0
 24 22  1  0
 25 26  1  0
 27 28  2  0
 28 47  1  0
 29 28  1  0
 29 32  1  0
 30 27  1  0
 30 31  1  0
 31 29  2  0
 32 33  1  0
 33 34  2  0
 35 38  1  0
 35 34  1  0
 36 35  2  0
 37 36  1  0
 37 32  2  0
 38 39  1  0
 39 40  1  0
 40 41  2  0
 42 41  1  0
 42 46  1  0
 43 42  2  0
 44 39  2  0
 44 43  1  0
 45 44  1  0
 47 48  1  0
 48 51  1  0
 48 50  1  0
 49 47  2  0
 52 53  1  0
 52 27  1  0
 54 52  1  0
 55 56  1  0
 57 68  2  0
 58 56  1  0
 58 63  1  0
 59 67  1  0
 59 69  1  0
 60 66  1  0
 60 62  1  0
 61 67  1  0
 62 61  1  0
 63 62  2  0
 64 65  1  0
 64 58  2  0
 65 60  2  0
 66 59  1  0
 67 57  1  0
 69 71  2  0
 70 69  1  0
 72 70  1  0
 73 82  2  0
 73 78  1  0
 74 70  1  0
 74 78  1  0
 75 74  1  0
 76 77  1  0
 76 75  1  0
 77 73  1  0
 78 79  2  0
 79 80  1  0
 81 80  2  0
 82 81  1  0
 83 57  1  0
 83 84  1  0
 83 93  1  0
 84 87  1  0
 85 89  1  0
 85 84  1  0
 86 85  2  0
 89 88  1  0
 91 89  1  0
 91 92  1  0
 91 90  1  0
 93 96  1  1
 93 94  1  0
 95 93  1  0
M  ISO  4  10 100  25 100  55 101  56 101
M  END
>  <TORSDO>  (37) 
F 18

>  <SCORE>  (37) 
-14.851

>  <name>  (37) 
36

>  <ligand_id>  (37) 
36

>  <original_smiles>  (37) 
[H]c1c(N([H])C(=O)N2C([H])([H])C([H])([H])C([H])([H])C([H])(n3nc(-c4c([H])c([H])c(Oc5c([H])c([H])c(F)c([H])c5F)c([H])c4[H])c(C(=O)N([H])[H])c3N([H])[H])C2([H])[H])nc(C([H])([H])[H])c(C([H])([H])N2C([H])([H])C([H])([H])[N+]([H])([H])C([H])(C([H])([H])Oc3c([H])c([H])c4c(c3[H])C([H])([H])N(C(=O)C([H])(N([H])C(=O)C([H])(N([H])C([H])([H])[H])C([H])([H])[H])C(C([H])([H])[H])(C([H])([H])[H])C([H])([H])[H])C([H])(C(=O)N([H])C3([H])c5c([H])c([H])c([H])c([H])c5C([H])([H])C([H])([H])C3([H])[H])C4([H])[H])C2([H])[H])c1[H]

>  <smiles>  (37) 
[H]c1c(N([H])C(=O)N2C([H])([H])C([H])([H])C([H])([H])C([H])(n3nc(-c4c([H])c([H])c(Oc5c([H])c([H])c(F)c([H])c5F)c([H])c4[H])c(C(=O)N([H])[H])c3N([H])[H])C2([H])[H])nc(C([H])([H])[H])c(C([H])([H])N2C([H])([H])C([H])([H])[N+]([H])([H])C([H])(C([H])([H])Oc3c([H])c([H])c4c(c3[H])C([H])([H])N(C(=O)C([H])(N([H])C(=O)C([H])(N([H])C([H])([H])[H])C([H])([H])[H])C(C([H])([H])[H])(C([H])([H])[H])C([H])([H])[H])C([H])(C(=O)N([H])C3([H])c5c([H])c([H])c([H])c([H])c5C([H])([H])C([H])([H])C3([H])[H])C4([H])[H])C2([H])[H])c1[H]

$$$$
37:0:0
     RDKit          3D

 91100  0  0  1  0  0  0  0  0999 V2000
  -28.6640  -20.3520   20.1380 C   0  0  0  0  0  3  0  0  0  0  0  0
  -30.8510  -19.6600   20.8740 C   0  0  0  0  0  3  0  0  0  0  0  0
  -28.9370  -21.8050   20.3710 C   0  0  0  0  0  0  0  0  0  0  0  0
  -30.2440  -22.0950   20.8070 C   0  0  0  0  0  0  0  0  0  0  0  0
  -29.6120  -19.2160   20.3620 C   0  0  0  0  0  0  0  0  0  0  0  0
  -31.1670  -21.0360   21.0780 C   0  0  0  0  0  0  0  0  0  0  0  0
  -27.9460  -23.1320   20.2660 C   0  0  0  0  0  2  0  0  0  0  0  0
  -30.6030  -23.5850   20.9840 C   0  0  0  0  0  2  0  0  0  0  0  0
  -30.0300  -24.5190   19.8730 C   0  0  0  0  0  2  0  0  0  0  0  0
  -28.4870  -24.6840   19.8550 C   0  0  0  0  0  3  0  0  0  0  0  0
  -32.5630  -21.3580   21.5910 C   0  0  0  0  0  1  0  0  0  0  0  0
  -28.2470  -26.1400   20.4230 O   0  0  0  0  0  0  0  0  0  0  0  0
  -24.6200  -31.8780   23.2610 C   0  0  0  0  0  0  0  0  0  0  0  0
  -27.1830  -27.1100   20.2580 C   0  0  0  0  0  0  0  0  0  0  0  0
  -23.4200  -30.4840   21.6160 C   0  0  0  0  0  3  0  0  0  0  0  0
  -24.8650  -28.8860   20.1970 C   0  0  0  0  0  0  0  0  0  0  0  0
  -25.9740  -30.7230   21.4680 C   0  0  0  0  0  2  0  0  0  0  0  0
  -26.0390  -29.3250   20.8180 C   0  0  0  0  0  0  0  0  0  0  0  0
  -27.1910  -28.4490   20.8350 C   0  0  0  0  0  3  0  0  0  0  0  0
  -25.9900  -26.7750   19.5850 C   0  0  0  0  0  3  0  0  0  0  0  0
  -24.8560  -27.6280   19.5630 C   0  0  0  0  0  3  0  0  0  0  0  0
  -23.6430  -29.7960   20.2400 C   0  0  0  0  0  2  0  0  0  0  0  0
  -24.6910  -31.0520   22.1700 N   0  0  0  0  0  0  0  0  0  0  0  0
  -23.5330  -32.1720   23.7820 O   0  0  0  0  0  0  0  0  0  0  0  0
  -22.7260  -29.4900   22.5810 C   0  0  0  0  0  0  0  0  0  0  0  0
  -21.3960  -29.3300   22.4470 N   0  0  0  0  0  0  0  0  0  0  0  0
  -23.3870  -28.8650   23.4130 O   0  0  0  0  0  0  0  0  0  0  0  0
  -20.9200  -29.8840   21.7510 H   0  0  0  0  0  0  0  0  0  0  0  0
  -18.0040  -28.1550   22.9380 C   0  0  0  0  0  0  0  0  0  0  0  0
  -20.5650  -28.4000   23.2180 C   0  0  0  0  0  3  0  0  0  0  0  0
  -20.6590  -26.9660   22.6470 C   0  0  0  0  0  2  0  0  0  0  0  0
  -19.5590  -26.6500   21.6270 C   0  0  0  0  0  2  0  0  0  0  0  0
  -18.1760  -26.8050   22.2640 C   0  0  0  0  0  2  0  0  0  0  0  0
  -19.1260  -28.9110   23.3720 C   0  0  0  0  0  0  0  0  0  0  0  0
  -18.9120  -30.1740   23.9650 C   0  0  0  0  0  3  0  0  0  0  0  0
  -17.6090  -30.6810   24.1280 C   0  0  0  0  0  3  0  0  0  0  0  0
  -16.5020  -29.9240   23.7090 C   0  0  0  0  0  3  0  0  0  0  0  0
  -16.7010  -28.6620   23.1210 C   0  0  0  0  0  3  0  0  0  0  0  0
  -25.8980  -32.5080   23.8950 C   0  0  0  0  0  3  0  0  0  0  0  0
  -25.5970  -33.9120   24.2150 N   0  0  0  0  0  0  0  0  0  0  0  0
  -25.9310  -34.9610   23.4510 C   0  0  0  0  0  0  0  0  0  0  0  0
  -26.5910  -34.8470   22.4140 O   0  0  0  0  0  0  0  0  0  0  0  0
  -25.0090  -34.0760   25.0190 H   0  0  0  0  0  0  0  0  0  0  0  0
  -24.2080  -36.7650   23.1130 C   0  0  0  0  0  1  0  0  0  0  0  0
  -25.4600  -36.3570   23.9060 C   0  0  0  0  0  3  0  0  0  0  0  0
  -27.6110  -37.2430   24.6960 C   0  0  0  0  0  1  0  0  0  0  0  0
  -26.4970  -37.4040   23.7650 N   0  0  0  0  0  0  0  0  0  0  0  0
  -26.0980  -38.3280   23.9050 H   0  0  0  0  0  0  0  0  0  0  0  0
  -26.3890  -31.7460   25.1890 C   0  0  1  0  0  0  0  0  0  0  0  0
  -25.2800  -31.5320   26.2460 C   0  0  0  0  0  1  0  0  0  0  0  0
  -26.9630  -30.3590   24.8250 C   0  0  0  0  0  1  0  0  0  0  0  0
  -27.5410  -32.5340   25.8560 C   0  0  0  0  0  1  0  0  0  0  0  0
  -29.5010  -17.6230   19.8590 C   0  0  0  0  0  2  0  0  0  0  0  0
  -30.4830  -15.0290   20.2980 C   0  0  0  0  0  0  0  0  0  0  0  0
  -30.3970  -12.6520   19.3940 C   0  0  0  0  0  2  0  0  0  0  0  0
  -29.4650  -12.6040   18.1560 C   0  0  0  0  0  2  0  0  0  0  0  0
  -28.0050  -12.3790   18.5880 C   0  0  0  0  0  2  0  0  0  0  0  0
  -27.5960  -13.2950   19.7700 C   0  0  0  0  0  3  0  0  0  0  0  0
  -28.6500  -13.3160   20.8990 C   0  0  0  0  0  2  0  0  0  0  0  0
  -29.9210  -13.7460   20.3000 N   0  0  0  0  0  0  0  0  0  0  0  0
  -31.6490  -15.1120   19.8960 O   0  0  0  0  0  0  0  0  0  0  0  0
  -29.7040  -16.2040   20.5690 N   0  0  0  0  0  0  0  0  0  0  0  0
  -28.8740  -15.9530   21.0860 H   0  0  0  0  0  0  0  0  0  0  0  0
  -25.2140  -13.8550   20.5150 C   0  0  0  0  0  0  0  0  0  0  0  0
  -24.1560  -13.0740   20.8900 C   0  0  0  0  0  0  0  0  0  0  0  0
  -24.6280  -11.7260   20.8560 C   0  0  0  0  0  0  0  0  0  0  0  0
  -26.2610  -12.9840   20.2680 N   0  0  0  0  0  0  0  0  0  0  0  0
  -25.9190  -11.6980   20.5400 N   0  0  0  0  0  0  0  0  0  0  0  0
  -23.9100  -10.4590   21.0460 C   0  0  0  0  0  0  0  0  0  0  0  0
  -24.3500   -9.4900   21.9740 C   0  0  0  0  0  3  0  0  0  0  0  0
  -23.6280   -8.2910   22.1540 C   0  0  0  0  0  3  0  0  0  0  0  0
  -22.4530   -8.0500   21.4060 C   0  0  0  0  0  0  0  0  0  0  0  0
  -22.0310   -9.0070   20.4670 C   0  0  0  0  0  3  0  0  0  0  0  0
  -22.7530  -10.1990   20.2850 C   0  0  0  0  0  3  0  0  0  0  0  0
  -21.7010   -6.9020   21.4960 O   0  0  0  0  0  0  0  0  0  0  0  0
  -21.6620   -6.1560   22.6460 C   0  0  0  0  0  0  0  0  0  0  0  0
  -21.2280   -6.7020   23.8750 C   0  0  0  0  0  3  0  0  0  0  0  0
  -21.1380   -5.8810   25.0170 C   0  0  0  0  0  3  0  0  0  0  0  0
  -21.4690   -4.5150   24.9310 C   0  0  0  0  0  0  0  0  0  0  0  0
  -21.8960   -3.9700   23.7070 C   0  0  0  0  0  3  0  0  0  0  0  0
  -21.9890   -4.7880   22.5680 C   0  0  0  0  0  0  0  0  0  0  0  0
  -22.3800   -4.2520   21.3870 F   0  0  0  0  0  0  0  0  0  0  0  0
  -21.3760   -3.7240   26.0250 F   0  0  0  0  0  0  0  0  0  0  0  0
  -22.7580  -13.5430   21.1630 C   0  0  0  0  0  0  0  0  0  0  0  0
  -22.0350  -12.8430   22.0310 N   0  0  0  0  0  0  0  0  0  0  0  0
  -22.3150  -14.5680   20.6450 O   0  0  0  0  0  0  0  0  0  0  0  0
  -22.4060  -12.0160   22.4740 H   0  0  0  0  0  0  0  0  0  0  0  0
  -21.0960  -13.1400   22.2550 H   0  0  0  0  0  0  0  0  0  0  0  0
  -25.3680  -15.2260   20.3370 N   0  0  0  0  0  0  0  0  0  0  0  0
  -24.5900  -15.8680   20.4450 H   0  0  0  0  0  0  0  0  0  0  0  0
  -26.1960  -15.6680   19.9630 H   0  0  0  0  0  0  0  0  0  0  0  0
  1  5  2  0
  1  3  1  0
  2  6  2  0
  3  4  2  0
  4  8  1  0
  4  6  1  0
  5  2  1  0
  6 11  1  0
  7  3  1  0
  9  8  1  0
 10  9  1  0
 10  7  1  0
 10 12  1  0
 13 24  2  0
 14 12  1  0
 14 19  1  0
 15 23  1  0
 15 25  1  0
 16 22  1  0
 16 18  1  0
 17 23  1  0
 18 19  2  0
 18 17  1  0
 20 14  2  0
 21 20  1  0
 21 16  2  0
 22 15  1  0
 23 13  1  0
 25 27  2  0
 26 25  1  0
 28 26  1  0
 29 38  2  0
 29 34  1  0
 30 26  1  0
 30 34  1  0
 31 30  1  0
 32 33  1  0
 32 31  1  0
 33 29  1  0
 34 35  2  0
 35 36  1  0
 37 36  2  0
 38 37  1  0
 39 13  1  0
 39 40  1  0
 39 49  1  0
 40 43  1  0
 41 45  1  0
 41 40  1  0
 42 41  2  0
 45 44  1  0
 47 48  1  0
 47 45  1  0
 47 46  1  0
 49 52  1  1
 49 50  1  0
 51 49  1  0
 53  5  1  0
 53 62  1  0
 54 60  1  0
 54 62  1  0
 55 60  1  0
 56 57  1  0
 56 55  1  0
 58 57  1  0
 58 67  1  0
 58 59  1  0
 60 59  1  0
 61 54  2  0
 62 63  1  0
 64 65  2  0
 65 84  1  0
 66 65  1  0
 66 69  1  0
 67 64  1  0
 67 68  1  0
 68 66  2  0
 69 70  1  0
 70 71  2  0
 72 75  1  0
 72 71  1  0
 73 72  2  0
 74 73  1  0
 74 69  2  0
 75 76  1  0
 76 77  1  0
 77 78  2  0
 79 78  1  0
 79 83  1  0
 80 79  2  0
 81 76  2  0
 81 80  1  0
 82 81  1  0
 84 85  1  0
 85 88  1  0
 85 87  1  0
 86 84  2  0
 89 90  1  0
 89 64  1  0
 91 89  1  0
M  ISO  4  10 101  12 101  54 100  62 100
M  END
>  <TORSDO>  (38) 
F 17

>  <SCORE>  (38) 
-15.163

>  <name>  (38) 
37

>  <ligand_id>  (38) 
37

>  <original_smiles>  (38) 
[H]c1c([H])c([H])c2c(c1[H])C([H])([H])C([H])([H])C([H])([H])C2([H])N([H])C(=O)C1([H])N(C(=O)C([H])(N([H])C(=O)C([H])(N([H])C([H])([H])[H])C([H])([H])[H])C(C([H])([H])[H])(C([H])([H])[H])C([H])([H])[H])C([H])([H])c2c([H])c(OC3([H])C([H])([H])c4c([H])c(C([H])([H])N([H])C(=O)N5C([H])([H])C([H])([H])C([H])([H])C([H])(n6nc(-c7c([H])c([H])c(Oc8c([H])c([H])c(F)c([H])c8F)c([H])c7[H])c(C(=O)N([H])[H])c6N([H])[H])C5([H])[H])c([H])c(C([H])([H])[H])c4C([H])([H])C3([H])[H])c([H])c([H])c2C1([H])[H]

>  <smiles>  (38) 
[H]c1c([H])c([H])c2c(c1[H])C([H])([H])C([H])([H])C([H])([H])C2([H])N([H])C(=O)C1([H])N(C(=O)C([H])(N([H])C(=O)C([H])(N([H])C([H])([H])[H])C([H])([H])[H])C(C([H])([H])[H])(C([H])([H])[H])C([H])([H])[H])C([H])([H])c2c([H])c(OC3([H])C([H])([H])c4c([H])c(C([H])([H])N([H])C(=O)N5C([H])([H])C([H])([H])C([H])([H])C([H])(n6nc(-c7c([H])c([H])c(Oc8c([H])c([H])c(F)c([H])c8F)c([H])c7[H])c(C(=O)N([H])[H])c6N([H])[H])C5([H])[H])c([H])c(C([H])([H])[H])c4C([H])([H])C3([H])[H])c([H])c([H])c2C1([H])[H]

$$$$
38:0:0
     RDKit          3D

 98106  0  0  1  0  0  0  0  0999 V2000
  -29.8810  -21.3170   22.2780 C   0  0  0  0  0  3  0  0  0  0  0  0
  -30.9080  -19.3480   22.1000 C   0  0  0  0  0  3  0  0  0  0  0  0
  -30.7120  -20.3870   22.9620 C   0  0  0  0  0  0  0  0  0  0  0  0
  -29.5630  -20.8300   21.0360 C   0  0  0  0  0  0  0  0  0  0  0  0
  -30.2450  -19.5850   20.9050 N   0  0  0  0  0  0  0  0  0  0  0  0
  -28.6560  -21.5020   20.0250 C   0  0  0  0  0  0  0  0  0  0  0  0
  -28.2770  -22.7750   20.3080 N   0  0  0  0  0  0  0  0  0  0  0  0
  -28.2740  -20.9230   19.0090 O   0  0  0  0  0  0  0  0  0  0  0  0
  -28.6380  -23.1460   21.1740 H   0  0  0  0  0  0  0  0  0  0  0  0
  -27.4010  -23.6850   19.5200 C   0  0  0  0  0  2  0  0  0  0  0  0
  -27.1350  -25.0620   20.2260 C   0  0  0  0  0  2  0  0  0  0  0  0
  -27.2220  -26.2690   19.4070 O   0  0  0  0  0  0  0  0  0  0  0  0
  -24.4380  -31.6850   23.1940 C   0  0  0  0  0  0  0  0  0  0  0  0
  -26.1870  -27.1810   19.5760 C   0  0  0  0  0  0  0  0  0  0  0  0
  -22.8990  -30.5170   21.6520 C   0  0  0  0  0  3  0  0  0  0  0  0
  -23.9960  -28.9460   19.9650 C   0  0  0  0  0  0  0  0  0  0  0  0
  -25.4070  -30.6370   21.1430 C   0  0  0  0  0  2  0  0  0  0  0  0
  -25.2700  -29.3060   20.4230 C   0  0  0  0  0  0  0  0  0  0  0  0
  -26.3730  -28.4350   20.2180 C   0  0  0  0  0  3  0  0  0  0  0  0
  -24.9000  -26.8570   19.1000 C   0  0  0  0  0  3  0  0  0  0  0  0
  -23.8070  -27.7250   19.2940 C   0  0  0  0  0  3  0  0  0  0  0  0
  -22.8640  -29.9180   20.2210 C   0  0  0  0  0  2  0  0  0  0  0  0
  -24.2750  -30.9580   22.0520 N   0  0  0  0  0  0  0  0  0  0  0  0
  -23.4660  -32.0210   23.8860 O   0  0  0  0  0  0  0  0  0  0  0  0
  -22.2710  -29.5010   22.6340 C   0  0  0  0  0  0  0  0  0  0  0  0
  -20.9450  -29.3080   22.5330 N   0  0  0  0  0  0  0  0  0  0  0  0
  -22.9730  -28.8910   23.4440 O   0  0  0  0  0  0  0  0  0  0  0  0
  -20.4390  -29.8530   21.8490 H   0  0  0  0  0  0  0  0  0  0  0  0
  -17.6370  -27.9050   22.9370 C   0  0  0  0  0  0  0  0  0  0  0  0
  -20.1500  -28.3710   23.3280 C   0  0  0  0  0  3  0  0  0  0  0  0
  -20.3870  -26.9130   22.8690 C   0  0  0  0  0  2  0  0  0  0  0  0
  -19.3720  -26.4370   21.8240 C   0  0  0  0  0  2  0  0  0  0  0  0
  -17.9470  -26.5270   22.3780 C   0  0  0  0  0  2  0  0  0  0  0  0
  -18.6730  -28.7770   23.3700 C   0  0  0  0  0  0  0  0  0  0  0  0
  -18.3320  -30.0600   23.8490 C   0  0  0  0  0  3  0  0  0  0  0  0
  -16.9880  -30.4740   23.9040 C   0  0  0  0  0  3  0  0  0  0  0  0
  -15.9660  -29.6030   23.4890 C   0  0  0  0  0  3  0  0  0  0  0  0
  -16.2910  -28.3210   23.0110 C   0  0  0  0  0  3  0  0  0  0  0  0
  -25.8470  -32.1520   23.6720 C   0  0  0  0  0  3  0  0  0  0  0  0
  -26.4260  -31.2730   24.8480 C   0  0  1  0  0  0  0  0  0  0  0  0
  -25.4460  -31.0940   26.0310 C   0  0  0  0  0  1  0  0  0  0  0  0
  -26.8120  -29.8650   24.3390 C   0  0  0  0  0  1  0  0  0  0  0  0
  -27.7220  -31.9170   25.3960 C   0  0  0  0  0  1  0  0  0  0  0  0
  -25.7340  -33.5580   24.0820 N   0  0  0  0  0  0  0  0  0  0  0  0
  -26.1340  -34.6000   23.3430 C   0  0  0  0  0  0  0  0  0  0  0  0
  -26.7090  -34.4710   22.2580 O   0  0  0  0  0  0  0  0  0  0  0  0
  -25.2220  -33.7400   24.9330 H   0  0  0  0  0  0  0  0  0  0  0  0
  -24.6120  -36.5970   23.2000 C   0  0  0  0  0  1  0  0  0  0  0  0
  -25.8530  -36.0110   23.8930 C   0  0  0  0  0  3  0  0  0  0  0  0
  -28.1290  -36.6050   24.5940 C   0  0  0  0  0  1  0  0  0  0  0  0
  -26.9930  -36.9410   23.7420 N   0  0  0  0  0  0  0  0  0  0  0  0
  -26.7100  -37.8950   23.9510 H   0  0  0  0  0  0  0  0  0  0  0  0
  -31.2420  -20.5060   24.3720 C   0  0  0  0  0  2  0  0  0  0  0  0
  -32.4490  -21.4540   24.4980 C   0  0  0  0  0  2  0  0  0  0  0  0
  -33.5590  -21.0750   23.6050 N   0  0  0  0  0  4  0  0  0  0  0  0
  -33.9150  -20.1670   23.8460 H   0  0  0  0  0  0  0  0  0  0  0  0
  -34.3060  -21.7410   23.6870 H   0  0  0  0  0  0  0  0  0  0  0  0
  -33.2440  -21.0610   22.6520 H   0  0  0  0  0  0  0  0  0  0  0  0
  -30.2700  -18.5790   19.8170 C   0  0  0  0  0  2  0  0  0  0  0  0
  -31.3080  -17.4060   19.9990 C   0  0  0  0  0  2  0  0  0  0  0  0
  -31.4680  -14.8840   19.7800 C   0  0  0  0  0  0  0  0  0  0  0  0
  -31.1360  -12.5740   18.9640 C   0  0  0  0  0  2  0  0  0  0  0  0
  -30.1370  -12.6010   17.7890 C   0  0  0  0  0  2  0  0  0  0  0  0
  -28.6870  -12.5130   18.3080 C   0  0  0  0  0  2  0  0  0  0  0  0
  -28.4010  -13.5010   19.4690 C   0  0  0  0  0  3  0  0  0  0  0  0
  -29.5180  -13.4630   20.5360 C   0  0  0  0  0  2  0  0  0  0  0  0
  -30.7970  -13.7000   19.8530 N   0  0  0  0  0  0  0  0  0  0  0  0
  -32.6000  -14.9600   19.2950 O   0  0  0  0  0  0  0  0  0  0  0  0
  -30.7800  -16.0100   20.0990 N   0  0  0  0  0  0  0  0  0  0  0  0
  -29.8380  -15.8890   20.4400 H   0  0  0  0  0  0  0  0  0  0  0  0
  -26.1320  -14.2010   20.4510 C   0  0  0  0  0  0  0  0  0  0  0  0
  -25.0440  -13.4750   20.8580 C   0  0  0  0  0  0  0  0  0  0  0  0
  -25.3970  -12.1030   20.6790 C   0  0  0  0  0  0  0  0  0  0  0  0
  -27.0820  -13.2740   20.0550 N   0  0  0  0  0  0  0  0  0  0  0  0
  -26.6490  -12.0020   20.2490 N   0  0  0  0  0  0  0  0  0  0  0  0
  -24.5960  -10.8820   20.8370 C   0  0  0  0  0  0  0  0  0  0  0  0
  -24.9470   -9.8830   21.7730 C   0  0  0  0  0  3  0  0  0  0  0  0
  -24.1500   -8.7270   21.9200 C   0  0  0  0  0  3  0  0  0  0  0  0
  -22.9860   -8.5630   21.1330 C   0  0  0  0  0  0  0  0  0  0  0  0
  -22.6540   -9.5480   20.1880 C   0  0  0  0  0  3  0  0  0  0  0  0
  -23.4510  -10.6960   20.0380 C   0  0  0  0  0  3  0  0  0  0  0  0
  -22.1640   -7.4630   21.1910 O   0  0  0  0  0  0  0  0  0  0  0  0
  -21.9080   -6.8170   22.3740 C   0  0  0  0  0  0  0  0  0  0  0  0
  -21.2830   -7.4710   23.4600 C   0  0  0  0  0  3  0  0  0  0  0  0
  -20.9750   -6.7500   24.6310 C   0  0  0  0  0  3  0  0  0  0  0  0
  -21.2810   -5.3790   24.7160 C   0  0  0  0  0  0  0  0  0  0  0  0
  -21.8980   -4.7260   23.6350 C   0  0  0  0  0  3  0  0  0  0  0  0
  -22.2070   -5.4430   22.4660 C   0  0  0  0  0  0  0  0  0  0  0  0
  -22.7830   -4.8040   21.4190 F   0  0  0  0  0  0  0  0  0  0  0  0
  -20.9770   -4.6850   25.8380 F   0  0  0  0  0  0  0  0  0  0  0  0
  -23.7160  -14.0230   21.2940 C   0  0  0  0  0  0  0  0  0  0  0  0
  -23.0190  -13.3140   22.1740 N   0  0  0  0  0  0  0  0  0  0  0  0
  -23.3100  -15.1110   20.8880 O   0  0  0  0  0  0  0  0  0  0  0  0
  -23.3600  -12.4290   22.5220 H   0  0  0  0  0  0  0  0  0  0  0  0
  -22.1300  -13.6610   22.5060 H   0  0  0  0  0  0  0  0  0  0  0  0
  -26.3820  -15.5670   20.3620 N   0  0  0  0  0  0  0  0  0  0  0  0
  -25.6750  -16.2580   20.5850 H   0  0  0  0  0  0  0  0  0  0  0  0
  -27.2190  -15.9750   19.9670 H   0  0  0  0  0  0  0  0  0  0  0  0
  1  3  1  0
  2  3  2  0
  3 53  1  0
  4  1  2  0
  5  4  1  0
  5  2  1  0
  6  7  1  0
  6  4  1  0
  7  9  1  0
  8  6  2  0
 10 11  1  0
 10  7  1  0
 12 14  1  0
 12 11  1  0
 13 24  2  0
 14 19  1  0
 15 23  1  0
 15 25  1  0
 16 22  1  0
 16 18  1  0
 17 23  1  0
 18 17  1  0
 19 18  2  0
 20 21  1  0
 20 14  2  0
 21 16  2  0
 22 15  1  0
 23 13  1  0
 25 27  2  0
 26 25  1  0
 28 26  1  0
 29 38  2  0
 29 34  1  0
 30 26  1  0
 30 34  1  0
 31 30  1  0
 32 33  1  0
 32 31  1  0
 33 29  1  0
 34 35  2  0
 35 36  1  0
 37 36  2  0
 38 37  1  0
 39 13  1  0
 39 44  1  0
 39 40  1  0
 40 43  1  1
 40 41  1  0
 42 40  1  0
 44 47  1  0
 45 49  1  0
 45 44  1  0
 46 45  2  0
 49 48  1  0
 51 49  1  0
 51 52  1  0
 51 50  1  0
 53 54  1  0
 55 57  1  0
 55 56  1  0
 55 54  1  0
 58 55  1  0
 59 60  1  0
 59  5  1  0
 60 69  1  0
 61 67  1  0
 61 69  1  0
 62 67  1  0
 63 64  1  0
 63 62  1  0
 65 64  1  0
 65 74  1  0
 65 66  1  0
 67 66  1  0
 68 61  2  0
 69 70  1  0
 71 72  2  0
 72 91  1  0
 73 76  1  0
 73 72  1  0
 74 75  1  0
 74 71  1  0
 75 73  2  0
 76 77  1  0
 77 78  2  0
 79 82  1  0
 79 78  1  0
 80 79  2  0
 81 80  1  0
 81 76  2  0
 82 83  1  0
 83 88  2  0
 83 84  1  0
 84 85  2  0
 85 86  1  0
 86 90  1  0
 87 86  2  0
 88 87  1  0
 89 88  1  0
 91 92  1  0
 92 95  1  0
 92 94  1  0
 93 91  2  0
 96 71  1  0
 96 97  1  0
 98 96  1  0
M  ISO  4  11 101  12 101  61 100  69 100
M  END
>  <TORSDO>  (39) 
F 24

>  <SCORE>  (39) 
-10.825

>  <name>  (39) 
38

>  <ligand_id>  (39) 
38

>  <original_smiles>  (39) 
[H]c1c([H])c([H])c2c(c1[H])C([H])([H])C([H])([H])C([H])([H])C2([H])N([H])C(=O)C1([H])N(C(=O)C([H])(N([H])C(=O)C([H])(N([H])C([H])([H])[H])C([H])([H])[H])C(C([H])([H])[H])(C([H])([H])[H])C([H])([H])[H])C([H])([H])c2c([H])c(OC([H])([H])C([H])([H])N([H])C(=O)c3c([H])c(C([H])([H])C([H])([H])[N+]([H])([H])[H])c([H])n3C([H])([H])C([H])([H])N([H])C(=O)N3C([H])([H])C([H])([H])C([H])([H])C([H])(n4nc(-c5c([H])c([H])c(Oc6c([H])c([H])c(F)c([H])c6F)c([H])c5[H])c(C(=O)N([H])[H])c4N([H])[H])C3([H])[H])c([H])c([H])c2C1([H])[H]

>  <smiles>  (39) 
[H]c1c([H])c([H])c2c(c1[H])C([H])([H])C([H])([H])C([H])([H])C2([H])N([H])C(=O)C1([H])N(C(=O)C([H])(N([H])C(=O)C([H])(N([H])C([H])([H])[H])C([H])([H])[H])C(C([H])([H])[H])(C([H])([H])[H])C([H])([H])[H])C([H])([H])c2c([H])c(OC([H])([H])C([H])([H])N([H])C(=O)c3c([H])c(C([H])([H])C([H])([H])[N+]([H])([H])[H])c([H])n3C([H])([H])C([H])([H])N([H])C(=O)N3C([H])([H])C([H])([H])C([H])([H])C([H])(n4nc(-c5c([H])c([H])c(Oc6c([H])c([H])c(F)c([H])c6F)c([H])c5[H])c(C(=O)N([H])[H])c4N([H])[H])C3([H])[H])c([H])c([H])c2C1([H])[H]

$$$$
39:0:0
     RDKit          3D

 92100  0  0  1  0  0  0  0  0999 V2000
  -29.8390  -23.2550   19.3210 C   0  0  0  0  0  3  0  0  0  0  0  0
  -28.5410  -21.7420   20.6440 C   0  0  0  0  0  3  0  0  0  0  0  0
  -28.7540  -23.1620   20.2060 C   0  0  0  0  0  0  0  0  0  0  0  0
  -30.5770  -22.1090   18.9180 C   0  0  0  0  0  0  0  0  0  0  0  0
  -29.3540  -20.5590   20.2290 C   0  0  0  0  0  0  0  0  0  0  0  0
  -30.3540  -20.8360   19.3640 N   0  0  0  0  0  0  0  0  0  0  0  0
  -29.2160  -19.1040   20.5970 N   0  0  0  0  0  0  0  0  0  0  0  0
  -28.5180  -18.9340   21.3150 H   0  0  0  0  0  0  0  0  0  0  0  0
  -30.1360  -17.8500   20.2650 C   0  0  0  0  0  2  0  0  0  0  0  0
  -30.4940  -15.0780   20.3230 C   0  0  0  0  0  0  0  0  0  0  0  0
  -30.3610  -12.7170   19.3720 C   0  0  0  0  0  2  0  0  0  0  0  0
  -29.4190  -12.6700   18.1460 C   0  0  0  0  0  2  0  0  0  0  0  0
  -27.9640  -12.4370   18.5940 C   0  0  0  0  0  2  0  0  0  0  0  0
  -27.5640  -13.3530   19.7790 C   0  0  0  0  0  3  0  0  0  0  0  0
  -28.6310  -13.3770   20.8950 C   0  0  0  0  0  2  0  0  0  0  0  0
  -29.8880  -13.8140   20.2740 N   0  0  0  0  0  0  0  0  0  0  0  0
  -31.6920  -15.1080   20.0210 O   0  0  0  0  0  0  0  0  0  0  0  0
  -29.7520  -16.3030   20.5010 N   0  0  0  0  0  0  0  0  0  0  0  0
  -28.7860  -16.1400   20.7380 H   0  0  0  0  0  0  0  0  0  0  0  0
  -25.1950  -13.9220   20.5510 C   0  0  0  0  0  0  0  0  0  0  0  0
  -24.1360  -13.1440   20.9280 C   0  0  0  0  0  0  0  0  0  0  0  0
  -24.6010  -11.7930   20.8850 C   0  0  0  0  0  0  0  0  0  0  0  0
  -26.2350  -13.0460   20.2920 N   0  0  0  0  0  0  0  0  0  0  0  0
  -25.8890  -11.7590   20.5600 N   0  0  0  0  0  0  0  0  0  0  0  0
  -23.8750  -10.5290   21.0720 C   0  0  0  0  0  0  0  0  0  0  0  0
  -24.3130   -9.5560   21.9960 C   0  0  0  0  0  3  0  0  0  0  0  0
  -23.5870   -8.3590   22.1730 C   0  0  0  0  0  3  0  0  0  0  0  0
  -22.4070   -8.1260   21.4260 C   0  0  0  0  0  0  0  0  0  0  0  0
  -21.9870   -9.0890   20.4900 C   0  0  0  0  0  3  0  0  0  0  0  0
  -22.7150  -10.2780   20.3110 C   0  0  0  0  0  3  0  0  0  0  0  0
  -21.6490   -6.9840   21.5150 O   0  0  0  0  0  0  0  0  0  0  0  0
  -21.6080   -6.2350   22.6640 C   0  0  0  0  0  0  0  0  0  0  0  0
  -21.1840   -6.7810   23.8940 C   0  0  0  0  0  3  0  0  0  0  0  0
  -21.0900   -5.9590   25.0360 C   0  0  0  0  0  3  0  0  0  0  0  0
  -21.4080   -4.5900   24.9450 C   0  0  0  0  0  0  0  0  0  0  0  0
  -21.8280   -4.0440   23.7200 C   0  0  0  0  0  3  0  0  0  0  0  0
  -21.9230   -4.8640   22.5820 C   0  0  0  0  0  0  0  0  0  0  0  0
  -22.3060   -4.3280   21.3970 F   0  0  0  0  0  0  0  0  0  0  0  0
  -21.3120   -3.7970   26.0380 F   0  0  0  0  0  0  0  0  0  0  0  0
  -22.7410  -13.6190   21.2110 C   0  0  0  0  0  0  0  0  0  0  0  0
  -22.0210  -12.9210   22.0820 N   0  0  0  0  0  0  0  0  0  0  0  0
  -22.3000  -14.6450   20.6960 O   0  0  0  0  0  0  0  0  0  0  0  0
  -22.3930  -12.0950   22.5250 H   0  0  0  0  0  0  0  0  0  0  0  0
  -21.0820  -13.2200   22.3110 H   0  0  0  0  0  0  0  0  0  0  0  0
  -25.3550  -15.2940   20.3790 N   0  0  0  0  0  0  0  0  0  0  0  0
  -24.5840  -15.9420   20.4870 H   0  0  0  0  0  0  0  0  0  0  0  0
  -26.1870  -15.7290   20.0060 H   0  0  0  0  0  0  0  0  0  0  0  0
  -27.8520  -24.5390   20.5300 C   0  0  0  0  0  2  0  0  0  0  0  0
  -28.1990  -26.0650   20.2510 O   0  0  0  0  0  0  0  0  0  0  0  0
  -24.6070  -31.8740   23.2250 C   0  0  0  0  0  0  0  0  0  0  0  0
  -27.1690  -27.0960   20.2170 C   0  0  0  0  0  0  0  0  0  0  0  0
  -23.4070  -30.4660   21.6010 C   0  0  0  0  0  3  0  0  0  0  0  0
  -24.8520  -28.8830   20.1790 C   0  0  0  0  0  0  0  0  0  0  0  0
  -25.9650  -30.7220   21.4280 C   0  0  0  0  0  2  0  0  0  0  0  0
  -26.0370  -29.3200   20.7850 C   0  0  0  0  0  0  0  0  0  0  0  0
  -27.1980  -28.4450   20.7840 C   0  0  0  0  0  3  0  0  0  0  0  0
  -25.9610  -26.7880   19.5550 C   0  0  0  0  0  3  0  0  0  0  0  0
  -24.8310  -27.6340   19.5450 C   0  0  0  0  0  3  0  0  0  0  0  0
  -23.6260  -29.7840   20.2260 C   0  0  0  0  0  2  0  0  0  0  0  0
  -24.6810  -31.0440   22.1390 N   0  0  0  0  0  0  0  0  0  0  0  0
  -23.5220  -32.1580   23.7550 O   0  0  0  0  0  0  0  0  0  0  0  0
  -22.7340  -29.4620   22.5740 C   0  0  0  0  0  0  0  0  0  0  0  0
  -21.4050  -29.2860   22.4550 N   0  0  0  0  0  0  0  0  0  0  0  0
  -23.4100  -28.8440   23.4000 O   0  0  0  0  0  0  0  0  0  0  0  0
  -20.9130  -29.8340   21.7620 H   0  0  0  0  0  0  0  0  0  0  0  0
  -18.0310  -28.0700   22.9820 C   0  0  0  0  0  0  0  0  0  0  0  0
  -20.5900  -28.3510   23.2370 C   0  0  0  0  0  3  0  0  0  0  0  0
  -20.6990  -26.9150   22.6740 C   0  0  0  0  0  2  0  0  0  0  0  0
  -19.5960  -26.5770   21.6660 C   0  0  0  0  0  2  0  0  0  0  0  0
  -18.2150  -26.7170   22.3140 C   0  0  0  0  0  2  0  0  0  0  0  0
  -19.1470  -28.8440   23.4010 C   0  0  0  0  0  0  0  0  0  0  0  0
  -18.9190  -30.1080   23.9880 C   0  0  0  0  0  3  0  0  0  0  0  0
  -17.6110  -30.5990   24.1580 C   0  0  0  0  0  3  0  0  0  0  0  0
  -16.5110  -29.8230   23.7530 C   0  0  0  0  0  3  0  0  0  0  0  0
  -16.7220  -28.5600   23.1710 C   0  0  0  0  0  3  0  0  0  0  0  0
  -25.8840  -32.5220   23.8430 C   0  0  0  0  0  3  0  0  0  0  0  0
  -25.5630  -33.9180   24.1770 N   0  0  0  0  0  0  0  0  0  0  0  0
  -25.8760  -34.9790   23.4200 C   0  0  0  0  0  0  0  0  0  0  0  0
  -26.5320  -34.8840   22.3800 O   0  0  0  0  0  0  0  0  0  0  0  0
  -24.9760  -34.0640   24.9850 H   0  0  0  0  0  0  0  0  0  0  0  0
  -24.1300  -36.7640   23.1040 C   0  0  0  0  0  1  0  0  0  0  0  0
  -25.3880  -36.3640   23.8920 C   0  0  0  0  0  3  0  0  0  0  0  0
  -27.5300  -37.2640   24.6870 C   0  0  0  0  0  1  0  0  0  0  0  0
  -26.4110  -37.4260   23.7640 N   0  0  0  0  0  0  0  0  0  0  0  0
  -26.0000  -38.3420   23.9200 H   0  0  0  0  0  0  0  0  0  0  0  0
  -26.4060  -31.7580   25.1220 C   0  0  1  0  0  0  0  0  0  0  0  0
  -25.3170  -31.5230   26.1950 C   0  0  0  0  0  1  0  0  0  0  0  0
  -26.9930  -30.3800   24.7420 C   0  0  0  0  0  1  0  0  0  0  0  0
  -27.5570  -32.5600   25.7760 C   0  0  0  0  0  1  0  0  0  0  0  0
  -31.7040  -22.2360   17.8920 C   0  0  0  0  0  2  0  0  0  0  0  0
  -32.6170  -23.4310   15.8020 C   0  0  0  0  0  1  0  0  0  0  0  0
  -31.5960  -23.4540   16.9460 C   0  0  0  0  0  2  0  0  0  0  0  0
  1  3  1  0
  3 48  1  0
  3  2  2  0
  4  1  2  0
  4  6  1  0
  5  7  1  0
  5  2  1  0
  6  5  2  0
  7  8  1  0
  9 18  1  0
  9  7  1  0
 10 18  1  0
 11 16  1  0
 12 13  1  0
 12 11  1  0
 14 13  1  0
 14 23  1  0
 14 15  1  0
 16 10  1  0
 16 15  1  0
 17 10  2  0
 18 19  1  0
 20 21  2  0
 21 40  1  0
 22 21  1  0
 22 25  1  0
 23 20  1  0
 23 24  1  0
 24 22  2  0
 25 26  1  0
 26 27  2  0
 28 31  1  0
 28 27  1  0
 29 28  2  0
 30 29  1  0
 30 25  2  0
 31 32  1  0
 32 33  1  0
 33 34  2  0
 35 34  1  0
 35 39  1  0
 36 35  2  0
 37 32  2  0
 37 36  1  0
 38 37  1  0
 40 41  1  0
 41 44  1  0
 41 43  1  0
 42 40  2  0
 45 46  1  0
 45 20  1  0
 47 45  1  0
 49 48  1  0
 50 61  2  0
 51 49  1  0
 51 56  1  0
 52 60  1  0
 52 62  1  0
 53 59  1  0
 53 55  1  0
 54 60  1  0
 55 54  1  0
 56 55  2  0
 57 51  2  0
 58 57  1  0
 58 53  2  0
 59 52  1  0
 60 50  1  0
 62 64  2  0
 63 62  1  0
 65 63  1  0
 66 75  2  0
 66 71  1  0
 67 63  1  0
 67 71  1  0
 68 67  1  0
 69 70  1  0
 69 68  1  0
 70 66  1  0
 71 72  2  0
 72 73  1  0
 74 73  2  0
 75 74  1  0
 76 50  1  0
 76 77  1  0
 76 86  1  0
 77 80  1  0
 78 82  1  0
 78 77  1  0
 79 78  2  0
 82 81  1  0
 84 82  1  0
 84 85  1  0
 84 83  1  0
 86 89  1  1
 86 87  1  0
 88 86  1  0
 90  4  1  0
 91 92  1  0
 92 90  1  0
M  ISO  4  10 100  18 100  48 101  49 101
M  END
>  <TORSDO>  (40) 
F 21

>  <SCORE>  (40) 
-13.423

>  <name>  (40) 
39

>  <ligand_id>  (40) 
39

>  <original_smiles>  (40) 
[H]c1c([H])c([H])c2c(c1[H])C([H])([H])C([H])([H])C([H])([H])C2([H])N([H])C(=O)C1([H])N(C(=O)C([H])(N([H])C(=O)C([H])(N([H])C([H])([H])[H])C([H])([H])[H])C(C([H])([H])[H])(C([H])([H])[H])C([H])([H])[H])C([H])([H])c2c([H])c(OC([H])([H])c3c([H])c(N([H])C([H])([H])N([H])C(=O)N4C([H])([H])C([H])([H])C([H])([H])C([H])(n5nc(-c6c([H])c([H])c(Oc7c([H])c([H])c(F)c([H])c7F)c([H])c6[H])c(C(=O)N([H])[H])c5N([H])[H])C4([H])[H])nc(C([H])([H])C([H])([H])C([H])([H])[H])c3[H])c([H])c([H])c2C1([H])[H]

>  <smiles>  (40) 
[H]c1c([H])c([H])c2c(c1[H])C([H])([H])C([H])([H])C([H])([H])C2([H])N([H])C(=O)C1([H])N(C(=O)C([H])(N([H])C(=O)C([H])(N([H])C([H])([H])[H])C([H])([H])[H])C(C([H])([H])[H])(C([H])([H])[H])C([H])([H])[H])C([H])([H])c2c([H])c(OC([H])([H])c3c([H])c(N([H])C([H])([H])N([H])C(=O)N4C([H])([H])C([H])([H])C([H])([H])C([H])(n5nc(-c6c([H])c([H])c(Oc7c([H])c([H])c(F)c([H])c7F)c([H])c6[H])c(C(=O)N([H])[H])c5N([H])[H])C4([H])[H])nc(C([H])([H])C([H])([H])C([H])([H])[H])c3[H])c([H])c([H])c2C1([H])[H]

$$$$
40:0:0
     RDKit          3D

 92100  0  0  1  0  0  0  0  0999 V2000
  -28.9050  -19.9090   18.5720 C   0  0  0  0  0  3  0  0  0  0  0  0
  -28.6040  -21.2900   18.7440 C   0  0  0  0  0  3  0  0  0  0  0  0
  -29.8090  -19.5030   19.5220 C   0  0  0  0  0  0  0  0  0  0  0  0
  -29.3200  -21.7390   19.8160 C   0  0  0  0  0  0  0  0  0  0  0  0
  -30.0740  -20.6480   20.3100 N   0  0  0  0  0  0  0  0  0  0  0  0
  -30.1870  -20.9820   22.7530 C   0  0  0  0  0  1  0  0  0  0  0  0
  -32.1470  -21.6530   21.2610 C   0  0  0  0  0  1  0  0  0  0  0  0
  -30.9700  -20.6870   21.4650 C   0  0  0  0  0  3  0  0  0  0  0  0
  -30.4470  -18.0940   19.6020 C   0  0  0  0  0  2  0  0  0  0  0  0
  -30.2980  -17.2000   20.8830 C   0  0  0  0  0  2  0  0  0  0  0  0
  -30.9330  -14.7120   20.3230 C   0  0  0  0  0  0  0  0  0  0  0  0
  -30.7120  -12.4960   19.2280 C   0  0  0  0  0  2  0  0  0  0  0  0
  -29.7580  -12.6460   18.0210 C   0  0  0  0  0  2  0  0  0  0  0  0
  -28.2830  -12.5070   18.4560 C   0  0  0  0  0  2  0  0  0  0  0  0
  -27.9420  -13.3670   19.7020 C   0  0  0  0  0  3  0  0  0  0  0  0
  -29.0010  -13.1660   20.8100 C   0  0  0  0  0  2  0  0  0  0  0  0
  -30.3140  -13.4970   20.2320 N   0  0  0  0  0  0  0  0  0  0  0  0
  -32.0900  -14.9010   19.9390 O   0  0  0  0  0  0  0  0  0  0  0  0
  -30.1110  -15.7290   20.6900 N   0  0  0  0  0  0  0  0  0  0  0  0
  -29.1830  -15.4060   20.9190 H   0  0  0  0  0  0  0  0  0  0  0  0
  -25.5590  -14.0070   20.4270 C   0  0  0  0  0  0  0  0  0  0  0  0
  -24.4810  -13.2480   20.7990 C   0  0  0  0  0  0  0  0  0  0  0  0
  -24.9230  -11.8910   20.7640 C   0  0  0  0  0  0  0  0  0  0  0  0
  -26.5890  -13.1100   20.1880 N   0  0  0  0  0  0  0  0  0  0  0  0
  -26.2110  -11.8330   20.4510 N   0  0  0  0  0  0  0  0  0  0  0  0
  -24.1810  -10.6390   20.9530 C   0  0  0  0  0  0  0  0  0  0  0  0
  -24.5950   -9.6700   21.8940 C   0  0  0  0  0  3  0  0  0  0  0  0
  -23.8540   -8.4820   22.0690 C   0  0  0  0  0  3  0  0  0  0  0  0
  -22.6850   -8.2550   21.3050 C   0  0  0  0  0  0  0  0  0  0  0  0
  -22.2910   -9.2120   20.3540 C   0  0  0  0  0  3  0  0  0  0  0  0
  -23.0320  -10.3920   20.1760 C   0  0  0  0  0  3  0  0  0  0  0  0
  -21.9160   -7.1190   21.3900 O   0  0  0  0  0  0  0  0  0  0  0  0
  -21.8310   -6.3940   22.5510 C   0  0  0  0  0  0  0  0  0  0  0  0
  -21.3700   -6.9670   23.7570 C   0  0  0  0  0  3  0  0  0  0  0  0
  -21.2310   -6.1680   24.9090 C   0  0  0  0  0  3  0  0  0  0  0  0
  -21.5430   -4.7960   24.8570 C   0  0  0  0  0  0  0  0  0  0  0  0
  -21.9980   -4.2220   23.6560 C   0  0  0  0  0  3  0  0  0  0  0  0
  -22.1380   -5.0180   22.5060 C   0  0  0  0  0  0  0  0  0  0  0  0
  -22.5560   -4.4560   21.3470 F   0  0  0  0  0  0  0  0  0  0  0  0
  -21.4040   -4.0270   25.9620 F   0  0  0  0  0  0  0  0  0  0  0  0
  -23.0920  -13.7450   21.0780 C   0  0  0  0  0  0  0  0  0  0  0  0
  -22.3590  -13.0610   21.9500 N   0  0  0  0  0  0  0  0  0  0  0  0
  -22.6640  -14.7750   20.5570 O   0  0  0  0  0  0  0  0  0  0  0  0
  -22.7170  -12.2280   22.3930 H   0  0  0  0  0  0  0  0  0  0  0  0
  -21.4260  -13.3750   22.1780 H   0  0  0  0  0  0  0  0  0  0  0  0
  -25.7410  -15.3750   20.2510 N   0  0  0  0  0  0  0  0  0  0  0  0
  -24.9790  -16.0360   20.3630 H   0  0  0  0  0  0  0  0  0  0  0  0
  -26.5860  -15.8060   19.8990 H   0  0  0  0  0  0  0  0  0  0  0  0
  -29.3410  -22.9870   20.3980 O   0  0  0  0  0  0  0  0  0  0  0  0
  -28.8700  -24.1360   19.6300 C   0  0  0  0  0  2  0  0  0  0  0  0
  -28.5200  -25.3840   20.5220 C   0  0  0  0  0  2  0  0  0  0  0  0
  -28.5440  -26.7100   19.9050 O   0  0  0  0  0  0  0  0  0  0  0  0
  -24.5200  -31.7560   23.0580 C   0  0  0  0  0  0  0  0  0  0  0  0
  -27.3640  -27.4420   19.9190 C   0  0  0  0  0  0  0  0  0  0  0  0
  -23.3890  -30.3480   21.3690 C   0  0  0  0  0  3  0  0  0  0  0  0
  -24.9190  -28.8940   19.9280 C   0  0  0  0  0  0  0  0  0  0  0  0
  -25.9070  -30.7950   21.2130 C   0  0  0  0  0  2  0  0  0  0  0  0
  -26.0540  -29.4390   20.5410 C   0  0  0  0  0  0  0  0  0  0  0  0
  -27.2820  -28.7260   20.5250 C   0  0  0  0  0  3  0  0  0  0  0  0
  -26.2100  -26.9230   19.2970 C   0  0  0  0  0  3  0  0  0  0  0  0
  -24.9940  -27.6370   19.3000 C   0  0  0  0  0  3  0  0  0  0  0  0
  -23.6420  -29.7080   19.9780 C   0  0  0  0  0  2  0  0  0  0  0  0
  -24.6220  -30.9830   21.9380 N   0  0  0  0  0  0  0  0  0  0  0  0
  -23.4210  -31.9720   23.5900 O   0  0  0  0  0  0  0  0  0  0  0  0
  -22.7630  -29.2830   22.2990 C   0  0  0  0  0  0  0  0  0  0  0  0
  -21.4410  -29.0800   22.1770 N   0  0  0  0  0  0  0  0  0  0  0  0
  -23.4650  -28.6430   23.0870 O   0  0  0  0  0  0  0  0  0  0  0  0
  -20.9330  -29.6460   21.5120 H   0  0  0  0  0  0  0  0  0  0  0  0
  -18.0930  -27.8130   22.6780 C   0  0  0  0  0  0  0  0  0  0  0  0
  -20.6500  -28.0980   22.9200 C   0  0  0  0  0  3  0  0  0  0  0  0
  -20.7640  -26.6940   22.2810 C   0  0  0  0  0  2  0  0  0  0  0  0
  -19.6500  -26.4000   21.2710 C   0  0  0  0  0  2  0  0  0  0  0  0
  -18.2760  -26.4970   21.9420 C   0  0  0  0  0  2  0  0  0  0  0  0
  -19.2070  -28.5730   23.1230 C   0  0  0  0  0  0  0  0  0  0  0  0
  -18.9800  -29.8060   23.7700 C   0  0  0  0  0  3  0  0  0  0  0  0
  -17.6710  -30.2800   23.9790 C   0  0  0  0  0  3  0  0  0  0  0  0
  -16.5710  -29.5180   23.5500 C   0  0  0  0  0  3  0  0  0  0  0  0
  -16.7820  -28.2870   22.9050 C   0  0  0  0  0  3  0  0  0  0  0  0
  -25.7710  -32.4220   23.7090 C   0  0  0  0  0  3  0  0  0  0  0  0
  -25.4040  -33.7970   24.0720 N   0  0  0  0  0  0  0  0  0  0  0  0
  -25.7060  -34.8830   23.3450 C   0  0  0  0  0  0  0  0  0  0  0  0
  -26.3910  -34.8330   22.3200 O   0  0  0  0  0  0  0  0  0  0  0  0
  -24.7930  -33.9080   24.8670 H   0  0  0  0  0  0  0  0  0  0  0  0
  -23.9140  -36.6160   23.0100 C   0  0  0  0  0  1  0  0  0  0  0  0
  -25.1580  -36.2390   23.8310 C   0  0  0  0  0  3  0  0  0  0  0  0
  -27.2430  -37.1800   24.7200 C   0  0  0  0  0  1  0  0  0  0  0  0
  -26.1500  -37.3340   23.7630 N   0  0  0  0  0  0  0  0  0  0  0  0
  -25.7060  -38.2330   23.9300 H   0  0  0  0  0  0  0  0  0  0  0  0
  -26.3060  -31.6390   24.9710 C   0  0  1  0  0  0  0  0  0  0  0  0
  -25.2150  -31.3360   26.0240 C   0  0  0  0  0  1  0  0  0  0  0  0
  -26.9400  -30.2930   24.5500 C   0  0  0  0  0  1  0  0  0  0  0  0
  -27.4240  -32.4570   25.6600 C   0  0  0  0  0  1  0  0  0  0  0  0
  1  2  1  0
  1  3  2  0
  2  4  2  0
  3  9  1  0
  3  5  1  0
  4  5  1  0
  4 49  1  0
  5  8  1  0
  7  8  1  0
  8  6  1  0
  9 10  1  0
 11 19  1  0
 12 17  1  0
 13 14  1  0
 13 12  1  0
 15 14  1  0
 15 24  1  0
 15 16  1  0
 17 11  1  0
 17 16  1  0
 18 11  2  0
 19 10  1  0
 19 20  1  0
 21 22  2  0
 22 41  1  0
 23 22  1  0
 23 26  1  0
 24 21  1  0
 24 25  1  0
 25 23  2  0
 26 27  1  0
 27 28  2  0
 29 32  1  0
 29 28  1  0
 30 29  2  0
 31 30  1  0
 31 26  2  0
 32 33  1  0
 33 34  1  0
 34 35  2  0
 36 35  1  0
 36 40  1  0
 37 36  2  0
 38 33  2  0
 38 37  1  0
 39 38  1  0
 41 42  1  0
 42 45  1  0
 42 44  1  0
 43 41  2  0
 46 47  1  0
 46 21  1  0
 48 46  1  0
 50 49  1  0
 50 51  1  0
 52 54  1  0
 52 51  1  0
 53 64  2  0
 54 59  1  0
 55 63  1  0
 55 65  1  0
 56 62  1  0
 56 58  1  0
 57 63  1  0
 58 57  1  0
 59 58  2  0
 60 61  1  0
 60 54  2  0
 61 56  2  0
 62 55  1  0
 63 53  1  0
 65 67  2  0
 66 65  1  0
 68 66  1  0
 69 78  2  0
 69 74  1  0
 70 66  1  0
 70 74  1  0
 71 70  1  0
 72 73  1  0
 72 71  1  0
 73 69  1  0
 74 75  2  0
 75 76  1  0
 77 76  2  0
 78 77  1  0
 79 53  1  0
 79 80  1  0
 79 89  1  0
 80 83  1  0
 81 85  1  0
 81 80  1  0
 82 81  2  0
 85 84  1  0
 87 85  1  0
 87 88  1  0
 87 86  1  0
 89 92  1  1
 89 90  1  0
 91 89  1  0
M  ISO  4  11 100  19 100  51 101  52 101
M  END
>  <TORSDO>  (41) 
F 22

>  <SCORE>  (41) 
-12.848

>  <name>  (41) 
40

>  <ligand_id>  (41) 
40

>  <original_smiles>  (41) 
[H]c1c([H])c([H])c2c(c1[H])C([H])([H])C([H])([H])C([H])([H])C2([H])N([H])C(=O)C1([H])N(C(=O)C([H])(N([H])C(=O)C([H])(N([H])C([H])([H])[H])C([H])([H])[H])C(C([H])([H])[H])(C([H])([H])[H])C([H])([H])[H])C([H])([H])c2c([H])c(OC([H])([H])C([H])([H])Oc3c([H])c([H])c(C([H])([H])C([H])([H])N([H])C(=O)N4C([H])([H])C([H])([H])C([H])([H])C([H])(n5nc(-c6c([H])c([H])c(Oc7c([H])c([H])c(F)c([H])c7F)c([H])c6[H])c(C(=O)N([H])[H])c5N([H])[H])C4([H])[H])n3C([H])(C([H])([H])[H])C([H])([H])[H])c([H])c([H])c2C1([H])[H]

>  <smiles>  (41) 
[H]c1c([H])c([H])c2c(c1[H])C([H])([H])C([H])([H])C([H])([H])C2([H])N([H])C(=O)C1([H])N(C(=O)C([H])(N([H])C(=O)C([H])(N([H])C([H])([H])[H])C([H])([H])[H])C(C([H])([H])[H])(C([H])([H])[H])C([H])([H])[H])C([H])([H])c2c([H])c(OC([H])([H])C([H])([H])Oc3c([H])c([H])c(C([H])([H])C([H])([H])N([H])C(=O)N4C([H])([H])C([H])([H])C([H])([H])C([H])(n5nc(-c6c([H])c([H])c(Oc7c([H])c([H])c(F)c([H])c7F)c([H])c6[H])c(C(=O)N([H])[H])c5N([H])[H])C4([H])[H])n3C([H])(C([H])([H])[H])C([H])([H])[H])c([H])c([H])c2C1([H])[H]

$$$$
41:0:0
     RDKit          3D

100110  0  0  1  0  0  0  0  0999 V2000
  -29.1150  -21.3310   20.1180 C   0  0  0  0  0  3  0  0  0  0  0  0
  -29.1190  -22.6620   20.6330 C   0  0  0  0  0  0  0  0  0  0  0  0
  -29.7560  -20.5180   21.0280 C   0  0  0  0  0  0  0  0  0  0  0  0
  -29.8150  -22.6800   21.8120 C   0  0  0  0  0  0  0  0  0  0  0  0
  -30.2310  -21.3560   22.0600 N   0  0  0  0  0  0  0  0  0  0  0  0
  -31.2930  -14.9280   20.4530 C   0  0  0  0  0  0  0  0  0  0  0  0
  -31.0310  -12.6290   19.5590 C   0  0  0  0  0  2  0  0  0  0  0  0
  -30.1840  -12.6450   18.2700 C   0  0  0  0  0  2  0  0  0  0  0  0
  -28.6870  -12.5330   18.6100 C   0  0  0  0  0  2  0  0  0  0  0  0
  -28.2510  -13.5370   19.7060 C   0  0  0  0  0  3  0  0  0  0  0  0
  -29.2250  -13.5240   20.9090 C   0  0  0  0  0  2  0  0  0  0  0  0
  -30.5840  -13.7590   20.3960 N   0  0  0  0  0  0  0  0  0  0  0  0
  -32.4790  -14.9760   20.1170 O   0  0  0  0  0  0  0  0  0  0  0  0
  -29.6720  -18.2210   19.7810 C   0  0  0  0  0  2  0  0  0  0  0  0
  -31.2840  -18.4670   21.5780 C   0  0  0  0  0  2  0  0  0  0  0  0
  -29.5910  -16.6830   20.0160 C   0  0  0  0  0  2  0  0  0  0  0  0
  -31.2540  -16.9430   21.8920 C   0  0  0  0  0  2  0  0  0  0  0  0
  -29.9230  -18.9900   21.0820 C   0  0  0  0  0  3  0  0  0  0  0  0
  -30.6510  -16.0690   20.8560 N   0  0  0  0  0  0  0  0  0  0  0  0
  -25.8420  -14.2570   20.2290 C   0  0  0  0  0  0  0  0  0  0  0  0
  -24.7290  -13.5360   20.5710 C   0  0  0  0  0  0  0  0  0  0  0  0
  -25.1500  -12.1740   20.6460 C   0  0  0  0  0  0  0  0  0  0  0  0
  -26.8690  -13.3310   20.1170 N   0  0  0  0  0  0  0  0  0  0  0  0
  -26.4550  -12.0780   20.4280 N   0  0  0  0  0  0  0  0  0  0  0  0
  -24.3750  -10.9450   20.8520 C   0  0  0  0  0  0  0  0  0  0  0  0
  -24.7290  -10.0090   21.8500 C   0  0  0  0  0  3  0  0  0  0  0  0
  -23.9560   -8.8440   22.0430 C   0  0  0  0  0  3  0  0  0  0  0  0
  -22.8170   -8.6070   21.2390 C   0  0  0  0  0  0  0  0  0  0  0  0
  -22.4830   -9.5310   20.2320 C   0  0  0  0  0  3  0  0  0  0  0  0
  -23.2560  -10.6870   20.0370 C   0  0  0  0  0  3  0  0  0  0  0  0
  -22.0220   -7.4920   21.3400 O   0  0  0  0  0  0  0  0  0  0  0  0
  -21.8560   -6.8300   22.5300 C   0  0  0  0  0  0  0  0  0  0  0  0
  -21.3510   -7.4780   23.6780 C   0  0  0  0  0  3  0  0  0  0  0  0
  -21.1300   -6.7450   24.8600 C   0  0  0  0  0  3  0  0  0  0  0  0
  -21.4060   -5.3640   24.8950 C   0  0  0  0  0  0  0  0  0  0  0  0
  -21.9050   -4.7160   23.7520 C   0  0  0  0  0  3  0  0  0  0  0  0
  -22.1260   -5.4480   22.5710 C   0  0  0  0  0  0  0  0  0  0  0  0
  -22.5880   -4.8140   21.4650 F   0  0  0  0  0  0  0  0  0  0  0  0
  -21.1880   -4.6570   26.0270 F   0  0  0  0  0  0  0  0  0  0  0  0
  -23.3330  -14.0670   20.7190 C   0  0  0  0  0  0  0  0  0  0  0  0
  -22.5410  -13.4630   21.5980 N   0  0  0  0  0  0  0  0  0  0  0  0
  -22.9520  -15.0510   20.0880 O   0  0  0  0  0  0  0  0  0  0  0  0
  -22.8620  -12.6670   22.1280 H   0  0  0  0  0  0  0  0  0  0  0  0
  -21.6000  -13.8020   21.7430 H   0  0  0  0  0  0  0  0  0  0  0  0
  -26.0550  -15.6080   19.9800 N   0  0  0  0  0  0  0  0  0  0  0  0
  -25.2970  -16.2830   19.9900 H   0  0  0  0  0  0  0  0  0  0  0  0
  -26.9290  -16.0040   19.6630 H   0  0  0  0  0  0  0  0  0  0  0  0
  -29.1170  -25.8470   23.7430 C   0  0  0  0  0  2  0  0  0  0  0  0
  -29.9540  -26.3030   22.5500 C   0  0  0  0  0  2  0  0  0  0  0  0
  -28.7930  -24.3890   23.4200 C   0  0  0  0  0  2  0  0  0  0  0  0
  -30.7680  -25.0690   22.1320 C   0  0  0  0  0  2  0  0  0  0  0  0
  -30.0650  -23.8430   22.7540 C   0  0  0  0  0  3  0  0  0  0  0  0
  -30.3360  -21.2320   24.5770 C   0  0  0  0  0  1  0  0  0  0  0  0
  -32.4970  -21.2270   23.1500 C   0  0  0  0  0  1  0  0  0  0  0  0
  -30.9980  -20.8820   23.2320 C   0  0  0  0  0  3  0  0  0  0  0  0
  -28.4020  -23.7720   20.1330 N   0  0  0  0  0  0  0  0  0  0  0  0
  -28.1220  -24.3970   20.8840 H   0  0  0  0  0  0  0  0  0  0  0  0
  -28.9630  -24.5490   19.0230 C   0  0  0  0  0  2  0  0  0  0  0  0
  -28.0140  -25.6730   18.4920 C   0  0  0  0  0  2  0  0  0  0  0  0
  -27.9260  -26.8660   19.3120 O   0  0  0  0  0  0  0  0  0  0  0  0
  -24.4820  -31.8070   23.1390 C   0  0  0  0  0  0  0  0  0  0  0  0
  -26.7590  -27.6160   19.4220 C   0  0  0  0  0  0  0  0  0  0  0  0
  -23.1130  -30.5930   21.4780 C   0  0  0  0  0  3  0  0  0  0  0  0
  -24.4070  -29.1820   19.7880 C   0  0  0  0  0  0  0  0  0  0  0  0
  -25.6250  -30.9210   21.1040 C   0  0  0  0  0  2  0  0  0  0  0  0
  -25.6240  -29.6170   20.3240 C   0  0  0  0  0  0  0  0  0  0  0  0
  -26.7960  -28.8420   20.1390 C   0  0  0  0  0  3  0  0  0  0  0  0
  -25.5110  -27.2040   18.8950 C   0  0  0  0  0  3  0  0  0  0  0  0
  -24.3470  -27.9760   19.0740 C   0  0  0  0  0  3  0  0  0  0  0  0
  -23.1910  -30.0510   20.0260 C   0  0  0  0  0  2  0  0  0  0  0  0
  -24.4300  -31.1170   21.9640 N   0  0  0  0  0  0  0  0  0  0  0  0
  -23.4540  -32.0410   23.7920 O   0  0  0  0  0  0  0  0  0  0  0  0
  -22.5190  -29.4910   22.3860 C   0  0  0  0  0  0  0  0  0  0  0  0
  -21.1890  -29.3070   22.3160 N   0  0  0  0  0  0  0  0  0  0  0  0
  -23.2490  -28.8100   23.1100 O   0  0  0  0  0  0  0  0  0  0  0  0
  -20.6590  -29.9120   21.7040 H   0  0  0  0  0  0  0  0  0  0  0  0
  -17.8700  -27.9650   22.8090 C   0  0  0  0  0  0  0  0  0  0  0  0
  -20.4220  -28.3030   23.0520 C   0  0  0  0  0  3  0  0  0  0  0  0
  -20.5650  -26.9070   22.4010 C   0  0  0  0  0  2  0  0  0  0  0  0
  -19.4570  -26.5950   21.3900 C   0  0  0  0  0  2  0  0  0  0  0  0
  -18.0830  -26.6590   22.0620 C   0  0  0  0  0  2  0  0  0  0  0  0
  -18.9690  -28.7440   23.2590 C   0  0  0  0  0  0  0  0  0  0  0  0
  -18.7150  -29.9670   23.9170 C   0  0  0  0  0  3  0  0  0  0  0  0
  -17.3970  -30.4110   24.1310 C   0  0  0  0  0  3  0  0  0  0  0  0
  -16.3130  -29.6280   23.6960 C   0  0  0  0  0  3  0  0  0  0  0  0
  -16.5510  -28.4060   23.0420 C   0  0  0  0  0  3  0  0  0  0  0  0
  -25.8280  -32.3550   23.7060 C   0  0  0  0  0  3  0  0  0  0  0  0
  -25.6070  -33.7550   24.0950 N   0  0  0  0  0  0  0  0  0  0  0  0
  -25.9720  -34.8160   23.3600 C   0  0  0  0  0  0  0  0  0  0  0  0
  -26.6000  -34.7130   22.3030 O   0  0  0  0  0  0  0  0  0  0  0  0
  -25.0460  -33.9120   24.9190 H   0  0  0  0  0  0  0  0  0  0  0  0
  -24.3310  -36.7080   23.1290 C   0  0  0  0  0  1  0  0  0  0  0  0
  -25.5750  -36.2100   23.8810 C   0  0  0  0  0  3  0  0  0  0  0  0
  -27.7790  -36.9540   24.6690 C   0  0  0  0  0  1  0  0  0  0  0  0
  -26.6590  -37.2110   23.7680 N   0  0  0  0  0  0  0  0  0  0  0  0
  -26.3090  -38.1460   23.9550 H   0  0  0  0  0  0  0  0  0  0  0  0
  -26.3770  -31.5190   24.9270 C   0  0  1  0  0  0  0  0  0  0  0  0
  -25.3410  -31.3150   26.0550 C   0  0  0  0  0  1  0  0  0  0  0  0
  -26.8530  -30.1210   24.4640 C   0  0  0  0  0  1  0  0  0  0  0  0
  -27.6120  -32.2260   25.5330 C   0  0  0  0  0  1  0  0  0  0  0  0
  1  2  1  0
  1  3  2  0
  2  4  2  0
  3  5  1  0
  4  5  1  0
  4 52  1  0
  5 55  1  0
  6 19  1  0
  7 12  1  0
  8  9  1  0
  8  7  1  0
 10  9  1  0
 10 23  1  0
 10 11  1  0
 12  6  1  0
 12 11  1  0
 13  6  2  0
 14 16  1  0
 14 18  1  0
 15 17  1  0
 16 19  1  0
 18  3  1  0
 18 15  1  0
 19 17  1  0
 20 21  2  0
 21 22  1  0
 21 40  1  0
 22 25  1  0
 23 20  1  0
 23 24  1  0
 24 22  2  0
 25 26  1  0
 26 27  2  0
 28 31  1  0
 28 27  1  0
 29 28  2  0
 30 29  1  0
 30 25  2  0
 31 32  1  0
 32 37  2  0
 32 33  1  0
 33 34  2  0
 34 35  1  0
 35 39  1  0
 36 35  2  0
 37 36  1  0
 38 37  1  0
 40 41  1  0
 41 44  1  0
 41 43  1  0
 42 40  2  0
 45 46  1  0
 45 20  1  0
 47 45  1  0
 49 48  1  0
 50 48  1  0
 51 49  1  0
 51 52  1  0
 52 50  1  0
 54 55  1  0
 55 53  1  0
 56  2  1  0
 56 57  1  0
 58 56  1  0
 59 58  1  0
 59 60  1  0
 60 62  1  0
 61 72  2  0
 62 67  1  0
 63 71  1  0
 63 73  1  0
 64 70  1  0
 64 66  1  0
 65 71  1  0
 66 65  1  0
 67 66  2  0
 68 69  1  0
 68 62  2  0
 69 64  2  0
 70 63  1  0
 71 61  1  0
 73 75  2  0
 74 73  1  0
 76 74  1  0
 77 86  2  0
 77 82  1  0
 78 74  1  0
 78 82  1  0
 79 78  1  0
 80 81  1  0
 80 79  1  0
 81 77  1  0
 82 83  2  0
 83 84  1  0
 85 84  2  0
 86 85  1  0
 87 61  1  0
 87 88  1  0
 87 97  1  0
 88 91  1  0
 89 93  1  0
 89 88  1  0
 90 89  2  0
 93 92  1  0
 95 93  1  0
 95 96  1  0
 95 94  1  0
 97100  1  1
 97 98  1  0
 99 97  1  0
M  ISO  4   6 100  19 100  59 101  60 101
M  END
>  <TORSDO>  (42) 
F 21

>  <SCORE>  (42) 
-12.079

>  <name>  (42) 
41

>  <ligand_id>  (42) 
41

>  <original_smiles>  (42) 
[H]c1c([H])c([H])c2c(c1[H])C([H])([H])C([H])([H])C([H])([H])C2([H])N([H])C(=O)C1([H])N(C(=O)C([H])(N([H])C(=O)C([H])(N([H])C([H])([H])[H])C([H])([H])[H])C(C([H])([H])[H])(C([H])([H])[H])C([H])([H])[H])C([H])([H])c2c([H])c(OC([H])([H])C([H])([H])N([H])c3c([H])c(C4([H])C([H])([H])C([H])([H])N(C(=O)N5C([H])([H])C([H])([H])C([H])([H])C([H])(n6nc(-c7c([H])c([H])c(Oc8c([H])c([H])c(F)c([H])c8F)c([H])c7[H])c(C(=O)N([H])[H])c6N([H])[H])C5([H])[H])C([H])([H])C4([H])[H])n(C([H])(C([H])([H])[H])C([H])([H])[H])c3C3([H])C([H])([H])C([H])([H])C([H])([H])C3([H])[H])c([H])c([H])c2C1([H])[H]

>  <smiles>  (42) 
[H]c1c([H])c([H])c2c(c1[H])C([H])([H])C([H])([H])C([H])([H])C2([H])N([H])C(=O)C1([H])N(C(=O)C([H])(N([H])C(=O)C([H])(N([H])C([H])([H])[H])C([H])([H])[H])C(C([H])([H])[H])(C([H])([H])[H])C([H])([H])[H])C([H])([H])c2c([H])c(OC([H])([H])C([H])([H])N([H])c3c([H])c(C4([H])C([H])([H])C([H])([H])N(C(=O)N5C([H])([H])C([H])([H])C([H])([H])C([H])(n6nc(-c7c([H])c([H])c(Oc8c([H])c([H])c(F)c([H])c8F)c([H])c7[H])c(C(=O)N([H])[H])c6N([H])[H])C5([H])[H])C([H])([H])C4([H])[H])n(C([H])(C([H])([H])[H])C([H])([H])[H])c3C3([H])C([H])([H])C([H])([H])C([H])([H])C3([H])[H])c([H])c([H])c2C1([H])[H]

$$$$
42:0:0
     RDKit          3D

 91 99  0  0  1  0  0  0  0  0999 V2000
  -28.2810  -22.2770   20.7040 C   0  0  0  0  0  2  0  0  0  0  0  0
  -30.3530  -22.0390   19.5240 C   0  0  0  0  0  2  0  0  0  0  0  0
  -29.1520  -21.1570   19.9880 C   0  0  0  0  0  3  0  0  0  0  0  0
  -28.6540  -23.6800   20.0570 C   0  0  0  0  0  3  0  0  0  0  0  0
  -30.1120  -23.4630   19.9160 N   0  0  0  0  0  4  0  0  0  0  0  0
  -30.5420  -24.1000   19.2620 H   0  0  0  0  0  0  0  0  0  0  0  0
  -30.5500  -23.5980   20.8140 H   0  0  0  0  0  0  0  0  0  0  0  0
  -29.5780  -19.9220   20.7640 N   0  0  0  0  0  0  0  0  0  0  0  0
  -29.2050  -19.9450   21.7110 H   0  0  0  0  0  0  0  0  0  0  0  0
  -29.3950  -18.5330   20.1850 C   0  0  0  0  0  3  0  0  0  0  0  0
  -30.2010  -17.3130   20.8780 C   0  0  0  0  0  3  0  0  0  0  0  0
  -30.5710  -14.7420   20.3900 C   0  0  0  0  0  0  0  0  0  0  0  0
  -30.3700  -12.4770   19.3540 C   0  0  0  0  0  2  0  0  0  0  0  0
  -29.4150  -12.5350   18.1400 C   0  0  0  0  0  2  0  0  0  0  0  0
  -27.9560  -12.3440   18.5950 C   0  0  0  0  0  2  0  0  0  0  0  0
  -27.5810  -13.2570   19.7920 C   0  0  0  0  0  3  0  0  0  0  0  0
  -28.6450  -13.1710   20.9060 C   0  0  0  0  0  2  0  0  0  0  0  0
  -29.9390  -13.5250   20.3050 N   0  0  0  0  0  0  0  0  0  0  0  0
  -31.7610  -14.8480   20.0870 O   0  0  0  0  0  0  0  0  0  0  0  0
  -29.7970  -15.8630   20.6290 N   0  0  0  0  0  0  0  0  0  0  0  0
  -28.8180  -15.6630   20.7670 H   0  0  0  0  0  0  0  0  0  0  0  0
  -25.1950  -13.8550   20.5260 C   0  0  0  0  0  0  0  0  0  0  0  0
  -24.1290  -13.0790   20.8960 C   0  0  0  0  0  0  0  0  0  0  0  0
  -24.5940  -11.7290   20.8660 C   0  0  0  0  0  0  0  0  0  0  0  0
  -26.2390  -12.9740   20.2880 N   0  0  0  0  0  0  0  0  0  0  0  0
  -25.8840  -11.6920   20.5590 N   0  0  0  0  0  0  0  0  0  0  0  0
  -23.8700  -10.4660   21.0550 C   0  0  0  0  0  0  0  0  0  0  0  0
  -24.3120   -9.4930   21.9780 C   0  0  0  0  0  3  0  0  0  0  0  0
  -23.5890   -8.2930   22.1560 C   0  0  0  0  0  3  0  0  0  0  0  0
  -22.4090   -8.0600   21.4090 C   0  0  0  0  0  0  0  0  0  0  0  0
  -21.9880   -9.0210   20.4740 C   0  0  0  0  0  3  0  0  0  0  0  0
  -22.7110  -10.2110   20.2960 C   0  0  0  0  0  3  0  0  0  0  0  0
  -21.6560   -6.9130   21.4970 O   0  0  0  0  0  0  0  0  0  0  0  0
  -21.6280   -6.1560   22.6400 C   0  0  0  0  0  0  0  0  0  0  0  0
  -21.2320   -6.6980   23.8830 C   0  0  0  0  0  3  0  0  0  0  0  0
  -21.1520   -5.8680   25.0190 C   0  0  0  0  0  3  0  0  0  0  0  0
  -21.4570   -4.4980   24.9140 C   0  0  0  0  0  0  0  0  0  0  0  0
  -21.8470   -3.9560   23.6760 C   0  0  0  0  0  3  0  0  0  0  0  0
  -21.9300   -4.7830   22.5420 C   0  0  0  0  0  0  0  0  0  0  0  0
  -22.2850   -4.2520   21.3480 F   0  0  0  0  0  0  0  0  0  0  0  0
  -21.3720   -3.6980   26.0030 F   0  0  0  0  0  0  0  0  0  0  0  0
  -22.7310  -13.5550   21.1640 C   0  0  0  0  0  0  0  0  0  0  0  0
  -22.0010  -12.8580   22.0270 N   0  0  0  0  0  0  0  0  0  0  0  0
  -22.2950  -14.5810   20.6450 O   0  0  0  0  0  0  0  0  0  0  0  0
  -22.3640  -12.0220   22.4630 H   0  0  0  0  0  0  0  0  0  0  0  0
  -21.0640  -13.1610   22.2530 H   0  0  0  0  0  0  0  0  0  0  0  0
  -25.3610  -15.2250   20.3460 N   0  0  0  0  0  0  0  0  0  0  0  0
  -24.5950  -15.8800   20.4580 H   0  0  0  0  0  0  0  0  0  0  0  0
  -26.2050  -15.6580   19.9930 H   0  0  0  0  0  0  0  0  0  0  0  0
  -28.2000  -25.0560   20.7960 C   0  0  0  0  0  2  0  0  0  0  0  0
  -28.3390  -26.4290   20.2020 O   0  0  0  0  0  0  0  0  0  0  0  0
  -24.6020  -31.8830   23.2410 C   0  0  0  0  0  0  0  0  0  0  0  0
  -27.2240  -27.2950   20.2040 C   0  0  0  0  0  0  0  0  0  0  0  0
  -23.4030  -30.4810   21.6010 C   0  0  0  0  0  3  0  0  0  0  0  0
  -24.8590  -28.9210   20.1850 C   0  0  0  0  0  0  0  0  0  0  0  0
  -25.9460  -30.7930   21.4220 C   0  0  0  0  0  2  0  0  0  0  0  0
  -26.0300  -29.4100   20.7780 C   0  0  0  0  0  0  0  0  0  0  0  0
  -27.2180  -28.6130   20.7680 C   0  0  0  0  0  3  0  0  0  0  0  0
  -26.0280  -26.8600   19.5940 C   0  0  0  0  0  3  0  0  0  0  0  0
  -24.8610  -27.6510   19.5850 C   0  0  0  0  0  3  0  0  0  0  0  0
  -23.6230  -29.7990   20.2250 C   0  0  0  0  0  2  0  0  0  0  0  0
  -24.6700  -31.0700   22.1450 N   0  0  0  0  0  0  0  0  0  0  0  0
  -23.5160  -32.1650   23.7710 O   0  0  0  0  0  0  0  0  0  0  0  0
  -22.7360  -29.4680   22.5620 C   0  0  0  0  0  0  0  0  0  0  0  0
  -21.4100  -29.2930   22.4350 N   0  0  0  0  0  0  0  0  0  0  0  0
  -23.4130  -28.8400   23.3810 O   0  0  0  0  0  0  0  0  0  0  0  0
  -20.9220  -29.8560   21.7520 H   0  0  0  0  0  0  0  0  0  0  0  0
  -18.0310  -28.0960   22.9300 C   0  0  0  0  0  0  0  0  0  0  0  0
  -20.5890  -28.3580   23.2050 C   0  0  0  0  0  3  0  0  0  0  0  0
  -20.6910  -26.9240   22.6320 C   0  0  0  0  0  2  0  0  0  0  0  0
  -19.5920  -26.6020   21.6150 C   0  0  0  0  0  2  0  0  0  0  0  0
  -18.2090  -26.7470   22.2550 C   0  0  0  0  0  2  0  0  0  0  0  0
  -19.1480  -28.8600   23.3600 C   0  0  0  0  0  0  0  0  0  0  0  0
  -18.9270  -30.1250   23.9480 C   0  0  0  0  0  3  0  0  0  0  0  0
  -17.6200  -30.6240   24.1120 C   0  0  0  0  0  3  0  0  0  0  0  0
  -16.5180  -29.8570   23.6970 C   0  0  0  0  0  3  0  0  0  0  0  0
  -16.7250  -28.5960   23.1090 C   0  0  0  0  0  3  0  0  0  0  0  0
  -25.8800  -32.5170   23.8670 C   0  0  0  0  0  3  0  0  0  0  0  0
  -26.3940  -31.7530   25.1500 C   0  0  1  0  0  0  0  0  0  0  0  0
  -25.2970  -31.5130   26.2140 C   0  0  0  0  0  1  0  0  0  0  0  0
  -26.9790  -30.3740   24.7650 C   0  0  0  0  0  1  0  0  0  0  0  0
  -27.5430  -32.5490   25.8120 C   0  0  0  0  0  1  0  0  0  0  0  0
  -25.5710  -33.9180   24.1910 N   0  0  0  0  0  0  0  0  0  0  0  0
  -25.9060  -34.9690   23.4310 C   0  0  0  0  0  0  0  0  0  0  0  0
  -26.5760  -34.8600   22.4000 O   0  0  0  0  0  0  0  0  0  0  0  0
  -24.9710  -34.0750   24.9880 H   0  0  0  0  0  0  0  0  0  0  0  0
  -24.1770  -36.7630   23.0790 C   0  0  0  0  0  1  0  0  0  0  0  0
  -25.4200  -36.3590   23.8860 C   0  0  0  0  0  3  0  0  0  0  0  0
  -27.5600  -37.2400   24.7050 C   0  0  0  0  0  1  0  0  0  0  0  0
  -26.4510  -37.4130   23.7720 N   0  0  0  0  0  0  0  0  0  0  0  0
  -26.0440  -38.3320   23.9340 H   0  0  0  0  0  0  0  0  0  0  0  0
  2  5  1  0
  2  3  1  0
  3  1  1  0
  3  8  1  0
  4  1  1  0
  4 50  1  0
  5  4  1  0
  5  7  1  0
  6  5  1  0
  8  9  1  0
 10  8  1  0
 10 11  2  0
 12 20  1  0
 13 18  1  0
 14 15  1  0
 14 13  1  0
 16 15  1  0
 16 25  1  0
 16 17  1  0
 18 12  1  0
 18 17  1  0
 19 12  2  0
 20 21  1  0
 20 11  1  0
 22 23  2  0
 23 42  1  0
 24 23  1  0
 24 27  1  0
 25 22  1  0
 25 26  1  0
 26 24  2  0
 27 28  1  0
 28 29  2  0
 30 33  1  0
 30 29  1  0
 31 30  2  0
 32 31  1  0
 32 27  2  0
 33 34  1  0
 34 35  1  0
 35 36  2  0
 37 36  1  0
 37 41  1  0
 38 37  2  0
 39 34  2  0
 39 38  1  0
 40 39  1  0
 42 43  1  0
 43 46  1  0
 43 45  1  0
 44 42  2  0
 47 48  1  0
 47 22  1  0
 49 47  1  0
 51 53  1  0
 51 50  1  0
 52 63  2  0
 53 58  1  0
 54 62  1  0
 54 64  1  0
 55 61  1  0
 55 57  1  0
 56 62  1  0
 57 56  1  0
 58 57  2  0
 59 53  2  0
 60 59  1  0
 60 55  2  0
 61 54  1  0
 62 52  1  0
 64 66  2  0
 65 64  1  0
 67 65  1  0
 68 77  2  0
 68 73  1  0
 69 65  1  0
 69 73  1  0
 70 69  1  0
 71 72  1  0
 71 70  1  0
 72 68  1  0
 73 74  2  0
 74 75  1  0
 76 75  2  0
 77 76  1  0
 78 52  1  0
 78 83  1  0
 78 79  1  0
 79 82  1  1
 79 80  1  0
 81 79  1  0
 83 86  1  0
 84 88  1  0
 84 83  1  0
 85 84  2  0
 88 87  1  0
 90 88  1  0
 90 91  1  0
 90 89  1  0
M  ISO  4  12 100  20 100  50 101  51 101
M  END
>  <TORSDO>  (43) 
F 20

>  <SCORE>  (43) 
-13.776

>  <name>  (43) 
42

>  <ligand_id>  (43) 
42

>  <original_smiles>  (43) 
[H]c1c([H])c([H])c2c(c1[H])C([H])([H])C([H])([H])C([H])([H])C2([H])N([H])C(=O)C1([H])N(C(=O)C([H])(N([H])C(=O)C([H])(N([H])C([H])([H])[H])C([H])([H])[H])C(C([H])([H])[H])(C([H])([H])[H])C([H])([H])[H])C([H])([H])c2c([H])c(OC([H])([H])C3([H])C([H])([H])C([H])(N([H])C([H])([H])C([H])([H])N([H])C(=O)N4C([H])([H])C([H])([H])C([H])([H])C([H])(n5nc(-c6c([H])c([H])c(Oc7c([H])c([H])c(F)c([H])c7F)c([H])c6[H])c(C(=O)N([H])[H])c5N([H])[H])C4([H])[H])C([H])([H])[N+]3([H])[H])c([H])c([H])c2C1([H])[H]

>  <smiles>  (43) 
[H]c1c([H])c([H])c2c(c1[H])C([H])([H])C([H])([H])C([H])([H])C2([H])N([H])C(=O)C1([H])N(C(=O)C([H])(N([H])C(=O)C([H])(N([H])C([H])([H])[H])C([H])([H])[H])C(C([H])([H])[H])(C([H])([H])[H])C([H])([H])[H])C([H])([H])c2c([H])c(OC([H])([H])C3([H])C([H])([H])C([H])(N([H])C([H])([H])C([H])([H])N([H])C(=O)N4C([H])([H])C([H])([H])C([H])([H])C([H])(n5nc(-c6c([H])c([H])c(Oc7c([H])c([H])c(F)c([H])c7F)c([H])c6[H])c(C(=O)N([H])[H])c5N([H])[H])C4([H])[H])C([H])([H])[N+]3([H])[H])c([H])c([H])c2C1([H])[H]

$$$$
43:0:0
     RDKit          3D

 94102  0  0  1  0  0  0  0  0999 V2000
  -29.5590  -23.0470   20.4260 N   0  0  0  0  0  4  0  0  0  0  0  0
  -29.8270  -23.3070   21.3620 H   0  0  0  0  0  0  0  0  0  0  0  0
  -28.6930  -22.5350   20.4910 H   0  0  0  0  0  0  0  0  0  0  0  0
  -28.6890  -23.9770   18.2570 C   0  0  0  0  0  1  0  0  0  0  0  0
  -29.3530  -24.3010   19.6180 C   0  0  0  0  0  3  0  0  0  0  0  0
  -27.2150  -24.8580   20.9700 C   0  0  0  0  0  1  0  0  0  0  0  0
  -28.5670  -25.4040   20.4300 C   0  0  0  0  0  3  0  0  0  0  0  0
  -28.5350  -26.7000   19.7400 O   0  0  0  0  0  0  0  0  0  0  0  0
  -24.5030  -31.6750   22.9510 C   0  0  0  0  0  0  0  0  0  0  0  0
  -27.3560  -27.4290   19.7520 C   0  0  0  0  0  0  0  0  0  0  0  0
  -23.3540  -30.2130   21.3220 C   0  0  0  0  0  3  0  0  0  0  0  0
  -24.8750  -28.8030   19.8300 C   0  0  0  0  0  0  0  0  0  0  0  0
  -25.8500  -30.7340   21.0770 C   0  0  0  0  0  2  0  0  0  0  0  0
  -26.0130  -29.3810   20.4120 C   0  0  0  0  0  0  0  0  0  0  0  0
  -27.2580  -28.7000   20.3770 C   0  0  0  0  0  3  0  0  0  0  0  0
  -26.2120  -26.9070   19.1100 C   0  0  0  0  0  3  0  0  0  0  0  0
  -24.9710  -27.5650   19.1760 C   0  0  0  0  0  3  0  0  0  0  0  0
  -23.5740  -29.5730   19.9270 C   0  0  0  0  0  2  0  0  0  0  0  0
  -24.5860  -30.8900   21.8400 N   0  0  0  0  0  0  0  0  0  0  0  0
  -23.4190  -31.8660   23.5220 O   0  0  0  0  0  0  0  0  0  0  0  0
  -22.8040  -29.1320   22.2830 C   0  0  0  0  0  0  0  0  0  0  0  0
  -21.4960  -28.8480   22.1770 N   0  0  0  0  0  0  0  0  0  0  0  0
  -23.5500  -28.5550   23.0770 O   0  0  0  0  0  0  0  0  0  0  0  0
  -20.9500  -29.3750   21.5110 H   0  0  0  0  0  0  0  0  0  0  0  0
  -18.2360  -27.3770   22.7040 C   0  0  0  0  0  0  0  0  0  0  0  0
  -20.7660  -27.8460   22.9550 C   0  0  0  0  0  3  0  0  0  0  0  0
  -20.9810  -26.4270   22.3770 C   0  0  0  0  0  2  0  0  0  0  0  0
  -19.9030  -26.0150   21.3710 C   0  0  0  0  0  2  0  0  0  0  0  0
  -18.5180  -26.0470   22.0260 C   0  0  0  0  0  2  0  0  0  0  0  0
  -19.2910  -28.2290   23.1250 C   0  0  0  0  0  0  0  0  0  0  0  0
  -18.9730  -29.4720   23.7150 C   0  0  0  0  0  3  0  0  0  0  0  0
  -17.6330  -29.8630   23.8910 C   0  0  0  0  0  3  0  0  0  0  0  0
  -16.5920  -29.0080   23.4870 C   0  0  0  0  0  3  0  0  0  0  0  0
  -16.8950  -27.7670   22.8980 C   0  0  0  0  0  3  0  0  0  0  0  0
  -25.7590  -32.3860   23.5430 C   0  0  0  0  0  3  0  0  0  0  0  0
  -25.3750  -33.7670   23.8610 N   0  0  0  0  0  0  0  0  0  0  0  0
  -25.6470  -34.8280   23.0900 C   0  0  0  0  0  0  0  0  0  0  0  0
  -26.3190  -34.7530   22.0580 O   0  0  0  0  0  0  0  0  0  0  0  0
  -24.7730  -33.8960   24.6610 H   0  0  0  0  0  0  0  0  0  0  0  0
  -23.8270  -36.5220   22.7120 C   0  0  0  0  0  1  0  0  0  0  0  0
  -25.0800  -36.1900   23.5370 C   0  0  0  0  0  3  0  0  0  0  0  0
  -27.1520  -37.1950   24.3860 C   0  0  0  0  0  1  0  0  0  0  0  0
  -26.0550  -37.2970   23.4280 N   0  0  0  0  0  0  0  0  0  0  0  0
  -25.5960  -38.1940   23.5660 H   0  0  0  0  0  0  0  0  0  0  0  0
  -26.3380  -31.6610   24.8180 C   0  0  1  0  0  0  0  0  0  0  0  0
  -25.2740  -31.3610   25.9000 C   0  0  0  0  0  1  0  0  0  0  0  0
  -27.0080  -30.3220   24.4300 C   0  0  0  0  0  1  0  0  0  0  0  0
  -27.4380  -32.5350   25.4650 C   0  0  0  0  0  1  0  0  0  0  0  0
  -30.5880  -22.0550   20.0080 C   0  0  0  0  0  2  0  0  0  0  0  0
  -29.9060  -19.4580   22.7870 C   0  0  0  0  0  3  0  0  0  0  0  0
  -30.3140  -18.2880   22.1210 C   0  0  0  0  0  3  0  0  0  0  0  0
  -30.0060  -20.6940   22.1260 C   0  0  0  0  0  3  0  0  0  0  0  0
  -30.8160  -18.3960   20.8130 C   0  0  0  0  0  0  0  0  0  0  0  0
  -30.4880  -20.7300   20.7980 C   0  0  0  0  0  0  0  0  0  0  0  0
  -30.8860  -19.5900   20.1670 N   0  0  0  0  0  0  0  0  0  0  0  0
  -31.3700  -17.1830   20.0600 C   0  0  0  0  0  2  0  0  0  0  0  0
  -31.4890  -14.7370   20.0090 C   0  0  0  0  0  0  0  0  0  0  0  0
  -31.1000  -12.5120   19.0320 C   0  0  0  0  0  2  0  0  0  0  0  0
  -30.1100  -12.6680   17.8600 C   0  0  0  0  0  2  0  0  0  0  0  0
  -28.6580  -12.5640   18.3650 C   0  0  0  0  0  2  0  0  0  0  0  0
  -28.3850  -13.4670   19.5980 C   0  0  0  0  0  3  0  0  0  0  0  0
  -29.4970  -13.3240   20.6660 C   0  0  0  0  0  2  0  0  0  0  0  0
  -30.7880  -13.5700   20.0080 N   0  0  0  0  0  0  0  0  0  0  0  0
  -32.6010  -14.8330   19.4870 O   0  0  0  0  0  0  0  0  0  0  0  0
  -30.8500  -15.8480   20.4140 N   0  0  0  0  0  0  0  0  0  0  0  0
  -29.9290  -15.7850   20.8170 H   0  0  0  0  0  0  0  0  0  0  0  0
  -26.0760  -14.1230   20.5230 C   0  0  0  0  0  0  0  0  0  0  0  0
  -25.0000  -13.3760   20.9140 C   0  0  0  0  0  0  0  0  0  0  0  0
  -25.3870  -12.0090   20.7530 C   0  0  0  0  0  0  0  0  0  0  0  0
  -27.0580  -13.2160   20.1570 N   0  0  0  0  0  0  0  0  0  0  0  0
  -26.6490  -11.9350   20.3500 N   0  0  0  0  0  0  0  0  0  0  0  0
  -24.6130  -10.7700   20.9080 C   0  0  0  0  0  0  0  0  0  0  0  0
  -24.9470   -9.8030   21.8810 C   0  0  0  0  0  3  0  0  0  0  0  0
  -24.1720   -8.6320   22.0220 C   0  0  0  0  0  3  0  0  0  0  0  0
  -23.0480   -8.4200   21.1890 C   0  0  0  0  0  0  0  0  0  0  0  0
  -22.7360   -9.3740   20.2050 C   0  0  0  0  0  3  0  0  0  0  0  0
  -23.5110  -10.5370   20.0620 C   0  0  0  0  0  3  0  0  0  0  0  0
  -22.2550   -7.2990   21.2350 O   0  0  0  0  0  0  0  0  0  0  0  0
  -21.9500   -6.6810   22.4220 C   0  0  0  0  0  0  0  0  0  0  0  0
  -21.3070   -7.3650   23.4780 C   0  0  0  0  0  3  0  0  0  0  0  0
  -20.9550   -6.6750   24.6540 C   0  0  0  0  0  3  0  0  0  0  0  0
  -21.2350   -5.3000   24.7730 C   0  0  0  0  0  0  0  0  0  0  0  0
  -21.8680   -4.6160   23.7220 C   0  0  0  0  0  3  0  0  0  0  0  0
  -22.2240   -5.3030   22.5490 C   0  0  0  0  0  0  0  0  0  0  0  0
  -22.8180   -4.6360   21.5290 F   0  0  0  0  0  0  0  0  0  0  0  0
  -20.8860   -4.6320   25.8980 F   0  0  0  0  0  0  0  0  0  0  0  0
  -23.6530  -13.8920   21.3280 C   0  0  0  0  0  0  0  0  0  0  0  0
  -22.9820  -13.1860   22.2300 N   0  0  0  0  0  0  0  0  0  0  0  0
  -23.2120  -14.9550   20.8870 O   0  0  0  0  0  0  0  0  0  0  0  0
  -23.3590  -12.3240   22.5960 H   0  0  0  0  0  0  0  0  0  0  0  0
  -22.0820  -13.5050   22.5580 H   0  0  0  0  0  0  0  0  0  0  0  0
  -26.2980  -15.4940   20.4310 N   0  0  0  0  0  0  0  0  0  0  0  0
  -25.5740  -16.1730   20.6400 H   0  0  0  0  0  0  0  0  0  0  0  0
  -27.1440  -15.9180   20.0730 H   0  0  0  0  0  0  0  0  0  0  0  0
  1  3  1  0
  1  2  1  0
  5  4  1  0
  5  1  1  0
  5  7  1  0
  7  6  1  0
  8 10  1  0
  8  7  1  0
  9 20  2  0
 10 15  1  0
 11 19  1  0
 11 21  1  0
 12 18  1  0
 12 14  1  0
 13 19  1  0
 14 13  1  0
 15 14  2  0
 16 17  1  0
 16 10  2  0
 17 12  2  0
 18 11  1  0
 19  9  1  0
 21 23  2  0
 22 21  1  0
 24 22  1  0
 25 34  2  0
 25 30  1  0
 26 22  1  0
 26 30  1  0
 27 26  1  0
 28 29  1  0
 28 27  1  0
 29 25  1  0
 30 31  2  0
 31 32  1  0
 33 32  2  0
 34 33  1  0
 35  9  1  0
 35 36  1  0
 35 45  1  0
 36 39  1  0
 37 41  1  0
 37 36  1  0
 38 37  2  0
 41 40  1  0
 43 41  1  0
 43 44  1  0
 43 42  1  0
 45 48  1  1
 45 46  1  0
 47 45  1  0
 49  1  1  0
 49 54  1  0
 51 50  2  0
 52 50  1  0
 53 51  1  0
 54 52  2  0
 55 54  1  0
 55 53  2  0
 56 65  1  0
 56 53  1  0
 57 65  1  0
 58 63  1  0
 59 60  1  0
 59 58  1  0
 61 60  1  0
 61 70  1  0
 61 62  1  0
 63 57  1  0
 63 62  1  0
 64 57  2  0
 65 66  1  0
 67 68  2  0
 68 87  1  0
 69 72  1  0
 69 68  1  0
 70 71  1  0
 70 67  1  0
 71 69  2  0
 72 73  1  0
 73 74  2  0
 75 78  1  0
 75 74  1  0
 76 75  2  0
 77 76  1  0
 77 72  2  0
 78 79  1  0
 79 84  2  0
 79 80  1  0
 80 81  2  0
 81 82  1  0
 82 86  1  0
 83 82  2  0
 84 83  1  0
 85 84  1  0
 87 88  1  0
 88 91  1  0
 88 90  1  0
 89 87  2  0
 92 67  1  0
 92 93  1  0
 94 92  1  0
M  ISO  4   7 101   8 101  57 100  65 100
M  END
>  <TORSDO>  (44) 
F 21

>  <SCORE>  (44) 
-10.168

>  <name>  (44) 
43

>  <ligand_id>  (44) 
43

>  <original_smiles>  (44) 
[H]c1c(C([H])([H])N([H])C(=O)N2C([H])([H])C([H])([H])C([H])([H])C([H])(n3nc(-c4c([H])c([H])c(Oc5c([H])c([H])c(F)c([H])c5F)c([H])c4[H])c(C(=O)N([H])[H])c3N([H])[H])C2([H])[H])nc(C([H])([H])[N+]([H])([H])C([H])(C([H])([H])[H])C([H])(Oc2c([H])c([H])c3c(c2[H])C([H])([H])N(C(=O)C([H])(N([H])C(=O)C([H])(N([H])C([H])([H])[H])C([H])([H])[H])C(C([H])([H])[H])(C([H])([H])[H])C([H])([H])[H])C([H])(C(=O)N([H])C2([H])c4c([H])c([H])c([H])c([H])c4C([H])([H])C([H])([H])C2([H])[H])C3([H])[H])C([H])([H])[H])c([H])c1[H]

>  <smiles>  (44) 
[H]c1c(C([H])([H])N([H])C(=O)N2C([H])([H])C([H])([H])C([H])([H])C([H])(n3nc(-c4c([H])c([H])c(Oc5c([H])c([H])c(F)c([H])c5F)c([H])c4[H])c(C(=O)N([H])[H])c3N([H])[H])C2([H])[H])nc(C([H])([H])[N+]([H])([H])C([H])(C([H])([H])[H])C([H])(Oc2c([H])c([H])c3c(c2[H])C([H])([H])N(C(=O)C([H])(N([H])C(=O)C([H])(N([H])C([H])([H])[H])C([H])([H])[H])C(C([H])([H])[H])(C([H])([H])[H])C([H])([H])[H])C([H])(C(=O)N([H])C2([H])c4c([H])c([H])c([H])c([H])c4C([H])([H])C([H])([H])C2([H])[H])C3([H])[H])C([H])([H])[H])c([H])c1[H]

$$$$
44:0:0
     RDKit          3D

 89 97  0  0  1  0  0  0  0  0999 V2000
  -28.0060  -21.7930   20.9760 C   0  0  0  0  0  3  0  0  0  0  0  0
  -28.4070  -20.3660   21.0110 C   0  0  0  0  0  3  0  0  0  0  0  0
  -28.5810  -22.8570   20.1590 C   0  0  0  0  0  0  0  0  0  0  0  0
  -29.4460  -19.7770   20.2010 C   0  0  0  0  0  0  0  0  0  0  0  0
  -29.6150  -22.1820   19.3850 C   0  0  0  0  0  0  0  0  0  0  0  0
  -30.0030  -20.8050   19.4320 N   0  0  0  0  0  0  0  0  0  0  0  0
  -31.2890  -22.3900   17.6490 C   0  0  0  0  0  1  0  0  0  0  0  0
  -30.2730  -22.9730   18.4640 O   0  0  0  0  0  0  0  0  0  0  0  0
  -27.8520  -24.4220   19.9080 C   0  0  0  0  0  2  0  0  0  0  0  0
  -28.1810  -25.9820   20.2520 O   0  0  0  0  0  0  0  0  0  0  0  0
  -24.6340  -31.9130   23.2470 C   0  0  0  0  0  0  0  0  0  0  0  0
  -27.1830  -27.0830   20.1780 C   0  0  0  0  0  0  0  0  0  0  0  0
  -23.4320  -30.5280   21.6030 C   0  0  0  0  0  3  0  0  0  0  0  0
  -24.8760  -28.9430   20.1590 C   0  0  0  0  0  0  0  0  0  0  0  0
  -25.9960  -30.7510   21.4440 C   0  0  0  0  0  2  0  0  0  0  0  0
  -26.0650  -29.3470   20.7780 C   0  0  0  0  0  0  0  0  0  0  0  0
  -27.2130  -28.4380   20.7690 C   0  0  0  0  0  3  0  0  0  0  0  0
  -25.9660  -26.8320   19.5030 C   0  0  0  0  0  3  0  0  0  0  0  0
  -24.8510  -27.7050   19.5000 C   0  0  0  0  0  3  0  0  0  0  0  0
  -23.6540  -29.8570   20.2190 C   0  0  0  0  0  2  0  0  0  0  0  0
  -24.7090  -31.0900   22.1510 N   0  0  0  0  0  0  0  0  0  0  0  0
  -23.5480  -32.1970   23.7770 O   0  0  0  0  0  0  0  0  0  0  0  0
  -22.7440  -29.5230   22.5640 C   0  0  0  0  0  0  0  0  0  0  0  0
  -21.4160  -29.3500   22.4370 N   0  0  0  0  0  0  0  0  0  0  0  0
  -23.4130  -28.9010   23.3940 O   0  0  0  0  0  0  0  0  0  0  0  0
  -20.9290  -29.9040   21.7470 H   0  0  0  0  0  0  0  0  0  0  0  0
  -18.0390  -28.1220   22.9400 C   0  0  0  0  0  0  0  0  0  0  0  0
  -20.5980  -28.4050   23.2050 C   0  0  0  0  0  3  0  0  0  0  0  0
  -20.7080  -26.9750   22.6280 C   0  0  0  0  0  2  0  0  0  0  0  0
  -19.6090  -26.6490   21.6120 C   0  0  0  0  0  2  0  0  0  0  0  0
  -18.2270  -26.7790   22.2570 C   0  0  0  0  0  2  0  0  0  0  0  0
  -19.1510  -28.8930   23.3710 C   0  0  0  0  0  0  0  0  0  0  0  0
  -18.9200  -30.1490   23.9740 C   0  0  0  0  0  3  0  0  0  0  0  0
  -17.6110  -30.6340   24.1470 C   0  0  0  0  0  3  0  0  0  0  0  0
  -16.5140  -29.8610   23.7300 C   0  0  0  0  0  3  0  0  0  0  0  0
  -16.7290  -28.6060   23.1330 C   0  0  0  0  0  3  0  0  0  0  0  0
  -25.9110  -32.5510   23.8760 C   0  0  0  0  0  3  0  0  0  0  0  0
  -26.4190  -31.7820   25.1570 C   0  0  1  0  0  0  0  0  0  0  0  0
  -25.3220  -31.5470   26.2220 C   0  0  0  0  0  1  0  0  0  0  0  0
  -27.0050  -30.4030   24.7770 C   0  0  0  0  0  1  0  0  0  0  0  0
  -27.5670  -32.5760   25.8250 C   0  0  0  0  0  1  0  0  0  0  0  0
  -25.5970  -33.9500   24.2170 N   0  0  0  0  0  0  0  0  0  0  0  0
  -25.8920  -35.0100   23.4540 C   0  0  0  0  0  0  0  0  0  0  0  0
  -26.5230  -34.9150   22.3990 O   0  0  0  0  0  0  0  0  0  0  0  0
  -25.0360  -34.0950   25.0430 H   0  0  0  0  0  0  0  0  0  0  0  0
  -24.1280  -36.7890   23.1920 C   0  0  0  0  0  1  0  0  0  0  0  0
  -25.4160  -36.3960   23.9360 C   0  0  0  0  0  3  0  0  0  0  0  0
  -27.5750  -37.3130   24.6590 C   0  0  0  0  0  1  0  0  0  0  0  0
  -26.4280  -37.4610   23.7670 N   0  0  0  0  0  0  0  0  0  0  0  0
  -26.0180  -38.3780   23.9290 H   0  0  0  0  0  0  0  0  0  0  0  0
  -30.1870  -18.1990   20.2420 C   0  0  0  0  0  2  0  0  0  0  0  0
  -30.4680  -15.3380   20.2170 C   0  0  0  0  0  0  0  0  0  0  0  0
  -30.4020  -12.9050   19.3460 C   0  0  0  0  0  2  0  0  0  0  0  0
  -29.4650  -12.7150   18.1290 C   0  0  0  0  0  2  0  0  0  0  0  0
  -28.0230  -12.4480   18.5920 C   0  0  0  0  0  2  0  0  0  0  0  0
  -27.5890  -13.4100   19.7260 C   0  0  0  0  0  3  0  0  0  0  0  0
  -28.6540  -13.5620   20.8330 C   0  0  0  0  0  2  0  0  0  0  0  0
  -29.8800  -14.0490   20.1800 N   0  0  0  0  0  0  0  0  0  0  0  0
  -31.6810  -15.3320   19.9680 O   0  0  0  0  0  0  0  0  0  0  0  0
  -29.7400  -16.6160   20.3290 N   0  0  0  0  0  0  0  0  0  0  0  0
  -28.7520  -16.4970   20.4870 H   0  0  0  0  0  0  0  0  0  0  0  0
  -25.2340  -13.9560   20.5360 C   0  0  0  0  0  0  0  0  0  0  0  0
  -24.1780  -13.1720   20.9110 C   0  0  0  0  0  0  0  0  0  0  0  0
  -24.6440  -11.8230   20.8460 C   0  0  0  0  0  0  0  0  0  0  0  0
  -26.2720  -13.0860   20.2570 N   0  0  0  0  0  0  0  0  0  0  0  0
  -25.9300  -11.7950   20.5110 N   0  0  0  0  0  0  0  0  0  0  0  0
  -23.9200  -10.5570   21.0270 C   0  0  0  0  0  0  0  0  0  0  0  0
  -24.3470   -9.5880   21.9620 C   0  0  0  0  0  3  0  0  0  0  0  0
  -23.6200   -8.3890   22.1310 C   0  0  0  0  0  3  0  0  0  0  0  0
  -22.4540   -8.1520   21.3670 C   0  0  0  0  0  0  0  0  0  0  0  0
  -22.0460   -9.1090   20.4230 C   0  0  0  0  0  3  0  0  0  0  0  0
  -22.7730  -10.2990   20.2510 C   0  0  0  0  0  3  0  0  0  0  0  0
  -21.6990   -7.0070   21.4480 O   0  0  0  0  0  0  0  0  0  0  0  0
  -21.6120   -6.2810   22.6100 C   0  0  0  0  0  0  0  0  0  0  0  0
  -21.1100   -6.8430   23.8040 C   0  0  0  0  0  3  0  0  0  0  0  0
  -20.9740   -6.0430   24.9550 C   0  0  0  0  0  3  0  0  0  0  0  0
  -21.3270   -4.6820   24.9140 C   0  0  0  0  0  0  0  0  0  0  0  0
  -21.8200   -4.1180   23.7240 C   0  0  0  0  0  3  0  0  0  0  0  0
  -21.9600   -4.9160   22.5740 C   0  0  0  0  0  0  0  0  0  0  0  0
  -22.4160   -4.3620   21.4250 F   0  0  0  0  0  0  0  0  0  0  0  0
  -21.1880   -3.9100   26.0180 F   0  0  0  0  0  0  0  0  0  0  0  0
  -22.7860  -13.6430   21.2130 C   0  0  0  0  0  0  0  0  0  0  0  0
  -22.0760  -12.9340   22.0830 N   0  0  0  0  0  0  0  0  0  0  0  0
  -22.3380  -14.6750   20.7130 O   0  0  0  0  0  0  0  0  0  0  0  0
  -22.4550  -12.1000   22.5070 H   0  0  0  0  0  0  0  0  0  0  0  0
  -21.1420  -13.2270   22.3280 H   0  0  0  0  0  0  0  0  0  0  0  0
  -25.3890  -15.3300   20.3770 N   0  0  0  0  0  0  0  0  0  0  0  0
  -24.6200  -15.9780   20.5110 H   0  0  0  0  0  0  0  0  0  0  0  0
  -26.2240  -15.7760   20.0210 H   0  0  0  0  0  0  0  0  0  0  0  0
  1  2  1  0
  3  1  2  0
  4 51  1  0
  4  2  2  0
  5  6  2  0
  5  3  1  0
  6  4  1  0
  7  8  1  0
  8  5  1  0
  9  3  1  0
  9 10  1  0
 11 22  2  0
 12 10  1  0
 12 17  1  0
 13 21  1  0
 13 23  1  0
 14 20  1  0
 14 16  1  0
 15 21  1  0
 16 15  1  0
 17 16  2  0
 18 12  2  0
 19 18  1  0
 19 14  2  0
 20 13  1  0
 21 11  1  0
 23 25  2  0
 24 23  1  0
 26 24  1  0
 27 36  2  0
 27 32  1  0
 28 24  1  0
 28 32  1  0
 29 28  1  0
 30 31  1  0
 30 29  1  0
 31 27  1  0
 32 33  2  0
 33 34  1  0
 35 34  2  0
 36 35  1  0
 37 11  1  0
 37 42  1  0
 37 38  1  0
 38 41  1  1
 38 39  1  0
 40 38  1  0
 42 45  1  0
 43 47  1  0
 43 42  1  0
 44 43  2  0
 47 46  1  0
 49 50  1  0
 49 47  1  0
 49 48  1  0
 51 60  1  0
 52 60  1  0
 53 58  1  0
 54 55  1  0
 54 53  1  0
 56 55  1  0
 56 65  1  0
 56 57  1  0
 58 52  1  0
 58 57  1  0
 59 52  2  0
 60 61  1  0
 62 63  2  0
 63 82  1  0
 64 63  1  0
 64 67  1  0
 65 66  1  0
 65 62  1  0
 66 64  2  0
 67 68  1  0
 68 69  2  0
 70 73  1  0
 70 69  1  0
 71 70  2  0
 72 71  1  0
 72 67  2  0
 73 74  1  0
 74 75  1  0
 75 76  2  0
 77 76  1  0
 77 81  1  0
 78 77  2  0
 79 74  2  0
 79 78  1  0
 80 79  1  0
 82 83  1  0
 83 86  1  0
 83 85  1  0
 84 82  2  0
 87 88  1  0
 87 62  1  0
 89 87  1  0
M  ISO  4   9 101  10 101  52 100  60 100
M  END
>  <TORSDO>  (45) 
F 19

>  <SCORE>  (45) 
-15.273

>  <name>  (45) 
44

>  <ligand_id>  (45) 
44

>  <original_smiles>  (45) 
[H]c1c(C([H])([H])N([H])C(=O)N2C([H])([H])C([H])([H])C([H])([H])C([H])(n3nc(-c4c([H])c([H])c(Oc5c([H])c([H])c(F)c([H])c5F)c([H])c4[H])c(C(=O)N([H])[H])c3N([H])[H])C2([H])[H])nc(OC([H])([H])[H])c(C([H])([H])Oc2c([H])c([H])c3c(c2[H])C([H])([H])N(C(=O)C([H])(N([H])C(=O)C([H])(N([H])C([H])([H])[H])C([H])([H])[H])C(C([H])([H])[H])(C([H])([H])[H])C([H])([H])[H])C([H])(C(=O)N([H])C2([H])c4c([H])c([H])c([H])c([H])c4C([H])([H])C([H])([H])C2([H])[H])C3([H])[H])c1[H]

>  <smiles>  (45) 
[H]c1c(C([H])([H])N([H])C(=O)N2C([H])([H])C([H])([H])C([H])([H])C([H])(n3nc(-c4c([H])c([H])c(Oc5c([H])c([H])c(F)c([H])c5F)c([H])c4[H])c(C(=O)N([H])[H])c3N([H])[H])C2([H])[H])nc(OC([H])([H])[H])c(C([H])([H])Oc2c([H])c([H])c3c(c2[H])C([H])([H])N(C(=O)C([H])(N([H])C(=O)C([H])(N([H])C([H])([H])[H])C([H])([H])[H])C(C([H])([H])[H])(C([H])([H])[H])C([H])([H])[H])C([H])(C(=O)N([H])C2([H])c4c([H])c([H])c([H])c([H])c4C([H])([H])C([H])([H])C2([H])[H])C3([H])[H])c1[H]

$$$$
45:0:0
     RDKit          3D

 98107  0  0  1  0  0  0  0  0999 V2000
  -30.4540  -22.6650   21.4420 C   0  0  0  0  0  3  0  0  0  0  0  0
  -30.7550  -21.3690   21.8810 C   0  0  0  0  0  0  0  0  0  0  0  0
  -29.6080  -22.7980   20.3340 C   0  0  0  0  0  0  0  0  0  0  0  0
  -29.4640  -20.4820   20.2210 C   0  0  0  0  0  0  0  0  0  0  0  0
  -30.2480  -20.2850   21.2660 N   0  0  0  0  0  0  0  0  0  0  0  0
  -29.1180  -21.6770   19.7190 N   0  0  0  0  0  0  0  0  0  0  0  0
  -29.0240  -19.3430   19.5560 N   0  0  0  0  0  0  0  0  0  0  0  0
  -28.4440  -19.5370   18.7490 H   0  0  0  0  0  0  0  0  0  0  0  0
  -31.3790  -20.0730   24.0700 C   0  0  0  0  0  2  0  0  0  0  0  0
  -31.3680  -21.5420   24.4200 C   0  0  0  0  0  2  0  0  0  0  0  0
  -31.6980  -21.1030   23.0120 C   0  0  0  0  0  3  0  0  0  0  0  0
  -28.8800  -17.9890   20.1390 C   0  0  0  0  0  3  0  0  0  0  0  0
  -29.8640  -16.9120   19.5770 C   0  0  0  0  0  3  0  0  0  0  0  0
  -30.4010  -14.4590   19.7540 C   0  0  0  0  0  0  0  0  0  0  0  0
  -30.1500  -12.1700   18.8670 C   0  0  0  0  0  2  0  0  0  0  0  0
  -29.1040  -12.2120   17.7330 C   0  0  0  0  0  2  0  0  0  0  0  0
  -27.6800  -12.0380   18.2980 C   0  0  0  0  0  2  0  0  0  0  0  0
  -27.3990  -12.9620   19.5130 C   0  0  0  0  0  3  0  0  0  0  0  0
  -28.5570  -12.9210   20.5380 C   0  0  0  0  0  2  0  0  0  0  0  0
  -29.8030  -13.2350   19.8250 N   0  0  0  0  0  0  0  0  0  0  0  0
  -31.5060  -14.6220   19.2320 O   0  0  0  0  0  0  0  0  0  0  0  0
  -29.6230  -15.5260   20.0570 N   0  0  0  0  0  0  0  0  0  0  0  0
  -28.7200  -15.3240   20.4560 H   0  0  0  0  0  0  0  0  0  0  0  0
  -25.0970  -13.5280   20.5080 C   0  0  0  0  0  0  0  0  0  0  0  0
  -24.0800  -12.7370   20.9710 C   0  0  0  0  0  0  0  0  0  0  0  0
  -24.5410  -11.3890   20.8500 C   0  0  0  0  0  0  0  0  0  0  0  0
  -26.1120  -12.6610   20.1330 N   0  0  0  0  0  0  0  0  0  0  0  0
  -25.7900  -11.3690   20.3980 N   0  0  0  0  0  0  0  0  0  0  0  0
  -23.8450  -10.1170   21.0820 C   0  0  0  0  0  0  0  0  0  0  0  0
  -24.3100   -9.1860   22.0360 C   0  0  0  0  0  3  0  0  0  0  0  0
  -23.6160   -7.9780   22.2560 C   0  0  0  0  0  3  0  0  0  0  0  0
  -22.4400   -7.6920   21.5220 C   0  0  0  0  0  0  0  0  0  0  0  0
  -21.9930   -8.6130   20.5570 C   0  0  0  0  0  3  0  0  0  0  0  0
  -22.6900   -9.8120   20.3360 C   0  0  0  0  0  3  0  0  0  0  0  0
  -21.7140   -6.5330   21.6490 O   0  0  0  0  0  0  0  0  0  0  0  0
  -21.6140   -5.8730   22.8470 C   0  0  0  0  0  0  0  0  0  0  0  0
  -21.0700   -6.4920   23.9950 C   0  0  0  0  0  3  0  0  0  0  0  0
  -20.9220   -5.7550   25.1880 C   0  0  0  0  0  3  0  0  0  0  0  0
  -21.3070   -4.4010   25.2320 C   0  0  0  0  0  0  0  0  0  0  0  0
  -21.8450   -3.7830   24.0900 C   0  0  0  0  0  3  0  0  0  0  0  0
  -21.9940   -4.5170   22.9000 C   0  0  0  0  0  0  0  0  0  0  0  0
  -22.4910   -3.9110   21.7950 F   0  0  0  0  0  0  0  0  0  0  0  0
  -21.1580   -3.6910   26.3750 F   0  0  0  0  0  0  0  0  0  0  0  0
  -22.7200  -13.1960   21.4090 C   0  0  0  0  0  0  0  0  0  0  0  0
  -22.0960  -12.4680   22.3280 N   0  0  0  0  0  0  0  0  0  0  0  0
  -22.2240  -14.2320   20.9720 O   0  0  0  0  0  0  0  0  0  0  0  0
  -22.5120  -11.6280   22.7020 H   0  0  0  0  0  0  0  0  0  0  0  0
  -21.1860  -12.7560   22.6610 H   0  0  0  0  0  0  0  0  0  0  0  0
  -25.2340  -14.9050   20.3530 N   0  0  0  0  0  0  0  0  0  0  0  0
  -24.4730  -15.5430   20.5550 H   0  0  0  0  0  0  0  0  0  0  0  0
  -26.0240  -15.3600   19.9150 H   0  0  0  0  0  0  0  0  0  0  0  0
  -29.3660  -24.1960   19.7100 C   0  0  0  0  0  3  0  0  0  0  0  0
  -28.8730  -23.9970   18.3390 N   0  0  0  0  0  4  0  0  0  0  0  0
  -28.0730  -23.3900   18.3850 H   0  0  0  0  0  0  0  0  0  0  0  0
  -29.5760  -23.4990   17.8230 H   0  0  0  0  0  0  0  0  0  0  0  0
  -28.6570  -24.8590   17.8750 H   0  0  0  0  0  0  0  0  0  0  0  0
  -28.4540  -25.1800   20.5230 C   0  0  0  0  0  2  0  0  0  0  0  0
  -28.5370  -26.5710   20.0870 O   0  0  0  0  0  0  0  0  0  0  0  0
  -24.6450  -31.7480   23.1640 C   0  0  0  0  0  0  0  0  0  0  0  0
  -27.3720  -27.3250   20.0920 C   0  0  0  0  0  0  0  0  0  0  0  0
  -23.4870  -30.3680   21.4730 C   0  0  0  0  0  3  0  0  0  0  0  0
  -24.9800  -28.8540   20.0610 C   0  0  0  0  0  0  0  0  0  0  0  0
  -26.0200  -30.7300   21.3440 C   0  0  0  0  0  2  0  0  0  0  0  0
  -26.1260  -29.3660   20.6830 C   0  0  0  0  0  0  0  0  0  0  0  0
  -27.3280  -28.6130   20.6860 C   0  0  0  0  0  3  0  0  0  0  0  0
  -26.2060  -26.8370   19.4630 C   0  0  0  0  0  3  0  0  0  0  0  0
  -25.0180  -27.5920   19.4450 C   0  0  0  0  0  3  0  0  0  0  0  0
  -23.7340  -29.7120   20.0880 C   0  0  0  0  0  2  0  0  0  0  0  0
  -24.7340  -30.9630   22.0520 N   0  0  0  0  0  0  0  0  0  0  0  0
  -23.5500  -32.0080   23.6810 O   0  0  0  0  0  0  0  0  0  0  0  0
  -22.8150  -29.3300   22.4020 C   0  0  0  0  0  0  0  0  0  0  0  0
  -21.4920  -29.1520   22.2470 N   0  0  0  0  0  0  0  0  0  0  0  0
  -23.4820  -28.6880   23.2170 O   0  0  0  0  0  0  0  0  0  0  0  0
  -21.0160  -29.7240   21.5640 H   0  0  0  0  0  0  0  0  0  0  0  0
  -18.1020  -27.9760   22.6840 C   0  0  0  0  0  0  0  0  0  0  0  0
  -20.6600  -28.2000   22.9840 C   0  0  0  0  0  3  0  0  0  0  0  0
  -20.7530  -26.7850   22.3660 C   0  0  0  0  0  2  0  0  0  0  0  0
  -19.6570  -26.5050   21.3340 C   0  0  0  0  0  2  0  0  0  0  0  0
  -18.2710  -26.6450   21.9720 C   0  0  0  0  0  2  0  0  0  0  0  0
  -19.2240  -28.7130   23.1460 C   0  0  0  0  0  0  0  0  0  0  0  0
  -19.0140  -29.9610   23.7720 C   0  0  0  0  0  3  0  0  0  0  0  0
  -17.7130  -30.4710   23.9420 C   0  0  0  0  0  3  0  0  0  0  0  0
  -16.6050  -29.7300   23.4990 C   0  0  0  0  0  3  0  0  0  0  0  0
  -16.8000  -28.4840   22.8750 C   0  0  0  0  0  3  0  0  0  0  0  0
  -25.9120  -32.3760   23.8260 C   0  0  0  0  0  3  0  0  0  0  0  0
  -25.5890  -33.7680   24.1670 N   0  0  0  0  0  0  0  0  0  0  0  0
  -25.9250  -34.8320   23.4240 C   0  0  0  0  0  0  0  0  0  0  0  0
  -26.6090  -34.7440   22.4000 O   0  0  0  0  0  0  0  0  0  0  0  0
  -24.9800  -33.9100   24.9600 H   0  0  0  0  0  0  0  0  0  0  0  0
  -24.1780  -36.6090   23.0800 C   0  0  0  0  0  1  0  0  0  0  0  0
  -25.4220  -36.2120   23.8910 C   0  0  0  0  0  3  0  0  0  0  0  0
  -27.5420  -37.1160   24.7370 C   0  0  0  0  0  1  0  0  0  0  0  0
  -26.4440  -37.2750   23.7880 N   0  0  0  0  0  0  0  0  0  0  0  0
  -26.0270  -38.1910   23.9360 H   0  0  0  0  0  0  0  0  0  0  0  0
  -26.4030  -31.5880   25.1020 C   0  0  1  0  0  0  0  0  0  0  0  0
  -25.2850  -31.3230   26.1380 C   0  0  0  0  0  1  0  0  0  0  0  0
  -27.0080  -30.2220   24.7010 C   0  0  0  0  0  1  0  0  0  0  0  0
  -27.5280  -32.3820   25.8080 C   0  0  0  0  0  1  0  0  0  0  0  0
  1  2  2  0
  2 11  1  0
  3  1  1  0
  4  5  2  0
  5  2  1  0
  6  4  1  0
  6  3  2  0
  7 12  1  0
  7  4  1  0
  8  7  1  0
  9 10  1  0
 11  9  1  0
 11 10  1  0
 13 22  1  0
 13 12  2  0
 14 20  1  0
 14 22  1  0
 15 20  1  0
 16 17  1  0
 16 15  1  0
 18 17  1  0
 18 27  1  0
 18 19  1  0
 20 19  1  0
 21 14  2  0
 22 23  1  0
 24 25  2  0
 25 44  1  0
 26 25  1  0
 26 29  1  0
 27 28  1  0
 27 24  1  0
 28 26  2  0
 29 30  1  0
 30 31  2  0
 32 35  1  0
 32 31  1  0
 33 32  2  0
 34 33  1  0
 34 29  2  0
 35 36  1  0
 36 41  2  0
 36 37  1  0
 37 38  2  0
 38 39  1  0
 39 43  1  0
 40 39  2  0
 41 40  1  0
 42 41  1  0
 44 45  1  0
 45 48  1  0
 45 47  1  0
 46 44  2  0
 49 24  1  0
 49 50  1  0
 51 49  1  0
 52  3  1  0
 52 57  1  0
 53 54  1  0
 53 52  1  0
 55 53  1  0
 56 53  1  0
 58 60  1  0
 58 57  1  0
 59 70  2  0
 60 65  1  0
 61 69  1  0
 61 71  1  0
 62 68  1  0
 62 64  1  0
 63 69  1  0
 64 65  2  0
 64 63  1  0
 66 60  2  0
 67 66  1  0
 67 62  2  0
 68 61  1  0
 69 59  1  0
 71 73  2  0
 72 71  1  0
 74 72  1  0
 75 84  2  0
 75 80  1  0
 76 72  1  0
 76 80  1  0
 77 76  1  0
 78 79  1  0
 78 77  1  0
 79 75  1  0
 80 81  2  0
 81 82  1  0
 83 82  2  0
 84 83  1  0
 85 59  1  0
 85 86  1  0
 85 95  1  0
 86 89  1  0
 87 91  1  0
 87 86  1  0
 88 87  2  0
 91 90  1  0
 93 91  1  0
 93 94  1  0
 93 92  1  0
 95 98  1  1
 95 96  1  0
 97 95  1  0
M  ISO  4  14 100  22 100  57 101  58 101
M  END
>  <TORSDO>  (46) 
F 22

>  <SCORE>  (46) 
-13.163

>  <name>  (46) 
45

>  <ligand_id>  (46) 
45

>  <original_smiles>  (46) 
[H]c1c(C2([H])C([H])([H])C2([H])[H])nc(N([H])C([H])([H])C([H])([H])N([H])C(=O)N2C([H])([H])C([H])([H])C([H])([H])C([H])(n3nc(-c4c([H])c([H])c(Oc5c([H])c([H])c(F)c([H])c5F)c([H])c4[H])c(C(=O)N([H])[H])c3N([H])[H])C2([H])[H])nc1C([H])(C([H])([H])Oc1c([H])c([H])c2c(c1[H])C([H])([H])N(C(=O)C([H])(N([H])C(=O)C([H])(N([H])C([H])([H])[H])C([H])([H])[H])C(C([H])([H])[H])(C([H])([H])[H])C([H])([H])[H])C([H])(C(=O)N([H])C1([H])c3c([H])c([H])c([H])c([H])c3C([H])([H])C([H])([H])C1([H])[H])C2([H])[H])[N+]([H])([H])[H]

>  <smiles>  (46) 
[H]c1c(C2([H])C([H])([H])C2([H])[H])nc(N([H])C([H])([H])C([H])([H])N([H])C(=O)N2C([H])([H])C([H])([H])C([H])([H])C([H])(n3nc(-c4c([H])c([H])c(Oc5c([H])c([H])c(F)c([H])c5F)c([H])c4[H])c(C(=O)N([H])[H])c3N([H])[H])C2([H])[H])nc1C([H])(C([H])([H])Oc1c([H])c([H])c2c(c1[H])C([H])([H])N(C(=O)C([H])(N([H])C(=O)C([H])(N([H])C([H])([H])[H])C([H])([H])[H])C(C([H])([H])[H])(C([H])([H])[H])C([H])([H])[H])C([H])(C(=O)N([H])C1([H])c3c([H])c([H])c([H])c([H])c3C([H])([H])C([H])([H])C1([H])[H])C2([H])[H])[N+]([H])([H])[H]

$$$$
46:0:0
     RDKit          3D

 97106  0  0  1  0  0  0  0  0999 V2000
  -31.4610  -24.1390   19.8080 C   0  0  0  0  0  2  0  0  0  0  0  0
  -30.9420  -22.7190   19.5660 C   0  0  0  0  0  2  0  0  0  0  0  0
  -31.3040  -24.4780   21.3000 C   0  0  0  0  0  2  0  0  0  0  0  0
  -29.4810  -22.5110   20.0400 C   0  0  0  0  0  3  0  0  0  0  0  0
  -28.8960  -23.8200   20.8400 C   0  0  0  0  0  3  0  0  0  0  0  0
  -29.8900  -24.4610   21.7520 N   0  0  0  0  0  4  0  0  0  0  0  0
  -29.5970  -25.4200   21.8990 H   0  0  0  0  0  0  0  0  0  0  0  0
  -29.8500  -24.0240   22.6620 H   0  0  0  0  0  0  0  0  0  0  0  0
  -30.0650  -20.0110   21.0530 C   0  0  0  0  0  3  0  0  0  0  0  0
  -29.2780  -20.9440   20.3630 C   0  0  0  0  0  0  0  0  0  0  0  0
  -28.3710  -20.0440   19.6910 C   0  0  0  0  0  0  0  0  0  0  0  0
  -28.6860  -18.7410   19.8500 N   0  0  0  0  0  0  0  0  0  0  0  0
  -29.7520  -18.6750   20.6820 N   0  0  0  0  0  0  0  0  0  0  0  0
  -26.1970  -19.3390   18.5130 C   0  0  0  0  0  1  0  0  0  0  0  0
  -27.7960  -20.8850   17.3170 C   0  0  0  0  0  1  0  0  0  0  0  0
  -27.2680  -20.4360   18.7020 C   0  0  0  0  0  3  0  0  0  0  0  0
  -30.5650  -17.3930   20.8860 C   0  0  0  0  0  2  0  0  0  0  0  0
  -30.6350  -14.8290   20.4220 C   0  0  0  0  0  0  0  0  0  0  0  0
  -30.4250  -12.5500   19.3890 C   0  0  0  0  0  2  0  0  0  0  0  0
  -29.5010  -12.5840   18.1500 C   0  0  0  0  0  2  0  0  0  0  0  0
  -28.0300  -12.3840   18.5770 C   0  0  0  0  0  2  0  0  0  0  0  0
  -27.6250  -13.2920   19.7700 C   0  0  0  0  0  3  0  0  0  0  0  0
  -28.6760  -13.2570   20.9030 C   0  0  0  0  0  2  0  0  0  0  0  0
  -29.9750  -13.6170   20.3190 N   0  0  0  0  0  0  0  0  0  0  0  0
  -31.8120  -14.8930   20.0570 O   0  0  0  0  0  0  0  0  0  0  0  0
  -29.9570  -15.9900   20.7630 N   0  0  0  0  0  0  0  0  0  0  0  0
  -28.9830  -15.9170   21.0220 H   0  0  0  0  0  0  0  0  0  0  0  0
  -25.2290  -13.8520   20.5050 C   0  0  0  0  0  0  0  0  0  0  0  0
  -24.1710  -13.0680   20.8770 C   0  0  0  0  0  0  0  0  0  0  0  0
  -24.6480  -11.7210   20.8440 C   0  0  0  0  0  0  0  0  0  0  0  0
  -26.2840  -12.9820   20.2640 N   0  0  0  0  0  0  0  0  0  0  0  0
  -25.9390  -11.6980   20.5360 N   0  0  0  0  0  0  0  0  0  0  0  0
  -23.9380  -10.4510   21.0390 C   0  0  0  0  0  0  0  0  0  0  0  0
  -24.3800   -9.4900   21.9730 C   0  0  0  0  0  3  0  0  0  0  0  0
  -23.6640   -8.2860   22.1560 C   0  0  0  0  0  3  0  0  0  0  0  0
  -22.4910   -8.0360   21.4070 C   0  0  0  0  0  0  0  0  0  0  0  0
  -22.0660   -8.9870   20.4610 C   0  0  0  0  0  3  0  0  0  0  0  0
  -22.7830  -10.1810   20.2750 C   0  0  0  0  0  3  0  0  0  0  0  0
  -21.7490   -6.8820   21.4930 O   0  0  0  0  0  0  0  0  0  0  0  0
  -21.7030   -6.1450   22.6470 C   0  0  0  0  0  0  0  0  0  0  0  0
  -21.2520   -6.6950   23.8670 C   0  0  0  0  0  3  0  0  0  0  0  0
  -21.1540   -5.8800   25.0110 C   0  0  0  0  0  3  0  0  0  0  0  0
  -21.4980   -4.5180   24.9390 C   0  0  0  0  0  0  0  0  0  0  0  0
  -21.9440   -3.9680   23.7260 C   0  0  0  0  0  3  0  0  0  0  0  0
  -22.0440   -4.7790   22.5800 C   0  0  0  0  0  0  0  0  0  0  0  0
  -22.4530   -4.2390   21.4080 F   0  0  0  0  0  0  0  0  0  0  0  0
  -21.4000   -3.7340   26.0400 F   0  0  0  0  0  0  0  0  0  0  0  0
  -22.7670  -13.5320   21.1420 C   0  0  0  0  0  0  0  0  0  0  0  0
  -22.0350  -12.8340   22.0030 N   0  0  0  0  0  0  0  0  0  0  0  0
  -22.3190  -14.5500   20.6150 O   0  0  0  0  0  0  0  0  0  0  0  0
  -22.4020  -12.0190   22.4690 H   0  0  0  0  0  0  0  0  0  0  0  0
  -21.0900  -13.1270   22.2070 H   0  0  0  0  0  0  0  0  0  0  0  0
  -25.3790  -15.2230   20.3260 N   0  0  0  0  0  0  0  0  0  0  0  0
  -24.6120  -15.8740   20.4470 H   0  0  0  0  0  0  0  0  0  0  0  0
  -26.2280  -15.6680   19.9990 H   0  0  0  0  0  0  0  0  0  0  0  0
  -28.2040  -24.9830   19.9360 C   0  0  0  0  0  2  0  0  0  0  0  0
  -28.3160  -26.4480   20.2500 O   0  0  0  0  0  0  0  0  0  0  0  0
  -24.6160  -31.8750   23.2060 C   0  0  0  0  0  0  0  0  0  0  0  0
  -27.2070  -27.3170   20.1270 C   0  0  0  0  0  0  0  0  0  0  0  0
  -23.3990  -30.4890   21.5650 C   0  0  0  0  0  3  0  0  0  0  0  0
  -24.8430  -28.9570   20.1070 C   0  0  0  0  0  0  0  0  0  0  0  0
  -25.9380  -30.8080   21.3670 C   0  0  0  0  0  2  0  0  0  0  0  0
  -26.0130  -29.4340   20.7090 C   0  0  0  0  0  0  0  0  0  0  0  0
  -27.1910  -28.6250   20.7140 C   0  0  0  0  0  3  0  0  0  0  0  0
  -26.0220  -26.9200   19.4600 C   0  0  0  0  0  3  0  0  0  0  0  0
  -24.8540  -27.7090   19.4640 C   0  0  0  0  0  3  0  0  0  0  0  0
  -23.6020  -29.8290   20.1750 C   0  0  0  0  0  2  0  0  0  0  0  0
  -24.6700  -31.0740   22.1020 N   0  0  0  0  0  0  0  0  0  0  0  0
  -23.5390  -32.1440   23.7540 O   0  0  0  0  0  0  0  0  0  0  0  0
  -22.7480  -29.4610   22.5210 C   0  0  0  0  0  0  0  0  0  0  0  0
  -21.4210  -29.2870   22.4070 N   0  0  0  0  0  0  0  0  0  0  0  0
  -23.4350  -28.8290   23.3270 O   0  0  0  0  0  0  0  0  0  0  0  0
  -20.9250  -29.8470   21.7290 H   0  0  0  0  0  0  0  0  0  0  0  0
  -18.0470  -28.0920   22.9260 C   0  0  0  0  0  0  0  0  0  0  0  0
  -20.6080  -28.3430   23.1750 C   0  0  0  0  0  3  0  0  0  0  0  0
  -20.7020  -26.9170   22.5840 C   0  0  0  0  0  2  0  0  0  0  0  0
  -19.5910  -26.6100   21.5750 C   0  0  0  0  0  2  0  0  0  0  0  0
  -18.2150  -26.7510   22.2320 C   0  0  0  0  0  2  0  0  0  0  0  0
  -19.1720  -28.8470   23.3530 C   0  0  0  0  0  0  0  0  0  0  0  0
  -18.9600  -30.1040   23.9610 C   0  0  0  0  0  3  0  0  0  0  0  0
  -17.6590  -30.6050   24.1470 C   0  0  0  0  0  3  0  0  0  0  0  0
  -16.5490  -29.8480   23.7360 C   0  0  0  0  0  3  0  0  0  0  0  0
  -16.7440  -28.5940   23.1310 C   0  0  0  0  0  3  0  0  0  0  0  0
  -25.9040  -32.5040   23.8210 C   0  0  0  0  0  3  0  0  0  0  0  0
  -26.4240  -31.7250   25.0920 C   0  0  1  0  0  0  0  0  0  0  0  0
  -25.3360  -31.4870   26.1660 C   0  0  0  0  0  1  0  0  0  0  0  0
  -27.0000  -30.3470   24.6920 C   0  0  0  0  0  1  0  0  0  0  0  0
  -27.5770  -32.5140   25.7530 C   0  0  0  0  0  1  0  0  0  0  0  0
  -25.5940  -33.8990   24.1600 N   0  0  0  0  0  0  0  0  0  0  0  0
  -25.9240  -34.9590   23.4070 C   0  0  0  0  0  0  0  0  0  0  0  0
  -26.5920  -34.8620   22.3740 O   0  0  0  0  0  0  0  0  0  0  0  0
  -24.9970  -34.0480   24.9600 H   0  0  0  0  0  0  0  0  0  0  0  0
  -24.2040  -36.7630   23.0630 C   0  0  0  0  0  1  0  0  0  0  0  0
  -25.4400  -36.3450   23.8750 C   0  0  0  0  0  3  0  0  0  0  0  0
  -27.5760  -37.2180   24.7180 C   0  0  0  0  0  1  0  0  0  0  0  0
  -26.4760  -37.3960   23.7740 N   0  0  0  0  0  0  0  0  0  0  0  0
  -26.0740  -38.3160   23.9270 H   0  0  0  0  0  0  0  0  0  0  0  0
  1  3  1  0
  2  1  1  0
  2  4  1  0
  3  6  1  0
  4 10  1  0
  4  5  1  0
  5 56  1  0
  5  6  1  0
  6  7  1  0
  6  8  1  0
 10  9  2  0
 11 12  2  0
 11 10  1  0
 12 13  1  0
 13 17  1  0
 13  9  1  0
 14 16  1  0
 15 16  1  0
 16 11  1  0
 18 26  1  0
 19 24  1  0
 20 21  1  0
 20 19  1  0
 22 21  1  0
 22 31  1  0
 22 23  1  0
 24 18  1  0
 24 23  1  0
 25 18  2  0
 26 17  1  0
 26 27  1  0
 28 29  2  0
 29 48  1  0
 30 29  1  0
 30 33  1  0
 31 28  1  0
 31 32  1  0
 32 30  2  0
 33 34  1  0
 34 35  2  0
 36 39  1  0
 36 35  1  0
 37 36  2  0
 38 37  1  0
 38 33  2  0
 39 40  1  0
 40 41  1  0
 41 42  2  0
 43 42  1  0
 43 47  1  0
 44 43  2  0
 45 40  2  0
 45 44  1  0
 46 45  1  0
 48 49  1  0
 49 52  1  0
 49 51  1  0
 50 48  2  0
 53 54  1  0
 53 28  1  0
 55 53  1  0
 56 57  1  0
 58 69  2  0
 59 57  1  0
 59 64  1  0
 60 68  1  0
 60 70  1  0
 61 67  1  0
 61 63  1  0
 62 68  1  0
 63 64  2  0
 63 62  1  0
 65 66  1  0
 65 59  2  0
 66 61  2  0
 67 60  1  0
 68 58  1  0
 70 72  2  0
 71 70  1  0
 73 71  1  0
 74 83  2  0
 74 79  1  0
 75 71  1  0
 75 79  1  0
 76 75  1  0
 77 78  1  0
 77 76  1  0
 78 74  1  0
 79 80  2  0
 80 81  1  0
 82 81  2  0
 83 82  1  0
 84 58  1  0
 84 89  1  0
 84 85  1  0
 85 88  1  1
 85 86  1  0
 87 85  1  0
 89 92  1  0
 90 94  1  0
 90 89  1  0
 91 90  2  0
 94 93  1  0
 96 94  1  0
 96 97  1  0
 96 95  1  0
M  ISO  4  18 100  26 100  56 101  57 101
M  END
>  <TORSDO>  (47) 
F 20

>  <SCORE>  (47) 
-13.621

>  <name>  (47) 
46

>  <ligand_id>  (47) 
46

>  <original_smiles>  (47) 
[H]c1c([H])c([H])c2c(c1[H])C([H])([H])C([H])([H])C([H])([H])C2([H])N([H])C(=O)C1([H])N(C(=O)C([H])(N([H])C(=O)C([H])(N([H])C([H])([H])[H])C([H])([H])[H])C(C([H])([H])[H])(C([H])([H])[H])C([H])([H])[H])C([H])([H])c2c([H])c(OC([H])([H])C3([H])C([H])(c4c(C([H])(C([H])([H])[H])C([H])([H])[H])nn(C([H])([H])N([H])C(=O)N5C([H])([H])C([H])([H])C([H])([H])C([H])(n6nc(-c7c([H])c([H])c(Oc8c([H])c([H])c(F)c([H])c8F)c([H])c7[H])c(C(=O)N([H])[H])c6N([H])[H])C5([H])[H])c4[H])C([H])([H])C([H])([H])C([H])([H])[N+]3([H])[H])c([H])c([H])c2C1([H])[H]

>  <smiles>  (47) 
[H]c1c([H])c([H])c2c(c1[H])C([H])([H])C([H])([H])C([H])([H])C2([H])N([H])C(=O)C1([H])N(C(=O)C([H])(N([H])C(=O)C([H])(N([H])C([H])([H])[H])C([H])([H])[H])C(C([H])([H])[H])(C([H])([H])[H])C([H])([H])[H])C([H])([H])c2c([H])c(OC([H])([H])C3([H])C([H])(c4c(C([H])(C([H])([H])[H])C([H])([H])[H])nn(C([H])([H])N([H])C(=O)N5C([H])([H])C([H])([H])C([H])([H])C([H])(n6nc(-c7c([H])c([H])c(Oc8c([H])c([H])c(F)c([H])c8F)c([H])c7[H])c(C(=O)N([H])[H])c6N([H])[H])C5([H])[H])c4[H])C([H])([H])C([H])([H])C([H])([H])[N+]3([H])[H])c([H])c([H])c2C1([H])[H]

$$$$
47:0:0
     RDKit          3D

 92100  0  0  1  0  0  0  0  0999 V2000
  -27.8860  -20.9500   19.5550 C   0  0  0  0  0  2  0  0  0  0  0  0
  -28.1110  -19.4310   19.8930 C   0  0  0  0  0  2  0  0  0  0  0  0
  -28.8830  -21.8080   20.3620 C   0  0  0  0  0  3  0  0  0  0  0  0
  -30.0610  -20.6680   20.4120 C   0  0  0  0  0  3  0  0  0  0  0  0
  -29.4600  -19.2330   20.4930 N   0  0  2  0  0  4  0  0  0  0  0  0
  -29.2860  -19.1060   21.4790 H   0  0  0  0  0  0  0  0  0  0  0  0
  -29.0540  -23.4180   19.8720 C   0  0  0  0  0  2  0  0  0  0  0  0
  -26.7020  -24.2400   20.5510 C   0  0  0  0  0  1  0  0  0  0  0  0
  -28.1560  -24.7300   20.4220 C   0  0  0  0  0  3  0  0  0  0  0  0
  -28.3100  -26.2180   19.9450 O   0  0  0  0  0  0  0  0  0  0  0  0
  -24.6260  -31.7170   23.2200 C   0  0  0  0  0  0  0  0  0  0  0  0
  -27.2530  -27.2020   19.9580 C   0  0  0  0  0  0  0  0  0  0  0  0
  -23.4520  -30.4160   21.4880 C   0  0  0  0  0  3  0  0  0  0  0  0
  -24.9250  -28.9450   19.9860 C   0  0  0  0  0  0  0  0  0  0  0  0
  -26.0060  -30.6970   21.3780 C   0  0  0  0  0  2  0  0  0  0  0  0
  -26.0930  -29.3480   20.6490 C   0  0  0  0  0  0  0  0  0  0  0  0
  -27.2560  -28.4910   20.6280 C   0  0  0  0  0  3  0  0  0  0  0  0
  -26.0860  -26.9430   19.2080 C   0  0  0  0  0  3  0  0  0  0  0  0
  -24.9350  -27.7530   19.2490 C   0  0  0  0  0  3  0  0  0  0  0  0
  -23.6940  -29.8310   20.0720 C   0  0  0  0  0  2  0  0  0  0  0  0
  -24.7130  -30.9630   22.0850 N   0  0  0  0  0  0  0  0  0  0  0  0
  -23.5310  -31.9690   23.7500 O   0  0  0  0  0  0  0  0  0  0  0  0
  -22.7660  -29.3480   22.3780 C   0  0  0  0  0  0  0  0  0  0  0  0
  -21.4340  -29.2150   22.2590 N   0  0  0  0  0  0  0  0  0  0  0  0
  -23.4360  -28.6480   23.1410 O   0  0  0  0  0  0  0  0  0  0  0  0
  -20.9510  -29.8340   21.6240 H   0  0  0  0  0  0  0  0  0  0  0  0
  -18.0340  -28.0600   22.7340 C   0  0  0  0  0  0  0  0  0  0  0  0
  -20.6030  -28.2390   22.9700 C   0  0  0  0  0  3  0  0  0  0  0  0
  -20.6580  -26.8550   22.2800 C   0  0  0  0  0  2  0  0  0  0  0  0
  -19.5290  -26.6400   21.2690 C   0  0  0  0  0  2  0  0  0  0  0  0
  -18.1630  -26.7660   21.9490 C   0  0  0  0  0  2  0  0  0  0  0  0
  -19.1800  -28.7590   23.2000 C   0  0  0  0  0  0  0  0  0  0  0  0
  -19.0040  -29.9720   23.9010 C   0  0  0  0  0  3  0  0  0  0  0  0
  -17.7150  -30.4880   24.1360 C   0  0  0  0  0  3  0  0  0  0  0  0
  -16.5840  -29.7840   23.6860 C   0  0  0  0  0  3  0  0  0  0  0  0
  -16.7440  -28.5730   22.9910 C   0  0  0  0  0  3  0  0  0  0  0  0
  -25.8940  -32.3180   23.8980 C   0  0  0  0  0  3  0  0  0  0  0  0
  -25.6030  -33.7220   24.2280 N   0  0  0  0  0  0  0  0  0  0  0  0
  -25.9480  -34.7740   23.4730 C   0  0  0  0  0  0  0  0  0  0  0  0
  -26.6120  -34.6630   22.4380 O   0  0  0  0  0  0  0  0  0  0  0  0
  -25.0140  -33.8830   25.0320 H   0  0  0  0  0  0  0  0  0  0  0  0
  -24.2330  -36.5870   23.1450 C   0  0  0  0  0  1  0  0  0  0  0  0
  -25.4830  -36.1690   23.9360 C   0  0  0  0  0  3  0  0  0  0  0  0
  -27.6310  -37.0450   24.7430 C   0  0  0  0  0  1  0  0  0  0  0  0
  -26.5250  -37.2110   23.8030 N   0  0  0  0  0  0  0  0  0  0  0  0
  -26.1290  -38.1360   23.9400 H   0  0  0  0  0  0  0  0  0  0  0  0
  -26.3410  -31.5290   25.1900 C   0  0  1  0  0  0  0  0  0  0  0  0
  -25.2060  -31.3340   26.2200 C   0  0  0  0  0  1  0  0  0  0  0  0
  -26.8850  -30.1290   24.8230 C   0  0  0  0  0  1  0  0  0  0  0  0
  -27.4990  -32.2790   25.8880 C   0  0  0  0  0  1  0  0  0  0  0  0
  -30.9770  -20.9870   21.6210 C   0  0  0  0  0  2  0  0  0  0  0  0
  -32.3540  -20.3030   21.6440 C   0  0  0  0  0  2  0  0  0  0  0  0
  -34.7090  -20.3190   22.6210 C   0  0  0  0  0  1  0  0  0  0  0  0
  -33.3030  -20.9280   22.6770 C   0  0  0  0  0  2  0  0  0  0  0  0
  -30.2320  -17.9160   20.0460 C   0  0  0  0  0  3  0  0  0  0  0  0
  -29.8350  -16.3810   20.5920 C   0  0  0  0  0  3  0  0  0  0  0  0
  -30.6680  -14.9930   20.2620 C   0  0  0  0  0  0  0  0  0  0  0  0
  -30.5700  -12.6300   19.3500 C   0  0  0  0  0  2  0  0  0  0  0  0
  -29.6230  -12.5830   18.1270 C   0  0  0  0  0  2  0  0  0  0  0  0
  -28.1630  -12.3710   18.5710 C   0  0  0  0  0  2  0  0  0  0  0  0
  -27.7640  -13.3080   19.7400 C   0  0  0  0  0  3  0  0  0  0  0  0
  -28.8280  -13.3270   20.8580 C   0  0  0  0  0  2  0  0  0  0  0  0
  -30.1070  -13.7190   20.2520 N   0  0  0  0  0  0  0  0  0  0  0  0
  -31.8450  -15.0850   19.8930 O   0  0  0  0  0  0  0  0  0  0  0  0
  -25.3980  -13.8880   20.5330 C   0  0  0  0  0  0  0  0  0  0  0  0
  -24.3350  -13.1120   20.9060 C   0  0  0  0  0  0  0  0  0  0  0  0
  -24.7910  -11.7590   20.8410 C   0  0  0  0  0  0  0  0  0  0  0  0
  -26.4310  -13.0090   20.2550 N   0  0  0  0  0  0  0  0  0  0  0  0
  -26.0760  -11.7220   20.5050 N   0  0  0  0  0  0  0  0  0  0  0  0
  -24.0600  -10.4970   21.0180 C   0  0  0  0  0  0  0  0  0  0  0  0
  -24.4850   -9.5220   21.9480 C   0  0  0  0  0  3  0  0  0  0  0  0
  -23.7530   -8.3260   22.1150 C   0  0  0  0  0  3  0  0  0  0  0  0
  -22.5830   -8.0960   21.3510 C   0  0  0  0  0  0  0  0  0  0  0  0
  -22.1780   -9.0600   20.4120 C   0  0  0  0  0  3  0  0  0  0  0  0
  -22.9100  -10.2470   20.2430 C   0  0  0  0  0  3  0  0  0  0  0  0
  -21.8260   -6.9520   21.4280 O   0  0  0  0  0  0  0  0  0  0  0  0
  -21.7120   -6.2410   22.5940 C   0  0  0  0  0  0  0  0  0  0  0  0
  -21.1760   -6.8150   23.7680 C   0  0  0  0  0  3  0  0  0  0  0  0
  -21.0110   -6.0290   24.9260 C   0  0  0  0  0  3  0  0  0  0  0  0
  -21.3720   -4.6680   24.9100 C   0  0  0  0  0  0  0  0  0  0  0  0
  -21.9000   -4.0930   23.7410 C   0  0  0  0  0  3  0  0  0  0  0  0
  -22.0660   -4.8770   22.5860 C   0  0  0  0  0  0  0  0  0  0  0  0
  -22.5550   -4.3120   21.4560 F   0  0  0  0  0  0  0  0  0  0  0  0
  -21.2070   -3.9110   26.0200 F   0  0  0  0  0  0  0  0  0  0  0  0
  -22.9460  -13.5910   21.2110 C   0  0  0  0  0  0  0  0  0  0  0  0
  -22.2380  -12.8990   22.0970 N   0  0  0  0  0  0  0  0  0  0  0  0
  -22.4970  -14.6160   20.6980 O   0  0  0  0  0  0  0  0  0  0  0  0
  -22.6140  -12.0690   22.5330 H   0  0  0  0  0  0  0  0  0  0  0  0
  -21.3080  -13.2030   22.3440 H   0  0  0  0  0  0  0  0  0  0  0  0
  -25.5670  -15.2610   20.3800 N   0  0  0  0  0  0  0  0  0  0  0  0
  -24.8040  -15.9160   20.5140 H   0  0  0  0  0  0  0  0  0  0  0  0
  -26.4060  -15.6960   20.0240 H   0  0  0  0  0  0  0  0  0  0  0  0
  1  2  1  0
  1  3  1  0
  2  5  1  0
  3  7  1  0
  3  4  1  0
  4  5  1  0
  4 51  1  0
  5  6  1  1
  7  9  1  0
  9  8  1  0
 10 12  1  0
 10  9  1  0
 11 22  2  0
 12 17  1  0
 13 21  1  0
 13 23  1  0
 14 20  1  0
 14 16  1  0
 15 21  1  0
 16 15  1  0
 17 16  2  0
 18 19  1  0
 18 12  2  0
 19 14  2  0
 20 13  1  0
 21 11  1  0
 23 25  2  0
 24 23  1  0
 26 24  1  0
 27 36  2  0
 27 32  1  0
 28 24  1  0
 28 32  1  0
 29 28  1  0
 30 31  1  0
 30 29  1  0
 31 27  1  0
 32 33  2  0
 33 34  1  0
 35 34  2  0
 36 35  1  0
 37 11  1  0
 37 38  1  0
 37 47  1  0
 38 41  1  0
 39 43  1  0
 39 38  1  0
 40 39  2  0
 43 42  1  0
 45 43  1  0
 45 46  1  0
 45 44  1  0
 47 50  1  1
 47 48  1  0
 49 47  1  0
 51 52  1  0
 52 54  1  0
 53 54  1  0
 55  5  1  0
 55 56  2  0
 57 56  1  0
 58 63  1  0
 59 60  1  0
 59 58  1  0
 61 60  1  0
 61 68  1  0
 61 62  1  0
 63 57  1  0
 63 62  1  0
 64 57  2  0
 65 66  2  0
 66 85  1  0
 67 66  1  0
 67 70  1  0
 68 69  1  0
 68 65  1  0
 69 67  2  0
 70 71  1  0
 71 72  2  0
 73 76  1  0
 73 72  1  0
 74 73  2  0
 75 74  1  0
 75 70  2  0
 76 77  1  0
 77 78  1  0
 78 79  2  0
 80 79  1  0
 80 84  1  0
 81 80  2  0
 82 77  2  0
 82 81  1  0
 83 82  1  0
 85 86  1  0
 86 89  1  0
 86 88  1  0
 87 85  2  0
 90 91  1  0
 90 65  1  0
 92 90  1  0
M  ISO  4   9 101  10 101  56 100  57 100
M  END
>  <TORSDO>  (48) 
F 23

>  <SCORE>  (48) 
-12.981

>  <name>  (48) 
47

>  <ligand_id>  (48) 
47

>  <original_smiles>  (48) 
[H]c1c([H])c([H])c2c(c1[H])C([H])([H])C([H])([H])C([H])([H])C2([H])N([H])C(=O)C1([H])N(C(=O)C([H])(N([H])C(=O)C([H])(N([H])C([H])([H])[H])C([H])([H])[H])C(C([H])([H])[H])(C([H])([H])[H])C([H])([H])[H])C([H])([H])c2c([H])c(OC([H])(C([H])([H])[H])C([H])([H])C3([H])C([H])([H])C([H])([H])[N+]([H])(C([H])([H])C([H])([H])C(=O)N4C([H])([H])C([H])([H])C([H])([H])C([H])(n5nc(-c6c([H])c([H])c(Oc7c([H])c([H])c(F)c([H])c7F)c([H])c6[H])c(C(=O)N([H])[H])c5N([H])[H])C4([H])[H])C3([H])C([H])([H])C([H])([H])C([H])([H])C([H])([H])[H])c([H])c([H])c2C1([H])[H]

>  <smiles>  (48) 
[H]c1c([H])c([H])c2c(c1[H])C([H])([H])C([H])([H])C([H])([H])C2([H])N([H])C(=O)C1([H])N(C(=O)C([H])(N([H])C(=O)C([H])(N([H])C([H])([H])[H])C([H])([H])[H])C(C([H])([H])[H])(C([H])([H])[H])C([H])([H])[H])C([H])([H])c2c([H])c(OC([H])(C([H])([H])[H])C([H])([H])C3([H])C([H])([H])C([H])([H])[N+]([H])(C([H])([H])C([H])([H])C(=O)N4C([H])([H])C([H])([H])C([H])([H])C([H])(n5nc(-c6c([H])c([H])c(Oc7c([H])c([H])c(F)c([H])c7F)c([H])c6[H])c(C(=O)N([H])[H])c5N([H])[H])C4([H])[H])C3([H])C([H])([H])C([H])([H])C([H])([H])C([H])([H])[H])c([H])c([H])c2C1([H])[H]

$$$$
48:0:0
     RDKit          3D

 96105  0  0  1  0  0  0  0  0999 V2000
  -30.8800  -21.4140   17.8270 C   0  0  0  0  0  2  0  0  0  0  0  0
  -28.4400  -20.6810   17.9140 C   0  0  0  0  0  2  0  0  0  0  0  0
  -31.2520  -20.0730   17.1740 C   0  0  0  0  0  2  0  0  0  0  0  0
  -28.8310  -19.3420   17.2630 C   0  0  0  0  0  2  0  0  0  0  0  0
  -29.4210  -21.8110   17.5310 C   0  0  0  0  0  3  0  0  0  0  0  0
  -30.2900  -18.9380   17.5780 C   0  0  0  0  0  3  0  0  0  0  0  0
  -28.9360  -24.3030   17.4380 C   0  0  0  0  0  3  0  0  0  0  0  0
  -28.9640  -23.2050   19.6150 C   0  0  0  0  0  3  0  0  0  0  0  0
  -28.6940  -25.5400   18.0680 C   0  0  0  0  0  3  0  0  0  0  0  0
  -28.7140  -24.4370   20.2420 C   0  0  0  0  0  3  0  0  0  0  0  0
  -29.0820  -23.1310   18.2100 C   0  0  0  0  0  0  0  0  0  0  0  0
  -28.5850  -25.6070   19.4710 C   0  0  0  0  0  0  0  0  0  0  0  0
  -28.4290  -26.8070   20.1060 O   0  0  0  0  0  0  0  0  0  0  0  0
  -24.6030  -31.8740   23.2320 C   0  0  0  0  0  0  0  0  0  0  0  0
  -27.2190  -27.4600   20.1150 C   0  0  0  0  0  0  0  0  0  0  0  0
  -23.3750  -30.4720   21.6030 C   0  0  0  0  0  3  0  0  0  0  0  0
  -24.8100  -28.9310   20.1670 C   0  0  0  0  0  0  0  0  0  0  0  0
  -25.8940  -30.8380   21.3740 C   0  0  0  0  0  2  0  0  0  0  0  0
  -25.9700  -29.4660   20.7380 C   0  0  0  0  0  0  0  0  0  0  0  0
  -27.1730  -28.7340   20.7150 C   0  0  0  0  0  3  0  0  0  0  0  0
  -26.0360  -26.9190   19.5560 C   0  0  0  0  0  3  0  0  0  0  0  0
  -24.8350  -27.6540   19.5780 C   0  0  0  0  0  3  0  0  0  0  0  0
  -23.5660  -29.7880   20.2230 C   0  0  0  0  0  2  0  0  0  0  0  0
  -24.6430  -31.0760   22.1280 N   0  0  0  0  0  0  0  0  0  0  0  0
  -23.5300  -32.1470   23.7860 O   0  0  0  0  0  0  0  0  0  0  0  0
  -22.7360  -29.4520   22.5710 C   0  0  0  0  0  0  0  0  0  0  0  0
  -21.4120  -29.2680   22.4540 N   0  0  0  0  0  0  0  0  0  0  0  0
  -23.4270  -28.8300   23.3820 O   0  0  0  0  0  0  0  0  0  0  0  0
  -20.9160  -29.8230   21.7690 H   0  0  0  0  0  0  0  0  0  0  0  0
  -18.0440  -28.0650   22.9610 C   0  0  0  0  0  0  0  0  0  0  0  0
  -20.6000  -28.3320   23.2320 C   0  0  0  0  0  3  0  0  0  0  0  0
  -20.7090  -26.8980   22.6630 C   0  0  0  0  0  2  0  0  0  0  0  0
  -19.6070  -26.5650   21.6510 C   0  0  0  0  0  2  0  0  0  0  0  0
  -18.2250  -26.7110   22.2950 C   0  0  0  0  0  2  0  0  0  0  0  0
  -19.1600  -28.8330   23.3860 C   0  0  0  0  0  0  0  0  0  0  0  0
  -18.9380  -30.1000   23.9660 C   0  0  0  0  0  3  0  0  0  0  0  0
  -17.6330  -30.6000   24.1270 C   0  0  0  0  0  3  0  0  0  0  0  0
  -16.5310  -29.8290   23.7200 C   0  0  0  0  0  3  0  0  0  0  0  0
  -16.7370  -28.5630   23.1420 C   0  0  0  0  0  3  0  0  0  0  0  0
  -25.8990  -32.5010   23.8370 C   0  0  0  0  0  3  0  0  0  0  0  0
  -26.4390  -31.7190   25.0980 C   0  0  1  0  0  0  0  0  0  0  0  0
  -25.3640  -31.4730   26.1830 C   0  0  0  0  0  1  0  0  0  0  0  0
  -27.0140  -30.3450   24.6810 C   0  0  0  0  0  1  0  0  0  0  0  0
  -27.6010  -32.5080   25.7460 C   0  0  0  0  0  1  0  0  0  0  0  0
  -25.5970  -33.8970   24.1800 N   0  0  0  0  0  0  0  0  0  0  0  0
  -25.9210  -34.9520   23.4220 C   0  0  0  0  0  0  0  0  0  0  0  0
  -26.5800  -34.8540   22.3830 O   0  0  0  0  0  0  0  0  0  0  0  0
  -25.0110  -34.0470   24.9890 H   0  0  0  0  0  0  0  0  0  0  0  0
  -24.1890  -36.7450   23.0940 C   0  0  0  0  0  1  0  0  0  0  0  0
  -25.4380  -36.3370   23.8910 C   0  0  0  0  0  3  0  0  0  0  0  0
  -27.5840  -37.2140   24.7010 C   0  0  0  0  0  1  0  0  0  0  0  0
  -26.4700  -37.3910   23.7730 N   0  0  0  0  0  0  0  0  0  0  0  0
  -26.0660  -38.3100   23.9340 H   0  0  0  0  0  0  0  0  0  0  0  0
  -30.4800  -18.5570   19.0010 N   0  0  0  0  0  4  0  0  0  0  0  0
  -30.0240  -19.2250   19.6020 H   0  0  0  0  0  0  0  0  0  0  0  0
  -31.4680  -18.5970   19.1950 H   0  0  0  0  0  0  0  0  0  0  0  0
  -30.0320  -17.1910   19.3370 C   0  0  0  0  0  2  0  0  0  0  0  0
  -30.3160  -16.8160   20.8110 C   0  0  0  0  0  2  0  0  0  0  0  0
  -30.6880  -14.3910   20.5670 C   0  0  0  0  0  0  0  0  0  0  0  0
  -30.3660  -12.2610   19.3950 C   0  0  0  0  0  2  0  0  0  0  0  0
  -29.4470  -12.5050   18.1810 C   0  0  0  0  0  2  0  0  0  0  0  0
  -27.9640  -12.3920   18.5880 C   0  0  0  0  0  2  0  0  0  0  0  0
  -27.6220  -13.2230   19.8530 C   0  0  0  0  0  3  0  0  0  0  0  0
  -28.6540  -12.9640   20.9760 C   0  0  0  0  0  2  0  0  0  0  0  0
  -29.9980  -13.2330   20.4340 N   0  0  0  0  0  0  0  0  0  0  0  0
  -31.8070  -14.5820   20.0860 O   0  0  0  0  0  0  0  0  0  0  0  0
  -29.9800  -15.4150   21.0600 N   0  0  0  0  0  0  0  0  0  0  0  0
  -29.0690  -15.2060   21.4440 H   0  0  0  0  0  0  0  0  0  0  0  0
  -25.2120  -13.8580   20.5030 C   0  0  0  0  0  0  0  0  0  0  0  0
  -24.1320  -13.0960   20.8640 C   0  0  0  0  0  0  0  0  0  0  0  0
  -24.5850  -11.7420   20.8580 C   0  0  0  0  0  0  0  0  0  0  0  0
  -26.2560  -12.9680   20.3060 N   0  0  0  0  0  0  0  0  0  0  0  0
  -25.8800  -11.6900   20.5750 N   0  0  0  0  0  0  0  0  0  0  0  0
  -23.8490  -10.4860   21.0510 C   0  0  0  0  0  0  0  0  0  0  0  0
  -24.2740   -9.5180   21.9870 C   0  0  0  0  0  3  0  0  0  0  0  0
  -23.5400   -8.3250   22.1670 C   0  0  0  0  0  3  0  0  0  0  0  0
  -22.3660   -8.0950   21.4110 C   0  0  0  0  0  0  0  0  0  0  0  0
  -21.9600   -9.0510   20.4650 C   0  0  0  0  0  3  0  0  0  0  0  0
  -22.6950  -10.2350   20.2830 C   0  0  0  0  0  3  0  0  0  0  0  0
  -21.6030   -6.9550   21.5010 O   0  0  0  0  0  0  0  0  0  0  0  0
  -21.5620   -6.2060   22.6490 C   0  0  0  0  0  0  0  0  0  0  0  0
  -21.1740   -6.7600   23.8880 C   0  0  0  0  0  3  0  0  0  0  0  0
  -21.0780   -5.9370   25.0290 C   0  0  0  0  0  3  0  0  0  0  0  0
  -21.3600   -4.5620   24.9310 C   0  0  0  0  0  0  0  0  0  0  0  0
  -21.7420   -4.0070   23.6970 C   0  0  0  0  0  3  0  0  0  0  0  0
  -21.8390   -4.8260   22.5580 C   0  0  0  0  0  0  0  0  0  0  0  0
  -22.1870   -4.2820   21.3670 F   0  0  0  0  0  0  0  0  0  0  0  0
  -21.2610   -3.7700   26.0240 F   0  0  0  0  0  0  0  0  0  0  0  0
  -22.7330  -13.5850   21.1060 C   0  0  0  0  0  0  0  0  0  0  0  0
  -21.9860  -12.9050   21.9700 N   0  0  0  0  0  0  0  0  0  0  0  0
  -22.3090  -14.6050   20.5640 O   0  0  0  0  0  0  0  0  0  0  0  0
  -22.3420  -12.0800   22.4310 H   0  0  0  0  0  0  0  0  0  0  0  0
  -21.0470  -13.2150   22.1740 H   0  0  0  0  0  0  0  0  0  0  0  0
  -25.3870  -15.2240   20.3110 N   0  0  0  0  0  0  0  0  0  0  0  0
  -24.6210  -15.8830   20.3940 H   0  0  0  0  0  0  0  0  0  0  0  0
  -26.2440  -15.6540   19.9880 H   0  0  0  0  0  0  0  0  0  0  0  0
  3  6  1  0
  3  1  1  0
  4  6  1  0
  4  2  1  0
  5  1  1  0
  5  2  1  0
  5 11  1  0
  6 54  1  0
  7  9  2  0
  7 11  1  0
  8 10  1  0
  9 12  1  0
 11  8  2  0
 12 13  1  0
 12 10  2  0
 13 15  1  0
 14 25  2  0
 15 20  1  0
 16 24  1  0
 16 26  1  0
 17 23  1  0
 17 19  1  0
 18 24  1  0
 19 18  1  0
 20 19  2  0
 21 22  1  0
 21 15  2  0
 22 17  2  0
 23 16  1  0
 24 14  1  0
 26 28  2  0
 27 26  1  0
 29 27  1  0
 30 39  2  0
 30 35  1  0
 31 27  1  0
 31 35  1  0
 32 31  1  0
 33 34  1  0
 33 32  1  0
 34 30  1  0
 35 36  2  0
 36 37  1  0
 38 37  2  0
 39 38  1  0
 40 14  1  0
 40 45  1  0
 40 41  1  0
 41 44  1  1
 41 42  1  0
 43 41  1  0
 45 48  1  0
 46 50  1  0
 46 45  1  0
 47 46  2  0
 50 49  1  0
 52 50  1  0
 52 53  1  0
 52 51  1  0
 54 56  1  0
 54 57  1  0
 54 55  1  0
 57 58  1  0
 58 67  1  0
 59 67  1  0
 60 65  1  0
 61 62  1  0
 61 60  1  0
 63 62  1  0
 63 72  1  0
 63 64  1  0
 65 59  1  0
 65 64  1  0
 66 59  2  0
 67 68  1  0
 69 70  2  0
 70 89  1  0
 71 70  1  0
 71 74  1  0
 72 69  1  0
 72 73  1  0
 73 71  2  0
 74 75  1  0
 75 76  2  0
 77 80  1  0
 77 76  1  0
 78 77  2  0
 79 78  1  0
 79 74  2  0
 80 81  1  0
 81 82  1  0
 82 83  2  0
 84 83  1  0
 84 88  1  0
 85 84  2  0
 86 81  2  0
 86 85  1  0
 87 86  1  0
 89 90  1  0
 90 93  1  0
 90 92  1  0
 91 89  2  0
 94 95  1  0
 94 69  1  0
 96 94  1  0
M  ISO  4  12 101  13 101  59 100  67 100
M  END
>  <TORSDO>  (49) 
F 20

>  <SCORE>  (49) 
-13.851

>  <name>  (49) 
48

>  <ligand_id>  (49) 
48

>  <original_smiles>  (49) 
[H]c1c([H])c([H])c2c(c1[H])C([H])([H])C([H])([H])C([H])([H])C2([H])N([H])C(=O)C1([H])N(C(=O)C([H])(N([H])C(=O)C([H])(N([H])C([H])([H])[H])C([H])([H])[H])C(C([H])([H])[H])(C([H])([H])[H])C([H])([H])[H])C([H])([H])c2c([H])c(Oc3c([H])c([H])c(C4([H])C([H])([H])C([H])([H])C([H])([N+]([H])([H])C([H])([H])C([H])([H])N([H])C(=O)N5C([H])([H])C([H])([H])C([H])([H])C([H])(n6nc(-c7c([H])c([H])c(Oc8c([H])c([H])c(F)c([H])c8F)c([H])c7[H])c(C(=O)N([H])[H])c6N([H])[H])C5([H])[H])C([H])([H])C4([H])[H])c([H])c3[H])c([H])c([H])c2C1([H])[H]

>  <smiles>  (49) 
[H]c1c([H])c([H])c2c(c1[H])C([H])([H])C([H])([H])C([H])([H])C2([H])N([H])C(=O)C1([H])N(C(=O)C([H])(N([H])C(=O)C([H])(N([H])C([H])([H])[H])C([H])([H])[H])C(C([H])([H])[H])(C([H])([H])[H])C([H])([H])[H])C([H])([H])c2c([H])c(Oc3c([H])c([H])c(C4([H])C([H])([H])C([H])([H])C([H])([N+]([H])([H])C([H])([H])C([H])([H])N([H])C(=O)N5C([H])([H])C([H])([H])C([H])([H])C([H])(n6nc(-c7c([H])c([H])c(Oc8c([H])c([H])c(F)c([H])c8F)c([H])c7[H])c(C(=O)N([H])[H])c6N([H])[H])C5([H])[H])C([H])([H])C4([H])[H])c([H])c3[H])c([H])c([H])c2C1([H])[H]

$$$$
49:0:0
     RDKit          3D

 92100  0  0  1  0  0  0  0  0999 V2000
  -31.5940  -22.0800   20.9700 C   0  0  0  0  0  1  0  0  0  0  0  0
  -30.1090  -21.6780   20.8120 C   0  0  0  0  0  3  0  0  0  0  0  0
  -30.6670  -14.7270   20.0160 C   0  0  0  0  0  0  0  0  0  0  0  0
  -30.3800  -12.5150   18.9090 C   0  0  0  0  0  2  0  0  0  0  0  0
  -29.3520  -12.6710   17.7650 C   0  0  0  0  0  2  0  0  0  0  0  0
  -27.9150  -12.4900   18.2890 C   0  0  0  0  0  2  0  0  0  0  0  0
  -27.6380  -13.3300   19.5640 C   0  0  0  0  0  3  0  0  0  0  0  0
  -28.7690  -13.1480   20.6030 C   0  0  0  0  0  2  0  0  0  0  0  0
  -30.0410  -13.5060   19.9500 N   0  0  0  0  0  0  0  0  0  0  0  0
  -31.7940  -14.8850   19.5320 O   0  0  0  0  0  0  0  0  0  0  0  0
  -28.9930  -19.3440   21.2480 C   0  0  0  0  0  3  0  0  0  0  0  0
  -29.0100  -17.9220   21.1910 C   0  0  0  0  0  3  0  0  0  0  0  0
  -30.8970  -19.3280   19.8300 C   0  0  0  0  0  3  0  0  0  0  0  0
  -29.9650  -20.1140   20.5650 C   0  0  0  0  0  0  0  0  0  0  0  0
  -30.0000  -17.2130   20.4610 C   0  0  0  0  0  0  0  0  0  0  0  0
  -30.9160  -17.9550   19.7790 N   0  0  0  0  0  0  0  0  0  0  0  0
  -29.9090  -15.7550   20.5120 N   0  0  0  0  0  0  0  0  0  0  0  0
  -29.0580  -15.4190   20.9310 H   0  0  0  0  0  0  0  0  0  0  0  0
  -25.2960  -13.9140   20.4490 C   0  0  0  0  0  0  0  0  0  0  0  0
  -24.2520  -13.1310   20.8620 C   0  0  0  0  0  0  0  0  0  0  0  0
  -24.7090  -11.7810   20.7640 C   0  0  0  0  0  0  0  0  0  0  0  0
  -26.3220  -13.0400   20.1260 N   0  0  0  0  0  0  0  0  0  0  0  0
  -25.9770  -11.7510   20.3750 N   0  0  0  0  0  0  0  0  0  0  0  0
  -23.9930  -10.5140   20.9630 C   0  0  0  0  0  0  0  0  0  0  0  0
  -24.4570   -9.5390   21.8740 C   0  0  0  0  0  3  0  0  0  0  0  0
  -23.7410   -8.3370   22.0620 C   0  0  0  0  0  3  0  0  0  0  0  0
  -22.5470   -8.1020   21.3390 C   0  0  0  0  0  0  0  0  0  0  0  0
  -22.1020   -9.0660   20.4170 C   0  0  0  0  0  3  0  0  0  0  0  0
  -22.8190  -10.2590   20.2270 C   0  0  0  0  0  3  0  0  0  0  0  0
  -21.7980   -6.9540   21.4380 O   0  0  0  0  0  0  0  0  0  0  0  0
  -21.7460   -6.2280   22.5990 C   0  0  0  0  0  0  0  0  0  0  0  0
  -21.2810   -6.7890   23.8090 C   0  0  0  0  0  3  0  0  0  0  0  0
  -21.1780   -5.9860   24.9640 C   0  0  0  0  0  3  0  0  0  0  0  0
  -21.5290   -4.6240   24.9080 C   0  0  0  0  0  0  0  0  0  0  0  0
  -21.9880   -4.0630   23.7040 C   0  0  0  0  0  3  0  0  0  0  0  0
  -22.0930   -4.8620   22.5520 C   0  0  0  0  0  0  0  0  0  0  0  0
  -22.5150   -4.3110   21.3890 F   0  0  0  0  0  0  0  0  0  0  0  0
  -21.4240   -3.8510   26.0150 F   0  0  0  0  0  0  0  0  0  0  0  0
  -22.8760  -13.6020   21.2350 C   0  0  0  0  0  0  0  0  0  0  0  0
  -22.2040  -12.8840   22.1290 N   0  0  0  0  0  0  0  0  0  0  0  0
  -22.4060  -14.6410   20.7720 O   0  0  0  0  0  0  0  0  0  0  0  0
  -22.5950  -12.0420   22.5240 H   0  0  0  0  0  0  0  0  0  0  0  0
  -21.2830  -13.1820   22.4230 H   0  0  0  0  0  0  0  0  0  0  0  0
  -25.4490  -15.2900   20.3020 N   0  0  0  0  0  0  0  0  0  0  0  0
  -24.6800  -15.9300   20.4730 H   0  0  0  0  0  0  0  0  0  0  0  0
  -26.2670  -15.7500   19.9240 H   0  0  0  0  0  0  0  0  0  0  0  0
  -29.3560  -22.6710   19.9330 N   0  0  0  0  0  4  0  0  0  0  0  0
  -29.6790  -22.5730   18.9830 H   0  0  0  0  0  0  0  0  0  0  0  0
  -28.3860  -22.3940   19.9330 H   0  0  0  0  0  0  0  0  0  0  0  0
  -29.4370  -24.1530   20.3180 C   0  0  0  0  0  3  0  0  0  0  0  0
  -28.3480  -25.1470   19.7200 C   0  0  0  0  0  3  0  0  0  0  0  0
  -28.4490  -26.5830   20.0770 O   0  0  0  0  0  0  0  0  0  0  0  0
  -24.6180  -31.8620   23.1690 C   0  0  0  0  0  0  0  0  0  0  0  0
  -27.3040  -27.3960   20.0330 C   0  0  0  0  0  0  0  0  0  0  0  0
  -23.4360  -30.4760   21.5020 C   0  0  0  0  0  3  0  0  0  0  0  0
  -24.9110  -28.9690   20.0530 C   0  0  0  0  0  0  0  0  0  0  0  0
  -25.9750  -30.8240   21.3410 C   0  0  0  0  0  2  0  0  0  0  0  0
  -26.0710  -29.4620   20.6650 C   0  0  0  0  0  0  0  0  0  0  0  0
  -27.2670  -28.6860   20.6470 C   0  0  0  0  0  3  0  0  0  0  0  0
  -26.1200  -26.9590   19.3910 C   0  0  0  0  0  3  0  0  0  0  0  0
  -24.9400  -27.7250   19.4070 C   0  0  0  0  0  3  0  0  0  0  0  0
  -23.6640  -29.8250   20.1110 C   0  0  0  0  0  2  0  0  0  0  0  0
  -24.6940  -31.0710   22.0590 N   0  0  0  0  0  0  0  0  0  0  0  0
  -23.5290  -32.1180   23.7030 O   0  0  0  0  0  0  0  0  0  0  0  0
  -22.7840  -29.4360   22.4440 C   0  0  0  0  0  0  0  0  0  0  0  0
  -21.4560  -29.2630   22.3260 N   0  0  0  0  0  0  0  0  0  0  0  0
  -23.4700  -28.7880   23.2390 O   0  0  0  0  0  0  0  0  0  0  0  0
  -20.9640  -29.8390   21.6580 H   0  0  0  0  0  0  0  0  0  0  0  0
  -18.0770  -28.0800   22.8440 C   0  0  0  0  0  0  0  0  0  0  0  0
  -20.6400  -28.3080   23.0800 C   0  0  0  0  0  3  0  0  0  0  0  0
  -20.7190  -26.8950   22.4590 C   0  0  0  0  0  2  0  0  0  0  0  0
  -19.5970  -26.6120   21.4550 C   0  0  0  0  0  2  0  0  0  0  0  0
  -18.2280  -26.7500   22.1260 C   0  0  0  0  0  2  0  0  0  0  0  0
  -19.2100  -28.8190   23.2780 C   0  0  0  0  0  0  0  0  0  0  0  0
  -19.0130  -30.0650   23.9110 C   0  0  0  0  0  3  0  0  0  0  0  0
  -17.7150  -30.5720   24.1150 C   0  0  0  0  0  3  0  0  0  0  0  0
  -16.5970  -29.8290   23.6990 C   0  0  0  0  0  3  0  0  0  0  0  0
  -16.7790  -28.5860   23.0670 C   0  0  0  0  0  3  0  0  0  0  0  0
  -25.8920  -32.4980   23.8060 C   0  0  0  0  0  3  0  0  0  0  0  0
  -26.4040  -31.7220   25.0830 C   0  0  1  0  0  0  0  0  0  0  0  0
  -25.3040  -31.4620   26.1380 C   0  0  0  0  0  1  0  0  0  0  0  0
  -27.0090  -30.3550   24.6880 C   0  0  0  0  0  1  0  0  0  0  0  0
  -27.5420  -32.5250   25.7580 C   0  0  0  0  0  1  0  0  0  0  0  0
  -25.5700  -33.8920   24.1450 N   0  0  0  0  0  0  0  0  0  0  0  0
  -25.8970  -34.9530   23.3950 C   0  0  0  0  0  0  0  0  0  0  0  0
  -26.5720  -34.8630   22.3660 O   0  0  0  0  0  0  0  0  0  0  0  0
  -24.9710  -34.0360   24.9440 H   0  0  0  0  0  0  0  0  0  0  0  0
  -24.1570  -36.7360   23.0500 C   0  0  0  0  0  1  0  0  0  0  0  0
  -25.3960  -36.3330   23.8640 C   0  0  0  0  0  3  0  0  0  0  0  0
  -27.5160  -37.2270   24.7200 C   0  0  0  0  0  1  0  0  0  0  0  0
  -26.4190  -37.3960   23.7700 N   0  0  0  0  0  0  0  0  0  0  0  0
  -26.0020  -38.3090   23.9300 H   0  0  0  0  0  0  0  0  0  0  0  0
  2  1  1  0
  3 17  1  0
  4  9  1  0
  5  6  1  0
  5  4  1  0
  7  6  1  0
  7 22  1  0
  7  8  1  0
  9  3  1  0
  9  8  1  0
 10  3  2  0
 12 11  1  0
 13 14  1  0
 14  2  1  0
 14 11  2  0
 15 17  1  0
 15 12  2  0
 16 13  2  0
 16 15  1  0
 17 18  1  0
 19 20  2  0
 20 39  1  0
 21 20  1  0
 21 24  1  0
 22 23  1  0
 22 19  1  0
 23 21  2  0
 24 25  1  0
 25 26  2  0
 27 30  1  0
 27 26  1  0
 28 27  2  0
 29 28  1  0
 29 24  2  0
 30 31  1  0
 31 32  1  0
 32 33  2  0
 34 33  1  0
 34 38  1  0
 35 34  2  0
 36 31  2  0
 36 35  1  0
 37 36  1  0
 39 40  1  0
 40 43  1  0
 40 42  1  0
 41 39  2  0
 44 19  1  0
 44 45  1  0
 46 44  1  0
 47 49  1  0
 47 50  1  0
 47  2  1  0
 48 47  1  0
 51 52  1  0
 51 50  2  0
 53 64  2  0
 54 52  1  0
 54 59  1  0
 55 63  1  0
 55 65  1  0
 56 62  1  0
 56 58  1  0
 57 63  1  0
 58 57  1  0
 59 58  2  0
 60 61  1  0
 60 54  2  0
 61 56  2  0
 62 55  1  0
 63 53  1  0
 65 67  2  0
 66 65  1  0
 68 66  1  0
 69 78  2  0
 69 74  1  0
 70 66  1  0
 70 74  1  0
 71 70  1  0
 72 73  1  0
 72 71  1  0
 73 69  1  0
 74 75  2  0
 75 76  1  0
 77 76  2  0
 78 77  1  0
 79 53  1  0
 79 84  1  0
 79 80  1  0
 80 83  1  1
 80 81  1  0
 82 80  1  0
 84 87  1  0
 85 89  1  0
 85 84  1  0
 86 85  2  0
 89 88  1  0
 91 89  1  0
 91 92  1  0
 91 90  1  0
M  ISO  4   3 100  17 100  51 101  52 101
M  END
>  <TORSDO>  (50) 
F 19

>  <SCORE>  (50) 
-13.354

>  <name>  (50) 
49

>  <ligand_id>  (50) 
49

>  <original_smiles>  (50) 
[H]c1nc(N([H])C(=O)N2C([H])([H])C([H])([H])C([H])([H])C([H])(n3nc(-c4c([H])c([H])c(Oc5c([H])c([H])c(F)c([H])c5F)c([H])c4[H])c(C(=O)N([H])[H])c3N([H])[H])C2([H])[H])c([H])c([H])c1C([H])(C([H])([H])[H])[N+]([H])([H])C([H])([H])C([H])([H])Oc1c([H])c([H])c2c(c1[H])C([H])([H])N(C(=O)C([H])(N([H])C(=O)C([H])(N([H])C([H])([H])[H])C([H])([H])[H])C(C([H])([H])[H])(C([H])([H])[H])C([H])([H])[H])C([H])(C(=O)N([H])C1([H])c3c([H])c([H])c([H])c([H])c3C([H])([H])C([H])([H])C1([H])[H])C2([H])[H]

>  <smiles>  (50) 
[H]c1nc(N([H])C(=O)N2C([H])([H])C([H])([H])C([H])([H])C([H])(n3nc(-c4c([H])c([H])c(Oc5c([H])c([H])c(F)c([H])c5F)c([H])c4[H])c(C(=O)N([H])[H])c3N([H])[H])C2([H])[H])c([H])c([H])c1C([H])(C([H])([H])[H])[N+]([H])([H])C([H])([H])C([H])([H])Oc1c([H])c([H])c2c(c1[H])C([H])([H])N(C(=O)C([H])(N([H])C(=O)C([H])(N([H])C([H])([H])[H])C([H])([H])[H])C(C([H])([H])[H])(C([H])([H])[H])C([H])([H])[H])C([H])(C(=O)N([H])C1([H])c3c([H])c([H])c([H])c([H])c3C([H])([H])C([H])([H])C1([H])[H])C2([H])[H]

$$$$
50:0:0
     RDKit          3D

 93101  0  0  1  0  0  0  0  0999 V2000
  -30.6030  -20.0030   22.2330 C   0  0  0  0  0  3  0  0  0  0  0  0
  -30.2330  -21.3570   22.3590 C   0  0  0  0  0  3  0  0  0  0  0  0
  -29.5830  -21.4030   20.0320 C   0  0  0  0  0  3  0  0  0  0  0  0
  -30.4650  -19.3140   21.0070 C   0  0  0  0  0  0  0  0  0  0  0  0
  -29.9460  -20.0330   19.8880 C   0  0  0  0  0  0  0  0  0  0  0  0
  -29.7160  -22.0810   21.2680 C   0  0  0  0  0  0  0  0  0  0  0  0
  -30.4990  -20.0970   17.4060 C   0  0  0  0  0  1  0  0  0  0  0  0
  -28.2410  -19.2380   18.1990 C   0  0  0  0  0  1  0  0  0  0  0  0
  -29.7380  -19.3680   18.5250 C   0  0  0  0  0  3  0  0  0  0  0  0
  -30.8900  -17.8280   20.9650 C   0  0  0  0  0  2  0  0  0  0  0  0
  -29.6910  -16.8490   20.9450 C   0  0  0  0  0  2  0  0  0  0  0  0
  -30.6510  -14.5270   20.4750 C   0  0  0  0  0  0  0  0  0  0  0  0
  -30.3940  -12.3910   19.2520 C   0  0  0  0  0  2  0  0  0  0  0  0
  -29.4360  -12.6300   18.0640 C   0  0  0  0  0  2  0  0  0  0  0  0
  -27.9630  -12.4850   18.4950 C   0  0  0  0  0  2  0  0  0  0  0  0
  -27.6400  -13.2790   19.7880 C   0  0  0  0  0  3  0  0  0  0  0  0
  -28.6980  -12.9870   20.8770 C   0  0  0  0  0  2  0  0  0  0  0  0
  -30.0280  -13.3240   20.3300 N   0  0  0  0  0  0  0  0  0  0  0  0
  -31.7050  -14.8170   19.9010 O   0  0  0  0  0  0  0  0  0  0  0  0
  -29.9480  -15.4180   21.1970 N   0  0  0  0  0  0  0  0  0  0  0  0
  -29.2170  -14.9770   21.7340 H   0  0  0  0  0  0  0  0  0  0  0  0
  -25.2370  -13.8910   20.4860 C   0  0  0  0  0  0  0  0  0  0  0  0
  -24.1680  -13.1200   20.8590 C   0  0  0  0  0  0  0  0  0  0  0  0
  -24.6290  -11.7680   20.8310 C   0  0  0  0  0  0  0  0  0  0  0  0
  -26.2830  -13.0090   20.2600 N   0  0  0  0  0  0  0  0  0  0  0  0
  -25.9190  -11.7270   20.5190 N   0  0  0  0  0  0  0  0  0  0  0  0
  -23.9040  -10.5060   21.0260 C   0  0  0  0  0  0  0  0  0  0  0  0
  -24.3450   -9.5390   21.9560 C   0  0  0  0  0  3  0  0  0  0  0  0
  -23.6230   -8.3390   22.1380 C   0  0  0  0  0  3  0  0  0  0  0  0
  -22.4450   -8.1000   21.3910 C   0  0  0  0  0  0  0  0  0  0  0  0
  -22.0230   -9.0570   20.4510 C   0  0  0  0  0  3  0  0  0  0  0  0
  -22.7460  -10.2480   20.2670 C   0  0  0  0  0  3  0  0  0  0  0  0
  -21.6930   -6.9540   21.4830 O   0  0  0  0  0  0  0  0  0  0  0  0
  -21.6580   -6.2070   22.6330 C   0  0  0  0  0  0  0  0  0  0  0  0
  -21.2470   -6.7570   23.8680 C   0  0  0  0  0  3  0  0  0  0  0  0
  -21.1600   -5.9370   25.0090 C   0  0  0  0  0  3  0  0  0  0  0  0
  -21.4720   -4.5660   24.9180 C   0  0  0  0  0  0  0  0  0  0  0  0
  -21.8750   -4.0160   23.6900 C   0  0  0  0  0  3  0  0  0  0  0  0
  -21.9650   -4.8340   22.5500 C   0  0  0  0  0  0  0  0  0  0  0  0
  -22.3350   -4.2940   21.3630 F   0  0  0  0  0  0  0  0  0  0  0  0
  -21.3800   -3.7750   26.0140 F   0  0  0  0  0  0  0  0  0  0  0  0
  -22.7710  -13.5960   21.1370 C   0  0  0  0  0  0  0  0  0  0  0  0
  -22.0470  -12.8990   22.0050 N   0  0  0  0  0  0  0  0  0  0  0  0
  -22.3300  -14.6220   20.6180 O   0  0  0  0  0  0  0  0  0  0  0  0
  -22.4160  -12.0690   22.4450 H   0  0  0  0  0  0  0  0  0  0  0  0
  -21.1100  -13.2000   22.2330 H   0  0  0  0  0  0  0  0  0  0  0  0
  -25.4010  -15.2610   20.3040 N   0  0  0  0  0  0  0  0  0  0  0  0
  -24.6340  -15.9170   20.4040 H   0  0  0  0  0  0  0  0  0  0  0  0
  -26.2550  -15.6970   19.9780 H   0  0  0  0  0  0  0  0  0  0  0  0
  -29.3640  -23.4000   21.5090 O   0  0  0  0  0  0  0  0  0  0  0  0
  -28.9540  -24.2710   20.4460 C   0  0  0  0  0  2  0  0  0  0  0  0
  -28.4510  -25.6040   21.0670 C   0  0  0  0  0  2  0  0  0  0  0  0
  -28.4450  -26.7310   20.1710 O   0  0  0  0  0  0  0  0  0  0  0  0
  -24.6040  -31.9120   23.2400 C   0  0  0  0  0  0  0  0  0  0  0  0
  -27.2850  -27.4740   20.1860 C   0  0  0  0  0  0  0  0  0  0  0  0
  -23.4110  -30.4970   21.5990 C   0  0  0  0  0  3  0  0  0  0  0  0
  -24.8800  -28.9620   20.1830 C   0  0  0  0  0  0  0  0  0  0  0  0
  -25.9350  -30.8720   21.4050 C   0  0  0  0  0  2  0  0  0  0  0  0
  -26.0330  -29.4980   20.7720 C   0  0  0  0  0  0  0  0  0  0  0  0
  -27.2430  -28.7630   20.7660 C   0  0  0  0  0  3  0  0  0  0  0  0
  -26.1180  -26.9480   19.5960 C   0  0  0  0  0  3  0  0  0  0  0  0
  -24.9170  -27.6870   19.5910 C   0  0  0  0  0  3  0  0  0  0  0  0
  -23.6290  -29.8120   20.2230 C   0  0  0  0  0  2  0  0  0  0  0  0
  -24.6680  -31.1090   22.1400 N   0  0  0  0  0  0  0  0  0  0  0  0
  -23.5190  -32.1790   23.7780 O   0  0  0  0  0  0  0  0  0  0  0  0
  -22.7630  -29.4770   22.5620 C   0  0  0  0  0  0  0  0  0  0  0  0
  -21.4400  -29.2870   22.4310 N   0  0  0  0  0  0  0  0  0  0  0  0
  -23.4480  -28.8590   23.3810 O   0  0  0  0  0  0  0  0  0  0  0  0
  -20.9490  -29.8360   21.7400 H   0  0  0  0  0  0  0  0  0  0  0  0
  -18.0700  -28.0750   22.9210 C   0  0  0  0  0  0  0  0  0  0  0  0
  -20.6250  -28.3470   23.2020 C   0  0  0  0  0  3  0  0  0  0  0  0
  -20.7370  -26.9150   22.6280 C   0  0  0  0  0  2  0  0  0  0  0  0
  -19.6410  -26.5850   21.6110 C   0  0  0  0  0  2  0  0  0  0  0  0
  -18.2560  -26.7250   22.2500 C   0  0  0  0  0  2  0  0  0  0  0  0
  -19.1830  -28.8440   23.3520 C   0  0  0  0  0  0  0  0  0  0  0  0
  -18.9560  -30.1090   23.9380 C   0  0  0  0  0  3  0  0  0  0  0  0
  -17.6480  -30.6040   24.0980 C   0  0  0  0  0  3  0  0  0  0  0  0
  -16.5490  -29.8320   23.6830 C   0  0  0  0  0  3  0  0  0  0  0  0
  -16.7610  -28.5700   23.0990 C   0  0  0  0  0  3  0  0  0  0  0  0
  -25.8840  -32.5530   23.8620 C   0  0  0  0  0  3  0  0  0  0  0  0
  -25.5690  -33.9510   24.1840 N   0  0  0  0  0  0  0  0  0  0  0  0
  -25.9030  -35.0010   23.4220 C   0  0  0  0  0  0  0  0  0  0  0  0
  -26.5820  -34.8960   22.3970 O   0  0  0  0  0  0  0  0  0  0  0  0
  -24.9700  -34.1070   24.9820 H   0  0  0  0  0  0  0  0  0  0  0  0
  -24.1740  -36.7860   23.0400 C   0  0  0  0  0  1  0  0  0  0  0  0
  -25.4060  -36.3890   23.8690 C   0  0  0  0  0  3  0  0  0  0  0  0
  -27.5280  -37.2800   24.7230 C   0  0  0  0  0  1  0  0  0  0  0  0
  -26.4360  -37.4450   23.7670 N   0  0  0  0  0  0  0  0  0  0  0  0
  -26.0260  -38.3630   23.9080 H   0  0  0  0  0  0  0  0  0  0  0  0
  -26.4050  -31.7890   25.1410 C   0  0  1  0  0  0  0  0  0  0  0  0
  -25.3120  -31.5480   26.2080 C   0  0  0  0  0  1  0  0  0  0  0  0
  -26.9960  -30.4130   24.7520 C   0  0  0  0  0  1  0  0  0  0  0  0
  -27.5510  -32.5910   25.8010 C   0  0  0  0  0  1  0  0  0  0  0  0
  1  2  1  0
  3  6  1  0
  4  1  2  0
  5  3  2  0
  5  4  1  0
  6 50  1  0
  6  2  2  0
  7  9  1  0
  8  9  1  0
  9  5  1  0
 10  4  1  0
 11 10  1  0
 11 20  1  0
 12 20  1  0
 13 18  1  0
 14 15  1  0
 14 13  1  0
 16 15  1  0
 16 25  1  0
 16 17  1  0
 18 12  1  0
 18 17  1  0
 19 12  2  0
 20 21  1  0
 22 23  2  0
 23 42  1  0
 24 23  1  0
 24 27  1  0
 25 22  1  0
 25 26  1  0
 26 24  2  0
 27 28  1  0
 28 29  2  0
 30 33  1  0
 30 29  1  0
 31 30  2  0
 32 31  1  0
 32 27  2  0
 33 34  1  0
 34 35  1  0
 35 36  2  0
 37 36  1  0
 37 41  1  0
 38 37  2  0
 39 34  2  0
 39 38  1  0
 40 39  1  0
 42 43  1  0
 43 46  1  0
 43 45  1  0
 44 42  2  0
 47 48  1  0
 47 22  1  0
 49 47  1  0
 51 52  1  0
 51 50  1  0
 53 55  1  0
 53 52  1  0
 54 65  2  0
 55 60  1  0
 56 64  1  0
 56 66  1  0
 57 63  1  0
 57 59  1  0
 58 64  1  0
 59 58  1  0
 60 59  2  0
 61 55  2  0
 62 61  1  0
 62 57  2  0
 63 56  1  0
 64 54  1  0
 66 68  2  0
 67 66  1  0
 69 67  1  0
 70 79  2  0
 70 75  1  0
 71 67  1  0
 71 75  1  0
 72 71  1  0
 73 74  1  0
 73 72  1  0
 74 70  1  0
 75 76  2  0
 76 77  1  0
 78 77  2  0
 79 78  1  0
 80 54  1  0
 80 81  1  0
 80 90  1  0
 81 84  1  0
 82 86  1  0
 82 81  1  0
 83 82  2  0
 86 85  1  0
 88 86  1  0
 88 89  1  0
 88 87  1  0
 90 93  1  1
 90 91  1  0
 92 90  1  0
M  ISO  4  12 100  20 100  52 101  53 101
M  END
>  <TORSDO>  (51) 
F 22

>  <SCORE>  (51) 
-13.461

>  <name>  (51) 
50

>  <ligand_id>  (51) 
50

>  <original_smiles>  (51) 
[H]c1c([H])c([H])c2c(c1[H])C([H])([H])C([H])([H])C([H])([H])C2([H])N([H])C(=O)C1([H])N(C(=O)C([H])(N([H])C(=O)C([H])(N([H])C([H])([H])[H])C([H])([H])[H])C(C([H])([H])[H])(C([H])([H])[H])C([H])([H])[H])C([H])([H])c2c([H])c(OC([H])([H])C([H])([H])Oc3c([H])c([H])c(C([H])([H])C([H])([H])N([H])C(=O)N4C([H])([H])C([H])([H])C([H])([H])C([H])(n5nc(-c6c([H])c([H])c(Oc7c([H])c([H])c(F)c([H])c7F)c([H])c6[H])c(C(=O)N([H])[H])c5N([H])[H])C4([H])[H])c(C([H])(C([H])([H])[H])C([H])([H])[H])c3[H])c([H])c([H])c2C1([H])[H]

>  <smiles>  (51) 
[H]c1c([H])c([H])c2c(c1[H])C([H])([H])C([H])([H])C([H])([H])C2([H])N([H])C(=O)C1([H])N(C(=O)C([H])(N([H])C(=O)C([H])(N([H])C([H])([H])[H])C([H])([H])[H])C(C([H])([H])[H])(C([H])([H])[H])C([H])([H])[H])C([H])([H])c2c([H])c(OC([H])([H])C([H])([H])Oc3c([H])c([H])c(C([H])([H])C([H])([H])N([H])C(=O)N4C([H])([H])C([H])([H])C([H])([H])C([H])(n5nc(-c6c([H])c([H])c(Oc7c([H])c([H])c(F)c([H])c7F)c([H])c6[H])c(C(=O)N([H])[H])c5N([H])[H])C4([H])[H])c(C([H])(C([H])([H])[H])C([H])([H])[H])c3[H])c([H])c([H])c2C1([H])[H]

$$$$
51:0:0
     RDKit          3D

 94103  0  0  1  0  0  0  0  0999 V2000
  -30.8910  -18.7040   19.0830 C   0  0  0  0  0  2  0  0  0  0  0  0
  -30.2190  -19.3370   21.3940 C   0  0  0  0  0  2  0  0  0  0  0  0
  -30.9960  -20.2180   18.7190 C   0  0  0  0  0  2  0  0  0  0  0  0
  -30.4080  -20.8390   21.0990 C   0  0  0  0  0  2  0  0  0  0  0  0
  -31.2090  -18.4650   20.5720 C   0  0  0  0  0  3  0  0  0  0  0  0
  -30.1630  -21.1870   19.6150 C   0  0  0  0  0  3  0  0  0  0  0  0
  -31.1400  -14.7530   19.9200 C   0  0  0  0  0  0  0  0  0  0  0  0
  -30.7990  -12.6090   18.7130 C   0  0  0  0  0  2  0  0  0  0  0  0
  -29.7580  -12.7830   17.5870 C   0  0  0  0  0  2  0  0  0  0  0  0
  -28.3160  -12.6340   18.1160 C   0  0  0  0  0  2  0  0  0  0  0  0
  -28.0770  -13.4250   19.4320 C   0  0  0  0  0  3  0  0  0  0  0  0
  -29.2190  -13.1010   20.4250 C   0  0  0  0  0  2  0  0  0  0  0  0
  -30.4600  -13.5640   19.7930 N   0  0  0  0  0  0  0  0  0  0  0  0
  -32.2330  -14.8700   19.3530 O   0  0  0  0  0  0  0  0  0  0  0  0
  -29.9510  -16.3620   22.8050 C   0  0  0  0  0  2  0  0  0  0  0  0
  -31.3970  -16.8080   22.5620 C   0  0  0  0  0  2  0  0  0  0  0  0
  -29.4140  -16.0390   21.4040 C   0  0  0  0  0  2  0  0  0  0  0  0
  -31.4830  -16.9710   21.0390 C   0  0  0  0  0  3  0  0  0  0  0  0
  -30.6080  -15.8600   20.5630 N   0  0  0  0  0  0  0  0  0  0  0  0
  -25.7350  -14.0470   20.2970 C   0  0  0  0  0  0  0  0  0  0  0  0
  -24.6820  -13.2780   20.7120 C   0  0  0  0  0  0  0  0  0  0  0  0
  -25.1230  -11.9220   20.6140 C   0  0  0  0  0  0  0  0  0  0  0  0
  -26.7550  -13.1580   19.9870 N   0  0  0  0  0  0  0  0  0  0  0  0
  -26.3890  -11.8740   20.2250 N   0  0  0  0  0  0  0  0  0  0  0  0
  -24.3930  -10.6640   20.8140 C   0  0  0  0  0  0  0  0  0  0  0  0
  -24.7930   -9.7270   21.7920 C   0  0  0  0  0  3  0  0  0  0  0  0
  -24.0660   -8.5310   21.9760 C   0  0  0  0  0  3  0  0  0  0  0  0
  -22.9260   -8.2650   21.1820 C   0  0  0  0  0  0  0  0  0  0  0  0
  -22.5460   -9.1920   20.1960 C   0  0  0  0  0  3  0  0  0  0  0  0
  -23.2710  -10.3790   20.0100 C   0  0  0  0  0  3  0  0  0  0  0  0
  -22.1710   -7.1210   21.2740 O   0  0  0  0  0  0  0  0  0  0  0  0
  -21.9530   -6.5000   22.4770 C   0  0  0  0  0  0  0  0  0  0  0  0
  -21.3320   -7.1620   23.5590 C   0  0  0  0  0  3  0  0  0  0  0  0
  -21.0670   -6.4650   24.7530 C   0  0  0  0  0  3  0  0  0  0  0  0
  -21.4120   -5.1040   24.8680 C   0  0  0  0  0  0  0  0  0  0  0  0
  -22.0260   -4.4420   23.7910 C   0  0  0  0  0  3  0  0  0  0  0  0
  -22.2920   -5.1370   22.5980 C   0  0  0  0  0  0  0  0  0  0  0  0
  -22.8660   -4.4890   21.5560 F   0  0  0  0  0  0  0  0  0  0  0  0
  -21.1470   -4.4300   26.0110 F   0  0  0  0  0  0  0  0  0  0  0  0
  -23.3110  -13.7640   21.0850 C   0  0  0  0  0  0  0  0  0  0  0  0
  -22.6380  -13.0660   21.9910 N   0  0  0  0  0  0  0  0  0  0  0  0
  -22.8480  -14.8020   20.6110 O   0  0  0  0  0  0  0  0  0  0  0  0
  -23.0240  -12.2280   22.3990 H   0  0  0  0  0  0  0  0  0  0  0  0
  -21.7210  -13.3770   22.2830 H   0  0  0  0  0  0  0  0  0  0  0  0
  -25.9030  -15.4190   20.1400 N   0  0  0  0  0  0  0  0  0  0  0  0
  -25.1520  -16.0770   20.3160 H   0  0  0  0  0  0  0  0  0  0  0  0
  -26.7360  -15.8600   19.7700 H   0  0  0  0  0  0  0  0  0  0  0  0
  -30.4640  -22.6930   19.2960 C   0  0  0  0  0  2  0  0  0  0  0  0
  -29.7790  -23.6680   20.1970 N   0  0  0  0  0  4  0  0  0  0  0  0
  -30.4660  -24.3290   20.5310 H   0  0  0  0  0  0  0  0  0  0  0  0
  -29.4690  -23.1520   21.0060 H   0  0  0  0  0  0  0  0  0  0  0  0
  -28.6180  -24.4340   19.6520 C   0  0  0  0  0  2  0  0  0  0  0  0
  -28.9880  -25.7970   18.9960 C   0  0  0  0  0  2  0  0  0  0  0  0
  -28.7330  -26.9550   19.8190 O   0  0  0  0  0  0  0  0  0  0  0  0
  -24.5610  -31.7700   23.0170 C   0  0  0  0  0  0  0  0  0  0  0  0
  -27.4940  -27.5790   19.8130 C   0  0  0  0  0  0  0  0  0  0  0  0
  -23.4500  -30.3470   21.3280 C   0  0  0  0  0  3  0  0  0  0  0  0
  -25.0010  -28.9390   19.8690 C   0  0  0  0  0  0  0  0  0  0  0  0
  -25.9510  -30.8580   21.1580 C   0  0  0  0  0  2  0  0  0  0  0  0
  -26.1210  -29.5100   20.4800 C   0  0  0  0  0  0  0  0  0  0  0  0
  -27.3630  -28.8330   20.4580 C   0  0  0  0  0  3  0  0  0  0  0  0
  -26.3470  -27.0210   19.1980 C   0  0  0  0  0  3  0  0  0  0  0  0
  -25.1080  -27.6920   19.2290 C   0  0  0  0  0  3  0  0  0  0  0  0
  -23.7080  -29.7220   19.9290 C   0  0  0  0  0  2  0  0  0  0  0  0
  -24.6710  -31.0050   21.8940 N   0  0  0  0  0  0  0  0  0  0  0  0
  -23.4620  -31.9620   23.5570 O   0  0  0  0  0  0  0  0  0  0  0  0
  -22.8530  -29.2630   22.2530 C   0  0  0  0  0  0  0  0  0  0  0  0
  -21.5410  -29.0150   22.1190 N   0  0  0  0  0  0  0  0  0  0  0  0
  -23.5690  -28.6480   23.0480 O   0  0  0  0  0  0  0  0  0  0  0  0
  -21.0200  -29.5640   21.4490 H   0  0  0  0  0  0  0  0  0  0  0  0
  -18.2320  -27.6430   22.5870 C   0  0  0  0  0  0  0  0  0  0  0  0
  -20.7760  -28.0100   22.8570 C   0  0  0  0  0  3  0  0  0  0  0  0
  -20.9440  -26.6100   22.2230 C   0  0  0  0  0  2  0  0  0  0  0  0
  -19.8520  -26.2770   21.2010 C   0  0  0  0  0  2  0  0  0  0  0  0
  -18.4690  -26.3310   21.8580 C   0  0  0  0  0  2  0  0  0  0  0  0
  -19.3160  -28.4390   23.0420 C   0  0  0  0  0  0  0  0  0  0  0  0
  -19.0430  -29.6660   23.6830 C   0  0  0  0  0  3  0  0  0  0  0  0
  -17.7180  -30.0990   23.8740 C   0  0  0  0  0  3  0  0  0  0  0  0
  -16.6470  -29.2990   23.4360 C   0  0  0  0  0  3  0  0  0  0  0  0
  -16.9070  -28.0730   22.7970 C   0  0  0  0  0  3  0  0  0  0  0  0
  -25.8040  -32.4560   23.6650 C   0  0  0  0  0  3  0  0  0  0  0  0
  -26.3750  -31.6670   24.9060 C   0  0  1  0  0  0  0  0  0  0  0  0
  -25.2980  -31.2990   25.9540 C   0  0  0  0  0  1  0  0  0  0  0  0
  -27.0610  -30.3570   24.4510 C   0  0  0  0  0  1  0  0  0  0  0  0
  -27.4600  -32.5130   25.6120 C   0  0  0  0  0  1  0  0  0  0  0  0
  -25.4070  -33.8180   24.0510 N   0  0  0  0  0  0  0  0  0  0  0  0
  -25.6670  -34.9170   23.3310 C   0  0  0  0  0  0  0  0  0  0  0  0
  -26.3360  -34.8980   22.2940 O   0  0  0  0  0  0  0  0  0  0  0  0
  -24.8080  -33.9010   24.8580 H   0  0  0  0  0  0  0  0  0  0  0  0
  -23.8170  -36.6010   23.0560 C   0  0  0  0  0  1  0  0  0  0  0  0
  -25.0910  -36.2520   23.8430 C   0  0  0  0  0  3  0  0  0  0  0  0
  -27.1660  -37.2490   24.6950 C   0  0  0  0  0  1  0  0  0  0  0  0
  -26.0490  -37.3750   23.7630 N   0  0  0  0  0  0  0  0  0  0  0  0
  -25.5820  -38.2600   23.9450 H   0  0  0  0  0  0  0  0  0  0  0  0
  3  1  1  0
  3  6  1  0
  4  2  1  0
  5  1  1  0
  5 18  1  0
  5  2  1  0
  6 48  1  0
  6  4  1  0
  7 19  1  0
  8 13  1  0
  9 10  1  0
  9  8  1  0
 11 10  1  0
 11 23  1  0
 11 12  1  0
 13  7  1  0
 13 12  1  0
 14  7  2  0
 16 15  1  0
 17 15  1  0
 18 16  1  0
 19 18  1  0
 19 17  1  0
 20 21  2  0
 21 40  1  0
 22 21  1  0
 22 25  1  0
 23 24  1  0
 23 20  1  0
 24 22  2  0
 25 26  1  0
 26 27  2  0
 28 31  1  0
 28 27  1  0
 29 28  2  0
 30 29  1  0
 30 25  2  0
 31 32  1  0
 32 37  2  0
 32 33  1  0
 33 34  2  0
 34 35  1  0
 35 39  1  0
 36 35  2  0
 37 36  1  0
 38 37  1  0
 40 41  1  0
 41 44  1  0
 41 43  1  0
 42 40  2  0
 45 20  1  0
 45 46  1  0
 47 45  1  0
 48 49  1  0
 49 50  1  0
 49 51  1  0
 52 49  1  0
 53 52  1  0
 53 54  1  0
 55 66  2  0
 56 54  1  0
 56 61  1  0
 57 65  1  0
 57 67  1  0
 58 64  1  0
 58 60  1  0
 59 65  1  0
 60 59  1  0
 61 60  2  0
 62 63  1  0
 62 56  2  0
 63 58  2  0
 64 57  1  0
 65 55  1  0
 67 69  2  0
 68 67  1  0
 70 68  1  0
 71 80  2  0
 71 76  1  0
 72 68  1  0
 72 76  1  0
 73 72  1  0
 74 75  1  0
 74 73  1  0
 75 71  1  0
 76 77  2  0
 77 78  1  0
 79 78  2  0
 80 79  1  0
 81 55  1  0
 81 86  1  0
 81 82  1  0
 82 85  1  1
 82 83  1  0
 84 82  1  0
 86 89  1  0
 87 91  1  0
 87 86  1  0
 88 87  2  0
 91 90  1  0
 93 91  1  0
 93 94  1  0
 93 92  1  0
M  ISO  4   7 100  19 100  53 101  54 101
M  END
>  <TORSDO>  (52) 
F 20

>  <SCORE>  (52) 
-10.804

>  <name>  (52) 
51

>  <ligand_id>  (52) 
51

>  <original_smiles>  (52) 
[H]c1c([H])c([H])c2c(c1[H])C([H])([H])C([H])([H])C([H])([H])C2([H])N([H])C(=O)C1([H])N(C(=O)C([H])(N([H])C(=O)C([H])(N([H])C([H])([H])[H])C([H])([H])[H])C(C([H])([H])[H])(C([H])([H])[H])C([H])([H])[H])C([H])([H])c2c([H])c(OC([H])([H])C([H])([H])[N+]([H])([H])C([H])([H])C3([H])C([H])([H])C([H])([H])C([H])(C4([H])N(C(=O)N5C([H])([H])C([H])([H])C([H])([H])C([H])(n6nc(-c7c([H])c([H])c(Oc8c([H])c([H])c(F)c([H])c8F)c([H])c7[H])c(C(=O)N([H])[H])c6N([H])[H])C5([H])[H])C([H])([H])C([H])([H])C4([H])[H])C([H])([H])C3([H])[H])c([H])c([H])c2C1([H])[H]

>  <smiles>  (52) 
[H]c1c([H])c([H])c2c(c1[H])C([H])([H])C([H])([H])C([H])([H])C2([H])N([H])C(=O)C1([H])N(C(=O)C([H])(N([H])C(=O)C([H])(N([H])C([H])([H])[H])C([H])([H])[H])C(C([H])([H])[H])(C([H])([H])[H])C([H])([H])[H])C([H])([H])c2c([H])c(OC([H])([H])C([H])([H])[N+]([H])([H])C([H])([H])C3([H])C([H])([H])C([H])([H])C([H])(C4([H])N(C(=O)N5C([H])([H])C([H])([H])C([H])([H])C([H])(n6nc(-c7c([H])c([H])c(Oc8c([H])c([H])c(F)c([H])c8F)c([H])c7[H])c(C(=O)N([H])[H])c6N([H])[H])C5([H])[H])C([H])([H])C([H])([H])C4([H])[H])C([H])([H])C3([H])[H])c([H])c([H])c2C1([H])[H]

$$$$
52:0:0
     RDKit          3D

 97106  0  0  1  0  0  0  0  0999 V2000
  -31.6560  -19.9240   16.3800 C   0  0  0  0  0  2  0  0  0  0  0  0
  -31.0540  -19.1120   17.5350 C   0  0  0  0  0  2  0  0  0  0  0  0
  -30.8050  -21.1460   16.0530 C   0  0  0  0  0  2  0  0  0  0  0  0
  -29.8340  -21.2160   18.2550 C   0  0  0  0  0  3  0  0  0  0  0  0
  -30.6670  -19.9770   18.7830 C   0  0  0  0  0  3  0  0  0  0  0  0
  -30.6710  -21.9190   17.2760 N   0  0  0  0  0  0  0  0  0  0  0  0
  -30.1990  -22.7890   17.0460 H   0  0  0  0  0  0  0  0  0  0  0  0
  -30.0870  -23.1240   20.1600 C   0  0  0  0  0  2  0  0  0  0  0  0
  -28.4730  -23.3580   18.2170 C   0  0  0  0  0  2  0  0  0  0  0  0
  -29.8690  -24.6780   20.2240 C   0  0  0  0  0  2  0  0  0  0  0  0
  -27.7030  -24.4790   18.9100 C   0  0  0  0  0  2  0  0  0  0  0  0
  -29.1880  -22.3470   19.1520 C   0  0  0  0  0  3  0  0  0  0  0  0
  -28.3980  -25.1750   20.1070 C   0  0  0  0  0  3  0  0  0  0  0  0
  -28.3850  -26.6350   20.0690 O   0  0  0  0  0  0  0  0  0  0  0  0
  -24.6260  -31.8760   23.2290 C   0  0  0  0  0  0  0  0  0  0  0  0
  -27.1970  -27.3650   20.1170 C   0  0  0  0  0  0  0  0  0  0  0  0
  -23.3960  -30.4840   21.6040 C   0  0  0  0  0  3  0  0  0  0  0  0
  -24.8200  -28.9460   20.1640 C   0  0  0  0  0  0  0  0  0  0  0  0
  -25.9330  -30.8090   21.3870 C   0  0  0  0  0  2  0  0  0  0  0  0
  -25.9990  -29.4400   20.7350 C   0  0  0  0  0  0  0  0  0  0  0  0
  -27.1880  -28.6660   20.6950 C   0  0  0  0  0  3  0  0  0  0  0  0
  -25.9750  -26.9030   19.5740 C   0  0  0  0  0  3  0  0  0  0  0  0
  -24.8070  -27.6750   19.5820 C   0  0  0  0  0  3  0  0  0  0  0  0
  -23.5900  -29.8170   20.2200 C   0  0  0  0  0  2  0  0  0  0  0  0
  -24.6710  -31.0750   22.1270 N   0  0  0  0  0  0  0  0  0  0  0  0
  -23.5500  -32.1510   23.7800 O   0  0  0  0  0  0  0  0  0  0  0  0
  -22.7570  -29.4570   22.5680 C   0  0  0  0  0  0  0  0  0  0  0  0
  -21.4310  -29.2720   22.4570 N   0  0  0  0  0  0  0  0  0  0  0  0
  -23.4480  -28.8260   23.3720 O   0  0  0  0  0  0  0  0  0  0  0  0
  -20.9290  -29.8340   21.7830 H   0  0  0  0  0  0  0  0  0  0  0  0
  -18.0610  -28.0620   22.9740 C   0  0  0  0  0  0  0  0  0  0  0  0
  -20.6210  -28.3340   23.2350 C   0  0  0  0  0  3  0  0  0  0  0  0
  -20.7260  -26.8980   22.6700 C   0  0  0  0  0  2  0  0  0  0  0  0
  -19.6240  -26.5620   21.6620 C   0  0  0  0  0  2  0  0  0  0  0  0
  -18.2440  -26.7090   22.3090 C   0  0  0  0  0  2  0  0  0  0  0  0
  -19.1780  -28.8310   23.3950 C   0  0  0  0  0  0  0  0  0  0  0  0
  -18.9570  -30.1010   23.9730 C   0  0  0  0  0  3  0  0  0  0  0  0
  -17.6510  -30.5970   24.1400 C   0  0  0  0  0  3  0  0  0  0  0  0
  -16.5490  -29.8230   23.7380 C   0  0  0  0  0  3  0  0  0  0  0  0
  -16.7550  -28.5590   23.1580 C   0  0  0  0  0  3  0  0  0  0  0  0
  -25.9190  -32.5060   23.8320 C   0  0  0  0  0  3  0  0  0  0  0  0
  -26.4600  -31.7250   25.0920 C   0  0  1  0  0  0  0  0  0  0  0  0
  -25.3900  -31.4770   26.1800 C   0  0  0  0  0  1  0  0  0  0  0  0
  -27.0370  -30.3520   24.6760 C   0  0  0  0  0  1  0  0  0  0  0  0
  -27.6240  -32.5160   25.7380 C   0  0  0  0  0  1  0  0  0  0  0  0
  -25.6200  -33.8980   24.1790 N   0  0  0  0  0  0  0  0  0  0  0  0
  -25.9280  -34.9590   23.4170 C   0  0  0  0  0  0  0  0  0  0  0  0
  -26.5740  -34.8650   22.3700 O   0  0  0  0  0  0  0  0  0  0  0  0
  -25.0570  -34.0450   25.0030 H   0  0  0  0  0  0  0  0  0  0  0  0
  -24.1830  -36.7410   23.1180 C   0  0  0  0  0  1  0  0  0  0  0  0
  -25.4440  -36.3400   23.8980 C   0  0  0  0  0  3  0  0  0  0  0  0
  -27.5930  -37.2250   24.6810 C   0  0  0  0  0  1  0  0  0  0  0  0
  -26.4670  -37.4000   23.7700 N   0  0  0  0  0  0  0  0  0  0  0  0
  -26.0610  -38.3160   23.9390 H   0  0  0  0  0  0  0  0  0  0  0  0
  -30.0000  -19.1460   19.8370 N   0  0  0  0  0  4  0  0  0  0  0  0
  -29.0030  -19.2610   19.7480 H   0  0  0  0  0  0  0  0  0  0  0  0
  -30.2620  -19.5350   20.7300 H   0  0  0  0  0  0  0  0  0  0  0  0
  -30.3000  -17.6710   19.8400 C   0  0  0  0  0  3  0  0  0  0  0  0
  -29.9500  -16.9310   21.1550 C   0  0  0  0  0  3  0  0  0  0  0  0
  -30.6130  -14.4940   20.5390 C   0  0  0  0  0  0  0  0  0  0  0  0
  -30.3620  -12.3400   19.3490 C   0  0  0  0  0  2  0  0  0  0  0  0
  -29.4180  -12.5810   18.1510 C   0  0  0  0  0  2  0  0  0  0  0  0
  -27.9420  -12.4360   18.5710 C   0  0  0  0  0  2  0  0  0  0  0  0
  -27.6100  -13.2420   19.8520 C   0  0  0  0  0  3  0  0  0  0  0  0
  -28.6590  -12.9680   20.9530 C   0  0  0  0  0  2  0  0  0  0  0  0
  -29.9850  -13.2920   20.4050 N   0  0  0  0  0  0  0  0  0  0  0  0
  -31.7360  -14.7300   20.0850 O   0  0  0  0  0  0  0  0  0  0  0  0
  -29.8180  -15.4600   21.0520 N   0  0  0  0  0  0  0  0  0  0  0  0
  -28.9320  -15.1030   21.3780 H   0  0  0  0  0  0  0  0  0  0  0  0
  -25.2120  -13.8710   20.5430 C   0  0  0  0  0  0  0  0  0  0  0  0
  -24.1370  -13.1100   20.9120 C   0  0  0  0  0  0  0  0  0  0  0  0
  -24.5870  -11.7530   20.8910 C   0  0  0  0  0  0  0  0  0  0  0  0
  -26.2520  -12.9800   20.3220 N   0  0  0  0  0  0  0  0  0  0  0  0
  -25.8770  -11.7010   20.5840 N   0  0  0  0  0  0  0  0  0  0  0  0
  -23.8480  -10.4990   21.0850 C   0  0  0  0  0  0  0  0  0  0  0  0
  -24.2840   -9.5170   22.0040 C   0  0  0  0  0  3  0  0  0  0  0  0
  -23.5460   -8.3300   22.1800 C   0  0  0  0  0  3  0  0  0  0  0  0
  -22.3560   -8.1140   21.4430 C   0  0  0  0  0  0  0  0  0  0  0  0
  -21.9420   -9.0840   20.5110 C   0  0  0  0  0  3  0  0  0  0  0  0
  -22.6830  -10.2620   20.3300 C   0  0  0  0  0  3  0  0  0  0  0  0
  -21.5890   -6.9790   21.5340 O   0  0  0  0  0  0  0  0  0  0  0  0
  -21.5710   -6.2130   22.6740 C   0  0  0  0  0  0  0  0  0  0  0  0
  -21.2170   -6.7550   23.9280 C   0  0  0  0  0  3  0  0  0  0  0  0
  -21.1350   -5.9160   25.0590 C   0  0  0  0  0  3  0  0  0  0  0  0
  -21.4030   -4.5390   24.9360 C   0  0  0  0  0  0  0  0  0  0  0  0
  -21.7530   -3.9970   23.6870 C   0  0  0  0  0  3  0  0  0  0  0  0
  -21.8320   -4.8330   22.5570 C   0  0  0  0  0  0  0  0  0  0  0  0
  -22.1460   -4.3000   21.3520 F   0  0  0  0  0  0  0  0  0  0  0  0
  -21.3180   -3.7320   26.0200 F   0  0  0  0  0  0  0  0  0  0  0  0
  -22.7430  -13.6000   21.1750 C   0  0  0  0  0  0  0  0  0  0  0  0
  -22.0040  -12.9160   22.0420 N   0  0  0  0  0  0  0  0  0  0  0  0
  -22.3160  -14.6270   20.6470 O   0  0  0  0  0  0  0  0  0  0  0  0
  -22.3600  -12.0810   22.4810 H   0  0  0  0  0  0  0  0  0  0  0  0
  -21.0720  -13.2310   22.2680 H   0  0  0  0  0  0  0  0  0  0  0  0
  -25.3880  -15.2370   20.3530 N   0  0  0  0  0  0  0  0  0  0  0  0
  -24.6130  -15.8880   20.4110 H   0  0  0  0  0  0  0  0  0  0  0  0
  -26.2300  -15.6610   19.9840 H   0  0  0  0  0  0  0  0  0  0  0  0
  1  2  1  0
  2  5  1  0
  3  1  1  0
  3  6  1  0
  4  6  1  0
  4  5  1  0
  4 12  1  0
  5 55  1  0
  7  6  1  0
  8 10  1  0
  9 11  1  0
 11 13  1  0
 12  9  1  0
 12  8  1  0
 13 14  1  0
 13 10  1  0
 14 16  1  0
 15 26  2  0
 16 21  1  0
 17 25  1  0
 17 27  1  0
 18 24  1  0
 18 20  1  0
 19 25  1  0
 20 19  1  0
 21 20  2  0
 22 23  1  0
 22 16  2  0
 23 18  2  0
 24 17  1  0
 25 15  1  0
 27 29  2  0
 28 27  1  0
 30 28  1  0
 31 40  2  0
 31 36  1  0
 32 28  1  0
 32 36  1  0
 33 32  1  0
 34 35  1  0
 34 33  1  0
 35 31  1  0
 36 37  2  0
 37 38  1  0
 39 38  2  0
 40 39  1  0
 41 15  1  0
 41 46  1  0
 41 42  1  0
 42 45  1  1
 42 43  1  0
 44 42  1  0
 46 49  1  0
 47 51  1  0
 47 46  1  0
 48 47  2  0
 51 50  1  0
 53 51  1  0
 53 54  1  0
 53 52  1  0
 55 58  1  0
 55 57  1  0
 56 55  1  0
 58 59  2  0
 60 68  1  0
 61 66  1  0
 62 63  1  0
 62 61  1  0
 64 63  1  0
 64 73  1  0
 64 65  1  0
 66 60  1  0
 66 65  1  0
 67 60  2  0
 68 59  1  0
 68 69  1  0
 70 71  2  0
 71 90  1  0
 72 71  1  0
 72 75  1  0
 73 70  1  0
 73 74  1  0
 74 72  2  0
 75 76  1  0
 76 77  2  0
 78 81  1  0
 78 77  1  0
 79 78  2  0
 80 79  1  0
 80 75  2  0
 81 82  1  0
 82 83  1  0
 83 84  2  0
 85 84  1  0
 85 89  1  0
 86 85  2  0
 87 82  2  0
 87 86  1  0
 88 87  1  0
 90 91  1  0
 91 94  1  0
 91 93  1  0
 92 90  2  0
 95 96  1  0
 95 70  1  0
 97 95  1  0
M  ISO  4  13 101  14 101  60 100  68 100
M  END
>  <TORSDO>  (53) 
F 20

>  <SCORE>  (53) 
-13.844

>  <name>  (53) 
52

>  <ligand_id>  (53) 
52

>  <original_smiles>  (53) 
[H]c1c([H])c([H])c2c(c1[H])C([H])([H])C([H])([H])C([H])([H])C2([H])N([H])C(=O)C1([H])N(C(=O)C([H])(N([H])C(=O)C([H])(N([H])C([H])([H])[H])C([H])([H])[H])C(C([H])([H])[H])(C([H])([H])[H])C([H])([H])[H])C([H])([H])c2c([H])c(OC3([H])C([H])([H])C([H])([H])C([H])(C4([H])N([H])C([H])([H])C([H])([H])C([H])([H])C4([H])[N+]([H])([H])C([H])([H])C([H])([H])N([H])C(=O)N4C([H])([H])C([H])([H])C([H])([H])C([H])(n5nc(-c6c([H])c([H])c(Oc7c([H])c([H])c(F)c([H])c7F)c([H])c6[H])c(C(=O)N([H])[H])c5N([H])[H])C4([H])[H])C([H])([H])C3([H])[H])c([H])c([H])c2C1([H])[H]

>  <smiles>  (53) 
[H]c1c([H])c([H])c2c(c1[H])C([H])([H])C([H])([H])C([H])([H])C2([H])N([H])C(=O)C1([H])N(C(=O)C([H])(N([H])C(=O)C([H])(N([H])C([H])([H])[H])C([H])([H])[H])C(C([H])([H])[H])(C([H])([H])[H])C([H])([H])[H])C([H])([H])c2c([H])c(OC3([H])C([H])([H])C([H])([H])C([H])(C4([H])N([H])C([H])([H])C([H])([H])C([H])([H])C4([H])[N+]([H])([H])C([H])([H])C([H])([H])N([H])C(=O)N4C([H])([H])C([H])([H])C([H])([H])C([H])(n5nc(-c6c([H])c([H])c(Oc7c([H])c([H])c(F)c([H])c7F)c([H])c6[H])c(C(=O)N([H])[H])c5N([H])[H])C4([H])[H])C([H])([H])C3([H])[H])c([H])c([H])c2C1([H])[H]

$$$$
53:0:0
     RDKit          3D

 94103  0  0  1  0  0  0  0  0999 V2000
  -29.6430  -22.2500   19.3400 C   0  0  0  0  0  3  0  0  0  0  0  0
  -29.1500  -23.5660   19.5560 C   0  0  0  0  0  3  0  0  0  0  0  0
  -29.9750  -21.9710   21.7160 C   0  0  0  0  0  3  0  0  0  0  0  0
  -30.0840  -21.4320   20.4140 C   0  0  0  0  0  0  0  0  0  0  0  0
  -29.0760  -24.1160   20.8580 C   0  0  0  0  0  0  0  0  0  0  0  0
  -29.4700  -23.2890   21.9480 C   0  0  0  0  0  0  0  0  0  0  0  0
  -29.8110  -23.0910   24.3290 C   0  0  0  0  0  1  0  0  0  0  0  0
  -29.3390  -23.8300   23.2100 O   0  0  0  0  0  0  0  0  0  0  0  0
  -30.8450  -20.0960   20.1550 C   0  0  0  0  0  2  0  0  0  0  0  0
  -30.8350  -14.6220   20.2250 C   0  0  0  0  0  0  0  0  0  0  0  0
  -30.5560  -12.4110   19.1490 C   0  0  0  0  0  2  0  0  0  0  0  0
  -29.5830  -12.5620   17.9590 C   0  0  0  0  0  2  0  0  0  0  0  0
  -28.1220  -12.4140   18.4240 C   0  0  0  0  0  2  0  0  0  0  0  0
  -27.7990  -13.2720   19.6770 C   0  0  0  0  0  3  0  0  0  0  0  0
  -28.8850  -13.1130   20.7650 C   0  0  0  0  0  2  0  0  0  0  0  0
  -30.1820  -13.4240   20.1500 N   0  0  0  0  0  0  0  0  0  0  0  0
  -32.0020  -14.7540   19.8440 O   0  0  0  0  0  0  0  0  0  0  0  0
  -29.9270  -16.5350   21.5810 C   0  0  0  0  0  2  0  0  0  0  0  0
  -29.6300  -16.5150   19.1680 C   0  0  0  0  0  2  0  0  0  0  0  0
  -30.5480  -17.9730   21.4840 C   0  0  0  0  0  2  0  0  0  0  0  0
  -30.2940  -17.9190   19.0640 C   0  0  0  0  0  2  0  0  0  0  0  0
  -30.0390  -15.7310   20.3500 N   0  0  0  0  0  0  0  0  0  0  0  0
  -30.1310  -18.7650   20.2830 N   0  0  2  0  0  4  0  0  0  0  0  0
  -29.1480  -18.9750   20.3720 H   0  0  0  0  0  0  0  0  0  0  0  0
  -25.4280  -13.8810   20.4560 C   0  0  0  0  0  0  0  0  0  0  0  0
  -24.3650  -13.1110   20.8440 C   0  0  0  0  0  0  0  0  0  0  0  0
  -24.8200  -11.7580   20.7940 C   0  0  0  0  0  0  0  0  0  0  0  0
  -26.4620  -12.9980   20.1940 N   0  0  0  0  0  0  0  0  0  0  0  0
  -26.1020  -11.7150   20.4560 N   0  0  0  0  0  0  0  0  0  0  0  0
  -24.0930  -10.4970   20.9900 C   0  0  0  0  0  0  0  0  0  0  0  0
  -24.5300   -9.5310   21.9240 C   0  0  0  0  0  3  0  0  0  0  0  0
  -23.8030   -8.3350   22.1090 C   0  0  0  0  0  3  0  0  0  0  0  0
  -22.6260   -8.0970   21.3600 C   0  0  0  0  0  0  0  0  0  0  0  0
  -22.2090   -9.0520   20.4160 C   0  0  0  0  0  3  0  0  0  0  0  0
  -22.9370  -10.2390   20.2280 C   0  0  0  0  0  3  0  0  0  0  0  0
  -21.8690   -6.9530   21.4550 O   0  0  0  0  0  0  0  0  0  0  0  0
  -21.8040   -6.2280   22.6170 C   0  0  0  0  0  0  0  0  0  0  0  0
  -21.3510   -6.7980   23.8270 C   0  0  0  0  0  3  0  0  0  0  0  0
  -21.2370   -5.9970   24.9820 C   0  0  0  0  0  3  0  0  0  0  0  0
  -21.5620   -4.6290   24.9260 C   0  0  0  0  0  0  0  0  0  0  0  0
  -22.0080   -4.0590   23.7200 C   0  0  0  0  0  3  0  0  0  0  0  0
  -22.1260   -4.8570   22.5680 C   0  0  0  0  0  0  0  0  0  0  0  0
  -22.5350   -4.2980   21.4040 F   0  0  0  0  0  0  0  0  0  0  0  0
  -21.4450   -3.8580   26.0320 F   0  0  0  0  0  0  0  0  0  0  0  0
  -22.9760  -13.5930   21.1500 C   0  0  0  0  0  0  0  0  0  0  0  0
  -22.2660  -12.8960   22.0300 N   0  0  0  0  0  0  0  0  0  0  0  0
  -22.5300  -14.6200   20.6430 O   0  0  0  0  0  0  0  0  0  0  0  0
  -22.6400  -12.0630   22.4600 H   0  0  0  0  0  0  0  0  0  0  0  0
  -21.3340  -13.1980   22.2760 H   0  0  0  0  0  0  0  0  0  0  0  0
  -25.5960  -15.2520   20.2850 N   0  0  0  0  0  0  0  0  0  0  0  0
  -24.8380  -15.9140   20.4180 H   0  0  0  0  0  0  0  0  0  0  0  0
  -26.4490  -15.6860   19.9560 H   0  0  0  0  0  0  0  0  0  0  0  0
  -28.5010  -25.5330   21.1540 C   0  0  0  0  0  2  0  0  0  0  0  0
  -28.6390  -26.6000   20.1750 O   0  0  0  0  0  0  0  0  0  0  0  0
  -24.6920  -31.7790   23.1940 C   0  0  0  0  0  0  0  0  0  0  0  0
  -27.5170  -27.4150   20.1230 C   0  0  0  0  0  0  0  0  0  0  0  0
  -23.5670  -30.3740   21.4990 C   0  0  0  0  0  3  0  0  0  0  0  0
  -25.0990  -28.8980   20.0840 C   0  0  0  0  0  0  0  0  0  0  0  0
  -26.0930  -30.7900   21.3780 C   0  0  0  0  0  2  0  0  0  0  0  0
  -26.2320  -29.4290   20.7150 C   0  0  0  0  0  0  0  0  0  0  0  0
  -27.4490  -28.6970   20.7310 C   0  0  0  0  0  3  0  0  0  0  0  0
  -26.3700  -26.9140   19.4750 C   0  0  0  0  0  3  0  0  0  0  0  0
  -25.1650  -27.6420   19.4580 C   0  0  0  0  0  3  0  0  0  0  0  0
  -23.8320  -29.7260   20.1140 C   0  0  0  0  0  2  0  0  0  0  0  0
  -24.8000  -30.9960   22.0820 N   0  0  0  0  0  0  0  0  0  0  0  0
  -23.5890  -32.0160   23.7070 O   0  0  0  0  0  0  0  0  0  0  0  0
  -22.9140  -29.3220   22.4250 C   0  0  0  0  0  0  0  0  0  0  0  0
  -21.5900  -29.1350   22.2840 N   0  0  0  0  0  0  0  0  0  0  0  0
  -23.5950  -28.6780   23.2280 O   0  0  0  0  0  0  0  0  0  0  0  0
  -21.1020  -29.7090   21.6110 H   0  0  0  0  0  0  0  0  0  0  0  0
  -18.2170  -27.9150   22.7340 C   0  0  0  0  0  0  0  0  0  0  0  0
  -20.7740  -28.1690   23.0190 C   0  0  0  0  0  3  0  0  0  0  0  0
  -20.8800  -26.7600   22.3930 C   0  0  0  0  0  2  0  0  0  0  0  0
  -19.7810  -26.4700   21.3670 C   0  0  0  0  0  2  0  0  0  0  0  0
  -18.3980  -26.5900   22.0130 C   0  0  0  0  0  2  0  0  0  0  0  0
  -19.3340  -28.6640   23.1920 C   0  0  0  0  0  0  0  0  0  0  0  0
  -19.1110  -29.9060   23.8250 C   0  0  0  0  0  3  0  0  0  0  0  0
  -17.8060  -30.4000   24.0040 C   0  0  0  0  0  3  0  0  0  0  0  0
  -16.7040  -29.6450   23.5640 C   0  0  0  0  0  3  0  0  0  0  0  0
  -16.9100  -28.4050   22.9340 C   0  0  0  0  0  3  0  0  0  0  0  0
  -25.9430  -32.4320   23.8600 C   0  0  0  0  0  3  0  0  0  0  0  0
  -26.4290  -31.6680   25.1530 C   0  0  1  0  0  0  0  0  0  0  0  0
  -25.3060  -31.4120   26.1840 C   0  0  0  0  0  1  0  0  0  0  0  0
  -27.0470  -30.3010   24.7780 C   0  0  0  0  0  1  0  0  0  0  0  0
  -27.5460  -32.4790   25.8520 C   0  0  0  0  0  1  0  0  0  0  0  0
  -25.6000  -33.8250   24.1790 N   0  0  0  0  0  0  0  0  0  0  0  0
  -25.9350  -34.8820   23.4270 C   0  0  0  0  0  0  0  0  0  0  0  0
  -26.6360  -34.7890   22.4160 O   0  0  0  0  0  0  0  0  0  0  0  0
  -24.9810  -33.9700   24.9630 H   0  0  0  0  0  0  0  0  0  0  0  0
  -24.1840  -36.6400   23.0200 C   0  0  0  0  0  1  0  0  0  0  0  0
  -25.4090  -36.2610   23.8680 C   0  0  0  0  0  3  0  0  0  0  0  0
  -27.5020  -37.1860   24.7560 C   0  0  0  0  0  1  0  0  0  0  0  0
  -26.4230  -37.3340   23.7820 N   0  0  0  0  0  0  0  0  0  0  0  0
  -25.9960  -38.2460   23.9190 H   0  0  0  0  0  0  0  0  0  0  0  0
  1  2  2  0
  1  4  1  0
  2  5  1  0
  3  6  1  0
  4  3  2  0
  5 53  1  0
  5  6  2  0
  6  8  1  0
  8  7  1  0
  9 23  1  0
  9  4  1  0
 10 22  1  0
 11 16  1  0
 12 13  1  0
 12 11  1  0
 14 13  1  0
 14 28  1  0
 14 15  1  0
 16 10  1  0
 16 15  1  0
 17 10  2  0
 19 22  1  0
 20 18  1  0
 21 19  1  0
 21 23  1  0
 22 18  1  0
 23 24  1  1
 23 20  1  0
 25 26  2  0
 26 45  1  0
 27 26  1  0
 27 30  1  0
 28 29  1  0
 28 25  1  0
 29 27  2  0
 30 31  1  0
 31 32  2  0
 33 36  1  0
 33 32  1  0
 34 33  2  0
 35 34  1  0
 35 30  2  0
 36 37  1  0
 37 38  1  0
 38 39  2  0
 40 39  1  0
 40 44  1  0
 41 40  2  0
 42 37  2  0
 42 41  1  0
 43 42  1  0
 45 46  1  0
 46 49  1  0
 46 48  1  0
 47 45  2  0
 50 51  1  0
 50 25  1  0
 52 50  1  0
 54 53  1  0
 55 66  2  0
 56 54  1  0
 56 61  1  0
 57 65  1  0
 57 67  1  0
 58 64  1  0
 58 60  1  0
 59 65  1  0
 60 61  2  0
 60 59  1  0
 62 56  2  0
 63 62  1  0
 63 58  2  0
 64 57  1  0
 65 55  1  0
 67 69  2  0
 68 67  1  0
 70 68  1  0
 71 80  2  0
 71 76  1  0
 72 68  1  0
 72 76  1  0
 73 72  1  0
 74 75  1  0
 74 73  1  0
 75 71  1  0
 76 77  2  0
 77 78  1  0
 79 78  2  0
 80 79  1  0
 81 55  1  0
 81 86  1  0
 81 82  1  0
 82 85  1  1
 82 83  1  0
 84 82  1  0
 86 89  1  0
 87 91  1  0
 87 86  1  0
 88 87  2  0
 91 90  1  0
 93 91  1  0
 93 94  1  0
 93 92  1  0
M  ISO  4  10 100  22 100  53 101  54 101
M  END
>  <TORSDO>  (54) 
F 19

>  <SCORE>  (54) 
-14.012

>  <name>  (54) 
53

>  <ligand_id>  (54) 
53

>  <original_smiles>  (54) 
[H]c1c([H])c([H])c2c(c1[H])C([H])([H])C([H])([H])C([H])([H])C2([H])N([H])C(=O)C1([H])N(C(=O)C([H])(N([H])C(=O)C([H])(N([H])C([H])([H])[H])C([H])([H])[H])C(C([H])([H])[H])(C([H])([H])[H])C([H])([H])[H])C([H])([H])c2c([H])c(OC([H])([H])c3c([H])c([H])c(C([H])([H])[N+]4([H])C([H])([H])C([H])([H])N(C(=O)N5C([H])([H])C([H])([H])C([H])([H])C([H])(n6nc(-c7c([H])c([H])c(Oc8c([H])c([H])c(F)c([H])c8F)c([H])c7[H])c(C(=O)N([H])[H])c6N([H])[H])C5([H])[H])C([H])([H])C4([H])[H])c([H])c3OC([H])([H])[H])c([H])c([H])c2C1([H])[H]

>  <smiles>  (54) 
[H]c1c([H])c([H])c2c(c1[H])C([H])([H])C([H])([H])C([H])([H])C2([H])N([H])C(=O)C1([H])N(C(=O)C([H])(N([H])C(=O)C([H])(N([H])C([H])([H])[H])C([H])([H])[H])C(C([H])([H])[H])(C([H])([H])[H])C([H])([H])[H])C([H])([H])c2c([H])c(OC([H])([H])c3c([H])c([H])c(C([H])([H])[N+]4([H])C([H])([H])C([H])([H])N(C(=O)N5C([H])([H])C([H])([H])C([H])([H])C([H])(n6nc(-c7c([H])c([H])c(Oc8c([H])c([H])c(F)c([H])c8F)c([H])c7[H])c(C(=O)N([H])[H])c6N([H])[H])C5([H])[H])C([H])([H])C4([H])[H])c([H])c3OC([H])([H])[H])c([H])c([H])c2C1([H])[H]

$$$$
54:0:0
     RDKit          3D

100109  0  0  1  0  0  0  0  0999 V2000
  -28.2110  -20.5690   20.0710 C   0  0  0  0  0  2  0  0  0  0  0  0
  -28.1920  -19.0810   20.5610 C   0  0  0  0  0  2  0  0  0  0  0  0
  -31.1560  -14.6200   20.0200 C   0  0  0  0  0  0  0  0  0  0  0  0
  -30.5620  -12.4400   19.0510 C   0  0  0  0  0  2  0  0  0  0  0  0
  -29.6140  -12.5220   17.8530 C   0  0  0  0  0  2  0  0  0  0  0  0
  -28.1710  -12.3990   18.3570 C   0  0  0  0  0  2  0  0  0  0  0  0
  -27.8660  -13.3330   19.5590 C   0  0  0  0  0  3  0  0  0  0  0  0
  -28.9870  -13.3520   20.6310 C   0  0  0  0  0  2  0  0  0  0  0  0
  -30.2490  -13.5960   19.9310 N   0  0  0  0  0  0  0  0  0  0  0  0
  -32.3040  -14.3300   19.7090 O   0  0  0  0  0  0  0  0  0  0  0  0
  -31.8780  -17.7400   18.5730 C   0  0  0  0  0  2  0  0  0  0  0  0
  -32.0780  -16.8500   19.8190 C   0  0  0  0  0  2  0  0  0  0  0  0
  -29.6610  -16.7480   20.5860 C   0  0  0  0  0  2  0  0  0  0  0  0
  -31.5270  -19.1590   18.9920 C   0  0  0  0  0  2  0  0  0  0  0  0
  -29.4730  -18.2810   20.1110 C   0  0  0  0  0  3  0  0  0  0  0  0
  -30.8810  -15.9830   20.1000 N   0  0  0  0  0  0  0  0  0  0  0  0
  -30.7550  -19.0690   20.2430 N   0  0  2  0  0  4  0  0  0  0  0  0
  -31.2850  -18.3150   20.6580 H   0  0  0  0  0  0  0  0  0  0  0  0
  -25.5310  -13.9260   20.4280 C   0  0  0  0  0  0  0  0  0  0  0  0
  -24.4750  -13.1510   20.8250 C   0  0  0  0  0  0  0  0  0  0  0  0
  -24.9230  -11.7970   20.7480 C   0  0  0  0  0  0  0  0  0  0  0  0
  -26.5520  -13.0440   20.1210 N   0  0  0  0  0  0  0  0  0  0  0  0
  -26.1990  -11.7580   20.3810 N   0  0  0  0  0  0  0  0  0  0  0  0
  -24.1880  -10.5380   20.9380 C   0  0  0  0  0  0  0  0  0  0  0  0
  -24.5930   -9.5820   21.8970 C   0  0  0  0  0  3  0  0  0  0  0  0
  -23.8550   -8.3940   22.0820 C   0  0  0  0  0  3  0  0  0  0  0  0
  -22.7000   -8.1480   21.3020 C   0  0  0  0  0  0  0  0  0  0  0  0
  -22.3110   -9.0900   20.3330 C   0  0  0  0  0  3  0  0  0  0  0  0
  -23.0510  -10.2700   20.1470 C   0  0  0  0  0  3  0  0  0  0  0  0
  -21.9360   -7.0070   21.3950 O   0  0  0  0  0  0  0  0  0  0  0  0
  -21.8170   -6.3150   22.5710 C   0  0  0  0  0  0  0  0  0  0  0  0
  -21.2490   -6.9010   23.7250 C   0  0  0  0  0  3  0  0  0  0  0  0
  -21.0790   -6.1320   24.8950 C   0  0  0  0  0  3  0  0  0  0  0  0
  -21.4630   -4.7770   24.9090 C   0  0  0  0  0  0  0  0  0  0  0  0
  -22.0230   -4.1910   23.7620 C   0  0  0  0  0  3  0  0  0  0  0  0
  -22.1930   -4.9560   22.5940 C   0  0  0  0  0  0  0  0  0  0  0  0
  -22.7150   -4.3800   21.4840 F   0  0  0  0  0  0  0  0  0  0  0  0
  -21.2910   -4.0370   26.0290 F   0  0  0  0  0  0  0  0  0  0  0  0
  -23.0970  -13.6380   21.1630 C   0  0  0  0  0  0  0  0  0  0  0  0
  -22.3940  -12.9260   22.0400 N   0  0  0  0  0  0  0  0  0  0  0  0
  -22.6550  -14.6850   20.6960 O   0  0  0  0  0  0  0  0  0  0  0  0
  -22.7680  -12.0780   22.4400 H   0  0  0  0  0  0  0  0  0  0  0  0
  -21.4720  -13.2350   22.3100 H   0  0  0  0  0  0  0  0  0  0  0  0
  -25.6970  -15.2960   20.2710 N   0  0  0  0  0  0  0  0  0  0  0  0
  -24.9250  -15.9410   20.4070 H   0  0  0  0  0  0  0  0  0  0  0  0
  -26.5150  -15.7310   19.8650 H   0  0  0  0  0  0  0  0  0  0  0  0
  -32.0960  -19.6280   22.2810 C   0  0  0  0  0  1  0  0  0  0  0  0
  -31.0130  -20.1150   21.2940 C   0  0  0  0  0  3  0  0  0  0  0  0
  -32.7790  -22.0060   20.6280 C   0  0  0  0  0  1  0  0  0  0  0  0
  -31.3130  -21.5560   20.7440 C   0  0  0  0  0  2  0  0  0  0  0  0
  -27.0820  -21.4060   20.3250 O   0  0  0  0  0  0  0  0  0  0  0  0
  -25.4050  -22.5560   18.2400 C   0  0  0  0  0  2  0  0  0  0  0  0
  -24.9870  -23.5160   19.3680 C   0  0  0  0  0  2  0  0  0  0  0  0
  -26.8330  -22.8550   17.7220 C   0  0  0  0  0  2  0  0  0  0  0  0
  -26.0000  -23.5430   20.5400 C   0  0  0  0  0  2  0  0  0  0  0  0
  -27.8510  -23.2910   18.8210 C   0  0  0  0  0  3  0  0  0  0  0  0
  -27.3320  -22.8400   20.2260 C   0  0  0  0  0  3  0  0  0  0  0  0
  -28.3100  -24.7900   18.5930 C   0  0  0  0  0  2  0  0  0  0  0  0
  -29.0870  -25.5830   19.7130 C   0  0  0  0  0  2  0  0  0  0  0  0
  -28.7210  -26.8330   20.3830 O   0  0  0  0  0  0  0  0  0  0  0  0
  -24.7150  -31.9510   23.3360 C   0  0  0  0  0  0  0  0  0  0  0  0
  -27.5170  -27.5160   20.3460 C   0  0  0  0  0  0  0  0  0  0  0  0
  -23.5850  -30.5070   21.6800 C   0  0  0  0  0  3  0  0  0  0  0  0
  -25.1010  -29.0110   20.2980 C   0  0  0  0  0  0  0  0  0  0  0  0
  -26.1040  -30.9400   21.5200 C   0  0  0  0  0  2  0  0  0  0  0  0
  -26.2420  -29.5610   20.8910 C   0  0  0  0  0  0  0  0  0  0  0  0
  -27.4570  -28.8270   20.8960 C   0  0  0  0  0  3  0  0  0  0  0  0
  -26.3210  -26.9750   19.8290 C   0  0  0  0  0  3  0  0  0  0  0  0
  -25.1350  -27.7200   19.7620 C   0  0  0  0  0  3  0  0  0  0  0  0
  -23.8410  -29.8390   20.3050 C   0  0  0  0  0  2  0  0  0  0  0  0
  -24.8190  -31.1500   22.2340 N   0  0  0  0  0  0  0  0  0  0  0  0
  -23.6150  -32.1920   23.8500 O   0  0  0  0  0  0  0  0  0  0  0  0
  -22.9520  -29.4690   22.6330 C   0  0  0  0  0  0  0  0  0  0  0  0
  -21.6510  -29.1980   22.4360 N   0  0  0  0  0  0  0  0  0  0  0  0
  -23.6260  -28.9090   23.4980 O   0  0  0  0  0  0  0  0  0  0  0  0
  -21.1780  -29.7080   21.7060 H   0  0  0  0  0  0  0  0  0  0  0  0
  -18.3400  -27.7790   22.7640 C   0  0  0  0  0  0  0  0  0  0  0  0
  -20.8530  -28.2270   23.1880 C   0  0  0  0  0  3  0  0  0  0  0  0
  -21.0930  -26.7900   22.6720 C   0  0  0  0  0  2  0  0  0  0  0  0
  -20.0850  -26.3610   21.6030 C   0  0  0  0  0  2  0  0  0  0  0  0
  -18.6560  -26.4240   22.1510 C   0  0  0  0  0  2  0  0  0  0  0  0
  -19.3730  -28.6290   23.2400 C   0  0  0  0  0  0  0  0  0  0  0  0
  -19.0330  -29.8910   23.7630 C   0  0  0  0  0  3  0  0  0  0  0  0
  -17.6900  -30.3070   23.8310 C   0  0  0  0  0  3  0  0  0  0  0  0
  -16.6690  -29.4590   23.3690 C   0  0  0  0  0  3  0  0  0  0  0  0
  -16.9950  -28.1980   22.8400 C   0  0  0  0  0  3  0  0  0  0  0  0
  -25.9650  -32.6220   23.9770 C   0  0  0  0  0  3  0  0  0  0  0  0
  -25.6120  -34.0210   24.2540 N   0  0  0  0  0  0  0  0  0  0  0  0
  -25.9410  -35.0550   23.4730 C   0  0  0  0  0  0  0  0  0  0  0  0
  -26.6440  -34.9390   22.4640 O   0  0  0  0  0  0  0  0  0  0  0  0
  -24.9700  -34.1850   25.0160 H   0  0  0  0  0  0  0  0  0  0  0  0
  -24.1840  -36.7990   23.0230 C   0  0  0  0  0  1  0  0  0  0  0  0
  -25.4090  -36.4460   23.8780 C   0  0  0  0  0  3  0  0  0  0  0  0
  -27.4940  -37.4070   24.7450 C   0  0  0  0  0  1  0  0  0  0  0  0
  -26.4200  -37.5220   23.7640 N   0  0  0  0  0  0  0  0  0  0  0  0
  -25.9850  -38.4340   23.8840 H   0  0  0  0  0  0  0  0  0  0  0  0
  -26.4550  -31.8960   25.2880 C   0  0  1  0  0  0  0  0  0  0  0  0
  -25.3330  -31.6420   26.3180 C   0  0  0  0  0  1  0  0  0  0  0  0
  -27.0860  -30.5290   24.9450 C   0  0  0  0  0  1  0  0  0  0  0  0
  -27.5450  -32.7380   25.9840 C   0  0  0  0  0  1  0  0  0  0  0  0
  1 51  1  0
  1  2  1  0
  3 16  1  0
  4  9  1  0
  5  6  1  0
  5  4  1  0
  7  6  1  0
  7 22  1  0
  7  8  1  0
  9  3  1  0
  9  8  1  0
 10  3  2  0
 11 14  1  0
 11 12  1  0
 12 16  1  0
 14 17  1  0
 15 17  1  0
 15  2  1  0
 15 13  1  0
 16 13  1  0
 17 18  1  1
 17 48  1  0
 19 20  2  0
 20 39  1  0
 21 20  1  0
 21 24  1  0
 22 23  1  0
 22 19  1  0
 23 21  2  0
 24 25  1  0
 25 26  2  0
 27 30  1  0
 27 26  1  0
 28 27  2  0
 29 28  1  0
 29 24  2  0
 30 31  1  0
 31 36  2  0
 31 32  1  0
 32 33  2  0
 33 34  1  0
 34 38  1  0
 35 34  2  0
 36 35  1  0
 37 36  1  0
 39 40  1  0
 40 43  1  0
 40 42  1  0
 41 39  2  0
 44 45  1  0
 44 19  1  0
 46 44  1  0
 48 47  1  0
 49 50  1  0
 50 48  1  0
 52 53  1  0
 53 55  1  0
 54 52  1  0
 54 56  1  0
 56 58  1  0
 56 57  1  0
 57 51  1  0
 57 55  1  0
 58 59  1  0
 59 60  1  0
 61 72  2  0
 62 60  1  0
 62 67  1  0
 63 71  1  0
 63 73  1  0
 64 70  1  0
 64 66  1  0
 65 71  1  0
 66 67  2  0
 66 65  1  0
 68 62  2  0
 69 68  1  0
 69 64  2  0
 70 63  1  0
 71 61  1  0
 73 75  2  0
 74 73  1  0
 76 74  1  0
 77 86  2  0
 77 82  1  0
 78 74  1  0
 78 82  1  0
 79 78  1  0
 80 81  1  0
 80 79  1  0
 81 77  1  0
 82 83  2  0
 83 84  1  0
 85 84  2  0
 86 85  1  0
 87 61  1  0
 87 88  1  0
 87 97  1  0
 88 91  1  0
 89 93  1  0
 89 88  1  0
 90 89  2  0
 93 92  1  0
 95 93  1  0
 95 96  1  0
 95 94  1  0
 97100  1  1
 97 98  1  0
 99 97  1  0
M  ISO  4   3 100  16 100  59 101  60 101
M  END
>  <TORSDO>  (55) 
F 23

>  <SCORE>  (55) 
-12.695

>  <name>  (55) 
54

>  <ligand_id>  (55) 
54

>  <original_smiles>  (55) 
[H]c1c([H])c([H])c2c(c1[H])C([H])([H])C([H])([H])C([H])([H])C2([H])N([H])C(=O)C1([H])N(C(=O)C([H])(N([H])C(=O)C([H])(N([H])C([H])([H])[H])C([H])([H])[H])C(C([H])([H])[H])(C([H])([H])[H])C([H])([H])[H])C([H])([H])c2c([H])c(OC([H])([H])C([H])([H])C3([H])C([H])([H])C([H])([H])C([H])([H])C([H])([H])C3([H])OC([H])([H])C([H])([H])C3([H])C([H])([H])N(C(=O)N4C([H])([H])C([H])([H])C([H])([H])C([H])(n5nc(-c6c([H])c([H])c(Oc7c([H])c([H])c(F)c([H])c7F)c([H])c6[H])c(C(=O)N([H])[H])c5N([H])[H])C4([H])[H])C([H])([H])C([H])([H])C([H])([H])[N+]3([H])C([H])(C([H])([H])[H])C([H])([H])C([H])([H])[H])c([H])c([H])c2C1([H])[H]

>  <smiles>  (55) 
[H]c1c([H])c([H])c2c(c1[H])C([H])([H])C([H])([H])C([H])([H])C2([H])N([H])C(=O)C1([H])N(C(=O)C([H])(N([H])C(=O)C([H])(N([H])C([H])([H])[H])C([H])([H])[H])C(C([H])([H])[H])(C([H])([H])[H])C([H])([H])[H])C([H])([H])c2c([H])c(OC([H])([H])C([H])([H])C3([H])C([H])([H])C([H])([H])C([H])([H])C([H])([H])C3([H])OC([H])([H])C([H])([H])C3([H])C([H])([H])N(C(=O)N4C([H])([H])C([H])([H])C([H])([H])C([H])(n5nc(-c6c([H])c([H])c(Oc7c([H])c([H])c(F)c([H])c7F)c([H])c6[H])c(C(=O)N([H])[H])c5N([H])[H])C4([H])[H])C([H])([H])C([H])([H])C([H])([H])[N+]3([H])C([H])(C([H])([H])[H])C([H])([H])C([H])([H])[H])c([H])c([H])c2C1([H])[H]

$$$$
55:0:0
     RDKit          3D

 93102  0  0  1  0  0  0  0  0999 V2000
  -29.7180  -21.2770   20.6940 C   0  0  0  0  0  0  0  0  0  0  0  0
  -28.9910  -24.6960   19.0740 C   0  0  0  0  0  2  0  0  0  0  0  0
  -29.6770  -24.8500   21.4930 C   0  0  0  0  0  2  0  0  0  0  0  0
  -28.9880  -23.1400   19.1590 C   0  0  0  0  0  2  0  0  0  0  0  0
  -30.5010  -23.6060   21.0640 C   0  0  0  0  0  2  0  0  0  0  0  0
  -28.6610  -25.3440   20.4370 C   0  0  0  0  0  3  0  0  0  0  0  0
  -29.7100  -22.5960   20.3300 N   0  0  0  0  0  0  0  0  0  0  0  0
  -30.2800  -20.9110   21.7290 O   0  0  0  0  0  0  0  0  0  0  0  0
  -27.5360  -20.1030   20.1110 C   0  0  0  0  0  1  0  0  0  0  0  0
  -29.0480  -20.1790   19.8090 C   0  0  0  0  0  3  0  0  0  0  0  0
  -31.0620  -14.6470   20.0790 C   0  0  0  0  0  0  0  0  0  0  0  0
  -30.7650  -12.3880   19.1440 C   0  0  0  0  0  2  0  0  0  0  0  0
  -29.8050  -12.5020   17.9410 C   0  0  0  0  0  2  0  0  0  0  0  0
  -28.3390  -12.3970   18.4110 C   0  0  0  0  0  2  0  0  0  0  0  0
  -28.0210  -13.3200   19.6200 C   0  0  0  0  0  3  0  0  0  0  0  0
  -29.1020  -13.2070   20.7170 C   0  0  0  0  0  2  0  0  0  0  0  0
  -30.4000  -13.4570   20.0850 N   0  0  0  0  0  0  0  0  0  0  0  0
  -32.2450  -14.7330   19.7340 O   0  0  0  0  0  0  0  0  0  0  0  0
  -29.1180  -17.7160   18.9360 C   0  0  0  0  0  2  0  0  0  0  0  0
  -29.8240  -18.0660   21.2450 C   0  0  0  0  0  2  0  0  0  0  0  0
  -29.9620  -16.4160   18.8650 C   0  0  0  0  0  2  0  0  0  0  0  0
  -30.6520  -16.7500   21.2200 C   0  0  0  0  0  2  0  0  0  0  0  0
  -29.7530  -18.7630   19.8670 C   0  0  0  0  0  3  0  0  0  0  0  0
  -30.2890  -15.7750   20.1650 N   0  0  0  0  0  0  0  0  0  0  0  0
  -25.6830  -13.9990   20.4360 C   0  0  0  0  0  0  0  0  0  0  0  0
  -24.6010  -13.2580   20.8250 C   0  0  0  0  0  0  0  0  0  0  0  0
  -25.0120  -11.8920   20.7560 C   0  0  0  0  0  0  0  0  0  0  0  0
  -26.6840  -13.0830   20.1490 N   0  0  0  0  0  0  0  0  0  0  0  0
  -26.2880  -11.8110   20.4020 N   0  0  0  0  0  0  0  0  0  0  0  0
  -24.2490  -10.6530   20.9470 C   0  0  0  0  0  0  0  0  0  0  0  0
  -24.6430   -9.6820   21.8930 C   0  0  0  0  0  3  0  0  0  0  0  0
  -23.8810   -8.5080   22.0720 C   0  0  0  0  0  3  0  0  0  0  0  0
  -22.7140   -8.2960   21.3020 C   0  0  0  0  0  0  0  0  0  0  0  0
  -22.3390   -9.2550   20.3440 C   0  0  0  0  0  3  0  0  0  0  0  0
  -23.1020  -10.4210   20.1640 C   0  0  0  0  0  3  0  0  0  0  0  0
  -21.9250   -7.1750   21.3880 O   0  0  0  0  0  0  0  0  0  0  0  0
  -21.7780   -6.4880   22.5670 C   0  0  0  0  0  0  0  0  0  0  0  0
  -21.2330   -7.0930   23.7200 C   0  0  0  0  0  3  0  0  0  0  0  0
  -21.0360   -6.3310   24.8890 C   0  0  0  0  0  3  0  0  0  0  0  0
  -21.3730   -4.9650   24.9050 C   0  0  0  0  0  0  0  0  0  0  0  0
  -21.9130   -4.3590   23.7560 C   0  0  0  0  0  3  0  0  0  0  0  0
  -22.1120   -5.1190   22.5900 C   0  0  0  0  0  0  0  0  0  0  0  0
  -22.6120   -4.5250   21.4800 F   0  0  0  0  0  0  0  0  0  0  0  0
  -21.1770   -4.2310   26.0240 F   0  0  0  0  0  0  0  0  0  0  0  0
  -23.2320  -13.7810   21.1550 C   0  0  0  0  0  0  0  0  0  0  0  0
  -22.5130  -13.0990   22.0390 N   0  0  0  0  0  0  0  0  0  0  0  0
  -22.8130  -14.8270   20.6630 O   0  0  0  0  0  0  0  0  0  0  0  0
  -22.8670  -12.2530   22.4590 H   0  0  0  0  0  0  0  0  0  0  0  0
  -21.5940  -13.4290   22.2990 H   0  0  0  0  0  0  0  0  0  0  0  0
  -25.8960  -15.3670   20.2840 N   0  0  0  0  0  0  0  0  0  0  0  0
  -25.1690  -16.0530   20.4520 H   0  0  0  0  0  0  0  0  0  0  0  0
  -26.7730  -15.7800   19.9950 H   0  0  0  0  0  0  0  0  0  0  0  0
  -28.6890  -26.7870   20.4060 O   0  0  0  0  0  0  0  0  0  0  0  0
  -24.6780  -31.9130   23.3110 C   0  0  0  0  0  0  0  0  0  0  0  0
  -27.4920  -27.4810   20.3580 C   0  0  0  0  0  0  0  0  0  0  0  0
  -23.5510  -30.4870   21.6350 C   0  0  0  0  0  3  0  0  0  0  0  0
  -25.0720  -28.9590   20.2730 C   0  0  0  0  0  0  0  0  0  0  0  0
  -26.0750  -30.8810   21.5160 C   0  0  0  0  0  2  0  0  0  0  0  0
  -26.2040  -29.5060   20.8910 C   0  0  0  0  0  0  0  0  0  0  0  0
  -27.4160  -28.7780   20.9190 C   0  0  0  0  0  3  0  0  0  0  0  0
  -26.3350  -26.9470   19.7490 C   0  0  0  0  0  3  0  0  0  0  0  0
  -25.1340  -27.6790   19.6990 C   0  0  0  0  0  3  0  0  0  0  0  0
  -23.8160  -29.7990   20.2700 C   0  0  0  0  0  2  0  0  0  0  0  0
  -24.7850  -31.1090   22.2150 N   0  0  0  0  0  0  0  0  0  0  0  0
  -23.5760  -32.1720   23.8120 O   0  0  0  0  0  0  0  0  0  0  0  0
  -22.8770  -29.4630   22.5800 C   0  0  0  0  0  0  0  0  0  0  0  0
  -21.5570  -29.2740   22.4170 N   0  0  0  0  0  0  0  0  0  0  0  0
  -23.5390  -28.8410   23.4130 O   0  0  0  0  0  0  0  0  0  0  0  0
  -21.0850  -29.8290   21.7180 H   0  0  0  0  0  0  0  0  0  0  0  0
  -18.1680  -28.1040   22.8620 C   0  0  0  0  0  0  0  0  0  0  0  0
  -20.7240  -28.3310   23.1630 C   0  0  0  0  0  3  0  0  0  0  0  0
  -20.8190  -26.9100   22.5610 C   0  0  0  0  0  2  0  0  0  0  0  0
  -19.7220  -26.6150   21.5320 C   0  0  0  0  0  2  0  0  0  0  0  0
  -18.3360  -26.7640   22.1660 C   0  0  0  0  0  2  0  0  0  0  0  0
  -19.2890  -28.8470   23.3160 C   0  0  0  0  0  0  0  0  0  0  0  0
  -19.0790  -30.1020   23.9260 C   0  0  0  0  0  3  0  0  0  0  0  0
  -17.7780  -30.6160   24.0870 C   0  0  0  0  0  3  0  0  0  0  0  0
  -16.6700  -29.8690   23.6510 C   0  0  0  0  0  3  0  0  0  0  0  0
  -16.8660  -28.6160   23.0450 C   0  0  0  0  0  3  0  0  0  0  0  0
  -25.9350  -32.5630   23.9740 C   0  0  0  0  0  3  0  0  0  0  0  0
  -25.6070  -33.9660   24.2640 N   0  0  0  0  0  0  0  0  0  0  0  0
  -25.9420  -35.0010   23.4830 C   0  0  0  0  0  0  0  0  0  0  0  0
  -26.6320  -34.8800   22.4680 O   0  0  0  0  0  0  0  0  0  0  0  0
  -25.0030  -34.1350   25.0540 H   0  0  0  0  0  0  0  0  0  0  0  0
  -24.1940  -36.7590   23.0560 C   0  0  0  0  0  1  0  0  0  0  0  0
  -25.4280  -36.3940   23.8970 C   0  0  0  0  0  3  0  0  0  0  0  0
  -27.5330  -37.3350   24.7390 C   0  0  0  0  0  1  0  0  0  0  0  0
  -26.4450  -37.4610   23.7740 N   0  0  0  0  0  0  0  0  0  0  0  0
  -26.0210  -38.3780   23.8960 H   0  0  0  0  0  0  0  0  0  0  0  0
  -26.4040  -31.8190   25.2840 C   0  0  1  0  0  0  0  0  0  0  0  0
  -25.2650  -31.5730   26.3020 C   0  0  0  0  0  1  0  0  0  0  0  0
  -27.0310  -30.4500   24.9320 C   0  0  0  0  0  1  0  0  0  0  0  0
  -27.5070  -32.6440   25.9880 C   0  0  0  0  0  1  0  0  0  0  0  0
  1  8  2  0
  2  4  1  0
  2  6  1  0
  4  7  1  0
  5  3  1  0
  6 53  1  0
  6  3  1  0
  7  1  1  0
  7  5  1  0
 10  9  1  0
 10  1  1  0
 11 17  1  0
 11 24  1  0
 12 17  1  0
 13 14  1  0
 13 12  1  0
 15 14  1  0
 15 28  1  0
 15 16  1  0
 17 16  1  0
 18 11  2  0
 19 23  1  0
 21 19  1  0
 21 24  1  0
 22 20  1  0
 23 10  1  0
 23 20  1  0
 24 22  1  0
 25 26  2  0
 26 45  1  0
 27 26  1  0
 27 30  1  0
 28 29  1  0
 28 25  1  0
 29 27  2  0
 30 31  1  0
 31 32  2  0
 33 36  1  0
 33 32  1  0
 34 33  2  0
 35 34  1  0
 35 30  2  0
 36 37  1  0
 37 42  2  0
 37 38  1  0
 38 39  2  0
 39 40  1  0
 40 44  1  0
 41 40  2  0
 42 41  1  0
 43 42  1  0
 45 46  1  0
 46 49  1  0
 46 48  1  0
 47 45  2  0
 50 25  1  0
 50 51  1  0
 52 50  1  0
 54 65  2  0
 55 53  1  0
 55 60  1  0
 56 64  1  0
 56 66  1  0
 57 59  1  0
 58 64  1  0
 59 60  2  0
 59 58  1  0
 61 55  2  0
 62 61  1  0
 62 57  2  0
 63 57  1  0
 63 56  1  0
 64 54  1  0
 66 68  2  0
 67 66  1  0
 69 67  1  0
 70 79  2  0
 70 75  1  0
 71 67  1  0
 71 75  1  0
 72 71  1  0
 73 74  1  0
 73 72  1  0
 74 70  1  0
 75 76  2  0
 76 77  1  0
 78 77  2  0
 79 78  1  0
 80 54  1  0
 80 81  1  0
 80 90  1  0
 81 84  1  0
 82 86  1  0
 82 81  1  0
 83 82  2  0
 86 85  1  0
 88 89  1  0
 88 86  1  0
 88 87  1  0
 90 93  1  1
 90 91  1  0
 92 90  1  0
M  ISO  4   6 101  11 100  24 100  53 101
M  END
>  <TORSDO>  (56) 
F 17

>  <SCORE>  (56) 
-14.799

>  <name>  (56) 
55

>  <ligand_id>  (56) 
55

>  <original_smiles>  (56) 
[H]c1c([H])c([H])c2c(c1[H])C([H])([H])C([H])([H])C([H])([H])C2([H])N([H])C(=O)C1([H])N(C(=O)C([H])(N([H])C(=O)C([H])(N([H])C([H])([H])[H])C([H])([H])[H])C(C([H])([H])[H])(C([H])([H])[H])C([H])([H])[H])C([H])([H])c2c([H])c(OC3([H])C([H])([H])C([H])([H])N(C(=O)C([H])(C([H])([H])[H])C4([H])C([H])([H])C([H])([H])N(C(=O)N5C([H])([H])C([H])([H])C([H])([H])C([H])(n6nc(-c7c([H])c([H])c(Oc8c([H])c([H])c(F)c([H])c8F)c([H])c7[H])c(C(=O)N([H])[H])c6N([H])[H])C5([H])[H])C([H])([H])C4([H])[H])C([H])([H])C3([H])[H])c([H])c([H])c2C1([H])[H]

>  <smiles>  (56) 
[H]c1c([H])c([H])c2c(c1[H])C([H])([H])C([H])([H])C([H])([H])C2([H])N([H])C(=O)C1([H])N(C(=O)C([H])(N([H])C(=O)C([H])(N([H])C([H])([H])[H])C([H])([H])[H])C(C([H])([H])[H])(C([H])([H])[H])C([H])([H])[H])C([H])([H])c2c([H])c(OC3([H])C([H])([H])C([H])([H])N(C(=O)C([H])(C([H])([H])[H])C4([H])C([H])([H])C([H])([H])N(C(=O)N5C([H])([H])C([H])([H])C([H])([H])C([H])(n6nc(-c7c([H])c([H])c(Oc8c([H])c([H])c(F)c([H])c8F)c([H])c7[H])c(C(=O)N([H])[H])c6N([H])[H])C5([H])[H])C([H])([H])C4([H])[H])C([H])([H])C3([H])[H])c([H])c([H])c2C1([H])[H]

$$$$
56:0:0
     RDKit          3D

 90 98  0  0  1  0  0  0  0  0999 V2000
  -31.4070  -22.9540   20.4320 C   0  0  0  0  0  3  0  0  0  0  0  0
  -30.4790  -24.0250   20.3470 C   0  0  0  0  0  3  0  0  0  0  0  0
  -31.0040  -21.5960   20.4120 C   0  0  0  0  0  3  0  0  0  0  0  0
  -28.7200  -22.3590   20.1820 C   0  0  0  0  0  3  0  0  0  0  0  0
  -29.0960  -23.7610   20.2280 C   0  0  0  0  0  0  0  0  0  0  0  0
  -29.6430  -21.2460   20.2760 C   0  0  0  0  0  0  0  0  0  0  0  0
  -29.2290  -19.8600   20.1800 N   0  0  0  0  0  0  0  0  0  0  0  0
  -28.2230  -19.7480   20.0800 H   0  0  0  0  0  0  0  0  0  0  0  0
  -29.9170  -18.6280   20.7450 C   0  0  0  0  0  2  0  0  0  0  0  0
  -29.9630  -17.2790   19.8560 C   0  0  0  0  0  2  0  0  0  0  0  0
  -30.5810  -14.7530   20.3020 C   0  0  0  0  0  0  0  0  0  0  0  0
  -30.3660  -12.4690   19.3220 C   0  0  0  0  0  2  0  0  0  0  0  0
  -29.4240  -12.5290   18.0970 C   0  0  0  0  0  2  0  0  0  0  0  0
  -27.9520  -12.3760   18.5290 C   0  0  0  0  0  2  0  0  0  0  0  0
  -27.5870  -13.2710   19.7450 C   0  0  0  0  0  3  0  0  0  0  0  0
  -28.6460  -13.1910   20.8650 C   0  0  0  0  0  2  0  0  0  0  0  0
  -29.9490  -13.5270   20.2710 N   0  0  0  0  0  0  0  0  0  0  0  0
  -31.7560  -14.8480   19.9390 O   0  0  0  0  0  0  0  0  0  0  0  0
  -29.8080  -15.8900   20.4810 N   0  0  0  0  0  0  0  0  0  0  0  0
  -28.8780  -15.6990   20.8220 H   0  0  0  0  0  0  0  0  0  0  0  0
  -25.2060  -13.8790   20.4860 C   0  0  0  0  0  0  0  0  0  0  0  0
  -24.1360  -13.1120   20.8640 C   0  0  0  0  0  0  0  0  0  0  0  0
  -24.5940  -11.7590   20.8400 C   0  0  0  0  0  0  0  0  0  0  0  0
  -26.2420  -12.9940   20.2420 N   0  0  0  0  0  0  0  0  0  0  0  0
  -25.8820  -11.7130   20.5190 N   0  0  0  0  0  0  0  0  0  0  0  0
  -23.8610  -10.5020   21.0410 C   0  0  0  0  0  0  0  0  0  0  0  0
  -24.3040   -9.5240   21.9580 C   0  0  0  0  0  3  0  0  0  0  0  0
  -23.5670   -8.3340   22.1480 C   0  0  0  0  0  3  0  0  0  0  0  0
  -22.3730   -8.1150   21.4200 C   0  0  0  0  0  0  0  0  0  0  0  0
  -21.9510   -9.0810   20.4880 C   0  0  0  0  0  3  0  0  0  0  0  0
  -22.6900  -10.2620   20.2960 C   0  0  0  0  0  3  0  0  0  0  0  0
  -21.6070   -6.9800   21.5200 O   0  0  0  0  0  0  0  0  0  0  0  0
  -21.5950   -6.2170   22.6610 C   0  0  0  0  0  0  0  0  0  0  0  0
  -21.2460   -6.7590   23.9170 C   0  0  0  0  0  3  0  0  0  0  0  0
  -21.1780   -5.9250   25.0500 C   0  0  0  0  0  3  0  0  0  0  0  0
  -21.4510   -4.5490   24.9290 C   0  0  0  0  0  0  0  0  0  0  0  0
  -21.7940   -4.0070   23.6780 C   0  0  0  0  0  3  0  0  0  0  0  0
  -21.8640   -4.8390   22.5480 C   0  0  0  0  0  0  0  0  0  0  0  0
  -22.1730   -4.3060   21.3410 F   0  0  0  0  0  0  0  0  0  0  0  0
  -21.3790   -3.7440   26.0160 F   0  0  0  0  0  0  0  0  0  0  0  0
  -22.7410  -13.6020   21.1290 C   0  0  0  0  0  0  0  0  0  0  0  0
  -22.0080  -12.9200   22.0030 N   0  0  0  0  0  0  0  0  0  0  0  0
  -22.3090  -14.6220   20.5960 O   0  0  0  0  0  0  0  0  0  0  0  0
  -22.3730  -12.1010   22.4640 H   0  0  0  0  0  0  0  0  0  0  0  0
  -21.0680  -13.2250   22.2150 H   0  0  0  0  0  0  0  0  0  0  0  0
  -25.3730  -15.2480   20.3050 N   0  0  0  0  0  0  0  0  0  0  0  0
  -24.6080  -15.9000   20.4480 H   0  0  0  0  0  0  0  0  0  0  0  0
  -26.2140  -15.6910   19.9570 H   0  0  0  0  0  0  0  0  0  0  0  0
  -28.0120  -24.9140   20.1020 C   0  0  0  0  0  2  0  0  0  0  0  0
  -28.3080  -26.3850   20.1760 O   0  0  0  0  0  0  0  0  0  0  0  0
  -24.5950  -31.8560   23.2180 C   0  0  0  0  0  0  0  0  0  0  0  0
  -27.1990  -27.2710   20.1360 C   0  0  0  0  0  0  0  0  0  0  0  0
  -23.3830  -30.4580   21.5890 C   0  0  0  0  0  3  0  0  0  0  0  0
  -24.8290  -28.9070   20.1530 C   0  0  0  0  0  0  0  0  0  0  0  0
  -25.9290  -30.7630   21.3940 C   0  0  0  0  0  2  0  0  0  0  0  0
  -26.0080  -29.3870   20.7390 C   0  0  0  0  0  0  0  0  0  0  0  0
  -27.1940  -28.5860   20.7150 C   0  0  0  0  0  3  0  0  0  0  0  0
  -25.9890  -26.8590   19.5240 C   0  0  0  0  0  3  0  0  0  0  0  0
  -24.8250  -27.6510   19.5340 C   0  0  0  0  0  3  0  0  0  0  0  0
  -23.5920  -29.7840   20.2100 C   0  0  0  0  0  2  0  0  0  0  0  0
  -24.6570  -31.0420   22.1240 N   0  0  0  0  0  0  0  0  0  0  0  0
  -23.5150  -32.1390   23.7550 O   0  0  0  0  0  0  0  0  0  0  0  0
  -22.7210  -29.4430   22.5520 C   0  0  0  0  0  0  0  0  0  0  0  0
  -21.3920  -29.2740   22.4360 N   0  0  0  0  0  0  0  0  0  0  0  0
  -23.4020  -28.8130   23.3650 O   0  0  0  0  0  0  0  0  0  0  0  0
  -20.9040  -29.8270   21.7450 H   0  0  0  0  0  0  0  0  0  0  0  0
  -18.0130  -28.0930   22.9590 C   0  0  0  0  0  0  0  0  0  0  0  0
  -20.5740  -28.3410   23.2130 C   0  0  0  0  0  3  0  0  0  0  0  0
  -20.6660  -26.9090   22.6390 C   0  0  0  0  0  2  0  0  0  0  0  0
  -19.5550  -26.5890   21.6350 C   0  0  0  0  0  2  0  0  0  0  0  0
  -18.1780  -26.7410   22.2860 C   0  0  0  0  0  2  0  0  0  0  0  0
  -19.1370  -28.8520   23.3810 C   0  0  0  0  0  0  0  0  0  0  0  0
  -18.9240  -30.1150   23.9730 C   0  0  0  0  0  3  0  0  0  0  0  0
  -17.6220  -30.6190   24.1470 C   0  0  0  0  0  3  0  0  0  0  0  0
  -16.5130  -29.8590   23.7390 C   0  0  0  0  0  3  0  0  0  0  0  0
  -16.7090  -28.5970   23.1480 C   0  0  0  0  0  3  0  0  0  0  0  0
  -25.8800  -32.4860   23.8360 C   0  0  0  0  0  3  0  0  0  0  0  0
  -26.4060  -31.7050   25.1030 C   0  0  1  0  0  0  0  0  0  0  0  0
  -25.3210  -31.4620   26.1780 C   0  0  0  0  0  1  0  0  0  0  0  0
  -26.9840  -30.3290   24.6980 C   0  0  0  0  0  1  0  0  0  0  0  0
  -27.5630  -32.4970   25.7590 C   0  0  0  0  0  1  0  0  0  0  0  0
  -25.5680  -33.8800   24.1810 N   0  0  0  0  0  0  0  0  0  0  0  0
  -25.8830  -34.9410   23.4260 C   0  0  0  0  0  0  0  0  0  0  0  0
  -26.5380  -34.8470   22.3840 O   0  0  0  0  0  0  0  0  0  0  0  0
  -24.9860  -34.0280   24.9910 H   0  0  0  0  0  0  0  0  0  0  0  0
  -24.1350  -36.7240   23.1210 C   0  0  0  0  0  1  0  0  0  0  0  0
  -25.3970  -36.3220   23.9030 C   0  0  0  0  0  3  0  0  0  0  0  0
  -27.5440  -37.2130   24.6930 C   0  0  0  0  0  1  0  0  0  0  0  0
  -26.4190  -37.3820   23.7770 N   0  0  0  0  0  0  0  0  0  0  0  0
  -26.0100  -38.2990   23.9390 H   0  0  0  0  0  0  0  0  0  0  0  0
  2  1  2  0
  3  1  1  0
  4  5  2  0
  4  6  1  0
  5  2  1  0
  6  3  2  0
  7  6  1  0
  7  9  1  0
  8  7  1  0
 10 19  1  0
 10  9  1  0
 11 19  1  0
 12 17  1  0
 13 14  1  0
 13 12  1  0
 15 14  1  0
 15 24  1  0
 15 16  1  0
 17 11  1  0
 17 16  1  0
 18 11  2  0
 19 20  1  0
 21 22  2  0
 22 41  1  0
 23 22  1  0
 23 26  1  0
 24 21  1  0
 24 25  1  0
 25 23  2  0
 26 27  1  0
 27 28  2  0
 29 32  1  0
 29 28  1  0
 30 29  2  0
 31 30  1  0
 31 26  2  0
 32 33  1  0
 33 34  1  0
 34 35  2  0
 36 35  1  0
 36 40  1  0
 37 36  2  0
 38 33  2  0
 38 37  1  0
 39 38  1  0
 41 42  1  0
 42 45  1  0
 42 44  1  0
 43 41  2  0
 46 47  1  0
 46 21  1  0
 48 46  1  0
 49 50  1  0
 49  5  1  0
 51 62  2  0
 52 50  1  0
 52 57  1  0
 53 61  1  0
 53 63  1  0
 54 60  1  0
 54 56  1  0
 55 61  1  0
 56 55  1  0
 57 56  2  0
 58 59  1  0
 58 52  2  0
 59 54  2  0
 60 53  1  0
 61 51  1  0
 63 65  2  0
 64 63  1  0
 66 64  1  0
 67 76  2  0
 67 72  1  0
 68 64  1  0
 68 72  1  0
 69 68  1  0
 70 71  1  0
 70 69  1  0
 71 67  1  0
 72 73  2  0
 73 74  1  0
 75 74  2  0
 76 75  1  0
 77 51  1  0
 77 82  1  0
 77 78  1  0
 78 81  1  1
 78 79  1  0
 80 78  1  0
 82 85  1  0
 83 87  1  0
 83 82  1  0
 84 83  2  0
 87 86  1  0
 89 87  1  0
 89 90  1  0
 89 88  1  0
M  ISO  4  11 100  19 100  49 101  50 101
M  END
>  <TORSDO>  (57) 
F 20

>  <SCORE>  (57) 
-13.704

>  <name>  (57) 
56

>  <ligand_id>  (57) 
56

>  <original_smiles>  (57) 
[H]c1c([H])c(N([H])C([H])([H])C([H])([H])N([H])C(=O)N2C([H])([H])C([H])([H])C([H])([H])C([H])(n3nc(-c4c([H])c([H])c(Oc5c([H])c([H])c(F)c([H])c5F)c([H])c4[H])c(C(=O)N([H])[H])c3N([H])[H])C2([H])[H])c([H])c(C([H])([H])Oc2c([H])c([H])c3c(c2[H])C([H])([H])N(C(=O)C([H])(N([H])C(=O)C([H])(N([H])C([H])([H])[H])C([H])([H])[H])C(C([H])([H])[H])(C([H])([H])[H])C([H])([H])[H])C([H])(C(=O)N([H])C2([H])c4c([H])c([H])c([H])c([H])c4C([H])([H])C([H])([H])C2([H])[H])C3([H])[H])c1[H]

>  <smiles>  (57) 
[H]c1c([H])c(N([H])C([H])([H])C([H])([H])N([H])C(=O)N2C([H])([H])C([H])([H])C([H])([H])C([H])(n3nc(-c4c([H])c([H])c(Oc5c([H])c([H])c(F)c([H])c5F)c([H])c4[H])c(C(=O)N([H])[H])c3N([H])[H])C2([H])[H])c([H])c(C([H])([H])Oc2c([H])c([H])c3c(c2[H])C([H])([H])N(C(=O)C([H])(N([H])C(=O)C([H])(N([H])C([H])([H])[H])C([H])([H])[H])C(C([H])([H])[H])(C([H])([H])[H])C([H])([H])[H])C([H])(C(=O)N([H])C2([H])c4c([H])c([H])c([H])c([H])c4C([H])([H])C([H])([H])C2([H])[H])C3([H])[H])c1[H]

$$$$
57:0:0
     RDKit          3D

106116  0  0  1  0  0  0  0  0999 V2000
  -31.4270  -21.3450   20.0230 C   0  0  0  0  0  3  0  0  0  0  0  0
  -31.5610  -17.7120   18.2690 C   0  0  0  0  0  2  0  0  0  0  0  0
  -32.3440  -18.1720   17.0440 C   0  0  0  0  0  2  0  0  0  0  0  0
  -31.9520  -20.5070   17.6660 C   0  0  0  0  0  2  0  0  0  0  0  0
  -31.6150  -18.6890   19.4710 C   0  0  0  0  0  3  0  0  0  0  0  0
  -31.2270  -20.1420   19.0110 C   0  0  0  0  0  3  0  0  0  0  0  0
  -31.8400  -19.4810   16.6120 N   0  0  0  0  0  4  0  0  0  0  0  0
  -30.8860  -19.3970   16.3000 H   0  0  0  0  0  0  0  0  0  0  0  0
  -32.3850  -19.7780   15.8140 H   0  0  0  0  0  0  0  0  0  0  0  0
  -30.9230  -14.4870   20.0710 C   0  0  0  0  0  0  0  0  0  0  0  0
  -30.5480  -12.3910   18.7790 C   0  0  0  0  0  2  0  0  0  0  0  0
  -29.5180  -12.6000   17.6500 C   0  0  0  0  0  2  0  0  0  0  0  0
  -28.0770  -12.3910   18.1720 C   0  0  0  0  0  2  0  0  0  0  0  0
  -27.8260  -13.1750   19.4830 C   0  0  0  0  0  3  0  0  0  0  0  0
  -28.9610  -12.8850   20.4970 C   0  0  0  0  0  2  0  0  0  0  0  0
  -30.2160  -13.3270   19.8790 N   0  0  0  0  0  0  0  0  0  0  0  0
  -32.0160  -14.6000   19.4980 O   0  0  0  0  0  0  0  0  0  0  0  0
  -28.6710  -17.2270   21.6090 C   0  0  0  0  0  2  0  0  0  0  0  0
  -29.2580  -18.0870   20.4920 C   0  0  0  0  0  2  0  0  0  0  0  0
  -29.0740  -15.7530   21.3880 C   0  0  0  0  0  2  0  0  0  0  0  0
  -31.3260  -16.6960   21.1450 C   0  0  0  0  0  2  0  0  0  0  0  0
  -30.7970  -18.0890   20.6560 C   0  0  0  0  0  3  0  0  0  0  0  0
  -30.4430  -15.5340   20.8380 N   0  0  0  0  0  0  0  0  0  0  0  0
  -25.5080  -13.8090   20.4190 C   0  0  0  0  0  0  0  0  0  0  0  0
  -24.4620  -13.0370   20.8440 C   0  0  0  0  0  0  0  0  0  0  0  0
  -24.9020  -11.6820   20.7320 C   0  0  0  0  0  0  0  0  0  0  0  0
  -26.5150  -12.9190   20.0640 N   0  0  0  0  0  0  0  0  0  0  0  0
  -26.1580  -11.6370   20.3140 N   0  0  0  0  0  0  0  0  0  0  0  0
  -24.1780  -10.4220   20.9270 C   0  0  0  0  0  0  0  0  0  0  0  0
  -24.6000   -9.4600   21.8720 C   0  0  0  0  0  3  0  0  0  0  0  0
  -23.8760   -8.2610   22.0390 C   0  0  0  0  0  3  0  0  0  0  0  0
  -22.7140   -8.0210   21.2690 C   0  0  0  0  0  0  0  0  0  0  0  0
  -22.3100   -8.9730   20.3170 C   0  0  0  0  0  3  0  0  0  0  0  0
  -23.0390  -10.1610   20.1430 C   0  0  0  0  0  3  0  0  0  0  0  0
  -21.9680   -6.8720   21.3520 O   0  0  0  0  0  0  0  0  0  0  0  0
  -21.8190   -6.1970   22.5380 C   0  0  0  0  0  0  0  0  0  0  0  0
  -21.2530   -6.8100   23.6760 C   0  0  0  0  0  3  0  0  0  0  0  0
  -21.0440   -6.0590   24.8500 C   0  0  0  0  0  3  0  0  0  0  0  0
  -21.4050   -4.6990   24.8910 C   0  0  0  0  0  0  0  0  0  0  0  0
  -21.9740   -4.0860   23.7630 C   0  0  0  0  0  3  0  0  0  0  0  0
  -22.1730   -4.8320   22.5880 C   0  0  0  0  0  0  0  0  0  0  0  0
  -22.6990   -4.2290   21.4910 F   0  0  0  0  0  0  0  0  0  0  0  0
  -21.1970   -3.9820   26.0200 F   0  0  0  0  0  0  0  0  0  0  0  0
  -23.0950  -13.5200   21.2330 C   0  0  0  0  0  0  0  0  0  0  0  0
  -22.4270  -12.8200   22.1420 N   0  0  0  0  0  0  0  0  0  0  0  0
  -22.6320  -14.5620   20.7700 O   0  0  0  0  0  0  0  0  0  0  0  0
  -22.8070  -11.9760   22.5480 H   0  0  0  0  0  0  0  0  0  0  0  0
  -21.5200  -13.1470   22.4420 H   0  0  0  0  0  0  0  0  0  0  0  0
  -25.6660  -15.1860   20.2860 N   0  0  0  0  0  0  0  0  0  0  0  0
  -24.9120  -15.8290   20.5020 H   0  0  0  0  0  0  0  0  0  0  0  0
  -26.4710  -15.6450   19.8860 H   0  0  0  0  0  0  0  0  0  0  0  0
  -32.9030  -21.7830   20.2160 C   0  0  0  0  0  2  0  0  0  0  0  0
  -34.7820  -25.4740   18.7210 C   0  0  0  0  0  2  0  0  0  0  0  0
  -33.2480  -25.3950   18.6470 C   0  0  0  0  0  2  0  0  0  0  0  0
  -35.4080  -24.1290   18.3340 C   0  0  0  0  0  2  0  0  0  0  0  0
  -32.6920  -24.2520   19.5090 C   0  0  0  0  0  2  0  0  0  0  0  0
  -34.9010  -23.0070   19.2500 C   0  0  0  0  0  2  0  0  0  0  0  0
  -33.3660  -22.8880   19.2300 C   0  0  0  0  0  3  0  0  0  0  0  0
  -30.6870  -21.2990   21.3980 C   0  0  0  0  0  2  0  0  0  0  0  0
  -30.1540  -22.6620   21.9030 C   0  0  0  0  0  2  0  0  0  0  0  0
  -29.1530  -23.2270   20.9630 N   0  0  0  0  0  4  0  0  0  0  0  0
  -28.3190  -22.6580   20.9780 H   0  0  0  0  0  0  0  0  0  0  0  0
  -29.5470  -23.1580   20.0350 H   0  0  0  0  0  0  0  0  0  0  0  0
  -28.7780  -24.6420   21.1850 C   0  0  0  0  0  2  0  0  0  0  0  0
  -28.7680  -25.4080   19.8530 C   0  0  0  0  0  2  0  0  0  0  0  0
  -28.6210  -26.8020   20.0910 O   0  0  0  0  0  0  0  0  0  0  0  0
  -24.5920  -31.7540   23.1380 C   0  0  0  0  0  0  0  0  0  0  0  0
  -27.3790  -27.3960   20.0920 C   0  0  0  0  0  0  0  0  0  0  0  0
  -23.4360  -30.3330   21.4770 C   0  0  0  0  0  3  0  0  0  0  0  0
  -24.9400  -28.8200   20.0780 C   0  0  0  0  0  0  0  0  0  0  0  0
  -25.9500  -30.7530   21.3030 C   0  0  0  0  0  2  0  0  0  0  0  0
  -26.0720  -29.3800   20.6770 C   0  0  0  0  0  0  0  0  0  0  0  0
  -27.2930  -28.6740   20.6800 C   0  0  0  0  0  3  0  0  0  0  0  0
  -26.2210  -26.8310   19.5040 C   0  0  0  0  0  3  0  0  0  0  0  0
  -25.0050  -27.5450   19.4880 C   0  0  0  0  0  3  0  0  0  0  0  0
  -23.6790  -29.6520   20.1030 C   0  0  0  0  0  2  0  0  0  0  0  0
  -24.6780  -30.9590   22.0340 N   0  0  0  0  0  0  0  0  0  0  0  0
  -23.4990  -32.0050   23.6620 O   0  0  0  0  0  0  0  0  0  0  0  0
  -22.7910  -29.2970   22.4240 C   0  0  0  0  0  0  0  0  0  0  0  0
  -21.4710  -29.1030   22.2840 N   0  0  0  0  0  0  0  0  0  0  0  0
  -23.4750  -28.6700   23.2400 O   0  0  0  0  0  0  0  0  0  0  0  0
  -20.9820  -29.6600   21.5980 H   0  0  0  0  0  0  0  0  0  0  0  0
  -18.0950  -27.9090   22.7560 C   0  0  0  0  0  0  0  0  0  0  0  0
  -20.6530  -28.1490   23.0340 C   0  0  0  0  0  3  0  0  0  0  0  0
  -20.7480  -26.7320   22.4240 C   0  0  0  0  0  2  0  0  0  0  0  0
  -19.6430  -26.4370   21.4040 C   0  0  0  0  0  2  0  0  0  0  0  0
  -18.2640  -26.5720   22.0540 C   0  0  0  0  0  2  0  0  0  0  0  0
  -19.2190  -28.6580   23.2030 C   0  0  0  0  0  0  0  0  0  0  0  0
  -19.0050  -29.9110   23.8160 C   0  0  0  0  0  3  0  0  0  0  0  0
  -17.7040  -30.4170   23.9900 C   0  0  0  0  0  3  0  0  0  0  0  0
  -16.5960  -29.6630   23.5640 C   0  0  0  0  0  3  0  0  0  0  0  0
  -16.7930  -28.4120   22.9530 C   0  0  0  0  0  3  0  0  0  0  0  0
  -25.8570  -32.4010   23.7850 C   0  0  0  0  0  3  0  0  0  0  0  0
  -25.5200  -33.7900   24.1200 N   0  0  0  0  0  0  0  0  0  0  0  0
  -25.8570  -34.8500   23.3710 C   0  0  0  0  0  0  0  0  0  0  0  0
  -26.5560  -34.7600   22.3600 O   0  0  0  0  0  0  0  0  0  0  0  0
  -24.8980  -33.9330   24.9010 H   0  0  0  0  0  0  0  0  0  0  0  0
  -24.1200  -36.6160   22.9710 C   0  0  0  0  0  1  0  0  0  0  0  0
  -25.3390  -36.2270   23.8220 C   0  0  0  0  0  3  0  0  0  0  0  0
  -27.4290  -37.1360   24.7360 C   0  0  0  0  0  1  0  0  0  0  0  0
  -26.3620  -37.2940   23.7520 N   0  0  0  0  0  0  0  0  0  0  0  0
  -25.9390  -38.2100   23.8850 H   0  0  0  0  0  0  0  0  0  0  0  0
  -26.3650  -31.6230   25.0590 C   0  0  1  0  0  0  0  0  0  0  0  0
  -25.2590  -31.3470   26.1050 C   0  0  0  0  0  1  0  0  0  0  0  0
  -26.9830  -30.2660   24.6460 C   0  0  0  0  0  1  0  0  0  0  0  0
  -27.4940  -32.4290   25.7470 C   0  0  0  0  0  1  0  0  0  0  0  0
  1 52  1  0
  1 59  1  0
  3  2  1  0
  4  6  1  0
  5  2  1  0
  5 22  1  0
  6  5  1  0
  6  1  1  0
  7  3  1  0
  7  4  1  0
  8  7  1  0
  9  7  1  0
 10 23  1  0
 11 16  1  0
 12 13  1  0
 12 11  1  0
 14 13  1  0
 14 27  1  0
 14 15  1  0
 16 10  1  0
 16 15  1  0
 17 10  2  0
 19 18  1  0
 20 18  1  0
 22 19  1  0
 22 21  1  0
 23 21  1  0
 23 20  1  0
 24 25  2  0
 25 44  1  0
 26 25  1  0
 26 29  1  0
 27 28  1  0
 27 24  1  0
 28 26  2  0
 29 30  1  0
 30 31  2  0
 32 35  1  0
 32 31  1  0
 33 32  2  0
 34 33  1  0
 34 29  2  0
 35 36  1  0
 36 41  2  0
 36 37  1  0
 37 38  2  0
 38 39  1  0
 39 43  1  0
 40 39  2  0
 41 40  1  0
 42 41  1  0
 44 45  1  0
 45 48  1  0
 45 47  1  0
 46 44  2  0
 49 24  1  0
 49 50  1  0
 51 49  1  0
 54 53  1  0
 54 56  1  0
 55 53  1  0
 55 57  1  0
 58 57  1  0
 58 56  1  0
 58 52  1  0
 59 60  1  0
 61 62  1  0
 61 64  1  0
 61 60  1  0
 63 61  1  0
 65 66  1  0
 65 64  1  0
 66 68  1  0
 67 78  2  0
 68 73  1  0
 69 77  1  0
 69 79  1  0
 70 76  1  0
 70 72  1  0
 71 77  1  0
 72 73  2  0
 72 71  1  0
 74 68  2  0
 75 74  1  0
 75 70  2  0
 76 69  1  0
 77 67  1  0
 79 81  2  0
 80 79  1  0
 82 80  1  0
 83 92  2  0
 83 88  1  0
 84 80  1  0
 84 88  1  0
 85 84  1  0
 86 87  1  0
 86 85  1  0
 87 83  1  0
 88 89  2  0
 89 90  1  0
 91 90  2  0
 92 91  1  0
 93 67  1  0
 93 94  1  0
 93103  1  0
 94 97  1  0
 95 99  1  0
 95 94  1  0
 96 95  2  0
 99 98  1  0
101 99  1  0
101102  1  0
101100  1  0
103106  1  1
103104  1  0
105103  1  0
M  ISO  4  10 100  23 100  65 101  66 101
M  END
>  <TORSDO>  (58) 
F 24

>  <SCORE>  (58) 
-11.380

>  <name>  (58) 
57

>  <ligand_id>  (58) 
57

>  <original_smiles>  (58) 
[H]c1c([H])c([H])c2c(c1[H])C([H])([H])C([H])([H])C([H])([H])C2([H])N([H])C(=O)C1([H])N(C(=O)C([H])(N([H])C(=O)C([H])(N([H])C([H])([H])[H])C([H])([H])[H])C(C([H])([H])[H])(C([H])([H])[H])C([H])([H])[H])C([H])([H])c2c([H])c(OC([H])([H])C([H])([H])[N+]([H])([H])C([H])([H])C([H])([H])C([H])(C([H])([H])C3([H])C([H])([H])C([H])([H])C([H])([H])C([H])([H])C3([H])[H])C3([H])C([H])(C4([H])C([H])([H])N(C(=O)N5C([H])([H])C([H])([H])C([H])([H])C([H])(n6nc(-c7c([H])c([H])c(Oc8c([H])c([H])c(F)c([H])c8F)c([H])c7[H])c(C(=O)N([H])[H])c6N([H])[H])C5([H])[H])C([H])([H])C([H])([H])C4([H])[H])C([H])([H])C([H])([H])[N+]([H])([H])C3([H])[H])c([H])c([H])c2C1([H])[H]

>  <smiles>  (58) 
[H]c1c([H])c([H])c2c(c1[H])C([H])([H])C([H])([H])C([H])([H])C2([H])N([H])C(=O)C1([H])N(C(=O)C([H])(N([H])C(=O)C([H])(N([H])C([H])([H])[H])C([H])([H])[H])C(C([H])([H])[H])(C([H])([H])[H])C([H])([H])[H])C([H])([H])c2c([H])c(OC([H])([H])C([H])([H])[N+]([H])([H])C([H])([H])C([H])([H])C([H])(C([H])([H])C3([H])C([H])([H])C([H])([H])C([H])([H])C([H])([H])C3([H])[H])C3([H])C([H])(C4([H])C([H])([H])N(C(=O)N5C([H])([H])C([H])([H])C([H])([H])C([H])(n6nc(-c7c([H])c([H])c(Oc8c([H])c([H])c(F)c([H])c8F)c([H])c7[H])c(C(=O)N([H])[H])c6N([H])[H])C5([H])[H])C([H])([H])C([H])([H])C4([H])[H])C([H])([H])C([H])([H])[N+]([H])([H])C3([H])[H])c([H])c([H])c2C1([H])[H]

$$$$
58:0:0
     RDKit          3D

101110  0  0  1  0  0  0  0  0999 V2000
  -29.2750  -21.0920   21.2130 C   0  0  0  0  0  2  0  0  0  0  0  0
  -29.8690  -18.6190   20.9960 C   0  0  0  0  0  2  0  0  0  0  0  0
  -31.7130  -20.3370   21.3030 C   0  0  0  0  0  2  0  0  0  0  0  0
  -30.8650  -17.4980   21.3570 C   0  0  0  0  0  2  0  0  0  0  0  0
  -32.6950  -19.2100   21.6740 C   0  0  0  0  0  2  0  0  0  0  0  0
  -30.2510  -19.9730   21.6410 C   0  0  0  0  0  3  0  0  0  0  0  0
  -32.3170  -17.8760   21.0040 C   0  0  0  0  0  3  0  0  0  0  0  0
  -32.4780  -17.9450   19.5370 N   0  0  0  0  0  4  0  0  0  0  0  0
  -32.1870  -18.8480   19.1990 H   0  0  0  0  0  0  0  0  0  0  0  0
  -31.8600  -17.2630   19.1320 H   0  0  0  0  0  0  0  0  0  0  0  0
  -33.8170  -17.6390   18.9980 C   0  0  0  0  0  2  0  0  0  0  0  0
  -35.1090  -15.9870   17.5430 C   0  0  0  0  0  1  0  0  0  0  0  0
  -33.7250  -16.4500   18.0280 C   0  0  0  0  0  3  0  0  0  0  0  0
  -33.1190  -14.0460   18.4010 C   0  0  0  0  0  0  0  0  0  0  0  0
  -33.0600  -11.9980   19.7460 C   0  0  0  0  0  2  0  0  0  0  0  0
  -32.2200  -10.8500   19.1750 C   0  0  0  0  0  2  0  0  0  0  0  0
  -30.7510  -10.9900   19.6030 C   0  0  0  0  0  2  0  0  0  0  0  0
  -30.1800  -12.3960   19.2970 C   0  0  0  0  0  3  0  0  0  0  0  0
  -31.1200  -13.5080   19.8200 C   0  0  0  0  0  2  0  0  0  0  0  0
  -32.4900  -13.2760   19.3160 N   0  0  0  0  0  0  0  0  0  0  0  0
  -33.9400  -13.6290   17.5780 O   0  0  0  0  0  0  0  0  0  0  0  0
  -32.9910  -15.3490   18.6690 N   0  0  0  0  0  0  0  0  0  0  0  0
  -32.4710  -15.5580   19.5110 H   0  0  0  0  0  0  0  0  0  0  0  0
  -28.0880  -13.6860   20.0790 C   0  0  0  0  0  0  0  0  0  0  0  0
  -26.8530  -13.2610   20.4910 C   0  0  0  0  0  0  0  0  0  0  0  0
  -26.8950  -11.8340   20.4570 C   0  0  0  0  0  0  0  0  0  0  0  0
  -28.8220  -12.5370   19.8250 N   0  0  0  0  0  0  0  0  0  0  0  0
  -28.1060  -11.4180   20.1080 N   0  0  0  0  0  0  0  0  0  0  0  0
  -25.8360  -10.8410   20.6830 C   0  0  0  0  0  0  0  0  0  0  0  0
  -25.9370   -9.8750   21.7080 C   0  0  0  0  0  3  0  0  0  0  0  0
  -24.8980   -8.9420   21.9180 C   0  0  0  0  0  3  0  0  0  0  0  0
  -23.7430   -8.9700   21.1020 C   0  0  0  0  0  0  0  0  0  0  0  0
  -23.6580   -9.9200   20.0670 C   0  0  0  0  0  3  0  0  0  0  0  0
  -24.6950  -10.8440   19.8560 C   0  0  0  0  0  3  0  0  0  0  0  0
  -22.6950   -8.0880   21.2160 O   0  0  0  0  0  0  0  0  0  0  0  0
  -22.3210   -7.5680   22.4300 C   0  0  0  0  0  0  0  0  0  0  0  0
  -21.9400   -8.3940   23.5100 C   0  0  0  0  0  3  0  0  0  0  0  0
  -21.4950   -7.8170   24.7150 C   0  0  0  0  0  3  0  0  0  0  0  0
  -21.4240   -6.4170   24.8420 C   0  0  0  0  0  0  0  0  0  0  0  0
  -21.7970   -5.5920   23.7660 C   0  0  0  0  0  3  0  0  0  0  0  0
  -22.2430   -6.1670   22.5630 C   0  0  0  0  0  0  0  0  0  0  0  0
  -22.5810   -5.3690   21.5220 F   0  0  0  0  0  0  0  0  0  0  0  0
  -20.9900   -5.8620   25.9970 F   0  0  0  0  0  0  0  0  0  0  0  0
  -25.6660  -14.1280   20.8060 C   0  0  0  0  0  0  0  0  0  0  0  0
  -24.8430  -13.7150   21.7640 N   0  0  0  0  0  0  0  0  0  0  0  0
  -25.4900  -15.2030   20.2350 O   0  0  0  0  0  0  0  0  0  0  0  0
  -24.9970  -12.8430   22.2460 H   0  0  0  0  0  0  0  0  0  0  0  0
  -24.0450  -14.2790   22.0170 H   0  0  0  0  0  0  0  0  0  0  0  0
  -28.6420  -14.9460   19.8800 N   0  0  0  0  0  0  0  0  0  0  0  0
  -28.1020  -15.7970   19.9870 H   0  0  0  0  0  0  0  0  0  0  0  0
  -29.5650  -15.1090   19.4980 H   0  0  0  0  0  0  0  0  0  0  0  0
  -29.4680  -22.3390   21.9900 N   0  0  0  0  0  4  0  0  0  0  0  0
  -28.8140  -22.3110   22.7570 H   0  0  0  0  0  0  0  0  0  0  0  0
  -30.3930  -22.3680   22.3910 H   0  0  0  0  0  0  0  0  0  0  0  0
  -28.7790  -24.7360   22.1450 C   0  0  0  0  0  2  0  0  0  0  0  0
  -30.4420  -24.0140   20.3680 C   0  0  0  0  0  2  0  0  0  0  0  0
  -28.7440  -26.1040   21.4230 C   0  0  0  0  0  2  0  0  0  0  0  0
  -30.1470  -25.2550   19.4900 C   0  0  0  0  0  2  0  0  0  0  0  0
  -29.2210  -23.5790   21.2210 C   0  0  0  0  0  3  0  0  0  0  0  0
  -28.8470  -25.9880   19.8790 C   0  0  0  0  0  3  0  0  0  0  0  0
  -28.7930  -27.2650   19.2300 O   0  0  0  0  0  0  0  0  0  0  0  0
  -24.6070  -31.4190   23.1330 C   0  0  0  0  0  0  0  0  0  0  0  0
  -27.5570  -27.8610   19.3150 C   0  0  0  0  0  0  0  0  0  0  0  0
  -23.4710  -30.0960   21.3760 C   0  0  0  0  0  3  0  0  0  0  0  0
  -24.9990  -28.9920   19.6610 C   0  0  0  0  0  0  0  0  0  0  0  0
  -25.9030  -30.8390   21.0840 C   0  0  0  0  0  2  0  0  0  0  0  0
  -26.1180  -29.5960   20.2490 C   0  0  0  0  0  0  0  0  0  0  0  0
  -27.4020  -29.0410   20.0690 C   0  0  0  0  0  3  0  0  0  0  0  0
  -26.4280  -27.2720   18.7060 C   0  0  0  0  0  3  0  0  0  0  0  0
  -25.1490  -27.8310   18.8820 C   0  0  0  0  0  3  0  0  0  0  0  0
  -23.6600  -29.6480   19.9040 C   0  0  0  0  0  2  0  0  0  0  0  0
  -24.6820  -30.7920   21.9240 N   0  0  0  0  0  0  0  0  0  0  0  0
  -23.5450  -31.4620   23.7670 O   0  0  0  0  0  0  0  0  0  0  0  0
  -23.0370  -28.8720   22.2150 C   0  0  0  0  0  0  0  0  0  0  0  0
  -21.7780  -28.4420   22.0350 N   0  0  0  0  0  0  0  0  0  0  0  0
  -23.8290  -28.3190   22.9840 O   0  0  0  0  0  0  0  0  0  0  0  0
  -21.1920  -28.9530   21.3900 H   0  0  0  0  0  0  0  0  0  0  0  0
  -18.7660  -26.4530   22.1870 C   0  0  0  0  0  0  0  0  0  0  0  0
  -21.1610  -27.2870   22.6880 C   0  0  0  0  0  3  0  0  0  0  0  0
  -21.6470  -25.9630   22.0560 C   0  0  0  0  0  2  0  0  0  0  0  0
  -20.7290  -25.4590   20.9390 C   0  0  0  0  0  2  0  0  0  0  0  0
  -19.3090  -25.2310   21.4660 C   0  0  0  0  0  2  0  0  0  0  0  0
  -19.6340  -27.4270   22.7460 C   0  0  0  0  0  0  0  0  0  0  0  0
  -19.0750  -28.5620   23.3730 C   0  0  0  0  0  3  0  0  0  0  0  0
  -17.6790  -28.7280   23.4500 C   0  0  0  0  0  3  0  0  0  0  0  0
  -16.8240  -27.7520   22.9110 C   0  0  0  0  0  3  0  0  0  0  0  0
  -17.3680  -26.6170   22.2820 C   0  0  0  0  0  3  0  0  0  0  0  0
  -25.8440  -32.1330   23.7640 C   0  0  0  0  0  3  0  0  0  0  0  0
  -25.4240  -33.4860   24.1500 N   0  0  0  0  0  0  0  0  0  0  0  0
  -25.7060  -34.5980   23.4560 C   0  0  0  0  0  0  0  0  0  0  0  0
  -26.4230  -34.5950   22.4510 O   0  0  0  0  0  0  0  0  0  0  0  0
  -24.7870  -33.5590   24.9310 H   0  0  0  0  0  0  0  0  0  0  0  0
  -23.8710  -36.2820   23.1110 C   0  0  0  0  0  1  0  0  0  0  0  0
  -25.1010  -35.9210   23.9590 C   0  0  0  0  0  3  0  0  0  0  0  0
  -27.1260  -36.9050   24.9360 C   0  0  0  0  0  1  0  0  0  0  0  0
  -26.0600  -37.0480   23.9500 N   0  0  0  0  0  0  0  0  0  0  0  0
  -25.5830  -37.9270   24.1230 H   0  0  0  0  0  0  0  0  0  0  0  0
  -26.4450  -31.3580   25.0000 C   0  0  1  0  0  0  0  0  0  0  0  0
  -25.3940  -30.9830   26.0700 C   0  0  0  0  0  1  0  0  0  0  0  0
  -27.1370  -30.0550   24.5410 C   0  0  0  0  0  1  0  0  0  0  0  0
  -27.5350  -32.2220   25.6780 C   0  0  0  0  0  1  0  0  0  0  0  0
  1 52  1  0
  2  4  1  0
  2  6  1  0
  3  6  1  0
  3  5  1  0
  6  1  1  0
  7  8  1  0
  7  4  1  0
  7  5  1  0
  9  8  1  0
 10  8  1  0
 11  8  1  0
 13 12  1  0
 13 22  1  0
 13 11  1  0
 14 22  1  0
 14 20  1  0
 16 17  1  0
 16 15  1  0
 18 17  1  0
 18 19  1  0
 18 27  1  0
 20 15  1  0
 20 19  1  0
 21 14  2  0
 22 23  1  0
 24 25  2  0
 25 44  1  0
 26 25  1  0
 26 29  1  0
 27 24  1  0
 27 28  1  0
 28 26  2  0
 29 30  1  0
 30 31  2  0
 32 35  1  0
 32 31  1  0
 33 32  2  0
 34 33  1  0
 34 29  2  0
 35 36  1  0
 36 41  2  0
 36 37  1  0
 37 38  2  0
 38 39  1  0
 39 43  1  0
 40 39  2  0
 41 40  1  0
 42 41  1  0
 44 45  1  0
 45 48  1  0
 45 47  1  0
 46 44  2  0
 49 50  1  0
 49 24  1  0
 51 49  1  0
 52 54  1  0
 52 53  1  0
 56 59  1  0
 57 55  1  0
 58 60  1  0
 58 56  1  0
 59 52  1  0
 59 55  1  0
 60 61  1  0
 60 57  1  0
 61 63  1  0
 62 73  2  0
 63 68  1  0
 64 72  1  0
 64 74  1  0
 65 71  1  0
 65 67  1  0
 66 72  1  0
 67 66  1  0
 68 67  2  0
 69 70  1  0
 69 63  2  0
 70 65  2  0
 71 64  1  0
 72 62  1  0
 74 76  2  0
 75 74  1  0
 77 75  1  0
 78 87  2  0
 78 83  1  0
 79 75  1  0
 79 83  1  0
 80 79  1  0
 81 82  1  0
 81 80  1  0
 82 78  1  0
 83 84  2  0
 84 85  1  0
 86 85  2  0
 87 86  1  0
 88 62  1  0
 88 89  1  0
 88 98  1  0
 89 92  1  0
 90 94  1  0
 90 89  1  0
 91 90  2  0
 94 93  1  0
 96 94  1  0
 96 97  1  0
 96 95  1  0
 98101  1  1
 98 99  1  0
100 98  1  0
M  ISO  4  14 100  22 100  60 101  61 101
M  END
>  <TORSDO>  (59) 
F 22

>  <SCORE>  (59) 
-8.879

>  <name>  (59) 
58

>  <ligand_id>  (59) 
58

>  <original_smiles>  (59) 
[H]c1c([H])c([H])c2c(c1[H])C([H])([H])C([H])([H])C([H])([H])C2([H])N([H])C(=O)C1([H])N(C(=O)C([H])(N([H])C(=O)C([H])(N([H])C([H])([H])[H])C([H])([H])[H])C(C([H])([H])[H])(C([H])([H])[H])C([H])([H])[H])C([H])([H])c2c([H])c(OC3([H])C([H])([H])C([H])([H])C([H])([N+]([H])([H])C([H])([H])C4([H])C([H])([H])C([H])([H])C([H])([N+]([H])([H])C([H])([H])C([H])(N([H])C(=O)N5C([H])([H])C([H])([H])C([H])([H])C([H])(n6nc(-c7c([H])c([H])c(Oc8c([H])c([H])c(F)c([H])c8F)c([H])c7[H])c(C(=O)N([H])[H])c6N([H])[H])C5([H])[H])C([H])([H])[H])C([H])([H])C4([H])[H])C([H])([H])C3([H])[H])c([H])c([H])c2C1([H])[H]

>  <smiles>  (59) 
[H]c1c([H])c([H])c2c(c1[H])C([H])([H])C([H])([H])C([H])([H])C2([H])N([H])C(=O)C1([H])N(C(=O)C([H])(N([H])C(=O)C([H])(N([H])C([H])([H])[H])C([H])([H])[H])C(C([H])([H])[H])(C([H])([H])[H])C([H])([H])[H])C([H])([H])c2c([H])c(OC3([H])C([H])([H])C([H])([H])C([H])([N+]([H])([H])C([H])([H])C4([H])C([H])([H])C([H])([H])C([H])([N+]([H])([H])C([H])([H])C([H])(N([H])C(=O)N5C([H])([H])C([H])([H])C([H])([H])C([H])(n6nc(-c7c([H])c([H])c(Oc8c([H])c([H])c(F)c([H])c8F)c([H])c7[H])c(C(=O)N([H])[H])c6N([H])[H])C5([H])[H])C([H])([H])[H])C([H])([H])C4([H])[H])C([H])([H])C3([H])[H])c([H])c([H])c2C1([H])[H]

$$$$
59:0:0
     RDKit          3D

 92101  0  0  1  0  0  0  0  0999 V2000
  -28.7270  -18.7510   19.7920 C   0  0  0  0  0  3  0  0  0  0  0  0
  -28.1970  -20.0530   19.5340 C   0  0  0  0  0  3  0  0  0  0  0  0
  -30.3990  -19.7600   21.2000 C   0  0  0  0  0  3  0  0  0  0  0  0
  -29.8620  -21.0650   20.9570 C   0  0  0  0  0  0  0  0  0  0  0  0
  -29.8580  -18.5690   20.6270 C   0  0  0  0  0  0  0  0  0  0  0  0
  -28.7560  -21.2350   20.0950 C   0  0  0  0  0  0  0  0  0  0  0  0
  -30.4620  -22.2990   21.6300 C   0  0  0  0  0  2  0  0  0  0  0  0
  -30.1510  -23.6340   20.9000 C   0  0  0  0  0  2  0  0  0  0  0  0
  -28.6770  -23.7910   20.4650 C   0  0  0  0  0  3  0  0  0  0  0  0
  -28.2510  -22.5350   19.7740 N   0  0  0  0  0  0  0  0  0  0  0  0
  -27.3970  -22.5830   19.2250 H   0  0  0  0  0  0  0  0  0  0  0  0
  -30.5960  -17.1920   20.8590 C   0  0  0  0  0  2  0  0  0  0  0  0
  -30.6410  -14.6780   20.4130 C   0  0  0  0  0  0  0  0  0  0  0  0
  -30.3660  -12.4460   19.3590 C   0  0  0  0  0  2  0  0  0  0  0  0
  -29.4250  -12.5470   18.1390 C   0  0  0  0  0  2  0  0  0  0  0  0
  -27.9560  -12.3880   18.5750 C   0  0  0  0  0  2  0  0  0  0  0  0
  -27.5960  -13.2770   19.7950 C   0  0  0  0  0  3  0  0  0  0  0  0
  -28.6540  -13.1750   20.9150 C   0  0  0  0  0  2  0  0  0  0  0  0
  -29.9590  -13.4920   20.3210 N   0  0  0  0  0  0  0  0  0  0  0  0
  -31.8220  -14.7430   20.0640 O   0  0  0  0  0  0  0  0  0  0  0  0
  -29.9570  -15.8310   20.7180 N   0  0  0  0  0  0  0  0  0  0  0  0
  -28.9830  -15.7470   20.9670 H   0  0  0  0  0  0  0  0  0  0  0  0
  -25.2070  -13.8740   20.5210 C   0  0  0  0  0  0  0  0  0  0  0  0
  -24.1400  -13.1010   20.8930 C   0  0  0  0  0  0  0  0  0  0  0  0
  -24.6040  -11.7500   20.8650 C   0  0  0  0  0  0  0  0  0  0  0  0
  -26.2510  -12.9930   20.2870 N   0  0  0  0  0  0  0  0  0  0  0  0
  -25.8940  -11.7120   20.5600 N   0  0  0  0  0  0  0  0  0  0  0  0
  -23.8770  -10.4880   21.0550 C   0  0  0  0  0  0  0  0  0  0  0  0
  -24.3140   -9.5160   21.9820 C   0  0  0  0  0  3  0  0  0  0  0  0
  -23.5880   -8.3190   22.1600 C   0  0  0  0  0  3  0  0  0  0  0  0
  -22.4100   -8.0860   21.4100 C   0  0  0  0  0  0  0  0  0  0  0  0
  -21.9930   -9.0460   20.4710 C   0  0  0  0  0  3  0  0  0  0  0  0
  -22.7200  -10.2340   20.2920 C   0  0  0  0  0  3  0  0  0  0  0  0
  -21.6520   -6.9420   21.4980 O   0  0  0  0  0  0  0  0  0  0  0  0
  -21.6120   -6.1930   22.6460 C   0  0  0  0  0  0  0  0  0  0  0  0
  -21.2000   -6.7410   23.8810 C   0  0  0  0  0  3  0  0  0  0  0  0
  -21.1080   -5.9170   25.0210 C   0  0  0  0  0  3  0  0  0  0  0  0
  -21.4160   -4.5470   24.9270 C   0  0  0  0  0  0  0  0  0  0  0  0
  -21.8210   -3.9990   23.6980 C   0  0  0  0  0  3  0  0  0  0  0  0
  -21.9160   -4.8190   22.5600 C   0  0  0  0  0  0  0  0  0  0  0  0
  -22.2860   -4.2810   21.3730 F   0  0  0  0  0  0  0  0  0  0  0  0
  -21.3200   -3.7540   26.0200 F   0  0  0  0  0  0  0  0  0  0  0  0
  -22.7430  -13.5790   21.1600 C   0  0  0  0  0  0  0  0  0  0  0  0
  -22.0120  -12.8820   22.0240 N   0  0  0  0  0  0  0  0  0  0  0  0
  -22.3070  -14.6030   20.6370 O   0  0  0  0  0  0  0  0  0  0  0  0
  -22.3800  -12.0550   22.4700 H   0  0  0  0  0  0  0  0  0  0  0  0
  -21.0730  -13.1810   22.2430 H   0  0  0  0  0  0  0  0  0  0  0  0
  -25.3700  -15.2430   20.3390 N   0  0  0  0  0  0  0  0  0  0  0  0
  -24.6010  -15.8960   20.4430 H   0  0  0  0  0  0  0  0  0  0  0  0
  -26.2140  -15.6800   19.9880 H   0  0  0  0  0  0  0  0  0  0  0  0
  -28.4380  -25.1320   19.6100 C   0  0  0  0  0  2  0  0  0  0  0  0
  -28.3700  -26.4780   20.2500 O   0  0  0  0  0  0  0  0  0  0  0  0
  -24.6100  -31.8890   23.2460 C   0  0  0  0  0  0  0  0  0  0  0  0
  -27.2320  -27.3080   20.1920 C   0  0  0  0  0  0  0  0  0  0  0  0
  -23.4160  -30.4840   21.6060 C   0  0  0  0  0  3  0  0  0  0  0  0
  -24.8720  -28.9400   20.1840 C   0  0  0  0  0  0  0  0  0  0  0  0
  -25.9600  -30.7960   21.4400 C   0  0  0  0  0  2  0  0  0  0  0  0
  -26.0400  -29.4190   20.7890 C   0  0  0  0  0  0  0  0  0  0  0  0
  -27.2190  -28.6110   20.7870 C   0  0  0  0  0  3  0  0  0  0  0  0
  -26.0260  -26.8840   19.5840 C   0  0  0  0  0  3  0  0  0  0  0  0
  -24.8670  -27.6790   19.5780 C   0  0  0  0  0  3  0  0  0  0  0  0
  -23.6370  -29.8150   20.2260 C   0  0  0  0  0  2  0  0  0  0  0  0
  -24.6800  -31.0750   22.1520 N   0  0  0  0  0  0  0  0  0  0  0  0
  -23.5230  -32.1680   23.7740 O   0  0  0  0  0  0  0  0  0  0  0  0
  -22.7560  -29.4630   22.5640 C   0  0  0  0  0  0  0  0  0  0  0  0
  -21.4300  -29.2850   22.4360 N   0  0  0  0  0  0  0  0  0  0  0  0
  -23.4350  -28.8380   23.3820 O   0  0  0  0  0  0  0  0  0  0  0  0
  -20.9450  -29.8380   21.7430 H   0  0  0  0  0  0  0  0  0  0  0  0
  -18.0490  -28.0950   22.9350 C   0  0  0  0  0  0  0  0  0  0  0  0
  -20.6080  -28.3490   23.2050 C   0  0  0  0  0  3  0  0  0  0  0  0
  -20.7090  -26.9180   22.6280 C   0  0  0  0  0  2  0  0  0  0  0  0
  -19.6070  -26.5980   21.6140 C   0  0  0  0  0  2  0  0  0  0  0  0
  -18.2240  -26.7460   22.2580 C   0  0  0  0  0  2  0  0  0  0  0  0
  -19.1690  -28.8560   23.3650 C   0  0  0  0  0  0  0  0  0  0  0  0
  -18.9520  -30.1170   23.9590 C   0  0  0  0  0  3  0  0  0  0  0  0
  -17.6480  -30.6200   24.1260 C   0  0  0  0  0  3  0  0  0  0  0  0
  -16.5420  -29.8570   23.7120 C   0  0  0  0  0  3  0  0  0  0  0  0
  -16.7450  -28.5970   23.1220 C   0  0  0  0  0  3  0  0  0  0  0  0
  -25.8890  -32.5250   23.8710 C   0  0  0  0  0  3  0  0  0  0  0  0
  -25.5740  -33.9230   24.1960 N   0  0  0  0  0  0  0  0  0  0  0  0
  -25.9010  -34.9740   23.4330 C   0  0  0  0  0  0  0  0  0  0  0  0
  -26.5710  -34.8700   22.4010 O   0  0  0  0  0  0  0  0  0  0  0  0
  -24.9750  -34.0770   24.9940 H   0  0  0  0  0  0  0  0  0  0  0  0
  -24.1620  -36.7590   23.0750 C   0  0  0  0  0  1  0  0  0  0  0  0
  -25.4070  -36.3620   23.8850 C   0  0  0  0  0  3  0  0  0  0  0  0
  -27.5380  -37.2590   24.7100 C   0  0  0  0  0  1  0  0  0  0  0  0
  -26.4330  -37.4210   23.7700 N   0  0  0  0  0  0  0  0  0  0  0  0
  -26.0220  -38.3380   23.9200 H   0  0  0  0  0  0  0  0  0  0  0  0
  -26.4010  -31.7600   25.1540 C   0  0  1  0  0  0  0  0  0  0  0  0
  -25.3030  -31.5210   26.2170 C   0  0  0  0  0  1  0  0  0  0  0  0
  -26.9910  -30.3810   24.7730 C   0  0  0  0  0  1  0  0  0  0  0  0
  -27.5470  -32.5610   25.8170 C   0  0  0  0  0  1  0  0  0  0  0  0
  1  5  1  0
  2  1  2  0
  2  6  1  0
  4  3  1  0
  4  7  1  0
  5 12  1  0
  5  3  2  0
  6  4  2  0
  8  7  1  0
  9 51  1  0
  9  8  1  0
 10  6  1  0
 10  9  1  0
 11 10  1  0
 13 21  1  0
 14 19  1  0
 15 16  1  0
 15 14  1  0
 17 16  1  0
 17 26  1  0
 17 18  1  0
 19 13  1  0
 19 18  1  0
 20 13  2  0
 21 12  1  0
 21 22  1  0
 23 24  2  0
 24 43  1  0
 25 24  1  0
 25 28  1  0
 26 23  1  0
 26 27  1  0
 27 25  2  0
 28 29  1  0
 29 30  2  0
 31 34  1  0
 31 30  1  0
 32 31  2  0
 33 32  1  0
 33 28  2  0
 34 35  1  0
 35 36  1  0
 36 37  2  0
 38 37  1  0
 38 42  1  0
 39 38  2  0
 40 35  2  0
 40 39  1  0
 41 40  1  0
 43 44  1  0
 44 47  1  0
 44 46  1  0
 45 43  2  0
 48 49  1  0
 48 23  1  0
 50 48  1  0
 51 52  1  0
 53 64  2  0
 54 52  1  0
 54 59  1  0
 55 63  1  0
 55 65  1  0
 56 62  1  0
 56 58  1  0
 57 63  1  0
 58 57  1  0
 59 58  2  0
 60 54  2  0
 61 60  1  0
 61 56  2  0
 62 55  1  0
 63 53  1  0
 65 67  2  0
 66 65  1  0
 68 66  1  0
 69 78  2  0
 69 74  1  0
 70 66  1  0
 70 74  1  0
 71 70  1  0
 72 73  1  0
 72 71  1  0
 73 69  1  0
 74 75  2  0
 75 76  1  0
 77 76  2  0
 78 77  1  0
 79 53  1  0
 79 80  1  0
 79 89  1  0
 80 83  1  0
 81 85  1  0
 81 80  1  0
 82 81  2  0
 85 84  1  0
 87 85  1  0
 87 88  1  0
 87 86  1  0
 89 92  1  1
 89 90  1  0
 91 89  1  0
M  ISO  4  13 100  21 100  51 101  52 101
M  END
>  <TORSDO>  (60) 
F 18

>  <SCORE>  (60) 
-14.900

>  <name>  (60) 
59

>  <ligand_id>  (60) 
59

>  <original_smiles>  (60) 
[H]c1c([H])c([H])c2c(c1[H])C([H])([H])C([H])([H])C([H])([H])C2([H])N([H])C(=O)C1([H])N(C(=O)C([H])(N([H])C(=O)C([H])(N([H])C([H])([H])[H])C([H])([H])[H])C(C([H])([H])[H])(C([H])([H])[H])C([H])([H])[H])C([H])([H])c2c([H])c(OC([H])([H])C3([H])N([H])c4c([H])c([H])c(C([H])([H])N([H])C(=O)N5C([H])([H])C([H])([H])C([H])([H])C([H])(n6nc(-c7c([H])c([H])c(Oc8c([H])c([H])c(F)c([H])c8F)c([H])c7[H])c(C(=O)N([H])[H])c6N([H])[H])C5([H])[H])c([H])c4C([H])([H])C3([H])[H])c([H])c([H])c2C1([H])[H]

>  <smiles>  (60) 
[H]c1c([H])c([H])c2c(c1[H])C([H])([H])C([H])([H])C([H])([H])C2([H])N([H])C(=O)C1([H])N(C(=O)C([H])(N([H])C(=O)C([H])(N([H])C([H])([H])[H])C([H])([H])[H])C(C([H])([H])[H])(C([H])([H])[H])C([H])([H])[H])C([H])([H])c2c([H])c(OC([H])([H])C3([H])N([H])c4c([H])c([H])c(C([H])([H])N([H])C(=O)N5C([H])([H])C([H])([H])C([H])([H])C([H])(n6nc(-c7c([H])c([H])c(Oc8c([H])c([H])c(F)c([H])c8F)c([H])c7[H])c(C(=O)N([H])[H])c6N([H])[H])C5([H])[H])c([H])c4C([H])([H])C3([H])[H])c([H])c([H])c2C1([H])[H]

$$$$
60:0:0
     RDKit          3D

 95103  0  0  1  0  0  0  0  0999 V2000
  -26.1040  -22.3670   20.7770 C   0  0  0  0  0  2  0  0  0  0  0  0
  -28.4160  -21.7740   21.6750 C   0  0  0  0  0  2  0  0  0  0  0  0
  -26.6390  -23.7730   21.0860 C   0  0  0  0  0  2  0  0  0  0  0  0
  -29.0140  -23.0410   21.0240 C   0  0  0  0  0  2  0  0  0  0  0  0
  -27.1610  -21.2450   20.9410 C   0  0  0  0  0  3  0  0  0  0  0  0
  -27.9820  -23.9660   20.4800 N   0  0  2  0  0  4  0  0  0  0  0  0
  -27.8850  -23.7030   19.5100 H   0  0  0  0  0  0  0  0  0  0  0  0
  -27.4810  -20.5700   19.5840 C   0  0  0  0  0  2  0  0  0  0  0  0
  -27.9090  -19.0930   19.6620 C   0  0  0  0  0  2  0  0  0  0  0  0
  -29.3120  -18.8920   20.0850 N   0  0  0  0  0  4  0  0  0  0  0  0
  -29.9330  -19.3200   19.4160 H   0  0  0  0  0  0  0  0  0  0  0  0
  -29.4610  -19.3210   20.9850 H   0  0  0  0  0  0  0  0  0  0  0  0
  -29.6440  -17.4580   20.1830 C   0  0  0  0  0  2  0  0  0  0  0  0
  -31.0280  -17.1610   20.7920 C   0  0  0  0  0  2  0  0  0  0  0  0
  -31.5730  -14.8470   20.1220 C   0  0  0  0  0  0  0  0  0  0  0  0
  -31.2330  -12.6050   19.1600 C   0  0  0  0  0  2  0  0  0  0  0  0
  -30.2920  -12.6660   17.9410 C   0  0  0  0  0  2  0  0  0  0  0  0
  -28.8140  -12.5980   18.3730 C   0  0  0  0  0  2  0  0  0  0  0  0
  -28.4820  -13.6080   19.5000 C   0  0  0  0  0  3  0  0  0  0  0  0
  -29.5160  -13.4930   20.6440 C   0  0  0  0  0  2  0  0  0  0  0  0
  -30.8720  -13.6860   20.0860 N   0  0  0  0  0  0  0  0  0  0  0  0
  -32.5350  -15.1020   19.3910 O   0  0  0  0  0  0  0  0  0  0  0  0
  -31.1090  -15.7230   21.0160 N   0  0  0  0  0  0  0  0  0  0  0  0
  -30.4490  -15.3390   21.6760 H   0  0  0  0  0  0  0  0  0  0  0  0
  -26.1370  -14.3850   20.2470 C   0  0  0  0  0  0  0  0  0  0  0  0
  -25.0240  -13.6870   20.6350 C   0  0  0  0  0  0  0  0  0  0  0  0
  -25.3850  -12.3060   20.5760 C   0  0  0  0  0  0  0  0  0  0  0  0
  -27.1130  -13.4340   19.9910 N   0  0  0  0  0  0  0  0  0  0  0  0
  -26.6620  -12.1790   20.2400 N   0  0  0  0  0  0  0  0  0  0  0  0
  -24.5760  -11.0960   20.7670 C   0  0  0  0  0  0  0  0  0  0  0  0
  -24.9240  -10.1190   21.7260 C   0  0  0  0  0  3  0  0  0  0  0  0
  -24.1220   -8.9730   21.9030 C   0  0  0  0  0  3  0  0  0  0  0  0
  -22.9560   -8.7930   21.1200 C   0  0  0  0  0  0  0  0  0  0  0  0
  -22.6270   -9.7580   20.1510 C   0  0  0  0  0  3  0  0  0  0  0  0
  -23.4300  -10.8970   19.9730 C   0  0  0  0  0  3  0  0  0  0  0  0
  -22.1310   -7.6980   21.2050 O   0  0  0  0  0  0  0  0  0  0  0  0
  -21.9560   -7.0190   22.3830 C   0  0  0  0  0  0  0  0  0  0  0  0
  -21.4770   -7.6600   23.5470 C   0  0  0  0  0  3  0  0  0  0  0  0
  -21.2450   -6.9110   24.7180 C   0  0  0  0  0  3  0  0  0  0  0  0
  -21.4800   -5.5220   24.7240 C   0  0  0  0  0  0  0  0  0  0  0  0
  -21.9520   -4.8830   23.5640 C   0  0  0  0  0  3  0  0  0  0  0  0
  -22.1860   -5.6290   22.3970 C   0  0  0  0  0  0  0  0  0  0  0  0
  -22.6190   -5.0040   21.2760 F   0  0  0  0  0  0  0  0  0  0  0  0
  -21.2500   -4.8000   25.8460 F   0  0  0  0  0  0  0  0  0  0  0  0
  -23.6680  -14.2580   20.9390 C   0  0  0  0  0  0  0  0  0  0  0  0
  -22.9180  -13.6160   21.8270 N   0  0  0  0  0  0  0  0  0  0  0  0
  -23.2870  -15.3070   20.4210 O   0  0  0  0  0  0  0  0  0  0  0  0
  -23.2400  -12.7650   22.2640 H   0  0  0  0  0  0  0  0  0  0  0  0
  -22.0090  -13.9800   22.0730 H   0  0  0  0  0  0  0  0  0  0  0  0
  -26.3940  -15.7410   20.0660 N   0  0  0  0  0  0  0  0  0  0  0  0
  -25.6150  -16.3890   20.0750 H   0  0  0  0  0  0  0  0  0  0  0  0
  -27.1460  -16.0390   19.4600 H   0  0  0  0  0  0  0  0  0  0  0  0
  -28.4080  -25.3850   20.4810 C   0  0  0  0  0  2  0  0  0  0  0  0
  -28.2620  -26.0260   19.0940 C   0  0  0  0  0  2  0  0  0  0  0  0
  -28.2080  -27.4380   19.2610 O   0  0  0  0  0  0  0  0  0  0  0  0
  -24.6560  -31.9770   23.4030 C   0  0  0  0  0  0  0  0  0  0  0  0
  -26.9970  -28.0530   19.4960 C   0  0  0  0  0  0  0  0  0  0  0  0
  -23.3000  -30.8280   21.6790 C   0  0  0  0  0  3  0  0  0  0  0  0
  -24.6150  -29.5040   19.9460 C   0  0  0  0  0  0  0  0  0  0  0  0
  -25.8010  -31.2160   21.3250 C   0  0  0  0  0  2  0  0  0  0  0  0
  -25.8180  -29.9440   20.5050 C   0  0  0  0  0  0  0  0  0  0  0  0
  -27.0070  -29.2200   20.2880 C   0  0  0  0  0  3  0  0  0  0  0  0
  -25.7680  -27.6150   18.9450 C   0  0  0  0  0  3  0  0  0  0  0  0
  -24.5810  -28.3340   19.1710 C   0  0  0  0  0  3  0  0  0  0  0  0
  -23.3890  -30.3480   20.2070 C   0  0  0  0  0  2  0  0  0  0  0  0
  -24.6090  -31.3450   22.1960 N   0  0  0  0  0  0  0  0  0  0  0  0
  -23.6270  -32.1700   24.0640 O   0  0  0  0  0  0  0  0  0  0  0  0
  -22.7170  -29.6800   22.5350 C   0  0  0  0  0  0  0  0  0  0  0  0
  -21.3960  -29.4660   22.4240 N   0  0  0  0  0  0  0  0  0  0  0  0
  -23.4480  -28.9910   23.2500 O   0  0  0  0  0  0  0  0  0  0  0  0
  -20.8640  -30.0780   21.8210 H   0  0  0  0  0  0  0  0  0  0  0  0
  -18.1090  -28.0140   22.7580 C   0  0  0  0  0  0  0  0  0  0  0  0
  -20.6370  -28.4150   23.1010 C   0  0  0  0  0  3  0  0  0  0  0  0
  -20.8460  -27.0450   22.4160 C   0  0  0  0  0  2  0  0  0  0  0  0
  -19.7840  -26.7320   21.3580 C   0  0  0  0  0  2  0  0  0  0  0  0
  -18.3850  -26.7370   21.9800 C   0  0  0  0  0  2  0  0  0  0  0  0
  -19.1670  -28.8100   23.2690 C   0  0  0  0  0  0  0  0  0  0  0  0
  -18.8560  -30.0060   23.9520 C   0  0  0  0  0  3  0  0  0  0  0  0
  -17.5190  -30.4070   24.1290 C   0  0  0  0  0  3  0  0  0  0  0  0
  -16.4750  -29.6060   23.6350 C   0  0  0  0  0  3  0  0  0  0  0  0
  -16.7700  -28.4120   22.9550 C   0  0  0  0  0  3  0  0  0  0  0  0
  -25.9980  -32.5060   23.9970 C   0  0  0  0  0  3  0  0  0  0  0  0
  -25.7520  -33.8660   24.4970 N   0  0  0  0  0  0  0  0  0  0  0  0
  -26.0930  -34.9860   23.8450 C   0  0  0  0  0  0  0  0  0  0  0  0
  -26.7200  -34.9800   22.7810 O   0  0  0  0  0  0  0  0  0  0  0  0
  -25.1940  -33.9480   25.3320 H   0  0  0  0  0  0  0  0  0  0  0  0
  -24.4170  -36.8590   23.7650 C   0  0  0  0  0  1  0  0  0  0  0  0
  -25.6710  -36.3270   24.4750 C   0  0  0  0  0  3  0  0  0  0  0  0
  -27.8680  -37.0450   25.3080 C   0  0  0  0  0  1  0  0  0  0  0  0
  -26.7350  -37.3540   24.4390 N   0  0  0  0  0  0  0  0  0  0  0  0
  -26.3660  -38.2610   24.7090 H   0  0  0  0  0  0  0  0  0  0  0  0
  -26.5790  -31.5850   25.1390 C   0  0  1  0  0  0  0  0  0  0  0  0
  -25.5560  -31.2520   26.2490 C   0  0  0  0  0  1  0  0  0  0  0  0
  -27.0930  -30.2500   24.5510 C   0  0  0  0  0  1  0  0  0  0  0  0
  -27.7950  -32.2750   25.8040 C   0  0  0  0  0  1  0  0  0  0  0  0
  1  5  1  0
  1  3  1  0
  4  2  1  0
  5  8  1  0
  5  2  1  0
  6 53  1  0
  6  4  1  0
  6  3  1  0
  6  7  1  6
  8  9  1  0
  9 10  1  0
 10 13  1  0
 10 12  1  0
 11 10  1  0
 13 14  1  0
 14 23  1  0
 15 23  1  0
 16 21  1  0
 17 18  1  0
 17 16  1  0
 19 18  1  0
 19 28  1  0
 19 20  1  0
 21 15  1  0
 21 20  1  0
 22 15  2  0
 23 24  1  0
 25 26  2  0
 26 45  1  0
 27 26  1  0
 27 30  1  0
 28 29  1  0
 28 25  1  0
 29 27  2  0
 30 31  1  0
 31 32  2  0
 33 36  1  0
 33 32  1  0
 34 33  2  0
 35 34  1  0
 35 30  2  0
 36 37  1  0
 37 42  2  0
 37 38  1  0
 38 39  2  0
 39 40  1  0
 40 44  1  0
 41 40  2  0
 42 41  1  0
 43 42  1  0
 45 46  1  0
 46 49  1  0
 46 48  1  0
 47 45  2  0
 50 51  1  0
 50 25  1  0
 52 50  1  0
 54 55  1  0
 54 53  1  0
 55 57  1  0
 56 67  2  0
 57 62  1  0
 58 66  1  0
 58 68  1  0
 59 65  1  0
 59 61  1  0
 60 66  1  0
 61 60  1  0
 62 61  2  0
 63 64  1  0
 63 57  2  0
 64 59  2  0
 65 58  1  0
 66 56  1  0
 68 70  2  0
 69 68  1  0
 71 69  1  0
 72 81  2  0
 72 77  1  0
 73 69  1  0
 73 77  1  0
 74 73  1  0
 75 76  1  0
 75 74  1  0
 76 72  1  0
 77 78  2  0
 78 79  1  0
 80 79  2  0
 81 80  1  0
 82 56  1  0
 82 83  1  0
 82 92  1  0
 83 86  1  0
 84 88  1  0
 84 83  1  0
 85 84  2  0
 88 87  1  0
 90 88  1  0
 90 91  1  0
 90 89  1  0
 92 95  1  1
 92 93  1  0
 94 92  1  0
M  ISO  4  15 100  23 100  54 101  55 101
M  END
>  <TORSDO>  (61) 
F 23

>  <SCORE>  (61) 
-9.945

>  <name>  (61) 
60

>  <ligand_id>  (61) 
60

>  <original_smiles>  (61) 
[H]c1c([H])c([H])c2c(c1[H])C([H])([H])C([H])([H])C([H])([H])C2([H])N([H])C(=O)C1([H])N(C(=O)C([H])(N([H])C(=O)C([H])(N([H])C([H])([H])[H])C([H])([H])[H])C(C([H])([H])[H])(C([H])([H])[H])C([H])([H])[H])C([H])([H])c2c([H])c(OC([H])([H])C([H])([H])[N+]3([H])C([H])([H])C([H])([H])C([H])(C([H])([H])C([H])([H])[N+]([H])([H])C([H])([H])C([H])([H])N([H])C(=O)N4C([H])([H])C([H])([H])C([H])([H])C([H])(n5nc(-c6c([H])c([H])c(Oc7c([H])c([H])c(F)c([H])c7F)c([H])c6[H])c(C(=O)N([H])[H])c5N([H])[H])C4([H])[H])C([H])([H])C3([H])[H])c([H])c([H])c2C1([H])[H]

>  <smiles>  (61) 
[H]c1c([H])c([H])c2c(c1[H])C([H])([H])C([H])([H])C([H])([H])C2([H])N([H])C(=O)C1([H])N(C(=O)C([H])(N([H])C(=O)C([H])(N([H])C([H])([H])[H])C([H])([H])[H])C(C([H])([H])[H])(C([H])([H])[H])C([H])([H])[H])C([H])([H])c2c([H])c(OC([H])([H])C([H])([H])[N+]3([H])C([H])([H])C([H])([H])C([H])(C([H])([H])C([H])([H])[N+]([H])([H])C([H])([H])C([H])([H])N([H])C(=O)N4C([H])([H])C([H])([H])C([H])([H])C([H])(n5nc(-c6c([H])c([H])c(Oc7c([H])c([H])c(F)c([H])c7F)c([H])c6[H])c(C(=O)N([H])[H])c5N([H])[H])C4([H])[H])C([H])([H])C3([H])[H])c([H])c([H])c2C1([H])[H]

$$$$
61:0:0
     RDKit          3D

 99108  0  0  1  0  0  0  0  0999 V2000
  -28.6080  -20.5060   20.2560 C   0  0  0  0  0  2  0  0  0  0  0  0
  -30.0500  -22.3000   19.3090 C   0  0  0  0  0  2  0  0  0  0  0  0
  -27.5070  -21.3210   19.5070 C   0  0  0  0  0  2  0  0  0  0  0  0
  -29.9930  -21.1830   20.4020 C   0  0  0  0  0  3  0  0  0  0  0  0
  -28.9320  -23.4120   19.3370 C   0  0  0  0  0  3  0  0  0  0  0  0
  -27.5720  -22.8150   19.6150 N   0  0  2  0  0  4  0  0  0  0  0  0
  -27.0220  -23.1090   18.8180 H   0  0  0  0  0  0  0  0  0  0  0  0
  -25.0600  -23.4860   21.9530 C   0  0  0  0  0  2  0  0  0  0  0  0
  -26.2940  -22.5730   21.9090 C   0  0  0  0  0  2  0  0  0  0  0  0
  -25.3230  -23.7790   20.4660 C   0  0  0  0  0  2  0  0  0  0  0  0
  -26.8080  -23.4530   20.7440 C   0  0  0  0  0  3  0  0  0  0  0  0
  -31.2090  -20.2780   20.2490 N   0  0  0  0  0  4  0  0  0  0  0  0
  -32.0020  -20.8430   20.5310 H   0  0  0  0  0  0  0  0  0  0  0  0
  -31.3470  -20.1390   19.2580 H   0  0  0  0  0  0  0  0  0  0  0  0
  -32.5240  -18.3140   19.8510 C   0  0  0  0  0  1  0  0  0  0  0  0
  -31.4930  -18.9050   20.8410 C   0  0  0  0  0  3  0  0  0  0  0  0
  -30.2810  -17.9340   21.0810 C   0  0  0  0  0  2  0  0  0  0  0  0
  -31.1520  -15.4360   20.9100 C   0  0  0  0  0  0  0  0  0  0  0  0
  -30.9950  -13.1810   19.8890 C   0  0  0  0  0  2  0  0  0  0  0  0
  -30.2210  -13.2570   18.5540 C   0  0  0  0  0  2  0  0  0  0  0  0
  -28.7000  -13.1550   18.7940 C   0  0  0  0  0  2  0  0  0  0  0  0
  -28.2020  -14.0780   19.9400 C   0  0  0  0  0  3  0  0  0  0  0  0
  -29.1060  -13.9590   21.1910 C   0  0  0  0  0  2  0  0  0  0  0  0
  -30.4970  -14.2430   20.7840 N   0  0  0  0  0  0  0  0  0  0  0  0
  -32.3130  -15.5880   20.5220 O   0  0  0  0  0  0  0  0  0  0  0  0
  -30.4020  -16.4680   21.3770 N   0  0  0  0  0  0  0  0  0  0  0  0
  -29.5850  -16.1230   21.8580 H   0  0  0  0  0  0  0  0  0  0  0  0
  -25.7410  -14.7280   20.3320 C   0  0  0  0  0  0  0  0  0  0  0  0
  -24.6220  -13.9820   20.6040 C   0  0  0  0  0  0  0  0  0  0  0  0
  -25.0610  -12.6270   20.6760 C   0  0  0  0  0  0  0  0  0  0  0  0
  -26.7950  -13.8300   20.2600 N   0  0  0  0  0  0  0  0  0  0  0  0
  -26.3810  -12.5610   20.5200 N   0  0  0  0  0  0  0  0  0  0  0  0
  -24.2910  -11.3830   20.8270 C   0  0  0  0  0  0  0  0  0  0  0  0
  -24.6720  -10.3960   21.7600 C   0  0  0  0  0  3  0  0  0  0  0  0
  -23.9130   -9.2130   21.9020 C   0  0  0  0  0  3  0  0  0  0  0  0
  -22.7580   -9.0160   21.1070 C   0  0  0  0  0  0  0  0  0  0  0  0
  -22.3960   -9.9920   20.1610 C   0  0  0  0  0  3  0  0  0  0  0  0
  -23.1550  -11.1650   20.0190 C   0  0  0  0  0  3  0  0  0  0  0  0
  -21.9730   -7.8900   21.1590 O   0  0  0  0  0  0  0  0  0  0  0  0
  -21.9280   -7.0890   22.2720 C   0  0  0  0  0  0  0  0  0  0  0  0
  -21.6180   -7.6080   23.5500 C   0  0  0  0  0  3  0  0  0  0  0  0
  -21.5120   -6.7410   24.6530 C   0  0  0  0  0  3  0  0  0  0  0  0
  -21.7020   -5.3580   24.4860 C   0  0  0  0  0  0  0  0  0  0  0  0
  -22.0010   -4.8370   23.2150 C   0  0  0  0  0  3  0  0  0  0  0  0
  -22.1080   -5.7010   22.1120 C   0  0  0  0  0  0  0  0  0  0  0  0
  -22.3740   -5.1920   20.8850 F   0  0  0  0  0  0  0  0  0  0  0  0
  -21.5930   -4.5230   25.5470 F   0  0  0  0  0  0  0  0  0  0  0  0
  -23.2100  -14.4900   20.7020 C   0  0  0  0  0  0  0  0  0  0  0  0
  -22.3820  -13.8590   21.5310 N   0  0  0  0  0  0  0  0  0  0  0  0
  -22.8410  -15.4760   20.0720 O   0  0  0  0  0  0  0  0  0  0  0  0
  -22.6970  -13.0670   22.0720 H   0  0  0  0  0  0  0  0  0  0  0  0
  -21.4230  -14.1630   21.6200 H   0  0  0  0  0  0  0  0  0  0  0  0
  -25.9480  -16.0880   20.1260 N   0  0  0  0  0  0  0  0  0  0  0  0
  -25.1720  -16.7380   20.0550 H   0  0  0  0  0  0  0  0  0  0  0  0
  -26.8400  -16.5080   19.8940 H   0  0  0  0  0  0  0  0  0  0  0  0
  -30.1780  -24.1970   17.1440 C   0  0  0  0  0  1  0  0  0  0  0  0
  -28.9310  -24.3810   18.0530 C   0  0  0  0  0  3  0  0  0  0  0  0
  -28.7810  -25.9180   18.3690 C   0  0  0  0  0  2  0  0  0  0  0  0
  -28.0770  -26.7320   17.3880 O   0  0  0  0  0  0  0  0  0  0  0  0
  -25.0210  -30.7600   22.4420 C   0  0  0  0  0  0  0  0  0  0  0  0
  -26.9570  -27.4170   17.8200 C   0  0  0  0  0  0  0  0  0  0  0  0
  -23.5040  -29.8220   20.7240 C   0  0  0  0  0  3  0  0  0  0  0  0
  -24.6360  -28.7960   18.6760 C   0  0  0  0  0  0  0  0  0  0  0  0
  -25.9510  -30.3130   20.1690 C   0  0  0  0  0  2  0  0  0  0  0  0
  -25.8930  -29.1740   19.1670 C   0  0  0  0  0  0  0  0  0  0  0  0
  -27.0590  -28.4960   18.7310 C   0  0  0  0  0  3  0  0  0  0  0  0
  -25.6870  -27.0620   17.3250 C   0  0  0  0  0  3  0  0  0  0  0  0
  -24.5280  -27.7410   17.7500 C   0  0  0  0  0  3  0  0  0  0  0  0
  -23.4350  -29.5660   19.1940 C   0  0  0  0  0  2  0  0  0  0  0  0
  -24.8560  -30.2960   21.1710 N   0  0  0  0  0  0  0  0  0  0  0  0
  -24.0670  -30.8230   23.2280 O   0  0  0  0  0  0  0  0  0  0  0  0
  -23.0270  -28.5540   21.4680 C   0  0  0  0  0  0  0  0  0  0  0  0
  -21.7050  -28.3170   21.4670 N   0  0  0  0  0  0  0  0  0  0  0  0
  -23.8410  -27.7940   21.9970 O   0  0  0  0  0  0  0  0  0  0  0  0
  -21.1020  -28.9910   21.0170 H   0  0  0  0  0  0  0  0  0  0  0  0
  -18.4980  -26.7270   21.9700 C   0  0  0  0  0  0  0  0  0  0  0  0
  -21.0430  -27.1600   22.0710 C   0  0  0  0  0  3  0  0  0  0  0  0
  -21.1900  -25.9080   21.1780 C   0  0  0  0  0  2  0  0  0  0  0  0
  -20.0150  -25.7160   20.2120 C   0  0  0  0  0  2  0  0  0  0  0  0
  -18.6990  -25.5860   20.9880 C   0  0  0  0  0  2  0  0  0  0  0  0
  -19.5970  -27.4750   22.4680 C   0  0  0  0  0  0  0  0  0  0  0  0
  -19.3520  -28.5510   23.3470 C   0  0  0  0  0  3  0  0  0  0  0  0
  -18.0400  -28.8790   23.7310 C   0  0  0  0  0  3  0  0  0  0  0  0
  -16.9540  -28.1250   23.2490 C   0  0  0  0  0  3  0  0  0  0  0  0
  -17.1840  -27.0510   22.3720 C   0  0  0  0  0  3  0  0  0  0  0  0
  -26.4130  -31.2410   22.9630 C   0  0  0  0  0  3  0  0  0  0  0  0
  -26.1800  -32.3620   23.8810 N   0  0  0  0  0  0  0  0  0  0  0  0
  -26.4620  -33.6420   23.6050 C   0  0  0  0  0  0  0  0  0  0  0  0
  -27.0240  -33.9940   22.5620 O   0  0  0  0  0  0  0  0  0  0  0  0
  -25.6770  -32.1530   24.7310 H   0  0  0  0  0  0  0  0  0  0  0  0
  -24.8070  -35.4500   24.1690 C   0  0  0  0  0  1  0  0  0  0  0  0
  -26.0590  -34.7020   24.6540 C   0  0  0  0  0  3  0  0  0  0  0  0
  -28.2650  -35.0740   25.6650 C   0  0  0  0  0  1  0  0  0  0  0  0
  -27.1370  -35.6690   24.9530 N   0  0  0  0  0  0  0  0  0  0  0  0
  -26.7830  -36.4420   25.5100 H   0  0  0  0  0  0  0  0  0  0  0  0
  -27.2390  -30.1020   23.6760 C   0  0  1  0  0  0  0  0  0  0  0  0
  -26.4510  -29.3510   24.7740 C   0  0  0  0  0  1  0  0  0  0  0  0
  -27.7330  -29.0530   22.6520 C   0  0  0  0  0  1  0  0  0  0  0  0
  -28.5070  -30.7040   24.3270 C   0  0  0  0  0  1  0  0  0  0  0  0
  1  4  1  0
  2  5  1  0
  2  4  1  0
  3  6  1  0
  3  1  1  0
  4 12  1  0
  5 57  1  0
  5  6  1  0
  6  7  1  6
  6 11  1  0
  9  8  1  0
 10 11  1  0
 10  8  1  0
 11  9  1  0
 12 13  1  0
 12 16  1  0
 14 12  1  0
 16 15  1  0
 16 17  1  0
 17 26  1  0
 18 26  1  0
 19 24  1  0
 20 21  1  0
 20 19  1  0
 22 21  1  0
 22 31  1  0
 22 23  1  0
 24 18  1  0
 24 23  1  0
 25 18  2  0
 26 27  1  0
 28 29  2  0
 29 30  1  0
 29 48  1  0
 30 33  1  0
 31 28  1  0
 31 32  1  0
 32 30  2  0
 33 34  1  0
 34 35  2  0
 36 39  1  0
 36 35  1  0
 37 36  2  0
 38 37  1  0
 38 33  2  0
 39 40  1  0
 40 41  1  0
 41 42  2  0
 43 42  1  0
 43 47  1  0
 44 43  2  0
 45 40  2  0
 45 44  1  0
 46 45  1  0
 48 49  1  0
 49 52  1  0
 49 51  1  0
 50 48  2  0
 53 28  1  0
 54 53  1  0
 55 53  1  0
 57 56  1  0
 57 58  1  0
 59 61  1  0
 59 58  1  0
 60 71  2  0
 61 66  1  0
 62 70  1  0
 62 72  1  0
 63 65  1  0
 63 69  1  0
 64 70  1  0
 65 64  1  0
 66 65  2  0
 67 68  1  0
 67 61  2  0
 68 63  2  0
 69 62  1  0
 70 60  1  0
 72 74  2  0
 73 72  1  0
 75 73  1  0
 76 85  2  0
 76 81  1  0
 77 73  1  0
 77 81  1  0
 78 77  1  0
 79 80  1  0
 79 78  1  0
 80 76  1  0
 81 82  2  0
 82 83  1  0
 84 83  2  0
 85 84  1  0
 86 60  1  0
 86 96  1  0
 86 87  1  0
 87 90  1  0
 88 87  1  0
 88 92  1  0
 89 88  2  0
 92 91  1  0
 92 94  1  0
 94 95  1  0
 94 93  1  0
 96 99  1  1
 96 97  1  0
 98 96  1  0
M  ISO  4  18 100  26 100  58 101  59 101
M  END
>  <TORSDO>  (62) 
F 22

>  <SCORE>  (62) 
-7.852

>  <name>  (62) 
61

>  <ligand_id>  (62) 
61

>  <original_smiles>  (62) 
[H]c1c([H])c([H])c2c(c1[H])C([H])([H])C([H])([H])C([H])([H])C2([H])N([H])C(=O)C1([H])N(C(=O)C([H])(N([H])C(=O)C([H])(N([H])C([H])([H])[H])C([H])([H])[H])C(C([H])([H])[H])(C([H])([H])[H])C([H])([H])[H])C([H])([H])c2c([H])c(OC([H])([H])C([H])(C([H])([H])[H])C3([H])C([H])([H])C([H])([N+]([H])([H])C([H])(C([H])([H])[H])C([H])([H])N([H])C(=O)N4C([H])([H])C([H])([H])C([H])([H])C([H])(n5nc(-c6c([H])c([H])c(Oc7c([H])c([H])c(F)c([H])c7F)c([H])c6[H])c(C(=O)N([H])[H])c5N([H])[H])C4([H])[H])C([H])([H])C([H])([H])[N+]3([H])C3([H])C([H])([H])C([H])([H])C3([H])[H])c([H])c([H])c2C1([H])[H]

>  <smiles>  (62) 
[H]c1c([H])c([H])c2c(c1[H])C([H])([H])C([H])([H])C([H])([H])C2([H])N([H])C(=O)C1([H])N(C(=O)C([H])(N([H])C(=O)C([H])(N([H])C([H])([H])[H])C([H])([H])[H])C(C([H])([H])[H])(C([H])([H])[H])C([H])([H])[H])C([H])([H])c2c([H])c(OC([H])([H])C([H])(C([H])([H])[H])C3([H])C([H])([H])C([H])([N+]([H])([H])C([H])(C([H])([H])[H])C([H])([H])N([H])C(=O)N4C([H])([H])C([H])([H])C([H])([H])C([H])(n5nc(-c6c([H])c([H])c(Oc7c([H])c([H])c(F)c([H])c7F)c([H])c6[H])c(C(=O)N([H])[H])c5N([H])[H])C4([H])[H])C([H])([H])C([H])([H])[N+]3([H])C3([H])C([H])([H])C([H])([H])C3([H])[H])c([H])c([H])c2C1([H])[H]

$$$$
62:0:0
     RDKit          3D

 96105  0  0  1  0  0  0  0  0999 V2000
  -32.8350  -20.5580   22.6160 C   0  0  0  0  0  3  0  0  0  0  0  0
  -32.1990  -19.3010   22.5940 C   0  0  0  0  0  3  0  0  0  0  0  0
  -32.2610  -21.6570   21.9490 C   0  0  0  0  0  3  0  0  0  0  0  0
  -30.4070  -20.2440   21.2410 C   0  0  0  0  0  3  0  0  0  0  0  0
  -30.9790  -19.1250   21.9030 C   0  0  0  0  0  0  0  0  0  0  0  0
  -31.0420  -21.5080   21.2540 C   0  0  0  0  0  0  0  0  0  0  0  0
  -30.8190  -14.5360   20.1580 C   0  0  0  0  0  0  0  0  0  0  0  0
  -30.4210  -12.4500   18.8880 C   0  0  0  0  0  2  0  0  0  0  0  0
  -29.3920  -12.6800   17.7640 C   0  0  0  0  0  2  0  0  0  0  0  0
  -27.9600  -12.4670   18.2900 C   0  0  0  0  0  2  0  0  0  0  0  0
  -27.6940  -13.2470   19.6020 C   0  0  0  0  0  3  0  0  0  0  0  0
  -28.8330  -13.0160   20.6290 C   0  0  0  0  0  2  0  0  0  0  0  0
  -30.1060  -13.3820   19.9870 N   0  0  0  0  0  0  0  0  0  0  0  0
  -31.9190  -14.6920   19.6160 O   0  0  0  0  0  0  0  0  0  0  0  0
  -29.1210  -17.6310   20.9460 C   0  0  0  0  0  2  0  0  0  0  0  0
  -28.9940  -16.1390   20.6760 C   0  0  0  0  0  2  0  0  0  0  0  0
  -31.1660  -16.5560   21.5460 C   0  0  0  0  0  2  0  0  0  0  0  0
  -30.2760  -17.7600   21.9280 C   0  0  1  0  0  0  0  0  0  0  0  0
  -30.3010  -15.5220   20.9400 N   0  0  0  0  0  0  0  0  0  0  0  0
  -25.3530  -13.8240   20.4960 C   0  0  0  0  0  0  0  0  0  0  0  0
  -24.3140  -13.0320   20.9000 C   0  0  0  0  0  0  0  0  0  0  0  0
  -24.7770  -11.6860   20.7830 C   0  0  0  0  0  0  0  0  0  0  0  0
  -26.3820  -12.9540   20.1610 N   0  0  0  0  0  0  0  0  0  0  0  0
  -26.0440  -11.6630   20.3920 N   0  0  0  0  0  0  0  0  0  0  0  0
  -24.0720  -10.4130   20.9610 C   0  0  0  0  0  0  0  0  0  0  0  0
  -24.5150   -9.4500   21.8940 C   0  0  0  0  0  3  0  0  0  0  0  0
  -23.8100   -8.2390   22.0610 C   0  0  0  0  0  3  0  0  0  0  0  0
  -22.6480   -7.9840   21.2940 C   0  0  0  0  0  0  0  0  0  0  0  0
  -22.2250   -8.9370   20.3500 C   0  0  0  0  0  3  0  0  0  0  0  0
  -22.9310  -10.1390   20.1820 C   0  0  0  0  0  3  0  0  0  0  0  0
  -21.9130   -6.8270   21.3720 O   0  0  0  0  0  0  0  0  0  0  0  0
  -21.7840   -6.1350   22.5500 C   0  0  0  0  0  0  0  0  0  0  0  0
  -21.2310   -6.7300   23.7060 C   0  0  0  0  0  3  0  0  0  0  0  0
  -21.0520   -5.9620   24.8740 C   0  0  0  0  0  3  0  0  0  0  0  0
  -21.4150   -4.6010   24.8860 C   0  0  0  0  0  0  0  0  0  0  0  0
  -21.9590   -4.0080   23.7340 C   0  0  0  0  0  3  0  0  0  0  0  0
  -22.1410   -4.7730   22.5680 C   0  0  0  0  0  0  0  0  0  0  0  0
  -22.6480   -4.1900   21.4550 F   0  0  0  0  0  0  0  0  0  0  0  0
  -21.2360   -3.8620   26.0060 F   0  0  0  0  0  0  0  0  0  0  0  0
  -22.9350  -13.4890   21.2800 C   0  0  0  0  0  0  0  0  0  0  0  0
  -22.2680  -12.7560   22.1650 N   0  0  0  0  0  0  0  0  0  0  0  0
  -22.4590  -14.5310   20.8310 O   0  0  0  0  0  0  0  0  0  0  0  0
  -22.6670  -11.9120   22.5500 H   0  0  0  0  0  0  0  0  0  0  0  0
  -21.3480  -13.0420   22.4620 H   0  0  0  0  0  0  0  0  0  0  0  0
  -25.4990  -15.2020   20.3630 N   0  0  0  0  0  0  0  0  0  0  0  0
  -24.7360  -15.8430   20.5460 H   0  0  0  0  0  0  0  0  0  0  0  0
  -26.3170  -15.6600   19.9840 H   0  0  0  0  0  0  0  0  0  0  0  0
  -29.7940  -17.5100   23.2310 O   0  0  0  0  0  0  0  0  0  0  0  0
  -29.2670  -18.2620   23.4790 H   0  0  0  0  0  0  0  0  0  0  0  0
  -30.4350  -22.6840   20.4870 C   0  0  0  0  0  2  0  0  0  0  0  0
  -29.2580  -23.2670   21.1710 N   0  0  0  0  0  4  0  0  0  0  0  0
  -29.5410  -23.6080   22.0770 H   0  0  0  0  0  0  0  0  0  0  0  0
  -28.6100  -22.5120   21.3280 H   0  0  0  0  0  0  0  0  0  0  0  0
  -28.5450  -24.3360   20.4130 C   0  0  0  0  0  2  0  0  0  0  0  0
  -28.9020  -25.7630   20.8820 C   0  0  0  0  0  2  0  0  0  0  0  0
  -28.5910  -26.7330   19.8810 O   0  0  0  0  0  0  0  0  0  0  0  0
  -24.6200  -31.6930   23.1470 C   0  0  0  0  0  0  0  0  0  0  0  0
  -27.3920  -27.3920   19.9930 C   0  0  0  0  0  0  0  0  0  0  0  0
  -23.4610  -30.3150   21.4490 C   0  0  0  0  0  3  0  0  0  0  0  0
  -24.9620  -28.8290   20.0210 C   0  0  0  0  0  0  0  0  0  0  0  0
  -25.9800  -30.7240   21.2980 C   0  0  0  0  0  2  0  0  0  0  0  0
  -26.1000  -29.3670   20.6350 C   0  0  0  0  0  0  0  0  0  0  0  0
  -27.3190  -28.6550   20.6180 C   0  0  0  0  0  3  0  0  0  0  0  0
  -26.2390  -26.8570   19.3830 C   0  0  0  0  0  3  0  0  0  0  0  0
  -25.0230  -27.5690   19.3980 C   0  0  0  0  0  3  0  0  0  0  0  0
  -23.7060  -29.6700   20.0580 C   0  0  0  0  0  2  0  0  0  0  0  0
  -24.7050  -30.9250   22.0240 N   0  0  0  0  0  0  0  0  0  0  0  0
  -23.5270  -31.9330   23.6790 O   0  0  0  0  0  0  0  0  0  0  0  0
  -22.8120  -29.2610   22.3740 C   0  0  0  0  0  0  0  0  0  0  0  0
  -21.4890  -29.0780   22.2340 N   0  0  0  0  0  0  0  0  0  0  0  0
  -23.4940  -28.6130   23.1700 O   0  0  0  0  0  0  0  0  0  0  0  0
  -20.9990  -29.6540   21.5650 H   0  0  0  0  0  0  0  0  0  0  0  0
  -18.1160  -27.8760   22.7060 C   0  0  0  0  0  0  0  0  0  0  0  0
  -20.6760  -28.1110   22.9700 C   0  0  0  0  0  3  0  0  0  0  0  0
  -20.7700  -26.7060   22.3320 C   0  0  0  0  0  2  0  0  0  0  0  0
  -19.6580  -26.4320   21.3140 C   0  0  0  0  0  2  0  0  0  0  0  0
  -18.2820  -26.5570   21.9730 C   0  0  0  0  0  2  0  0  0  0  0  0
  -19.2400  -28.6140   23.1610 C   0  0  0  0  0  0  0  0  0  0  0  0
  -19.0330  -29.8530   23.8050 C   0  0  0  0  0  3  0  0  0  0  0  0
  -17.7300  -30.3520   24.0010 C   0  0  0  0  0  3  0  0  0  0  0  0
  -16.6210  -29.6100   23.5620 C   0  0  0  0  0  3  0  0  0  0  0  0
  -16.8130  -28.3740   22.9190 C   0  0  0  0  0  3  0  0  0  0  0  0
  -25.8890  -32.3260   23.8020 C   0  0  0  0  0  3  0  0  0  0  0  0
  -25.5650  -33.7180   24.1430 N   0  0  0  0  0  0  0  0  0  0  0  0
  -25.9010  -34.7810   23.3990 C   0  0  0  0  0  0  0  0  0  0  0  0
  -26.5880  -34.6930   22.3790 O   0  0  0  0  0  0  0  0  0  0  0  0
  -24.9580  -33.8600   24.9370 H   0  0  0  0  0  0  0  0  0  0  0  0
  -24.1680  -36.5640   23.0210 C   0  0  0  0  0  1  0  0  0  0  0  0
  -25.3910  -36.1600   23.8590 C   0  0  0  0  0  3  0  0  0  0  0  0
  -27.4960  -37.0530   24.7580 C   0  0  0  0  0  1  0  0  0  0  0  0
  -26.4180  -37.2210   23.7850 N   0  0  0  0  0  0  0  0  0  0  0  0
  -26.0010  -38.1370   23.9320 H   0  0  0  0  0  0  0  0  0  0  0  0
  -26.3930  -31.5380   25.0730 C   0  0  1  0  0  0  0  0  0  0  0  0
  -25.2840  -31.2680   26.1160 C   0  0  0  0  0  1  0  0  0  0  0  0
  -26.9980  -30.1740   24.6670 C   0  0  0  0  0  1  0  0  0  0  0  0
  -27.5240  -32.3310   25.7690 C   0  0  0  0  0  1  0  0  0  0  0  0
  2  1  1  0
  3  1  2  0
  4  6  2  0
  4  5  1  0
  5 18  1  0
  5  2  2  0
  6  3  1  0
  7 19  1  0
  8 13  1  0
  9 10  1  0
  9  8  1  0
 11 10  1  0
 11 23  1  0
 11 12  1  0
 13  7  1  0
 13 12  1  0
 14  7  2  0
 15 18  1  0
 16 19  1  0
 16 15  1  0
 17 18  1  0
 18 48  1  1
 19 17  1  0
 20 21  2  0
 21 40  1  0
 22 21  1  0
 22 25  1  0
 23 24  1  0
 23 20  1  0
 24 22  2  0
 25 26  1  0
 26 27  2  0
 28 31  1  0
 28 27  1  0
 29 28  2  0
 30 29  1  0
 30 25  2  0
 31 32  1  0
 32 37  2  0
 32 33  1  0
 33 34  2  0
 34 35  1  0
 35 39  1  0
 36 35  2  0
 37 36  1  0
 38 37  1  0
 40 41  1  0
 41 44  1  0
 41 43  1  0
 42 40  2  0
 45 20  1  0
 45 46  1  0
 47 45  1  0
 48 49  1  0
 50 51  1  0
 50  6  1  0
 51 53  1  0
 51 52  1  0
 54 55  1  0
 54 51  1  0
 56 58  1  0
 56 55  1  0
 57 68  2  0
 58 63  1  0
 59 67  1  0
 59 69  1  0
 60 66  1  0
 60 62  1  0
 61 67  1  0
 62 61  1  0
 63 62  2  0
 64 65  1  0
 64 58  2  0
 65 60  2  0
 66 59  1  0
 67 57  1  0
 69 71  2  0
 70 69  1  0
 72 70  1  0
 73 82  2  0
 73 78  1  0
 74 70  1  0
 74 78  1  0
 75 74  1  0
 76 77  1  0
 76 75  1  0
 77 73  1  0
 78 79  2  0
 79 80  1  0
 81 80  2  0
 82 81  1  0
 83 57  1  0
 83 84  1  0
 83 93  1  0
 84 87  1  0
 85 89  1  0
 85 84  1  0
 86 85  2  0
 89 88  1  0
 91 89  1  0
 91 92  1  0
 91 90  1  0
 93 96  1  1
 93 94  1  0
 95 93  1  0
M  ISO  4   7 100  19 100  55 101  56 101
M  END
>  <TORSDO>  (63) 
F 21

>  <SCORE>  (63) 
-12.831

>  <name>  (63) 
62

>  <ligand_id>  (63) 
62

>  <original_smiles>  (63) 
[H]OC1(c2c([H])c([H])c([H])c(C([H])([H])[N+]([H])([H])C([H])([H])C([H])([H])Oc3c([H])c([H])c4c(c3[H])C([H])([H])N(C(=O)C([H])(N([H])C(=O)C([H])(N([H])C([H])([H])[H])C([H])([H])[H])C(C([H])([H])[H])(C([H])([H])[H])C([H])([H])[H])C([H])(C(=O)N([H])C3([H])c5c([H])c([H])c([H])c([H])c5C([H])([H])C([H])([H])C3([H])[H])C4([H])[H])c2[H])C([H])([H])N(C(=O)N2C([H])([H])C([H])([H])C([H])([H])C([H])(n3nc(-c4c([H])c([H])c(Oc5c([H])c([H])c(F)c([H])c5F)c([H])c4[H])c(C(=O)N([H])[H])c3N([H])[H])C2([H])[H])C([H])([H])C1([H])[H]

>  <smiles>  (63) 
[H]OC1(c2c([H])c([H])c([H])c(C([H])([H])[N+]([H])([H])C([H])([H])C([H])([H])Oc3c([H])c([H])c4c(c3[H])C([H])([H])N(C(=O)C([H])(N([H])C(=O)C([H])(N([H])C([H])([H])[H])C([H])([H])[H])C(C([H])([H])[H])(C([H])([H])[H])C([H])([H])[H])C([H])(C(=O)N([H])C3([H])c5c([H])c([H])c([H])c([H])c5C([H])([H])C([H])([H])C3([H])[H])C4([H])[H])c2[H])C([H])([H])N(C(=O)N2C([H])([H])C([H])([H])C([H])([H])C([H])(n3nc(-c4c([H])c([H])c(Oc5c([H])c([H])c(F)c([H])c5F)c([H])c4[H])c(C(=O)N([H])[H])c3N([H])[H])C2([H])[H])C([H])([H])C1([H])[H]

$$$$
63:0:0
     RDKit          3D

 98107  0  0  1  0  0  0  0  0999 V2000
  -32.0600  -17.3910   20.7690 C   0  0  0  0  0  2  0  0  0  0  0  0
  -29.8420  -18.4820   20.1900 C   0  0  0  0  0  2  0  0  0  0  0  0
  -32.6330  -18.8020   20.5890 C   0  0  0  0  0  2  0  0  0  0  0  0
  -30.7710  -17.1880   19.9530 C   0  0  0  0  0  3  0  0  0  0  0  0
  -30.5400  -19.9470   20.1940 C   0  0  0  0  0  3  0  0  0  0  0  0
  -31.6900  -19.7890   21.1420 N   0  0  0  0  0  0  0  0  0  0  0  0
  -30.8000  -14.5870   19.8990 C   0  0  0  0  0  0  0  0  0  0  0  0
  -30.4160  -12.2740   19.0600 C   0  0  0  0  0  2  0  0  0  0  0  0
  -29.4780  -12.3300   17.8400 C   0  0  0  0  0  2  0  0  0  0  0  0
  -28.0090  -12.2530   18.2950 C   0  0  0  0  0  2  0  0  0  0  0  0
  -27.6920  -13.2270   19.4650 C   0  0  0  0  0  3  0  0  0  0  0  0
  -28.7710  -13.1900   20.5740 C   0  0  0  0  0  2  0  0  0  0  0  0
  -30.0730  -13.4180   19.9380 N   0  0  0  0  0  0  0  0  0  0  0  0
  -31.9400  -14.5800   19.4410 O   0  0  0  0  0  0  0  0  0  0  0  0
  -30.1960  -15.7920   20.1980 N   0  0  0  0  0  0  0  0  0  0  0  0
  -29.2470  -15.7410   20.5390 H   0  0  0  0  0  0  0  0  0  0  0  0
  -25.3310  -13.9290   20.1860 C   0  0  0  0  0  0  0  0  0  0  0  0
  -24.2510  -13.2130   20.6260 C   0  0  0  0  0  0  0  0  0  0  0  0
  -24.6740  -11.8490   20.6790 C   0  0  0  0  0  0  0  0  0  0  0  0
  -26.3480  -13.0070   19.9950 N   0  0  0  0  0  0  0  0  0  0  0  0
  -25.9590  -11.7540   20.3510 N   0  0  0  0  0  0  0  0  0  0  0  0
  -23.9120  -10.6250   20.9630 C   0  0  0  0  0  0  0  0  0  0  0  0
  -24.3430   -9.6970   21.9350 C   0  0  0  0  0  3  0  0  0  0  0  0
  -23.5830   -8.5400   22.2100 C   0  0  0  0  0  3  0  0  0  0  0  0
  -22.3730   -8.3020   21.5120 C   0  0  0  0  0  0  0  0  0  0  0  0
  -21.9600   -9.2170   20.5270 C   0  0  0  0  0  3  0  0  0  0  0  0
  -22.7220  -10.3650   20.2510 C   0  0  0  0  0  3  0  0  0  0  0  0
  -21.5850   -7.1920   21.6920 O   0  0  0  0  0  0  0  0  0  0  0  0
  -21.6270   -6.4580   22.8500 C   0  0  0  0  0  0  0  0  0  0  0  0
  -21.2940   -7.0200   24.1030 C   0  0  0  0  0  3  0  0  0  0  0  0
  -21.2850   -6.2110   25.2580 C   0  0  0  0  0  3  0  0  0  0  0  0
  -21.5990   -4.8420   25.1620 C   0  0  0  0  0  0  0  0  0  0  0  0
  -21.9250   -4.2800   23.9150 C   0  0  0  0  0  3  0  0  0  0  0  0
  -21.9370   -5.0860   22.7630 C   0  0  0  0  0  0  0  0  0  0  0  0
  -22.2300   -4.5350   21.5600 F   0  0  0  0  0  0  0  0  0  0  0  0
  -21.5840   -4.0610   26.2700 F   0  0  0  0  0  0  0  0  0  0  0  0
  -22.8730  -13.7510   20.8870 C   0  0  0  0  0  0  0  0  0  0  0  0
  -22.1570  -13.1690   21.8420 N   0  0  0  0  0  0  0  0  0  0  0  0
  -22.4400  -14.7280   20.2770 O   0  0  0  0  0  0  0  0  0  0  0  0
  -22.5190  -12.3790   22.3550 H   0  0  0  0  0  0  0  0  0  0  0  0
  -21.2340  -13.5160   22.0580 H   0  0  0  0  0  0  0  0  0  0  0  0
  -25.5250  -15.2780   19.9100 N   0  0  0  0  0  0  0  0  0  0  0  0
  -24.7720  -15.9520   19.9850 H   0  0  0  0  0  0  0  0  0  0  0  0
  -26.3780  -15.6770   19.5370 H   0  0  0  0  0  0  0  0  0  0  0  0
  -33.3860  -20.6250   22.8350 C   0  0  0  0  0  2  0  0  0  0  0  0
  -34.6930  -21.3480   22.4770 C   0  0  0  0  0  2  0  0  0  0  0  0
  -33.1770  -21.8290   20.6940 C   0  0  0  0  0  2  0  0  0  0  0  0
  -32.3870  -20.9730   21.7080 C   0  0  0  0  0  3  0  0  0  0  0  0
  -34.6010  -21.7100   21.0540 N   0  0  0  0  0  4  0  0  0  0  0  0
  -35.0220  -20.9850   20.4980 H   0  0  0  0  0  0  0  0  0  0  0  0
  -35.0950  -22.5690   20.8700 H   0  0  0  0  0  0  0  0  0  0  0  0
  -29.6180  -21.2790   20.4500 C   0  0  0  0  0  3  0  0  0  0  0  0
  -27.2530  -22.0760   21.2170 C   0  0  0  0  0  1  0  0  0  0  0  0
  -28.1610  -20.8960   20.8190 C   0  0  0  0  0  2  0  0  0  0  0  0
  -29.6560  -22.5310   19.4380 C   0  0  0  0  0  2  0  0  0  0  0  0
  -29.6900  -24.0260   20.0480 C   0  0  0  0  0  3  0  0  0  0  0  0
  -28.6650  -25.1350   19.5270 C   0  0  0  0  0  3  0  0  0  0  0  0
  -28.7680  -26.5350   20.0290 O   0  0  0  0  0  0  0  0  0  0  0  0
  -24.7680  -31.5780   23.3000 C   0  0  0  0  0  0  0  0  0  0  0  0
  -27.6300  -27.3600   19.9790 C   0  0  0  0  0  0  0  0  0  0  0  0
  -23.6620  -30.2560   21.5310 C   0  0  0  0  0  3  0  0  0  0  0  0
  -25.2060  -28.8840   20.0220 C   0  0  0  0  0  0  0  0  0  0  0  0
  -26.1880  -30.6880   21.4370 C   0  0  0  0  0  2  0  0  0  0  0  0
  -26.3370  -29.3660   20.6930 C   0  0  0  0  0  0  0  0  0  0  0  0
  -27.5500  -28.6130   20.6660 C   0  0  0  0  0  3  0  0  0  0  0  0
  -26.4810  -26.9550   19.2600 C   0  0  0  0  0  3  0  0  0  0  0  0
  -25.2820  -27.6910   19.2910 C   0  0  0  0  0  3  0  0  0  0  0  0
  -23.9330  -29.7020   20.1080 C   0  0  0  0  0  2  0  0  0  0  0  0
  -24.8890  -30.8550   22.1470 N   0  0  0  0  0  0  0  0  0  0  0  0
  -23.6620  -31.7720   23.8240 O   0  0  0  0  0  0  0  0  0  0  0  0
  -23.0240  -29.1430   22.4000 C   0  0  0  0  0  0  0  0  0  0  0  0
  -21.6960  -28.9760   22.2850 N   0  0  0  0  0  0  0  0  0  0  0  0
  -23.7230  -28.4430   23.1360 O   0  0  0  0  0  0  0  0  0  0  0  0
  -21.1930  -29.5950   21.6660 H   0  0  0  0  0  0  0  0  0  0  0  0
  -18.3370  -27.6960   22.7040 C   0  0  0  0  0  0  0  0  0  0  0  0
  -20.8940  -27.9640   22.9770 C   0  0  0  0  0  3  0  0  0  0  0  0
  -21.0080  -26.5920   22.2730 C   0  0  0  0  0  2  0  0  0  0  0  0
  -19.8990  -26.3460   21.2450 C   0  0  0  0  0  2  0  0  0  0  0  0
  -18.5220  -26.4160   21.9080 C   0  0  0  0  0  2  0  0  0  0  0  0
  -19.4500  -28.4320   23.1920 C   0  0  0  0  0  0  0  0  0  0  0  0
  -19.2190  -29.6330   23.8970 C   0  0  0  0  0  3  0  0  0  0  0  0
  -17.9080  -30.0980   24.1170 C   0  0  0  0  0  3  0  0  0  0  0  0
  -16.8110  -29.3590   23.6410 C   0  0  0  0  0  3  0  0  0  0  0  0
  -17.0260  -28.1600   22.9390 C   0  0  0  0  0  3  0  0  0  0  0  0
  -26.0110  -32.2090   23.9990 C   0  0  0  0  0  3  0  0  0  0  0  0
  -25.6940  -33.6180   24.2730 N   0  0  0  0  0  0  0  0  0  0  0  0
  -26.1410  -34.6540   23.5490 C   0  0  0  0  0  0  0  0  0  0  0  0
  -26.9310  -34.5210   22.6100 O   0  0  0  0  0  0  0  0  0  0  0  0
  -25.0040  -33.7960   24.9880 H   0  0  0  0  0  0  0  0  0  0  0  0
  -24.5170  -36.4810   22.9600 C   0  0  0  0  0  1  0  0  0  0  0  0
  -25.6350  -36.0600   23.9270 C   0  0  0  0  0  3  0  0  0  0  0  0
  -27.6570  -36.9170   25.0240 C   0  0  0  0  0  1  0  0  0  0  0  0
  -26.6990  -37.0860   23.9340 N   0  0  0  0  0  0  0  0  0  0  0  0
  -26.3010  -38.0190   24.0000 H   0  0  0  0  0  0  0  0  0  0  0  0
  -26.4220  -31.4620   25.3270 C   0  0  1  0  0  0  0  0  0  0  0  0
  -25.2560  -31.2860   26.3290 C   0  0  0  0  0  1  0  0  0  0  0  0
  -26.9800  -30.0540   25.0130 C   0  0  0  0  0  1  0  0  0  0  0  0
  -27.5570  -32.2410   26.0330 C   0  0  0  0  0  1  0  0  0  0  0  0
  2  5  1  0
  3  1  1  0
  4  2  1  0
  4 15  1  0
  4  1  1  0
  5 52  1  0
  5  6  1  0
  6  3  1  0
  6 48  1  0
  7 13  1  0
  7 15  1  0
  8 13  1  0
  9 10  1  0
  9  8  1  0
 11 10  1  0
 11 20  1  0
 11 12  1  0
 13 12  1  0
 14  7  2  0
 15 16  1  0
 17 18  2  0
 18 19  1  0
 18 37  1  0
 19 22  1  0
 20 17  1  0
 20 21  1  0
 21 19  2  0
 22 23  1  0
 23 24  2  0
 25 28  1  0
 25 24  1  0
 26 25  2  0
 27 26  1  0
 27 22  2  0
 28 29  1  0
 29 30  1  0
 30 31  2  0
 32 31  1  0
 32 36  1  0
 33 32  2  0
 34 29  2  0
 34 33  1  0
 35 34  1  0
 37 38  1  0
 38 41  1  0
 38 40  1  0
 39 37  2  0
 42 43  1  0
 42 17  1  0
 44 42  1  0
 46 45  1  0
 47 49  1  0
 48 47  1  0
 48 45  1  0
 49 46  1  0
 50 49  1  0
 51 49  1  0
 52 55  1  0
 52 54  1  0
 54 53  1  0
 55 56  1  0
 57 58  1  0
 57 56  2  0
 59 70  2  0
 60 58  1  0
 60 65  1  0
 61 69  1  0
 61 71  1  0
 62 68  1  0
 62 64  1  0
 63 69  1  0
 64 63  1  0
 65 64  2  0
 66 67  1  0
 66 60  2  0
 67 62  2  0
 68 61  1  0
 69 59  1  0
 71 73  2  0
 72 71  1  0
 74 72  1  0
 75 84  2  0
 75 80  1  0
 76 72  1  0
 76 80  1  0
 77 76  1  0
 78 79  1  0
 78 77  1  0
 79 75  1  0
 80 81  2  0
 81 82  1  0
 83 82  2  0
 84 83  1  0
 85 59  1  0
 85 86  1  0
 85 95  1  0
 86 89  1  0
 87 91  1  0
 87 86  1  0
 88 87  2  0
 91 90  1  0
 91 93  1  0
 93 94  1  0
 93 92  1  0
 95 98  1  1
 95 96  1  0
 97 95  1  0
M  ISO  4   7 100  15 100  57 101  58 101
M  END
>  <TORSDO>  (64) 
F 22

>  <SCORE>  (64) 
-11.981

>  <name>  (64) 
63

>  <ligand_id>  (64) 
63

>  <original_smiles>  (64) 
[H]c1c([H])c([H])c2c(c1[H])C([H])([H])C([H])([H])C([H])([H])C2([H])N([H])C(=O)C1([H])N(C(=O)C([H])(N([H])C(=O)C([H])(N([H])C([H])([H])[H])C([H])([H])[H])C(C([H])([H])[H])(C([H])([H])[H])C([H])([H])[H])C([H])([H])c2c([H])c(OC([H])([H])C([H])([H])C([H])([H])C([H])(C([H])([H])C([H])([H])[H])C3([H])N(C4([H])C([H])([H])C([H])([H])[N+]([H])([H])C4([H])[H])C([H])([H])C([H])([H])C([H])(N([H])C(=O)N4C([H])([H])C([H])([H])C([H])([H])C([H])(n5nc(-c6c([H])c([H])c(Oc7c([H])c([H])c(F)c([H])c7F)c([H])c6[H])c(C(=O)N([H])[H])c5N([H])[H])C4([H])[H])C3([H])[H])c([H])c([H])c2C1([H])[H]

>  <smiles>  (64) 
[H]c1c([H])c([H])c2c(c1[H])C([H])([H])C([H])([H])C([H])([H])C2([H])N([H])C(=O)C1([H])N(C(=O)C([H])(N([H])C(=O)C([H])(N([H])C([H])([H])[H])C([H])([H])[H])C(C([H])([H])[H])(C([H])([H])[H])C([H])([H])[H])C([H])([H])c2c([H])c(OC([H])([H])C([H])([H])C([H])([H])C([H])(C([H])([H])C([H])([H])[H])C3([H])N(C4([H])C([H])([H])C([H])([H])[N+]([H])([H])C4([H])[H])C([H])([H])C([H])([H])C([H])(N([H])C(=O)N4C([H])([H])C([H])([H])C([H])([H])C([H])(n5nc(-c6c([H])c([H])c(Oc7c([H])c([H])c(F)c([H])c7F)c([H])c6[H])c(C(=O)N([H])[H])c5N([H])[H])C4([H])[H])C3([H])[H])c([H])c([H])c2C1([H])[H]

$$$$
64:0:0
     RDKit          3D

 89 97  0  0  1  0  0  0  0  0999 V2000
  -31.2170  -19.5990   20.7870 C   0  0  0  0  0  3  0  0  0  0  0  0
  -30.9940  -20.9940   20.6910 C   0  0  0  0  0  3  0  0  0  0  0  0
  -28.8650  -19.2860   20.6140 C   0  0  0  0  0  3  0  0  0  0  0  0
  -30.1460  -18.6710   20.7820 C   0  0  0  0  0  0  0  0  0  0  0  0
  -29.6940  -21.5160   20.5650 C   0  0  0  0  0  0  0  0  0  0  0  0
  -28.6410  -20.6510   20.4990 N   0  0  0  0  0  0  0  0  0  0  0  0
  -30.5010  -17.1660   21.1870 C   0  0  0  0  0  2  0  0  0  0  0  0
  -30.6020  -14.7200   20.3690 C   0  0  0  0  0  0  0  0  0  0  0  0
  -30.3410  -12.4840   19.2960 C   0  0  0  0  0  2  0  0  0  0  0  0
  -29.3930  -12.5840   18.0820 C   0  0  0  0  0  2  0  0  0  0  0  0
  -27.9270  -12.4200   18.5260 C   0  0  0  0  0  2  0  0  0  0  0  0
  -27.5710  -13.2940   19.7590 C   0  0  0  0  0  3  0  0  0  0  0  0
  -28.6400  -13.1840   20.8680 C   0  0  0  0  0  2  0  0  0  0  0  0
  -29.9310  -13.5270   20.2610 N   0  0  0  0  0  0  0  0  0  0  0  0
  -31.7880  -14.7920   20.0390 O   0  0  0  0  0  0  0  0  0  0  0  0
  -29.8960  -15.8650   20.6910 N   0  0  0  0  0  0  0  0  0  0  0  0
  -28.9080  -15.7360   20.8510 H   0  0  0  0  0  0  0  0  0  0  0  0
  -25.1880  -13.8850   20.5000 C   0  0  0  0  0  0  0  0  0  0  0  0
  -24.1250  -13.1100   20.8760 C   0  0  0  0  0  0  0  0  0  0  0  0
  -24.5890  -11.7590   20.8460 C   0  0  0  0  0  0  0  0  0  0  0  0
  -26.2310  -13.0060   20.2590 N   0  0  0  0  0  0  0  0  0  0  0  0
  -25.8790  -11.7230   20.5320 N   0  0  0  0  0  0  0  0  0  0  0  0
  -23.8660  -10.4960   21.0400 C   0  0  0  0  0  0  0  0  0  0  0  0
  -24.3100   -9.5250   21.9640 C   0  0  0  0  0  3  0  0  0  0  0  0
  -23.5860   -8.3270   22.1480 C   0  0  0  0  0  3  0  0  0  0  0  0
  -22.4030   -8.0920   21.4070 C   0  0  0  0  0  0  0  0  0  0  0  0
  -21.9780   -9.0520   20.4720 C   0  0  0  0  0  3  0  0  0  0  0  0
  -22.7020  -10.2410   20.2860 C   0  0  0  0  0  3  0  0  0  0  0  0
  -21.6490   -6.9470   21.5010 O   0  0  0  0  0  0  0  0  0  0  0  0
  -21.6240   -6.1930   22.6460 C   0  0  0  0  0  0  0  0  0  0  0  0
  -21.2310   -6.7390   23.8880 C   0  0  0  0  0  3  0  0  0  0  0  0
  -21.1530   -5.9110   25.0260 C   0  0  0  0  0  3  0  0  0  0  0  0
  -21.4580   -4.5410   24.9240 C   0  0  0  0  0  0  0  0  0  0  0  0
  -21.8440   -3.9950   23.6880 C   0  0  0  0  0  3  0  0  0  0  0  0
  -21.9240   -4.8190   22.5510 C   0  0  0  0  0  0  0  0  0  0  0  0
  -22.2760   -4.2840   21.3570 F   0  0  0  0  0  0  0  0  0  0  0  0
  -21.3750   -3.7440   26.0160 F   0  0  0  0  0  0  0  0  0  0  0  0
  -22.7280  -13.5850   21.1510 C   0  0  0  0  0  0  0  0  0  0  0  0
  -22.0040  -12.8890   22.0200 N   0  0  0  0  0  0  0  0  0  0  0  0
  -22.2860  -14.6090   20.6290 O   0  0  0  0  0  0  0  0  0  0  0  0
  -22.3730  -12.0600   22.4620 H   0  0  0  0  0  0  0  0  0  0  0  0
  -21.0670  -13.1900   22.2480 H   0  0  0  0  0  0  0  0  0  0  0  0
  -25.3490  -15.2560   20.3170 N   0  0  0  0  0  0  0  0  0  0  0  0
  -24.5810  -15.9090   20.4280 H   0  0  0  0  0  0  0  0  0  0  0  0
  -26.1860  -15.6910   19.9520 H   0  0  0  0  0  0  0  0  0  0  0  0
  -29.5560  -22.9280   20.6190 O   0  0  0  0  0  0  0  0  0  0  0  0
  -28.4220  -23.7400   20.1610 C   0  0  0  0  0  2  0  0  0  0  0  0
  -28.2410  -25.1650   20.8930 C   0  0  0  0  0  2  0  0  0  0  0  0
  -28.3790  -26.4880   20.2240 O   0  0  0  0  0  0  0  0  0  0  0  0
  -24.6180  -31.8900   23.2450 C   0  0  0  0  0  0  0  0  0  0  0  0
  -27.2620  -27.3360   20.2150 C   0  0  0  0  0  0  0  0  0  0  0  0
  -23.4270  -30.4810   21.6030 C   0  0  0  0  0  3  0  0  0  0  0  0
  -24.8910  -28.9310   20.1870 C   0  0  0  0  0  0  0  0  0  0  0  0
  -25.9630  -30.8170   21.4220 C   0  0  0  0  0  2  0  0  0  0  0  0
  -26.0550  -29.4350   20.7820 C   0  0  0  0  0  0  0  0  0  0  0  0
  -27.2480  -28.6510   20.7810 C   0  0  0  0  0  3  0  0  0  0  0  0
  -26.0780  -26.8810   19.6020 C   0  0  0  0  0  3  0  0  0  0  0  0
  -24.9050  -27.6610   19.5880 C   0  0  0  0  0  3  0  0  0  0  0  0
  -23.6480  -29.8000   20.2260 C   0  0  0  0  0  2  0  0  0  0  0  0
  -24.6890  -31.0800   22.1480 N   0  0  0  0  0  0  0  0  0  0  0  0
  -23.5320  -32.1620   23.7770 O   0  0  0  0  0  0  0  0  0  0  0  0
  -22.7660  -29.4640   22.5650 C   0  0  0  0  0  0  0  0  0  0  0  0
  -21.4400  -29.2850   22.4400 N   0  0  0  0  0  0  0  0  0  0  0  0
  -23.4470  -28.8400   23.3840 O   0  0  0  0  0  0  0  0  0  0  0  0
  -20.9500  -29.8400   21.7530 H   0  0  0  0  0  0  0  0  0  0  0  0
  -18.0640  -28.0860   22.9420 C   0  0  0  0  0  0  0  0  0  0  0  0
  -20.6240  -28.3460   23.2100 C   0  0  0  0  0  3  0  0  0  0  0  0
  -20.7250  -26.9150   22.6330 C   0  0  0  0  0  2  0  0  0  0  0  0
  -19.6220  -26.5940   21.6200 C   0  0  0  0  0  2  0  0  0  0  0  0
  -18.2410  -26.7380   22.2650 C   0  0  0  0  0  2  0  0  0  0  0  0
  -19.1840  -28.8480   23.3720 C   0  0  0  0  0  0  0  0  0  0  0  0
  -18.9650  -30.1090   23.9660 C   0  0  0  0  0  3  0  0  0  0  0  0
  -17.6600  -30.6100   24.1350 C   0  0  0  0  0  3  0  0  0  0  0  0
  -16.5560  -29.8440   23.7220 C   0  0  0  0  0  3  0  0  0  0  0  0
  -16.7580  -28.5850   23.1310 C   0  0  0  0  0  3  0  0  0  0  0  0
  -25.8960  -32.5310   23.8700 C   0  0  0  0  0  3  0  0  0  0  0  0
  -26.4100  -31.7660   25.1520 C   0  0  1  0  0  0  0  0  0  0  0  0
  -25.3140  -31.5300   26.2180 C   0  0  0  0  0  1  0  0  0  0  0  0
  -26.9980  -30.3890   24.7670 C   0  0  0  0  0  1  0  0  0  0  0  0
  -27.5570  -32.5660   25.8140 C   0  0  0  0  0  1  0  0  0  0  0  0
  -25.5790  -33.9290   24.1970 N   0  0  0  0  0  0  0  0  0  0  0  0
  -25.9110  -34.9820   23.4380 C   0  0  0  0  0  0  0  0  0  0  0  0
  -26.5860  -34.8790   22.4100 O   0  0  0  0  0  0  0  0  0  0  0  0
  -24.9810  -34.0820   24.9950 H   0  0  0  0  0  0  0  0  0  0  0  0
  -24.1790  -36.7690   23.0720 C   0  0  0  0  0  1  0  0  0  0  0  0
  -25.4170  -36.3700   23.8910 C   0  0  0  0  0  3  0  0  0  0  0  0
  -27.5440  -37.2610   24.7320 C   0  0  0  0  0  1  0  0  0  0  0  0
  -26.4470  -37.4250   23.7830 N   0  0  0  0  0  0  0  0  0  0  0  0
  -26.0370  -38.3450   23.9280 H   0  0  0  0  0  0  0  0  0  0  0  0
  2  1  2  0
  3  4  2  0
  4  1  1  0
  4  7  1  0
  5 46  1  0
  5  2  1  0
  6  5  2  0
  6  3  1  0
  8 16  1  0
  9 14  1  0
 10 11  1  0
 10  9  1  0
 12 11  1  0
 12 21  1  0
 12 13  1  0
 14  8  1  0
 14 13  1  0
 15  8  2  0
 16 17  1  0
 16  7  1  0
 18 19  2  0
 19 38  1  0
 20 19  1  0
 20 23  1  0
 21 18  1  0
 21 22  1  0
 22 20  2  0
 23 24  1  0
 24 25  2  0
 26 29  1  0
 26 25  1  0
 27 26  2  0
 28 27  1  0
 28 23  2  0
 29 30  1  0
 30 31  1  0
 31 32  2  0
 33 32  1  0
 33 37  1  0
 34 33  2  0
 35 30  2  0
 35 34  1  0
 36 35  1  0
 38 39  1  0
 39 42  1  0
 39 41  1  0
 40 38  2  0
 43 44  1  0
 43 18  1  0
 45 43  1  0
 47 46  1  0
 47 48  1  0
 49 48  1  0
 50 61  2  0
 51 49  1  0
 51 56  1  0
 52 60  1  0
 52 62  1  0
 53 59  1  0
 53 55  1  0
 54 60  1  0
 55 54  1  0
 56 55  2  0
 57 51  2  0
 58 57  1  0
 58 53  2  0
 59 52  1  0
 60 50  1  0
 62 64  2  0
 63 62  1  0
 65 63  1  0
 66 75  2  0
 66 71  1  0
 67 63  1  0
 67 71  1  0
 68 67  1  0
 69 70  1  0
 69 68  1  0
 70 66  1  0
 71 72  2  0
 72 73  1  0
 74 73  2  0
 75 74  1  0
 76 50  1  0
 76 81  1  0
 76 77  1  0
 77 80  1  1
 77 78  1  0
 79 77  1  0
 81 84  1  0
 82 86  1  0
 82 81  1  0
 83 82  2  0
 86 85  1  0
 88 86  1  0
 88 89  1  0
 88 87  1  0
M  ISO  4   8 100  16 100  48 101  49 101
M  END
>  <TORSDO>  (65) 
F 20

>  <SCORE>  (65) 
-13.881

>  <name>  (65) 
64

>  <ligand_id>  (65) 
64

>  <original_smiles>  (65) 
[H]c1nc(OC([H])([H])C([H])([H])Oc2c([H])c([H])c3c(c2[H])C([H])([H])N(C(=O)C([H])(N([H])C(=O)C([H])(N([H])C([H])([H])[H])C([H])([H])[H])C(C([H])([H])[H])(C([H])([H])[H])C([H])([H])[H])C([H])(C(=O)N([H])C2([H])c4c([H])c([H])c([H])c([H])c4C([H])([H])C([H])([H])C2([H])[H])C3([H])[H])c([H])c([H])c1C([H])([H])N([H])C(=O)N1C([H])([H])C([H])([H])C([H])([H])C([H])(n2nc(-c3c([H])c([H])c(Oc4c([H])c([H])c(F)c([H])c4F)c([H])c3[H])c(C(=O)N([H])[H])c2N([H])[H])C1([H])[H]

>  <smiles>  (65) 
[H]c1nc(OC([H])([H])C([H])([H])Oc2c([H])c([H])c3c(c2[H])C([H])([H])N(C(=O)C([H])(N([H])C(=O)C([H])(N([H])C([H])([H])[H])C([H])([H])[H])C(C([H])([H])[H])(C([H])([H])[H])C([H])([H])[H])C([H])(C(=O)N([H])C2([H])c4c([H])c([H])c([H])c([H])c4C([H])([H])C([H])([H])C2([H])[H])C3([H])[H])c([H])c([H])c1C([H])([H])N([H])C(=O)N1C([H])([H])C([H])([H])C([H])([H])C([H])(n2nc(-c3c([H])c([H])c(Oc4c([H])c([H])c(F)c([H])c4F)c([H])c3[H])c(C(=O)N([H])[H])c2N([H])[H])C1([H])[H]

$$$$
65:0:0
     RDKit          3D

 99108  0  0  1  0  0  0  0  0999 V2000
  -29.0580  -22.0530   23.8190 C   0  0  0  0  0  3  0  0  0  0  0  0
  -30.5420  -23.2060   22.2710 C   0  0  0  0  0  3  0  0  0  0  0  0
  -30.1700  -21.5680   24.5350 C   0  0  0  0  0  3  0  0  0  0  0  0
  -31.6500  -22.7450   23.0010 C   0  0  0  0  0  3  0  0  0  0  0  0
  -29.2320  -22.8820   22.6890 C   0  0  0  0  0  0  0  0  0  0  0  0
  -31.4760  -21.9300   24.1450 C   0  0  0  0  0  0  0  0  0  0  0  0
  -27.9920  -23.4390   21.9980 C   0  0  0  0  0  2  0  0  0  0  0  0
  -28.0340  -25.0040   18.4690 C   0  0  0  0  0  2  0  0  0  0  0  0
  -27.6880  -26.7900   20.1570 C   0  0  0  0  0  2  0  0  0  0  0  0
  -27.9740  -23.9300   19.5760 C   0  0  0  0  0  2  0  0  0  0  0  0
  -27.6170  -25.7520   21.2880 C   0  0  0  0  0  2  0  0  0  0  0  0
  -27.1260  -26.1570   18.8880 C   0  0  0  0  0  3  0  0  0  0  0  0
  -28.2720  -24.4520   20.9480 N   0  0  1  0  0  4  0  0  0  0  0  0
  -29.2650  -24.6190   21.0020 H   0  0  0  0  0  0  0  0  0  0  0  0
  -26.8270  -27.1140   17.8520 O   0  0  0  0  0  0  0  0  0  0  0  0
  -24.6450  -31.1780   23.1810 C   0  0  0  0  0  0  0  0  0  0  0  0
  -25.7980  -27.9040   18.2900 C   0  0  0  0  0  0  0  0  0  0  0  0
  -22.8690  -30.1570   21.7920 C   0  0  0  0  0  3  0  0  0  0  0  0
  -23.6370  -29.1580   19.5740 C   0  0  0  0  0  0  0  0  0  0  0  0
  -25.1470  -30.7410   20.7850 C   0  0  0  0  0  2  0  0  0  0  0  0
  -24.9460  -29.5970   19.8160 C   0  0  0  0  0  0  0  0  0  0  0  0
  -26.0370  -28.9690   19.1820 C   0  0  0  0  0  3  0  0  0  0  0  0
  -24.4740  -27.5080   18.0060 C   0  0  0  0  0  3  0  0  0  0  0  0
  -23.3940  -28.1130   18.6670 C   0  0  0  0  0  3  0  0  0  0  0  0
  -22.5270  -29.8710   20.3080 C   0  0  0  0  0  2  0  0  0  0  0  0
  -24.2600  -30.6860   21.9690 N   0  0  0  0  0  0  0  0  0  0  0  0
  -23.8510  -31.2310   24.1300 O   0  0  0  0  0  0  0  0  0  0  0  0
  -22.5950  -28.8810   22.6200 C   0  0  0  0  0  0  0  0  0  0  0  0
  -21.3780  -28.3290   22.4790 N   0  0  0  0  0  0  0  0  0  0  0  0
  -23.4680  -28.3950   23.3450 O   0  0  0  0  0  0  0  0  0  0  0  0
  -20.7130  -28.7950   21.8760 H   0  0  0  0  0  0  0  0  0  0  0  0
  -18.8510  -25.7520   22.3420 C   0  0  0  0  0  0  0  0  0  0  0  0
  -20.9050  -27.1060   23.1290 C   0  0  0  0  0  3  0  0  0  0  0  0
  -21.7480  -25.8840   22.7000 C   0  0  0  0  0  2  0  0  0  0  0  0
  -21.1570  -25.1330   21.5020 C   0  0  0  0  0  2  0  0  0  0  0  0
  -19.7450  -24.6370   21.8260 C   0  0  0  0  0  2  0  0  0  0  0  0
  -19.3970  -26.9180   22.9390 C   0  0  0  0  0  0  0  0  0  0  0  0
  -18.5250  -27.9410   23.3690 C   0  0  0  0  0  3  0  0  0  0  0  0
  -17.1310  -27.8120   23.2120 C   0  0  0  0  0  3  0  0  0  0  0  0
  -16.5950  -26.6480   22.6330 C   0  0  0  0  0  3  0  0  0  0  0  0
  -17.4540  -25.6200   22.2040 C   0  0  0  0  0  3  0  0  0  0  0  0
  -26.0890  -31.7190   23.4250 C   0  0  0  0  0  3  0  0  0  0  0  0
  -25.9680  -32.9990   24.1320 N   0  0  0  0  0  0  0  0  0  0  0  0
  -26.2920  -34.1890   23.6090 C   0  0  0  0  0  0  0  0  0  0  0  0
  -26.7970  -34.3150   22.4910 O   0  0  0  0  0  0  0  0  0  0  0  0
  -25.5110  -32.9760   25.0320 H   0  0  0  0  0  0  0  0  0  0  0  0
  -24.7620  -36.1600   23.9210 C   0  0  0  0  0  1  0  0  0  0  0  0
  -26.0080  -35.4380   24.4620 C   0  0  0  0  0  3  0  0  0  0  0  0
  -28.2950  -35.8600   25.2510 C   0  0  0  0  0  1  0  0  0  0  0  0
  -27.1450  -36.3830   24.5180 N   0  0  0  0  0  0  0  0  0  0  0  0
  -26.8650  -37.2590   24.9540 H   0  0  0  0  0  0  0  0  0  0  0  0
  -26.9990  -30.7130   24.2300 C   0  0  1  0  0  0  0  0  0  0  0  0
  -26.3490  -30.1970   25.5330 C   0  0  0  0  0  1  0  0  0  0  0  0
  -27.3550  -29.4860   23.3580 C   0  0  0  0  0  1  0  0  0  0  0  0
  -28.3350  -31.3990   24.6010 C   0  0  0  0  0  1  0  0  0  0  0  0
  -32.6660  -21.4870   24.9960 C   0  0  0  0  0  2  0  0  0  0  0  0
  -33.8080  -21.0080   24.1940 N   0  0  0  0  0  4  0  0  0  0  0  0
  -34.4600  -20.5830   24.8350 H   0  0  0  0  0  0  0  0  0  0  0  0
  -34.2560  -21.8090   23.7770 H   0  0  0  0  0  0  0  0  0  0  0  0
  -33.4590  -20.0410   23.1340 C   0  0  0  0  0  2  0  0  0  0  0  0
  -34.1550  -20.3640   21.8010 C   0  0  0  0  0  2  0  0  0  0  0  0
  -35.3320  -19.1230   20.0830 C   0  0  0  0  0  0  0  0  0  0  0  0
  -35.1190  -17.4590   18.2800 C   0  0  0  0  0  2  0  0  0  0  0  0
  -34.2140  -17.9100   17.1280 C   0  0  0  0  0  2  0  0  0  0  0  0
  -32.7480  -17.5640   17.4280 C   0  0  0  0  0  2  0  0  0  0  0  0
  -32.2980  -18.0550   18.8250 C   0  0  0  0  0  3  0  0  0  0  0  0
  -33.3060  -17.6340   19.9060 C   0  0  0  0  0  2  0  0  0  0  0  0
  -34.6540  -18.0930   19.5220 N   0  0  0  0  0  0  0  0  0  0  0  0
  -36.2930  -19.6840   19.5570 O   0  0  0  0  0  0  0  0  0  0  0  0
  -35.0780  -19.3190   21.3800 N   0  0  0  0  0  0  0  0  0  0  0  0
  -35.9360  -19.3790   21.9090 H   0  0  0  0  0  0  0  0  0  0  0  0
  -29.7940  -18.3450   19.3460 C   0  0  0  0  0  0  0  0  0  0  0  0
  -28.7850  -17.4350   19.5320 C   0  0  0  0  0  0  0  0  0  0  0  0
  -29.3950  -16.1520   19.4050 C   0  0  0  0  0  0  0  0  0  0  0  0
  -30.9440  -17.6020   19.1400 N   0  0  0  0  0  0  0  0  0  0  0  0
  -30.7030  -16.2700   19.2290 N   0  0  0  0  0  0  0  0  0  0  0  0
  -28.7960  -14.8140   19.3870 C   0  0  0  0  0  0  0  0  0  0  0  0
  -29.1650  -13.8280   20.3290 C   0  0  0  0  0  3  0  0  0  0  0  0
  -28.5580  -12.5550   20.3100 C   0  0  0  0  0  3  0  0  0  0  0  0
  -27.5670  -12.2610   19.3440 C   0  0  0  0  0  0  0  0  0  0  0  0
  -27.2210  -13.2370   18.3940 C   0  0  0  0  0  3  0  0  0  0  0  0
  -27.8300  -14.5020   18.4140 C   0  0  0  0  0  3  0  0  0  0  0  0
  -26.9470  -11.0410   19.2260 O   0  0  0  0  0  0  0  0  0  0  0  0
  -26.4930  -10.3540   20.3240 C   0  0  0  0  0  0  0  0  0  0  0  0
  -25.5280  -10.9010   21.1970 C   0  0  0  0  0  3  0  0  0  0  0  0
  -25.0410  -10.1400   22.2780 C   0  0  0  0  0  3  0  0  0  0  0  0
  -25.5060   -8.8270   22.4790 C   0  0  0  0  0  0  0  0  0  0  0  0
  -26.4630   -8.2770   21.6070 C   0  0  0  0  0  3  0  0  0  0  0  0
  -26.9560   -9.0390   20.5350 C   0  0  0  0  0  0  0  0  0  0  0  0
  -27.8610   -8.4980   19.6860 F   0  0  0  0  0  0  0  0  0  0  0  0
  -25.0340   -8.0910   23.5130 F   0  0  0  0  0  0  0  0  0  0  0  0
  -27.3270  -17.7360   19.7000 C   0  0  0  0  0  0  0  0  0  0  0  0
  -26.6010  -16.8810   20.4210 N   0  0  0  0  0  0  0  0  0  0  0  0
  -26.8230  -18.7510   19.2220 O   0  0  0  0  0  0  0  0  0  0  0  0
  -27.0090  -16.0540   20.8370 H   0  0  0  0  0  0  0  0  0  0  0  0
  -25.6100  -17.0360   20.5370 H   0  0  0  0  0  0  0  0  0  0  0  0
  -29.8260  -19.7310   19.3280 N   0  0  0  0  0  0  0  0  0  0  0  0
  -29.0000  -20.3070   19.4370 H   0  0  0  0  0  0  0  0  0  0  0  0
  -30.6570  -20.2790   19.1540 H   0  0  0  0  0  0  0  0  0  0  0  0
  1  3  1  0
  2  5  1  0
  2  4  2  0
  4  6  1  0
  5  1  2  0
  6  3  2  0
  6 56  1  0
  7  5  1  0
  8 12  1  0
  8 10  1  0
  9 11  1  0
 10 13  1  0
 12 15  1  0
 12  9  1  0
 13 14  1  6
 13 11  1  0
 13  7  1  0
 15 17  1  0
 16 27  2  0
 17 22  1  0
 18 26  1  0
 18 28  1  0
 19 21  1  0
 19 25  1  0
 20 26  1  0
 21 20  1  0
 22 21  2  0
 23 17  2  0
 23 24  1  0
 24 19  2  0
 25 18  1  0
 26 16  1  0
 28 30  2  0
 29 28  1  0
 31 29  1  0
 32 37  1  0
 33 29  1  0
 34 33  1  0
 35 36  1  0
 35 34  1  0
 36 32  1  0
 37 33  1  0
 37 38  2  0
 39 38  1  0
 40 39  2  0
 41 32  2  0
 41 40  1  0
 42 16  1  0
 42 43  1  0
 42 52  1  0
 43 46  1  0
 44 43  1  0
 44 48  1  0
 45 44  2  0
 48 47  1  0
 48 50  1  0
 50 51  1  0
 50 49  1  0
 52 55  1  1
 52 53  1  0
 54 52  1  0
 57 58  1  0
 57 56  1  0
 59 57  1  0
 60 57  1  0
 61 60  1  0
 62 70  1  0
 63 68  1  0
 64 65  1  0
 64 63  1  0
 66 65  1  0
 66 75  1  0
 66 67  1  0
 68 67  1  0
 68 62  1  0
 69 62  2  0
 70 61  1  0
 70 71  1  0
 72 73  2  0
 73 92  1  0
 74 73  1  0
 75 76  1  0
 75 72  1  0
 76 74  2  0
 77 74  1  0
 77 78  1  0
 79 78  2  0
 80 79  1  0
 81 82  1  0
 81 80  2  0
 82 77  2  0
 83 80  1  0
 83 84  1  0
 84 89  2  0
 84 85  1  0
 85 86  2  0
 86 87  1  0
 87 91  1  0
 88 87  2  0
 89 88  1  0
 90 89  1  0
 92 93  1  0
 93 96  1  0
 93 95  1  0
 94 92  2  0
 97 72  1  0
 97 98  1  0
 99 97  1  0
M  ISO  4  12 101  15 101  62 100  70 100
M  END
>  <TORSDO>  (66) 
F 22

>  <SCORE>  (66) 
-2.055

>  <name>  (66) 
65

>  <ligand_id>  (66) 
65

>  <original_smiles>  (66) 
[H]c1c([H])c([H])c2c(c1[H])C([H])([H])C([H])([H])C([H])([H])C2([H])N([H])C(=O)C1([H])N(C(=O)C([H])(N([H])C(=O)C([H])(N([H])C([H])([H])[H])C([H])([H])[H])C(C([H])([H])[H])(C([H])([H])[H])C([H])([H])[H])C([H])([H])c2c([H])c(OC3([H])C([H])([H])C([H])([H])[N+]([H])(C([H])([H])c4c([H])c([H])c(C([H])([H])[N+]([H])([H])C([H])([H])C([H])([H])N([H])C(=O)N5C([H])([H])C([H])([H])C([H])([H])C([H])(n6nc(-c7c([H])c([H])c(Oc8c([H])c([H])c(F)c([H])c8F)c([H])c7[H])c(C(=O)N([H])[H])c6N([H])[H])C5([H])[H])c([H])c4[H])C([H])([H])C3([H])[H])c([H])c([H])c2C1([H])[H]

>  <smiles>  (66) 
[H]c1c([H])c([H])c2c(c1[H])C([H])([H])C([H])([H])C([H])([H])C2([H])N([H])C(=O)C1([H])N(C(=O)C([H])(N([H])C(=O)C([H])(N([H])C([H])([H])[H])C([H])([H])[H])C(C([H])([H])[H])(C([H])([H])[H])C([H])([H])[H])C([H])([H])c2c([H])c(OC3([H])C([H])([H])C([H])([H])[N+]([H])(C([H])([H])c4c([H])c([H])c(C([H])([H])[N+]([H])([H])C([H])([H])C([H])([H])N([H])C(=O)N5C([H])([H])C([H])([H])C([H])([H])C([H])(n6nc(-c7c([H])c([H])c(Oc8c([H])c([H])c(F)c([H])c8F)c([H])c7[H])c(C(=O)N([H])[H])c6N([H])[H])C5([H])[H])c([H])c4[H])C([H])([H])C3([H])[H])c([H])c([H])c2C1([H])[H]

$$$$
66:0:0
     RDKit          3D

 97106  0  0  1  0  0  0  0  0999 V2000
  -29.5310  -20.0690   20.8050 C   0  0  0  0  0  2  0  0  0  0  0  0
  -32.9530  -19.6330   19.8500 C   0  0  0  0  0  2  0  0  0  0  0  0
  -32.5150  -19.6160   21.3330 C   0  0  0  0  0  2  0  0  0  0  0  0
  -31.7670  -19.5260   18.8560 C   0  0  0  0  0  3  0  0  0  0  0  0
  -31.3750  -18.6080   21.6460 C   0  0  0  0  0  3  0  0  0  0  0  0
  -30.7810  -18.3900   19.2820 C   0  0  0  0  0  3  0  0  0  0  0  0
  -32.2610  -19.4260   17.4010 C   0  0  0  0  0  1  0  0  0  0  0  0
  -30.9160  -18.7030   23.1150 C   0  0  0  0  0  1  0  0  0  0  0  0
  -30.2530  -18.7290   20.6560 N   0  0  2  0  0  4  0  0  0  0  0  0
  -29.5760  -18.0140   20.8770 H   0  0  0  0  0  0  0  0  0  0  0  0
  -31.5070  -16.9810   19.0780 C   0  0  0  0  0  2  0  0  0  0  0  0
  -31.4300  -14.5040   18.7720 C   0  0  0  0  0  0  0  0  0  0  0  0
  -31.1710  -12.0530   18.5540 C   0  0  0  0  0  2  0  0  0  0  0  0
  -30.0990  -11.7400   17.4910 C   0  0  0  0  0  2  0  0  0  0  0  0
  -28.6960  -11.7200   18.1270 C   0  0  0  0  0  2  0  0  0  0  0  0
  -28.4240  -12.9600   19.0210 C   0  0  0  0  0  3  0  0  0  0  0  0
  -29.6040  -13.2330   19.9800 C   0  0  0  0  0  2  0  0  0  0  0  0
  -30.8200  -13.3500   19.1630 N   0  0  0  0  0  0  0  0  0  0  0  0
  -32.4900  -14.4930   18.1420 O   0  0  0  0  0  0  0  0  0  0  0  0
  -30.7910  -15.6760   19.0290 N   0  0  0  0  0  0  0  0  0  0  0  0
  -29.9010  -15.6000   19.4980 H   0  0  0  0  0  0  0  0  0  0  0  0
  -26.3400  -13.8350   20.2430 C   0  0  0  0  0  0  0  0  0  0  0  0
  -25.2460  -13.1960   20.7600 C   0  0  0  0  0  0  0  0  0  0  0  0
  -25.4610  -11.8020   20.5370 C   0  0  0  0  0  0  0  0  0  0  0  0
  -27.1600  -12.8380   19.7410 N   0  0  0  0  0  0  0  0  0  0  0  0
  -26.6460  -11.6030   19.9740 N   0  0  0  0  0  0  0  0  0  0  0  0
  -24.5800  -10.6500   20.7720 C   0  0  0  0  0  0  0  0  0  0  0  0
  -24.9480   -9.6070   21.6510 C   0  0  0  0  0  3  0  0  0  0  0  0
  -24.0760   -8.5200   21.8760 C   0  0  0  0  0  3  0  0  0  0  0  0
  -22.8230   -8.4690   21.2210 C   0  0  0  0  0  0  0  0  0  0  0  0
  -22.4720   -9.4970   20.3290 C   0  0  0  0  0  3  0  0  0  0  0  0
  -23.3430  -10.5760   20.1020 C   0  0  0  0  0  3  0  0  0  0  0  0
  -21.9220   -7.4400   21.3590 O   0  0  0  0  0  0  0  0  0  0  0  0
  -21.7650   -6.7760   22.5500 C   0  0  0  0  0  0  0  0  0  0  0  0
  -21.3650   -7.4440   23.7290 C   0  0  0  0  0  3  0  0  0  0  0  0
  -21.1470   -6.7110   24.9130 C   0  0  0  0  0  3  0  0  0  0  0  0
  -21.3190   -5.3150   24.9200 C   0  0  0  0  0  0  0  0  0  0  0  0
  -21.7100   -4.6470   23.7450 C   0  0  0  0  0  3  0  0  0  0  0  0
  -21.9290   -5.3760   22.5630 C   0  0  0  0  0  0  0  0  0  0  0  0
  -22.2860   -4.7260   21.4290 F   0  0  0  0  0  0  0  0  0  0  0  0
  -21.1020   -4.6100   26.0550 F   0  0  0  0  0  0  0  0  0  0  0  0
  -24.0230  -13.8470   21.3400 C   0  0  0  0  0  0  0  0  0  0  0  0
  -23.3750  -13.1890   22.2950 N   0  0  0  0  0  0  0  0  0  0  0  0
  -23.6640  -14.9670   20.9800 O   0  0  0  0  0  0  0  0  0  0  0  0
  -23.6840  -12.2790   22.6040 H   0  0  0  0  0  0  0  0  0  0  0  0
  -22.5590  -13.6010   22.7230 H   0  0  0  0  0  0  0  0  0  0  0  0
  -26.6960  -15.1770   20.1350 N   0  0  0  0  0  0  0  0  0  0  0  0
  -26.0610  -15.9180   20.4140 H   0  0  0  0  0  0  0  0  0  0  0  0
  -27.4810  -15.5100   19.5930 H   0  0  0  0  0  0  0  0  0  0  0  0
  -29.0980  -20.8750   19.5360 C   0  0  0  0  0  2  0  0  0  0  0  0
  -28.3820  -23.0070   20.9110 C   0  0  0  0  0  3  0  0  0  0  0  0
  -29.1070  -23.2690   18.6220 C   0  0  0  0  0  3  0  0  0  0  0  0
  -28.2290  -24.4170   21.0210 C   0  0  0  0  0  3  0  0  0  0  0  0
  -28.9440  -24.6740   18.7310 C   0  0  0  0  0  3  0  0  0  0  0  0
  -28.8440  -22.4040   19.7110 C   0  0  0  0  0  0  0  0  0  0  0  0
  -28.5140  -25.2780   19.9310 C   0  0  0  0  0  0  0  0  0  0  0  0
  -28.4840  -26.6730   20.0160 O   0  0  0  0  0  0  0  0  0  0  0  0
  -24.7030  -31.8240   23.2500 C   0  0  0  0  0  0  0  0  0  0  0  0
  -27.3060  -27.4000   20.0690 C   0  0  0  0  0  0  0  0  0  0  0  0
  -23.4760  -30.4360   21.6120 C   0  0  0  0  0  3  0  0  0  0  0  0
  -24.9100  -28.9230   20.1380 C   0  0  0  0  0  0  0  0  0  0  0  0
  -25.9980  -30.8040   21.3730 C   0  0  0  0  0  2  0  0  0  0  0  0
  -26.0780  -29.4370   20.7180 C   0  0  0  0  0  0  0  0  0  0  0  0
  -27.2760  -28.6820   20.6800 C   0  0  0  0  0  3  0  0  0  0  0  0
  -26.1230  -26.9140   19.4730 C   0  0  0  0  0  3  0  0  0  0  0  0
  -24.9300  -27.6640   19.5120 C   0  0  0  0  0  3  0  0  0  0  0  0
  -23.6630  -29.7760   20.2200 C   0  0  0  0  0  2  0  0  0  0  0  0
  -24.7450  -31.0370   22.1370 N   0  0  0  0  0  0  0  0  0  0  0  0
  -23.6310  -32.0830   23.8140 O   0  0  0  0  0  0  0  0  0  0  0  0
  -22.8480  -29.4020   22.5720 C   0  0  0  0  0  0  0  0  0  0  0  0
  -21.5360  -29.1540   22.4150 N   0  0  0  0  0  0  0  0  0  0  0  0
  -23.5390  -28.8220   23.4140 O   0  0  0  0  0  0  0  0  0  0  0  0
  -21.0380  -29.6750   21.7070 H   0  0  0  0  0  0  0  0  0  0  0  0
  -18.2330  -27.7310   22.7770 C   0  0  0  0  0  0  0  0  0  0  0  0
  -20.7460  -28.1870   23.1780 C   0  0  0  0  0  3  0  0  0  0  0  0
  -20.9840  -26.7470   22.6670 C   0  0  0  0  0  2  0  0  0  0  0  0
  -19.9670  -26.3070   21.6080 C   0  0  0  0  0  2  0  0  0  0  0  0
  -18.5440  -26.3740   22.1680 C   0  0  0  0  0  2  0  0  0  0  0  0
  -19.2670  -28.5870   23.2370 C   0  0  0  0  0  0  0  0  0  0  0  0
  -18.9260  -29.8530   23.7630 C   0  0  0  0  0  3  0  0  0  0  0  0
  -17.5810  -30.2640   23.8330 C   0  0  0  0  0  3  0  0  0  0  0  0
  -16.5600  -29.4050   23.3920 C   0  0  0  0  0  3  0  0  0  0  0  0
  -16.8860  -28.1410   22.8700 C   0  0  0  0  0  3  0  0  0  0  0  0
  -25.9970  -32.4560   23.8550 C   0  0  0  0  0  3  0  0  0  0  0  0
  -26.5520  -31.6640   25.1010 C   0  0  1  0  0  0  0  0  0  0  0  0
  -25.4810  -31.3610   26.1740 C   0  0  0  0  0  1  0  0  0  0  0  0
  -27.1730  -30.3170   24.6600 C   0  0  0  0  0  1  0  0  0  0  0  0
  -27.6840  -32.4740   25.7770 C   0  0  0  0  0  1  0  0  0  0  0  0
  -25.6830  -33.8430   24.2200 N   0  0  0  0  0  0  0  0  0  0  0  0
  -25.9820  -34.9130   23.4700 C   0  0  0  0  0  0  0  0  0  0  0  0
  -26.6230  -34.8360   22.4190 O   0  0  0  0  0  0  0  0  0  0  0  0
  -25.1090  -33.9760   25.0390 H   0  0  0  0  0  0  0  0  0  0  0  0
  -24.2210  -36.6880   23.2010 C   0  0  0  0  0  1  0  0  0  0  0  0
  -25.4930  -36.2870   23.9660 C   0  0  0  0  0  3  0  0  0  0  0  0
  -27.6410  -37.1870   24.7460 C   0  0  0  0  0  1  0  0  0  0  0  0
  -26.5080  -37.3550   23.8390 N   0  0  0  0  0  0  0  0  0  0  0  0
  -26.0950  -38.2670   24.0150 H   0  0  0  0  0  0  0  0  0  0  0  0
  2  3  1  0
  3  5  1  0
  4  7  1  0
  4  6  1  0
  4  2  1  0
  5  8  1  0
  6 11  1  0
  6  9  1  0
  9  1  1  0
  9 10  1  1
  9  5  1  0
 12 20  1  0
 12 18  1  0
 13 18  1  0
 14 15  1  0
 14 13  1  0
 16 15  1  0
 16 25  1  0
 16 17  1  0
 18 17  1  0
 19 12  2  0
 20 11  1  0
 20 21  1  0
 22 23  2  0
 23 42  1  0
 24 23  1  0
 24 27  1  0
 25 26  1  0
 25 22  1  0
 26 24  2  0
 27 28  1  0
 28 29  2  0
 30 33  1  0
 30 29  1  0
 31 30  2  0
 32 31  1  0
 32 27  2  0
 33 34  1  0
 34 39  2  0
 34 35  1  0
 35 36  2  0
 36 37  1  0
 37 41  1  0
 38 37  2  0
 39 38  1  0
 40 39  1  0
 42 43  1  0
 43 45  1  0
 43 46  1  0
 44 42  2  0
 47 22  1  0
 47 48  1  0
 49 47  1  0
 50 55  1  0
 50  1  1  0
 51 53  1  0
 52 54  2  0
 52 55  1  0
 54 56  1  0
 55 51  2  0
 56 57  1  0
 56 53  2  0
 57 59  1  0
 58 69  2  0
 59 64  1  0
 60 68  1  0
 60 70  1  0
 61 67  1  0
 61 63  1  0
 62 68  1  0
 63 62  1  0
 64 63  2  0
 65 66  1  0
 65 59  2  0
 66 61  2  0
 67 60  1  0
 68 58  1  0
 70 72  2  0
 71 70  1  0
 73 71  1  0
 74 83  2  0
 74 79  1  0
 75 71  1  0
 75 79  1  0
 76 75  1  0
 77 78  1  0
 77 76  1  0
 78 74  1  0
 79 80  2  0
 80 81  1  0
 82 81  2  0
 83 82  1  0
 84 58  1  0
 84 89  1  0
 84 85  1  0
 85 88  1  1
 85 86  1  0
 87 85  1  0
 89 92  1  0
 90 94  1  0
 90 89  1  0
 91 90  2  0
 94 93  1  0
 96 94  1  0
 96 97  1  0
 96 95  1  0
M  ISO  4  12 100  20 100  56 101  57 101
M  END
>  <TORSDO>  (67) 
F 20

>  <SCORE>  (67) 
-12.363

>  <name>  (67) 
66

>  <ligand_id>  (67) 
66

>  <original_smiles>  (67) 
[H]c1c([H])c([H])c2c(c1[H])C([H])([H])C([H])([H])C([H])([H])C2([H])N([H])C(=O)C1([H])N(C(=O)C([H])(N([H])C(=O)C([H])(N([H])C([H])([H])[H])C([H])([H])[H])C(C([H])([H])[H])(C([H])([H])[H])C([H])([H])[H])C([H])([H])c2c([H])c(Oc3c([H])c([H])c(C([H])([H])C([H])([H])[N+]4([H])C([H])(C([H])([H])[H])C([H])([H])C([H])([H])C([H])(C([H])([H])[H])C4([H])C([H])([H])N([H])C(=O)N4C([H])([H])C([H])([H])C([H])([H])C([H])(n5nc(-c6c([H])c([H])c(Oc7c([H])c([H])c(F)c([H])c7F)c([H])c6[H])c(C(=O)N([H])[H])c5N([H])[H])C4([H])[H])c([H])c3[H])c([H])c([H])c2C1([H])[H]

>  <smiles>  (67) 
[H]c1c([H])c([H])c2c(c1[H])C([H])([H])C([H])([H])C([H])([H])C2([H])N([H])C(=O)C1([H])N(C(=O)C([H])(N([H])C(=O)C([H])(N([H])C([H])([H])[H])C([H])([H])[H])C(C([H])([H])[H])(C([H])([H])[H])C([H])([H])[H])C([H])([H])c2c([H])c(Oc3c([H])c([H])c(C([H])([H])C([H])([H])[N+]4([H])C([H])(C([H])([H])[H])C([H])([H])C([H])([H])C([H])(C([H])([H])[H])C4([H])C([H])([H])N([H])C(=O)N4C([H])([H])C([H])([H])C([H])([H])C([H])(n5nc(-c6c([H])c([H])c(Oc7c([H])c([H])c(F)c([H])c7F)c([H])c6[H])c(C(=O)N([H])[H])c5N([H])[H])C4([H])[H])c([H])c3[H])c([H])c([H])c2C1([H])[H]

$$$$
67:0:0
     RDKit          3D

 91 99  0  0  1  0  0  0  0  0999 V2000
  -30.3130  -22.0880   22.3870 C   0  0  0  0  0  3  0  0  0  0  0  0
  -29.5730  -23.1880   21.9140 C   0  0  0  0  0  3  0  0  0  0  0  0
  -30.1640  -20.8150   21.7990 C   0  0  0  0  0  3  0  0  0  0  0  0
  -28.5430  -21.7470   20.2400 C   0  0  0  0  0  3  0  0  0  0  0  0
  -28.6710  -23.0350   20.8400 C   0  0  0  0  0  0  0  0  0  0  0  0
  -29.2800  -20.6200   20.7160 C   0  0  0  0  0  0  0  0  0  0  0  0
  -29.1520  -19.3500   20.1040 N   0  0  0  0  0  0  0  0  0  0  0  0
  -28.5540  -19.3170   19.2800 H   0  0  0  0  0  0  0  0  0  0  0  0
  -29.1910  -18.0940   20.8830 C   0  0  0  0  0  2  0  0  0  0  0  0
  -30.2730  -17.0700   20.4090 C   0  0  0  0  0  2  0  0  0  0  0  0
  -30.6800  -14.5890   20.2950 C   0  0  0  0  0  0  0  0  0  0  0  0
  -30.4010  -12.4050   19.1820 C   0  0  0  0  0  2  0  0  0  0  0  0
  -29.4470  -12.5930   17.9830 C   0  0  0  0  0  2  0  0  0  0  0  0
  -27.9780  -12.4460   18.4280 C   0  0  0  0  0  2  0  0  0  0  0  0
  -27.6460  -13.2860   19.6900 C   0  0  0  0  0  3  0  0  0  0  0  0
  -28.7140  -13.0880   20.7900 C   0  0  0  0  0  2  0  0  0  0  0  0
  -30.0270  -13.3980   20.2030 N   0  0  0  0  0  0  0  0  0  0  0  0
  -31.8260  -14.7510   19.8630 O   0  0  0  0  0  0  0  0  0  0  0  0
  -29.9310  -15.6510   20.6710 N   0  0  0  0  0  0  0  0  0  0  0  0
  -28.9980  -15.4510   20.9990 H   0  0  0  0  0  0  0  0  0  0  0  0
  -25.2510  -13.8820   20.4180 C   0  0  0  0  0  0  0  0  0  0  0  0
  -24.1930  -13.1040   20.8030 C   0  0  0  0  0  0  0  0  0  0  0  0
  -24.6630  -11.7560   20.7790 C   0  0  0  0  0  0  0  0  0  0  0  0
  -26.3010  -13.0060   20.1850 N   0  0  0  0  0  0  0  0  0  0  0  0
  -25.9510  -11.7230   20.4610 N   0  0  0  0  0  0  0  0  0  0  0  0
  -23.9480  -10.4900   20.9840 C   0  0  0  0  0  0  0  0  0  0  0  0
  -24.3950   -9.5310   21.9190 C   0  0  0  0  0  3  0  0  0  0  0  0
  -23.6800   -8.3310   22.1120 C   0  0  0  0  0  3  0  0  0  0  0  0
  -22.5010   -8.0800   21.3690 C   0  0  0  0  0  0  0  0  0  0  0  0
  -22.0720   -9.0270   20.4240 C   0  0  0  0  0  3  0  0  0  0  0  0
  -22.7890  -10.2190   20.2280 C   0  0  0  0  0  3  0  0  0  0  0  0
  -21.7550   -6.9310   21.4720 O   0  0  0  0  0  0  0  0  0  0  0  0
  -21.7250   -6.1930   22.6280 C   0  0  0  0  0  0  0  0  0  0  0  0
  -21.3050   -6.7490   23.8560 C   0  0  0  0  0  3  0  0  0  0  0  0
  -21.2220   -5.9360   25.0050 C   0  0  0  0  0  3  0  0  0  0  0  0
  -21.5500   -4.5690   24.9260 C   0  0  0  0  0  0  0  0  0  0  0  0
  -21.9630   -4.0130   23.7030 C   0  0  0  0  0  3  0  0  0  0  0  0
  -22.0470   -4.8220   22.5570 C   0  0  0  0  0  0  0  0  0  0  0  0
  -22.4250   -4.2760   21.3760 F   0  0  0  0  0  0  0  0  0  0  0  0
  -21.4620   -3.7870   26.0270 F   0  0  0  0  0  0  0  0  0  0  0  0
  -22.7940  -13.5750   21.0790 C   0  0  0  0  0  0  0  0  0  0  0  0
  -22.0750  -12.8800   21.9540 N   0  0  0  0  0  0  0  0  0  0  0  0
  -22.3450  -14.5930   20.5530 O   0  0  0  0  0  0  0  0  0  0  0  0
  -22.4510  -12.0580   22.4030 H   0  0  0  0  0  0  0  0  0  0  0  0
  -21.1370  -13.1780   22.1820 H   0  0  0  0  0  0  0  0  0  0  0  0
  -25.4050  -15.2520   20.2260 N   0  0  0  0  0  0  0  0  0  0  0  0
  -24.6310  -15.8980   20.3310 H   0  0  0  0  0  0  0  0  0  0  0  0
  -26.2370  -15.6900   19.8520 H   0  0  0  0  0  0  0  0  0  0  0  0
  -27.8010  -24.2440   20.4300 C   0  0  0  0  0  2  0  0  0  0  0  0
  -28.5110  -25.4030   19.6580 C   0  0  0  0  0  2  0  0  0  0  0  0
  -28.4100  -26.7310   20.2280 O   0  0  0  0  0  0  0  0  0  0  0  0
  -24.5820  -31.9250   23.2660 C   0  0  0  0  0  0  0  0  0  0  0  0
  -27.2280  -27.4560   20.1850 C   0  0  0  0  0  0  0  0  0  0  0  0
  -23.3780  -30.5220   21.6240 C   0  0  0  0  0  3  0  0  0  0  0  0
  -24.8330  -28.9850   20.1950 C   0  0  0  0  0  0  0  0  0  0  0  0
  -25.9070  -30.8750   21.4310 C   0  0  0  0  0  2  0  0  0  0  0  0
  -25.9910  -29.5030   20.7860 C   0  0  0  0  0  0  0  0  0  0  0  0
  -27.1880  -28.7450   20.7780 C   0  0  0  0  0  3  0  0  0  0  0  0
  -26.0470  -26.9610   19.5870 C   0  0  0  0  0  3  0  0  0  0  0  0
  -24.8570  -27.7160   19.5930 C   0  0  0  0  0  3  0  0  0  0  0  0
  -23.5900  -29.8450   20.2430 C   0  0  0  0  0  2  0  0  0  0  0  0
  -24.6400  -31.1240   22.1650 N   0  0  0  0  0  0  0  0  0  0  0  0
  -23.4990  -32.1960   23.8050 O   0  0  0  0  0  0  0  0  0  0  0  0
  -22.7280  -29.4990   22.5840 C   0  0  0  0  0  0  0  0  0  0  0  0
  -21.4050  -29.3100   22.4530 N   0  0  0  0  0  0  0  0  0  0  0  0
  -23.4130  -28.8790   23.4030 O   0  0  0  0  0  0  0  0  0  0  0  0
  -20.9150  -29.8600   21.7620 H   0  0  0  0  0  0  0  0  0  0  0  0
  -18.0360  -28.0980   22.9380 C   0  0  0  0  0  0  0  0  0  0  0  0
  -20.5910  -28.3690   23.2220 C   0  0  0  0  0  3  0  0  0  0  0  0
  -20.7030  -26.9380   22.6480 C   0  0  0  0  0  2  0  0  0  0  0  0
  -19.6070  -26.6090   21.6300 C   0  0  0  0  0  2  0  0  0  0  0  0
  -18.2220  -26.7490   22.2660 C   0  0  0  0  0  2  0  0  0  0  0  0
  -19.1490  -28.8660   23.3740 C   0  0  0  0  0  0  0  0  0  0  0  0
  -18.9210  -30.1300   23.9610 C   0  0  0  0  0  3  0  0  0  0  0  0
  -17.6130  -30.6260   24.1170 C   0  0  0  0  0  3  0  0  0  0  0  0
  -16.5140  -29.8550   23.7010 C   0  0  0  0  0  3  0  0  0  0  0  0
  -16.7270  -28.5930   23.1170 C   0  0  0  0  0  3  0  0  0  0  0  0
  -25.8660  -32.5580   23.8860 C   0  0  0  0  0  3  0  0  0  0  0  0
  -25.5590  -33.9590   24.2070 N   0  0  0  0  0  0  0  0  0  0  0  0
  -25.9000  -35.0060   23.4430 C   0  0  0  0  0  0  0  0  0  0  0  0
  -26.5770  -34.8940   22.4180 O   0  0  0  0  0  0  0  0  0  0  0  0
  -24.9600  -34.1210   25.0040 H   0  0  0  0  0  0  0  0  0  0  0  0
  -24.1840  -36.8030   23.0590 C   0  0  0  0  0  1  0  0  0  0  0  0
  -25.4120  -36.3980   23.8890 C   0  0  0  0  0  3  0  0  0  0  0  0
  -27.5390  -37.2780   24.7440 C   0  0  0  0  0  1  0  0  0  0  0  0
  -26.4510  -37.4460   23.7840 N   0  0  0  0  0  0  0  0  0  0  0  0
  -26.0470  -38.3680   23.9200 H   0  0  0  0  0  0  0  0  0  0  0  0
  -26.3800  -31.7940   25.1670 C   0  0  1  0  0  0  0  0  0  0  0  0
  -25.2850  -31.5620   26.2340 C   0  0  0  0  0  1  0  0  0  0  0  0
  -26.9630  -30.4150   24.7820 C   0  0  0  0  0  1  0  0  0  0  0  0
  -27.5300  -32.5900   25.8270 C   0  0  0  0  0  1  0  0  0  0  0  0
  2  1  1  0
  3  1  2  0
  4  6  2  0
  4  5  1  0
  5  2  2  0
  6  3  1  0
  7  6  1  0
  7  9  1  0
  8  7  1  0
 10 19  1  0
 10  9  1  0
 11 19  1  0
 12 17  1  0
 13 14  1  0
 13 12  1  0
 15 14  1  0
 15 24  1  0
 15 16  1  0
 17 11  1  0
 17 16  1  0
 18 11  2  0
 19 20  1  0
 21 22  2  0
 22 41  1  0
 23 22  1  0
 23 26  1  0
 24 21  1  0
 24 25  1  0
 25 23  2  0
 26 27  1  0
 27 28  2  0
 29 32  1  0
 29 28  1  0
 30 29  2  0
 31 30  1  0
 31 26  2  0
 32 33  1  0
 33 34  1  0
 34 35  2  0
 36 35  1  0
 36 40  1  0
 37 36  2  0
 38 33  2  0
 38 37  1  0
 39 38  1  0
 41 42  1  0
 42 45  1  0
 42 44  1  0
 43 41  2  0
 46 47  1  0
 46 21  1  0
 48 46  1  0
 49  5  1  0
 50 51  1  0
 50 49  1  0
 52 63  2  0
 53 51  1  0
 53 58  1  0
 54 62  1  0
 54 64  1  0
 55 61  1  0
 55 57  1  0
 56 62  1  0
 57 56  1  0
 58 57  2  0
 59 60  1  0
 59 53  2  0
 60 55  2  0
 61 54  1  0
 62 52  1  0
 64 66  2  0
 65 64  1  0
 67 65  1  0
 68 77  2  0
 68 73  1  0
 69 65  1  0
 69 73  1  0
 70 69  1  0
 71 72  1  0
 71 70  1  0
 72 68  1  0
 73 74  2  0
 74 75  1  0
 76 75  2  0
 77 76  1  0
 78 52  1  0
 78 79  1  0
 78 88  1  0
 79 82  1  0
 80 84  1  0
 80 79  1  0
 81 80  2  0
 84 83  1  0
 86 84  1  0
 86 87  1  0
 86 85  1  0
 88 91  1  1
 88 89  1  0
 90 88  1  0
M  ISO  4  11 100  19 100  50 101  51 101
M  END
>  <TORSDO>  (68) 
F 21

>  <SCORE>  (68) 
-13.552

>  <name>  (68) 
67

>  <ligand_id>  (68) 
67

>  <original_smiles>  (68) 
[H]c1c([H])c(N([H])C([H])([H])C([H])([H])N([H])C(=O)N2C([H])([H])C([H])([H])C([H])([H])C([H])(n3nc(-c4c([H])c([H])c(Oc5c([H])c([H])c(F)c([H])c5F)c([H])c4[H])c(C(=O)N([H])[H])c3N([H])[H])C2([H])[H])c([H])c(C([H])([H])C([H])([H])Oc2c([H])c([H])c3c(c2[H])C([H])([H])N(C(=O)C([H])(N([H])C(=O)C([H])(N([H])C([H])([H])[H])C([H])([H])[H])C(C([H])([H])[H])(C([H])([H])[H])C([H])([H])[H])C([H])(C(=O)N([H])C2([H])c4c([H])c([H])c([H])c([H])c4C([H])([H])C([H])([H])C2([H])[H])C3([H])[H])c1[H]

>  <smiles>  (68) 
[H]c1c([H])c(N([H])C([H])([H])C([H])([H])N([H])C(=O)N2C([H])([H])C([H])([H])C([H])([H])C([H])(n3nc(-c4c([H])c([H])c(Oc5c([H])c([H])c(F)c([H])c5F)c([H])c4[H])c(C(=O)N([H])[H])c3N([H])[H])C2([H])[H])c([H])c(C([H])([H])C([H])([H])Oc2c([H])c([H])c3c(c2[H])C([H])([H])N(C(=O)C([H])(N([H])C(=O)C([H])(N([H])C([H])([H])[H])C([H])([H])[H])C(C([H])([H])[H])(C([H])([H])[H])C([H])([H])[H])C([H])(C(=O)N([H])C2([H])c4c([H])c([H])c([H])c([H])c4C([H])([H])C([H])([H])C2([H])[H])C3([H])[H])c1[H]

$$$$
68:0:0
     RDKit          3D

 89 97  0  0  1  0  0  0  0  0999 V2000
  -31.8690  -19.5550   18.0320 C   0  0  0  0  0  3  0  0  0  0  0  0
  -31.2010  -18.7160   18.9180 C   0  0  0  0  0  3  0  0  0  0  0  0
  -31.5380  -20.8990   18.0340 C   0  0  0  0  0  3  0  0  0  0  0  0
  -30.1890  -19.1650   19.8050 C   0  0  0  0  0  0  0  0  0  0  0  0
  -29.8940  -20.6800   19.7450 C   0  0  0  0  0  0  0  0  0  0  0  0
  -30.6110  -21.4060   18.8540 N   0  0  0  0  0  0  0  0  0  0  0  0
  -29.7580  -17.8210   20.6790 C   0  0  0  0  0  2  0  0  0  0  0  0
  -30.4810  -15.0710   20.2710 C   0  0  0  0  0  0  0  0  0  0  0  0
  -30.3900  -12.6850   19.3590 C   0  0  0  0  0  2  0  0  0  0  0  0
  -29.4430  -12.5460   18.1450 C   0  0  0  0  0  2  0  0  0  0  0  0
  -27.9890  -12.3110   18.6030 C   0  0  0  0  0  2  0  0  0  0  0  0
  -27.5660  -13.2510   19.7590 C   0  0  0  0  0  3  0  0  0  0  0  0
  -28.6410  -13.3580   20.8620 C   0  0  0  0  0  2  0  0  0  0  0  0
  -29.8800  -13.8020   20.2070 N   0  0  0  0  0  0  0  0  0  0  0  0
  -31.7160  -15.0840   20.2050 O   0  0  0  0  0  0  0  0  0  0  0  0
  -28.8210  -16.3490   18.9640 C   0  0  0  0  0  1  0  0  0  0  0  0
  -29.7140  -16.3010   20.1280 N   0  0  0  0  0  0  0  0  0  0  0  0
  -25.2000  -13.8310   20.5290 C   0  0  0  0  0  0  0  0  0  0  0  0
  -24.1390  -13.0540   20.8990 C   0  0  0  0  0  0  0  0  0  0  0  0
  -24.6090  -11.7050   20.8680 C   0  0  0  0  0  0  0  0  0  0  0  0
  -26.2430  -12.9530   20.2830 N   0  0  0  0  0  0  0  0  0  0  0  0
  -25.8990  -11.6700   20.5550 N   0  0  0  0  0  0  0  0  0  0  0  0
  -23.8910  -10.4410   21.0580 C   0  0  0  0  0  0  0  0  0  0  0  0
  -24.3350   -9.4720   21.9840 C   0  0  0  0  0  3  0  0  0  0  0  0
  -23.6150   -8.2720   22.1630 C   0  0  0  0  0  3  0  0  0  0  0  0
  -22.4380   -8.0330   21.4160 C   0  0  0  0  0  0  0  0  0  0  0  0
  -22.0130   -8.9900   20.4790 C   0  0  0  0  0  3  0  0  0  0  0  0
  -22.7330  -10.1820   20.2980 C   0  0  0  0  0  3  0  0  0  0  0  0
  -21.6880   -6.8850   21.5060 O   0  0  0  0  0  0  0  0  0  0  0  0
  -21.6600   -6.1330   22.6540 C   0  0  0  0  0  0  0  0  0  0  0  0
  -21.2540   -6.6770   23.8920 C   0  0  0  0  0  3  0  0  0  0  0  0
  -21.1730   -5.8500   25.0300 C   0  0  0  0  0  3  0  0  0  0  0  0
  -21.4880   -4.4830   24.9330 C   0  0  0  0  0  0  0  0  0  0  0  0
  -21.8880   -3.9370   23.7000 C   0  0  0  0  0  3  0  0  0  0  0  0
  -21.9700   -4.7610   22.5620 C   0  0  0  0  0  0  0  0  0  0  0  0
  -22.3360   -4.2270   21.3720 F   0  0  0  0  0  0  0  0  0  0  0  0
  -21.4030   -3.6860   26.0240 F   0  0  0  0  0  0  0  0  0  0  0  0
  -22.7410  -13.5260   21.1700 C   0  0  0  0  0  0  0  0  0  0  0  0
  -22.0150  -12.8270   22.0350 N   0  0  0  0  0  0  0  0  0  0  0  0
  -22.3000  -14.5500   20.6500 O   0  0  0  0  0  0  0  0  0  0  0  0
  -22.3860  -11.9990   22.4770 H   0  0  0  0  0  0  0  0  0  0  0  0
  -21.0770  -13.1260   22.2610 H   0  0  0  0  0  0  0  0  0  0  0  0
  -25.3580  -15.2030   20.3540 N   0  0  0  0  0  0  0  0  0  0  0  0
  -24.5940  -15.8570   20.4790 H   0  0  0  0  0  0  0  0  0  0  0  0
  -26.2150  -15.6470   20.0530 H   0  0  0  0  0  0  0  0  0  0  0  0
  -29.0070  -21.6660   20.3990 O   0  0  0  0  0  0  0  0  0  0  0  0
  -29.0640  -23.2330   20.0800 C   0  0  0  0  0  3  0  0  0  0  0  0
  -28.0450  -24.5480   20.4840 C   0  0  0  0  0  3  0  0  0  0  0  0
  -28.2730  -26.1020   20.2730 O   0  0  0  0  0  0  0  0  0  0  0  0
  -24.6210  -31.8580   23.2170 C   0  0  0  0  0  0  0  0  0  0  0  0
  -27.2080  -27.0900   20.2360 C   0  0  0  0  0  0  0  0  0  0  0  0
  -23.4260  -30.4480   21.5860 C   0  0  0  0  0  3  0  0  0  0  0  0
  -24.8790  -28.8560   20.1790 C   0  0  0  0  0  0  0  0  0  0  0  0
  -25.9820  -30.7060   21.4260 C   0  0  0  0  0  2  0  0  0  0  0  0
  -26.0590  -29.3040   20.7870 C   0  0  0  0  0  0  0  0  0  0  0  0
  -27.2240  -28.4400   20.7930 C   0  0  0  0  0  3  0  0  0  0  0  0
  -26.0010  -26.7560   19.5830 C   0  0  0  0  0  3  0  0  0  0  0  0
  -24.8660  -27.5980   19.5590 C   0  0  0  0  0  3  0  0  0  0  0  0
  -23.6520  -29.7570   20.2150 C   0  0  0  0  0  2  0  0  0  0  0  0
  -24.6960  -31.0270   22.1310 N   0  0  0  0  0  0  0  0  0  0  0  0
  -23.5330  -32.1460   23.7400 O   0  0  0  0  0  0  0  0  0  0  0  0
  -22.7440  -29.4510   22.5560 C   0  0  0  0  0  0  0  0  0  0  0  0
  -21.4150  -29.2800   22.4310 N   0  0  0  0  0  0  0  0  0  0  0  0
  -23.4140  -28.8300   23.3860 O   0  0  0  0  0  0  0  0  0  0  0  0
  -20.9300  -29.8310   21.7360 H   0  0  0  0  0  0  0  0  0  0  0  0
  -18.0330  -28.0840   22.9430 C   0  0  0  0  0  0  0  0  0  0  0  0
  -20.5930  -28.3490   23.2080 C   0  0  0  0  0  3  0  0  0  0  0  0
  -20.6930  -26.9120   22.6440 C   0  0  0  0  0  2  0  0  0  0  0  0
  -19.5920  -26.5820   21.6310 C   0  0  0  0  0  2  0  0  0  0  0  0
  -18.2100  -26.7310   22.2750 C   0  0  0  0  0  2  0  0  0  0  0  0
  -19.1520  -28.8490   23.3670 C   0  0  0  0  0  0  0  0  0  0  0  0
  -18.9300  -30.1150   23.9540 C   0  0  0  0  0  3  0  0  0  0  0  0
  -17.6250  -30.6130   24.1210 C   0  0  0  0  0  3  0  0  0  0  0  0
  -16.5210  -29.8460   23.7110 C   0  0  0  0  0  3  0  0  0  0  0  0
  -16.7260  -28.5820   23.1290 C   0  0  0  0  0  3  0  0  0  0  0  0
  -25.8960  -32.5000   23.8420 C   0  0  0  0  0  3  0  0  0  0  0  0
  -26.4090  -31.7370   25.1250 C   0  0  1  0  0  0  0  0  0  0  0  0
  -25.3140  -31.5050   26.1920 C   0  0  0  0  0  1  0  0  0  0  0  0
  -26.9940  -30.3560   24.7470 C   0  0  0  0  0  1  0  0  0  0  0  0
  -27.5580  -32.5340   25.7850 C   0  0  0  0  0  1  0  0  0  0  0  0
  -25.5780  -33.8990   24.1750 N   0  0  0  0  0  0  0  0  0  0  0  0
  -25.9030  -34.9580   23.4200 C   0  0  0  0  0  0  0  0  0  0  0  0
  -26.5690  -34.8600   22.3870 O   0  0  0  0  0  0  0  0  0  0  0  0
  -24.9840  -34.0480   24.9770 H   0  0  0  0  0  0  0  0  0  0  0  0
  -24.1670  -36.7500   23.0850 C   0  0  0  0  0  1  0  0  0  0  0  0
  -25.4160  -36.3440   23.8860 C   0  0  0  0  0  3  0  0  0  0  0  0
  -27.5530  -37.2340   24.7060 C   0  0  0  0  0  1  0  0  0  0  0  0
  -26.4440  -37.4010   23.7700 N   0  0  0  0  0  0  0  0  0  0  0  0
  -26.0360  -38.3200   23.9210 H   0  0  0  0  0  0  0  0  0  0  0  0
  1  3  2  0
  1  2  1  0
  2  4  2  0
  3  6  1  0
  4  7  1  0
  5  4  1  0
  5 46  1  0
  6  5  2  0
  9 14  1  0
 10 11  1  0
 10  9  1  0
 12 11  1  0
 12 21  1  0
 12 13  1  0
 14  8  1  0
 14 13  1  0
 15  8  2  0
 16 17  1  0
 17  8  1  0
 17  7  1  0
 18 19  2  0
 19 38  1  0
 20 19  1  0
 20 23  1  0
 21 18  1  0
 21 22  1  0
 22 20  2  0
 23 24  1  0
 24 25  2  0
 26 29  1  0
 26 25  1  0
 27 26  2  0
 28 27  1  0
 28 23  2  0
 29 30  1  0
 30 31  1  0
 31 32  2  0
 33 32  1  0
 33 37  1  0
 34 33  2  0
 35 30  2  0
 35 34  1  0
 36 35  1  0
 38 39  1  0
 39 42  1  0
 39 41  1  0
 40 38  2  0
 43 44  1  0
 43 18  1  0
 45 43  1  0
 47 46  1  0
 47 48  2  0
 49 48  1  0
 50 61  2  0
 51 49  1  0
 51 56  1  0
 52 60  1  0
 52 62  1  0
 53 59  1  0
 53 55  1  0
 54 60  1  0
 55 56  2  0
 55 54  1  0
 57 51  2  0
 58 57  1  0
 58 53  2  0
 59 52  1  0
 60 50  1  0
 62 64  2  0
 63 62  1  0
 65 63  1  0
 66 75  2  0
 66 71  1  0
 67 63  1  0
 67 71  1  0
 68 67  1  0
 69 70  1  0
 69 68  1  0
 70 66  1  0
 71 72  2  0
 72 73  1  0
 74 73  2  0
 75 74  1  0
 76 50  1  0
 76 81  1  0
 76 77  1  0
 77 80  1  1
 77 78  1  0
 79 77  1  0
 81 84  1  0
 82 86  1  0
 82 81  1  0
 83 82  2  0
 86 85  1  0
 88 86  1  0
 88 89  1  0
 88 87  1  0
M  ISO  4   8 100  17 100  48 101  49 101
M  END
>  <TORSDO>  (69) 
F 20

>  <SCORE>  (69) 
-14.430

>  <name>  (69) 
68

>  <ligand_id>  (69) 
68

>  <original_smiles>  (69) 
[H]c1nc(OC([H])([H])C([H])([H])Oc2c([H])c([H])c3c(c2[H])C([H])([H])N(C(=O)C([H])(N([H])C(=O)C([H])(N([H])C([H])([H])[H])C([H])([H])[H])C(C([H])([H])[H])(C([H])([H])[H])C([H])([H])[H])C([H])(C(=O)N([H])C2([H])c4c([H])c([H])c([H])c([H])c4C([H])([H])C([H])([H])C2([H])[H])C3([H])[H])c(C([H])([H])N(C(=O)N2C([H])([H])C([H])([H])C([H])([H])C([H])(n3nc(-c4c([H])c([H])c(Oc5c([H])c([H])c(F)c([H])c5F)c([H])c4[H])c(C(=O)N([H])[H])c3N([H])[H])C2([H])[H])C([H])([H])[H])c([H])c1[H]

>  <smiles>  (69) 
[H]c1nc(OC([H])([H])C([H])([H])Oc2c([H])c([H])c3c(c2[H])C([H])([H])N(C(=O)C([H])(N([H])C(=O)C([H])(N([H])C([H])([H])[H])C([H])([H])[H])C(C([H])([H])[H])(C([H])([H])[H])C([H])([H])[H])C([H])(C(=O)N([H])C2([H])c4c([H])c([H])c([H])c([H])c4C([H])([H])C([H])([H])C2([H])[H])C3([H])[H])c(C([H])([H])N(C(=O)N2C([H])([H])C([H])([H])C([H])([H])C([H])(n3nc(-c4c([H])c([H])c(Oc5c([H])c([H])c(F)c([H])c5F)c([H])c4[H])c(C(=O)N([H])[H])c3N([H])[H])C2([H])[H])C([H])([H])[H])c([H])c1[H]

$$$$
69:0:0
     RDKit          3D

 95103  0  0  1  0  0  0  0  0999 V2000
  -28.5200  -21.9310   22.3740 C   0  0  0  0  0  2  0  0  0  0  0  0
  -28.3040  -23.4450   22.1870 C   0  0  0  0  0  2  0  0  0  0  0  0
  -28.1880  -23.8350   20.7620 N   0  0  0  0  0  4  0  0  0  0  0  0
  -27.4200  -23.3290   20.3480 H   0  0  0  0  0  0  0  0  0  0  0  0
  -29.0310  -23.5670   20.2780 H   0  0  0  0  0  0  0  0  0  0  0  0
  -27.9700  -25.2860   20.5580 C   0  0  0  0  0  2  0  0  0  0  0  0
  -28.1040  -25.6960   19.0760 C   0  0  0  0  0  2  0  0  0  0  0  0
  -28.0430  -27.1160   18.9460 O   0  0  0  0  0  0  0  0  0  0  0  0
  -24.5340  -31.6800   23.0890 C   0  0  0  0  0  0  0  0  0  0  0  0
  -26.8420  -27.7470   19.1790 C   0  0  0  0  0  0  0  0  0  0  0  0
  -23.1530  -30.4560   21.4420 C   0  0  0  0  0  3  0  0  0  0  0  0
  -24.4380  -29.1460   19.6760 C   0  0  0  0  0  0  0  0  0  0  0  0
  -25.6270  -30.9150   20.9850 C   0  0  0  0  0  2  0  0  0  0  0  0
  -25.6500  -29.6360   20.1750 C   0  0  0  0  0  0  0  0  0  0  0  0
  -26.8540  -28.9460   19.9220 C   0  0  0  0  0  3  0  0  0  0  0  0
  -25.6080  -27.2600   18.6840 C   0  0  0  0  0  3  0  0  0  0  0  0
  -24.4110  -27.9550   18.9300 C   0  0  0  0  0  3  0  0  0  0  0  0
  -23.1980  -29.9550   19.9750 C   0  0  0  0  0  2  0  0  0  0  0  0
  -24.4630  -31.0240   21.8960 N   0  0  0  0  0  0  0  0  0  0  0  0
  -23.5240  -31.8520   23.7860 O   0  0  0  0  0  0  0  0  0  0  0  0
  -22.6390  -29.3060   22.3390 C   0  0  0  0  0  0  0  0  0  0  0  0
  -21.3370  -28.9990   22.2290 N   0  0  0  0  0  0  0  0  0  0  0  0
  -23.4080  -28.6970   23.0860 O   0  0  0  0  0  0  0  0  0  0  0  0
  -20.7720  -29.5520   21.5990 H   0  0  0  0  0  0  0  0  0  0  0  0
  -18.1560  -27.3250   22.5790 C   0  0  0  0  0  0  0  0  0  0  0  0
  -20.6420  -27.9310   22.9450 C   0  0  0  0  0  3  0  0  0  0  0  0
  -20.9640  -26.5490   22.3320 C   0  0  0  0  0  2  0  0  0  0  0  0
  -19.9500  -26.1070   21.2720 C   0  0  0  0  0  2  0  0  0  0  0  0
  -18.5420  -26.0360   21.8720 C   0  0  0  0  0  2  0  0  0  0  0  0
  -19.1420  -28.2220   23.0680 C   0  0  0  0  0  0  0  0  0  0  0  0
  -18.7300  -29.4230   23.6850 C   0  0  0  0  0  3  0  0  0  0  0  0
  -17.3640  -29.7320   23.8200 C   0  0  0  0  0  3  0  0  0  0  0  0
  -16.3910  -28.8330   23.3490 C   0  0  0  0  0  3  0  0  0  0  0  0
  -16.7880  -27.6310   22.7350 C   0  0  0  0  0  3  0  0  0  0  0  0
  -25.8800  -32.2650   23.6220 C   0  0  0  0  0  3  0  0  0  0  0  0
  -25.6120  -33.6330   24.0870 N   0  0  0  0  0  0  0  0  0  0  0  0
  -25.8850  -34.7410   23.3850 C   0  0  0  0  0  0  0  0  0  0  0  0
  -26.4600  -34.7180   22.2930 O   0  0  0  0  0  0  0  0  0  0  0  0
  -25.0920  -33.7250   24.9480 H   0  0  0  0  0  0  0  0  0  0  0  0
  -24.1400  -36.5500   23.3280 C   0  0  0  0  0  1  0  0  0  0  0  0
  -25.4480  -36.0890   23.9900 C   0  0  0  0  0  3  0  0  0  0  0  0
  -27.6540  -36.9110   24.6860 C   0  0  0  0  0  1  0  0  0  0  0  0
  -26.4730  -37.1490   23.8620 N   0  0  0  0  0  0  0  0  0  0  0  0
  -26.0860  -38.0540   24.1150 H   0  0  0  0  0  0  0  0  0  0  0  0
  -26.5220  -31.3990   24.7730 C   0  0  1  0  0  0  0  0  0  0  0  0
  -25.5430  -31.0660   25.9220 C   0  0  0  0  0  1  0  0  0  0  0  0
  -27.0650  -30.0650   24.2110 C   0  0  0  0  0  1  0  0  0  0  0  0
  -27.7330  -32.1490   25.3790 C   0  0  0  0  0  1  0  0  0  0  0  0
  -29.7810  -21.3850   21.6870 C   0  0  0  0  0  2  0  0  0  0  0  0
  -29.7540  -19.9660   21.7740 O   0  0  0  0  0  0  0  0  0  0  0  0
  -31.1340  -19.8290   19.7380 C   0  0  0  0  0  3  0  0  0  0  0  0
  -30.1690  -17.8630   20.7460 C   0  0  0  0  0  3  0  0  0  0  0  0
  -30.3550  -19.2550   20.7610 C   0  0  0  0  0  0  0  0  0  0  0  0
  -31.6720  -18.9880   18.7490 C   0  0  0  0  0  0  0  0  0  0  0  0
  -30.7070  -17.0860   19.7010 C   0  0  0  0  0  0  0  0  0  0  0  0
  -32.5240  -19.5470   17.6290 C   0  0  0  0  0  1  0  0  0  0  0  0
  -31.4600  -17.6550   18.7300 N   0  0  0  0  0  0  0  0  0  0  0  0
  -30.9750  -14.6840   19.0830 C   0  0  0  0  0  0  0  0  0  0  0  0
  -30.7790  -12.2720   18.5790 C   0  0  0  0  0  2  0  0  0  0  0  0
  -29.7180  -12.0180   17.4900 C   0  0  0  0  0  2  0  0  0  0  0  0
  -28.3140  -11.8940   18.1110 C   0  0  0  0  0  2  0  0  0  0  0  0
  -27.9900  -13.0540   19.0890 C   0  0  0  0  0  3  0  0  0  0  0  0
  -29.1490  -13.2570   20.0900 C   0  0  0  0  0  2  0  0  0  0  0  0
  -30.3920  -13.4790   19.3240 N   0  0  0  0  0  0  0  0  0  0  0  0
  -31.9130  -14.8200   18.2880 O   0  0  0  0  0  0  0  0  0  0  0  0
  -30.4300  -15.7000   19.7680 N   0  0  0  0  0  0  0  0  0  0  0  0
  -29.6360  -15.4420   20.3290 H   0  0  0  0  0  0  0  0  0  0  0  0
  -25.7820  -13.7600   20.2120 C   0  0  0  0  0  0  0  0  0  0  0  0
  -24.7420  -13.0290   20.7230 C   0  0  0  0  0  0  0  0  0  0  0  0
  -25.1040  -11.6580   20.5560 C   0  0  0  0  0  0  0  0  0  0  0  0
  -26.7170  -12.8350   19.7730 N   0  0  0  0  0  0  0  0  0  0  0  0
  -26.3190  -11.5620   20.0320 N   0  0  0  0  0  0  0  0  0  0  0  0
  -24.3420  -10.4290   20.8110 C   0  0  0  0  0  0  0  0  0  0  0  0
  -24.7340   -9.5110   21.8090 C   0  0  0  0  0  3  0  0  0  0  0  0
  -23.9740   -8.3450   22.0490 C   0  0  0  0  0  3  0  0  0  0  0  0
  -22.8080   -8.0890   21.2900 C   0  0  0  0  0  0  0  0  0  0  0  0
  -22.4340   -8.9950   20.2810 C   0  0  0  0  0  3  0  0  0  0  0  0
  -23.1940  -10.1520   20.0400 C   0  0  0  0  0  3  0  0  0  0  0  0
  -22.0230   -6.9720   21.4350 O   0  0  0  0  0  0  0  0  0  0  0  0
  -21.7500   -6.4380   22.6690 C   0  0  0  0  0  0  0  0  0  0  0  0
  -21.1180   -7.1910   23.6820 C   0  0  0  0  0  3  0  0  0  0  0  0
  -20.7940   -6.5830   24.9110 C   0  0  0  0  0  3  0  0  0  0  0  0
  -21.0910   -5.2240   25.1270 C   0  0  0  0  0  0  0  0  0  0  0  0
  -21.7150   -4.4720   24.1160 C   0  0  0  0  0  3  0  0  0  0  0  0
  -22.0410   -5.0770   22.8890 C   0  0  0  0  0  0  0  0  0  0  0  0
  -22.6230   -4.3420   21.9110 F   0  0  0  0  0  0  0  0  0  0  0  0
  -20.7730   -4.6370   26.3040 F   0  0  0  0  0  0  0  0  0  0  0  0
  -23.4440  -13.5670   21.2510 C   0  0  0  0  0  0  0  0  0  0  0  0
  -22.8440  -12.8810   22.2180 N   0  0  0  0  0  0  0  0  0  0  0  0
  -22.9770  -14.6280   20.8410 O   0  0  0  0  0  0  0  0  0  0  0  0
  -23.2380  -12.0210   22.5690 H   0  0  0  0  0  0  0  0  0  0  0  0
  -21.9780  -13.2210   22.6130 H   0  0  0  0  0  0  0  0  0  0  0  0
  -26.0030  -15.1260   20.0680 N   0  0  0  0  0  0  0  0  0  0  0  0
  -25.3060  -15.8160   20.3260 H   0  0  0  0  0  0  0  0  0  0  0  0
  -26.8130  -15.5310   19.6170 H   0  0  0  0  0  0  0  0  0  0  0  0
  2  1  1  0
  3  2  1  0
  4  3  1  0
  5  3  1  0
  6  3  1  0
  7  6  1  0
  8  7  1  0
  8 10  1  0
  9 20  2  0
 10 15  1  0
 11 19  1  0
 11 21  1  0
 12 18  1  0
 12 14  1  0
 13 19  1  0
 14 13  1  0
 15 14  2  0
 16 17  1  0
 16 10  2  0
 17 12  2  0
 18 11  1  0
 19  9  1  0
 21 23  2  0
 22 21  1  0
 24 22  1  0
 25 34  2  0
 25 30  1  0
 26 22  1  0
 26 30  1  0
 27 26  1  0
 28 29  1  0
 28 27  1  0
 29 25  1  0
 30 31  2  0
 31 32  1  0
 33 32  2  0
 34 33  1  0
 35  9  1  0
 35 36  1  0
 35 45  1  0
 36 39  1  0
 37 41  1  0
 37 36  1  0
 38 37  2  0
 41 40  1  0
 43 41  1  0
 43 44  1  0
 43 42  1  0
 45 48  1  1
 45 46  1  0
 47 45  1  0
 49 50  1  0
 49  1  1  0
 51 53  1  0
 52 53  2  0
 53 50  1  0
 54 51  2  0
 55 66  1  0
 55 52  1  0
 56 54  1  0
 57 54  1  0
 57 55  2  0
 58 64  1  0
 58 66  1  0
 59 64  1  0
 60 61  1  0
 60 59  1  0
 62 61  1  0
 62 71  1  0
 62 63  1  0
 64 63  1  0
 65 58  2  0
 66 67  1  0
 68 69  2  0
 69 88  1  0
 70 69  1  0
 70 73  1  0
 71 72  1  0
 71 68  1  0
 72 70  2  0
 73 74  1  0
 74 75  2  0
 76 79  1  0
 76 75  1  0
 77 76  2  0
 78 77  1  0
 78 73  2  0
 79 80  1  0
 80 85  2  0
 80 81  1  0
 81 82  2  0
 82 83  1  0
 83 87  1  0
 84 83  2  0
 85 84  1  0
 86 85  1  0
 88 89  1  0
 89 91  1  0
 89 92  1  0
 90 88  2  0
 93 68  1  0
 93 94  1  0
 95 93  1  0
M  ISO  4   7 101   8 101  58 100  66 100
M  END
>  <TORSDO>  (70) 
F 23

>  <SCORE>  (70) 
-10.417

>  <name>  (70) 
69

>  <ligand_id>  (70) 
69

>  <original_smiles>  (70) 
[H]c1c([H])c([H])c2c(c1[H])C([H])([H])C([H])([H])C([H])([H])C2([H])N([H])C(=O)C1([H])N(C(=O)C([H])(N([H])C(=O)C([H])(N([H])C([H])([H])[H])C([H])([H])[H])C(C([H])([H])[H])(C([H])([H])[H])C([H])([H])[H])C([H])([H])c2c([H])c(OC([H])([H])C([H])([H])[N+]([H])([H])C([H])([H])C([H])([H])C([H])([H])Oc3c([H])c(N([H])C(=O)N4C([H])([H])C([H])([H])C([H])([H])C([H])(n5nc(-c6c([H])c([H])c(Oc7c([H])c([H])c(F)c([H])c7F)c([H])c6[H])c(C(=O)N([H])[H])c5N([H])[H])C4([H])[H])nc(C([H])([H])[H])c3[H])c([H])c([H])c2C1([H])[H]

>  <smiles>  (70) 
[H]c1c([H])c([H])c2c(c1[H])C([H])([H])C([H])([H])C([H])([H])C2([H])N([H])C(=O)C1([H])N(C(=O)C([H])(N([H])C(=O)C([H])(N([H])C([H])([H])[H])C([H])([H])[H])C(C([H])([H])[H])(C([H])([H])[H])C([H])([H])[H])C([H])([H])c2c([H])c(OC([H])([H])C([H])([H])[N+]([H])([H])C([H])([H])C([H])([H])C([H])([H])Oc3c([H])c(N([H])C(=O)N4C([H])([H])C([H])([H])C([H])([H])C([H])(n5nc(-c6c([H])c([H])c(Oc7c([H])c([H])c(F)c([H])c7F)c([H])c6[H])c(C(=O)N([H])[H])c5N([H])[H])C4([H])[H])nc(C([H])([H])[H])c3[H])c([H])c([H])c2C1([H])[H]

$$$$
70:0:0
     RDKit          3D

 92101  0  0  1  0  0  0  0  0999 V2000
  -28.9790  -23.1910   19.5210 C   0  0  0  0  0  2  0  0  0  0  0  0
  -28.9060  -23.0690   22.0110 C   0  0  0  0  0  2  0  0  0  0  0  0
  -29.8250  -21.8720   19.5080 C   0  0  0  0  0  2  0  0  0  0  0  0
  -29.7490  -21.7580   21.9860 C   0  0  0  0  0  2  0  0  0  0  0  0
  -29.1240  -24.0430   20.8140 C   0  0  0  0  0  3  0  0  0  0  0  0
  -29.5470  -20.9110   20.7020 C   0  0  0  0  0  3  0  0  0  0  0  0
  -30.4210  -19.6750   20.6780 N   0  0  0  0  0  4  0  0  0  0  0  0
  -31.1640  -19.8190   21.3430 H   0  0  0  0  0  0  0  0  0  0  0  0
  -30.8590  -19.6330   19.7720 H   0  0  0  0  0  0  0  0  0  0  0  0
  -30.6730  -14.6500   20.3740 C   0  0  0  0  0  0  0  0  0  0  0  0
  -30.3460  -12.4220   19.3280 C   0  0  0  0  0  2  0  0  0  0  0  0
  -29.3950  -12.5160   18.1180 C   0  0  0  0  0  2  0  0  0  0  0  0
  -27.9360  -12.3240   18.5720 C   0  0  0  0  0  2  0  0  0  0  0  0
  -27.5720  -13.2140   19.7860 C   0  0  0  0  0  3  0  0  0  0  0  0
  -28.6540  -13.1670   20.8940 C   0  0  0  0  0  2  0  0  0  0  0  0
  -29.9540  -13.4820   20.2800 N   0  0  0  0  0  0  0  0  0  0  0  0
  -31.8680  -14.6640   20.0680 O   0  0  0  0  0  0  0  0  0  0  0  0
  -28.8240  -17.8380   19.8980 C   0  0  0  0  0  2  0  0  0  0  0  0
  -28.8020  -16.3040   20.0490 C   0  0  0  0  0  2  0  0  0  0  0  0
  -30.7970  -17.1040   20.9940 C   0  0  0  0  0  2  0  0  0  0  0  0
  -29.8090  -18.3190   20.9490 C   0  0  0  0  0  3  0  0  0  0  0  0
  -30.0520  -15.8470   20.6780 N   0  0  0  0  0  0  0  0  0  0  0  0
  -25.2040  -13.8320   20.5460 C   0  0  0  0  0  0  0  0  0  0  0  0
  -24.1380  -13.0650   20.9270 C   0  0  0  0  0  0  0  0  0  0  0  0
  -24.5930  -11.7120   20.8860 C   0  0  0  0  0  0  0  0  0  0  0  0
  -26.2390  -12.9430   20.2980 N   0  0  0  0  0  0  0  0  0  0  0  0
  -25.8800  -11.6640   20.5670 N   0  0  0  0  0  0  0  0  0  0  0  0
  -23.8650  -10.4530   21.0740 C   0  0  0  0  0  0  0  0  0  0  0  0
  -24.3140   -9.4750   21.9880 C   0  0  0  0  0  3  0  0  0  0  0  0
  -23.5890   -8.2780   22.1660 C   0  0  0  0  0  3  0  0  0  0  0  0
  -22.4020   -8.0530   21.4300 C   0  0  0  0  0  0  0  0  0  0  0  0
  -21.9720   -9.0200   20.5040 C   0  0  0  0  0  3  0  0  0  0  0  0
  -22.6980  -10.2090   20.3240 C   0  0  0  0  0  3  0  0  0  0  0  0
  -21.6460   -6.9100   21.5190 O   0  0  0  0  0  0  0  0  0  0  0  0
  -21.6250   -6.1490   22.6590 C   0  0  0  0  0  0  0  0  0  0  0  0
  -21.2390   -6.6880   23.9070 C   0  0  0  0  0  3  0  0  0  0  0  0
  -21.1650   -5.8530   25.0400 C   0  0  0  0  0  3  0  0  0  0  0  0
  -21.4660   -4.4820   24.9280 C   0  0  0  0  0  0  0  0  0  0  0  0
  -21.8450   -3.9450   23.6850 C   0  0  0  0  0  3  0  0  0  0  0  0
  -21.9210   -4.7760   22.5540 C   0  0  0  0  0  0  0  0  0  0  0  0
  -22.2670   -4.2490   21.3540 F   0  0  0  0  0  0  0  0  0  0  0  0
  -21.3860   -3.6800   26.0130 F   0  0  0  0  0  0  0  0  0  0  0  0
  -22.7460  -13.5500   21.2110 C   0  0  0  0  0  0  0  0  0  0  0  0
  -22.0240  -12.8560   22.0840 N   0  0  0  0  0  0  0  0  0  0  0  0
  -22.3080  -14.5770   20.6940 O   0  0  0  0  0  0  0  0  0  0  0  0
  -22.3920  -12.0270   22.5250 H   0  0  0  0  0  0  0  0  0  0  0  0
  -21.0880  -13.1580   22.3130 H   0  0  0  0  0  0  0  0  0  0  0  0
  -25.3640  -15.2020   20.3640 N   0  0  0  0  0  0  0  0  0  0  0  0
  -24.5850  -15.8460   20.4590 H   0  0  0  0  0  0  0  0  0  0  0  0
  -26.1910  -15.6370   19.9770 H   0  0  0  0  0  0  0  0  0  0  0  0
  -28.1250  -25.2700   20.9200 C   0  0  0  0  0  2  0  0  0  0  0  0
  -28.3610  -26.5280   20.2060 O   0  0  0  0  0  0  0  0  0  0  0  0
  -24.6290  -31.8720   23.2270 C   0  0  0  0  0  0  0  0  0  0  0  0
  -27.2460  -27.3640   20.1610 C   0  0  0  0  0  0  0  0  0  0  0  0
  -23.4180  -30.4710   21.5900 C   0  0  0  0  0  3  0  0  0  0  0  0
  -24.8670  -28.9290   20.1560 C   0  0  0  0  0  0  0  0  0  0  0  0
  -25.9510  -30.8090   21.3910 C   0  0  0  0  0  2  0  0  0  0  0  0
  -26.0330  -29.4350   20.7470 C   0  0  0  0  0  0  0  0  0  0  0  0
  -27.2280  -28.6620   20.7400 C   0  0  0  0  0  3  0  0  0  0  0  0
  -26.0650  -26.9020   19.5400 C   0  0  0  0  0  3  0  0  0  0  0  0
  -24.8820  -27.6650   19.5440 C   0  0  0  0  0  3  0  0  0  0  0  0
  -23.6250  -29.7930   20.2100 C   0  0  0  0  0  2  0  0  0  0  0  0
  -24.6840  -31.0680   22.1270 N   0  0  0  0  0  0  0  0  0  0  0  0
  -23.5480  -32.1460   23.7700 O   0  0  0  0  0  0  0  0  0  0  0  0
  -22.7640  -29.4530   22.5530 C   0  0  0  0  0  0  0  0  0  0  0  0
  -21.4370  -29.2770   22.4350 N   0  0  0  0  0  0  0  0  0  0  0  0
  -23.4480  -28.8240   23.3650 O   0  0  0  0  0  0  0  0  0  0  0  0
  -20.9450  -29.8350   21.7510 H   0  0  0  0  0  0  0  0  0  0  0  0
  -18.0610  -28.0920   22.9540 C   0  0  0  0  0  0  0  0  0  0  0  0
  -20.6210  -28.3400   23.2100 C   0  0  0  0  0  3  0  0  0  0  0  0
  -20.7140  -26.9100   22.6290 C   0  0  0  0  0  2  0  0  0  0  0  0
  -19.6040  -26.5930   21.6220 C   0  0  0  0  0  2  0  0  0  0  0  0
  -18.2270  -26.7430   22.2740 C   0  0  0  0  0  2  0  0  0  0  0  0
  -19.1850  -28.8490   23.3780 C   0  0  0  0  0  0  0  0  0  0  0  0
  -18.9740  -30.1120   23.9720 C   0  0  0  0  0  3  0  0  0  0  0  0
  -17.6730  -30.6180   24.1470 C   0  0  0  0  0  3  0  0  0  0  0  0
  -16.5620  -29.8570   23.7410 C   0  0  0  0  0  3  0  0  0  0  0  0
  -16.7580  -28.5960   23.1490 C   0  0  0  0  0  3  0  0  0  0  0  0
  -25.9160  -32.5020   23.8440 C   0  0  0  0  0  3  0  0  0  0  0  0
  -25.6070  -33.8960   24.1880 N   0  0  0  0  0  0  0  0  0  0  0  0
  -25.9240  -34.9550   23.4330 C   0  0  0  0  0  0  0  0  0  0  0  0
  -26.5820  -34.8620   22.3930 O   0  0  0  0  0  0  0  0  0  0  0  0
  -25.0240  -34.0430   24.9990 H   0  0  0  0  0  0  0  0  0  0  0  0
  -24.1840  -36.7410   23.1120 C   0  0  0  0  0  1  0  0  0  0  0  0
  -25.4360  -36.3380   23.9060 C   0  0  0  0  0  3  0  0  0  0  0  0
  -27.5810  -37.2240   24.7100 C   0  0  0  0  0  1  0  0  0  0  0  0
  -26.4620  -37.3980   23.7880 N   0  0  0  0  0  0  0  0  0  0  0  0
  -26.0530  -38.3140   23.9550 H   0  0  0  0  0  0  0  0  0  0  0  0
  -26.4470  -31.7200   25.1090 C   0  0  1  0  0  0  0  0  0  0  0  0
  -25.3640  -31.4720   26.1860 C   0  0  0  0  0  1  0  0  0  0  0  0
  -27.0300  -30.3480   24.6990 C   0  0  0  0  0  1  0  0  0  0  0  0
  -27.6020  -32.5110   25.7670 C   0  0  0  0  0  1  0  0  0  0  0  0
  1  5  1  0
  3  1  1  0
  3  6  1  0
  4  2  1  0
  5 51  1  0
  5  2  1  0
  6  7  1  0
  6  4  1  0
  7  8  1  0
  9  7  1  0
 10 22  1  0
 11 16  1  0
 12 13  1  0
 12 11  1  0
 14 13  1  0
 14 26  1  0
 14 15  1  0
 16 10  1  0
 16 15  1  0
 17 10  2  0
 18 19  1  0
 18 21  1  0
 19 22  1  0
 21  7  1  0
 21 20  1  0
 22 20  1  0
 23 24  2  0
 24 43  1  0
 25 24  1  0
 25 28  1  0
 26 23  1  0
 26 27  1  0
 27 25  2  0
 28 29  1  0
 29 30  2  0
 31 34  1  0
 31 30  1  0
 32 31  2  0
 33 32  1  0
 33 28  2  0
 34 35  1  0
 35 36  1  0
 36 37  2  0
 38 37  1  0
 38 42  1  0
 39 38  2  0
 40 35  2  0
 40 39  1  0
 41 40  1  0
 43 44  1  0
 44 47  1  0
 44 46  1  0
 45 43  2  0
 48 49  1  0
 48 23  1  0
 50 48  1  0
 52 51  1  0
 53 64  2  0
 54 52  1  0
 54 59  1  0
 55 63  1  0
 55 65  1  0
 56 62  1  0
 56 58  1  0
 57 63  1  0
 58 57  1  0
 59 58  2  0
 60 61  1  0
 60 54  2  0
 61 56  2  0
 62 55  1  0
 63 53  1  0
 65 67  2  0
 66 65  1  0
 68 66  1  0
 69 78  2  0
 69 74  1  0
 70 66  1  0
 70 74  1  0
 71 70  1  0
 72 73  1  0
 72 71  1  0
 73 69  1  0
 74 75  2  0
 75 76  1  0
 77 76  2  0
 78 77  1  0
 79 53  1  0
 79 80  1  0
 79 89  1  0
 80 83  1  0
 81 85  1  0
 81 80  1  0
 82 81  2  0
 85 84  1  0
 87 85  1  0
 87 88  1  0
 87 86  1  0
 89 92  1  1
 89 90  1  0
 91 89  1  0
M  ISO  4  10 100  22 100  51 101  52 101
M  END
>  <TORSDO>  (71) 
F 18

>  <SCORE>  (71) 
-14.799

>  <name>  (71) 
70

>  <ligand_id>  (71) 
70

>  <original_smiles>  (71) 
[H]c1c([H])c([H])c2c(c1[H])C([H])([H])C([H])([H])C([H])([H])C2([H])N([H])C(=O)C1([H])N(C(=O)C([H])(N([H])C(=O)C([H])(N([H])C([H])([H])[H])C([H])([H])[H])C(C([H])([H])[H])(C([H])([H])[H])C([H])([H])[H])C([H])([H])c2c([H])c(OC([H])([H])C3([H])C([H])([H])C([H])([H])C([H])([N+]([H])([H])C4([H])C([H])([H])N(C(=O)N5C([H])([H])C([H])([H])C([H])([H])C([H])(n6nc(-c7c([H])c([H])c(Oc8c([H])c([H])c(F)c([H])c8F)c([H])c7[H])c(C(=O)N([H])[H])c6N([H])[H])C5([H])[H])C([H])([H])C4([H])[H])C([H])([H])C3([H])[H])c([H])c([H])c2C1([H])[H]

>  <smiles>  (71) 
[H]c1c([H])c([H])c2c(c1[H])C([H])([H])C([H])([H])C([H])([H])C2([H])N([H])C(=O)C1([H])N(C(=O)C([H])(N([H])C(=O)C([H])(N([H])C([H])([H])[H])C([H])([H])[H])C(C([H])([H])[H])(C([H])([H])[H])C([H])([H])[H])C([H])([H])c2c([H])c(OC([H])([H])C3([H])C([H])([H])C([H])([H])C([H])([N+]([H])([H])C4([H])C([H])([H])N(C(=O)N5C([H])([H])C([H])([H])C([H])([H])C([H])(n6nc(-c7c([H])c([H])c(Oc8c([H])c([H])c(F)c([H])c8F)c([H])c7[H])c(C(=O)N([H])[H])c6N([H])[H])C5([H])[H])C([H])([H])C4([H])[H])C([H])([H])C3([H])[H])c([H])c([H])c2C1([H])[H]

$$$$
71:0:0
     RDKit          3D

 97107  0  0  1  0  0  0  0  0999 V2000
  -30.6790  -23.3240   20.5610 C   0  0  0  0  0  2  0  0  0  0  0  0
  -29.1650  -22.1290   19.2270 C   0  0  0  0  0  2  0  0  0  0  0  0
  -31.3780  -21.9660   20.2170 C   0  0  0  0  0  3  0  0  0  0  0  0
  -29.6810  -23.6130   19.4290 C   0  0  0  0  0  3  0  0  0  0  0  0
  -30.3520  -21.0840   19.4360 C   0  0  0  0  0  3  0  0  0  0  0  0
  -29.1740  -19.5680   21.1050 C   0  0  0  0  0  2  0  0  0  0  0  0
  -29.9720  -19.8390   22.4030 C   0  0  0  0  0  2  0  0  0  0  0  0
  -31.4240  -18.1040   21.4130 C   0  0  0  0  0  2  0  0  0  0  0  0
  -31.0540  -18.5130   19.9510 C   0  0  0  0  0  3  0  0  0  0  0  0
  -30.0400  -19.6640   19.9190 N   0  0  0  0  0  0  0  0  0  0  0  0
  -31.3260  -19.2370   22.3530 N   0  0  0  0  0  4  0  0  0  0  0  0
  -31.6070  -18.9540   23.2780 H   0  0  0  0  0  0  0  0  0  0  0  0
  -31.9670  -19.9420   22.0340 H   0  0  0  0  0  0  0  0  0  0  0  0
  -30.6830  -17.1840   19.1010 C   0  0  0  0  0  2  0  0  0  0  0  0
  -31.3390  -14.6550   19.4520 C   0  0  0  0  0  0  0  0  0  0  0  0
  -30.9630  -12.3660   18.5500 C   0  0  0  0  0  2  0  0  0  0  0  0
  -29.9130  -12.4780   17.4200 C   0  0  0  0  0  2  0  0  0  0  0  0
  -28.4860  -12.3740   17.9920 C   0  0  0  0  0  2  0  0  0  0  0  0
  -28.2710  -13.2870   19.2270 C   0  0  0  0  0  3  0  0  0  0  0  0
  -29.4340  -13.1680   20.2400 C   0  0  0  0  0  2  0  0  0  0  0  0
  -30.6840  -13.4470   19.5200 N   0  0  0  0  0  0  0  0  0  0  0  0
  -32.4610  -14.7320   18.9440 O   0  0  0  0  0  0  0  0  0  0  0  0
  -30.6130  -15.7930   19.7360 N   0  0  0  0  0  0  0  0  0  0  0  0
  -29.7280  -15.5820   20.1730 H   0  0  0  0  0  0  0  0  0  0  0  0
  -26.0060  -13.9870   20.2120 C   0  0  0  0  0  0  0  0  0  0  0  0
  -24.9450  -13.2630   20.6850 C   0  0  0  0  0  0  0  0  0  0  0  0
  -25.3280  -11.8910   20.5850 C   0  0  0  0  0  0  0  0  0  0  0  0
  -26.9700  -13.0600   19.8510 N   0  0  0  0  0  0  0  0  0  0  0  0
  -26.5750  -11.7920   20.1350 N   0  0  0  0  0  0  0  0  0  0  0  0
  -24.5580  -10.6650   20.8360 C   0  0  0  0  0  0  0  0  0  0  0  0
  -24.9410   -9.7450   21.8370 C   0  0  0  0  0  3  0  0  0  0  0  0
  -24.1750   -8.5810   22.0690 C   0  0  0  0  0  3  0  0  0  0  0  0
  -23.0120   -8.3320   21.3010 C   0  0  0  0  0  0  0  0  0  0  0  0
  -22.6490   -9.2390   20.2910 C   0  0  0  0  0  3  0  0  0  0  0  0
  -23.4150  -10.3930   20.0570 C   0  0  0  0  0  3  0  0  0  0  0  0
  -22.2170   -7.2200   21.4430 O   0  0  0  0  0  0  0  0  0  0  0  0
  -22.0110   -6.6330   22.6650 C   0  0  0  0  0  0  0  0  0  0  0  0
  -21.4590   -7.3460   23.7510 C   0  0  0  0  0  3  0  0  0  0  0  0
  -21.2010   -6.6840   24.9690 C   0  0  0  0  0  3  0  0  0  0  0  0
  -21.4840   -5.3100   25.0980 C   0  0  0  0  0  0  0  0  0  0  0  0
  -22.0280   -4.5980   24.0130 C   0  0  0  0  0  3  0  0  0  0  0  0
  -22.2890   -5.2580   22.8000 C   0  0  0  0  0  0  0  0  0  0  0  0
  -22.7940   -4.5620   21.7520 F   0  0  0  0  0  0  0  0  0  0  0  0
  -21.2290   -4.6710   26.2630 F   0  0  0  0  0  0  0  0  0  0  0  0
  -23.6140  -13.8090   21.1130 C   0  0  0  0  0  0  0  0  0  0  0  0
  -22.9880  -13.1930   22.1090 N   0  0  0  0  0  0  0  0  0  0  0  0
  -23.1420  -14.8210   20.5950 O   0  0  0  0  0  0  0  0  0  0  0  0
  -23.3840  -12.3770   22.5530 H   0  0  0  0  0  0  0  0  0  0  0  0
  -22.0980  -13.5440   22.4350 H   0  0  0  0  0  0  0  0  0  0  0  0
  -26.2200  -15.3510   20.0370 N   0  0  0  0  0  0  0  0  0  0  0  0
  -25.4840  -16.0280   20.2070 H   0  0  0  0  0  0  0  0  0  0  0  0
  -27.0260  -15.7460   19.5720 H   0  0  0  0  0  0  0  0  0  0  0  0
  -33.9550  -22.4220   20.0230 C   0  0  0  0  0  2  0  0  0  0  0  0
  -33.7000  -21.2730   19.0710 C   0  0  0  0  0  2  0  0  0  0  0  0
  -32.6070  -22.2680   19.3660 C   0  0  0  0  0  3  0  0  0  0  0  0
  -28.5640  -24.7520   19.6670 C   0  0  0  0  0  2  0  0  0  0  0  0
  -28.8040  -26.2280   19.7940 O   0  0  0  0  0  0  0  0  0  0  0  0
  -24.9650  -31.4840   23.0420 C   0  0  0  0  0  0  0  0  0  0  0  0
  -27.6700  -27.0800   19.7990 C   0  0  0  0  0  0  0  0  0  0  0  0
  -23.7810  -30.0900   21.3880 C   0  0  0  0  0  3  0  0  0  0  0  0
  -25.2550  -28.6380   19.8880 C   0  0  0  0  0  0  0  0  0  0  0  0
  -26.3080  -30.4960   21.1680 C   0  0  0  0  0  2  0  0  0  0  0  0
  -26.4240  -29.1390   20.4750 C   0  0  0  0  0  0  0  0  0  0  0  0
  -27.6340  -28.3730   20.4190 C   0  0  0  0  0  3  0  0  0  0  0  0
  -26.4660  -26.6490   19.1910 C   0  0  0  0  0  3  0  0  0  0  0  0
  -25.2800  -27.4000   19.2360 C   0  0  0  0  0  3  0  0  0  0  0  0
  -23.9910  -29.4680   19.9850 C   0  0  0  0  0  2  0  0  0  0  0  0
  -25.0380  -30.7070   21.9210 N   0  0  0  0  0  0  0  0  0  0  0  0
  -23.8840  -31.7070   23.6050 O   0  0  0  0  0  0  0  0  0  0  0  0
  -23.1740  -29.0210   22.3300 C   0  0  0  0  0  0  0  0  0  0  0  0
  -21.8570  -28.7820   22.2110 N   0  0  0  0  0  0  0  0  0  0  0  0
  -23.8870  -28.4130   23.1320 O   0  0  0  0  0  0  0  0  0  0  0  0
  -21.3350  -29.3320   21.5430 H   0  0  0  0  0  0  0  0  0  0  0  0
  -18.5580  -27.3590   22.6540 C   0  0  0  0  0  0  0  0  0  0  0  0
  -21.0880  -27.7910   22.9680 C   0  0  0  0  0  3  0  0  0  0  0  0
  -21.2950  -26.3690   22.3970 C   0  0  0  0  0  2  0  0  0  0  0  0
  -20.2360  -25.9720   21.3640 C   0  0  0  0  0  2  0  0  0  0  0  0
  -18.8360  -26.0250   21.9840 C   0  0  0  0  0  2  0  0  0  0  0  0
  -19.6150  -28.1950   23.1030 C   0  0  0  0  0  0  0  0  0  0  0  0
  -19.3010  -29.4400   23.6880 C   0  0  0  0  0  3  0  0  0  0  0  0
  -17.9620  -29.8520   23.8320 C   0  0  0  0  0  3  0  0  0  0  0  0
  -16.9190  -29.0130   23.4020 C   0  0  0  0  0  3  0  0  0  0  0  0
  -17.2170  -27.7690   22.8180 C   0  0  0  0  0  3  0  0  0  0  0  0
  -26.2360  -32.1470   23.6570 C   0  0  0  0  0  3  0  0  0  0  0  0
  -26.8280  -31.3410   24.8780 C   0  0  1  0  0  0  0  0  0  0  0  0
  -25.7820  -30.9940   25.9620 C   0  0  0  0  0  1  0  0  0  0  0  0
  -27.4690  -30.0170   24.4020 C   0  0  0  0  0  1  0  0  0  0  0  0
  -27.9560  -32.1600   25.5490 C   0  0  0  0  0  1  0  0  0  0  0  0
  -25.8740  -33.5110   24.0650 N   0  0  0  0  0  0  0  0  0  0  0  0
  -26.2670  -34.6270   23.4360 C   0  0  0  0  0  0  0  0  0  0  0  0
  -27.0410  -34.6140   22.4750 O   0  0  0  0  0  0  0  0  0  0  0  0
  -25.2000  -33.5950   24.8130 H   0  0  0  0  0  0  0  0  0  0  0  0
  -24.5870  -36.4550   23.0270 C   0  0  0  0  0  1  0  0  0  0  0  0
  -25.7130  -35.9680   23.9530 C   0  0  0  0  0  3  0  0  0  0  0  0
  -27.7160  -36.7600   25.1340 C   0  0  0  0  0  1  0  0  0  0  0  0
  -26.7430  -37.0220   24.0770 N   0  0  0  0  0  0  0  0  0  0  0  0
  -26.3150  -37.9260   24.2560 H   0  0  0  0  0  0  0  0  0  0  0  0
  2  4  1  0
  3 55  1  0
  3  1  1  0
  4 56  1  0
  4  1  1  0
  5  2  1  0
  5 10  1  0
  5  3  1  0
  6  7  1  0
  8 11  1  0
  9 14  1  0
  9  8  1  0
 10  9  1  0
 10  6  1  0
 11  7  1  0
 11 12  1  0
 13 11  1  0
 14 23  1  0
 15 21  1  0
 15 23  1  0
 16 21  1  0
 17 18  1  0
 17 16  1  0
 19 18  1  0
 19 28  1  0
 19 20  1  0
 21 20  1  0
 22 15  2  0
 23 24  1  0
 25 26  2  0
 26 45  1  0
 27 26  1  0
 27 30  1  0
 28 29  1  0
 28 25  1  0
 29 27  2  0
 30 31  1  0
 31 32  2  0
 33 36  1  0
 33 32  1  0
 34 33  2  0
 35 34  1  0
 35 30  2  0
 36 37  1  0
 37 42  2  0
 37 38  1  0
 38 39  2  0
 39 40  1  0
 40 44  1  0
 41 40  2  0
 42 41  1  0
 43 42  1  0
 45 46  1  0
 46 49  1  0
 46 48  1  0
 47 45  2  0
 50 51  1  0
 50 25  1  0
 52 50  1  0
 54 55  1  0
 54 53  1  0
 55 53  1  0
 56 57  1  0
 57 59  1  0
 58 69  2  0
 59 64  1  0
 60 68  1  0
 60 70  1  0
 61 67  1  0
 61 63  1  0
 62 68  1  0
 63 62  1  0
 64 63  2  0
 65 66  1  0
 65 59  2  0
 66 61  2  0
 67 60  1  0
 68 58  1  0
 70 72  2  0
 71 70  1  0
 73 71  1  0
 74 83  2  0
 74 79  1  0
 75 71  1  0
 75 79  1  0
 76 75  1  0
 77 78  1  0
 77 76  1  0
 78 74  1  0
 79 80  2  0
 80 81  1  0
 82 81  2  0
 83 82  1  0
 84 58  1  0
 84 89  1  0
 84 85  1  0
 85 88  1  1
 85 86  1  0
 87 85  1  0
 89 92  1  0
 90 94  1  0
 90 89  1  0
 91 90  2  0
 94 93  1  0
 94 96  1  0
 96 97  1  0
 96 95  1  0
M  ISO  4  15 100  23 100  56 101  57 101
M  END
>  <TORSDO>  (72) 
F 20

>  <SCORE>  (72) 
-10.752

>  <name>  (72) 
71

>  <ligand_id>  (72) 
71

>  <original_smiles>  (72) 
[H]c1c([H])c([H])c2c(c1[H])C([H])([H])C([H])([H])C([H])([H])C2([H])N([H])C(=O)C1([H])N(C(=O)C([H])(N([H])C(=O)C([H])(N([H])C([H])([H])[H])C([H])([H])[H])C(C([H])([H])[H])(C([H])([H])[H])C([H])([H])[H])C([H])([H])c2c([H])c(OC([H])([H])C3([H])C([H])([H])C([H])(N4C([H])([H])C([H])([H])[N+]([H])([H])C([H])([H])C4([H])C([H])([H])N([H])C(=O)N4C([H])([H])C([H])([H])C([H])([H])C([H])(n5nc(-c6c([H])c([H])c(Oc7c([H])c([H])c(F)c([H])c7F)c([H])c6[H])c(C(=O)N([H])[H])c5N([H])[H])C4([H])[H])C([H])(C4([H])C([H])([H])C4([H])[H])C3([H])[H])c([H])c([H])c2C1([H])[H]

>  <smiles>  (72) 
[H]c1c([H])c([H])c2c(c1[H])C([H])([H])C([H])([H])C([H])([H])C2([H])N([H])C(=O)C1([H])N(C(=O)C([H])(N([H])C(=O)C([H])(N([H])C([H])([H])[H])C([H])([H])[H])C(C([H])([H])[H])(C([H])([H])[H])C([H])([H])[H])C([H])([H])c2c([H])c(OC([H])([H])C3([H])C([H])([H])C([H])(N4C([H])([H])C([H])([H])[N+]([H])([H])C([H])([H])C4([H])C([H])([H])N([H])C(=O)N4C([H])([H])C([H])([H])C([H])([H])C([H])(n5nc(-c6c([H])c([H])c(Oc7c([H])c([H])c(F)c([H])c7F)c([H])c6[H])c(C(=O)N([H])[H])c5N([H])[H])C4([H])[H])C([H])(C4([H])C([H])([H])C4([H])[H])C3([H])[H])c([H])c([H])c2C1([H])[H]

$$$$
72:0:0
     RDKit          3D

 93102  0  0  1  0  0  0  0  0999 V2000
  -28.2130  -23.3270   22.6370 C   0  0  0  0  0  2  0  0  0  0  0  0
  -29.3270  -24.2400   22.1170 C   0  0  0  0  0  2  0  0  0  0  0  0
  -28.4020  -22.0810   21.7700 C   0  0  0  0  0  2  0  0  0  0  0  0
  -29.2480  -24.0380   20.5940 C   0  0  0  0  0  3  0  0  0  0  0  0
  -28.8980  -22.5510   20.4460 N   0  0  1  0  0  4  0  0  0  0  0  0
  -28.1240  -22.4860   19.8000 H   0  0  0  0  0  0  0  0  0  0  0  0
  -29.9700  -21.6380   19.8740 C   0  0  0  0  0  2  0  0  0  0  0  0
  -30.9080  -19.3790   20.8190 C   0  0  0  0  0  3  0  0  0  0  0  0
  -28.8930  -19.2690   19.5110 C   0  0  0  0  0  3  0  0  0  0  0  0
  -30.9170  -17.9560   20.9430 C   0  0  0  0  0  3  0  0  0  0  0  0
  -28.8900  -17.8530   19.6490 C   0  0  0  0  0  3  0  0  0  0  0  0
  -29.8970  -20.0770   20.0980 C   0  0  0  0  0  0  0  0  0  0  0  0
  -29.9000  -17.1540   20.3600 C   0  0  0  0  0  0  0  0  0  0  0  0
  -30.6330  -14.6690   20.3540 C   0  0  0  0  0  0  0  0  0  0  0  0
  -30.4340  -12.4300   19.3060 C   0  0  0  0  0  2  0  0  0  0  0  0
  -29.4970  -12.5790   18.0880 C   0  0  0  0  0  2  0  0  0  0  0  0
  -28.0190  -12.4230   18.5080 C   0  0  0  0  0  2  0  0  0  0  0  0
  -27.6550  -13.2790   19.7500 C   0  0  0  0  0  3  0  0  0  0  0  0
  -28.7090  -13.1150   20.8670 C   0  0  0  0  0  2  0  0  0  0  0  0
  -30.0250  -13.4430   20.2940 N   0  0  0  0  0  0  0  0  0  0  0  0
  -31.8160  -14.8280   20.0420 O   0  0  0  0  0  0  0  0  0  0  0  0
  -29.7730  -15.7130   20.5460 N   0  0  0  0  0  0  0  0  0  0  0  0
  -28.8250  -15.3830   20.6490 H   0  0  0  0  0  0  0  0  0  0  0  0
  -25.2570  -13.8890   20.4490 C   0  0  0  0  0  0  0  0  0  0  0  0
  -24.1870  -13.1200   20.8240 C   0  0  0  0  0  0  0  0  0  0  0  0
  -24.6490  -11.7680   20.8090 C   0  0  0  0  0  0  0  0  0  0  0  0
  -26.3010  -13.0040   20.2300 N   0  0  0  0  0  0  0  0  0  0  0  0
  -25.9410  -11.7240   20.5070 N   0  0  0  0  0  0  0  0  0  0  0  0
  -23.9190  -10.5090   21.0030 C   0  0  0  0  0  0  0  0  0  0  0  0
  -24.3410   -9.5520   21.9500 C   0  0  0  0  0  3  0  0  0  0  0  0
  -23.6130   -8.3570   22.1320 C   0  0  0  0  0  3  0  0  0  0  0  0
  -22.4500   -8.1110   21.3650 C   0  0  0  0  0  0  0  0  0  0  0  0
  -22.0470   -9.0570   20.4070 C   0  0  0  0  0  3  0  0  0  0  0  0
  -22.7760  -10.2440   20.2240 C   0  0  0  0  0  3  0  0  0  0  0  0
  -21.6940   -6.9690   21.4550 O   0  0  0  0  0  0  0  0  0  0  0  0
  -21.6260   -6.2390   22.6160 C   0  0  0  0  0  0  0  0  0  0  0  0
  -21.1670   -6.8040   23.8260 C   0  0  0  0  0  3  0  0  0  0  0  0
  -21.0470   -6.0010   24.9770 C   0  0  0  0  0  3  0  0  0  0  0  0
  -21.3760   -4.6330   24.9200 C   0  0  0  0  0  0  0  0  0  0  0  0
  -21.8280   -4.0680   23.7150 C   0  0  0  0  0  3  0  0  0  0  0  0
  -21.9490   -4.8680   22.5660 C   0  0  0  0  0  0  0  0  0  0  0  0
  -22.3650   -4.3130   21.4020 F   0  0  0  0  0  0  0  0  0  0  0  0
  -21.2520   -3.8600   26.0230 F   0  0  0  0  0  0  0  0  0  0  0  0
  -22.7900  -13.6040   21.0800 C   0  0  0  0  0  0  0  0  0  0  0  0
  -22.0530  -12.9200   21.9490 N   0  0  0  0  0  0  0  0  0  0  0  0
  -22.3600  -14.6250   20.5470 O   0  0  0  0  0  0  0  0  0  0  0  0
  -22.4120  -12.0960   22.4090 H   0  0  0  0  0  0  0  0  0  0  0  0
  -21.1140  -13.2280   22.1570 H   0  0  0  0  0  0  0  0  0  0  0  0
  -25.4210  -15.2570   20.2530 N   0  0  0  0  0  0  0  0  0  0  0  0
  -24.6330  -15.8950   20.3060 H   0  0  0  0  0  0  0  0  0  0  0  0
  -26.2490  -15.6910   19.8680 H   0  0  0  0  0  0  0  0  0  0  0  0
  -28.1770  -25.0670   20.0010 C   0  0  0  0  0  2  0  0  0  0  0  0
  -28.3960  -26.5240   20.1640 O   0  0  0  0  0  0  0  0  0  0  0  0
  -24.6580  -31.8780   23.2180 C   0  0  0  0  0  0  0  0  0  0  0  0
  -27.2720  -27.3630   20.1130 C   0  0  0  0  0  0  0  0  0  0  0  0
  -23.4470  -30.4960   21.5670 C   0  0  0  0  0  3  0  0  0  0  0  0
  -24.8990  -28.9630   20.1220 C   0  0  0  0  0  0  0  0  0  0  0  0
  -25.9860  -30.8200   21.3760 C   0  0  0  0  0  2  0  0  0  0  0  0
  -26.0680  -29.4500   20.7190 C   0  0  0  0  0  0  0  0  0  0  0  0
  -27.2570  -28.6620   20.7070 C   0  0  0  0  0  3  0  0  0  0  0  0
  -26.0770  -26.9280   19.4890 C   0  0  0  0  0  3  0  0  0  0  0  0
  -24.9080  -27.7080   19.4990 C   0  0  0  0  0  3  0  0  0  0  0  0
  -23.6590  -29.8340   20.1800 C   0  0  0  0  0  2  0  0  0  0  0  0
  -24.7160  -31.0820   22.1110 N   0  0  0  0  0  0  0  0  0  0  0  0
  -23.5780  -32.1460   23.7640 O   0  0  0  0  0  0  0  0  0  0  0  0
  -22.7960  -29.4630   22.5190 C   0  0  0  0  0  0  0  0  0  0  0  0
  -21.4690  -29.2830   22.4040 N   0  0  0  0  0  0  0  0  0  0  0  0
  -23.4850  -28.8250   23.3190 O   0  0  0  0  0  0  0  0  0  0  0  0
  -20.9680  -29.8520   21.7330 H   0  0  0  0  0  0  0  0  0  0  0  0
  -18.0990  -28.0890   22.9340 C   0  0  0  0  0  0  0  0  0  0  0  0
  -20.6610  -28.3390   23.1760 C   0  0  0  0  0  3  0  0  0  0  0  0
  -20.7480  -26.9090   22.5870 C   0  0  0  0  0  2  0  0  0  0  0  0
  -19.6360  -26.6030   21.5790 C   0  0  0  0  0  2  0  0  0  0  0  0
  -18.2620  -26.7470   22.2390 C   0  0  0  0  0  2  0  0  0  0  0  0
  -19.2240  -28.8430   23.3600 C   0  0  0  0  0  0  0  0  0  0  0  0
  -19.0130  -30.1010   23.9660 C   0  0  0  0  0  3  0  0  0  0  0  0
  -17.7110  -30.6040   24.1490 C   0  0  0  0  0  3  0  0  0  0  0  0
  -16.6010  -29.8460   23.7390 C   0  0  0  0  0  3  0  0  0  0  0  0
  -16.7950  -28.5890   23.1390 C   0  0  0  0  0  3  0  0  0  0  0  0
  -25.9440  -32.5100   23.8350 C   0  0  0  0  0  3  0  0  0  0  0  0
  -26.4690  -31.7350   25.1060 C   0  0  1  0  0  0  0  0  0  0  0  0
  -25.3790  -31.4940   26.1770 C   0  0  0  0  0  1  0  0  0  0  0  0
  -27.0520  -30.3610   24.7040 C   0  0  0  0  0  1  0  0  0  0  0  0
  -27.6230  -32.5280   25.7660 C   0  0  0  0  0  1  0  0  0  0  0  0
  -25.6360  -33.9060   24.1760 N   0  0  0  0  0  0  0  0  0  0  0  0
  -25.9540  -34.9640   23.4180 C   0  0  0  0  0  0  0  0  0  0  0  0
  -26.6090  -34.8670   22.3760 O   0  0  0  0  0  0  0  0  0  0  0  0
  -25.0600  -34.0540   24.9920 H   0  0  0  0  0  0  0  0  0  0  0  0
  -24.2140  -36.7520   23.0940 C   0  0  0  0  0  1  0  0  0  0  0  0
  -25.4680  -36.3500   23.8890 C   0  0  0  0  0  3  0  0  0  0  0  0
  -27.6090  -37.2370   24.6990 C   0  0  0  0  0  1  0  0  0  0  0  0
  -26.4960  -37.4050   23.7690 N   0  0  0  0  0  0  0  0  0  0  0  0
  -26.0910  -38.3230   23.9300 H   0  0  0  0  0  0  0  0  0  0  0  0
  2  1  1  0
  3  1  1  0
  4 52  1  0
  4  2  1  0
  5  4  1  0
  5  3  1  0
  5  6  1  6
  7 12  1  0
  7  5  1  0
  8 10  1  0
  9 11  2  0
  9 12  1  0
 11 13  1  0
 12  8  2  0
 13 22  1  0
 13 10  2  0
 14 22  1  0
 15 20  1  0
 16 17  1  0
 16 15  1  0
 18 17  1  0
 18 27  1  0
 18 19  1  0
 20 14  1  0
 20 19  1  0
 21 14  2  0
 22 23  1  0
 24 25  2  0
 25 44  1  0
 26 25  1  0
 26 29  1  0
 27 24  1  0
 27 28  1  0
 28 26  2  0
 29 30  1  0
 30 31  2  0
 32 35  1  0
 32 31  1  0
 33 32  2  0
 34 33  1  0
 34 29  2  0
 35 36  1  0
 36 37  1  0
 37 38  2  0
 39 38  1  0
 39 43  1  0
 40 39  2  0
 41 36  2  0
 41 40  1  0
 42 41  1  0
 44 45  1  0
 45 48  1  0
 45 47  1  0
 46 44  2  0
 49 50  1  0
 49 24  1  0
 51 49  1  0
 52 53  1  0
 54 65  2  0
 55 53  1  0
 55 60  1  0
 56 64  1  0
 56 66  1  0
 57 63  1  0
 57 59  1  0
 58 64  1  0
 59 58  1  0
 60 59  2  0
 61 62  1  0
 61 55  2  0
 62 57  2  0
 63 56  1  0
 64 54  1  0
 66 68  2  0
 67 66  1  0
 69 67  1  0
 70 79  2  0
 70 75  1  0
 71 67  1  0
 71 75  1  0
 72 71  1  0
 73 74  1  0
 73 72  1  0
 74 70  1  0
 75 76  2  0
 76 77  1  0
 78 77  2  0
 79 78  1  0
 80 54  1  0
 80 85  1  0
 80 81  1  0
 81 84  1  1
 81 82  1  0
 83 81  1  0
 85 88  1  0
 86 90  1  0
 86 85  1  0
 87 86  2  0
 90 89  1  0
 92 90  1  0
 92 93  1  0
 92 91  1  0
M  ISO  4  14 100  22 100  52 101  53 101
M  END
>  <TORSDO>  (73) 
F 19

>  <SCORE>  (73) 
-14.020

>  <name>  (73) 
72

>  <ligand_id>  (73) 
72

>  <original_smiles>  (73) 
[H]c1c([H])c([H])c2c(c1[H])C([H])([H])C([H])([H])C([H])([H])C2([H])N([H])C(=O)C1([H])N(C(=O)C([H])(N([H])C(=O)C([H])(N([H])C([H])([H])[H])C([H])([H])[H])C(C([H])([H])[H])(C([H])([H])[H])C([H])([H])[H])C([H])([H])c2c([H])c(OC([H])([H])C3([H])C([H])([H])C([H])([H])C([H])([H])[N+]3([H])C([H])([H])c3c([H])c([H])c(N([H])C(=O)N4C([H])([H])C([H])([H])C([H])([H])C([H])(n5nc(-c6c([H])c([H])c(Oc7c([H])c([H])c(F)c([H])c7F)c([H])c6[H])c(C(=O)N([H])[H])c5N([H])[H])C4([H])[H])c([H])c3[H])c([H])c([H])c2C1([H])[H]

>  <smiles>  (73) 
[H]c1c([H])c([H])c2c(c1[H])C([H])([H])C([H])([H])C([H])([H])C2([H])N([H])C(=O)C1([H])N(C(=O)C([H])(N([H])C(=O)C([H])(N([H])C([H])([H])[H])C([H])([H])[H])C(C([H])([H])[H])(C([H])([H])[H])C([H])([H])[H])C([H])([H])c2c([H])c(OC([H])([H])C3([H])C([H])([H])C([H])([H])C([H])([H])[N+]3([H])C([H])([H])c3c([H])c([H])c(N([H])C(=O)N4C([H])([H])C([H])([H])C([H])([H])C([H])(n5nc(-c6c([H])c([H])c(Oc7c([H])c([H])c(F)c([H])c7F)c([H])c6[H])c(C(=O)N([H])[H])c5N([H])[H])C4([H])[H])c([H])c3[H])c([H])c([H])c2C1([H])[H]

$$$$
73:0:0
     RDKit          3D

 98107  0  0  1  0  0  0  0  0999 V2000
  -27.3890  -20.9660   21.0030 C   0  0  0  0  0  2  0  0  0  0  0  0
  -28.6070  -20.3940   21.7480 C   0  0  0  0  0  2  0  0  0  0  0  0
  -30.0960  -21.5220   20.1250 C   0  0  0  0  0  2  0  0  0  0  0  0
  -28.9630  -22.6320   19.7590 C   0  0  0  0  0  3  0  0  0  0  0  0
  -27.5460  -22.4100   20.4330 C   0  0  0  0  0  3  0  0  0  0  0  0
  -29.7590  -20.2000   20.8360 N   0  0  2  0  0  4  0  0  0  0  0  0
  -30.5500  -20.1060   21.4610 H   0  0  0  0  0  0  0  0  0  0  0  0
  -24.8980  -22.5410   17.6170 C   0  0  0  0  0  2  0  0  0  0  0  0
  -24.9970  -24.0150   18.0120 C   0  0  0  0  0  2  0  0  0  0  0  0
  -25.8860  -21.8080   18.5390 C   0  0  0  0  0  2  0  0  0  0  0  0
  -26.2200  -24.0860   18.9290 C   0  0  0  0  0  2  0  0  0  0  0  0
  -26.3170  -22.7660   19.5960 N   0  0  2  0  0  4  0  0  0  0  0  0
  -25.5450  -22.7690   20.2520 H   0  0  0  0  0  0  0  0  0  0  0  0
  -29.8030  -18.8140   20.1450 C   0  0  0  0  0  2  0  0  0  0  0  0
  -30.5230  -17.5840   20.9360 C   0  0  0  0  0  2  0  0  0  0  0  0
  -30.9930  -15.0520   20.2900 C   0  0  0  0  0  0  0  0  0  0  0  0
  -30.7470  -12.8360   19.1410 C   0  0  0  0  0  2  0  0  0  0  0  0
  -29.7760  -12.9790   17.9440 C   0  0  0  0  0  2  0  0  0  0  0  0
  -28.3050  -12.8400   18.3800 C   0  0  0  0  0  2  0  0  0  0  0  0
  -27.9930  -13.6700   19.6520 C   0  0  0  0  0  3  0  0  0  0  0  0
  -29.0640  -13.4870   20.7480 C   0  0  0  0  0  2  0  0  0  0  0  0
  -30.3580  -13.8400   20.1540 N   0  0  0  0  0  0  0  0  0  0  0  0
  -32.1850  -15.1800   19.9970 O   0  0  0  0  0  0  0  0  0  0  0  0
  -30.1910  -16.1380   20.5880 N   0  0  0  0  0  0  0  0  0  0  0  0
  -29.2250  -15.8860   20.7330 H   0  0  0  0  0  0  0  0  0  0  0  0
  -25.6390  -14.3160   20.4310 C   0  0  0  0  0  0  0  0  0  0  0  0
  -24.5610  -13.5650   20.7970 C   0  0  0  0  0  0  0  0  0  0  0  0
  -24.9840  -12.2000   20.7260 C   0  0  0  0  0  0  0  0  0  0  0  0
  -26.6500  -13.4120   20.1530 N   0  0  0  0  0  0  0  0  0  0  0  0
  -26.2660  -12.1340   20.3930 N   0  0  0  0  0  0  0  0  0  0  0  0
  -24.2320  -10.9520   20.8870 C   0  0  0  0  0  0  0  0  0  0  0  0
  -24.6410   -9.9510   21.7960 C   0  0  0  0  0  3  0  0  0  0  0  0
  -23.8860   -8.7700   21.9490 C   0  0  0  0  0  3  0  0  0  0  0  0
  -22.7100   -8.5780   21.1870 C   0  0  0  0  0  0  0  0  0  0  0  0
  -22.3170   -9.5680   20.2690 C   0  0  0  0  0  3  0  0  0  0  0  0
  -23.0730  -10.7420   20.1130 C   0  0  0  0  0  3  0  0  0  0  0  0
  -21.9220   -7.4560   21.2520 O   0  0  0  0  0  0  0  0  0  0  0  0
  -21.8030   -6.7240   22.4060 C   0  0  0  0  0  0  0  0  0  0  0  0
  -21.3200   -7.2950   23.6020 C   0  0  0  0  0  3  0  0  0  0  0  0
  -21.1480   -6.4900   24.7450 C   0  0  0  0  0  3  0  0  0  0  0  0
  -21.4430   -5.1150   24.6920 C   0  0  0  0  0  0  0  0  0  0  0  0
  -21.9280   -4.5460   23.5010 C   0  0  0  0  0  3  0  0  0  0  0  0
  -22.1010   -5.3470   22.3580 C   0  0  0  0  0  0  0  0  0  0  0  0
  -22.5410   -4.7850   21.2070 F   0  0  0  0  0  0  0  0  0  0  0  0
  -21.2740   -4.3430   25.7910 F   0  0  0  0  0  0  0  0  0  0  0  0
  -23.1790  -14.0680   21.1060 C   0  0  0  0  0  0  0  0  0  0  0  0
  -22.4610  -13.3830   21.9850 N   0  0  0  0  0  0  0  0  0  0  0  0
  -22.7510  -15.1080   20.6040 O   0  0  0  0  0  0  0  0  0  0  0  0
  -22.8310  -12.5400   22.4010 H   0  0  0  0  0  0  0  0  0  0  0  0
  -21.5370  -13.7010   22.2450 H   0  0  0  0  0  0  0  0  0  0  0  0
  -25.8510  -15.6880   20.2780 N   0  0  0  0  0  0  0  0  0  0  0  0
  -25.0930  -16.3530   20.3690 H   0  0  0  0  0  0  0  0  0  0  0  0
  -26.6620  -16.0750   19.8140 H   0  0  0  0  0  0  0  0  0  0  0  0
  -29.5120  -24.1880   19.7070 C   0  0  0  0  0  3  0  0  0  0  0  0
  -29.3520  -24.6400   18.3730 O   0  0  0  0  0  0  0  0  0  0  0  0
  -30.2150  -24.8990   18.0550 H   0  0  0  0  0  0  0  0  0  0  0  0
  -28.9840  -25.3870   20.6490 C   0  0  0  0  0  2  0  0  0  0  0  0
  -29.1630  -26.8300   20.2840 O   0  0  0  0  0  0  0  0  0  0  0  0
  -24.8330  -31.8300   23.2770 C   0  0  0  0  0  0  0  0  0  0  0  0
  -28.0120  -27.6390   20.2070 C   0  0  0  0  0  0  0  0  0  0  0  0
  -23.8680  -30.4390   21.4720 C   0  0  0  0  0  3  0  0  0  0  0  0
  -25.5440  -29.0810   20.0910 C   0  0  0  0  0  0  0  0  0  0  0  0
  -26.3870  -30.9500   21.5190 C   0  0  0  0  0  2  0  0  0  0  0  0
  -26.6250  -29.6200   20.8060 C   0  0  0  0  0  0  0  0  0  0  0  0
  -27.8600  -28.9050   20.8600 C   0  0  0  0  0  3  0  0  0  0  0  0
  -26.9240  -27.1830   19.4390 C   0  0  0  0  0  3  0  0  0  0  0  0
  -25.6970  -27.8710   19.4030 C   0  0  0  0  0  3  0  0  0  0  0  0
  -24.2390  -29.8530   20.0860 C   0  0  0  0  0  2  0  0  0  0  0  0
  -25.0410  -31.0950   22.1440 N   0  0  0  0  0  0  0  0  0  0  0  0
  -23.6980  -31.9950   23.7450 O   0  0  0  0  0  0  0  0  0  0  0  0
  -23.2330  -29.3220   22.3300 C   0  0  0  0  0  0  0  0  0  0  0  0
  -21.9180  -29.1100   22.1610 N   0  0  0  0  0  0  0  0  0  0  0  0
  -23.9190  -28.6510   23.1060 O   0  0  0  0  0  0  0  0  0  0  0  0
  -21.4110  -29.7190   21.5310 H   0  0  0  0  0  0  0  0  0  0  0  0
  -18.5660  -27.8190   22.5200 C   0  0  0  0  0  0  0  0  0  0  0  0
  -21.1240  -28.0790   22.8310 C   0  0  0  0  0  3  0  0  0  0  0  0
  -21.2520  -26.7170   22.1110 C   0  0  0  0  0  2  0  0  0  0  0  0
  -20.1580  -26.5010   21.0570 C   0  0  0  0  0  2  0  0  0  0  0  0
  -18.7660  -26.5550   21.6970 C   0  0  0  0  0  2  0  0  0  0  0  0
  -19.6770  -28.5410   23.0340 C   0  0  0  0  0  0  0  0  0  0  0  0
  -19.4440  -29.7390   23.7420 C   0  0  0  0  0  3  0  0  0  0  0  0
  -18.1350  -30.2100   23.9540 C   0  0  0  0  0  3  0  0  0  0  0  0
  -17.0390  -29.4740   23.4720 C   0  0  0  0  0  3  0  0  0  0  0  0
  -17.2550  -28.2790   22.7610 C   0  0  0  0  0  3  0  0  0  0  0  0
  -26.0150  -32.5190   24.0320 C   0  0  0  0  0  3  0  0  0  0  0  0
  -25.6160  -33.9040   24.3190 N   0  0  0  0  0  0  0  0  0  0  0  0
  -25.9590  -34.9630   23.5740 C   0  0  0  0  0  0  0  0  0  0  0  0
  -26.7150  -34.8800   22.6010 O   0  0  0  0  0  0  0  0  0  0  0  0
  -24.9410  -34.0380   25.0600 H   0  0  0  0  0  0  0  0  0  0  0  0
  -24.1670  -36.6600   23.0720 C   0  0  0  0  0  1  0  0  0  0  0  0
  -25.3730  -36.3340   23.9680 C   0  0  0  0  0  3  0  0  0  0  0  0
  -27.3960  -37.3450   24.9180 C   0  0  0  0  0  1  0  0  0  0  0  0
  -26.3540  -37.4370   23.8990 N   0  0  0  0  0  0  0  0  0  0  0  0
  -25.8910  -38.3360   23.9980 H   0  0  0  0  0  0  0  0  0  0  0  0
  -26.4250  -31.7740   25.3600 C   0  0  1  0  0  0  0  0  0  0  0  0
  -25.2330  -31.4490   26.2910 C   0  0  0  0  0  1  0  0  0  0  0  0
  -27.1450  -30.4420   25.0450 C   0  0  0  0  0  1  0  0  0  0  0  0
  -27.4300  -32.6390   26.1550 C   0  0  0  0  0  1  0  0  0  0  0  0
  1  2  1  0
  3  6  1  0
  4 54  1  0
  4  3  1  0
  4  5  1  0
  5  1  1  0
  6  7  1  1
  6  2  1  0
  8  9  1  0
  8 10  1  0
  9 11  1  0
 10 12  1  0
 11 12  1  0
 12 13  1  1
 12  5  1  0
 14  6  1  0
 14 15  1  0
 16 24  1  0
 17 22  1  0
 18 19  1  0
 18 17  1  0
 20 19  1  0
 20 29  1  0
 20 21  1  0
 22 16  1  0
 22 21  1  0
 23 16  2  0
 24 25  1  0
 24 15  1  0
 26 27  2  0
 27 46  1  0
 28 27  1  0
 28 31  1  0
 29 30  1  0
 29 26  1  0
 30 28  2  0
 31 32  1  0
 32 33  2  0
 34 37  1  0
 34 33  1  0
 35 34  2  0
 36 35  1  0
 36 31  2  0
 37 38  1  0
 38 39  1  0
 39 40  2  0
 41 40  1  0
 41 45  1  0
 42 41  2  0
 43 38  2  0
 43 42  1  0
 44 43  1  0
 46 47  1  0
 47 50  1  0
 47 49  1  0
 48 46  2  0
 51 52  1  0
 51 26  1  0
 53 51  1  0
 54 57  1  0
 55 54  1  0
 56 55  1  0
 58 57  1  0
 59 70  2  0
 60 58  1  0
 60 65  1  0
 61 69  1  0
 61 71  1  0
 62 64  1  0
 63 69  1  0
 64 65  2  0
 64 63  1  0
 66 60  2  0
 67 66  1  0
 67 62  2  0
 68 62  1  0
 68 61  1  0
 69 59  1  0
 71 73  2  0
 72 71  1  0
 74 72  1  0
 75 84  2  0
 75 80  1  0
 76 72  1  0
 76 80  1  0
 77 76  1  0
 78 79  1  0
 78 77  1  0
 79 75  1  0
 80 81  2  0
 81 82  1  0
 83 82  2  0
 84 83  1  0
 85 59  1  0
 85 86  1  0
 85 95  1  0
 86 89  1  0
 87 91  1  0
 87 86  1  0
 88 87  2  0
 91 90  1  0
 93 91  1  0
 93 94  1  0
 93 92  1  0
 95 98  1  1
 95 96  1  0
 97 95  1  0
M  ISO  4  16 100  24 100  57 101  58 101
M  END
>  <TORSDO>  (74) 
F 22

>  <SCORE>  (74) 
-11.211

>  <name>  (74) 
73

>  <ligand_id>  (74) 
73

>  <original_smiles>  (74) 
[H]OC([H])(C([H])([H])Oc1c([H])c([H])c2c(c1[H])C([H])([H])N(C(=O)C([H])(N([H])C(=O)C([H])(N([H])C([H])([H])[H])C([H])([H])[H])C(C([H])([H])[H])(C([H])([H])[H])C([H])([H])[H])C([H])(C(=O)N([H])C1([H])c3c([H])c([H])c([H])c([H])c3C([H])([H])C([H])([H])C1([H])[H])C2([H])[H])C1([H])C([H])([H])[N+]([H])(C([H])([H])C([H])([H])N([H])C(=O)N2C([H])([H])C([H])([H])C([H])([H])C([H])(n3nc(-c4c([H])c([H])c(Oc5c([H])c([H])c(F)c([H])c5F)c([H])c4[H])c(C(=O)N([H])[H])c3N([H])[H])C2([H])[H])C([H])([H])C([H])([H])C1([H])[N+]1([H])C([H])([H])C([H])([H])C([H])([H])C1([H])[H]

>  <smiles>  (74) 
[H]OC([H])(C([H])([H])Oc1c([H])c([H])c2c(c1[H])C([H])([H])N(C(=O)C([H])(N([H])C(=O)C([H])(N([H])C([H])([H])[H])C([H])([H])[H])C(C([H])([H])[H])(C([H])([H])[H])C([H])([H])[H])C([H])(C(=O)N([H])C1([H])c3c([H])c([H])c([H])c([H])c3C([H])([H])C([H])([H])C1([H])[H])C2([H])[H])C1([H])C([H])([H])[N+]([H])(C([H])([H])C([H])([H])N([H])C(=O)N2C([H])([H])C([H])([H])C([H])([H])C([H])(n3nc(-c4c([H])c([H])c(Oc5c([H])c([H])c(F)c([H])c5F)c([H])c4[H])c(C(=O)N([H])[H])c3N([H])[H])C2([H])[H])C([H])([H])C([H])([H])C1([H])[N+]1([H])C([H])([H])C([H])([H])C([H])([H])C1([H])[H]

$$$$
74:0:0
     RDKit          3D

 95104  0  0  1  0  0  0  0  0999 V2000
  -29.9350  -24.5170   19.3940 C   0  0  0  0  0  3  0  0  0  0  0  0
  -29.8140  -23.1120   19.3300 C   0  0  0  0  0  3  0  0  0  0  0  0
  -27.7630  -24.6410   20.4640 C   0  0  0  0  0  3  0  0  0  0  0  0
  -27.6200  -23.2330   20.3970 C   0  0  0  0  0  0  0  0  0  0  0  0
  -28.9060  -25.2950   19.9590 C   0  0  0  0  0  0  0  0  0  0  0  0
  -28.6650  -22.4520   19.8290 C   0  0  0  0  0  0  0  0  0  0  0  0
  -25.2370  -22.1810   20.0290 C   0  0  0  0  0  2  0  0  0  0  0  0
  -25.0420  -23.3300   20.9860 C   0  0  0  0  0  2  0  0  0  0  0  0
  -26.3670  -22.5990   20.9440 C   0  0  0  0  0  3  0  0  0  0  0  0
  -28.5610  -20.9230   19.6930 C   0  0  0  0  0  2  0  0  0  0  0  0
  -29.3860  -20.1660   20.6680 N   0  0  0  0  0  4  0  0  0  0  0  0
  -30.3530  -20.3880   20.4930 H   0  0  0  0  0  0  0  0  0  0  0  0
  -29.1610  -20.4910   21.5930 H   0  0  0  0  0  0  0  0  0  0  0  0
  -29.1910  -18.6920   20.6080 C   0  0  0  0  0  2  0  0  0  0  0  0
  -30.2320  -17.8780   21.4280 C   0  0  0  0  0  2  0  0  0  0  0  0
  -30.7750  -15.4900   20.7880 C   0  0  0  0  0  0  0  0  0  0  0  0
  -30.6640  -13.3330   19.5950 C   0  0  0  0  0  2  0  0  0  0  0  0
  -29.7670  -13.4960   18.3490 C   0  0  0  0  0  2  0  0  0  0  0  0
  -28.2840  -13.2800   18.7050 C   0  0  0  0  0  2  0  0  0  0  0  0
  -27.8440  -14.0890   19.9550 C   0  0  0  0  0  3  0  0  0  0  0  0
  -28.8510  -13.8950   21.1110 C   0  0  0  0  0  2  0  0  0  0  0  0
  -30.1860  -14.2770   20.6170 N   0  0  0  0  0  0  0  0  0  0  0  0
  -31.8940  -15.7670   20.3460 O   0  0  0  0  0  0  0  0  0  0  0  0
  -29.9880  -16.4270   21.3490 N   0  0  0  0  0  0  0  0  0  0  0  0
  -29.0990  -16.0950   21.6920 H   0  0  0  0  0  0  0  0  0  0  0  0
  -25.3910  -14.5850   20.5570 C   0  0  0  0  0  0  0  0  0  0  0  0
  -24.3380  -13.7620   20.8530 C   0  0  0  0  0  0  0  0  0  0  0  0
  -24.8540  -12.4310   20.8050 C   0  0  0  0  0  0  0  0  0  0  0  0
  -26.4810  -13.7510   20.3570 N   0  0  0  0  0  0  0  0  0  0  0  0
  -26.1570  -12.4490   20.5590 N   0  0  0  0  0  0  0  0  0  0  0  0
  -24.1710  -11.1360   20.9230 C   0  0  0  0  0  0  0  0  0  0  0  0
  -24.5510  -10.1860   21.8970 C   0  0  0  0  0  3  0  0  0  0  0  0
  -23.8700   -8.9550   22.0010 C   0  0  0  0  0  3  0  0  0  0  0  0
  -22.7930   -8.6640   21.1300 C   0  0  0  0  0  0  0  0  0  0  0  0
  -22.4330   -9.6020   20.1470 C   0  0  0  0  0  3  0  0  0  0  0  0
  -23.1170  -10.8250   20.0400 C   0  0  0  0  0  3  0  0  0  0  0  0
  -22.0910   -7.4830   21.1420 O   0  0  0  0  0  0  0  0  0  0  0  0
  -21.9090   -6.7650   22.2970 C   0  0  0  0  0  0  0  0  0  0  0  0
  -21.2700   -7.3220   23.4280 C   0  0  0  0  0  3  0  0  0  0  0  0
  -21.0390   -6.5270   24.5680 C   0  0  0  0  0  3  0  0  0  0  0  0
  -21.4400   -5.1770   24.5800 C   0  0  0  0  0  0  0  0  0  0  0  0
  -22.0710   -4.6200   23.4540 C   0  0  0  0  0  3  0  0  0  0  0  0
  -22.3010   -5.4110   22.3150 C   0  0  0  0  0  0  0  0  0  0  0  0
  -22.8910   -4.8640   21.2240 F   0  0  0  0  0  0  0  0  0  0  0  0
  -21.2120   -4.4120   25.6720 F   0  0  0  0  0  0  0  0  0  0  0  0
  -22.9100  -14.1740   21.0730 C   0  0  0  0  0  0  0  0  0  0  0  0
  -22.1720  -13.4230   21.8820 N   0  0  0  0  0  0  0  0  0  0  0  0
  -22.4550  -15.1970   20.5610 O   0  0  0  0  0  0  0  0  0  0  0  0
  -22.5530  -12.5940   22.3130 H   0  0  0  0  0  0  0  0  0  0  0  0
  -21.2130  -13.6780   22.0710 H   0  0  0  0  0  0  0  0  0  0  0  0
  -25.5110  -15.9660   20.4240 N   0  0  0  0  0  0  0  0  0  0  0  0
  -26.3550  -16.4390   20.1310 H   0  0  0  0  0  0  0  0  0  0  0  0
  -24.7120  -16.5860   20.4970 H   0  0  0  0  0  0  0  0  0  0  0  0
  -29.0590  -26.8110   20.0990 C   0  0  0  0  0  2  0  0  0  0  0  0
  -28.5820  -27.5580   18.9750 O   0  0  0  0  0  0  0  0  0  0  0  0
  -24.6950  -31.8840   23.0980 C   0  0  0  0  0  0  0  0  0  0  0  0
  -27.3860  -28.1980   19.1900 C   0  0  0  0  0  0  0  0  0  0  0  0
  -23.4640  -30.6740   21.3230 C   0  0  0  0  0  3  0  0  0  0  0  0
  -24.9080  -29.4880   19.5870 C   0  0  0  0  0  0  0  0  0  0  0  0
  -25.9390  -31.2460   21.0370 C   0  0  0  0  0  2  0  0  0  0  0  0
  -26.0670  -30.0020   20.1810 C   0  0  0  0  0  0  0  0  0  0  0  0
  -27.3110  -29.3640   19.9830 C   0  0  0  0  0  3  0  0  0  0  0  0
  -26.2150  -27.6900   18.5960 C   0  0  0  0  0  3  0  0  0  0  0  0
  -24.9740  -28.3290   18.7910 C   0  0  0  0  0  3  0  0  0  0  0  0
  -23.6180  -30.2350   19.8430 C   0  0  0  0  0  2  0  0  0  0  0  0
  -24.7200  -31.2750   21.8780 N   0  0  0  0  0  0  0  0  0  0  0  0
  -23.6400  -31.9870   23.7400 O   0  0  0  0  0  0  0  0  0  0  0  0
  -22.9470  -29.4690   22.1430 C   0  0  0  0  0  0  0  0  0  0  0  0
  -21.6350  -29.2000   22.0510 N   0  0  0  0  0  0  0  0  0  0  0  0
  -23.7230  -28.7870   22.8190 O   0  0  0  0  0  0  0  0  0  0  0  0
  -21.0660  -29.8130   21.4840 H   0  0  0  0  0  0  0  0  0  0  0  0
  -18.3910  -27.6790   22.5150 C   0  0  0  0  0  0  0  0  0  0  0  0
  -20.9350  -28.0940   22.7020 C   0  0  0  0  0  3  0  0  0  0  0  0
  -21.1050  -26.7810   21.9030 C   0  0  0  0  0  2  0  0  0  0  0  0
  -19.9710  -26.5320   20.9040 C   0  0  0  0  0  2  0  0  0  0  0  0
  -18.6230  -26.4670   21.6280 C   0  0  0  0  0  2  0  0  0  0  0  0
  -19.4770  -28.4530   23.0060 C   0  0  0  0  0  0  0  0  0  0  0  0
  -19.2040  -29.5900   23.7960 C   0  0  0  0  0  3  0  0  0  0  0  0
  -17.8790  -29.9560   24.0990 C   0  0  0  0  0  3  0  0  0  0  0  0
  -16.8090  -29.1780   23.6230 C   0  0  0  0  0  3  0  0  0  0  0  0
  -17.0660  -28.0410   22.8370 C   0  0  0  0  0  3  0  0  0  0  0  0
  -25.9820  -32.4990   23.7330 C   0  0  0  0  0  3  0  0  0  0  0  0
  -25.6410  -33.8490   24.2010 N   0  0  0  0  0  0  0  0  0  0  0  0
  -25.9370  -34.9790   23.5440 C   0  0  0  0  0  0  0  0  0  0  0  0
  -26.5970  -34.9940   22.5010 O   0  0  0  0  0  0  0  0  0  0  0  0
  -25.0550  -33.9110   25.0200 H   0  0  0  0  0  0  0  0  0  0  0  0
  -24.1580  -36.7480   23.3750 C   0  0  0  0  0  1  0  0  0  0  0  0
  -25.4170  -36.3020   24.1360 C   0  0  0  0  0  3  0  0  0  0  0  0
  -27.5390  -37.1550   25.0290 C   0  0  0  0  0  1  0  0  0  0  0  0
  -26.4200  -37.3880   24.1190 N   0  0  0  0  0  0  0  0  0  0  0  0
  -25.9920  -38.2770   24.3630 H   0  0  0  0  0  0  0  0  0  0  0  0
  -26.5700  -31.6310   24.9120 C   0  0  1  0  0  0  0  0  0  0  0  0
  -25.5270  -31.2560   25.9890 C   0  0  0  0  0  1  0  0  0  0  0  0
  -27.1820  -30.3180   24.3700 C   0  0  0  0  0  1  0  0  0  0  0  0
  -27.7170  -32.3990   25.6080 C   0  0  0  0  0  1  0  0  0  0  0  0
  1  5  1  0
  2  1  2  0
  2  6  1  0
  4  3  1  0
  4  9  1  0
  5 54  1  0
  5  3  2  0
  6  4  2  0
  7  9  1  0
  7  8  1  0
  9  8  1  0
 10  6  1  0
 10 11  1  0
 11 13  1  0
 12 11  1  0
 14 11  1  0
 14 15  1  0
 16 24  1  0
 17 22  1  0
 18 19  1  0
 18 17  1  0
 20 19  1  0
 20 29  1  0
 20 21  1  0
 22 16  1  0
 22 21  1  0
 23 16  2  0
 24 15  1  0
 24 25  1  0
 26 27  2  0
 27 46  1  0
 28 27  1  0
 28 31  1  0
 29 26  1  0
 29 30  1  0
 30 28  2  0
 31 32  1  0
 32 33  2  0
 34 37  1  0
 34 33  1  0
 35 34  2  0
 36 35  1  0
 36 31  2  0
 37 38  1  0
 38 43  2  0
 38 39  1  0
 39 40  2  0
 40 41  1  0
 41 45  1  0
 42 41  2  0
 43 42  1  0
 44 43  1  0
 46 47  1  0
 47 50  1  0
 47 49  1  0
 48 46  2  0
 51 53  1  0
 51 26  1  0
 52 51  1  0
 55 57  1  0
 55 54  1  0
 56 67  2  0
 57 62  1  0
 58 66  1  0
 58 68  1  0
 59 65  1  0
 59 61  1  0
 60 66  1  0
 61 60  1  0
 62 61  2  0
 63 64  1  0
 63 57  2  0
 64 59  2  0
 65 58  1  0
 66 56  1  0
 68 70  2  0
 69 68  1  0
 71 69  1  0
 72 81  2  0
 72 77  1  0
 73 69  1  0
 73 77  1  0
 74 73  1  0
 75 76  1  0
 75 74  1  0
 76 72  1  0
 77 78  2  0
 78 79  1  0
 80 79  2  0
 81 80  1  0
 82 56  1  0
 82 83  1  0
 82 92  1  0
 83 86  1  0
 84 88  1  0
 84 83  1  0
 85 84  2  0
 88 87  1  0
 90 88  1  0
 90 91  1  0
 90 89  1  0
 92 95  1  1
 92 93  1  0
 94 92  1  0
M  ISO  4  16 100  24 100  54 101  55 101
M  END
>  <TORSDO>  (75) 
F 22

>  <SCORE>  (75) 
-9.412

>  <name>  (75) 
74

>  <ligand_id>  (75) 
74

>  <original_smiles>  (75) 
[H]c1c([H])c([H])c2c(c1[H])C([H])([H])C([H])([H])C([H])([H])C2([H])N([H])C(=O)C1([H])N(C(=O)C([H])(N([H])C(=O)C([H])(N([H])C([H])([H])[H])C([H])([H])[H])C(C([H])([H])[H])(C([H])([H])[H])C([H])([H])[H])C([H])([H])c2c([H])c(OC([H])([H])c3c([H])c([H])c(C([H])([H])[N+]([H])([H])C([H])([H])C([H])([H])N([H])C(=O)N4C([H])([H])C([H])([H])C([H])([H])C([H])(n5nc(-c6c([H])c([H])c(Oc7c([H])c([H])c(F)c([H])c7F)c([H])c6[H])c(C(=O)N([H])[H])c5N([H])[H])C4([H])[H])c(C4([H])C([H])([H])C4([H])[H])c3[H])c([H])c([H])c2C1([H])[H]

>  <smiles>  (75) 
[H]c1c([H])c([H])c2c(c1[H])C([H])([H])C([H])([H])C([H])([H])C2([H])N([H])C(=O)C1([H])N(C(=O)C([H])(N([H])C(=O)C([H])(N([H])C([H])([H])[H])C([H])([H])[H])C(C([H])([H])[H])(C([H])([H])[H])C([H])([H])[H])C([H])([H])c2c([H])c(OC([H])([H])c3c([H])c([H])c(C([H])([H])[N+]([H])([H])C([H])([H])C([H])([H])N([H])C(=O)N4C([H])([H])C([H])([H])C([H])([H])C([H])(n5nc(-c6c([H])c([H])c(Oc7c([H])c([H])c(F)c([H])c7F)c([H])c6[H])c(C(=O)N([H])[H])c5N([H])[H])C4([H])[H])c(C4([H])C([H])([H])C4([H])[H])c3[H])c([H])c([H])c2C1([H])[H]

$$$$
75:0:0
     RDKit          3D

 91 99  0  0  1  0  0  0  0  0999 V2000
  -30.2520  -23.4300   20.0210 C   0  0  0  0  0  2  0  0  0  0  0  0
  -27.8390  -22.8180   19.9380 C   0  0  0  0  0  2  0  0  0  0  0  0
  -30.5600  -22.0650   20.7090 C   0  0  0  0  0  2  0  0  0  0  0  0
  -28.1610  -21.4430   20.6240 C   0  0  0  0  0  2  0  0  0  0  0  0
  -28.8220  -23.9850   20.2720 C   0  0  0  0  0  3  0  0  0  0  0  0
  -29.5910  -20.9080   20.3230 C   0  0  0  0  0  3  0  0  0  0  0  0
  -29.9700  -19.6270   21.0370 N   0  0  0  0  0  4  0  0  0  0  0  0
  -29.7220  -19.7080   22.0100 H   0  0  0  0  0  0  0  0  0  0  0  0
  -30.9760  -19.5890   21.0020 H   0  0  0  0  0  0  0  0  0  0  0  0
  -29.5080  -18.2800   20.5340 C   0  0  0  0  0  2  0  0  0  0  0  0
  -30.3250  -17.0670   21.1500 C   0  0  0  0  0  2  0  0  0  0  0  0
  -30.5980  -14.5980   20.4760 C   0  0  0  0  0  0  0  0  0  0  0  0
  -30.3490  -12.3910   19.3720 C   0  0  0  0  0  2  0  0  0  0  0  0
  -29.4130  -12.5380   18.1540 C   0  0  0  0  0  2  0  0  0  0  0  0
  -27.9390  -12.3850   18.5760 C   0  0  0  0  0  2  0  0  0  0  0  0
  -27.5780  -13.2440   19.8170 C   0  0  0  0  0  3  0  0  0  0  0  0
  -28.6300  -13.0800   20.9370 C   0  0  0  0  0  2  0  0  0  0  0  0
  -29.9440  -13.4050   20.3630 N   0  0  0  0  0  0  0  0  0  0  0  0
  -31.7610  -14.7400   20.0940 O   0  0  0  0  0  0  0  0  0  0  0  0
  -29.8560  -15.6710   20.8740 N   0  0  0  0  0  0  0  0  0  0  0  0
  -28.8960  -15.4670   21.1080 H   0  0  0  0  0  0  0  0  0  0  0  0
  -25.1790  -13.8460   20.5130 C   0  0  0  0  0  0  0  0  0  0  0  0
  -24.1100  -13.0730   20.8790 C   0  0  0  0  0  0  0  0  0  0  0  0
  -24.5750  -11.7220   20.8600 C   0  0  0  0  0  0  0  0  0  0  0  0
  -26.2260  -12.9650   20.2940 N   0  0  0  0  0  0  0  0  0  0  0  0
  -25.8670  -11.6840   20.5620 N   0  0  0  0  0  0  0  0  0  0  0  0
  -23.8490  -10.4600   21.0500 C   0  0  0  0  0  0  0  0  0  0  0  0
  -24.2890   -9.4870   21.9750 C   0  0  0  0  0  3  0  0  0  0  0  0
  -23.5640   -8.2890   22.1520 C   0  0  0  0  0  3  0  0  0  0  0  0
  -22.3840   -8.0560   21.4060 C   0  0  0  0  0  0  0  0  0  0  0  0
  -21.9640   -9.0170   20.4710 C   0  0  0  0  0  3  0  0  0  0  0  0
  -22.6890  -10.2060   20.2910 C   0  0  0  0  0  3  0  0  0  0  0  0
  -21.6300   -6.9120   21.4950 O   0  0  0  0  0  0  0  0  0  0  0  0
  -21.6040   -6.1520   22.6380 C   0  0  0  0  0  0  0  0  0  0  0  0
  -21.2200   -6.6950   23.8830 C   0  0  0  0  0  3  0  0  0  0  0  0
  -21.1410   -5.8630   25.0190 C   0  0  0  0  0  3  0  0  0  0  0  0
  -21.4350   -4.4900   24.9090 C   0  0  0  0  0  0  0  0  0  0  0  0
  -21.8130   -3.9490   23.6680 C   0  0  0  0  0  3  0  0  0  0  0  0
  -21.8940   -4.7770   22.5350 C   0  0  0  0  0  0  0  0  0  0  0  0
  -22.2380   -4.2450   21.3370 F   0  0  0  0  0  0  0  0  0  0  0  0
  -21.3520   -3.6900   25.9970 F   0  0  0  0  0  0  0  0  0  0  0  0
  -22.7100  -13.5490   21.1370 C   0  0  0  0  0  0  0  0  0  0  0  0
  -21.9770  -12.8570   22.0000 N   0  0  0  0  0  0  0  0  0  0  0  0
  -22.2750  -14.5710   20.6070 O   0  0  0  0  0  0  0  0  0  0  0  0
  -22.3410  -12.0310   22.4500 H   0  0  0  0  0  0  0  0  0  0  0  0
  -21.0360  -13.1580   22.2160 H   0  0  0  0  0  0  0  0  0  0  0  0
  -25.3420  -15.2150   20.3270 N   0  0  0  0  0  0  0  0  0  0  0  0
  -24.5670  -15.8640   20.4130 H   0  0  0  0  0  0  0  0  0  0  0  0
  -26.1810  -15.6480   19.9630 H   0  0  0  0  0  0  0  0  0  0  0  0
  -28.5420  -25.3240   19.4570 C   0  0  0  0  0  2  0  0  0  0  0  0
  -28.4010  -26.5930   20.1780 O   0  0  0  0  0  0  0  0  0  0  0  0
  -24.6300  -31.8840   23.2370 C   0  0  0  0  0  0  0  0  0  0  0  0
  -27.2320  -27.3610   20.1400 C   0  0  0  0  0  0  0  0  0  0  0  0
  -23.4110  -30.4830   21.6090 C   0  0  0  0  0  3  0  0  0  0  0  0
  -24.8480  -28.9370   20.1710 C   0  0  0  0  0  0  0  0  0  0  0  0
  -25.9440  -30.8150   21.3960 C   0  0  0  0  0  2  0  0  0  0  0  0
  -26.0190  -29.4400   20.7510 C   0  0  0  0  0  0  0  0  0  0  0  0
  -27.2090  -28.6600   20.7280 C   0  0  0  0  0  3  0  0  0  0  0  0
  -26.0240  -26.8900   19.5700 C   0  0  0  0  0  3  0  0  0  0  0  0
  -24.8500  -27.6660   19.5780 C   0  0  0  0  0  3  0  0  0  0  0  0
  -23.6100  -29.8060   20.2270 C   0  0  0  0  0  2  0  0  0  0  0  0
  -24.6810  -31.0780   22.1380 N   0  0  0  0  0  0  0  0  0  0  0  0
  -23.5520  -32.1590   23.7830 O   0  0  0  0  0  0  0  0  0  0  0  0
  -22.7620  -29.4660   22.5750 C   0  0  0  0  0  0  0  0  0  0  0  0
  -21.4360  -29.2830   22.4570 N   0  0  0  0  0  0  0  0  0  0  0  0
  -23.4490  -28.8410   23.3880 O   0  0  0  0  0  0  0  0  0  0  0  0
  -20.9410  -29.8390   21.7730 H   0  0  0  0  0  0  0  0  0  0  0  0
  -18.0670  -28.0740   22.9700 C   0  0  0  0  0  0  0  0  0  0  0  0
  -20.6240  -28.3460   23.2340 C   0  0  0  0  0  3  0  0  0  0  0  0
  -20.7320  -26.9120   22.6660 C   0  0  0  0  0  2  0  0  0  0  0  0
  -19.6300  -26.5790   21.6560 C   0  0  0  0  0  2  0  0  0  0  0  0
  -18.2480  -26.7220   22.3010 C   0  0  0  0  0  2  0  0  0  0  0  0
  -19.1820  -28.8440   23.3930 C   0  0  0  0  0  0  0  0  0  0  0  0
  -18.9590  -30.1100   23.9770 C   0  0  0  0  0  3  0  0  0  0  0  0
  -17.6530  -30.6060   24.1420 C   0  0  0  0  0  3  0  0  0  0  0  0
  -16.5510  -29.8340   23.7350 C   0  0  0  0  0  3  0  0  0  0  0  0
  -16.7590  -28.5690   23.1540 C   0  0  0  0  0  3  0  0  0  0  0  0
  -25.9200  -32.5160   23.8470 C   0  0  0  0  0  3  0  0  0  0  0  0
  -26.4530  -31.7410   25.1150 C   0  0  1  0  0  0  0  0  0  0  0  0
  -25.3740  -31.4970   26.1950 C   0  0  0  0  0  1  0  0  0  0  0  0
  -27.0330  -30.3660   24.7090 C   0  0  0  0  0  1  0  0  0  0  0  0
  -27.6110  -32.5340   25.7650 C   0  0  0  0  0  1  0  0  0  0  0  0
  -25.6110  -33.9120   24.1880 N   0  0  0  0  0  0  0  0  0  0  0  0
  -25.9290  -34.9690   23.4290 C   0  0  0  0  0  0  0  0  0  0  0  0
  -26.5850  -34.8720   22.3870 O   0  0  0  0  0  0  0  0  0  0  0  0
  -25.0260  -34.0610   24.9970 H   0  0  0  0  0  0  0  0  0  0  0  0
  -24.1880  -36.7560   23.1100 C   0  0  0  0  0  1  0  0  0  0  0  0
  -25.4440  -36.3540   23.8990 C   0  0  0  0  0  3  0  0  0  0  0  0
  -27.5900  -37.2430   24.6940 C   0  0  0  0  0  1  0  0  0  0  0  0
  -26.4700  -37.4110   23.7720 N   0  0  0  0  0  0  0  0  0  0  0  0
  -26.0630  -38.3300   23.9330 H   0  0  0  0  0  0  0  0  0  0  0  0
  1  5  1  0
  1  3  1  0
  2  5  1  0
  2  4  1  0
  5 50  1  0
  6  4  1  0
  6  3  1  0
  6  7  1  0
  7  8  1  0
  9  7  1  0
 10  7  1  0
 10 11  1  0
 12 20  1  0
 13 18  1  0
 14 15  1  0
 14 13  1  0
 16 15  1  0
 16 25  1  0
 16 17  1  0
 18 12  1  0
 18 17  1  0
 19 12  2  0
 20 21  1  0
 20 11  1  0
 22 23  2  0
 23 42  1  0
 24 23  1  0
 24 27  1  0
 25 22  1  0
 25 26  1  0
 26 24  2  0
 27 28  1  0
 28 29  2  0
 30 33  1  0
 30 29  1  0
 31 30  2  0
 32 31  1  0
 32 27  2  0
 33 34  1  0
 34 35  1  0
 35 36  2  0
 37 36  1  0
 37 41  1  0
 38 37  2  0
 39 34  2  0
 39 38  1  0
 40 39  1  0
 42 43  1  0
 43 46  1  0
 43 45  1  0
 44 42  2  0
 47 48  1  0
 47 22  1  0
 49 47  1  0
 50 51  1  0
 52 63  2  0
 53 51  1  0
 53 58  1  0
 54 62  1  0
 54 64  1  0
 55 61  1  0
 55 57  1  0
 56 62  1  0
 57 56  1  0
 58 57  2  0
 59 60  1  0
 59 53  2  0
 60 55  2  0
 61 54  1  0
 62 52  1  0
 64 66  2  0
 65 64  1  0
 67 65  1  0
 68 77  2  0
 68 73  1  0
 69 65  1  0
 69 73  1  0
 70 69  1  0
 71 72  1  0
 71 70  1  0
 72 68  1  0
 73 74  2  0
 74 75  1  0
 76 75  2  0
 77 76  1  0
 78 52  1  0
 78 83  1  0
 78 79  1  0
 79 82  1  1
 79 80  1  0
 81 79  1  0
 83 86  1  0
 84 88  1  0
 84 83  1  0
 85 84  2  0
 88 87  1  0
 90 88  1  0
 90 91  1  0
 90 89  1  0
M  ISO  4  12 100  20 100  50 101  51 101
M  END
>  <TORSDO>  (76) 
F 20

>  <SCORE>  (76) 
-13.890

>  <name>  (76) 
75

>  <ligand_id>  (76) 
75

>  <original_smiles>  (76) 
[H]c1c([H])c([H])c2c(c1[H])C([H])([H])C([H])([H])C([H])([H])C2([H])N([H])C(=O)C1([H])N(C(=O)C([H])(N([H])C(=O)C([H])(N([H])C([H])([H])[H])C([H])([H])[H])C(C([H])([H])[H])(C([H])([H])[H])C([H])([H])[H])C([H])([H])c2c([H])c(OC([H])([H])C3([H])C([H])([H])C([H])([H])C([H])([N+]([H])([H])C([H])([H])C([H])([H])N([H])C(=O)N4C([H])([H])C([H])([H])C([H])([H])C([H])(n5nc(-c6c([H])c([H])c(Oc7c([H])c([H])c(F)c([H])c7F)c([H])c6[H])c(C(=O)N([H])[H])c5N([H])[H])C4([H])[H])C([H])([H])C3([H])[H])c([H])c([H])c2C1([H])[H]

>  <smiles>  (76) 
[H]c1c([H])c([H])c2c(c1[H])C([H])([H])C([H])([H])C([H])([H])C2([H])N([H])C(=O)C1([H])N(C(=O)C([H])(N([H])C(=O)C([H])(N([H])C([H])([H])[H])C([H])([H])[H])C(C([H])([H])[H])(C([H])([H])[H])C([H])([H])[H])C([H])([H])c2c([H])c(OC([H])([H])C3([H])C([H])([H])C([H])([H])C([H])([N+]([H])([H])C([H])([H])C([H])([H])N([H])C(=O)N4C([H])([H])C([H])([H])C([H])([H])C([H])(n5nc(-c6c([H])c([H])c(Oc7c([H])c([H])c(F)c([H])c7F)c([H])c6[H])c(C(=O)N([H])[H])c5N([H])[H])C4([H])[H])C([H])([H])C3([H])[H])c([H])c([H])c2C1([H])[H]

$$$$
76:0:0
     RDKit          3D

 93102  0  0  1  0  0  0  0  0999 V2000
  -28.3790  -21.1240   19.5550 C   0  0  0  0  0  3  0  0  0  0  0  0
  -28.5980  -19.6850   19.4740 C   0  0  0  0  0  3  0  0  0  0  0  0
  -30.4200  -19.8690   20.9640 C   0  0  0  0  0  3  0  0  0  0  0  0
  -29.1960  -22.0200   20.3270 C   0  0  0  0  0  0  0  0  0  0  0  0
  -30.2120  -21.2980   21.0510 C   0  0  0  0  0  0  0  0  0  0  0  0
  -29.6560  -18.9820   20.1500 C   0  0  0  0  0  0  0  0  0  0  0  0
  -31.1560  -22.0640   21.9730 C   0  0  0  0  0  2  0  0  0  0  0  0
  -31.2670  -23.5600   21.6510 C   0  0  0  0  0  2  0  0  0  0  0  0
  -29.1940  -23.6740   20.3150 C   0  0  0  0  0  3  0  0  0  0  0  0
  -29.9290  -24.1600   21.5000 N   0  0  0  0  0  4  0  0  0  0  0  0
  -30.0310  -25.1600   21.4120 H   0  0  0  0  0  0  0  0  0  0  0  0
  -29.3890  -23.9840   22.3320 H   0  0  0  0  0  0  0  0  0  0  0  0
  -30.1880  -17.4770   19.7850 C   0  0  0  0  0  2  0  0  0  0  0  0
  -30.5230  -14.8730   20.1720 C   0  0  0  0  0  0  0  0  0  0  0  0
  -30.3220  -12.5610   19.2090 C   0  0  0  0  0  2  0  0  0  0  0  0
  -29.3720  -12.5880   17.9940 C   0  0  0  0  0  2  0  0  0  0  0  0
  -27.9110  -12.4000   18.4480 C   0  0  0  0  0  2  0  0  0  0  0  0
  -27.5440  -13.2960   19.6610 C   0  0  0  0  0  3  0  0  0  0  0  0
  -28.6220  -13.2610   20.7660 C   0  0  0  0  0  2  0  0  0  0  0  0
  -29.8930  -13.6400   20.1400 N   0  0  0  0  0  0  0  0  0  0  0  0
  -31.7090  -14.9190   19.8330 O   0  0  0  0  0  0  0  0  0  0  0  0
  -29.7930  -16.0720   20.3270 N   0  0  0  0  0  0  0  0  0  0  0  0
  -28.8300  -15.9650   20.6070 H   0  0  0  0  0  0  0  0  0  0  0  0
  -25.1720  -13.8660   20.4430 C   0  0  0  0  0  0  0  0  0  0  0  0
  -24.1150  -13.0870   20.8270 C   0  0  0  0  0  0  0  0  0  0  0  0
  -24.5820  -11.7360   20.7770 C   0  0  0  0  0  0  0  0  0  0  0  0
  -26.2130  -12.9930   20.1790 N   0  0  0  0  0  0  0  0  0  0  0  0
  -25.8680  -11.7060   20.4470 N   0  0  0  0  0  0  0  0  0  0  0  0
  -23.8610  -10.4700   20.9700 C   0  0  0  0  0  0  0  0  0  0  0  0
  -24.2920   -9.5100   21.9120 C   0  0  0  0  0  3  0  0  0  0  0  0
  -23.5690   -8.3110   22.0940 C   0  0  0  0  0  3  0  0  0  0  0  0
  -22.4020   -8.0640   21.3330 C   0  0  0  0  0  0  0  0  0  0  0  0
  -21.9900   -9.0130   20.3810 C   0  0  0  0  0  3  0  0  0  0  0  0
  -22.7140  -10.2040   20.1970 C   0  0  0  0  0  3  0  0  0  0  0  0
  -21.6490   -6.9180   21.4240 O   0  0  0  0  0  0  0  0  0  0  0  0
  -21.5730   -6.1980   22.5880 C   0  0  0  0  0  0  0  0  0  0  0  0
  -21.0890   -6.7680   23.7870 C   0  0  0  0  0  3  0  0  0  0  0  0
  -20.9600   -5.9720   24.9420 C   0  0  0  0  0  3  0  0  0  0  0  0
  -21.3070   -4.6090   24.9020 C   0  0  0  0  0  0  0  0  0  0  0  0
  -21.7840   -4.0380   23.7090 C   0  0  0  0  0  3  0  0  0  0  0  0
  -21.9130   -4.8290   22.5550 C   0  0  0  0  0  0  0  0  0  0  0  0
  -22.3530   -4.2700   21.4020 F   0  0  0  0  0  0  0  0  0  0  0  0
  -21.1750   -3.8430   26.0120 F   0  0  0  0  0  0  0  0  0  0  0  0
  -22.7210  -13.5580   21.1210 C   0  0  0  0  0  0  0  0  0  0  0  0
  -22.0030  -12.8520   21.9860 N   0  0  0  0  0  0  0  0  0  0  0  0
  -22.2780  -14.5900   20.6180 O   0  0  0  0  0  0  0  0  0  0  0  0
  -22.3740  -12.0180   22.4160 H   0  0  0  0  0  0  0  0  0  0  0  0
  -21.0670  -13.1500   22.2240 H   0  0  0  0  0  0  0  0  0  0  0  0
  -25.3250  -15.2390   20.2710 N   0  0  0  0  0  0  0  0  0  0  0  0
  -24.5520  -15.8830   20.4000 H   0  0  0  0  0  0  0  0  0  0  0  0
  -26.1520  -15.6860   19.8970 H   0  0  0  0  0  0  0  0  0  0  0  0
  -27.9540  -24.7370   20.0810 C   0  0  0  0  0  2  0  0  0  0  0  0
  -28.1950  -26.2590   20.1660 O   0  0  0  0  0  0  0  0  0  0  0  0
  -24.5700  -31.8800   23.1730 C   0  0  0  0  0  0  0  0  0  0  0  0
  -27.1150  -27.1950   20.1210 C   0  0  0  0  0  0  0  0  0  0  0  0
  -23.3510  -30.4830   21.5480 C   0  0  0  0  0  3  0  0  0  0  0  0
  -24.7810  -28.9050   20.1170 C   0  0  0  0  0  0  0  0  0  0  0  0
  -25.9010  -30.7560   21.3520 C   0  0  0  0  0  2  0  0  0  0  0  0
  -25.9650  -29.3650   20.7050 C   0  0  0  0  0  0  0  0  0  0  0  0
  -27.1360  -28.5270   20.6860 C   0  0  0  0  0  3  0  0  0  0  0  0
  -25.9000  -26.8180   19.5080 C   0  0  0  0  0  3  0  0  0  0  0  0
  -24.7560  -27.6420   19.5080 C   0  0  0  0  0  3  0  0  0  0  0  0
  -23.5560  -29.8010   20.1690 C   0  0  0  0  0  2  0  0  0  0  0  0
  -24.6270  -31.0590   22.0800 N   0  0  0  0  0  0  0  0  0  0  0  0
  -23.4890  -32.1670   23.7100 O   0  0  0  0  0  0  0  0  0  0  0  0
  -22.6810  -29.4780   22.5160 C   0  0  0  0  0  0  0  0  0  0  0  0
  -21.3510  -29.3150   22.4070 N   0  0  0  0  0  0  0  0  0  0  0  0
  -23.3590  -28.8440   23.3280 O   0  0  0  0  0  0  0  0  0  0  0  0
  -20.8590  -29.8770   21.7260 H   0  0  0  0  0  0  0  0  0  0  0  0
  -17.9680  -28.1410   22.9490 C   0  0  0  0  0  0  0  0  0  0  0  0
  -20.5320  -28.3860   23.1890 C   0  0  0  0  0  3  0  0  0  0  0  0
  -20.6160  -26.9510   22.6170 C   0  0  0  0  0  2  0  0  0  0  0  0
  -19.5020  -26.6330   21.6150 C   0  0  0  0  0  2  0  0  0  0  0  0
  -18.1280  -26.7890   22.2730 C   0  0  0  0  0  2  0  0  0  0  0  0
  -19.0970  -28.8970   23.3650 C   0  0  0  0  0  0  0  0  0  0  0  0
  -18.8920  -30.1610   23.9590 C   0  0  0  0  0  3  0  0  0  0  0  0
  -17.5930  -30.6720   24.1380 C   0  0  0  0  0  3  0  0  0  0  0  0
  -16.4790  -29.9150   23.7370 C   0  0  0  0  0  3  0  0  0  0  0  0
  -16.6670  -28.6500   23.1510 C   0  0  0  0  0  3  0  0  0  0  0  0
  -25.8580  -32.5120   23.7850 C   0  0  0  0  0  3  0  0  0  0  0  0
  -25.5480  -33.9090   24.1290 N   0  0  0  0  0  0  0  0  0  0  0  0
  -25.8870  -34.9700   23.3850 C   0  0  0  0  0  0  0  0  0  0  0  0
  -26.5580  -34.8770   22.3540 O   0  0  0  0  0  0  0  0  0  0  0  0
  -24.9540  -34.0560   24.9310 H   0  0  0  0  0  0  0  0  0  0  0  0
  -24.1860  -36.7910   23.0300 C   0  0  0  0  0  1  0  0  0  0  0  0
  -25.4050  -36.3560   23.8590 C   0  0  0  0  0  3  0  0  0  0  0  0
  -27.5270  -37.2070   24.7560 C   0  0  0  0  0  1  0  0  0  0  0  0
  -26.4510  -37.4000   23.7880 N   0  0  0  0  0  0  0  0  0  0  0  0
  -26.0500  -38.3230   23.9380 H   0  0  0  0  0  0  0  0  0  0  0  0
  -26.3860  -31.7360   25.0540 C   0  0  1  0  0  0  0  0  0  0  0  0
  -25.3030  -31.4930   26.1320 C   0  0  0  0  0  1  0  0  0  0  0  0
  -26.9660  -30.3590   24.6530 C   0  0  0  0  0  1  0  0  0  0  0  0
  -27.5410  -32.5280   25.7100 C   0  0  0  0  0  1  0  0  0  0  0  0
  1  4  1  0
  2  1  2  0
  2  6  1  0
  3  5  1  0
  4  5  2  0
  5  7  1  0
  6  3  2  0
  8  7  1  0
  9 52  1  0
  9  4  1  0
  9 10  1  0
 10  8  1  0
 10 12  1  0
 11 10  1  0
 13  6  1  0
 13 22  1  0
 14 22  1  0
 15 20  1  0
 16 17  1  0
 16 15  1  0
 18 17  1  0
 18 27  1  0
 18 19  1  0
 20 14  1  0
 20 19  1  0
 21 14  2  0
 22 23  1  0
 24 25  2  0
 25 44  1  0
 26 25  1  0
 26 29  1  0
 27 24  1  0
 27 28  1  0
 28 26  2  0
 29 30  1  0
 30 31  2  0
 32 35  1  0
 32 31  1  0
 33 32  2  0
 34 33  1  0
 34 29  2  0
 35 36  1  0
 36 37  1  0
 37 38  2  0
 39 38  1  0
 39 43  1  0
 40 39  2  0
 41 36  2  0
 41 40  1  0
 42 41  1  0
 44 45  1  0
 45 48  1  0
 45 47  1  0
 46 44  2  0
 49 50  1  0
 49 24  1  0
 51 49  1  0
 52 53  1  0
 54 65  2  0
 55 53  1  0
 55 60  1  0
 56 64  1  0
 56 66  1  0
 57 63  1  0
 57 59  1  0
 58 64  1  0
 59 58  1  0
 60 59  2  0
 61 62  1  0
 61 55  2  0
 62 57  2  0
 63 56  1  0
 64 54  1  0
 66 68  2  0
 67 66  1  0
 69 67  1  0
 70 79  2  0
 70 75  1  0
 71 67  1  0
 71 75  1  0
 72 71  1  0
 73 74  1  0
 73 72  1  0
 74 70  1  0
 75 76  2  0
 76 77  1  0
 78 77  2  0
 79 78  1  0
 80 54  1  0
 80 81  1  0
 80 90  1  0
 81 84  1  0
 82 86  1  0
 82 81  1  0
 83 82  2  0
 86 85  1  0
 88 86  1  0
 88 89  1  0
 88 87  1  0
 90 93  1  1
 90 91  1  0
 92 90  1  0
M  ISO  4  14 100  22 100  52 101  53 101
M  END
>  <TORSDO>  (77) 
F 18

>  <SCORE>  (77) 
-14.277

>  <name>  (77) 
76

>  <ligand_id>  (77) 
76

>  <original_smiles>  (77) 
[H]c1c([H])c([H])c2c(c1[H])C([H])([H])C([H])([H])C([H])([H])C2([H])N([H])C(=O)C1([H])N(C(=O)C([H])(N([H])C(=O)C([H])(N([H])C([H])([H])[H])C([H])([H])[H])C(C([H])([H])[H])(C([H])([H])[H])C([H])([H])[H])C([H])([H])c2c([H])c(OC([H])([H])C3([H])c4c([H])c([H])c(C([H])([H])N([H])C(=O)N5C([H])([H])C([H])([H])C([H])([H])C([H])(n6nc(-c7c([H])c([H])c(Oc8c([H])c([H])c(F)c([H])c8F)c([H])c7[H])c(C(=O)N([H])[H])c6N([H])[H])C5([H])[H])c([H])c4C([H])([H])C([H])([H])[N+]3([H])[H])c([H])c([H])c2C1([H])[H]

>  <smiles>  (77) 
[H]c1c([H])c([H])c2c(c1[H])C([H])([H])C([H])([H])C([H])([H])C2([H])N([H])C(=O)C1([H])N(C(=O)C([H])(N([H])C(=O)C([H])(N([H])C([H])([H])[H])C([H])([H])[H])C(C([H])([H])[H])(C([H])([H])[H])C([H])([H])[H])C([H])([H])c2c([H])c(OC([H])([H])C3([H])c4c([H])c([H])c(C([H])([H])N([H])C(=O)N5C([H])([H])C([H])([H])C([H])([H])C([H])(n6nc(-c7c([H])c([H])c(Oc8c([H])c([H])c(F)c([H])c8F)c([H])c7[H])c(C(=O)N([H])[H])c6N([H])[H])C5([H])[H])c([H])c4C([H])([H])C([H])([H])[N+]3([H])[H])c([H])c([H])c2C1([H])[H]

$$$$
77:0:0
     RDKit          3D

100109  0  0  1  0  0  0  0  0999 V2000
  -29.2250  -21.0430   19.6280 C   0  0  0  0  0  2  0  0  0  0  0  0
  -27.7120  -24.4170   20.6970 C   0  0  0  0  0  3  0  0  0  0  0  0
  -27.8700  -23.0270   20.5480 C   0  0  0  0  0  0  0  0  0  0  0  0
  -29.0040  -22.5450   19.8430 C   0  0  0  0  0  0  0  0  0  0  0  0
  -29.9040  -23.5040   19.3090 C   0  0  0  0  0  0  0  0  0  0  0  0
  -28.6340  -25.2880   20.0860 C   0  0  0  0  0  0  0  0  0  0  0  0
  -26.8200  -22.1070   21.1500 C   0  0  0  0  0  1  0  0  0  0  0  0
  -31.1570  -23.1200   18.5400 C   0  0  0  0  0  1  0  0  0  0  0  0
  -29.7170  -24.8340   19.4270 N   0  0  0  0  0  0  0  0  0  0  0  0
  -28.5540  -26.6620   20.1160 O   0  0  0  0  0  0  0  0  0  0  0  0
  -24.6380  -31.7730   23.1070 C   0  0  0  0  0  0  0  0  0  0  0  0
  -27.3490  -27.3240   20.1250 C   0  0  0  0  0  0  0  0  0  0  0  0
  -23.4560  -30.3360   21.4750 C   0  0  0  0  0  3  0  0  0  0  0  0
  -24.9360  -28.7860   20.0910 C   0  0  0  0  0  0  0  0  0  0  0  0
  -25.9770  -30.7120   21.3000 C   0  0  0  0  0  2  0  0  0  0  0  0
  -26.0770  -29.3320   20.6910 C   0  0  0  0  0  0  0  0  0  0  0  0
  -27.2820  -28.6020   20.7170 C   0  0  0  0  0  3  0  0  0  0  0  0
  -26.1970  -26.7970   19.4960 C   0  0  0  0  0  3  0  0  0  0  0  0
  -24.9870  -27.5140   19.4950 C   0  0  0  0  0  3  0  0  0  0  0  0
  -23.6830  -29.6320   20.1090 C   0  0  0  0  0  2  0  0  0  0  0  0
  -24.7080  -30.9570   22.0190 N   0  0  0  0  0  0  0  0  0  0  0  0
  -23.5490  -32.0460   23.6330 O   0  0  0  0  0  0  0  0  0  0  0  0
  -22.8050  -29.3250   22.4460 C   0  0  0  0  0  0  0  0  0  0  0  0
  -21.4830  -29.1340   22.3080 N   0  0  0  0  0  0  0  0  0  0  0  0
  -23.4850  -28.7160   23.2760 O   0  0  0  0  0  0  0  0  0  0  0  0
  -20.9960  -29.6770   21.6090 H   0  0  0  0  0  0  0  0  0  0  0  0
  -18.0960  -28.0070   22.8620 C   0  0  0  0  0  0  0  0  0  0  0  0
  -20.6640  -28.2040   23.0840 C   0  0  0  0  0  3  0  0  0  0  0  0
  -20.7240  -26.7780   22.4880 C   0  0  0  0  0  2  0  0  0  0  0  0
  -19.5940  -26.4930   21.4930 C   0  0  0  0  0  2  0  0  0  0  0  0
  -18.2290  -26.6620   22.1680 C   0  0  0  0  0  2  0  0  0  0  0  0
  -19.2400  -28.7390   23.2780 C   0  0  0  0  0  0  0  0  0  0  0  0
  -19.0630  -30.0000   23.8860 C   0  0  0  0  0  3  0  0  0  0  0  0
  -17.7740  -30.5290   24.0840 C   0  0  0  0  0  3  0  0  0  0  0  0
  -16.6450  -29.7940   23.6840 C   0  0  0  0  0  3  0  0  0  0  0  0
  -16.8070  -28.5350   23.0790 C   0  0  0  0  0  3  0  0  0  0  0  0
  -25.9150  -32.4200   23.7290 C   0  0  0  0  0  3  0  0  0  0  0  0
  -26.4750  -31.6240   24.9720 C   0  0  1  0  0  0  0  0  0  0  0  0
  -25.3950  -31.2570   26.0140 C   0  0  0  0  0  1  0  0  0  0  0  0
  -27.1560  -30.3130   24.5150 C   0  0  0  0  0  1  0  0  0  0  0  0
  -27.5630  -32.4630   25.6830 C   0  0  0  0  0  1  0  0  0  0  0  0
  -25.5740  -33.7980   24.1050 N   0  0  0  0  0  0  0  0  0  0  0  0
  -25.8440  -34.8780   23.3590 C   0  0  0  0  0  0  0  0  0  0  0  0
  -26.4800  -34.8210   22.3030 O   0  0  0  0  0  0  0  0  0  0  0  0
  -25.0070  -33.9160   24.9310 H   0  0  0  0  0  0  0  0  0  0  0  0
  -24.0460  -36.6160   23.1040 C   0  0  0  0  0  1  0  0  0  0  0  0
  -25.3260  -36.2370   23.8660 C   0  0  0  0  0  3  0  0  0  0  0  0
  -27.4540  -37.1740   24.6500 C   0  0  0  0  0  1  0  0  0  0  0  0
  -26.3180  -37.3260   23.7460 N   0  0  0  0  0  0  0  0  0  0  0  0
  -25.8860  -38.2280   23.9280 H   0  0  0  0  0  0  0  0  0  0  0  0
  -29.7740  -20.3640   20.8220 N   0  0  0  0  0  4  0  0  0  0  0  0
  -29.0500  -20.3100   21.5180 H   0  0  0  0  0  0  0  0  0  0  0  0
  -30.5270  -20.9140   21.2040 H   0  0  0  0  0  0  0  0  0  0  0  0
  -30.2760  -19.0000   20.5500 C   0  0  0  0  0  2  0  0  0  0  0  0
  -30.0490  -18.0300   21.7320 C   0  0  0  0  0  2  0  0  0  0  0  0
  -30.5380  -14.0280   18.8630 C   0  0  0  0  0  0  0  0  0  0  0  0
  -29.6740  -12.1120   17.5810 C   0  0  0  0  0  2  0  0  0  0  0  0
  -28.4230  -12.4550   16.7580 C   0  0  0  0  0  2  0  0  0  0  0  0
  -27.1550  -12.2790   17.6110 C   0  0  0  0  0  2  0  0  0  0  0  0
  -27.2520  -13.0100   18.9740 C   0  0  0  0  0  3  0  0  0  0  0  0
  -28.5810  -12.6750   19.6910 C   0  0  0  0  0  2  0  0  0  0  0  0
  -29.7040  -12.9610   18.7800 N   0  0  0  0  0  0  0  0  0  0  0  0
  -31.2160  -14.4430   17.9170 O   0  0  0  0  0  0  0  0  0  0  0  0
  -31.7630  -13.7320   22.2310 C   0  0  0  0  0  2  0  0  0  0  0  0
  -31.9890  -14.1210   20.7640 C   0  0  0  0  0  2  0  0  0  0  0  0
  -30.2320  -15.8820   20.3280 C   0  0  0  0  0  2  0  0  0  0  0  0
  -31.6700  -14.9420   23.1730 C   0  0  0  0  0  2  0  0  0  0  0  0
  -30.7360  -16.6460   21.5840 C   0  0  0  0  0  3  0  0  0  0  0  0
  -30.7300  -14.5110   20.1080 N   0  0  0  0  0  0  0  0  0  0  0  0
  -30.5620  -15.8570   22.8300 N   0  0  0  0  0  4  0  0  0  0  0  0
  -30.5030  -16.5090   23.5970 H   0  0  0  0  0  0  0  0  0  0  0  0
  -29.6900  -15.3520   22.8130 H   0  0  0  0  0  0  0  0  0  0  0  0
  -25.2210  -13.5800   20.4540 C   0  0  0  0  0  0  0  0  0  0  0  0
  -24.2730  -12.7910   21.0490 C   0  0  0  0  0  0  0  0  0  0  0  0
  -24.6200  -11.4440   20.7240 C   0  0  0  0  0  0  0  0  0  0  0  0
  -26.0940  -12.7120   19.8160 N   0  0  0  0  0  0  0  0  0  0  0  0
  -25.7490  -11.4150   20.0280 N   0  0  0  0  0  0  0  0  0  0  0  0
  -23.9140  -10.1840   20.9890 C   0  0  0  0  0  0  0  0  0  0  0  0
  -24.4600   -9.1950   21.8370 C   0  0  0  0  0  3  0  0  0  0  0  0
  -23.7530   -8.0000   22.0920 C   0  0  0  0  0  3  0  0  0  0  0  0
  -22.4880   -7.7840   21.4990 C   0  0  0  0  0  0  0  0  0  0  0  0
  -21.9580   -8.7620   20.6370 C   0  0  0  0  0  3  0  0  0  0  0  0
  -22.6650   -9.9490   20.3810 C   0  0  0  0  0  3  0  0  0  0  0  0
  -21.7420   -6.6430   21.6660 O   0  0  0  0  0  0  0  0  0  0  0  0
  -21.7140   -5.9700   22.8620 C   0  0  0  0  0  0  0  0  0  0  0  0
  -21.3330   -6.6060   24.0650 C   0  0  0  0  0  3  0  0  0  0  0  0
  -21.2510   -5.8610   25.2580 C   0  0  0  0  0  3  0  0  0  0  0  0
  -21.5390   -4.4840   25.2510 C   0  0  0  0  0  0  0  0  0  0  0  0
  -21.9110   -3.8470   24.0540 C   0  0  0  0  0  3  0  0  0  0  0  0
  -21.9960   -4.5890   22.8620 C   0  0  0  0  0  0  0  0  0  0  0  0
  -22.3350   -3.9680   21.7070 F   0  0  0  0  0  0  0  0  0  0  0  0
  -21.4510   -3.7660   26.3950 F   0  0  0  0  0  0  0  0  0  0  0  0
  -23.0580  -13.2610   21.7960 C   0  0  0  0  0  0  0  0  0  0  0  0
  -22.6580  -12.5350   22.8350 N   0  0  0  0  0  0  0  0  0  0  0  0
  -22.4840  -14.3050   21.4920 O   0  0  0  0  0  0  0  0  0  0  0  0
  -23.1410  -11.6890   23.0990 H   0  0  0  0  0  0  0  0  0  0  0  0
  -21.8570  -12.8310   23.3750 H   0  0  0  0  0  0  0  0  0  0  0  0
  -25.4050  -14.9580   20.3890 N   0  0  0  0  0  0  0  0  0  0  0  0
  -24.7400  -15.6090   20.7900 H   0  0  0  0  0  0  0  0  0  0  0  0
  -26.1270  -15.4140   19.8470 H   0  0  0  0  0  0  0  0  0  0  0  0
  1  4  1  0
  1 51  1  0
  3  2  2  0
  3  7  1  0
  4  3  1  0
  5  9  1  0
  5  4  2  0
  6 10  1  0
  6  2  1  0
  8  5  1  0
  9  6  2  0
 10 12  1  0
 11 22  2  0
 12 17  1  0
 13 21  1  0
 13 23  1  0
 14 20  1  0
 14 16  1  0
 15 21  1  0
 16 17  2  0
 16 15  1  0
 18 12  2  0
 19 18  1  0
 19 14  2  0
 20 13  1  0
 21 11  1  0
 23 25  2  0
 24 23  1  0
 26 24  1  0
 27 36  2  0
 27 32  1  0
 28 24  1  0
 28 32  1  0
 29 28  1  0
 30 31  1  0
 30 29  1  0
 31 27  1  0
 32 33  2  0
 33 34  1  0
 35 34  2  0
 36 35  1  0
 37 11  1  0
 37 42  1  0
 37 38  1  0
 38 41  1  1
 38 39  1  0
 40 38  1  0
 42 45  1  0
 43 47  1  0
 43 42  1  0
 44 43  2  0
 47 46  1  0
 49 47  1  0
 49 50  1  0
 49 48  1  0
 51 53  1  0
 51 52  1  0
 54 51  1  0
 54 55  1  0
 56 69  1  0
 57 62  1  0
 58 57  1  0
 58 59  1  0
 60 59  1  0
 60 61  1  0
 60 76  1  0
 62 56  1  0
 62 61  1  0
 63 56  2  0
 64 67  1  0
 65 64  1  0
 66 68  1  0
 68 55  1  0
 68 70  1  0
 69 66  1  0
 69 65  1  0
 70 67  1  0
 70 71  1  0
 72 70  1  0
 73 74  2  0
 74 93  1  0
 75 78  1  0
 75 74  1  0
 76 77  1  0
 76 73  1  0
 77 75  2  0
 78 79  1  0
 79 80  2  0
 81 84  1  0
 81 80  1  0
 82 81  2  0
 83 82  1  0
 83 78  2  0
 84 85  1  0
 85 90  2  0
 85 86  1  0
 86 87  2  0
 88 87  1  0
 88 92  1  0
 89 88  2  0
 90 89  1  0
 91 90  1  0
 93 94  1  0
 94 96  1  0
 94 97  1  0
 95 93  2  0
 98 73  1  0
 98 99  1  0
100 98  1  0
M  ISO  4   6 101  10 101  56 100  69 100
M  END
>  <TORSDO>  (78) 
F 20

>  <SCORE>  (78) 
-5.618

>  <name>  (78) 
77

>  <ligand_id>  (78) 
77

>  <original_smiles>  (78) 
[H]c1c([H])c([H])c2c(c1[H])C([H])([H])C([H])([H])C([H])([H])C2([H])N([H])C(=O)C1([H])N(C(=O)C([H])(N([H])C(=O)C([H])(N([H])C([H])([H])[H])C([H])([H])[H])C(C([H])([H])[H])(C([H])([H])[H])C([H])([H])[H])C([H])([H])c2c([H])c(Oc3nc(C([H])([H])[H])c(C([H])([H])[N+]([H])([H])C([H])([H])C([H])([H])C4([H])C([H])([H])N(C(=O)N5C([H])([H])C([H])([H])C([H])([H])C([H])(n6nc(-c7c([H])c([H])c(Oc8c([H])c([H])c(F)c([H])c8F)c([H])c7[H])c(C(=O)N([H])[H])c6N([H])[H])C5([H])[H])C([H])([H])C([H])([H])C([H])([H])[N+]4([H])[H])c(C([H])([H])[H])c3[H])c([H])c([H])c2C1([H])[H]

>  <smiles>  (78) 
[H]c1c([H])c([H])c2c(c1[H])C([H])([H])C([H])([H])C([H])([H])C2([H])N([H])C(=O)C1([H])N(C(=O)C([H])(N([H])C(=O)C([H])(N([H])C([H])([H])[H])C([H])([H])[H])C(C([H])([H])[H])(C([H])([H])[H])C([H])([H])[H])C([H])([H])c2c([H])c(Oc3nc(C([H])([H])[H])c(C([H])([H])[N+]([H])([H])C([H])([H])C([H])([H])C4([H])C([H])([H])N(C(=O)N5C([H])([H])C([H])([H])C([H])([H])C([H])(n6nc(-c7c([H])c([H])c(Oc8c([H])c([H])c(F)c([H])c8F)c([H])c7[H])c(C(=O)N([H])[H])c6N([H])[H])C5([H])[H])C([H])([H])C([H])([H])C([H])([H])[N+]4([H])[H])c(C([H])([H])[H])c3[H])c([H])c([H])c2C1([H])[H]

$$$$
78:0:0
     RDKit          3D

 91 99  0  0  1  0  0  0  0  0999 V2000
  -30.8770  -21.5790   20.2370 C   0  0  0  0  0  3  0  0  0  0  0  0
  -28.5940  -22.2780   20.5550 C   0  0  0  0  0  3  0  0  0  0  0  0
  -31.2020  -22.9450   20.0290 C   0  0  0  0  0  2  0  0  0  0  0  0
  -29.5510  -21.1870   20.5190 C   0  0  0  0  0  0  0  0  0  0  0  0
  -28.9530  -23.6690   20.3210 C   0  0  0  0  0  0  0  0  0  0  0  0
  -30.2560  -23.9180   20.0740 N   0  0  0  0  0  0  0  0  0  0  0  0
  -30.5340  -24.8860   19.8970 H   0  0  0  0  0  0  0  0  0  0  0  0
  -29.2330  -19.7990   20.8050 N   0  0  0  0  0  0  0  0  0  0  0  0
  -28.2950  -19.6670   21.1720 H   0  0  0  0  0  0  0  0  0  0  0  0
  -29.7860  -18.5540   20.1360 C   0  0  0  0  0  2  0  0  0  0  0  0
  -30.2120  -17.2880   21.0510 C   0  0  0  0  0  2  0  0  0  0  0  0
  -30.5720  -14.7310   20.4160 C   0  0  0  0  0  0  0  0  0  0  0  0
  -30.3470  -12.4690   19.3660 C   0  0  0  0  0  2  0  0  0  0  0  0
  -29.3970  -12.5430   18.1510 C   0  0  0  0  0  2  0  0  0  0  0  0
  -27.9300  -12.3740   18.5930 C   0  0  0  0  0  2  0  0  0  0  0  0
  -27.5690  -13.2660   19.8120 C   0  0  0  0  0  3  0  0  0  0  0  0
  -28.6340  -13.1680   20.9250 C   0  0  0  0  0  2  0  0  0  0  0  0
  -29.9280  -13.5190   20.3220 N   0  0  0  0  0  0  0  0  0  0  0  0
  -31.7610  -14.8300   20.1000 O   0  0  0  0  0  0  0  0  0  0  0  0
  -29.8140  -15.8550   20.6940 N   0  0  0  0  0  0  0  0  0  0  0  0
  -28.8360  -15.6550   20.8350 H   0  0  0  0  0  0  0  0  0  0  0  0
  -25.1840  -13.8720   20.5450 C   0  0  0  0  0  0  0  0  0  0  0  0
  -24.1160  -13.1030   20.9210 C   0  0  0  0  0  0  0  0  0  0  0  0
  -24.5720  -11.7500   20.8920 C   0  0  0  0  0  0  0  0  0  0  0  0
  -26.2240  -12.9860   20.3090 N   0  0  0  0  0  0  0  0  0  0  0  0
  -25.8620  -11.7050   20.5800 N   0  0  0  0  0  0  0  0  0  0  0  0
  -23.8390  -10.4920   21.0860 C   0  0  0  0  0  0  0  0  0  0  0  0
  -24.2860   -9.5100   21.9970 C   0  0  0  0  0  3  0  0  0  0  0  0
  -23.5520   -8.3180   22.1810 C   0  0  0  0  0  3  0  0  0  0  0  0
  -22.3590   -8.0990   21.4510 C   0  0  0  0  0  0  0  0  0  0  0  0
  -21.9320   -9.0700   20.5270 C   0  0  0  0  0  3  0  0  0  0  0  0
  -22.6660  -10.2530   20.3430 C   0  0  0  0  0  3  0  0  0  0  0  0
  -21.5970   -6.9600   21.5450 O   0  0  0  0  0  0  0  0  0  0  0  0
  -21.5860   -6.1920   22.6810 C   0  0  0  0  0  0  0  0  0  0  0  0
  -21.2360   -6.7270   23.9410 C   0  0  0  0  0  3  0  0  0  0  0  0
  -21.1730   -5.8870   25.0700 C   0  0  0  0  0  3  0  0  0  0  0  0
  -21.4480   -4.5120   24.9420 C   0  0  0  0  0  0  0  0  0  0  0  0
  -21.7900   -3.9760   23.6880 C   0  0  0  0  0  3  0  0  0  0  0  0
  -21.8560   -4.8140   22.5610 C   0  0  0  0  0  0  0  0  0  0  0  0
  -22.1670   -4.2880   21.3510 F   0  0  0  0  0  0  0  0  0  0  0  0
  -21.3790   -3.7030   26.0240 F   0  0  0  0  0  0  0  0  0  0  0  0
  -22.7220  -13.5880   21.1940 C   0  0  0  0  0  0  0  0  0  0  0  0
  -21.9930  -12.8990   22.0650 N   0  0  0  0  0  0  0  0  0  0  0  0
  -22.2890  -14.6140   20.6730 O   0  0  0  0  0  0  0  0  0  0  0  0
  -22.3580  -12.0700   22.5100 H   0  0  0  0  0  0  0  0  0  0  0  0
  -21.0580  -13.2060   22.2910 H   0  0  0  0  0  0  0  0  0  0  0  0
  -25.3520  -15.2410   20.3630 N   0  0  0  0  0  0  0  0  0  0  0  0
  -24.5830  -15.8940   20.4700 H   0  0  0  0  0  0  0  0  0  0  0  0
  -26.1920  -15.6760   20.0030 H   0  0  0  0  0  0  0  0  0  0  0  0
  -27.9070  -24.8630   20.2230 C   0  0  0  0  0  2  0  0  0  0  0  0
  -28.2650  -26.3320   20.2370 O   0  0  0  0  0  0  0  0  0  0  0  0
  -24.6170  -31.8760   23.2340 C   0  0  0  0  0  0  0  0  0  0  0  0
  -27.1820  -27.2520   20.1780 C   0  0  0  0  0  0  0  0  0  0  0  0
  -23.4000  -30.4800   21.6070 C   0  0  0  0  0  3  0  0  0  0  0  0
  -24.8350  -28.9230   20.1760 C   0  0  0  0  0  0  0  0  0  0  0  0
  -25.9460  -30.7720   21.4140 C   0  0  0  0  0  2  0  0  0  0  0  0
  -26.0160  -29.3900   20.7650 C   0  0  0  0  0  0  0  0  0  0  0  0
  -27.1920  -28.5690   20.7560 C   0  0  0  0  0  3  0  0  0  0  0  0
  -25.9720  -26.8650   19.5510 C   0  0  0  0  0  3  0  0  0  0  0  0
  -24.8180  -27.6680   19.5580 C   0  0  0  0  0  3  0  0  0  0  0  0
  -23.6070  -29.8070   20.2270 C   0  0  0  0  0  2  0  0  0  0  0  0
  -24.6740  -31.0610   22.1400 N   0  0  0  0  0  0  0  0  0  0  0  0
  -23.5370  -32.1600   23.7730 O   0  0  0  0  0  0  0  0  0  0  0  0
  -22.7360  -29.4670   22.5720 C   0  0  0  0  0  0  0  0  0  0  0  0
  -21.4070  -29.2970   22.4540 N   0  0  0  0  0  0  0  0  0  0  0  0
  -23.4160  -28.8380   23.3870 O   0  0  0  0  0  0  0  0  0  0  0  0
  -20.9190  -29.8550   21.7690 H   0  0  0  0  0  0  0  0  0  0  0  0
  -18.0290  -28.1070   22.9700 C   0  0  0  0  0  0  0  0  0  0  0  0
  -20.5890  -28.3660   23.2330 C   0  0  0  0  0  3  0  0  0  0  0  0
  -20.6880  -26.9300   22.6680 C   0  0  0  0  0  2  0  0  0  0  0  0
  -19.5840  -26.6000   21.6580 C   0  0  0  0  0  2  0  0  0  0  0  0
  -18.2040  -26.7520   22.3040 C   0  0  0  0  0  2  0  0  0  0  0  0
  -19.1500  -28.8710   23.3920 C   0  0  0  0  0  0  0  0  0  0  0  0
  -18.9330  -30.1380   23.9760 C   0  0  0  0  0  3  0  0  0  0  0  0
  -17.6290  -30.6410   24.1430 C   0  0  0  0  0  3  0  0  0  0  0  0
  -16.5230  -29.8730   23.7380 C   0  0  0  0  0  3  0  0  0  0  0  0
  -16.7240  -28.6090   23.1570 C   0  0  0  0  0  3  0  0  0  0  0  0
  -25.9050  -32.5070   23.8470 C   0  0  0  0  0  3  0  0  0  0  0  0
  -26.4340  -31.7300   25.1140 C   0  0  1  0  0  0  0  0  0  0  0  0
  -25.3520  -31.4880   26.1920 C   0  0  0  0  0  1  0  0  0  0  0  0
  -27.0110  -30.3530   24.7110 C   0  0  0  0  0  1  0  0  0  0  0  0
  -27.5930  -32.5190   25.7680 C   0  0  0  0  0  1  0  0  0  0  0  0
  -25.5960  -33.9030   24.1890 N   0  0  0  0  0  0  0  0  0  0  0  0
  -25.9110  -34.9620   23.4310 C   0  0  0  0  0  0  0  0  0  0  0  0
  -26.5630  -34.8670   22.3880 O   0  0  0  0  0  0  0  0  0  0  0  0
  -25.0170  -34.0500   25.0020 H   0  0  0  0  0  0  0  0  0  0  0  0
  -24.1680  -36.7500   23.1290 C   0  0  0  0  0  1  0  0  0  0  0  0
  -25.4300  -36.3470   23.9070 C   0  0  0  0  0  3  0  0  0  0  0  0
  -27.5810  -37.2360   24.6900 C   0  0  0  0  0  1  0  0  0  0  0  0
  -26.4550  -37.4040   23.7750 N   0  0  0  0  0  0  0  0  0  0  0  0
  -26.0480  -38.3210   23.9390 H   0  0  0  0  0  0  0  0  0  0  0  0
  1  4  2  0
  3  6  1  0
  3  1  1  0
  4  2  1  0
  4  8  1  0
  5  2  2  0
  6  5  1  0
  7  6  1  0
  8  9  1  0
 10  8  1  0
 10 11  1  0
 12 20  1  0
 13 18  1  0
 14 15  1  0
 14 13  1  0
 16 15  1  0
 16 25  1  0
 16 17  1  0
 18 12  1  0
 18 17  1  0
 19 12  2  0
 20 21  1  0
 20 11  1  0
 22 23  2  0
 23 42  1  0
 24 23  1  0
 24 27  1  0
 25 22  1  0
 25 26  1  0
 26 24  2  0
 27 28  1  0
 28 29  2  0
 30 33  1  0
 30 29  1  0
 31 30  2  0
 32 31  1  0
 32 27  2  0
 33 34  1  0
 34 35  1  0
 35 36  2  0
 37 36  1  0
 37 41  1  0
 38 37  2  0
 39 34  2  0
 39 38  1  0
 40 39  1  0
 42 43  1  0
 43 46  1  0
 43 45  1  0
 44 42  2  0
 47 48  1  0
 47 22  1  0
 49 47  1  0
 50 51  1  0
 50  5  1  0
 52 63  2  0
 53 51  1  0
 53 58  1  0
 54 62  1  0
 54 64  1  0
 55 61  1  0
 55 57  1  0
 56 62  1  0
 57 56  1  0
 58 57  2  0
 59 60  1  0
 59 53  2  0
 60 55  2  0
 61 54  1  0
 62 52  1  0
 64 66  2  0
 65 64  1  0
 67 65  1  0
 68 77  2  0
 68 73  1  0
 69 65  1  0
 69 73  1  0
 70 69  1  0
 71 72  1  0
 71 70  1  0
 72 68  1  0
 73 74  2  0
 74 75  1  0
 76 75  2  0
 77 76  1  0
 78 52  1  0
 78 83  1  0
 78 79  1  0
 79 82  1  1
 79 80  1  0
 81 79  1  0
 83 86  1  0
 84 88  1  0
 84 83  1  0
 85 84  2  0
 88 87  1  0
 90 88  1  0
 90 91  1  0
 90 89  1  0
M  ISO  4  12 100  20 100  50 101  51 101
M  END
>  <TORSDO>  (79) 
F 20

>  <SCORE>  (79) 
-13.847

>  <name>  (79) 
78

>  <ligand_id>  (79) 
78

>  <original_smiles>  (79) 
[H]c1c([H])c([H])c2c(c1[H])C([H])([H])C([H])([H])C([H])([H])C2([H])N([H])C(=O)C1([H])N(C(=O)C([H])(N([H])C(=O)C([H])(N([H])C([H])([H])[H])C([H])([H])[H])C(C([H])([H])[H])(C([H])([H])[H])C([H])([H])[H])C([H])([H])c2c([H])c(OC([H])([H])c3c([H])c(N([H])C([H])([H])C([H])([H])N([H])C(=O)N4C([H])([H])C([H])([H])C([H])([H])C([H])(n5nc(-c6c([H])c([H])c(Oc7c([H])c([H])c(F)c([H])c7F)c([H])c6[H])c(C(=O)N([H])[H])c5N([H])[H])C4([H])[H])c([H])c([H])[n+]3[H])c([H])c([H])c2C1([H])[H]

>  <smiles>  (79) 
[H]c1c([H])c([H])c2c(c1[H])C([H])([H])C([H])([H])C([H])([H])C2([H])N([H])C(=O)C1([H])N(C(=O)C([H])(N([H])C(=O)C([H])(N([H])C([H])([H])[H])C([H])([H])[H])C(C([H])([H])[H])(C([H])([H])[H])C([H])([H])[H])C([H])([H])c2c([H])c(OC([H])([H])c3c([H])c(N([H])C([H])([H])C([H])([H])N([H])C(=O)N4C([H])([H])C([H])([H])C([H])([H])C([H])(n5nc(-c6c([H])c([H])c(Oc7c([H])c([H])c(F)c([H])c7F)c([H])c6[H])c(C(=O)N([H])[H])c5N([H])[H])C4([H])[H])c([H])c([H])[n+]3[H])c([H])c([H])c2C1([H])[H]

$$$$
79:0:0
     RDKit          3D

 99108  0  0  1  0  0  0  0  0999 V2000
  -28.9060  -19.6720   20.9010 C   0  0  0  0  0  2  0  0  0  0  0  0
  -32.4690  -21.0510   22.4520 C   0  0  0  0  0  2  0  0  0  0  0  0
  -31.2710  -21.4950   23.2780 C   0  0  0  0  0  2  0  0  0  0  0  0
  -32.4320  -19.5280   22.3710 C   0  0  0  0  0  2  0  0  0  0  0  0
  -29.9220  -19.7530   22.0880 C   0  0  0  0  0  3  0  0  0  0  0  0
  -30.0670  -21.1540   22.5330 N   0  0  0  0  0  0  0  0  0  0  0  0
  -31.1890  -19.0390   21.7130 N   0  0  2  0  0  4  0  0  0  0  0  0
  -29.9500  -21.7530   21.7150 H   0  0  0  0  0  0  0  0  0  0  0  0
  -31.3090  -19.2030   20.7260 H   0  0  0  0  0  0  0  0  0  0  0  0
  -31.0260  -17.5650   21.8810 C   0  0  0  0  0  2  0  0  0  0  0  0
  -31.9810  -16.7300   21.0090 C   0  0  0  0  0  2  0  0  0  0  0  0
  -32.0240  -15.2440   21.4160 C   0  0  0  0  0  2  0  0  0  0  0  0
  -30.8960  -13.8840   19.6670 C   0  0  0  0  0  0  0  0  0  0  0  0
  -30.3000  -11.7670   18.5600 C   0  0  0  0  0  2  0  0  0  0  0  0
  -29.2230  -11.8950   17.4720 C   0  0  0  0  0  2  0  0  0  0  0  0
  -27.8180  -11.7990   18.0900 C   0  0  0  0  0  2  0  0  0  0  0  0
  -27.6360  -12.7590   19.2930 C   0  0  0  0  0  3  0  0  0  0  0  0
  -28.8060  -12.6270   20.2950 C   0  0  0  0  0  2  0  0  0  0  0  0
  -30.0820  -12.8060   19.5750 N   0  0  0  0  0  0  0  0  0  0  0  0
  -31.7120  -14.2040   18.7990 O   0  0  0  0  0  0  0  0  0  0  0  0
  -30.9200  -14.4430   20.8830 N   0  0  0  0  0  0  0  0  0  0  0  0
  -30.2610  -14.0630   21.5480 H   0  0  0  0  0  0  0  0  0  0  0  0
  -25.3840  -13.4840   20.3120 C   0  0  0  0  0  0  0  0  0  0  0  0
  -24.3290  -12.7620   20.8070 C   0  0  0  0  0  0  0  0  0  0  0  0
  -24.7070  -11.3900   20.7030 C   0  0  0  0  0  0  0  0  0  0  0  0
  -26.3400  -12.5520   19.9400 N   0  0  0  0  0  0  0  0  0  0  0  0
  -25.9420  -11.2870   20.2300 N   0  0  0  0  0  0  0  0  0  0  0  0
  -23.9400  -10.1650   20.9730 C   0  0  0  0  0  0  0  0  0  0  0  0
  -24.3890   -9.2040   21.9050 C   0  0  0  0  0  3  0  0  0  0  0  0
  -23.6280   -8.0440   22.1600 C   0  0  0  0  0  3  0  0  0  0  0  0
  -22.4030   -7.8360   21.4830 C   0  0  0  0  0  0  0  0  0  0  0  0
  -21.9730   -8.7830   20.5390 C   0  0  0  0  0  3  0  0  0  0  0  0
  -22.7350   -9.9360   20.2820 C   0  0  0  0  0  3  0  0  0  0  0  0
  -21.6080   -6.7260   21.6480 O   0  0  0  0  0  0  0  0  0  0  0  0
  -21.5450   -6.0580   22.8450 C   0  0  0  0  0  0  0  0  0  0  0  0
  -21.1380   -6.7000   24.0350 C   0  0  0  0  0  3  0  0  0  0  0  0
  -21.0180   -5.9600   25.2280 C   0  0  0  0  0  3  0  0  0  0  0  0
  -21.2960   -4.5800   25.2330 C   0  0  0  0  0  0  0  0  0  0  0  0
  -21.6970   -3.9390   24.0480 C   0  0  0  0  0  3  0  0  0  0  0  0
  -21.8180   -4.6760   22.8570 C   0  0  0  0  0  0  0  0  0  0  0  0
  -22.1840   -4.0490   21.7120 F   0  0  0  0  0  0  0  0  0  0  0  0
  -21.1750   -3.8670   26.3770 F   0  0  0  0  0  0  0  0  0  0  0  0
  -23.0090  -13.3110   21.2670 C   0  0  0  0  0  0  0  0  0  0  0  0
  -22.3680  -12.6460   22.2230 N   0  0  0  0  0  0  0  0  0  0  0  0
  -22.5580  -14.3610   20.8120 O   0  0  0  0  0  0  0  0  0  0  0  0
  -22.7470  -11.7940   22.6100 H   0  0  0  0  0  0  0  0  0  0  0  0
  -21.4860  -12.9940   22.5720 H   0  0  0  0  0  0  0  0  0  0  0  0
  -25.5980  -14.8460   20.1260 N   0  0  0  0  0  0  0  0  0  0  0  0
  -24.8870  -15.5400   20.3290 H   0  0  0  0  0  0  0  0  0  0  0  0
  -26.4230  -15.2380   19.6890 H   0  0  0  0  0  0  0  0  0  0  0  0
  -27.6250  -22.5080   19.0190 C   0  0  0  0  0  3  0  0  0  0  0  0
  -29.5350  -21.9930   20.0400 C   0  0  0  0  0  3  0  0  0  0  0  0
  -28.8830  -23.0350   19.4460 C   0  0  0  0  0  0  0  0  0  0  0  0
  -27.4840  -21.2370   19.4980 C   0  0  0  0  0  0  0  0  0  0  0  0
  -26.3090  -20.3110   19.3910 C   0  0  0  0  0  1  0  0  0  0  0  0
  -28.6510  -20.9250   20.1830 N   0  0  0  0  0  0  0  0  0  0  0  0
  -29.3510  -24.4790   19.3220 C   0  0  0  0  0  2  0  0  0  0  0  0
  -28.1220  -25.3880   19.2070 C   0  0  0  0  0  2  0  0  0  0  0  0
  -28.2980  -26.7920   19.4120 O   0  0  0  0  0  0  0  0  0  0  0  0
  -24.4910  -31.6060   23.0250 C   0  0  0  0  0  0  0  0  0  0  0  0
  -27.1100  -27.4960   19.4990 C   0  0  0  0  0  0  0  0  0  0  0  0
  -23.2510  -30.2990   21.3360 C   0  0  0  0  0  3  0  0  0  0  0  0
  -24.6770  -28.9290   19.7360 C   0  0  0  0  0  0  0  0  0  0  0  0
  -25.7570  -30.7450   21.0610 C   0  0  0  0  0  2  0  0  0  0  0  0
  -25.8510  -29.4360   20.3080 C   0  0  0  0  0  0  0  0  0  0  0  0
  -27.0700  -28.7300   20.1830 C   0  0  0  0  0  3  0  0  0  0  0  0
  -25.9030  -27.0090   18.9340 C   0  0  0  0  0  3  0  0  0  0  0  0
  -24.6970  -27.7110   19.0510 C   0  0  0  0  0  3  0  0  0  0  0  0
  -23.4170  -29.7480   19.8990 C   0  0  0  0  0  2  0  0  0  0  0  0
  -24.5210  -30.8920   21.8660 N   0  0  0  0  0  0  0  0  0  0  0  0
  -23.4300  -31.8060   23.6290 O   0  0  0  0  0  0  0  0  0  0  0  0
  -22.6800  -29.1800   22.2370 C   0  0  0  0  0  0  0  0  0  0  0  0
  -21.3620  -28.9400   22.1320 N   0  0  0  0  0  0  0  0  0  0  0  0
  -23.4200  -28.5340   22.9850 O   0  0  0  0  0  0  0  0  0  0  0  0
  -20.8240  -29.5200   21.5020 H   0  0  0  0  0  0  0  0  0  0  0  0
  -18.0650  -27.5360   22.6140 C   0  0  0  0  0  0  0  0  0  0  0  0
  -20.6110  -27.9190   22.8650 C   0  0  0  0  0  3  0  0  0  0  0  0
  -20.7820  -26.5310   22.2070 C   0  0  0  0  0  2  0  0  0  0  0  0
  -19.6810  -26.2010   21.1930 C   0  0  0  0  0  2  0  0  0  0  0  0
  -18.3040  -26.2370   21.8620 C   0  0  0  0  0  2  0  0  0  0  0  0
  -19.1490  -28.3330   23.0700 C   0  0  0  0  0  0  0  0  0  0  0  0
  -18.8720  -29.5510   23.7290 C   0  0  0  0  0  3  0  0  0  0  0  0
  -17.5450  -29.9710   23.9400 C   0  0  0  0  0  3  0  0  0  0  0  0
  -16.4780  -29.1680   23.5040 C   0  0  0  0  0  3  0  0  0  0  0  0
  -16.7390  -27.9530   22.8450 C   0  0  0  0  0  3  0  0  0  0  0  0
  -25.7860  -32.2320   23.6300 C   0  0  0  0  0  3  0  0  0  0  0  0
  -25.4620  -33.6030   24.0440 N   0  0  0  0  0  0  0  0  0  0  0  0
  -25.7510  -34.7010   23.3340 C   0  0  0  0  0  0  0  0  0  0  0  0
  -26.3950  -34.6670   22.2830 O   0  0  0  0  0  0  0  0  0  0  0  0
  -24.9070  -33.7010   24.8830 H   0  0  0  0  0  0  0  0  0  0  0  0
  -23.9840  -36.4750   23.1110 C   0  0  0  0  0  1  0  0  0  0  0  0
  -25.2470  -36.0530   23.8800 C   0  0  0  0  0  3  0  0  0  0  0  0
  -27.3790  -36.9290   24.7240 C   0  0  0  0  0  1  0  0  0  0  0  0
  -26.2570  -37.1280   23.8100 N   0  0  0  0  0  0  0  0  0  0  0  0
  -25.8370  -38.0310   24.0190 H   0  0  0  0  0  0  0  0  0  0  0  0
  -26.3710  -31.4060   24.8400 C   0  0  1  0  0  0  0  0  0  0  0  0
  -25.3340  -31.0780   25.9400 C   0  0  0  0  0  1  0  0  0  0  0  0
  -26.9700  -30.0700   24.3470 C   0  0  0  0  0  1  0  0  0  0  0  0
  -27.5350  -32.1910   25.4970 C   0  0  0  0  0  1  0  0  0  0  0  0
  2  3  1  0
  4  2  1  0
  5  1  1  0
  5  6  1  0
  6  3  1  0
  7 10  1  0
  7  5  1  0
  7  4  1  0
  8  6  1  0
  7  9  1  6
 11 12  1  0
 11 10  1  0
 13 21  1  0
 14 19  1  0
 15 16  1  0
 15 14  1  0
 17 16  1  0
 17 26  1  0
 17 18  1  0
 19 13  1  0
 19 18  1  0
 20 13  2  0
 21 12  1  0
 21 22  1  0
 23 24  2  0
 24 43  1  0
 25 24  1  0
 25 28  1  0
 26 27  1  0
 26 23  1  0
 27 25  2  0
 28 29  1  0
 29 30  2  0
 31 34  1  0
 31 30  1  0
 32 31  2  0
 33 32  1  0
 33 28  2  0
 34 35  1  0
 35 40  2  0
 35 36  1  0
 36 37  2  0
 37 38  1  0
 38 42  1  0
 39 38  2  0
 40 39  1  0
 41 40  1  0
 43 44  1  0
 44 47  1  0
 44 46  1  0
 45 43  2  0
 48 23  1  0
 48 49  1  0
 50 48  1  0
 51 53  1  0
 51 54  2  0
 52 56  1  0
 53 52  2  0
 54 56  1  0
 55 54  1  0
 56  1  1  0
 57 53  1  0
 58 57  1  0
 58 59  1  0
 59 61  1  0
 60 71  2  0
 61 66  1  0
 62 70  1  0
 62 72  1  0
 63 69  1  0
 63 65  1  0
 64 70  1  0
 65 64  1  0
 66 65  2  0
 67 68  1  0
 67 61  2  0
 68 63  2  0
 69 62  1  0
 70 60  1  0
 72 74  2  0
 73 72  1  0
 75 73  1  0
 76 85  2  0
 76 81  1  0
 77 73  1  0
 77 81  1  0
 78 77  1  0
 79 80  1  0
 79 78  1  0
 80 76  1  0
 81 82  2  0
 82 83  1  0
 84 83  2  0
 85 84  1  0
 86 60  1  0
 86 87  1  0
 86 96  1  0
 87 90  1  0
 88 92  1  0
 88 87  1  0
 89 88  2  0
 92 91  1  0
 94 92  1  0
 94 95  1  0
 94 93  1  0
 96 99  1  1
 96 97  1  0
 98 96  1  0
M  ISO  4  13 100  21 100  58 101  59 101
M  END
>  <TORSDO>  (80) 
F 23

>  <SCORE>  (80) 
-9.950

>  <name>  (80) 
79

>  <ligand_id>  (80) 
79

>  <original_smiles>  (80) 
[H]c1c([H])c([H])c2c(c1[H])C([H])([H])C([H])([H])C([H])([H])C2([H])N([H])C(=O)C1([H])N(C(=O)C([H])(N([H])C(=O)C([H])(N([H])C([H])([H])[H])C([H])([H])[H])C(C([H])([H])[H])(C([H])([H])[H])C([H])([H])[H])C([H])([H])c2c([H])c(OC([H])([H])C([H])([H])c3c([H])c(C([H])([H])[H])n(C([H])([H])C4([H])N([H])C([H])([H])C([H])([H])C([H])([H])[N+]4([H])C([H])([H])C([H])([H])C([H])([H])N([H])C(=O)N4C([H])([H])C([H])([H])C([H])([H])C([H])(n5nc(-c6c([H])c([H])c(Oc7c([H])c([H])c(F)c([H])c7F)c([H])c6[H])c(C(=O)N([H])[H])c5N([H])[H])C4([H])[H])c3[H])c([H])c([H])c2C1([H])[H]

>  <smiles>  (80) 
[H]c1c([H])c([H])c2c(c1[H])C([H])([H])C([H])([H])C([H])([H])C2([H])N([H])C(=O)C1([H])N(C(=O)C([H])(N([H])C(=O)C([H])(N([H])C([H])([H])[H])C([H])([H])[H])C(C([H])([H])[H])(C([H])([H])[H])C([H])([H])[H])C([H])([H])c2c([H])c(OC([H])([H])C([H])([H])c3c([H])c(C([H])([H])[H])n(C([H])([H])C4([H])N([H])C([H])([H])C([H])([H])C([H])([H])[N+]4([H])C([H])([H])C([H])([H])C([H])([H])N([H])C(=O)N4C([H])([H])C([H])([H])C([H])([H])C([H])(n5nc(-c6c([H])c([H])c(Oc7c([H])c([H])c(F)c([H])c7F)c([H])c6[H])c(C(=O)N([H])[H])c5N([H])[H])C4([H])[H])c3[H])c([H])c([H])c2C1([H])[H]

$$$$
80:0:0
     RDKit          3D

 92100  0  0  1  0  0  0  0  0999 V2000
  -30.3220  -22.8400   21.5560 C   0  0  0  0  0  2  0  0  0  0  0  0
  -28.4700  -22.4330   20.6960 C   0  0  0  0  0  2  0  0  0  0  0  0
  -29.8160  -21.6850   20.6630 C   0  0  0  0  0  3  0  0  0  0  0  0
  -29.2140  -23.7560   20.9820 C   0  0  0  0  0  3  0  0  0  0  0  0
  -27.0680  -24.7290   22.0380 C   0  0  0  0  0  1  0  0  0  0  0  0
  -28.5880  -24.8780   21.8560 C   0  0  0  0  0  3  0  0  0  0  0  0
  -28.9780  -26.3320   21.4360 C   0  0  0  0  0  2  0  0  0  0  0  0
  -28.4310  -26.7550   20.1770 O   0  0  0  0  0  0  0  0  0  0  0  0
  -24.5110  -31.9000   23.2560 C   0  0  0  0  0  0  0  0  0  0  0  0
  -27.2830  -27.5210   20.2060 C   0  0  0  0  0  0  0  0  0  0  0  0
  -23.3610  -30.5020   21.5680 C   0  0  0  0  0  3  0  0  0  0  0  0
  -24.8700  -28.9960   20.1630 C   0  0  0  0  0  0  0  0  0  0  0  0
  -25.8820  -30.8930   21.4350 C   0  0  0  0  0  2  0  0  0  0  0  0
  -26.0040  -29.5260   20.7930 C   0  0  0  0  0  0  0  0  0  0  0  0
  -27.2140  -28.7930   20.8240 C   0  0  0  0  0  3  0  0  0  0  0  0
  -26.1450  -27.0190   19.5460 C   0  0  0  0  0  3  0  0  0  0  0  0
  -24.9330  -27.7390   19.5370 C   0  0  0  0  0  3  0  0  0  0  0  0
  -23.6130  -29.8360   20.1870 C   0  0  0  0  0  2  0  0  0  0  0  0
  -24.6010  -31.1120   22.1460 N   0  0  0  0  0  0  0  0  0  0  0  0
  -23.4150  -32.1540   23.7720 O   0  0  0  0  0  0  0  0  0  0  0  0
  -22.6970  -29.4650   22.5020 C   0  0  0  0  0  0  0  0  0  0  0  0
  -21.3750  -29.2870   22.3540 N   0  0  0  0  0  0  0  0  0  0  0  0
  -23.3720  -28.8270   23.3160 O   0  0  0  0  0  0  0  0  0  0  0  0
  -20.8950  -29.8520   21.6660 H   0  0  0  0  0  0  0  0  0  0  0  0
  -17.9880  -28.1160   22.8190 C   0  0  0  0  0  0  0  0  0  0  0  0
  -20.5480  -28.3370   23.0970 C   0  0  0  0  0  3  0  0  0  0  0  0
  -20.6360  -26.9240   22.4790 C   0  0  0  0  0  2  0  0  0  0  0  0
  -19.5310  -26.6420   21.4560 C   0  0  0  0  0  2  0  0  0  0  0  0
  -18.1500  -26.7850   22.1040 C   0  0  0  0  0  2  0  0  0  0  0  0
  -19.1150  -28.8520   23.2710 C   0  0  0  0  0  0  0  0  0  0  0  0
  -18.9120  -30.0990   23.8990 C   0  0  0  0  0  3  0  0  0  0  0  0
  -17.6150  -30.6110   24.0820 C   0  0  0  0  0  3  0  0  0  0  0  0
  -16.5000  -29.8710   23.6460 C   0  0  0  0  0  3  0  0  0  0  0  0
  -16.6880  -28.6250   23.0200 C   0  0  0  0  0  3  0  0  0  0  0  0
  -25.7760  -32.5370   23.9110 C   0  0  0  0  0  3  0  0  0  0  0  0
  -25.4470  -33.9300   24.2390 N   0  0  0  0  0  0  0  0  0  0  0  0
  -25.8040  -34.9880   23.4970 C   0  0  0  0  0  0  0  0  0  0  0  0
  -26.5130  -34.8930   22.4910 O   0  0  0  0  0  0  0  0  0  0  0  0
  -24.8230  -34.0780   25.0200 H   0  0  0  0  0  0  0  0  0  0  0  0
  -24.0930  -36.7830   23.0790 C   0  0  0  0  0  1  0  0  0  0  0  0
  -25.2970  -36.3720   23.9430 C   0  0  0  0  0  3  0  0  0  0  0  0
  -27.3900  -37.2470   24.8790 C   0  0  0  0  0  1  0  0  0  0  0  0
  -26.3330  -37.4250   23.8870 N   0  0  0  0  0  0  0  0  0  0  0  0
  -25.9230  -38.3450   24.0260 H   0  0  0  0  0  0  0  0  0  0  0  0
  -26.2710  -31.7580   25.1910 C   0  0  1  0  0  0  0  0  0  0  0  0
  -25.1530  -31.4820   26.2230 C   0  0  0  0  0  1  0  0  0  0  0  0
  -26.8890  -30.3960   24.7970 C   0  0  0  0  0  1  0  0  0  0  0  0
  -27.3930  -32.5630   25.8920 C   0  0  0  0  0  1  0  0  0  0  0  0
  -29.8990  -20.2020   21.1110 C   0  0  0  0  0  2  0  0  0  0  0  0
  -29.5120  -19.2790   20.0090 N   0  0  0  0  0  4  0  0  0  0  0  0
  -30.1680  -19.3730   19.2520 H   0  0  0  0  0  0  0  0  0  0  0  0
  -28.6260  -19.6120   19.6650 H   0  0  0  0  0  0  0  0  0  0  0  0
  -29.3140  -17.8320   20.3180 C   0  0  0  0  0  2  0  0  0  0  0  0
  -30.6100  -16.9750   20.2590 C   0  0  0  0  0  2  0  0  0  0  0  0
  -30.9530  -14.5390   19.9510 C   0  0  0  0  0  0  0  0  0  0  0  0
  -30.5620  -12.3590   18.8350 C   0  0  0  0  0  2  0  0  0  0  0  0
  -29.5750  -12.4890   17.6570 C   0  0  0  0  0  2  0  0  0  0  0  0
  -28.1220  -12.3570   18.1480 C   0  0  0  0  0  2  0  0  0  0  0  0
  -27.8300  -13.2660   19.3700 C   0  0  0  0  0  3  0  0  0  0  0  0
  -28.9160  -13.1040   20.4500 C   0  0  0  0  0  2  0  0  0  0  0  0
  -30.2300  -13.3840   19.8450 N   0  0  0  0  0  0  0  0  0  0  0  0
  -31.9760  -14.7210   19.2810 O   0  0  0  0  0  0  0  0  0  0  0  0
  -30.3650  -15.4300   22.1500 C   0  0  0  0  0  1  0  0  0  0  0  0
  -30.4200  -15.5610   20.6860 N   0  0  0  0  0  0  0  0  0  0  0  0
  -25.4910  -13.9250   20.2180 C   0  0  0  0  0  0  0  0  0  0  0  0
  -24.4310  -13.1770   20.6500 C   0  0  0  0  0  0  0  0  0  0  0  0
  -24.8600  -11.8160   20.5920 C   0  0  0  0  0  0  0  0  0  0  0  0
  -26.5000  -13.0210   19.9220 N   0  0  0  0  0  0  0  0  0  0  0  0
  -26.1280  -11.7480   20.2080 N   0  0  0  0  0  0  0  0  0  0  0  0
  -24.1200  -10.5690   20.8250 C   0  0  0  0  0  0  0  0  0  0  0  0
  -24.5360   -9.6380   21.8020 C   0  0  0  0  0  3  0  0  0  0  0  0
  -23.8010   -8.4520   22.0190 C   0  0  0  0  0  3  0  0  0  0  0  0
  -22.6350   -8.1920   21.2590 C   0  0  0  0  0  0  0  0  0  0  0  0
  -22.2400   -9.1130   20.2730 C   0  0  0  0  0  3  0  0  0  0  0  0
  -22.9750  -10.2890   20.0560 C   0  0  0  0  0  3  0  0  0  0  0  0
  -21.8730   -7.0560   21.3820 O   0  0  0  0  0  0  0  0  0  0  0  0
  -21.7460   -6.4000   22.5800 C   0  0  0  0  0  0  0  0  0  0  0  0
  -21.2430   -7.0420   23.7320 C   0  0  0  0  0  3  0  0  0  0  0  0
  -21.0620   -6.3120   24.9240 C   0  0  0  0  0  3  0  0  0  0  0  0
  -21.3760   -4.9400   24.9640 C   0  0  0  0  0  0  0  0  0  0  0  0
  -21.8720   -4.2980   23.8150 C   0  0  0  0  0  3  0  0  0  0  0  0
  -22.0530   -5.0250   22.6260 C   0  0  0  0  0  0  0  0  0  0  0  0
  -22.5110   -4.3960   21.5180 F   0  0  0  0  0  0  0  0  0  0  0  0
  -21.1960   -4.2370   26.1060 F   0  0  0  0  0  0  0  0  0  0  0  0
  -23.0600  -13.6810   20.9980 C   0  0  0  0  0  0  0  0  0  0  0  0
  -22.3740  -13.0110   21.9150 N   0  0  0  0  0  0  0  0  0  0  0  0
  -22.6110  -14.7090   20.4900 O   0  0  0  0  0  0  0  0  0  0  0  0
  -22.7500  -12.1780   22.3430 H   0  0  0  0  0  0  0  0  0  0  0  0
  -21.4550  -13.3320   22.1870 H   0  0  0  0  0  0  0  0  0  0  0  0
  -25.6780  -15.2920   20.0340 N   0  0  0  0  0  0  0  0  0  0  0  0
  -24.9290  -15.9620   20.1790 H   0  0  0  0  0  0  0  0  0  0  0  0
  -26.5080  -15.7040   19.6290 H   0  0  0  0  0  0  0  0  0  0  0  0
  2  4  1  0
  3  2  1  0
  3 49  1  0
  3  1  1  0
  4  1  1  0
  4  6  1  0
  6  5  1  0
  7  6  1  0
  8 10  1  0
  8  7  1  0
  9 20  2  0
 10 15  1  0
 11 19  1  0
 11 21  1  0
 12 18  1  0
 12 14  1  0
 13 19  1  0
 14 15  2  0
 14 13  1  0
 16 10  2  0
 17 16  1  0
 17 12  2  0
 18 11  1  0
 19  9  1  0
 21 23  2  0
 22 21  1  0
 24 22  1  0
 25 34  2  0
 25 30  1  0
 26 22  1  0
 26 30  1  0
 27 26  1  0
 28 29  1  0
 28 27  1  0
 29 25  1  0
 30 31  2  0
 31 32  1  0
 33 32  2  0
 34 33  1  0
 35  9  1  0
 35 36  1  0
 35 45  1  0
 36 39  1  0
 37 41  1  0
 37 36  1  0
 38 37  2  0
 41 40  1  0
 43 41  1  0
 43 44  1  0
 43 42  1  0
 45 48  1  1
 45 46  1  0
 47 45  1  0
 50 53  1  0
 50 49  1  0
 51 50  1  0
 52 50  1  0
 54 53  1  0
 54 64  1  0
 55 64  1  0
 56 61  1  0
 57 58  1  0
 57 56  1  0
 59 58  1  0
 59 68  1  0
 59 60  1  0
 61 55  1  0
 61 60  1  0
 62 55  2  0
 64 63  1  0
 65 66  2  0
 66 85  1  0
 67 66  1  0
 67 70  1  0
 68 69  1  0
 68 65  1  0
 69 67  2  0
 70 71  1  0
 71 72  2  0
 73 76  1  0
 73 72  1  0
 74 73  2  0
 75 74  1  0
 75 70  2  0
 76 77  1  0
 77 82  2  0
 77 78  1  0
 78 79  2  0
 79 80  1  0
 80 84  1  0
 81 80  2  0
 82 81  1  0
 83 82  1  0
 85 86  1  0
 86 89  1  0
 86 88  1  0
 87 85  2  0
 90 91  1  0
 90 65  1  0
 92 90  1  0
M  ISO  4   7 101   8 101  55 100  64 100
M  END
>  <TORSDO>  (81) 
F 22

>  <SCORE>  (81) 
-12.431

>  <name>  (81) 
80

>  <ligand_id>  (81) 
80

>  <original_smiles>  (81) 
[H]c1c([H])c([H])c2c(c1[H])C([H])([H])C([H])([H])C([H])([H])C2([H])N([H])C(=O)C1([H])N(C(=O)C([H])(N([H])C(=O)C([H])(N([H])C([H])([H])[H])C([H])([H])[H])C(C([H])([H])[H])(C([H])([H])[H])C([H])([H])[H])C([H])([H])c2c([H])c(OC([H])([H])C([H])(C([H])([H])[H])C3([H])C([H])([H])C([H])(C([H])([H])[N+]([H])([H])C([H])([H])C([H])([H])N(C(=O)N4C([H])([H])C([H])([H])C([H])([H])C([H])(n5nc(-c6c([H])c([H])c(Oc7c([H])c([H])c(F)c([H])c7F)c([H])c6[H])c(C(=O)N([H])[H])c5N([H])[H])C4([H])[H])C([H])([H])[H])C3([H])[H])c([H])c([H])c2C1([H])[H]

>  <smiles>  (81) 
[H]c1c([H])c([H])c2c(c1[H])C([H])([H])C([H])([H])C([H])([H])C2([H])N([H])C(=O)C1([H])N(C(=O)C([H])(N([H])C(=O)C([H])(N([H])C([H])([H])[H])C([H])([H])[H])C(C([H])([H])[H])(C([H])([H])[H])C([H])([H])[H])C([H])([H])c2c([H])c(OC([H])([H])C([H])(C([H])([H])[H])C3([H])C([H])([H])C([H])(C([H])([H])[N+]([H])([H])C([H])([H])C([H])([H])N(C(=O)N4C([H])([H])C([H])([H])C([H])([H])C([H])(n5nc(-c6c([H])c([H])c(Oc7c([H])c([H])c(F)c([H])c7F)c([H])c6[H])c(C(=O)N([H])[H])c5N([H])[H])C4([H])[H])C([H])([H])[H])C3([H])[H])c([H])c([H])c2C1([H])[H]

$$$$
81:0:0
     RDKit          3D

 95104  0  0  1  0  0  0  0  0999 V2000
  -30.1680  -23.8270   20.2680 C   0  0  0  0  0  3  0  0  0  0  0  0
  -30.6840  -22.5350   20.5930 C   0  0  0  0  0  3  0  0  0  0  0  0
  -28.8220  -23.9660   19.8600 C   0  0  0  0  0  0  0  0  0  0  0  0
  -28.0700  -22.7370   19.8350 C   0  0  0  0  0  0  0  0  0  0  0  0
  -29.8740  -21.3780   20.5060 C   0  0  0  0  0  0  0  0  0  0  0  0
  -28.5880  -21.5080   20.1500 N   0  0  0  0  0  0  0  0  0  0  0  0
  -30.3890  -20.0730   20.7720 N   0  0  0  0  0  0  0  0  0  0  0  0
  -31.3680  -20.0150   21.0310 H   0  0  0  0  0  0  0  0  0  0  0  0
  -26.6420  -22.6910   19.3920 C   0  0  0  0  0  0  0  0  0  0  0  0
  -26.2820  -22.6520   18.2080 O   0  0  0  0  0  0  0  0  0  0  0  0
  -25.4090  -23.9620   21.2830 C   0  0  0  0  0  2  0  0  0  0  0  0
  -24.3590  -23.5080   20.3020 C   0  0  0  0  0  2  0  0  0  0  0  0
  -25.6150  -22.6820   20.4950 C   0  0  0  0  0  3  0  0  0  0  0  0
  -28.1630  -25.2990   19.3260 C   0  0  0  0  0  2  0  0  0  0  0  0
  -28.4910  -26.7040   19.6780 O   0  0  0  0  0  0  0  0  0  0  0  0
  -24.5190  -31.7250   23.0780 C   0  0  0  0  0  0  0  0  0  0  0  0
  -27.3600  -27.5610   19.6630 C   0  0  0  0  0  0  0  0  0  0  0  0
  -23.3850  -30.3880   21.3450 C   0  0  0  0  0  3  0  0  0  0  0  0
  -24.9100  -29.0540   19.7960 C   0  0  0  0  0  0  0  0  0  0  0  0
  -25.9070  -30.8580   21.1830 C   0  0  0  0  0  2  0  0  0  0  0  0
  -26.0600  -29.5440   20.4300 C   0  0  0  0  0  0  0  0  0  0  0  0
  -27.2850  -28.8070   20.3660 C   0  0  0  0  0  3  0  0  0  0  0  0
  -26.1800  -27.1630   18.9780 C   0  0  0  0  0  3  0  0  0  0  0  0
  -24.9740  -27.8680   19.0630 C   0  0  0  0  0  3  0  0  0  0  0  0
  -23.6260  -29.8450   19.9170 C   0  0  0  0  0  2  0  0  0  0  0  0
  -24.6220  -31.0030   21.9250 N   0  0  0  0  0  0  0  0  0  0  0  0
  -23.4240  -31.9000   23.6320 O   0  0  0  0  0  0  0  0  0  0  0  0
  -22.7910  -29.2590   22.2220 C   0  0  0  0  0  0  0  0  0  0  0  0
  -21.4710  -29.0320   22.1050 N   0  0  0  0  0  0  0  0  0  0  0  0
  -23.5140  -28.5970   22.9720 O   0  0  0  0  0  0  0  0  0  0  0  0
  -20.9440  -29.6220   21.4770 H   0  0  0  0  0  0  0  0  0  0  0  0
  -18.1570  -27.6600   22.5780 C   0  0  0  0  0  0  0  0  0  0  0  0
  -20.7100  -27.9970   22.8090 C   0  0  0  0  0  3  0  0  0  0  0  0
  -20.8500  -26.6260   22.1070 C   0  0  0  0  0  2  0  0  0  0  0  0
  -19.7340  -26.3480   21.0960 C   0  0  0  0  0  2  0  0  0  0  0  0
  -18.3660  -26.3820   21.7840 C   0  0  0  0  0  2  0  0  0  0  0  0
  -19.2570  -28.4270   23.0450 C   0  0  0  0  0  0  0  0  0  0  0  0
  -19.0060  -29.6250   23.7490 C   0  0  0  0  0  3  0  0  0  0  0  0
  -17.6880  -30.0550   23.9900 C   0  0  0  0  0  3  0  0  0  0  0  0
  -16.6030  -29.2840   23.5390 C   0  0  0  0  0  3  0  0  0  0  0  0
  -16.8380  -28.0890   22.8370 C   0  0  0  0  0  3  0  0  0  0  0  0
  -25.7660  -32.3830   23.7420 C   0  0  0  0  0  3  0  0  0  0  0  0
  -25.4020  -33.7620   24.0980 N   0  0  0  0  0  0  0  0  0  0  0  0
  -25.6980  -34.8410   23.3620 C   0  0  0  0  0  0  0  0  0  0  0  0
  -26.3770  -34.7830   22.3330 O   0  0  0  0  0  0  0  0  0  0  0  0
  -24.8000  -33.8780   24.8990 H   0  0  0  0  0  0  0  0  0  0  0  0
  -23.8900  -36.5640   23.0520 C   0  0  0  0  0  1  0  0  0  0  0  0
  -25.1570  -36.2000   23.8450 C   0  0  0  0  0  3  0  0  0  0  0  0
  -27.2600  -37.1640   24.6680 C   0  0  0  0  0  1  0  0  0  0  0  0
  -26.1430  -37.2970   23.7380 N   0  0  0  0  0  0  0  0  0  0  0  0
  -25.6990  -38.1970   23.9020 H   0  0  0  0  0  0  0  0  0  0  0  0
  -26.2800  -31.5970   25.0100 C   0  0  1  0  0  0  0  0  0  0  0  0
  -25.1740  -31.3090   26.0540 C   0  0  0  0  0  1  0  0  0  0  0  0
  -26.9040  -30.2430   24.6010 C   0  0  0  0  0  1  0  0  0  0  0  0
  -27.3990  -32.4070   25.7070 C   0  0  0  0  0  1  0  0  0  0  0  0
  -29.6690  -18.7690   20.6360 C   0  0  0  0  0  2  0  0  0  0  0  0
  -30.6100  -17.4880   20.7440 C   0  0  0  0  0  2  0  0  0  0  0  0
  -30.6830  -14.9600   20.4410 C   0  0  0  0  0  0  0  0  0  0  0  0
  -30.3950  -12.7470   19.3530 C   0  0  0  0  0  2  0  0  0  0  0  0
  -29.4720  -12.8860   18.1250 C   0  0  0  0  0  2  0  0  0  0  0  0
  -27.9980  -12.7260   18.5430 C   0  0  0  0  0  2  0  0  0  0  0  0
  -27.6280  -13.5930   19.7760 C   0  0  0  0  0  3  0  0  0  0  0  0
  -28.6770  -13.4640   20.9050 C   0  0  0  0  0  2  0  0  0  0  0  0
  -29.9920  -13.7810   20.3300 N   0  0  0  0  0  0  0  0  0  0  0  0
  -31.8580  -15.0360   20.0780 O   0  0  0  0  0  0  0  0  0  0  0  0
  -30.0060  -16.1060   20.7640 N   0  0  0  0  0  0  0  0  0  0  0  0
  -29.0310  -16.0180   21.0080 H   0  0  0  0  0  0  0  0  0  0  0  0
  -25.2190  -14.1770   20.4480 C   0  0  0  0  0  0  0  0  0  0  0  0
  -24.1520  -13.4000   20.8090 C   0  0  0  0  0  0  0  0  0  0  0  0
  -24.6260  -12.0520   20.8050 C   0  0  0  0  0  0  0  0  0  0  0  0
  -26.2760  -13.3040   20.2460 N   0  0  0  0  0  0  0  0  0  0  0  0
  -25.9230  -12.0210   20.5210 N   0  0  0  0  0  0  0  0  0  0  0  0
  -23.9050  -10.7860   20.9970 C   0  0  0  0  0  0  0  0  0  0  0  0
  -24.3390   -9.8240   21.9370 C   0  0  0  0  0  3  0  0  0  0  0  0
  -23.6190   -8.6240   22.1170 C   0  0  0  0  0  3  0  0  0  0  0  0
  -22.4510   -8.3770   21.3580 C   0  0  0  0  0  0  0  0  0  0  0  0
  -22.0360   -9.3260   20.4080 C   0  0  0  0  0  3  0  0  0  0  0  0
  -22.7560  -10.5190   20.2260 C   0  0  0  0  0  3  0  0  0  0  0  0
  -21.7010   -7.2280   21.4490 O   0  0  0  0  0  0  0  0  0  0  0  0
  -21.6650   -6.4810   22.5980 C   0  0  0  0  0  0  0  0  0  0  0  0
  -21.2630   -7.0330   23.8340 C   0  0  0  0  0  3  0  0  0  0  0  0
  -21.1750   -6.2120   24.9760 C   0  0  0  0  0  3  0  0  0  0  0  0
  -21.4780   -4.8410   24.8830 C   0  0  0  0  0  0  0  0  0  0  0  0
  -21.8720   -4.2870   23.6520 C   0  0  0  0  0  3  0  0  0  0  0  0
  -21.9630   -5.1050   22.5130 C   0  0  0  0  0  0  0  0  0  0  0  0
  -22.3230   -4.5630   21.3240 F   0  0  0  0  0  0  0  0  0  0  0  0
  -21.3840   -4.0500   25.9790 F   0  0  0  0  0  0  0  0  0  0  0  0
  -22.7460  -13.8690   21.0490 C   0  0  0  0  0  0  0  0  0  0  0  0
  -22.0180  -13.1950   21.9330 N   0  0  0  0  0  0  0  0  0  0  0  0
  -22.3020  -14.8710   20.4890 O   0  0  0  0  0  0  0  0  0  0  0  0
  -22.3900  -12.3860   22.4080 H   0  0  0  0  0  0  0  0  0  0  0  0
  -21.0750  -13.4930   22.1380 H   0  0  0  0  0  0  0  0  0  0  0  0
  -25.3750  -15.5460   20.2520 N   0  0  0  0  0  0  0  0  0  0  0  0
  -24.5990  -16.1950   20.3290 H   0  0  0  0  0  0  0  0  0  0  0  0
  -26.2240  -15.9830   19.9150 H   0  0  0  0  0  0  0  0  0  0  0  0
  1  2  1  0
  3  1  2  0
  4  3  1  0
  4  6  2  0
  5  2  2  0
  5  7  1  0
  6  5  1  0
  7  8  1  0
  9  4  1  0
  9 13  1  0
 10  9  2  0
 12 13  1  0
 12 11  1  0
 13 11  1  0
 14 15  1  0
 14  3  1  0
 16 27  2  0
 17 15  1  0
 17 22  1  0
 18 26  1  0
 18 28  1  0
 19 25  1  0
 19 21  1  0
 20 26  1  0
 21 20  1  0
 22 21  2  0
 23 24  1  0
 23 17  2  0
 24 19  2  0
 25 18  1  0
 26 16  1  0
 28 30  2  0
 29 28  1  0
 31 29  1  0
 32 41  2  0
 32 37  1  0
 33 29  1  0
 33 37  1  0
 34 33  1  0
 35 36  1  0
 35 34  1  0
 36 32  1  0
 37 38  2  0
 38 39  1  0
 40 39  2  0
 41 40  1  0
 42 16  1  0
 42 43  1  0
 42 52  1  0
 43 46  1  0
 44 48  1  0
 44 43  1  0
 45 44  2  0
 48 47  1  0
 50 48  1  0
 50 51  1  0
 50 49  1  0
 52 55  1  1
 52 53  1  0
 54 52  1  0
 56 57  1  0
 56  7  1  0
 57 66  1  0
 58 66  1  0
 59 64  1  0
 60 61  1  0
 60 59  1  0
 62 61  1  0
 62 71  1  0
 62 63  1  0
 64 58  1  0
 64 63  1  0
 65 58  2  0
 66 67  1  0
 68 69  2  0
 69 88  1  0
 70 69  1  0
 70 73  1  0
 71 68  1  0
 71 72  1  0
 72 70  2  0
 73 74  1  0
 74 75  2  0
 76 79  1  0
 76 75  1  0
 77 76  2  0
 78 77  1  0
 78 73  2  0
 79 80  1  0
 80 81  1  0
 81 82  2  0
 83 82  1  0
 83 87  1  0
 84 83  2  0
 85 80  2  0
 85 84  1  0
 86 85  1  0
 88 89  1  0
 89 92  1  0
 89 91  1  0
 90 88  2  0
 93 94  1  0
 93 68  1  0
 95 93  1  0
M  ISO  4  14 101  15 101  58 100  66 100
M  END
>  <TORSDO>  (82) 
F 21

>  <SCORE>  (82) 
-12.975

>  <name>  (82) 
81

>  <ligand_id>  (82) 
81

>  <original_smiles>  (82) 
[H]c1c(N([H])C([H])([H])C([H])([H])N([H])C(=O)N2C([H])([H])C([H])([H])C([H])([H])C([H])(n3nc(-c4c([H])c([H])c(Oc5c([H])c([H])c(F)c([H])c5F)c([H])c4[H])c(C(=O)N([H])[H])c3N([H])[H])C2([H])[H])nc(C(=O)C2([H])C([H])([H])C2([H])[H])c(C([H])([H])Oc2c([H])c([H])c3c(c2[H])C([H])([H])N(C(=O)C([H])(N([H])C(=O)C([H])(N([H])C([H])([H])[H])C([H])([H])[H])C(C([H])([H])[H])(C([H])([H])[H])C([H])([H])[H])C([H])(C(=O)N([H])C2([H])c4c([H])c([H])c([H])c([H])c4C([H])([H])C([H])([H])C2([H])[H])C3([H])[H])c1[H]

>  <smiles>  (82) 
[H]c1c(N([H])C([H])([H])C([H])([H])N([H])C(=O)N2C([H])([H])C([H])([H])C([H])([H])C([H])(n3nc(-c4c([H])c([H])c(Oc5c([H])c([H])c(F)c([H])c5F)c([H])c4[H])c(C(=O)N([H])[H])c3N([H])[H])C2([H])[H])nc(C(=O)C2([H])C([H])([H])C2([H])[H])c(C([H])([H])Oc2c([H])c([H])c3c(c2[H])C([H])([H])N(C(=O)C([H])(N([H])C(=O)C([H])(N([H])C([H])([H])[H])C([H])([H])[H])C(C([H])([H])[H])(C([H])([H])[H])C([H])([H])[H])C([H])(C(=O)N([H])C2([H])c4c([H])c([H])c([H])c([H])c4C([H])([H])C([H])([H])C2([H])[H])C3([H])[H])c1[H]

$$$$
82:0:0
     RDKit          3D

 96105  0  0  1  0  0  0  0  0999 V2000
  -27.6000  -22.0970   20.6910 C   0  0  0  0  0  3  0  0  0  0  0  0
  -29.5950  -22.5910   19.3900 C   0  0  0  0  0  3  0  0  0  0  0  0
  -27.5640  -23.4340   21.1410 C   0  0  0  0  0  3  0  0  0  0  0  0
  -29.5590  -23.9270   19.8400 C   0  0  0  0  0  3  0  0  0  0  0  0
  -28.6120  -21.6610   19.8070 C   0  0  0  0  0  0  0  0  0  0  0  0
  -28.5390  -24.3600   20.7130 C   0  0  0  0  0  0  0  0  0  0  0  0
  -29.6800  -19.8490   17.0880 C   0  0  0  0  0  2  0  0  0  0  0  0
  -28.3470  -20.2280   17.7320 C   0  0  0  0  0  2  0  0  0  0  0  0
  -30.2960  -18.8760   18.0870 C   0  0  0  0  0  2  0  0  0  0  0  0
  -28.5900  -20.2290   19.2540 C   0  0  0  0  0  3  0  0  0  0  0  0
  -29.9020  -19.4160   19.4770 C   0  0  0  0  0  3  0  0  0  0  0  0
  -29.7690  -18.3290   20.4840 N   0  0  0  0  0  4  0  0  0  0  0  0
  -29.1190  -17.6380   20.1480 H   0  0  0  0  0  0  0  0  0  0  0  0
  -29.3840  -18.7290   21.3250 H   0  0  0  0  0  0  0  0  0  0  0  0
  -31.0450  -17.6640   20.8400 C   0  0  0  0  0  2  0  0  0  0  0  0
  -30.8740  -16.4860   21.8300 C   0  0  0  0  0  2  0  0  0  0  0  0
  -30.7040  -14.4320   20.4200 C   0  0  0  0  0  0  0  0  0  0  0  0
  -30.3120  -12.3580   19.1400 C   0  0  0  0  0  2  0  0  0  0  0  0
  -29.3420  -12.6170   17.9710 C   0  0  0  0  0  2  0  0  0  0  0  0
  -27.8780  -12.4800   18.4350 C   0  0  0  0  0  2  0  0  0  0  0  0
  -27.5850  -13.2810   19.7310 C   0  0  0  0  0  3  0  0  0  0  0  0
  -28.6600  -13.0000   20.8040 C   0  0  0  0  0  2  0  0  0  0  0  0
  -29.9790  -13.3000   20.2190 N   0  0  0  0  0  0  0  0  0  0  0  0
  -31.7630  -14.6710   19.8370 O   0  0  0  0  0  0  0  0  0  0  0  0
  -30.1790  -15.3130   21.2860 N   0  0  0  0  0  0  0  0  0  0  0  0
  -29.3070  -15.0450   21.7200 H   0  0  0  0  0  0  0  0  0  0  0  0
  -25.2030  -13.8990   20.4870 C   0  0  0  0  0  0  0  0  0  0  0  0
  -24.1380  -13.1300   20.8740 C   0  0  0  0  0  0  0  0  0  0  0  0
  -24.5910  -11.7770   20.8280 C   0  0  0  0  0  0  0  0  0  0  0  0
  -26.2390  -13.0130   20.2330 N   0  0  0  0  0  0  0  0  0  0  0  0
  -25.8740  -11.7320   20.4940 N   0  0  0  0  0  0  0  0  0  0  0  0
  -23.8630  -10.5180   21.0270 C   0  0  0  0  0  0  0  0  0  0  0  0
  -24.3170   -9.5390   21.9380 C   0  0  0  0  0  3  0  0  0  0  0  0
  -23.5900   -8.3430   22.1260 C   0  0  0  0  0  3  0  0  0  0  0  0
  -22.3950   -8.1200   21.4030 C   0  0  0  0  0  0  0  0  0  0  0  0
  -21.9580   -9.0860   20.4810 C   0  0  0  0  0  3  0  0  0  0  0  0
  -22.6870  -10.2740   20.2920 C   0  0  0  0  0  3  0  0  0  0  0  0
  -21.6370   -6.9770   21.5020 O   0  0  0  0  0  0  0  0  0  0  0  0
  -21.6250   -6.2170   22.6430 C   0  0  0  0  0  0  0  0  0  0  0  0
  -21.2490   -6.7540   23.8930 C   0  0  0  0  0  3  0  0  0  0  0  0
  -21.1830   -5.9200   25.0270 C   0  0  0  0  0  3  0  0  0  0  0  0
  -21.4860   -4.5500   24.9130 C   0  0  0  0  0  0  0  0  0  0  0  0
  -21.8570   -4.0120   23.6680 C   0  0  0  0  0  3  0  0  0  0  0  0
  -21.9230   -4.8420   22.5360 C   0  0  0  0  0  0  0  0  0  0  0  0
  -22.2600   -4.3150   21.3340 F   0  0  0  0  0  0  0  0  0  0  0  0
  -21.4170   -3.7480   26.0000 F   0  0  0  0  0  0  0  0  0  0  0  0
  -22.7490  -13.6140   21.1760 C   0  0  0  0  0  0  0  0  0  0  0  0
  -22.0340  -12.9180   22.0530 N   0  0  0  0  0  0  0  0  0  0  0  0
  -22.3070  -14.6450   20.6700 O   0  0  0  0  0  0  0  0  0  0  0  0
  -22.4060  -12.0860   22.4860 H   0  0  0  0  0  0  0  0  0  0  0  0
  -21.1030  -13.2240   22.2960 H   0  0  0  0  0  0  0  0  0  0  0  0
  -25.3710  -15.2680   20.3120 N   0  0  0  0  0  0  0  0  0  0  0  0
  -24.6060  -15.9240   20.4300 H   0  0  0  0  0  0  0  0  0  0  0  0
  -26.2110  -15.7000   19.9480 H   0  0  0  0  0  0  0  0  0  0  0  0
  -28.5220  -25.7990   21.2140 C   0  0  0  0  0  2  0  0  0  0  0  0
  -28.4160  -26.7580   20.1600 O   0  0  0  0  0  0  0  0  0  0  0  0
  -24.5830  -31.8880   23.2560 C   0  0  0  0  0  0  0  0  0  0  0  0
  -27.2500  -27.4790   20.1770 C   0  0  0  0  0  0  0  0  0  0  0  0
  -23.3810  -30.4790   21.6130 C   0  0  0  0  0  3  0  0  0  0  0  0
  -24.8430  -28.9460   20.1900 C   0  0  0  0  0  0  0  0  0  0  0  0
  -25.9010  -30.8580   21.4100 C   0  0  0  0  0  2  0  0  0  0  0  0
  -25.9940  -29.4860   20.7770 C   0  0  0  0  0  0  0  0  0  0  0  0
  -27.2040  -28.7580   20.7690 C   0  0  0  0  0  3  0  0  0  0  0  0
  -26.0880  -26.9420   19.5880 C   0  0  0  0  0  3  0  0  0  0  0  0
  -24.8820  -27.6720   19.5930 C   0  0  0  0  0  3  0  0  0  0  0  0
  -23.5920  -29.7970   20.2350 C   0  0  0  0  0  2  0  0  0  0  0  0
  -24.6390  -31.0890   22.1520 N   0  0  0  0  0  0  0  0  0  0  0  0
  -23.5010  -32.1550   23.7970 O   0  0  0  0  0  0  0  0  0  0  0  0
  -22.7360  -29.4560   22.5750 C   0  0  0  0  0  0  0  0  0  0  0  0
  -21.4120  -29.2710   22.4510 N   0  0  0  0  0  0  0  0  0  0  0  0
  -23.4230  -28.8310   23.3870 O   0  0  0  0  0  0  0  0  0  0  0  0
  -20.9190  -29.8280   21.7660 H   0  0  0  0  0  0  0  0  0  0  0  0
  -18.0400  -28.0760   22.9530 C   0  0  0  0  0  0  0  0  0  0  0  0
  -20.5980  -28.3320   23.2210 C   0  0  0  0  0  3  0  0  0  0  0  0
  -20.7000  -26.9020   22.6400 C   0  0  0  0  0  2  0  0  0  0  0  0
  -19.5950  -26.5830   21.6270 C   0  0  0  0  0  2  0  0  0  0  0  0
  -18.2150  -26.7280   22.2750 C   0  0  0  0  0  2  0  0  0  0  0  0
  -19.1600  -28.8360   23.3830 C   0  0  0  0  0  0  0  0  0  0  0  0
  -18.9440  -30.1000   23.9750 C   0  0  0  0  0  3  0  0  0  0  0  0
  -17.6400  -30.6020   24.1430 C   0  0  0  0  0  3  0  0  0  0  0  0
  -16.5340  -29.8380   23.7310 C   0  0  0  0  0  3  0  0  0  0  0  0
  -16.7350  -28.5770   23.1410 C   0  0  0  0  0  3  0  0  0  0  0  0
  -25.8680  -32.5230   23.8750 C   0  0  0  0  0  3  0  0  0  0  0  0
  -25.5600  -33.9230   24.1940 N   0  0  0  0  0  0  0  0  0  0  0  0
  -25.8980  -34.9690   23.4290 C   0  0  0  0  0  0  0  0  0  0  0  0
  -26.5750  -34.8570   22.4020 O   0  0  0  0  0  0  0  0  0  0  0  0
  -24.9610  -34.0830   24.9900 H   0  0  0  0  0  0  0  0  0  0  0  0
  -24.1760  -36.7600   23.0440 C   0  0  0  0  0  1  0  0  0  0  0  0
  -25.4080  -36.3600   23.8710 C   0  0  0  0  0  3  0  0  0  0  0  0
  -27.5360  -37.2450   24.7190 C   0  0  0  0  0  1  0  0  0  0  0  0
  -26.4440  -37.4110   23.7630 N   0  0  0  0  0  0  0  0  0  0  0  0
  -26.0380  -38.3320   23.9000 H   0  0  0  0  0  0  0  0  0  0  0  0
  -26.3850  -31.7570   25.1540 C   0  0  1  0  0  0  0  0  0  0  0  0
  -25.2930  -31.5240   26.2230 C   0  0  0  0  0  1  0  0  0  0  0  0
  -26.9680  -30.3780   24.7650 C   0  0  0  0  0  1  0  0  0  0  0  0
  -27.5360  -32.5540   25.8120 C   0  0  0  0  0  1  0  0  0  0  0  0
  1  3  1  0
  2  5  1  0
  2  4  2  0
  4  6  1  0
  5  1  2  0
  6  3  2  0
  6 55  1  0
  7  8  1  0
  7  9  1  0
  8 10  1  0
  9 11  1  0
 10 11  1  0
 10  5  1  0
 11 12  1  0
 12 15  1  0
 12 14  1  0
 13 12  1  0
 15 16  1  0
 17 25  1  0
 18 23  1  0
 19 20  1  0
 19 18  1  0
 21 20  1  0
 21 30  1  0
 21 22  1  0
 23 17  1  0
 23 22  1  0
 24 17  2  0
 25 26  1  0
 25 16  1  0
 27 28  2  0
 28 47  1  0
 29 28  1  0
 29 32  1  0
 30 27  1  0
 30 31  1  0
 31 29  2  0
 32 33  1  0
 33 34  2  0
 35 38  1  0
 35 34  1  0
 36 35  2  0
 37 36  1  0
 37 32  2  0
 38 39  1  0
 39 40  1  0
 40 41  2  0
 42 41  1  0
 42 46  1  0
 43 42  2  0
 44 39  2  0
 44 43  1  0
 45 44  1  0
 47 48  1  0
 48 51  1  0
 48 50  1  0
 49 47  2  0
 52 53  1  0
 52 27  1  0
 54 52  1  0
 56 58  1  0
 56 55  1  0
 57 68  2  0
 58 63  1  0
 59 67  1  0
 59 69  1  0
 60 66  1  0
 60 62  1  0
 61 67  1  0
 62 61  1  0
 63 62  2  0
 64 65  1  0
 64 58  2  0
 65 60  2  0
 66 59  1  0
 67 57  1  0
 69 71  2  0
 70 69  1  0
 72 70  1  0
 73 82  2  0
 73 78  1  0
 74 70  1  0
 74 78  1  0
 75 74  1  0
 76 77  1  0
 76 75  1  0
 77 73  1  0
 78 79  2  0
 79 80  1  0
 81 80  2  0
 82 81  1  0
 83 57  1  0
 83 84  1  0
 83 93  1  0
 84 87  1  0
 85 89  1  0
 85 84  1  0
 86 85  2  0
 89 88  1  0
 91 89  1  0
 91 92  1  0
 91 90  1  0
 93 96  1  1
 93 94  1  0
 95 93  1  0
M  ISO  4  17 100  25 100  55 101  56 101
M  END
>  <TORSDO>  (83) 
F 21

>  <SCORE>  (83) 
-13.826

>  <name>  (83) 
82

>  <ligand_id>  (83) 
82

>  <original_smiles>  (83) 
[H]c1c([H])c([H])c2c(c1[H])C([H])([H])C([H])([H])C([H])([H])C2([H])N([H])C(=O)C1([H])N(C(=O)C([H])(N([H])C(=O)C([H])(N([H])C([H])([H])[H])C([H])([H])[H])C(C([H])([H])[H])(C([H])([H])[H])C([H])([H])[H])C([H])([H])c2c([H])c(OC([H])([H])c3c([H])c([H])c(C4([H])C([H])([H])C([H])([H])C([H])([H])C4([H])[N+]([H])([H])C([H])([H])C([H])([H])N([H])C(=O)N4C([H])([H])C([H])([H])C([H])([H])C([H])(n5nc(-c6c([H])c([H])c(Oc7c([H])c([H])c(F)c([H])c7F)c([H])c6[H])c(C(=O)N([H])[H])c5N([H])[H])C4([H])[H])c([H])c3[H])c([H])c([H])c2C1([H])[H]

>  <smiles>  (83) 
[H]c1c([H])c([H])c2c(c1[H])C([H])([H])C([H])([H])C([H])([H])C2([H])N([H])C(=O)C1([H])N(C(=O)C([H])(N([H])C(=O)C([H])(N([H])C([H])([H])[H])C([H])([H])[H])C(C([H])([H])[H])(C([H])([H])[H])C([H])([H])[H])C([H])([H])c2c([H])c(OC([H])([H])c3c([H])c([H])c(C4([H])C([H])([H])C([H])([H])C([H])([H])C4([H])[N+]([H])([H])C([H])([H])C([H])([H])N([H])C(=O)N4C([H])([H])C([H])([H])C([H])([H])C([H])(n5nc(-c6c([H])c([H])c(Oc7c([H])c([H])c(F)c([H])c7F)c([H])c6[H])c(C(=O)N([H])[H])c5N([H])[H])C4([H])[H])c([H])c3[H])c([H])c([H])c2C1([H])[H]

$$$$
83:0:0
     RDKit          3D

 93101  0  0  1  0  0  0  0  0999 V2000
  -28.9670  -24.2920   21.6250 C   0  0  0  0  0  3  0  0  0  0  0  0
  -28.6590  -22.9310   19.6610 C   0  0  0  0  0  3  0  0  0  0  0  0
  -28.6840  -24.2230   20.2470 C   0  0  0  0  0  0  0  0  0  0  0  0
  -29.2010  -23.1050   22.3440 C   0  0  0  0  0  0  0  0  0  0  0  0
  -28.9020  -21.7820   20.4560 C   0  0  0  0  0  0  0  0  0  0  0  0
  -29.5170  -23.1540   23.8230 C   0  0  0  0  0  1  0  0  0  0  0  0
  -29.1700  -21.8760   21.7790 N   0  0  0  0  0  0  0  0  0  0  0  0
  -28.4830  -25.4980   19.4020 C   0  0  0  0  0  2  0  0  0  0  0  0
  -28.3020  -26.7320   20.1390 O   0  0  0  0  0  0  0  0  0  0  0  0
  -24.5080  -31.9060   23.2550 C   0  0  0  0  0  0  0  0  0  0  0  0
  -27.1060  -27.4360   20.1310 C   0  0  0  0  0  0  0  0  0  0  0  0
  -23.2820  -30.5250   21.6090 C   0  0  0  0  0  3  0  0  0  0  0  0
  -24.7160  -28.9790   20.1710 C   0  0  0  0  0  0  0  0  0  0  0  0
  -25.8140  -30.8570   21.4060 C   0  0  0  0  0  2  0  0  0  0  0  0
  -25.8830  -29.4860   20.7550 C   0  0  0  0  0  0  0  0  0  0  0  0
  -27.0740  -28.7210   20.7310 C   0  0  0  0  0  3  0  0  0  0  0  0
  -25.9090  -26.9410   19.5620 C   0  0  0  0  0  3  0  0  0  0  0  0
  -24.7260  -27.7070   19.5770 C   0  0  0  0  0  3  0  0  0  0  0  0
  -23.4810  -29.8500   20.2250 C   0  0  0  0  0  2  0  0  0  0  0  0
  -24.5530  -31.1120   22.1470 N   0  0  0  0  0  0  0  0  0  0  0  0
  -23.4310  -32.1850   23.8020 O   0  0  0  0  0  0  0  0  0  0  0  0
  -22.6250  -29.5060   22.5660 C   0  0  0  0  0  0  0  0  0  0  0  0
  -21.3040  -29.3140   22.4230 N   0  0  0  0  0  0  0  0  0  0  0  0
  -23.3010  -28.8910   23.3940 O   0  0  0  0  0  0  0  0  0  0  0  0
  -20.8170  -29.8610   21.7270 H   0  0  0  0  0  0  0  0  0  0  0  0
  -17.9370  -28.0780   22.8620 C   0  0  0  0  0  0  0  0  0  0  0  0
  -20.4850  -28.3730   23.1870 C   0  0  0  0  0  3  0  0  0  0  0  0
  -20.6190  -26.9380   22.6290 C   0  0  0  0  0  2  0  0  0  0  0  0
  -19.5440  -26.5900   21.5950 C   0  0  0  0  0  2  0  0  0  0  0  0
  -18.1470  -26.7240   22.2060 C   0  0  0  0  0  2  0  0  0  0  0  0
  -19.0360  -28.8600   23.3080 C   0  0  0  0  0  0  0  0  0  0  0  0
  -18.7870  -30.1290   23.8770 C   0  0  0  0  0  3  0  0  0  0  0  0
  -17.4730  -30.6130   24.0080 C   0  0  0  0  0  3  0  0  0  0  0  0
  -16.3880  -29.8280   23.5810 C   0  0  0  0  0  3  0  0  0  0  0  0
  -16.6210  -28.5630   23.0120 C   0  0  0  0  0  3  0  0  0  0  0  0
  -25.8020  -32.5220   23.8730 C   0  0  0  0  0  3  0  0  0  0  0  0
  -25.5160  -33.9270   24.1900 N   0  0  0  0  0  0  0  0  0  0  0  0
  -25.8760  -34.9680   23.4280 C   0  0  0  0  0  0  0  0  0  0  0  0
  -26.5540  -34.8470   22.4040 O   0  0  0  0  0  0  0  0  0  0  0  0
  -24.9160  -34.0980   24.9840 H   0  0  0  0  0  0  0  0  0  0  0  0
  -24.1890  -36.7940   23.0380 C   0  0  0  0  0  1  0  0  0  0  0  0
  -25.4070  -36.3670   23.8720 C   0  0  0  0  0  3  0  0  0  0  0  0
  -27.5400  -37.2160   24.7440 C   0  0  0  0  0  1  0  0  0  0  0  0
  -26.4620  -37.4000   23.7760 N   0  0  0  0  0  0  0  0  0  0  0  0
  -26.0690  -38.3270   23.9130 H   0  0  0  0  0  0  0  0  0  0  0  0
  -26.3050  -31.7540   25.1570 C   0  0  1  0  0  0  0  0  0  0  0  0
  -25.2060  -31.5430   26.2240 C   0  0  0  0  0  1  0  0  0  0  0  0
  -26.8680  -30.3640   24.7770 C   0  0  0  0  0  1  0  0  0  0  0  0
  -27.4630  -32.5370   25.8190 C   0  0  0  0  0  1  0  0  0  0  0  0
  -28.8570  -20.3580   19.8740 C   0  0  0  0  0  2  0  0  0  0  0  0
  -29.6420  -19.3790   20.6740 N   0  0  0  0  0  4  0  0  0  0  0  0
  -29.3950  -19.5830   21.6300 H   0  0  0  0  0  0  0  0  0  0  0  0
  -30.6130  -19.6140   20.5660 H   0  0  0  0  0  0  0  0  0  0  0  0
  -29.3990  -17.9390   20.3500 C   0  0  0  0  0  2  0  0  0  0  0  0
  -30.3050  -16.9300   21.1280 C   0  0  0  0  0  2  0  0  0  0  0  0
  -30.6400  -14.5350   20.3120 C   0  0  0  0  0  0  0  0  0  0  0  0
  -30.3460  -12.3890   19.1150 C   0  0  0  0  0  2  0  0  0  0  0  0
  -29.3730  -12.6020   17.9390 C   0  0  0  0  0  2  0  0  0  0  0  0
  -27.9070  -12.4510   18.3970 C   0  0  0  0  0  2  0  0  0  0  0  0
  -27.5960  -13.2560   19.6870 C   0  0  0  0  0  3  0  0  0  0  0  0
  -28.6790  -13.0160   20.7640 C   0  0  0  0  0  2  0  0  0  0  0  0
  -29.9860  -13.3490   20.1720 N   0  0  0  0  0  0  0  0  0  0  0  0
  -31.7490  -14.7540   19.8130 O   0  0  0  0  0  0  0  0  0  0  0  0
  -29.9340  -15.5150   20.9140 N   0  0  0  0  0  0  0  0  0  0  0  0
  -29.0320  -15.2290   21.2670 H   0  0  0  0  0  0  0  0  0  0  0  0
  -25.2000  -13.8390   20.4260 C   0  0  0  0  0  0  0  0  0  0  0  0
  -24.1480  -13.0570   20.8210 C   0  0  0  0  0  0  0  0  0  0  0  0
  -24.6260  -11.7110   20.7950 C   0  0  0  0  0  0  0  0  0  0  0  0
  -26.2540  -12.9680   20.1900 N   0  0  0  0  0  0  0  0  0  0  0  0
  -25.9110  -11.6840   20.4660 N   0  0  0  0  0  0  0  0  0  0  0  0
  -23.9170  -10.4420   21.0070 C   0  0  0  0  0  0  0  0  0  0  0  0
  -24.3720   -9.4930   21.9490 C   0  0  0  0  0  3  0  0  0  0  0  0
  -23.6640   -8.2880   22.1470 C   0  0  0  0  0  3  0  0  0  0  0  0
  -22.4890   -8.0240   21.4040 C   0  0  0  0  0  0  0  0  0  0  0  0
  -22.0540   -8.9620   20.4510 C   0  0  0  0  0  3  0  0  0  0  0  0
  -22.7620  -10.1580   20.2500 C   0  0  0  0  0  3  0  0  0  0  0  0
  -21.7510   -6.8700   21.5130 O   0  0  0  0  0  0  0  0  0  0  0  0
  -21.7140   -6.1450   22.6780 C   0  0  0  0  0  0  0  0  0  0  0  0
  -21.2630   -6.7090   23.8910 C   0  0  0  0  0  3  0  0  0  0  0  0
  -21.1750   -5.9090   25.0480 C   0  0  0  0  0  3  0  0  0  0  0  0
  -21.5280   -4.5490   24.9940 C   0  0  0  0  0  0  0  0  0  0  0  0
  -21.9740   -3.9850   23.7850 C   0  0  0  0  0  3  0  0  0  0  0  0
  -22.0630   -4.7810   22.6300 C   0  0  0  0  0  0  0  0  0  0  0  0
  -22.4720   -4.2270   21.4620 F   0  0  0  0  0  0  0  0  0  0  0  0
  -21.4380   -3.7780   26.1030 F   0  0  0  0  0  0  0  0  0  0  0  0
  -22.7510  -13.5200   21.1130 C   0  0  0  0  0  0  0  0  0  0  0  0
  -22.0450  -12.8210   21.9950 N   0  0  0  0  0  0  0  0  0  0  0  0
  -22.2920  -14.5380   20.5950 O   0  0  0  0  0  0  0  0  0  0  0  0
  -22.4270  -11.9970   22.4360 H   0  0  0  0  0  0  0  0  0  0  0  0
  -21.1080  -13.1140   22.2330 H   0  0  0  0  0  0  0  0  0  0  0  0
  -25.3430  -15.2100   20.2300 N   0  0  0  0  0  0  0  0  0  0  0  0
  -24.5610  -15.8500   20.3170 H   0  0  0  0  0  0  0  0  0  0  0  0
  -26.1740  -15.6510   19.8590 H   0  0  0  0  0  0  0  0  0  0  0  0
  1  4  1  0
  2  3  1  0
  2  5  2  0
  3  1  2  0
  4  6  1  0
  5  7  1  0
  7  4  2  0
  8  9  1  0
  8  3  1  0
 10 21  2  0
 11  9  1  0
 11 16  1  0
 12 20  1  0
 12 22  1  0
 13 19  1  0
 13 15  1  0
 14 20  1  0
 15 14  1  0
 16 15  2  0
 17 18  1  0
 17 11  2  0
 18 13  2  0
 19 12  1  0
 20 10  1  0
 22 24  2  0
 23 22  1  0
 25 23  1  0
 26 35  2  0
 26 31  1  0
 27 23  1  0
 27 31  1  0
 28 27  1  0
 29 30  1  0
 29 28  1  0
 30 26  1  0
 31 32  2  0
 32 33  1  0
 34 33  2  0
 35 34  1  0
 36 10  1  0
 36 37  1  0
 36 46  1  0
 37 40  1  0
 38 42  1  0
 38 37  1  0
 39 38  2  0
 42 41  1  0
 44 42  1  0
 44 45  1  0
 44 43  1  0
 46 49  1  1
 46 47  1  0
 48 46  1  0
 50  5  1  0
 50 51  1  0
 51 52  1  0
 53 51  1  0
 54 51  1  0
 54 55  1  0
 56 64  1  0
 57 62  1  0
 58 59  1  0
 58 57  1  0
 60 59  1  0
 60 69  1  0
 60 61  1  0
 62 56  1  0
 62 61  1  0
 63 56  2  0
 64 55  1  0
 64 65  1  0
 66 67  2  0
 67 86  1  0
 68 67  1  0
 68 71  1  0
 69 66  1  0
 69 70  1  0
 70 68  2  0
 71 72  1  0
 72 73  2  0
 74 77  1  0
 74 73  1  0
 75 74  2  0
 76 75  1  0
 76 71  2  0
 77 78  1  0
 78 79  1  0
 79 80  2  0
 81 80  1  0
 81 85  1  0
 82 81  2  0
 83 78  2  0
 83 82  1  0
 84 83  1  0
 86 87  1  0
 87 90  1  0
 87 89  1  0
 88 86  2  0
 91 92  1  0
 91 66  1  0
 93 91  1  0
M  ISO  4   8 101   9 101  56 100  64 100
M  END
>  <TORSDO>  (84) 
F 21

>  <SCORE>  (84) 
-13.441

>  <name>  (84) 
83

>  <ligand_id>  (84) 
83

>  <original_smiles>  (84) 
[H]c1c([H])c([H])c2c(c1[H])C([H])([H])C([H])([H])C([H])([H])C2([H])N([H])C(=O)C1([H])N(C(=O)C([H])(N([H])C(=O)C([H])(N([H])C([H])([H])[H])C([H])([H])[H])C(C([H])([H])[H])(C([H])([H])[H])C([H])([H])[H])C([H])([H])c2c([H])c(OC([H])([H])c3c([H])c(C([H])([H])[H])nc(C([H])([H])[N+]([H])([H])C([H])([H])C([H])([H])N([H])C(=O)N4C([H])([H])C([H])([H])C([H])([H])C([H])(n5nc(-c6c([H])c([H])c(Oc7c([H])c([H])c(F)c([H])c7F)c([H])c6[H])c(C(=O)N([H])[H])c5N([H])[H])C4([H])[H])c3[H])c([H])c([H])c2C1([H])[H]

>  <smiles>  (84) 
[H]c1c([H])c([H])c2c(c1[H])C([H])([H])C([H])([H])C([H])([H])C2([H])N([H])C(=O)C1([H])N(C(=O)C([H])(N([H])C(=O)C([H])(N([H])C([H])([H])[H])C([H])([H])[H])C(C([H])([H])[H])(C([H])([H])[H])C([H])([H])[H])C([H])([H])c2c([H])c(OC([H])([H])c3c([H])c(C([H])([H])[H])nc(C([H])([H])[N+]([H])([H])C([H])([H])C([H])([H])N([H])C(=O)N4C([H])([H])C([H])([H])C([H])([H])C([H])(n5nc(-c6c([H])c([H])c(Oc7c([H])c([H])c(F)c([H])c7F)c([H])c6[H])c(C(=O)N([H])[H])c5N([H])[H])C4([H])[H])c3[H])c([H])c([H])c2C1([H])[H]

$$$$
84:0:0
     RDKit          3D

 92101  0  0  1  0  0  0  0  0999 V2000
  -28.8170  -21.7820   19.7360 N   0  0  2  0  0  4  0  0  0  0  0  0
  -29.5590  -21.9160   19.0650 H   0  0  0  0  0  0  0  0  0  0  0  0
  -27.9450  -21.8130   17.3970 C   0  0  0  0  0  1  0  0  0  0  0  0
  -27.6270  -21.5650   18.8790 C   0  0  0  0  0  2  0  0  0  0  0  0
  -29.2470  -20.4380   20.4930 C   0  0  0  0  0  2  0  0  0  0  0  0
  -30.6600  -14.9720   19.8900 C   0  0  0  0  0  0  0  0  0  0  0  0
  -30.4270  -12.6310   18.9430 C   0  0  0  0  0  2  0  0  0  0  0  0
  -29.4130  -12.5720   17.7820 C   0  0  0  0  0  2  0  0  0  0  0  0
  -27.9910  -12.3500   18.3260 C   0  0  0  0  0  2  0  0  0  0  0  0
  -27.6610  -13.2890   19.5170 C   0  0  0  0  0  3  0  0  0  0  0  0
  -28.7900  -13.3460   20.5640 C   0  0  0  0  0  2  0  0  0  0  0  0
  -30.0040  -13.7410   19.8470 N   0  0  0  0  0  0  0  0  0  0  0  0
  -31.8770  -14.9260   19.6540 O   0  0  0  0  0  0  0  0  0  0  0  0
  -30.3200  -18.5800   18.7630 C   0  0  0  0  0  2  0  0  0  0  0  0
  -30.3210  -17.0320   18.4790 C   0  0  0  0  0  2  0  0  0  0  0  0
  -29.2870  -18.8540   19.8400 C   0  0  0  0  0  3  0  0  0  0  0  0
  -29.4480  -17.3640   20.6020 C   0  0  0  0  0  3  0  0  0  0  0  0
  -29.9680  -16.2230   19.6770 N   0  0  0  0  0  0  0  0  0  0  0  0
  -25.3640  -13.8600   20.4760 C   0  0  0  0  0  0  0  0  0  0  0  0
  -24.3250  -13.0810   20.8950 C   0  0  0  0  0  0  0  0  0  0  0  0
  -24.7690  -11.7270   20.7800 C   0  0  0  0  0  0  0  0  0  0  0  0
  -26.3720  -12.9830   20.1210 N   0  0  0  0  0  0  0  0  0  0  0  0
  -26.0330  -11.6930   20.3760 N   0  0  0  0  0  0  0  0  0  0  0  0
  -24.0430  -10.4650   20.9720 C   0  0  0  0  0  0  0  0  0  0  0  0
  -24.4970   -9.4850   21.8830 C   0  0  0  0  0  3  0  0  0  0  0  0
  -23.7720   -8.2890   22.0660 C   0  0  0  0  0  3  0  0  0  0  0  0
  -22.5800   -8.0610   21.3380 C   0  0  0  0  0  0  0  0  0  0  0  0
  -22.1440   -9.0280   20.4160 C   0  0  0  0  0  3  0  0  0  0  0  0
  -22.8680  -10.2170   20.2310 C   0  0  0  0  0  3  0  0  0  0  0  0
  -21.8250   -6.9160   21.4300 O   0  0  0  0  0  0  0  0  0  0  0  0
  -21.7500   -6.1960   22.5940 C   0  0  0  0  0  0  0  0  0  0  0  0
  -21.3070   -6.7770   23.8030 C   0  0  0  0  0  3  0  0  0  0  0  0
  -21.1800   -5.9810   24.9590 C   0  0  0  0  0  3  0  0  0  0  0  0
  -21.4890   -4.6080   24.9080 C   0  0  0  0  0  0  0  0  0  0  0  0
  -21.9250   -4.0280   23.7030 C   0  0  0  0  0  3  0  0  0  0  0  0
  -22.0540   -4.8220   22.5500 C   0  0  0  0  0  0  0  0  0  0  0  0
  -22.4540   -4.2530   21.3870 F   0  0  0  0  0  0  0  0  0  0  0  0
  -21.3590   -3.8430   26.0160 F   0  0  0  0  0  0  0  0  0  0  0  0
  -22.9550  -13.5580   21.2790 C   0  0  0  0  0  0  0  0  0  0  0  0
  -22.2910  -12.8530   22.1870 N   0  0  0  0  0  0  0  0  0  0  0  0
  -22.4830  -14.5910   20.8020 O   0  0  0  0  0  0  0  0  0  0  0  0
  -22.6860  -12.0170   22.5920 H   0  0  0  0  0  0  0  0  0  0  0  0
  -21.3750  -13.1570   22.4860 H   0  0  0  0  0  0  0  0  0  0  0  0
  -25.5310  -15.2360   20.3380 N   0  0  0  0  0  0  0  0  0  0  0  0
  -24.7820  -15.8890   20.5450 H   0  0  0  0  0  0  0  0  0  0  0  0
  -26.3620  -15.6860   19.9770 H   0  0  0  0  0  0  0  0  0  0  0  0
  -30.2020  -18.4270   22.9800 C   0  0  0  0  0  2  0  0  0  0  0  0
  -31.4560  -18.0250   22.2230 C   0  0  0  0  0  2  0  0  0  0  0  0
  -30.1500  -17.3210   21.9590 C   0  0  0  0  0  3  0  0  0  0  0  0
  -28.7520  -23.2000   20.4820 C   0  0  0  0  0  3  0  0  0  0  0  0
  -28.2090  -24.6460   19.7750 C   0  0  0  0  0  3  0  0  0  0  0  0
  -28.2570  -26.1100   20.3450 O   0  0  0  0  0  0  0  0  0  0  0  0
  -24.6180  -31.8440   23.2570 C   0  0  0  0  0  0  0  0  0  0  0  0
  -27.2050  -27.0980   20.2400 C   0  0  0  0  0  0  0  0  0  0  0  0
  -23.4330  -30.4490   21.6070 C   0  0  0  0  0  3  0  0  0  0  0  0
  -24.8890  -28.8690   20.1950 C   0  0  0  0  0  0  0  0  0  0  0  0
  -25.9930  -30.6920   21.4820 C   0  0  0  0  0  2  0  0  0  0  0  0
  -26.0610  -29.2980   20.8290 C   0  0  0  0  0  0  0  0  0  0  0  0
  -27.2130  -28.4250   20.8440 C   0  0  0  0  0  3  0  0  0  0  0  0
  -26.0120  -26.7920   19.5470 C   0  0  0  0  0  3  0  0  0  0  0  0
  -24.8800  -27.6320   19.5370 C   0  0  0  0  0  3  0  0  0  0  0  0
  -23.6700  -29.7780   20.2280 C   0  0  0  0  0  2  0  0  0  0  0  0
  -24.7010  -31.0160   22.1710 N   0  0  0  0  0  0  0  0  0  0  0  0
  -23.5250  -32.1360   23.7680 O   0  0  0  0  0  0  0  0  0  0  0  0
  -22.7430  -29.4410   22.5620 C   0  0  0  0  0  0  0  0  0  0  0  0
  -21.4180  -29.2720   22.4190 N   0  0  0  0  0  0  0  0  0  0  0  0
  -23.4060  -28.8170   23.3950 O   0  0  0  0  0  0  0  0  0  0  0  0
  -20.9490  -29.8300   21.7180 H   0  0  0  0  0  0  0  0  0  0  0  0
  -18.0270  -28.0720   22.8680 C   0  0  0  0  0  0  0  0  0  0  0  0
  -20.5800  -28.3400   23.1790 C   0  0  0  0  0  3  0  0  0  0  0  0
  -20.7000  -26.9050   22.6180 C   0  0  0  0  0  2  0  0  0  0  0  0
  -19.6150  -26.5690   21.5920 C   0  0  0  0  0  2  0  0  0  0  0  0
  -18.2200  -26.7190   22.2060 C   0  0  0  0  0  2  0  0  0  0  0  0
  -19.1370  -28.8400   23.3100 C   0  0  0  0  0  0  0  0  0  0  0  0
  -18.9060  -30.1070   23.8890 C   0  0  0  0  0  3  0  0  0  0  0  0
  -17.5990  -30.6030   24.0360 C   0  0  0  0  0  3  0  0  0  0  0  0
  -16.5020  -29.8330   23.6100 C   0  0  0  0  0  3  0  0  0  0  0  0
  -16.7180  -28.5710   23.0270 C   0  0  0  0  0  3  0  0  0  0  0  0
  -25.8890  -32.4790   23.8960 C   0  0  0  0  0  3  0  0  0  0  0  0
  -25.5820  -33.8830   24.2140 N   0  0  0  0  0  0  0  0  0  0  0  0
  -25.9140  -34.9310   23.4510 C   0  0  0  0  0  0  0  0  0  0  0  0
  -26.5850  -34.8220   22.4210 O   0  0  0  0  0  0  0  0  0  0  0  0
  -25.0040  -34.0460   25.0230 H   0  0  0  0  0  0  0  0  0  0  0  0
  -24.1910  -36.7310   23.0880 C   0  0  0  0  0  1  0  0  0  0  0  0
  -25.4280  -36.3240   23.9030 C   0  0  0  0  0  3  0  0  0  0  0  0
  -27.5610  -37.2100   24.7350 C   0  0  0  0  0  1  0  0  0  0  0  0
  -26.4620  -37.3750   23.7890 N   0  0  0  0  0  0  0  0  0  0  0  0
  -26.0560  -38.2970   23.9350 H   0  0  0  0  0  0  0  0  0  0  0  0
  -26.3770  -31.7200   25.1910 C   0  0  1  0  0  0  0  0  0  0  0  0
  -25.2590  -31.5030   26.2370 C   0  0  0  0  0  1  0  0  0  0  0  0
  -26.9630  -30.3360   24.8290 C   0  0  0  0  0  1  0  0  0  0  0  0
  -27.5130  -32.5200   25.8700 C   0  0  0  0  0  1  0  0  0  0  0  0
  1 50  1  0
  1  5  1  0
  1  2  1  6
  3  4  1  0
  4  1  1  0
  7 12  1  0
  8  9  1  0
  8  7  1  0
 10  9  1  0
 10 22  1  0
 10 11  1  0
 12  6  1  0
 12 11  1  0
 13  6  2  0
 14 16  1  0
 15 14  1  0
 15 18  1  0
 16  5  1  0
 16 17  1  0
 17 49  1  0
 18  6  1  0
 18 17  1  0
 19 20  2  0
 20 39  1  0
 21 20  1  0
 21 24  1  0
 22 23  1  0
 22 19  1  0
 23 21  2  0
 24 25  1  0
 25 26  2  0
 27 30  1  0
 27 26  1  0
 28 27  2  0
 29 28  1  0
 29 24  2  0
 30 31  1  0
 31 32  1  0
 32 33  2  0
 34 33  1  0
 34 38  1  0
 35 34  2  0
 36 31  2  0
 36 35  1  0
 37 36  1  0
 39 40  1  0
 40 43  1  0
 40 42  1  0
 41 39  2  0
 44 19  1  0
 44 45  1  0
 46 44  1  0
 48 47  1  0
 49 48  1  0
 49 47  1  0
 51 52  1  0
 51 50  2  0
 53 64  2  0
 54 52  1  0
 54 59  1  0
 55 63  1  0
 55 65  1  0
 56 62  1  0
 56 58  1  0
 57 63  1  0
 58 59  2  0
 58 57  1  0
 60 54  2  0
 61 60  1  0
 61 56  2  0
 62 55  1  0
 63 53  1  0
 65 67  2  0
 66 65  1  0
 68 66  1  0
 69 78  2  0
 69 74  1  0
 70 66  1  0
 70 74  1  0
 71 70  1  0
 72 73  1  0
 72 71  1  0
 73 69  1  0
 74 75  2  0
 75 76  1  0
 77 76  2  0
 78 77  1  0
 79 53  1  0
 79 80  1  0
 79 89  1  0
 80 83  1  0
 81 85  1  0
 81 80  1  0
 82 81  2  0
 85 84  1  0
 87 85  1  0
 87 88  1  0
 87 86  1  0
 89 92  1  1
 89 90  1  0
 91 89  1  0
M  ISO  4   6 100  18 100  51 101  52 101
M  END
>  <TORSDO>  (85) 
F 21

>  <SCORE>  (85) 
-13.504

>  <name>  (85) 
84

>  <ligand_id>  (85) 
84

>  <original_smiles>  (85) 
[H]c1c([H])c([H])c2c(c1[H])C([H])([H])C([H])([H])C([H])([H])C2([H])N([H])C(=O)C1([H])N(C(=O)C([H])(N([H])C(=O)C([H])(N([H])C([H])([H])[H])C([H])([H])[H])C(C([H])([H])[H])(C([H])([H])[H])C([H])([H])[H])C([H])([H])c2c([H])c(OC([H])([H])C([H])([H])[N+]([H])(C([H])([H])C([H])([H])[H])C([H])([H])C3([H])C([H])([H])C([H])([H])N(C(=O)N4C([H])([H])C([H])([H])C([H])([H])C([H])(n5nc(-c6c([H])c([H])c(Oc7c([H])c([H])c(F)c([H])c7F)c([H])c6[H])c(C(=O)N([H])[H])c5N([H])[H])C4([H])[H])C3([H])C3([H])C([H])([H])C3([H])[H])c([H])c([H])c2C1([H])[H]

>  <smiles>  (85) 
[H]c1c([H])c([H])c2c(c1[H])C([H])([H])C([H])([H])C([H])([H])C2([H])N([H])C(=O)C1([H])N(C(=O)C([H])(N([H])C(=O)C([H])(N([H])C([H])([H])[H])C([H])([H])[H])C(C([H])([H])[H])(C([H])([H])[H])C([H])([H])[H])C([H])([H])c2c([H])c(OC([H])([H])C([H])([H])[N+]([H])(C([H])([H])C([H])([H])[H])C([H])([H])C3([H])C([H])([H])C([H])([H])N(C(=O)N4C([H])([H])C([H])([H])C([H])([H])C([H])(n5nc(-c6c([H])c([H])c(Oc7c([H])c([H])c(F)c([H])c7F)c([H])c6[H])c(C(=O)N([H])[H])c5N([H])[H])C4([H])[H])C3([H])C3([H])C([H])([H])C3([H])[H])c([H])c([H])c2C1([H])[H]

$$$$
85:0:0
     RDKit          3D

 92101  0  0  1  0  0  0  0  0999 V2000
  -30.2380  -20.5450   18.6440 C   0  0  0  0  0  2  0  0  0  0  0  0
  -29.7020  -20.5190   21.0310 C   0  0  0  0  0  2  0  0  0  0  0  0
  -29.5130  -21.9270   18.5150 C   0  0  0  0  0  2  0  0  0  0  0  0
  -28.9520  -21.8980   20.8740 C   0  0  0  0  0  2  0  0  0  0  0  0
  -29.6890  -19.6110   19.7560 C   0  0  0  0  0  3  0  0  0  0  0  0
  -29.4910  -22.7510   19.7690 N   0  0  2  0  0  4  0  0  0  0  0  0
  -30.4580  -22.9410   19.9970 H   0  0  0  0  0  0  0  0  0  0  0  0
  -30.4750  -18.2120   19.8560 C   0  0  0  0  0  2  0  0  0  0  0  0
  -30.9410  -14.6530   19.6270 C   0  0  0  0  0  0  0  0  0  0  0  0
  -30.4970  -12.4980   18.4510 C   0  0  0  0  0  2  0  0  0  0  0  0
  -29.4180  -12.7000   17.3640 C   0  0  0  0  0  2  0  0  0  0  0  0
  -28.0050  -12.5510   17.9590 C   0  0  0  0  0  2  0  0  0  0  0  0
  -27.8230  -13.3660   19.2660 C   0  0  0  0  0  3  0  0  0  0  0  0
  -28.9970  -13.1320   20.2370 C   0  0  0  0  0  2  0  0  0  0  0  0
  -30.2470  -13.4710   19.5340 N   0  0  0  0  0  0  0  0  0  0  0  0
  -31.9390  -14.8630   18.9290 O   0  0  0  0  0  0  0  0  0  0  0  0
  -29.9130  -16.6450   22.5820 C   0  0  0  0  0  2  0  0  0  0  0  0
  -28.9020  -17.0480   21.5150 C   0  0  0  0  0  2  0  0  0  0  0  0
  -30.7330  -15.5330   21.9190 C   0  0  0  0  0  2  0  0  0  0  0  0
  -29.6740  -16.8790   20.2020 C   0  0  0  0  0  3  0  0  0  0  0  0
  -30.4600  -15.6190   20.4790 N   0  0  0  0  0  0  0  0  0  0  0  0
  -25.5530  -13.9830   20.3020 C   0  0  0  0  0  0  0  0  0  0  0  0
  -24.5260  -13.2170   20.7810 C   0  0  0  0  0  0  0  0  0  0  0  0
  -24.9490  -11.8580   20.6460 C   0  0  0  0  0  0  0  0  0  0  0  0
  -26.5370  -13.0920   19.9050 N   0  0  0  0  0  0  0  0  0  0  0  0
  -26.1860  -11.8080   20.1690 N   0  0  0  0  0  0  0  0  0  0  0  0
  -24.2260  -10.6030   20.8870 C   0  0  0  0  0  0  0  0  0  0  0  0
  -24.6740   -9.6610   21.8390 C   0  0  0  0  0  3  0  0  0  0  0  0
  -23.9500   -8.4700   22.0630 C   0  0  0  0  0  3  0  0  0  0  0  0
  -22.7630   -8.2130   21.3360 C   0  0  0  0  0  0  0  0  0  0  0  0
  -22.3350   -9.1440   20.3740 C   0  0  0  0  0  3  0  0  0  0  0  0
  -23.0590  -10.3260   20.1470 C   0  0  0  0  0  3  0  0  0  0  0  0
  -22.0090   -7.0730   21.4680 O   0  0  0  0  0  0  0  0  0  0  0  0
  -21.8650   -6.4420   22.6770 C   0  0  0  0  0  0  0  0  0  0  0  0
  -21.3530   -7.1100   23.8100 C   0  0  0  0  0  3  0  0  0  0  0  0
  -21.1570   -6.4040   25.0150 C   0  0  0  0  0  3  0  0  0  0  0  0
  -21.4640   -5.0320   25.0860 C   0  0  0  0  0  0  0  0  0  0  0  0
  -21.9700   -4.3650   23.9570 C   0  0  0  0  0  3  0  0  0  0  0  0
  -22.1660   -5.0680   22.7560 C   0  0  0  0  0  0  0  0  0  0  0  0
  -22.6340   -4.4140   21.6650 F   0  0  0  0  0  0  0  0  0  0  0  0
  -21.2680   -4.3510   26.2400 F   0  0  0  0  0  0  0  0  0  0  0  0
  -23.1870  -13.7090   21.2500 C   0  0  0  0  0  0  0  0  0  0  0  0
  -22.5770  -13.0130   22.2030 N   0  0  0  0  0  0  0  0  0  0  0  0
  -22.6960  -14.7450   20.8040 O   0  0  0  0  0  0  0  0  0  0  0  0
  -22.9900  -12.1740   22.5840 H   0  0  0  0  0  0  0  0  0  0  0  0
  -21.6860  -13.3230   22.5620 H   0  0  0  0  0  0  0  0  0  0  0  0
  -25.7240  -15.3560   20.1500 N   0  0  0  0  0  0  0  0  0  0  0  0
  -24.9950  -16.0250   20.3750 H   0  0  0  0  0  0  0  0  0  0  0  0
  -26.5470  -15.7860   19.7490 H   0  0  0  0  0  0  0  0  0  0  0  0
  -28.8240  -24.1130   19.5430 C   0  0  0  0  0  2  0  0  0  0  0  0
  -28.8970  -25.2220   20.6730 C   0  0  0  0  0  2  0  0  0  0  0  0
  -28.8870  -26.6410   20.2630 O   0  0  0  0  0  0  0  0  0  0  0  0
  -24.6870  -31.7220   23.1720 C   0  0  0  0  0  0  0  0  0  0  0  0
  -27.6870  -27.3520   20.2390 C   0  0  0  0  0  0  0  0  0  0  0  0
  -23.6270  -30.2460   21.4970 C   0  0  0  0  0  3  0  0  0  0  0  0
  -25.2190  -28.7760   20.1370 C   0  0  0  0  0  0  0  0  0  0  0  0
  -26.1400  -30.7330   21.3900 C   0  0  0  0  0  2  0  0  0  0  0  0
  -26.3300  -29.3570   20.7620 C   0  0  0  0  0  0  0  0  0  0  0  0
  -27.5680  -28.6570   20.7970 C   0  0  0  0  0  3  0  0  0  0  0  0
  -26.5520  -26.8020   19.6060 C   0  0  0  0  0  3  0  0  0  0  0  0
  -25.3300  -27.5030   19.5520 C   0  0  0  0  0  3  0  0  0  0  0  0
  -23.9290  -29.5710   20.1320 C   0  0  0  0  0  2  0  0  0  0  0  0
  -24.8340  -30.9180   22.0800 N   0  0  0  0  0  0  0  0  0  0  0  0
  -23.5720  -31.9320   23.6710 O   0  0  0  0  0  0  0  0  0  0  0  0
  -22.9950  -29.1970   22.4420 C   0  0  0  0  0  0  0  0  0  0  0  0
  -21.6880  -28.9380   22.2690 N   0  0  0  0  0  0  0  0  0  0  0  0
  -23.6830  -28.6160   23.2870 O   0  0  0  0  0  0  0  0  0  0  0  0
  -21.1910  -29.4600   21.5610 H   0  0  0  0  0  0  0  0  0  0  0  0
  -18.3730  -27.5490   22.6620 C   0  0  0  0  0  0  0  0  0  0  0  0
  -20.9030  -27.9530   23.0140 C   0  0  0  0  0  3  0  0  0  0  0  0
  -21.1050  -26.5290   22.4440 C   0  0  0  0  0  2  0  0  0  0  0  0
  -20.0560  -26.1430   21.3960 C   0  0  0  0  0  2  0  0  0  0  0  0
  -18.6490  -26.2110   21.9950 C   0  0  0  0  0  2  0  0  0  0  0  0
  -19.4330  -28.3730   23.1270 C   0  0  0  0  0  0  0  0  0  0  0  0
  -19.1240  -29.6210   23.7100 C   0  0  0  0  0  3  0  0  0  0  0  0
  -17.7880  -30.0490   23.8330 C   0  0  0  0  0  3  0  0  0  0  0  0
  -16.7440  -29.2220   23.3850 C   0  0  0  0  0  3  0  0  0  0  0  0
  -17.0360  -27.9740   22.8070 C   0  0  0  0  0  3  0  0  0  0  0  0
  -25.9080  -32.4320   23.8350 C   0  0  0  0  0  3  0  0  0  0  0  0
  -26.4330  -31.6900   25.1270 C   0  0  1  0  0  0  0  0  0  0  0  0
  -25.3200  -31.3670   26.1510 C   0  0  0  0  0  1  0  0  0  0  0  0
  -27.1270  -30.3620   24.7490 C   0  0  0  0  0  1  0  0  0  0  0  0
  -27.4960  -32.5600   25.8370 C   0  0  0  0  0  1  0  0  0  0  0  0
  -25.5010  -33.8060   24.1590 N   0  0  0  0  0  0  0  0  0  0  0  0
  -25.7770  -34.8790   23.4040 C   0  0  0  0  0  0  0  0  0  0  0  0
  -26.4690  -34.8190   22.3850 O   0  0  0  0  0  0  0  0  0  0  0  0
  -24.8840  -33.9210   24.9500 H   0  0  0  0  0  0  0  0  0  0  0  0
  -23.9390  -36.5540   23.0220 C   0  0  0  0  0  1  0  0  0  0  0  0
  -25.1920  -36.2340   23.8520 C   0  0  0  0  0  3  0  0  0  0  0  0
  -27.2500  -37.2600   24.7130 C   0  0  0  0  0  1  0  0  0  0  0  0
  -26.1550  -37.3520   23.7510 N   0  0  0  0  0  0  0  0  0  0  0  0
  -25.6870  -38.2440   23.8870 H   0  0  0  0  0  0  0  0  0  0  0  0
  1  5  1  0
  3  1  1  0
  3  6  1  0
  4  2  1  0
  5  8  1  0
  5  2  1  0
  6  7  1  1
  6  4  1  0
  9 21  1  0
 10 15  1  0
 11 12  1  0
 11 10  1  0
 13 12  1  0
 13 25  1  0
 13 14  1  0
 15  9  1  0
 15 14  1  0
 16  9  2  0
 18 17  1  0
 19 17  1  0
 20  8  1  0
 20 21  1  0
 20 18  1  0
 21 19  1  0
 22 23  2  0
 23 42  1  0
 24 23  1  0
 24 27  1  0
 25 26  1  0
 25 22  1  0
 26 24  2  0
 27 28  1  0
 28 29  2  0
 30 33  1  0
 30 29  1  0
 31 30  2  0
 32 31  1  0
 32 27  2  0
 33 34  1  0
 34 39  2  0
 34 35  1  0
 35 36  2  0
 36 37  1  0
 37 41  1  0
 38 37  2  0
 39 38  1  0
 40 39  1  0
 42 43  1  0
 43 46  1  0
 43 45  1  0
 44 42  2  0
 47 22  1  0
 47 48  1  0
 49 47  1  0
 50  6  1  0
 50 51  1  0
 52 51  1  0
 53 64  2  0
 54 52  1  0
 54 59  1  0
 55 63  1  0
 55 65  1  0
 56 58  1  0
 57 63  1  0
 58 59  2  0
 58 57  1  0
 60 54  2  0
 61 60  1  0
 61 56  2  0
 62 56  1  0
 62 55  1  0
 63 53  1  0
 65 67  2  0
 66 65  1  0
 68 66  1  0
 69 78  2  0
 69 74  1  0
 70 66  1  0
 70 74  1  0
 71 70  1  0
 72 73  1  0
 72 71  1  0
 73 69  1  0
 74 75  2  0
 75 76  1  0
 77 76  2  0
 78 77  1  0
 79 53  1  0
 79 84  1  0
 79 80  1  0
 80 83  1  1
 80 81  1  0
 82 80  1  0
 84 87  1  0
 85 89  1  0
 85 84  1  0
 86 85  2  0
 89 88  1  0
 91 89  1  0
 91 92  1  0
 91 90  1  0
M  ISO  4   9 100  21 100  51 101  52 101
M  END
>  <TORSDO>  (86) 
F 19

>  <SCORE>  (86) 
-11.573

>  <name>  (86) 
85

>  <ligand_id>  (86) 
85

>  <original_smiles>  (86) 
[H]c1c([H])c([H])c2c(c1[H])C([H])([H])C([H])([H])C([H])([H])C2([H])N([H])C(=O)C1([H])N(C(=O)C([H])(N([H])C(=O)C([H])(N([H])C([H])([H])[H])C([H])([H])[H])C(C([H])([H])[H])(C([H])([H])[H])C([H])([H])[H])C([H])([H])c2c([H])c(OC([H])([H])C([H])([H])[N+]3([H])C([H])([H])C([H])([H])C([H])(C([H])([H])C4([H])N(C(=O)N5C([H])([H])C([H])([H])C([H])([H])C([H])(n6nc(-c7c([H])c([H])c(Oc8c([H])c([H])c(F)c([H])c8F)c([H])c7[H])c(C(=O)N([H])[H])c6N([H])[H])C5([H])[H])C([H])([H])C([H])([H])C4([H])[H])C([H])([H])C3([H])[H])c([H])c([H])c2C1([H])[H]

>  <smiles>  (86) 
[H]c1c([H])c([H])c2c(c1[H])C([H])([H])C([H])([H])C([H])([H])C2([H])N([H])C(=O)C1([H])N(C(=O)C([H])(N([H])C(=O)C([H])(N([H])C([H])([H])[H])C([H])([H])[H])C(C([H])([H])[H])(C([H])([H])[H])C([H])([H])[H])C([H])([H])c2c([H])c(OC([H])([H])C([H])([H])[N+]3([H])C([H])([H])C([H])([H])C([H])(C([H])([H])C4([H])N(C(=O)N5C([H])([H])C([H])([H])C([H])([H])C([H])(n6nc(-c7c([H])c([H])c(Oc8c([H])c([H])c(F)c([H])c8F)c([H])c7[H])c(C(=O)N([H])[H])c6N([H])[H])C5([H])[H])C([H])([H])C([H])([H])C4([H])[H])C([H])([H])C3([H])[H])c([H])c([H])c2C1([H])[H]

$$$$
86:0:0
     RDKit          3D

 90 98  0  0  1  0  0  0  0  0999 V2000
  -28.3400  -22.7080   19.0330 C   0  0  0  0  0  3  0  0  0  0  0  0
  -29.2140  -23.4980   21.1220 C   0  0  0  0  0  3  0  0  0  0  0  0
  -28.6400  -21.3550   19.3900 C   0  0  0  0  0  3  0  0  0  0  0  0
  -29.5170  -22.1460   21.4810 C   0  0  0  0  0  3  0  0  0  0  0  0
  -28.6330  -23.8230   19.8710 C   0  0  0  0  0  0  0  0  0  0  0  0
  -29.2610  -21.0350   20.6230 C   0  0  0  0  0  0  0  0  0  0  0  0
  -29.6720  -19.7170   21.0220 N   0  0  0  0  0  0  0  0  0  0  0  0
  -30.2310  -19.6680   21.8720 H   0  0  0  0  0  0  0  0  0  0  0  0
  -29.3750  -18.3900   20.3930 C   0  0  0  0  0  2  0  0  0  0  0  0
  -30.2660  -17.1880   20.9620 C   0  0  0  0  0  2  0  0  0  0  0  0
  -30.5760  -14.6620   20.4620 C   0  0  0  0  0  0  0  0  0  0  0  0
  -30.3660  -12.4260   19.3900 C   0  0  0  0  0  2  0  0  0  0  0  0
  -29.4300  -12.5500   18.1670 C   0  0  0  0  0  2  0  0  0  0  0  0
  -27.9590  -12.3780   18.5900 C   0  0  0  0  0  2  0  0  0  0  0  0
  -27.5880  -13.2350   19.8290 C   0  0  0  0  0  3  0  0  0  0  0  0
  -28.6420  -13.0990   20.9500 C   0  0  0  0  0  2  0  0  0  0  0  0
  -29.9440  -13.4500   20.3690 N   0  0  0  0  0  0  0  0  0  0  0  0
  -31.7490  -14.7950   20.1050 O   0  0  0  0  0  0  0  0  0  0  0  0
  -29.8150  -15.7590   20.7870 N   0  0  0  0  0  0  0  0  0  0  0  0
  -28.8550  -15.5640   21.0260 H   0  0  0  0  0  0  0  0  0  0  0  0
  -25.1870  -13.8010   20.5340 C   0  0  0  0  0  0  0  0  0  0  0  0
  -24.1280  -13.0150   20.8950 C   0  0  0  0  0  0  0  0  0  0  0  0
  -24.6080  -11.6690   20.8710 C   0  0  0  0  0  0  0  0  0  0  0  0
  -26.2420  -12.9340   20.3080 N   0  0  0  0  0  0  0  0  0  0  0  0
  -25.9010  -11.6470   20.5730 N   0  0  0  0  0  0  0  0  0  0  0  0
  -23.8960  -10.3980   21.0600 C   0  0  0  0  0  0  0  0  0  0  0  0
  -24.3410   -9.4320   21.9880 C   0  0  0  0  0  3  0  0  0  0  0  0
  -23.6280   -8.2260   22.1620 C   0  0  0  0  0  3  0  0  0  0  0  0
  -22.4580   -7.9780   21.4060 C   0  0  0  0  0  0  0  0  0  0  0  0
  -22.0330   -8.9330   20.4660 C   0  0  0  0  0  3  0  0  0  0  0  0
  -22.7460  -10.1300   20.2900 C   0  0  0  0  0  3  0  0  0  0  0  0
  -21.7150   -6.8250   21.4900 O   0  0  0  0  0  0  0  0  0  0  0  0
  -21.6820   -6.0730   22.6360 C   0  0  0  0  0  0  0  0  0  0  0  0
  -21.2600   -6.6140   23.8710 C   0  0  0  0  0  3  0  0  0  0  0  0
  -21.1740   -5.7880   25.0090 C   0  0  0  0  0  3  0  0  0  0  0  0
  -21.5020   -4.4220   24.9150 C   0  0  0  0  0  0  0  0  0  0  0  0
  -21.9170   -3.8820   23.6860 C   0  0  0  0  0  3  0  0  0  0  0  0
  -22.0050   -4.7040   22.5500 C   0  0  0  0  0  0  0  0  0  0  0  0
  -22.3870   -4.1730   21.3630 F   0  0  0  0  0  0  0  0  0  0  0  0
  -21.4120   -3.6270   26.0070 F   0  0  0  0  0  0  0  0  0  0  0  0
  -22.7240  -13.4740   21.1590 C   0  0  0  0  0  0  0  0  0  0  0  0
  -22.0010  -12.7660   22.0210 N   0  0  0  0  0  0  0  0  0  0  0  0
  -22.2760  -14.4950   20.6400 O   0  0  0  0  0  0  0  0  0  0  0  0
  -22.3760  -11.9340   22.4540 H   0  0  0  0  0  0  0  0  0  0  0  0
  -21.0630  -13.0570   22.2500 H   0  0  0  0  0  0  0  0  0  0  0  0
  -25.3340  -15.1740   20.3540 N   0  0  0  0  0  0  0  0  0  0  0  0
  -24.5570  -15.8170   20.4530 H   0  0  0  0  0  0  0  0  0  0  0  0
  -26.1730  -15.6190   20.0050 H   0  0  0  0  0  0  0  0  0  0  0  0
  -28.4780  -25.2930   19.3160 C   0  0  0  0  0  2  0  0  0  0  0  0
  -28.3350  -26.4720   20.1990 O   0  0  0  0  0  0  0  0  0  0  0  0
  -24.6130  -31.8710   23.2350 C   0  0  0  0  0  0  0  0  0  0  0  0
  -27.2050  -27.3090   20.1440 C   0  0  0  0  0  0  0  0  0  0  0  0
  -23.4040  -30.4740   21.5990 C   0  0  0  0  0  3  0  0  0  0  0  0
  -24.8460  -28.9310   20.1610 C   0  0  0  0  0  0  0  0  0  0  0  0
  -25.9430  -30.7860   21.4090 C   0  0  0  0  0  2  0  0  0  0  0  0
  -26.0170  -29.4090   20.7580 C   0  0  0  0  0  0  0  0  0  0  0  0
  -27.1970  -28.6080   20.7440 C   0  0  0  0  0  3  0  0  0  0  0  0
  -25.9980  -26.8740   19.5520 C   0  0  0  0  0  3  0  0  0  0  0  0
  -24.8400  -27.6700   19.5470 C   0  0  0  0  0  3  0  0  0  0  0  0
  -23.6120  -29.8080   20.2140 C   0  0  0  0  0  2  0  0  0  0  0  0
  -24.6730  -31.0610   22.1380 N   0  0  0  0  0  0  0  0  0  0  0  0
  -23.5310  -32.1500   23.7700 O   0  0  0  0  0  0  0  0  0  0  0  0
  -22.7430  -29.4540   22.5600 C   0  0  0  0  0  0  0  0  0  0  0  0
  -21.4170  -29.2770   22.4420 N   0  0  0  0  0  0  0  0  0  0  0  0
  -23.4250  -28.8270   23.3750 O   0  0  0  0  0  0  0  0  0  0  0  0
  -20.9230  -29.8420   21.7650 H   0  0  0  0  0  0  0  0  0  0  0  0
  -18.0420  -28.0640   22.9340 C   0  0  0  0  0  0  0  0  0  0  0  0
  -20.5990  -28.3380   23.2130 C   0  0  0  0  0  3  0  0  0  0  0  0
  -20.7090  -26.9020   22.6440 C   0  0  0  0  0  2  0  0  0  0  0  0
  -19.6120  -26.5680   21.6300 C   0  0  0  0  0  2  0  0  0  0  0  0
  -18.2270  -26.7120   22.2670 C   0  0  0  0  0  2  0  0  0  0  0  0
  -19.1570  -28.8350   23.3630 C   0  0  0  0  0  0  0  0  0  0  0  0
  -18.9310  -30.1010   23.9460 C   0  0  0  0  0  3  0  0  0  0  0  0
  -17.6220  -30.5950   24.1060 C   0  0  0  0  0  3  0  0  0  0  0  0
  -16.5230  -29.8210   23.6940 C   0  0  0  0  0  3  0  0  0  0  0  0
  -16.7340  -28.5580   23.1130 C   0  0  0  0  0  3  0  0  0  0  0  0
  -25.8970  -32.5040   23.8520 C   0  0  0  0  0  3  0  0  0  0  0  0
  -26.4170  -31.7380   25.1320 C   0  0  1  0  0  0  0  0  0  0  0  0
  -25.3260  -31.5080   26.2060 C   0  0  0  0  0  1  0  0  0  0  0  0
  -26.9980  -30.3570   24.7460 C   0  0  0  0  0  1  0  0  0  0  0  0
  -27.5700  -32.5360   25.7880 C   0  0  0  0  0  1  0  0  0  0  0  0
  -25.5900  -33.9030   24.1790 N   0  0  0  0  0  0  0  0  0  0  0  0
  -25.9210  -34.9560   23.4210 C   0  0  0  0  0  0  0  0  0  0  0  0
  -26.5880  -34.8510   22.3870 O   0  0  0  0  0  0  0  0  0  0  0  0
  -25.0030  -34.0600   24.9860 H   0  0  0  0  0  0  0  0  0  0  0  0
  -24.1970  -36.7570   23.0680 C   0  0  0  0  0  1  0  0  0  0  0  0
  -25.4360  -36.3440   23.8790 C   0  0  0  0  0  3  0  0  0  0  0  0
  -27.5750  -37.2210   24.7090 C   0  0  0  0  0  1  0  0  0  0  0  0
  -26.4680  -37.3990   23.7730 N   0  0  0  0  0  0  0  0  0  0  0  0
  -26.0610  -38.3160   23.9390 H   0  0  0  0  0  0  0  0  0  0  0  0
  1  3  2  0
  1  5  1  0
  2  4  1  0
  3  6  1  0
  5  2  2  0
  6  7  1  0
  6  4  2  0
  7  8  1  0
  9 10  1  0
  9  7  1  0
 11 19  1  0
 12 17  1  0
 13 14  1  0
 13 12  1  0
 15 14  1  0
 15 24  1  0
 15 16  1  0
 17 11  1  0
 17 16  1  0
 18 11  2  0
 19 10  1  0
 19 20  1  0
 21 22  2  0
 22 41  1  0
 23 22  1  0
 23 26  1  0
 24 21  1  0
 24 25  1  0
 25 23  2  0
 26 27  1  0
 27 28  2  0
 29 32  1  0
 29 28  1  0
 30 29  2  0
 31 30  1  0
 31 26  2  0
 32 33  1  0
 33 34  1  0
 34 35  2  0
 36 35  1  0
 36 40  1  0
 37 36  2  0
 38 33  2  0
 38 37  1  0
 39 38  1  0
 41 42  1  0
 42 45  1  0
 42 44  1  0
 43 41  2  0
 46 47  1  0
 46 21  1  0
 48 46  1  0
 49  5  1  0
 49 50  1  0
 51 62  2  0
 52 50  1  0
 52 57  1  0
 53 61  1  0
 53 63  1  0
 54 60  1  0
 54 56  1  0
 55 61  1  0
 56 55  1  0
 57 56  2  0
 58 52  2  0
 59 58  1  0
 59 54  2  0
 60 53  1  0
 61 51  1  0
 63 65  2  0
 64 63  1  0
 66 64  1  0
 67 76  2  0
 67 72  1  0
 68 64  1  0
 68 72  1  0
 69 68  1  0
 70 71  1  0
 70 69  1  0
 71 67  1  0
 72 73  2  0
 73 74  1  0
 75 74  2  0
 76 75  1  0
 77 51  1  0
 77 82  1  0
 77 78  1  0
 78 81  1  1
 78 79  1  0
 80 78  1  0
 82 85  1  0
 83 87  1  0
 83 82  1  0
 84 83  2  0
 87 86  1  0
 89 87  1  0
 89 90  1  0
 89 88  1  0
M  ISO  4  11 100  19 100  49 101  50 101
M  END
>  <TORSDO>  (87) 
F 20

>  <SCORE>  (87) 
-13.896

>  <name>  (87) 
86

>  <ligand_id>  (87) 
86

>  <original_smiles>  (87) 
[H]c1c([H])c([H])c2c(c1[H])C([H])([H])C([H])([H])C([H])([H])C2([H])N([H])C(=O)C1([H])N(C(=O)C([H])(N([H])C(=O)C([H])(N([H])C([H])([H])[H])C([H])([H])[H])C(C([H])([H])[H])(C([H])([H])[H])C([H])([H])[H])C([H])([H])c2c([H])c(OC([H])([H])c3c([H])c([H])c(N([H])C([H])([H])C([H])([H])N([H])C(=O)N4C([H])([H])C([H])([H])C([H])([H])C([H])(n5nc(-c6c([H])c([H])c(Oc7c([H])c([H])c(F)c([H])c7F)c([H])c6[H])c(C(=O)N([H])[H])c5N([H])[H])C4([H])[H])c([H])c3[H])c([H])c([H])c2C1([H])[H]

>  <smiles>  (87) 
[H]c1c([H])c([H])c2c(c1[H])C([H])([H])C([H])([H])C([H])([H])C2([H])N([H])C(=O)C1([H])N(C(=O)C([H])(N([H])C(=O)C([H])(N([H])C([H])([H])[H])C([H])([H])[H])C(C([H])([H])[H])(C([H])([H])[H])C([H])([H])[H])C([H])([H])c2c([H])c(OC([H])([H])c3c([H])c([H])c(N([H])C([H])([H])C([H])([H])N([H])C(=O)N4C([H])([H])C([H])([H])C([H])([H])C([H])(n5nc(-c6c([H])c([H])c(Oc7c([H])c([H])c(F)c([H])c7F)c([H])c6[H])c(C(=O)N([H])[H])c5N([H])[H])C4([H])[H])c([H])c3[H])c([H])c([H])c2C1([H])[H]

$$$$
87:0:0
     RDKit          3D

 97107  0  0  1  0  0  0  0  0999 V2000
  -28.9750  -21.5660   20.6490 C   0  0  0  0  0  2  0  0  0  0  0  0
  -27.1750  -20.8740   18.8880 C   0  0  0  0  0  2  0  0  0  0  0  0
  -26.8350  -19.6530   18.0400 C   0  0  0  0  0  2  0  0  0  0  0  0
  -28.5580  -20.5630   19.4950 C   0  0  0  0  0  3  0  0  0  0  0  0
  -28.4100  -19.0070   19.7650 C   0  0  0  0  0  3  0  0  0  0  0  0
  -27.5420  -18.5240   18.6630 N   0  0  0  0  0  4  0  0  0  0  0  0
  -28.1080  -18.0940   17.9510 H   0  0  0  0  0  0  0  0  0  0  0  0
  -26.8830  -17.8380   19.0000 H   0  0  0  0  0  0  0  0  0  0  0  0
  -31.2160  -14.7630   20.4710 C   0  0  0  0  0  0  0  0  0  0  0  0
  -30.9860  -12.3700   19.8660 C   0  0  0  0  0  2  0  0  0  0  0  0
  -30.1750  -12.2210   18.5650 C   0  0  0  0  0  2  0  0  0  0  0  0
  -28.6700  -12.1360   18.8780 C   0  0  0  0  0  2  0  0  0  0  0  0
  -28.2020  -13.2500   19.8500 C   0  0  0  0  0  3  0  0  0  0  0  0
  -29.1500  -13.3960   21.0640 C   0  0  0  0  0  2  0  0  0  0  0  0
  -30.5130  -13.5900   20.5520 N   0  0  0  0  0  0  0  0  0  0  0  0
  -32.3980  -14.7630   20.1140 O   0  0  0  0  0  0  0  0  0  0  0  0
  -30.5870  -18.3830   21.0720 C   0  0  0  0  0  2  0  0  0  0  0  0
  -31.4060  -17.0960   21.2860 C   0  0  0  0  0  2  0  0  0  0  0  0
  -29.4520  -16.5380   20.0880 C   0  0  0  0  0  2  0  0  0  0  0  0
  -29.6840  -18.0750   19.8830 C   0  0  0  0  0  3  0  0  0  0  0  0
  -30.6110  -15.9530   20.7990 N   0  0  0  0  0  0  0  0  0  0  0  0
  -25.8190  -14.0130   20.4300 C   0  0  0  0  0  0  0  0  0  0  0  0
  -24.6910  -13.3140   20.7570 C   0  0  0  0  0  0  0  0  0  0  0  0
  -25.0660  -11.9370   20.7660 C   0  0  0  0  0  0  0  0  0  0  0  0
  -26.8170  -13.0640   20.2630 N   0  0  0  0  0  0  0  0  0  0  0  0
  -26.3650  -11.8130   20.5260 N   0  0  0  0  0  0  0  0  0  0  0  0
  -24.2540  -10.7250   20.9280 C   0  0  0  0  0  0  0  0  0  0  0  0
  -24.6090   -9.7190   21.8530 C   0  0  0  0  0  3  0  0  0  0  0  0
  -23.8030   -8.5700   22.0060 C   0  0  0  0  0  3  0  0  0  0  0  0
  -22.6270   -8.4210   21.2320 C   0  0  0  0  0  0  0  0  0  0  0  0
  -22.2900   -9.4140   20.2970 C   0  0  0  0  0  3  0  0  0  0  0  0
  -23.0950  -10.5540   20.1420 C   0  0  0  0  0  3  0  0  0  0  0  0
  -21.7950   -7.3280   21.2950 O   0  0  0  0  0  0  0  0  0  0  0  0
  -21.6900   -6.5680   22.4330 C   0  0  0  0  0  0  0  0  0  0  0  0
  -21.2650   -7.1200   23.6610 C   0  0  0  0  0  3  0  0  0  0  0  0
  -21.1030   -6.2890   24.7880 C   0  0  0  0  0  3  0  0  0  0  0  0
  -21.3580   -4.9090   24.6870 C   0  0  0  0  0  0  0  0  0  0  0  0
  -21.7780   -4.3570   23.4640 C   0  0  0  0  0  3  0  0  0  0  0  0
  -21.9400   -5.1840   22.3400 C   0  0  0  0  0  0  0  0  0  0  0  0
  -22.3220   -4.6430   21.1580 F   0  0  0  0  0  0  0  0  0  0  0  0
  -21.1940   -4.1100   25.7680 F   0  0  0  0  0  0  0  0  0  0  0  0
  -23.3130  -13.8830   20.9340 C   0  0  0  0  0  0  0  0  0  0  0  0
  -22.4980  -13.2650   21.7830 N   0  0  0  0  0  0  0  0  0  0  0  0
  -22.9740  -14.9120   20.3520 O   0  0  0  0  0  0  0  0  0  0  0  0
  -22.7890  -12.4370   22.2780 H   0  0  0  0  0  0  0  0  0  0  0  0
  -21.5690  -13.6300   21.9400 H   0  0  0  0  0  0  0  0  0  0  0  0
  -26.0730  -15.3670   20.2130 N   0  0  0  0  0  0  0  0  0  0  0  0
  -25.1990  -15.8710   20.1110 H   0  0  0  0  0  0  0  0  0  0  0  0
  -26.6500  -15.4810   19.3900 H   0  0  0  0  0  0  0  0  0  0  0  0
  -27.4670  -24.3270   22.3890 C   0  0  0  0  0  2  0  0  0  0  0  0
  -28.9560  -24.5830   22.1890 C   0  0  0  0  0  2  0  0  0  0  0  0
  -27.1860  -23.0910   21.5210 C   0  0  0  0  0  2  0  0  0  0  0  0
  -29.1790  -24.1720   20.7310 C   0  0  0  0  0  3  0  0  0  0  0  0
  -28.3250  -22.9350   20.5660 N   0  0  1  0  0  4  0  0  0  0  0  0
  -27.9540  -22.9870   19.6270 H   0  0  0  0  0  0  0  0  0  0  0  0
  -28.7070  -25.3120   19.7490 C   0  0  0  0  0  2  0  0  0  0  0  0
  -28.7960  -26.7090   20.1890 O   0  0  0  0  0  0  0  0  0  0  0  0
  -24.7270  -31.7380   23.2900 C   0  0  0  0  0  0  0  0  0  0  0  0
  -27.6410  -27.4890   20.1110 C   0  0  0  0  0  0  0  0  0  0  0  0
  -23.6480  -30.3900   21.5250 C   0  0  0  0  0  3  0  0  0  0  0  0
  -25.2160  -28.9820   20.0880 C   0  0  0  0  0  0  0  0  0  0  0  0
  -26.1770  -30.8110   21.4830 C   0  0  0  0  0  2  0  0  0  0  0  0
  -26.3330  -29.4780   20.7720 C   0  0  0  0  0  0  0  0  0  0  0  0
  -27.5450  -28.7350   20.7900 C   0  0  0  0  0  3  0  0  0  0  0  0
  -26.5120  -27.0630   19.3700 C   0  0  0  0  0  3  0  0  0  0  0  0
  -25.3050  -27.7760   19.3830 C   0  0  0  0  0  3  0  0  0  0  0  0
  -23.9480  -29.8050   20.1220 C   0  0  0  0  0  2  0  0  0  0  0  0
  -24.8650  -30.9940   22.1570 N   0  0  0  0  0  0  0  0  0  0  0  0
  -23.6120  -31.9520   23.7860 O   0  0  0  0  0  0  0  0  0  0  0  0
  -22.9860  -29.2960   22.3960 C   0  0  0  0  0  0  0  0  0  0  0  0
  -21.6680  -29.1030   22.2210 N   0  0  0  0  0  0  0  0  0  0  0  0
  -23.6570  -28.6310   23.1900 O   0  0  0  0  0  0  0  0  0  0  0  0
  -21.1860  -29.6950   21.5610 H   0  0  0  0  0  0  0  0  0  0  0  0
  -18.2900  -27.8710   22.6030 C   0  0  0  0  0  0  0  0  0  0  0  0
  -20.8460  -28.1050   22.9070 C   0  0  0  0  0  3  0  0  0  0  0  0
  -20.9520  -26.7260   22.2150 C   0  0  0  0  0  2  0  0  0  0  0  0
  -19.8540  -26.4870   21.1730 C   0  0  0  0  0  2  0  0  0  0  0  0
  -18.4690  -26.5800   21.8220 C   0  0  0  0  0  2  0  0  0  0  0  0
  -19.4070  -28.5940   23.0990 C   0  0  0  0  0  0  0  0  0  0  0  0
  -19.1870  -29.8050   23.7910 C   0  0  0  0  0  3  0  0  0  0  0  0
  -17.8820  -30.2930   23.9900 C   0  0  0  0  0  3  0  0  0  0  0  0
  -16.7790  -29.5660   23.5090 C   0  0  0  0  0  3  0  0  0  0  0  0
  -16.9840  -28.3570   22.8210 C   0  0  0  0  0  3  0  0  0  0  0  0
  -25.9600  -32.3760   24.0030 C   0  0  0  0  0  3  0  0  0  0  0  0
  -26.3890  -31.6050   25.3120 C   0  0  1  0  0  0  0  0  0  0  0  0
  -25.2230  -31.3580   26.2970 C   0  0  0  0  0  1  0  0  0  0  0  0
  -27.0100  -30.2340   24.9610 C   0  0  0  0  0  1  0  0  0  0  0  0
  -27.4810  -32.4080   26.0570 C   0  0  0  0  0  1  0  0  0  0  0  0
  -25.6190  -33.7710   24.3120 N   0  0  0  0  0  0  0  0  0  0  0  0
  -25.9710  -34.8240   23.5620 C   0  0  0  0  0  0  0  0  0  0  0  0
  -26.6900  -34.7240   22.5630 O   0  0  0  0  0  0  0  0  0  0  0  0
  -24.9880  -33.9210   25.0840 H   0  0  0  0  0  0  0  0  0  0  0  0
  -24.2260  -36.5820   23.1270 C   0  0  0  0  0  1  0  0  0  0  0  0
  -25.4440  -36.2080   23.9870 C   0  0  0  0  0  3  0  0  0  0  0  0
  -27.5240  -37.1450   24.8950 C   0  0  0  0  0  1  0  0  0  0  0  0
  -26.4620  -37.2780   23.9010 N   0  0  0  0  0  0  0  0  0  0  0  0
  -26.0340  -38.1930   24.0140 H   0  0  0  0  0  0  0  0  0  0  0  0
  2  4  1  0
  3  6  1  0
  3  2  1  0
  4  5  1  0
  4  1  1  0
  5  6  1  0
  5 20  1  0
  6  8  1  0
  7  6  1  0
  9 15  1  0
  9 21  1  0
 10 15  1  0
 11 12  1  0
 11 10  1  0
 13 12  1  0
 13 25  1  0
 13 14  1  0
 15 14  1  0
 16  9  2  0
 17 18  1  0
 19 21  1  0
 20 19  1  0
 20 17  1  0
 21 18  1  0
 22 23  2  0
 23 24  1  0
 23 42  1  0
 24 27  1  0
 25 22  1  0
 25 26  1  0
 26 24  2  0
 27 28  1  0
 28 29  2  0
 30 33  1  0
 30 29  1  0
 31 30  2  0
 32 31  1  0
 32 27  2  0
 33 34  1  0
 34 35  1  0
 35 36  2  0
 37 36  1  0
 37 41  1  0
 38 37  2  0
 39 34  2  0
 39 38  1  0
 40 39  1  0
 42 43  1  0
 43 46  1  0
 43 45  1  0
 44 42  2  0
 47 22  1  0
 48 47  1  0
 49 47  1  0
 51 50  1  0
 52 50  1  0
 53 56  1  0
 53 51  1  0
 54  1  1  0
 54 53  1  0
 54 52  1  0
 54 55  1  6
 56 57  1  0
 58 69  2  0
 59 57  1  0
 59 64  1  0
 60 68  1  0
 60 70  1  0
 61 67  1  0
 61 63  1  0
 62 68  1  0
 63 64  2  0
 63 62  1  0
 65 66  1  0
 65 59  2  0
 66 61  2  0
 67 60  1  0
 68 58  1  0
 70 72  2  0
 71 70  1  0
 73 71  1  0
 74 83  2  0
 74 79  1  0
 75 71  1  0
 75 79  1  0
 76 75  1  0
 77 78  1  0
 77 76  1  0
 78 74  1  0
 79 80  2  0
 80 81  1  0
 82 81  2  0
 83 82  1  0
 84 58  1  0
 84 89  1  0
 84 85  1  0
 85 88  1  1
 85 86  1  0
 87 85  1  0
 89 92  1  0
 90 94  1  0
 90 89  1  0
 91 90  2  0
 94 93  1  0
 96 94  1  0
 96 97  1  0
 96 95  1  0
M  ISO  4   9 100  21 100  56 101  57 101
M  END
>  <TORSDO>  (88) 
F 19

>  <SCORE>  (88) 
-13.652

>  <name>  (88) 
87

>  <ligand_id>  (88) 
87

>  <original_smiles>  (88) 
[H]c1c([H])c([H])c2c(c1[H])C([H])([H])C([H])([H])C([H])([H])C2([H])N([H])C(=O)C1([H])N(C(=O)C([H])(N([H])C(=O)C([H])(N([H])C([H])([H])[H])C([H])([H])[H])C(C([H])([H])[H])(C([H])([H])[H])C([H])([H])[H])C([H])([H])c2c([H])c(OC([H])([H])C3([H])C([H])([H])C([H])([H])C([H])([H])[N+]3([H])C([H])([H])C3([H])C([H])([H])C([H])([H])[N+]([H])([H])C3([H])C3([H])C([H])([H])N(C(=O)N4C([H])([H])C([H])([H])C([H])([H])C([H])(n5nc(-c6c([H])c([H])c(Oc7c([H])c([H])c(F)c([H])c7F)c([H])c6[H])c(C(=O)N([H])[H])c5N([H])[H])C4([H])[H])C([H])([H])C3([H])[H])c([H])c([H])c2C1([H])[H]

>  <smiles>  (88) 
[H]c1c([H])c([H])c2c(c1[H])C([H])([H])C([H])([H])C([H])([H])C2([H])N([H])C(=O)C1([H])N(C(=O)C([H])(N([H])C(=O)C([H])(N([H])C([H])([H])[H])C([H])([H])[H])C(C([H])([H])[H])(C([H])([H])[H])C([H])([H])[H])C([H])([H])c2c([H])c(OC([H])([H])C3([H])C([H])([H])C([H])([H])C([H])([H])[N+]3([H])C([H])([H])C3([H])C([H])([H])C([H])([H])[N+]([H])([H])C3([H])C3([H])C([H])([H])N(C(=O)N4C([H])([H])C([H])([H])C([H])([H])C([H])(n5nc(-c6c([H])c([H])c(Oc7c([H])c([H])c(F)c([H])c7F)c([H])c6[H])c(C(=O)N([H])[H])c5N([H])[H])C4([H])[H])C([H])([H])C3([H])[H])c([H])c([H])c2C1([H])[H]

$$$$
88:0:0
     RDKit          3D

 95104  0  0  1  0  0  0  0  0999 V2000
  -29.1880  -20.7940   19.0090 C   0  0  0  0  0  2  0  0  0  0  0  0
  -29.2510  -19.7820   17.8520 C   0  0  0  0  0  2  0  0  0  0  0  0
  -29.3290  -16.2530   18.6330 C   0  0  0  0  0  3  0  0  0  0  0  0
  -28.6480  -17.4230   18.4850 C   0  0  0  0  0  3  0  0  0  0  0  0
  -30.8410  -17.8620   18.3440 C   0  0  0  0  0  3  0  0  0  0  0  0
  -30.7280  -16.5090   18.5600 C   0  0  0  0  0  0  0  0  0  0  0  0
  -29.5730  -18.4190   18.2490 N   0  0  0  0  0  0  0  0  0  0  0  0
  -31.0930  -14.3970   20.7680 C   0  0  0  0  0  0  0  0  0  0  0  0
  -30.4720  -12.1780   20.0070 C   0  0  0  0  0  2  0  0  0  0  0  0
  -29.6720  -12.3940   18.7240 C   0  0  0  0  0  2  0  0  0  0  0  0
  -28.1800  -12.3820   19.0820 C   0  0  0  0  0  2  0  0  0  0  0  0
  -27.7900  -13.2760   20.2990 C   0  0  0  0  0  3  0  0  0  0  0  0
  -28.8570  -13.2490   21.4480 C   0  0  0  0  0  2  0  0  0  0  0  0
  -30.2130  -13.3490   20.8380 N   0  0  0  0  0  0  0  0  0  0  0  0
  -31.2960  -15.2450   21.6000 O   0  0  0  0  0  0  0  0  0  0  0  0
  -34.1170  -14.8310   18.7630 C   0  0  0  0  0  2  0  0  0  0  0  0
  -33.2460  -16.0190   18.4110 C   0  0  0  0  0  2  0  0  0  0  0  0
  -33.3230  -14.1380   19.8710 C   0  0  0  0  0  2  0  0  0  0  0  0
  -31.8310  -15.4550   18.5740 C   0  0  0  0  0  3  0  0  0  0  0  0
  -31.8920  -14.4450   19.6660 N   0  0  0  0  0  0  0  0  0  0  0  0
  -25.3150  -13.8420   20.7770 C   0  0  0  0  0  0  0  0  0  0  0  0
  -24.2260  -13.0520   21.0420 C   0  0  0  0  0  0  0  0  0  0  0  0
  -24.7150  -11.7110   21.0840 C   0  0  0  0  0  0  0  0  0  0  0  0
  -26.4060  -12.9840   20.6990 N   0  0  0  0  0  0  0  0  0  0  0  0
  -26.0370  -11.6970   20.9360 N   0  0  0  0  0  0  0  0  0  0  0  0
  -23.9950  -10.4370   21.2150 C   0  0  0  0  0  0  0  0  0  0  0  0
  -24.3630   -9.4810   22.1870 C   0  0  0  0  0  3  0  0  0  0  0  0
  -23.6440   -8.2740   22.3170 C   0  0  0  0  0  3  0  0  0  0  0  0
  -22.5400   -8.0110   21.4710 C   0  0  0  0  0  0  0  0  0  0  0  0
  -22.1880   -8.9570   20.4900 C   0  0  0  0  0  3  0  0  0  0  0  0
  -22.9080  -10.1570   20.3600 C   0  0  0  0  0  3  0  0  0  0  0  0
  -21.8000   -6.8540   21.5070 O   0  0  0  0  0  0  0  0  0  0  0  0
  -21.6850   -6.1070   22.6520 C   0  0  0  0  0  0  0  0  0  0  0  0
  -21.1650   -6.6530   23.8460 C   0  0  0  0  0  3  0  0  0  0  0  0
  -20.9980   -5.8330   24.9810 C   0  0  0  0  0  3  0  0  0  0  0  0
  -21.3410   -4.4680   24.9210 C   0  0  0  0  0  0  0  0  0  0  0  0
  -21.8530   -3.9220   23.7300 C   0  0  0  0  0  3  0  0  0  0  0  0
  -22.0220   -4.7400   22.5980 C   0  0  0  0  0  0  0  0  0  0  0  0
  -22.4930   -4.2020   21.4480 F   0  0  0  0  0  0  0  0  0  0  0  0
  -21.1760   -3.6780   26.0070 F   0  0  0  0  0  0  0  0  0  0  0  0
  -22.7960  -13.5030   21.1560 C   0  0  0  0  0  0  0  0  0  0  0  0
  -21.9990  -12.8150   21.9670 N   0  0  0  0  0  0  0  0  0  0  0  0
  -22.3890  -14.5020   20.5660 O   0  0  0  0  0  0  0  0  0  0  0  0
  -22.3390  -12.0090   22.4700 H   0  0  0  0  0  0  0  0  0  0  0  0
  -21.0350  -13.0950   22.0810 H   0  0  0  0  0  0  0  0  0  0  0  0
  -25.4630  -15.2110   20.5760 N   0  0  0  0  0  0  0  0  0  0  0  0
  -24.6780  -15.8540   20.5830 H   0  0  0  0  0  0  0  0  0  0  0  0
  -26.3470  -15.6660   20.3910 H   0  0  0  0  0  0  0  0  0  0  0  0
  -28.8890  -22.2140   18.4790 C   0  0  0  0  0  2  0  0  0  0  0  0
  -28.7320  -23.2170   19.5530 N   0  0  0  0  0  4  0  0  0  0  0  0
  -29.5580  -23.2180   20.1320 H   0  0  0  0  0  0  0  0  0  0  0  0
  -27.9530  -22.9450   20.1340 H   0  0  0  0  0  0  0  0  0  0  0  0
  -28.4960  -24.5940   19.0540 C   0  0  0  0  0  2  0  0  0  0  0  0
  -28.2930  -25.5810   20.2140 C   0  0  0  0  0  2  0  0  0  0  0  0
  -28.2660  -26.9250   19.7350 O   0  0  0  0  0  0  0  0  0  0  0  0
  -24.5170  -31.9190   23.0870 C   0  0  0  0  0  0  0  0  0  0  0  0
  -27.0640  -27.5890   19.8060 C   0  0  0  0  0  0  0  0  0  0  0  0
  -23.2520  -30.5480   21.4610 C   0  0  0  0  0  3  0  0  0  0  0  0
  -24.6540  -29.0500   19.9530 C   0  0  0  0  0  0  0  0  0  0  0  0
  -25.7630  -30.9360   21.1670 C   0  0  0  0  0  2  0  0  0  0  0  0
  -25.8300  -29.5820   20.4950 C   0  0  0  0  0  0  0  0  0  0  0  0
  -27.0370  -28.8600   20.4150 C   0  0  0  0  0  3  0  0  0  0  0  0
  -25.8700  -27.0580   19.2650 C   0  0  0  0  0  3  0  0  0  0  0  0
  -24.6670  -27.7850   19.3370 C   0  0  0  0  0  3  0  0  0  0  0  0
  -23.4090  -29.8970   20.0610 C   0  0  0  0  0  2  0  0  0  0  0  0
  -24.5320  -31.1460   21.9640 N   0  0  0  0  0  0  0  0  0  0  0  0
  -23.4570  -32.1720   23.6750 O   0  0  0  0  0  0  0  0  0  0  0  0
  -22.6460  -29.5010   22.4210 C   0  0  0  0  0  0  0  0  0  0  0  0
  -21.3180  -29.3150   22.3390 N   0  0  0  0  0  0  0  0  0  0  0  0
  -23.3640  -28.8600   23.1940 O   0  0  0  0  0  0  0  0  0  0  0  0
  -20.8000  -29.8860   21.6850 H   0  0  0  0  0  0  0  0  0  0  0  0
  -17.9710  -28.0870   22.9120 C   0  0  0  0  0  0  0  0  0  0  0  0
  -20.5320  -28.3570   23.1150 C   0  0  0  0  0  3  0  0  0  0  0  0
  -20.6290  -26.9360   22.5110 C   0  0  0  0  0  2  0  0  0  0  0  0
  -19.5000  -26.6230   21.5240 C   0  0  0  0  0  2  0  0  0  0  0  0
  -18.1370  -26.7480   22.2090 C   0  0  0  0  0  2  0  0  0  0  0  0
  -19.0960  -28.8480   23.3220 C   0  0  0  0  0  0  0  0  0  0  0  0
  -18.8850  -30.1020   23.9360 C   0  0  0  0  0  3  0  0  0  0  0  0
  -17.5820  -30.5920   24.1470 C   0  0  0  0  0  3  0  0  0  0  0  0
  -16.4730  -29.8250   23.7530 C   0  0  0  0  0  3  0  0  0  0  0  0
  -16.6680  -28.5740   23.1390 C   0  0  0  0  0  3  0  0  0  0  0  0
  -25.8260  -32.5390   23.6720 C   0  0  0  0  0  3  0  0  0  0  0  0
  -25.5220  -33.9220   24.0600 N   0  0  0  0  0  0  0  0  0  0  0  0
  -25.8440  -35.0030   23.3340 C   0  0  0  0  0  0  0  0  0  0  0  0
  -26.4970  -34.9370   22.2900 O   0  0  0  0  0  0  0  0  0  0  0  0
  -24.9380  -34.0470   24.8740 H   0  0  0  0  0  0  0  0  0  0  0  0
  -24.1170  -36.8100   23.0660 C   0  0  0  0  0  1  0  0  0  0  0  0
  -25.3620  -36.3710   23.8520 C   0  0  0  0  0  3  0  0  0  0  0  0
  -27.5070  -37.2140   24.6980 C   0  0  0  0  0  1  0  0  0  0  0  0
  -26.3960  -37.4260   23.7740 N   0  0  0  0  0  0  0  0  0  0  0  0
  -25.9950  -38.3400   23.9630 H   0  0  0  0  0  0  0  0  0  0  0  0
  -26.4080  -31.7270   24.8930 C   0  0  1  0  0  0  0  0  0  0  0  0
  -25.3710  -31.4430   26.0050 C   0  0  0  0  0  1  0  0  0  0  0  0
  -26.9760  -30.3690   24.4200 C   0  0  0  0  0  1  0  0  0  0  0  0
  -27.5860  -32.5040   25.5250 C   0  0  0  0  0  1  0  0  0  0  0  0
  2  7  1  0
  2  1  1  0
  4  3  2  0
  5  6  2  0
  6  3  1  0
  7  5  1  0
  7  4  1  0
  8 14  1  0
  8 15  2  0
  9 14  1  0
 10 11  1  0
 10  9  1  0
 12 11  1  0
 12 24  1  0
 12 13  1  0
 14 13  1  0
 16 18  1  0
 17 19  1  0
 17 16  1  0
 19  6  1  0
 19 20  1  0
 20 18  1  0
 20  8  1  0
 21 22  2  0
 22 23  1  0
 22 41  1  0
 23 26  1  0
 24 21  1  0
 24 25  1  0
 25 23  2  0
 26 27  1  0
 27 28  2  0
 29 32  1  0
 29 28  1  0
 30 29  2  0
 31 30  1  0
 31 26  2  0
 32 33  1  0
 33 34  1  0
 34 35  2  0
 36 35  1  0
 36 40  1  0
 37 36  2  0
 38 33  2  0
 38 37  1  0
 39 38  1  0
 41 42  1  0
 42 45  1  0
 42 44  1  0
 43 41  2  0
 46 47  1  0
 46 21  1  0
 48 46  1  0
 49  1  1  0
 49 50  1  0
 50 51  1  0
 50 52  1  0
 53 50  1  0
 53 54  1  0
 55 57  1  0
 55 54  1  0
 56 67  2  0
 57 62  1  0
 58 66  1  0
 58 68  1  0
 59 65  1  0
 59 61  1  0
 60 66  1  0
 61 60  1  0
 62 61  2  0
 63 64  1  0
 63 57  2  0
 64 59  2  0
 65 58  1  0
 66 56  1  0
 68 70  2  0
 69 68  1  0
 71 69  1  0
 72 81  2  0
 72 77  1  0
 73 69  1  0
 73 77  1  0
 74 73  1  0
 75 76  1  0
 75 74  1  0
 76 72  1  0
 77 78  2  0
 78 79  1  0
 80 79  2  0
 81 80  1  0
 82 56  1  0
 82 83  1  0
 82 92  1  0
 83 86  1  0
 84 88  1  0
 84 83  1  0
 85 84  2  0
 88 87  1  0
 90 88  1  0
 90 91  1  0
 90 89  1  0
 92 95  1  1
 92 93  1  0
 94 92  1  0
M  ISO  4   8 100  20 100  54 101  55 101
M  END
>  <TORSDO>  (89) 
F 22

>  <SCORE>  (89) 
-12.359

>  <name>  (89) 
88

>  <ligand_id>  (89) 
88

>  <original_smiles>  (89) 
[H]c1c([H])c([H])c2c(c1[H])C([H])([H])C([H])([H])C([H])([H])C2([H])N([H])C(=O)C1([H])N(C(=O)C([H])(N([H])C(=O)C([H])(N([H])C([H])([H])[H])C([H])([H])[H])C(C([H])([H])[H])(C([H])([H])[H])C([H])([H])[H])C([H])([H])c2c([H])c(OC([H])([H])C([H])([H])[N+]([H])([H])C([H])([H])C([H])([H])C([H])([H])n3c([H])c([H])c(C4([H])N(C(=O)N5C([H])([H])C([H])([H])C([H])([H])C([H])(n6nc(-c7c([H])c([H])c(Oc8c([H])c([H])c(F)c([H])c8F)c([H])c7[H])c(C(=O)N([H])[H])c6N([H])[H])C5([H])[H])C([H])([H])C([H])([H])C4([H])[H])c3[H])c([H])c([H])c2C1([H])[H]

>  <smiles>  (89) 
[H]c1c([H])c([H])c2c(c1[H])C([H])([H])C([H])([H])C([H])([H])C2([H])N([H])C(=O)C1([H])N(C(=O)C([H])(N([H])C(=O)C([H])(N([H])C([H])([H])[H])C([H])([H])[H])C(C([H])([H])[H])(C([H])([H])[H])C([H])([H])[H])C([H])([H])c2c([H])c(OC([H])([H])C([H])([H])[N+]([H])([H])C([H])([H])C([H])([H])C([H])([H])n3c([H])c([H])c(C4([H])N(C(=O)N5C([H])([H])C([H])([H])C([H])([H])C([H])(n6nc(-c7c([H])c([H])c(Oc8c([H])c([H])c(F)c([H])c8F)c([H])c7[H])c(C(=O)N([H])[H])c6N([H])[H])C5([H])[H])C([H])([H])C([H])([H])C4([H])[H])c3[H])c([H])c([H])c2C1([H])[H]

$$$$
89:0:0
     RDKit          3D

 99108  0  0  1  0  0  0  0  0999 V2000
  -29.9970  -20.1530   21.3550 C   0  0  0  0  0  3  0  0  0  0  0  0
  -30.2120  -18.7750   21.5570 C   0  0  0  0  0  3  0  0  0  0  0  0
  -29.3590  -19.7120   19.0660 C   0  0  0  0  0  3  0  0  0  0  0  0
  -29.6460  -20.6480   20.0740 C   0  0  0  0  0  0  0  0  0  0  0  0
  -29.9820  -17.8400   20.5220 C   0  0  0  0  0  0  0  0  0  0  0  0
  -29.3150  -18.3270   19.3620 C   0  0  0  0  0  0  0  0  0  0  0  0
  -30.9920  -16.6570   20.5140 C   0  0  0  0  0  2  0  0  0  0  0  0
  -31.3030  -14.2250   20.1960 C   0  0  0  0  0  0  0  0  0  0  0  0
  -30.8300  -12.1980   18.8600 C   0  0  0  0  0  2  0  0  0  0  0  0
  -29.8110  -12.5440   17.7450 C   0  0  0  0  0  2  0  0  0  0  0  0
  -28.3630  -12.4640   18.2620 C   0  0  0  0  0  2  0  0  0  0  0  0
  -28.1750  -13.1990   19.6120 C   0  0  0  0  0  3  0  0  0  0  0  0
  -29.2650  -12.8150   20.6280 C   0  0  0  0  0  2  0  0  0  0  0  0
  -30.5730  -13.0920   20.0080 N   0  0  0  0  0  0  0  0  0  0  0  0
  -32.4150  -14.3850   19.6690 O   0  0  0  0  0  0  0  0  0  0  0  0
  -30.6520  -15.2530   20.7920 N   0  0  0  0  0  0  0  0  0  0  0  0
  -29.7010  -15.0460   21.0620 H   0  0  0  0  0  0  0  0  0  0  0  0
  -25.8720  -13.8880   20.5170 C   0  0  0  0  0  0  0  0  0  0  0  0
  -24.7930  -13.1610   20.9190 C   0  0  0  0  0  0  0  0  0  0  0  0
  -25.1760  -11.7880   20.7750 C   0  0  0  0  0  0  0  0  0  0  0  0
  -26.8490  -12.9730   20.1660 N   0  0  0  0  0  0  0  0  0  0  0  0
  -26.4380  -11.7000   20.3820 N   0  0  0  0  0  0  0  0  0  0  0  0
  -24.4010  -10.5520   20.9500 C   0  0  0  0  0  0  0  0  0  0  0  0
  -24.8120   -9.5310   21.8420 C   0  0  0  0  0  3  0  0  0  0  0  0
  -24.0360   -8.3630   21.9900 C   0  0  0  0  0  3  0  0  0  0  0  0
  -22.8400   -8.2070   21.2530 C   0  0  0  0  0  0  0  0  0  0  0  0
  -22.4550   -9.2070   20.3450 C   0  0  0  0  0  3  0  0  0  0  0  0
  -23.2280  -10.3670   20.1890 C   0  0  0  0  0  3  0  0  0  0  0  0
  -22.0330   -7.0980   21.3170 O   0  0  0  0  0  0  0  0  0  0  0  0
  -21.8700   -6.3940   22.4820 C   0  0  0  0  0  0  0  0  0  0  0  0
  -21.3850   -7.0120   23.6550 C   0  0  0  0  0  3  0  0  0  0  0  0
  -21.1640   -6.2430   24.8150 C   0  0  0  0  0  3  0  0  0  0  0  0
  -21.4160   -4.8580   24.8040 C   0  0  0  0  0  0  0  0  0  0  0  0
  -21.8930   -4.2410   23.6330 C   0  0  0  0  0  3  0  0  0  0  0  0
  -22.1140   -5.0060   22.4750 C   0  0  0  0  0  0  0  0  0  0  0  0
  -22.5560   -4.4070   21.3430 F   0  0  0  0  0  0  0  0  0  0  0  0
  -21.1940   -4.1130   25.9120 F   0  0  0  0  0  0  0  0  0  0  0  0
  -23.4410  -13.6830   21.3210 C   0  0  0  0  0  0  0  0  0  0  0  0
  -22.7530  -12.9870   22.2150 N   0  0  0  0  0  0  0  0  0  0  0  0
  -23.0190  -14.7550   20.8760 O   0  0  0  0  0  0  0  0  0  0  0  0
  -23.1090  -12.1220   22.6010 H   0  0  0  0  0  0  0  0  0  0  0  0
  -21.8550  -13.3190   22.5330 H   0  0  0  0  0  0  0  0  0  0  0  0
  -26.0880  -15.2560   20.3580 N   0  0  0  0  0  0  0  0  0  0  0  0
  -25.2700  -15.8550   20.3270 H   0  0  0  0  0  0  0  0  0  0  0  0
  -26.7950  -15.5570   19.7050 H   0  0  0  0  0  0  0  0  0  0  0  0
  -28.2010  -17.5510   18.6480 C   0  0  0  0  0  2  0  0  0  0  0  0
  -24.7260  -19.0160   19.1070 C   0  0  0  0  0  2  0  0  0  0  0  0
  -25.2140  -19.7260   17.8360 C   0  0  0  0  0  2  0  0  0  0  0  0
  -25.8360  -17.9960   19.4720 C   0  0  0  0  0  2  0  0  0  0  0  0
  -26.4460  -18.9250   17.4190 C   0  0  0  0  0  2  0  0  0  0  0  0
  -27.0020  -18.4390   18.6940 N   0  0  2  0  0  4  0  0  0  0  0  0
  -27.3340  -19.2580   19.1980 H   0  0  0  0  0  0  0  0  0  0  0  0
  -29.5200  -22.1410   19.7610 C   0  0  0  0  0  2  0  0  0  0  0  0
  -30.7260  -22.8860   20.1730 N   0  0  0  0  0  4  0  0  0  0  0  0
  -31.3610  -22.8900   19.3900 H   0  0  0  0  0  0  0  0  0  0  0  0
  -31.1370  -22.3040   20.8840 H   0  0  0  0  0  0  0  0  0  0  0  0
  -30.5150  -24.2480   20.7590 C   0  0  0  0  0  2  0  0  0  0  0  0
  -29.6200  -25.1710   19.9040 C   0  0  0  0  0  2  0  0  0  0  0  0
  -29.4800  -26.4670   20.5120 O   0  0  0  0  0  0  0  0  0  0  0  0
  -25.2170  -31.3370   23.4470 C   0  0  0  0  0  0  0  0  0  0  0  0
  -28.2670  -27.1210   20.4120 C   0  0  0  0  0  0  0  0  0  0  0  0
  -24.2040  -29.9580   21.6610 C   0  0  0  0  0  3  0  0  0  0  0  0
  -25.8180  -28.5380   20.3000 C   0  0  0  0  0  0  0  0  0  0  0  0
  -26.7270  -30.4010   21.7070 C   0  0  0  0  0  2  0  0  0  0  0  0
  -26.9070  -29.0770   21.0000 C   0  0  0  0  0  0  0  0  0  0  0  0
  -28.1320  -28.3700   21.0530 C   0  0  0  0  0  3  0  0  0  0  0  0
  -27.1550  -26.5920   19.7060 C   0  0  0  0  0  3  0  0  0  0  0  0
  -25.9400  -27.3000   19.6450 C   0  0  0  0  0  3  0  0  0  0  0  0
  -24.5510  -29.3570   20.2800 C   0  0  0  0  0  2  0  0  0  0  0  0
  -25.3930  -30.5860   22.3240 N   0  0  0  0  0  0  0  0  0  0  0  0
  -24.0870  -31.5570   23.9030 O   0  0  0  0  0  0  0  0  0  0  0  0
  -23.5030  -28.8890   22.5280 C   0  0  0  0  0  0  0  0  0  0  0  0
  -22.2070  -28.6620   22.2650 N   0  0  0  0  0  0  0  0  0  0  0  0
  -24.1350  -28.2830   23.3970 O   0  0  0  0  0  0  0  0  0  0  0  0
  -21.7960  -29.1040   21.4520 H   0  0  0  0  0  0  0  0  0  0  0  0
  -18.8390  -27.4110   22.4700 C   0  0  0  0  0  0  0  0  0  0  0  0
  -21.3560  -27.7100   22.9740 C   0  0  0  0  0  3  0  0  0  0  0  0
  -21.5110  -26.3070   22.3390 C   0  0  0  0  0  2  0  0  0  0  0  0
  -20.5530  -26.1590   21.1530 C   0  0  0  0  0  2  0  0  0  0  0  0
  -19.1220  -26.1130   21.7210 C   0  0  0  0  0  2  0  0  0  0  0  0
  -19.8890  -28.1800   23.0490 C   0  0  0  0  0  0  0  0  0  0  0  0
  -19.5730  -29.4090   23.6910 C   0  0  0  0  0  3  0  0  0  0  0  0
  -18.2450  -29.8750   23.7420 C   0  0  0  0  0  3  0  0  0  0  0  0
  -17.2210  -29.1020   23.1740 C   0  0  0  0  0  3  0  0  0  0  0  0
  -17.5090  -27.8640   22.5670 C   0  0  0  0  0  3  0  0  0  0  0  0
  -26.4210  -31.9730   24.2030 C   0  0  0  0  0  3  0  0  0  0  0  0
  -26.0750  -33.3730   24.4920 N   0  0  0  0  0  0  0  0  0  0  0  0
  -26.4870  -34.4220   23.7680 C   0  0  0  0  0  0  0  0  0  0  0  0
  -27.2640  -34.3160   22.8150 O   0  0  0  0  0  0  0  0  0  0  0  0
  -25.3950  -33.5280   25.2240 H   0  0  0  0  0  0  0  0  0  0  0  0
  -24.7970  -36.1930   23.2320 C   0  0  0  0  0  1  0  0  0  0  0  0
  -25.9550  -35.8100   24.1650 C   0  0  0  0  0  3  0  0  0  0  0  0
  -27.9930  -36.7100   25.1930 C   0  0  0  0  0  1  0  0  0  0  0  0
  -26.9920  -36.8650   24.1400 N   0  0  0  0  0  0  0  0  0  0  0  0
  -26.5780  -37.7920   24.2260 H   0  0  0  0  0  0  0  0  0  0  0  0
  -26.8040  -31.2050   25.5230 C   0  0  1  0  0  0  0  0  0  0  0  0
  -25.5990  -30.9570   26.4580 C   0  0  0  0  0  1  0  0  0  0  0  0
  -27.4360  -29.8330   25.2090 C   0  0  0  0  0  1  0  0  0  0  0  0
  -27.8810  -32.0030   26.2950 C   0  0  0  0  0  1  0  0  0  0  0  0
  1  2  1  0
  3  6  2  0
  3  4  1  0
  4  1  2  0
  5  2  2  0
  6  5  1  0
  7  5  1  0
  7 16  1  0
  8 16  1  0
  9 14  1  0
 10 11  1  0
 10  9  1  0
 12 11  1  0
 12 21  1  0
 12 13  1  0
 14  8  1  0
 14 13  1  0
 15  8  2  0
 16 17  1  0
 18 19  2  0
 19 38  1  0
 20 19  1  0
 20 23  1  0
 21 22  1  0
 21 18  1  0
 22 20  2  0
 23 24  1  0
 24 25  2  0
 26 29  1  0
 26 25  1  0
 27 26  2  0
 28 27  1  0
 28 23  2  0
 29 30  1  0
 30 31  1  0
 31 32  2  0
 33 32  1  0
 33 37  1  0
 34 33  2  0
 35 30  2  0
 35 34  1  0
 36 35  1  0
 38 39  1  0
 39 42  1  0
 39 41  1  0
 40 38  2  0
 43 18  1  0
 44 43  1  0
 45 43  1  0
 46 51  1  0
 46  6  1  0
 47 49  1  0
 48 47  1  0
 50 48  1  0
 50 51  1  0
 51 52  1  1
 51 49  1  0
 53  4  1  0
 53 54  1  0
 54 57  1  0
 54 56  1  0
 55 54  1  0
 58 59  1  0
 58 57  1  0
 60 71  2  0
 61 59  1  0
 61 66  1  0
 62 70  1  0
 62 72  1  0
 63 65  1  0
 64 70  1  0
 65 66  2  0
 65 64  1  0
 67 61  2  0
 68 67  1  0
 68 63  2  0
 69 63  1  0
 69 62  1  0
 70 60  1  0
 72 74  2  0
 73 72  1  0
 75 73  1  0
 76 85  2  0
 76 81  1  0
 77 73  1  0
 77 81  1  0
 78 77  1  0
 79 80  1  0
 79 78  1  0
 80 76  1  0
 81 82  2  0
 82 83  1  0
 84 83  2  0
 85 84  1  0
 86 60  1  0
 86 87  1  0
 86 96  1  0
 87 90  1  0
 88 92  1  0
 88 87  1  0
 89 88  2  0
 92 91  1  0
 94 92  1  0
 94 95  1  0
 94 93  1  0
 96 99  1  1
 96 97  1  0
 98 96  1  0
M  ISO  4   8 100  16 100  58 101  59 101
M  END
>  <TORSDO>  (90) 
F 23

>  <SCORE>  (90) 
-8.650

>  <name>  (90) 
89

>  <ligand_id>  (90) 
89

>  <original_smiles>  (90) 
[H]c1c([H])c([H])c2c(c1[H])C([H])([H])C([H])([H])C([H])([H])C2([H])N([H])C(=O)C1([H])N(C(=O)C([H])(N([H])C(=O)C([H])(N([H])C([H])([H])[H])C([H])([H])[H])C(C([H])([H])[H])(C([H])([H])[H])C([H])([H])[H])C([H])([H])c2c([H])c(OC([H])([H])C([H])([H])[N+]([H])([H])C([H])([H])c3c([H])c([H])c(C([H])([H])N([H])C(=O)N4C([H])([H])C([H])([H])C([H])([H])C([H])(n5nc(-c6c([H])c([H])c(Oc7c([H])c([H])c(F)c([H])c7F)c([H])c6[H])c(C(=O)N([H])[H])c5N([H])[H])C4([H])[H])c(C([H])([H])[N+]4([H])C([H])([H])C([H])([H])C([H])([H])C4([H])[H])c3[H])c([H])c([H])c2C1([H])[H]

>  <smiles>  (90) 
[H]c1c([H])c([H])c2c(c1[H])C([H])([H])C([H])([H])C([H])([H])C2([H])N([H])C(=O)C1([H])N(C(=O)C([H])(N([H])C(=O)C([H])(N([H])C([H])([H])[H])C([H])([H])[H])C(C([H])([H])[H])(C([H])([H])[H])C([H])([H])[H])C([H])([H])c2c([H])c(OC([H])([H])C([H])([H])[N+]([H])([H])C([H])([H])c3c([H])c([H])c(C([H])([H])N([H])C(=O)N4C([H])([H])C([H])([H])C([H])([H])C([H])(n5nc(-c6c([H])c([H])c(Oc7c([H])c([H])c(F)c([H])c7F)c([H])c6[H])c(C(=O)N([H])[H])c5N([H])[H])C4([H])[H])c(C([H])([H])[N+]4([H])C([H])([H])C([H])([H])C([H])([H])C4([H])[H])c3[H])c([H])c([H])c2C1([H])[H]

$$$$
90:0:0
     RDKit          3D

 95104  0  0  1  0  0  0  0  0999 V2000
  -29.1620  -20.1110   22.3490 C   0  0  0  0  0  2  0  0  0  0  0  0
  -28.6270  -21.4960   21.9960 C   0  0  0  0  0  2  0  0  0  0  0  0
  -30.3300  -21.1200   20.4880 C   0  0  0  0  0  2  0  0  0  0  0  0
  -30.3090  -19.8590   21.3700 C   0  0  0  0  0  3  0  0  0  0  0  0
  -29.7360  -22.1700   21.3180 N   0  0  0  0  0  0  0  0  0  0  0  0
  -30.4200  -24.0200   19.7570 C   0  0  0  0  0  2  0  0  0  0  0  0
  -28.6800  -24.3860   21.5520 C   0  0  0  0  0  2  0  0  0  0  0  0
  -30.1560  -25.5060   19.4210 C   0  0  0  0  0  2  0  0  0  0  0  0
  -28.0570  -25.5910   20.8250 C   0  0  0  0  0  2  0  0  0  0  0  0
  -29.2800  -23.3530   20.5730 C   0  0  0  0  0  3  0  0  0  0  0  0
  -28.6590  -25.8640   19.4250 C   0  0  0  0  0  3  0  0  0  0  0  0
  -28.5420  -27.2430   19.0760 O   0  0  0  0  0  0  0  0  0  0  0  0
  -24.5200  -31.5700   22.9880 C   0  0  0  0  0  0  0  0  0  0  0  0
  -27.3040  -27.8300   19.2050 C   0  0  0  0  0  0  0  0  0  0  0  0
  -23.3250  -30.3090   21.2250 C   0  0  0  0  0  3  0  0  0  0  0  0
  -24.8020  -29.0960   19.5370 C   0  0  0  0  0  0  0  0  0  0  0  0
  -25.7990  -30.8970   20.9620 C   0  0  0  0  0  2  0  0  0  0  0  0
  -25.9470  -29.6380   20.1330 C   0  0  0  0  0  0  0  0  0  0  0  0
  -27.2000  -29.0160   19.9600 C   0  0  0  0  0  3  0  0  0  0  0  0
  -26.1430  -27.2890   18.6090 C   0  0  0  0  0  3  0  0  0  0  0  0
  -24.8930  -27.9180   18.7740 C   0  0  0  0  0  3  0  0  0  0  0  0
  -23.5030  -29.8350   19.7580 C   0  0  0  0  0  2  0  0  0  0  0  0
  -24.5680  -30.9320   21.7840 N   0  0  0  0  0  0  0  0  0  0  0  0
  -23.4550  -31.6830   23.6100 O   0  0  0  0  0  0  0  0  0  0  0  0
  -22.8060  -29.1200   22.0660 C   0  0  0  0  0  0  0  0  0  0  0  0
  -21.4950  -28.8450   21.9620 N   0  0  0  0  0  0  0  0  0  0  0  0
  -23.5740  -28.4550   22.7650 O   0  0  0  0  0  0  0  0  0  0  0  0
  -20.9310  -29.4420   21.3730 H   0  0  0  0  0  0  0  0  0  0  0  0
  -18.2500  -27.3310   22.4270 C   0  0  0  0  0  0  0  0  0  0  0  0
  -20.7910  -27.7520   22.6310 C   0  0  0  0  0  3  0  0  0  0  0  0
  -20.9710  -26.4220   21.8620 C   0  0  0  0  0  2  0  0  0  0  0  0
  -19.8480  -26.1520   20.8570 C   0  0  0  0  0  2  0  0  0  0  0  0
  -18.4910  -26.1010   21.5660 C   0  0  0  0  0  2  0  0  0  0  0  0
  -19.3300  -28.1150   22.9120 C   0  0  0  0  0  0  0  0  0  0  0  0
  -19.0500  -29.2690   23.6760 C   0  0  0  0  0  3  0  0  0  0  0  0
  -17.7220  -29.6390   23.9600 C   0  0  0  0  0  3  0  0  0  0  0  0
  -16.6580  -28.8500   23.4920 C   0  0  0  0  0  3  0  0  0  0  0  0
  -16.9220  -27.6980   22.7300 C   0  0  0  0  0  3  0  0  0  0  0  0
  -25.7930  -32.2090   23.6270 C   0  0  0  0  0  3  0  0  0  0  0  0
  -26.3580  -31.3840   24.8480 C   0  0  1  0  0  0  0  0  0  0  0  0
  -25.2900  -31.0480   25.9150 C   0  0  0  0  0  1  0  0  0  0  0  0
  -26.9820  -30.0530   24.3660 C   0  0  0  0  0  1  0  0  0  0  0  0
  -27.4900  -32.1800   25.5390 C   0  0  0  0  0  1  0  0  0  0  0  0
  -25.4420  -33.5730   24.0410 N   0  0  0  0  0  0  0  0  0  0  0  0
  -25.7210  -34.6770   23.3360 C   0  0  0  0  0  0  0  0  0  0  0  0
  -26.3750  -34.6560   22.2890 O   0  0  0  0  0  0  0  0  0  0  0  0
  -24.8560  -33.6610   24.8590 H   0  0  0  0  0  0  0  0  0  0  0  0
  -23.9120  -36.4110   23.1190 C   0  0  0  0  0  1  0  0  0  0  0  0
  -25.1910  -36.0180   23.8780 C   0  0  0  0  0  3  0  0  0  0  0  0
  -27.3030  -36.9520   24.7110 C   0  0  0  0  0  1  0  0  0  0  0  0
  -26.1770  -37.1180   23.7960 N   0  0  0  0  0  0  0  0  0  0  0  0
  -25.7360  -38.0110   23.9930 H   0  0  0  0  0  0  0  0  0  0  0  0
  -30.1180  -18.6170   20.5840 N   0  0  0  0  0  4  0  0  0  0  0  0
  -29.4930  -18.8090   19.8170 H   0  0  0  0  0  0  0  0  0  0  0  0
  -29.6800  -17.9220   21.1650 H   0  0  0  0  0  0  0  0  0  0  0  0
  -31.3690  -18.0330   20.0560 C   0  0  0  0  0  2  0  0  0  0  0  0
  -31.9250  -16.9400   20.9930 C   0  0  0  0  0  2  0  0  0  0  0  0
  -31.5980  -14.7540   19.8730 C   0  0  0  0  0  0  0  0  0  0  0  0
  -31.1980  -12.5110   18.9390 C   0  0  0  0  0  2  0  0  0  0  0  0
  -30.1990  -12.5580   17.7690 C   0  0  0  0  0  2  0  0  0  0  0  0
  -28.7530  -12.4630   18.2860 C   0  0  0  0  0  2  0  0  0  0  0  0
  -28.4660  -13.4670   19.4330 C   0  0  0  0  0  3  0  0  0  0  0  0
  -29.5680  -13.4020   20.5150 C   0  0  0  0  0  2  0  0  0  0  0  0
  -30.8790  -13.6040   19.8690 N   0  0  0  0  0  0  0  0  0  0  0  0
  -32.5440  -14.9690   19.1100 O   0  0  0  0  0  0  0  0  0  0  0  0
  -31.2480  -15.6550   20.8020 N   0  0  0  0  0  0  0  0  0  0  0  0
  -30.5250  -15.3850   21.4530 H   0  0  0  0  0  0  0  0  0  0  0  0
  -26.1680  -14.1850   20.3480 C   0  0  0  0  0  0  0  0  0  0  0  0
  -25.0860  -13.4620   20.7750 C   0  0  0  0  0  0  0  0  0  0  0  0
  -25.4590  -12.0880   20.6550 C   0  0  0  0  0  0  0  0  0  0  0  0
  -27.1360  -13.2550   20.0040 N   0  0  0  0  0  0  0  0  0  0  0  0
  -26.7150  -11.9860   20.2410 N   0  0  0  0  0  0  0  0  0  0  0  0
  -24.6730  -10.8640   20.8550 C   0  0  0  0  0  0  0  0  0  0  0  0
  -25.0420   -9.8980   21.8180 C   0  0  0  0  0  3  0  0  0  0  0  0
  -24.2600   -8.7360   22.0040 C   0  0  0  0  0  3  0  0  0  0  0  0
  -23.0960   -8.5340   21.2270 C   0  0  0  0  0  0  0  0  0  0  0  0
  -22.7460   -9.4870   20.2540 C   0  0  0  0  0  3  0  0  0  0  0  0
  -23.5280  -10.6390   20.0660 C   0  0  0  0  0  3  0  0  0  0  0  0
  -22.2900   -7.4240   21.3200 O   0  0  0  0  0  0  0  0  0  0  0  0
  -22.0630   -6.7990   22.5190 C   0  0  0  0  0  0  0  0  0  0  0  0
  -21.4740   -7.4730   23.6110 C   0  0  0  0  0  3  0  0  0  0  0  0
  -21.1950   -6.7740   24.8020 C   0  0  0  0  0  3  0  0  0  0  0  0
  -21.4930   -5.4030   24.9010 C   0  0  0  0  0  0  0  0  0  0  0  0
  -22.0750   -4.7280   23.8130 C   0  0  0  0  0  3  0  0  0  0  0  0
  -22.3550   -5.4250   22.6240 C   0  0  0  0  0  0  0  0  0  0  0  0
  -22.8960   -4.7650   21.5720 F   0  0  0  0  0  0  0  0  0  0  0  0
  -21.2180   -4.7280   26.0430 F   0  0  0  0  0  0  0  0  0  0  0  0
  -23.7460  -14.0070   21.1800 C   0  0  0  0  0  0  0  0  0  0  0  0
  -23.0550  -13.3250   22.0860 N   0  0  0  0  0  0  0  0  0  0  0  0
  -23.3270  -15.0720   20.7270 O   0  0  0  0  0  0  0  0  0  0  0  0
  -23.4090  -12.4610   22.4710 H   0  0  0  0  0  0  0  0  0  0  0  0
  -22.1600  -13.6710   22.3980 H   0  0  0  0  0  0  0  0  0  0  0  0
  -26.4010  -15.5500   20.2060 N   0  0  0  0  0  0  0  0  0  0  0  0
  -25.6740  -16.2380   20.3710 H   0  0  0  0  0  0  0  0  0  0  0  0
  -27.2240  -15.9420   19.7670 H   0  0  0  0  0  0  0  0  0  0  0  0
  2  1  1  0
  3  4  1  0
  4 53  1  0
  4  1  1  0
  5  3  1  0
  5  2  1  0
  8 11  1  0
  8  6  1  0
  9  7  1  0
 10  6  1  0
 10  5  1  0
 10  7  1  0
 11 12  1  0
 11  9  1  0
 12 14  1  0
 13 24  2  0
 14 19  1  0
 15 23  1  0
 15 25  1  0
 16 22  1  0
 16 18  1  0
 17 23  1  0
 18 17  1  0
 19 18  2  0
 20 21  1  0
 20 14  2  0
 21 16  2  0
 22 15  1  0
 23 13  1  0
 25 27  2  0
 26 25  1  0
 28 26  1  0
 29 38  2  0
 29 34  1  0
 30 26  1  0
 30 34  1  0
 31 30  1  0
 32 33  1  0
 32 31  1  0
 33 29  1  0
 34 35  2  0
 35 36  1  0
 37 36  2  0
 38 37  1  0
 39 13  1  0
 39 44  1  0
 39 40  1  0
 40 43  1  1
 40 41  1  0
 42 40  1  0
 44 47  1  0
 45 49  1  0
 45 44  1  0
 46 45  2  0
 49 48  1  0
 51 49  1  0
 51 52  1  0
 51 50  1  0
 53 55  1  0
 54 53  1  0
 56 53  1  0
 56 57  1  0
 58 66  1  0
 59 64  1  0
 60 61  1  0
 60 59  1  0
 62 61  1  0
 62 71  1  0
 62 63  1  0
 64 58  1  0
 64 63  1  0
 65 58  2  0
 66 57  1  0
 66 67  1  0
 68 69  2  0
 69 88  1  0
 70 69  1  0
 70 73  1  0
 71 72  1  0
 71 68  1  0
 72 70  2  0
 73 74  1  0
 74 75  2  0
 76 79  1  0
 76 75  1  0
 77 76  2  0
 78 77  1  0
 78 73  2  0
 79 80  1  0
 80 85  2  0
 80 81  1  0
 81 82  2  0
 82 83  1  0
 83 87  1  0
 84 83  2  0
 85 84  1  0
 86 85  1  0
 88 89  1  0
 89 92  1  0
 89 91  1  0
 90 88  2  0
 93 68  1  0
 93 94  1  0
 95 93  1  0
M  ISO  4  11 101  12 101  58 100  66 100
M  END
>  <TORSDO>  (91) 
F 20

>  <SCORE>  (91) 
-9.860

>  <name>  (91) 
90

>  <ligand_id>  (91) 
90

>  <original_smiles>  (91) 
[H]c1c([H])c([H])c2c(c1[H])C([H])([H])C([H])([H])C([H])([H])C2([H])N([H])C(=O)C1([H])N(C(=O)C([H])(N([H])C(=O)C([H])(N([H])C([H])([H])[H])C([H])([H])[H])C(C([H])([H])[H])(C([H])([H])[H])C([H])([H])[H])C([H])([H])c2c([H])c(OC3([H])C([H])([H])C([H])([H])C([H])(N4C([H])([H])C([H])([H])C([H])([N+]([H])([H])C([H])([H])C([H])([H])N([H])C(=O)N5C([H])([H])C([H])([H])C([H])([H])C([H])(n6nc(-c7c([H])c([H])c(Oc8c([H])c([H])c(F)c([H])c8F)c([H])c7[H])c(C(=O)N([H])[H])c6N([H])[H])C5([H])[H])C4([H])[H])C([H])([H])C3([H])[H])c([H])c([H])c2C1([H])[H]

>  <smiles>  (91) 
[H]c1c([H])c([H])c2c(c1[H])C([H])([H])C([H])([H])C([H])([H])C2([H])N([H])C(=O)C1([H])N(C(=O)C([H])(N([H])C(=O)C([H])(N([H])C([H])([H])[H])C([H])([H])[H])C(C([H])([H])[H])(C([H])([H])[H])C([H])([H])[H])C([H])([H])c2c([H])c(OC3([H])C([H])([H])C([H])([H])C([H])(N4C([H])([H])C([H])([H])C([H])([N+]([H])([H])C([H])([H])C([H])([H])N([H])C(=O)N5C([H])([H])C([H])([H])C([H])([H])C([H])(n6nc(-c7c([H])c([H])c(Oc8c([H])c([H])c(F)c([H])c8F)c([H])c7[H])c(C(=O)N([H])[H])c6N([H])[H])C5([H])[H])C4([H])[H])C([H])([H])C3([H])[H])c([H])c([H])c2C1([H])[H]

$$$$
91:0:0
     RDKit          3D

103103  0  0  1  0  0  0  0  0999 V2000
  -24.8100  -20.0010   18.5690 N   0  0  0  0  0  4  0  0  0  0  0  0
  -25.3200  -19.1320   18.5700 H   0  0  0  0  0  0  0  0  0  0  0  0
  -23.8380  -19.7460   18.6520 H   0  0  0  0  0  0  0  0  0  0  0  0
  -25.0540  -20.6020   17.2280 C   0  0  0  0  0  2  0  0  0  0  0  0
  -24.5710  -23.0640   17.4770 C   0  0  0  0  0  3  0  0  0  0  0  0
  -26.8420  -22.4440   16.9560 C   0  0  0  0  0  3  0  0  0  0  0  0
  -24.9740  -24.3980   17.6120 C   0  0  0  0  0  3  0  0  0  0  0  0
  -27.2230  -23.8060   17.0090 C   0  0  0  0  0  3  0  0  0  0  0  0
  -25.5080  -22.0590   17.2190 C   0  0  0  0  0  0  0  0  0  0  0  0
  -26.2920  -24.8310   17.2970 C   0  0  0  0  0  0  0  0  0  0  0  0
  -26.7240  -26.3080   16.9990 C   0  0  0  0  0  2  0  0  0  0  0  0
  -27.1490  -27.2480   18.0210 O   0  0  0  0  0  0  0  0  0  0  0  0
  -24.7530  -30.5380   23.9110 C   0  0  0  0  0  0  0  0  0  0  0  0
  -26.2810  -28.1910   18.5420 C   0  0  0  0  0  0  0  0  0  0  0  0
  -23.2890  -30.4930   21.9610 C   0  0  0  0  0  3  0  0  0  0  0  0
  -24.3300  -29.8620   19.7280 C   0  0  0  0  0  0  0  0  0  0  0  0
  -25.8070  -30.4330   21.6520 C   0  0  0  0  0  2  0  0  0  0  0  0
  -25.5560  -29.6560   20.3710 C   0  0  0  0  0  0  0  0  0  0  0  0
  -26.5120  -28.7750   19.8120 C   0  0  0  0  0  3  0  0  0  0  0  0
  -25.1410  -28.6120   17.8380 C   0  0  0  0  0  3  0  0  0  0  0  0
  -24.1080  -29.3290   18.4550 C   0  0  0  0  0  3  0  0  0  0  0  0
  -23.3160  -30.7380   20.4310 C   0  0  0  0  0  2  0  0  0  0  0  0
  -24.6410  -30.4960   22.5570 N   0  0  0  0  0  0  0  0  0  0  0  0
  -23.7480  -30.6470   24.6330 O   0  0  0  0  0  0  0  0  0  0  0  0
  -22.6080  -29.1450   22.2450 C   0  0  0  0  0  0  0  0  0  0  0  0
  -21.3320  -29.1770   22.4870 N   0  0  0  0  0  0  0  0  0  0  0  0
  -23.1940  -28.0700   22.1860 O   0  0  0  0  0  0  0  0  0  0  0  0
  -20.8540  -30.0770   22.5080 H   0  0  0  0  0  0  0  0  0  0  0  0
  -17.5660  -28.3860   22.3760 C   0  0  0  0  0  0  0  0  0  0  0  0
  -20.4380  -28.0740   22.1950 C   0  0  0  0  0  2  0  0  0  0  0  0
  -20.7150  -27.8140   20.2190 C   0  0  0  0  0 15  0  0  0  0  0  0
  -18.7330  -27.5250   19.2660 C   0  0  0  0  0 15  0  0  0  0  0  0
  -17.3570  -27.5800   20.7720 C   0  0  0  0  0  1  0  0  0  0  0  0
  -18.9330  -28.5410   23.0220 C   0  0  0  0  0  0  0  0  0  0  0  0
  -19.0180  -29.5430   24.1030 C   0  0  0  0  0  3  0  0  0  0  0  0
  -17.9720  -30.4240   24.5280 C   0  0  0  0  0  3  0  0  0  0  0  0
  -16.7310  -30.3280   23.8910 C   0  0  0  0  0  3  0  0  0  0  0  0
  -16.5480  -29.3300   22.8800 C   0  0  0  0  0  3  0  0  0  0  0  0
  -26.1390  -30.4610   24.6000 C   0  0  0  0  0  3  0  0  0  0  0  0
  -26.2610  -31.6540   25.4460 N   0  0  0  0  0  0  0  0  0  0  0  0
  -27.0890  -32.6720   25.1830 C   0  0  0  0  0  0  0  0  0  0  0  0
  -27.8870  -32.6600   24.2440 O   0  0  0  0  0  0  0  0  0  0  0  0
  -25.5930  -31.7630   26.1960 H   0  0  0  0  0  0  0  0  0  0  0  0
  -26.3990  -35.0760   25.3660 C   0  0  0  0  0  1  0  0  0  0  0  0
  -27.0210  -33.8910   26.1190 C   0  0  0  0  0  3  0  0  0  0  0  0
  -28.8700  -33.3030   27.6200 C   0  0  0  0  0  1  0  0  0  0  0  0
  -28.3360  -34.2780   26.6720 N   0  0  0  0  0  0  0  0  0  0  0  0
  -28.2800  -35.1790   27.1380 H   0  0  0  0  0  0  0  0  0  0  0  0
  -26.3410  -29.1430   25.4440 C   0  0  1  0  0  0  0  0  0  0  0  0
  -25.1880  -28.8540   26.4350 C   0  0  0  0  0  1  0  0  0  0  0  0
  -26.4900  -27.9060   24.5250 C   0  0  0  0  0  1  0  0  0  0  0  0
  -27.6550  -29.2480   26.2500 C   0  0  0  0  0  1  0  0  0  0  0  0
  -25.2210  -20.7250   19.7870 C   0  0  0  0  0  1  0  0  0  0  0  0
  -22.1940  -23.5690   19.0110 C   0  0  0  0  0 15  0  0  0  0  0  0
  -23.3100  -23.9370   20.6680 C   0  0  0  0  0  2  0  0  0  0  0  0
  -23.9110  -22.6820   19.6590 C   0  0  0  0  0  1  0  0  0  0  0  0
  -21.0550  -25.2870   19.3480 C   0  0  0  0  0  1  0  0  0  0  0  0
  -22.4650  -25.2850   20.1430 N   0  0  0  0  0  4  0  0  0  0  0  0
  -23.1080  -25.7980   19.5690 H   0  0  0  0  0  0  0  0  0  0  0  0
  -22.3100  -25.8440   20.9730 H   0  0  0  0  0  0  0  0  0  0  0  0
  -18.5950  -26.8760   16.0500 C   0  0  0  0  0  1  0  0  0  0  0  0
  -19.8140  -27.1530   17.0980 C   0  0  0  0  0  2  0  0  0  0  0  0
  -19.6860  -28.5760   16.7800 O   0  0  0  0  0  0  0  0  0  0  0  0
  -19.0060  -28.9060   17.3650 H   0  0  0  0  0  0  0  0  0  0  0  0
  -27.1290  -19.4620   20.2200 C   0  0  0  0  0 15  0  0  0  0  0  0
  -29.6930  -16.6240   20.2500 C   0  0  0  0  0  0  0  0  0  0  0  0
  -31.0250  -14.0870   19.9040 C   0  0  0  0  0  2  0  0  0  0  0  0
  -30.5490  -12.9960   18.8570 C   0  0  0  0  0  2  0  0  0  0  0  0
  -29.2010  -12.3860   19.2560 C   0  0  0  0  0  2  0  0  0  0  0  0
  -28.3890  -13.4880   19.9490 C   0  0  0  0  0  3  0  0  0  0  0  0
  -29.0860  -14.1820   21.1110 C   0  0  0  0  0  2  0  0  0  0  0  0
  -29.9080  -15.1220   20.3970 N   0  0  0  0  0  0  0  0  0  0  0  0
  -30.9510  -16.8520   20.0730 O   0  0  0  0  0  0  0  0  0  0  0  0
  -28.3150  -17.7370   20.1880 N   0  0  0  0  0  2  0  0  0  0  0  0
  -29.0180  -18.3250   19.7540 H   0  0  0  0  0  0  0  0  0  0  0  0
  -26.1060  -14.0500   20.6980 C   0  0  0  0  0  0  0  0  0  0  0  0
  -25.0510  -13.2770   21.0520 C   0  0  0  0  0  0  0  0  0  0  0  0
  -25.5090  -11.9230   20.9810 C   0  0  0  0  0  0  0  0  0  0  0  0
  -27.1000  -13.1490   20.3940 N   0  0  0  0  0  0  0  0  0  0  0  0
  -26.7870  -11.8670   20.6520 N   0  0  0  0  0  0  0  0  0  0  0  0
  -24.7870  -10.6700   21.1350 C   0  0  0  0  0  0  0  0  0  0  0  0
  -25.2060   -9.6830   22.0520 C   0  0  0  0  0  3  0  0  0  0  0  0
  -24.4720   -8.4860   22.1880 C   0  0  0  0  0  3  0  0  0  0  0  0
  -23.3110   -8.2770   21.4020 C   0  0  0  0  0  0  0  0  0  0  0  0
  -22.9240   -9.2530   20.4660 C   0  0  0  0  0  3  0  0  0  0  0  0
  -23.6590  -10.4390   20.3300 C   0  0  0  0  0  3  0  0  0  0  0  0
  -22.5460   -7.1390   21.4480 O   0  0  0  0  0  0  0  0  0  0  0  0
  -22.2570   -6.5200   22.6350 C   0  0  0  0  0  0  0  0  0  0  0  0
  -21.6290   -7.2050   23.7000 C   0  0  0  0  0  3  0  0  0  0  0  0
  -21.2840   -6.5090   24.8760 C   0  0  0  0  0  3  0  0  0  0  0  0
  -21.5590   -5.1320   24.9860 C   0  0  0  0  0  0  0  0  0  0  0  0
  -22.1790   -4.4500   23.9240 C   0  0  0  0  0  3  0  0  0  0  0  0
  -22.5260   -5.1430   22.7520 C   0  0  0  0  0  0  0  0  0  0  0  0
  -23.1040   -4.4800   21.7220 F   0  0  0  0  0  0  0  0  0  0  0  0
  -21.2200   -4.4600   26.1100 F   0  0  0  0  0  0  0  0  0  0  0  0
  -23.6690  -13.7700   21.3310 C   0  0  0  0  0  0  0  0  0  0  0  0
  -22.9500  -13.0860   22.2080 N   0  0  0  0  0  0  0  0  0  0  0  0
  -23.2510  -14.8050   20.8140 O   0  0  0  0  0  0  0  0  0  0  0  0
  -23.3150  -12.2530   22.6430 H   0  0  0  0  0  0  0  0  0  0  0  0
  -22.0190  -13.3950   22.4470 H   0  0  0  0  0  0  0  0  0  0  0  0
  -26.3000  -15.4270   20.5890 N   0  0  0  0  0  0  0  0  0  0  0  0
  -25.5610  -16.0820   20.8140 H   0  0  0  0  0  0  0  0  0  0  0  0
  -27.1830  -15.8840   20.3880 H   0  0  0  0  0  0  0  0  0  0  0  0
  1  2  1  0
  1  3  1  0
  1 53  1  0
  4  1  1  0
  5  7  1  0
  6  8  2  0
  6  9  1  0
  8 10  1  0
  9  4  1  0
  9  5  2  0
 10  7  2  0
 11 10  1  0
 11 12  1  0
 12 14  1  0
 13 24  2  0
 14 19  1  0
 15 25  1  0
 15 23  1  0
 16 18  1  0
 16 22  1  0
 17 23  1  0
 18 17  1  0
 19 18  2  0
 20 21  1  0
 20 14  2  0
 21 16  2  0
 22 15  1  0
 23 13  1  0
 25 26  1  0
 26 28  1  0
 27 25  2  0
 29 38  2  0
 29 34  1  0
 30 26  1  0
 30 34  1  0
 33 29  1  0
 34 35  2  0
 35 36  1  0
 37 36  2  0
 38 37  1  0
 39 13  1  0
 39 49  1  0
 39 40  1  0
 40 43  1  0
 41 40  1  0
 41 45  1  0
 42 41  2  0
 45 44  1  0
 45 47  1  0
 47 48  1  0
 47 46  1  0
 49 52  1  1
 49 50  1  0
 51 49  1  0
 56 55  1  0
 57 58  1  0
 58 55  1  0
 58 60  1  0
 59 58  1  0
 61 62  1  0
 63 62  1  0
 63 64  1  0
 66 72  1  0
 67 72  1  0
 68 69  1  0
 68 67  1  0
 70 69  1  0
 70 79  1  0
 70 71  1  0
 72 71  1  0
 73 66  2  0
 74 66  1  0
 75 74  1  0
 76 77  2  0
 77 96  1  0
 78 77  1  0
 78 81  1  0
 79 80  1  0
 79 76  1  0
 80 78  2  0
 81 82  1  0
 82 83  2  0
 84 87  1  0
 84 83  1  0
 85 84  2  0
 86 85  1  0
 86 81  2  0
 87 88  1  0
 88 93  2  0
 88 89  1  0
 89 90  2  0
 90 91  1  0
 91 95  1  0
 92 91  2  0
 93 92  1  0
 94 93  1  0
 96 97  1  0
 97100  1  0
 97 99  1  0
 98 96  2  0
101 76  1  0
101102  1  0
103101  1  0
M  ISO  4  11 101  12 101  66 100  74 100
M  END
>  <TORSDO>  (92) 
F 24

>  <SCORE>  (92) 
-6.772

>  <name>  (92) 
91

>  <ligand_id>  (92) 
91

>  <original_smiles>  (92) 
[H]OC([H])(C([H])([H])[H])C1([H])C([H])([H])C([H])(C([H])(C([H])([H])N([H])C(=O)N2C([H])([H])C([H])([H])C([H])([H])C([H])(n3nc(-c4c([H])c([H])c(Oc5c([H])c([H])c(F)c([H])c5F)c([H])c4[H])c(C(=O)N([H])[H])c3N([H])[H])C2([H])[H])[N+]([H])([H])C([H])([H])c2c([H])c([H])c(C([H])([H])Oc3c([H])c([H])c4c(c3[H])C([H])([H])N(C(=O)C([H])(N([H])C(=O)C([H])(N([H])C([H])([H])[H])C([H])([H])[H])C(C([H])([H])[H])(C([H])([H])[H])C([H])([H])[H])C([H])(C(=O)N([H])C3([H])c5c([H])c([H])c([H])c([H])c5C([H])([H])C([H])([H])C3([H])[H])C4([H])[H])c([H])c2[H])C([H])([H])[N+]1([H])[H]

>  <smiles>  (92) 
[H]OC([H])(C([H])([H])[H])C1([H])C([H])([H])C([H])(C([H])(C([H])([H])N([H])C(=O)N2C([H])([H])C([H])([H])C([H])([H])C([H])(n3nc(-c4c([H])c([H])c(Oc5c([H])c([H])c(F)c([H])c5F)c([H])c4[H])c(C(=O)N([H])[H])c3N([H])[H])C2([H])[H])[N+]([H])([H])C([H])([H])c2c([H])c([H])c(C([H])([H])Oc3c([H])c([H])c4c(c3[H])C([H])([H])N(C(=O)C([H])(N([H])C(=O)C([H])(N([H])C([H])([H])[H])C([H])([H])[H])C(C([H])([H])[H])(C([H])([H])[H])C([H])([H])[H])C([H])(C(=O)N([H])C3([H])c5c([H])c([H])c([H])c([H])c5C([H])([H])C([H])([H])C3([H])[H])C4([H])[H])c([H])c2[H])C([H])([H])[N+]1([H])[H]

$$$$
92:0:0
     RDKit          3D

 91 99  0  0  1  0  0  0  0  0999 V2000
  -28.2530  -19.4700   20.3780 C   0  0  0  0  0  3  0  0  0  0  0  0
  -30.7750  -18.4940   20.2680 C   0  0  0  0  0  3  0  0  0  0  0  0
  -28.4680  -18.0470   20.5030 C   0  0  0  0  0  0  0  0  0  0  0  0
  -29.7760  -17.4580   20.4230 C   0  0  0  0  0  0  0  0  0  0  0  0
  -29.2830  -20.4260   20.1840 C   0  0  0  0  0  0  0  0  0  0  0  0
  -30.5480  -19.8830   20.1600 N   0  0  0  0  0  0  0  0  0  0  0  0
  -28.8910  -21.8330   19.9220 N   0  0  0  0  0  0  0  0  0  0  0  0
  -27.8910  -21.8830   19.7530 H   0  0  0  0  0  0  0  0  0  0  0  0
  -30.7270  -14.8590   20.0250 C   0  0  0  0  0  0  0  0  0  0  0  0
  -30.5890  -12.5320   19.0230 C   0  0  0  0  0  2  0  0  0  0  0  0
  -29.5700  -12.5340   17.8570 C   0  0  0  0  0  2  0  0  0  0  0  0
  -28.1350  -12.3160   18.3750 C   0  0  0  0  0  2  0  0  0  0  0  0
  -27.8120  -13.2020   19.6050 C   0  0  0  0  0  3  0  0  0  0  0  0
  -28.9380  -13.1450   20.6610 C   0  0  0  0  0  2  0  0  0  0  0  0
  -30.1790  -13.5790   19.9990 N   0  0  0  0  0  0  0  0  0  0  0  0
  -31.8720  -15.0180   19.5870 O   0  0  0  0  0  0  0  0  0  0  0  0
  -29.8930  -15.9230   20.4360 N   0  0  0  0  0  0  0  0  0  0  0  0
  -29.0700  -15.5060   20.8410 H   0  0  0  0  0  0  0  0  0  0  0  0
  -25.4850  -13.7730   20.5150 C   0  0  0  0  0  0  0  0  0  0  0  0
  -24.4410  -12.9950   20.9320 C   0  0  0  0  0  0  0  0  0  0  0  0
  -24.8870  -11.6430   20.8150 C   0  0  0  0  0  0  0  0  0  0  0  0
  -26.5030  -12.8980   20.1740 N   0  0  0  0  0  0  0  0  0  0  0  0
  -26.1540  -11.6070   20.4160 N   0  0  0  0  0  0  0  0  0  0  0  0
  -24.1610  -10.3800   21.0030 C   0  0  0  0  0  0  0  0  0  0  0  0
  -24.5730   -9.4240   21.9550 C   0  0  0  0  0  3  0  0  0  0  0  0
  -23.8460   -8.2270   22.1310 C   0  0  0  0  0  3  0  0  0  0  0  0
  -22.6910   -7.9780   21.3510 C   0  0  0  0  0  0  0  0  0  0  0  0
  -22.2970   -8.9220   20.3870 C   0  0  0  0  0  3  0  0  0  0  0  0
  -23.0260  -10.1110   20.2110 C   0  0  0  0  0  3  0  0  0  0  0  0
  -21.9380   -6.8310   21.4340 O   0  0  0  0  0  0  0  0  0  0  0  0
  -21.7390   -6.1850   22.6280 C   0  0  0  0  0  0  0  0  0  0  0  0
  -21.1430   -6.8290   23.7340 C   0  0  0  0  0  3  0  0  0  0  0  0
  -20.8950   -6.1070   24.9180 C   0  0  0  0  0  3  0  0  0  0  0  0
  -21.2330   -4.7430   24.9970 C   0  0  0  0  0  0  0  0  0  0  0  0
  -21.8220   -4.0990   23.8940 C   0  0  0  0  0  3  0  0  0  0  0  0
  -22.0710   -4.8170   22.7120 C   0  0  0  0  0  0  0  0  0  0  0  0
  -22.6190   -4.1870   21.6460 F   0  0  0  0  0  0  0  0  0  0  0  0
  -20.9880   -4.0470   26.1310 F   0  0  0  0  0  0  0  0  0  0  0  0
  -23.0720  -13.4740   21.3160 C   0  0  0  0  0  0  0  0  0  0  0  0
  -22.4110  -12.7730   22.2300 N   0  0  0  0  0  0  0  0  0  0  0  0
  -22.5990  -14.5040   20.8400 O   0  0  0  0  0  0  0  0  0  0  0  0
  -22.8070  -11.9390   22.6370 H   0  0  0  0  0  0  0  0  0  0  0  0
  -21.4940  -13.0760   22.5280 H   0  0  0  0  0  0  0  0  0  0  0  0
  -25.6410  -15.1470   20.3660 N   0  0  0  0  0  0  0  0  0  0  0  0
  -24.8730  -15.7870   20.5340 H   0  0  0  0  0  0  0  0  0  0  0  0
  -26.4230  -15.5850   19.8980 H   0  0  0  0  0  0  0  0  0  0  0  0
  -26.0710  -17.3070   19.7870 C   0  0  0  0  0  1  0  0  0  0  0  0
  -27.2620  -17.1320   20.7460 C   0  0  0  0  0  2  0  0  0  0  0  0
  -29.4110  -23.2720   20.1960 C   0  0  0  0  0  3  0  0  0  0  0  0
  -28.4420  -24.6090   19.8390 C   0  0  0  0  0  3  0  0  0  0  0  0
  -28.6760  -26.1230   20.1120 O   0  0  0  0  0  0  0  0  0  0  0  0
  -24.8330  -31.5960   23.2150 C   0  0  0  0  0  0  0  0  0  0  0  0
  -27.5930  -27.0760   20.0630 C   0  0  0  0  0  0  0  0  0  0  0  0
  -23.7070  -30.2500   21.4850 C   0  0  0  0  0  3  0  0  0  0  0  0
  -25.2260  -28.7690   20.0370 C   0  0  0  0  0  0  0  0  0  0  0  0
  -26.2590  -30.5740   21.4040 C   0  0  0  0  0  2  0  0  0  0  0  0
  -26.3790  -29.2140   20.6960 C   0  0  0  0  0  0  0  0  0  0  0  0
  -27.5640  -28.3850   20.6910 C   0  0  0  0  0  3  0  0  0  0  0  0
  -26.4090  -26.7320   19.3720 C   0  0  0  0  0  3  0  0  0  0  0  0
  -25.2550  -27.5420   19.3600 C   0  0  0  0  0  3  0  0  0  0  0  0
  -23.9800  -29.6390   20.0850 C   0  0  0  0  0  2  0  0  0  0  0  0
  -24.9500  -30.8270   22.0910 N   0  0  0  0  0  0  0  0  0  0  0  0
  -23.7270  -31.8380   23.7230 O   0  0  0  0  0  0  0  0  0  0  0  0
  -23.0230  -29.1890   22.3820 C   0  0  0  0  0  0  0  0  0  0  0  0
  -21.7050  -28.9900   22.2010 N   0  0  0  0  0  0  0  0  0  0  0  0
  -23.6800  -28.5480   23.2050 O   0  0  0  0  0  0  0  0  0  0  0  0
  -21.2290  -29.5600   21.5150 H   0  0  0  0  0  0  0  0  0  0  0  0
  -18.3250  -27.7460   22.5960 C   0  0  0  0  0  0  0  0  0  0  0  0
  -20.8800  -28.0050   22.9060 C   0  0  0  0  0  3  0  0  0  0  0  0
  -20.9950  -26.6090   22.2490 C   0  0  0  0  0  2  0  0  0  0  0  0
  -19.9070  -26.3420   21.2060 C   0  0  0  0  0  2  0  0  0  0  0  0
  -18.5170  -26.4410   21.8420 C   0  0  0  0  0  2  0  0  0  0  0  0
  -19.4350  -28.4880   23.0820 C   0  0  0  0  0  0  0  0  0  0  0  0
  -19.2010  -29.7110   23.7480 C   0  0  0  0  0  3  0  0  0  0  0  0
  -17.8900  -30.1930   23.9310 C   0  0  0  0  0  3  0  0  0  0  0  0
  -16.7960  -29.4470   23.4590 C   0  0  0  0  0  3  0  0  0  0  0  0
  -17.0140  -28.2240   22.7990 C   0  0  0  0  0  3  0  0  0  0  0  0
  -26.0800  -32.2280   23.9050 C   0  0  0  0  0  3  0  0  0  0  0  0
  -26.5430  -31.4380   25.1910 C   0  0  1  0  0  0  0  0  0  0  0  0
  -25.4000  -31.1570   26.1950 C   0  0  0  0  0  1  0  0  0  0  0  0
  -27.1730  -30.0780   24.8060 C   0  0  0  0  0  1  0  0  0  0  0  0
  -27.6420  -32.2370   25.9300 C   0  0  0  0  0  1  0  0  0  0  0  0
  -25.7450  -33.6180   24.2510 N   0  0  0  0  0  0  0  0  0  0  0  0
  -26.0450  -34.6860   23.5010 C   0  0  0  0  0  0  0  0  0  0  0  0
  -26.7020  -34.6050   22.4590 O   0  0  0  0  0  0  0  0  0  0  0  0
  -25.1610  -33.7520   25.0640 H   0  0  0  0  0  0  0  0  0  0  0  0
  -24.2570  -36.4350   23.2200 C   0  0  0  0  0  1  0  0  0  0  0  0
  -25.5400  -36.0610   23.9800 C   0  0  0  0  0  3  0  0  0  0  0  0
  -27.6740  -37.0140   24.7380 C   0  0  0  0  0  1  0  0  0  0  0  0
  -26.5390  -37.1420   23.8260 N   0  0  0  0  0  0  0  0  0  0  0  0
  -26.1120  -38.0510   23.9780 H   0  0  0  0  0  0  0  0  0  0  0  0
  1  3  1  0
  2  4  1  0
  3 48  1  0
  4 17  1  0
  4  3  2  0
  5  1  2  0
  6  5  1  0
  6  2  2  0
  7  5  1  0
  7 49  1  0
  8  7  1  0
  9 17  1  0
 10 15  1  0
 11 12  1  0
 11 10  1  0
 13 12  1  0
 13 22  1  0
 13 14  1  0
 15  9  1  0
 15 14  1  0
 16  9  2  0
 17 18  1  0
 19 20  2  0
 20 39  1  0
 21 20  1  0
 21 24  1  0
 22 23  1  0
 22 19  1  0
 23 21  2  0
 24 25  1  0
 25 26  2  0
 27 30  1  0
 27 26  1  0
 28 27  2  0
 29 28  1  0
 29 24  2  0
 30 31  1  0
 31 36  2  0
 31 32  1  0
 32 33  2  0
 33 34  1  0
 34 38  1  0
 35 34  2  0
 36 35  1  0
 37 36  1  0
 39 40  1  0
 40 43  1  0
 40 42  1  0
 41 39  2  0
 44 19  1  0
 44 45  1  0
 46 44  1  0
 47 48  1  0
 50 51  1  0
 50 49  2  0
 52 63  2  0
 53 51  1  0
 53 58  1  0
 54 62  1  0
 54 64  1  0
 55 61  1  0
 55 57  1  0
 56 62  1  0
 57 56  1  0
 58 57  2  0
 59 53  2  0
 60 59  1  0
 60 55  2  0
 61 54  1  0
 62 52  1  0
 64 66  2  0
 65 64  1  0
 67 65  1  0
 68 77  2  0
 68 73  1  0
 69 65  1  0
 69 73  1  0
 70 69  1  0
 71 72  1  0
 71 70  1  0
 72 68  1  0
 73 74  2  0
 74 75  1  0
 76 75  2  0
 77 76  1  0
 78 52  1  0
 78 83  1  0
 78 79  1  0
 79 82  1  1
 79 80  1  0
 81 79  1  0
 83 86  1  0
 84 88  1  0
 84 83  1  0
 85 84  2  0
 88 87  1  0
 90 91  1  0
 90 88  1  0
 90 89  1  0
M  ISO  4   9 100  17 100  50 101  51 101
M  END
>  <TORSDO>  (93) 
F 19

>  <SCORE>  (93) 
-13.003

>  <name>  (93) 
92

>  <ligand_id>  (93) 
92

>  <original_smiles>  (93) 
[H]c1nc(N([H])C([H])([H])C([H])([H])Oc2c([H])c([H])c3c(c2[H])C([H])([H])N(C(=O)C([H])(N([H])C(=O)C([H])(N([H])C([H])([H])[H])C([H])([H])[H])C(C([H])([H])[H])(C([H])([H])[H])C([H])([H])[H])C([H])(C(=O)N([H])C2([H])c4c([H])c([H])c([H])c([H])c4C([H])([H])C([H])([H])C2([H])[H])C3([H])[H])c([H])c(C([H])([H])C([H])([H])[H])c1N([H])C(=O)N1C([H])([H])C([H])([H])C([H])([H])C([H])(n2nc(-c3c([H])c([H])c(Oc4c([H])c([H])c(F)c([H])c4F)c([H])c3[H])c(C(=O)N([H])[H])c2N([H])[H])C1([H])[H]

>  <smiles>  (93) 
[H]c1nc(N([H])C([H])([H])C([H])([H])Oc2c([H])c([H])c3c(c2[H])C([H])([H])N(C(=O)C([H])(N([H])C(=O)C([H])(N([H])C([H])([H])[H])C([H])([H])[H])C(C([H])([H])[H])(C([H])([H])[H])C([H])([H])[H])C([H])(C(=O)N([H])C2([H])c4c([H])c([H])c([H])c([H])c4C([H])([H])C([H])([H])C2([H])[H])C3([H])[H])c([H])c(C([H])([H])C([H])([H])[H])c1N([H])C(=O)N1C([H])([H])C([H])([H])C([H])([H])C([H])(n2nc(-c3c([H])c([H])c(Oc4c([H])c([H])c(F)c([H])c4F)c([H])c3[H])c(C(=O)N([H])[H])c2N([H])[H])C1([H])[H]

$$$$
93:0:0
     RDKit          3D

107116  0  0  1  0  0  0  0  0999 V2000
  -29.4010  -17.6550   20.5380 C   0  0  0  0  0  3  0  0  0  0  0  0
  -28.4570  -21.2170   19.2870 C   0  0  0  0  0  2  0  0  0  0  0  0
  -30.7880  -21.3000   20.1780 C   0  0  0  0  0  2  0  0  0  0  0  0
  -28.5130  -19.6680   19.3190 C   0  0  0  0  0  2  0  0  0  0  0  0
  -30.8280  -19.7460   20.1930 C   0  0  0  0  0  2  0  0  0  0  0  0
  -29.8560  -21.8260   19.0690 C   0  0  0  0  0  3  0  0  0  0  0  0
  -29.4670  -19.1500   20.3430 N   0  0  2  0  0  4  0  0  0  0  0  0
  -29.1140  -19.5180   21.2150 H   0  0  0  0  0  0  0  0  0  0  0  0
  -29.1250  -23.7360   17.5440 C   0  0  0  0  0  1  0  0  0  0  0  0
  -29.8970  -23.3740   18.8300 C   0  0  0  0  0  3  0  0  0  0  0  0
  -29.4710  -24.2920   20.0180 C   0  0  0  0  0  2  0  0  0  0  0  0
  -29.7310  -25.8030   19.7590 C   0  0  0  0  0  2  0  0  0  0  0  0
  -29.1900  -26.6840   20.7580 O   0  0  0  0  0  0  0  0  0  0  0  0
  -24.5920  -31.6150   23.0710 C   0  0  0  0  0  0  0  0  0  0  0  0
  -27.9460  -27.2600   20.5800 C   0  0  0  0  0  0  0  0  0  0  0  0
  -23.6990  -30.0030   21.4190 C   0  0  0  0  0  3  0  0  0  0  0  0
  -25.4260  -28.5240   20.2650 C   0  0  0  0  0  0  0  0  0  0  0  0
  -26.1900  -30.5870   21.4560 C   0  0  0  0  0  2  0  0  0  0  0  0
  -26.4640  -29.1910   20.9280 C   0  0  0  0  0  0  0  0  0  0  0  0
  -27.7200  -28.5620   21.0870 C   0  0  0  0  0  3  0  0  0  0  0  0
  -26.8800  -26.6000   19.9240 C   0  0  0  0  0  3  0  0  0  0  0  0
  -25.6280  -27.2260   19.7670 C   0  0  0  0  0  3  0  0  0  0  0  0
  -24.1120  -29.2590   20.1240 C   0  0  0  0  0  2  0  0  0  0  0  0
  -24.8370  -30.7570   22.0400 N   0  0  0  0  0  0  0  0  0  0  0  0
  -23.4380  -31.8160   23.4760 O   0  0  0  0  0  0  0  0  0  0  0  0
  -23.0390  -28.9890   22.3800 C   0  0  0  0  0  0  0  0  0  0  0  0
  -21.8260  -28.5310   22.0300 N   0  0  0  0  0  0  0  0  0  0  0  0
  -23.6280  -28.6090   23.3960 O   0  0  0  0  0  0  0  0  0  0  0  0
  -21.4060  -28.8980   21.1870 H   0  0  0  0  0  0  0  0  0  0  0  0
  -18.7200  -26.6900   22.0020 C   0  0  0  0  0  0  0  0  0  0  0  0
  -21.0390  -27.5380   22.7600 C   0  0  0  0  0  3  0  0  0  0  0  0
  -21.5450  -26.1070   22.4710 C   0  0  0  0  0  2  0  0  0  0  0  0
  -20.8020  -25.4240   21.3180 C   0  0  0  0  0  2  0  0  0  0  0  0
  -19.3030  -25.3390   21.6210 C   0  0  0  0  0  2  0  0  0  0  0  0
  -19.5390  -27.7280   22.5210 C   0  0  0  0  0  0  0  0  0  0  0  0
  -18.9520  -28.9750   22.8270 C   0  0  0  0  0  3  0  0  0  0  0  0
  -17.5790  -29.1960   22.6180 C   0  0  0  0  0  3  0  0  0  0  0  0
  -16.7700  -28.1610   22.1170 C   0  0  0  0  0  3  0  0  0  0  0  0
  -17.3390  -26.9080   21.8200 C   0  0  0  0  0  3  0  0  0  0  0  0
  -25.7430  -32.4020   23.7740 C   0  0  0  0  0  3  0  0  0  0  0  0
  -26.1680  -31.7790   25.1590 C   0  0  1  0  0  0  0  0  0  0  0  0
  -24.9760  -31.4760   26.0980 C   0  0  0  0  0  1  0  0  0  0  0  0
  -26.9460  -30.4590   24.9470 C   0  0  0  0  0  1  0  0  0  0  0  0
  -27.1270  -32.7430   25.8970 C   0  0  0  0  0  1  0  0  0  0  0  0
  -25.2900  -33.7880   23.9450 N   0  0  0  0  0  0  0  0  0  0  0  0
  -25.6140  -34.7990   23.1270 C   0  0  0  0  0  0  0  0  0  0  0  0
  -26.3920  -34.6700   22.1770 O   0  0  0  0  0  0  0  0  0  0  0  0
  -24.6000  -33.9570   24.6620 H   0  0  0  0  0  0  0  0  0  0  0  0
  -23.7800  -36.3850   22.4580 C   0  0  0  0  0  1  0  0  0  0  0  0
  -24.9710  -36.1700   23.4070 C   0  0  0  0  0  3  0  0  0  0  0  0
  -26.9310  -37.3200   24.3350 C   0  0  0  0  0  1  0  0  0  0  0  0
  -25.9190  -37.3000   23.2830 N   0  0  0  0  0  0  0  0  0  0  0  0
  -25.4250  -38.1880   23.3030 H   0  0  0  0  0  0  0  0  0  0  0  0
  -29.9720  -17.3110   21.9460 C   0  0  0  0  0  2  0  0  0  0  0  0
  -30.7540  -15.2830   22.9090 C   0  0  0  0  0  2  0  0  0  0  0  0
  -31.4590  -15.8050   20.6890 C   0  0  0  0  0  2  0  0  0  0  0  0
  -31.9240  -14.2920   23.0760 C   0  0  0  0  0  2  0  0  0  0  0  0
  -32.6820  -14.8600   20.8280 C   0  0  0  0  0  3  0  0  0  0  0  0
  -31.1150  -16.3840   21.9980 N   0  0  0  0  0  0  0  0  0  0  0  0
  -32.3390  -13.7610   21.7630 N   0  0  0  0  0  4  0  0  0  0  0  0
  -31.5790  -13.2170   21.3890 H   0  0  0  0  0  0  0  0  0  0  0  0
  -33.1230  -13.1470   21.9110 H   0  0  0  0  0  0  0  0  0  0  0  0
  -33.1690  -14.3440   19.4510 C   0  0  0  0  0  2  0  0  0  0  0  0
  -34.6450  -13.8830   19.4360 C   0  0  0  0  0  2  0  0  0  0  0  0
  -36.5710  -13.2770   17.9940 C   0  0  0  0  0  1  0  0  0  0  0  0
  -35.1270  -13.5790   18.0700 N   0  0  0  0  0  4  0  0  0  0  0  0
  -34.6210  -12.7900   17.6980 H   0  0  0  0  0  0  0  0  0  0  0  0
  -34.9460  -14.3640   17.4670 H   0  0  0  0  0  0  0  0  0  0  0  0
  -30.0680  -16.8200   19.3930 C   0  0  0  0  0  2  0  0  0  0  0  0
  -30.3700  -14.4220   18.6870 C   0  0  0  0  0  0  0  0  0  0  0  0
  -29.6480  -12.4850   17.3460 C   0  0  0  0  0  2  0  0  0  0  0  0
  -28.4250  -12.9110   16.5060 C   0  0  0  0  0  2  0  0  0  0  0  0
  -27.1220  -12.7140   17.3070 C   0  0  0  0  0  2  0  0  0  0  0  0
  -27.1990  -13.3300   18.7290 C   0  0  0  0  0  3  0  0  0  0  0  0
  -28.5020  -12.9030   19.4460 C   0  0  0  0  0  2  0  0  0  0  0  0
  -29.6370  -13.2790   18.5860 N   0  0  0  0  0  0  0  0  0  0  0  0
  -31.3220  -14.6790   17.9470 O   0  0  0  0  0  0  0  0  0  0  0  0
  -29.8530  -15.3590   19.5050 N   0  0  0  0  0  0  0  0  0  0  0  0
  -29.1040  -15.0520   20.1030 H   0  0  0  0  0  0  0  0  0  0  0  0
  -25.0540  -13.8540   20.0480 C   0  0  0  0  0  0  0  0  0  0  0  0
  -24.1170  -13.0420   20.6300 C   0  0  0  0  0  0  0  0  0  0  0  0
  -24.5620  -11.7030   20.4050 C   0  0  0  0  0  0  0  0  0  0  0  0
  -26.0120  -13.0060   19.5150 N   0  0  0  0  0  0  0  0  0  0  0  0
  -25.7340  -11.7050   19.7840 N   0  0  0  0  0  0  0  0  0  0  0  0
  -23.9130  -10.4180   20.6970 C   0  0  0  0  0  0  0  0  0  0  0  0
  -24.5170   -9.4620   21.5440 C   0  0  0  0  0  3  0  0  0  0  0  0
  -23.8650   -8.2420   21.8250 C   0  0  0  0  0  3  0  0  0  0  0  0
  -22.5950   -7.9700   21.2610 C   0  0  0  0  0  0  0  0  0  0  0  0
  -22.0100   -8.9150   20.4010 C   0  0  0  0  0  3  0  0  0  0  0  0
  -22.6620  -10.1260   20.1180 C   0  0  0  0  0  3  0  0  0  0  0  0
  -21.9000   -6.8020   21.4590 O   0  0  0  0  0  0  0  0  0  0  0  0
  -21.9850   -6.1030   22.6360 C   0  0  0  0  0  0  0  0  0  0  0  0
  -21.6060   -6.6760   23.8710 C   0  0  0  0  0  3  0  0  0  0  0  0
  -21.6430   -5.9010   25.0470 C   0  0  0  0  0  3  0  0  0  0  0  0
  -22.0460   -4.5540   24.9910 C   0  0  0  0  0  0  0  0  0  0  0  0
  -22.4190   -3.9800   23.7620 C   0  0  0  0  0  3  0  0  0  0  0  0
  -22.3840   -4.7520   22.5870 C   0  0  0  0  0  0  0  0  0  0  0  0
  -22.7240   -4.1880   21.4030 F   0  0  0  0  0  0  0  0  0  0  0  0
  -22.0750   -3.8070   26.1200 F   0  0  0  0  0  0  0  0  0  0  0  0
  -22.8320  -13.4750   21.2740 C   0  0  0  0  0  0  0  0  0  0  0  0
  -22.3720  -12.7380   22.2790 N   0  0  0  0  0  0  0  0  0  0  0  0
  -22.2540  -14.5020   20.9190 O   0  0  0  0  0  0  0  0  0  0  0  0
  -22.8490  -11.8990   22.5720 H   0  0  0  0  0  0  0  0  0  0  0  0
  -21.5230  -13.0090   22.7540 H   0  0  0  0  0  0  0  0  0  0  0  0
  -25.1660  -15.2350   19.9130 N   0  0  0  0  0  0  0  0  0  0  0  0
  -24.4260  -15.8620   20.2080 H   0  0  0  0  0  0  0  0  0  0  0  0
  -25.8640  -15.6860   19.3370 H   0  0  0  0  0  0  0  0  0  0  0  0
  1 69  1  0
  1 54  1  0
  2  4  1  0
  3  5  1  0
  4  7  1  0
  5  7  1  0
  6 10  1  0
  6  2  1  0
  6  3  1  0
  7  1  1  0
  7  8  1  1
 10  9  1  0
 10 11  1  0
 12 11  1  0
 12 13  1  0
 14 25  2  0
 15 13  1  0
 15 20  1  0
 16 24  1  0
 16 26  1  0
 17 19  1  0
 18 24  1  0
 19 20  2  0
 19 18  1  0
 21 15  2  0
 22 21  1  0
 22 17  2  0
 23 17  1  0
 23 16  1  0
 24 14  1  0
 26 28  2  0
 27 26  1  0
 29 27  1  0
 30 35  1  0
 31 27  1  0
 32 31  1  0
 33 34  1  0
 33 32  1  0
 34 30  1  0
 35 31  1  0
 35 36  2  0
 37 36  1  0
 38 37  2  0
 39 30  2  0
 39 38  1  0
 40 14  1  0
 40 45  1  0
 40 41  1  0
 41 44  1  1
 41 42  1  0
 43 41  1  0
 45 48  1  0
 46 50  1  0
 46 45  1  0
 47 46  2  0
 50 49  1  0
 52 53  1  0
 52 50  1  0
 52 51  1  0
 54 59  1  0
 55 57  1  0
 56 58  1  0
 56 59  1  0
 58 63  1  0
 58 60  1  0
 59 55  1  0
 60 62  1  0
 60 57  1  0
 61 60  1  0
 64 63  1  0
 65 66  1  0
 66 64  1  0
 67 66  1  0
 68 66  1  0
 69 78  1  0
 70 78  1  0
 71 76  1  0
 72 73  1  0
 72 71  1  0
 74 73  1  0
 74 75  1  0
 74 83  1  0
 76 70  1  0
 76 75  1  0
 77 70  2  0
 78 79  1  0
 80 81  2  0
 81100  1  0
 82 81  1  0
 82 85  1  0
 83 84  1  0
 83 80  1  0
 84 82  2  0
 85 86  1  0
 86 87  2  0
 88 91  1  0
 88 87  1  0
 89 88  2  0
 90 89  1  0
 90 85  2  0
 91 92  1  0
 92 93  1  0
 93 94  2  0
 95 94  1  0
 95 99  1  0
 96 95  2  0
 97 92  2  0
 97 96  1  0
 98 97  1  0
100101  1  0
101103  1  0
101104  1  0
102100  2  0
105 80  1  0
105106  1  0
107105  1  0
M  ISO  4  12 101  13 101  70 100  78 100
M  END
>  <TORSDO>  (94) 
F 26

>  <SCORE>  (94) 
-1.507

>  <name>  (94) 
93

>  <ligand_id>  (94) 
93

>  <original_smiles>  (94) 
[H]c1c([H])c([H])c2c(c1[H])C([H])([H])C([H])([H])C([H])([H])C2([H])N([H])C(=O)C1([H])N(C(=O)C([H])(N([H])C(=O)C([H])(N([H])C([H])([H])[H])C([H])([H])[H])C(C([H])([H])[H])(C([H])([H])[H])C([H])([H])[H])C([H])([H])c2c([H])c(OC([H])([H])C([H])([H])C([H])(C([H])([H])[H])C3([H])C([H])([H])C([H])([H])[N+]([H])(C([H])(C([H])([H])N([H])C(=O)N4C([H])([H])C([H])([H])C([H])([H])C([H])(n5nc(-c6c([H])c([H])c(Oc7c([H])c([H])c(F)c([H])c7F)c([H])c6[H])c(C(=O)N([H])[H])c5N([H])[H])C4([H])[H])C([H])([H])N4C([H])([H])C([H])([H])[N+]([H])([H])C([H])(C([H])([H])C([H])([H])[N+]([H])([H])C([H])([H])[H])C4([H])[H])C([H])([H])C3([H])[H])c([H])c([H])c2C1([H])[H]

>  <smiles>  (94) 
[H]c1c([H])c([H])c2c(c1[H])C([H])([H])C([H])([H])C([H])([H])C2([H])N([H])C(=O)C1([H])N(C(=O)C([H])(N([H])C(=O)C([H])(N([H])C([H])([H])[H])C([H])([H])[H])C(C([H])([H])[H])(C([H])([H])[H])C([H])([H])[H])C([H])([H])c2c([H])c(OC([H])([H])C([H])([H])C([H])(C([H])([H])[H])C3([H])C([H])([H])C([H])([H])[N+]([H])(C([H])(C([H])([H])N([H])C(=O)N4C([H])([H])C([H])([H])C([H])([H])C([H])(n5nc(-c6c([H])c([H])c(Oc7c([H])c([H])c(F)c([H])c7F)c([H])c6[H])c(C(=O)N([H])[H])c5N([H])[H])C4([H])[H])C([H])([H])N4C([H])([H])C([H])([H])[N+]([H])([H])C([H])(C([H])([H])C([H])([H])[N+]([H])([H])C([H])([H])[H])C4([H])[H])C([H])([H])C3([H])[H])c([H])c([H])c2C1([H])[H]

$$$$
94:0:0
     RDKit          3D

 95104  0  0  1  0  0  0  0  0999 V2000
  -30.0920  -20.8860   18.5050 C   0  0  0  0  0  2  0  0  0  0  0  0
  -29.2090  -19.1270   19.9210 C   0  0  0  0  0  3  0  0  0  0  0  0
  -29.6060  -20.5580   19.7900 C   0  0  0  0  0  3  0  0  0  0  0  0
  -28.4140  -18.7450   18.8190 C   0  0  0  0  0  3  0  0  0  0  0  0
  -28.7970  -19.2450   17.5600 C   0  0  0  0  0  0  0  0  0  0  0  0
  -29.7170  -20.2080   17.3970 N   0  0  0  0  0  0  0  0  0  0  0  0
  -28.2160  -18.7560   16.4020 N   0  0  0  0  0  0  0  0  0  0  0  0
  -27.3470  -18.2490   16.5260 H   0  0  0  0  0  0  0  0  0  0  0  0
  -28.2510  -19.3330   15.5730 H   0  0  0  0  0  0  0  0  0  0  0  0
  -30.1410  -17.1430   21.5950 C   0  0  0  0  0  2  0  0  0  0  0  0
  -30.1480  -17.8270   20.2540 C   0  0  0  0  0  3  0  0  0  0  0  0
  -29.7530  -16.2260   20.4440 C   0  0  0  0  0  3  0  0  0  0  0  0
  -30.6500  -14.8870   20.2410 C   0  0  0  0  0  0  0  0  0  0  0  0
  -30.5350  -12.5440   19.2910 C   0  0  0  0  0  2  0  0  0  0  0  0
  -29.5720  -12.5350   18.0790 C   0  0  0  0  0  2  0  0  0  0  0  0
  -28.1150  -12.3210   18.5370 C   0  0  0  0  0  2  0  0  0  0  0  0
  -27.7360  -13.2250   19.7370 C   0  0  0  0  0  3  0  0  0  0  0  0
  -28.8160  -13.2130   20.8380 C   0  0  0  0  0  2  0  0  0  0  0  0
  -30.0850  -13.6160   20.2200 N   0  0  0  0  0  0  0  0  0  0  0  0
  -31.8470  -14.9680   19.9400 O   0  0  0  0  0  0  0  0  0  0  0  0
  -25.3740  -13.7880   20.5430 C   0  0  0  0  0  0  0  0  0  0  0  0
  -24.3190  -13.0110   20.9280 C   0  0  0  0  0  0  0  0  0  0  0  0
  -24.7830  -11.6620   20.8670 C   0  0  0  0  0  0  0  0  0  0  0  0
  -26.4110  -12.9170   20.2640 N   0  0  0  0  0  0  0  0  0  0  0  0
  -26.0660  -11.6300   20.5240 N   0  0  0  0  0  0  0  0  0  0  0  0
  -24.0600  -10.3990   21.0540 C   0  0  0  0  0  0  0  0  0  0  0  0
  -24.4970   -9.4310   21.9840 C   0  0  0  0  0  3  0  0  0  0  0  0
  -23.7740   -8.2320   22.1600 C   0  0  0  0  0  3  0  0  0  0  0  0
  -22.6000   -7.9950   21.4070 C   0  0  0  0  0  0  0  0  0  0  0  0
  -22.1820   -8.9520   20.4660 C   0  0  0  0  0  3  0  0  0  0  0  0
  -22.9060  -10.1430   20.2880 C   0  0  0  0  0  3  0  0  0  0  0  0
  -21.8470   -6.8490   21.4920 O   0  0  0  0  0  0  0  0  0  0  0  0
  -21.7810   -6.1170   22.6510 C   0  0  0  0  0  0  0  0  0  0  0  0
  -21.2980   -6.6710   23.8560 C   0  0  0  0  0  3  0  0  0  0  0  0
  -21.1820   -5.8640   25.0050 C   0  0  0  0  0  3  0  0  0  0  0  0
  -21.5390   -4.5040   24.9500 C   0  0  0  0  0  0  0  0  0  0  0  0
  -22.0160   -3.9490   23.7490 C   0  0  0  0  0  3  0  0  0  0  0  0
  -22.1330   -4.7530   22.6020 C   0  0  0  0  0  0  0  0  0  0  0  0
  -22.5740   -4.2090   21.4420 F   0  0  0  0  0  0  0  0  0  0  0  0
  -21.4200   -3.7250   26.0520 F   0  0  0  0  0  0  0  0  0  0  0  0
  -22.9270  -13.4870   21.2350 C   0  0  0  0  0  0  0  0  0  0  0  0
  -22.2200  -12.7820   22.1100 N   0  0  0  0  0  0  0  0  0  0  0  0
  -22.4790  -14.5170   20.7350 O   0  0  0  0  0  0  0  0  0  0  0  0
  -22.5950  -11.9470   22.5360 H   0  0  0  0  0  0  0  0  0  0  0  0
  -21.2870  -13.0830   22.3580 H   0  0  0  0  0  0  0  0  0  0  0  0
  -25.5280  -15.1570   20.3780 N   0  0  0  0  0  0  0  0  0  0  0  0
  -24.7450  -15.7900   20.4910 H   0  0  0  0  0  0  0  0  0  0  0  0
  -26.3410  -15.5920   19.9610 H   0  0  0  0  0  0  0  0  0  0  0  0
  -26.5290  -18.1170   20.0270 C   0  0  0  0  0  1  0  0  0  0  0  0
  -27.3850  -17.8430   18.9220 O   0  0  0  0  0  0  0  0  0  0  0  0
  -28.9410  -21.8480   20.5470 C   0  0  0  0  0  2  0  0  0  0  0  0
  -30.6150  -23.8510   20.5440 C   0  0  0  0  0  1  0  0  0  0  0  0
  -29.1890  -23.4570   20.1260 C   0  0  0  0  0  3  0  0  0  0  0  0
  -28.1710  -24.6970   20.5830 C   0  0  0  0  0  2  0  0  0  0  0  0
  -28.3980  -26.2040   20.3450 O   0  0  0  0  0  0  0  0  0  0  0  0
  -24.6320  -31.8230   23.2320 C   0  0  0  0  0  0  0  0  0  0  0  0
  -27.3080  -27.1330   20.2990 C   0  0  0  0  0  0  0  0  0  0  0  0
  -23.4720  -30.4060   21.5800 C   0  0  0  0  0  3  0  0  0  0  0  0
  -24.9580  -28.8280   20.2090 C   0  0  0  0  0  0  0  0  0  0  0  0
  -26.0250  -30.6950   21.4630 C   0  0  0  0  0  2  0  0  0  0  0  0
  -26.1210  -29.3000   20.8310 C   0  0  0  0  0  0  0  0  0  0  0  0
  -27.2980  -28.4690   20.8560 C   0  0  0  0  0  3  0  0  0  0  0  0
  -26.1200  -26.7510   19.6390 C   0  0  0  0  0  3  0  0  0  0  0  0
  -24.9670  -27.5640   19.5990 C   0  0  0  0  0  3  0  0  0  0  0  0
  -23.7260  -29.7150   20.2160 C   0  0  0  0  0  2  0  0  0  0  0  0
  -24.7280  -30.9950   22.1480 N   0  0  0  0  0  0  0  0  0  0  0  0
  -23.5340  -32.1060   23.7340 O   0  0  0  0  0  0  0  0  0  0  0  0
  -22.7800  -29.4040   22.5370 C   0  0  0  0  0  0  0  0  0  0  0  0
  -21.4500  -29.2510   22.4040 N   0  0  0  0  0  0  0  0  0  0  0  0
  -23.4400  -28.7670   23.3610 O   0  0  0  0  0  0  0  0  0  0  0  0
  -20.9750  -29.8170   21.7140 H   0  0  0  0  0  0  0  0  0  0  0  0
  -18.0440  -28.1350   22.9220 C   0  0  0  0  0  0  0  0  0  0  0  0
  -20.6120  -28.3250   23.1700 C   0  0  0  0  0  3  0  0  0  0  0  0
  -20.6700  -26.8990   22.5740 C   0  0  0  0  0  2  0  0  0  0  0  0
  -19.5510  -26.6200   21.5660 C   0  0  0  0  0  2  0  0  0  0  0  0
  -18.1800  -26.7920   22.2240 C   0  0  0  0  0  2  0  0  0  0  0  0
  -19.1870  -28.8610   23.3520 C   0  0  0  0  0  0  0  0  0  0  0  0
  -19.0060  -30.1200   23.9660 C   0  0  0  0  0  3  0  0  0  0  0  0
  -17.7150  -30.6510   24.1540 C   0  0  0  0  0  3  0  0  0  0  0  0
  -16.5890  -29.9210   23.7390 C   0  0  0  0  0  3  0  0  0  0  0  0
  -16.7540  -28.6650   23.1290 C   0  0  0  0  0  3  0  0  0  0  0  0
  -25.8940  -32.4680   23.8800 C   0  0  0  0  0  3  0  0  0  0  0  0
  -25.5720  -33.8690   24.1910 N   0  0  0  0  0  0  0  0  0  0  0  0
  -25.9140  -34.9180   23.4320 C   0  0  0  0  0  0  0  0  0  0  0  0
  -26.6020  -34.8080   22.4130 O   0  0  0  0  0  0  0  0  0  0  0  0
  -24.9630  -34.0280   24.9810 H   0  0  0  0  0  0  0  0  0  0  0  0
  -24.1940  -36.7110   23.0290 C   0  0  0  0  0  1  0  0  0  0  0  0
  -25.4160  -36.3100   23.8710 C   0  0  0  0  0  3  0  0  0  0  0  0
  -27.5260  -37.2070   24.7520 C   0  0  0  0  0  1  0  0  0  0  0  0
  -26.4510  -37.3630   23.7760 N   0  0  0  0  0  0  0  0  0  0  0  0
  -26.0400  -38.2850   23.9010 H   0  0  0  0  0  0  0  0  0  0  0  0
  -26.3780  -31.7140   25.1800 C   0  0  1  0  0  0  0  0  0  0  0  0
  -25.2560  -31.4850   26.2210 C   0  0  0  0  0  1  0  0  0  0  0  0
  -26.9750  -30.3330   24.8230 C   0  0  0  0  0  1  0  0  0  0  0  0
  -27.5080  -32.5190   25.8640 C   0  0  0  0  0  1  0  0  0  0  0  0
  1  3  1  0
  2 11  1  0
  3  2  1  0
  3 51  1  0
  4 50  1  0
  4  2  1  0
  5  4  1  0
  6  5  2  0
  6  1  1  0
  7  8  1  0
  7  5  1  0
  9  7  1  0
 11 12  1  0
 11 10  1  0
 12 13  1  0
 12 10  1  0
 14 19  1  0
 15 16  1  0
 15 14  1  0
 17 16  1  0
 17 24  1  0
 17 18  1  0
 19 13  1  0
 19 18  1  0
 20 13  2  0
 21 22  2  0
 22 41  1  0
 23 22  1  0
 23 26  1  0
 24 25  1  0
 24 21  1  0
 25 23  2  0
 26 27  1  0
 27 28  2  0
 29 32  1  0
 29 28  1  0
 30 29  2  0
 31 30  1  0
 31 26  2  0
 32 33  1  0
 33 34  1  0
 34 35  2  0
 36 35  1  0
 36 40  1  0
 37 36  2  0
 38 33  2  0
 38 37  1  0
 39 38  1  0
 41 42  1  0
 42 45  1  0
 42 44  1  0
 43 41  2  0
 46 47  1  0
 46 21  1  0
 48 46  1  0
 50 49  1  0
 53 52  1  0
 53 51  1  0
 53 54  1  0
 55 54  1  0
 56 67  2  0
 57 55  1  0
 57 62  1  0
 58 66  1  0
 58 68  1  0
 59 65  1  0
 59 61  1  0
 60 66  1  0
 61 62  2  0
 61 60  1  0
 63 57  2  0
 64 63  1  0
 64 59  2  0
 65 58  1  0
 66 56  1  0
 68 70  2  0
 69 68  1  0
 71 69  1  0
 72 81  2  0
 72 77  1  0
 73 69  1  0
 73 77  1  0
 74 73  1  0
 75 76  1  0
 75 74  1  0
 76 72  1  0
 77 78  2  0
 78 79  1  0
 80 79  2  0
 81 80  1  0
 82 56  1  0
 82 83  1  0
 82 92  1  0
 83 86  1  0
 84 88  1  0
 84 83  1  0
 85 84  2  0
 88 87  1  0
 90 88  1  0
 90 91  1  0
 90 89  1  0
 92 95  1  1
 92 93  1  0
 94 92  1  0
M  ISO  4  12 100  13 100  54 101  55 101
M  END
>  <TORSDO>  (95) 
F 21

>  <SCORE>  (95) 
-13.711

>  <name>  (95) 
94

>  <ligand_id>  (95) 
94

>  <original_smiles>  (95) 
[H]c1nc(N([H])[H])c(OC([H])([H])[H])c(C2([H])C([H])([H])C2([H])C(=O)N2C([H])([H])C([H])([H])C([H])([H])C([H])(n3nc(-c4c([H])c([H])c(Oc5c([H])c([H])c(F)c([H])c5F)c([H])c4[H])c(C(=O)N([H])[H])c3N([H])[H])C2([H])[H])c1C([H])([H])C([H])(C([H])([H])[H])C([H])([H])Oc1c([H])c([H])c2c(c1[H])C([H])([H])N(C(=O)C([H])(N([H])C(=O)C([H])(N([H])C([H])([H])[H])C([H])([H])[H])C(C([H])([H])[H])(C([H])([H])[H])C([H])([H])[H])C([H])(C(=O)N([H])C1([H])c3c([H])c([H])c([H])c([H])c3C([H])([H])C([H])([H])C1([H])[H])C2([H])[H]

>  <smiles>  (95) 
[H]c1nc(N([H])[H])c(OC([H])([H])[H])c(C2([H])C([H])([H])C2([H])C(=O)N2C([H])([H])C([H])([H])C([H])([H])C([H])(n3nc(-c4c([H])c([H])c(Oc5c([H])c([H])c(F)c([H])c5F)c([H])c4[H])c(C(=O)N([H])[H])c3N([H])[H])C2([H])[H])c1C([H])([H])C([H])(C([H])([H])[H])C([H])([H])Oc1c([H])c([H])c2c(c1[H])C([H])([H])N(C(=O)C([H])(N([H])C(=O)C([H])(N([H])C([H])([H])[H])C([H])([H])[H])C(C([H])([H])[H])(C([H])([H])[H])C([H])([H])[H])C([H])(C(=O)N([H])C1([H])c3c([H])c([H])c([H])c([H])c3C([H])([H])C([H])([H])C1([H])[H])C2([H])[H]

$$$$
95:0:0
     RDKit          3D

101110  0  0  1  0  0  0  0  0999 V2000
  -27.1550  -18.9170   19.5630 C   0  0  0  0  0  3  0  0  0  0  0  0
  -27.8620  -19.4570   18.3100 C   0  0  0  0  0  2  0  0  0  0  0  0
  -28.0050  -17.9660   20.4350 C   0  0  0  0  0  3  0  0  0  0  0  0
  -30.0360  -19.0730   19.6520 C   0  0  0  0  0  2  0  0  0  0  0  0
  -29.2860  -19.9980   18.6060 C   0  0  0  0  0  3  0  0  0  0  0  0
  -29.3970  -17.7380   19.9570 N   0  0  1  0  0  4  0  0  0  0  0  0
  -29.2960  -17.2400   19.0840 H   0  0  0  0  0  0  0  0  0  0  0  0
  -30.4860  -15.8040   23.3200 C   0  0  0  0  0  2  0  0  0  0  0  0
  -29.5540  -16.3050   22.1810 C   0  0  0  0  0  2  0  0  0  0  0  0
  -31.6600  -14.8670   22.9590 C   0  0  0  0  0  2  0  0  0  0  0  0
  -32.4750  -15.5220   20.6670 C   0  0  0  0  0  2  0  0  0  0  0  0
  -30.9870  -15.6070   20.2060 C   0  0  0  0  0  3  0  0  0  0  0  0
  -30.2480  -16.8490   20.8680 C   0  0  0  0  0  3  0  0  0  0  0  0
  -32.6800  -15.5550   22.1380 N   0  0  0  0  0  4  0  0  0  0  0  0
  -33.5740  -15.1170   22.3150 H   0  0  0  0  0  0  0  0  0  0  0  0
  -32.7790  -16.5040   22.4690 H   0  0  0  0  0  0  0  0  0  0  0  0
  -31.2190  -14.2450   18.0590 C   0  0  0  0  0  0  0  0  0  0  0  0
  -30.4310  -12.0810   17.1420 C   0  0  0  0  0  2  0  0  0  0  0  0
  -29.1100  -12.2800   16.3680 C   0  0  0  0  0  2  0  0  0  0  0  0
  -27.8930  -12.2480   17.3200 C   0  0  0  0  0  2  0  0  0  0  0  0
  -28.1000  -13.1260   18.5820 C   0  0  0  0  0  3  0  0  0  0  0  0
  -29.4520  -12.7710   19.2080 C   0  0  0  0  0  2  0  0  0  0  0  0
  -30.4980  -13.0920   18.2210 N   0  0  0  0  0  0  0  0  0  0  0  0
  -32.0500  -14.3640   17.1540 O   0  0  0  0  0  0  0  0  0  0  0  0
  -30.8540  -15.3680   18.7440 N   0  0  0  0  0  0  0  0  0  0  0  0
  -31.1770  -16.1560   18.2080 H   0  0  0  0  0  0  0  0  0  0  0  0
  -26.4330  -13.9300   20.3590 C   0  0  0  0  0  0  0  0  0  0  0  0
  -25.4070  -13.2900   21.0070 C   0  0  0  0  0  0  0  0  0  0  0  0
  -25.4190  -11.9510   20.5190 C   0  0  0  0  0  0  0  0  0  0  0  0
  -27.0100  -12.9780   19.5370 N   0  0  0  0  0  0  0  0  0  0  0  0
  -26.4200  -11.7700   19.6730 N   0  0  0  0  0  0  0  0  0  0  0  0
  -24.5040  -10.8350   20.7620 C   0  0  0  0  0  0  0  0  0  0  0  0
  -24.9170   -9.6760   21.4590 C   0  0  0  0  0  3  0  0  0  0  0  0
  -24.0040   -8.6230   21.7020 C   0  0  0  0  0  3  0  0  0  0  0  0
  -22.6670   -8.7260   21.2370 C   0  0  0  0  0  0  0  0  0  0  0  0
  -22.2730   -9.8680   20.5250 C   0  0  0  0  0  3  0  0  0  0  0  0
  -23.1810  -10.9170   20.2950 C   0  0  0  0  0  3  0  0  0  0  0  0
  -21.7130   -7.7530   21.4010 O   0  0  0  0  0  0  0  0  0  0  0  0
  -21.6800   -6.9630   22.5210 C   0  0  0  0  0  0  0  0  0  0  0  0
  -21.3820   -7.4810   23.7990 C   0  0  0  0  0  3  0  0  0  0  0  0
  -21.2920   -6.6210   24.9110 C   0  0  0  0  0  3  0  0  0  0  0  0
  -21.4840   -5.2360   24.7470 C   0  0  0  0  0  0  0  0  0  0  0  0
  -21.7600   -4.7140   23.4730 C   0  0  0  0  0  3  0  0  0  0  0  0
  -21.8590   -5.5720   22.3640 C   0  0  0  0  0  0  0  0  0  0  0  0
  -22.1200   -5.0550   21.1390 F   0  0  0  0  0  0  0  0  0  0  0  0
  -21.3790   -4.4110   25.8140 F   0  0  0  0  0  0  0  0  0  0  0  0
  -24.4310  -13.9120   21.9600 C   0  0  0  0  0  0  0  0  0  0  0  0
  -23.7790  -13.1020   22.7910 N   0  0  0  0  0  0  0  0  0  0  0  0
  -24.2640  -15.1280   22.0110 O   0  0  0  0  0  0  0  0  0  0  0  0
  -23.1620  -13.5150   23.4730 H   0  0  0  0  0  0  0  0  0  0  0  0
  -23.8340  -12.1010   22.7180 H   0  0  0  0  0  0  0  0  0  0  0  0
  -26.9220  -15.2300   20.3830 N   0  0  0  0  0  0  0  0  0  0  0  0
  -26.3290  -15.9410   20.7950 H   0  0  0  0  0  0  0  0  0  0  0  0
  -27.4220  -15.5490   19.5630 H   0  0  0  0  0  0  0  0  0  0  0  0
  -29.3070  -21.5390   18.9750 C   0  0  0  0  0  2  0  0  0  0  0  0
  -28.4020  -22.4290   18.1650 N   0  0  0  0  0  4  0  0  0  0  0  0
  -27.7540  -21.8100   17.7020 H   0  0  0  0  0  0  0  0  0  0  0  0
  -28.9120  -22.8680   17.4110 H   0  0  0  0  0  0  0  0  0  0  0  0
  -27.5390  -23.4370   18.8950 C   0  0  0  0  0  2  0  0  0  0  0  0
  -28.0440  -24.9250   19.0120 C   0  0  0  0  0  2  0  0  0  0  0  0
  -27.0500  -25.9950   18.9380 O   0  0  0  0  0  0  0  0  0  0  0  0
  -27.5480  -30.6700   24.3660 C   0  0  0  0  0  0  0  0  0  0  0  0
  -26.5250  -26.5020   20.1160 C   0  0  0  0  0  0  0  0  0  0  0  0
  -25.8420  -28.8980   24.6020 C   0  0  0  0  0  3  0  0  0  0  0  0
  -25.3600  -27.5350   22.4920 C   0  0  0  0  0  0  0  0  0  0  0  0
  -26.5530  -29.7190   22.2810 C   0  0  0  0  0  2  0  0  0  0  0  0
  -26.2410  -28.3290   21.7490 C   0  0  0  0  0  0  0  0  0  0  0  0
  -26.8130  -27.8220   20.5540 C   0  0  0  0  0  3  0  0  0  0  0  0
  -25.6220  -25.7270   20.8740 C   0  0  0  0  0  3  0  0  0  0  0  0
  -25.0430  -26.2310   22.0580 C   0  0  0  0  0  3  0  0  0  0  0  0
  -24.7810  -28.1390   23.7570 C   0  0  0  0  0  2  0  0  0  0  0  0
  -26.7060  -29.7880   23.7580 N   0  0  0  0  0  0  0  0  0  0  0  0
  -27.5850  -30.7740   25.5990 O   0  0  0  0  0  0  0  0  0  0  0  0
  -26.6490  -27.8680   25.4280 C   0  0  0  0  0  0  0  0  0  0  0  0
  -26.1960  -27.6010   26.6650 N   0  0  0  0  0  0  0  0  0  0  0  0
  -27.6390  -27.3140   24.9500 O   0  0  0  0  0  0  0  0  0  0  0  0
  -25.3840  -28.1070   26.9860 H   0  0  0  0  0  0  0  0  0  0  0  0
  -26.0380  -26.3930   30.0650 C   0  0  0  0  0  0  0  0  0  0  0  0
  -26.7720  -26.6380   27.6020 C   0  0  0  0  0  3  0  0  0  0  0  0
  -26.1740  -25.2290   27.3880 C   0  0  0  0  0  2  0  0  0  0  0  0
  -24.9680  -24.9440   28.2880 C   0  0  0  0  0  2  0  0  0  0  0  0
  -25.3580  -25.0670   29.7640 C   0  0  0  0  0  2  0  0  0  0  0  0
  -26.6890  -27.1370   29.0460 C   0  0  0  0  0  0  0  0  0  0  0  0
  -27.2780  -28.3780   29.3750 C   0  0  0  0  0  3  0  0  0  0  0  0
  -27.2220  -28.8750   30.6880 C   0  0  0  0  0  3  0  0  0  0  0  0
  -26.5910  -28.1280   31.6980 C   0  0  0  0  0  3  0  0  0  0  0  0
  -26.0050  -26.8860   31.3850 C   0  0  0  0  0  3  0  0  0  0  0  0
  -28.4830  -31.6070   23.5410 C   0  0  0  0  0  3  0  0  0  0  0  0
  -28.3510  -32.9620   24.0980 N   0  0  0  0  0  0  0  0  0  0  0  0
  -27.7340  -33.9810   23.4840 C   0  0  0  0  0  0  0  0  0  0  0  0
  -27.2660  -33.8930   22.3450 O   0  0  0  0  0  0  0  0  0  0  0  0
  -28.6630  -33.0910   25.0480 H   0  0  0  0  0  0  0  0  0  0  0  0
  -26.1470  -35.5300   24.6740 C   0  0  0  0  0  1  0  0  0  0  0  0
  -27.6110  -35.3070   24.2590 C   0  0  0  0  0  3  0  0  0  0  0  0
  -29.5480  -36.5030   23.3410 C   0  0  0  0  0  1  0  0  0  0  0  0
  -28.0960  -36.4770   23.4980 N   0  0  0  0  0  0  0  0  0  0  0  0
  -27.8130  -37.3430   23.9490 H   0  0  0  0  0  0  0  0  0  0  0  0
  -29.9930  -31.1450   23.5520 C   0  0  1  0  0  0  0  0  0  0  0  0
  -30.5700  -30.9360   24.9710 C   0  0  0  0  0  1  0  0  0  0  0  0
  -30.1610  -29.8180   22.7750 C   0  0  0  0  0  1  0  0  0  0  0  0
  -30.8690  -32.1980   22.8340 C   0  0  0  0  0  1  0  0  0  0  0  0
  1  3  2  0
  2  5  1  0
  2  1  1  0
  4  6  1  0
  5 55  1  0
  5  4  1  0
  6  3  1  0
  6 13  1  0
  6  7  1  6
  9  8  1  0
 10  8  1  0
 11 14  1  0
 12 25  1  0
 12 11  1  0
 12 13  1  0
 13  9  1  0
 14 15  1  0
 14 16  1  0
 14 10  1  0
 17 23  1  0
 17 25  1  0
 18 23  1  0
 19 18  1  0
 19 20  1  0
 21 20  1  0
 21 22  1  0
 21 30  1  0
 23 22  1  0
 24 17  2  0
 26 25  1  0
 27 52  1  0
 27 28  2  0
 28 47  1  0
 29 32  1  0
 29 28  1  0
 30 31  1  0
 30 27  1  0
 31 29  2  0
 32 33  1  0
 33 34  2  0
 35 38  1  0
 35 34  1  0
 36 35  2  0
 37 36  1  0
 37 32  2  0
 38 39  1  0
 39 40  1  0
 40 41  2  0
 42 41  1  0
 42 46  1  0
 43 42  2  0
 44 39  2  0
 44 43  1  0
 45 44  1  0
 47 49  2  0
 47 48  1  0
 48 50  1  0
 51 48  1  0
 52 53  1  0
 54 52  1  0
 56 59  1  0
 56 55  1  0
 57 56  1  0
 58 56  1  0
 59 60  1  0
 61 60  1  0
 61 63  1  0
 62 73  2  0
 63 68  2  0
 63 69  1  0
 64 74  1  0
 65 71  1  0
 66 72  1  0
 67 66  1  0
 67 65  2  0
 68 67  1  0
 69 70  2  0
 70 65  1  0
 71 64  1  0
 72 62  1  0
 72 64  1  0
 74 75  1  0
 75 77  1  0
 76 74  2  0
 78 87  1  0
 79 75  1  0
 79 83  1  0
 80 79  1  0
 80 81  1  0
 81 82  1  0
 82 78  1  0
 83 84  1  0
 83 78  2  0
 84 85  2  0
 85 86  1  0
 87 86  2  0
 88 98  1  0
 88 89  1  0
 88 62  1  0
 89 92  1  0
 90 89  1  0
 90 94  1  0
 91 90  2  0
 94 93  1  0
 95 96  1  0
 96 97  1  0
 96 94  1  0
 98 99  1  1
100 98  1  0
101 98  1  0
M  ISO  4  17 100  25 100  60 101  61 101
M  END
>  <TORSDO>  (96) 
F 21

>  <SCORE>  (96) 
4.866

>  <name>  (96) 
95

>  <ligand_id>  (96) 
95

>  <original_smiles>  (96) 
[H]c1c([H])c([H])c2c(c1[H])C([H])([H])C([H])([H])C([H])([H])C2([H])N([H])C(=O)C1([H])N(C(=O)C([H])(N([H])C(=O)C([H])(N([H])C([H])([H])[H])C([H])([H])[H])C(C([H])([H])[H])(C([H])([H])[H])C([H])([H])[H])C([H])([H])c2c([H])c(OC([H])([H])C([H])([H])[N+]([H])([H])C([H])([H])C3([H])C([H])([H])C([H])([H])C([H])([H])[N+]([H])(C4([H])C([H])([H])C([H])([H])C([H])([H])[N+]([H])([H])C([H])([H])C4([H])N([H])C(=O)N4C([H])([H])C([H])([H])C([H])([H])C([H])(n5nc(-c6c([H])c([H])c(Oc7c([H])c([H])c(F)c([H])c7F)c([H])c6[H])c(C(=O)N([H])[H])c5N([H])[H])C4([H])[H])C3([H])[H])c([H])c([H])c2C1([H])[H]

>  <smiles>  (96) 
[H]c1c([H])c([H])c2c(c1[H])C([H])([H])C([H])([H])C([H])([H])C2([H])N([H])C(=O)C1([H])N(C(=O)C([H])(N([H])C(=O)C([H])(N([H])C([H])([H])[H])C([H])([H])[H])C(C([H])([H])[H])(C([H])([H])[H])C([H])([H])[H])C([H])([H])c2c([H])c(OC([H])([H])C([H])([H])[N+]([H])([H])C([H])([H])C3([H])C([H])([H])C([H])([H])C([H])([H])[N+]([H])(C4([H])C([H])([H])C([H])([H])C([H])([H])[N+]([H])([H])C([H])([H])C4([H])N([H])C(=O)N4C([H])([H])C([H])([H])C([H])([H])C([H])(n5nc(-c6c([H])c([H])c(Oc7c([H])c([H])c(F)c([H])c7F)c([H])c6[H])c(C(=O)N([H])[H])c5N([H])[H])C4([H])[H])C3([H])[H])c([H])c([H])c2C1([H])[H]

$$$$
96:0:0
     RDKit          3D

 92100  0  0  1  0  0  0  0  0999 V2000
  -29.5490  -23.5770   21.0930 C   0  0  0  0  0  3  0  0  0  0  0  0
  -29.8730  -22.2290   21.4360 C   0  0  0  0  0  3  0  0  0  0  0  0
  -28.3520  -22.6810   19.2410 C   0  0  0  0  0  3  0  0  0  0  0  0
  -28.7730  -23.8500   19.9450 C   0  0  0  0  0  0  0  0  0  0  0  0
  -29.4300  -21.1320   20.6540 C   0  0  0  0  0  0  0  0  0  0  0  0
  -28.6520  -21.3810   19.5740 N   0  0  0  0  0  0  0  0  0  0  0  0
  -29.8470  -19.7990   20.9890 N   0  0  0  0  0  0  0  0  0  0  0  0
  -30.4560  -19.7400   21.7980 H   0  0  0  0  0  0  0  0  0  0  0  0
  -29.7080  -25.7060   18.4680 C   0  0  0  0  0  1  0  0  0  0  0  0
  -28.5250  -25.2990   19.3530 C   0  0  0  0  0  3  0  0  0  0  0  0
  -28.3380  -26.4760   20.2370 O   0  0  0  0  0  0  0  0  0  0  0  0
  -24.6120  -31.8830   23.2490 C   0  0  0  0  0  0  0  0  0  0  0  0
  -27.2120  -27.3210   20.1560 C   0  0  0  0  0  0  0  0  0  0  0  0
  -23.4030  -30.4920   21.6090 C   0  0  0  0  0  3  0  0  0  0  0  0
  -24.8450  -28.9490   20.1710 C   0  0  0  0  0  0  0  0  0  0  0  0
  -25.9450  -30.8040   21.4200 C   0  0  0  0  0  2  0  0  0  0  0  0
  -26.0190  -29.4290   20.7640 C   0  0  0  0  0  0  0  0  0  0  0  0
  -27.2010  -28.6260   20.7490 C   0  0  0  0  0  3  0  0  0  0  0  0
  -26.0000  -26.8890   19.5660 C   0  0  0  0  0  3  0  0  0  0  0  0
  -24.8390  -27.6840   19.5670 C   0  0  0  0  0  3  0  0  0  0  0  0
  -23.6120  -29.8250   20.2240 C   0  0  0  0  0  2  0  0  0  0  0  0
  -24.6730  -31.0760   22.1490 N   0  0  0  0  0  0  0  0  0  0  0  0
  -23.5290  -32.1590   23.7860 O   0  0  0  0  0  0  0  0  0  0  0  0
  -22.7430  -29.4690   22.5640 C   0  0  0  0  0  0  0  0  0  0  0  0
  -21.4180  -29.2880   22.4350 N   0  0  0  0  0  0  0  0  0  0  0  0
  -23.4230  -28.8440   23.3830 O   0  0  0  0  0  0  0  0  0  0  0  0
  -20.9260  -29.8460   21.7510 H   0  0  0  0  0  0  0  0  0  0  0  0
  -18.0440  -28.0820   22.9340 C   0  0  0  0  0  0  0  0  0  0  0  0
  -20.6010  -28.3480   23.2070 C   0  0  0  0  0  3  0  0  0  0  0  0
  -20.7080  -26.9170   22.6320 C   0  0  0  0  0  2  0  0  0  0  0  0
  -19.6070  -26.5910   21.6160 C   0  0  0  0  0  2  0  0  0  0  0  0
  -18.2230  -26.7330   22.2570 C   0  0  0  0  0  2  0  0  0  0  0  0
  -19.1600  -28.8470   23.3650 C   0  0  0  0  0  0  0  0  0  0  0  0
  -18.9350  -30.1110   23.9540 C   0  0  0  0  0  3  0  0  0  0  0  0
  -17.6290  -30.6070   24.1200 C   0  0  0  0  0  3  0  0  0  0  0  0
  -16.5270  -29.8380   23.7050 C   0  0  0  0  0  3  0  0  0  0  0  0
  -16.7370  -28.5780   23.1170 C   0  0  0  0  0  3  0  0  0  0  0  0
  -25.8950  -32.5130   23.8700 C   0  0  0  0  0  3  0  0  0  0  0  0
  -26.4070  -31.7440   25.1490 C   0  0  1  0  0  0  0  0  0  0  0  0
  -25.3130  -31.5130   26.2160 C   0  0  0  0  0  1  0  0  0  0  0  0
  -26.9880  -30.3640   24.7640 C   0  0  0  0  0  1  0  0  0  0  0  0
  -27.5630  -32.5390   25.8050 C   0  0  0  0  0  1  0  0  0  0  0  0
  -25.5900  -33.9140   24.1950 N   0  0  0  0  0  0  0  0  0  0  0  0
  -25.9240  -34.9630   23.4310 C   0  0  0  0  0  0  0  0  0  0  0  0
  -26.5900  -34.8550   22.3990 O   0  0  0  0  0  0  0  0  0  0  0  0
  -25.0000  -34.0720   24.9970 H   0  0  0  0  0  0  0  0  0  0  0  0
  -24.1980  -36.7610   23.0730 C   0  0  0  0  0  1  0  0  0  0  0  0
  -25.4400  -36.3550   23.8840 C   0  0  0  0  0  3  0  0  0  0  0  0
  -27.5840  -37.2270   24.7060 C   0  0  0  0  0  1  0  0  0  0  0  0
  -26.4730  -37.4080   23.7750 N   0  0  0  0  0  0  0  0  0  0  0  0
  -26.0680  -38.3250   23.9440 H   0  0  0  0  0  0  0  0  0  0  0  0
  -29.3620  -18.4620   20.5110 C   0  0  0  0  0  2  0  0  0  0  0  0
  -30.6900  -17.2810   22.3910 C   0  0  0  0  0  1  0  0  0  0  0  0
  -30.3100  -17.2160   20.9010 C   0  0  0  0  0  3  0  0  0  0  0  0
  -30.5610  -14.6910   20.3070 C   0  0  0  0  0  0  0  0  0  0  0  0
  -30.3060  -12.4550   19.2370 C   0  0  0  0  0  2  0  0  0  0  0  0
  -29.3350  -12.5570   18.0420 C   0  0  0  0  0  2  0  0  0  0  0  0
  -27.8770  -12.3900   18.5110 C   0  0  0  0  0  2  0  0  0  0  0  0
  -27.5410  -13.2650   19.7460 C   0  0  0  0  0  3  0  0  0  0  0  0
  -28.6260  -13.1430   20.8380 C   0  0  0  0  0  2  0  0  0  0  0  0
  -29.9120  -13.4880   20.2170 N   0  0  0  0  0  0  0  0  0  0  0  0
  -31.7350  -14.8010   19.9430 O   0  0  0  0  0  0  0  0  0  0  0  0
  -29.8220  -15.8050   20.6430 N   0  0  0  0  0  0  0  0  0  0  0  0
  -28.8450  -15.6330   20.8330 H   0  0  0  0  0  0  0  0  0  0  0  0
  -25.1680  -13.8560   20.5270 C   0  0  0  0  0  0  0  0  0  0  0  0
  -24.1120  -13.0790   20.9200 C   0  0  0  0  0  0  0  0  0  0  0  0
  -24.5770  -11.7300   20.8740 C   0  0  0  0  0  0  0  0  0  0  0  0
  -26.2080  -12.9780   20.2650 N   0  0  0  0  0  0  0  0  0  0  0  0
  -25.8600  -11.6950   20.5360 N   0  0  0  0  0  0  0  0  0  0  0  0
  -23.8570  -10.4650   21.0730 C   0  0  0  0  0  0  0  0  0  0  0  0
  -24.3180   -9.4870   21.9830 C   0  0  0  0  0  3  0  0  0  0  0  0
  -23.5970   -8.2880   22.1720 C   0  0  0  0  0  3  0  0  0  0  0  0
  -22.4020   -8.0580   21.4510 C   0  0  0  0  0  0  0  0  0  0  0  0
  -21.9610   -9.0240   20.5280 C   0  0  0  0  0  3  0  0  0  0  0  0
  -22.6820  -10.2140   20.3370 C   0  0  0  0  0  3  0  0  0  0  0  0
  -21.6500   -6.9120   21.5500 O   0  0  0  0  0  0  0  0  0  0  0  0
  -21.6480   -6.1500   22.6900 C   0  0  0  0  0  0  0  0  0  0  0  0
  -21.2670   -6.6830   23.9410 C   0  0  0  0  0  3  0  0  0  0  0  0
  -21.2120   -5.8460   25.0740 C   0  0  0  0  0  3  0  0  0  0  0  0
  -21.5270   -4.4800   24.9570 C   0  0  0  0  0  0  0  0  0  0  0  0
  -21.9000   -3.9460   23.7110 C   0  0  0  0  0  3  0  0  0  0  0  0
  -21.9570   -4.7790   22.5800 C   0  0  0  0  0  0  0  0  0  0  0  0
  -22.2970   -4.2570   21.3770 F   0  0  0  0  0  0  0  0  0  0  0  0
  -21.4670   -3.6740   26.0430 F   0  0  0  0  0  0  0  0  0  0  0  0
  -22.7210  -13.5530   21.2230 C   0  0  0  0  0  0  0  0  0  0  0  0
  -22.0130  -12.8520   22.1030 N   0  0  0  0  0  0  0  0  0  0  0  0
  -22.2700  -14.5800   20.7170 O   0  0  0  0  0  0  0  0  0  0  0  0
  -22.3920  -12.0200   22.5330 H   0  0  0  0  0  0  0  0  0  0  0  0
  -21.0790  -13.1500   22.3490 H   0  0  0  0  0  0  0  0  0  0  0  0
  -25.3260  -15.2260   20.3460 N   0  0  0  0  0  0  0  0  0  0  0  0
  -24.5530  -15.8740   20.4550 H   0  0  0  0  0  0  0  0  0  0  0  0
  -26.1490  -15.6610   19.9510 H   0  0  0  0  0  0  0  0  0  0  0  0
  1  2  1  0
  3  6  2  0
  3  4  1  0
  4  1  2  0
  5  7  1  0
  5  2  2  0
  6  5  1  0
  7  8  1  0
 10  9  1  0
 10  4  1  0
 10 11  1  0
 12 23  2  0
 13 11  1  0
 13 18  1  0
 14 22  1  0
 14 24  1  0
 15 21  1  0
 15 17  1  0
 16 22  1  0
 17 16  1  0
 18 17  2  0
 19 20  1  0
 19 13  2  0
 20 15  2  0
 21 14  1  0
 22 12  1  0
 24 26  2  0
 25 24  1  0
 27 25  1  0
 28 37  2  0
 28 33  1  0
 29 25  1  0
 29 33  1  0
 30 29  1  0
 31 32  1  0
 31 30  1  0
 32 28  1  0
 33 34  2  0
 34 35  1  0
 36 35  2  0
 37 36  1  0
 38 12  1  0
 38 43  1  0
 38 39  1  0
 39 42  1  1
 39 40  1  0
 41 39  1  0
 43 46  1  0
 44 48  1  0
 44 43  1  0
 45 44  2  0
 48 47  1  0
 50 48  1  0
 50 51  1  0
 50 49  1  0
 52 54  1  0
 52  7  1  0
 54 53  1  0
 55 63  1  0
 56 61  1  0
 57 58  1  0
 57 56  1  0
 59 58  1  0
 59 68  1  0
 59 60  1  0
 61 55  1  0
 61 60  1  0
 62 55  2  0
 63 64  1  0
 63 54  1  0
 65 66  2  0
 66 85  1  0
 67 66  1  0
 67 70  1  0
 68 65  1  0
 68 69  1  0
 69 67  2  0
 70 71  1  0
 71 72  2  0
 73 76  1  0
 73 72  1  0
 74 73  2  0
 75 74  1  0
 75 70  2  0
 76 77  1  0
 77 78  1  0
 78 79  2  0
 80 79  1  0
 80 84  1  0
 81 80  2  0
 82 77  2  0
 82 81  1  0
 83 82  1  0
 85 86  1  0
 86 89  1  0
 86 88  1  0
 87 85  2  0
 90 91  1  0
 90 65  1  0
 92 90  1  0
M  ISO  4  10 101  11 101  55 100  63 100
M  END
>  <TORSDO>  (97) 
F 19

>  <SCORE>  (97) 
-14.361

>  <name>  (97) 
96

>  <ligand_id>  (97) 
96

>  <original_smiles>  (97) 
[H]c1nc(N([H])C([H])([H])C([H])(N([H])C(=O)N2C([H])([H])C([H])([H])C([H])([H])C([H])(n3nc(-c4c([H])c([H])c(Oc5c([H])c([H])c(F)c([H])c5F)c([H])c4[H])c(C(=O)N([H])[H])c3N([H])[H])C2([H])[H])C([H])([H])[H])c([H])c([H])c1C([H])(Oc1c([H])c([H])c2c(c1[H])C([H])([H])N(C(=O)C([H])(N([H])C(=O)C([H])(N([H])C([H])([H])[H])C([H])([H])[H])C(C([H])([H])[H])(C([H])([H])[H])C([H])([H])[H])C([H])(C(=O)N([H])C1([H])c3c([H])c([H])c([H])c([H])c3C([H])([H])C([H])([H])C1([H])[H])C2([H])[H])C([H])([H])[H]

>  <smiles>  (97) 
[H]c1nc(N([H])C([H])([H])C([H])(N([H])C(=O)N2C([H])([H])C([H])([H])C([H])([H])C([H])(n3nc(-c4c([H])c([H])c(Oc5c([H])c([H])c(F)c([H])c5F)c([H])c4[H])c(C(=O)N([H])[H])c3N([H])[H])C2([H])[H])C([H])([H])[H])c([H])c([H])c1C([H])(Oc1c([H])c([H])c2c(c1[H])C([H])([H])N(C(=O)C([H])(N([H])C(=O)C([H])(N([H])C([H])([H])[H])C([H])([H])[H])C(C([H])([H])[H])(C([H])([H])[H])C([H])([H])[H])C([H])(C(=O)N([H])C1([H])c3c([H])c([H])c([H])c([H])c3C([H])([H])C([H])([H])C1([H])[H])C2([H])[H])C([H])([H])[H]

$$$$
97:0:0
     RDKit          3D

 95104  0  0  1  0  0  0  0  0999 V2000
  -29.4330  -22.1200   20.3670 C   0  0  0  0  0  3  0  0  0  0  0  0
  -28.3120  -21.9260   18.3910 C   0  0  0  0  0  3  0  0  0  0  0  0
  -29.8690  -20.6980   20.2490 C   0  0  0  0  0  0  0  0  0  0  0  0
  -28.6240  -22.8920   19.4310 C   0  0  0  0  0  0  0  0  0  0  0  0
  -29.4810  -19.8180   19.1580 C   0  0  0  0  0  0  0  0  0  0  0  0
  -28.7060  -20.5630   18.2650 N   0  0  0  0  0  0  0  0  0  0  0  0
  -32.2080  -20.6890   21.3480 C   0  0  0  0  0  2  0  0  0  0  0  0
  -30.1550  -20.2030   22.7330 C   0  0  0  0  0  2  0  0  0  0  0  0
  -33.0710  -20.0090   22.4310 C   0  0  0  0  0  2  0  0  0  0  0  0
  -31.0600  -19.5350   23.7890 C   0  0  0  0  0  2  0  0  0  0  0  0
  -30.7790  -20.1040   21.3280 C   0  0  0  0  0  3  0  0  0  0  0  0
  -32.4290  -20.0980   23.7620 N   0  0  0  0  0  4  0  0  0  0  0  0
  -32.4020  -21.0610   24.0580 H   0  0  0  0  0  0  0  0  0  0  0  0
  -32.9990  -19.6050   24.4310 H   0  0  0  0  0  0  0  0  0  0  0  0
  -27.8630  -24.4290   19.7490 C   0  0  0  0  0  2  0  0  0  0  0  0
  -28.2160  -26.0110   19.5800 O   0  0  0  0  0  0  0  0  0  0  0  0
  -24.7660  -31.6800   23.1380 C   0  0  0  0  0  0  0  0  0  0  0  0
  -27.2010  -27.0970   19.6370 C   0  0  0  0  0  0  0  0  0  0  0  0
  -23.4890  -30.3700   21.4910 C   0  0  0  0  0  3  0  0  0  0  0  0
  -24.8680  -28.9070   19.8680 C   0  0  0  0  0  0  0  0  0  0  0  0
  -26.0350  -30.6550   21.1910 C   0  0  0  0  0  2  0  0  0  0  0  0
  -26.0860  -29.2990   20.4370 C   0  0  0  0  0  0  0  0  0  0  0  0
  -27.2460  -28.4150   20.3030 C   0  0  0  0  0  3  0  0  0  0  0  0
  -25.9480  -26.8600   19.0260 C   0  0  0  0  0  3  0  0  0  0  0  0
  -24.8210  -27.7080   19.1430 C   0  0  0  0  0  3  0  0  0  0  0  0
  -23.6370  -29.7890   20.0580 C   0  0  0  0  0  2  0  0  0  0  0  0
  -24.7880  -30.9260   21.9930 N   0  0  0  0  0  0  0  0  0  0  0  0
  -23.7100  -31.9070   23.7500 O   0  0  0  0  0  0  0  0  0  0  0  0
  -22.8840  -29.2930   22.4290 C   0  0  0  0  0  0  0  0  0  0  0  0
  -21.6080  -28.9260   22.2130 N   0  0  0  0  0  0  0  0  0  0  0  0
  -23.5720  -28.7910   23.3210 O   0  0  0  0  0  0  0  0  0  0  0  0
  -21.1000  -29.3900   21.4710 H   0  0  0  0  0  0  0  0  0  0  0  0
  -18.4780  -27.1000   22.3860 C   0  0  0  0  0  0  0  0  0  0  0  0
  -20.8780  -27.8880   22.9480 C   0  0  0  0  0  3  0  0  0  0  0  0
  -21.3300  -26.4750   22.5110 C   0  0  0  0  0  2  0  0  0  0  0  0
  -20.4620  -25.8810   21.3980 C   0  0  0  0  0  2  0  0  0  0  0  0
  -19.0020  -25.7800   21.8480 C   0  0  0  0  0  2  0  0  0  0  0  0
  -19.3580  -28.0960   22.8880 C   0  0  0  0  0  0  0  0  0  0  0  0
  -18.8180  -29.3160   23.3490 C   0  0  0  0  0  3  0  0  0  0  0  0
  -17.4300  -29.5470   23.3140 C   0  0  0  0  0  3  0  0  0  0  0  0
  -16.5630  -28.5540   22.8280 C   0  0  0  0  0  3  0  0  0  0  0  0
  -17.0860  -27.3330   22.3690 C   0  0  0  0  0  3  0  0  0  0  0  0
  -26.0660  -32.3070   23.7260 C   0  0  0  0  0  3  0  0  0  0  0  0
  -26.6440  -31.4960   24.9510 C   0  0  1  0  0  0  0  0  0  0  0  0
  -25.5970  -31.1960   26.0500 C   0  0  0  0  0  1  0  0  0  0  0  0
  -27.2400  -30.1470   24.4920 C   0  0  0  0  0  1  0  0  0  0  0  0
  -27.8040  -32.2880   25.5990 C   0  0  0  0  0  1  0  0  0  0  0  0
  -25.7570  -33.6890   24.1330 N   0  0  0  0  0  0  0  0  0  0  0  0
  -26.0310  -34.7820   23.4080 C   0  0  0  0  0  0  0  0  0  0  0  0
  -26.6330  -34.7330   22.3330 O   0  0  0  0  0  0  0  0  0  0  0  0
  -25.2140  -33.7990   24.9760 H   0  0  0  0  0  0  0  0  0  0  0  0
  -24.2570  -36.5650   23.2720 C   0  0  0  0  0  1  0  0  0  0  0  0
  -25.5660  -36.1450   23.9630 C   0  0  0  0  0  3  0  0  0  0  0  0
  -27.7350  -37.0470   24.6770 C   0  0  0  0  0  1  0  0  0  0  0  0
  -26.5710  -37.2180   23.8110 N   0  0  0  0  0  0  0  0  0  0  0  0
  -26.1610  -38.1270   24.0070 H   0  0  0  0  0  0  0  0  0  0  0  0
  -30.0460  -18.2290   18.7180 C   0  0  0  0  0  2  0  0  0  0  0  0
  -30.7120  -15.4840   19.2410 C   0  0  0  0  0  0  0  0  0  0  0  0
  -30.8860  -12.9330   18.8650 C   0  0  0  0  0  2  0  0  0  0  0  0
  -29.8780  -12.3980   17.8190 C   0  0  0  0  0  2  0  0  0  0  0  0
  -28.5270  -12.0770   18.4810 C   0  0  0  0  0  2  0  0  0  0  0  0
  -28.0740  -13.2000   19.4490 C   0  0  0  0  0  3  0  0  0  0  0  0
  -29.2040  -13.6860   20.3830 C   0  0  0  0  0  2  0  0  0  0  0  0
  -30.2960  -14.1560   19.5160 N   0  0  0  0  0  0  0  0  0  0  0  0
  -31.8910  -15.5600   18.8690 O   0  0  0  0  0  0  0  0  0  0  0  0
  -29.8330  -16.6630   19.1840 N   0  0  0  0  0  0  0  0  0  0  0  0
  -28.8830  -16.4590   19.4530 H   0  0  0  0  0  0  0  0  0  0  0  0
  -25.9820  -13.7090   20.8130 C   0  0  0  0  0  0  0  0  0  0  0  0
  -24.9520  -12.9280   21.2540 C   0  0  0  0  0  0  0  0  0  0  0  0
  -25.2690  -11.5920   20.8570 C   0  0  0  0  0  0  0  0  0  0  0  0
  -26.8600  -12.8530   20.1740 N   0  0  0  0  0  0  0  0  0  0  0  0
  -26.4580  -11.5580   20.2630 N   0  0  0  0  0  0  0  0  0  0  0  0
  -24.4790  -10.3570   20.9560 C   0  0  0  0  0  0  0  0  0  0  0  0
  -24.7480   -9.3830   21.9430 C   0  0  0  0  0  3  0  0  0  0  0  0
  -23.9590   -8.2160   22.0310 C   0  0  0  0  0  3  0  0  0  0  0  0
  -22.8870   -8.0130   21.1300 C   0  0  0  0  0  0  0  0  0  0  0  0
  -22.6380   -8.9750   20.1340 C   0  0  0  0  0  3  0  0  0  0  0  0
  -23.4270  -10.1340   20.0450 C   0  0  0  0  0  3  0  0  0  0  0  0
  -22.0850   -6.8980   21.1230 O   0  0  0  0  0  0  0  0  0  0  0  0
  -21.4530   -6.4600   22.2600 C   0  0  0  0  0  0  0  0  0  0  0  0
  -20.5230   -7.2640   22.9530 C   0  0  0  0  0  3  0  0  0  0  0  0
  -19.8450   -6.7490   24.0760 C   0  0  0  0  0  3  0  0  0  0  0  0
  -20.0880   -5.4290   24.5010 C   0  0  0  0  0  0  0  0  0  0  0  0
  -21.0100   -4.6240   23.8090 C   0  0  0  0  0  3  0  0  0  0  0  0
  -21.6880   -5.1370   22.6890 C   0  0  0  0  0  0  0  0  0  0  0  0
  -22.5600   -4.3510   22.0120 F   0  0  0  0  0  0  0  0  0  0  0  0
  -19.4320   -4.9300   25.5740 F   0  0  0  0  0  0  0  0  0  0  0  0
  -23.6930  -13.4110   21.9140 C   0  0  0  0  0  0  0  0  0  0  0  0
  -23.1090  -12.5980   22.7860 N   0  0  0  0  0  0  0  0  0  0  0  0
  -23.2480  -14.5360   21.6920 O   0  0  0  0  0  0  0  0  0  0  0  0
  -23.4860  -11.6820   22.9810 H   0  0  0  0  0  0  0  0  0  0  0  0
  -22.2720  -12.8960   23.2670 H   0  0  0  0  0  0  0  0  0  0  0  0
  -26.2330  -15.0780   20.8710 N   0  0  0  0  0  0  0  0  0  0  0  0
  -25.5230  -15.7230   21.2010 H   0  0  0  0  0  0  0  0  0  0  0  0
  -26.9660  -15.5330   20.3450 H   0  0  0  0  0  0  0  0  0  0  0  0
  2  4  1  0
  3  1  1  0
  3 11  1  0
  4 15  1  0
  4  1  2  0
  5  3  2  0
  6  2  2  0
  6  5  1  0
  7  9  1  0
  8 10  1  0
  9 12  1  0
 11  7  1  0
 11  8  1  0
 12 10  1  0
 12 13  1  0
 12 14  1  0
 16 18  1  0
 16 15  1  0
 17 28  2  0
 18 23  1  0
 19 27  1  0
 19 29  1  0
 20 26  1  0
 20 22  1  0
 21 27  1  0
 22 21  1  0
 23 22  2  0
 24 25  1  0
 24 18  2  0
 25 20  2  0
 26 19  1  0
 27 17  1  0
 29 31  2  0
 30 29  1  0
 32 30  1  0
 33 38  1  0
 34 30  1  0
 35 34  1  0
 36 37  1  0
 36 35  1  0
 37 33  1  0
 38 34  1  0
 38 39  2  0
 40 39  1  0
 41 40  2  0
 42 33  2  0
 42 41  1  0
 43 17  1  0
 43 48  1  0
 43 44  1  0
 44 47  1  1
 44 45  1  0
 46 44  1  0
 48 51  1  0
 49 53  1  0
 49 48  1  0
 50 49  2  0
 53 52  1  0
 55 53  1  0
 55 56  1  0
 55 54  1  0
 57  5  1  0
 57 66  1  0
 58 64  1  0
 59 64  1  0
 60 61  1  0
 60 59  1  0
 62 61  1  0
 62 71  1  0
 62 63  1  0
 64 63  1  0
 65 58  2  0
 66 58  1  0
 66 67  1  0
 68 93  1  0
 68 69  2  0
 69 88  1  0
 70 73  1  0
 70 69  1  0
 71 72  1  0
 71 68  1  0
 72 70  2  0
 73 74  1  0
 74 75  2  0
 76 75  1  0
 77 76  2  0
 78 77  1  0
 78 73  2  0
 79 76  1  0
 79 80  1  0
 80 85  2  0
 80 81  1  0
 81 82  2  0
 82 83  1  0
 83 87  1  0
 84 83  2  0
 85 84  1  0
 86 85  1  0
 88 89  1  0
 89 91  1  0
 89 92  1  0
 90 88  2  0
 93 94  1  0
 95 93  1  0
M  ISO  4  15 101  16 101  58 100  66 100
M  END
>  <TORSDO>  (98) 
F 19

>  <SCORE>  (98) 
-10.959

>  <name>  (98) 
97

>  <ligand_id>  (98) 
97

>  <original_smiles>  (98) 
[H]c1nc(C([H])([H])N([H])C(=O)N2C([H])([H])C([H])([H])C([H])([H])C([H])(n3nc(-c4c([H])c([H])c(Oc5c([H])c([H])c(F)c([H])c5F)c([H])c4[H])c(C(=O)N([H])[H])c3N([H])[H])C2([H])[H])c(C2([H])C([H])([H])C([H])([H])[N+]([H])([H])C([H])([H])C2([H])[H])c([H])c1C([H])([H])Oc1c([H])c([H])c2c(c1[H])C([H])([H])N(C(=O)C([H])(N([H])C(=O)C([H])(N([H])C([H])([H])[H])C([H])([H])[H])C(C([H])([H])[H])(C([H])([H])[H])C([H])([H])[H])C([H])(C(=O)N([H])C1([H])c3c([H])c([H])c([H])c([H])c3C([H])([H])C([H])([H])C1([H])[H])C2([H])[H]

>  <smiles>  (98) 
[H]c1nc(C([H])([H])N([H])C(=O)N2C([H])([H])C([H])([H])C([H])([H])C([H])(n3nc(-c4c([H])c([H])c(Oc5c([H])c([H])c(F)c([H])c5F)c([H])c4[H])c(C(=O)N([H])[H])c3N([H])[H])C2([H])[H])c(C2([H])C([H])([H])C([H])([H])[N+]([H])([H])C([H])([H])C2([H])[H])c([H])c1C([H])([H])Oc1c([H])c([H])c2c(c1[H])C([H])([H])N(C(=O)C([H])(N([H])C(=O)C([H])(N([H])C([H])([H])[H])C([H])([H])[H])C(C([H])([H])[H])(C([H])([H])[H])C([H])([H])[H])C([H])(C(=O)N([H])C1([H])c3c([H])c([H])c([H])c([H])c3C([H])([H])C([H])([H])C1([H])[H])C2([H])[H]

$$$$
98:0:0
     RDKit          3D

 91 99  0  0  1  0  0  0  0  0999 V2000
  -28.9410  -22.4120   20.8820 N   0  0  0  0  0  4  0  0  0  0  0  0
  -29.6300  -22.4960   21.6120 H   0  0  0  0  0  0  0  0  0  0  0  0
  -28.0660  -22.2330   21.3480 H   0  0  0  0  0  0  0  0  0  0  0  0
  -29.2740  -21.1310   20.0900 C   0  0  0  0  0  2  0  0  0  0  0  0
  -31.3490  -18.7560   22.3530 C   0  0  0  0  0  3  0  0  0  0  0  0
  -30.7080  -19.9040   21.8540 C   0  0  0  0  0  3  0  0  0  0  0  0
  -31.0630  -17.4880   21.8070 C   0  0  0  0  0  3  0  0  0  0  0  0
  -29.7840  -19.7860   20.8010 C   0  0  0  0  0  0  0  0  0  0  0  0
  -30.1110  -17.3410   20.7770 C   0  0  0  0  0  0  0  0  0  0  0  0
  -29.4910  -18.5070   20.3070 N   0  0  0  0  0  0  0  0  0  0  0  0
  -30.5440  -14.8050   20.1830 C   0  0  0  0  0  0  0  0  0  0  0  0
  -30.3050  -12.5530   19.0970 C   0  0  0  0  0  2  0  0  0  0  0  0
  -29.3170  -12.6200   17.9100 C   0  0  0  0  0  2  0  0  0  0  0  0
  -27.8590  -12.4480   18.3860 C   0  0  0  0  0  2  0  0  0  0  0  0
  -27.5320  -13.3190   19.6290 C   0  0  0  0  0  3  0  0  0  0  0  0
  -28.6300  -13.2120   20.7090 C   0  0  0  0  0  2  0  0  0  0  0  0
  -29.8990  -13.5900   20.0720 N   0  0  0  0  0  0  0  0  0  0  0  0
  -31.7320  -14.8880   19.8480 O   0  0  0  0  0  0  0  0  0  0  0  0
  -29.7700  -15.9430   20.3990 N   0  0  0  0  0  0  0  0  0  0  0  0
  -28.7800  -15.7660   20.3570 H   0  0  0  0  0  0  0  0  0  0  0  0
  -25.1690  -13.9070   20.4340 C   0  0  0  0  0  0  0  0  0  0  0  0
  -24.1140  -13.1350   20.8380 C   0  0  0  0  0  0  0  0  0  0  0  0
  -24.5740  -11.7830   20.7880 C   0  0  0  0  0  0  0  0  0  0  0  0
  -26.2040  -13.0270   20.1620 N   0  0  0  0  0  0  0  0  0  0  0  0
  -25.8550  -11.7440   20.4380 N   0  0  0  0  0  0  0  0  0  0  0  0
  -23.8530  -10.5210   20.9960 C   0  0  0  0  0  0  0  0  0  0  0  0
  -24.3140   -9.5480   21.9110 C   0  0  0  0  0  3  0  0  0  0  0  0
  -23.5920   -8.3510   22.1080 C   0  0  0  0  0  3  0  0  0  0  0  0
  -22.3950   -8.1190   21.3900 C   0  0  0  0  0  0  0  0  0  0  0  0
  -21.9520   -9.0800   20.4640 C   0  0  0  0  0  3  0  0  0  0  0  0
  -22.6740  -10.2680   20.2640 C   0  0  0  0  0  3  0  0  0  0  0  0
  -21.6410   -6.9760   21.5000 O   0  0  0  0  0  0  0  0  0  0  0  0
  -21.6340   -6.2250   22.6480 C   0  0  0  0  0  0  0  0  0  0  0  0
  -21.2610   -6.7720   23.8930 C   0  0  0  0  0  3  0  0  0  0  0  0
  -21.2000   -5.9490   25.0360 C   0  0  0  0  0  3  0  0  0  0  0  0
  -21.5020   -4.5770   24.9320 C   0  0  0  0  0  0  0  0  0  0  0  0
  -21.8660   -4.0290   23.6900 C   0  0  0  0  0  3  0  0  0  0  0  0
  -21.9290   -4.8490   22.5520 C   0  0  0  0  0  0  0  0  0  0  0  0
  -22.2610   -4.3110   21.3530 F   0  0  0  0  0  0  0  0  0  0  0  0
  -21.4360   -3.7830   26.0270 F   0  0  0  0  0  0  0  0  0  0  0  0
  -22.7260  -13.6120   21.1500 C   0  0  0  0  0  0  0  0  0  0  0  0
  -22.0200  -12.9160   22.0330 N   0  0  0  0  0  0  0  0  0  0  0  0
  -22.2770  -14.6400   20.6450 O   0  0  0  0  0  0  0  0  0  0  0  0
  -22.3960  -12.0860   22.4680 H   0  0  0  0  0  0  0  0  0  0  0  0
  -21.0860  -13.2170   22.2770 H   0  0  0  0  0  0  0  0  0  0  0  0
  -25.3250  -15.2790   20.2540 N   0  0  0  0  0  0  0  0  0  0  0  0
  -24.5580  -15.9270   20.4010 H   0  0  0  0  0  0  0  0  0  0  0  0
  -26.1320  -15.7160   19.8280 H   0  0  0  0  0  0  0  0  0  0  0  0
  -28.8490  -23.7740   20.1340 C   0  0  0  0  0  3  0  0  0  0  0  0
  -28.2930  -25.0920   20.9070 C   0  0  0  0  0  3  0  0  0  0  0  0
  -28.3900  -26.4670   20.3010 O   0  0  0  0  0  0  0  0  0  0  0  0
  -24.5920  -31.8950   23.2450 C   0  0  0  0  0  0  0  0  0  0  0  0
  -27.2620  -27.3150   20.2770 C   0  0  0  0  0  0  0  0  0  0  0  0
  -23.4130  -30.4950   21.5890 C   0  0  0  0  0  3  0  0  0  0  0  0
  -24.8920  -28.9340   20.1940 C   0  0  0  0  0  0  0  0  0  0  0  0
  -25.9540  -30.8230   21.4300 C   0  0  0  0  0  2  0  0  0  0  0  0
  -26.0500  -29.4360   20.8000 C   0  0  0  0  0  0  0  0  0  0  0  0
  -27.2420  -28.6430   20.8180 C   0  0  0  0  0  3  0  0  0  0  0  0
  -26.0790  -26.8680   19.6500 C   0  0  0  0  0  3  0  0  0  0  0  0
  -24.9090  -27.6590   19.6070 C   0  0  0  0  0  3  0  0  0  0  0  0
  -23.6510  -29.8090   20.2170 C   0  0  0  0  0  2  0  0  0  0  0  0
  -24.6730  -31.0900   22.1480 N   0  0  0  0  0  0  0  0  0  0  0  0
  -23.5010  -32.1640   23.7700 O   0  0  0  0  0  0  0  0  0  0  0  0
  -22.7420  -29.4800   22.5470 C   0  0  0  0  0  0  0  0  0  0  0  0
  -21.4180  -29.2910   22.4040 N   0  0  0  0  0  0  0  0  0  0  0  0
  -23.4130  -28.8600   23.3760 O   0  0  0  0  0  0  0  0  0  0  0  0
  -20.9310  -29.8460   21.7150 H   0  0  0  0  0  0  0  0  0  0  0  0
  -18.0470  -28.0570   22.8530 C   0  0  0  0  0  0  0  0  0  0  0  0
  -20.5980  -28.3490   23.1700 C   0  0  0  0  0  3  0  0  0  0  0  0
  -20.7290  -26.9130   22.6090 C   0  0  0  0  0  2  0  0  0  0  0  0
  -19.6490  -26.5700   21.5770 C   0  0  0  0  0  2  0  0  0  0  0  0
  -18.2540  -26.7060   22.1890 C   0  0  0  0  0  2  0  0  0  0  0  0
  -19.1500  -28.8350   23.2990 C   0  0  0  0  0  0  0  0  0  0  0  0
  -18.9020  -30.0990   23.8780 C   0  0  0  0  0  3  0  0  0  0  0  0
  -17.5870  -30.5840   24.0180 C   0  0  0  0  0  3  0  0  0  0  0  0
  -16.5020  -29.8040   23.5870 C   0  0  0  0  0  3  0  0  0  0  0  0
  -16.7330  -28.5420   23.0070 C   0  0  0  0  0  3  0  0  0  0  0  0
  -25.8640  -32.5360   23.8850 C   0  0  0  0  0  3  0  0  0  0  0  0
  -26.3600  -31.7780   25.1770 C   0  0  1  0  0  0  0  0  0  0  0  0
  -25.2520  -31.5560   26.2310 C   0  0  0  0  0  1  0  0  0  0  0  0
  -26.9430  -30.3960   24.8020 C   0  0  0  0  0  1  0  0  0  0  0  0
  -27.4990  -32.5780   25.8520 C   0  0  0  0  0  1  0  0  0  0  0  0
  -25.5500  -33.9380   24.2010 N   0  0  0  0  0  0  0  0  0  0  0  0
  -25.8900  -34.9850   23.4380 C   0  0  0  0  0  0  0  0  0  0  0  0
  -26.5690  -34.8730   22.4150 O   0  0  0  0  0  0  0  0  0  0  0  0
  -24.9610  -34.1030   25.0040 H   0  0  0  0  0  0  0  0  0  0  0  0
  -24.1680  -36.7730   23.0600 C   0  0  0  0  0  1  0  0  0  0  0  0
  -25.4020  -36.3760   23.8830 C   0  0  0  0  0  3  0  0  0  0  0  0
  -27.5300  -37.2680   24.7200 C   0  0  0  0  0  1  0  0  0  0  0  0
  -26.4340  -37.4300   23.7690 N   0  0  0  0  0  0  0  0  0  0  0  0
  -26.0230  -38.3480   23.9130 H   0  0  0  0  0  0  0  0  0  0  0  0
  1  3  1  0
  1  2  1  0
  4  8  1  0
  4  1  1  0
  6  5  1  0
  7  5  2  0
  8  6  2  0
  9  7  1  0
 10  9  2  0
 10  8  1  0
 11 19  1  0
 12 17  1  0
 13 14  1  0
 13 12  1  0
 15 14  1  0
 15 24  1  0
 15 16  1  0
 17 11  1  0
 17 16  1  0
 18 11  2  0
 19  9  1  0
 20 19  1  0
 21 22  2  0
 22 41  1  0
 23 22  1  0
 23 26  1  0
 24 21  1  0
 24 25  1  0
 25 23  2  0
 26 27  1  0
 27 28  2  0
 29 32  1  0
 29 28  1  0
 30 29  2  0
 31 30  1  0
 31 26  2  0
 32 33  1  0
 33 34  1  0
 34 35  2  0
 36 35  1  0
 36 40  1  0
 37 36  2  0
 38 33  2  0
 38 37  1  0
 39 38  1  0
 41 42  1  0
 42 45  1  0
 42 44  1  0
 43 41  2  0
 46 47  1  0
 46 21  1  0
 48 46  1  0
 49  1  1  0
 49 50  2  0
 51 50  1  0
 52 63  2  0
 53 51  1  0
 53 58  1  0
 54 62  1  0
 54 64  1  0
 55 61  1  0
 55 57  1  0
 56 62  1  0
 57 58  2  0
 57 56  1  0
 59 53  2  0
 60 59  1  0
 60 55  2  0
 61 54  1  0
 62 52  1  0
 64 66  2  0
 65 64  1  0
 67 65  1  0
 68 77  2  0
 68 73  1  0
 69 65  1  0
 69 73  1  0
 70 69  1  0
 71 72  1  0
 71 70  1  0
 72 68  1  0
 73 74  2  0
 74 75  1  0
 76 75  2  0
 77 76  1  0
 78 52  1  0
 78 83  1  0
 78 79  1  0
 79 82  1  1
 79 80  1  0
 81 79  1  0
 83 86  1  0
 84 88  1  0
 84 83  1  0
 85 84  2  0
 88 87  1  0
 90 88  1  0
 90 91  1  0
 90 89  1  0
M  ISO  4  11 100  19 100  50 101  51 101
M  END
>  <TORSDO>  (99) 
F 20

>  <SCORE>  (99) 
-13.839

>  <name>  (99) 
98

>  <ligand_id>  (99) 
98

>  <original_smiles>  (99) 
[H]c1c(N([H])C(=O)N2C([H])([H])C([H])([H])C([H])([H])C([H])(n3nc(-c4c([H])c([H])c(Oc5c([H])c([H])c(F)c([H])c5F)c([H])c4[H])c(C(=O)N([H])[H])c3N([H])[H])C2([H])[H])nc(C([H])([H])[N+]([H])([H])C([H])([H])C([H])([H])Oc2c([H])c([H])c3c(c2[H])C([H])([H])N(C(=O)C([H])(N([H])C(=O)C([H])(N([H])C([H])([H])[H])C([H])([H])[H])C(C([H])([H])[H])(C([H])([H])[H])C([H])([H])[H])C([H])(C(=O)N([H])C2([H])c4c([H])c([H])c([H])c([H])c4C([H])([H])C([H])([H])C2([H])[H])C3([H])[H])c([H])c1[H]

>  <smiles>  (99) 
[H]c1c(N([H])C(=O)N2C([H])([H])C([H])([H])C([H])([H])C([H])(n3nc(-c4c([H])c([H])c(Oc5c([H])c([H])c(F)c([H])c5F)c([H])c4[H])c(C(=O)N([H])[H])c3N([H])[H])C2([H])[H])nc(C([H])([H])[N+]([H])([H])C([H])([H])C([H])([H])Oc2c([H])c([H])c3c(c2[H])C([H])([H])N(C(=O)C([H])(N([H])C(=O)C([H])(N([H])C([H])([H])[H])C([H])([H])[H])C(C([H])([H])[H])(C([H])([H])[H])C([H])([H])[H])C([H])(C(=O)N([H])C2([H])c4c([H])c([H])c([H])c([H])c4C([H])([H])C([H])([H])C2([H])[H])C3([H])[H])c([H])c1[H]

$$$$
