0:0:0
     RDKit          3D

 94102  0  0  1  0  0  0  0  0999 V2000
  -30.7610  -21.0670   21.1610 C   0  0  0  0  0  2  0  0  0  0  0  0
  -28.2920  -20.7740   20.6350 C   0  0  0  0  0  2  0  0  0  0  0  0
  -30.5550  -22.4710   20.5250 C   0  0  0  0  0  2  0  0  0  0  0  0
  -28.0820  -22.3210   20.5650 C   0  0  0  0  0  2  0  0  0  0  0  0
  -29.4380  -20.3710   21.5900 C   0  0  0  0  0  3  0  0  0  0  0  0
  -29.2900  -23.1020   20.9790 N   0  0  2  0  0  4  0  0  0  0  0  0
  -29.3280  -22.9860   21.9820 H   0  0  0  0  0  0  0  0  0  0  0  0
  -29.5590  -18.9010   21.8730 N   0  0  0  0  0  4  0  0  0  0  0  0
  -28.7060  -18.5950   22.3160 H   0  0  0  0  0  0  0  0  0  0  0  0
  -30.2870  -18.7780   22.5620 H   0  0  0  0  0  0  0  0  0  0  0  0
  -29.8410  -17.9670   20.7480 C   0  0  0  0  0  2  0  0  0  0  0  0
  -29.9370  -16.4770   21.1990 C   0  0  0  0  0  2  0  0  0  0  0  0
  -30.9290  -14.5040   20.0380 C   0  0  0  0  0  0  0  0  0  0  0  0
  -30.5800  -12.3320   18.9420 C   0  0  0  0  0  2  0  0  0  0  0  0
  -29.6020  -12.5530   17.7680 C   0  0  0  0  0  2  0  0  0  0  0  0
  -28.1410  -12.4380   18.2500 C   0  0  0  0  0  2  0  0  0  0  0  0
  -27.8550  -13.2820   19.5220 C   0  0  0  0  0  3  0  0  0  0  0  0
  -28.9480  -13.0620   20.5940 C   0  0  0  0  0  2  0  0  0  0  0  0
  -30.2510  -13.3290   19.9700 N   0  0  0  0  0  0  0  0  0  0  0  0
  -32.0880  -14.6430   19.6500 O   0  0  0  0  0  0  0  0  0  0  0  0
  -30.1410  -15.5900   20.0500 N   0  0  0  0  0  0  0  0  0  0  0  0
  -30.3500  -16.1430   19.2320 H   0  0  0  0  0  0  0  0  0  0  0  0
  -25.4940  -13.9130   20.3200 C   0  0  0  0  0  0  0  0  0  0  0  0
  -24.4320  -13.1520   20.7260 C   0  0  0  0  0  0  0  0  0  0  0  0
  -24.8790  -11.7960   20.6800 C   0  0  0  0  0  0  0  0  0  0  0  0
  -26.5210  -13.0220   20.0510 N   0  0  0  0  0  0  0  0  0  0  0  0
  -26.1570  -11.7440   20.3300 N   0  0  0  0  0  0  0  0  0  0  0  0
  -24.1510  -10.5400   20.8960 C   0  0  0  0  0  0  0  0  0  0  0  0
  -24.5590   -9.6080   21.8760 C   0  0  0  0  0  3  0  0  0  0  0  0
  -23.8320   -8.4150   22.0780 C   0  0  0  0  0  3  0  0  0  0  0  0
  -22.6810   -8.1450   21.3010 C   0  0  0  0  0  0  0  0  0  0  0  0
  -22.2910   -9.0650   20.3100 C   0  0  0  0  0  3  0  0  0  0  0  0
  -23.0190  -10.2490   20.1080 C   0  0  0  0  0  3  0  0  0  0  0  0
  -21.9280   -7.0030   21.4080 O   0  0  0  0  0  0  0  0  0  0  0  0
  -21.7850   -6.3450   22.6030 C   0  0  0  0  0  0  0  0  0  0  0  0
  -21.2450   -6.9800   23.7430 C   0  0  0  0  0  3  0  0  0  0  0  0
  -21.0530   -6.2470   24.9310 C   0  0  0  0  0  3  0  0  0  0  0  0
  -21.3880   -4.8810   24.9790 C   0  0  0  0  0  0  0  0  0  0  0  0
  -21.9190   -4.2450   23.8430 C   0  0  0  0  0  3  0  0  0  0  0  0
  -22.1130   -4.9750   22.6570 C   0  0  0  0  0  0  0  0  0  0  0  0
  -22.6060   -4.3530   21.5580 F   0  0  0  0  0  0  0  0  0  0  0  0
  -21.1930   -4.1740   26.1160 F   0  0  0  0  0  0  0  0  0  0  0  0
  -23.0480  -13.6400   21.0470 C   0  0  0  0  0  0  0  0  0  0  0  0
  -22.3460  -12.9500   21.9390 N   0  0  0  0  0  0  0  0  0  0  0  0
  -22.5980  -14.6680   20.5430 O   0  0  0  0  0  0  0  0  0  0  0  0
  -22.7220  -12.1190   22.3710 H   0  0  0  0  0  0  0  0  0  0  0  0
  -21.4180  -13.2550   22.1940 H   0  0  0  0  0  0  0  0  0  0  0  0
  -25.6680  -15.2830   20.1350 N   0  0  0  0  0  0  0  0  0  0  0  0
  -24.9110  -15.9480   20.2560 H   0  0  0  0  0  0  0  0  0  0  0  0
  -26.5210  -15.7030   19.7860 H   0  0  0  0  0  0  0  0  0  0  0  0
  -29.2370  -24.6040   20.8800 C   0  0  0  0  0  2  0  0  0  0  0  0
  -29.1660  -24.9980   18.3300 C   0  0  0  0  0  1  0  0  0  0  0  0
  -28.4920  -25.2510   19.6820 C   0  0  0  0  0  3  0  0  0  0  0  0
  -28.4810  -26.6860   19.8800 O   0  0  0  0  0  0  0  0  0  0  0  0
  -24.5120  -31.6930   23.0340 C   0  0  0  0  0  0  0  0  0  0  0  0
  -27.2830  -27.3790   19.8550 C   0  0  0  0  0  0  0  0  0  0  0  0
  -23.3510  -30.2880   21.3650 C   0  0  0  0  0  3  0  0  0  0  0  0
  -24.8470  -28.8330   19.9010 C   0  0  0  0  0  0  0  0  0  0  0  0
  -25.8710  -30.7180   21.1840 C   0  0  0  0  0  2  0  0  0  0  0  0
  -25.9910  -29.3680   20.5050 C   0  0  0  0  0  0  0  0  0  0  0  0
  -27.2080  -28.6470   20.4830 C   0  0  0  0  0  3  0  0  0  0  0  0
  -26.1210  -26.8780   19.2210 C   0  0  0  0  0  3  0  0  0  0  0  0
  -24.9080  -27.5880   19.2580 C   0  0  0  0  0  3  0  0  0  0  0  0
  -23.5790  -29.6520   19.9700 C   0  0  0  0  0  2  0  0  0  0  0  0
  -24.5950  -30.9150   21.9170 N   0  0  0  0  0  0  0  0  0  0  0  0
  -23.4220  -31.9200   23.5770 O   0  0  0  0  0  0  0  0  0  0  0  0
  -22.7360  -29.2210   22.3010 C   0  0  0  0  0  0  0  0  0  0  0  0
  -21.4150  -29.0130   22.1830 N   0  0  0  0  0  0  0  0  0  0  0  0
  -23.4440  -28.5870   23.0870 O   0  0  0  0  0  0  0  0  0  0  0  0
  -20.9030  -29.5780   21.5190 H   0  0  0  0  0  0  0  0  0  0  0  0
  -18.0660  -27.7570   22.7050 C   0  0  0  0  0  0  0  0  0  0  0  0
  -20.6260  -28.0370   22.9340 C   0  0  0  0  0  3  0  0  0  0  0  0
  -20.7350  -26.6280   22.3030 C   0  0  0  0  0  2  0  0  0  0  0  0
  -19.6160  -26.3280   21.3010 C   0  0  0  0  0  2  0  0  0  0  0  0
  -18.2460  -26.4350   21.9780 C   0  0  0  0  0  2  0  0  0  0  0  0
  -19.1850  -28.5170   23.1390 C   0  0  0  0  0  0  0  0  0  0  0  0
  -18.9650  -29.7560   23.7780 C   0  0  0  0  0  3  0  0  0  0  0  0
  -17.6580  -30.2340   23.9910 C   0  0  0  0  0  3  0  0  0  0  0  0
  -16.5550  -29.4680   23.5770 C   0  0  0  0  0  3  0  0  0  0  0  0
  -16.7590  -28.2340   22.9370 C   0  0  0  0  0  3  0  0  0  0  0  0
  -25.7790  -32.3520   23.6620 C   0  0  0  0  0  3  0  0  0  0  0  0
  -25.4190  -33.7260   24.0350 N   0  0  0  0  0  0  0  0  0  0  0  0
  -25.7100  -34.8130   23.3090 C   0  0  0  0  0  0  0  0  0  0  0  0
  -26.3800  -34.7670   22.2730 O   0  0  0  0  0  0  0  0  0  0  0  0
  -24.8240  -33.8350   24.8430 H   0  0  0  0  0  0  0  0  0  0  0  0
  -23.9140  -36.5480   23.0080 C   0  0  0  0  0  1  0  0  0  0  0  0
  -25.1690  -36.1660   23.8090 C   0  0  0  0  0  3  0  0  0  0  0  0
  -27.2650  -37.1010   24.6800 C   0  0  0  0  0  1  0  0  0  0  0  0
  -26.1620  -37.2590   23.7370 N   0  0  0  0  0  0  0  0  0  0  0  0
  -25.7210  -38.1570   23.9100 H   0  0  0  0  0  0  0  0  0  0  0  0
  -26.3350  -31.5640   24.9110 C   0  0  1  0  0  0  0  0  0  0  0  0
  -25.2600  -31.2450   25.9740 C   0  0  0  0  0  1  0  0  0  0  0  0
  -26.9780  -30.2260   24.4790 C   0  0  0  0  0  1  0  0  0  0  0  0
  -27.4550  -32.3860   25.5930 C   0  0  0  0  0  1  0  0  0  0  0  0
  1  5  1  0
  2  5  1  0
  3  6  1  0
  3  1  1  0
  4  2  1  0
  4  6  1  0
  5  8  1  0
  6  7  1  1
  8  9  1  0
  8 10  1  0
 11 12  1  0
 11  8  1  0
 13 21  1  0
 14 19  1  0
 15 16  1  0
 15 14  1  0
 17 16  1  0
 17 26  1  0
 17 18  1  0
 19 13  1  0
 19 18  1  0
 20 13  2  0
 21 12  1  0
 22 21  1  0
 23 24  2  0
 24 43  1  0
 25 24  1  0
 25 28  1  0
 26 23  1  0
 26 27  1  0
 27 25  2  0
 28 29  1  0
 29 30  2  0
 31 34  1  0
 31 30  1  0
 32 31  2  0
 33 32  1  0
 33 28  2  0
 34 35  1  0
 35 40  2  0
 35 36  1  0
 36 37  2  0
 37 38  1  0
 38 42  1  0
 39 38  2  0
 40 39  1  0
 41 40  1  0
 43 44  1  0
 44 47  1  0
 44 46  1  0
 45 43  2  0
 48 49  1  0
 48 23  1  0
 50 48  1  0
 51  6  1  0
 53 52  1  0
 53 54  1  0
 53 51  1  0
 55 66  2  0
 56 54  1  0
 56 61  1  0
 57 65  1  0
 57 67  1  0
 58 64  1  0
 58 60  1  0
 59 65  1  0
 60 59  1  0
 61 60  2  0
 62 63  1  0
 62 56  2  0
 63 58  2  0
 64 57  1  0
 65 55  1  0
 67 69  2  0
 68 67  1  0
 70 68  1  0
 71 80  2  0
 71 76  1  0
 72 68  1  0
 72 76  1  0
 73 72  1  0
 74 75  1  0
 74 73  1  0
 75 71  1  0
 76 77  2  0
 77 78  1  0
 79 78  2  0
 80 79  1  0
 81 55  1  0
 81 82  1  0
 81 91  1  0
 82 85  1  0
 83 87  1  0
 83 82  1  0
 84 83  2  0
 87 86  1  0
 89 87  1  0
 89 90  1  0
 89 88  1  0
 91 94  1  1
 91 92  1  0
 93 91  1  0
M  ISO  4  13 100  21 100  53 101  54 101
M  END
>  <TORSDO>  (1) 
F 21

>  <SCORE>  (1) 
-12.540

>  <name>  (1) 
0

>  <ligand_id>  (1) 
0

>  <original_smiles>  (1) 
[H]c1c([H])c([H])c2c(c1[H])C([H])([H])C([H])([H])C([H])([H])C2([H])N([H])C(=O)C1([H])N(C(=O)C([H])(N([H])C(=O)C([H])(N([H])C([H])([H])[H])C([H])([H])[H])C(C([H])([H])[H])(C([H])([H])[H])C([H])([H])[H])C([H])([H])c2c([H])c(OC([H])(C([H])([H])[H])C([H])([H])[N+]3([H])C([H])([H])C([H])([H])C([H])([N+]([H])([H])C([H])([H])C([H])([H])N([H])C(=O)N4C([H])([H])C([H])([H])C([H])([H])C([H])(n5nc(-c6c([H])c([H])c(Oc7c([H])c([H])c(F)c([H])c7F)c([H])c6[H])c(C(=O)N([H])[H])c5N([H])[H])C4([H])[H])C([H])([H])C3([H])[H])c([H])c([H])c2C1([H])[H]

>  <smiles>  (1) 
[H]c1c([H])c([H])c2c(c1[H])C([H])([H])C([H])([H])C([H])([H])C2([H])N([H])C(=O)C1([H])N(C(=O)C([H])(N([H])C(=O)C([H])(N([H])C([H])([H])[H])C([H])([H])[H])C(C([H])([H])[H])(C([H])([H])[H])C([H])([H])[H])C([H])([H])c2c([H])c(OC([H])(C([H])([H])[H])C([H])([H])[N+]3([H])C([H])([H])C([H])([H])C([H])([N+]([H])([H])C([H])([H])C([H])([H])N([H])C(=O)N4C([H])([H])C([H])([H])C([H])([H])C([H])(n5nc(-c6c([H])c([H])c(Oc7c([H])c([H])c(F)c([H])c7F)c([H])c6[H])c(C(=O)N([H])[H])c5N([H])[H])C4([H])[H])C([H])([H])C3([H])[H])c([H])c([H])c2C1([H])[H]

$$$$
1:0:0
     RDKit          3D

 94103  0  0  1  0  0  0  0  0999 V2000
  -27.8760  -24.3510   20.0440 C   0  0  0  0  0  2  0  0  0  0  0  0
  -30.1740  -25.1760   20.7170 C   0  0  0  0  0  2  0  0  0  0  0  0
  -28.2260  -22.9600   20.6120 C   0  0  0  0  0  2  0  0  0  0  0  0
  -30.4890  -23.7790   21.2890 C   0  0  0  0  0  2  0  0  0  0  0  0
  -28.6670  -25.5050   20.7120 C   0  0  0  0  0  3  0  0  0  0  0  0
  -29.7360  -22.6750   20.5280 C   0  0  0  0  0  3  0  0  0  0  0  0
  -28.5540  -26.7630   20.0270 O   0  0  0  0  0  0  0  0  0  0  0  0
  -24.6390  -31.7930   23.2360 C   0  0  0  0  0  0  0  0  0  0  0  0
  -27.3570  -27.4410   20.1010 C   0  0  0  0  0  0  0  0  0  0  0  0
  -23.4530  -30.3840   21.5860 C   0  0  0  0  0  3  0  0  0  0  0  0
  -24.9300  -28.8910   20.1410 C   0  0  0  0  0  0  0  0  0  0  0  0
  -25.9690  -30.7960   21.3800 C   0  0  0  0  0  2  0  0  0  0  0  0
  -26.0780  -29.4320   20.7330 C   0  0  0  0  0  0  0  0  0  0  0  0
  -27.2950  -28.7120   20.7140 C   0  0  0  0  0  3  0  0  0  0  0  0
  -26.1980  -26.9260   19.4810 C   0  0  0  0  0  3  0  0  0  0  0  0
  -24.9840  -27.6350   19.5140 C   0  0  0  0  0  3  0  0  0  0  0  0
  -23.6690  -29.7230   20.1980 C   0  0  0  0  0  2  0  0  0  0  0  0
  -24.7050  -31.0060   22.1250 N   0  0  0  0  0  0  0  0  0  0  0  0
  -23.5570  -32.0360   23.7860 O   0  0  0  0  0  0  0  0  0  0  0  0
  -22.8310  -29.3370   22.5380 C   0  0  0  0  0  0  0  0  0  0  0  0
  -21.5180  -29.0960   22.3880 N   0  0  0  0  0  0  0  0  0  0  0  0
  -23.5270  -28.7440   23.3670 O   0  0  0  0  0  0  0  0  0  0  0  0
  -21.0170  -29.6300   21.6910 H   0  0  0  0  0  0  0  0  0  0  0  0
  -18.2100  -27.6970   22.7630 C   0  0  0  0  0  0  0  0  0  0  0  0
  -20.7290  -28.1270   23.1460 C   0  0  0  0  0  3  0  0  0  0  0  0
  -20.9510  -26.6920   22.6180 C   0  0  0  0  0  2  0  0  0  0  0  0
  -19.9220  -26.2720   21.5620 C   0  0  0  0  0  2  0  0  0  0  0  0
  -18.5050  -26.3440   22.1360 C   0  0  0  0  0  2  0  0  0  0  0  0
  -19.2550  -28.5400   23.2240 C   0  0  0  0  0  0  0  0  0  0  0  0
  -18.9290  -29.8020   23.7660 C   0  0  0  0  0  3  0  0  0  0  0  0
  -17.5880  -30.2220   23.8550 C   0  0  0  0  0  3  0  0  0  0  0  0
  -16.5560  -29.3770   23.4140 C   0  0  0  0  0  3  0  0  0  0  0  0
  -16.8670  -28.1150   22.8740 C   0  0  0  0  0  3  0  0  0  0  0  0
  -25.9160  -32.4430   23.8550 C   0  0  0  0  0  3  0  0  0  0  0  0
  -26.4470  -31.6820   25.1320 C   0  0  1  0  0  0  0  0  0  0  0  0
  -25.3580  -31.4320   26.2010 C   0  0  0  0  0  1  0  0  0  0  0  0
  -27.0490  -30.3130   24.7400 C   0  0  0  0  0  1  0  0  0  0  0  0
  -27.5860  -32.4950   25.7900 C   0  0  0  0  0  1  0  0  0  0  0  0
  -25.5900  -33.8380   24.1780 N   0  0  0  0  0  0  0  0  0  0  0  0
  -25.9130  -34.8910   23.4160 C   0  0  0  0  0  0  0  0  0  0  0  0
  -26.5900  -34.7920   22.3880 O   0  0  0  0  0  0  0  0  0  0  0  0
  -24.9910  -33.9890   24.9760 H   0  0  0  0  0  0  0  0  0  0  0  0
  -24.1650  -36.6580   23.0400 C   0  0  0  0  0  1  0  0  0  0  0  0
  -25.4050  -36.2750   23.8630 C   0  0  0  0  0  3  0  0  0  0  0  0
  -27.5210  -37.1880   24.7070 C   0  0  0  0  0  1  0  0  0  0  0  0
  -26.4240  -37.3400   23.7550 N   0  0  0  0  0  0  0  0  0  0  0  0
  -26.0050  -38.2560   23.8980 H   0  0  0  0  0  0  0  0  0  0  0  0
  -30.0860  -21.4130   21.1040 O   0  0  0  0  0  0  0  0  0  0  0  0
  -29.7530  -20.2670   20.3120 C   0  0  0  0  0  2  0  0  0  0  0  0
  -30.3770  -17.7530   20.0030 C   0  0  0  0  0  2  0  0  0  0  0  0
  -30.4410  -17.3200   22.3410 C   0  0  0  0  0  2  0  0  0  0  0  0
  -30.8910  -16.7120   21.0050 C   0  0  0  0  0  3  0  0  0  0  0  0
  -30.6570  -19.0870   20.7280 C   0  0  0  0  0  3  0  0  0  0  0  0
  -30.5700  -18.7830   22.1750 N   0  0  0  0  0  4  0  0  0  0  0  0
  -31.4020  -19.1140   22.6370 H   0  0  0  0  0  0  0  0  0  0  0  0
  -29.7810  -19.2490   22.5960 H   0  0  0  0  0  0  0  0  0  0  0  0
  -30.9580  -14.3950   20.0500 C   0  0  0  0  0  0  0  0  0  0  0  0
  -30.5590  -12.2350   18.9230 C   0  0  0  0  0  2  0  0  0  0  0  0
  -29.5470  -12.4200   17.7750 C   0  0  0  0  0  2  0  0  0  0  0  0
  -28.0990  -12.3060   18.2930 C   0  0  0  0  0  2  0  0  0  0  0  0
  -27.8460  -13.1810   19.5500 C   0  0  0  0  0  3  0  0  0  0  0  0
  -28.9570  -12.9600   20.6000 C   0  0  0  0  0  2  0  0  0  0  0  0
  -30.2550  -13.2340   19.9580 N   0  0  0  0  0  0  0  0  0  0  0  0
  -32.0060  -14.6050   19.4330 O   0  0  0  0  0  0  0  0  0  0  0  0
  -30.3900  -15.3460   20.8070 N   0  0  0  0  0  0  0  0  0  0  0  0
  -29.5330  -15.0890   21.2740 H   0  0  0  0  0  0  0  0  0  0  0  0
  -25.5220  -13.8490   20.4360 C   0  0  0  0  0  0  0  0  0  0  0  0
  -24.4530  -13.1020   20.8540 C   0  0  0  0  0  0  0  0  0  0  0  0
  -24.8630  -11.7370   20.7510 C   0  0  0  0  0  0  0  0  0  0  0  0
  -26.5180  -12.9400   20.1090 N   0  0  0  0  0  0  0  0  0  0  0  0
  -26.1270  -11.6640   20.3540 N   0  0  0  0  0  0  0  0  0  0  0  0
  -24.1060  -10.4940   20.9540 C   0  0  0  0  0  0  0  0  0  0  0  0
  -24.5490   -9.5000   21.8540 C   0  0  0  0  0  3  0  0  0  0  0  0
  -23.7960   -8.3210   22.0440 C   0  0  0  0  0  3  0  0  0  0  0  0
  -22.5860   -8.1300   21.3360 C   0  0  0  0  0  0  0  0  0  0  0  0
  -22.1620   -9.1130   20.4250 C   0  0  0  0  0  3  0  0  0  0  0  0
  -22.9160  -10.2830   20.2320 C   0  0  0  0  0  3  0  0  0  0  0  0
  -21.8020   -7.0070   21.4380 O   0  0  0  0  0  0  0  0  0  0  0  0
  -21.7460   -6.2690   22.5940 C   0  0  0  0  0  0  0  0  0  0  0  0
  -21.3460   -6.8400   23.8220 C   0  0  0  0  0  3  0  0  0  0  0  0
  -21.2360   -6.0310   24.9700 C   0  0  0  0  0  3  0  0  0  0  0  0
  -21.5150   -4.6530   24.8920 C   0  0  0  0  0  0  0  0  0  0  0  0
  -21.9080   -4.0830   23.6690 C   0  0  0  0  0  3  0  0  0  0  0  0
  -22.0200   -4.8890   22.5220 C   0  0  0  0  0  0  0  0  0  0  0  0
  -22.3790   -4.3310   21.3410 F   0  0  0  0  0  0  0  0  0  0  0  0
  -21.4020   -3.8740   25.9930 F   0  0  0  0  0  0  0  0  0  0  0  0
  -23.0970  -13.6170   21.2390 C   0  0  0  0  0  0  0  0  0  0  0  0
  -22.4070  -12.9200   22.1350 N   0  0  0  0  0  0  0  0  0  0  0  0
  -22.6590  -14.6720   20.7800 O   0  0  0  0  0  0  0  0  0  0  0  0
  -22.7740  -12.0650   22.5270 H   0  0  0  0  0  0  0  0  0  0  0  0
  -21.4990  -13.2460   22.4340 H   0  0  0  0  0  0  0  0  0  0  0  0
  -25.7250  -15.2180   20.2880 N   0  0  0  0  0  0  0  0  0  0  0  0
  -24.9890  -15.8960   20.4570 H   0  0  0  0  0  0  0  0  0  0  0  0
  -26.5650  -15.6340   19.9050 H   0  0  0  0  0  0  0  0  0  0  0  0
  1  3  1  0
  1  5  1  0
  2  4  1  0
  5  7  1  0
  5  2  1  0
  6  3  1  0
  6 48  1  0
  6  4  1  0
  7  9  1  0
  8 19  2  0
  9 14  1  0
 10 18  1  0
 10 20  1  0
 11 17  1  0
 11 13  1  0
 12 18  1  0
 13 12  1  0
 14 13  2  0
 15 16  1  0
 15  9  2  0
 16 11  2  0
 17 10  1  0
 18  8  1  0
 20 22  2  0
 21 20  1  0
 23 21  1  0
 24 33  2  0
 24 29  1  0
 25 21  1  0
 25 29  1  0
 26 25  1  0
 27 28  1  0
 27 26  1  0
 28 24  1  0
 29 30  2  0
 30 31  1  0
 32 31  2  0
 33 32  1  0
 34  8  1  0
 34 39  1  0
 34 35  1  0
 35 38  1  1
 35 36  1  0
 37 35  1  0
 39 42  1  0
 40 44  1  0
 40 39  1  0
 41 40  2  0
 44 43  1  0
 46 44  1  0
 46 47  1  0
 46 45  1  0
 49 48  1  0
 50 53  1  0
 50 52  1  0
 52 65  1  0
 52 51  1  0
 53 49  1  0
 53 54  1  0
 54 51  1  0
 54 56  1  0
 54 55  1  0
 57 65  1  0
 58 63  1  0
 59 60  1  0
 59 58  1  0
 61 60  1  0
 61 70  1  0
 61 62  1  0
 63 57  1  0
 63 62  1  0
 64 57  2  0
 65 66  1  0
 67 68  2  0
 68 87  1  0
 69 68  1  0
 69 72  1  0
 70 71  1  0
 70 67  1  0
 71 69  2  0
 72 73  1  0
 73 74  2  0
 75 78  1  0
 75 74  1  0
 76 75  2  0
 77 76  1  0
 77 72  2  0
 78 79  1  0
 79 80  1  0
 80 81  2  0
 82 81  1  0
 82 86  1  0
 83 82  2  0
 84 79  2  0
 84 83  1  0
 85 84  1  0
 87 88  1  0
 88 91  1  0
 88 90  1  0
 89 87  2  0
 92 67  1  0
 92 93  1  0
 94 92  1  0
M  ISO  4   5 101   7 101  57 100  65 100
M  END
>  <TORSDO>  (2) 
F 19

>  <SCORE>  (2) 
-14.101

>  <name>  (2) 
1

>  <ligand_id>  (2) 
1

>  <original_smiles>  (2) 
[H]c1c([H])c([H])c2c(c1[H])C([H])([H])C([H])([H])C([H])([H])C2([H])N([H])C(=O)C1([H])N(C(=O)C([H])(N([H])C(=O)C([H])(N([H])C([H])([H])[H])C([H])([H])[H])C(C([H])([H])[H])(C([H])([H])[H])C([H])([H])[H])C([H])([H])c2c([H])c(OC3([H])C([H])([H])C([H])([H])C([H])(OC([H])([H])C4([H])C([H])([H])C([H])(N([H])C(=O)N5C([H])([H])C([H])([H])C([H])([H])C([H])(n6nc(-c7c([H])c([H])c(Oc8c([H])c([H])c(F)c([H])c8F)c([H])c7[H])c(C(=O)N([H])[H])c6N([H])[H])C5([H])[H])C([H])([H])[N+]4([H])[H])C([H])([H])C3([H])[H])c([H])c([H])c2C1([H])[H]

>  <smiles>  (2) 
[H]c1c([H])c([H])c2c(c1[H])C([H])([H])C([H])([H])C([H])([H])C2([H])N([H])C(=O)C1([H])N(C(=O)C([H])(N([H])C(=O)C([H])(N([H])C([H])([H])[H])C([H])([H])[H])C(C([H])([H])[H])(C([H])([H])[H])C([H])([H])[H])C([H])([H])c2c([H])c(OC3([H])C([H])([H])C([H])([H])C([H])(OC([H])([H])C4([H])C([H])([H])C([H])(N([H])C(=O)N5C([H])([H])C([H])([H])C([H])([H])C([H])(n6nc(-c7c([H])c([H])c(Oc8c([H])c([H])c(F)c([H])c8F)c([H])c7[H])c(C(=O)N([H])[H])c6N([H])[H])C5([H])[H])C([H])([H])[N+]4([H])[H])C([H])([H])C3([H])[H])c([H])c([H])c2C1([H])[H]

$$$$
2:0:0
     RDKit          3D

 91 99  0  0  1  0  0  0  0  0999 V2000
  -30.0020  -22.9210   19.6890 C   0  0  0  0  0  3  0  0  0  0  0  0
  -30.3170  -21.5050   19.4840 C   0  0  0  0  0  3  0  0  0  0  0  0
  -27.7770  -22.5020   19.0530 C   0  0  0  0  0  3  0  0  0  0  0  0
  -28.6990  -23.4990   19.4870 C   0  0  0  0  0  0  0  0  0  0  0  0
  -29.3620  -20.5080   19.0710 C   0  0  0  0  0  0  0  0  0  0  0  0
  -28.0640  -21.1010   18.8420 C   0  0  0  0  0  0  0  0  0  0  0  0
  -26.0520  -20.7970   17.2560 C   0  0  0  0  0  1  0  0  0  0  0  0
  -25.9910  -19.9170   19.6390 C   0  0  0  0  0  1  0  0  0  0  0  0
  -26.8770  -20.2220   18.4220 C   0  0  0  0  0  3  0  0  0  0  0  0
  -29.5830  -18.8900   18.8060 C   0  0  0  0  0  2  0  0  0  0  0  0
  -30.8410  -17.8470   19.0690 C   0  0  0  0  0  2  0  0  0  0  0  0
  -31.3190  -15.1910   19.5180 C   0  0  0  0  0  0  0  0  0  0  0  0
  -31.1470  -12.7250   19.0080 C   0  0  0  0  0  2  0  0  0  0  0  0
  -30.1740  -12.4950   17.8290 C   0  0  0  0  0  2  0  0  0  0  0  0
  -28.7250  -12.3820   18.3360 C   0  0  0  0  0  2  0  0  0  0  0  0
  -28.3610  -13.5030   19.3440 C   0  0  0  0  0  3  0  0  0  0  0  0
  -29.4510  -13.6900   20.4210 C   0  0  0  0  0  2  0  0  0  0  0  0
  -30.7130  -13.9580   19.7180 N   0  0  0  0  0  0  0  0  0  0  0  0
  -32.5030  -15.2120   19.1700 O   0  0  0  0  0  0  0  0  0  0  0  0
  -30.5440  -16.3680   19.5030 N   0  0  0  0  0  0  0  0  0  0  0  0
  -29.5890  -16.2100   19.7880 H   0  0  0  0  0  0  0  0  0  0  0  0
  -26.0990  -14.2600   20.2840 C   0  0  0  0  0  0  0  0  0  0  0  0
  -24.9970  -13.5650   20.6960 C   0  0  0  0  0  0  0  0  0  0  0  0
  -25.3290  -12.1810   20.5700 C   0  0  0  0  0  0  0  0  0  0  0  0
  -27.0370  -13.3060   19.9270 N   0  0  0  0  0  0  0  0  0  0  0  0
  -26.5870  -12.0460   20.1650 N   0  0  0  0  0  0  0  0  0  0  0  0
  -24.5030  -10.9810   20.7520 C   0  0  0  0  0  0  0  0  0  0  0  0
  -24.8680   -9.9620   21.6590 C   0  0  0  0  0  3  0  0  0  0  0  0
  -24.0460   -8.8290   21.8360 C   0  0  0  0  0  3  0  0  0  0  0  0
  -22.8410   -8.7050   21.1040 C   0  0  0  0  0  0  0  0  0  0  0  0
  -22.4920   -9.7120   20.1860 C   0  0  0  0  0  3  0  0  0  0  0  0
  -23.3150  -10.8380   20.0090 C   0  0  0  0  0  3  0  0  0  0  0  0
  -21.9920   -7.6280   21.1890 O   0  0  0  0  0  0  0  0  0  0  0  0
  -21.8430   -6.9180   22.3540 C   0  0  0  0  0  0  0  0  0  0  0  0
  -21.4230   -7.5360   23.5510 C   0  0  0  0  0  3  0  0  0  0  0  0
  -21.2140   -6.7610   24.7090 C   0  0  0  0  0  3  0  0  0  0  0  0
  -21.4190   -5.3690   24.6690 C   0  0  0  0  0  0  0  0  0  0  0  0
  -21.8320   -4.7500   23.4760 C   0  0  0  0  0  3  0  0  0  0  0  0
  -22.0420   -5.5230   22.3210 C   0  0  0  0  0  0  0  0  0  0  0  0
  -22.4210   -4.9200   21.1680 F   0  0  0  0  0  0  0  0  0  0  0  0
  -21.2110   -4.6210   25.7780 F   0  0  0  0  0  0  0  0  0  0  0  0
  -23.6710  -14.1490   21.0920 C   0  0  0  0  0  0  0  0  0  0  0  0
  -22.9520  -13.4900   21.9930 N   0  0  0  0  0  0  0  0  0  0  0  0
  -23.2900  -15.2270   20.6400 O   0  0  0  0  0  0  0  0  0  0  0  0
  -23.2770  -12.6200   22.3890 H   0  0  0  0  0  0  0  0  0  0  0  0
  -22.0690  -13.8700   22.3060 H   0  0  0  0  0  0  0  0  0  0  0  0
  -26.3760  -15.6180   20.1590 N   0  0  0  0  0  0  0  0  0  0  0  0
  -25.6690  -16.3240   20.3370 H   0  0  0  0  0  0  0  0  0  0  0  0
  -27.2120  -15.9980   19.7350 H   0  0  0  0  0  0  0  0  0  0  0  0
  -28.1040  -24.9580   19.9580 C   0  0  0  0  0  2  0  0  0  0  0  0
  -28.2100  -26.3400   19.3200 O   0  0  0  0  0  0  0  0  0  0  0  0
  -24.5170  -31.5890   22.9360 C   0  0  0  0  0  0  0  0  0  0  0  0
  -27.1260  -27.2600   19.4570 C   0  0  0  0  0  0  0  0  0  0  0  0
  -23.3040  -30.3120   21.2110 C   0  0  0  0  0  3  0  0  0  0  0  0
  -24.7490  -28.8990   19.6290 C   0  0  0  0  0  0  0  0  0  0  0  0
  -25.8420  -30.6670   21.0020 C   0  0  0  0  0  2  0  0  0  0  0  0
  -25.9330  -29.3380   20.2400 C   0  0  0  0  0  0  0  0  0  0  0  0
  -27.1250  -28.5380   20.1370 C   0  0  0  0  0  3  0  0  0  0  0  0
  -25.9160  -26.9020   18.8310 C   0  0  0  0  0  3  0  0  0  0  0  0
  -24.7490  -27.6910   18.9130 C   0  0  0  0  0  3  0  0  0  0  0  0
  -23.5030  -29.7550   19.7760 C   0  0  0  0  0  2  0  0  0  0  0  0
  -24.5760  -30.8710   21.7750 N   0  0  0  0  0  0  0  0  0  0  0  0
  -23.4390  -31.8010   23.5120 O   0  0  0  0  0  0  0  0  0  0  0  0
  -22.6730  -29.2100   22.0990 C   0  0  0  0  0  0  0  0  0  0  0  0
  -21.3410  -29.0470   22.0140 N   0  0  0  0  0  0  0  0  0  0  0  0
  -23.3810  -28.5100   22.8270 O   0  0  0  0  0  0  0  0  0  0  0  0
  -20.8240  -29.6670   21.4060 H   0  0  0  0  0  0  0  0  0  0  0  0
  -17.9760  -27.8410   22.6030 C   0  0  0  0  0  0  0  0  0  0  0  0
  -20.5530  -28.0350   22.7240 C   0  0  0  0  0  3  0  0  0  0  0  0
  -20.5860  -26.6810   21.9780 C   0  0  0  0  0  2  0  0  0  0  0  0
  -19.4110  -26.4950   21.0120 C   0  0  0  0  0  2  0  0  0  0  0  0
  -18.0790  -26.5790   21.7630 C   0  0  0  0  0  2  0  0  0  0  0  0
  -19.1380  -28.5330   23.0410 C   0  0  0  0  0  0  0  0  0  0  0  0
  -18.9840  -29.7170   23.7930 C   0  0  0  0  0  3  0  0  0  0  0  0
  -17.7030  -30.2100   24.1090 C   0  0  0  0  0  3  0  0  0  0  0  0
  -16.5590  -29.5130   23.6840 C   0  0  0  0  0  3  0  0  0  0  0  0
  -16.6970  -28.3300   22.9370 C   0  0  0  0  0  3  0  0  0  0  0  0
  -25.7970  -32.1950   23.5880 C   0  0  0  0  0  3  0  0  0  0  0  0
  -26.3310  -31.3500   24.8100 C   0  0  1  0  0  0  0  0  0  0  0  0
  -25.2520  -31.0460   25.8750 C   0  0  0  0  0  1  0  0  0  0  0  0
  -26.9120  -30.0000   24.3290 C   0  0  0  0  0  1  0  0  0  0  0  0
  -27.4890  -32.1070   25.5010 C   0  0  0  0  0  1  0  0  0  0  0  0
  -25.4780  -33.5670   24.0100 N   0  0  0  0  0  0  0  0  0  0  0  0
  -25.8110  -34.6730   23.3290 C   0  0  0  0  0  0  0  0  0  0  0  0
  -26.4850  -34.6430   22.2960 O   0  0  0  0  0  0  0  0  0  0  0  0
  -24.8760  -33.6650   24.8140 H   0  0  0  0  0  0  0  0  0  0  0  0
  -24.0770  -36.4830   23.1020 C   0  0  0  0  0  1  0  0  0  0  0  0
  -25.3210  -36.0270   23.8810 C   0  0  0  0  0  3  0  0  0  0  0  0
  -27.4540  -36.8630   24.7660 C   0  0  0  0  0  1  0  0  0  0  0  0
  -26.3500  -37.0880   23.8360 N   0  0  0  0  0  0  0  0  0  0  0  0
  -25.9420  -37.9950   24.0400 H   0  0  0  0  0  0  0  0  0  0  0  0
  2  1  2  0
  3  4  2  0
  4  1  1  0
  4 50  1  0
  5  2  1  0
  6  3  1  0
  6  5  2  0
  7  9  1  0
  9  6  1  0
  9  8  1  0
 10 11  1  0
 10  5  1  0
 11 20  1  0
 12 18  1  0
 13 18  1  0
 14 15  1  0
 14 13  1  0
 16 15  1  0
 16 25  1  0
 16 17  1  0
 18 17  1  0
 19 12  2  0
 20 12  1  0
 20 21  1  0
 22 23  2  0
 23 42  1  0
 24 23  1  0
 24 27  1  0
 25 26  1  0
 25 22  1  0
 26 24  2  0
 27 28  1  0
 28 29  2  0
 30 33  1  0
 30 29  1  0
 31 30  2  0
 32 31  1  0
 32 27  2  0
 33 34  1  0
 34 35  1  0
 35 36  2  0
 37 36  1  0
 37 41  1  0
 38 37  2  0
 39 34  2  0
 39 38  1  0
 40 39  1  0
 42 43  1  0
 43 46  1  0
 43 45  1  0
 44 42  2  0
 47 22  1  0
 47 48  1  0
 49 47  1  0
 51 53  1  0
 51 50  1  0
 52 63  2  0
 53 58  1  0
 54 62  1  0
 54 64  1  0
 55 61  1  0
 55 57  1  0
 56 62  1  0
 57 56  1  0
 58 57  2  0
 59 60  1  0
 59 53  2  0
 60 55  2  0
 61 54  1  0
 62 52  1  0
 64 66  2  0
 65 64  1  0
 67 65  1  0
 68 77  2  0
 68 73  1  0
 69 65  1  0
 69 73  1  0
 70 69  1  0
 71 72  1  0
 71 70  1  0
 72 68  1  0
 73 74  2  0
 74 75  1  0
 76 75  2  0
 77 76  1  0
 78 52  1  0
 78 83  1  0
 78 79  1  0
 79 82  1  1
 79 80  1  0
 81 79  1  0
 83 86  1  0
 84 88  1  0
 84 83  1  0
 85 84  2  0
 88 87  1  0
 90 88  1  0
 90 91  1  0
 90 89  1  0
M  ISO  4  12 100  20 100  50 101  51 101
M  END
>  <TORSDO>  (3) 
F 20

>  <SCORE>  (3) 
-11.263

>  <name>  (3) 
2

>  <ligand_id>  (3) 
2

>  <original_smiles>  (3) 
[H]c1c([H])c([H])c2c(c1[H])C([H])([H])C([H])([H])C([H])([H])C2([H])N([H])C(=O)C1([H])N(C(=O)C([H])(N([H])C(=O)C([H])(N([H])C([H])([H])[H])C([H])([H])[H])C(C([H])([H])[H])(C([H])([H])[H])C([H])([H])[H])C([H])([H])c2c([H])c(OC([H])([H])c3c([H])c([H])c(C([H])([H])C([H])([H])N([H])C(=O)N4C([H])([H])C([H])([H])C([H])([H])C([H])(n5nc(-c6c([H])c([H])c(Oc7c([H])c([H])c(F)c([H])c7F)c([H])c6[H])c(C(=O)N([H])[H])c5N([H])[H])C4([H])[H])c(C([H])(C([H])([H])[H])C([H])([H])[H])c3[H])c([H])c([H])c2C1([H])[H]

>  <smiles>  (3) 
[H]c1c([H])c([H])c2c(c1[H])C([H])([H])C([H])([H])C([H])([H])C2([H])N([H])C(=O)C1([H])N(C(=O)C([H])(N([H])C(=O)C([H])(N([H])C([H])([H])[H])C([H])([H])[H])C(C([H])([H])[H])(C([H])([H])[H])C([H])([H])[H])C([H])([H])c2c([H])c(OC([H])([H])c3c([H])c([H])c(C([H])([H])C([H])([H])N([H])C(=O)N4C([H])([H])C([H])([H])C([H])([H])C([H])(n5nc(-c6c([H])c([H])c(Oc7c([H])c([H])c(F)c([H])c7F)c([H])c6[H])c(C(=O)N([H])[H])c5N([H])[H])C4([H])[H])c(C([H])(C([H])([H])[H])C([H])([H])[H])c3[H])c([H])c([H])c2C1([H])[H]

$$$$
3:0:0
     RDKit          3D

102111  0  0  1  0  0  0  0  0999 V2000
  -31.9270  -18.9110   19.0110 C   0  0  0  0  0  3  0  0  0  0  0  0
  -31.4860  -17.6530   19.4540 C   0  0  0  0  0  3  0  0  0  0  0  0
  -29.6890  -18.7410   20.6410 C   0  0  0  0  0  3  0  0  0  0  0  0
  -31.2880  -20.1160   19.3770 C   0  0  0  0  0  0  0  0  0  0  0  0
  -30.1080  -20.0640   20.1840 C   0  0  0  0  0  0  0  0  0  0  0  0
  -30.3840  -17.5020   20.3240 C   0  0  0  0  0  0  0  0  0  0  0  0
  -30.7720  -14.9980   20.9770 C   0  0  0  0  0  0  0  0  0  0  0  0
  -30.7320  -12.5800   20.3930 C   0  0  0  0  0  2  0  0  0  0  0  0
  -29.9890  -12.3920   19.0540 C   0  0  0  0  0  2  0  0  0  0  0  0
  -28.4780  -12.2210   19.3020 C   0  0  0  0  0  2  0  0  0  0  0  0
  -27.9040  -13.2900   20.2710 C   0  0  0  0  0  3  0  0  0  0  0  0
  -28.7920  -13.4830   21.5190 C   0  0  0  0  0  2  0  0  0  0  0  0
  -30.1520  -13.7730   21.0530 N   0  0  0  0  0  0  0  0  0  0  0  0
  -31.9990  -15.0310   20.8720 O   0  0  0  0  0  0  0  0  0  0  0  0
  -30.0040  -16.1480   20.8210 N   0  0  0  0  0  0  0  0  0  0  0  0
  -29.0210  -16.0140   21.0010 H   0  0  0  0  0  0  0  0  0  0  0  0
  -25.4550  -13.8950   20.7300 C   0  0  0  0  0  0  0  0  0  0  0  0
  -24.3530  -13.1290   20.9930 C   0  0  0  0  0  0  0  0  0  0  0  0
  -24.8110  -11.7760   21.0340 C   0  0  0  0  0  0  0  0  0  0  0  0
  -26.5150  -13.0110   20.6210 N   0  0  0  0  0  0  0  0  0  0  0  0
  -26.1290  -11.7320   20.8690 N   0  0  0  0  0  0  0  0  0  0  0  0
  -24.0630  -10.5190   21.1620 C   0  0  0  0  0  0  0  0  0  0  0  0
  -24.4170   -9.5420   22.1180 C   0  0  0  0  0  3  0  0  0  0  0  0
  -23.6700   -8.3500   22.2350 C   0  0  0  0  0  3  0  0  0  0  0  0
  -22.5540   -8.1260   21.3930 C   0  0  0  0  0  0  0  0  0  0  0  0
  -22.2210   -9.0900   20.4260 C   0  0  0  0  0  3  0  0  0  0  0  0
  -22.9680  -10.2740   20.3080 C   0  0  0  0  0  3  0  0  0  0  0  0
  -21.7850   -6.9870   21.4180 O   0  0  0  0  0  0  0  0  0  0  0  0
  -21.6740   -6.2180   22.5480 C   0  0  0  0  0  0  0  0  0  0  0  0
  -21.1960   -6.7480   23.7660 C   0  0  0  0  0  3  0  0  0  0  0  0
  -21.0330   -5.9050   24.8840 C   0  0  0  0  0  3  0  0  0  0  0  0
  -21.3380   -4.5350   24.7840 C   0  0  0  0  0  0  0  0  0  0  0  0
  -21.8080   -4.0050   23.5700 C   0  0  0  0  0  3  0  0  0  0  0  0
  -21.9730   -4.8440   22.4550 C   0  0  0  0  0  0  0  0  0  0  0  0
  -22.4070   -4.3240   21.2820 F   0  0  0  0  0  0  0  0  0  0  0  0
  -21.1740   -3.7240   25.8550 F   0  0  0  0  0  0  0  0  0  0  0  0
  -22.9360  -13.6130   21.1030 C   0  0  0  0  0  0  0  0  0  0  0  0
  -22.1180  -12.9410   21.9050 N   0  0  0  0  0  0  0  0  0  0  0  0
  -22.5600  -14.6240   20.5090 O   0  0  0  0  0  0  0  0  0  0  0  0
  -22.4340  -12.1250   22.4070 H   0  0  0  0  0  0  0  0  0  0  0  0
  -21.1620  -13.2480   22.0190 H   0  0  0  0  0  0  0  0  0  0  0  0
  -25.6440  -15.2620   20.5500 N   0  0  0  0  0  0  0  0  0  0  0  0
  -24.8690  -15.9170   20.5520 H   0  0  0  0  0  0  0  0  0  0  0  0
  -26.5200  -15.6880   20.2810 H   0  0  0  0  0  0  0  0  0  0  0  0
  -33.0850  -22.8680   17.2040 C   0  0  0  0  0  2  0  0  0  0  0  0
  -32.5030  -21.4780   17.5170 C   0  0  0  0  0  2  0  0  0  0  0  0
  -34.1540  -23.2710   18.2380 C   0  0  0  0  0  2  0  0  0  0  0  0
  -33.0700  -21.8520   19.9530 C   0  0  0  0  0  2  0  0  0  0  0  0
  -31.9540  -21.4430   18.9640 C   0  0  0  0  0  3  0  0  0  0  0  0
  -33.6090  -23.1950   19.6170 N   0  0  1  0  0  4  0  0  0  0  0  0
  -32.8390  -23.8530   19.6810 H   0  0  0  0  0  0  0  0  0  0  0  0
  -34.4880  -23.7770   20.6530 C   0  0  0  0  0  2  0  0  0  0  0  0
  -34.2430  -25.2920   20.6960 C   0  0  0  0  0  2  0  0  0  0  0  0
  -32.8430  -25.5340   20.5850 O   0  0  0  0  0  0  0  0  0  0  0  0
  -32.6990  -26.4680   20.7110 H   0  0  0  0  0  0  0  0  0  0  0  0
  -29.4360  -21.4140   20.7100 C   0  0  0  0  0  2  0  0  0  0  0  0
  -28.9390  -22.5150   19.7620 N   0  0  0  0  0  4  0  0  0  0  0  0
  -27.9440  -22.3640   19.6900 H   0  0  0  0  0  0  0  0  0  0  0  0
  -29.3050  -22.3310   18.8430 H   0  0  0  0  0  0  0  0  0  0  0  0
  -29.1760  -23.9980   20.1230 C   0  0  0  0  0  3  0  0  0  0  0  0
  -28.1850  -25.1060   19.4990 C   0  0  0  0  0  3  0  0  0  0  0  0
  -28.3620  -26.5800   19.7410 O   0  0  0  0  0  0  0  0  0  0  0  0
  -24.4990  -31.7300   23.0650 C   0  0  0  0  0  0  0  0  0  0  0  0
  -27.2280  -27.4230   19.7260 C   0  0  0  0  0  0  0  0  0  0  0  0
  -23.3200  -30.3600   21.3870 C   0  0  0  0  0  3  0  0  0  0  0  0
  -24.8010  -28.9560   19.8460 C   0  0  0  0  0  0  0  0  0  0  0  0
  -25.8410  -30.7980   21.1630 C   0  0  0  0  0  2  0  0  0  0  0  0
  -25.9650  -29.4550   20.4450 C   0  0  0  0  0  0  0  0  0  0  0  0
  -27.1790  -28.7000   20.3810 C   0  0  0  0  0  3  0  0  0  0  0  0
  -26.0400  -27.0040   19.0800 C   0  0  0  0  0  3  0  0  0  0  0  0
  -24.8440  -27.7390   19.1540 C   0  0  0  0  0  3  0  0  0  0  0  0
  -23.5290  -29.7670   19.9690 C   0  0  0  0  0  2  0  0  0  0  0  0
  -24.5730  -30.9790   21.9280 N   0  0  0  0  0  0  0  0  0  0  0  0
  -23.4190  -31.9280   23.6400 O   0  0  0  0  0  0  0  0  0  0  0  0
  -22.7320  -29.2650   22.3100 C   0  0  0  0  0  0  0  0  0  0  0  0
  -21.4130  -29.0280   22.2050 N   0  0  0  0  0  0  0  0  0  0  0  0
  -23.4590  -28.6340   23.0800 O   0  0  0  0  0  0  0  0  0  0  0  0
  -20.8810  -29.5910   21.5560 H   0  0  0  0  0  0  0  0  0  0  0  0
  -18.1140  -27.6290   22.7100 C   0  0  0  0  0  0  0  0  0  0  0  0
  -20.6590  -28.0170   22.9500 C   0  0  0  0  0  3  0  0  0  0  0  0
  -20.8270  -26.6180   22.3140 C   0  0  0  0  0  2  0  0  0  0  0  0
  -19.7260  -26.2780   21.3050 C   0  0  0  0  0  2  0  0  0  0  0  0
  -18.3500  -26.3200   21.9750 C   0  0  0  0  0  2  0  0  0  0  0  0
  -19.1970  -28.4330   23.1540 C   0  0  0  0  0  0  0  0  0  0  0  0
  -18.9210  -29.6560   23.8020 C   0  0  0  0  0  3  0  0  0  0  0  0
  -17.5940  -30.0760   24.0100 C   0  0  0  0  0  3  0  0  0  0  0  0
  -16.5250  -29.2700   23.5820 C   0  0  0  0  0  3  0  0  0  0  0  0
  -16.7870  -28.0480   22.9360 C   0  0  0  0  0  3  0  0  0  0  0  0
  -25.7670  -32.3930   23.6870 C   0  0  0  0  0  3  0  0  0  0  0  0
  -25.4090  -33.7700   24.0600 N   0  0  0  0  0  0  0  0  0  0  0  0
  -25.7150  -34.8580   23.3430 C   0  0  0  0  0  0  0  0  0  0  0  0
  -26.3970  -34.8130   22.3170 O   0  0  0  0  0  0  0  0  0  0  0  0
  -24.7970  -33.8780   24.8550 H   0  0  0  0  0  0  0  0  0  0  0  0
  -23.9380  -36.6120   23.0290 C   0  0  0  0  0  1  0  0  0  0  0  0
  -25.1790  -36.2140   23.8430 C   0  0  0  0  0  3  0  0  0  0  0  0
  -27.2760  -37.1310   24.7340 C   0  0  0  0  0  1  0  0  0  0  0  0
  -26.1810  -37.3020   23.7830 N   0  0  0  0  0  0  0  0  0  0  0  0
  -25.7450  -38.2030   23.9580 H   0  0  0  0  0  0  0  0  0  0  0  0
  -26.3290  -31.6070   24.9350 C   0  0  1  0  0  0  0  0  0  0  0  0
  -25.2630  -31.3130   26.0160 C   0  0  0  0  0  1  0  0  0  0  0  0
  -26.9470  -30.2570   24.5030 C   0  0  0  0  0  1  0  0  0  0  0  0
  -27.4690  -32.4190   25.5920 C   0  0  0  0  0  1  0  0  0  0  0  0
  1  4  2  0
  1  2  1  0
  2  6  2  0
  4  5  1  0
  5  3  2  0
  5 56  1  0
  6  3  1  0
  6 15  1  0
  7 13  1  0
  8 13  1  0
  9 10  1  0
  9  8  1  0
 11 10  1  0
 11 20  1  0
 11 12  1  0
 13 12  1  0
 14  7  2  0
 15  7  1  0
 15 16  1  0
 17 18  2  0
 18 19  1  0
 18 37  1  0
 19 22  1  0
 20 17  1  0
 20 21  1  0
 21 19  2  0
 22 23  1  0
 23 24  2  0
 25 28  1  0
 25 24  1  0
 26 25  2  0
 27 26  1  0
 27 22  2  0
 28 29  1  0
 29 30  1  0
 30 31  2  0
 32 31  1  0
 32 36  1  0
 33 32  2  0
 34 29  2  0
 34 33  1  0
 35 34  1  0
 37 38  1  0
 38 41  1  0
 38 40  1  0
 39 37  2  0
 42 43  1  0
 42 17  1  0
 44 42  1  0
 45 46  1  0
 45 47  1  0
 46 49  1  0
 47 50  1  0
 49  4  1  0
 49 48  1  0
 50 51  1  6
 50 48  1  0
 50 52  1  0
 52 53  1  0
 54 53  1  0
 54 55  1  0
 57 60  1  0
 57 56  1  0
 58 57  1  0
 59 57  1  0
 61 62  1  0
 61 60  2  0
 63 74  2  0
 64 62  1  0
 64 69  1  0
 65 73  1  0
 65 75  1  0
 66 72  1  0
 66 68  1  0
 67 73  1  0
 68 67  1  0
 69 68  2  0
 70 71  1  0
 70 64  2  0
 71 66  2  0
 72 65  1  0
 73 63  1  0
 75 77  2  0
 76 75  1  0
 78 76  1  0
 79 88  2  0
 79 84  1  0
 80 76  1  0
 80 84  1  0
 81 80  1  0
 82 83  1  0
 82 81  1  0
 83 79  1  0
 84 85  2  0
 85 86  1  0
 87 86  2  0
 88 87  1  0
 89 63  1  0
 89 90  1  0
 89 99  1  0
 90 93  1  0
 91 95  1  0
 91 90  1  0
 92 91  2  0
 95 94  1  0
 97 95  1  0
 97 98  1  0
 97 96  1  0
 99102  1  1
 99100  1  0
101 99  1  0
M  ISO  4   7 100  15 100  61 101  62 101
M  END
>  <TORSDO>  (4) 
F 24

>  <SCORE>  (4) 
-11.586

>  <name>  (4) 
3

>  <ligand_id>  (4) 
3

>  <original_smiles>  (4) 
[H]OC([H])([H])C([H])([H])[N+]1([H])C([H])([H])C([H])([H])C([H])([H])C([H])(c2c([H])c([H])c(N([H])C(=O)N3C([H])([H])C([H])([H])C([H])([H])C([H])(n4nc(-c5c([H])c([H])c(Oc6c([H])c([H])c(F)c([H])c6F)c([H])c5[H])c(C(=O)N([H])[H])c4N([H])[H])C3([H])[H])c([H])c2C([H])([H])[N+]([H])([H])C([H])([H])C([H])([H])Oc2c([H])c([H])c3c(c2[H])C([H])([H])N(C(=O)C([H])(N([H])C(=O)C([H])(N([H])C([H])([H])[H])C([H])([H])[H])C(C([H])([H])[H])(C([H])([H])[H])C([H])([H])[H])C([H])(C(=O)N([H])C2([H])c4c([H])c([H])c([H])c([H])c4C([H])([H])C([H])([H])C2([H])[H])C3([H])[H])C1([H])[H]

>  <smiles>  (4) 
[H]OC([H])([H])C([H])([H])[N+]1([H])C([H])([H])C([H])([H])C([H])([H])C([H])(c2c([H])c([H])c(N([H])C(=O)N3C([H])([H])C([H])([H])C([H])([H])C([H])(n4nc(-c5c([H])c([H])c(Oc6c([H])c([H])c(F)c([H])c6F)c([H])c5[H])c(C(=O)N([H])[H])c4N([H])[H])C3([H])[H])c([H])c2C([H])([H])[N+]([H])([H])C([H])([H])C([H])([H])Oc2c([H])c([H])c3c(c2[H])C([H])([H])N(C(=O)C([H])(N([H])C(=O)C([H])(N([H])C([H])([H])[H])C([H])([H])[H])C(C([H])([H])[H])(C([H])([H])[H])C([H])([H])[H])C([H])(C(=O)N([H])C2([H])c4c([H])c([H])c([H])c([H])c4C([H])([H])C([H])([H])C2([H])[H])C3([H])[H])C1([H])[H]

$$$$
4:0:0
     RDKit          3D

 88 96  0  0  1  0  0  0  0  0999 V2000
  -29.2140  -22.6600   21.6650 C   0  0  0  0  0  3  0  0  0  0  0  0
  -28.8190  -21.3570   19.7200 C   0  0  0  0  0  3  0  0  0  0  0  0
  -28.6630  -22.7600   20.3660 C   0  0  0  0  0  0  0  0  0  0  0  0
  -29.7750  -21.4550   22.1940 C   0  0  0  0  0  0  0  0  0  0  0  0
  -29.4270  -20.0560   20.3050 C   0  0  0  0  0  0  0  0  0  0  0  0
  -30.3180  -21.4660   23.6090 C   0  0  0  0  0  1  0  0  0  0  0  0
  -29.8750  -20.2420   21.5690 N   0  0  0  0  0  0  0  0  0  0  0  0
  -27.8240  -24.2600   19.9080 C   0  0  0  0  0  2  0  0  0  0  0  0
  -28.0280  -25.8970   20.2020 O   0  0  0  0  0  0  0  0  0  0  0  0
  -24.6310  -31.9710   23.2050 C   0  0  0  0  0  0  0  0  0  0  0  0
  -27.0390  -27.0320   20.1130 C   0  0  0  0  0  0  0  0  0  0  0  0
  -23.3630  -30.5650   21.6310 C   0  0  0  0  0  3  0  0  0  0  0  0
  -24.7470  -28.9490   20.1470 C   0  0  0  0  0  0  0  0  0  0  0  0
  -25.9220  -30.7650   21.3670 C   0  0  0  0  0  2  0  0  0  0  0  0
  -25.9610  -29.3450   20.7180 C   0  0  0  0  0  0  0  0  0  0  0  0
  -27.0950  -28.4060   20.6830 C   0  0  0  0  0  3  0  0  0  0  0  0
  -25.7980  -26.8090   19.4700 C   0  0  0  0  0  3  0  0  0  0  0  0
  -24.6930  -27.7040   19.4980 C   0  0  0  0  0  3  0  0  0  0  0  0
  -23.5300  -29.8720   20.2490 C   0  0  0  0  0  2  0  0  0  0  0  0
  -24.6630  -31.1280   22.1190 N   0  0  0  0  0  0  0  0  0  0  0  0
  -23.5650  -32.2650   23.7730 O   0  0  0  0  0  0  0  0  0  0  0  0
  -22.7140  -29.5770   22.6370 C   0  0  0  0  0  0  0  0  0  0  0  0
  -21.3980  -29.3240   22.5030 N   0  0  0  0  0  0  0  0  0  0  0  0
  -23.4030  -29.0360   23.5060 O   0  0  0  0  0  0  0  0  0  0  0  0
  -20.8920  -29.8140   21.7790 H   0  0  0  0  0  0  0  0  0  0  0  0
  -18.1290  -27.8100   22.9290 C   0  0  0  0  0  0  0  0  0  0  0  0
  -20.6240  -28.3740   23.3110 C   0  0  0  0  0  3  0  0  0  0  0  0
  -20.9110  -26.9160   22.8780 C   0  0  0  0  0  2  0  0  0  0  0  0
  -19.9170  -26.3920   21.8370 C   0  0  0  0  0  2  0  0  0  0  0  0
  -18.4880  -26.4370   22.3860 C   0  0  0  0  0  2  0  0  0  0  0  0
  -19.1320  -28.7240   23.3490 C   0  0  0  0  0  0  0  0  0  0  0  0
  -18.7420  -29.9970   23.8190 C   0  0  0  0  0  3  0  0  0  0  0  0
  -17.3840  -30.3600   23.8720 C   0  0  0  0  0  3  0  0  0  0  0  0
  -16.3950  -29.4470   23.4680 C   0  0  0  0  0  3  0  0  0  0  0  0
  -16.7670  -28.1740   23.0020 C   0  0  0  0  0  3  0  0  0  0  0  0
  -25.9270  -32.6230   23.7750 C   0  0  0  0  0  3  0  0  0  0  0  0
  -25.6170  -34.0170   24.1400 N   0  0  0  0  0  0  0  0  0  0  0  0
  -25.9270  -35.0930   23.4040 C   0  0  0  0  0  0  0  0  0  0  0  0
  -26.5670  -35.0150   22.3520 O   0  0  0  0  0  0  0  0  0  0  0  0
  -25.0450  -34.1500   24.9620 H   0  0  0  0  0  0  0  0  0  0  0  0
  -24.1940  -36.9040   23.1460 C   0  0  0  0  0  1  0  0  0  0  0  0
  -25.4550  -36.4710   23.9120 C   0  0  0  0  0  3  0  0  0  0  0  0
  -27.6090  -37.3390   24.7150 C   0  0  0  0  0  1  0  0  0  0  0  0
  -26.4870  -37.5260   23.7980 N   0  0  0  0  0  0  0  0  0  0  0  0
  -26.0860  -38.4440   23.9720 H   0  0  0  0  0  0  0  0  0  0  0  0
  -26.5060  -31.8520   25.0270 C   0  0  1  0  0  0  0  0  0  0  0  0
  -25.4570  -31.5850   26.1320 C   0  0  0  0  0  1  0  0  0  0  0  0
  -27.1020  -30.4900   24.6090 C   0  0  0  0  0  1  0  0  0  0  0  0
  -27.6640  -32.6660   25.6510 C   0  0  0  0  0  1  0  0  0  0  0  0
  -29.8310  -18.4660   19.6410 C   0  0  0  0  0  2  0  0  0  0  0  0
  -30.5210  -15.5750   19.9380 C   0  0  0  0  0  0  0  0  0  0  0  0
  -30.5300  -13.0960   19.1220 C   0  0  0  0  0  2  0  0  0  0  0  0
  -29.5670  -12.8310   17.9330 C   0  0  0  0  0  2  0  0  0  0  0  0
  -28.1520  -12.5180   18.4440 C   0  0  0  0  0  2  0  0  0  0  0  0
  -27.7210  -13.4920   19.5680 C   0  0  0  0  0  3  0  0  0  0  0  0
  -28.8100  -13.7040   20.6440 C   0  0  0  0  0  2  0  0  0  0  0  0
  -29.9950  -14.2430   19.9550 N   0  0  0  0  0  0  0  0  0  0  0  0
  -31.7100  -15.5890   19.5820 O   0  0  0  0  0  0  0  0  0  0  0  0
  -29.7500  -16.8460   20.1170 N   0  0  0  0  0  0  0  0  0  0  0  0
  -28.8360  -16.6450   20.4920 H   0  0  0  0  0  0  0  0  0  0  0  0
  -25.3960  -14.0050   20.4710 C   0  0  0  0  0  0  0  0  0  0  0  0
  -24.3620  -13.2090   20.8750 C   0  0  0  0  0  0  0  0  0  0  0  0
  -24.8320  -11.8650   20.7730 C   0  0  0  0  0  0  0  0  0  0  0  0
  -26.4260  -13.1460   20.1400 N   0  0  0  0  0  0  0  0  0  0  0  0
  -26.1040  -11.8480   20.3870 N   0  0  0  0  0  0  0  0  0  0  0  0
  -24.1210  -10.5920   20.9590 C   0  0  0  0  0  0  0  0  0  0  0  0
  -24.5430   -9.6400   21.9120 C   0  0  0  0  0  3  0  0  0  0  0  0
  -23.8270   -8.4360   22.0880 C   0  0  0  0  0  3  0  0  0  0  0  0
  -22.6740   -8.1760   21.3100 C   0  0  0  0  0  0  0  0  0  0  0  0
  -22.2720   -9.1170   20.3460 C   0  0  0  0  0  3  0  0  0  0  0  0
  -22.9900  -10.3110   20.1680 C   0  0  0  0  0  3  0  0  0  0  0  0
  -21.9310   -7.0230   21.3940 O   0  0  0  0  0  0  0  0  0  0  0  0
  -21.7870   -6.3430   22.5770 C   0  0  0  0  0  0  0  0  0  0  0  0
  -21.1940   -6.9390   23.7110 C   0  0  0  0  0  3  0  0  0  0  0  0
  -21.0030   -6.1830   24.8850 C   0  0  0  0  0  3  0  0  0  0  0  0
  -21.3960   -4.8320   24.9240 C   0  0  0  0  0  0  0  0  0  0  0  0
  -21.9830   -4.2360   23.7950 C   0  0  0  0  0  3  0  0  0  0  0  0
  -22.1750   -4.9890   22.6240 C   0  0  0  0  0  0  0  0  0  0  0  0
  -22.7220   -4.4040   21.5310 F   0  0  0  0  0  0  0  0  0  0  0  0
  -21.2060   -4.1030   26.0500 F   0  0  0  0  0  0  0  0  0  0  0  0
  -22.9800  -13.6710   21.2370 C   0  0  0  0  0  0  0  0  0  0  0  0
  -22.3060  -12.9490   22.1260 N   0  0  0  0  0  0  0  0  0  0  0  0
  -22.5090  -14.7060   20.7680 O   0  0  0  0  0  0  0  0  0  0  0  0
  -22.6990  -12.1090   22.5240 H   0  0  0  0  0  0  0  0  0  0  0  0
  -21.3830  -13.2440   22.4140 H   0  0  0  0  0  0  0  0  0  0  0  0
  -25.5410  -15.3820   20.3270 N   0  0  0  0  0  0  0  0  0  0  0  0
  -24.7730  -16.0260   20.4910 H   0  0  0  0  0  0  0  0  0  0  0  0
  -26.3530  -15.8330   19.9250 H   0  0  0  0  0  0  0  0  0  0  0  0
  1  4  1  0
  2  5  2  0
  2  3  1  0
  3  1  2  0
  4  6  1  0
  5  7  1  0
  7  4  2  0
  8  9  1  0
  8  3  1  0
 10 21  2  0
 11  9  1  0
 11 16  1  0
 12 20  1  0
 12 22  1  0
 13 19  1  0
 13 15  1  0
 14 20  1  0
 15 14  1  0
 16 15  2  0
 17 18  1  0
 17 11  2  0
 18 13  2  0
 19 12  1  0
 20 10  1  0
 22 24  2  0
 23 22  1  0
 25 23  1  0
 26 35  2  0
 26 31  1  0
 27 23  1  0
 27 31  1  0
 28 27  1  0
 29 30  1  0
 29 28  1  0
 30 26  1  0
 31 32  2  0
 32 33  1  0
 34 33  2  0
 35 34  1  0
 36 10  1  0
 36 37  1  0
 36 46  1  0
 37 40  1  0
 38 42  1  0
 38 37  1  0
 39 38  2  0
 42 41  1  0
 44 42  1  0
 44 45  1  0
 44 43  1  0
 46 49  1  1
 46 47  1  0
 48 46  1  0
 50 59  1  0
 50  5  1  0
 51 57  1  0
 51 59  1  0
 52 57  1  0
 53 54  1  0
 53 52  1  0
 55 54  1  0
 55 64  1  0
 55 56  1  0
 57 56  1  0
 58 51  2  0
 59 60  1  0
 61 62  2  0
 62 81  1  0
 63 62  1  0
 63 66  1  0
 64 65  1  0
 64 61  1  0
 65 63  2  0
 66 67  1  0
 67 68  2  0
 69 72  1  0
 69 68  1  0
 70 69  2  0
 71 70  1  0
 71 66  2  0
 72 73  1  0
 73 78  2  0
 73 74  1  0
 74 75  2  0
 75 76  1  0
 76 80  1  0
 77 76  2  0
 78 77  1  0
 79 78  1  0
 81 82  1  0
 82 85  1  0
 82 84  1  0
 83 81  2  0
 86 61  1  0
 86 87  1  0
 88 86  1  0
M  ISO  4   8 101   9 101  51 100  59 100
M  END
>  <TORSDO>  (5) 
F 18

>  <SCORE>  (5) 
-16.531

>  <name>  (5) 
4

>  <ligand_id>  (5) 
4

>  <original_smiles>  (5) 
[H]c1c([H])c([H])c2c(c1[H])C([H])([H])C([H])([H])C([H])([H])C2([H])N([H])C(=O)C1([H])N(C(=O)C([H])(N([H])C(=O)C([H])(N([H])C([H])([H])[H])C([H])([H])[H])C(C([H])([H])[H])(C([H])([H])[H])C([H])([H])[H])C([H])([H])c2c([H])c(OC([H])([H])c3c([H])c(C([H])([H])[H])nc(C([H])([H])N([H])C(=O)N4C([H])([H])C([H])([H])C([H])([H])C([H])(n5nc(-c6c([H])c([H])c(Oc7c([H])c([H])c(F)c([H])c7F)c([H])c6[H])c(C(=O)N([H])[H])c5N([H])[H])C4([H])[H])c3[H])c([H])c([H])c2C1([H])[H]

>  <smiles>  (5) 
[H]c1c([H])c([H])c2c(c1[H])C([H])([H])C([H])([H])C([H])([H])C2([H])N([H])C(=O)C1([H])N(C(=O)C([H])(N([H])C(=O)C([H])(N([H])C([H])([H])[H])C([H])([H])[H])C(C([H])([H])[H])(C([H])([H])[H])C([H])([H])[H])C([H])([H])c2c([H])c(OC([H])([H])c3c([H])c(C([H])([H])[H])nc(C([H])([H])N([H])C(=O)N4C([H])([H])C([H])([H])C([H])([H])C([H])(n5nc(-c6c([H])c([H])c(Oc7c([H])c([H])c(F)c([H])c7F)c([H])c6[H])c(C(=O)N([H])[H])c5N([H])[H])C4([H])[H])c3[H])c([H])c([H])c2C1([H])[H]

$$$$
5:0:0
     RDKit          3D

 94102  0  0  1  0  0  0  0  0999 V2000
  -30.3730  -19.8530   19.6350 C   0  0  0  0  0  2  0  0  0  0  0  0
  -29.1650  -20.4520   21.5030 C   0  0  0  0  0  2  0  0  0  0  0  0
  -30.4060  -21.4010   19.6660 C   0  0  0  0  0  3  0  0  0  0  0  0
  -29.7870  -21.7860   21.0250 C   0  0  0  0  0  3  0  0  0  0  0  0
  -30.0670  -19.4150   20.9980 N   0  0  0  0  0  0  0  0  0  0  0  0
  -28.7840  -22.8890   20.9480 N   0  0  0  0  0  4  0  0  0  0  0  0
  -28.3490  -22.9380   21.8580 H   0  0  0  0  0  0  0  0  0  0  0  0
  -28.0620  -22.6210   20.2970 H   0  0  0  0  0  0  0  0  0  0  0  0
  -29.2740  -24.2640   20.6070 C   0  0  0  0  0  2  0  0  0  0  0  0
  -28.1350  -25.3090   20.7390 C   0  0  0  0  0  2  0  0  0  0  0  0
  -28.4140  -26.6530   20.2680 O   0  0  0  0  0  0  0  0  0  0  0  0
  -24.6200  -31.9140   23.2530 C   0  0  0  0  0  0  0  0  0  0  0  0
  -27.2870  -27.4550   20.2010 C   0  0  0  0  0  0  0  0  0  0  0  0
  -23.4340  -30.5120   21.6000 C   0  0  0  0  0  3  0  0  0  0  0  0
  -24.9040  -28.9900   20.1790 C   0  0  0  0  0  0  0  0  0  0  0  0
  -25.9650  -30.8690   21.4320 C   0  0  0  0  0  2  0  0  0  0  0  0
  -26.0580  -29.5000   20.7870 C   0  0  0  0  0  0  0  0  0  0  0  0
  -27.2560  -28.7410   20.7960 C   0  0  0  0  0  3  0  0  0  0  0  0
  -26.1220  -26.9900   19.5500 C   0  0  0  0  0  3  0  0  0  0  0  0
  -24.9330  -27.7370   19.5520 C   0  0  0  0  0  3  0  0  0  0  0  0
  -23.6580  -29.8440   20.2180 C   0  0  0  0  0  2  0  0  0  0  0  0
  -24.6900  -31.1140   22.1520 N   0  0  0  0  0  0  0  0  0  0  0  0
  -23.5310  -32.1820   23.7820 O   0  0  0  0  0  0  0  0  0  0  0  0
  -22.7770  -29.4840   22.5500 C   0  0  0  0  0  0  0  0  0  0  0  0
  -21.4540  -29.3010   22.4140 N   0  0  0  0  0  0  0  0  0  0  0  0
  -23.4570  -28.8570   23.3670 O   0  0  0  0  0  0  0  0  0  0  0  0
  -20.9660  -29.8580   21.7260 H   0  0  0  0  0  0  0  0  0  0  0  0
  -18.0720  -28.1230   22.9060 C   0  0  0  0  0  0  0  0  0  0  0  0
  -20.6320  -28.3600   23.1780 C   0  0  0  0  0  3  0  0  0  0  0  0
  -20.7250  -26.9340   22.5880 C   0  0  0  0  0  2  0  0  0  0  0  0
  -19.6200  -26.6280   21.5730 C   0  0  0  0  0  2  0  0  0  0  0  0
  -18.2390  -26.7770   22.2200 C   0  0  0  0  0  2  0  0  0  0  0  0
  -19.1970  -28.8720   23.3420 C   0  0  0  0  0  0  0  0  0  0  0  0
  -18.9870  -30.1330   23.9450 C   0  0  0  0  0  3  0  0  0  0  0  0
  -17.6870  -30.6420   24.1150 C   0  0  0  0  0  3  0  0  0  0  0  0
  -16.5760  -29.8880   23.6950 C   0  0  0  0  0  3  0  0  0  0  0  0
  -16.7700  -28.6300   23.0960 C   0  0  0  0  0  3  0  0  0  0  0  0
  -25.8980  -32.5500   23.8830 C   0  0  0  0  0  3  0  0  0  0  0  0
  -25.5790  -33.9450   24.2130 N   0  0  0  0  0  0  0  0  0  0  0  0
  -25.8940  -34.9980   23.4480 C   0  0  0  0  0  0  0  0  0  0  0  0
  -26.5550  -34.8990   22.4100 O   0  0  0  0  0  0  0  0  0  0  0  0
  -24.9900  -34.0960   25.0190 H   0  0  0  0  0  0  0  0  0  0  0  0
  -24.1410  -36.7690   23.1080 C   0  0  0  0  0  1  0  0  0  0  0  0
  -25.3950  -36.3820   23.9060 C   0  0  0  0  0  3  0  0  0  0  0  0
  -27.5310  -37.2930   24.7060 C   0  0  0  0  0  1  0  0  0  0  0  0
  -26.4130  -37.4480   23.7780 N   0  0  0  0  0  0  0  0  0  0  0  0
  -25.9970  -38.3620   23.9350 H   0  0  0  0  0  0  0  0  0  0  0  0
  -26.4100  -31.7770   25.1600 C   0  0  1  0  0  0  0  0  0  0  0  0
  -25.3100  -31.5280   26.2180 C   0  0  0  0  0  1  0  0  0  0  0  0
  -27.0050  -30.4040   24.7650 C   0  0  0  0  0  1  0  0  0  0  0  0
  -27.5510  -32.5750   25.8330 C   0  0  0  0  0  1  0  0  0  0  0  0
  -31.8210  -21.9900   19.4640 C   0  0  0  0  0  2  0  0  0  0  0  0
  -32.2700  -21.8310   18.1270 O   0  0  0  0  0  0  0  0  0  0  0  0
  -32.4930  -20.9140   17.9890 H   0  0  0  0  0  0  0  0  0  0  0  0
  -29.5100  -18.0510   21.0830 C   0  0  0  0  0  2  0  0  0  0  0  0
  -30.5790  -16.9580   20.8200 C   0  0  0  0  0  2  0  0  0  0  0  0
  -30.7160  -14.5210   20.3470 C   0  0  0  0  0  0  0  0  0  0  0  0
  -30.3610  -12.3820   19.1770 C   0  0  0  0  0  2  0  0  0  0  0  0
  -29.4100  -12.6140   17.9860 C   0  0  0  0  0  2  0  0  0  0  0  0
  -27.9420  -12.4770   18.4340 C   0  0  0  0  0  2  0  0  0  0  0  0
  -27.6260  -13.3000   19.7130 C   0  0  0  0  0  3  0  0  0  0  0  0
  -28.6960  -13.0710   20.8050 C   0  0  0  0  0  2  0  0  0  0  0  0
  -30.0130  -13.3620   20.2190 N   0  0  0  0  0  0  0  0  0  0  0  0
  -31.8440  -14.6690   19.8710 O   0  0  0  0  0  0  0  0  0  0  0  0
  -30.0580  -15.5770   20.8610 N   0  0  0  0  0  0  0  0  0  0  0  0
  -29.1260  -15.4250   21.2190 H   0  0  0  0  0  0  0  0  0  0  0  0
  -25.2350  -13.9030   20.4450 C   0  0  0  0  0  0  0  0  0  0  0  0
  -24.1700  -13.1290   20.8230 C   0  0  0  0  0  0  0  0  0  0  0  0
  -24.6310  -11.7790   20.7870 C   0  0  0  0  0  0  0  0  0  0  0  0
  -26.2780  -13.0230   20.2060 N   0  0  0  0  0  0  0  0  0  0  0  0
  -25.9190  -11.7400   20.4690 N   0  0  0  0  0  0  0  0  0  0  0  0
  -23.9070  -10.5160   20.9820 C   0  0  0  0  0  0  0  0  0  0  0  0
  -24.3340   -9.5590   21.9280 C   0  0  0  0  0  3  0  0  0  0  0  0
  -23.6100   -8.3600   22.1110 C   0  0  0  0  0  3  0  0  0  0  0  0
  -22.4450   -8.1120   21.3480 C   0  0  0  0  0  0  0  0  0  0  0  0
  -22.0380   -9.0580   20.3910 C   0  0  0  0  0  3  0  0  0  0  0  0
  -22.7620  -10.2470   20.2060 C   0  0  0  0  0  3  0  0  0  0  0  0
  -21.6930   -6.9650   21.4380 O   0  0  0  0  0  0  0  0  0  0  0  0
  -21.6150   -6.2470   22.6040 C   0  0  0  0  0  0  0  0  0  0  0  0
  -21.1260   -6.8180   23.7990 C   0  0  0  0  0  3  0  0  0  0  0  0
  -20.9970   -6.0240   24.9570 C   0  0  0  0  0  3  0  0  0  0  0  0
  -21.3450   -4.6610   24.9200 C   0  0  0  0  0  0  0  0  0  0  0  0
  -21.8260   -4.0890   23.7290 C   0  0  0  0  0  3  0  0  0  0  0  0
  -21.9570   -4.8800   22.5730 C   0  0  0  0  0  0  0  0  0  0  0  0
  -22.4010   -4.3190   21.4220 F   0  0  0  0  0  0  0  0  0  0  0  0
  -21.2140   -3.8970   26.0290 F   0  0  0  0  0  0  0  0  0  0  0  0
  -22.7750  -13.6070   21.1080 C   0  0  0  0  0  0  0  0  0  0  0  0
  -22.0570  -12.9110   21.9840 N   0  0  0  0  0  0  0  0  0  0  0  0
  -22.3320  -14.6310   20.5910 O   0  0  0  0  0  0  0  0  0  0  0  0
  -22.4300  -12.0820   22.4230 H   0  0  0  0  0  0  0  0  0  0  0  0
  -21.1230  -13.2110   22.2180 H   0  0  0  0  0  0  0  0  0  0  0  0
  -25.3970  -15.2740   20.2650 N   0  0  0  0  0  0  0  0  0  0  0  0
  -24.6250  -15.9230   20.3720 H   0  0  0  0  0  0  0  0  0  0  0  0
  -26.2370  -15.7120   19.9100 H   0  0  0  0  0  0  0  0  0  0  0  0
  1  3  1  0
  1  5  1  0
  3 52  1  0
  3  4  1  0
  4  6  1  0
  4  2  1  0
  5 55  1  0
  5  2  1  0
  6  7  1  0
  8  6  1  0
  9 10  1  0
  9  6  1  0
 11 10  1  0
 12 23  2  0
 13 11  1  0
 13 18  1  0
 14 22  1  0
 14 24  1  0
 15 21  1  0
 15 17  1  0
 16 22  1  0
 17 18  2  0
 17 16  1  0
 19 20  1  0
 19 13  2  0
 20 15  2  0
 21 14  1  0
 22 12  1  0
 24 26  2  0
 25 24  1  0
 27 25  1  0
 28 37  2  0
 28 33  1  0
 29 25  1  0
 29 33  1  0
 30 29  1  0
 31 32  1  0
 31 30  1  0
 32 28  1  0
 33 34  2  0
 34 35  1  0
 36 35  2  0
 37 36  1  0
 38 12  1  0
 38 39  1  0
 38 48  1  0
 39 42  1  0
 40 44  1  0
 40 39  1  0
 41 40  2  0
 44 43  1  0
 46 44  1  0
 46 47  1  0
 46 45  1  0
 48 51  1  1
 48 49  1  0
 50 48  1  0
 53 52  1  0
 54 53  1  0
 56 65  1  0
 56 55  1  0
 57 65  1  0
 58 63  1  0
 59 60  1  0
 59 58  1  0
 61 60  1  0
 61 70  1  0
 61 62  1  0
 63 57  1  0
 63 62  1  0
 64 57  2  0
 65 66  1  0
 67 68  2  0
 68 87  1  0
 69 68  1  0
 69 72  1  0
 70 67  1  0
 70 71  1  0
 71 69  2  0
 72 73  1  0
 73 74  2  0
 75 78  1  0
 75 74  1  0
 76 75  2  0
 77 76  1  0
 77 72  2  0
 78 79  1  0
 79 80  1  0
 80 81  2  0
 82 81  1  0
 82 86  1  0
 83 82  2  0
 84 79  2  0
 84 83  1  0
 85 84  1  0
 87 88  1  0
 88 91  1  0
 88 90  1  0
 89 87  2  0
 92 93  1  0
 92 67  1  0
 94 92  1  0
M  ISO  4  10 101  11 101  57 100  65 100
M  END
>  <TORSDO>  (6) 
F 23

>  <SCORE>  (6) 
-12.717

>  <name>  (6) 
5

>  <ligand_id>  (6) 
5

>  <original_smiles>  (6) 
[H]OC([H])([H])C1([H])C([H])([H])N(C([H])([H])C([H])([H])N([H])C(=O)N2C([H])([H])C([H])([H])C([H])([H])C([H])(n3nc(-c4c([H])c([H])c(Oc5c([H])c([H])c(F)c([H])c5F)c([H])c4[H])c(C(=O)N([H])[H])c3N([H])[H])C2([H])[H])C([H])([H])C1([H])[N+]([H])([H])C([H])([H])C([H])([H])Oc1c([H])c([H])c2c(c1[H])C([H])([H])N(C(=O)C([H])(N([H])C(=O)C([H])(N([H])C([H])([H])[H])C([H])([H])[H])C(C([H])([H])[H])(C([H])([H])[H])C([H])([H])[H])C([H])(C(=O)N([H])C1([H])c3c([H])c([H])c([H])c([H])c3C([H])([H])C([H])([H])C1([H])[H])C2([H])[H]

>  <smiles>  (6) 
[H]OC([H])([H])C1([H])C([H])([H])N(C([H])([H])C([H])([H])N([H])C(=O)N2C([H])([H])C([H])([H])C([H])([H])C([H])(n3nc(-c4c([H])c([H])c(Oc5c([H])c([H])c(F)c([H])c5F)c([H])c4[H])c(C(=O)N([H])[H])c3N([H])[H])C2([H])[H])C([H])([H])C1([H])[N+]([H])([H])C([H])([H])C([H])([H])Oc1c([H])c([H])c2c(c1[H])C([H])([H])N(C(=O)C([H])(N([H])C(=O)C([H])(N([H])C([H])([H])[H])C([H])([H])[H])C(C([H])([H])[H])(C([H])([H])[H])C([H])([H])[H])C([H])(C(=O)N([H])C1([H])c3c([H])c([H])c([H])c([H])c3C([H])([H])C([H])([H])C1([H])[H])C2([H])[H]

$$$$
6:0:0
     RDKit          3D

 95104  0  0  1  0  0  0  0  0999 V2000
  -29.6040  -23.6500   22.0460 C   0  0  0  0  0  3  0  0  0  0  0  0
  -29.3640  -22.6220   19.5270 C   0  0  0  0  0  3  0  0  0  0  0  0
  -30.0130  -22.3160   21.8320 C   0  0  0  0  0  0  0  0  0  0  0  0
  -29.8780  -21.7660   20.5330 C   0  0  0  0  0  0  0  0  0  0  0  0
  -29.0880  -24.4190   20.9840 C   0  0  0  0  0  0  0  0  0  0  0  0
  -30.5700  -21.5140   22.9940 C   0  0  0  0  0  1  0  0  0  0  0  0
  -28.9730  -23.9030   19.7370 N   0  0  0  0  0  0  0  0  0  0  0  0
  -30.2940  -20.3150   20.1760 C   0  0  0  0  0  2  0  0  0  0  0  0
  -27.6240  -18.4460   19.2750 C   0  0  0  0  0  2  0  0  0  0  0  0
  -28.4590  -17.2340   19.6530 C   0  0  0  0  0  2  0  0  0  0  0  0
  -27.9660  -19.4230   20.3920 C   0  0  0  0  0  2  0  0  0  0  0  0
  -29.7530  -17.8250   20.2420 C   0  0  0  0  0  3  0  0  0  0  0  0
  -29.4080  -19.2200   20.6960 N   0  0  1  0  0  4  0  0  0  0  0  0
  -29.4890  -19.2330   21.7010 H   0  0  0  0  0  0  0  0  0  0  0  0
  -30.3780  -16.9190   21.3550 C   0  0  0  0  0  2  0  0  0  0  0  0
  -30.8290  -14.5250   20.5380 C   0  0  0  0  0  0  0  0  0  0  0  0
  -30.5700  -12.3600   19.3660 C   0  0  0  0  0  2  0  0  0  0  0  0
  -29.6420  -12.5460   18.1470 C   0  0  0  0  0  2  0  0  0  0  0  0
  -28.1600  -12.4120   18.5510 C   0  0  0  0  0  2  0  0  0  0  0  0
  -27.8010  -13.2620   19.7970 C   0  0  0  0  0  3  0  0  0  0  0  0
  -28.8320  -13.0300   20.9250 C   0  0  0  0  0  2  0  0  0  0  0  0
  -30.1720  -13.3410   20.3890 N   0  0  0  0  0  0  0  0  0  0  0  0
  -31.9330  -14.7570   20.0410 O   0  0  0  0  0  0  0  0  0  0  0  0
  -30.1190  -15.4750   21.1730 N   0  0  0  0  0  0  0  0  0  0  0  0
  -29.2410  -15.1430   21.5460 H   0  0  0  0  0  0  0  0  0  0  0  0
  -25.3890  -13.9020   20.4360 C   0  0  0  0  0  0  0  0  0  0  0  0
  -24.3080  -13.1460   20.8000 C   0  0  0  0  0  0  0  0  0  0  0  0
  -24.7600  -11.7910   20.8020 C   0  0  0  0  0  0  0  0  0  0  0  0
  -26.4340  -13.0100   20.2470 N   0  0  0  0  0  0  0  0  0  0  0  0
  -26.0560  -11.7360   20.5230 N   0  0  0  0  0  0  0  0  0  0  0  0
  -24.0200  -10.5390   20.9990 C   0  0  0  0  0  0  0  0  0  0  0  0
  -24.4340   -9.5790   21.9490 C   0  0  0  0  0  3  0  0  0  0  0  0
  -23.6960   -8.3900   22.1330 C   0  0  0  0  0  3  0  0  0  0  0  0
  -22.5300   -8.1530   21.3660 C   0  0  0  0  0  0  0  0  0  0  0  0
  -22.1370   -9.1010   20.4050 C   0  0  0  0  0  3  0  0  0  0  0  0
  -22.8760  -10.2810   20.2190 C   0  0  0  0  0  3  0  0  0  0  0  0
  -21.7660   -7.0150   21.4570 O   0  0  0  0  0  0  0  0  0  0  0  0
  -21.7030   -6.2820   22.6150 C   0  0  0  0  0  0  0  0  0  0  0  0
  -21.2780   -6.8510   23.8350 C   0  0  0  0  0  3  0  0  0  0  0  0
  -21.1610   -6.0460   24.9840 C   0  0  0  0  0  3  0  0  0  0  0  0
  -21.4580   -4.6720   24.9160 C   0  0  0  0  0  0  0  0  0  0  0  0
  -21.8760   -4.1020   23.7000 C   0  0  0  0  0  3  0  0  0  0  0  0
  -21.9950   -4.9050   22.5520 C   0  0  0  0  0  0  0  0  0  0  0  0
  -22.3780   -4.3470   21.3790 F   0  0  0  0  0  0  0  0  0  0  0  0
  -21.3380   -3.8950   26.0180 F   0  0  0  0  0  0  0  0  0  0  0  0
  -22.9090  -13.6400   21.0340 C   0  0  0  0  0  0  0  0  0  0  0  0
  -22.1580  -12.9670   21.8990 N   0  0  0  0  0  0  0  0  0  0  0  0
  -22.4890  -14.6570   20.4860 O   0  0  0  0  0  0  0  0  0  0  0  0
  -22.5090  -12.1450   22.3670 H   0  0  0  0  0  0  0  0  0  0  0  0
  -21.2190  -13.2800   22.0980 H   0  0  0  0  0  0  0  0  0  0  0  0
  -25.5580  -15.2670   20.2300 N   0  0  0  0  0  0  0  0  0  0  0  0
  -24.7760  -15.9100   20.2820 H   0  0  0  0  0  0  0  0  0  0  0  0
  -26.3900  -15.6840   19.8370 H   0  0  0  0  0  0  0  0  0  0  0  0
  -28.5800  -25.8490   21.2500 C   0  0  0  0  0  2  0  0  0  0  0  0
  -28.4000  -26.6800   20.0910 O   0  0  0  0  0  0  0  0  0  0  0  0
  -24.5890  -31.8710   23.2060 C   0  0  0  0  0  0  0  0  0  0  0  0
  -27.2570  -27.4450   20.1220 C   0  0  0  0  0  0  0  0  0  0  0  0
  -23.3910  -30.4660   21.5600 C   0  0  0  0  0  3  0  0  0  0  0  0
  -24.8550  -28.9350   20.1360 C   0  0  0  0  0  0  0  0  0  0  0  0
  -25.9140  -30.8360   21.3670 C   0  0  0  0  0  2  0  0  0  0  0  0
  -26.0090  -29.4640   20.7290 C   0  0  0  0  0  0  0  0  0  0  0  0
  -27.2150  -28.7240   20.7240 C   0  0  0  0  0  3  0  0  0  0  0  0
  -26.0900  -26.9300   19.5230 C   0  0  0  0  0  3  0  0  0  0  0  0
  -24.8880  -27.6660   19.5320 C   0  0  0  0  0  3  0  0  0  0  0  0
  -23.6050  -29.7880   20.1810 C   0  0  0  0  0  2  0  0  0  0  0  0
  -24.6490  -31.0730   22.1020 N   0  0  0  0  0  0  0  0  0  0  0  0
  -23.5070  -32.1380   23.7460 O   0  0  0  0  0  0  0  0  0  0  0  0
  -22.7420  -29.4420   22.5200 C   0  0  0  0  0  0  0  0  0  0  0  0
  -21.4150  -29.2680   22.4010 N   0  0  0  0  0  0  0  0  0  0  0  0
  -23.4300  -28.8070   23.3240 O   0  0  0  0  0  0  0  0  0  0  0  0
  -20.9230  -29.8320   21.7230 H   0  0  0  0  0  0  0  0  0  0  0  0
  -18.0370  -28.0970   22.9260 C   0  0  0  0  0  0  0  0  0  0  0  0
  -20.6000  -28.3280   23.1710 C   0  0  0  0  0  3  0  0  0  0  0  0
  -20.6820  -26.9040   22.5760 C   0  0  0  0  0  2  0  0  0  0  0  0
  -19.5660  -26.6040   21.5710 C   0  0  0  0  0  2  0  0  0  0  0  0
  -18.1930  -26.7540   22.2340 C   0  0  0  0  0  2  0  0  0  0  0  0
  -19.1680  -28.8440   23.3520 C   0  0  0  0  0  0  0  0  0  0  0  0
  -18.9680  -30.1030   23.9590 C   0  0  0  0  0  3  0  0  0  0  0  0
  -17.6720  -30.6150   24.1440 C   0  0  0  0  0  3  0  0  0  0  0  0
  -16.5550  -29.8660   23.7340 C   0  0  0  0  0  3  0  0  0  0  0  0
  -16.7390  -28.6090   23.1320 C   0  0  0  0  0  3  0  0  0  0  0  0
  -25.8730  -32.5050   23.8270 C   0  0  0  0  0  3  0  0  0  0  0  0
  -26.3990  -31.7280   25.0960 C   0  0  1  0  0  0  0  0  0  0  0  0
  -25.3110  -31.4780   26.1660 C   0  0  0  0  0  1  0  0  0  0  0  0
  -26.9880  -30.3560   24.6900 C   0  0  0  0  0  1  0  0  0  0  0  0
  -27.5490  -32.5240   25.7590 C   0  0  0  0  0  1  0  0  0  0  0  0
  -25.5590  -33.8990   24.1650 N   0  0  0  0  0  0  0  0  0  0  0  0
  -25.8920  -34.9570   23.4120 C   0  0  0  0  0  0  0  0  0  0  0  0
  -26.5660  -34.8610   22.3830 O   0  0  0  0  0  0  0  0  0  0  0  0
  -24.9610  -34.0480   24.9640 H   0  0  0  0  0  0  0  0  0  0  0  0
  -24.1600  -36.7450   23.0570 C   0  0  0  0  0  1  0  0  0  0  0  0
  -25.3970  -36.3400   23.8750 C   0  0  0  0  0  3  0  0  0  0  0  0
  -27.5240  -37.2240   24.7230 C   0  0  0  0  0  1  0  0  0  0  0  0
  -26.4280  -37.3980   23.7750 N   0  0  0  0  0  0  0  0  0  0  0  0
  -26.0180  -38.3150   23.9270 H   0  0  0  0  0  0  0  0  0  0  0  0
  2  7  2  0
  2  4  1  0
  3  1  1  0
  3  6  1  0
  4  3  2  0
  5 54  1  0
  5  1  2  0
  7  5  1  0
  8  4  1  0
  8 13  1  0
  9 10  1  0
  9 11  1  0
 10 12  1  0
 11 13  1  0
 12 13  1  0
 12 15  1  0
 13 14  1  1
 16 24  1  0
 17 22  1  0
 18 19  1  0
 18 17  1  0
 20 19  1  0
 20 29  1  0
 20 21  1  0
 22 16  1  0
 22 21  1  0
 23 16  2  0
 24 15  1  0
 24 25  1  0
 26 27  2  0
 27 28  1  0
 27 46  1  0
 28 31  1  0
 29 26  1  0
 29 30  1  0
 30 28  2  0
 31 32  1  0
 32 33  2  0
 34 37  1  0
 34 33  1  0
 35 34  2  0
 36 35  1  0
 36 31  2  0
 37 38  1  0
 38 39  1  0
 39 40  2  0
 41 40  1  0
 41 45  1  0
 42 41  2  0
 43 38  2  0
 43 42  1  0
 44 43  1  0
 46 47  1  0
 47 50  1  0
 47 49  1  0
 48 46  2  0
 51 52  1  0
 51 26  1  0
 53 51  1  0
 55 57  1  0
 55 54  1  0
 56 67  2  0
 57 62  1  0
 58 66  1  0
 58 68  1  0
 59 65  1  0
 59 61  1  0
 60 66  1  0
 61 60  1  0
 62 61  2  0
 63 64  1  0
 63 57  2  0
 64 59  2  0
 65 58  1  0
 66 56  1  0
 68 70  2  0
 69 68  1  0
 71 69  1  0
 72 81  2  0
 72 77  1  0
 73 69  1  0
 73 77  1  0
 74 73  1  0
 75 76  1  0
 75 74  1  0
 76 72  1  0
 77 78  2  0
 78 79  1  0
 80 79  2  0
 81 80  1  0
 82 56  1  0
 82 87  1  0
 82 83  1  0
 83 86  1  1
 83 84  1  0
 85 83  1  0
 87 90  1  0
 88 92  1  0
 88 87  1  0
 89 88  2  0
 92 91  1  0
 94 92  1  0
 94 95  1  0
 94 93  1  0
M  ISO  4  16 100  24 100  54 101  55 101
M  END
>  <TORSDO>  (7) 
F 20

>  <SCORE>  (7) 
-14.517

>  <name>  (7) 
6

>  <ligand_id>  (7) 
6

>  <original_smiles>  (7) 
[H]c1nc(C([H])([H])Oc2c([H])c([H])c3c(c2[H])C([H])([H])N(C(=O)C([H])(N([H])C(=O)C([H])(N([H])C([H])([H])[H])C([H])([H])[H])C(C([H])([H])[H])(C([H])([H])[H])C([H])([H])[H])C([H])(C(=O)N([H])C2([H])c4c([H])c([H])c([H])c([H])c4C([H])([H])C([H])([H])C2([H])[H])C3([H])[H])c([H])c(C([H])([H])[H])c1C([H])([H])[N+]1([H])C([H])([H])C([H])([H])C([H])([H])C1([H])C([H])([H])N([H])C(=O)N1C([H])([H])C([H])([H])C([H])([H])C([H])(n2nc(-c3c([H])c([H])c(Oc4c([H])c([H])c(F)c([H])c4F)c([H])c3[H])c(C(=O)N([H])[H])c2N([H])[H])C1([H])[H]

>  <smiles>  (7) 
[H]c1nc(C([H])([H])Oc2c([H])c([H])c3c(c2[H])C([H])([H])N(C(=O)C([H])(N([H])C(=O)C([H])(N([H])C([H])([H])[H])C([H])([H])[H])C(C([H])([H])[H])(C([H])([H])[H])C([H])([H])[H])C([H])(C(=O)N([H])C2([H])c4c([H])c([H])c([H])c([H])c4C([H])([H])C([H])([H])C2([H])[H])C3([H])[H])c([H])c(C([H])([H])[H])c1C([H])([H])[N+]1([H])C([H])([H])C([H])([H])C([H])([H])C1([H])C([H])([H])N([H])C(=O)N1C([H])([H])C([H])([H])C([H])([H])C([H])(n2nc(-c3c([H])c([H])c(Oc4c([H])c([H])c(F)c([H])c4F)c([H])c3[H])c(C(=O)N([H])[H])c2N([H])[H])C1([H])[H]

$$$$
7:0:0
     RDKit          3D

 94102  0  0  1  0  0  0  0  0999 V2000
  -28.4870  -23.2930   18.9560 C   0  0  0  0  0  3  0  0  0  0  0  0
  -28.7490  -22.0000   19.4560 C   0  0  0  0  0  0  0  0  0  0  0  0
  -29.6030  -21.8490   20.5800 C   0  0  0  0  0  0  0  0  0  0  0  0
  -29.0620  -24.4090   19.5810 C   0  0  0  0  0  0  0  0  0  0  0  0
  -30.1990  -23.0350   21.0960 C   0  0  0  0  0  0  0  0  0  0  0  0
  -28.1050  -20.8150   18.7690 C   0  0  0  0  0  1  0  0  0  0  0  0
  -31.1990  -23.0260   22.2400 C   0  0  0  0  0  1  0  0  0  0  0  0
  -29.9250  -24.2700   20.6110 N   0  0  0  0  0  0  0  0  0  0  0  0
  -29.7320  -20.4830   21.3020 C   0  0  0  0  0  2  0  0  0  0  0  0
  -30.2890  -19.3430   20.5160 N   0  0  0  0  0  4  0  0  0  0  0  0
  -31.2910  -19.4340   20.4770 H   0  0  0  0  0  0  0  0  0  0  0  0
  -29.9410  -19.3910   19.5740 H   0  0  0  0  0  0  0  0  0  0  0  0
  -29.9330  -17.9930   21.0450 C   0  0  0  0  0  2  0  0  0  0  0  0
  -30.4370  -16.8440   20.1420 C   0  0  0  0  0  2  0  0  0  0  0  0
  -30.6580  -14.3880   20.2210 C   0  0  0  0  0  0  0  0  0  0  0  0
  -30.2670  -12.2490   19.0930 C   0  0  0  0  0  2  0  0  0  0  0  0
  -29.3020  -12.4800   17.9160 C   0  0  0  0  0  2  0  0  0  0  0  0
  -27.8420  -12.3300   18.3840 C   0  0  0  0  0  2  0  0  0  0  0  0
  -27.5390  -13.1570   19.6630 C   0  0  0  0  0  3  0  0  0  0  0  0
  -28.6290  -12.9500   20.7450 C   0  0  0  0  0  2  0  0  0  0  0  0
  -29.9360  -13.2350   20.1340 N   0  0  0  0  0  0  0  0  0  0  0  0
  -31.8030  -14.4840   19.7820 O   0  0  0  0  0  0  0  0  0  0  0  0
  -29.9830  -15.5010   20.5570 N   0  0  0  0  0  0  0  0  0  0  0  0
  -29.0250  -15.3900   20.8460 H   0  0  0  0  0  0  0  0  0  0  0  0
  -25.1440  -13.7370   20.4100 C   0  0  0  0  0  0  0  0  0  0  0  0
  -24.0900  -12.9530   20.7990 C   0  0  0  0  0  0  0  0  0  0  0  0
  -24.5690  -11.6070   20.7710 C   0  0  0  0  0  0  0  0  0  0  0  0
  -26.1970  -12.8690   20.1700 N   0  0  0  0  0  0  0  0  0  0  0  0
  -25.8550  -11.5840   20.4500 N   0  0  0  0  0  0  0  0  0  0  0  0
  -23.8610  -10.3370   20.9800 C   0  0  0  0  0  0  0  0  0  0  0  0
  -24.3210   -9.3800   21.9130 C   0  0  0  0  0  3  0  0  0  0  0  0
  -23.6140   -8.1730   22.1100 C   0  0  0  0  0  3  0  0  0  0  0  0
  -22.4330   -7.9160   21.3750 C   0  0  0  0  0  0  0  0  0  0  0  0
  -21.9910   -8.8590   20.4320 C   0  0  0  0  0  3  0  0  0  0  0  0
  -22.6990  -10.0590   20.2340 C   0  0  0  0  0  3  0  0  0  0  0  0
  -21.6950   -6.7620   21.4830 O   0  0  0  0  0  0  0  0  0  0  0  0
  -21.6820   -6.0210   22.6370 C   0  0  0  0  0  0  0  0  0  0  0  0
  -21.2780   -6.5720   23.8720 C   0  0  0  0  0  3  0  0  0  0  0  0
  -21.2140   -5.7580   25.0190 C   0  0  0  0  0  3  0  0  0  0  0  0
  -21.5390   -4.3910   24.9330 C   0  0  0  0  0  0  0  0  0  0  0  0
  -21.9370   -3.8390   23.7030 C   0  0  0  0  0  3  0  0  0  0  0  0
  -22.0040   -4.6500   22.5570 C   0  0  0  0  0  0  0  0  0  0  0  0
  -22.3670   -4.1080   21.3700 F   0  0  0  0  0  0  0  0  0  0  0  0
  -21.4700   -3.6060   26.0330 F   0  0  0  0  0  0  0  0  0  0  0  0
  -22.6910  -13.4110   21.0850 C   0  0  0  0  0  0  0  0  0  0  0  0
  -21.9860  -12.7130   21.9690 N   0  0  0  0  0  0  0  0  0  0  0  0
  -22.2310  -14.4260   20.5630 O   0  0  0  0  0  0  0  0  0  0  0  0
  -22.3710  -11.8890   22.4130 H   0  0  0  0  0  0  0  0  0  0  0  0
  -21.0460  -13.0040   22.2050 H   0  0  0  0  0  0  0  0  0  0  0  0
  -25.2830  -15.1060   20.2140 N   0  0  0  0  0  0  0  0  0  0  0  0
  -24.4990  -15.7430   20.3150 H   0  0  0  0  0  0  0  0  0  0  0  0
  -26.1090  -15.5530   19.8370 H   0  0  0  0  0  0  0  0  0  0  0  0
  -28.7780  -25.8330   19.0890 C   0  0  0  0  0  2  0  0  0  0  0  0
  -28.4320  -26.7410   20.1440 O   0  0  0  0  0  0  0  0  0  0  0  0
  -24.5840  -31.8460   23.2270 C   0  0  0  0  0  0  0  0  0  0  0  0
  -27.2250  -27.4110   20.1280 C   0  0  0  0  0  0  0  0  0  0  0  0
  -23.3660  -30.4410   21.5910 C   0  0  0  0  0  3  0  0  0  0  0  0
  -24.8120  -28.8930   20.1630 C   0  0  0  0  0  0  0  0  0  0  0  0
  -25.8870  -30.7990   21.3780 C   0  0  0  0  0  2  0  0  0  0  0  0
  -25.9690  -29.4250   20.7450 C   0  0  0  0  0  0  0  0  0  0  0  0
  -27.1720  -28.6880   20.7300 C   0  0  0  0  0  3  0  0  0  0  0  0
  -26.0430  -26.8770   19.5600 C   0  0  0  0  0  3  0  0  0  0  0  0
  -24.8440  -27.6160   19.5750 C   0  0  0  0  0  3  0  0  0  0  0  0
  -23.5660  -29.7480   20.2160 C   0  0  0  0  0  2  0  0  0  0  0  0
  -24.6310  -31.0440   22.1250 N   0  0  0  0  0  0  0  0  0  0  0  0
  -23.5060  -32.1220   23.7700 O   0  0  0  0  0  0  0  0  0  0  0  0
  -22.7140  -29.4280   22.5590 C   0  0  0  0  0  0  0  0  0  0  0  0
  -21.3890  -29.2540   22.4320 N   0  0  0  0  0  0  0  0  0  0  0  0
  -23.3980  -28.8010   23.3720 O   0  0  0  0  0  0  0  0  0  0  0  0
  -20.9040  -29.8050   21.7390 H   0  0  0  0  0  0  0  0  0  0  0  0
  -18.0080  -28.0890   22.9360 C   0  0  0  0  0  0  0  0  0  0  0  0
  -20.5680  -28.3220   23.2030 C   0  0  0  0  0  3  0  0  0  0  0  0
  -20.6590  -26.8940   22.6190 C   0  0  0  0  0  2  0  0  0  0  0  0
  -19.5510  -26.5830   21.6080 C   0  0  0  0  0  2  0  0  0  0  0  0
  -18.1730  -26.7390   22.2570 C   0  0  0  0  0  2  0  0  0  0  0  0
  -19.1350  -28.8390   23.3640 C   0  0  0  0  0  0  0  0  0  0  0  0
  -18.9300  -30.1050   23.9550 C   0  0  0  0  0  3  0  0  0  0  0  0
  -17.6300  -30.6180   24.1250 C   0  0  0  0  0  3  0  0  0  0  0  0
  -16.5180  -29.8630   23.7150 C   0  0  0  0  0  3  0  0  0  0  0  0
  -16.7080  -28.6000   23.1260 C   0  0  0  0  0  3  0  0  0  0  0  0
  -25.8750  -32.4690   23.8440 C   0  0  0  0  0  3  0  0  0  0  0  0
  -25.5750  -33.8660   24.1790 N   0  0  0  0  0  0  0  0  0  0  0  0
  -25.9120  -34.9180   23.4210 C   0  0  0  0  0  0  0  0  0  0  0  0
  -26.5770  -34.8140   22.3870 O   0  0  0  0  0  0  0  0  0  0  0  0
  -24.9840  -34.0250   24.9820 H   0  0  0  0  0  0  0  0  0  0  0  0
  -24.1880  -36.7150   23.0710 C   0  0  0  0  0  1  0  0  0  0  0  0
  -25.4310  -36.3070   23.8800 C   0  0  0  0  0  3  0  0  0  0  0  0
  -27.5710  -37.1820   24.7050 C   0  0  0  0  0  1  0  0  0  0  0  0
  -26.4670  -37.3560   23.7640 N   0  0  0  0  0  0  0  0  0  0  0  0
  -26.0670  -38.2780   23.9130 H   0  0  0  0  0  0  0  0  0  0  0  0
  -26.3980  -31.6900   25.1130 C   0  0  1  0  0  0  0  0  0  0  0  0
  -25.3100  -31.4480   26.1840 C   0  0  0  0  0  1  0  0  0  0  0  0
  -26.9730  -30.3140   24.7040 C   0  0  0  0  0  1  0  0  0  0  0  0
  -27.5580  -32.4750   25.7690 C   0  0  0  0  0  1  0  0  0  0  0  0
  1  2  2  0
  1  4  1  0
  2  3  1  0
  3  5  2  0
  3  9  1  0
  4  8  2  0
  5  7  1  0
  6  2  1  0
  8  5  1  0
 10 13  1  0
 10  9  1  0
 11 10  1  0
 12 10  1  0
 14 23  1  0
 14 13  1  0
 15 23  1  0
 16 21  1  0
 17 18  1  0
 17 16  1  0
 19 18  1  0
 19 28  1  0
 19 20  1  0
 21 15  1  0
 21 20  1  0
 22 15  2  0
 23 24  1  0
 25 26  2  0
 26 45  1  0
 27 26  1  0
 27 30  1  0
 28 25  1  0
 28 29  1  0
 29 27  2  0
 30 31  1  0
 31 32  2  0
 33 36  1  0
 33 32  1  0
 34 33  2  0
 35 34  1  0
 35 30  2  0
 36 37  1  0
 37 38  1  0
 38 39  2  0
 40 39  1  0
 40 44  1  0
 41 40  2  0
 42 37  2  0
 42 41  1  0
 43 42  1  0
 45 46  1  0
 46 49  1  0
 46 48  1  0
 47 45  2  0
 50 51  1  0
 50 25  1  0
 52 50  1  0
 53  4  1  0
 53 54  1  0
 55 66  2  0
 56 54  1  0
 56 61  1  0
 57 65  1  0
 57 67  1  0
 58 64  1  0
 58 60  1  0
 59 65  1  0
 60 59  1  0
 61 60  2  0
 62 63  1  0
 62 56  2  0
 63 58  2  0
 64 57  1  0
 65 55  1  0
 67 69  2  0
 68 67  1  0
 70 68  1  0
 71 80  2  0
 71 76  1  0
 72 68  1  0
 72 76  1  0
 73 72  1  0
 74 75  1  0
 74 73  1  0
 75 71  1  0
 76 77  2  0
 77 78  1  0
 79 78  2  0
 80 79  1  0
 81 55  1  0
 81 82  1  0
 81 91  1  0
 82 85  1  0
 83 87  1  0
 83 82  1  0
 84 83  2  0
 87 86  1  0
 89 87  1  0
 89 90  1  0
 89 88  1  0
 91 94  1  1
 91 92  1  0
 93 91  1  0
M  ISO  4  15 100  23 100  53 101  54 101
M  END
>  <TORSDO>  (8) 
F 21

>  <SCORE>  (8) 
-12.724

>  <name>  (8) 
7

>  <ligand_id>  (8) 
7

>  <original_smiles>  (8) 
[H]c1c([H])c([H])c2c(c1[H])C([H])([H])C([H])([H])C([H])([H])C2([H])N([H])C(=O)C1([H])N(C(=O)C([H])(N([H])C(=O)C([H])(N([H])C([H])([H])[H])C([H])([H])[H])C(C([H])([H])[H])(C([H])([H])[H])C([H])([H])[H])C([H])([H])c2c([H])c(OC([H])([H])c3nc(C([H])([H])[H])c(C([H])([H])[N+]([H])([H])C([H])([H])C([H])([H])N([H])C(=O)N4C([H])([H])C([H])([H])C([H])([H])C([H])(n5nc(-c6c([H])c([H])c(Oc7c([H])c([H])c(F)c([H])c7F)c([H])c6[H])c(C(=O)N([H])[H])c5N([H])[H])C4([H])[H])c(C([H])([H])[H])c3[H])c([H])c([H])c2C1([H])[H]

>  <smiles>  (8) 
[H]c1c([H])c([H])c2c(c1[H])C([H])([H])C([H])([H])C([H])([H])C2([H])N([H])C(=O)C1([H])N(C(=O)C([H])(N([H])C(=O)C([H])(N([H])C([H])([H])[H])C([H])([H])[H])C(C([H])([H])[H])(C([H])([H])[H])C([H])([H])[H])C([H])([H])c2c([H])c(OC([H])([H])c3nc(C([H])([H])[H])c(C([H])([H])[N+]([H])([H])C([H])([H])C([H])([H])N([H])C(=O)N4C([H])([H])C([H])([H])C([H])([H])C([H])(n5nc(-c6c([H])c([H])c(Oc7c([H])c([H])c(F)c([H])c7F)c([H])c6[H])c(C(=O)N([H])[H])c5N([H])[H])C4([H])[H])c(C([H])([H])[H])c3[H])c([H])c([H])c2C1([H])[H]

$$$$
8:0:0
     RDKit          3D

 92101  0  0  1  0  0  0  0  0999 V2000
  -28.3670  -21.8990   20.0060 C   0  0  0  0  0  3  0  0  0  0  0  0
  -29.8710  -23.2130   20.9160 C   0  0  0  0  0  3  0  0  0  0  0  0
  -28.6680  -23.3240   20.2790 C   0  0  0  0  0  0  0  0  0  0  0  0
  -29.3290  -20.9840   20.4820 C   0  0  0  0  0  0  0  0  0  0  0  0
  -30.2700  -21.8710   21.0520 N   0  0  0  0  0  0  0  0  0  0  0  0
  -30.5860  -14.7900   19.9870 C   0  0  0  0  0  0  0  0  0  0  0  0
  -30.2240  -12.5120   18.9780 C   0  0  0  0  0  2  0  0  0  0  0  0
  -29.2280  -12.5160   17.8030 C   0  0  0  0  0  2  0  0  0  0  0  0
  -27.7990  -12.3020   18.3300 C   0  0  0  0  0  2  0  0  0  0  0  0
  -27.4750  -13.2080   19.5470 C   0  0  0  0  0  3  0  0  0  0  0  0
  -28.6060  -13.2350   20.6010 C   0  0  0  0  0  2  0  0  0  0  0  0
  -29.8310  -13.6250   19.8930 N   0  0  0  0  0  0  0  0  0  0  0  0
  -31.7790  -14.6640   19.6930 O   0  0  0  0  0  0  0  0  0  0  0  0
  -28.4250  -18.2800   20.3880 C   0  0  0  0  0  2  0  0  0  0  0  0
  -30.6150  -18.7430   19.5980 C   0  0  0  0  0  2  0  0  0  0  0  0
  -28.7990  -16.7080   20.6180 C   0  0  0  0  0  2  0  0  0  0  0  0
  -31.0820  -17.2610   19.9270 C   0  0  0  0  0  2  0  0  0  0  0  0
  -29.5600  -19.3670   20.5530 C   0  0  0  0  0  3  0  0  0  0  0  0
  -30.0860  -16.1330   20.0780 N   0  0  0  0  0  0  0  0  0  0  0  0
  -25.1500  -13.7560   20.4590 C   0  0  0  0  0  0  0  0  0  0  0  0
  -24.1120  -12.9680   20.8710 C   0  0  0  0  0  0  0  0  0  0  0  0
  -24.5750  -11.6200   20.7760 C   0  0  0  0  0  0  0  0  0  0  0  0
  -26.1780  -12.8890   20.1320 N   0  0  0  0  0  0  0  0  0  0  0  0
  -25.8460  -11.5970   20.3890 N   0  0  0  0  0  0  0  0  0  0  0  0
  -23.8630  -10.3510   20.9740 C   0  0  0  0  0  0  0  0  0  0  0  0
  -24.3250   -9.3770   21.8870 C   0  0  0  0  0  3  0  0  0  0  0  0
  -23.6090   -8.1740   22.0740 C   0  0  0  0  0  3  0  0  0  0  0  0
  -22.4160   -7.9370   21.3490 C   0  0  0  0  0  0  0  0  0  0  0  0
  -21.9730   -8.9010   20.4260 C   0  0  0  0  0  3  0  0  0  0  0  0
  -22.6900  -10.0940   20.2360 C   0  0  0  0  0  3  0  0  0  0  0  0
  -21.6690   -6.7890   21.4480 O   0  0  0  0  0  0  0  0  0  0  0  0
  -21.6300   -6.0520   22.6050 C   0  0  0  0  0  0  0  0  0  0  0  0
  -21.1860   -6.6080   23.8250 C   0  0  0  0  0  3  0  0  0  0  0  0
  -21.0950   -5.7980   24.9750 C   0  0  0  0  0  3  0  0  0  0  0  0
  -21.4380   -4.4340   24.9050 C   0  0  0  0  0  0  0  0  0  0  0  0
  -21.8730   -3.8780   23.6890 C   0  0  0  0  0  3  0  0  0  0  0  0
  -21.9670   -4.6860   22.5420 C   0  0  0  0  0  0  0  0  0  0  0  0
  -22.3680   -4.1400   21.3690 F   0  0  0  0  0  0  0  0  0  0  0  0
  -21.3430   -3.6530   26.0070 F   0  0  0  0  0  0  0  0  0  0  0  0
  -22.7340  -13.4360   21.2360 C   0  0  0  0  0  0  0  0  0  0  0  0
  -22.0590  -12.7180   22.1270 N   0  0  0  0  0  0  0  0  0  0  0  0
  -22.2670  -14.4720   20.7670 O   0  0  0  0  0  0  0  0  0  0  0  0
  -22.4510  -11.8800   22.5300 H   0  0  0  0  0  0  0  0  0  0  0  0
  -21.1380  -13.0130   22.4150 H   0  0  0  0  0  0  0  0  0  0  0  0
  -25.2940  -15.1320   20.3080 N   0  0  0  0  0  0  0  0  0  0  0  0
  -24.5280  -15.7730   20.4830 H   0  0  0  0  0  0  0  0  0  0  0  0
  -26.1130  -15.5860   19.9280 H   0  0  0  0  0  0  0  0  0  0  0  0
  -31.4210  -21.8470   23.2430 C   0  0  0  0  0  1  0  0  0  0  0  0
  -32.7270  -22.2020   21.0940 C   0  0  0  0  0  1  0  0  0  0  0  0
  -31.5140  -21.5150   21.7440 C   0  0  0  0  0  3  0  0  0  0  0  0
  -27.8110  -24.6690   19.9510 C   0  0  0  0  0  2  0  0  0  0  0  0
  -28.1710  -26.1230   20.3010 O   0  0  0  0  0  0  0  0  0  0  0  0
  -24.6220  -31.8180   23.2620 C   0  0  0  0  0  0  0  0  0  0  0  0
  -27.1430  -27.1200   20.2120 C   0  0  0  0  0  0  0  0  0  0  0  0
  -23.4100  -30.4480   21.6120 C   0  0  0  0  0  3  0  0  0  0  0  0
  -24.8410  -28.8760   20.1810 C   0  0  0  0  0  0  0  0  0  0  0  0
  -25.9670  -30.6880   21.4600 C   0  0  0  0  0  2  0  0  0  0  0  0
  -26.0220  -29.3040   20.8000 C   0  0  0  0  0  0  0  0  0  0  0  0
  -27.1760  -28.4400   20.8050 C   0  0  0  0  0  3  0  0  0  0  0  0
  -25.9410  -26.7980   19.5390 C   0  0  0  0  0  3  0  0  0  0  0  0
  -24.8110  -27.6350   19.5340 C   0  0  0  0  0  3  0  0  0  0  0  0
  -23.6250  -29.7830   20.2280 C   0  0  0  0  0  2  0  0  0  0  0  0
  -24.6850  -31.0040   22.1660 N   0  0  0  0  0  0  0  0  0  0  0  0
  -23.5380  -32.1140   23.7870 O   0  0  0  0  0  0  0  0  0  0  0  0
  -22.7160  -29.4400   22.5630 C   0  0  0  0  0  0  0  0  0  0  0  0
  -21.3870  -29.2890   22.4320 N   0  0  0  0  0  0  0  0  0  0  0  0
  -23.3780  -28.7980   23.3840 O   0  0  0  0  0  0  0  0  0  0  0  0
  -20.9110  -29.8580   21.7470 H   0  0  0  0  0  0  0  0  0  0  0  0
  -17.9840  -28.1580   22.9310 C   0  0  0  0  0  0  0  0  0  0  0  0
  -20.5480  -28.3640   23.2000 C   0  0  0  0  0  3  0  0  0  0  0  0
  -20.6190  -26.9340   22.6160 C   0  0  0  0  0  2  0  0  0  0  0  0
  -19.5100  -26.6420   21.5990 C   0  0  0  0  0  2  0  0  0  0  0  0
  -18.1320  -26.8110   22.2430 C   0  0  0  0  0  2  0  0  0  0  0  0
  -19.1180  -28.8940   23.3660 C   0  0  0  0  0  0  0  0  0  0  0  0
  -18.9240  -30.1560   23.9680 C   0  0  0  0  0  3  0  0  0  0  0  0
  -17.6280  -30.6800   24.1420 C   0  0  0  0  0  3  0  0  0  0  0  0
  -16.5080  -29.9390   23.7240 C   0  0  0  0  0  3  0  0  0  0  0  0
  -16.6880  -28.6800   23.1240 C   0  0  0  0  0  3  0  0  0  0  0  0
  -25.9070  -32.4330   23.8950 C   0  0  0  0  0  3  0  0  0  0  0  0
  -25.6150  -33.8360   24.2230 N   0  0  0  0  0  0  0  0  0  0  0  0
  -25.9440  -34.8850   23.4570 C   0  0  0  0  0  0  0  0  0  0  0  0
  -26.5930  -34.7720   22.4130 O   0  0  0  0  0  0  0  0  0  0  0  0
  -25.0370  -33.9980   25.0340 H   0  0  0  0  0  0  0  0  0  0  0  0
  -24.2140  -36.6870   23.1520 C   0  0  0  0  0  1  0  0  0  0  0  0
  -25.4800  -36.2810   23.9230 C   0  0  0  0  0  3  0  0  0  0  0  0
  -27.6450  -37.1630   24.6760 C   0  0  0  0  0  1  0  0  0  0  0  0
  -26.5140  -37.3270   23.7670 N   0  0  0  0  0  0  0  0  0  0  0  0
  -26.1160  -38.2500   23.9180 H   0  0  0  0  0  0  0  0  0  0  0  0
  -26.3970  -31.6570   25.1800 C   0  0  1  0  0  0  0  0  0  0  0  0
  -25.2870  -31.4430   26.2370 C   0  0  0  0  0  1  0  0  0  0  0  0
  -26.9590  -30.2660   24.8040 C   0  0  0  0  0  1  0  0  0  0  0  0
  -27.5540  -32.4330   25.8510 C   0  0  0  0  0  1  0  0  0  0  0  0
  1  3  1  0
  1  4  2  0
  2  5  1  0
  3  2  2  0
  4  5  1  0
  5 50  1  0
  6 19  1  0
  7 12  1  0
  8  9  1  0
  8  7  1  0
 10  9  1  0
 10 23  1  0
 10 11  1  0
 12  6  1  0
 12 11  1  0
 13  6  2  0
 14 18  1  0
 14 16  1  0
 15 17  1  0
 15 18  1  0
 17 19  1  0
 18  4  1  0
 19 16  1  0
 20 21  2  0
 21 40  1  0
 22 21  1  0
 22 25  1  0
 23 24  1  0
 23 20  1  0
 24 22  2  0
 25 26  1  0
 26 27  2  0
 28 31  1  0
 28 27  1  0
 29 28  2  0
 30 29  1  0
 30 25  2  0
 31 32  1  0
 32 33  1  0
 33 34  2  0
 35 34  1  0
 35 39  1  0
 36 35  2  0
 37 32  2  0
 37 36  1  0
 38 37  1  0
 40 41  1  0
 41 44  1  0
 41 43  1  0
 42 40  2  0
 45 20  1  0
 45 46  1  0
 47 45  1  0
 49 50  1  0
 50 48  1  0
 51  3  1  0
 51 52  1  0
 53 64  2  0
 54 52  1  0
 54 59  1  0
 55 63  1  0
 55 65  1  0
 56 62  1  0
 56 58  1  0
 57 63  1  0
 58 59  2  0
 58 57  1  0
 60 54  2  0
 61 60  1  0
 61 56  2  0
 62 55  1  0
 63 53  1  0
 65 67  2  0
 66 65  1  0
 68 66  1  0
 69 78  2  0
 69 74  1  0
 70 66  1  0
 70 74  1  0
 71 70  1  0
 72 73  1  0
 72 71  1  0
 73 69  1  0
 74 75  2  0
 75 76  1  0
 77 76  2  0
 78 77  1  0
 79 53  1  0
 79 80  1  0
 79 89  1  0
 80 83  1  0
 81 85  1  0
 81 80  1  0
 82 81  2  0
 85 84  1  0
 87 88  1  0
 87 85  1  0
 87 86  1  0
 89 92  1  1
 89 90  1  0
 91 89  1  0
M  ISO  4   6 100  19 100  51 101  52 101
M  END
>  <TORSDO>  (9) 
F 18

>  <SCORE>  (9) 
-14.282

>  <name>  (9) 
8

>  <ligand_id>  (9) 
8

>  <original_smiles>  (9) 
[H]c1c([H])c([H])c2c(c1[H])C([H])([H])C([H])([H])C([H])([H])C2([H])N([H])C(=O)C1([H])N(C(=O)C([H])(N([H])C(=O)C([H])(N([H])C([H])([H])[H])C([H])([H])[H])C(C([H])([H])[H])(C([H])([H])[H])C([H])([H])[H])C([H])([H])c2c([H])c(OC([H])([H])c3c([H])c(C4([H])C([H])([H])C([H])([H])N(C(=O)N5C([H])([H])C([H])([H])C([H])([H])C([H])(n6nc(-c7c([H])c([H])c(Oc8c([H])c([H])c(F)c([H])c8F)c([H])c7[H])c(C(=O)N([H])[H])c6N([H])[H])C5([H])[H])C([H])([H])C4([H])[H])n(C([H])(C([H])([H])[H])C([H])([H])[H])c3[H])c([H])c([H])c2C1([H])[H]

>  <smiles>  (9) 
[H]c1c([H])c([H])c2c(c1[H])C([H])([H])C([H])([H])C([H])([H])C2([H])N([H])C(=O)C1([H])N(C(=O)C([H])(N([H])C(=O)C([H])(N([H])C([H])([H])[H])C([H])([H])[H])C(C([H])([H])[H])(C([H])([H])[H])C([H])([H])[H])C([H])([H])c2c([H])c(OC([H])([H])c3c([H])c(C4([H])C([H])([H])C([H])([H])N(C(=O)N5C([H])([H])C([H])([H])C([H])([H])C([H])(n6nc(-c7c([H])c([H])c(Oc8c([H])c([H])c(F)c([H])c8F)c([H])c7[H])c(C(=O)N([H])[H])c6N([H])[H])C5([H])[H])C([H])([H])C4([H])[H])n(C([H])(C([H])([H])[H])C([H])([H])[H])c3[H])c([H])c([H])c2C1([H])[H]

$$$$
9:0:0
     RDKit          3D

 95103  0  0  1  0  0  0  0  0999 V2000
  -26.6620  -22.7490   21.6170 C   0  0  0  0  0  2  0  0  0  0  0  0
  -27.6180  -21.8370   20.8400 C   0  0  0  0  0  2  0  0  0  0  0  0
  -29.3330  -23.6510   20.7000 C   0  0  0  0  0  2  0  0  0  0  0  0
  -26.8430  -24.2600   21.3220 C   0  0  0  0  0  3  0  0  0  0  0  0
  -28.3440  -24.7150   21.3340 C   0  0  0  0  0  3  0  0  0  0  0  0
  -29.0730  -22.1820   21.2040 C   0  0  0  0  0  3  0  0  0  0  0  0
  -24.4460  -24.6300   22.2510 C   0  0  0  0  0  1  0  0  0  0  0  0
  -26.4010  -25.2540   23.7140 C   0  0  0  0  0  1  0  0  0  0  0  0
  -25.9120  -25.1100   22.2530 C   0  0  0  0  0  3  0  0  0  0  0  0
  -30.0270  -21.1140   20.7270 N   0  0  0  0  0  4  0  0  0  0  0  0
  -30.9600  -21.4990   20.7450 H   0  0  0  0  0  0  0  0  0  0  0  0
  -29.8250  -20.9030   19.7640 H   0  0  0  0  0  0  0  0  0  0  0  0
  -30.0790  -19.8420   21.5460 C   0  0  0  0  0  2  0  0  0  0  0  0
  -30.3820  -18.4960   20.7760 C   0  0  0  0  0  2  0  0  0  0  0  0
  -30.5910  -17.2420   21.7120 C   0  0  0  0  0  2  0  0  0  0  0  0
  -31.0070  -14.9670   20.4960 C   0  0  0  0  0  0  0  0  0  0  0  0
  -30.8040  -12.7850   19.3050 C   0  0  0  0  0  2  0  0  0  0  0  0
  -29.8770  -12.9310   18.0770 C   0  0  0  0  0  2  0  0  0  0  0  0
  -28.3920  -12.7750   18.4770 C   0  0  0  0  0  2  0  0  0  0  0  0
  -28.0180  -13.6230   19.7220 C   0  0  0  0  0  3  0  0  0  0  0  0
  -29.0470  -13.4120   20.8540 C   0  0  0  0  0  2  0  0  0  0  0  0
  -30.3770  -13.7630   20.3230 N   0  0  0  0  0  0  0  0  0  0  0  0
  -32.1140  -15.2140   20.0130 O   0  0  0  0  0  0  0  0  0  0  0  0
  -30.2810  -15.8870   21.1760 N   0  0  0  0  0  0  0  0  0  0  0  0
  -29.4200  -15.4940   21.5300 H   0  0  0  0  0  0  0  0  0  0  0  0
  -25.6030  -14.2390   20.3570 C   0  0  0  0  0  0  0  0  0  0  0  0
  -24.5240  -13.4740   20.7130 C   0  0  0  0  0  0  0  0  0  0  0  0
  -24.9870  -12.1220   20.7130 C   0  0  0  0  0  0  0  0  0  0  0  0
  -26.6530  -13.3540   20.1680 N   0  0  0  0  0  0  0  0  0  0  0  0
  -26.2830  -12.0770   20.4380 N   0  0  0  0  0  0  0  0  0  0  0  0
  -24.2550  -10.8650   20.9090 C   0  0  0  0  0  0  0  0  0  0  0  0
  -24.6420   -9.9300   21.8950 C   0  0  0  0  0  3  0  0  0  0  0  0
  -23.9120   -8.7340   22.0760 C   0  0  0  0  0  3  0  0  0  0  0  0
  -22.7810   -8.4660   21.2700 C   0  0  0  0  0  0  0  0  0  0  0  0
  -22.4140   -9.3870   20.2730 C   0  0  0  0  0  3  0  0  0  0  0  0
  -23.1440  -10.5730   20.0910 C   0  0  0  0  0  3  0  0  0  0  0  0
  -22.0310   -7.3170   21.3550 O   0  0  0  0  0  0  0  0  0  0  0  0
  -21.8890   -6.6350   22.5360 C   0  0  0  0  0  0  0  0  0  0  0  0
  -21.3460   -7.2470   23.6880 C   0  0  0  0  0  3  0  0  0  0  0  0
  -21.1520   -6.4930   24.8600 C   0  0  0  0  0  3  0  0  0  0  0  0
  -21.4900   -5.1270   24.8830 C   0  0  0  0  0  0  0  0  0  0  0  0
  -22.0220   -4.5140   23.7370 C   0  0  0  0  0  3  0  0  0  0  0  0
  -22.2180   -5.2660   22.5660 C   0  0  0  0  0  0  0  0  0  0  0  0
  -22.7120   -4.6670   21.4560 F   0  0  0  0  0  0  0  0  0  0  0  0
  -21.2970   -4.3990   26.0080 F   0  0  0  0  0  0  0  0  0  0  0  0
  -23.1220  -13.9560   20.9440 C   0  0  0  0  0  0  0  0  0  0  0  0
  -22.3790  -13.2770   21.8110 N   0  0  0  0  0  0  0  0  0  0  0  0
  -22.6960  -14.9690   20.3930 O   0  0  0  0  0  0  0  0  0  0  0  0
  -22.7410  -12.4610   22.2800 H   0  0  0  0  0  0  0  0  0  0  0  0
  -21.4340  -13.5780   22.0050 H   0  0  0  0  0  0  0  0  0  0  0  0
  -25.7740  -15.6050   20.1620 N   0  0  0  0  0  0  0  0  0  0  0  0
  -25.0040  -16.2610   20.2170 H   0  0  0  0  0  0  0  0  0  0  0  0
  -26.6370  -16.0350   19.8510 H   0  0  0  0  0  0  0  0  0  0  0  0
  -28.5860  -26.2480   20.9630 C   0  0  0  0  0  2  0  0  0  0  0  0
  -28.1300  -26.8260   19.7030 O   0  0  0  0  0  0  0  0  0  0  0  0
  -24.5200  -31.9990   23.1190 C   0  0  0  0  0  0  0  0  0  0  0  0
  -27.0310  -27.6680   19.7590 C   0  0  0  0  0  0  0  0  0  0  0  0
  -23.2590  -30.6750   21.4580 C   0  0  0  0  0  3  0  0  0  0  0  0
  -24.6600  -29.2230   19.8970 C   0  0  0  0  0  0  0  0  0  0  0  0
  -25.7800  -31.0460   21.1800 C   0  0  0  0  0  2  0  0  0  0  0  0
  -25.8420  -29.7030   20.4770 C   0  0  0  0  0  0  0  0  0  0  0  0
  -27.0320  -28.9310   20.4090 C   0  0  0  0  0  3  0  0  0  0  0  0
  -25.8400  -27.2350   19.1370 C   0  0  0  0  0  3  0  0  0  0  0  0
  -24.6590  -27.9930   19.2170 C   0  0  0  0  0  3  0  0  0  0  0  0
  -23.4160  -30.0740   20.0380 C   0  0  0  0  0  2  0  0  0  0  0  0
  -24.5400  -31.2550   21.9760 N   0  0  0  0  0  0  0  0  0  0  0  0
  -23.4570  -32.2360   23.7140 O   0  0  0  0  0  0  0  0  0  0  0  0
  -22.6520  -29.6000   22.3900 C   0  0  0  0  0  0  0  0  0  0  0  0
  -21.3300  -29.3790   22.2730 N   0  0  0  0  0  0  0  0  0  0  0  0
  -23.3610  -28.9740   23.1820 O   0  0  0  0  0  0  0  0  0  0  0  0
  -20.8220  -29.9350   21.5990 H   0  0  0  0  0  0  0  0  0  0  0  0
  -18.0130  -28.0150   22.7230 C   0  0  0  0  0  0  0  0  0  0  0  0
  -20.5530  -28.3930   23.0220 C   0  0  0  0  0  3  0  0  0  0  0  0
  -20.7310  -26.9790   22.4220 C   0  0  0  0  0  2  0  0  0  0  0  0
  -19.6550  -26.6230   21.3920 C   0  0  0  0  0  2  0  0  0  0  0  0
  -18.2590  -26.6910   22.0210 C   0  0  0  0  0  2  0  0  0  0  0  0
  -19.0890  -28.8220   23.1760 C   0  0  0  0  0  0  0  0  0  0  0  0
  -18.8070  -30.0580   23.7970 C   0  0  0  0  0  3  0  0  0  0  0  0
  -17.4790  -30.4940   23.9610 C   0  0  0  0  0  3  0  0  0  0  0  0
  -16.4150  -29.6870   23.5250 C   0  0  0  0  0  3  0  0  0  0  0  0
  -16.6830  -28.4490   22.9140 C   0  0  0  0  0  3  0  0  0  0  0  0
  -25.8240  -32.6080   23.7190 C   0  0  0  0  0  3  0  0  0  0  0  0
  -25.5180  -33.9840   24.1340 N   0  0  0  0  0  0  0  0  0  0  0  0
  -25.8560  -35.0810   23.4400 C   0  0  0  0  0  0  0  0  0  0  0  0
  -26.5210  -35.0370   22.4020 O   0  0  0  0  0  0  0  0  0  0  0  0
  -24.9230  -34.0930   24.9400 H   0  0  0  0  0  0  0  0  0  0  0  0
  -24.1390  -36.9010   23.1940 C   0  0  0  0  0  1  0  0  0  0  0  0
  -25.3730  -36.4380   23.9840 C   0  0  0  0  0  3  0  0  0  0  0  0
  -27.5090  -37.2420   24.8810 C   0  0  0  0  0  1  0  0  0  0  0  0
  -26.4100  -37.4920   23.9520 N   0  0  0  0  0  0  0  0  0  0  0  0
  -26.0070  -38.4000   24.1780 H   0  0  0  0  0  0  0  0  0  0  0  0
  -26.3990  -31.7750   24.9290 C   0  0  1  0  0  0  0  0  0  0  0  0
  -25.3470  -31.4770   26.0270 C   0  0  0  0  0  1  0  0  0  0  0  0
  -26.9710  -30.4280   24.4320 C   0  0  0  0  0  1  0  0  0  0  0  0
  -27.5820  -32.5400   25.5710 C   0  0  0  0  0  1  0  0  0  0  0  0
  2  6  1  0
  2  1  1  0
  3  6  1  0
  3  5  1  0
  4  5  1  0
  4  1  1  0
  4  9  1  0
  5 54  1  0
  6 10  1  0
  7  9  1  0
  9  8  1  0
 10 11  1  0
 10 13  1  0
 12 10  1  0
 14 13  1  0
 14 15  1  0
 16 24  1  0
 17 22  1  0
 18 19  1  0
 18 17  1  0
 20 19  1  0
 20 29  1  0
 20 21  1  0
 22 16  1  0
 22 21  1  0
 23 16  2  0
 24 25  1  0
 24 15  1  0
 26 27  2  0
 27 28  1  0
 27 46  1  0
 28 31  1  0
 29 26  1  0
 29 30  1  0
 30 28  2  0
 31 32  1  0
 32 33  2  0
 34 37  1  0
 34 33  1  0
 35 34  2  0
 36 35  1  0
 36 31  2  0
 37 38  1  0
 38 43  2  0
 38 39  1  0
 39 40  2  0
 40 41  1  0
 41 45  1  0
 42 41  2  0
 43 42  1  0
 44 43  1  0
 46 47  1  0
 47 50  1  0
 47 49  1  0
 48 46  2  0
 51 52  1  0
 51 26  1  0
 53 51  1  0
 55 57  1  0
 55 54  1  0
 56 67  2  0
 57 62  1  0
 58 66  1  0
 58 68  1  0
 59 65  1  0
 59 61  1  0
 60 66  1  0
 61 60  1  0
 62 61  2  0
 63 64  1  0
 63 57  2  0
 64 59  2  0
 65 58  1  0
 66 56  1  0
 68 70  2  0
 69 68  1  0
 71 69  1  0
 72 81  2  0
 72 77  1  0
 73 69  1  0
 73 77  1  0
 74 73  1  0
 75 76  1  0
 75 74  1  0
 76 72  1  0
 77 78  2  0
 78 79  1  0
 80 79  2  0
 81 80  1  0
 82 56  1  0
 82 83  1  0
 82 92  1  0
 83 86  1  0
 84 88  1  0
 84 83  1  0
 85 84  2  0
 88 87  1  0
 90 88  1  0
 90 91  1  0
 90 89  1  0
 92 95  1  1
 92 93  1  0
 94 92  1  0
M  ISO  4  16 100  24 100  54 101  55 101
M  END
>  <TORSDO>  (10) 
F 22

>  <SCORE>  (10) 
-12.013

>  <name>  (10) 
9

>  <ligand_id>  (10) 
9

>  <original_smiles>  (10) 
[H]c1c([H])c([H])c2c(c1[H])C([H])([H])C([H])([H])C([H])([H])C2([H])N([H])C(=O)C1([H])N(C(=O)C([H])(N([H])C(=O)C([H])(N([H])C([H])([H])[H])C([H])([H])[H])C(C([H])([H])[H])(C([H])([H])[H])C([H])([H])[H])C([H])([H])c2c([H])c(OC([H])([H])C3([H])C([H])([H])C([H])([N+]([H])([H])C([H])([H])C([H])([H])C([H])([H])N([H])C(=O)N4C([H])([H])C([H])([H])C([H])([H])C([H])(n5nc(-c6c([H])c([H])c(Oc7c([H])c([H])c(F)c([H])c7F)c([H])c6[H])c(C(=O)N([H])[H])c5N([H])[H])C4([H])[H])C([H])([H])C([H])([H])C3([H])C([H])(C([H])([H])[H])C([H])([H])[H])c([H])c([H])c2C1([H])[H]

>  <smiles>  (10) 
[H]c1c([H])c([H])c2c(c1[H])C([H])([H])C([H])([H])C([H])([H])C2([H])N([H])C(=O)C1([H])N(C(=O)C([H])(N([H])C(=O)C([H])(N([H])C([H])([H])[H])C([H])([H])[H])C(C([H])([H])[H])(C([H])([H])[H])C([H])([H])[H])C([H])([H])c2c([H])c(OC([H])([H])C3([H])C([H])([H])C([H])([N+]([H])([H])C([H])([H])C([H])([H])C([H])([H])N([H])C(=O)N4C([H])([H])C([H])([H])C([H])([H])C([H])(n5nc(-c6c([H])c([H])c(Oc7c([H])c([H])c(F)c([H])c7F)c([H])c6[H])c(C(=O)N([H])[H])c5N([H])[H])C4([H])[H])C([H])([H])C([H])([H])C3([H])C([H])(C([H])([H])[H])C([H])([H])[H])c([H])c([H])c2C1([H])[H]

$$$$
10:0:0
     RDKit          3D

 93102  0  0  1  0  0  0  0  0999 V2000
  -30.4170  -21.6490   19.9400 C   0  0  0  0  0  3  0  0  0  0  0  0
  -28.1990  -21.0050   20.2900 C   0  0  0  0  0  3  0  0  0  0  0  0
  -30.9230  -20.1120   20.5540 C   0  0  0  0  0  3  0  0  0  0  0  0
  -28.7770  -19.4420   19.8780 C   0  0  0  0  0  3  0  0  0  0  0  0
  -29.0150  -22.4690   20.3230 C   0  0  0  0  0  0  0  0  0  0  0  0
  -30.0490  -18.6710   20.5960 C   0  0  0  0  0  0  0  0  0  0  0  0
  -30.8610  -15.7280   21.1280 C   0  0  0  0  0  0  0  0  0  0  0  0
  -30.9580  -13.1900   20.5210 C   0  0  0  0  0  2  0  0  0  0  0  0
  -30.2770  -12.7280   19.2160 C   0  0  0  0  0  2  0  0  0  0  0  0
  -28.7820  -12.4540   19.4410 C   0  0  0  0  0  2  0  0  0  0  0  0
  -28.1060  -13.5340   20.3140 C   0  0  0  0  0  3  0  0  0  0  0  0
  -28.9570  -13.9180   21.5470 C   0  0  0  0  0  2  0  0  0  0  0  0
  -30.2410  -14.4320   21.0010 N   0  0  0  0  0  0  0  0  0  0  0  0
  -32.0260  -15.5780   21.5250 O   0  0  0  0  0  0  0  0  0  0  0  0
  -30.5440  -17.0090   20.3310 N   0  0  0  0  0  0  0  0  0  0  0  0
  -30.5230  -16.4740   17.7410 C   0  0  0  0  0  2  0  0  0  0  0  0
  -32.3370  -17.9680   18.6080 C   0  0  0  0  0  2  0  0  0  0  0  0
  -31.4850  -15.9790   16.6100 C   0  0  0  0  0  2  0  0  0  0  0  0
  -33.2840  -17.4690   17.4730 C   0  0  0  0  0  2  0  0  0  0  0  0
  -31.3230  -16.8690   19.0170 C   0  0  0  0  0  3  0  0  0  0  0  0
  -32.5380  -16.9730   16.2850 N   0  0  0  0  0  4  0  0  0  0  0  0
  -32.1160  -17.7510   15.8080 H   0  0  0  0  0  0  0  0  0  0  0  0
  -33.1940  -16.5610   15.6350 H   0  0  0  0  0  0  0  0  0  0  0  0
  -25.6310  -14.0980   20.6120 C   0  0  0  0  0  0  0  0  0  0  0  0
  -24.5150  -13.3280   20.7940 C   0  0  0  0  0  0  0  0  0  0  0  0
  -24.9770  -11.9810   20.9170 C   0  0  0  0  0  0  0  0  0  0  0  0
  -26.7050  -13.2240   20.6130 N   0  0  0  0  0  0  0  0  0  0  0  0
  -26.3100  -11.9460   20.8660 N   0  0  0  0  0  0  0  0  0  0  0  0
  -24.2200  -10.7240   21.0130 C   0  0  0  0  0  0  0  0  0  0  0  0
  -24.4930   -9.7660   22.0140 C   0  0  0  0  0  3  0  0  0  0  0  0
  -23.7380   -8.5790   22.1010 C   0  0  0  0  0  3  0  0  0  0  0  0
  -22.6860   -8.3380   21.1820 C   0  0  0  0  0  0  0  0  0  0  0  0
  -22.4280   -9.2840   20.1720 C   0  0  0  0  0  3  0  0  0  0  0  0
  -23.1860  -10.4630   20.0840 C   0  0  0  0  0  3  0  0  0  0  0  0
  -21.9150   -7.2020   21.1760 O   0  0  0  0  0  0  0  0  0  0  0  0
  -21.7050   -6.4680   22.3170 C   0  0  0  0  0  0  0  0  0  0  0  0
  -21.1480   -7.0380   23.4820 C   0  0  0  0  0  3  0  0  0  0  0  0
  -20.8830   -6.2280   24.6060 C   0  0  0  0  0  3  0  0  0  0  0  0
  -21.1740   -4.8490   24.5660 C   0  0  0  0  0  0  0  0  0  0  0  0
  -21.7270   -4.2830   23.4060 C   0  0  0  0  0  3  0  0  0  0  0  0
  -21.9880   -5.0860   22.2850 C   0  0  0  0  0  0  0  0  0  0  0  0
  -22.5000   -4.5310   21.1610 F   0  0  0  0  0  0  0  0  0  0  0  0
  -20.9110   -4.0690   25.6410 F   0  0  0  0  0  0  0  0  0  0  0  0
  -23.0920  -13.8090   20.7430 C   0  0  0  0  0  0  0  0  0  0  0  0
  -22.1930  -13.1830   21.4960 N   0  0  0  0  0  0  0  0  0  0  0  0
  -22.7740  -14.7830   20.0600 O   0  0  0  0  0  0  0  0  0  0  0  0
  -22.4370  -12.4100   22.0980 H   0  0  0  0  0  0  0  0  0  0  0  0
  -21.2350  -13.5010   21.4820 H   0  0  0  0  0  0  0  0  0  0  0  0
  -25.8190  -15.4600   20.4110 N   0  0  0  0  0  0  0  0  0  0  0  0
  -25.0280  -16.0940   20.3550 H   0  0  0  0  0  0  0  0  0  0  0  0
  -26.7050  -15.9170   20.2340 H   0  0  0  0  0  0  0  0  0  0  0  0
  -28.2910  -24.1170   19.7420 C   0  0  0  0  0  2  0  0  0  0  0  0
  -28.3870  -25.8110   19.9410 O   0  0  0  0  0  0  0  0  0  0  0  0
  -24.6390  -31.8260   22.9540 C   0  0  0  0  0  0  0  0  0  0  0  0
  -27.3410  -26.9240   19.9000 C   0  0  0  0  0  0  0  0  0  0  0  0
  -23.4780  -30.3680   21.3490 C   0  0  0  0  0  3  0  0  0  0  0  0
  -24.9640  -28.7780   19.9250 C   0  0  0  0  0  0  0  0  0  0  0  0
  -26.0420  -30.6330   21.1740 C   0  0  0  0  0  2  0  0  0  0  0  0
  -26.1540  -29.2100   20.5240 C   0  0  0  0  0  0  0  0  0  0  0  0
  -27.3240  -28.3000   20.4930 C   0  0  0  0  0  3  0  0  0  0  0  0
  -26.1060  -26.6760   19.2550 C   0  0  0  0  0  3  0  0  0  0  0  0
  -24.9700  -27.5310   19.2790 C   0  0  0  0  0  3  0  0  0  0  0  0
  -23.7180  -29.6710   19.9800 C   0  0  0  0  0  2  0  0  0  0  0  0
  -24.7420  -30.9760   21.8780 N   0  0  0  0  0  0  0  0  0  0  0  0
  -23.5400  -32.0860   23.4820 O   0  0  0  0  0  0  0  0  0  0  0  0
  -22.8230  -29.3690   22.3380 C   0  0  0  0  0  0  0  0  0  0  0  0
  -21.4950  -29.1610   22.2380 N   0  0  0  0  0  0  0  0  0  0  0  0
  -23.5160  -28.7740   23.1670 O   0  0  0  0  0  0  0  0  0  0  0  0
  -20.9830  -29.6950   21.5490 H   0  0  0  0  0  0  0  0  0  0  0  0
  -18.1680  -27.8070   22.7870 C   0  0  0  0  0  0  0  0  0  0  0  0
  -20.7150  -28.2010   23.0300 C   0  0  0  0  0  3  0  0  0  0  0  0
  -20.8770  -26.7630   22.4840 C   0  0  0  0  0  2  0  0  0  0  0  0
  -19.7880  -26.3700   21.4790 C   0  0  0  0  0  2  0  0  0  0  0  0
  -18.4040  -26.4580   22.1300 C   0  0  0  0  0  2  0  0  0  0  0  0
  -19.2520  -28.6310   23.1950 C   0  0  0  0  0  0  0  0  0  0  0  0
  -18.9710  -29.8880   23.7740 C   0  0  0  0  0  3  0  0  0  0  0  0
  -17.6450  -30.3260   23.9470 C   0  0  0  0  0  3  0  0  0  0  0  0
  -16.5760  -29.5010   23.5530 C   0  0  0  0  0  3  0  0  0  0  0  0
  -16.8400  -28.2440   22.9800 C   0  0  0  0  0  3  0  0  0  0  0  0
  -25.8840  -32.5310   23.5700 C   0  0  0  0  0  3  0  0  0  0  0  0
  -25.4880  -33.8950   23.9660 N   0  0  0  0  0  0  0  0  0  0  0  0
  -25.8040  -35.0130   23.3030 C   0  0  0  0  0  0  0  0  0  0  0  0
  -26.5170  -35.0070   22.2940 O   0  0  0  0  0  0  0  0  0  0  0  0
  -24.8490  -33.9650   24.7470 H   0  0  0  0  0  0  0  0  0  0  0  0
  -24.0260  -36.7740   22.9980 C   0  0  0  0  0  1  0  0  0  0  0  0
  -25.2460  -36.3510   23.8320 C   0  0  0  0  0  3  0  0  0  0  0  0
  -27.3130  -37.2520   24.8100 C   0  0  0  0  0  1  0  0  0  0  0  0
  -26.2420  -37.4460   23.8380 N   0  0  0  0  0  0  0  0  0  0  0  0
  -25.7930  -38.3390   24.0300 H   0  0  0  0  0  0  0  0  0  0  0  0
  -26.4740  -31.7590   24.8140 C   0  0  1  0  0  0  0  0  0  0  0  0
  -25.4300  -31.4410   25.9130 C   0  0  0  0  0  1  0  0  0  0  0  0
  -27.1160  -30.4230   24.3830 C   0  0  0  0  0  1  0  0  0  0  0  0
  -27.6040  -32.5950   25.4620 C   0  0  0  0  0  1  0  0  0  0  0  0
  1  5  2  0
  1  3  1  0
  2  5  1  0
  3  6  2  0
  4  2  2  0
  4  6  1  0
  7 14  2  0
  8 13  1  0
  9 10  1  0
  9  8  1  0
 11 10  1  0
 11 27  1  0
 11 12  1  0
 13  7  1  0
 13 12  1  0
 15  6  1  0
 15  7  1  0
 16 20  1  0
 17 20  1  0
 18 16  1  0
 19 17  1  0
 20 15  1  0
 21 18  1  0
 21 19  1  0
 22 21  1  0
 23 21  1  0
 24 27  1  0
 24 25  2  0
 25 26  1  0
 26 29  1  0
 27 28  1  0
 28 26  2  0
 29 30  1  0
 30 31  2  0
 32 31  1  0
 33 32  2  0
 34 33  1  0
 34 29  2  0
 35 32  1  0
 35 36  1  0
 36 37  1  0
 37 38  2  0
 39 38  1  0
 39 43  1  0
 40 39  2  0
 41 36  2  0
 41 40  1  0
 42 41  1  0
 44 25  1  0
 44 45  1  0
 45 47  1  0
 46 44  2  0
 48 45  1  0
 49 24  1  0
 50 49  1  0
 51 49  1  0
 52 53  1  0
 52  5  1  0
 54 65  2  0
 55 53  1  0
 55 60  1  0
 56 64  1  0
 56 66  1  0
 57 63  1  0
 57 59  1  0
 58 64  1  0
 59 58  1  0
 60 59  2  0
 61 62  1  0
 61 55  2  0
 62 57  2  0
 63 56  1  0
 64 54  1  0
 66 68  2  0
 67 66  1  0
 69 67  1  0
 70 79  2  0
 70 75  1  0
 71 67  1  0
 71 75  1  0
 72 71  1  0
 73 74  1  0
 73 72  1  0
 74 70  1  0
 75 76  2  0
 76 77  1  0
 78 77  2  0
 79 78  1  0
 80 54  1  0
 80 81  1  0
 80 90  1  0
 81 84  1  0
 82 86  1  0
 82 81  1  0
 83 82  2  0
 86 85  1  0
 86 88  1  0
 88 89  1  0
 88 87  1  0
 90 93  1  1
 90 91  1  0
 92 90  1  0
M  ISO  4   7 100  15 100  52 101  53 101
M  END
>  <TORSDO>  (11) 
F 18

>  <SCORE>  (11) 
-13.542

>  <name>  (11) 
10

>  <ligand_id>  (11) 
10

>  <original_smiles>  (11) 
[H]c1c([H])c([H])c2c(c1[H])C([H])([H])C([H])([H])C([H])([H])C2([H])N([H])C(=O)C1([H])N(C(=O)C([H])(N([H])C(=O)C([H])(N([H])C([H])([H])[H])C([H])([H])[H])C(C([H])([H])[H])(C([H])([H])[H])C([H])([H])[H])C([H])([H])c2c([H])c(OC([H])([H])C3([H])C([H])([H])C([H])([H])C([H])(N(C(=O)N4C([H])([H])C([H])([H])C([H])([H])C([H])(n5nc(-c6c([H])c([H])c(Oc7c([H])c([H])c(F)c([H])c7F)c([H])c6[H])c(C(=O)N([H])[H])c5N([H])[H])C4([H])[H])C4([H])C([H])([H])C([H])([H])[N+]([H])([H])C([H])([H])C4([H])[H])C([H])([H])C3([H])[H])c([H])c([H])c2C1([H])[H]

>  <smiles>  (11) 
[H]c1c([H])c([H])c2c(c1[H])C([H])([H])C([H])([H])C([H])([H])C2([H])N([H])C(=O)C1([H])N(C(=O)C([H])(N([H])C(=O)C([H])(N([H])C([H])([H])[H])C([H])([H])[H])C(C([H])([H])[H])(C([H])([H])[H])C([H])([H])[H])C([H])([H])c2c([H])c(OC([H])([H])C3([H])C([H])([H])C([H])([H])C([H])(N(C(=O)N4C([H])([H])C([H])([H])C([H])([H])C([H])(n5nc(-c6c([H])c([H])c(Oc7c([H])c([H])c(F)c([H])c7F)c([H])c6[H])c(C(=O)N([H])[H])c5N([H])[H])C4([H])[H])C4([H])C([H])([H])C([H])([H])[N+]([H])([H])C([H])([H])C4([H])[H])C([H])([H])C3([H])[H])c([H])c([H])c2C1([H])[H]

$$$$
11:0:0
     RDKit          3D

 93102  0  0  1  0  0  0  0  0999 V2000
  -27.7530  -22.8140   20.8560 C   0  0  0  0  0  3  0  0  0  0  0  0
  -28.2720  -21.4870   20.8900 C   0  0  0  0  0  3  0  0  0  0  0  0
  -28.6090  -23.9490   20.8610 C   0  0  0  0  0  0  0  0  0  0  0  0
  -29.9930  -23.6390   20.8690 C   0  0  0  0  0  0  0  0  0  0  0  0
  -29.6640  -21.2820   20.9300 C   0  0  0  0  0  0  0  0  0  0  0  0
  -31.0300  -24.7430   20.9050 C   0  0  0  0  0  1  0  0  0  0  0  0
  -30.4890  -22.3590   20.8970 N   0  0  0  0  0  0  0  0  0  0  0  0
  -30.3010  -20.0100   21.0280 N   0  0  0  0  0  0  0  0  0  0  0  0
  -31.3130  -20.0280   21.0830 H   0  0  0  0  0  0  0  0  0  0  0  0
  -28.0040  -25.3840   21.1090 C   0  0  0  0  0  2  0  0  0  0  0  0
  -28.2370  -26.5320   20.2100 O   0  0  0  0  0  0  0  0  0  0  0  0
  -24.5200  -31.9230   23.2380 C   0  0  0  0  0  0  0  0  0  0  0  0
  -27.1560  -27.4170   20.1570 C   0  0  0  0  0  0  0  0  0  0  0  0
  -23.3230  -30.5300   21.5860 C   0  0  0  0  0  3  0  0  0  0  0  0
  -24.7850  -29.0030   20.1470 C   0  0  0  0  0  0  0  0  0  0  0  0
  -25.8590  -30.8670   21.4080 C   0  0  0  0  0  2  0  0  0  0  0  0
  -25.9500  -29.4980   20.7520 C   0  0  0  0  0  0  0  0  0  0  0  0
  -27.1430  -28.7160   20.7480 C   0  0  0  0  0  3  0  0  0  0  0  0
  -25.9790  -26.9750   19.5210 C   0  0  0  0  0  3  0  0  0  0  0  0
  -24.8010  -27.7460   19.5210 C   0  0  0  0  0  3  0  0  0  0  0  0
  -23.5400  -29.8640   20.2020 C   0  0  0  0  0  2  0  0  0  0  0  0
  -24.5860  -31.1230   22.1340 N   0  0  0  0  0  0  0  0  0  0  0  0
  -23.4360  -32.1910   23.7750 O   0  0  0  0  0  0  0  0  0  0  0  0
  -22.6650  -29.5040   22.5380 C   0  0  0  0  0  0  0  0  0  0  0  0
  -21.3410  -29.3190   22.4060 N   0  0  0  0  0  0  0  0  0  0  0  0
  -23.3450  -28.8790   23.3560 O   0  0  0  0  0  0  0  0  0  0  0  0
  -20.8520  -29.8740   21.7170 H   0  0  0  0  0  0  0  0  0  0  0  0
  -17.9660  -28.1210   22.9040 C   0  0  0  0  0  0  0  0  0  0  0  0
  -20.5250  -28.3740   23.1690 C   0  0  0  0  0  3  0  0  0  0  0  0
  -20.6240  -26.9500   22.5770 C   0  0  0  0  0  2  0  0  0  0  0  0
  -19.5190  -26.6390   21.5630 C   0  0  0  0  0  2  0  0  0  0  0  0
  -18.1390  -26.7790   22.2130 C   0  0  0  0  0  2  0  0  0  0  0  0
  -19.0870  -28.8770   23.3400 C   0  0  0  0  0  0  0  0  0  0  0  0
  -18.8710  -30.1330   23.9470 C   0  0  0  0  0  3  0  0  0  0  0  0
  -17.5690  -30.6340   24.1230 C   0  0  0  0  0  3  0  0  0  0  0  0
  -16.4620  -29.8750   23.7040 C   0  0  0  0  0  3  0  0  0  0  0  0
  -16.6600  -28.6210   23.1010 C   0  0  0  0  0  3  0  0  0  0  0  0
  -25.8000  -32.5540   23.8650 C   0  0  0  0  0  3  0  0  0  0  0  0
  -25.4960  -33.9590   24.1750 N   0  0  0  0  0  0  0  0  0  0  0  0
  -25.8600  -35.0020   23.4160 C   0  0  0  0  0  0  0  0  0  0  0  0
  -26.5560  -34.8820   22.4040 O   0  0  0  0  0  0  0  0  0  0  0  0
  -24.8800  -34.1260   24.9560 H   0  0  0  0  0  0  0  0  0  0  0  0
  -24.1820  -36.8240   22.9780 C   0  0  0  0  0  1  0  0  0  0  0  0
  -25.3760  -36.3990   23.8480 C   0  0  0  0  0  3  0  0  0  0  0  0
  -27.4770  -37.2530   24.7880 C   0  0  0  0  0  1  0  0  0  0  0  0
  -26.4300  -37.4340   23.7850 N   0  0  0  0  0  0  0  0  0  0  0  0
  -26.0320  -38.3610   23.9040 H   0  0  0  0  0  0  0  0  0  0  0  0
  -26.2980  -31.7960   25.1570 C   0  0  1  0  0  0  0  0  0  0  0  0
  -25.1900  -31.5740   26.2130 C   0  0  0  0  0  1  0  0  0  0  0  0
  -26.8820  -30.4110   24.7890 C   0  0  0  0  0  1  0  0  0  0  0  0
  -27.4450  -32.5930   25.8220 C   0  0  0  0  0  1  0  0  0  0  0  0
  -29.6740  -18.6530   21.0820 C   0  0  0  0  0  2  0  0  0  0  0  0
  -30.7020  -14.8890   20.5270 C   0  0  0  0  0  0  0  0  0  0  0  0
  -30.4770  -12.6310   19.5230 C   0  0  0  0  0  2  0  0  0  0  0  0
  -29.5620  -12.6690   18.2820 C   0  0  0  0  0  2  0  0  0  0  0  0
  -28.0720  -12.5520   18.6810 C   0  0  0  0  0  2  0  0  0  0  0  0
  -27.6720  -13.4150   19.9090 C   0  0  0  0  0  3  0  0  0  0  0  0
  -28.7250  -13.3550   21.0360 C   0  0  0  0  0  2  0  0  0  0  0  0
  -30.0250  -13.6940   20.4420 N   0  0  0  0  0  0  0  0  0  0  0  0
  -31.9320  -14.8980   20.4530 O   0  0  0  0  0  0  0  0  0  0  0  0
  -29.9820  -17.3270   18.2810 C   0  0  0  0  0  2  0  0  0  0  0  0
  -31.1200  -17.8020   19.1640 C   0  0  0  0  0  2  0  0  0  0  0  0
  -29.2450  -16.2920   19.1380 C   0  0  0  0  0  2  0  0  0  0  0  0
  -30.6230  -17.4630   20.5760 C   0  0  0  0  0  3  0  0  0  0  0  0
  -29.9980  -16.0890   20.3940 N   0  0  0  0  0  0  0  0  0  0  0  0
  -25.2740  -14.0050   20.5850 C   0  0  0  0  0  0  0  0  0  0  0  0
  -24.2010  -13.2270   20.9150 C   0  0  0  0  0  0  0  0  0  0  0  0
  -24.6720  -11.8780   20.8950 C   0  0  0  0  0  0  0  0  0  0  0  0
  -26.3260  -13.1260   20.3780 N   0  0  0  0  0  0  0  0  0  0  0  0
  -25.9700  -11.8430   20.6310 N   0  0  0  0  0  0  0  0  0  0  0  0
  -23.9500  -10.6120   21.0560 C   0  0  0  0  0  0  0  0  0  0  0  0
  -24.3580   -9.6480   22.0050 C   0  0  0  0  0  3  0  0  0  0  0  0
  -23.6390   -8.4440   22.1540 C   0  0  0  0  0  3  0  0  0  0  0  0
  -22.4980   -8.1960   21.3540 C   0  0  0  0  0  0  0  0  0  0  0  0
  -22.1100   -9.1480   20.3950 C   0  0  0  0  0  3  0  0  0  0  0  0
  -22.8310  -10.3440   20.2430 C   0  0  0  0  0  3  0  0  0  0  0  0
  -21.7510   -7.0450   21.4140 O   0  0  0  0  0  0  0  0  0  0  0  0
  -21.6530   -6.3110   22.5690 C   0  0  0  0  0  0  0  0  0  0  0  0
  -21.1130   -6.8570   23.7540 C   0  0  0  0  0  3  0  0  0  0  0  0
  -20.9640   -6.0470   24.8980 C   0  0  0  0  0  3  0  0  0  0  0  0
  -21.3460   -4.6920   24.8560 C   0  0  0  0  0  0  0  0  0  0  0  0
  -21.8790   -4.1460   23.6750 C   0  0  0  0  0  3  0  0  0  0  0  0
  -22.0300   -4.9540   22.5350 C   0  0  0  0  0  0  0  0  0  0  0  0
  -22.5240   -4.4180   21.3930 F   0  0  0  0  0  0  0  0  0  0  0  0
  -21.1950   -3.9120   25.9510 F   0  0  0  0  0  0  0  0  0  0  0  0
  -22.7930  -13.6970   21.1420 C   0  0  0  0  0  0  0  0  0  0  0  0
  -22.0420  -13.0030   21.9890 N   0  0  0  0  0  0  0  0  0  0  0  0
  -22.3670  -14.7160   20.6010 O   0  0  0  0  0  0  0  0  0  0  0  0
  -22.3980  -12.1800   22.4530 H   0  0  0  0  0  0  0  0  0  0  0  0
  -21.0960  -13.3020   22.1770 H   0  0  0  0  0  0  0  0  0  0  0  0
  -25.4390  -15.3780   20.4180 N   0  0  0  0  0  0  0  0  0  0  0  0
  -24.6680  -16.0320   20.5070 H   0  0  0  0  0  0  0  0  0  0  0  0
  -26.3080  -15.8240   20.1570 H   0  0  0  0  0  0  0  0  0  0  0  0
  1  3  2  0
  1  2  1  0
  2  5  2  0
  3  4  1  0
  3 10  1  0
  4  7  2  0
  4  6  1  0
  5  8  1  0
  7  5  1  0
  8 52  1  0
  8  9  1  0
 11 10  1  0
 12 23  2  0
 13 11  1  0
 13 18  1  0
 14 22  1  0
 14 24  1  0
 15 21  1  0
 15 17  1  0
 16 22  1  0
 17 16  1  0
 18 17  2  0
 19 13  2  0
 20 19  1  0
 20 15  2  0
 21 14  1  0
 22 12  1  0
 24 26  2  0
 25 24  1  0
 27 25  1  0
 28 37  2  0
 28 33  1  0
 29 25  1  0
 29 33  1  0
 30 29  1  0
 31 32  1  0
 31 30  1  0
 32 28  1  0
 33 34  2  0
 34 35  1  0
 36 35  2  0
 37 36  1  0
 38 12  1  0
 38 39  1  0
 38 48  1  0
 39 42  1  0
 40 44  1  0
 40 39  1  0
 41 40  2  0
 44 43  1  0
 46 44  1  0
 46 47  1  0
 46 45  1  0
 48 51  1  1
 48 49  1  0
 50 48  1  0
 54 59  1  0
 55 56  1  0
 55 54  1  0
 57 56  1  0
 57 69  1  0
 57 58  1  0
 59 53  1  0
 59 58  1  0
 60 53  2  0
 61 63  1  0
 61 62  1  0
 62 64  1  0
 63 65  1  0
 64 52  1  0
 65 53  1  0
 65 64  1  0
 66 67  2  0
 67 86  1  0
 68 67  1  0
 68 71  1  0
 69 66  1  0
 69 70  1  0
 70 68  2  0
 71 72  1  0
 72 73  2  0
 74 77  1  0
 74 73  1  0
 75 74  2  0
 76 75  1  0
 76 71  2  0
 77 78  1  0
 78 79  1  0
 79 80  2  0
 81 80  1  0
 81 85  1  0
 82 81  2  0
 83 78  2  0
 83 82  1  0
 84 83  1  0
 86 87  1  0
 87 90  1  0
 87 89  1  0
 88 86  2  0
 91 92  1  0
 91 66  1  0
 93 91  1  0
M  ISO  4  10 101  11 101  53 100  65 100
M  END
>  <TORSDO>  (12) 
F 18

>  <SCORE>  (12) 
-14.673

>  <name>  (12) 
11

>  <ligand_id>  (12) 
11

>  <original_smiles>  (12) 
[H]c1c(N([H])C([H])([H])C2([H])N(C(=O)N3C([H])([H])C([H])([H])C([H])([H])C([H])(n4nc(-c5c([H])c([H])c(Oc6c([H])c([H])c(F)c([H])c6F)c([H])c5[H])c(C(=O)N([H])[H])c4N([H])[H])C3([H])[H])C([H])([H])C([H])([H])C2([H])[H])nc(C([H])([H])[H])c(C([H])([H])Oc2c([H])c([H])c3c(c2[H])C([H])([H])N(C(=O)C([H])(N([H])C(=O)C([H])(N([H])C([H])([H])[H])C([H])([H])[H])C(C([H])([H])[H])(C([H])([H])[H])C([H])([H])[H])C([H])(C(=O)N([H])C2([H])c4c([H])c([H])c([H])c([H])c4C([H])([H])C([H])([H])C2([H])[H])C3([H])[H])c1[H]

>  <smiles>  (12) 
[H]c1c(N([H])C([H])([H])C2([H])N(C(=O)N3C([H])([H])C([H])([H])C([H])([H])C([H])(n4nc(-c5c([H])c([H])c(Oc6c([H])c([H])c(F)c([H])c6F)c([H])c5[H])c(C(=O)N([H])[H])c4N([H])[H])C3([H])[H])C([H])([H])C([H])([H])C2([H])[H])nc(C([H])([H])[H])c(C([H])([H])Oc2c([H])c([H])c3c(c2[H])C([H])([H])N(C(=O)C([H])(N([H])C(=O)C([H])(N([H])C([H])([H])[H])C([H])([H])[H])C(C([H])([H])[H])(C([H])([H])[H])C([H])([H])[H])C([H])(C(=O)N([H])C2([H])c4c([H])c([H])c([H])c([H])c4C([H])([H])C([H])([H])C2([H])[H])C3([H])[H])c1[H]

$$$$
12:0:0
     RDKit          3D

 98107  0  0  1  0  0  0  0  0999 V2000
  -30.5910  -15.1030   20.3130 C   0  0  0  0  0  0  0  0  0  0  0  0
  -30.4970  -12.7190   19.4050 C   0  0  0  0  0  2  0  0  0  0  0  0
  -29.5800  -12.6490   18.1590 C   0  0  0  0  0  2  0  0  0  0  0  0
  -28.1090  -12.4510   18.5710 C   0  0  0  0  0  2  0  0  0  0  0  0
  -27.6890  -13.3970   19.7250 C   0  0  0  0  0  3  0  0  0  0  0  0
  -28.7260  -13.4170   20.8690 C   0  0  0  0  0  2  0  0  0  0  0  0
  -30.0070  -13.8290   20.2780 N   0  0  0  0  0  0  0  0  0  0  0  0
  -31.8010  -15.1500   20.0510 O   0  0  0  0  0  0  0  0  0  0  0  0
  -27.4330  -20.8980   20.4950 C   0  0  0  0  0  3  0  0  0  0  0  0
  -27.4010  -22.3390   20.4740 C   0  0  0  0  0  3  0  0  0  0  0  0
  -29.7580  -22.3700   20.2530 C   0  0  0  0  0  3  0  0  0  0  0  0
  -28.6490  -18.6500   20.4730 C   0  0  0  0  0  3  0  0  0  0  0  0
  -28.6210  -20.1140   20.4090 C   0  0  0  0  0  0  0  0  0  0  0  0
  -29.8010  -20.8750   20.2510 C   0  0  0  0  0  0  0  0  0  0  0  0
  -28.5450  -23.1970   20.3850 C   0  0  0  0  0  0  0  0  0  0  0  0
  -30.9460  -20.0030   20.1060 C   0  0  0  0  0  0  0  0  0  0  0  0
  -29.8380  -17.8210   20.3610 C   0  0  0  0  0  0  0  0  0  0  0  0
  -30.9520  -18.6020   20.1610 N   0  0  0  0  0  0  0  0  0  0  0  0
  -29.7640  -16.2700   20.4590 N   0  0  0  0  0  0  0  0  0  0  0  0
  -28.8250  -15.9660   20.6550 H   0  0  0  0  0  0  0  0  0  0  0  0
  -25.2980  -14.0140   20.3950 C   0  0  0  0  0  0  0  0  0  0  0  0
  -24.2220  -13.2590   20.7700 C   0  0  0  0  0  0  0  0  0  0  0  0
  -24.6770  -11.9040   20.7910 C   0  0  0  0  0  0  0  0  0  0  0  0
  -26.3400  -13.1220   20.2050 N   0  0  0  0  0  0  0  0  0  0  0  0
  -25.9750  -11.8500   20.5110 N   0  0  0  0  0  0  0  0  0  0  0  0
  -23.9380  -10.6540   21.0060 C   0  0  0  0  0  0  0  0  0  0  0  0
  -24.3450   -9.7080   21.9720 C   0  0  0  0  0  3  0  0  0  0  0  0
  -23.6030   -8.5240   22.1730 C   0  0  0  0  0  3  0  0  0  0  0  0
  -22.4400   -8.2770   21.4060 C   0  0  0  0  0  0  0  0  0  0  0  0
  -22.0520   -9.2110   20.4290 C   0  0  0  0  0  3  0  0  0  0  0  0
  -22.7940  -10.3870   20.2270 C   0  0  0  0  0  3  0  0  0  0  0  0
  -21.6710   -7.1440   21.5150 O   0  0  0  0  0  0  0  0  0  0  0  0
  -21.5980   -6.4340   22.6860 C   0  0  0  0  0  0  0  0  0  0  0  0
  -21.1420   -7.0220   23.8860 C   0  0  0  0  0  3  0  0  0  0  0  0
  -21.0170   -6.2370   25.0500 C   0  0  0  0  0  3  0  0  0  0  0  0
  -21.3350   -4.8660   25.0140 C   0  0  0  0  0  0  0  0  0  0  0  0
  -21.7840   -4.2780   23.8190 C   0  0  0  0  0  3  0  0  0  0  0  0
  -21.9100   -5.0600   22.6570 C   0  0  0  0  0  0  0  0  0  0  0  0
  -22.3220   -4.4830   21.5020 F   0  0  0  0  0  0  0  0  0  0  0  0
  -21.2070   -4.1110   26.1290 F   0  0  0  0  0  0  0  0  0  0  0  0
  -22.8230  -13.7530   20.9900 C   0  0  0  0  0  0  0  0  0  0  0  0
  -22.0860  -13.1190   21.8940 N   0  0  0  0  0  0  0  0  0  0  0  0
  -22.3930  -14.7400   20.3940 O   0  0  0  0  0  0  0  0  0  0  0  0
  -22.4500  -12.3250   22.3980 H   0  0  0  0  0  0  0  0  0  0  0  0
  -21.1450  -13.4320   22.0830 H   0  0  0  0  0  0  0  0  0  0  0  0
  -25.4730  -15.3780   20.1720 N   0  0  0  0  0  0  0  0  0  0  0  0
  -24.6930  -16.0220   20.2200 H   0  0  0  0  0  0  0  0  0  0  0  0
  -26.2950  -15.7890   19.7540 H   0  0  0  0  0  0  0  0  0  0  0  0
  -28.3260  -24.8230   20.7860 C   0  0  0  0  0  2  0  0  0  0  0  0
  -28.4660  -26.1850   20.0210 O   0  0  0  0  0  0  0  0  0  0  0  0
  -24.6610  -31.7780   23.1370 C   0  0  0  0  0  0  0  0  0  0  0  0
  -27.4050  -27.1720   20.0530 C   0  0  0  0  0  0  0  0  0  0  0  0
  -23.5220  -30.3750   21.4640 C   0  0  0  0  0  3  0  0  0  0  0  0
  -25.0320  -28.8660   20.0290 C   0  0  0  0  0  0  0  0  0  0  0  0
  -26.0700  -30.7160   21.3270 C   0  0  0  0  0  2  0  0  0  0  0  0
  -26.1960  -29.3340   20.6540 C   0  0  0  0  0  0  0  0  0  0  0  0
  -27.3890  -28.5060   20.6430 C   0  0  0  0  0  3  0  0  0  0  0  0
  -26.2110  -26.8110   19.3980 C   0  0  0  0  0  3  0  0  0  0  0  0
  -25.0520  -27.6190   19.3850 C   0  0  0  0  0  3  0  0  0  0  0  0
  -23.7780  -29.7270   20.0790 C   0  0  0  0  0  2  0  0  0  0  0  0
  -24.7700  -30.9780   22.0330 N   0  0  0  0  0  0  0  0  0  0  0  0
  -23.5620  -32.0170   23.6600 O   0  0  0  0  0  0  0  0  0  0  0  0
  -22.8660  -29.3300   22.4020 C   0  0  0  0  0  0  0  0  0  0  0  0
  -21.5370  -29.1490   22.2890 N   0  0  0  0  0  0  0  0  0  0  0  0
  -23.5550  -28.6840   23.1960 O   0  0  0  0  0  0  0  0  0  0  0  0
  -21.0350  -29.7230   21.6270 H   0  0  0  0  0  0  0  0  0  0  0  0
  -18.1710  -27.9210   22.8330 C   0  0  0  0  0  0  0  0  0  0  0  0
  -20.7370  -28.1780   23.0400 C   0  0  0  0  0  3  0  0  0  0  0  0
  -20.8230  -26.7720   22.4020 C   0  0  0  0  0  2  0  0  0  0  0  0
  -19.6940  -26.4920   21.4040 C   0  0  0  0  0  2  0  0  0  0  0  0
  -18.3310  -26.6040   22.0890 C   0  0  0  0  0  2  0  0  0  0  0  0
  -19.3010  -28.6680   23.2640 C   0  0  0  0  0  0  0  0  0  0  0  0
  -19.0930  -29.9010   23.9180 C   0  0  0  0  0  3  0  0  0  0  0  0
  -17.7920  -30.3870   24.1450 C   0  0  0  0  0  3  0  0  0  0  0  0
  -16.6790  -29.6380   23.7280 C   0  0  0  0  0  3  0  0  0  0  0  0
  -16.8700  -28.4060   23.0780 C   0  0  0  0  0  3  0  0  0  0  0  0
  -25.9120  -32.4440   23.7880 C   0  0  0  0  0  3  0  0  0  0  0  0
  -25.5570  -33.8310   24.1280 N   0  0  0  0  0  0  0  0  0  0  0  0
  -25.8740  -34.9050   23.3930 C   0  0  0  0  0  0  0  0  0  0  0  0
  -26.5630  -34.8330   22.3710 O   0  0  0  0  0  0  0  0  0  0  0  0
  -24.9500  -33.9590   24.9240 H   0  0  0  0  0  0  0  0  0  0  0  0
  -24.1170  -36.6700   23.0260 C   0  0  0  0  0  1  0  0  0  0  0  0
  -25.3450  -36.2750   23.8620 C   0  0  0  0  0  3  0  0  0  0  0  0
  -27.4340  -37.1950   24.7680 C   0  0  0  0  0  1  0  0  0  0  0  0
  -26.3570  -37.3530   23.7950 N   0  0  0  0  0  0  0  0  0  0  0  0
  -25.9250  -38.2600   23.9480 H   0  0  0  0  0  0  0  0  0  0  0  0
  -26.4250  -31.6800   25.0710 C   0  0  1  0  0  0  0  0  0  0  0  0
  -25.3210  -31.4110   26.1200 C   0  0  0  0  0  1  0  0  0  0  0  0
  -27.0500  -30.3180   24.6880 C   0  0  0  0  0  1  0  0  0  0  0  0
  -27.5430  -32.5010   25.7570 C   0  0  0  0  0  1  0  0  0  0  0  0
  -32.3000  -20.6080   19.7600 C   0  0  0  0  0  2  0  0  0  0  0  0
  -32.4850  -20.7240   18.2330 C   0  0  0  0  0  2  0  0  0  0  0  0
  -33.5870  -21.7090   17.8040 C   0  0  0  0  0  2  0  0  0  0  0  0
  -33.7480  -21.7790   16.2700 C   0  0  0  0  0  2  0  0  0  0  0  0
  -34.5940  -22.9060   15.8410 N   0  0  0  0  0  4  0  0  0  0  0  0
  -34.1790  -23.7810   16.1040 H   0  0  0  0  0  0  0  0  0  0  0  0
  -34.6850  -22.8990   14.8410 H   0  0  0  0  0  0  0  0  0  0  0  0
  -35.5140  -22.8470   16.2390 H   0  0  0  0  0  0  0  0  0  0  0  0
  1 19  1  0
  2  7  1  0
  3  4  1  0
  3  2  1  0
  5  4  1  0
  5 24  1  0
  5  6  1  0
  7  1  1  0
  7  6  1  0
  8  1  2  0
 10  9  1  0
 11 15  1  0
 13 12  1  0
 13  9  2  0
 14 11  2  0
 14 13  1  0
 15 10  2  0
 15 49  1  0
 16 18  2  0
 16 14  1  0
 17 19  1  0
 17 12  2  0
 18 17  1  0
 19 20  1  0
 21 22  2  0
 22 23  1  0
 22 41  1  0
 23 26  1  0
 24 21  1  0
 24 25  1  0
 25 23  2  0
 26 27  1  0
 27 28  2  0
 29 32  1  0
 29 28  1  0
 30 29  2  0
 31 30  1  0
 31 26  2  0
 32 33  1  0
 33 34  1  0
 34 35  2  0
 36 35  1  0
 36 40  1  0
 37 36  2  0
 38 33  2  0
 38 37  1  0
 39 38  1  0
 41 42  1  0
 42 45  1  0
 42 44  1  0
 43 41  2  0
 46 47  1  0
 46 21  1  0
 48 46  1  0
 50 52  1  0
 50 49  1  0
 51 62  2  0
 52 57  1  0
 53 61  1  0
 53 63  1  0
 54 60  1  0
 54 56  1  0
 55 61  1  0
 56 55  1  0
 57 56  2  0
 58 52  2  0
 59 58  1  0
 59 54  2  0
 60 53  1  0
 61 51  1  0
 63 65  2  0
 64 63  1  0
 66 64  1  0
 67 76  2  0
 67 72  1  0
 68 64  1  0
 68 72  1  0
 69 68  1  0
 70 71  1  0
 70 69  1  0
 71 67  1  0
 72 73  2  0
 73 74  1  0
 75 74  2  0
 76 75  1  0
 77 51  1  0
 77 78  1  0
 77 87  1  0
 78 81  1  0
 79 83  1  0
 79 78  1  0
 80 79  2  0
 83 82  1  0
 85 83  1  0
 85 86  1  0
 85 84  1  0
 87 90  1  1
 87 88  1  0
 89 87  1  0
 91 16  1  0
 92 91  1  0
 93 92  1  0
 94 93  1  0
 95 96  1  0
 95 98  1  0
 95 94  1  0
 97 95  1  0
M  ISO  4   1 100  19 100  49 101  50 101
M  END
>  <TORSDO>  (13) 
F 21

>  <SCORE>  (13) 
-13.241

>  <name>  (13) 
12

>  <ligand_id>  (13) 
12

>  <original_smiles>  (13) 
[H]c1c([H])c([H])c2c(c1[H])C([H])([H])C([H])([H])C([H])([H])C2([H])N([H])C(=O)C1([H])N(C(=O)C([H])(N([H])C(=O)C([H])(N([H])C([H])([H])[H])C([H])([H])[H])C(C([H])([H])[H])(C([H])([H])[H])C([H])([H])[H])C([H])([H])c2c([H])c(OC([H])([H])c3c([H])c([H])c4c([H])c(N([H])C(=O)N5C([H])([H])C([H])([H])C([H])([H])C([H])(n6nc(-c7c([H])c([H])c(Oc8c([H])c([H])c(F)c([H])c8F)c([H])c7[H])c(C(=O)N([H])[H])c6N([H])[H])C5([H])[H])nc(C([H])([H])C([H])([H])C([H])([H])C([H])([H])[N+]([H])([H])[H])c4c3[H])c([H])c([H])c2C1([H])[H]

>  <smiles>  (13) 
[H]c1c([H])c([H])c2c(c1[H])C([H])([H])C([H])([H])C([H])([H])C2([H])N([H])C(=O)C1([H])N(C(=O)C([H])(N([H])C(=O)C([H])(N([H])C([H])([H])[H])C([H])([H])[H])C(C([H])([H])[H])(C([H])([H])[H])C([H])([H])[H])C([H])([H])c2c([H])c(OC([H])([H])c3c([H])c([H])c4c([H])c(N([H])C(=O)N5C([H])([H])C([H])([H])C([H])([H])C([H])(n6nc(-c7c([H])c([H])c(Oc8c([H])c([H])c(F)c([H])c8F)c([H])c7[H])c(C(=O)N([H])[H])c6N([H])[H])C5([H])[H])nc(C([H])([H])C([H])([H])C([H])([H])C([H])([H])[N+]([H])([H])[H])c4c3[H])c([H])c([H])c2C1([H])[H]

$$$$
13:0:0
     RDKit          3D

 95102  0  0  1  0  0  0  0  0999 V2000
  -25.0220  -25.0900   19.0700 C   0  0  0  0  0  3  0  0  0  0  0  0
  -25.4860  -27.7430   21.5530 C   0  0  0  0  0  3  0  0  0  0  0  0
  -24.5530  -24.4340   20.5830 C   0  0  0  0  0  3  0  0  0  0  0  0
  -24.8560  -26.6380   22.5620 C   0  0  0  0  0  2  0  0  0  0  0  0
  -25.7410  -26.7000   18.9350 C   0  0  0  0  0  2  0  0  0  0  0  0
  -24.6720  -25.1040   22.1390 C   0  0  0  0  0  3  0  0  0  0  0  0
  -27.0480  -25.3440   18.3880 C   0  0  0  0  0  1  0  0  0  0  0  0
  -27.7580  -23.6360   19.1480 C   0  0  0  0  0  1  0  0  0  0  0  0
  -28.4600  -22.0810   18.6590 N   0  0  0  0  0  4  0  0  0  0  0  0
  -29.2880  -22.2920   18.1240 H   0  0  0  0  0  0  0  0  0  0  0  0
  -27.8000  -21.7800   17.9640 H   0  0  0  0  0  0  0  0  0  0  0  0
  -28.8270  -20.5420   19.4570 C   0  0  0  0  0  2  0  0  0  0  0  0
  -29.6200  -18.8280   18.9960 C   0  0  0  0  0  2  0  0  0  0  0  0
  -30.4780  -15.8140   19.6110 C   0  0  0  0  0  0  0  0  0  0  0  0
  -30.5780  -13.2750   18.9060 C   0  0  0  0  0  2  0  0  0  0  0  0
  -29.5990  -12.8690   17.7820 C   0  0  0  0  0  2  0  0  0  0  0  0
  -28.2440  -12.4940   18.3970 C   0  0  0  0  0  2  0  0  0  0  0  0
  -27.7860  -13.5330   19.4430 C   0  0  0  0  0  3  0  0  0  0  0  0
  -28.8900  -13.8580   20.4680 C   0  0  0  0  0  2  0  0  0  0  0  0
  -29.9950  -14.4470   19.6830 N   0  0  0  0  0  0  0  0  0  0  0  0
  -31.7100  -15.7800   19.4250 O   0  0  0  0  0  0  0  0  0  0  0  0
  -29.6480  -17.1270   19.5350 N   0  0  0  0  0  0  0  0  0  0  0  0
  -28.6920  -16.8320   19.6880 H   0  0  0  0  0  0  0  0  0  0  0  0
  -25.4940  -14.1070   20.3760 C   0  0  0  0  0  0  0  0  0  0  0  0
  -24.4430  -13.3370   20.7860 C   0  0  0  0  0  0  0  0  0  0  0  0
  -24.8860  -11.9800   20.6960 C   0  0  0  0  0  0  0  0  0  0  0  0
  -26.5040  -13.2200   20.0520 N   0  0  0  0  0  0  0  0  0  0  0  0
  -26.1550  -11.9320   20.3060 N   0  0  0  0  0  0  0  0  0  0  0  0
  -24.1520  -10.7240   20.8990 C   0  0  0  0  0  0  0  0  0  0  0  0
  -24.5850   -9.7550   21.8290 C   0  0  0  0  0  3  0  0  0  0  0  0
  -23.8550   -8.5620   22.0160 C   0  0  0  0  0  3  0  0  0  0  0  0
  -22.6740   -8.3280   21.2740 C   0  0  0  0  0  0  0  0  0  0  0  0
  -22.2500   -9.2920   20.3410 C   0  0  0  0  0  3  0  0  0  0  0  0
  -22.9830  -10.4770   20.1530 C   0  0  0  0  0  3  0  0  0  0  0  0
  -21.9150   -7.1870   21.3730 O   0  0  0  0  0  0  0  0  0  0  0  0
  -21.8310   -6.4820   22.5470 C   0  0  0  0  0  0  0  0  0  0  0  0
  -21.3500   -7.0680   23.7380 C   0  0  0  0  0  3  0  0  0  0  0  0
  -21.2130   -6.2850   24.9020 C   0  0  0  0  0  3  0  0  0  0  0  0
  -21.5490   -4.9180   24.8750 C   0  0  0  0  0  0  0  0  0  0  0  0
  -22.0250   -4.3320   23.6880 C   0  0  0  0  0  3  0  0  0  0  0  0
  -22.1610   -5.1120   22.5260 C   0  0  0  0  0  0  0  0  0  0  0  0
  -22.5990   -4.5370   21.3800 F   0  0  0  0  0  0  0  0  0  0  0  0
  -21.4110   -4.1650   25.9900 F   0  0  0  0  0  0  0  0  0  0  0  0
  -23.0670  -13.8270   21.1360 C   0  0  0  0  0  0  0  0  0  0  0  0
  -22.3660  -13.1280   22.0200 N   0  0  0  0  0  0  0  0  0  0  0  0
  -22.6210  -14.8670   20.6560 O   0  0  0  0  0  0  0  0  0  0  0  0
  -22.7330  -12.2890   22.4410 H   0  0  0  0  0  0  0  0  0  0  0  0
  -21.4420  -13.4450   22.2790 H   0  0  0  0  0  0  0  0  0  0  0  0
  -25.6680  -15.4780   20.2050 N   0  0  0  0  0  0  0  0  0  0  0  0
  -24.9140  -16.1410   20.3520 H   0  0  0  0  0  0  0  0  0  0  0  0
  -26.4830  -15.8870   19.7680 H   0  0  0  0  0  0  0  0  0  0  0  0
  -25.8210  -24.5950   22.8900 O   0  0  0  0  0  0  0  0  0  0  0  0
  -27.0290  -25.4720   23.4400 C   0  0  0  0  0  2  0  0  0  0  0  0
  -28.4900  -25.9040   22.6570 C   0  0  0  0  0  2  0  0  0  0  0  0
  -28.8950  -27.1550   21.8140 O   0  0  0  0  0  0  0  0  0  0  0  0
  -24.8950  -32.3960   24.0940 C   0  0  0  0  0  0  0  0  0  0  0  0
  -27.8900  -27.8100   21.2280 C   0  0  0  0  0  3  0  0  0  0  0  0
  -23.6270  -31.2920   22.3030 C   0  0  0  0  0  3  0  0  0  0  0  0
  -24.8160  -29.7140   20.5990 C   0  0  0  0  0  3  0  0  0  0  0  0
  -26.1740  -31.5850   21.8820 C   0  0  0  0  0  2  0  0  0  0  0  0
  -26.2900  -30.3340   20.8060 C   0  0  0  0  0  3  0  0  0  0  0  0
  -27.6920  -29.4470   20.9210 C   0  0  0  0  0  2  0  0  0  0  0  0
  -26.6030  -26.7530   21.3210 C   0  0  0  0  0  2  0  0  0  0  0  0
  -24.4620  -28.0950   20.8440 C   0  0  0  0  0  2  0  0  0  0  0  0
  -23.7220  -30.7500   20.8380 C   0  0  0  0  0  2  0  0  0  0  0  0
  -24.9560  -31.7470   22.8450 N   0  0  0  0  0  0  0  0  0  0  0  0
  -23.8090  -32.6400   24.6570 O   0  0  0  0  0  0  0  0  0  0  0  0
  -22.8580  -30.2750   23.1950 C   0  0  0  0  0  0  0  0  0  0  0  0
  -21.6030  -29.9540   22.8320 N   0  0  0  0  0  0  0  0  0  0  0  0
  -23.3910  -29.7830   24.1890 O   0  0  0  0  0  0  0  0  0  0  0  0
  -21.2170  -30.3980   22.0100 H   0  0  0  0  0  0  0  0  0  0  0  0
  -18.4080  -28.2800   22.6680 C   0  0  0  0  0  0  0  0  0  0  0  0
  -20.7720  -28.9370   23.4820 C   0  0  0  0  0  3  0  0  0  0  0  0
  -21.1970  -27.5170   23.0440 C   0  0  0  0  0  2  0  0  0  0  0  0
  -20.4330  -27.0110   21.8160 C   0  0  0  0  0  2  0  0  0  0  0  0
  -18.9280  -26.9680   22.0990 C   0  0  0  0  0  2  0  0  0  0  0  0
  -19.2760  -29.2090   23.3020 C   0  0  0  0  0  0  0  0  0  0  0  0
  -18.7410  -30.4240   23.7850 C   0  0  0  0  0  3  0  0  0  0  0  0
  -17.3730  -30.7180   23.6370 C   0  0  0  0  0  3  0  0  0  0  0  0
  -16.5170  -29.7910   23.0160 C   0  0  0  0  0  3  0  0  0  0  0  0
  -17.0350  -28.5730   22.5420 C   0  0  0  0  0  3  0  0  0  0  0  0
  -26.1390  -32.9100   24.9000 C   0  0  0  0  0  3  0  0  0  0  0  0
  -25.9030  -34.3190   25.2890 N   0  0  0  0  0  0  0  0  0  0  0  0
  -26.3770  -35.3970   24.6490 C   0  0  0  0  0  0  0  0  0  0  0  0
  -27.1120  -35.3020   23.6640 O   0  0  0  0  0  0  0  0  0  0  0  0
  -25.2660  -34.4620   26.0590 H   0  0  0  0  0  0  0  0  0  0  0  0
  -24.8360  -37.3710   24.3160 C   0  0  0  0  0  1  0  0  0  0  0  0
  -25.9810  -36.7990   25.1670 C   0  0  0  0  0  3  0  0  0  0  0  0
  -28.1300  -37.4630   26.1670 C   0  0  0  0  0  1  0  0  0  0  0  0
  -27.1010  -37.7680   25.1760 N   0  0  0  0  0  0  0  0  0  0  0  0
  -26.7620  -38.7100   25.3520 H   0  0  0  0  0  0  0  0  0  0  0  0
  -26.4400  -32.0810   26.2180 C   0  0  1  0  0  0  0  0  0  0  0  0
  -25.2270  -31.9080   27.1680 C   0  0  0  0  0  1  0  0  0  0  0  0
  -26.9550  -30.6770   25.8420 C   0  0  0  0  0  1  0  0  0  0  0  0
  -27.5560  -32.7730   27.0430 C   0  0  0  0  0  1  0  0  0  0  0  0
  1  3  2  0
  2 64  1  0
  2  4  1  0
  5  1  1  0
  6  3  1  0
  6  4  1  0
  6 52  1  0
  7  5  1  0
  9  8  1  0
  9 12  1  0
 10  9  1  0
 11  9  1  0
 13 12  1  0
 13 22  1  0
 14 20  1  0
 15 20  1  0
 16 17  1  0
 16 15  1  0
 18 17  1  0
 18 27  1  0
 18 19  1  0
 20 19  1  0
 21 14  2  0
 22 14  1  0
 22 23  1  0
 24 25  2  0
 25 44  1  0
 26 25  1  0
 26 29  1  0
 27 28  1  0
 27 24  1  0
 28 26  2  0
 29 30  1  0
 30 31  2  0
 32 35  1  0
 32 31  1  0
 33 32  2  0
 34 33  1  0
 34 29  2  0
 35 36  1  0
 36 37  1  0
 37 38  2  0
 39 38  1  0
 39 43  1  0
 40 39  2  0
 41 36  2  0
 41 40  1  0
 42 41  1  0
 44 45  1  0
 45 48  1  0
 45 47  1  0
 46 44  2  0
 49 50  1  0
 49 24  1  0
 51 49  1  0
 52 53  1  0
 54 53  1  0
 55 54  1  0
 56 67  2  0
 57 62  1  0
 57 63  1  0
 57 55  1  0
 58 66  1  0
 58 68  1  0
 59 61  1  0
 59 65  1  0
 59 64  1  0
 60 66  1  0
 61 62  1  0
 61 60  1  0
 63  2  1  0
 65 58  1  0
 66 56  1  0
 68 70  2  0
 69 68  1  0
 71 69  1  0
 72 77  1  0
 73 69  1  0
 74 73  1  0
 75 76  1  0
 75 74  1  0
 76 72  1  0
 77 73  1  0
 77 78  2  0
 79 78  1  0
 80 79  2  0
 81 72  2  0
 81 80  1  0
 82 56  1  0
 82 83  1  0
 82 92  1  0
 83 86  1  0
 84 88  1  0
 84 83  1  0
 85 84  2  0
 88 87  1  0
 88 90  1  0
 90 91  1  0
 90 89  1  0
 92 95  1  1
 92 93  1  0
 94 92  1  0
M  ISO  4  14 100  22 100  54 101  55 101
M  END
>  <TORSDO>  (14) 
F 24

>  <SCORE>  (14) 
-10.751

>  <name>  (14) 
13

>  <ligand_id>  (14) 
13

>  <original_smiles>  (14) 
[H]c1c([H])c([H])c2c(c1[H])C([H])([H])C([H])([H])C([H])([H])C2([H])N([H])C(=O)C1([H])N(C(=O)C([H])(N([H])C(=O)C([H])(N([H])C([H])([H])[H])C([H])([H])[H])C(C([H])([H])[H])(C([H])([H])[H])C([H])([H])[H])C([H])([H])c2c([H])c(OC([H])([H])C([H])([H])Oc3c([H])c([H])c(C([H])([H])C([H])([H])[N+]([H])([H])C([H])([H])C([H])([H])N([H])C(=O)N4C([H])([H])C([H])([H])C([H])([H])C([H])(n5nc(-c6c([H])c([H])c(Oc7c([H])c([H])c(F)c([H])c7F)c([H])c6[H])c(C(=O)N([H])[H])c5N([H])[H])C4([H])[H])c([H])c3[H])c([H])c([H])c2C1([H])[H]

>  <smiles>  (14) 
[H]c1c([H])c([H])c2c(c1[H])C([H])([H])C([H])([H])C([H])([H])C2([H])N([H])C(=O)C1([H])N(C(=O)C([H])(N([H])C(=O)C([H])(N([H])C([H])([H])[H])C([H])([H])[H])C(C([H])([H])[H])(C([H])([H])[H])C([H])([H])[H])C([H])([H])c2c([H])c(OC([H])([H])C([H])([H])Oc3c([H])c([H])c(C([H])([H])C([H])([H])[N+]([H])([H])C([H])([H])C([H])([H])N([H])C(=O)N4C([H])([H])C([H])([H])C([H])([H])C([H])(n5nc(-c6c([H])c([H])c(Oc7c([H])c([H])c(F)c([H])c7F)c([H])c6[H])c(C(=O)N([H])[H])c5N([H])[H])C4([H])[H])c([H])c3[H])c([H])c([H])c2C1([H])[H]

$$$$
14:0:0
     RDKit          3D

 92100  0  0  1  0  0  0  0  0999 V2000
  -28.7270  -24.8290   21.7540 C   0  0  0  0  0  2  0  0  0  0  0  0
  -28.9410  -24.4620   19.3120 C   0  0  0  0  0  2  0  0  0  0  0  0
  -28.5630  -23.3020   21.9280 C   0  0  0  0  0  2  0  0  0  0  0  0
  -28.7480  -22.9490   19.5540 C   0  0  0  0  0  2  0  0  0  0  0  0
  -28.1990  -25.2650   20.3830 C   0  0  0  0  0  3  0  0  0  0  0  0
  -29.2680  -22.5530   20.8740 N   0  0  0  0  0  0  0  0  0  0  0  0
  -28.3440  -26.6850   20.1670 O   0  0  0  0  0  0  0  0  0  0  0  0
  -24.5790  -31.8810   23.2240 C   0  0  0  0  0  0  0  0  0  0  0  0
  -27.1830  -27.4320   20.1330 C   0  0  0  0  0  0  0  0  0  0  0  0
  -23.3560  -30.4780   21.5960 C   0  0  0  0  0  3  0  0  0  0  0  0
  -24.7930  -28.9480   20.1530 C   0  0  0  0  0  0  0  0  0  0  0  0
  -25.8790  -30.8390   21.3700 C   0  0  0  0  0  2  0  0  0  0  0  0
  -25.9570  -29.4680   20.7330 C   0  0  0  0  0  0  0  0  0  0  0  0
  -27.1540  -28.7160   20.7230 C   0  0  0  0  0  3  0  0  0  0  0  0
  -26.0090  -26.9470   19.5090 C   0  0  0  0  0  3  0  0  0  0  0  0
  -24.8150  -27.6860   19.5370 C   0  0  0  0  0  3  0  0  0  0  0  0
  -23.5490  -29.8030   20.2130 C   0  0  0  0  0  2  0  0  0  0  0  0
  -24.6240  -31.0800   22.1230 N   0  0  0  0  0  0  0  0  0  0  0  0
  -23.5040  -32.1490   23.7780 O   0  0  0  0  0  0  0  0  0  0  0  0
  -22.7190  -29.4540   22.5630 C   0  0  0  0  0  0  0  0  0  0  0  0
  -21.3940  -29.2680   22.4490 N   0  0  0  0  0  0  0  0  0  0  0  0
  -23.4120  -28.8320   23.3710 O   0  0  0  0  0  0  0  0  0  0  0  0
  -20.8930  -29.8230   21.7680 H   0  0  0  0  0  0  0  0  0  0  0  0
  -18.0300  -28.0550   22.9660 C   0  0  0  0  0  0  0  0  0  0  0  0
  -20.5870  -28.3280   23.2270 C   0  0  0  0  0  3  0  0  0  0  0  0
  -20.6970  -26.8950   22.6590 C   0  0  0  0  0  2  0  0  0  0  0  0
  -19.5940  -26.5600   21.6510 C   0  0  0  0  0  2  0  0  0  0  0  0
  -18.2120  -26.7010   22.2980 C   0  0  0  0  0  2  0  0  0  0  0  0
  -19.1450  -28.8250   23.3880 C   0  0  0  0  0  0  0  0  0  0  0  0
  -18.9220  -30.0910   23.9710 C   0  0  0  0  0  3  0  0  0  0  0  0
  -17.6160  -30.5860   24.1370 C   0  0  0  0  0  3  0  0  0  0  0  0
  -16.5140  -29.8130   23.7340 C   0  0  0  0  0  3  0  0  0  0  0  0
  -16.7220  -28.5490   23.1520 C   0  0  0  0  0  3  0  0  0  0  0  0
  -25.8710  -32.5140   23.8290 C   0  0  0  0  0  3  0  0  0  0  0  0
  -25.5630  -33.9080   24.1720 N   0  0  0  0  0  0  0  0  0  0  0  0
  -25.8780  -34.9640   23.4130 C   0  0  0  0  0  0  0  0  0  0  0  0
  -26.5310  -34.8690   22.3690 O   0  0  0  0  0  0  0  0  0  0  0  0
  -24.9820  -34.0560   24.9850 H   0  0  0  0  0  0  0  0  0  0  0  0
  -24.1330  -36.7460   23.0960 C   0  0  0  0  0  1  0  0  0  0  0  0
  -25.3910  -36.3470   23.8840 C   0  0  0  0  0  3  0  0  0  0  0  0
  -27.5370  -37.2400   24.6740 C   0  0  0  0  0  1  0  0  0  0  0  0
  -26.4150  -37.4070   23.7550 N   0  0  0  0  0  0  0  0  0  0  0  0
  -26.0070  -38.3250   23.9170 H   0  0  0  0  0  0  0  0  0  0  0  0
  -26.4120  -31.7350   25.0900 C   0  0  1  0  0  0  0  0  0  0  0  0
  -25.3400  -31.4850   26.1750 C   0  0  0  0  0  1  0  0  0  0  0  0
  -26.9940  -30.3640   24.6730 C   0  0  0  0  0  1  0  0  0  0  0  0
  -27.5720  -32.5290   25.7380 C   0  0  0  0  0  1  0  0  0  0  0  0
  -29.0660  -21.1110   21.1070 C   0  0  0  0  0  2  0  0  0  0  0  0
  -29.9910  -20.2040   20.2520 C   0  0  0  0  0  2  0  0  0  0  0  0
  -30.5780  -19.0960   21.0430 N   0  0  0  0  0  4  0  0  0  0  0  0
  -30.4780  -19.3170   22.0200 H   0  0  0  0  0  0  0  0  0  0  0  0
  -31.5650  -19.0770   20.8400 H   0  0  0  0  0  0  0  0  0  0  0  0
  -30.0310  -17.7470   20.7680 C   0  0  0  0  0  2  0  0  0  0  0  0
  -30.7220  -16.6610   21.6270 C   0  0  0  0  0  2  0  0  0  0  0  0
  -30.7210  -14.4160   20.5360 C   0  0  0  0  0  0  0  0  0  0  0  0
  -30.3530  -12.3060   19.3160 C   0  0  0  0  0  2  0  0  0  0  0  0
  -29.4130  -12.5350   18.1150 C   0  0  0  0  0  2  0  0  0  0  0  0
  -27.9400  -12.4170   18.5470 C   0  0  0  0  0  2  0  0  0  0  0  0
  -27.6180  -13.2570   19.8120 C   0  0  0  0  0  3  0  0  0  0  0  0
  -28.6630  -13.0050   20.9210 C   0  0  0  0  0  2  0  0  0  0  0  0
  -30.0030  -13.2760   20.3640 N   0  0  0  0  0  0  0  0  0  0  0  0
  -31.7760  -14.6500   19.9400 O   0  0  0  0  0  0  0  0  0  0  0  0
  -30.1860  -15.3200   21.3660 N   0  0  0  0  0  0  0  0  0  0  0  0
  -29.3330  -15.0560   21.8340 H   0  0  0  0  0  0  0  0  0  0  0  0
  -25.2190  -13.8980   20.5000 C   0  0  0  0  0  0  0  0  0  0  0  0
  -24.1400  -13.1400   20.8720 C   0  0  0  0  0  0  0  0  0  0  0  0
  -24.5870  -11.7840   20.8540 C   0  0  0  0  0  0  0  0  0  0  0  0
  -26.2570  -13.0050   20.2840 N   0  0  0  0  0  0  0  0  0  0  0  0
  -25.8780  -11.7290   20.5540 N   0  0  0  0  0  0  0  0  0  0  0  0
  -23.8490  -10.5300   21.0530 C   0  0  0  0  0  0  0  0  0  0  0  0
  -24.2820   -9.5560   21.9800 C   0  0  0  0  0  3  0  0  0  0  0  0
  -23.5460   -8.3670   22.1650 C   0  0  0  0  0  3  0  0  0  0  0  0
  -22.3620   -8.1410   21.4240 C   0  0  0  0  0  0  0  0  0  0  0  0
  -21.9470   -9.1030   20.4870 C   0  0  0  0  0  3  0  0  0  0  0  0
  -22.6830  -10.2860   20.3000 C   0  0  0  0  0  3  0  0  0  0  0  0
  -21.5970   -7.0050   21.5200 O   0  0  0  0  0  0  0  0  0  0  0  0
  -21.5710   -6.2490   22.6640 C   0  0  0  0  0  0  0  0  0  0  0  0
  -21.2010   -6.7970   23.9110 C   0  0  0  0  0  3  0  0  0  0  0  0
  -21.1200   -5.9680   25.0480 C   0  0  0  0  0  3  0  0  0  0  0  0
  -21.3980   -4.5920   24.9390 C   0  0  0  0  0  0  0  0  0  0  0  0
  -21.7610   -4.0450   23.6960 C   0  0  0  0  0  3  0  0  0  0  0  0
  -21.8440   -4.8690   22.5620 C   0  0  0  0  0  0  0  0  0  0  0  0
  -22.1750   -4.3320   21.3630 F   0  0  0  0  0  0  0  0  0  0  0  0
  -21.3130   -3.7950   26.0290 F   0  0  0  0  0  0  0  0  0  0  0  0
  -22.7470  -13.6340   21.1360 C   0  0  0  0  0  0  0  0  0  0  0  0
  -22.0090  -12.9510   22.0060 N   0  0  0  0  0  0  0  0  0  0  0  0
  -22.3190  -14.6590   20.6060 O   0  0  0  0  0  0  0  0  0  0  0  0
  -22.3690  -12.1220   22.4550 H   0  0  0  0  0  0  0  0  0  0  0  0
  -21.0740  -13.2620   22.2260 H   0  0  0  0  0  0  0  0  0  0  0  0
  -25.4010  -15.2640   20.3120 N   0  0  0  0  0  0  0  0  0  0  0  0
  -24.6410  -15.9310   20.4070 H   0  0  0  0  0  0  0  0  0  0  0  0
  -26.2600  -15.6880   19.9870 H   0  0  0  0  0  0  0  0  0  0  0  0
  1  3  1  0
  2  4  1  0
  2  5  1  0
  4  6  1  0
  5  7  1  0
  5  1  1  0
  6 48  1  0
  6  3  1  0
  8 19  2  0
  9  7  1  0
  9 14  1  0
 10 18  1  0
 10 20  1  0
 11 17  1  0
 11 13  1  0
 12 18  1  0
 13 12  1  0
 14 13  2  0
 15 16  1  0
 15  9  2  0
 16 11  2  0
 17 10  1  0
 18  8  1  0
 20 22  2  0
 21 20  1  0
 23 21  1  0
 24 33  2  0
 24 29  1  0
 25 21  1  0
 25 29  1  0
 26 25  1  0
 27 28  1  0
 27 26  1  0
 28 24  1  0
 29 30  2  0
 30 31  1  0
 32 31  2  0
 33 32  1  0
 34  8  1  0
 34 35  1  0
 34 44  1  0
 35 38  1  0
 36 40  1  0
 36 35  1  0
 37 36  2  0
 40 39  1  0
 42 40  1  0
 42 43  1  0
 42 41  1  0
 44 47  1  1
 44 45  1  0
 46 44  1  0
 49 50  1  0
 49 48  1  0
 50 51  1  0
 52 50  1  0
 53 50  1  0
 53 54  1  0
 55 63  1  0
 56 61  1  0
 57 58  1  0
 57 56  1  0
 59 58  1  0
 59 68  1  0
 59 60  1  0
 61 55  1  0
 61 60  1  0
 62 55  2  0
 63 54  1  0
 63 64  1  0
 65 66  2  0
 66 85  1  0
 67 66  1  0
 67 70  1  0
 68 65  1  0
 68 69  1  0
 69 67  2  0
 70 71  1  0
 71 72  2  0
 73 76  1  0
 73 72  1  0
 74 73  2  0
 75 74  1  0
 75 70  2  0
 76 77  1  0
 77 78  1  0
 78 79  2  0
 80 79  1  0
 80 84  1  0
 81 80  2  0
 82 77  2  0
 82 81  1  0
 83 82  1  0
 85 86  1  0
 86 89  1  0
 86 88  1  0
 87 85  2  0
 90 91  1  0
 90 65  1  0
 92 90  1  0
M  ISO  4   5 101   7 101  55 100  63 100
M  END
>  <TORSDO>  (15) 
F 21

>  <SCORE>  (15) 
-13.534

>  <name>  (15) 
14

>  <ligand_id>  (15) 
14

>  <original_smiles>  (15) 
[H]c1c([H])c([H])c2c(c1[H])C([H])([H])C([H])([H])C([H])([H])C2([H])N([H])C(=O)C1([H])N(C(=O)C([H])(N([H])C(=O)C([H])(N([H])C([H])([H])[H])C([H])([H])[H])C(C([H])([H])[H])(C([H])([H])[H])C([H])([H])[H])C([H])([H])c2c([H])c(OC3([H])C([H])([H])C([H])([H])N(C([H])([H])C([H])([H])[N+]([H])([H])C([H])([H])C([H])([H])N([H])C(=O)N4C([H])([H])C([H])([H])C([H])([H])C([H])(n5nc(-c6c([H])c([H])c(Oc7c([H])c([H])c(F)c([H])c7F)c([H])c6[H])c(C(=O)N([H])[H])c5N([H])[H])C4([H])[H])C([H])([H])C3([H])[H])c([H])c([H])c2C1([H])[H]

>  <smiles>  (15) 
[H]c1c([H])c([H])c2c(c1[H])C([H])([H])C([H])([H])C([H])([H])C2([H])N([H])C(=O)C1([H])N(C(=O)C([H])(N([H])C(=O)C([H])(N([H])C([H])([H])[H])C([H])([H])[H])C(C([H])([H])[H])(C([H])([H])[H])C([H])([H])[H])C([H])([H])c2c([H])c(OC3([H])C([H])([H])C([H])([H])N(C([H])([H])C([H])([H])[N+]([H])([H])C([H])([H])C([H])([H])N([H])C(=O)N4C([H])([H])C([H])([H])C([H])([H])C([H])(n5nc(-c6c([H])c([H])c(Oc7c([H])c([H])c(F)c([H])c7F)c([H])c6[H])c(C(=O)N([H])[H])c5N([H])[H])C4([H])[H])C([H])([H])C3([H])[H])c([H])c([H])c2C1([H])[H]

$$$$
15:0:0
     RDKit          3D

 92100  0  0  1  0  0  0  0  0999 V2000
  -29.0970  -21.9510   19.1150 C   0  0  0  0  0  3  0  0  0  0  0  0
  -28.7740  -23.3480   19.1580 C   0  0  0  0  0  3  0  0  0  0  0  0
  -29.5710  -21.5310   20.3310 C   0  0  0  0  0  0  0  0  0  0  0  0
  -29.0320  -23.8670   20.4030 C   0  0  0  0  0  0  0  0  0  0  0  0
  -29.4850  -22.7150   21.1500 N   0  0  0  0  0  0  0  0  0  0  0  0
  -31.3850  -22.7720   22.7710 C   0  0  0  0  0  1  0  0  0  0  0  0
  -29.1170  -21.7590   23.4640 C   0  0  0  0  0  1  0  0  0  0  0  0
  -29.8560  -22.7750   22.5730 C   0  0  0  0  0  3  0  0  0  0  0  0
  -30.1650  -25.9060   21.5770 C   0  0  0  0  0  1  0  0  0  0  0  0
  -28.8690  -25.3670   20.9460 C   0  0  0  0  0  3  0  0  0  0  0  0
  -28.6030  -26.4390   19.9400 O   0  0  0  0  0  0  0  0  0  0  0  0
  -24.6550  -31.7190   23.1350 C   0  0  0  0  0  0  0  0  0  0  0  0
  -27.4690  -27.2780   20.0400 C   0  0  0  0  0  0  0  0  0  0  0  0
  -23.5230  -30.3040   21.4600 C   0  0  0  0  0  3  0  0  0  0  0  0
  -25.0460  -28.8240   20.0280 C   0  0  0  0  0  0  0  0  0  0  0  0
  -26.0530  -30.7130   21.3050 C   0  0  0  0  0  2  0  0  0  0  0  0
  -26.1940  -29.3420   20.6430 C   0  0  0  0  0  0  0  0  0  0  0  0
  -27.4140  -28.5860   20.6320 C   0  0  0  0  0  3  0  0  0  0  0  0
  -26.2960  -26.8190   19.4100 C   0  0  0  0  0  3  0  0  0  0  0  0
  -25.1020  -27.5700   19.4000 C   0  0  0  0  0  3  0  0  0  0  0  0
  -23.7780  -29.6570   20.0720 C   0  0  0  0  0  2  0  0  0  0  0  0
  -24.7620  -30.9320   22.0240 N   0  0  0  0  0  0  0  0  0  0  0  0
  -23.5570  -31.9430   23.6670 O   0  0  0  0  0  0  0  0  0  0  0  0
  -22.8860  -29.2490   22.3990 C   0  0  0  0  0  0  0  0  0  0  0  0
  -21.5680  -29.0300   22.2620 N   0  0  0  0  0  0  0  0  0  0  0  0
  -23.5820  -28.6300   23.2090 O   0  0  0  0  0  0  0  0  0  0  0  0
  -21.0650  -29.5830   21.5810 H   0  0  0  0  0  0  0  0  0  0  0  0
  -18.2320  -27.6920   22.7130 C   0  0  0  0  0  0  0  0  0  0  0  0
  -20.7760  -28.0520   23.0130 C   0  0  0  0  0  3  0  0  0  0  0  0
  -20.9410  -26.6340   22.4190 C   0  0  0  0  0  2  0  0  0  0  0  0
  -19.8620  -26.2800   21.3900 C   0  0  0  0  0  2  0  0  0  0  0  0
  -18.4690  -26.3610   22.0210 C   0  0  0  0  0  2  0  0  0  0  0  0
  -19.3140  -28.4920   23.1650 C   0  0  0  0  0  0  0  0  0  0  0  0
  -19.0390  -29.7360   23.7750 C   0  0  0  0  0  3  0  0  0  0  0  0
  -17.7130  -30.1800   23.9360 C   0  0  0  0  0  3  0  0  0  0  0  0
  -16.6450  -29.3790   23.4960 C   0  0  0  0  0  3  0  0  0  0  0  0
  -16.9050  -28.1360   22.8930 C   0  0  0  0  0  3  0  0  0  0  0  0
  -25.9050  -32.3920   23.7800 C   0  0  0  0  0  3  0  0  0  0  0  0
  -25.5350  -33.7690   24.1360 N   0  0  0  0  0  0  0  0  0  0  0  0
  -25.8260  -34.8510   23.3970 C   0  0  0  0  0  0  0  0  0  0  0  0
  -26.4970  -34.7950   22.3640 O   0  0  0  0  0  0  0  0  0  0  0  0
  -24.9330  -33.8820   24.9370 H   0  0  0  0  0  0  0  0  0  0  0  0
  -24.0160  -36.5730   23.0890 C   0  0  0  0  0  1  0  0  0  0  0  0
  -25.2830  -36.2110   23.8800 C   0  0  0  0  0  3  0  0  0  0  0  0
  -27.3900  -37.1710   24.6980 C   0  0  0  0  0  1  0  0  0  0  0  0
  -26.2670  -37.3110   23.7730 N   0  0  0  0  0  0  0  0  0  0  0  0
  -25.8250  -38.2100   23.9470 H   0  0  0  0  0  0  0  0  0  0  0  0
  -26.4400  -31.6170   25.0470 C   0  0  1  0  0  0  0  0  0  0  0  0
  -25.3470  -31.3220   26.1010 C   0  0  0  0  0  1  0  0  0  0  0  0
  -27.0730  -30.2680   24.6370 C   0  0  0  0  0  1  0  0  0  0  0  0
  -27.5610  -32.4390   25.7260 C   0  0  0  0  0  1  0  0  0  0  0  0
  -30.2470  -20.1340   20.6990 C   0  0  0  0  0  2  0  0  0  0  0  0
  -29.6150  -18.6710   20.3890 C   0  0  0  0  0  3  0  0  0  0  0  0
  -30.5680  -17.3720   20.6130 C   0  0  0  0  0  3  0  0  0  0  0  0
  -30.7760  -14.7690   20.3120 C   0  0  0  0  0  0  0  0  0  0  0  0
  -30.5320  -12.4750   19.3390 C   0  0  0  0  0  2  0  0  0  0  0  0
  -29.6080  -12.5490   18.1030 C   0  0  0  0  0  2  0  0  0  0  0  0
  -28.1300  -12.4130   18.5240 C   0  0  0  0  0  2  0  0  0  0  0  0
  -27.7580  -13.3130   19.7340 C   0  0  0  0  0  3  0  0  0  0  0  0
  -28.8160  -13.2400   20.8560 C   0  0  0  0  0  2  0  0  0  0  0  0
  -30.1160  -13.5610   20.2550 N   0  0  0  0  0  0  0  0  0  0  0  0
  -31.9710  -14.8310   20.0090 O   0  0  0  0  0  0  0  0  0  0  0  0
  -30.0500  -15.9330   20.4980 N   0  0  0  0  0  0  0  0  0  0  0  0
  -29.0530  -15.8140   20.5970 H   0  0  0  0  0  0  0  0  0  0  0  0
  -25.3730  -13.9170   20.4590 C   0  0  0  0  0  0  0  0  0  0  0  0
  -24.3050  -13.1470   20.8280 C   0  0  0  0  0  0  0  0  0  0  0  0
  -24.7640  -11.7940   20.8050 C   0  0  0  0  0  0  0  0  0  0  0  0
  -26.4140  -13.0340   20.2290 N   0  0  0  0  0  0  0  0  0  0  0  0
  -26.0550  -11.7520   20.5000 N   0  0  0  0  0  0  0  0  0  0  0  0
  -24.0280  -10.5380   21.0030 C   0  0  0  0  0  0  0  0  0  0  0  0
  -24.4490   -9.5660   21.9380 C   0  0  0  0  0  3  0  0  0  0  0  0
  -23.7100   -8.3760   22.1210 C   0  0  0  0  0  3  0  0  0  0  0  0
  -22.5370   -8.1480   21.3660 C   0  0  0  0  0  0  0  0  0  0  0  0
  -22.1350   -9.1080   20.4180 C   0  0  0  0  0  3  0  0  0  0  0  0
  -22.8740  -10.2890   20.2330 C   0  0  0  0  0  3  0  0  0  0  0  0
  -21.7710   -7.0100   21.4540 O   0  0  0  0  0  0  0  0  0  0  0  0
  -21.7160   -6.2730   22.6100 C   0  0  0  0  0  0  0  0  0  0  0  0
  -21.3030   -6.8400   23.8360 C   0  0  0  0  0  3  0  0  0  0  0  0
  -21.1890   -6.0300   24.9840 C   0  0  0  0  0  3  0  0  0  0  0  0
  -21.4780   -4.6530   24.9090 C   0  0  0  0  0  0  0  0  0  0  0  0
  -21.8890   -4.0880   23.6890 C   0  0  0  0  0  3  0  0  0  0  0  0
  -22.0060   -4.8930   22.5430 C   0  0  0  0  0  0  0  0  0  0  0  0
  -22.3750   -4.3370   21.3640 F   0  0  0  0  0  0  0  0  0  0  0  0
  -21.3690   -3.8750   26.0110 F   0  0  0  0  0  0  0  0  0  0  0  0
  -22.9090  -13.6300   21.0960 C   0  0  0  0  0  0  0  0  0  0  0  0
  -22.1820  -12.9450   21.9700 N   0  0  0  0  0  0  0  0  0  0  0  0
  -22.4750  -14.6540   20.5700 O   0  0  0  0  0  0  0  0  0  0  0  0
  -22.5510  -12.1070   22.3990 H   0  0  0  0  0  0  0  0  0  0  0  0
  -21.2500  -13.2540   22.2050 H   0  0  0  0  0  0  0  0  0  0  0  0
  -25.5360  -15.2860   20.2770 N   0  0  0  0  0  0  0  0  0  0  0  0
  -24.7630  -15.9340   20.3760 H   0  0  0  0  0  0  0  0  0  0  0  0
  -26.3690  -15.7320   19.9160 H   0  0  0  0  0  0  0  0  0  0  0  0
  1  2  1  0
  1  3  2  0
  2  4  2  0
  3 52  1  0
  3  5  1  0
  4 10  1  0
  4  5  1  0
  5  8  1  0
  8  6  1  0
  8  7  1  0
 10  9  1  0
 11 13  1  0
 11 10  1  0
 12 23  2  0
 13 18  1  0
 14 22  1  0
 14 24  1  0
 15 21  1  0
 15 17  1  0
 16 22  1  0
 17 16  1  0
 18 17  2  0
 19 13  2  0
 20 19  1  0
 20 15  2  0
 21 14  1  0
 22 12  1  0
 24 26  2  0
 25 24  1  0
 27 25  1  0
 28 37  2  0
 28 33  1  0
 29 25  1  0
 29 33  1  0
 30 29  1  0
 31 32  1  0
 31 30  1  0
 32 28  1  0
 33 34  2  0
 34 35  1  0
 36 35  2  0
 37 36  1  0
 38 12  1  0
 38 39  1  0
 38 48  1  0
 39 42  1  0
 40 44  1  0
 40 39  1  0
 41 40  2  0
 44 43  1  0
 46 44  1  0
 46 47  1  0
 46 45  1  0
 48 51  1  1
 48 49  1  0
 50 48  1  0
 53 54  2  0
 53 52  1  0
 55 63  1  0
 56 61  1  0
 57 58  1  0
 57 56  1  0
 59 58  1  0
 59 68  1  0
 59 60  1  0
 61 55  1  0
 61 60  1  0
 62 55  2  0
 63 64  1  0
 63 54  1  0
 65 66  2  0
 66 85  1  0
 67 66  1  0
 67 70  1  0
 68 65  1  0
 68 69  1  0
 69 67  2  0
 70 71  1  0
 71 72  2  0
 73 76  1  0
 73 72  1  0
 74 73  2  0
 75 74  1  0
 75 70  2  0
 76 77  1  0
 77 78  1  0
 78 79  2  0
 80 79  1  0
 80 84  1  0
 81 80  2  0
 82 77  2  0
 82 81  1  0
 83 82  1  0
 85 86  1  0
 86 89  1  0
 86 88  1  0
 87 85  2  0
 90 91  1  0
 90 65  1  0
 92 90  1  0
M  ISO  4  10 101  11 101  55 100  63 100
M  END
>  <TORSDO>  (16) 
F 21

>  <SCORE>  (16) 
-11.926

>  <name>  (16) 
15

>  <ligand_id>  (16) 
15

>  <original_smiles>  (16) 
[H]c1c([H])c([H])c2c(c1[H])C([H])([H])C([H])([H])C([H])([H])C2([H])N([H])C(=O)C1([H])N(C(=O)C([H])(N([H])C(=O)C([H])(N([H])C([H])([H])[H])C([H])([H])[H])C(C([H])([H])[H])(C([H])([H])[H])C([H])([H])[H])C([H])([H])c2c([H])c(OC([H])(c3c([H])c([H])c(C([H])([H])C([H])([H])C([H])([H])N([H])C(=O)N4C([H])([H])C([H])([H])C([H])([H])C([H])(n5nc(-c6c([H])c([H])c(Oc7c([H])c([H])c(F)c([H])c7F)c([H])c6[H])c(C(=O)N([H])[H])c5N([H])[H])C4([H])[H])n3C([H])(C([H])([H])[H])C([H])([H])[H])C([H])([H])[H])c([H])c([H])c2C1([H])[H]

>  <smiles>  (16) 
[H]c1c([H])c([H])c2c(c1[H])C([H])([H])C([H])([H])C([H])([H])C2([H])N([H])C(=O)C1([H])N(C(=O)C([H])(N([H])C(=O)C([H])(N([H])C([H])([H])[H])C([H])([H])[H])C(C([H])([H])[H])(C([H])([H])[H])C([H])([H])[H])C([H])([H])c2c([H])c(OC([H])(c3c([H])c([H])c(C([H])([H])C([H])([H])C([H])([H])N([H])C(=O)N4C([H])([H])C([H])([H])C([H])([H])C([H])(n5nc(-c6c([H])c([H])c(Oc7c([H])c([H])c(F)c([H])c7F)c([H])c6[H])c(C(=O)N([H])[H])c5N([H])[H])C4([H])[H])n3C([H])(C([H])([H])[H])C([H])([H])[H])C([H])([H])[H])c([H])c([H])c2C1([H])[H]

$$$$
16:0:0
     RDKit          3D

 90 98  0  0  1  0  0  0  0  0999 V2000
  -29.4300  -23.5740   20.9480 C   0  0  0  0  0  2  0  0  0  0  0  0
  -27.5820  -23.4230   19.3910 C   0  0  0  0  0  2  0  0  0  0  0  0
  -29.4240  -21.9190   21.1820 C   0  0  0  0  0  2  0  0  0  0  0  0
  -28.1550  -24.4610   20.4830 C   0  0  0  0  0  3  0  0  0  0  0  0
  -28.2340  -21.9230   19.0540 C   0  0  0  0  0  3  0  0  0  0  0  0
  -28.6870  -21.0050   20.2040 N   0  0  1  0  0  4  0  0  0  0  0  0
  -27.8120  -20.9670   20.7100 H   0  0  0  0  0  0  0  0  0  0  0  0
  -28.9410  -22.6420   16.6540 C   0  0  0  0  0  1  0  0  0  0  0  0
  -29.3510  -21.9850   17.9790 C   0  0  0  0  0  2  0  0  0  0  0  0
  -28.2750  -26.0690   20.3170 O   0  0  0  0  0  0  0  0  0  0  0  0
  -24.6430  -31.9220   23.2560 C   0  0  0  0  0  0  0  0  0  0  0  0
  -27.2180  -27.0880   20.2960 C   0  0  0  0  0  0  0  0  0  0  0  0
  -23.4540  -30.5170   21.6190 C   0  0  0  0  0  3  0  0  0  0  0  0
  -24.9080  -28.9080   20.2200 C   0  0  0  0  0  0  0  0  0  0  0  0
  -26.0150  -30.7510   21.4740 C   0  0  0  0  0  2  0  0  0  0  0  0
  -26.0900  -29.3420   20.8340 C   0  0  0  0  0  0  0  0  0  0  0  0
  -27.2450  -28.4520   20.8410 C   0  0  0  0  0  3  0  0  0  0  0  0
  -26.0050  -26.7770   19.6480 C   0  0  0  0  0  3  0  0  0  0  0  0
  -24.8850  -27.6450   19.6070 C   0  0  0  0  0  3  0  0  0  0  0  0
  -23.6870  -29.8220   20.2490 C   0  0  0  0  0  2  0  0  0  0  0  0
  -24.7250  -31.0890   22.1700 N   0  0  0  0  0  0  0  0  0  0  0  0
  -23.5520  -32.2140   23.7730 O   0  0  0  0  0  0  0  0  0  0  0  0
  -22.7590  -29.5250   22.5870 C   0  0  0  0  0  0  0  0  0  0  0  0
  -21.4300  -29.3620   22.4570 N   0  0  0  0  0  0  0  0  0  0  0  0
  -23.4220  -28.9030   23.4200 O   0  0  0  0  0  0  0  0  0  0  0  0
  -20.9490  -29.9200   21.7650 H   0  0  0  0  0  0  0  0  0  0  0  0
  -18.0420  -28.1760   22.9660 C   0  0  0  0  0  0  0  0  0  0  0  0
  -20.6020  -28.4310   23.2310 C   0  0  0  0  0  3  0  0  0  0  0  0
  -20.6960  -26.9960   22.6650 C   0  0  0  0  0  2  0  0  0  0  0  0
  -19.5940  -26.6740   21.6500 C   0  0  0  0  0  2  0  0  0  0  0  0
  -18.2130  -26.8260   22.2920 C   0  0  0  0  0  2  0  0  0  0  0  0
  -19.1620  -28.9370   23.3930 C   0  0  0  0  0  0  0  0  0  0  0  0
  -18.9470  -30.2000   23.9860 C   0  0  0  0  0  3  0  0  0  0  0  0
  -17.6430  -30.7030   24.1560 C   0  0  0  0  0  3  0  0  0  0  0  0
  -16.5370  -29.9410   23.7430 C   0  0  0  0  0  3  0  0  0  0  0  0
  -16.7360  -28.6810   23.1540 C   0  0  0  0  0  3  0  0  0  0  0  0
  -25.9130  -32.5670   23.8900 C   0  0  0  0  0  3  0  0  0  0  0  0
  -26.4040  -31.8180   25.1900 C   0  0  1  0  0  0  0  0  0  0  0  0
  -25.2930  -31.6040   26.2460 C   0  0  0  0  0  1  0  0  0  0  0  0
  -26.9870  -30.4300   24.8420 C   0  0  0  0  0  1  0  0  0  0  0  0
  -27.5430  -32.6220   25.8580 C   0  0  0  0  0  1  0  0  0  0  0  0
  -25.5990  -33.9720   24.2010 N   0  0  0  0  0  0  0  0  0  0  0  0
  -25.9190  -35.0180   23.4270 C   0  0  0  0  0  0  0  0  0  0  0  0
  -26.5730  -34.9030   22.3880 O   0  0  0  0  0  0  0  0  0  0  0  0
  -25.0120  -34.1340   25.0060 H   0  0  0  0  0  0  0  0  0  0  0  0
  -24.1760  -36.8060   23.0990 C   0  0  0  0  0  1  0  0  0  0  0  0
  -25.4420  -36.4130   23.8760 C   0  0  0  0  0  3  0  0  0  0  0  0
  -27.5910  -37.3300   24.6320 C   0  0  0  0  0  1  0  0  0  0  0  0
  -26.4650  -37.4690   23.7140 N   0  0  0  0  0  0  0  0  0  0  0  0
  -26.0560  -38.3890   23.8520 H   0  0  0  0  0  0  0  0  0  0  0  0
  -28.7900  -19.3610   19.9920 C   0  0  0  0  0  3  0  0  0  0  0  0
  -29.8980  -18.0840   20.4580 C   0  0  0  0  0  3  0  0  0  0  0  0
  -30.4800  -15.2370   20.2420 C   0  0  0  0  0  0  0  0  0  0  0  0
  -30.4480  -12.8270   19.3320 C   0  0  0  0  0  2  0  0  0  0  0  0
  -29.5090  -12.6680   18.1110 C   0  0  0  0  0  2  0  0  0  0  0  0
  -28.0570  -12.4180   18.5620 C   0  0  0  0  0  2  0  0  0  0  0  0
  -27.6300  -13.3630   19.7150 C   0  0  0  0  0  3  0  0  0  0  0  0
  -28.6920  -13.4600   20.8280 C   0  0  0  0  0  2  0  0  0  0  0  0
  -29.9210  -13.9420   20.1870 N   0  0  0  0  0  0  0  0  0  0  0  0
  -31.6980  -15.2790   20.0270 O   0  0  0  0  0  0  0  0  0  0  0  0
  -29.6770  -16.4560   20.3370 N   0  0  0  0  0  0  0  0  0  0  0  0
  -28.6980  -16.2170   20.3930 H   0  0  0  0  0  0  0  0  0  0  0  0
  -25.2660  -13.9190   20.4980 C   0  0  0  0  0  0  0  0  0  0  0  0
  -24.2090  -13.1370   20.8720 C   0  0  0  0  0  0  0  0  0  0  0  0
  -24.6780  -11.7880   20.8260 C   0  0  0  0  0  0  0  0  0  0  0  0
  -26.3070  -13.0460   20.2350 N   0  0  0  0  0  0  0  0  0  0  0  0
  -25.9660  -11.7580   20.5010 N   0  0  0  0  0  0  0  0  0  0  0  0
  -23.9570  -10.5230   21.0110 C   0  0  0  0  0  0  0  0  0  0  0  0
  -24.3920   -9.5500   21.9380 C   0  0  0  0  0  3  0  0  0  0  0  0
  -23.6650   -8.3520   22.1130 C   0  0  0  0  0  3  0  0  0  0  0  0
  -22.4910   -8.1170   21.3600 C   0  0  0  0  0  0  0  0  0  0  0  0
  -22.0730   -9.0790   20.4220 C   0  0  0  0  0  3  0  0  0  0  0  0
  -22.8000  -10.2680   20.2460 C   0  0  0  0  0  3  0  0  0  0  0  0
  -21.7370   -6.9730   21.4440 O   0  0  0  0  0  0  0  0  0  0  0  0
  -21.6860   -6.2260   22.5940 C   0  0  0  0  0  0  0  0  0  0  0  0
  -21.2300   -6.7680   23.8150 C   0  0  0  0  0  3  0  0  0  0  0  0
  -21.1310   -5.9480   24.9560 C   0  0  0  0  0  3  0  0  0  0  0  0
  -21.4770   -4.5850   24.8770 C   0  0  0  0  0  0  0  0  0  0  0  0
  -21.9250   -4.0420   23.6610 C   0  0  0  0  0  3  0  0  0  0  0  0
  -22.0280   -4.8600   22.5220 C   0  0  0  0  0  0  0  0  0  0  0  0
  -22.4410   -4.3270   21.3470 F   0  0  0  0  0  0  0  0  0  0  0  0
  -21.3740   -3.7940   25.9710 F   0  0  0  0  0  0  0  0  0  0  0  0
  -22.8140  -13.6090   21.1560 C   0  0  0  0  0  0  0  0  0  0  0  0
  -22.0950  -12.9100   22.0260 N   0  0  0  0  0  0  0  0  0  0  0  0
  -22.3710  -14.6360   20.6410 O   0  0  0  0  0  0  0  0  0  0  0  0
  -22.4640  -12.0780   22.4610 H   0  0  0  0  0  0  0  0  0  0  0  0
  -21.1600  -13.2130   22.2610 H   0  0  0  0  0  0  0  0  0  0  0  0
  -25.4210  -15.2910   20.3310 N   0  0  0  0  0  0  0  0  0  0  0  0
  -24.6470  -15.9340   20.4600 H   0  0  0  0  0  0  0  0  0  0  0  0
  -26.2430  -15.7380   19.9470 H   0  0  0  0  0  0  0  0  0  0  0  0
  1  3  1  0
  2  4  1  0
  4 10  1  0
  4  1  1  0
  5  9  1  0
  5  2  1  0
  5  6  1  0
  6  7  1  1
  6  3  1  0
  8  9  1  0
 11 22  2  0
 12 10  1  0
 12 17  1  0
 13 21  1  0
 13 23  1  0
 14 20  1  0
 14 16  1  0
 15 21  1  0
 16 17  2  0
 16 15  1  0
 18 12  2  0
 19 18  1  0
 19 14  2  0
 20 13  1  0
 21 11  1  0
 23 25  2  0
 24 23  1  0
 26 24  1  0
 27 36  2  0
 27 32  1  0
 28 24  1  0
 28 32  1  0
 29 28  1  0
 30 31  1  0
 30 29  1  0
 31 27  1  0
 32 33  2  0
 33 34  1  0
 35 34  2  0
 36 35  1  0
 37 11  1  0
 37 42  1  0
 37 38  1  0
 38 41  1  1
 38 39  1  0
 40 38  1  0
 42 45  1  0
 43 47  1  0
 43 42  1  0
 44 43  2  0
 47 46  1  0
 49 50  1  0
 49 47  1  0
 49 48  1  0
 51  6  1  0
 51 52  2  0
 53 61  1  0
 54 59  1  0
 55 56  1  0
 55 54  1  0
 57 56  1  0
 57 66  1  0
 57 58  1  0
 59 53  1  0
 59 58  1  0
 60 53  2  0
 61 62  1  0
 61 52  1  0
 63 64  2  0
 64 83  1  0
 65 64  1  0
 65 68  1  0
 66 63  1  0
 66 67  1  0
 67 65  2  0
 68 69  1  0
 69 70  2  0
 71 74  1  0
 71 70  1  0
 72 71  2  0
 73 72  1  0
 73 68  2  0
 74 75  1  0
 75 76  1  0
 76 77  2  0
 78 77  1  0
 78 82  1  0
 79 78  2  0
 80 75  2  0
 80 79  1  0
 81 80  1  0
 83 84  1  0
 84 87  1  0
 84 86  1  0
 85 83  2  0
 88 89  1  0
 88 63  1  0
 90 88  1  0
M  ISO  4   4 101  10 101  53 100  61 100
M  END
>  <TORSDO>  (17) 
F 19

>  <SCORE>  (17) 
-14.765

>  <name>  (17) 
16

>  <ligand_id>  (17) 
16

>  <original_smiles>  (17) 
[H]c1c([H])c([H])c2c(c1[H])C([H])([H])C([H])([H])C([H])([H])C2([H])N([H])C(=O)C1([H])N(C(=O)C([H])(N([H])C(=O)C([H])(N([H])C([H])([H])[H])C([H])([H])[H])C(C([H])([H])[H])(C([H])([H])[H])C([H])([H])[H])C([H])([H])c2c([H])c(OC3([H])C([H])([H])C([H])([H])[N+]([H])(C([H])([H])C([H])([H])N([H])C(=O)N4C([H])([H])C([H])([H])C([H])([H])C([H])(n5nc(-c6c([H])c([H])c(Oc7c([H])c([H])c(F)c([H])c7F)c([H])c6[H])c(C(=O)N([H])[H])c5N([H])[H])C4([H])[H])C([H])(C([H])([H])C([H])([H])[H])C3([H])[H])c([H])c([H])c2C1([H])[H]

>  <smiles>  (17) 
[H]c1c([H])c([H])c2c(c1[H])C([H])([H])C([H])([H])C([H])([H])C2([H])N([H])C(=O)C1([H])N(C(=O)C([H])(N([H])C(=O)C([H])(N([H])C([H])([H])[H])C([H])([H])[H])C(C([H])([H])[H])(C([H])([H])[H])C([H])([H])[H])C([H])([H])c2c([H])c(OC3([H])C([H])([H])C([H])([H])[N+]([H])(C([H])([H])C([H])([H])N([H])C(=O)N4C([H])([H])C([H])([H])C([H])([H])C([H])(n5nc(-c6c([H])c([H])c(Oc7c([H])c([H])c(F)c([H])c7F)c([H])c6[H])c(C(=O)N([H])[H])c5N([H])[H])C4([H])[H])C([H])(C([H])([H])C([H])([H])[H])C3([H])[H])c([H])c([H])c2C1([H])[H]

$$$$
17:0:0
     RDKit          3D

 97106  0  0  1  0  0  0  0  0999 V2000
  -29.4610  -21.9580   21.3940 C   0  0  0  0  0  0  0  0  0  0  0  0
  -30.4050  -21.0020   21.2730 N   0  0  0  0  0  0  0  0  0  0  0  0
  -28.4770  -21.8310   22.1290 O   0  0  0  0  0  0  0  0  0  0  0  0
  -31.0630  -21.1100   20.5130 H   0  0  0  0  0  0  0  0  0  0  0  0
  -29.8080  -24.4580   21.5210 C   0  0  0  0  0  2  0  0  0  0  0  0
  -28.3800  -23.4890   19.6430 C   0  0  0  0  0  2  0  0  0  0  0  0
  -29.7630  -25.8300   20.8160 C   0  0  0  0  0  2  0  0  0  0  0  0
  -28.3780  -24.8790   18.9670 C   0  0  0  0  0  2  0  0  0  0  0  0
  -29.6120  -23.2530   20.5600 C   0  0  0  0  0  3  0  0  0  0  0  0
  -28.4590  -25.9970   20.0230 C   0  0  0  0  0  3  0  0  0  0  0  0
  -28.4200  -27.3100   19.4410 O   0  0  0  0  0  0  0  0  0  0  0  0
  -24.4690  -31.9280   23.1370 C   0  0  0  0  0  0  0  0  0  0  0  0
  -27.2120  -27.9660   19.5440 C   0  0  0  0  0  0  0  0  0  0  0  0
  -23.2650  -30.6100   21.4240 C   0  0  0  0  0  3  0  0  0  0  0  0
  -24.7340  -29.3030   19.7990 C   0  0  0  0  0  0  0  0  0  0  0  0
  -25.7520  -31.1460   21.1500 C   0  0  0  0  0  2  0  0  0  0  0  0
  -25.8880  -29.8480   20.3780 C   0  0  0  0  0  0  0  0  0  0  0  0
  -27.1300  -29.1900   20.2430 C   0  0  0  0  0  3  0  0  0  0  0  0
  -26.0420  -27.4320   18.9610 C   0  0  0  0  0  3  0  0  0  0  0  0
  -24.8060  -28.0930   19.0870 C   0  0  0  0  0  3  0  0  0  0  0  0
  -23.4450  -30.0720   19.9800 C   0  0  0  0  0  2  0  0  0  0  0  0
  -24.5160  -31.2360   21.9620 N   0  0  0  0  0  0  0  0  0  0  0  0
  -23.4020  -32.0820   23.7460 O   0  0  0  0  0  0  0  0  0  0  0  0
  -22.7220  -29.4680   22.3120 C   0  0  0  0  0  0  0  0  0  0  0  0
  -21.4150  -29.1840   22.1890 N   0  0  0  0  0  0  0  0  0  0  0  0
  -23.4720  -28.8410   23.0660 O   0  0  0  0  0  0  0  0  0  0  0  0
  -20.8670  -29.7500   21.5550 H   0  0  0  0  0  0  0  0  0  0  0  0
  -18.1910  -27.5930   22.5380 C   0  0  0  0  0  0  0  0  0  0  0  0
  -20.6950  -28.1260   22.8940 C   0  0  0  0  0  3  0  0  0  0  0  0
  -20.9750  -26.7440   22.2600 C   0  0  0  0  0  2  0  0  0  0  0  0
  -19.9410  -26.3470   21.2020 C   0  0  0  0  0  2  0  0  0  0  0  0
  -18.5360  -26.3040   21.8110 C   0  0  0  0  0  2  0  0  0  0  0  0
  -19.2050  -28.4560   23.0320 C   0  0  0  0  0  0  0  0  0  0  0  0
  -18.8300  -29.6580   23.6700 C   0  0  0  0  0  3  0  0  0  0  0  0
  -17.4730  -30.0020   23.8200 C   0  0  0  0  0  3  0  0  0  0  0  0
  -16.4740  -29.1380   23.3430 C   0  0  0  0  0  3  0  0  0  0  0  0
  -16.8320  -27.9340   22.7080 C   0  0  0  0  0  3  0  0  0  0  0  0
  -25.7460  -32.5760   23.7580 C   0  0  0  0  0  3  0  0  0  0  0  0
  -26.2830  -31.8040   25.0250 C   0  0  1  0  0  0  0  0  0  0  0  0
  -25.2010  -31.5480   26.1000 C   0  0  0  0  0  1  0  0  0  0  0  0
  -26.8800  -30.4370   24.6180 C   0  0  0  0  0  1  0  0  0  0  0  0
  -27.4300  -32.6090   25.6810 C   0  0  0  0  0  1  0  0  0  0  0  0
  -25.4160  -33.9660   24.0960 N   0  0  0  0  0  0  0  0  0  0  0  0
  -25.8070  -35.0340   23.3880 C   0  0  0  0  0  0  0  0  0  0  0  0
  -26.5540  -34.9520   22.4080 O   0  0  0  0  0  0  0  0  0  0  0  0
  -24.7640  -34.1060   24.8540 H   0  0  0  0  0  0  0  0  0  0  0  0
  -24.1400  -36.8560   22.9160 C   0  0  0  0  0  1  0  0  0  0  0  0
  -25.2860  -36.4120   23.8380 C   0  0  0  0  0  3  0  0  0  0  0  0
  -27.3340  -37.2410   24.9100 C   0  0  0  0  0  1  0  0  0  0  0  0
  -26.3350  -37.4550   23.8670 N   0  0  0  0  0  0  0  0  0  0  0  0
  -25.9240  -38.3740   24.0070 H   0  0  0  0  0  0  0  0  0  0  0  0
  -31.2620  -17.8350   24.0090 C   0  0  0  0  0  3  0  0  0  0  0  0
  -30.9690  -19.1250   24.4820 C   0  0  0  0  0  3  0  0  0  0  0  0
  -31.2510  -17.5820   22.6270 C   0  0  0  0  0  3  0  0  0  0  0  0
  -30.6670  -20.1550   23.5720 C   0  0  0  0  0  3  0  0  0  0  0  0
  -30.9410  -18.6030   21.7030 C   0  0  0  0  0  0  0  0  0  0  0  0
  -30.6420  -19.9150   22.1740 C   0  0  0  0  0  0  0  0  0  0  0  0
  -30.9370  -18.2380   20.2230 C   0  0  0  0  0  2  0  0  0  0  0  0
  -29.6820  -17.4520   19.7880 C   0  0  0  0  0  2  0  0  0  0  0  0
  -30.3960  -15.0720   19.9420 C   0  0  0  0  0  0  0  0  0  0  0  0
  -30.2270  -12.8070   19.0040 C   0  0  0  0  0  2  0  0  0  0  0  0
  -29.2380  -12.8590   17.8210 C   0  0  0  0  0  2  0  0  0  0  0  0
  -27.7910  -12.6540   18.3140 C   0  0  0  0  0  2  0  0  0  0  0  0
  -27.4330  -13.5650   19.5200 C   0  0  0  0  0  3  0  0  0  0  0  0
  -28.5360  -13.5050   20.6040 C   0  0  0  0  0  2  0  0  0  0  0  0
  -29.8220  -13.8410   19.9680 N   0  0  0  0  0  0  0  0  0  0  0  0
  -31.4890  -15.2980   19.4150 O   0  0  0  0  0  0  0  0  0  0  0  0
  -29.5910  -16.0800   20.3110 N   0  0  0  0  0  0  0  0  0  0  0  0
  -28.7210  -15.8190   20.7530 H   0  0  0  0  0  0  0  0  0  0  0  0
  -25.0560  -14.0780   20.3650 C   0  0  0  0  0  0  0  0  0  0  0  0
  -24.0360  -13.2630   20.7780 C   0  0  0  0  0  0  0  0  0  0  0  0
  -24.5420  -11.9290   20.7000 C   0  0  0  0  0  0  0  0  0  0  0  0
  -26.1180  -13.2380   20.0650 N   0  0  0  0  0  0  0  0  0  0  0  0
  -25.8130  -11.9400   20.3220 N   0  0  0  0  0  0  0  0  0  0  0  0
  -23.8710  -10.6390   20.9080 C   0  0  0  0  0  0  0  0  0  0  0  0
  -24.3380   -9.7110   21.8650 C   0  0  0  0  0  3  0  0  0  0  0  0
  -23.6660   -8.4840   22.0580 C   0  0  0  0  0  3  0  0  0  0  0  0
  -22.5140   -8.1780   21.2950 C   0  0  0  0  0  0  0  0  0  0  0  0
  -22.0680   -9.0950   20.3280 C   0  0  0  0  0  3  0  0  0  0  0  0
  -22.7410  -10.3130   20.1330 C   0  0  0  0  0  3  0  0  0  0  0  0
  -21.8120   -7.0010   21.3970 O   0  0  0  0  0  0  0  0  0  0  0  0
  -21.6890   -6.3380   22.5920 C   0  0  0  0  0  0  0  0  0  0  0  0
  -21.1010   -6.9440   23.7230 C   0  0  0  0  0  3  0  0  0  0  0  0
  -20.9310   -6.2040   24.9110 C   0  0  0  0  0  3  0  0  0  0  0  0
  -21.3390   -4.8580   24.9650 C   0  0  0  0  0  0  0  0  0  0  0  0
  -21.9190   -4.2510   23.8390 C   0  0  0  0  0  3  0  0  0  0  0  0
  -22.0910   -4.9880   22.6540 C   0  0  0  0  0  0  0  0  0  0  0  0
  -22.6320   -4.3920   21.5640 F   0  0  0  0  0  0  0  0  0  0  0  0
  -21.1680   -4.1430   26.1030 F   0  0  0  0  0  0  0  0  0  0  0  0
  -22.6410  -13.6860   21.1370 C   0  0  0  0  0  0  0  0  0  0  0  0
  -22.0010  -12.9710   22.0560 N   0  0  0  0  0  0  0  0  0  0  0  0
  -22.1260  -14.6850   20.6370 O   0  0  0  0  0  0  0  0  0  0  0  0
  -22.4300  -12.1630   22.4820 H   0  0  0  0  0  0  0  0  0  0  0  0
  -21.0690  -13.2370   22.3390 H   0  0  0  0  0  0  0  0  0  0  0  0
  -25.1630  -15.4570   20.2000 N   0  0  0  0  0  0  0  0  0  0  0  0
  -24.3790  -16.0820   20.3560 H   0  0  0  0  0  0  0  0  0  0  0  0
  -25.9760  -15.9280   19.8250 H   0  0  0  0  0  0  0  0  0  0  0  0
  1  3  2  0
  2  1  1  0
  2 57  1  0
  4  2  1  0
  6  9  1  0
  7  5  1  0
  8  6  1  0
  8 10  1  0
  9  1  1  0
  9  5  1  0
 10 11  1  0
 10  7  1  0
 11 13  1  0
 12 23  2  0
 13 18  1  0
 14 22  1  0
 14 24  1  0
 15 21  1  0
 15 17  1  0
 16 22  1  0
 17 16  1  0
 18 17  2  0
 19 20  1  0
 19 13  2  0
 20 15  2  0
 21 14  1  0
 22 12  1  0
 24 26  2  0
 25 24  1  0
 27 25  1  0
 28 37  2  0
 28 33  1  0
 29 25  1  0
 29 33  1  0
 30 29  1  0
 31 32  1  0
 31 30  1  0
 32 28  1  0
 33 34  2  0
 34 35  1  0
 36 35  2  0
 37 36  1  0
 38 12  1  0
 38 43  1  0
 38 39  1  0
 39 42  1  1
 39 40  1  0
 41 39  1  0
 43 46  1  0
 44 48  1  0
 44 43  1  0
 45 44  2  0
 48 47  1  0
 48 50  1  0
 50 51  1  0
 50 49  1  0
 52 53  1  0
 54 52  2  0
 55 53  2  0
 56 57  2  0
 56 54  1  0
 57 55  1  0
 58 56  1  0
 59 58  1  0
 59 68  1  0
 60 66  1  0
 60 68  1  0
 61 66  1  0
 62 63  1  0
 62 61  1  0
 64 63  1  0
 64 73  1  0
 64 65  1  0
 66 65  1  0
 67 60  2  0
 68 69  1  0
 70 71  2  0
 71 90  1  0
 72 71  1  0
 72 75  1  0
 73 74  1  0
 73 70  1  0
 74 72  2  0
 75 76  1  0
 76 77  2  0
 78 81  1  0
 78 77  1  0
 79 78  2  0
 80 79  1  0
 80 75  2  0
 81 82  1  0
 82 87  2  0
 82 83  1  0
 83 84  2  0
 84 85  1  0
 85 89  1  0
 86 85  2  0
 87 86  1  0
 88 87  1  0
 90 91  1  0
 91 94  1  0
 91 93  1  0
 92 90  2  0
 95 96  1  0
 95 70  1  0
 97 95  1  0
M  ISO  4  10 101  11 101  60 100  68 100
M  END
>  <TORSDO>  (18) 
F 20

>  <SCORE>  (18) 
-10.908

>  <name>  (18) 
17

>  <ligand_id>  (18) 
17

>  <original_smiles>  (18) 
[H]c1c([H])c([H])c(C([H])([H])C([H])([H])N([H])C(=O)N2C([H])([H])C([H])([H])C([H])([H])C([H])(n3nc(-c4c([H])c([H])c(Oc5c([H])c([H])c(F)c([H])c5F)c([H])c4[H])c(C(=O)N([H])[H])c3N([H])[H])C2([H])[H])c(N([H])C(=O)C2([H])C([H])([H])C([H])([H])C([H])(Oc3c([H])c([H])c4c(c3[H])C([H])([H])N(C(=O)C([H])(N([H])C(=O)C([H])(N([H])C([H])([H])[H])C([H])([H])[H])C(C([H])([H])[H])(C([H])([H])[H])C([H])([H])[H])C([H])(C(=O)N([H])C3([H])c5c([H])c([H])c([H])c([H])c5C([H])([H])C([H])([H])C3([H])[H])C4([H])[H])C([H])([H])C2([H])[H])c1[H]

>  <smiles>  (18) 
[H]c1c([H])c([H])c(C([H])([H])C([H])([H])N([H])C(=O)N2C([H])([H])C([H])([H])C([H])([H])C([H])(n3nc(-c4c([H])c([H])c(Oc5c([H])c([H])c(F)c([H])c5F)c([H])c4[H])c(C(=O)N([H])[H])c3N([H])[H])C2([H])[H])c(N([H])C(=O)C2([H])C([H])([H])C([H])([H])C([H])(Oc3c([H])c([H])c4c(c3[H])C([H])([H])N(C(=O)C([H])(N([H])C(=O)C([H])(N([H])C([H])([H])[H])C([H])([H])[H])C(C([H])([H])[H])(C([H])([H])[H])C([H])([H])[H])C([H])(C(=O)N([H])C3([H])c5c([H])c([H])c([H])c([H])c5C([H])([H])C([H])([H])C3([H])[H])C4([H])[H])C([H])([H])C2([H])[H])c1[H]

$$$$
18:0:0
     RDKit          3D

 90 99  0  0  1  0  0  0  0  0999 V2000
  -30.1840  -21.8100   20.7200 C   0  0  0  0  0  3  0  0  0  0  0  0
  -28.1580  -21.2730   19.5830 C   0  0  0  0  0  3  0  0  0  0  0  0
  -29.9000  -23.2140   20.5930 C   0  0  0  0  0  3  0  0  0  0  0  0
  -27.8720  -22.6780   19.4600 C   0  0  0  0  0  3  0  0  0  0  0  0
  -29.3500  -20.7780   20.1860 C   0  0  0  0  0  0  0  0  0  0  0  0
  -28.7440  -23.7110   19.9250 C   0  0  0  0  0  0  0  0  0  0  0  0
  -30.7420  -14.8140   20.0410 C   0  0  0  0  0  0  0  0  0  0  0  0
  -30.4540  -12.5510   19.0250 C   0  0  0  0  0  2  0  0  0  0  0  0
  -29.4630  -12.6320   17.8460 C   0  0  0  0  0  2  0  0  0  0  0  0
  -28.0200  -12.4480   18.3490 C   0  0  0  0  0  2  0  0  0  0  0  0
  -27.7010  -13.3280   19.5900 C   0  0  0  0  0  3  0  0  0  0  0  0
  -28.8140  -13.2640   20.6560 C   0  0  0  0  0  2  0  0  0  0  0  0
  -30.0710  -13.6120   19.9860 N   0  0  0  0  0  0  0  0  0  0  0  0
  -31.9260  -14.8500   19.6910 O   0  0  0  0  0  0  0  0  0  0  0  0
  -29.5540  -18.3270   21.4100 C   0  0  0  0  0  2  0  0  0  0  0  0
  -29.3370  -18.3260   19.0090 C   0  0  0  0  0  2  0  0  0  0  0  0
  -30.2310  -16.8810   21.3580 C   0  0  0  0  0  2  0  0  0  0  0  0
  -30.0510  -16.9120   18.9410 C   0  0  0  0  0  2  0  0  0  0  0  0
  -29.8180  -19.2370   20.1730 C   0  0  0  0  0  3  0  0  0  0  0  0
  -30.0310  -16.0200   20.1480 N   0  0  0  0  0  0  0  0  0  0  0  0
  -25.3600  -13.8900   20.4660 C   0  0  0  0  0  0  0  0  0  0  0  0
  -24.3150  -13.1040   20.8680 C   0  0  0  0  0  0  0  0  0  0  0  0
  -24.7750  -11.7560   20.7760 C   0  0  0  0  0  0  0  0  0  0  0  0
  -26.3880  -13.0190   20.1470 N   0  0  0  0  0  0  0  0  0  0  0  0
  -26.0490  -11.7290   20.3990 N   0  0  0  0  0  0  0  0  0  0  0  0
  -24.0580  -10.4870   20.9680 C   0  0  0  0  0  0  0  0  0  0  0  0
  -24.5040   -9.5190   21.8950 C   0  0  0  0  0  3  0  0  0  0  0  0
  -23.7850   -8.3170   22.0760 C   0  0  0  0  0  3  0  0  0  0  0  0
  -22.6070   -8.0760   21.3320 C   0  0  0  0  0  0  0  0  0  0  0  0
  -22.1800   -9.0320   20.3940 C   0  0  0  0  0  3  0  0  0  0  0  0
  -22.8990  -10.2250   20.2100 C   0  0  0  0  0  3  0  0  0  0  0  0
  -21.8590   -6.9260   21.4220 O   0  0  0  0  0  0  0  0  0  0  0  0
  -21.7770   -6.2110   22.5900 C   0  0  0  0  0  0  0  0  0  0  0  0
  -21.2660   -6.7800   23.7770 C   0  0  0  0  0  3  0  0  0  0  0  0
  -21.1320   -5.9900   24.9360 C   0  0  0  0  0  3  0  0  0  0  0  0
  -21.5020   -4.6320   24.9100 C   0  0  0  0  0  0  0  0  0  0  0  0
  -22.0070   -4.0620   23.7270 C   0  0  0  0  0  3  0  0  0  0  0  0
  -22.1410   -4.8490   22.5710 C   0  0  0  0  0  0  0  0  0  0  0  0
  -22.6080   -4.2910   21.4280 F   0  0  0  0  0  0  0  0  0  0  0  0
  -21.3670   -3.8710   26.0200 F   0  0  0  0  0  0  0  0  0  0  0  0
  -22.9340  -13.5730   21.2250 C   0  0  0  0  0  0  0  0  0  0  0  0
  -22.2470  -12.8470   22.1000 N   0  0  0  0  0  0  0  0  0  0  0  0
  -22.4730  -14.6160   20.7630 O   0  0  0  0  0  0  0  0  0  0  0  0
  -22.6330  -12.0030   22.4970 H   0  0  0  0  0  0  0  0  0  0  0  0
  -21.3210  -13.1400   22.3790 H   0  0  0  0  0  0  0  0  0  0  0  0
  -25.5170  -15.2660   20.3210 N   0  0  0  0  0  0  0  0  0  0  0  0
  -24.7630  -15.9210   20.5020 H   0  0  0  0  0  0  0  0  0  0  0  0
  -26.3630  -15.7140   19.9930 H   0  0  0  0  0  0  0  0  0  0  0  0
  -28.5730  -25.2300   19.4350 C   0  0  0  0  0  2  0  0  0  0  0  0
  -28.3860  -26.4310   20.3140 O   0  0  0  0  0  0  0  0  0  0  0  0
  -24.6430  -31.9260   23.2190 C   0  0  0  0  0  0  0  0  0  0  0  0
  -27.2730  -27.3050   20.2080 C   0  0  0  0  0  0  0  0  0  0  0  0
  -23.4490  -30.5080   21.5910 C   0  0  0  0  0  3  0  0  0  0  0  0
  -24.9080  -28.9480   20.1770 C   0  0  0  0  0  0  0  0  0  0  0  0
  -25.9920  -30.8230   21.4120 C   0  0  0  0  0  2  0  0  0  0  0  0
  -26.0770  -29.4350   20.7740 C   0  0  0  0  0  0  0  0  0  0  0  0
  -27.2580  -28.6240   20.7820 C   0  0  0  0  0  3  0  0  0  0  0  0
  -26.0700  -26.8810   19.5990 C   0  0  0  0  0  3  0  0  0  0  0  0
  -24.9100  -27.6790   19.5820 C   0  0  0  0  0  3  0  0  0  0  0  0
  -23.6710  -29.8240   20.2170 C   0  0  0  0  0  2  0  0  0  0  0  0
  -24.7150  -31.1040   22.1300 N   0  0  0  0  0  0  0  0  0  0  0  0
  -23.5570  -32.2040   23.7480 O   0  0  0  0  0  0  0  0  0  0  0  0
  -22.7890  -29.4970   22.5600 C   0  0  0  0  0  0  0  0  0  0  0  0
  -21.4610  -29.3180   22.4390 N   0  0  0  0  0  0  0  0  0  0  0  0
  -23.4680  -28.8770   23.3820 O   0  0  0  0  0  0  0  0  0  0  0  0
  -20.9700  -29.8690   21.7490 H   0  0  0  0  0  0  0  0  0  0  0  0
  -18.0850  -28.1290   22.9670 C   0  0  0  0  0  0  0  0  0  0  0  0
  -20.6450  -28.3850   23.2200 C   0  0  0  0  0  3  0  0  0  0  0  0
  -20.7400  -26.9510   22.6510 C   0  0  0  0  0  2  0  0  0  0  0  0
  -19.6310  -26.6260   21.6440 C   0  0  0  0  0  2  0  0  0  0  0  0
  -18.2540  -26.7770   22.2960 C   0  0  0  0  0  2  0  0  0  0  0  0
  -19.2080  -28.8910   23.3870 C   0  0  0  0  0  0  0  0  0  0  0  0
  -18.9940  -30.1560   23.9780 C   0  0  0  0  0  3  0  0  0  0  0  0
  -17.6920  -30.6590   24.1500 C   0  0  0  0  0  3  0  0  0  0  0  0
  -16.5830  -29.8950   23.7460 C   0  0  0  0  0  3  0  0  0  0  0  0
  -16.7800  -28.6310   23.1610 C   0  0  0  0  0  3  0  0  0  0  0  0
  -25.9200  -32.5720   23.8380 C   0  0  0  0  0  3  0  0  0  0  0  0
  -25.5970  -33.9690   24.1700 N   0  0  0  0  0  0  0  0  0  0  0  0
  -25.9180  -35.0260   23.4120 C   0  0  0  0  0  0  0  0  0  0  0  0
  -26.5870  -34.9300   22.3800 O   0  0  0  0  0  0  0  0  0  0  0  0
  -25.0020  -34.1170   24.9720 H   0  0  0  0  0  0  0  0  0  0  0  0
  -24.1840  -36.8120   23.0530 C   0  0  0  0  0  1  0  0  0  0  0  0
  -25.4200  -36.4100   23.8730 C   0  0  0  0  0  3  0  0  0  0  0  0
  -27.5390  -37.3060   24.7320 C   0  0  0  0  0  1  0  0  0  0  0  0
  -26.4470  -37.4690   23.7750 N   0  0  0  0  0  0  0  0  0  0  0  0
  -26.0340  -38.3860   23.9190 H   0  0  0  0  0  0  0  0  0  0  0  0
  -26.4450  -31.8090   25.1150 C   0  0  1  0  0  0  0  0  0  0  0  0
  -25.3560  -31.5600   26.1840 C   0  0  0  0  0  1  0  0  0  0  0  0
  -27.0440  -30.4380   24.7250 C   0  0  0  0  0  1  0  0  0  0  0  0
  -27.5870  -32.6170   25.7770 C   0  0  0  0  0  1  0  0  0  0  0  0
  2  5  1  0
  3  1  1  0
  4  2  2  0
  4  6  1  0
  5  1  2  0
  6  3  2  0
  7 20  1  0
  8 13  1  0
  9 10  1  0
  9  8  1  0
 11 10  1  0
 11 24  1  0
 11 12  1  0
 13  7  1  0
 13 12  1  0
 14  7  2  0
 16 19  1  0
 17 15  1  0
 18 16  1  0
 18 20  1  0
 19  5  1  0
 19 15  1  0
 20 17  1  0
 21 22  2  0
 22 41  1  0
 23 22  1  0
 23 26  1  0
 24 25  1  0
 24 21  1  0
 25 23  2  0
 26 27  1  0
 27 28  2  0
 29 32  1  0
 29 28  1  0
 30 29  2  0
 31 30  1  0
 31 26  2  0
 32 33  1  0
 33 34  1  0
 34 35  2  0
 36 35  1  0
 36 40  1  0
 37 36  2  0
 38 33  2  0
 38 37  1  0
 39 38  1  0
 41 42  1  0
 42 45  1  0
 42 44  1  0
 43 41  2  0
 46 21  1  0
 46 47  1  0
 48 46  1  0
 49  6  1  0
 49 50  1  0
 51 62  2  0
 52 50  1  0
 52 57  1  0
 53 61  1  0
 53 63  1  0
 54 60  1  0
 54 56  1  0
 55 61  1  0
 56 57  2  0
 56 55  1  0
 58 52  2  0
 59 58  1  0
 59 54  2  0
 60 53  1  0
 61 51  1  0
 63 65  2  0
 64 63  1  0
 66 64  1  0
 67 76  2  0
 67 72  1  0
 68 64  1  0
 68 72  1  0
 69 68  1  0
 70 71  1  0
 70 69  1  0
 71 67  1  0
 72 73  2  0
 73 74  1  0
 75 74  2  0
 76 75  1  0
 77 51  1  0
 77 78  1  0
 77 87  1  0
 78 81  1  0
 79 83  1  0
 79 78  1  0
 80 79  2  0
 83 82  1  0
 85 83  1  0
 85 86  1  0
 85 84  1  0
 87 90  1  1
 87 88  1  0
 89 87  1  0
M  ISO  4   7 100  20 100  49 101  50 101
M  END
>  <TORSDO>  (19) 
F 17

>  <SCORE>  (19) 
-14.780

>  <name>  (19) 
18

>  <ligand_id>  (19) 
18

>  <original_smiles>  (19) 
[H]c1c([H])c([H])c2c(c1[H])C([H])([H])C([H])([H])C([H])([H])C2([H])N([H])C(=O)C1([H])N(C(=O)C([H])(N([H])C(=O)C([H])(N([H])C([H])([H])[H])C([H])([H])[H])C(C([H])([H])[H])(C([H])([H])[H])C([H])([H])[H])C([H])([H])c2c([H])c(OC([H])([H])c3c([H])c([H])c(C4([H])C([H])([H])C([H])([H])N(C(=O)N5C([H])([H])C([H])([H])C([H])([H])C([H])(n6nc(-c7c([H])c([H])c(Oc8c([H])c([H])c(F)c([H])c8F)c([H])c7[H])c(C(=O)N([H])[H])c6N([H])[H])C5([H])[H])C([H])([H])C4([H])[H])c([H])c3[H])c([H])c([H])c2C1([H])[H]

>  <smiles>  (19) 
[H]c1c([H])c([H])c2c(c1[H])C([H])([H])C([H])([H])C([H])([H])C2([H])N([H])C(=O)C1([H])N(C(=O)C([H])(N([H])C(=O)C([H])(N([H])C([H])([H])[H])C([H])([H])[H])C(C([H])([H])[H])(C([H])([H])[H])C([H])([H])[H])C([H])([H])c2c([H])c(OC([H])([H])c3c([H])c([H])c(C4([H])C([H])([H])C([H])([H])N(C(=O)N5C([H])([H])C([H])([H])C([H])([H])C([H])(n6nc(-c7c([H])c([H])c(Oc8c([H])c([H])c(F)c([H])c8F)c([H])c7[H])c(C(=O)N([H])[H])c6N([H])[H])C5([H])[H])C([H])([H])C4([H])[H])c([H])c3[H])c([H])c([H])c2C1([H])[H]

$$$$
19:0:0
     RDKit          3D

 95104  0  0  1  0  0  0  0  0999 V2000
  -31.3890  -22.5590   20.4180 C   0  0  0  0  0  2  0  0  0  0  0  0
  -30.8690  -23.9820   20.1480 C   0  0  0  0  0  2  0  0  0  0  0  0
  -29.0240  -22.4820   20.3350 C   0  0  0  0  0  2  0  0  0  0  0  0
  -30.2580  -21.6970   19.8690 C   0  0  0  0  0  3  0  0  0  0  0  0
  -29.3820  -23.9140   20.1860 N   0  0  2  0  0  4  0  0  0  0  0  0
  -29.0750  -24.3820   21.0290 H   0  0  0  0  0  0  0  0  0  0  0  0
  -30.3100  -19.8510   21.6220 C   0  0  0  0  0  3  0  0  0  0  0  0
  -30.1730  -18.5070   22.0240 C   0  0  0  0  0  3  0  0  0  0  0  0
  -30.0290  -17.8280   19.6980 C   0  0  0  0  0  3  0  0  0  0  0  0
  -30.2640  -20.2100   20.2550 C   0  0  0  0  0  0  0  0  0  0  0  0
  -29.9990  -17.4900   21.0630 C   0  0  0  0  0  0  0  0  0  0  0  0
  -30.1600  -19.1740   19.2850 C   0  0  0  0  0  0  0  0  0  0  0  0
  -30.1200  -19.4660   17.7930 C   0  0  0  0  0  1  0  0  0  0  0  0
  -29.6030  -16.0880   21.5130 C   0  0  0  0  0  2  0  0  0  0  0  0
  -30.8030  -14.3650   20.1900 C   0  0  0  0  0  0  0  0  0  0  0  0
  -30.4050  -12.3030   18.8810 C   0  0  0  0  0  2  0  0  0  0  0  0
  -29.3840  -12.5640   17.7530 C   0  0  0  0  0  2  0  0  0  0  0  0
  -27.9400  -12.4120   18.2680 C   0  0  0  0  0  2  0  0  0  0  0  0
  -27.6910  -13.2030   19.5770 C   0  0  0  0  0  3  0  0  0  0  0  0
  -28.8020  -12.8980   20.6110 C   0  0  0  0  0  2  0  0  0  0  0  0
  -30.1170  -13.2050   20.0070 N   0  0  0  0  0  0  0  0  0  0  0  0
  -31.7080  -14.7500   19.4440 O   0  0  0  0  0  0  0  0  0  0  0  0
  -30.5520  -14.9810   21.3520 N   0  0  0  0  0  0  0  0  0  0  0  0
  -30.3910  -14.2980   22.0760 H   0  0  0  0  0  0  0  0  0  0  0  0
  -25.3280  -13.8090   20.4170 C   0  0  0  0  0  0  0  0  0  0  0  0
  -24.2810  -13.0350   20.8390 C   0  0  0  0  0  0  0  0  0  0  0  0
  -24.7380  -11.6840   20.7680 C   0  0  0  0  0  0  0  0  0  0  0  0
  -26.3600  -12.9310   20.1210 N   0  0  0  0  0  0  0  0  0  0  0  0
  -26.0090  -11.6470   20.3860 N   0  0  0  0  0  0  0  0  0  0  0  0
  -24.0230  -10.4200   20.9810 C   0  0  0  0  0  0  0  0  0  0  0  0
  -24.4760   -9.4640   21.9170 C   0  0  0  0  0  3  0  0  0  0  0  0
  -23.7590   -8.2640   22.1190 C   0  0  0  0  0  3  0  0  0  0  0  0
  -22.5760   -8.0130   21.3840 C   0  0  0  0  0  0  0  0  0  0  0  0
  -22.1430   -8.9580   20.4370 C   0  0  0  0  0  3  0  0  0  0  0  0
  -22.8610  -10.1480   20.2330 C   0  0  0  0  0  3  0  0  0  0  0  0
  -21.8290   -6.8660   21.4970 O   0  0  0  0  0  0  0  0  0  0  0  0
  -21.7580   -6.1650   22.6730 C   0  0  0  0  0  0  0  0  0  0  0  0
  -21.3080   -6.7600   23.8710 C   0  0  0  0  0  3  0  0  0  0  0  0
  -21.1860   -5.9850   25.0410 C   0  0  0  0  0  3  0  0  0  0  0  0
  -21.5060   -4.6140   25.0150 C   0  0  0  0  0  0  0  0  0  0  0  0
  -21.9490   -4.0170   23.8210 C   0  0  0  0  0  3  0  0  0  0  0  0
  -22.0720   -4.7900   22.6530 C   0  0  0  0  0  0  0  0  0  0  0  0
  -22.4800   -4.2060   21.5010 F   0  0  0  0  0  0  0  0  0  0  0  0
  -21.3820   -3.8650   26.1350 F   0  0  0  0  0  0  0  0  0  0  0  0
  -22.9020  -13.5100   21.1980 C   0  0  0  0  0  0  0  0  0  0  0  0
  -22.2300  -12.8130   22.1080 N   0  0  0  0  0  0  0  0  0  0  0  0
  -22.4320  -14.5370   20.7080 O   0  0  0  0  0  0  0  0  0  0  0  0
  -22.6240  -11.9820   22.5230 H   0  0  0  0  0  0  0  0  0  0  0  0
  -21.3080  -13.1140   22.3920 H   0  0  0  0  0  0  0  0  0  0  0  0
  -25.4830  -15.1810   20.2410 N   0  0  0  0  0  0  0  0  0  0  0  0
  -24.7180  -15.8300   20.3930 H   0  0  0  0  0  0  0  0  0  0  0  0
  -26.3050  -15.6200   19.8480 H   0  0  0  0  0  0  0  0  0  0  0  0
  -28.6790  -24.5680   19.0450 C   0  0  0  0  0  2  0  0  0  0  0  0
  -28.9270  -26.0870   18.9280 C   0  0  0  0  0  2  0  0  0  0  0  0
  -28.5310  -26.7950   20.1040 O   0  0  0  0  0  0  0  0  0  0  0  0
  -24.6650  -31.8790   23.2050 C   0  0  0  0  0  0  0  0  0  0  0  0
  -27.3310  -27.4720   20.0940 C   0  0  0  0  0  0  0  0  0  0  0  0
  -23.4590  -30.4730   21.5620 C   0  0  0  0  0  3  0  0  0  0  0  0
  -24.9160  -28.9440   20.1330 C   0  0  0  0  0  0  0  0  0  0  0  0
  -25.9800  -30.8450   21.3610 C   0  0  0  0  0  2  0  0  0  0  0  0
  -26.0680  -29.4730   20.7250 C   0  0  0  0  0  0  0  0  0  0  0  0
  -27.2710  -28.7360   20.7190 C   0  0  0  0  0  3  0  0  0  0  0  0
  -26.1570  -26.9460   19.5050 C   0  0  0  0  0  3  0  0  0  0  0  0
  -24.9530  -27.6750   19.5270 C   0  0  0  0  0  3  0  0  0  0  0  0
  -23.6670  -29.7960   20.1820 C   0  0  0  0  0  2  0  0  0  0  0  0
  -24.7200  -31.0810   22.1010 N   0  0  0  0  0  0  0  0  0  0  0  0
  -23.5840  -32.1450   23.7500 O   0  0  0  0  0  0  0  0  0  0  0  0
  -22.8170  -29.4480   22.5230 C   0  0  0  0  0  0  0  0  0  0  0  0
  -21.4920  -29.2660   22.4050 N   0  0  0  0  0  0  0  0  0  0  0  0
  -23.5070  -28.8180   23.3300 O   0  0  0  0  0  0  0  0  0  0  0  0
  -20.9980  -29.8230   21.7220 H   0  0  0  0  0  0  0  0  0  0  0  0
  -18.1200  -28.0860   22.9330 C   0  0  0  0  0  0  0  0  0  0  0  0
  -20.6810  -28.3260   23.1790 C   0  0  0  0  0  3  0  0  0  0  0  0
  -20.7710  -26.9000   22.5870 C   0  0  0  0  0  2  0  0  0  0  0  0
  -19.6550  -26.5930   21.5840 C   0  0  0  0  0  2  0  0  0  0  0  0
  -18.2810  -26.7410   22.2450 C   0  0  0  0  0  2  0  0  0  0  0  0
  -19.2470  -28.8370   23.3580 C   0  0  0  0  0  0  0  0  0  0  0  0
  -19.0430  -30.0970   23.9620 C   0  0  0  0  0  3  0  0  0  0  0  0
  -17.7440  -30.6050   24.1460 C   0  0  0  0  0  3  0  0  0  0  0  0
  -16.6310  -29.8510   23.7360 C   0  0  0  0  0  3  0  0  0  0  0  0
  -16.8200  -28.5920   23.1370 C   0  0  0  0  0  3  0  0  0  0  0  0
  -25.9510  -32.5130   23.8210 C   0  0  0  0  0  3  0  0  0  0  0  0
  -26.4820  -31.7360   25.0870 C   0  0  1  0  0  0  0  0  0  0  0  0
  -25.3960  -31.4840   26.1600 C   0  0  0  0  0  1  0  0  0  0  0  0
  -27.0720  -30.3670   24.6790 C   0  0  0  0  0  1  0  0  0  0  0  0
  -27.6320  -32.5320   25.7470 C   0  0  0  0  0  1  0  0  0  0  0  0
  -25.6390  -33.9060   24.1600 N   0  0  0  0  0  0  0  0  0  0  0  0
  -25.9590  -34.9640   23.4010 C   0  0  0  0  0  0  0  0  0  0  0  0
  -26.6220  -34.8670   22.3650 O   0  0  0  0  0  0  0  0  0  0  0  0
  -25.0500  -34.0540   24.9670 H   0  0  0  0  0  0  0  0  0  0  0  0
  -24.2160  -36.7420   23.0600 C   0  0  0  0  0  1  0  0  0  0  0  0
  -25.4640  -36.3460   23.8650 C   0  0  0  0  0  3  0  0  0  0  0  0
  -27.5980  -37.2410   24.6870 C   0  0  0  0  0  1  0  0  0  0  0  0
  -26.4890  -37.4060   23.7510 N   0  0  0  0  0  0  0  0  0  0  0  0
  -26.0780  -38.3230   23.9070 H   0  0  0  0  0  0  0  0  0  0  0  0
  2  5  1  0
  2  1  1  0
  4 10  1  0
  4  3  1  0
  4  1  1  0
  5  3  1  0
  5  6  1  1
  7  8  1  0
  9 11  1  0
 10  7  2  0
 11 14  1  0
 11  8  2  0
 12  9  2  0
 12 10  1  0
 13 12  1  0
 15 23  1  0
 16 21  1  0
 17 18  1  0
 17 16  1  0
 19 18  1  0
 19 28  1  0
 19 20  1  0
 21 15  1  0
 21 20  1  0
 22 15  2  0
 23 14  1  0
 23 24  1  0
 25 26  2  0
 26 45  1  0
 27 26  1  0
 27 30  1  0
 28 29  1  0
 28 25  1  0
 29 27  2  0
 30 31  1  0
 31 32  2  0
 33 36  1  0
 33 32  1  0
 34 33  2  0
 35 34  1  0
 35 30  2  0
 36 37  1  0
 37 38  1  0
 38 39  2  0
 40 39  1  0
 40 44  1  0
 41 40  2  0
 42 37  2  0
 42 41  1  0
 43 42  1  0
 45 46  1  0
 46 49  1  0
 46 48  1  0
 47 45  2  0
 50 51  1  0
 50 25  1  0
 52 50  1  0
 53  5  1  0
 54 53  1  0
 54 55  1  0
 56 67  2  0
 57 55  1  0
 57 62  1  0
 58 66  1  0
 58 68  1  0
 59 65  1  0
 59 61  1  0
 60 66  1  0
 61 60  1  0
 62 61  2  0
 63 64  1  0
 63 57  2  0
 64 59  2  0
 65 58  1  0
 66 56  1  0
 68 70  2  0
 69 68  1  0
 71 69  1  0
 72 81  2  0
 72 77  1  0
 73 69  1  0
 73 77  1  0
 74 73  1  0
 75 76  1  0
 75 74  1  0
 76 72  1  0
 77 78  2  0
 78 79  1  0
 80 79  2  0
 81 80  1  0
 82 56  1  0
 82 87  1  0
 82 83  1  0
 83 86  1  1
 83 84  1  0
 85 83  1  0
 87 90  1  0
 88 92  1  0
 88 87  1  0
 89 88  2  0
 92 91  1  0
 94 92  1  0
 94 95  1  0
 94 93  1  0
M  ISO  4  15 100  23 100  54 101  55 101
M  END
>  <TORSDO>  (20) 
F 20

>  <SCORE>  (20) 
-13.342

>  <name>  (20) 
19

>  <ligand_id>  (20) 
19

>  <original_smiles>  (20) 
[H]c1c([H])c([H])c2c(c1[H])C([H])([H])C([H])([H])C([H])([H])C2([H])N([H])C(=O)C1([H])N(C(=O)C([H])(N([H])C(=O)C([H])(N([H])C([H])([H])[H])C([H])([H])[H])C(C([H])([H])[H])(C([H])([H])[H])C([H])([H])[H])C([H])([H])c2c([H])c(OC([H])([H])C([H])([H])[N+]3([H])C([H])([H])C([H])([H])C([H])(c4c([H])c([H])c(C([H])([H])N([H])C(=O)N5C([H])([H])C([H])([H])C([H])([H])C([H])(n6nc(-c7c([H])c([H])c(Oc8c([H])c([H])c(F)c([H])c8F)c([H])c7[H])c(C(=O)N([H])[H])c6N([H])[H])C5([H])[H])c([H])c4C([H])([H])[H])C3([H])[H])c([H])c([H])c2C1([H])[H]

>  <smiles>  (20) 
[H]c1c([H])c([H])c2c(c1[H])C([H])([H])C([H])([H])C([H])([H])C2([H])N([H])C(=O)C1([H])N(C(=O)C([H])(N([H])C(=O)C([H])(N([H])C([H])([H])[H])C([H])([H])[H])C(C([H])([H])[H])(C([H])([H])[H])C([H])([H])[H])C([H])([H])c2c([H])c(OC([H])([H])C([H])([H])[N+]3([H])C([H])([H])C([H])([H])C([H])(c4c([H])c([H])c(C([H])([H])N([H])C(=O)N5C([H])([H])C([H])([H])C([H])([H])C([H])(n6nc(-c7c([H])c([H])c(Oc8c([H])c([H])c(F)c([H])c8F)c([H])c7[H])c(C(=O)N([H])[H])c6N([H])[H])C5([H])[H])c([H])c4C([H])([H])[H])C3([H])[H])c([H])c([H])c2C1([H])[H]

$$$$
20:0:0
     RDKit          3D

 92101  0  0  1  0  0  0  0  0999 V2000
  -28.0050  -23.6250   20.1520 C   0  0  0  0  0  3  0  0  0  0  0  0
  -28.2610  -22.1640   20.0490 C   0  0  0  0  0  0  0  0  0  0  0  0
  -29.5470  -21.4920   20.2830 C   0  0  0  0  0  0  0  0  0  0  0  0
  -30.4560  -22.5880   20.6250 C   0  0  0  0  0  0  0  0  0  0  0  0
  -28.9780  -24.6390   20.4720 C   0  0  0  0  0  0  0  0  0  0  0  0
  -31.9080  -22.2530   20.8990 C   0  0  0  0  0  1  0  0  0  0  0  0
  -30.1850  -23.9850   20.7260 N   0  0  0  0  0  0  0  0  0  0  0  0
  -27.0230  -20.6440   18.2990 C   0  0  0  0  0  2  0  0  0  0  0  0
  -26.0660  -21.7600   18.6270 C   0  0  0  0  0  2  0  0  0  0  0  0
  -27.0870  -21.3120   19.6550 C   0  0  0  0  0  3  0  0  0  0  0  0
  -28.8560  -26.1490   20.7030 O   0  0  0  0  0  0  0  0  0  0  0  0
  -24.8580  -31.9650   23.3430 C   0  0  0  0  0  0  0  0  0  0  0  0
  -27.7530  -27.1360   20.6150 C   0  0  0  0  0  0  0  0  0  0  0  0
  -23.8110  -30.4920   21.6690 C   0  0  0  0  0  3  0  0  0  0  0  0
  -25.3920  -28.9040   20.3800 C   0  0  0  0  0  0  0  0  0  0  0  0
  -26.3680  -30.7960   21.6690 C   0  0  0  0  0  2  0  0  0  0  0  0
  -26.5220  -29.3750   21.0610 C   0  0  0  0  0  0  0  0  0  0  0  0
  -27.6960  -28.5090   21.1530 C   0  0  0  0  0  3  0  0  0  0  0  0
  -26.5940  -26.8020   19.8820 C   0  0  0  0  0  3  0  0  0  0  0  0
  -25.4510  -27.6370   19.7740 C   0  0  0  0  0  3  0  0  0  0  0  0
  -24.1430  -29.7830   20.3270 C   0  0  0  0  0  2  0  0  0  0  0  0
  -25.0290  -31.1140   22.2820 N   0  0  0  0  0  0  0  0  0  0  0  0
  -23.7310  -32.2300   23.7920 O   0  0  0  0  0  0  0  0  0  0  0  0
  -23.0950  -29.4950   22.6170 C   0  0  0  0  0  0  0  0  0  0  0  0
  -21.7750  -29.3070   22.4370 N   0  0  0  0  0  0  0  0  0  0  0  0
  -23.7350  -28.8900   23.4800 O   0  0  0  0  0  0  0  0  0  0  0  0
  -21.3120  -29.8460   21.7170 H   0  0  0  0  0  0  0  0  0  0  0  0
  -18.3730  -28.1390   22.9020 C   0  0  0  0  0  0  0  0  0  0  0  0
  -20.9360  -28.3640   23.1820 C   0  0  0  0  0  3  0  0  0  0  0  0
  -21.0190  -26.9430   22.5760 C   0  0  0  0  0  2  0  0  0  0  0  0
  -19.9170  -26.6590   21.5500 C   0  0  0  0  0  2  0  0  0  0  0  0
  -18.5340  -26.8060   22.1920 C   0  0  0  0  0  2  0  0  0  0  0  0
  -19.4990  -28.8780   23.3530 C   0  0  0  0  0  0  0  0  0  0  0  0
  -19.2910  -30.1270   23.9770 C   0  0  0  0  0  3  0  0  0  0  0  0
  -17.9910  -30.6350   24.1580 C   0  0  0  0  0  3  0  0  0  0  0  0
  -16.8800  -29.8930   23.7200 C   0  0  0  0  0  3  0  0  0  0  0  0
  -17.0720  -28.6470   23.0980 C   0  0  0  0  0  3  0  0  0  0  0  0
  -26.0690  -32.6620   24.0350 C   0  0  0  0  0  3  0  0  0  0  0  0
  -26.5170  -31.9470   25.3700 C   0  0  1  0  0  0  0  0  0  0  0  0
  -25.3430  -31.6120   26.3210 C   0  0  0  0  0  1  0  0  0  0  0  0
  -27.2630  -30.6270   25.0680 C   0  0  0  0  0  1  0  0  0  0  0  0
  -27.5110  -32.8490   26.1400 C   0  0  0  0  0  1  0  0  0  0  0  0
  -25.6910  -34.0600   24.3110 N   0  0  0  0  0  0  0  0  0  0  0  0
  -26.0260  -35.1110   23.5510 C   0  0  0  0  0  0  0  0  0  0  0  0
  -26.7490  -35.0080   22.5570 O   0  0  0  0  0  0  0  0  0  0  0  0
  -25.0540  -34.2090   25.0810 H   0  0  0  0  0  0  0  0  0  0  0  0
  -24.2490  -36.8350   23.0940 C   0  0  0  0  0  1  0  0  0  0  0  0
  -25.4730  -36.4930   23.9560 C   0  0  0  0  0  3  0  0  0  0  0  0
  -27.5460  -37.4770   24.8340 C   0  0  0  0  0  1  0  0  0  0  0  0
  -26.4710  -37.5800   23.8510 N   0  0  0  0  0  0  0  0  0  0  0  0
  -26.0260  -38.4880   23.9610 H   0  0  0  0  0  0  0  0  0  0  0  0
  -29.9080  -19.8160   19.8930 C   0  0  0  0  0  2  0  0  0  0  0  0
  -32.2160  -18.6460   20.6470 C   0  0  0  0  0  1  0  0  0  0  0  0
  -30.7020  -18.4010   20.6390 C   0  0  0  0  0  0  0  0  0  0  0  0
  -31.1510  -15.4850   20.3220 C   0  0  0  0  0  0  0  0  0  0  0  0
  -31.0390  -13.0650   19.4040 C   0  0  0  0  0  2  0  0  0  0  0  0
  -30.1100  -12.9170   18.1750 C   0  0  0  0  0  2  0  0  0  0  0  0
  -28.6530  -12.6920   18.6170 C   0  0  0  0  0  2  0  0  0  0  0  0
  -28.2380  -13.6520   19.7610 C   0  0  0  0  0  3  0  0  0  0  0  0
  -29.2940  -13.7460   20.8820 C   0  0  0  0  0  2  0  0  0  0  0  0
  -30.5360  -14.2100   20.2440 N   0  0  0  0  0  0  0  0  0  0  0  0
  -32.3740  -15.4440   20.1300 O   0  0  0  0  0  0  0  0  0  0  0  0
  -30.4200  -16.7700   20.4170 N   0  0  0  0  0  4  0  0  0  0  0  0
  -29.4290  -16.5800   20.4410 H   0  0  0  0  0  0  0  0  0  0  0  0
  -25.9180  -14.2770   20.6150 C   0  0  0  0  0  0  0  0  0  0  0  0
  -24.8210  -13.5320   20.9440 C   0  0  0  0  0  0  0  0  0  0  0  0
  -25.2100  -12.1660   20.7900 C   0  0  0  0  0  0  0  0  0  0  0  0
  -26.9040  -13.3690   20.2740 N   0  0  0  0  0  0  0  0  0  0  0  0
  -26.4910  -12.0860   20.4460 N   0  0  0  0  0  0  0  0  0  0  0  0
  -24.4140  -10.9340   20.8870 C   0  0  0  0  0  0  0  0  0  0  0  0
  -24.7780   -9.8860   21.7610 C   0  0  0  0  0  3  0  0  0  0  0  0
  -23.9830   -8.7230   21.8530 C   0  0  0  0  0  3  0  0  0  0  0  0
  -22.8120   -8.5980   21.0690 C   0  0  0  0  0  0  0  0  0  0  0  0
  -22.4670   -9.6350   20.1840 C   0  0  0  0  0  3  0  0  0  0  0  0
  -23.2610  -10.7890   20.0900 C   0  0  0  0  0  3  0  0  0  0  0  0
  -21.9930   -7.4950   21.0740 O   0  0  0  0  0  0  0  0  0  0  0  0
  -21.8060   -6.7410   22.2050 C   0  0  0  0  0  0  0  0  0  0  0  0
  -21.2910   -7.2990   23.3950 C   0  0  0  0  0  3  0  0  0  0  0  0
  -21.0500   -6.4750   24.5120 C   0  0  0  0  0  3  0  0  0  0  0  0
  -21.3140   -5.0950   24.4400 C   0  0  0  0  0  0  0  0  0  0  0  0
  -21.8210   -4.5360   23.2530 C   0  0  0  0  0  3  0  0  0  0  0  0
  -22.0640   -5.3580   22.1390 C   0  0  0  0  0  0  0  0  0  0  0  0
  -22.5330   -4.8110   20.9900 F   0  0  0  0  0  0  0  0  0  0  0  0
  -21.0750   -4.3010   25.5100 F   0  0  0  0  0  0  0  0  0  0  0  0
  -23.4590  -14.0620   21.2790 C   0  0  0  0  0  0  0  0  0  0  0  0
  -22.7200  -13.3610   22.1320 N   0  0  0  0  0  0  0  0  0  0  0  0
  -23.0600  -15.1330   20.8210 O   0  0  0  0  0  0  0  0  0  0  0  0
  -23.0550  -12.4940   22.5240 H   0  0  0  0  0  0  0  0  0  0  0  0
  -21.8040  -13.6970   22.3960 H   0  0  0  0  0  0  0  0  0  0  0  0
  -26.1540  -15.6470   20.5480 N   0  0  0  0  0  0  0  0  0  0  0  0
  -25.4180  -16.3250   20.7220 H   0  0  0  0  0  0  0  0  0  0  0  0
  -27.0010  -16.0660   20.1890 H   0  0  0  0  0  0  0  0  0  0  0  0
  1  5  1  0
  2  1  2  0
  2  3  1  0
  3  4  2  0
  4  7  1  0
  4  6  1  0
  5 11  1  0
  5  7  2  0
  8  9  1  0
  8 10  1  0
  9 10  1  0
 10  2  1  0
 12 23  2  0
 13 11  1  0
 13 18  1  0
 14 22  1  0
 14 24  1  0
 15 17  1  0
 16 22  1  0
 17 18  2  0
 17 16  1  0
 19 13  2  0
 20 19  1  0
 20 15  2  0
 21 15  1  0
 21 14  1  0
 22 12  1  0
 24 26  2  0
 25 24  1  0
 27 25  1  0
 28 37  2  0
 28 33  1  0
 29 25  1  0
 29 33  1  0
 30 29  1  0
 31 32  1  0
 31 30  1  0
 32 28  1  0
 33 34  2  0
 34 35  1  0
 36 35  2  0
 37 36  1  0
 38 12  1  0
 38 43  1  0
 38 39  1  0
 39 42  1  1
 39 40  1  0
 41 39  1  0
 43 46  1  0
 44 48  1  0
 44 43  1  0
 45 44  2  0
 48 47  1  0
 50 48  1  0
 50 51  1  0
 50 49  1  0
 52  3  1  0
 52 54  1  0
 54 53  1  0
 55 63  1  0
 56 61  1  0
 57 58  1  0
 57 56  1  0
 59 58  1  0
 59 68  1  0
 59 60  1  0
 61 55  1  0
 61 60  1  0
 62 55  2  0
 63 64  1  0
 63 54  2  0
 65 66  2  0
 66 85  1  0
 67 70  1  0
 67 66  1  0
 68 69  1  0
 68 65  1  0
 69 67  2  0
 70 71  1  0
 71 72  2  0
 73 76  1  0
 73 72  1  0
 74 73  2  0
 75 74  1  0
 75 70  2  0
 76 77  1  0
 77 78  1  0
 78 79  2  0
 80 79  1  0
 80 84  1  0
 81 80  2  0
 82 77  2  0
 82 81  1  0
 83 82  1  0
 85 86  1  0
 86 89  1  0
 86 88  1  0
 87 85  2  0
 90 65  1  0
 90 91  1  0
 92 90  1  0
M  ISO  4   5 101  11 101  55 100  63 100
M  END
>  <TORSDO>  (21) 
F 19

>  <SCORE>  (21) 
-13.816

>  <name>  (21) 
20

>  <ligand_id>  (21) 
20

>  <original_smiles>  (21) 
[H]c1c([H])c([H])c2c(c1[H])C([H])([H])C([H])([H])C([H])([H])C2([H])N([H])C(=O)C1([H])N(C(=O)C([H])(N([H])C(=O)C([H])(N([H])C([H])([H])[H])C([H])([H])[H])C(C([H])([H])[H])(C([H])([H])[H])C([H])([H])[H])C([H])([H])c2c([H])c(Oc3nc(C([H])([H])[H])c(C([H])([H])C([H])(N([H])C(=O)N4C([H])([H])C([H])([H])C([H])([H])C([H])(n5nc(-c6c([H])c([H])c(Oc7c([H])c([H])c(F)c([H])c7F)c([H])c6[H])c(C(=O)N([H])[H])c5N([H])[H])C4([H])[H])C([H])([H])[H])c(C4([H])C([H])([H])C4([H])[H])c3[H])c([H])c([H])c2C1([H])[H]

>  <smiles>  (21) 
[H]c1c([H])c([H])c2c(c1[H])C([H])([H])C([H])([H])C([H])([H])C2([H])N([H])C(=O)C1([H])N(C(=O)C([H])(N([H])C(=O)C([H])(N([H])C([H])([H])[H])C([H])([H])[H])C(C([H])([H])[H])(C([H])([H])[H])C([H])([H])[H])C([H])([H])c2c([H])c(Oc3nc(C([H])([H])[H])c(C([H])([H])C([H])(N([H])C(=O)N4C([H])([H])C([H])([H])C([H])([H])C([H])(n5nc(-c6c([H])c([H])c(Oc7c([H])c([H])c(F)c([H])c7F)c([H])c6[H])c(C(=O)N([H])[H])c5N([H])[H])C4([H])[H])C([H])([H])[H])c(C4([H])C([H])([H])C4([H])[H])c3[H])c([H])c([H])c2C1([H])[H]

$$$$
21:0:0
     RDKit          3D

104113  0  0  1  0  0  0  0  0999 V2000
  -30.5900  -17.3980   15.6860 C   0  0  0  0  0  3  0  0  0  0  0  0
  -29.5680  -17.2950   16.6480 C   0  0  0  0  0  3  0  0  0  0  0  0
  -30.4550  -19.8300   15.8070 C   0  0  0  0  0  3  0  0  0  0  0  0
  -31.0420  -18.6660   15.2690 C   0  0  0  0  0  0  0  0  0  0  0  0
  -28.9840  -18.4550   17.2030 C   0  0  0  0  0  0  0  0  0  0  0  0
  -29.4250  -19.7330   16.7690 C   0  0  0  0  0  0  0  0  0  0  0  0
  -32.1400  -18.7840   14.2310 C   0  0  0  0  0  1  0  0  0  0  0  0
  -29.2860  -22.0600   17.6450 C   0  0  0  0  0  0  0  0  0  0  0  0
  -28.7650  -20.8840   17.2630 N   0  0  0  0  0  0  0  0  0  0  0  0
  -30.4480  -22.4130   17.4340 O   0  0  0  0  0  0  0  0  0  0  0  0
  -27.7880  -20.7600   17.4920 H   0  0  0  0  0  0  0  0  0  0  0  0
  -27.6350  -24.0200   17.4950 C   0  0  0  0  0  2  0  0  0  0  0  0
  -28.8690  -23.4740   19.7830 C   0  0  0  0  0  2  0  0  0  0  0  0
  -28.1070  -25.4630   17.7150 C   0  0  0  0  0  2  0  0  0  0  0  0
  -29.2040  -24.9770   19.8600 C   0  0  0  0  0  2  0  0  0  0  0  0
  -28.3110  -22.9640   18.4150 C   0  0  0  0  0  3  0  0  0  0  0  0
  -28.0690  -25.7700   19.2220 C   0  0  0  0  0  3  0  0  0  0  0  0
  -28.1440  -27.1630   19.5270 O   0  0  0  0  0  0  0  0  0  0  0  0
  -24.3940  -32.0120   23.1700 C   0  0  0  0  0  0  0  0  0  0  0  0
  -26.9410  -27.8350   19.6620 C   0  0  0  0  0  0  0  0  0  0  0  0
  -23.1240  -30.6940   21.5080 C   0  0  0  0  0  3  0  0  0  0  0  0
  -24.5220  -29.2790   19.9270 C   0  0  0  0  0  0  0  0  0  0  0  0
  -25.6310  -31.1150   21.2020 C   0  0  0  0  0  2  0  0  0  0  0  0
  -25.7060  -29.7910   20.4720 C   0  0  0  0  0  0  0  0  0  0  0  0
  -26.9180  -29.0760   20.3370 C   0  0  0  0  0  3  0  0  0  0  0  0
  -25.7210  -27.3310   19.1440 C   0  0  0  0  0  3  0  0  0  0  0  0
  -24.5210  -28.0440   19.2670 C   0  0  0  0  0  3  0  0  0  0  0  0
  -23.2710  -30.1080   20.0810 C   0  0  0  0  0  2  0  0  0  0  0  0
  -24.4050  -31.2840   22.0190 N   0  0  0  0  0  0  0  0  0  0  0  0
  -23.3360  -32.2310   23.7770 O   0  0  0  0  0  0  0  0  0  0  0  0
  -22.5410  -29.6010   22.4330 C   0  0  0  0  0  0  0  0  0  0  0  0
  -21.2190  -29.3860   22.3450 N   0  0  0  0  0  0  0  0  0  0  0  0
  -23.2720  -28.9460   23.1800 O   0  0  0  0  0  0  0  0  0  0  0  0
  -20.6830  -29.9670   21.7170 H   0  0  0  0  0  0  0  0  0  0  0  0
  -17.9000  -28.0590   22.8840 C   0  0  0  0  0  0  0  0  0  0  0  0
  -20.4580  -28.3840   23.0920 C   0  0  0  0  0  3  0  0  0  0  0  0
  -20.5860  -26.9850   22.4460 C   0  0  0  0  0  2  0  0  0  0  0  0
  -19.4630  -26.6770   21.4490 C   0  0  0  0  0  2  0  0  0  0  0  0
  -18.0960  -26.7500   22.1380 C   0  0  0  0  0  2  0  0  0  0  0  0
  -19.0090  -28.8340   23.3190 C   0  0  0  0  0  0  0  0  0  0  0  0
  -18.7690  -30.0590   23.9770 C   0  0  0  0  0  3  0  0  0  0  0  0
  -17.4550  -30.5140   24.1960 C   0  0  0  0  0  3  0  0  0  0  0  0
  -16.3620  -29.7370   23.7750 C   0  0  0  0  0  3  0  0  0  0  0  0
  -16.5850  -28.5080   23.1310 C   0  0  0  0  0  3  0  0  0  0  0  0
  -25.7000  -32.6250   23.7640 C   0  0  0  0  0  3  0  0  0  0  0  0
  -25.3980  -34.0080   24.1560 N   0  0  0  0  0  0  0  0  0  0  0  0
  -25.7040  -35.0860   23.4220 C   0  0  0  0  0  0  0  0  0  0  0  0
  -26.3430  -35.0200   22.3680 O   0  0  0  0  0  0  0  0  0  0  0  0
  -24.8280  -34.1300   24.9810 H   0  0  0  0  0  0  0  0  0  0  0  0
  -23.9730  -36.8900   23.1540 C   0  0  0  0  0  1  0  0  0  0  0  0
  -25.2240  -36.4560   23.9370 C   0  0  0  0  0  3  0  0  0  0  0  0
  -27.3710  -37.3040   24.7730 C   0  0  0  0  0  1  0  0  0  0  0  0
  -26.2580  -37.5120   23.8500 N   0  0  0  0  0  0  0  0  0  0  0  0
  -25.8560  -38.4250   24.0450 H   0  0  0  0  0  0  0  0  0  0  0  0
  -26.2700  -31.8080   24.9860 C   0  0  1  0  0  0  0  0  0  0  0  0
  -25.2140  -31.4920   26.0690 C   0  0  0  0  0  1  0  0  0  0  0  0
  -26.8740  -30.4660   24.5120 C   0  0  0  0  0  1  0  0  0  0  0  0
  -27.4170  -32.5990   25.6560 C   0  0  0  0  0  1  0  0  0  0  0  0
  -27.8850  -18.3040   18.2580 C   0  0  0  0  0  2  0  0  0  0  0  0
  -28.3440  -18.6250   19.7000 C   0  0  0  0  0  2  0  0  0  0  0  0
  -29.5380  -17.8470   20.0880 N   0  0  0  0  0  4  0  0  0  0  0  0
  -30.3180  -18.1200   19.5110 H   0  0  0  0  0  0  0  0  0  0  0  0
  -29.3550  -16.8750   19.9150 H   0  0  0  0  0  0  0  0  0  0  0  0
  -29.9340  -17.9650   21.5080 C   0  0  0  0  0  2  0  0  0  0  0  0
  -31.1670  -16.8350   23.4340 C   0  0  0  0  0  1  0  0  0  0  0  0
  -30.9040  -16.8350   21.9210 C   0  0  0  0  0  3  0  0  0  0  0  0
  -30.8360  -14.7680   20.4970 C   0  0  0  0  0  0  0  0  0  0  0  0
  -30.4580  -12.7270   19.1700 C   0  0  0  0  0  2  0  0  0  0  0  0
  -29.5100  -12.9960   17.9860 C   0  0  0  0  0  2  0  0  0  0  0  0
  -28.0390  -12.8460   18.4190 C   0  0  0  0  0  2  0  0  0  0  0  0
  -27.7130  -13.6420   19.7100 C   0  0  0  0  0  3  0  0  0  0  0  0
  -28.7670  -13.3560   20.8040 C   0  0  0  0  0  2  0  0  0  0  0  0
  -30.1090  -13.6470   20.2610 N   0  0  0  0  0  0  0  0  0  0  0  0
  -31.8220  -15.0990   19.8330 O   0  0  0  0  0  0  0  0  0  0  0  0
  -30.3800  -15.5300   21.5000 N   0  0  0  0  0  0  0  0  0  0  0  0
  -29.6090  -15.1450   22.0260 H   0  0  0  0  0  0  0  0  0  0  0  0
  -25.3080  -14.2380   20.4260 C   0  0  0  0  0  0  0  0  0  0  0  0
  -24.2400  -13.4580   20.7780 C   0  0  0  0  0  0  0  0  0  0  0  0
  -24.7040  -12.1080   20.7310 C   0  0  0  0  0  0  0  0  0  0  0  0
  -26.3560  -13.3610   20.1810 N   0  0  0  0  0  0  0  0  0  0  0  0
  -25.9940  -12.0750   20.4210 N   0  0  0  0  0  0  0  0  0  0  0  0
  -23.9830  -10.8420   20.9090 C   0  0  0  0  0  0  0  0  0  0  0  0
  -24.3900   -9.8880   21.8690 C   0  0  0  0  0  3  0  0  0  0  0  0
  -23.6660   -8.6880   22.0340 C   0  0  0  0  0  3  0  0  0  0  0  0
  -22.5230   -8.4320   21.2400 C   0  0  0  0  0  0  0  0  0  0  0  0
  -22.1370   -9.3760   20.2700 C   0  0  0  0  0  3  0  0  0  0  0  0
  -22.8620  -10.5670   20.1020 C   0  0  0  0  0  3  0  0  0  0  0  0
  -21.7750   -7.2830   21.3160 O   0  0  0  0  0  0  0  0  0  0  0  0
  -21.6380   -6.5880   22.4900 C   0  0  0  0  0  0  0  0  0  0  0  0
  -21.0860   -7.1810   23.6470 C   0  0  0  0  0  3  0  0  0  0  0  0
  -20.8960   -6.4090   24.8110 C   0  0  0  0  0  3  0  0  0  0  0  0
  -21.2510   -5.0470   24.8190 C   0  0  0  0  0  0  0  0  0  0  0  0
  -21.7960   -4.4540   23.6670 C   0  0  0  0  0  3  0  0  0  0  0  0
  -21.9860   -5.2220   22.5050 C   0  0  0  0  0  0  0  0  0  0  0  0
  -22.4920   -4.6390   21.3930 F   0  0  0  0  0  0  0  0  0  0  0  0
  -21.0630   -4.3030   25.9360 F   0  0  0  0  0  0  0  0  0  0  0  0
  -22.8410  -13.9300   21.0570 C   0  0  0  0  0  0  0  0  0  0  0  0
  -22.1190  -13.2280   21.9240 N   0  0  0  0  0  0  0  0  0  0  0  0
  -22.3980  -14.9550   20.5420 O   0  0  0  0  0  0  0  0  0  0  0  0
  -22.4860  -12.3960   22.3640 H   0  0  0  0  0  0  0  0  0  0  0  0
  -21.1800  -13.5250   22.1520 H   0  0  0  0  0  0  0  0  0  0  0  0
  -25.4760  -15.6120   20.2880 N   0  0  0  0  0  0  0  0  0  0  0  0
  -24.7350  -16.2670   20.5100 H   0  0  0  0  0  0  0  0  0  0  0  0
  -26.3620  -16.0580   20.1170 H   0  0  0  0  0  0  0  0  0  0  0  0
  1  2  1  0
  2  5  2  0
  3  6  2  0
  4  1  2  0
  4  3  1  0
  5 59  1  0
  6  5  1  0
  6  9  1  0
  7  4  1  0
  9 11  1  0
  9  8  1  0
 10  8  2  0
 12 14  1  0
 12 16  1  0
 13 15  1  0
 14 17  1  0
 16  8  1  0
 16 13  1  0
 17 18  1  0
 17 15  1  0
 18 20  1  0
 19 30  2  0
 20 25  1  0
 21 29  1  0
 21 31  1  0
 22 28  1  0
 22 24  1  0
 23 29  1  0
 24 23  1  0
 25 24  2  0
 26 27  1  0
 26 20  2  0
 27 22  2  0
 28 21  1  0
 29 19  1  0
 31 33  2  0
 32 31  1  0
 34 32  1  0
 35 44  2  0
 35 40  1  0
 36 32  1  0
 36 40  1  0
 37 36  1  0
 38 39  1  0
 38 37  1  0
 39 35  1  0
 40 41  2  0
 41 42  1  0
 43 42  2  0
 44 43  1  0
 45 19  1  0
 45 46  1  0
 45 55  1  0
 46 49  1  0
 47 51  1  0
 47 46  1  0
 48 47  2  0
 51 50  1  0
 53 51  1  0
 53 54  1  0
 53 52  1  0
 55 58  1  1
 55 56  1  0
 57 55  1  0
 59 60  1  0
 60 61  1  0
 61 64  1  0
 62 61  1  0
 63 61  1  0
 64 66  1  0
 66 65  1  0
 67 75  1  0
 68 73  1  0
 69 70  1  0
 69 68  1  0
 71 70  1  0
 71 80  1  0
 71 72  1  0
 73 67  1  0
 73 72  1  0
 74 67  2  0
 75 66  1  0
 75 76  1  0
 77 78  2  0
 78 97  1  0
 79 78  1  0
 79 82  1  0
 80 81  1  0
 80 77  1  0
 81 79  2  0
 82 83  1  0
 83 84  2  0
 85 88  1  0
 85 84  1  0
 86 85  2  0
 87 86  1  0
 87 82  2  0
 88 89  1  0
 89 94  2  0
 89 90  1  0
 90 91  2  0
 91 92  1  0
 92 96  1  0
 93 92  2  0
 94 93  1  0
 95 94  1  0
 97 98  1  0
 98101  1  0
 98100  1  0
 99 97  2  0
102 77  1  0
102103  1  0
104102  1  0
M  ISO  4  17 101  18 101  67 100  75 100
M  END
>  <TORSDO>  (22) 
F 23

>  <SCORE>  (22) 
-9.726

>  <name>  (22) 
21

>  <ligand_id>  (22) 
21

>  <original_smiles>  (22) 
[H]c1c([H])c([H])c2c(c1[H])C([H])([H])C([H])([H])C([H])([H])C2([H])N([H])C(=O)C1([H])N(C(=O)C([H])(N([H])C(=O)C([H])(N([H])C([H])([H])[H])C([H])([H])[H])C(C([H])([H])[H])(C([H])([H])[H])C([H])([H])[H])C([H])([H])c2c([H])c(OC3([H])C([H])([H])C([H])([H])C([H])(C(=O)N([H])c4c([H])c(C([H])([H])[H])c([H])c([H])c4C([H])([H])C([H])([H])[N+]([H])([H])C([H])([H])C([H])(N([H])C(=O)N4C([H])([H])C([H])([H])C([H])([H])C([H])(n5nc(-c6c([H])c([H])c(Oc7c([H])c([H])c(F)c([H])c7F)c([H])c6[H])c(C(=O)N([H])[H])c5N([H])[H])C4([H])[H])C([H])([H])[H])C([H])([H])C3([H])[H])c([H])c([H])c2C1([H])[H]

>  <smiles>  (22) 
[H]c1c([H])c([H])c2c(c1[H])C([H])([H])C([H])([H])C([H])([H])C2([H])N([H])C(=O)C1([H])N(C(=O)C([H])(N([H])C(=O)C([H])(N([H])C([H])([H])[H])C([H])([H])[H])C(C([H])([H])[H])(C([H])([H])[H])C([H])([H])[H])C([H])([H])c2c([H])c(OC3([H])C([H])([H])C([H])([H])C([H])(C(=O)N([H])c4c([H])c(C([H])([H])[H])c([H])c([H])c4C([H])([H])C([H])([H])[N+]([H])([H])C([H])([H])C([H])(N([H])C(=O)N4C([H])([H])C([H])([H])C([H])([H])C([H])(n5nc(-c6c([H])c([H])c(Oc7c([H])c([H])c(F)c([H])c7F)c([H])c6[H])c(C(=O)N([H])[H])c5N([H])[H])C4([H])[H])C([H])([H])[H])C([H])([H])C3([H])[H])c([H])c([H])c2C1([H])[H]

$$$$
22:0:0
     RDKit          3D

 94103  0  0  1  0  0  0  0  0999 V2000
  -29.2870  -21.4260   19.7700 C   0  0  0  0  0  3  0  0  0  0  0  0
  -27.1300  -22.3510   19.1870 C   0  0  0  0  0  3  0  0  0  0  0  0
  -28.3570  -22.5220   19.8470 C   0  0  0  0  0  0  0  0  0  0  0  0
  -28.9710  -20.2480   19.0020 C   0  0  0  0  0  0  0  0  0  0  0  0
  -27.6920  -20.2470   18.3790 C   0  0  0  0  0  0  0  0  0  0  0  0
  -27.2280  -19.0880   17.5110 C   0  0  0  0  0  1  0  0  0  0  0  0
  -26.8010  -21.2530   18.4800 N   0  0  0  0  0  0  0  0  0  0  0  0
  -29.8470  -19.1550   18.6980 N   0  0  0  0  0  0  0  0  0  0  0  0
  -29.5370  -18.6100   17.8990 H   0  0  0  0  0  0  0  0  0  0  0  0
  -30.6910  -18.3390   19.6070 C   0  0  0  0  0  2  0  0  0  0  0  0
  -31.4360  -14.8140   19.7290 C   0  0  0  0  0  0  0  0  0  0  0  0
  -31.0900  -12.5430   18.7660 C   0  0  0  0  0  2  0  0  0  0  0  0
  -30.0900  -12.6040   17.5930 C   0  0  0  0  0  2  0  0  0  0  0  0
  -28.6380  -12.5040   18.0960 C   0  0  0  0  0  2  0  0  0  0  0  0
  -28.3580  -13.4630   19.2850 C   0  0  0  0  0  3  0  0  0  0  0  0
  -29.4590  -13.3540   20.3570 C   0  0  0  0  0  2  0  0  0  0  0  0
  -30.7580  -13.6250   19.7150 N   0  0  0  0  0  0  0  0  0  0  0  0
  -32.4760  -14.9710   19.0770 O   0  0  0  0  0  0  0  0  0  0  0  0
  -30.1970  -16.9480   22.4790 C   0  0  0  0  0  2  0  0  0  0  0  0
  -29.2050  -17.2070   21.3440 C   0  0  0  0  0  2  0  0  0  0  0  0
  -31.1170  -15.8520   21.9330 C   0  0  0  0  0  2  0  0  0  0  0  0
  -30.0220  -16.9680   20.0610 C   0  0  0  0  0  3  0  0  0  0  0  0
  -30.9170  -15.8370   20.4800 N   0  0  0  0  0  0  0  0  0  0  0  0
  -26.0680  -14.1870   20.2010 C   0  0  0  0  0  0  0  0  0  0  0  0
  -24.9870  -13.4700   20.6400 C   0  0  0  0  0  0  0  0  0  0  0  0
  -25.3630  -12.0950   20.5440 C   0  0  0  0  0  0  0  0  0  0  0  0
  -27.0340  -13.2530   19.8620 N   0  0  0  0  0  0  0  0  0  0  0  0
  -26.6190  -11.9890   20.1290 N   0  0  0  0  0  0  0  0  0  0  0  0
  -24.5780  -10.8740   20.7670 C   0  0  0  0  0  0  0  0  0  0  0  0
  -24.9430   -9.9310   21.7520 C   0  0  0  0  0  3  0  0  0  0  0  0
  -24.1600   -8.7750   21.9580 C   0  0  0  0  0  3  0  0  0  0  0  0
  -23.0000   -8.5540   21.1790 C   0  0  0  0  0  0  0  0  0  0  0  0
  -22.6550   -9.4860   20.1840 C   0  0  0  0  0  3  0  0  0  0  0  0
  -23.4370  -10.6330   19.9770 C   0  0  0  0  0  3  0  0  0  0  0  0
  -22.1950   -7.4450   21.2900 O   0  0  0  0  0  0  0  0  0  0  0  0
  -21.9830   -6.8300   22.4980 C   0  0  0  0  0  0  0  0  0  0  0  0
  -21.4540   -7.5270   23.6060 C   0  0  0  0  0  3  0  0  0  0  0  0
  -21.1830   -6.8390   24.8060 C   0  0  0  0  0  3  0  0  0  0  0  0
  -21.4330   -5.4560   24.8970 C   0  0  0  0  0  0  0  0  0  0  0  0
  -21.9550   -4.7590   23.7940 C   0  0  0  0  0  3  0  0  0  0  0  0
  -22.2270   -5.4440   22.5960 C   0  0  0  0  0  0  0  0  0  0  0  0
  -22.7110   -4.7640   21.5290 F   0  0  0  0  0  0  0  0  0  0  0  0
  -21.1650   -4.7940   26.0470 F   0  0  0  0  0  0  0  0  0  0  0  0
  -23.6480  -14.0260   21.0320 C   0  0  0  0  0  0  0  0  0  0  0  0
  -22.9620  -13.3730   21.9630 N   0  0  0  0  0  0  0  0  0  0  0  0
  -23.2260  -15.0740   20.5480 O   0  0  0  0  0  0  0  0  0  0  0  0
  -23.3150  -12.5250   22.3810 H   0  0  0  0  0  0  0  0  0  0  0  0
  -22.0690  -13.7340   22.2680 H   0  0  0  0  0  0  0  0  0  0  0  0
  -26.3040  -15.5490   20.0430 N   0  0  0  0  0  0  0  0  0  0  0  0
  -25.6130  -16.2540   20.2690 H   0  0  0  0  0  0  0  0  0  0  0  0
  -27.1740  -15.9390   19.7070 H   0  0  0  0  0  0  0  0  0  0  0  0
  -28.5630  -23.8340   20.6730 C   0  0  0  0  0  3  0  0  0  0  0  0
  -28.6550  -25.2050   19.8780 C   0  0  0  0  0  3  0  0  0  0  0  0
  -28.4610  -26.4620   20.6270 O   0  0  0  0  0  0  0  0  0  0  0  0
  -24.5860  -31.8950   23.3320 C   0  0  0  0  0  0  0  0  0  0  0  0
  -27.2990  -27.2400   20.5270 C   0  0  0  0  0  0  0  0  0  0  0  0
  -23.4370  -30.4400   21.7030 C   0  0  0  0  0  3  0  0  0  0  0  0
  -24.9290  -28.8360   20.3950 C   0  0  0  0  0  0  0  0  0  0  0  0
  -25.9810  -30.7530   21.5910 C   0  0  0  0  0  2  0  0  0  0  0  0
  -26.0780  -29.3520   21.0040 C   0  0  0  0  0  0  0  0  0  0  0  0
  -27.2660  -28.5660   21.0570 C   0  0  0  0  0  3  0  0  0  0  0  0
  -26.1130  -26.7600   19.9220 C   0  0  0  0  0  3  0  0  0  0  0  0
  -24.9450  -27.5420   19.8540 C   0  0  0  0  0  3  0  0  0  0  0  0
  -23.6990  -29.7150   20.3580 C   0  0  0  0  0  2  0  0  0  0  0  0
  -24.6860  -31.0470   22.2680 N   0  0  0  0  0  0  0  0  0  0  0  0
  -23.4840  -32.1910   23.8180 O   0  0  0  0  0  0  0  0  0  0  0  0
  -22.7380  -29.4580   22.6770 C   0  0  0  0  0  0  0  0  0  0  0  0
  -21.4250  -29.2510   22.4900 N   0  0  0  0  0  0  0  0  0  0  0  0
  -23.3800  -28.8860   23.5630 O   0  0  0  0  0  0  0  0  0  0  0  0
  -20.9640  -29.7630   21.7480 H   0  0  0  0  0  0  0  0  0  0  0  0
  -18.0470  -28.0040   22.8600 C   0  0  0  0  0  0  0  0  0  0  0  0
  -20.5810  -28.3360   23.2610 C   0  0  0  0  0  3  0  0  0  0  0  0
  -20.7460  -26.8810   22.7700 C   0  0  0  0  0  2  0  0  0  0  0  0
  -19.7100  -26.4770   21.7150 C   0  0  0  0  0  2  0  0  0  0  0  0
  -18.2890  -26.6270   22.2640 C   0  0  0  0  0  2  0  0  0  0  0  0
  -19.1240  -28.8120   23.3140 C   0  0  0  0  0  0  0  0  0  0  0  0
  -18.8470  -30.0970   23.8250 C   0  0  0  0  0  3  0  0  0  0  0  0
  -17.5260  -30.5800   23.8840 C   0  0  0  0  0  3  0  0  0  0  0  0
  -16.4620  -29.7710   23.4490 C   0  0  0  0  0  3  0  0  0  0  0  0
  -16.7240  -28.4860   22.9450 C   0  0  0  0  0  3  0  0  0  0  0  0
  -25.8500  -32.5490   23.9730 C   0  0  0  0  0  3  0  0  0  0  0  0
  -26.3240  -31.8230   25.2920 C   0  0  1  0  0  0  0  0  0  0  0  0
  -25.1900  -31.5920   26.3160 C   0  0  0  0  0  1  0  0  0  0  0  0
  -26.9540  -30.4480   24.9670 C   0  0  0  0  0  1  0  0  0  0  0  0
  -27.4220  -32.6640   25.9840 C   0  0  0  0  0  1  0  0  0  0  0  0
  -25.5290  -33.9590   24.2410 N   0  0  0  0  0  0  0  0  0  0  0  0
  -25.8800  -34.9840   23.4530 C   0  0  0  0  0  0  0  0  0  0  0  0
  -26.5780  -34.8430   22.4450 O   0  0  0  0  0  0  0  0  0  0  0  0
  -24.9180  -34.1430   25.0230 H   0  0  0  0  0  0  0  0  0  0  0  0
  -24.1630  -36.7600   22.9810 C   0  0  0  0  0  1  0  0  0  0  0  0
  -25.3800  -36.3880   23.8440 C   0  0  0  0  0  3  0  0  0  0  0  0
  -27.4960  -37.3010   24.6940 C   0  0  0  0  0  1  0  0  0  0  0  0
  -26.4160  -37.4370   23.7200 N   0  0  0  0  0  0  0  0  0  0  0  0
  -26.0070  -38.3620   23.8280 H   0  0  0  0  0  0  0  0  0  0  0  0
  1  3  1  0
  2  3  2  0
  3 52  1  0
  4  1  2  0
  5  7  2  0
  5  4  1  0
  6  5  1  0
  7  2  1  0
  8  4  1  0
  8 10  1  0
  9  8  1  0
 11 23  1  0
 12 17  1  0
 13 14  1  0
 13 12  1  0
 15 14  1  0
 15 27  1  0
 15 16  1  0
 17 11  1  0
 17 16  1  0
 18 11  2  0
 20 19  1  0
 21 19  1  0
 22 10  1  0
 22 23  1  0
 22 20  1  0
 23 21  1  0
 24 25  2  0
 25 44  1  0
 26 25  1  0
 26 29  1  0
 27 28  1  0
 27 24  1  0
 28 26  2  0
 29 30  1  0
 30 31  2  0
 32 35  1  0
 32 31  1  0
 33 32  2  0
 34 33  1  0
 34 29  2  0
 35 36  1  0
 36 41  2  0
 36 37  1  0
 37 38  2  0
 38 39  1  0
 39 43  1  0
 40 39  2  0
 41 40  1  0
 42 41  1  0
 44 45  1  0
 45 48  1  0
 45 47  1  0
 46 44  2  0
 49 24  1  0
 49 50  1  0
 51 49  1  0
 53 54  1  0
 53 52  2  0
 55 66  2  0
 56 54  1  0
 56 61  1  0
 57 65  1  0
 57 67  1  0
 58 60  1  0
 59 65  1  0
 60 61  2  0
 60 59  1  0
 62 56  2  0
 63 62  1  0
 63 58  2  0
 64 58  1  0
 64 57  1  0
 65 55  1  0
 67 69  2  0
 68 67  1  0
 70 68  1  0
 71 80  2  0
 71 76  1  0
 72 68  1  0
 72 76  1  0
 73 72  1  0
 74 75  1  0
 74 73  1  0
 75 71  1  0
 76 77  2  0
 77 78  1  0
 79 78  2  0
 80 79  1  0
 81 55  1  0
 81 86  1  0
 81 82  1  0
 82 85  1  1
 82 83  1  0
 84 82  1  0
 86 89  1  0
 87 91  1  0
 87 86  1  0
 88 87  2  0
 91 90  1  0
 93 94  1  0
 93 91  1  0
 93 92  1  0
M  ISO  4  11 100  23 100  53 101  54 101
M  END
>  <TORSDO>  (23) 
F 20

>  <SCORE>  (23) 
-12.468

>  <name>  (23) 
22

>  <ligand_id>  (23) 
22

>  <original_smiles>  (23) 
[H]c1nc(C([H])([H])[H])c(N([H])C([H])([H])C2([H])N(C(=O)N3C([H])([H])C([H])([H])C([H])([H])C([H])(n4nc(-c5c([H])c([H])c(Oc6c([H])c([H])c(F)c([H])c6F)c([H])c5[H])c(C(=O)N([H])[H])c4N([H])[H])C3([H])[H])C([H])([H])C([H])([H])C2([H])[H])c([H])c1C([H])([H])C([H])([H])Oc1c([H])c([H])c2c(c1[H])C([H])([H])N(C(=O)C([H])(N([H])C(=O)C([H])(N([H])C([H])([H])[H])C([H])([H])[H])C(C([H])([H])[H])(C([H])([H])[H])C([H])([H])[H])C([H])(C(=O)N([H])C1([H])c3c([H])c([H])c([H])c([H])c3C([H])([H])C([H])([H])C1([H])[H])C2([H])[H]

>  <smiles>  (23) 
[H]c1nc(C([H])([H])[H])c(N([H])C([H])([H])C2([H])N(C(=O)N3C([H])([H])C([H])([H])C([H])([H])C([H])(n4nc(-c5c([H])c([H])c(Oc6c([H])c([H])c(F)c([H])c6F)c([H])c5[H])c(C(=O)N([H])[H])c4N([H])[H])C3([H])[H])C([H])([H])C([H])([H])C2([H])[H])c([H])c1C([H])([H])C([H])([H])Oc1c([H])c([H])c2c(c1[H])C([H])([H])N(C(=O)C([H])(N([H])C(=O)C([H])(N([H])C([H])([H])[H])C([H])([H])[H])C(C([H])([H])[H])(C([H])([H])[H])C([H])([H])[H])C([H])(C(=O)N([H])C1([H])c3c([H])c([H])c([H])c([H])c3C([H])([H])C([H])([H])C1([H])[H])C2([H])[H]

$$$$
23:0:0
     RDKit          3D

 96105  0  0  1  0  0  0  0  0999 V2000
  -28.5160  -22.7310   21.8490 C   0  0  0  0  0  3  0  0  0  0  0  0
  -28.3920  -24.1070   22.1350 C   0  0  0  0  0  3  0  0  0  0  0  0
  -29.8900  -24.6120   20.2910 C   0  0  0  0  0  3  0  0  0  0  0  0
  -29.3410  -22.2770   20.7870 C   0  0  0  0  0  0  0  0  0  0  0  0
  -29.0800  -25.0480   21.3470 C   0  0  0  0  0  0  0  0  0  0  0  0
  -30.0120  -23.2450   19.9890 C   0  0  0  0  0  0  0  0  0  0  0  0
  -30.8620  -22.9050   18.7740 C   0  0  0  0  0  1  0  0  0  0  0  0
  -29.5590  -19.8360   21.7500 C   0  0  0  0  0  2  0  0  0  0  0  0
  -28.6700  -20.1770   19.4220 C   0  0  0  0  0  2  0  0  0  0  0  0
  -29.4540  -18.3420   21.3370 C   0  0  0  0  0  2  0  0  0  0  0  0
  -29.2940  -18.8500   18.9130 C   0  0  0  0  0  2  0  0  0  0  0  0
  -29.5540  -20.7810   20.5250 C   0  0  0  0  0  3  0  0  0  0  0  0
  -29.9970  -18.0670   19.9770 N   0  0  1  0  0  4  0  0  0  0  0  0
  -29.7840  -17.1010   19.7730 H   0  0  0  0  0  0  0  0  0  0  0  0
  -31.4870  -18.1030   19.8980 C   0  0  0  0  0  2  0  0  0  0  0  0
  -32.1580  -16.9710   20.7020 C   0  0  0  0  0  2  0  0  0  0  0  0
  -31.8620  -14.7410   19.6300 C   0  0  0  0  0  0  0  0  0  0  0  0
  -31.4060  -12.4710   18.7770 C   0  0  0  0  0  2  0  0  0  0  0  0
  -30.4020  -12.5000   17.6100 C   0  0  0  0  0  2  0  0  0  0  0  0
  -28.9500  -12.4860   18.1280 C   0  0  0  0  0  2  0  0  0  0  0  0
  -28.7070  -13.5440   19.2350 C   0  0  0  0  0  3  0  0  0  0  0  0
  -29.8040  -13.4560   20.3180 C   0  0  0  0  0  2  0  0  0  0  0  0
  -31.1200  -13.6060   19.6660 N   0  0  0  0  0  0  0  0  0  0  0  0
  -32.8230  -14.9090   18.8740 O   0  0  0  0  0  0  0  0  0  0  0  0
  -31.4940  -15.6790   20.5150 N   0  0  0  0  0  0  0  0  0  0  0  0
  -30.7740  -15.4150   21.1720 H   0  0  0  0  0  0  0  0  0  0  0  0
  -26.4690  -14.4000   20.1830 C   0  0  0  0  0  0  0  0  0  0  0  0
  -25.3470  -13.7430   20.6100 C   0  0  0  0  0  0  0  0  0  0  0  0
  -25.6240  -12.3500   20.4620 C   0  0  0  0  0  0  0  0  0  0  0  0
  -27.3700  -13.4140   19.8120 N   0  0  0  0  0  0  0  0  0  0  0  0
  -26.8670  -12.1730   20.0320 N   0  0  0  0  0  0  0  0  0  0  0  0
  -24.7610  -11.1760   20.6460 C   0  0  0  0  0  0  0  0  0  0  0  0
  -25.1060  -10.1420   21.5440 C   0  0  0  0  0  3  0  0  0  0  0  0
  -24.2510   -9.0310   21.7170 C   0  0  0  0  0  3  0  0  0  0  0  0
  -23.0380   -8.9490   20.9940 C   0  0  0  0  0  0  0  0  0  0  0  0
  -22.7110   -9.9700   20.0850 C   0  0  0  0  0  3  0  0  0  0  0  0
  -23.5640  -11.0730   19.9080 C   0  0  0  0  0  3  0  0  0  0  0  0
  -22.1600   -7.8970   21.0790 O   0  0  0  0  0  0  0  0  0  0  0  0
  -21.9870   -7.1960   22.2460 C   0  0  0  0  0  0  0  0  0  0  0  0
  -21.5770   -7.8280   23.4400 C   0  0  0  0  0  3  0  0  0  0  0  0
  -21.3430   -7.0600   24.5980 C   0  0  0  0  0  3  0  0  0  0  0  0
  -21.5090   -5.6620   24.5630 C   0  0  0  0  0  0  0  0  0  0  0  0
  -21.9100   -5.0310   23.3720 C   0  0  0  0  0  3  0  0  0  0  0  0
  -22.1450   -5.7960   22.2160 C   0  0  0  0  0  0  0  0  0  0  0  0
  -22.5120   -5.1810   21.0660 F   0  0  0  0  0  0  0  0  0  0  0  0
  -21.2770   -4.9230   25.6720 F   0  0  0  0  0  0  0  0  0  0  0  0
  -24.0500  -14.3690   21.0360 C   0  0  0  0  0  0  0  0  0  0  0  0
  -23.3260  -13.7240   21.9440 N   0  0  0  0  0  0  0  0  0  0  0  0
  -23.6940  -15.4620   20.5970 O   0  0  0  0  0  0  0  0  0  0  0  0
  -23.6300  -12.8390   22.3240 H   0  0  0  0  0  0  0  0  0  0  0  0
  -22.4560  -14.1230   22.2680 H   0  0  0  0  0  0  0  0  0  0  0  0
  -26.7900  -15.7480   20.0530 N   0  0  0  0  0  0  0  0  0  0  0  0
  -26.0700  -16.4530   20.1690 H   0  0  0  0  0  0  0  0  0  0  0  0
  -27.5540  -16.0610   19.4700 H   0  0  0  0  0  0  0  0  0  0  0  0
  -28.9170  -26.5360   21.5570 C   0  0  0  0  0  2  0  0  0  0  0  0
  -28.5600  -27.1360   20.3150 O   0  0  0  0  0  0  0  0  0  0  0  0
  -24.4540  -32.0330   23.3890 C   0  0  0  0  0  0  0  0  0  0  0  0
  -27.3660  -27.7960   20.3250 C   0  0  0  0  0  0  0  0  0  0  0  0
  -23.3500  -30.6160   21.6810 C   0  0  0  0  0  3  0  0  0  0  0  0
  -24.9080  -29.1610   20.2800 C   0  0  0  0  0  0  0  0  0  0  0  0
  -25.8620  -31.0770   21.5850 C   0  0  0  0  0  2  0  0  0  0  0  0
  -26.0150  -29.7270   20.9230 C   0  0  0  0  0  0  0  0  0  0  0  0
  -27.2450  -29.0490   20.9530 C   0  0  0  0  0  3  0  0  0  0  0  0
  -26.2540  -27.2290   19.6710 C   0  0  0  0  0  3  0  0  0  0  0  0
  -25.0170  -27.9030   19.6530 C   0  0  0  0  0  3  0  0  0  0  0  0
  -23.6290  -29.9660   20.2980 C   0  0  0  0  0  2  0  0  0  0  0  0
  -24.5680  -31.2580   22.2740 N   0  0  0  0  0  0  0  0  0  0  0  0
  -23.3480  -32.2570   23.9000 O   0  0  0  0  0  0  0  0  0  0  0  0
  -22.7090  -29.5570   22.6050 C   0  0  0  0  0  0  0  0  0  0  0  0
  -21.4120  -29.2840   22.3920 N   0  0  0  0  0  0  0  0  0  0  0  0
  -23.3780  -28.9800   23.4650 O   0  0  0  0  0  0  0  0  0  0  0  0
  -20.9340  -29.8030   21.6690 H   0  0  0  0  0  0  0  0  0  0  0  0
  -18.1100  -27.8440   22.6400 C   0  0  0  0  0  0  0  0  0  0  0  0
  -20.6100  -28.2970   23.1130 C   0  0  0  0  0  3  0  0  0  0  0  0
  -20.8680  -26.8710   22.5720 C   0  0  0  0  0  2  0  0  0  0  0  0
  -19.8780  -26.4560   21.4780 C   0  0  0  0  0  2  0  0  0  0  0  0
  -18.4420  -26.5040   22.0060 C   0  0  0  0  0  2  0  0  0  0  0  0
  -19.1300  -28.6940   23.1440 C   0  0  0  0  0  0  0  0  0  0  0  0
  -18.7700  -29.9460   23.6890 C   0  0  0  0  0  3  0  0  0  0  0  0
  -17.4220  -30.3490   23.7390 C   0  0  0  0  0  3  0  0  0  0  0  0
  -16.4150  -29.4980   23.2510 C   0  0  0  0  0  3  0  0  0  0  0  0
  -16.7600  -28.2470   22.7080 C   0  0  0  0  0  3  0  0  0  0  0  0
  -25.7000  -32.6940   24.0600 C   0  0  0  0  0  3  0  0  0  0  0  0
  -26.1340  -31.9810   25.4000 C   0  0  1  0  0  0  0  0  0  0  0  0
  -24.9660  -31.7690   26.3900 C   0  0  0  0  0  1  0  0  0  0  0  0
  -26.7660  -30.5990   25.1120 C   0  0  0  0  0  1  0  0  0  0  0  0
  -27.2230  -32.8210   26.1110 C   0  0  0  0  0  1  0  0  0  0  0  0
  -25.3710  -34.1040   24.3060 N   0  0  0  0  0  0  0  0  0  0  0  0
  -25.7530  -35.1210   23.5210 C   0  0  0  0  0  0  0  0  0  0  0  0
  -26.4880  -34.9740   22.5410 O   0  0  0  0  0  0  0  0  0  0  0  0
  -24.7320  -34.2960   25.0620 H   0  0  0  0  0  0  0  0  0  0  0  0
  -24.0510  -36.8880   22.9710 C   0  0  0  0  0  1  0  0  0  0  0  0
  -25.2350  -36.5280   23.8820 C   0  0  0  0  0  3  0  0  0  0  0  0
  -27.3120  -37.4490   24.8120 C   0  0  0  0  0  1  0  0  0  0  0  0
  -26.2740  -37.5760   23.7920 N   0  0  0  0  0  0  0  0  0  0  0  0
  -25.8600  -38.5020   23.8780 H   0  0  0  0  0  0  0  0  0  0  0  0
  1  2  1  0
  3  5  1  0
  4  1  2  0
  5 55  1  0
  5  2  2  0
  6  3  2  0
  6  4  1  0
  7  6  1  0
  9 12  1  0
 10  8  1  0
 11  9  1  0
 11 13  1  0
 12  4  1  0
 12  8  1  0
 13 10  1  0
 13 14  1  6
 15 13  1  0
 15 16  1  0
 17 23  1  0
 17 25  1  0
 18 23  1  0
 19 20  1  0
 19 18  1  0
 21 20  1  0
 21 30  1  0
 21 22  1  0
 23 22  1  0
 24 17  2  0
 25 16  1  0
 25 26  1  0
 27 28  2  0
 28 47  1  0
 29 28  1  0
 29 32  1  0
 30 31  1  0
 30 27  1  0
 31 29  2  0
 32 33  1  0
 33 34  2  0
 35 38  1  0
 35 34  1  0
 36 35  2  0
 37 36  1  0
 37 32  2  0
 38 39  1  0
 39 40  1  0
 40 41  2  0
 42 41  1  0
 42 46  1  0
 43 42  2  0
 44 39  2  0
 44 43  1  0
 45 44  1  0
 47 48  1  0
 48 51  1  0
 48 50  1  0
 49 47  2  0
 52 53  1  0
 52 27  1  0
 54 52  1  0
 56 58  1  0
 56 55  1  0
 57 68  2  0
 58 63  1  0
 59 67  1  0
 59 69  1  0
 60 66  1  0
 60 62  1  0
 61 67  1  0
 62 63  2  0
 62 61  1  0
 64 58  2  0
 65 64  1  0
 65 60  2  0
 66 59  1  0
 67 57  1  0
 69 71  2  0
 70 69  1  0
 72 70  1  0
 73 82  2  0
 73 78  1  0
 74 70  1  0
 74 78  1  0
 75 74  1  0
 76 77  1  0
 76 75  1  0
 77 73  1  0
 78 79  2  0
 79 80  1  0
 81 80  2  0
 82 81  1  0
 83 57  1  0
 83 88  1  0
 83 84  1  0
 84 87  1  1
 84 85  1  0
 86 84  1  0
 88 91  1  0
 89 93  1  0
 89 88  1  0
 90 89  2  0
 93 92  1  0
 95 96  1  0
 95 93  1  0
 95 94  1  0
M  ISO  4  17 100  25 100  55 101  56 101
M  END
>  <TORSDO>  (24) 
F 20

>  <SCORE>  (24) 
-11.316

>  <name>  (24) 
23

>  <ligand_id>  (24) 
23

>  <original_smiles>  (24) 
[H]c1c([H])c([H])c2c(c1[H])C([H])([H])C([H])([H])C([H])([H])C2([H])N([H])C(=O)C1([H])N(C(=O)C([H])(N([H])C(=O)C([H])(N([H])C([H])([H])[H])C([H])([H])[H])C(C([H])([H])[H])(C([H])([H])[H])C([H])([H])[H])C([H])([H])c2c([H])c(OC([H])([H])c3c([H])c([H])c(C4([H])C([H])([H])C([H])([H])[N+]([H])(C([H])([H])C([H])([H])N([H])C(=O)N5C([H])([H])C([H])([H])C([H])([H])C([H])(n6nc(-c7c([H])c([H])c(Oc8c([H])c([H])c(F)c([H])c8F)c([H])c7[H])c(C(=O)N([H])[H])c6N([H])[H])C5([H])[H])C([H])([H])C4([H])[H])c(C([H])([H])[H])c3[H])c([H])c([H])c2C1([H])[H]

>  <smiles>  (24) 
[H]c1c([H])c([H])c2c(c1[H])C([H])([H])C([H])([H])C([H])([H])C2([H])N([H])C(=O)C1([H])N(C(=O)C([H])(N([H])C(=O)C([H])(N([H])C([H])([H])[H])C([H])([H])[H])C(C([H])([H])[H])(C([H])([H])[H])C([H])([H])[H])C([H])([H])c2c([H])c(OC([H])([H])c3c([H])c([H])c(C4([H])C([H])([H])C([H])([H])[N+]([H])(C([H])([H])C([H])([H])N([H])C(=O)N5C([H])([H])C([H])([H])C([H])([H])C([H])(n6nc(-c7c([H])c([H])c(Oc8c([H])c([H])c(F)c([H])c8F)c([H])c7[H])c(C(=O)N([H])[H])c6N([H])[H])C5([H])[H])C([H])([H])C4([H])[H])c(C([H])([H])[H])c3[H])c([H])c([H])c2C1([H])[H]

$$$$
24:0:0
     RDKit          3D

 95104  0  0  1  0  0  0  0  0999 V2000
  -29.8220  -20.4100   20.3420 C   0  0  0  0  0  2  0  0  0  0  0  0
  -30.8770  -15.1380   21.1770 C   0  0  0  0  0  0  0  0  0  0  0  0
  -30.8450  -12.7340   20.4750 C   0  0  0  0  0  2  0  0  0  0  0  0
  -30.1050  -12.5540   19.1350 C   0  0  0  0  0  2  0  0  0  0  0  0
  -28.5920  -12.3680   19.3740 C   0  0  0  0  0  2  0  0  0  0  0  0
  -28.0080  -13.3920   20.3850 C   0  0  0  0  0  3  0  0  0  0  0  0
  -28.8990  -13.5760   21.6280 C   0  0  0  0  0  2  0  0  0  0  0  0
  -30.2380  -13.9140   21.1320 N   0  0  0  0  0  0  0  0  0  0  0  0
  -32.0980  -15.1290   21.3780 O   0  0  0  0  0  0  0  0  0  0  0  0
  -30.2640  -16.7220   17.9870 C   0  0  0  0  0  2  0  0  0  0  0  0
  -29.6180  -18.1110   17.8700 C   0  0  0  0  0  2  0  0  0  0  0  0
  -31.1220  -16.5290   19.2390 C   0  0  0  0  0  2  0  0  0  0  0  0
  -30.0290  -17.6610   21.0530 C   0  0  0  0  0  2  0  0  0  0  0  0
  -29.1750  -18.8810   20.2880 C   0  0  0  0  0  3  0  0  0  0  0  0
  -28.5090  -18.4600   18.9010 C   0  0  1  0  0  0  0  0  0  0  0  0
  -30.3430  -16.2520   20.4750 N   0  0  0  0  0  0  0  0  0  0  0  0
  -25.5550  -13.9740   20.8590 C   0  0  0  0  0  0  0  0  0  0  0  0
  -24.4480  -13.2080   21.0620 C   0  0  0  0  0  0  0  0  0  0  0  0
  -24.9060  -11.8560   21.0670 C   0  0  0  0  0  0  0  0  0  0  0  0
  -26.6190  -13.0980   20.7230 N   0  0  0  0  0  0  0  0  0  0  0  0
  -26.2260  -11.8130   20.9230 N   0  0  0  0  0  0  0  0  0  0  0  0
  -24.1510  -10.6030   21.1400 C   0  0  0  0  0  0  0  0  0  0  0  0
  -24.4720   -9.6040   22.0850 C   0  0  0  0  0  3  0  0  0  0  0  0
  -23.7180   -8.4150   22.1470 C   0  0  0  0  0  3  0  0  0  0  0  0
  -22.6300   -8.2170   21.2660 C   0  0  0  0  0  0  0  0  0  0  0  0
  -22.3290   -9.2080   20.3140 C   0  0  0  0  0  3  0  0  0  0  0  0
  -23.0830  -10.3890   20.2480 C   0  0  0  0  0  3  0  0  0  0  0  0
  -21.8520   -7.0840   21.2400 O   0  0  0  0  0  0  0  0  0  0  0  0
  -21.6970   -6.2980   22.3540 C   0  0  0  0  0  0  0  0  0  0  0  0
  -21.1760   -6.8110   23.5620 C   0  0  0  0  0  3  0  0  0  0  0  0
  -20.9690   -5.9500   24.6580 C   0  0  0  0  0  3  0  0  0  0  0  0
  -21.2700   -4.5790   24.5460 C   0  0  0  0  0  0  0  0  0  0  0  0
  -21.7820   -4.0670   23.3400 C   0  0  0  0  0  3  0  0  0  0  0  0
  -21.9940   -4.9240   22.2480 C   0  0  0  0  0  0  0  0  0  0  0  0
  -22.4670   -4.4210   21.0820 F   0  0  0  0  0  0  0  0  0  0  0  0
  -21.0620   -3.7510   25.5970 F   0  0  0  0  0  0  0  0  0  0  0  0
  -23.0310  -13.7010   21.1470 C   0  0  0  0  0  0  0  0  0  0  0  0
  -22.1880  -13.0110   21.9060 N   0  0  0  0  0  0  0  0  0  0  0  0
  -22.6780  -14.7340   20.5780 O   0  0  0  0  0  0  0  0  0  0  0  0
  -22.4850  -12.1770   22.3910 H   0  0  0  0  0  0  0  0  0  0  0  0
  -21.2340  -13.3220   22.0100 H   0  0  0  0  0  0  0  0  0  0  0  0
  -25.7340  -15.3420   20.7580 N   0  0  0  0  0  0  0  0  0  0  0  0
  -24.9470  -15.9780   20.7460 H   0  0  0  0  0  0  0  0  0  0  0  0
  -26.6010  -15.7740   20.4700 H   0  0  0  0  0  0  0  0  0  0  0  0
  -26.3240  -19.9730   18.9320 C   0  0  0  0  0  1  0  0  0  0  0  0
  -27.6470  -19.5790   18.2410 C   0  0  0  0  0  2  0  0  0  0  0  0
  -26.8100  -16.7560   17.8330 C   0  0  0  0  0  1  0  0  0  0  0  0
  -27.5360  -17.2670   19.1010 C   0  0  0  0  0  2  0  0  0  0  0  0
  -29.4750  -22.9100   21.5220 C   0  0  0  0  0  2  0  0  0  0  0  0
  -28.9240  -22.7350   19.1200 C   0  0  0  0  0  2  0  0  0  0  0  0
  -28.6570  -24.2860   21.6070 C   0  0  0  0  0  2  0  0  0  0  0  0
  -29.1540  -24.3060   19.1810 C   0  0  0  0  0  2  0  0  0  0  0  0
  -29.0120  -21.8590   20.4380 C   0  0  0  0  0  3  0  0  0  0  0  0
  -28.3220  -25.0470   20.2670 C   0  0  0  0  0  3  0  0  0  0  0  0
  -28.4310  -26.5600   20.2760 O   0  0  0  0  0  0  0  0  0  0  0  0
  -24.5960  -31.9640   23.2540 C   0  0  0  0  0  0  0  0  0  0  0  0
  -27.2960  -27.4110   20.2120 C   0  0  0  0  0  0  0  0  0  0  0  0
  -23.4180  -30.5400   21.6160 C   0  0  0  0  0  3  0  0  0  0  0  0
  -24.8990  -29.0090   20.1860 C   0  0  0  0  0  0  0  0  0  0  0  0
  -25.9530  -30.8920   21.4360 C   0  0  0  0  0  2  0  0  0  0  0  0
  -26.0580  -29.5080   20.7960 C   0  0  0  0  0  0  0  0  0  0  0  0
  -27.2540  -28.7210   20.8000 C   0  0  0  0  0  3  0  0  0  0  0  0
  -26.1240  -26.9960   19.5400 C   0  0  0  0  0  3  0  0  0  0  0  0
  -24.9420  -27.7630   19.5380 C   0  0  0  0  0  3  0  0  0  0  0  0
  -23.6450  -29.8650   20.2360 C   0  0  0  0  0  2  0  0  0  0  0  0
  -24.6730  -31.1520   22.1570 N   0  0  0  0  0  0  0  0  0  0  0  0
  -23.5090  -32.2230   23.7910 O   0  0  0  0  0  0  0  0  0  0  0  0
  -22.7720  -29.5160   22.5790 C   0  0  0  0  0  0  0  0  0  0  0  0
  -21.4490  -29.3160   22.4520 N   0  0  0  0  0  0  0  0  0  0  0  0
  -23.4600  -28.9050   23.4000 O   0  0  0  0  0  0  0  0  0  0  0  0
  -20.9520  -29.8620   21.7620 H   0  0  0  0  0  0  0  0  0  0  0  0
  -18.0920  -28.0540   22.9450 C   0  0  0  0  0  0  0  0  0  0  0  0
  -20.6450  -28.3660   23.2240 C   0  0  0  0  0  3  0  0  0  0  0  0
  -20.7750  -26.9330   22.6520 C   0  0  0  0  0  2  0  0  0  0  0  0
  -19.6820  -26.5870   21.6350 C   0  0  0  0  0  2  0  0  0  0  0  0
  -18.2960  -26.7060   22.2740 C   0  0  0  0  0  2  0  0  0  0  0  0
  -19.1940  -28.8390   23.3760 C   0  0  0  0  0  0  0  0  0  0  0  0
  -18.9470  -30.1000   23.9620 C   0  0  0  0  0  3  0  0  0  0  0  0
  -17.6300  -30.5740   24.1230 C   0  0  0  0  0  3  0  0  0  0  0  0
  -16.5440  -29.7850   23.7080 C   0  0  0  0  0  3  0  0  0  0  0  0
  -16.7750  -28.5280   23.1230 C   0  0  0  0  0  3  0  0  0  0  0  0
  -25.8680  -32.6210   23.8740 C   0  0  0  0  0  3  0  0  0  0  0  0
  -26.3880  -31.8670   25.1590 C   0  0  1  0  0  0  0  0  0  0  0  0
  -25.2940  -31.6210   26.2250 C   0  0  0  0  0  1  0  0  0  0  0  0
  -26.9880  -30.4930   24.7820 C   0  0  0  0  0  1  0  0  0  0  0  0
  -27.5260  -32.6800   25.8170 C   0  0  0  0  0  1  0  0  0  0  0  0
  -25.5370  -34.0170   24.1920 N   0  0  0  0  0  0  0  0  0  0  0  0
  -25.8650  -35.0710   23.4350 C   0  0  0  0  0  0  0  0  0  0  0  0
  -26.5530  -34.9700   22.4130 O   0  0  0  0  0  0  0  0  0  0  0  0
  -24.9250  -34.1640   24.9820 H   0  0  0  0  0  0  0  0  0  0  0  0
  -24.1230  -36.8460   23.0470 C   0  0  0  0  0  1  0  0  0  0  0  0
  -25.3570  -36.4570   23.8780 C   0  0  0  0  0  3  0  0  0  0  0  0
  -27.4720  -37.3690   24.7320 C   0  0  0  0  0  1  0  0  0  0  0  0
  -26.3810  -37.5210   23.7730 N   0  0  0  0  0  0  0  0  0  0  0  0
  -25.9640  -38.4390   23.9080 H   0  0  0  0  0  0  0  0  0  0  0  0
  2  9  2  0
  3  8  1  0
  4  5  1  0
  4  3  1  0
  6  5  1  0
  6 20  1  0
  6  7  1  0
  8  2  1  0
  8  7  1  0
 10 12  1  0
 11 10  1  0
 11 15  1  0
 12 16  1  0
 14  1  1  0
 14 13  1  0
 15 48  1  1
 15 14  1  0
 16 13  1  0
 16  2  1  0
 17 18  2  0
 18 19  1  0
 18 37  1  0
 19 22  1  0
 20 17  1  0
 20 21  1  0
 21 19  2  0
 22 23  1  0
 23 24  2  0
 25 24  1  0
 26 25  2  0
 27 26  1  0
 27 22  2  0
 28 25  1  0
 28 29  1  0
 29 30  1  0
 30 31  2  0
 32 31  1  0
 32 36  1  0
 33 32  2  0
 34 29  2  0
 34 33  1  0
 35 34  1  0
 37 38  1  0
 38 41  1  0
 38 40  1  0
 39 37  2  0
 42 17  1  0
 43 42  1  0
 44 42  1  0
 46 15  1  0
 46 45  1  0
 47 48  1  0
 49 51  1  0
 50 52  1  0
 50 53  1  0
 52 54  1  0
 53  1  1  0
 53 49  1  0
 54 55  1  0
 54 51  1  0
 56 67  2  0
 57 55  1  0
 57 62  1  0
 58 66  1  0
 58 68  1  0
 59 65  1  0
 59 61  1  0
 60 66  1  0
 61 62  2  0
 61 60  1  0
 63 57  2  0
 64 63  1  0
 64 59  2  0
 65 58  1  0
 66 56  1  0
 68 70  2  0
 69 68  1  0
 71 69  1  0
 72 81  2  0
 72 77  1  0
 73 69  1  0
 73 77  1  0
 74 73  1  0
 75 76  1  0
 75 74  1  0
 76 72  1  0
 77 78  2  0
 78 79  1  0
 80 79  2  0
 81 80  1  0
 82 56  1  0
 82 87  1  0
 82 83  1  0
 83 86  1  1
 83 84  1  0
 85 83  1  0
 87 90  1  0
 88 92  1  0
 88 87  1  0
 89 88  2  0
 92 91  1  0
 94 92  1  0
 94 95  1  0
 94 93  1  0
M  ISO  4   2 100  16 100  54 101  55 101
M  END
>  <TORSDO>  (25) 
F 19

>  <SCORE>  (25) 
-10.473

>  <name>  (25) 
24

>  <ligand_id>  (25) 
24

>  <original_smiles>  (25) 
[H]c1c([H])c([H])c2c(c1[H])C([H])([H])C([H])([H])C([H])([H])C2([H])N([H])C(=O)C1([H])N(C(=O)C([H])(N([H])C(=O)C([H])(N([H])C([H])([H])[H])C([H])([H])[H])C(C([H])([H])[H])(C([H])([H])[H])C([H])([H])[H])C([H])([H])c2c([H])c(OC3([H])C([H])([H])C([H])([H])C([H])(C([H])([H])C4([H])C([H])([H])N(C(=O)N5C([H])([H])C([H])([H])C([H])([H])C([H])(n6nc(-c7c([H])c([H])c(Oc8c([H])c([H])c(F)c([H])c8F)c([H])c7[H])c(C(=O)N([H])[H])c6N([H])[H])C5([H])[H])C([H])([H])C([H])([H])C([H])([H])C4(C([H])([H])C([H])([H])[H])C([H])([H])C([H])([H])[H])C([H])([H])C3([H])[H])c([H])c([H])c2C1([H])[H]

>  <smiles>  (25) 
[H]c1c([H])c([H])c2c(c1[H])C([H])([H])C([H])([H])C([H])([H])C2([H])N([H])C(=O)C1([H])N(C(=O)C([H])(N([H])C(=O)C([H])(N([H])C([H])([H])[H])C([H])([H])[H])C(C([H])([H])[H])(C([H])([H])[H])C([H])([H])[H])C([H])([H])c2c([H])c(OC3([H])C([H])([H])C([H])([H])C([H])(C([H])([H])C4([H])C([H])([H])N(C(=O)N5C([H])([H])C([H])([H])C([H])([H])C([H])(n6nc(-c7c([H])c([H])c(Oc8c([H])c([H])c(F)c([H])c8F)c([H])c7[H])c(C(=O)N([H])[H])c6N([H])[H])C5([H])[H])C([H])([H])C([H])([H])C([H])([H])C4(C([H])([H])C([H])([H])[H])C([H])([H])C([H])([H])[H])C([H])([H])C3([H])[H])c([H])c([H])c2C1([H])[H]

$$$$
25:0:0
     RDKit          3D

 92101  0  0  1  0  0  0  0  0999 V2000
  -28.8380  -19.3690   20.7930 C   0  0  0  0  0  3  0  0  0  0  0  0
  -28.3570  -20.6790   20.9680 C   0  0  0  0  0  3  0  0  0  0  0  0
  -30.0600  -19.1600   20.1210 C   0  0  0  0  0  0  0  0  0  0  0  0
  -30.7210  -20.3190   19.6320 C   0  0  0  0  0  0  0  0  0  0  0  0
  -29.0980  -21.7640   20.4770 C   0  0  0  0  0  0  0  0  0  0  0  0
  -32.0200  -20.2150   18.8540 C   0  0  0  0  0  1  0  0  0  0  0  0
  -30.2630  -21.5860   19.8140 N   0  0  0  0  0  0  0  0  0  0  0  0
  -31.8960  -17.3910   20.6710 C   0  0  0  0  0  2  0  0  0  0  0  0
  -30.6120  -17.7480   19.9590 C   0  0  0  0  0  3  0  0  0  0  0  0
  -30.6060  -16.7200   21.1010 C   0  0  0  0  0  3  0  0  0  0  0  0
  -30.7450  -14.5000   19.8690 C   0  0  0  0  0  0  0  0  0  0  0  0
  -30.2110  -12.4750   18.5310 C   0  0  0  0  0  2  0  0  0  0  0  0
  -29.1550  -12.7570   17.4430 C   0  0  0  0  0  2  0  0  0  0  0  0
  -27.7320  -12.5980   18.0080 C   0  0  0  0  0  2  0  0  0  0  0  0
  -27.5400  -13.3660   19.3370 C   0  0  0  0  0  3  0  0  0  0  0  0
  -28.6880  -13.0680   20.3210 C   0  0  0  0  0  2  0  0  0  0  0  0
  -29.9780  -13.3820   19.6720 N   0  0  0  0  0  0  0  0  0  0  0  0
  -31.6240  -14.8210   19.0660 O   0  0  0  0  0  0  0  0  0  0  0  0
  -30.5280  -14.6570   22.2990 C   0  0  0  0  0  1  0  0  0  0  0  0
  -30.4670  -15.2700   20.9620 N   0  0  0  0  0  0  0  0  0  0  0  0
  -25.2290  -13.9630   20.3080 C   0  0  0  0  0  0  0  0  0  0  0  0
  -24.1980  -13.1840   20.7600 C   0  0  0  0  0  0  0  0  0  0  0  0
  -24.6420  -11.8310   20.6390 C   0  0  0  0  0  0  0  0  0  0  0  0
  -26.2380  -13.0840   19.9410 N   0  0  0  0  0  0  0  0  0  0  0  0
  -25.8920  -11.7950   20.1970 N   0  0  0  0  0  0  0  0  0  0  0  0
  -23.9270  -10.5680   20.8630 C   0  0  0  0  0  0  0  0  0  0  0  0
  -24.4090   -9.5960   21.7670 C   0  0  0  0  0  3  0  0  0  0  0  0
  -23.6940   -8.3980   21.9780 C   0  0  0  0  0  3  0  0  0  0  0  0
  -22.4840   -8.1610   21.2840 C   0  0  0  0  0  0  0  0  0  0  0  0
  -22.0200   -9.1220   20.3680 C   0  0  0  0  0  3  0  0  0  0  0  0
  -22.7350  -10.3120   20.1560 C   0  0  0  0  0  3  0  0  0  0  0  0
  -21.7370   -7.0140   21.4060 O   0  0  0  0  0  0  0  0  0  0  0  0
  -21.7080   -6.2940   22.5720 C   0  0  0  0  0  0  0  0  0  0  0  0
  -21.2990   -6.8710   23.7940 C   0  0  0  0  0  3  0  0  0  0  0  0
  -21.2160   -6.0770   24.9550 C   0  0  0  0  0  3  0  0  0  0  0  0
  -21.5340   -4.7070   24.8960 C   0  0  0  0  0  0  0  0  0  0  0  0
  -21.9360   -4.1290   23.6790 C   0  0  0  0  0  3  0  0  0  0  0  0
  -22.0190   -4.9210   22.5200 C   0  0  0  0  0  0  0  0  0  0  0  0
  -22.3870   -4.3550   21.3450 F   0  0  0  0  0  0  0  0  0  0  0  0
  -21.4470   -3.9420   26.0090 F   0  0  0  0  0  0  0  0  0  0  0  0
  -22.8400  -13.6600   21.1890 C   0  0  0  0  0  0  0  0  0  0  0  0
  -22.2090  -12.9510   22.1190 N   0  0  0  0  0  0  0  0  0  0  0  0
  -22.3520  -14.6930   20.7350 O   0  0  0  0  0  0  0  0  0  0  0  0
  -22.6200  -12.1140   22.5040 H   0  0  0  0  0  0  0  0  0  0  0  0
  -21.3030  -13.2510   22.4510 H   0  0  0  0  0  0  0  0  0  0  0  0
  -25.3870  -15.3380   20.1600 N   0  0  0  0  0  0  0  0  0  0  0  0
  -24.6420  -15.9920   20.3750 H   0  0  0  0  0  0  0  0  0  0  0  0
  -26.2040  -15.7830   19.7610 H   0  0  0  0  0  0  0  0  0  0  0  0
  -28.5950  -23.0390   20.6790 O   0  0  0  0  0  0  0  0  0  0  0  0
  -29.2760  -24.2380   20.2590 C   0  0  0  0  0  2  0  0  0  0  0  0
  -28.1630  -25.2480   19.8610 C   0  0  0  0  0  2  0  0  0  0  0  0
  -28.3500  -26.6650   20.1180 O   0  0  0  0  0  0  0  0  0  0  0  0
  -24.5300  -31.8840   23.2070 C   0  0  0  0  0  0  0  0  0  0  0  0
  -27.1930  -27.4440   20.0870 C   0  0  0  0  0  0  0  0  0  0  0  0
  -23.3320  -30.4780   21.5680 C   0  0  0  0  0  3  0  0  0  0  0  0
  -24.7910  -28.9690   20.1230 C   0  0  0  0  0  0  0  0  0  0  0  0
  -25.8610  -30.8480   21.3650 C   0  0  0  0  0  2  0  0  0  0  0  0
  -25.9540  -29.4810   20.7120 C   0  0  0  0  0  0  0  0  0  0  0  0
  -27.1570  -28.7280   20.6910 C   0  0  0  0  0  3  0  0  0  0  0  0
  -26.0040  -26.9720   19.4740 C   0  0  0  0  0  3  0  0  0  0  0  0
  -24.8140  -27.7150   19.5010 C   0  0  0  0  0  3  0  0  0  0  0  0
  -23.5400  -29.8150   20.1840 C   0  0  0  0  0  2  0  0  0  0  0  0
  -24.5930  -31.0850   22.1040 N   0  0  0  0  0  0  0  0  0  0  0  0
  -23.4490  -32.1450   23.7510 O   0  0  0  0  0  0  0  0  0  0  0  0
  -22.6960  -29.4430   22.5260 C   0  0  0  0  0  0  0  0  0  0  0  0
  -21.3760  -29.2340   22.3940 N   0  0  0  0  0  0  0  0  0  0  0  0
  -23.3880  -28.8310   23.3450 O   0  0  0  0  0  0  0  0  0  0  0  0
  -20.8780  -29.7800   21.7040 H   0  0  0  0  0  0  0  0  0  0  0  0
  -18.0230  -27.9700   22.8750 C   0  0  0  0  0  0  0  0  0  0  0  0
  -20.5730  -28.2820   23.1630 C   0  0  0  0  0  3  0  0  0  0  0  0
  -20.7090  -26.8510   22.5950 C   0  0  0  0  0  2  0  0  0  0  0  0
  -19.6200  -26.5010   21.5740 C   0  0  0  0  0  2  0  0  0  0  0  0
  -18.2310  -26.6220   22.2070 C   0  0  0  0  0  2  0  0  0  0  0  0
  -19.1230  -28.7570   23.3090 C   0  0  0  0  0  0  0  0  0  0  0  0
  -18.8750  -30.0200   23.8910 C   0  0  0  0  0  3  0  0  0  0  0  0
  -17.5600  -30.4930   24.0470 C   0  0  0  0  0  3  0  0  0  0  0  0
  -16.4740  -29.7040   23.6320 C   0  0  0  0  0  3  0  0  0  0  0  0
  -16.7070  -28.4460   23.0500 C   0  0  0  0  0  3  0  0  0  0  0  0
  -25.8130  -32.5280   23.8200 C   0  0  0  0  0  3  0  0  0  0  0  0
  -26.3550  -31.7510   25.0830 C   0  0  1  0  0  0  0  0  0  0  0  0
  -25.2720  -31.4730   26.1520 C   0  0  0  0  0  1  0  0  0  0  0  0
  -26.9700  -30.3950   24.6690 C   0  0  0  0  0  1  0  0  0  0  0  0
  -27.4870  -32.5660   25.7510 C   0  0  0  0  0  1  0  0  0  0  0  0
  -25.4870  -33.9180   24.1670 N   0  0  0  0  0  0  0  0  0  0  0  0
  -25.7980  -34.9830   23.4160 C   0  0  0  0  0  0  0  0  0  0  0  0
  -26.4620  -34.8990   22.3790 O   0  0  0  0  0  0  0  0  0  0  0  0
  -24.8990  -34.0570   24.9760 H   0  0  0  0  0  0  0  0  0  0  0  0
  -24.0430  -36.7550   23.0870 C   0  0  0  0  0  1  0  0  0  0  0  0
  -25.2920  -36.3580   23.8910 C   0  0  0  0  0  3  0  0  0  0  0  0
  -27.4160  -37.2620   24.7270 C   0  0  0  0  0  1  0  0  0  0  0  0
  -26.3090  -37.4270   23.7890 N   0  0  0  0  0  0  0  0  0  0  0  0
  -25.8900  -38.3390   23.9490 H   0  0  0  0  0  0  0  0  0  0  0  0
  1  2  2  0
  3  1  1  0
  4  7  1  0
  4  3  2  0
  5 49  1  0
  5  2  1  0
  6  4  1  0
  7  5  2  0
  8 10  1  0
  9  3  1  0
  9  8  1  0
  9 10  1  0
 10 20  1  0
 11 20  1  0
 12 17  1  0
 13 14  1  0
 13 12  1  0
 15 14  1  0
 15 24  1  0
 15 16  1  0
 17 11  1  0
 17 16  1  0
 18 11  2  0
 20 19  1  0
 21 22  2  0
 22 41  1  0
 23 22  1  0
 23 26  1  0
 24 25  1  0
 24 21  1  0
 25 23  2  0
 26 27  1  0
 27 28  2  0
 29 32  1  0
 29 28  1  0
 30 29  2  0
 31 30  1  0
 31 26  2  0
 32 33  1  0
 33 34  1  0
 34 35  2  0
 36 35  1  0
 36 40  1  0
 37 36  2  0
 38 33  2  0
 38 37  1  0
 39 38  1  0
 41 42  1  0
 42 45  1  0
 42 44  1  0
 43 41  2  0
 46 21  1  0
 46 47  1  0
 48 46  1  0
 50 49  1  0
 51 52  1  0
 51 50  1  0
 53 64  2  0
 54 52  1  0
 54 59  1  0
 55 63  1  0
 55 65  1  0
 56 62  1  0
 56 58  1  0
 57 63  1  0
 58 57  1  0
 59 58  2  0
 60 61  1  0
 60 54  2  0
 61 56  2  0
 62 55  1  0
 63 53  1  0
 65 67  2  0
 66 65  1  0
 68 66  1  0
 69 78  2  0
 69 74  1  0
 70 66  1  0
 70 74  1  0
 71 70  1  0
 72 73  1  0
 72 71  1  0
 73 69  1  0
 74 75  2  0
 75 76  1  0
 77 76  2  0
 78 77  1  0
 79 53  1  0
 79 84  1  0
 79 80  1  0
 80 83  1  1
 80 81  1  0
 82 80  1  0
 84 87  1  0
 85 89  1  0
 85 84  1  0
 86 85  2  0
 89 88  1  0
 91 89  1  0
 91 92  1  0
 91 90  1  0
M  ISO  4  11 100  20 100  51 101  52 101
M  END
>  <TORSDO>  (26) 
F 20

>  <SCORE>  (26) 
-12.222

>  <name>  (26) 
25

>  <ligand_id>  (26) 
25

>  <original_smiles>  (26) 
[H]c1c(OC([H])([H])C([H])([H])Oc2c([H])c([H])c3c(c2[H])C([H])([H])N(C(=O)C([H])(N([H])C(=O)C([H])(N([H])C([H])([H])[H])C([H])([H])[H])C(C([H])([H])[H])(C([H])([H])[H])C([H])([H])[H])C([H])(C(=O)N([H])C2([H])c4c([H])c([H])c([H])c([H])c4C([H])([H])C([H])([H])C2([H])[H])C3([H])[H])nc(C([H])([H])[H])c(C2([H])C([H])([H])C2([H])N(C(=O)N2C([H])([H])C([H])([H])C([H])([H])C([H])(n3nc(-c4c([H])c([H])c(Oc5c([H])c([H])c(F)c([H])c5F)c([H])c4[H])c(C(=O)N([H])[H])c3N([H])[H])C2([H])[H])C([H])([H])[H])c1[H]

>  <smiles>  (26) 
[H]c1c(OC([H])([H])C([H])([H])Oc2c([H])c([H])c3c(c2[H])C([H])([H])N(C(=O)C([H])(N([H])C(=O)C([H])(N([H])C([H])([H])[H])C([H])([H])[H])C(C([H])([H])[H])(C([H])([H])[H])C([H])([H])[H])C([H])(C(=O)N([H])C2([H])c4c([H])c([H])c([H])c([H])c4C([H])([H])C([H])([H])C2([H])[H])C3([H])[H])nc(C([H])([H])[H])c(C2([H])C([H])([H])C2([H])N(C(=O)N2C([H])([H])C([H])([H])C([H])([H])C([H])(n3nc(-c4c([H])c([H])c(Oc5c([H])c([H])c(F)c([H])c5F)c([H])c4[H])c(C(=O)N([H])[H])c3N([H])[H])C2([H])[H])C([H])([H])[H])c1[H]

$$$$
26:0:0
     RDKit          3D

 99108  0  0  1  0  0  0  0  0999 V2000
  -29.4290  -21.8460   20.3610 C   0  0  0  0  0  3  0  0  0  0  0  0
  -29.7930  -23.1940   20.1910 C   0  0  0  0  0  3  0  0  0  0  0  0
  -31.4250  -22.9720   21.9820 C   0  0  0  0  0  3  0  0  0  0  0  0
  -30.0510  -21.0460   21.3470 C   0  0  0  0  0  0  0  0  0  0  0  0
  -31.0600  -21.6180   22.1660 C   0  0  0  0  0  0  0  0  0  0  0  0
  -30.7900  -23.7630   21.0020 C   0  0  0  0  0  0  0  0  0  0  0  0
  -31.7560  -20.8080   23.2490 C   0  0  0  0  0  1  0  0  0  0  0  0
  -29.5870  -19.6000   21.5160 C   0  0  0  0  0  2  0  0  0  0  0  0
  -30.3230  -18.6630   20.6390 N   0  0  0  0  0  4  0  0  0  0  0  0
  -30.3400  -19.0490   19.7090 H   0  0  0  0  0  0  0  0  0  0  0  0
  -31.2740  -18.6130   20.9630 H   0  0  0  0  0  0  0  0  0  0  0  0
  -30.2630  -14.0950   18.8200 C   0  0  0  0  0  0  0  0  0  0  0  0
  -29.6910  -11.9390   17.7590 C   0  0  0  0  0  2  0  0  0  0  0  0
  -28.4320  -12.0950   16.8830 C   0  0  0  0  0  2  0  0  0  0  0  0
  -27.1600  -11.8580   17.7200 C   0  0  0  0  0  2  0  0  0  0  0  0
  -27.1540  -12.6880   19.0260 C   0  0  0  0  0  3  0  0  0  0  0  0
  -28.4990  -12.5480   19.7850 C   0  0  0  0  0  2  0  0  0  0  0  0
  -29.5890  -12.9090   18.8620 N   0  0  0  0  0  0  0  0  0  0  0  0
  -31.2170  -14.2840   18.0600 O   0  0  0  0  0  0  0  0  0  0  0  0
  -28.5950  -17.1880   19.5960 C   0  0  0  0  0  2  0  0  0  0  0  0
  -28.4960  -15.6890   19.3640 C   0  0  0  0  0  2  0  0  0  0  0  0
  -29.7390  -17.3010   20.5880 C   0  0  0  0  0  3  0  0  0  0  0  0
  -30.6940  -16.1820   20.1100 C   0  0  0  0  0  3  0  0  0  0  0  0
  -29.8160  -15.0970   19.6210 N   0  0  0  0  0  0  0  0  0  0  0  0
  -25.1480  -13.2280   20.5470 C   0  0  0  0  0  0  0  0  0  0  0  0
  -24.2080  -12.4230   21.1320 C   0  0  0  0  0  0  0  0  0  0  0  0
  -24.5600  -11.0850   20.7730 C   0  0  0  0  0  0  0  0  0  0  0  0
  -26.0130  -12.3740   19.8770 N   0  0  0  0  0  0  0  0  0  0  0  0
  -25.6830  -11.0740   20.0690 N   0  0  0  0  0  0  0  0  0  0  0  0
  -23.8610   -9.8180   21.0050 C   0  0  0  0  0  0  0  0  0  0  0  0
  -24.3650   -8.8540   21.9050 C   0  0  0  0  0  3  0  0  0  0  0  0
  -23.6650   -7.6480   22.1250 C   0  0  0  0  0  3  0  0  0  0  0  0
  -22.4500   -7.4000   21.4450 C   0  0  0  0  0  0  0  0  0  0  0  0
  -21.9650   -8.3530   20.5330 C   0  0  0  0  0  3  0  0  0  0  0  0
  -22.6650   -9.5500   20.3100 C   0  0  0  0  0  3  0  0  0  0  0  0
  -21.7150   -6.2460   21.5770 O   0  0  0  0  0  0  0  0  0  0  0  0
  -21.5860   -5.6110   22.7850 C   0  0  0  0  0  0  0  0  0  0  0  0
  -21.0190   -6.2530   23.9090 C   0  0  0  0  0  3  0  0  0  0  0  0
  -20.8410   -5.5410   25.1110 C   0  0  0  0  0  3  0  0  0  0  0  0
  -21.2190   -4.1880   25.1920 C   0  0  0  0  0  0  0  0  0  0  0  0
  -21.7780   -3.5440   24.0730 C   0  0  0  0  0  3  0  0  0  0  0  0
  -21.9580   -4.2540   22.8730 C   0  0  0  0  0  0  0  0  0  0  0  0
  -22.4780   -3.6250   21.7920 F   0  0  0  0  0  0  0  0  0  0  0  0
  -21.0400   -3.5010   26.3430 F   0  0  0  0  0  0  0  0  0  0  0  0
  -22.9960  -12.8700   21.8950 C   0  0  0  0  0  0  0  0  0  0  0  0
  -22.5770  -12.0940   22.8880 N   0  0  0  0  0  0  0  0  0  0  0  0
  -22.4400  -13.9390   21.6450 O   0  0  0  0  0  0  0  0  0  0  0  0
  -23.0460  -11.2270   23.1090 H   0  0  0  0  0  0  0  0  0  0  0  0
  -21.7760  -12.3710   23.4380 H   0  0  0  0  0  0  0  0  0  0  0  0
  -25.3180  -14.6090   20.5090 N   0  0  0  0  0  0  0  0  0  0  0  0
  -24.6500  -15.2420   20.9340 H   0  0  0  0  0  0  0  0  0  0  0  0
  -26.0150  -15.0850   19.9520 H   0  0  0  0  0  0  0  0  0  0  0  0
  -31.7050  -15.6840   21.1740 C   0  0  0  0  0  2  0  0  0  0  0  0
  -32.4670  -13.7540   22.6720 C   0  0  0  0  0  1  0  0  0  0  0  0
  -31.2970  -14.3940   21.9170 C   0  0  0  0  0  2  0  0  0  0  0  0
  -31.1830  -25.0590   20.7930 O   0  0  0  0  0  0  0  0  0  0  0  0
  -30.3750  -26.0550   21.4220 C   0  0  0  0  0  2  0  0  0  0  0  0
  -29.7550  -26.9790   20.3580 C   0  0  0  0  0  2  0  0  0  0  0  0
  -28.4760  -26.4920   19.9430 O   0  0  0  0  0  0  0  0  0  0  0  0
  -24.6700  -31.6890   23.0990 C   0  0  0  0  0  0  0  0  0  0  0  0
  -27.3460  -27.2820   20.0230 C   0  0  0  0  0  0  0  0  0  0  0  0
  -23.4650  -30.2910   21.4480 C   0  0  0  0  0  3  0  0  0  0  0  0
  -24.9250  -28.7560   20.0270 C   0  0  0  0  0  0  0  0  0  0  0  0
  -25.9820  -30.6620   21.2530 C   0  0  0  0  0  2  0  0  0  0  0  0
  -26.0730  -29.2900   20.6220 C   0  0  0  0  0  0  0  0  0  0  0  0
  -27.2790  -28.5590   20.6340 C   0  0  0  0  0  3  0  0  0  0  0  0
  -26.1730  -26.7540   19.4440 C   0  0  0  0  0  3  0  0  0  0  0  0
  -24.9650  -27.4790   19.4400 C   0  0  0  0  0  3  0  0  0  0  0  0
  -23.6770  -29.6100   20.0680 C   0  0  0  0  0  2  0  0  0  0  0  0
  -24.7240  -30.8940   21.9950 N   0  0  0  0  0  0  0  0  0  0  0  0
  -23.5890  -31.9640   23.6370 O   0  0  0  0  0  0  0  0  0  0  0  0
  -22.8090  -29.2720   22.4050 C   0  0  0  0  0  0  0  0  0  0  0  0
  -21.4850  -29.0990   22.2750 N   0  0  0  0  0  0  0  0  0  0  0  0
  -23.4910  -28.6380   23.2160 O   0  0  0  0  0  0  0  0  0  0  0  0
  -20.9990  -29.6600   21.5890 H   0  0  0  0  0  0  0  0  0  0  0  0
  -18.0890  -28.0050   22.8270 C   0  0  0  0  0  0  0  0  0  0  0  0
  -20.6590  -28.1670   23.0420 C   0  0  0  0  0  3  0  0  0  0  0  0
  -20.7010  -26.7520   22.4190 C   0  0  0  0  0  2  0  0  0  0  0  0
  -19.5630  -26.4980   21.4260 C   0  0  0  0  0  2  0  0  0  0  0  0
  -18.2030  -26.6710   22.1090 C   0  0  0  0  0  2  0  0  0  0  0  0
  -19.2430  -28.7150   23.2510 C   0  0  0  0  0  0  0  0  0  0  0  0
  -19.0830  -29.9690   23.8810 C   0  0  0  0  0  3  0  0  0  0  0  0
  -17.8000  -30.5070   24.0950 C   0  0  0  0  0  3  0  0  0  0  0  0
  -16.6610  -29.7920   23.6900 C   0  0  0  0  0  3  0  0  0  0  0  0
  -16.8060  -28.5430   23.0590 C   0  0  0  0  0  3  0  0  0  0  0  0
  -25.9590  -32.3100   23.7230 C   0  0  0  0  0  3  0  0  0  0  0  0
  -25.6470  -33.6970   24.0940 N   0  0  0  0  0  0  0  0  0  0  0  0
  -25.9670  -34.7690   23.3570 C   0  0  0  0  0  0  0  0  0  0  0  0
  -26.6260  -34.6940   22.3160 O   0  0  0  0  0  0  0  0  0  0  0  0
  -25.0640  -33.8260   24.9060 H   0  0  0  0  0  0  0  0  0  0  0  0
  -24.2200  -36.5480   23.0640 C   0  0  0  0  0  1  0  0  0  0  0  0
  -25.4740  -36.1410   23.8530 C   0  0  0  0  0  3  0  0  0  0  0  0
  -27.6090  -37.0250   24.6790 C   0  0  0  0  0  1  0  0  0  0  0  0
  -26.4960  -37.2040   23.7510 N   0  0  0  0  0  0  0  0  0  0  0  0
  -26.0850  -38.1170   23.9260 H   0  0  0  0  0  0  0  0  0  0  0  0
  -26.4970  -31.5060   24.9670 C   0  0  1  0  0  0  0  0  0  0  0  0
  -25.4100  -31.2020   26.0250 C   0  0  0  0  0  1  0  0  0  0  0  0
  -27.1140  -30.1610   24.5190 C   0  0  0  0  0  1  0  0  0  0  0  0
  -27.6290  -32.3040   25.6560 C   0  0  0  0  0  1  0  0  0  0  0  0
  1  4  1  0
  2  1  2  0
  2  6  1  0
  3  5  1  0
  4  8  1  0
  4  5  2  0
  5  7  1  0
  6  3  2  0
  9 11  1  0
  9  8  1  0
 10  9  1  0
 12 18  1  0
 12 24  1  0
 13 18  1  0
 14 15  1  0
 14 13  1  0
 16 15  1  0
 16 17  1  0
 16 28  1  0
 18 17  1  0
 19 12  2  0
 20 22  1  0
 21 20  1  0
 21 24  1  0
 22  9  1  0
 23 22  1  0
 23 53  1  0
 24 23  1  0
 25 26  2  0
 26 45  1  0
 27 30  1  0
 27 26  1  0
 28 29  1  0
 28 25  1  0
 29 27  2  0
 30 31  1  0
 31 32  2  0
 33 36  1  0
 33 32  1  0
 34 33  2  0
 35 34  1  0
 35 30  2  0
 36 37  1  0
 37 42  2  0
 37 38  1  0
 38 39  2  0
 39 40  1  0
 40 44  1  0
 41 40  2  0
 42 41  1  0
 43 42  1  0
 45 46  1  0
 46 48  1  0
 46 49  1  0
 47 45  2  0
 50 25  1  0
 50 51  1  0
 52 50  1  0
 53 55  1  0
 55 54  1  0
 56  6  1  0
 56 57  1  0
 58 57  1  0
 59 61  1  0
 59 58  1  0
 60 71  2  0
 61 66  1  0
 62 70  1  0
 62 72  1  0
 63 69  1  0
 63 65  1  0
 64 70  1  0
 65 66  2  0
 65 64  1  0
 67 61  2  0
 68 67  1  0
 68 63  2  0
 69 62  1  0
 70 60  1  0
 72 74  2  0
 73 72  1  0
 75 73  1  0
 76 85  2  0
 76 81  1  0
 77 73  1  0
 77 81  1  0
 78 77  1  0
 79 80  1  0
 79 78  1  0
 80 76  1  0
 81 82  2  0
 82 83  1  0
 84 83  2  0
 85 84  1  0
 86 60  1  0
 86 87  1  0
 86 96  1  0
 87 90  1  0
 88 92  1  0
 88 87  1  0
 89 88  2  0
 92 91  1  0
 94 92  1  0
 94 95  1  0
 94 93  1  0
 96 99  1  1
 96 97  1  0
 98 96  1  0
M  ISO  4  12 100  24 100  58 101  59 101
M  END
>  <TORSDO>  (27) 
F 23

>  <SCORE>  (27) 
-6.661

>  <name>  (27) 
26

>  <ligand_id>  (27) 
26

>  <original_smiles>  (27) 
[H]c1c([H])c([H])c2c(c1[H])C([H])([H])C([H])([H])C([H])([H])C2([H])N([H])C(=O)C1([H])N(C(=O)C([H])(N([H])C(=O)C([H])(N([H])C([H])([H])[H])C([H])([H])[H])C(C([H])([H])[H])(C([H])([H])[H])C([H])([H])[H])C([H])([H])c2c([H])c(OC([H])([H])C([H])([H])Oc3c([H])c([H])c(C([H])([H])[N+]([H])([H])C4([H])C([H])([H])C([H])([H])N(C(=O)N5C([H])([H])C([H])([H])C([H])([H])C([H])(n6nc(-c7c([H])c([H])c(Oc8c([H])c([H])c(F)c([H])c8F)c([H])c7[H])c(C(=O)N([H])[H])c6N([H])[H])C5([H])[H])C4([H])C([H])([H])C([H])([H])C([H])([H])[H])c(C([H])([H])[H])c3[H])c([H])c([H])c2C1([H])[H]

>  <smiles>  (27) 
[H]c1c([H])c([H])c2c(c1[H])C([H])([H])C([H])([H])C([H])([H])C2([H])N([H])C(=O)C1([H])N(C(=O)C([H])(N([H])C(=O)C([H])(N([H])C([H])([H])[H])C([H])([H])[H])C(C([H])([H])[H])(C([H])([H])[H])C([H])([H])[H])C([H])([H])c2c([H])c(OC([H])([H])C([H])([H])Oc3c([H])c([H])c(C([H])([H])[N+]([H])([H])C4([H])C([H])([H])C([H])([H])N(C(=O)N5C([H])([H])C([H])([H])C([H])([H])C([H])(n6nc(-c7c([H])c([H])c(Oc8c([H])c([H])c(F)c([H])c8F)c([H])c7[H])c(C(=O)N([H])[H])c6N([H])[H])C5([H])[H])C4([H])C([H])([H])C([H])([H])C([H])([H])[H])c(C([H])([H])[H])c3[H])c([H])c([H])c2C1([H])[H]

$$$$
27:0:0
     RDKit          3D

 90 98  0  0  1  0  0  0  0  0999 V2000
  -27.5210  -22.6840   22.0450 C   0  0  0  0  0  2  0  0  0  0  0  0
  -28.7780  -23.5520   21.8960 C   0  0  0  0  0  2  0  0  0  0  0  0
  -27.3980  -21.8260   20.7720 C   0  0  0  0  0  2  0  0  0  0  0  0
  -29.0770  -23.6020   20.3950 C   0  0  0  0  0  3  0  0  0  0  0  0
  -28.7020  -22.0130   19.9680 C   0  0  0  0  0  3  0  0  0  0  0  0
  -29.6830  -20.7850   20.2150 N   0  0  0  0  0  4  0  0  0  0  0  0
  -30.4830  -20.9610   19.6300 H   0  0  0  0  0  0  0  0  0  0  0  0
  -30.0090  -20.8610   21.1660 H   0  0  0  0  0  0  0  0  0  0  0  0
  -29.3120  -19.2510   19.9950 C   0  0  0  0  0  3  0  0  0  0  0  0
  -30.3850  -17.9700   20.2840 C   0  0  0  0  0  3  0  0  0  0  0  0
  -30.8010  -15.2370   20.2000 C   0  0  0  0  0  0  0  0  0  0  0  0
  -30.6810  -12.8700   19.3020 C   0  0  0  0  0  2  0  0  0  0  0  0
  -29.7510  -12.8200   18.0660 C   0  0  0  0  0  2  0  0  0  0  0  0
  -28.2860  -12.6200   18.5000 C   0  0  0  0  0  2  0  0  0  0  0  0
  -27.8800  -13.5570   19.6680 C   0  0  0  0  0  3  0  0  0  0  0  0
  -28.9360  -13.5780   20.7940 C   0  0  0  0  0  2  0  0  0  0  0  0
  -30.2030  -13.9800   20.1730 N   0  0  0  0  0  0  0  0  0  0  0  0
  -32.0130  -15.2960   19.9550 O   0  0  0  0  0  0  0  0  0  0  0  0
  -30.0220  -16.4250   20.2900 N   0  0  0  0  0  0  0  0  0  0  0  0
  -29.0390  -16.2370   20.4160 H   0  0  0  0  0  0  0  0  0  0  0  0
  -25.5060  -14.1500   20.4150 C   0  0  0  0  0  0  0  0  0  0  0  0
  -24.4350  -13.3810   20.7790 C   0  0  0  0  0  0  0  0  0  0  0  0
  -24.8900  -12.0260   20.7410 C   0  0  0  0  0  0  0  0  0  0  0  0
  -26.5410  -13.2660   20.1680 N   0  0  0  0  0  0  0  0  0  0  0  0
  -26.1800  -11.9830   20.4300 N   0  0  0  0  0  0  0  0  0  0  0  0
  -24.1550  -10.7680   20.9210 C   0  0  0  0  0  0  0  0  0  0  0  0
  -24.5450   -9.8160   21.8890 C   0  0  0  0  0  3  0  0  0  0  0  0
  -23.8100   -8.6240   22.0590 C   0  0  0  0  0  3  0  0  0  0  0  0
  -22.6680   -8.3750   21.2620 C   0  0  0  0  0  0  0  0  0  0  0  0
  -22.2950   -9.3140   20.2850 C   0  0  0  0  0  3  0  0  0  0  0  0
  -23.0320  -10.4980   20.1140 C   0  0  0  0  0  3  0  0  0  0  0  0
  -21.9070   -7.2340   21.3390 O   0  0  0  0  0  0  0  0  0  0  0  0
  -21.7690   -6.5400   22.5150 C   0  0  0  0  0  0  0  0  0  0  0  0
  -21.2090   -7.1310   23.6680 C   0  0  0  0  0  3  0  0  0  0  0  0
  -21.0210   -6.3610   24.8320 C   0  0  0  0  0  3  0  0  0  0  0  0
  -21.3840   -5.0000   24.8440 C   0  0  0  0  0  0  0  0  0  0  0  0
  -21.9350   -4.4090   23.6930 C   0  0  0  0  0  3  0  0  0  0  0  0
  -22.1250   -5.1770   22.5310 C   0  0  0  0  0  0  0  0  0  0  0  0
  -22.6390   -4.5970   21.4200 F   0  0  0  0  0  0  0  0  0  0  0  0
  -21.1960   -4.2570   25.9590 F   0  0  0  0  0  0  0  0  0  0  0  0
  -23.0410  -13.8680   21.0480 C   0  0  0  0  0  0  0  0  0  0  0  0
  -22.3150  -13.1800   21.9220 N   0  0  0  0  0  0  0  0  0  0  0  0
  -22.6090  -14.8910   20.5210 O   0  0  0  0  0  0  0  0  0  0  0  0
  -22.6800  -12.3500   22.3650 H   0  0  0  0  0  0  0  0  0  0  0  0
  -21.3800  -13.4860   22.1500 H   0  0  0  0  0  0  0  0  0  0  0  0
  -25.6750  -15.5200   20.2460 N   0  0  0  0  0  0  0  0  0  0  0  0
  -24.9040  -16.1690   20.3590 H   0  0  0  0  0  0  0  0  0  0  0  0
  -26.5060  -15.9600   19.8740 H   0  0  0  0  0  0  0  0  0  0  0  0
  -28.2840  -24.9680   19.8110 C   0  0  0  0  0  2  0  0  0  0  0  0
  -28.4570  -26.4470   20.2610 O   0  0  0  0  0  0  0  0  0  0  0  0
  -24.6960  -32.0030   23.2980 C   0  0  0  0  0  0  0  0  0  0  0  0
  -27.3850  -27.4060   20.1930 C   0  0  0  0  0  0  0  0  0  0  0  0
  -23.5340  -30.6050   21.6350 C   0  0  0  0  0  3  0  0  0  0  0  0
  -25.0220  -29.0930   20.1880 C   0  0  0  0  0  0  0  0  0  0  0  0
  -26.0810  -30.9330   21.4850 C   0  0  0  0  0  2  0  0  0  0  0  0
  -26.1880  -29.5540   20.8110 C   0  0  0  0  0  0  0  0  0  0  0  0
  -27.3700  -28.7250   20.8010 C   0  0  0  0  0  3  0  0  0  0  0  0
  -26.1940  -27.0530   19.5210 C   0  0  0  0  0  3  0  0  0  0  0  0
  -25.0350  -27.8550   19.5310 C   0  0  0  0  0  3  0  0  0  0  0  0
  -23.7760  -29.9620   20.2440 C   0  0  0  0  0  2  0  0  0  0  0  0
  -24.7900  -31.2000   22.1940 N   0  0  0  0  0  0  0  0  0  0  0  0
  -23.6030  -32.2540   23.8250 O   0  0  0  0  0  0  0  0  0  0  0  0
  -22.8790  -29.5630   22.5770 C   0  0  0  0  0  0  0  0  0  0  0  0
  -21.5570  -29.3560   22.4350 N   0  0  0  0  0  0  0  0  0  0  0  0
  -23.5610  -28.9480   23.4010 O   0  0  0  0  0  0  0  0  0  0  0  0
  -21.0600  -29.9040   21.7480 H   0  0  0  0  0  0  0  0  0  0  0  0
  -18.2060  -28.0710   22.9110 C   0  0  0  0  0  0  0  0  0  0  0  0
  -20.7570  -28.3890   23.1910 C   0  0  0  0  0  3  0  0  0  0  0  0
  -20.8930  -26.9690   22.5970 C   0  0  0  0  0  2  0  0  0  0  0  0
  -19.8030  -26.6350   21.5730 C   0  0  0  0  0  2  0  0  0  0  0  0
  -18.4160  -26.7380   22.2130 C   0  0  0  0  0  2  0  0  0  0  0  0
  -19.3040  -28.8530   23.3560 C   0  0  0  0  0  0  0  0  0  0  0  0
  -19.0530  -30.0990   23.9700 C   0  0  0  0  0  3  0  0  0  0  0  0
  -17.7360  -30.5670   24.1390 C   0  0  0  0  0  3  0  0  0  0  0  0
  -16.6510  -29.7830   23.7080 C   0  0  0  0  0  3  0  0  0  0  0  0
  -16.8870  -28.5360   23.1030 C   0  0  0  0  0  3  0  0  0  0  0  0
  -25.9590  -32.6600   23.9350 C   0  0  0  0  0  3  0  0  0  0  0  0
  -26.4460  -31.9230   25.2430 C   0  0  1  0  0  0  0  0  0  0  0  0
  -25.3220  -31.6910   26.2800 C   0  0  0  0  0  1  0  0  0  0  0  0
  -27.0610  -30.5450   24.9030 C   0  0  0  0  0  1  0  0  0  0  0  0
  -27.5640  -32.7460   25.9260 C   0  0  0  0  0  1  0  0  0  0  0  0
  -25.6320  -34.0630   24.2320 N   0  0  0  0  0  0  0  0  0  0  0  0
  -25.9440  -35.1030   23.4460 C   0  0  0  0  0  0  0  0  0  0  0  0
  -26.6060  -34.9840   22.4120 O   0  0  0  0  0  0  0  0  0  0  0  0
  -25.0470  -34.2310   25.0360 H   0  0  0  0  0  0  0  0  0  0  0  0
  -24.1810  -36.8590   23.0750 C   0  0  0  0  0  1  0  0  0  0  0  0
  -25.4430  -36.4970   23.8740 C   0  0  0  0  0  3  0  0  0  0  0  0
  -27.5730  -37.4470   24.6460 C   0  0  0  0  0  1  0  0  0  0  0  0
  -26.4570  -37.5630   23.7110 N   0  0  0  0  0  0  0  0  0  0  0  0
  -26.0370  -38.4810   23.8300 H   0  0  0  0  0  0  0  0  0  0  0  0
  2  1  1  0
  3  1  1  0
  4 49  1  0
  4  2  1  0
  5  6  1  0
  5  4  1  0
  5  3  1  0
  6  8  1  0
  7  6  1  0
  9  6  1  0
  9 10  2  0
 10 19  1  0
 11 19  1  0
 12 17  1  0
 13 14  1  0
 13 12  1  0
 15 14  1  0
 15 24  1  0
 15 16  1  0
 17 11  1  0
 17 16  1  0
 18 11  2  0
 19 20  1  0
 21 22  2  0
 22 41  1  0
 23 22  1  0
 23 26  1  0
 24 21  1  0
 24 25  1  0
 25 23  2  0
 26 27  1  0
 27 28  2  0
 29 32  1  0
 29 28  1  0
 30 29  2  0
 31 30  1  0
 31 26  2  0
 32 33  1  0
 33 38  2  0
 33 34  1  0
 34 35  2  0
 35 36  1  0
 36 40  1  0
 37 36  2  0
 38 37  1  0
 39 38  1  0
 41 42  1  0
 42 45  1  0
 42 44  1  0
 43 41  2  0
 46 47  1  0
 46 21  1  0
 48 46  1  0
 49 50  1  0
 51 62  2  0
 52 50  1  0
 52 57  1  0
 53 61  1  0
 53 63  1  0
 54 60  1  0
 54 56  1  0
 55 61  1  0
 56 55  1  0
 57 56  2  0
 58 59  1  0
 58 52  2  0
 59 54  2  0
 60 53  1  0
 61 51  1  0
 63 65  2  0
 64 63  1  0
 66 64  1  0
 67 76  2  0
 67 72  1  0
 68 64  1  0
 68 72  1  0
 69 68  1  0
 70 71  1  0
 70 69  1  0
 71 67  1  0
 72 73  2  0
 73 74  1  0
 75 74  2  0
 76 75  1  0
 77 51  1  0
 77 82  1  0
 77 78  1  0
 78 81  1  1
 78 79  1  0
 80 78  1  0
 82 85  1  0
 83 87  1  0
 83 82  1  0
 84 83  2  0
 87 86  1  0
 89 90  1  0
 89 87  1  0
 89 88  1  0
M  ISO  4  11 100  19 100  49 101  50 101
M  END
>  <TORSDO>  (28) 
F 20

>  <SCORE>  (28) 
-13.801

>  <name>  (28) 
27

>  <ligand_id>  (28) 
27

>  <original_smiles>  (28) 
[H]c1c([H])c([H])c2c(c1[H])C([H])([H])C([H])([H])C([H])([H])C2([H])N([H])C(=O)C1([H])N(C(=O)C([H])(N([H])C(=O)C([H])(N([H])C([H])([H])[H])C([H])([H])[H])C(C([H])([H])[H])(C([H])([H])[H])C([H])([H])[H])C([H])([H])c2c([H])c(OC([H])([H])C3([H])C([H])([H])C([H])([H])C([H])([H])C3([H])[N+]([H])([H])C([H])([H])C([H])([H])N([H])C(=O)N3C([H])([H])C([H])([H])C([H])([H])C([H])(n4nc(-c5c([H])c([H])c(Oc6c([H])c([H])c(F)c([H])c6F)c([H])c5[H])c(C(=O)N([H])[H])c4N([H])[H])C3([H])[H])c([H])c([H])c2C1([H])[H]

>  <smiles>  (28) 
[H]c1c([H])c([H])c2c(c1[H])C([H])([H])C([H])([H])C([H])([H])C2([H])N([H])C(=O)C1([H])N(C(=O)C([H])(N([H])C(=O)C([H])(N([H])C([H])([H])[H])C([H])([H])[H])C(C([H])([H])[H])(C([H])([H])[H])C([H])([H])[H])C([H])([H])c2c([H])c(OC([H])([H])C3([H])C([H])([H])C([H])([H])C([H])([H])C3([H])[N+]([H])([H])C([H])([H])C([H])([H])N([H])C(=O)N3C([H])([H])C([H])([H])C([H])([H])C([H])(n4nc(-c5c([H])c([H])c(Oc6c([H])c([H])c(F)c([H])c6F)c([H])c5[H])c(C(=O)N([H])[H])c4N([H])[H])C3([H])[H])c([H])c([H])c2C1([H])[H]

$$$$
28:0:0
     RDKit          3D

 94103  0  0  1  0  0  0  0  0999 V2000
  -30.6290  -14.6540   20.4630 C   0  0  0  0  0  0  0  0  0  0  0  0
  -30.4330  -12.3900   19.4520 C   0  0  0  0  0  2  0  0  0  0  0  0
  -29.5210  -12.4880   18.2090 C   0  0  0  0  0  2  0  0  0  0  0  0
  -28.0370  -12.3440   18.6050 C   0  0  0  0  0  2  0  0  0  0  0  0
  -27.6500  -13.2430   19.8080 C   0  0  0  0  0  3  0  0  0  0  0  0
  -28.6780  -13.1150   20.9540 C   0  0  0  0  0  2  0  0  0  0  0  0
  -30.0050  -13.4350   20.4040 N   0  0  0  0  0  0  0  0  0  0  0  0
  -31.8060  -14.7790   20.1090 O   0  0  0  0  0  0  0  0  0  0  0  0
  -28.8270  -19.3700   20.7800 C   0  0  0  0  0  3  0  0  0  0  0  0
  -28.7920  -17.9460   20.8190 C   0  0  0  0  0  3  0  0  0  0  0  0
  -30.0450  -20.0570   20.5550 C   0  0  0  0  0  0  0  0  0  0  0  0
  -31.1670  -19.1940   20.3670 C   0  0  0  0  0  0  0  0  0  0  0  0
  -29.9610  -17.1630   20.6390 C   0  0  0  0  0  0  0  0  0  0  0  0
  -32.5630  -19.7600   20.1800 C   0  0  0  0  0  2  0  0  0  0  0  0
  -32.7220  -21.1220   20.8560 C   0  0  0  0  0  2  0  0  0  0  0  0
  -31.6410  -22.0960   20.3760 C   0  0  0  0  0  2  0  0  0  0  0  0
  -30.1960  -21.6350   20.7020 C   0  0  0  0  0  3  0  0  0  0  0  0
  -31.1200  -17.8260   20.3980 N   0  0  0  0  0  0  0  0  0  0  0  0
  -29.8120  -15.7170   20.7520 N   0  0  0  0  0  0  0  0  0  0  0  0
  -28.8870  -15.4210   21.0140 H   0  0  0  0  0  0  0  0  0  0  0  0
  -25.2420  -13.8730   20.4490 C   0  0  0  0  0  0  0  0  0  0  0  0
  -24.1600  -13.1160   20.8080 C   0  0  0  0  0  0  0  0  0  0  0  0
  -24.6140  -11.7610   20.8160 C   0  0  0  0  0  0  0  0  0  0  0  0
  -26.2860  -12.9820   20.2620 N   0  0  0  0  0  0  0  0  0  0  0  0
  -25.9120  -11.7080   20.5420 N   0  0  0  0  0  0  0  0  0  0  0  0
  -23.8740  -10.5070   21.0100 C   0  0  0  0  0  0  0  0  0  0  0  0
  -24.2900   -9.5430   21.9550 C   0  0  0  0  0  3  0  0  0  0  0  0
  -23.5510   -8.3540   22.1350 C   0  0  0  0  0  3  0  0  0  0  0  0
  -22.3820   -8.1210   21.3710 C   0  0  0  0  0  0  0  0  0  0  0  0
  -21.9870   -9.0730   20.4160 C   0  0  0  0  0  3  0  0  0  0  0  0
  -22.7260  -10.2540   20.2330 C   0  0  0  0  0  3  0  0  0  0  0  0
  -21.6160   -6.9830   21.4610 O   0  0  0  0  0  0  0  0  0  0  0  0
  -21.5600   -6.2440   22.6150 C   0  0  0  0  0  0  0  0  0  0  0  0
  -21.1610   -6.8110   23.8460 C   0  0  0  0  0  3  0  0  0  0  0  0
  -21.0490   -5.9990   24.9920 C   0  0  0  0  0  3  0  0  0  0  0  0
  -21.3260   -4.6210   24.9090 C   0  0  0  0  0  0  0  0  0  0  0  0
  -21.7180   -4.0540   23.6840 C   0  0  0  0  0  3  0  0  0  0  0  0
  -21.8310   -4.8630   22.5400 C   0  0  0  0  0  0  0  0  0  0  0  0
  -22.1890   -4.3070   21.3570 F   0  0  0  0  0  0  0  0  0  0  0  0
  -21.2120   -3.8390   26.0070 F   0  0  0  0  0  0  0  0  0  0  0  0
  -22.7590  -13.6060   21.0330 C   0  0  0  0  0  0  0  0  0  0  0  0
  -22.0050  -12.9370   21.8980 N   0  0  0  0  0  0  0  0  0  0  0  0
  -22.3410  -14.6210   20.4760 O   0  0  0  0  0  0  0  0  0  0  0  0
  -22.3540  -12.1150   22.3690 H   0  0  0  0  0  0  0  0  0  0  0  0
  -21.0640  -13.2500   22.0900 H   0  0  0  0  0  0  0  0  0  0  0  0
  -25.4190  -15.2390   20.2440 N   0  0  0  0  0  0  0  0  0  0  0  0
  -24.6400  -15.8870   20.2890 H   0  0  0  0  0  0  0  0  0  0  0  0
  -26.2520  -15.6530   19.8440 H   0  0  0  0  0  0  0  0  0  0  0  0
  -29.1870  -22.5700   20.0480 N   0  0  0  0  0  4  0  0  0  0  0  0
  -28.2720  -22.3040   20.3770 H   0  0  0  0  0  0  0  0  0  0  0  0
  -29.1970  -22.4050   19.0530 H   0  0  0  0  0  0  0  0  0  0  0  0
  -29.3550  -24.0740   20.2940 C   0  0  0  0  0  3  0  0  0  0  0  0
  -28.1820  -25.0380   19.8290 C   0  0  0  0  0  3  0  0  0  0  0  0
  -28.3530  -26.4980   20.0230 O   0  0  0  0  0  0  0  0  0  0  0  0
  -24.5340  -31.7820   23.0890 C   0  0  0  0  0  0  0  0  0  0  0  0
  -27.2170  -27.3200   19.9680 C   0  0  0  0  0  0  0  0  0  0  0  0
  -23.3550  -30.4030   21.4140 C   0  0  0  0  0  3  0  0  0  0  0  0
  -24.8300  -28.8990   19.9690 C   0  0  0  0  0  0  0  0  0  0  0  0
  -25.8900  -30.7550   21.2530 C   0  0  0  0  0  2  0  0  0  0  0  0
  -25.9890  -29.3910   20.5820 C   0  0  0  0  0  0  0  0  0  0  0  0
  -27.1830  -28.6140   20.5730 C   0  0  0  0  0  3  0  0  0  0  0  0
  -26.0340  -26.8800   19.3280 C   0  0  0  0  0  3  0  0  0  0  0  0
  -24.8550  -27.6480   19.3340 C   0  0  0  0  0  3  0  0  0  0  0  0
  -23.5840  -29.7560   20.0220 C   0  0  0  0  0  2  0  0  0  0  0  0
  -24.6110  -30.9950   21.9770 N   0  0  0  0  0  0  0  0  0  0  0  0
  -23.4450  -32.0380   23.6220 O   0  0  0  0  0  0  0  0  0  0  0  0
  -22.6980  -29.3610   22.3500 C   0  0  0  0  0  0  0  0  0  0  0  0
  -21.3680  -29.2040   22.2390 N   0  0  0  0  0  0  0  0  0  0  0  0
  -23.3820  -28.6990   23.1350 O   0  0  0  0  0  0  0  0  0  0  0  0
  -20.8770  -29.7920   21.5790 H   0  0  0  0  0  0  0  0  0  0  0  0
  -17.9790  -28.0550   22.7700 C   0  0  0  0  0  0  0  0  0  0  0  0
  -20.5480  -28.2510   22.9880 C   0  0  0  0  0  3  0  0  0  0  0  0
  -20.6060  -26.8430   22.3520 C   0  0  0  0  0  2  0  0  0  0  0  0
  -19.4730  -26.5850   21.3530 C   0  0  0  0  0  2  0  0  0  0  0  0
  -18.1100  -26.7320   22.0360 C   0  0  0  0  0  2  0  0  0  0  0  0
  -19.1240  -28.7760   23.2040 C   0  0  0  0  0  0  0  0  0  0  0  0
  -18.9470  -30.0180   23.8510 C   0  0  0  0  0  3  0  0  0  0  0  0
  -17.6570  -30.5380   24.0700 C   0  0  0  0  0  3  0  0  0  0  0  0
  -16.5270  -29.8130   23.6530 C   0  0  0  0  0  3  0  0  0  0  0  0
  -16.6890  -28.5750   23.0080 C   0  0  0  0  0  3  0  0  0  0  0  0
  -25.8080  -32.4140   23.7310 C   0  0  0  0  0  3  0  0  0  0  0  0
  -25.4780  -33.7990   24.1000 N   0  0  0  0  0  0  0  0  0  0  0  0
  -25.7930  -34.8760   23.3690 C   0  0  0  0  0  0  0  0  0  0  0  0
  -26.4630  -34.8100   22.3340 O   0  0  0  0  0  0  0  0  0  0  0  0
  -24.8850  -33.9230   24.9060 H   0  0  0  0  0  0  0  0  0  0  0  0
  -24.0350  -36.6490   23.0680 C   0  0  0  0  0  1  0  0  0  0  0  0
  -25.2860  -36.2430   23.8650 C   0  0  0  0  0  3  0  0  0  0  0  0
  -27.4120  -37.1390   24.7060 C   0  0  0  0  0  1  0  0  0  0  0  0
  -26.3010  -37.3170   23.7740 N   0  0  0  0  0  0  0  0  0  0  0  0
  -25.8810  -38.2260   23.9510 H   0  0  0  0  0  0  0  0  0  0  0  0
  -26.3300  -31.6150   24.9890 C   0  0  1  0  0  0  0  0  0  0  0  0
  -25.2380  -31.3410   26.0490 C   0  0  0  0  0  1  0  0  0  0  0  0
  -26.9250  -30.2540   24.5610 C   0  0  0  0  0  1  0  0  0  0  0  0
  -27.4710  -32.4030   25.6730 C   0  0  0  0  0  1  0  0  0  0  0  0
  1 19  1  0
  2  7  1  0
  3  4  1  0
  3  2  1  0
  5  4  1  0
  5 24  1  0
  5  6  1  0
  7  1  1  0
  7  6  1  0
  8  1  2  0
  9 10  1  0
 11 17  1  0
 11  9  2  0
 12 18  2  0
 12 11  1  0
 13 19  1  0
 13 10  2  0
 14 12  1  0
 14 15  1  0
 16 17  1  0
 16 15  1  0
 17 49  1  0
 18 13  1  0
 19 20  1  0
 21 22  2  0
 22 23  1  0
 22 41  1  0
 23 26  1  0
 24 21  1  0
 24 25  1  0
 25 23  2  0
 26 27  1  0
 27 28  2  0
 29 32  1  0
 29 28  1  0
 30 29  2  0
 31 30  1  0
 31 26  2  0
 32 33  1  0
 33 34  1  0
 34 35  2  0
 36 35  1  0
 36 40  1  0
 37 36  2  0
 38 33  2  0
 38 37  1  0
 39 38  1  0
 41 42  1  0
 42 45  1  0
 42 44  1  0
 43 41  2  0
 46 47  1  0
 46 21  1  0
 48 46  1  0
 49 52  1  0
 49 50  1  0
 51 49  1  0
 53 54  1  0
 53 52  2  0
 55 66  2  0
 56 54  1  0
 56 61  1  0
 57 65  1  0
 57 67  1  0
 58 64  1  0
 58 60  1  0
 59 65  1  0
 60 59  1  0
 61 60  2  0
 62 63  1  0
 62 56  2  0
 63 58  2  0
 64 57  1  0
 65 55  1  0
 67 69  2  0
 68 67  1  0
 70 68  1  0
 71 80  2  0
 71 76  1  0
 72 68  1  0
 72 76  1  0
 73 72  1  0
 74 75  1  0
 74 73  1  0
 75 71  1  0
 76 77  2  0
 77 78  1  0
 79 78  2  0
 80 79  1  0
 81 55  1  0
 81 82  1  0
 81 91  1  0
 82 85  1  0
 83 87  1  0
 83 82  1  0
 84 83  2  0
 87 86  1  0
 89 87  1  0
 89 90  1  0
 89 88  1  0
 91 94  1  1
 91 92  1  0
 93 91  1  0
M  ISO  4   1 100  19 100  53 101  54 101
M  END
>  <TORSDO>  (29) 
F 18

>  <SCORE>  (29) 
-14.486

>  <name>  (29) 
28

>  <ligand_id>  (29) 
28

>  <original_smiles>  (29) 
[H]c1c(N([H])C(=O)N2C([H])([H])C([H])([H])C([H])([H])C([H])(n3nc(-c4c([H])c([H])c(Oc5c([H])c([H])c(F)c([H])c5F)c([H])c4[H])c(C(=O)N([H])[H])c3N([H])[H])C2([H])[H])nc2c(c1[H])C([H])([N+]([H])([H])C([H])([H])C([H])([H])Oc1c([H])c([H])c3c(c1[H])C([H])([H])N(C(=O)C([H])(N([H])C(=O)C([H])(N([H])C([H])([H])[H])C([H])([H])[H])C(C([H])([H])[H])(C([H])([H])[H])C([H])([H])[H])C([H])(C(=O)N([H])C1([H])c4c([H])c([H])c([H])c([H])c4C([H])([H])C([H])([H])C1([H])[H])C3([H])[H])C([H])([H])C([H])([H])C2([H])[H]

>  <smiles>  (29) 
[H]c1c(N([H])C(=O)N2C([H])([H])C([H])([H])C([H])([H])C([H])(n3nc(-c4c([H])c([H])c(Oc5c([H])c([H])c(F)c([H])c5F)c([H])c4[H])c(C(=O)N([H])[H])c3N([H])[H])C2([H])[H])nc2c(c1[H])C([H])([N+]([H])([H])C([H])([H])C([H])([H])Oc1c([H])c([H])c3c(c1[H])C([H])([H])N(C(=O)C([H])(N([H])C(=O)C([H])(N([H])C([H])([H])[H])C([H])([H])[H])C(C([H])([H])[H])(C([H])([H])[H])C([H])([H])[H])C([H])(C(=O)N([H])C1([H])c4c([H])c([H])c([H])c([H])c4C([H])([H])C([H])([H])C1([H])[H])C3([H])[H])C([H])([H])C([H])([H])C2([H])[H]

$$$$
29:0:0
     RDKit          3D

 93101  0  0  1  0  0  0  0  0999 V2000
  -28.2770  -23.0190   21.4370 C   0  0  0  0  0  3  0  0  0  0  0  0
  -28.7140  -21.6920   21.7020 C   0  0  0  0  0  3  0  0  0  0  0  0
  -28.7470  -23.7360   20.3090 C   0  0  0  0  0  0  0  0  0  0  0  0
  -29.6950  -23.0230   19.5120 C   0  0  0  0  0  0  0  0  0  0  0  0
  -29.6100  -21.0470   20.8280 C   0  0  0  0  0  0  0  0  0  0  0  0
  -30.0960  -21.7310   19.7640 N   0  0  0  0  0  0  0  0  0  0  0  0
  -30.1410  -19.7570   21.1250 N   0  0  0  0  0  0  0  0  0  0  0  0
  -30.2100  -19.6370   22.1310 H   0  0  0  0  0  0  0  0  0  0  0  0
  -27.9760  -25.0330   19.8430 C   0  0  0  0  0  2  0  0  0  0  0  0
  -28.2800  -26.4330   20.2520 O   0  0  0  0  0  0  0  0  0  0  0  0
  -24.6070  -31.9140   23.2410 C   0  0  0  0  0  0  0  0  0  0  0  0
  -27.1990  -27.3430   20.1630 C   0  0  0  0  0  0  0  0  0  0  0  0
  -23.4020  -30.5280   21.5970 C   0  0  0  0  0  3  0  0  0  0  0  0
  -24.8460  -28.9890   20.1630 C   0  0  0  0  0  0  0  0  0  0  0  0
  -25.9470  -30.8280   21.4240 C   0  0  0  0  0  2  0  0  0  0  0  0
  -26.0210  -29.4530   20.7720 C   0  0  0  0  0  0  0  0  0  0  0  0
  -27.1970  -28.6390   20.7740 C   0  0  0  0  0  3  0  0  0  0  0  0
  -26.0040  -26.9680   19.4950 C   0  0  0  0  0  3  0  0  0  0  0  0
  -24.8420  -27.7500   19.5180 C   0  0  0  0  0  3  0  0  0  0  0  0
  -23.6140  -29.8650   20.2140 C   0  0  0  0  0  2  0  0  0  0  0  0
  -24.6730  -31.1080   22.1430 N   0  0  0  0  0  0  0  0  0  0  0  0
  -23.5230  -32.1930   23.7730 O   0  0  0  0  0  0  0  0  0  0  0  0
  -22.7350  -29.5060   22.5500 C   0  0  0  0  0  0  0  0  0  0  0  0
  -21.4090  -29.3330   22.4220 N   0  0  0  0  0  0  0  0  0  0  0  0
  -23.4110  -28.8740   23.3660 O   0  0  0  0  0  0  0  0  0  0  0  0
  -20.9210  -29.8970   21.7390 H   0  0  0  0  0  0  0  0  0  0  0  0
  -18.0250  -28.1560   22.9300 C   0  0  0  0  0  0  0  0  0  0  0  0
  -20.5860  -28.3970   23.1890 C   0  0  0  0  0  3  0  0  0  0  0  0
  -20.6760  -26.9670   22.6090 C   0  0  0  0  0  2  0  0  0  0  0  0
  -19.5680  -26.6560   21.5980 C   0  0  0  0  0  2  0  0  0  0  0  0
  -18.1890  -26.8080   22.2460 C   0  0  0  0  0  2  0  0  0  0  0  0
  -19.1510  -28.9090   23.3580 C   0  0  0  0  0  0  0  0  0  0  0  0
  -18.9420  -30.1710   23.9570 C   0  0  0  0  0  3  0  0  0  0  0  0
  -17.6410  -30.6800   24.1290 C   0  0  0  0  0  3  0  0  0  0  0  0
  -16.5300  -29.9250   23.7150 C   0  0  0  0  0  3  0  0  0  0  0  0
  -16.7230  -28.6640   23.1230 C   0  0  0  0  0  3  0  0  0  0  0  0
  -25.8910  -32.5440   23.8640 C   0  0  0  0  0  3  0  0  0  0  0  0
  -25.5860  -33.9430   24.1930 N   0  0  0  0  0  0  0  0  0  0  0  0
  -25.9160  -34.9940   23.4310 C   0  0  0  0  0  0  0  0  0  0  0  0
  -26.5800  -34.8880   22.3970 O   0  0  0  0  0  0  0  0  0  0  0  0
  -25.0010  -34.1010   25.0010 H   0  0  0  0  0  0  0  0  0  0  0  0
  -24.1910  -36.7900   23.0810 C   0  0  0  0  0  1  0  0  0  0  0  0
  -25.4340  -36.3850   23.8890 C   0  0  0  0  0  3  0  0  0  0  0  0
  -27.5730  -37.2640   24.7130 C   0  0  0  0  0  1  0  0  0  0  0  0
  -26.4690  -37.4350   23.7720 N   0  0  0  0  0  0  0  0  0  0  0  0
  -26.0670  -38.3570   23.9190 H   0  0  0  0  0  0  0  0  0  0  0  0
  -26.4010  -31.7710   25.1430 C   0  0  1  0  0  0  0  0  0  0  0  0
  -25.3050  -31.5360   26.2090 C   0  0  0  0  0  1  0  0  0  0  0  0
  -26.9850  -30.3930   24.7540 C   0  0  0  0  0  1  0  0  0  0  0  0
  -27.5530  -32.5640   25.8050 C   0  0  0  0  0  1  0  0  0  0  0  0
  -30.3960  -23.6710   18.3260 C   0  0  0  0  0  2  0  0  0  0  0  0
  -32.4940  -24.9470   17.5830 C   0  0  0  0  0  1  0  0  0  0  0  0
  -31.7190  -24.3310   18.7540 C   0  0  0  0  0  2  0  0  0  0  0  0
  -29.6440  -18.4780   20.5370 C   0  0  0  0  0  2  0  0  0  0  0  0
  -30.5390  -17.2060   20.9030 C   0  0  0  0  0  2  0  0  0  0  0  0
  -30.6770  -14.6880   20.4240 C   0  0  0  0  0  0  0  0  0  0  0  0
  -30.4100  -12.4590   19.3570 C   0  0  0  0  0  2  0  0  0  0  0  0
  -29.4760  -12.5750   18.1350 C   0  0  0  0  0  2  0  0  0  0  0  0
  -28.0060  -12.4080   18.5660 C   0  0  0  0  0  2  0  0  0  0  0  0
  -27.6380  -13.2840   19.7940 C   0  0  0  0  0  3  0  0  0  0  0  0
  -28.6970  -13.1710   20.9130 C   0  0  0  0  0  2  0  0  0  0  0  0
  -30.0030  -13.4980   20.3250 N   0  0  0  0  0  0  0  0  0  0  0  0
  -31.8510  -14.7800   20.0610 O   0  0  0  0  0  0  0  0  0  0  0  0
  -29.9730  -15.8150   20.7580 N   0  0  0  0  0  0  0  0  0  0  0  0
  -28.9990  -15.6890   20.9870 H   0  0  0  0  0  0  0  0  0  0  0  0
  -25.2400  -13.8680   20.4980 C   0  0  0  0  0  0  0  0  0  0  0  0
  -24.1770  -13.0890   20.8660 C   0  0  0  0  0  0  0  0  0  0  0  0
  -24.6490  -11.7400   20.8450 C   0  0  0  0  0  0  0  0  0  0  0  0
  -26.2910  -12.9930   20.2770 N   0  0  0  0  0  0  0  0  0  0  0  0
  -25.9430  -11.7090   20.5470 N   0  0  0  0  0  0  0  0  0  0  0  0
  -23.9300  -10.4740   21.0350 C   0  0  0  0  0  0  0  0  0  0  0  0
  -24.3660   -9.5110   21.9720 C   0  0  0  0  0  3  0  0  0  0  0  0
  -23.6490   -8.3090   22.1520 C   0  0  0  0  0  3  0  0  0  0  0  0
  -22.4790   -8.0620   21.3950 C   0  0  0  0  0  0  0  0  0  0  0  0
  -22.0610   -9.0120   20.4480 C   0  0  0  0  0  3  0  0  0  0  0  0
  -22.7810  -10.2060   20.2660 C   0  0  0  0  0  3  0  0  0  0  0  0
  -21.7330   -6.9110   21.4830 O   0  0  0  0  0  0  0  0  0  0  0  0
  -21.6860   -6.1700   22.6360 C   0  0  0  0  0  0  0  0  0  0  0  0
  -21.2490   -6.7230   23.8600 C   0  0  0  0  0  3  0  0  0  0  0  0
  -21.1510   -5.9080   25.0060 C   0  0  0  0  0  3  0  0  0  0  0  0
  -21.4800   -4.5410   24.9280 C   0  0  0  0  0  0  0  0  0  0  0  0
  -21.9100   -3.9870   23.7090 C   0  0  0  0  0  3  0  0  0  0  0  0
  -22.0110   -4.7990   22.5660 C   0  0  0  0  0  0  0  0  0  0  0  0
  -22.4040   -4.2570   21.3890 F   0  0  0  0  0  0  0  0  0  0  0  0
  -21.3790   -3.7550   26.0260 F   0  0  0  0  0  0  0  0  0  0  0  0
  -22.7740  -13.5570   21.1250 C   0  0  0  0  0  0  0  0  0  0  0  0
  -22.0460  -12.8590   21.9890 N   0  0  0  0  0  0  0  0  0  0  0  0
  -22.3330  -14.5770   20.5970 O   0  0  0  0  0  0  0  0  0  0  0  0
  -22.4170  -12.0330   22.4350 H   0  0  0  0  0  0  0  0  0  0  0  0
  -21.1040  -13.1530   22.2070 H   0  0  0  0  0  0  0  0  0  0  0  0
  -25.3970  -15.2380   20.3120 N   0  0  0  0  0  0  0  0  0  0  0  0
  -24.6240  -15.8900   20.4060 H   0  0  0  0  0  0  0  0  0  0  0  0
  -26.2430  -15.6760   19.9680 H   0  0  0  0  0  0  0  0  0  0  0  0
  1  2  1  0
  3  1  2  0
  4  6  2  0
  4  3  1  0
  5  7  1  0
  5  2  2  0
  6  5  1  0
  7  8  1  0
  9 10  1  0
  9  3  1  0
 11 22  2  0
 12 10  1  0
 12 17  1  0
 13 21  1  0
 13 23  1  0
 14 20  1  0
 14 16  1  0
 15 21  1  0
 16 17  2  0
 16 15  1  0
 18 19  1  0
 18 12  2  0
 19 14  2  0
 20 13  1  0
 21 11  1  0
 23 25  2  0
 24 23  1  0
 26 24  1  0
 27 36  2  0
 27 32  1  0
 28 24  1  0
 28 32  1  0
 29 28  1  0
 30 31  1  0
 30 29  1  0
 31 27  1  0
 32 33  2  0
 33 34  1  0
 35 34  2  0
 36 35  1  0
 37 11  1  0
 37 38  1  0
 37 47  1  0
 38 41  1  0
 39 43  1  0
 39 38  1  0
 40 39  2  0
 43 42  1  0
 45 43  1  0
 45 46  1  0
 45 44  1  0
 47 50  1  1
 47 48  1  0
 49 47  1  0
 51 53  1  0
 51  4  1  0
 52 53  1  0
 54 55  1  0
 54  7  1  0
 56 64  1  0
 57 62  1  0
 58 59  1  0
 58 57  1  0
 60 59  1  0
 60 69  1  0
 60 61  1  0
 62 56  1  0
 62 61  1  0
 63 56  2  0
 64 55  1  0
 64 65  1  0
 66 67  2  0
 67 86  1  0
 68 67  1  0
 68 71  1  0
 69 66  1  0
 69 70  1  0
 70 68  2  0
 71 72  1  0
 72 73  2  0
 74 77  1  0
 74 73  1  0
 75 74  2  0
 76 75  1  0
 76 71  2  0
 77 78  1  0
 78 79  1  0
 79 80  2  0
 81 80  1  0
 81 85  1  0
 82 81  2  0
 83 78  2  0
 83 82  1  0
 84 83  1  0
 86 87  1  0
 87 90  1  0
 87 89  1  0
 88 86  2  0
 91 92  1  0
 91 66  1  0
 93 91  1  0
M  ISO  4   9 101  10 101  56 100  64 100
M  END
>  <TORSDO>  (30) 
F 21

>  <SCORE>  (30) 
-13.697

>  <name>  (30) 
29

>  <ligand_id>  (30) 
29

>  <original_smiles>  (30) 
[H]c1c(N([H])C([H])([H])C([H])([H])N([H])C(=O)N2C([H])([H])C([H])([H])C([H])([H])C([H])(n3nc(-c4c([H])c([H])c(Oc5c([H])c([H])c(F)c([H])c5F)c([H])c4[H])c(C(=O)N([H])[H])c3N([H])[H])C2([H])[H])nc(C([H])([H])C([H])([H])C([H])([H])[H])c(C([H])([H])Oc2c([H])c([H])c3c(c2[H])C([H])([H])N(C(=O)C([H])(N([H])C(=O)C([H])(N([H])C([H])([H])[H])C([H])([H])[H])C(C([H])([H])[H])(C([H])([H])[H])C([H])([H])[H])C([H])(C(=O)N([H])C2([H])c4c([H])c([H])c([H])c([H])c4C([H])([H])C([H])([H])C2([H])[H])C3([H])[H])c1[H]

>  <smiles>  (30) 
[H]c1c(N([H])C([H])([H])C([H])([H])N([H])C(=O)N2C([H])([H])C([H])([H])C([H])([H])C([H])(n3nc(-c4c([H])c([H])c(Oc5c([H])c([H])c(F)c([H])c5F)c([H])c4[H])c(C(=O)N([H])[H])c3N([H])[H])C2([H])[H])nc(C([H])([H])C([H])([H])C([H])([H])[H])c(C([H])([H])Oc2c([H])c([H])c3c(c2[H])C([H])([H])N(C(=O)C([H])(N([H])C(=O)C([H])(N([H])C([H])([H])[H])C([H])([H])[H])C(C([H])([H])[H])(C([H])([H])[H])C([H])([H])[H])C([H])(C(=O)N([H])C2([H])c4c([H])c([H])c([H])c([H])c4C([H])([H])C([H])([H])C2([H])[H])C3([H])[H])c1[H]

$$$$
30:0:0
     RDKit          3D

 93101  0  0  1  0  0  0  0  0999 V2000
  -28.9630  -24.2730   19.0580 C   0  0  0  0  0  3  0  0  0  0  0  0
  -28.2990  -24.8720   21.0780 C   0  0  0  0  0  3  0  0  0  0  0  0
  -28.5730  -25.4320   19.8570 C   0  0  0  0  0  0  0  0  0  0  0  0
  -28.8710  -23.0650   19.7670 C   0  0  0  0  0  0  0  0  0  0  0  0
  -28.4390  -23.4740   21.0340 N   0  0  0  0  0  0  0  0  0  0  0  0
  -26.9780  -23.0530   23.0060 C   0  0  0  0  0  1  0  0  0  0  0  0
  -29.4540  -22.4580   23.0310 C   0  0  0  0  0  1  0  0  0  0  0  0
  -28.1880  -22.5950   22.1760 C   0  0  0  0  0  3  0  0  0  0  0  0
  -28.5540  -26.8250   19.5240 O   0  0  0  0  0  0  0  0  0  0  0  0
  -24.7240  -31.8220   23.1990 C   0  0  0  0  0  0  0  0  0  0  0  0
  -27.4100  -27.6390   19.6610 C   0  0  0  0  0  0  0  0  0  0  0  0
  -23.5300  -30.5450   21.4560 C   0  0  0  0  0  3  0  0  0  0  0  0
  -24.9970  -29.1830   19.8570 C   0  0  0  0  0  0  0  0  0  0  0  0
  -26.0530  -30.9620   21.2510 C   0  0  0  0  0  2  0  0  0  0  0  0
  -26.1650  -29.6480   20.4770 C   0  0  0  0  0  0  0  0  0  0  0  0
  -27.3740  -28.8870   20.3710 C   0  0  0  0  0  3  0  0  0  0  0  0
  -26.2180  -27.2350   19.0260 C   0  0  0  0  0  3  0  0  0  0  0  0
  -25.0270  -27.9850   19.1230 C   0  0  0  0  0  3  0  0  0  0  0  0
  -23.7360  -30.0120   20.0130 C   0  0  0  0  0  2  0  0  0  0  0  0
  -24.7890  -31.1240   22.0270 N   0  0  0  0  0  0  0  0  0  0  0  0
  -23.6450  -32.0060   23.7810 O   0  0  0  0  0  0  0  0  0  0  0  0
  -22.9250  -29.4180   22.3290 C   0  0  0  0  0  0  0  0  0  0  0  0
  -21.6070  -29.1850   22.1900 N   0  0  0  0  0  0  0  0  0  0  0  0
  -23.6400  -28.7610   23.0900 O   0  0  0  0  0  0  0  0  0  0  0  0
  -21.0860  -29.7710   21.5540 H   0  0  0  0  0  0  0  0  0  0  0  0
  -18.3050  -27.7630   22.5850 C   0  0  0  0  0  0  0  0  0  0  0  0
  -20.8450  -28.1420   22.8810 C   0  0  0  0  0  3  0  0  0  0  0  0
  -21.0250  -26.7710   22.1900 C   0  0  0  0  0  2  0  0  0  0  0  0
  -19.9400  -26.4720   21.1500 C   0  0  0  0  0  2  0  0  0  0  0  0
  -18.5550  -26.4850   21.8000 C   0  0  0  0  0  2  0  0  0  0  0  0
  -19.3790  -28.5480   23.0800 C   0  0  0  0  0  0  0  0  0  0  0  0
  -19.0910  -29.7440   23.7730 C   0  0  0  0  0  3  0  0  0  0  0  0
  -17.7590  -30.1550   23.9780 C   0  0  0  0  0  3  0  0  0  0  0  0
  -16.7000  -29.3660   23.4980 C   0  0  0  0  0  3  0  0  0  0  0  0
  -16.9730  -28.1720   22.8080 C   0  0  0  0  0  3  0  0  0  0  0  0
  -25.9980  -32.4390   23.8530 C   0  0  0  0  0  3  0  0  0  0  0  0
  -25.6600  -33.8010   24.2870 N   0  0  0  0  0  0  0  0  0  0  0  0
  -25.9380  -34.9130   23.5950 C   0  0  0  0  0  0  0  0  0  0  0  0
  -26.5760  -34.9010   22.5380 O   0  0  0  0  0  0  0  0  0  0  0  0
  -25.0870  -33.8820   25.1150 H   0  0  0  0  0  0  0  0  0  0  0  0
  -24.1440  -36.6690   23.4320 C   0  0  0  0  0  1  0  0  0  0  0  0
  -25.4290  -36.2520   24.1640 C   0  0  0  0  0  3  0  0  0  0  0  0
  -27.5630  -37.1560   24.9740 C   0  0  0  0  0  1  0  0  0  0  0  0
  -26.4230  -37.3440   24.0820 N   0  0  0  0  0  0  0  0  0  0  0  0
  -25.9940  -38.2400   24.3000 H   0  0  0  0  0  0  0  0  0  0  0  0
  -26.5460  -31.5910   25.0660 C   0  0  1  0  0  0  0  0  0  0  0  0
  -25.4720  -31.2570   26.1270 C   0  0  0  0  0  1  0  0  0  0  0  0
  -27.1520  -30.2560   24.5730 C   0  0  0  0  0  1  0  0  0  0  0  0
  -27.6870  -32.3610   25.7710 C   0  0  0  0  0  1  0  0  0  0  0  0
  -28.9810  -21.5330   19.3290 C   0  0  0  0  0  2  0  0  0  0  0  0
  -29.8510  -20.4720   20.0280 N   0  0  0  0  0  4  0  0  0  0  0  0
  -30.7990  -20.6300   19.7290 H   0  0  0  0  0  0  0  0  0  0  0  0
  -29.8250  -20.6490   21.0170 H   0  0  0  0  0  0  0  0  0  0  0  0
  -29.5180  -18.9740   19.8200 C   0  0  0  0  0  3  0  0  0  0  0  0
  -30.5470  -17.8270   20.3540 C   0  0  0  0  0  3  0  0  0  0  0  0
  -30.9620  -15.2090   20.1440 C   0  0  0  0  0  0  0  0  0  0  0  0
  -30.7830  -12.8970   19.2050 C   0  0  0  0  0  2  0  0  0  0  0  0
  -29.8420  -12.9230   17.9790 C   0  0  0  0  0  2  0  0  0  0  0  0
  -28.3720  -12.7630   18.4130 C   0  0  0  0  0  2  0  0  0  0  0  0
  -27.9950  -13.6870   19.6020 C   0  0  0  0  0  3  0  0  0  0  0  0
  -29.0530  -13.6370   20.7240 C   0  0  0  0  0  2  0  0  0  0  0  0
  -30.3450  -13.9790   20.1140 N   0  0  0  0  0  0  0  0  0  0  0  0
  -32.1550  -15.3080   19.8460 O   0  0  0  0  0  0  0  0  0  0  0  0
  -30.1710  -16.3370   20.3040 N   0  0  0  0  0  0  0  0  0  0  0  0
  -29.1960  -16.1350   20.4710 H   0  0  0  0  0  0  0  0  0  0  0  0
  -25.6310  -14.3070   20.3850 C   0  0  0  0  0  0  0  0  0  0  0  0
  -24.5520  -13.5460   20.7410 C   0  0  0  0  0  0  0  0  0  0  0  0
  -24.9810  -12.1870   20.6550 C   0  0  0  0  0  0  0  0  0  0  0  0
  -26.6500  -13.4130   20.1010 N   0  0  0  0  0  0  0  0  0  0  0  0
  -26.2670  -12.1310   20.3290 N   0  0  0  0  0  0  0  0  0  0  0  0
  -24.2280  -10.9350   20.8040 C   0  0  0  0  0  0  0  0  0  0  0  0
  -24.6290   -9.9370   21.7190 C   0  0  0  0  0  3  0  0  0  0  0  0
  -23.8760   -8.7510   21.8600 C   0  0  0  0  0  3  0  0  0  0  0  0
  -22.7060   -8.5580   21.0890 C   0  0  0  0  0  0  0  0  0  0  0  0
  -22.3240   -9.5450   20.1640 C   0  0  0  0  0  3  0  0  0  0  0  0
  -23.0770  -10.7210   20.0190 C   0  0  0  0  0  3  0  0  0  0  0  0
  -21.9260   -7.4270   21.1430 O   0  0  0  0  0  0  0  0  0  0  0  0
  -21.8180   -6.6810   22.2880 C   0  0  0  0  0  0  0  0  0  0  0  0
  -21.3250   -7.2290   23.4940 C   0  0  0  0  0  3  0  0  0  0  0  0
  -21.1650   -6.4070   24.6270 C   0  0  0  0  0  3  0  0  0  0  0  0
  -21.4880   -5.0390   24.5560 C   0  0  0  0  0  0  0  0  0  0  0  0
  -21.9740   -4.4910   23.3560 C   0  0  0  0  0  3  0  0  0  0  0  0
  -22.1350   -5.3090   22.2240 C   0  0  0  0  0  0  0  0  0  0  0  0
  -22.5830   -4.7710   21.0630 F   0  0  0  0  0  0  0  0  0  0  0  0
  -21.3270   -4.2450   25.6420 F   0  0  0  0  0  0  0  0  0  0  0  0
  -23.1680  -14.0460   21.0430 C   0  0  0  0  0  0  0  0  0  0  0  0
  -22.4350  -13.3430   21.8980 N   0  0  0  0  0  0  0  0  0  0  0  0
  -22.7490  -15.0970   20.5580 O   0  0  0  0  0  0  0  0  0  0  0  0
  -22.7870  -12.4920   22.3110 H   0  0  0  0  0  0  0  0  0  0  0  0
  -21.5070  -13.6600   22.1410 H   0  0  0  0  0  0  0  0  0  0  0  0
  -25.8250  -15.6800   20.2550 N   0  0  0  0  0  0  0  0  0  0  0  0
  -25.0610  -16.3360   20.3860 H   0  0  0  0  0  0  0  0  0  0  0  0
  -26.6560  -16.1130   19.8780 H   0  0  0  0  0  0  0  0  0  0  0  0
  1  4  2  0
  1  3  1  0
  3  2  2  0
  4  5  1  0
  5  2  1  0
  5  8  1  0
  8  6  1  0
  8  7  1  0
  9 11  1  0
  9  3  1  0
 10 21  2  0
 11 16  1  0
 12 20  1  0
 12 22  1  0
 13 19  1  0
 13 15  1  0
 14 20  1  0
 15 14  1  0
 16 15  2  0
 17 18  1  0
 17 11  2  0
 18 13  2  0
 19 12  1  0
 20 10  1  0
 22 24  2  0
 23 22  1  0
 25 23  1  0
 26 35  2  0
 26 31  1  0
 27 23  1  0
 27 31  1  0
 28 27  1  0
 29 30  1  0
 29 28  1  0
 30 26  1  0
 31 32  2  0
 32 33  1  0
 34 33  2  0
 35 34  1  0
 36 10  1  0
 36 37  1  0
 36 46  1  0
 37 40  1  0
 38 42  1  0
 38 37  1  0
 39 38  2  0
 42 41  1  0
 44 42  1  0
 44 45  1  0
 44 43  1  0
 46 49  1  1
 46 47  1  0
 48 46  1  0
 50  4  1  0
 50 51  1  0
 51 53  1  0
 52 51  1  0
 54 51  1  0
 54 55  2  0
 56 64  1  0
 57 62  1  0
 58 59  1  0
 58 57  1  0
 60 59  1  0
 60 69  1  0
 60 61  1  0
 62 56  1  0
 62 61  1  0
 63 56  2  0
 64 55  1  0
 64 65  1  0
 66 67  2  0
 67 86  1  0
 68 67  1  0
 68 71  1  0
 69 70  1  0
 69 66  1  0
 70 68  2  0
 71 72  1  0
 72 73  2  0
 74 77  1  0
 74 73  1  0
 75 74  2  0
 76 75  1  0
 76 71  2  0
 77 78  1  0
 78 79  1  0
 79 80  2  0
 81 80  1  0
 81 85  1  0
 82 81  2  0
 83 78  2  0
 83 82  1  0
 84 83  1  0
 86 87  1  0
 87 90  1  0
 87 89  1  0
 88 86  2  0
 91 66  1  0
 91 92  1  0
 93 91  1  0
M  ISO  4   3 101   9 101  56 100  64 100
M  END
>  <TORSDO>  (31) 
F 21

>  <SCORE>  (31) 
-10.259

>  <name>  (31) 
30

>  <ligand_id>  (31) 
30

>  <original_smiles>  (31) 
[H]c1c([H])c([H])c2c(c1[H])C([H])([H])C([H])([H])C([H])([H])C2([H])N([H])C(=O)C1([H])N(C(=O)C([H])(N([H])C(=O)C([H])(N([H])C([H])([H])[H])C([H])([H])[H])C(C([H])([H])[H])(C([H])([H])[H])C([H])([H])[H])C([H])([H])c2c([H])c(Oc3c([H])c(C([H])([H])[N+]([H])([H])C([H])([H])C([H])([H])N([H])C(=O)N4C([H])([H])C([H])([H])C([H])([H])C([H])(n5nc(-c6c([H])c([H])c(Oc7c([H])c([H])c(F)c([H])c7F)c([H])c6[H])c(C(=O)N([H])[H])c5N([H])[H])C4([H])[H])n(C([H])(C([H])([H])[H])C([H])([H])[H])c3[H])c([H])c([H])c2C1([H])[H]

>  <smiles>  (31) 
[H]c1c([H])c([H])c2c(c1[H])C([H])([H])C([H])([H])C([H])([H])C2([H])N([H])C(=O)C1([H])N(C(=O)C([H])(N([H])C(=O)C([H])(N([H])C([H])([H])[H])C([H])([H])[H])C(C([H])([H])[H])(C([H])([H])[H])C([H])([H])[H])C([H])([H])c2c([H])c(Oc3c([H])c(C([H])([H])[N+]([H])([H])C([H])([H])C([H])([H])N([H])C(=O)N4C([H])([H])C([H])([H])C([H])([H])C([H])(n5nc(-c6c([H])c([H])c(Oc7c([H])c([H])c(F)c([H])c7F)c([H])c6[H])c(C(=O)N([H])[H])c5N([H])[H])C4([H])[H])n(C([H])(C([H])([H])[H])C([H])([H])[H])c3[H])c([H])c([H])c2C1([H])[H]

$$$$
31:0:0
     RDKit          3D

 97106  0  0  1  0  0  0  0  0999 V2000
  -30.5270  -22.1660   21.3170 C   0  0  0  0  0  2  0  0  0  0  0  0
  -27.9960  -21.9140   21.2780 C   0  0  0  0  0  2  0  0  0  0  0  0
  -30.2030  -23.6680   21.4280 C   0  0  0  0  0  2  0  0  0  0  0  0
  -28.1690  -22.9560   20.1580 C   0  0  0  0  0  2  0  0  0  0  0  0
  -29.3350  -21.2590   21.7010 C   0  0  0  0  0  3  0  0  0  0  0  0
  -29.0470  -24.0890   20.5760 N   0  0  1  0  0  4  0  0  0  0  0  0
  -29.4340  -24.4330   19.7070 H   0  0  0  0  0  0  0  0  0  0  0  0
  -28.9000  -19.2570   20.1120 C   0  0  0  0  0  3  0  0  0  0  0  0
  -29.4810  -17.9820   19.9120 C   0  0  0  0  0  3  0  0  0  0  0  0
  -29.5460  -19.8650   21.1520 C   0  0  0  0  0  0  0  0  0  0  0  0
  -30.4810  -17.8190   20.8290 C   0  0  0  0  0  0  0  0  0  0  0  0
  -30.5230  -18.9760   21.6210 N   0  0  0  0  0  0  0  0  0  0  0  0
  -32.8950  -19.2150   22.4840 C   0  0  0  0  0  1  0  0  0  0  0  0
  -31.0120  -18.2910   23.9580 C   0  0  0  0  0  1  0  0  0  0  0  0
  -31.3900  -19.2170   22.7910 C   0  0  0  0  0  3  0  0  0  0  0  0
  -31.4090  -16.6450   20.9990 C   0  0  0  0  0  2  0  0  0  0  0  0
  -31.1640  -14.4910   19.7540 C   0  0  0  0  0  0  0  0  0  0  0  0
  -30.7610  -12.2600   18.7760 C   0  0  0  0  0  2  0  0  0  0  0  0
  -29.7440  -12.3250   17.6240 C   0  0  0  0  0  2  0  0  0  0  0  0
  -28.3030  -12.2220   18.1600 C   0  0  0  0  0  2  0  0  0  0  0  0
  -28.0360  -13.2030   19.3310 C   0  0  0  0  0  3  0  0  0  0  0  0
  -29.1530  -13.1090   20.3930 C   0  0  0  0  0  2  0  0  0  0  0  0
  -30.4490  -13.3370   19.7270 N   0  0  0  0  0  0  0  0  0  0  0  0
  -32.1280  -14.7080   19.0110 O   0  0  0  0  0  0  0  0  0  0  0  0
  -30.7770  -15.3680   20.6870 N   0  0  0  0  0  0  0  0  0  0  0  0
  -29.9810  -15.1070   21.2480 H   0  0  0  0  0  0  0  0  0  0  0  0
  -25.7410  -13.9080   20.2650 C   0  0  0  0  0  0  0  0  0  0  0  0
  -24.6700  -13.1780   20.7050 C   0  0  0  0  0  0  0  0  0  0  0  0
  -25.0540  -11.8060   20.5930 C   0  0  0  0  0  0  0  0  0  0  0  0
  -26.7150  -12.9830   19.9170 N   0  0  0  0  0  0  0  0  0  0  0  0
  -26.3080  -11.7120   20.1670 N   0  0  0  0  0  0  0  0  0  0  0  0
  -24.2820  -10.5770   20.8110 C   0  0  0  0  0  0  0  0  0  0  0  0
  -24.6780   -9.6150   21.7680 C   0  0  0  0  0  3  0  0  0  0  0  0
  -23.9090   -8.4500   21.9720 C   0  0  0  0  0  3  0  0  0  0  0  0
  -22.7290   -8.2370   21.2200 C   0  0  0  0  0  0  0  0  0  0  0  0
  -22.3530   -9.1860   20.2530 C   0  0  0  0  0  3  0  0  0  0  0  0
  -23.1210  -10.3440   20.0480 C   0  0  0  0  0  3  0  0  0  0  0  0
  -21.9340   -7.1220   21.3310 O   0  0  0  0  0  0  0  0  0  0  0  0
  -21.7770   -6.4680   22.5270 C   0  0  0  0  0  0  0  0  0  0  0  0
  -21.2710   -7.1200   23.6720 C   0  0  0  0  0  3  0  0  0  0  0  0
  -21.0590   -6.3930   24.8610 C   0  0  0  0  0  3  0  0  0  0  0  0
  -21.3430   -5.0150   24.9040 C   0  0  0  0  0  0  0  0  0  0  0  0
  -21.8400   -4.3620   23.7620 C   0  0  0  0  0  3  0  0  0  0  0  0
  -22.0530   -5.0870   22.5760 C   0  0  0  0  0  0  0  0  0  0  0  0
  -22.5130   -4.4490   21.4730 F   0  0  0  0  0  0  0  0  0  0  0  0
  -21.1320   -4.3140   26.0420 F   0  0  0  0  0  0  0  0  0  0  0  0
  -23.3310  -13.7150   21.1210 C   0  0  0  0  0  0  0  0  0  0  0  0
  -22.6580  -13.0370   22.0430 N   0  0  0  0  0  0  0  0  0  0  0  0
  -22.8950  -14.7700   20.6610 O   0  0  0  0  0  0  0  0  0  0  0  0
  -23.0240  -12.1820   22.4340 H   0  0  0  0  0  0  0  0  0  0  0  0
  -21.7630  -13.3790   22.3650 H   0  0  0  0  0  0  0  0  0  0  0  0
  -25.9620  -15.2730   20.1130 N   0  0  0  0  0  0  0  0  0  0  0  0
  -25.2490  -15.9650   20.3190 H   0  0  0  0  0  0  0  0  0  0  0  0
  -26.8160  -15.6800   19.7500 H   0  0  0  0  0  0  0  0  0  0  0  0
  -28.2950  -25.2420   21.1520 C   0  0  0  0  0  2  0  0  0  0  0  0
  -28.9190  -26.6060   20.7870 C   0  0  0  0  0  2  0  0  0  0  0  0
  -28.3650  -27.0800   19.5580 O   0  0  0  0  0  0  0  0  0  0  0  0
  -24.5370  -31.9550   23.0850 C   0  0  0  0  0  0  0  0  0  0  0  0
  -27.1960  -27.7940   19.6720 C   0  0  0  0  0  0  0  0  0  0  0  0
  -23.3110  -30.6160   21.4010 C   0  0  0  0  0  3  0  0  0  0  0  0
  -24.7570  -29.2070   19.8410 C   0  0  0  0  0  0  0  0  0  0  0  0
  -25.8130  -31.0650   21.1420 C   0  0  0  0  0  2  0  0  0  0  0  0
  -25.9140  -29.7350   20.4260 C   0  0  0  0  0  0  0  0  0  0  0  0
  -27.1350  -29.0370   20.3440 C   0  0  0  0  0  3  0  0  0  0  0  0
  -26.0290  -27.2790   19.0730 C   0  0  0  0  0  3  0  0  0  0  0  0
  -24.8070  -27.9750   19.1620 C   0  0  0  0  0  3  0  0  0  0  0  0
  -23.4910  -30.0220   19.9760 C   0  0  0  0  0  2  0  0  0  0  0  0
  -24.5730  -31.2240   21.9350 N   0  0  0  0  0  0  0  0  0  0  0  0
  -23.4710  -32.1650   23.6760 O   0  0  0  0  0  0  0  0  0  0  0  0
  -22.7200  -29.5240   22.3190 C   0  0  0  0  0  0  0  0  0  0  0  0
  -21.3970  -29.3200   22.2310 N   0  0  0  0  0  0  0  0  0  0  0  0
  -23.4480  -28.8640   23.0660 O   0  0  0  0  0  0  0  0  0  0  0  0
  -20.8710  -29.9080   21.5980 H   0  0  0  0  0  0  0  0  0  0  0  0
  -18.0630  -28.0550   22.8000 C   0  0  0  0  0  0  0  0  0  0  0  0
  -20.6270  -28.3210   22.9700 C   0  0  0  0  0  3  0  0  0  0  0  0
  -20.7150  -26.9370   22.2870 C   0  0  0  0  0  2  0  0  0  0  0  0
  -19.5690  -26.6740   21.3050 C   0  0  0  0  0  2  0  0  0  0  0  0
  -18.2190  -26.7570   22.0230 C   0  0  0  0  0  2  0  0  0  0  0  0
  -19.1940  -28.7970   23.2310 C   0  0  0  0  0  0  0  0  0  0  0  0
  -18.9950  -30.0150   23.9170 C   0  0  0  0  0  3  0  0  0  0  0  0
  -17.6970  -30.4900   24.1780 C   0  0  0  0  0  3  0  0  0  0  0  0
  -16.5790  -29.7430   23.7670 C   0  0  0  0  0  3  0  0  0  0  0  0
  -16.7640  -28.5270   23.0830 C   0  0  0  0  0  3  0  0  0  0  0  0
  -25.8300  -32.5810   23.6970 C   0  0  0  0  0  3  0  0  0  0  0  0
  -25.5190  -33.9690   24.0640 N   0  0  0  0  0  0  0  0  0  0  0  0
  -25.8480  -35.0400   23.3300 C   0  0  0  0  0  0  0  0  0  0  0  0
  -26.5180  -34.9670   22.2960 O   0  0  0  0  0  0  0  0  0  0  0  0
  -24.9280  -34.0980   24.8720 H   0  0  0  0  0  0  0  0  0  0  0  0
  -24.1180  -36.8360   23.0100 C   0  0  0  0  0  1  0  0  0  0  0  0
  -25.3540  -36.4150   23.8210 C   0  0  0  0  0  3  0  0  0  0  0  0
  -27.4820  -37.2760   24.6890 C   0  0  0  0  0  1  0  0  0  0  0  0
  -26.3850  -37.4720   23.7440 N   0  0  0  0  0  0  0  0  0  0  0  0
  -25.9780  -38.3850   23.9220 H   0  0  0  0  0  0  0  0  0  0  0  0
  -26.3790  -31.7830   24.9430 C   0  0  1  0  0  0  0  0  0  0  0  0
  -25.3010  -31.4900   26.0140 C   0  0  0  0  0  1  0  0  0  0  0  0
  -26.9880  -30.4330   24.4980 C   0  0  0  0  0  1  0  0  0  0  0  0
  -27.5190  -32.5810   25.6180 C   0  0  0  0  0  1  0  0  0  0  0  0
  1  3  1  0
  1  5  1  0
  2  5  1  0
  4  6  1  0
  4  2  1  0
  5 10  1  0
  6 55  1  0
  6  3  1  0
  6  7  1  6
  8 10  2  0
  9  8  1  0
  9 11  2  0
 10 12  1  0
 11 16  1  0
 11 12  1  0
 12 15  1  0
 13 15  1  0
 15 14  1  0
 17 25  1  0
 18 23  1  0
 19 20  1  0
 19 18  1  0
 21 20  1  0
 21 30  1  0
 21 22  1  0
 23 17  1  0
 23 22  1  0
 24 17  2  0
 25 16  1  0
 25 26  1  0
 27 28  2  0
 28 47  1  0
 29 28  1  0
 29 32  1  0
 30 31  1  0
 30 27  1  0
 31 29  2  0
 32 33  1  0
 33 34  2  0
 35 38  1  0
 35 34  1  0
 36 35  2  0
 37 36  1  0
 37 32  2  0
 38 39  1  0
 39 44  2  0
 39 40  1  0
 40 41  2  0
 41 42  1  0
 42 46  1  0
 43 42  2  0
 44 43  1  0
 45 44  1  0
 47 48  1  0
 48 51  1  0
 48 50  1  0
 49 47  2  0
 52 27  1  0
 52 53  1  0
 54 52  1  0
 56 55  1  0
 57 59  1  0
 57 56  1  0
 58 69  2  0
 59 64  1  0
 60 68  1  0
 60 70  1  0
 61 67  1  0
 61 63  1  0
 62 68  1  0
 63 62  1  0
 64 63  2  0
 65 66  1  0
 65 59  2  0
 66 61  2  0
 67 60  1  0
 68 58  1  0
 70 72  2  0
 71 70  1  0
 73 71  1  0
 74 83  2  0
 74 79  1  0
 75 71  1  0
 75 79  1  0
 76 75  1  0
 77 78  1  0
 77 76  1  0
 78 74  1  0
 79 80  2  0
 80 81  1  0
 82 81  2  0
 83 82  1  0
 84 58  1  0
 84 85  1  0
 84 94  1  0
 85 88  1  0
 86 90  1  0
 86 85  1  0
 87 86  2  0
 90 89  1  0
 92 90  1  0
 92 93  1  0
 92 91  1  0
 94 97  1  1
 94 95  1  0
 96 94  1  0
M  ISO  4  17 100  25 100  56 101  57 101
M  END
>  <TORSDO>  (32) 
F 21

>  <SCORE>  (32) 
-12.051

>  <name>  (32) 
31

>  <ligand_id>  (32) 
31

>  <original_smiles>  (32) 
[H]c1c([H])c([H])c2c(c1[H])C([H])([H])C([H])([H])C([H])([H])C2([H])N([H])C(=O)C1([H])N(C(=O)C([H])(N([H])C(=O)C([H])(N([H])C([H])([H])[H])C([H])([H])[H])C(C([H])([H])[H])(C([H])([H])[H])C([H])([H])[H])C([H])([H])c2c([H])c(OC([H])([H])C([H])([H])[N+]3([H])C([H])([H])C([H])([H])C([H])(c4c([H])c([H])c(C([H])([H])N([H])C(=O)N5C([H])([H])C([H])([H])C([H])([H])C([H])(n6nc(-c7c([H])c([H])c(Oc8c([H])c([H])c(F)c([H])c8F)c([H])c7[H])c(C(=O)N([H])[H])c6N([H])[H])C5([H])[H])n4C([H])(C([H])([H])[H])C([H])([H])[H])C([H])([H])C3([H])[H])c([H])c([H])c2C1([H])[H]

>  <smiles>  (32) 
[H]c1c([H])c([H])c2c(c1[H])C([H])([H])C([H])([H])C([H])([H])C2([H])N([H])C(=O)C1([H])N(C(=O)C([H])(N([H])C(=O)C([H])(N([H])C([H])([H])[H])C([H])([H])[H])C(C([H])([H])[H])(C([H])([H])[H])C([H])([H])[H])C([H])([H])c2c([H])c(OC([H])([H])C([H])([H])[N+]3([H])C([H])([H])C([H])([H])C([H])(c4c([H])c([H])c(C([H])([H])N([H])C(=O)N5C([H])([H])C([H])([H])C([H])([H])C([H])(n6nc(-c7c([H])c([H])c(Oc8c([H])c([H])c(F)c([H])c8F)c([H])c7[H])c(C(=O)N([H])[H])c6N([H])[H])C5([H])[H])n4C([H])(C([H])([H])[H])C([H])([H])[H])C([H])([H])C3([H])[H])c([H])c([H])c2C1([H])[H]

$$$$
32:0:0
     RDKit          3D

 99107  0  0  1  0  0  0  0  0999 V2000
  -30.6590  -17.0420   22.9460 C   0  0  0  0  0  3  0  0  0  0  0  0
  -30.9410  -18.3560   23.3630 C   0  0  0  0  0  3  0  0  0  0  0  0
  -30.6800  -19.1220   21.0810 C   0  0  0  0  0  3  0  0  0  0  0  0
  -30.4050  -17.8050   20.6370 C   0  0  0  0  0  0  0  0  0  0  0  0
  -30.4080  -16.7460   21.5890 C   0  0  0  0  0  0  0  0  0  0  0  0
  -30.9450  -19.4210   22.4410 C   0  0  0  0  0  0  0  0  0  0  0  0
  -30.7020  -14.5100   20.5230 C   0  0  0  0  0  0  0  0  0  0  0  0
  -30.3910  -12.4290   19.2320 C   0  0  0  0  0  2  0  0  0  0  0  0
  -29.4390  -12.6990   18.0490 C   0  0  0  0  0  2  0  0  0  0  0  0
  -27.9660  -12.5540   18.4760 C   0  0  0  0  0  2  0  0  0  0  0  0
  -27.6430  -13.3370   19.7760 C   0  0  0  0  0  3  0  0  0  0  0  0
  -28.6920  -13.0270   20.8640 C   0  0  0  0  0  2  0  0  0  0  0  0
  -30.0250  -13.3490   20.3190 N   0  0  0  0  0  0  0  0  0  0  0  0
  -31.7930  -14.7590   19.9990 O   0  0  0  0  0  0  0  0  0  0  0  0
  -30.0410  -15.4070   21.2750 N   0  0  0  0  0  0  0  0  0  0  0  0
  -29.2120  -15.0480   21.7260 H   0  0  0  0  0  0  0  0  0  0  0  0
  -25.2340  -13.9490   20.4460 C   0  0  0  0  0  0  0  0  0  0  0  0
  -24.1640  -13.1780   20.8140 C   0  0  0  0  0  0  0  0  0  0  0  0
  -24.6290  -11.8270   20.8080 C   0  0  0  0  0  0  0  0  0  0  0  0
  -26.2840  -13.0680   20.2410 N   0  0  0  0  0  0  0  0  0  0  0  0
  -25.9220  -11.7890   20.5110 N   0  0  0  0  0  0  0  0  0  0  0  0
  -23.9080  -10.5650   21.0110 C   0  0  0  0  0  0  0  0  0  0  0  0
  -24.3470   -9.6040   21.9480 C   0  0  0  0  0  3  0  0  0  0  0  0
  -23.6240   -8.4070   22.1380 C   0  0  0  0  0  3  0  0  0  0  0  0
  -22.4500   -8.1600   21.3890 C   0  0  0  0  0  0  0  0  0  0  0  0
  -22.0300   -9.1090   20.4400 C   0  0  0  0  0  3  0  0  0  0  0  0
  -22.7540  -10.2980   20.2490 C   0  0  0  0  0  3  0  0  0  0  0  0
  -21.7010   -7.0130   21.4830 O   0  0  0  0  0  0  0  0  0  0  0  0
  -21.6660   -6.2710   22.6360 C   0  0  0  0  0  0  0  0  0  0  0  0
  -21.2720   -6.8300   23.8710 C   0  0  0  0  0  3  0  0  0  0  0  0
  -21.1850   -6.0140   25.0170 C   0  0  0  0  0  3  0  0  0  0  0  0
  -21.4820   -4.6410   24.9290 C   0  0  0  0  0  0  0  0  0  0  0  0
  -21.8720   -4.0810   23.6990 C   0  0  0  0  0  3  0  0  0  0  0  0
  -21.9600   -4.8950   22.5550 C   0  0  0  0  0  0  0  0  0  0  0  0
  -22.3140   -4.3480   21.3680 F   0  0  0  0  0  0  0  0  0  0  0  0
  -21.3920   -3.8550   26.0270 F   0  0  0  0  0  0  0  0  0  0  0  0
  -22.7640  -13.6540   21.0700 C   0  0  0  0  0  0  0  0  0  0  0  0
  -22.0360  -12.9690   21.9450 N   0  0  0  0  0  0  0  0  0  0  0  0
  -22.3250  -14.6710   20.5320 O   0  0  0  0  0  0  0  0  0  0  0  0
  -22.4050  -12.1470   22.4000 H   0  0  0  0  0  0  0  0  0  0  0  0
  -21.0970  -13.2720   22.1610 H   0  0  0  0  0  0  0  0  0  0  0  0
  -25.3970  -15.3170   20.2490 N   0  0  0  0  0  0  0  0  0  0  0  0
  -24.6320  -15.9760   20.3410 H   0  0  0  0  0  0  0  0  0  0  0  0
  -26.2570  -15.7510   19.9400 H   0  0  0  0  0  0  0  0  0  0  0  0
  -30.0380  -17.5760   19.1630 C   0  0  0  0  0  2  0  0  0  0  0  0
  -30.7430  -18.5040   18.1520 C   0  0  0  0  0  2  0  0  0  0  0  0
  -29.9030  -19.7340   17.7430 C   0  0  0  0  0  2  0  0  0  0  0  0
  -31.5600  -21.6220   18.2250 C   0  0  0  0  0  1  0  0  0  0  0  0
  -29.8150  -21.9010   16.4360 C   0  0  0  0  0  1  0  0  0  0  0  0
  -30.7290  -20.8960   17.1530 C   0  0  0  0  0  3  0  0  0  0  0  0
  -31.2090  -20.6880   22.9380 O   0  0  0  0  0  0  0  0  0  0  0  0
  -30.9110  -21.8540   22.1570 C   0  0  0  0  0  2  0  0  0  0  0  0
  -29.4070  -22.1930   22.2330 C   0  0  0  0  0  2  0  0  0  0  0  0
  -28.9030  -23.0580   21.1290 N   0  0  0  0  0  4  0  0  0  0  0  0
  -29.1800  -22.6740   20.2390 H   0  0  0  0  0  0  0  0  0  0  0  0
  -27.8980  -22.9790   21.1610 H   0  0  0  0  0  0  0  0  0  0  0  0
  -29.2160  -24.5150   21.1820 C   0  0  0  0  0  2  0  0  0  0  0  0
  -28.3550  -25.2970   20.1570 C   0  0  0  0  0  2  0  0  0  0  0  0
  -28.4490  -26.7300   20.2900 O   0  0  0  0  0  0  0  0  0  0  0  0
  -24.6260  -31.9400   23.2510 C   0  0  0  0  0  0  0  0  0  0  0  0
  -27.2770  -27.4670   20.2180 C   0  0  0  0  0  0  0  0  0  0  0  0
  -23.4260  -30.5320   21.6120 C   0  0  0  0  0  3  0  0  0  0  0  0
  -24.8850  -28.9910   20.2000 C   0  0  0  0  0  0  0  0  0  0  0  0
  -25.9550  -30.8830   21.4250 C   0  0  0  0  0  2  0  0  0  0  0  0
  -26.0420  -29.5080   20.7960 C   0  0  0  0  0  0  0  0  0  0  0  0
  -27.2380  -28.7540   20.8030 C   0  0  0  0  0  3  0  0  0  0  0  0
  -26.1050  -26.9840   19.5840 C   0  0  0  0  0  3  0  0  0  0  0  0
  -24.9130  -27.7280   19.5900 C   0  0  0  0  0  3  0  0  0  0  0  0
  -23.6400  -29.8500   20.2350 C   0  0  0  0  0  2  0  0  0  0  0  0
  -24.6870  -31.1350   22.1530 N   0  0  0  0  0  0  0  0  0  0  0  0
  -23.5430  -32.2140   23.7870 O   0  0  0  0  0  0  0  0  0  0  0  0
  -22.7710  -29.5120   22.5730 C   0  0  0  0  0  0  0  0  0  0  0  0
  -21.4450  -29.3370   22.4500 N   0  0  0  0  0  0  0  0  0  0  0  0
  -23.4540  -28.8830   23.3860 O   0  0  0  0  0  0  0  0  0  0  0  0
  -20.9550  -29.8940   21.7650 H   0  0  0  0  0  0  0  0  0  0  0  0
  -18.0650  -28.1690   22.9630 C   0  0  0  0  0  0  0  0  0  0  0  0
  -20.6260  -28.4050   23.2250 C   0  0  0  0  0  3  0  0  0  0  0  0
  -20.7140  -26.9720   22.6510 C   0  0  0  0  0  2  0  0  0  0  0  0
  -19.6070  -26.6580   21.6410 C   0  0  0  0  0  2  0  0  0  0  0  0
  -18.2290  -26.8170   22.2890 C   0  0  0  0  0  2  0  0  0  0  0  0
  -19.1910  -28.9220   23.3890 C   0  0  0  0  0  0  0  0  0  0  0  0
  -18.9860  -30.1890   23.9770 C   0  0  0  0  0  3  0  0  0  0  0  0
  -17.6860  -30.7020   24.1450 C   0  0  0  0  0  3  0  0  0  0  0  0
  -16.5730  -29.9450   23.7370 C   0  0  0  0  0  3  0  0  0  0  0  0
  -16.7640  -28.6810   23.1520 C   0  0  0  0  0  3  0  0  0  0  0  0
  -25.9100  -32.5760   23.8710 C   0  0  0  0  0  3  0  0  0  0  0  0
  -26.4320  -31.8040   25.1440 C   0  0  1  0  0  0  0  0  0  0  0  0
  -25.3420  -31.5610   26.2150 C   0  0  0  0  0  1  0  0  0  0  0  0
  -27.0200  -30.4310   24.7480 C   0  0  0  0  0  1  0  0  0  0  0  0
  -27.5830  -32.6020   25.8030 C   0  0  0  0  0  1  0  0  0  0  0  0
  -25.5990  -33.9720   24.2000 N   0  0  0  0  0  0  0  0  0  0  0  0
  -25.9260  -35.0230   23.4380 C   0  0  0  0  0  0  0  0  0  0  0  0
  -26.5940  -34.9200   22.4060 O   0  0  0  0  0  0  0  0  0  0  0  0
  -25.0080  -34.1260   25.0040 H   0  0  0  0  0  0  0  0  0  0  0  0
  -24.1900  -36.8060   23.0810 C   0  0  0  0  0  1  0  0  0  0  0  0
  -25.4340  -36.4100   23.8920 C   0  0  0  0  0  3  0  0  0  0  0  0
  -27.5670  -37.3040   24.7160 C   0  0  0  0  0  1  0  0  0  0  0  0
  -26.4610  -37.4670   23.7750 N   0  0  0  0  0  0  0  0  0  0  0  0
  -26.0520  -38.3870   23.9230 H   0  0  0  0  0  0  0  0  0  0  0  0
  1  2  1  0
  3  6  1  0
  4  3  2  0
  4  5  1  0
  5  1  2  0
  6 51  1  0
  6  2  2  0
  7 15  1  0
  8 13  1  0
  9 10  1  0
  9  8  1  0
 11 10  1  0
 11 20  1  0
 11 12  1  0
 13  7  1  0
 13 12  1  0
 14  7  2  0
 15  5  1  0
 15 16  1  0
 17 18  2  0
 18 37  1  0
 19 18  1  0
 19 22  1  0
 20 17  1  0
 20 21  1  0
 21 19  2  0
 22 23  1  0
 23 24  2  0
 25 28  1  0
 25 24  1  0
 26 25  2  0
 27 26  1  0
 27 22  2  0
 28 29  1  0
 29 30  1  0
 30 31  2  0
 32 31  1  0
 32 36  1  0
 33 32  2  0
 34 29  2  0
 34 33  1  0
 35 34  1  0
 37 38  1  0
 38 41  1  0
 38 40  1  0
 39 37  2  0
 42 43  1  0
 42 17  1  0
 44 42  1  0
 45  4  1  0
 46 45  1  0
 47 46  1  0
 49 50  1  0
 50 47  1  0
 50 48  1  0
 52 53  1  0
 52 51  1  0
 54 56  1  0
 54 57  1  0
 54 53  1  0
 55 54  1  0
 58 59  1  0
 58 57  1  0
 60 71  2  0
 61 59  1  0
 61 66  1  0
 62 70  1  0
 62 72  1  0
 63 69  1  0
 63 65  1  0
 64 70  1  0
 65 66  2  0
 65 64  1  0
 67 68  1  0
 67 61  2  0
 68 63  2  0
 69 62  1  0
 70 60  1  0
 72 74  2  0
 73 72  1  0
 75 73  1  0
 76 85  2  0
 76 81  1  0
 77 73  1  0
 77 81  1  0
 78 77  1  0
 79 80  1  0
 79 78  1  0
 80 76  1  0
 81 82  2  0
 82 83  1  0
 84 83  2  0
 85 84  1  0
 86 60  1  0
 86 91  1  0
 86 87  1  0
 87 90  1  1
 87 88  1  0
 89 87  1  0
 91 94  1  0
 92 96  1  0
 92 91  1  0
 93 92  2  0
 96 95  1  0
 98 96  1  0
 98 99  1  0
 98 97  1  0
M  ISO  4   7 100  15 100  58 101  59 101
M  END
>  <TORSDO>  (33) 
F 26

>  <SCORE>  (33) 
-11.932

>  <name>  (33) 
32

>  <ligand_id>  (33) 
32

>  <original_smiles>  (33) 
[H]c1c([H])c([H])c2c(c1[H])C([H])([H])C([H])([H])C([H])([H])C2([H])N([H])C(=O)C1([H])N(C(=O)C([H])(N([H])C(=O)C([H])(N([H])C([H])([H])[H])C([H])([H])[H])C(C([H])([H])[H])(C([H])([H])[H])C([H])([H])[H])C([H])([H])c2c([H])c(OC([H])([H])C([H])([H])[N+]([H])([H])C([H])([H])C([H])([H])Oc3c([H])c([H])c(N([H])C(=O)N4C([H])([H])C([H])([H])C([H])([H])C([H])(n5nc(-c6c([H])c([H])c(Oc7c([H])c([H])c(F)c([H])c7F)c([H])c6[H])c(C(=O)N([H])[H])c5N([H])[H])C4([H])[H])c(C([H])([H])C([H])([H])C([H])([H])C([H])(C([H])([H])[H])C([H])([H])[H])c3[H])c([H])c([H])c2C1([H])[H]

>  <smiles>  (33) 
[H]c1c([H])c([H])c2c(c1[H])C([H])([H])C([H])([H])C([H])([H])C2([H])N([H])C(=O)C1([H])N(C(=O)C([H])(N([H])C(=O)C([H])(N([H])C([H])([H])[H])C([H])([H])[H])C(C([H])([H])[H])(C([H])([H])[H])C([H])([H])[H])C([H])([H])c2c([H])c(OC([H])([H])C([H])([H])[N+]([H])([H])C([H])([H])C([H])([H])Oc3c([H])c([H])c(N([H])C(=O)N4C([H])([H])C([H])([H])C([H])([H])C([H])(n5nc(-c6c([H])c([H])c(Oc7c([H])c([H])c(F)c([H])c7F)c([H])c6[H])c(C(=O)N([H])[H])c5N([H])[H])C4([H])[H])c(C([H])([H])C([H])([H])C([H])([H])C([H])(C([H])([H])[H])C([H])([H])[H])c3[H])c([H])c([H])c2C1([H])[H]

$$$$
33:0:0
     RDKit          3D

 93102  0  0  1  0  0  0  0  0999 V2000
  -30.0810  -19.7610   22.0380 C   0  0  0  0  0  3  0  0  0  0  0  0
  -30.1330  -18.3990   21.6680 C   0  0  0  0  0  3  0  0  0  0  0  0
  -29.7470  -20.7250   21.0610 C   0  0  0  0  0  0  0  0  0  0  0  0
  -29.4640  -20.2700   19.7580 C   0  0  0  0  0  0  0  0  0  0  0  0
  -29.8370  -18.0510   20.3350 C   0  0  0  0  0  0  0  0  0  0  0  0
  -29.7420  -22.2240   21.3970 C   0  0  0  0  0  2  0  0  0  0  0  0
  -29.1210  -21.2480   18.6550 C   0  0  0  0  0  2  0  0  0  0  0  0
  -29.7090  -22.6260   18.9610 C   0  0  0  0  0  2  0  0  0  0  0  0
  -29.4950  -18.9700   19.4110 N   0  0  0  0  0  0  0  0  0  0  0  0
  -29.2350  -23.0840   20.2900 N   0  0  2  0  0  4  0  0  0  0  0  0
  -28.2350  -22.9450   20.2970 H   0  0  0  0  0  0  0  0  0  0  0  0
  -29.9200  -16.6400   19.7820 C   0  0  0  0  0  2  0  0  0  0  0  0
  -30.6970  -14.4640   20.5200 C   0  0  0  0  0  0  0  0  0  0  0  0
  -30.4190  -12.2820   19.4420 C   0  0  0  0  0  2  0  0  0  0  0  0
  -29.5020  -12.4980   18.2200 C   0  0  0  0  0  2  0  0  0  0  0  0
  -28.0180  -12.3730   18.6190 C   0  0  0  0  0  2  0  0  0  0  0  0
  -27.6600  -13.2080   19.8770 C   0  0  0  0  0  3  0  0  0  0  0  0
  -28.7020  -13.0070   21.0060 C   0  0  0  0  0  2  0  0  0  0  0  0
  -30.0410  -13.2770   20.4560 N   0  0  0  0  0  0  0  0  0  0  0  0
  -31.8520  -14.6210   20.1150 O   0  0  0  0  0  0  0  0  0  0  0  0
  -29.9000  -15.5200   20.7270 N   0  0  0  0  0  0  0  0  0  0  0  0
  -28.9990  -15.3210   21.1290 H   0  0  0  0  0  0  0  0  0  0  0  0
  -25.2590  -13.8170   20.5700 C   0  0  0  0  0  0  0  0  0  0  0  0
  -24.1840  -13.0450   20.9210 C   0  0  0  0  0  0  0  0  0  0  0  0
  -24.6390  -11.6910   20.8730 C   0  0  0  0  0  0  0  0  0  0  0  0
  -26.3020  -12.9330   20.3380 N   0  0  0  0  0  0  0  0  0  0  0  0
  -25.9320  -11.6500   20.5780 N   0  0  0  0  0  0  0  0  0  0  0  0
  -23.9070  -10.4290   21.0390 C   0  0  0  0  0  0  0  0  0  0  0  0
  -24.3620   -9.4210   21.9170 C   0  0  0  0  0  3  0  0  0  0  0  0
  -23.6290   -8.2250   22.0750 C   0  0  0  0  0  3  0  0  0  0  0  0
  -22.4280   -8.0280   21.3550 C   0  0  0  0  0  0  0  0  0  0  0  0
  -21.9920   -9.0260   20.4650 C   0  0  0  0  0  3  0  0  0  0  0  0
  -22.7250  -10.2130   20.3050 C   0  0  0  0  0  3  0  0  0  0  0  0
  -21.6660   -6.8870   21.4240 O   0  0  0  0  0  0  0  0  0  0  0  0
  -21.6860   -6.0740   22.5280 C   0  0  0  0  0  0  0  0  0  0  0  0
  -21.4020   -6.5640   23.8220 C   0  0  0  0  0  3  0  0  0  0  0  0
  -21.3680   -5.6790   24.9180 C   0  0  0  0  0  3  0  0  0  0  0  0
  -21.6060   -4.3050   24.7230 C   0  0  0  0  0  0  0  0  0  0  0  0
  -21.8820   -3.8140   23.4340 C   0  0  0  0  0  3  0  0  0  0  0  0
  -21.9200   -4.6960   22.3410 C   0  0  0  0  0  0  0  0  0  0  0  0
  -22.1650   -4.2150   21.0980 F   0  0  0  0  0  0  0  0  0  0  0  0
  -21.5640   -3.4540   25.7740 F   0  0  0  0  0  0  0  0  0  0  0  0
  -22.7860  -13.5240   21.1840 C   0  0  0  0  0  0  0  0  0  0  0  0
  -22.0490  -12.8230   22.0400 N   0  0  0  0  0  0  0  0  0  0  0  0
  -22.3550  -14.5540   20.6690 O   0  0  0  0  0  0  0  0  0  0  0  0
  -22.4070  -11.9900   22.4850 H   0  0  0  0  0  0  0  0  0  0  0  0
  -21.1100  -13.1270   22.2540 H   0  0  0  0  0  0  0  0  0  0  0  0
  -25.4290  -15.1890   20.4080 N   0  0  0  0  0  0  0  0  0  0  0  0
  -24.6600  -15.8430   20.5120 H   0  0  0  0  0  0  0  0  0  0  0  0
  -26.2740  -15.6310   20.0720 H   0  0  0  0  0  0  0  0  0  0  0  0
  -29.4310  -24.5430   20.5060 C   0  0  0  0  0  2  0  0  0  0  0  0
  -28.2980  -25.3410   19.8420 C   0  0  0  0  0  2  0  0  0  0  0  0
  -28.3980  -26.7400   20.1140 O   0  0  0  0  0  0  0  0  0  0  0  0
  -24.6100  -31.8730   23.2160 C   0  0  0  0  0  0  0  0  0  0  0  0
  -27.2240  -27.4630   20.0810 C   0  0  0  0  0  0  0  0  0  0  0  0
  -23.3960  -30.5010   21.5560 C   0  0  0  0  0  3  0  0  0  0  0  0
  -24.8370  -28.9790   20.1150 C   0  0  0  0  0  0  0  0  0  0  0  0
  -25.9240  -30.8490   21.3650 C   0  0  0  0  0  2  0  0  0  0  0  0
  -25.9990  -29.4880   20.7060 C   0  0  0  0  0  0  0  0  0  0  0  0
  -27.1950  -28.7380   20.6880 C   0  0  0  0  0  3  0  0  0  0  0  0
  -26.0400  -26.9760   19.4710 C   0  0  0  0  0  3  0  0  0  0  0  0
  -24.8510  -27.7200   19.4990 C   0  0  0  0  0  3  0  0  0  0  0  0
  -23.6020  -29.8460   20.1660 C   0  0  0  0  0  2  0  0  0  0  0  0
  -24.6620  -31.0860   22.1050 N   0  0  0  0  0  0  0  0  0  0  0  0
  -23.5310  -32.1460   23.7580 O   0  0  0  0  0  0  0  0  0  0  0  0
  -22.7390  -29.4670   22.5000 C   0  0  0  0  0  0  0  0  0  0  0  0
  -21.4120  -29.3020   22.3740 N   0  0  0  0  0  0  0  0  0  0  0  0
  -23.4190  -28.8200   23.3000 O   0  0  0  0  0  0  0  0  0  0  0  0
  -20.9250  -29.8780   21.7030 H   0  0  0  0  0  0  0  0  0  0  0  0
  -18.0260  -28.1370   22.8490 C   0  0  0  0  0  0  0  0  0  0  0  0
  -20.5860  -28.3640   23.1340 C   0  0  0  0  0  3  0  0  0  0  0  0
  -20.6750  -26.9380   22.5430 C   0  0  0  0  0  2  0  0  0  0  0  0
  -19.5730  -26.6370   21.5220 C   0  0  0  0  0  2  0  0  0  0  0  0
  -18.1910  -26.7920   22.1630 C   0  0  0  0  0  2  0  0  0  0  0  0
  -19.1520  -28.8820   23.2930 C   0  0  0  0  0  0  0  0  0  0  0  0
  -18.9450  -30.1430   23.8930 C   0  0  0  0  0  3  0  0  0  0  0  0
  -17.6460  -30.6580   24.0570 C   0  0  0  0  0  3  0  0  0  0  0  0
  -16.5340  -29.9090   23.6310 C   0  0  0  0  0  3  0  0  0  0  0  0
  -16.7260  -28.6510   23.0330 C   0  0  0  0  0  3  0  0  0  0  0  0
  -25.9010  -32.4850   23.8430 C   0  0  0  0  0  3  0  0  0  0  0  0
  -26.4440  -31.6620   25.0740 C   0  0  1  0  0  0  0  0  0  0  0  0
  -25.3700  -31.3760   26.1490 C   0  0  0  0  0  1  0  0  0  0  0  0
  -27.0250  -30.3050   24.6110 C   0  0  0  0  0  1  0  0  0  0  0  0
  -27.6010  -32.4330   25.7500 C   0  0  0  0  0  1  0  0  0  0  0  0
  -25.5860  -33.8640   24.2350 N   0  0  0  0  0  0  0  0  0  0  0  0
  -25.9020  -34.9490   23.5150 C   0  0  0  0  0  0  0  0  0  0  0  0
  -26.5610  -34.8940   22.4730 O   0  0  0  0  0  0  0  0  0  0  0  0
  -24.9880  -33.9780   25.0410 H   0  0  0  0  0  0  0  0  0  0  0  0
  -24.1470  -36.7340   23.2640 C   0  0  0  0  0  1  0  0  0  0  0  0
  -25.4080  -36.3130   24.0350 C   0  0  0  0  0  3  0  0  0  0  0  0
  -27.5590  -37.1800   24.8440 C   0  0  0  0  0  1  0  0  0  0  0  0
  -26.4270  -37.3820   23.9440 N   0  0  0  0  0  0  0  0  0  0  0  0
  -26.0150  -38.2880   24.1520 H   0  0  0  0  0  0  0  0  0  0  0  0
  2  1  1  0
  3  6  1  0
  3  1  2  0
  4  3  1  0
  5  2  2  0
  7  8  1  0
  7  4  1  0
  8 10  1  0
  9  4  2  0
  9  5  1  0
 10 11  1  6
 10 51  1  0
 10  6  1  0
 12  5  1  0
 12 21  1  0
 13 21  1  0
 14 19  1  0
 15 16  1  0
 15 14  1  0
 17 16  1  0
 17 26  1  0
 17 18  1  0
 19 13  1  0
 19 18  1  0
 20 13  2  0
 21 22  1  0
 23 24  2  0
 24 43  1  0
 25 24  1  0
 25 28  1  0
 26 23  1  0
 26 27  1  0
 27 25  2  0
 28 29  1  0
 29 30  2  0
 31 34  1  0
 31 30  1  0
 32 31  2  0
 33 32  1  0
 33 28  2  0
 34 35  1  0
 35 36  1  0
 36 37  2  0
 38 37  1  0
 38 42  1  0
 39 38  2  0
 40 35  2  0
 40 39  1  0
 41 40  1  0
 43 44  1  0
 44 47  1  0
 44 46  1  0
 45 43  2  0
 48 49  1  0
 48 23  1  0
 50 48  1  0
 52 53  1  0
 52 51  1  0
 54 65  2  0
 55 53  1  0
 55 60  1  0
 56 64  1  0
 56 66  1  0
 57 63  1  0
 57 59  1  0
 58 64  1  0
 59 58  1  0
 60 59  2  0
 61 62  1  0
 61 55  2  0
 62 57  2  0
 63 56  1  0
 64 54  1  0
 66 68  2  0
 67 66  1  0
 69 67  1  0
 70 79  2  0
 70 75  1  0
 71 67  1  0
 71 75  1  0
 72 71  1  0
 73 74  1  0
 73 72  1  0
 74 70  1  0
 75 76  2  0
 76 77  1  0
 78 77  2  0
 79 78  1  0
 80 54  1  0
 80 85  1  0
 80 81  1  0
 81 84  1  1
 81 82  1  0
 83 81  1  0
 85 88  1  0
 86 90  1  0
 86 85  1  0
 87 86  2  0
 90 89  1  0
 92 90  1  0
 92 93  1  0
 92 91  1  0
M  ISO  4  13 100  21 100  52 101  53 101
M  END
>  <TORSDO>  (34) 
F 19

>  <SCORE>  (34) 
-13.666

>  <name>  (34) 
33

>  <ligand_id>  (34) 
33

>  <original_smiles>  (34) 
[H]c1c(C([H])([H])N([H])C(=O)N2C([H])([H])C([H])([H])C([H])([H])C([H])(n3nc(-c4c([H])c([H])c(Oc5c([H])c([H])c(F)c([H])c5F)c([H])c4[H])c(C(=O)N([H])[H])c3N([H])[H])C2([H])[H])nc2c(c1[H])C([H])([H])[N+]([H])(C([H])([H])C([H])([H])Oc1c([H])c([H])c3c(c1[H])C([H])([H])N(C(=O)C([H])(N([H])C(=O)C([H])(N([H])C([H])([H])[H])C([H])([H])[H])C(C([H])([H])[H])(C([H])([H])[H])C([H])([H])[H])C([H])(C(=O)N([H])C1([H])c4c([H])c([H])c([H])c([H])c4C([H])([H])C([H])([H])C1([H])[H])C3([H])[H])C([H])([H])C2([H])[H]

>  <smiles>  (34) 
[H]c1c(C([H])([H])N([H])C(=O)N2C([H])([H])C([H])([H])C([H])([H])C([H])(n3nc(-c4c([H])c([H])c(Oc5c([H])c([H])c(F)c([H])c5F)c([H])c4[H])c(C(=O)N([H])[H])c3N([H])[H])C2([H])[H])nc2c(c1[H])C([H])([H])[N+]([H])(C([H])([H])C([H])([H])Oc1c([H])c([H])c3c(c1[H])C([H])([H])N(C(=O)C([H])(N([H])C(=O)C([H])(N([H])C([H])([H])[H])C([H])([H])[H])C(C([H])([H])[H])(C([H])([H])[H])C([H])([H])[H])C([H])(C(=O)N([H])C1([H])c4c([H])c([H])c([H])c([H])c4C([H])([H])C([H])([H])C1([H])[H])C3([H])[H])C([H])([H])C2([H])[H]

$$$$
34:0:0
     RDKit          3D

 89 97  0  0  1  0  0  0  0  0999 V2000
  -30.4280  -19.7210   19.2600 C   0  0  0  0  0  3  0  0  0  0  0  0
  -29.0950  -18.9880   21.1200 C   0  0  0  0  0  3  0  0  0  0  0  0
  -29.9610  -21.0610   19.4170 C   0  0  0  0  0  3  0  0  0  0  0  0
  -28.6270  -20.3300   21.2760 C   0  0  0  0  0  3  0  0  0  0  0  0
  -30.0260  -18.6490   20.1090 C   0  0  0  0  0  0  0  0  0  0  0  0
  -29.0550  -21.4080   20.4500 C   0  0  0  0  0  0  0  0  0  0  0  0
  -30.7550  -17.2590   19.9870 C   0  0  0  0  0  2  0  0  0  0  0  0
  -30.8180  -14.7460   19.9980 C   0  0  0  0  0  0  0  0  0  0  0  0
  -30.4790  -12.5320   18.9350 C   0  0  0  0  0  2  0  0  0  0  0  0
  -29.4900  -12.6800   17.7610 C   0  0  0  0  0  2  0  0  0  0  0  0
  -28.0400  -12.5230   18.2590 C   0  0  0  0  0  2  0  0  0  0  0  0
  -27.7430  -13.3760   19.5220 C   0  0  0  0  0  3  0  0  0  0  0  0
  -28.8560  -13.2430   20.5850 C   0  0  0  0  0  2  0  0  0  0  0  0
  -30.1300  -13.5640   19.9340 N   0  0  0  0  0  0  0  0  0  0  0  0
  -31.9850  -14.8090   19.6030 O   0  0  0  0  0  0  0  0  0  0  0  0
  -30.1420  -15.9120   20.2680 N   0  0  0  0  0  0  0  0  0  0  0  0
  -29.1690  -15.8640   20.5280 H   0  0  0  0  0  0  0  0  0  0  0  0
  -25.3860  -13.9510   20.3630 C   0  0  0  0  0  0  0  0  0  0  0  0
  -24.3430  -13.1680   20.7780 C   0  0  0  0  0  0  0  0  0  0  0  0
  -24.8130  -11.8200   20.7180 C   0  0  0  0  0  0  0  0  0  0  0  0
  -26.4240  -13.0800   20.0740 N   0  0  0  0  0  0  0  0  0  0  0  0
  -26.0880  -11.7930   20.3510 N   0  0  0  0  0  0  0  0  0  0  0  0
  -24.1050  -10.5520   20.9340 C   0  0  0  0  0  0  0  0  0  0  0  0
  -24.5570   -9.6030   21.8780 C   0  0  0  0  0  3  0  0  0  0  0  0
  -23.8480   -8.3990   22.0800 C   0  0  0  0  0  3  0  0  0  0  0  0
  -22.6710   -8.1360   21.3390 C   0  0  0  0  0  0  0  0  0  0  0  0
  -22.2380   -9.0730   20.3850 C   0  0  0  0  0  3  0  0  0  0  0  0
  -22.9480  -10.2680   20.1800 C   0  0  0  0  0  3  0  0  0  0  0  0
  -21.9310   -6.9840   21.4510 O   0  0  0  0  0  0  0  0  0  0  0  0
  -21.8750   -6.2750   22.6250 C   0  0  0  0  0  0  0  0  0  0  0  0
  -21.3740   -6.8450   23.8170 C   0  0  0  0  0  3  0  0  0  0  0  0
  -21.2680   -6.0610   24.9820 C   0  0  0  0  0  3  0  0  0  0  0  0
  -21.6540   -4.7080   24.9580 C   0  0  0  0  0  0  0  0  0  0  0  0
  -22.1490   -4.1370   23.7720 C   0  0  0  0  0  3  0  0  0  0  0  0
  -22.2550   -4.9190   22.6080 C   0  0  0  0  0  0  0  0  0  0  0  0
  -22.7130   -4.3590   21.4620 F   0  0  0  0  0  0  0  0  0  0  0  0
  -21.5460   -3.9510   26.0760 F   0  0  0  0  0  0  0  0  0  0  0  0
  -22.9560  -13.6340   21.1140 C   0  0  0  0  0  0  0  0  0  0  0  0
  -22.2680  -12.9240   22.0020 N   0  0  0  0  0  0  0  0  0  0  0  0
  -22.4910  -14.6620   20.6240 O   0  0  0  0  0  0  0  0  0  0  0  0
  -22.6580  -12.0930   22.4230 H   0  0  0  0  0  0  0  0  0  0  0  0
  -21.3390  -13.2170   22.2670 H   0  0  0  0  0  0  0  0  0  0  0  0
  -25.5310  -15.3230   20.1840 N   0  0  0  0  0  0  0  0  0  0  0  0
  -24.7630  -15.9690   20.3310 H   0  0  0  0  0  0  0  0  0  0  0  0
  -26.3530  -15.7710   19.7980 H   0  0  0  0  0  0  0  0  0  0  0  0
  -28.5650  -22.7020   20.7240 O   0  0  0  0  0  0  0  0  0  0  0  0
  -28.9530  -23.9200   20.0020 C   0  0  0  0  0  2  0  0  0  0  0  0
  -28.2530  -25.2200   20.6080 C   0  0  0  0  0  2  0  0  0  0  0  0
  -28.4570  -26.5740   20.0400 O   0  0  0  0  0  0  0  0  0  0  0  0
  -24.6040  -31.8390   23.1280 C   0  0  0  0  0  0  0  0  0  0  0  0
  -27.3370  -27.4120   20.0150 C   0  0  0  0  0  0  0  0  0  0  0  0
  -23.4500  -30.4680   21.4290 C   0  0  0  0  0  3  0  0  0  0  0  0
  -24.9500  -28.9750   19.9940 C   0  0  0  0  0  0  0  0  0  0  0  0
  -25.9850  -30.8330   21.2980 C   0  0  0  0  0  2  0  0  0  0  0  0
  -26.0990  -29.4720   20.6230 C   0  0  0  0  0  0  0  0  0  0  0  0
  -27.3000  -28.7040   20.6220 C   0  0  0  0  0  3  0  0  0  0  0  0
  -26.1720  -26.9650   19.3580 C   0  0  0  0  0  3  0  0  0  0  0  0
  -24.9870  -27.7260   19.3510 C   0  0  0  0  0  3  0  0  0  0  0  0
  -23.6990  -29.8290   20.0370 C   0  0  0  0  0  2  0  0  0  0  0  0
  -24.6970  -31.0620   22.0100 N   0  0  0  0  0  0  0  0  0  0  0  0
  -23.5070  -32.0880   23.6500 O   0  0  0  0  0  0  0  0  0  0  0  0
  -22.7840  -29.4180   22.3510 C   0  0  0  0  0  0  0  0  0  0  0  0
  -21.4610  -29.2390   22.2030 N   0  0  0  0  0  0  0  0  0  0  0  0
  -23.4570  -28.7700   23.1560 O   0  0  0  0  0  0  0  0  0  0  0  0
  -20.9770  -29.8140   21.5270 H   0  0  0  0  0  0  0  0  0  0  0  0
  -18.0790  -28.0380   22.6530 C   0  0  0  0  0  0  0  0  0  0  0  0
  -20.6380  -28.2740   22.9350 C   0  0  0  0  0  3  0  0  0  0  0  0
  -20.7340  -26.8670   22.3010 C   0  0  0  0  0  2  0  0  0  0  0  0
  -19.6310  -26.5910   21.2750 C   0  0  0  0  0  2  0  0  0  0  0  0
  -18.2490  -26.7170   21.9240 C   0  0  0  0  0  2  0  0  0  0  0  0
  -19.2010  -28.7770   23.1150 C   0  0  0  0  0  0  0  0  0  0  0  0
  -18.9870  -30.0160   23.7570 C   0  0  0  0  0  3  0  0  0  0  0  0
  -17.6840  -30.5160   23.9430 C   0  0  0  0  0  3  0  0  0  0  0  0
  -16.5770  -29.7740   23.4970 C   0  0  0  0  0  3  0  0  0  0  0  0
  -16.7750  -28.5360   22.8590 C   0  0  0  0  0  3  0  0  0  0  0  0
  -25.8670  -32.4720   23.7920 C   0  0  0  0  0  3  0  0  0  0  0  0
  -26.3400  -31.7010   25.0840 C   0  0  1  0  0  0  0  0  0  0  0  0
  -25.2130  -31.4610   26.1140 C   0  0  0  0  0  1  0  0  0  0  0  0
  -26.9380  -30.3240   24.7110 C   0  0  0  0  0  1  0  0  0  0  0  0
  -27.4680  -32.4950   25.7850 C   0  0  0  0  0  1  0  0  0  0  0  0
  -25.5480  -33.8700   24.1120 N   0  0  0  0  0  0  0  0  0  0  0  0
  -25.9030  -34.9230   23.3630 C   0  0  0  0  0  0  0  0  0  0  0  0
  -26.6030  -34.8180   22.3520 O   0  0  0  0  0  0  0  0  0  0  0  0
  -24.9310  -34.0250   24.8950 H   0  0  0  0  0  0  0  0  0  0  0  0
  -24.1980  -36.7240   22.9420 C   0  0  0  0  0  1  0  0  0  0  0  0
  -25.4030  -36.3120   23.8040 C   0  0  0  0  0  3  0  0  0  0  0  0
  -27.5000  -37.1910   24.7330 C   0  0  0  0  0  1  0  0  0  0  0  0
  -26.4450  -37.3600   23.7370 N   0  0  0  0  0  0  0  0  0  0  0  0
  -26.0370  -38.2830   23.8620 H   0  0  0  0  0  0  0  0  0  0  0  0
  1  3  2  0
  1  5  1  0
  2  4  1  0
  3  6  1  0
  5  2  2  0
  6 46  1  0
  6  4  2  0
  7  5  1  0
  7 16  1  0
  8 16  1  0
  9 14  1  0
 10 11  1  0
 10  9  1  0
 12 11  1  0
 12 21  1  0
 12 13  1  0
 14  8  1  0
 14 13  1  0
 15  8  2  0
 16 17  1  0
 18 19  2  0
 19 38  1  0
 20 19  1  0
 20 23  1  0
 21 22  1  0
 21 18  1  0
 22 20  2  0
 23 24  1  0
 24 25  2  0
 26 29  1  0
 26 25  1  0
 27 26  2  0
 28 27  1  0
 28 23  2  0
 29 30  1  0
 30 31  1  0
 31 32  2  0
 33 32  1  0
 33 37  1  0
 34 33  2  0
 35 30  2  0
 35 34  1  0
 36 35  1  0
 38 39  1  0
 39 42  1  0
 39 41  1  0
 40 38  2  0
 43 44  1  0
 43 18  1  0
 45 43  1  0
 47 48  1  0
 47 46  1  0
 49 48  1  0
 50 61  2  0
 51 49  1  0
 51 56  1  0
 52 60  1  0
 52 62  1  0
 53 59  1  0
 53 55  1  0
 54 60  1  0
 55 54  1  0
 56 55  2  0
 57 51  2  0
 58 57  1  0
 58 53  2  0
 59 52  1  0
 60 50  1  0
 62 64  2  0
 63 62  1  0
 65 63  1  0
 66 75  2  0
 66 71  1  0
 67 63  1  0
 67 71  1  0
 68 67  1  0
 69 70  1  0
 69 68  1  0
 70 66  1  0
 71 72  2  0
 72 73  1  0
 74 73  2  0
 75 74  1  0
 76 50  1  0
 76 81  1  0
 76 77  1  0
 77 80  1  1
 77 78  1  0
 79 77  1  0
 81 84  1  0
 82 86  1  0
 82 81  1  0
 83 82  2  0
 86 85  1  0
 88 86  1  0
 88 89  1  0
 88 87  1  0
M  ISO  4   8 100  16 100  48 101  49 101
M  END
>  <TORSDO>  (35) 
F 20

>  <SCORE>  (35) 
-12.786

>  <name>  (35) 
34

>  <ligand_id>  (35) 
34

>  <original_smiles>  (35) 
[H]c1c([H])c([H])c2c(c1[H])C([H])([H])C([H])([H])C([H])([H])C2([H])N([H])C(=O)C1([H])N(C(=O)C([H])(N([H])C(=O)C([H])(N([H])C([H])([H])[H])C([H])([H])[H])C(C([H])([H])[H])(C([H])([H])[H])C([H])([H])[H])C([H])([H])c2c([H])c(OC([H])([H])C([H])([H])Oc3c([H])c([H])c(C([H])([H])N([H])C(=O)N4C([H])([H])C([H])([H])C([H])([H])C([H])(n5nc(-c6c([H])c([H])c(Oc7c([H])c([H])c(F)c([H])c7F)c([H])c6[H])c(C(=O)N([H])[H])c5N([H])[H])C4([H])[H])c([H])c3[H])c([H])c([H])c2C1([H])[H]

>  <smiles>  (35) 
[H]c1c([H])c([H])c2c(c1[H])C([H])([H])C([H])([H])C([H])([H])C2([H])N([H])C(=O)C1([H])N(C(=O)C([H])(N([H])C(=O)C([H])(N([H])C([H])([H])[H])C([H])([H])[H])C(C([H])([H])[H])(C([H])([H])[H])C([H])([H])[H])C([H])([H])c2c([H])c(OC([H])([H])C([H])([H])Oc3c([H])c([H])c(C([H])([H])N([H])C(=O)N4C([H])([H])C([H])([H])C([H])([H])C([H])(n5nc(-c6c([H])c([H])c(Oc7c([H])c([H])c(F)c([H])c7F)c([H])c6[H])c(C(=O)N([H])[H])c5N([H])[H])C4([H])[H])c([H])c3[H])c([H])c([H])c2C1([H])[H]

$$$$
35:0:0
     RDKit          3D

 96104  0  0  1  0  0  0  0  0999 V2000
  -28.8080  -19.6010   17.5490 C   0  0  0  0  0  1  0  0  0  0  0  0
  -28.2920  -19.9670   18.9500 C   0  0  0  0  0  3  0  0  0  0  0  0
  -28.4190  -22.6150   18.1880 C   0  0  0  0  0  2  0  0  0  0  0  0
  -27.9690  -22.2950   20.5600 C   0  0  0  0  0  2  0  0  0  0  0  0
  -28.7260  -24.1610   18.4370 C   0  0  0  0  0  2  0  0  0  0  0  0
  -28.2970  -23.8590   20.7990 C   0  0  0  0  0  2  0  0  0  0  0  0
  -28.6690  -21.5590   19.3440 C   0  0  0  0  0  3  0  0  0  0  0  0
  -27.9730  -24.8580   19.6170 C   0  0  0  0  0  3  0  0  0  0  0  0
  -28.2230  -26.3780   19.7820 O   0  0  0  0  0  0  0  0  0  0  0  0
  -24.7060  -31.9380   23.0950 C   0  0  0  0  0  0  0  0  0  0  0  0
  -27.1660  -27.3430   19.8110 C   0  0  0  0  0  0  0  0  0  0  0  0
  -23.4510  -30.5740   21.4740 C   0  0  0  0  0  3  0  0  0  0  0  0
  -24.8440  -29.0590   19.9520 C   0  0  0  0  0  0  0  0  0  0  0  0
  -25.9970  -30.8590   21.2210 C   0  0  0  0  0  2  0  0  0  0  0  0
  -26.0440  -29.4900   20.5300 C   0  0  0  0  0  0  0  0  0  0  0  0
  -27.2080  -28.6400   20.4570 C   0  0  0  0  0  3  0  0  0  0  0  0
  -25.9450  -27.0320   19.1750 C   0  0  0  0  0  3  0  0  0  0  0  0
  -24.8020  -27.8410   19.2670 C   0  0  0  0  0  3  0  0  0  0  0  0
  -23.6180  -29.9440   20.0700 C   0  0  0  0  0  2  0  0  0  0  0  0
  -24.7390  -31.1430   21.9830 N   0  0  0  0  0  0  0  0  0  0  0  0
  -23.6380  -32.2020   23.6680 O   0  0  0  0  0  0  0  0  0  0  0  0
  -22.8240  -29.5290   22.4320 C   0  0  0  0  0  0  0  0  0  0  0  0
  -21.4950  -29.3450   22.3490 N   0  0  0  0  0  0  0  0  0  0  0  0
  -23.5330  -28.8920   23.2160 O   0  0  0  0  0  0  0  0  0  0  0  0
  -20.9790  -29.9120   21.6920 H   0  0  0  0  0  0  0  0  0  0  0  0
  -18.1510  -28.0790   22.9200 C   0  0  0  0  0  0  0  0  0  0  0  0
  -20.7110  -28.3840   23.1290 C   0  0  0  0  0  3  0  0  0  0  0  0
  -20.8240  -26.9600   22.5380 C   0  0  0  0  0  2  0  0  0  0  0  0
  -19.7040  -26.6270   21.5470 C   0  0  0  0  0  2  0  0  0  0  0  0
  -18.3360  -26.7400   22.2270 C   0  0  0  0  0  2  0  0  0  0  0  0
  -19.2660  -28.8580   23.3300 C   0  0  0  0  0  0  0  0  0  0  0  0
  -19.0380  -30.1090   23.9440 C   0  0  0  0  0  3  0  0  0  0  0  0
  -17.7300  -30.5830   24.1480 C   0  0  0  0  0  3  0  0  0  0  0  0
  -16.6290  -29.8020   23.7520 C   0  0  0  0  0  3  0  0  0  0  0  0
  -16.8410  -28.5510   23.1450 C   0  0  0  0  0  3  0  0  0  0  0  0
  -26.0030  -32.5690   23.6820 C   0  0  0  0  0  3  0  0  0  0  0  0
  -26.5980  -31.7480   24.8930 C   0  0  1  0  0  0  0  0  0  0  0  0
  -25.5670  -31.4440   26.0040 C   0  0  0  0  0  1  0  0  0  0  0  0
  -27.1800  -30.3980   24.4130 C   0  0  0  0  0  1  0  0  0  0  0  0
  -27.7700  -32.5320   25.5290 C   0  0  0  0  0  1  0  0  0  0  0  0
  -25.6800  -33.9420   24.1010 N   0  0  0  0  0  0  0  0  0  0  0  0
  -25.9620  -35.0440   23.3940 C   0  0  0  0  0  0  0  0  0  0  0  0
  -26.5930  -35.0140   22.3340 O   0  0  0  0  0  0  0  0  0  0  0  0
  -25.1110  -34.0380   24.9300 H   0  0  0  0  0  0  0  0  0  0  0  0
  -24.1890  -36.8230   23.2170 C   0  0  0  0  0  1  0  0  0  0  0  0
  -25.4700  -36.3940   23.9510 C   0  0  0  0  0  3  0  0  0  0  0  0
  -27.6240  -37.2710   24.7390 C   0  0  0  0  0  1  0  0  0  0  0  0
  -26.4770  -37.4740   23.8580 N   0  0  0  0  0  0  0  0  0  0  0  0
  -26.0620  -38.3740   24.0790 H   0  0  0  0  0  0  0  0  0  0  0  0
  -28.5470  -18.6570   19.9140 C   0  0  0  0  0  2  0  0  0  0  0  0
  -28.5580  -15.9850   19.2890 C   0  0  0  0  0  0  0  0  0  0  0  0
  -29.1070  -17.2680   19.4700 N   0  0  0  0  0  0  0  0  0  0  0  0
  -27.3970  -15.9460   18.8910 O   0  0  0  0  0  0  0  0  0  0  0  0
  -30.1080  -17.2140   19.6170 H   0  0  0  0  0  0  0  0  0  0  0  0
  -31.0150  -14.8170   20.9590 C   0  0  1  0  0  0  0  0  0  0  0  0
  -31.2220  -13.0710   20.1840 C   0  0  0  0  0  2  0  0  0  0  0  0
  -29.7110  -13.2640   18.0440 C   0  0  0  0  0  1  0  0  0  0  0  0
  -27.9240  -13.0840   18.5970 C   0  0  0  0  0  2  0  0  0  0  0  0
  -27.6290  -13.0450   20.4100 C   0  0  0  0  0  0  0  0  0  0  0  0
  -28.8810  -13.1750   21.7170 C   0  0  0  0  0  3  0  0  0  0  0  0
  -30.4950  -13.5680   21.4190 N   0  0  0  0  0  0  0  0  0  0  0  0
  -32.0300  -15.3060   21.4140 O   0  0  0  0  0  1  0  0  0  0  0  0
  -31.0690  -11.3270   18.5410 C   0  0  0  0  0  2  0  0  0  0  0  0
  -32.1140  -12.7700   17.9300 C   0  0  0  0  0  3  0  0  0  0  0  0
  -29.5650  -11.7380   19.6460 C   0  0  0  0  0  1  0  0  0  0  0  0
  -31.8700  -14.5890   18.3860 C   0  0  0  0  0  3  0  0  0  0  0  0
  -29.3920  -14.6040   19.7820 C   0  0  0  0  0  2  0  0  0  0  0  0
  -30.8000  -15.1660   19.5990 N   0  0  0  0  0  0  0  0  0  0  0  0
  -25.2160  -13.8930   20.8210 C   0  0  0  0  0  0  0  0  0  0  0  0
  -24.1040  -13.1340   21.0820 C   0  0  0  0  0  0  0  0  0  0  0  0
  -24.5320  -11.7810   21.1400 C   0  0  0  0  0  0  0  0  0  0  0  0
  -26.2420  -12.9740   20.7550 N   0  0  0  0  0  0  0  0  0  0  0  0
  -25.7950  -11.7170   20.9760 N   0  0  0  0  0  0  0  0  0  0  0  0
  -23.8790  -10.4970   21.2700 C   0  0  0  0  0  0  0  0  0  0  0  0
  -24.3330   -9.5420   22.2060 C   0  0  0  0  0  3  0  0  0  0  0  0
  -23.6760   -8.3040   22.3180 C   0  0  0  0  0  3  0  0  0  0  0  0
  -22.5650   -8.0260   21.4890 C   0  0  0  0  0  0  0  0  0  0  0  0
  -22.1630   -8.9620   20.5220 C   0  0  0  0  0  3  0  0  0  0  0  0
  -22.8200  -10.1930   20.4050 C   0  0  0  0  0  3  0  0  0  0  0  0
  -21.8520   -6.8570   21.5290 O   0  0  0  0  0  0  0  0  0  0  0  0
  -21.7720   -6.1120   22.6750 C   0  0  0  0  0  0  0  0  0  0  0  0
  -21.3080   -6.6530   23.8930 C   0  0  0  0  0  3  0  0  0  0  0  0
  -21.1800   -5.8240   25.0250 C   0  0  0  0  0  3  0  0  0  0  0  0
  -21.5060   -4.4560   24.9370 C   0  0  0  0  0  0  0  0  0  0  0  0
  -21.9670   -3.9180   23.7220 C   0  0  0  0  0  3  0  0  0  0  0  0
  -22.0990   -4.7450   22.5940 C   0  0  0  0  0  0  0  0  0  0  0  0
  -22.5230   -4.2200   21.4190 F   0  0  0  0  0  0  0  0  0  0  0  0
  -21.3730   -3.6570   26.0210 F   0  0  0  0  0  0  0  0  0  0  0  0
  -22.6950  -13.5970   21.1830 C   0  0  0  0  0  0  0  0  0  0  0  0
  -21.8980  -12.9010   21.9850 N   0  0  0  0  0  0  0  0  0  0  0  0
  -22.3070  -14.5920   20.5800 O   0  0  0  0  0  0  0  0  0  0  0  0
  -22.2390  -12.0940   22.4850 H   0  0  0  0  0  0  0  0  0  0  0  0
  -20.9340  -13.1770   22.1020 H   0  0  0  0  0  0  0  0  0  0  0  0
  -25.4240  -15.2500   20.6230 N   0  0  0  0  0  0  0  0  0  0  0  0
  -24.6210  -15.8520   20.4870 H   0  0  0  0  0  0  0  0  0  0  0  0
  -26.2190  -15.5400   20.0480 H   0  0  0  0  0  0  0  0  0  0  0  0
  2  1  1  0
  2 50  1  0
  3  5  1  0
  3  7  1  0
  4  6  1  0
  5  8  1  0
  7  2  1  0
  7  4  1  0
  8  9  1  0
  8  6  1  0
  9 11  1  0
 10 21  2  0
 11 16  1  0
 12 20  1  0
 12 22  1  0
 13 19  1  0
 13 15  1  0
 14 20  1  0
 15 14  1  0
 16 15  2  0
 17 18  1  0
 17 11  2  0
 18 13  2  0
 19 12  1  0
 20 10  1  0
 22 24  2  0
 23 22  1  0
 25 23  1  0
 26 35  2  0
 26 31  1  0
 27 23  1  0
 27 31  1  0
 28 27  1  0
 29 30  1  0
 29 28  1  0
 30 26  1  0
 31 32  2  0
 32 33  1  0
 34 33  2  0
 35 34  1  0
 36 10  1  0
 36 41  1  0
 36 37  1  0
 37 40  1  1
 37 38  1  0
 39 37  1  0
 41 44  1  0
 42 46  1  0
 42 41  1  0
 43 42  2  0
 46 45  1  0
 48 46  1  0
 48 49  1  0
 48 47  1  0
 51 52  1  0
 51 67  1  0
 52 54  1  0
 52 50  1  0
 53 51  2  0
 55 62  1  1
 55 61  1  0
 56 55  1  0
 56 61  1  0
 57 58  1  0
 58 59  1  0
 59 72  1  0
 59 60  2  0
 61 60  1  0
 63 65  1  0
 64 66  2  0
 64 63  1  0
 66 68  1  0
 68 67  1  0
 68 55  1  0
 69 70  2  0
 70 71  1  0
 70 89  1  0
 71 74  1  0
 72 69  1  0
 72 73  1  0
 73 71  2  0
 74 75  1  0
 75 76  2  0
 77 80  1  0
 77 76  1  0
 78 77  2  0
 79 78  1  0
 79 74  2  0
 80 81  1  0
 81 82  1  0
 82 83  2  0
 84 83  1  0
 84 88  1  0
 85 84  2  0
 86 81  2  0
 86 85  1  0
 87 86  1  0
 89 90  1  0
 90 93  1  0
 90 92  1  0
 91 89  2  0
 94 69  1  0
 95 94  1  0
 96 94  1  0
M  ISO  4   8 101   9 101  55 100  68 100
M  END
>  <TORSDO>  (36) 
F 19

>  <SCORE>  (36) 
-14.105

>  <name>  (36) 
35

>  <ligand_id>  (36) 
35

>  <original_smiles>  (36) 
[H]c1c([H])c([H])c2c(c1[H])C([H])([H])C([H])([H])C([H])([H])C2([H])N([H])C(=O)C1([H])N(C(=O)C([H])(N([H])C(=O)C([H])(N([H])C([H])([H])[H])C([H])([H])[H])C(C([H])([H])[H])(C([H])([H])[H])C([H])([H])[H])C([H])([H])c2c([H])c(OC3([H])C([H])([H])C([H])([H])C([H])(C([H])(C([H])([H])[H])C([H])([H])N([H])C(=O)C4([H])N(C(=O)N5C([H])([H])C([H])([H])C([H])([H])C([H])(n6nc(-c7c([H])c([H])c(Oc8c([H])c([H])c(F)c([H])c8F)c([H])c7[H])c(C(=O)N([H])[H])c6N([H])[H])C5([H])[H])C([H])([H])C([H])([H])C([H])([H])C4([H])[H])C([H])([H])C3([H])[H])c([H])c([H])c2C1([H])[H]

>  <smiles>  (36) 
[H]c1c([H])c([H])c2c(c1[H])C([H])([H])C([H])([H])C([H])([H])C2([H])N([H])C(=O)C1([H])N(C(=O)C([H])(N([H])C(=O)C([H])(N([H])C([H])([H])[H])C([H])([H])[H])C(C([H])([H])[H])(C([H])([H])[H])C([H])([H])[H])C([H])([H])c2c([H])c(OC3([H])C([H])([H])C([H])([H])C([H])(C([H])(C([H])([H])[H])C([H])([H])N([H])C(=O)C4([H])N(C(=O)N5C([H])([H])C([H])([H])C([H])([H])C([H])(n6nc(-c7c([H])c([H])c(Oc8c([H])c([H])c(F)c([H])c8F)c([H])c7[H])c(C(=O)N([H])[H])c6N([H])[H])C5([H])[H])C([H])([H])C([H])([H])C([H])([H])C4([H])[H])C([H])([H])C3([H])[H])c([H])c([H])c2C1([H])[H]

$$$$
36:0:0
     RDKit          3D

 93101  0  0  1  0  0  0  0  0999 V2000
  -27.9610  -20.6730   19.6360 C   0  0  0  0  0  3  0  0  0  0  0  0
  -27.4530  -19.3500   19.6120 C   0  0  0  0  0  0  0  0  0  0  0  0
  -28.3460  -18.2500   19.6930 C   0  0  0  0  0  0  0  0  0  0  0  0
  -29.7370  -18.4700   19.5250 C   0  0  0  0  0  0  0  0  0  0  0  0
  -29.3480  -20.8800   19.7350 C   0  0  0  0  0  0  0  0  0  0  0  0
  -25.9490  -19.1300   19.5560 C   0  0  0  0  0  1  0  0  0  0  0  0
  -27.8210  -16.8780   20.1220 C   0  0  0  0  0  1  0  0  0  0  0  0
  -30.1990  -19.7880   19.6010 N   0  0  0  0  0  0  0  0  0  0  0  0
  -29.8820  -22.1810   20.0660 N   0  0  0  0  0  0  0  0  0  0  0  0
  -30.8910  -22.1630   20.1660 H   0  0  0  0  0  0  0  0  0  0  0  0
  -32.0470  -17.6360   20.1680 C   0  0  0  0  0  1  0  0  0  0  0  0
  -30.7780  -17.2480   19.3810 C   0  0  0  0  0  3  0  0  0  0  0  0
  -31.1150  -14.5970   19.5340 C   0  0  0  0  0  0  0  0  0  0  0  0
  -30.8840  -12.1800   18.9100 C   0  0  0  0  0  2  0  0  0  0  0  0
  -29.8850  -12.0470   17.7410 C   0  0  0  0  0  2  0  0  0  0  0  0
  -28.4530  -11.8980   18.2790 C   0  0  0  0  0  2  0  0  0  0  0  0
  -28.1190  -12.9610   19.3580 C   0  0  0  0  0  3  0  0  0  0  0  0
  -29.2360  -13.0990   20.4120 C   0  0  0  0  0  2  0  0  0  0  0  0
  -30.4870  -13.3760   19.6970 N   0  0  0  0  0  0  0  0  0  0  0  0
  -32.2640  -14.6200   19.0950 O   0  0  0  0  0  0  0  0  0  0  0  0
  -30.3920  -15.7830   19.6910 N   0  0  0  0  0  0  0  0  0  0  0  0
  -29.4420  -15.6730   20.0070 H   0  0  0  0  0  0  0  0  0  0  0  0
  -25.8380  -13.6480   20.2950 C   0  0  0  0  0  0  0  0  0  0  0  0
  -24.7840  -12.9220   20.7780 C   0  0  0  0  0  0  0  0  0  0  0  0
  -25.1860  -11.5520   20.7160 C   0  0  0  0  0  0  0  0  0  0  0  0
  -26.8190  -12.7270   19.9740 N   0  0  0  0  0  0  0  0  0  0  0  0
  -26.4420  -11.4600   20.2880 N   0  0  0  0  0  0  0  0  0  0  0  0
  -24.4230  -10.3270   20.9730 C   0  0  0  0  0  0  0  0  0  0  0  0
  -24.8010   -9.4220   21.9860 C   0  0  0  0  0  3  0  0  0  0  0  0
  -24.0370   -8.2630   22.2290 C   0  0  0  0  0  3  0  0  0  0  0  0
  -22.8790   -8.0000   21.4590 C   0  0  0  0  0  0  0  0  0  0  0  0
  -22.5230   -8.8920   20.4310 C   0  0  0  0  0  3  0  0  0  0  0  0
  -23.2870  -10.0450   20.1880 C   0  0  0  0  0  3  0  0  0  0  0  0
  -22.0910   -6.8860   21.6090 O   0  0  0  0  0  0  0  0  0  0  0  0
  -21.8580   -6.3290   22.8420 C   0  0  0  0  0  0  0  0  0  0  0  0
  -21.2590   -7.0620   23.8890 C   0  0  0  0  0  3  0  0  0  0  0  0
  -20.9740   -6.4330   25.1160 C   0  0  0  0  0  3  0  0  0  0  0  0
  -21.2750   -5.0710   25.2960 C   0  0  0  0  0  0  0  0  0  0  0  0
  -21.8630   -4.3350   24.2530 C   0  0  0  0  0  3  0  0  0  0  0  0
  -22.1490   -4.9620   23.0270 C   0  0  0  0  0  0  0  0  0  0  0  0
  -22.6970   -4.2430   22.0170 F   0  0  0  0  0  0  0  0  0  0  0  0
  -20.9920   -4.4620   26.4720 F   0  0  0  0  0  0  0  0  0  0  0  0
  -23.4430  -13.4640   21.1780 C   0  0  0  0  0  0  0  0  0  0  0  0
  -22.7890  -12.8300   22.1400 N   0  0  0  0  0  0  0  0  0  0  0  0
  -22.9970  -14.4940   20.6740 O   0  0  0  0  0  0  0  0  0  0  0  0
  -23.1660  -11.9960   22.5660 H   0  0  0  0  0  0  0  0  0  0  0  0
  -21.8990  -13.1830   22.4560 H   0  0  0  0  0  0  0  0  0  0  0  0
  -26.0270  -15.0070   20.0690 N   0  0  0  0  0  0  0  0  0  0  0  0
  -25.2240  -15.6260   20.0880 H   0  0  0  0  0  0  0  0  0  0  0  0
  -26.7890  -15.3750   19.5160 H   0  0  0  0  0  0  0  0  0  0  0  0
  -29.3860  -23.5820   19.7200 C   0  0  0  0  0  2  0  0  0  0  0  0
  -29.0140  -24.6840   20.8720 C   0  0  0  0  0  2  0  0  0  0  0  0
  -29.1220  -26.1870   20.7140 O   0  0  0  0  0  0  0  0  0  0  0  0
  -24.7600  -31.4280   23.3350 C   0  0  0  0  0  0  0  0  0  0  0  0
  -27.9610  -26.9900   20.6190 C   0  0  0  0  0  0  0  0  0  0  0  0
  -23.8230  -29.9340   21.6110 C   0  0  0  0  0  3  0  0  0  0  0  0
  -25.5080  -28.4670   20.3570 C   0  0  0  0  0  0  0  0  0  0  0  0
  -26.3460  -30.4120   21.6740 C   0  0  0  0  0  2  0  0  0  0  0  0
  -26.5800  -29.0340   21.0560 C   0  0  0  0  0  0  0  0  0  0  0  0
  -27.8160  -28.3110   21.1700 C   0  0  0  0  0  3  0  0  0  0  0  0
  -26.8620  -26.4820   19.8980 C   0  0  0  0  0  3  0  0  0  0  0  0
  -25.6540  -27.1990   19.7680 C   0  0  0  0  0  3  0  0  0  0  0  0
  -24.2160  -29.2620   20.2680 C   0  0  0  0  0  2  0  0  0  0  0  0
  -24.9890  -30.6110   22.2630 N   0  0  0  0  0  0  0  0  0  0  0  0
  -23.6120  -31.6350   23.7530 O   0  0  0  0  0  0  0  0  0  0  0  0
  -23.1410  -28.8820   22.5180 C   0  0  0  0  0  0  0  0  0  0  0  0
  -21.8640  -28.5780   22.2380 N   0  0  0  0  0  0  0  0  0  0  0  0
  -23.7680  -28.3420   23.4330 O   0  0  0  0  0  0  0  0  0  0  0  0
  -21.4120  -29.0610   21.4740 H   0  0  0  0  0  0  0  0  0  0  0  0
  -18.5730  -27.0770   22.3880 C   0  0  0  0  0  0  0  0  0  0  0  0
  -21.0450  -27.5900   22.9420 C   0  0  0  0  0  3  0  0  0  0  0  0
  -21.3480  -26.1600   22.4410 C   0  0  0  0  0  2  0  0  0  0  0  0
  -20.4130  -25.7140   21.3110 C   0  0  0  0  0  2  0  0  0  0  0  0
  -18.9530  -25.7410   21.7760 C   0  0  0  0  0  2  0  0  0  0  0  0
  -19.5560  -27.9550   22.9180 C   0  0  0  0  0  0  0  0  0  0  0  0
  -19.1560  -29.2040   23.4380 C   0  0  0  0  0  3  0  0  0  0  0  0
  -17.7990  -29.5800   23.4360 C   0  0  0  0  0  3  0  0  0  0  0  0
  -16.8280  -28.7030   22.9270 C   0  0  0  0  0  3  0  0  0  0  0  0
  -17.2140  -27.4530   22.4110 C   0  0  0  0  0  3  0  0  0  0  0  0
  -25.9270  -32.1590   24.0660 C   0  0  0  0  0  3  0  0  0  0  0  0
  -26.3370  -31.4670   25.4240 C   0  0  1  0  0  0  0  0  0  0  0  0
  -25.1380  -31.1760   26.3550 C   0  0  0  0  0  1  0  0  0  0  0  0
  -27.0650  -30.1280   25.1640 C   0  0  0  0  0  1  0  0  0  0  0  0
  -27.3300  -32.3710   26.1910 C   0  0  0  0  0  1  0  0  0  0  0  0
  -25.5030  -33.5470   24.2990 N   0  0  0  0  0  0  0  0  0  0  0  0
  -25.8610  -34.5930   23.5410 C   0  0  0  0  0  0  0  0  0  0  0  0
  -26.6500  -34.4950   22.5980 O   0  0  0  0  0  0  0  0  0  0  0  0
  -24.8080  -33.6960   25.0170 H   0  0  0  0  0  0  0  0  0  0  0  0
  -24.1010  -36.2780   22.9120 C   0  0  0  0  0  1  0  0  0  0  0  0
  -25.2480  -35.9650   23.8860 C   0  0  0  0  0  3  0  0  0  0  0  0
  -27.2050  -36.9950   24.9560 C   0  0  0  0  0  1  0  0  0  0  0  0
  -26.2310  -37.0700   23.8670 N   0  0  0  0  0  0  0  0  0  0  0  0
  -25.7630  -37.9690   23.9220 H   0  0  0  0  0  0  0  0  0  0  0  0
  1  5  1  0
  2  1  2  0
  2  3  1  0
  3  7  1  0
  4  8  1  0
  4  3  2  0
  5  9  1  0
  6  2  1  0
  8  5  2  0
  9 10  1  0
 12  4  1  0
 12 21  1  0
 12 11  1  0
 13 21  1  0
 13 19  1  0
 14 19  1  0
 15 16  1  0
 15 14  1  0
 17 16  1  0
 17 26  1  0
 17 18  1  0
 19 18  1  0
 20 13  2  0
 21 22  1  0
 23 24  2  0
 24 43  1  0
 25 24  1  0
 25 28  1  0
 26 27  1  0
 26 23  1  0
 27 25  2  0
 28 29  1  0
 29 30  2  0
 31 34  1  0
 31 30  1  0
 32 31  2  0
 33 32  1  0
 33 28  2  0
 34 35  1  0
 35 40  2  0
 35 36  1  0
 36 37  2  0
 37 38  1  0
 38 42  1  0
 39 38  2  0
 40 39  1  0
 41 40  1  0
 43 44  1  0
 44 47  1  0
 44 46  1  0
 45 43  2  0
 48 49  1  0
 48 23  1  0
 50 48  1  0
 51  9  1  0
 51 52  1  0
 53 52  1  0
 54 65  2  0
 55 53  1  0
 55 60  1  0
 56 64  1  0
 56 66  1  0
 57 59  1  0
 58 64  1  0
 59 60  2  0
 59 58  1  0
 61 55  2  0
 62 61  1  0
 62 57  2  0
 63 57  1  0
 63 56  1  0
 64 54  1  0
 66 68  2  0
 67 66  1  0
 69 67  1  0
 70 79  2  0
 70 75  1  0
 71 67  1  0
 72 71  1  0
 73 74  1  0
 73 72  1  0
 74 70  1  0
 75 71  1  0
 75 76  2  0
 77 76  1  0
 78 77  2  0
 79 78  1  0
 80 54  1  0
 80 85  1  0
 80 81  1  0
 81 84  1  1
 81 82  1  0
 83 81  1  0
 85 88  1  0
 86 90  1  0
 86 85  1  0
 87 86  2  0
 90 89  1  0
 92 90  1  0
 92 93  1  0
 92 91  1  0
M  ISO  4  13 100  21 100  52 101  53 101
M  END
>  <TORSDO>  (37) 
F 19

>  <SCORE>  (37) 
-11.404

>  <name>  (37) 
36

>  <ligand_id>  (37) 
36

>  <original_smiles>  (37) 
[H]c1c([H])c([H])c2c(c1[H])C([H])([H])C([H])([H])C([H])([H])C2([H])N([H])C(=O)C1([H])N(C(=O)C([H])(N([H])C(=O)C([H])(N([H])C([H])([H])[H])C([H])([H])[H])C(C([H])([H])[H])(C([H])([H])[H])C([H])([H])[H])C([H])([H])c2c([H])c(OC([H])([H])C([H])([H])N([H])c3nc(C([H])(N([H])C(=O)N4C([H])([H])C([H])([H])C([H])([H])C([H])(n5nc(-c6c([H])c([H])c(Oc7c([H])c([H])c(F)c([H])c7F)c([H])c6[H])c(C(=O)N([H])[H])c5N([H])[H])C4([H])[H])C([H])([H])[H])c(C([H])([H])[H])c(C([H])([H])[H])c3[H])c([H])c([H])c2C1([H])[H]

>  <smiles>  (37) 
[H]c1c([H])c([H])c2c(c1[H])C([H])([H])C([H])([H])C([H])([H])C2([H])N([H])C(=O)C1([H])N(C(=O)C([H])(N([H])C(=O)C([H])(N([H])C([H])([H])[H])C([H])([H])[H])C(C([H])([H])[H])(C([H])([H])[H])C([H])([H])[H])C([H])([H])c2c([H])c(OC([H])([H])C([H])([H])N([H])c3nc(C([H])(N([H])C(=O)N4C([H])([H])C([H])([H])C([H])([H])C([H])(n5nc(-c6c([H])c([H])c(Oc7c([H])c([H])c(F)c([H])c7F)c([H])c6[H])c(C(=O)N([H])[H])c5N([H])[H])C4([H])[H])C([H])([H])[H])c(C([H])([H])[H])c(C([H])([H])[H])c3[H])c([H])c([H])c2C1([H])[H]

$$$$
37:0:0
     RDKit          3D

 93102  0  0  1  0  0  0  0  0999 V2000
  -28.6380  -21.9990   19.8150 C   0  0  0  0  0  3  0  0  0  0  0  0
  -28.7890  -23.4010   20.2670 C   0  0  0  0  0  0  0  0  0  0  0  0
  -29.5210  -21.0710   20.4070 C   0  0  0  0  0  0  0  0  0  0  0  0
  -29.8070  -23.2730   21.1740 C   0  0  0  0  0  0  0  0  0  0  0  0
  -30.3960  -24.3750   22.0100 C   0  0  0  0  0  1  0  0  0  0  0  0
  -30.2640  -21.9280   21.2610 N   0  0  0  0  0  0  0  0  0  0  0  0
  -30.6710  -14.9030   19.9120 C   0  0  0  0  0  0  0  0  0  0  0  0
  -30.3900  -12.5950   18.9410 C   0  0  0  0  0  2  0  0  0  0  0  0
  -29.3860  -12.6010   17.7690 C   0  0  0  0  0  2  0  0  0  0  0  0
  -27.9540  -12.3980   18.2960 C   0  0  0  0  0  2  0  0  0  0  0  0
  -27.6330  -13.3040   19.5160 C   0  0  0  0  0  3  0  0  0  0  0  0
  -28.7630  -13.3060   20.5680 C   0  0  0  0  0  2  0  0  0  0  0  0
  -29.9940  -13.6910   19.8680 N   0  0  0  0  0  0  0  0  0  0  0  0
  -31.8550  -14.8870   19.5560 O   0  0  0  0  0  0  0  0  0  0  0  0
  -29.1370  -18.3940   21.2020 C   0  0  0  0  0  2  0  0  0  0  0  0
  -29.7180  -18.6860   18.9320 C   0  0  0  0  0  2  0  0  0  0  0  0
  -29.7800  -16.9160   21.2350 C   0  0  0  0  0  2  0  0  0  0  0  0
  -30.3470  -17.2020   18.9050 C   0  0  0  0  0  2  0  0  0  0  0  0
  -29.8390  -19.4650   20.2810 C   0  0  0  0  0  3  0  0  0  0  0  0
  -29.9980  -16.1600   19.9520 N   0  0  0  0  0  0  0  0  0  0  0  0
  -25.3180  -13.8650   20.4460 C   0  0  0  0  0  0  0  0  0  0  0  0
  -24.2750  -13.0800   20.8580 C   0  0  0  0  0  0  0  0  0  0  0  0
  -24.7270  -11.7300   20.7450 C   0  0  0  0  0  0  0  0  0  0  0  0
  -26.3350  -12.9920   20.1000 N   0  0  0  0  0  0  0  0  0  0  0  0
  -25.9940  -11.6990   20.3470 N   0  0  0  0  0  0  0  0  0  0  0  0
  -24.0060  -10.4640   20.9370 C   0  0  0  0  0  0  0  0  0  0  0  0
  -24.4450   -9.4960   21.8670 C   0  0  0  0  0  3  0  0  0  0  0  0
  -23.7220   -8.2970   22.0480 C   0  0  0  0  0  3  0  0  0  0  0  0
  -22.5460   -8.0570   21.2990 C   0  0  0  0  0  0  0  0  0  0  0  0
  -22.1260   -9.0130   20.3580 C   0  0  0  0  0  3  0  0  0  0  0  0
  -22.8490  -10.2040   20.1750 C   0  0  0  0  0  3  0  0  0  0  0  0
  -21.7930   -6.9110   21.3910 O   0  0  0  0  0  0  0  0  0  0  0  0
  -21.6830   -6.2150   22.5680 C   0  0  0  0  0  0  0  0  0  0  0  0
  -21.1620   -6.8060   23.7390 C   0  0  0  0  0  3  0  0  0  0  0  0
  -21.0010   -6.0340   24.9070 C   0  0  0  0  0  3  0  0  0  0  0  0
  -21.3500   -4.6710   24.9040 C   0  0  0  0  0  0  0  0  0  0  0  0
  -21.8630   -4.0770   23.7360 C   0  0  0  0  0  3  0  0  0  0  0  0
  -22.0250   -4.8470   22.5710 C   0  0  0  0  0  0  0  0  0  0  0  0
  -22.5000   -4.2650   21.4430 F   0  0  0  0  0  0  0  0  0  0  0  0
  -21.1890   -3.9270   26.0230 F   0  0  0  0  0  0  0  0  0  0  0  0
  -22.9030  -13.5540   21.2400 C   0  0  0  0  0  0  0  0  0  0  0  0
  -22.2340  -12.8360   22.1330 N   0  0  0  0  0  0  0  0  0  0  0  0
  -22.4360  -14.5950   20.7810 O   0  0  0  0  0  0  0  0  0  0  0  0
  -22.6250  -11.9930   22.5270 H   0  0  0  0  0  0  0  0  0  0  0  0
  -21.3150  -13.1340   22.4300 H   0  0  0  0  0  0  0  0  0  0  0  0
  -25.4790  -15.2410   20.3120 N   0  0  0  0  0  0  0  0  0  0  0  0
  -24.7330  -15.8970   20.5190 H   0  0  0  0  0  0  0  0  0  0  0  0
  -26.3220  -15.6900   19.9750 H   0  0  0  0  0  0  0  0  0  0  0  0
  -32.6830  -21.2880   21.2600 C   0  0  0  0  0  1  0  0  0  0  0  0
  -31.1560  -20.4900   23.1690 C   0  0  0  0  0  1  0  0  0  0  0  0
  -31.4270  -21.5600   22.1030 C   0  0  0  0  0  3  0  0  0  0  0  0
  -27.9200  -24.7390   19.8910 C   0  0  0  0  0  2  0  0  0  0  0  0
  -28.2360  -26.2050   20.2490 O   0  0  0  0  0  0  0  0  0  0  0  0
  -24.6360  -31.8450   23.2630 C   0  0  0  0  0  0  0  0  0  0  0  0
  -27.1970  -27.1960   20.1620 C   0  0  0  0  0  0  0  0  0  0  0  0
  -23.4330  -30.4800   21.6000 C   0  0  0  0  0  3  0  0  0  0  0  0
  -24.8790  -28.9340   20.1510 C   0  0  0  0  0  0  0  0  0  0  0  0
  -25.9880  -30.7440   21.4480 C   0  0  0  0  0  2  0  0  0  0  0  0
  -26.0560  -29.3660   20.7740 C   0  0  0  0  0  0  0  0  0  0  0  0
  -27.2160  -28.5100   20.7700 C   0  0  0  0  0  3  0  0  0  0  0  0
  -26.0000  -26.8710   19.4840 C   0  0  0  0  0  3  0  0  0  0  0  0
  -24.8620  -27.6990   19.4900 C   0  0  0  0  0  3  0  0  0  0  0  0
  -23.6530  -29.8290   20.2100 C   0  0  0  0  0  2  0  0  0  0  0  0
  -24.7050  -31.0430   22.1590 N   0  0  0  0  0  0  0  0  0  0  0  0
  -23.5500  -32.1250   23.7920 O   0  0  0  0  0  0  0  0  0  0  0  0
  -22.7510  -29.4570   22.5420 C   0  0  0  0  0  0  0  0  0  0  0  0
  -21.4230  -29.2920   22.4080 N   0  0  0  0  0  0  0  0  0  0  0  0
  -23.4180  -28.8160   23.3580 O   0  0  0  0  0  0  0  0  0  0  0  0
  -20.9420  -29.8620   21.7270 H   0  0  0  0  0  0  0  0  0  0  0  0
  -18.0340  -28.1070   22.8860 C   0  0  0  0  0  0  0  0  0  0  0  0
  -20.5950  -28.3490   23.1630 C   0  0  0  0  0  3  0  0  0  0  0  0
  -20.6880  -26.9250   22.5670 C   0  0  0  0  0  2  0  0  0  0  0  0
  -19.5860  -26.6240   21.5470 C   0  0  0  0  0  2  0  0  0  0  0  0
  -18.2030  -26.7690   22.1890 C   0  0  0  0  0  2  0  0  0  0  0  0
  -19.1560  -28.8570   23.3290 C   0  0  0  0  0  0  0  0  0  0  0  0
  -18.9430  -30.1110   23.9410 C   0  0  0  0  0  3  0  0  0  0  0  0
  -17.6410  -30.6160   24.1130 C   0  0  0  0  0  3  0  0  0  0  0  0
  -16.5320  -29.8650   23.6850 C   0  0  0  0  0  3  0  0  0  0  0  0
  -16.7300  -28.6110   23.0770 C   0  0  0  0  0  3  0  0  0  0  0  0
  -25.9160  -32.4630   23.9020 C   0  0  0  0  0  3  0  0  0  0  0  0
  -25.6160  -33.8660   24.2310 N   0  0  0  0  0  0  0  0  0  0  0  0
  -25.9350  -34.9160   23.4600 C   0  0  0  0  0  0  0  0  0  0  0  0
  -26.5790  -34.8050   22.4150 O   0  0  0  0  0  0  0  0  0  0  0  0
  -25.0410  -34.0270   25.0450 H   0  0  0  0  0  0  0  0  0  0  0  0
  -24.1950  -36.7090   23.1560 C   0  0  0  0  0  1  0  0  0  0  0  0
  -25.4660  -36.3090   23.9240 C   0  0  0  0  0  3  0  0  0  0  0  0
  -27.6260  -37.2060   24.6730 C   0  0  0  0  0  1  0  0  0  0  0  0
  -26.4940  -37.3600   23.7630 N   0  0  0  0  0  0  0  0  0  0  0  0
  -26.0930  -38.2820   23.9090 H   0  0  0  0  0  0  0  0  0  0  0  0
  -26.4030  -31.6890   25.1890 C   0  0  1  0  0  0  0  0  0  0  0  0
  -25.2900  -31.4670   26.2410 C   0  0  0  0  0  1  0  0  0  0  0  0
  -26.9750  -30.3030   24.8130 C   0  0  0  0  0  1  0  0  0  0  0  0
  -27.5530  -32.4710   25.8660 C   0  0  0  0  0  1  0  0  0  0  0  0
  1  2  1  0
  1  3  2  0
  2  4  2  0
  3  6  1  0
  4  6  1  0
  4  5  1  0
  6 51  1  0
  7 20  1  0
  8 13  1  0
  9 10  1  0
  9  8  1  0
 11 10  1  0
 11 24  1  0
 11 12  1  0
 13  7  1  0
 13 12  1  0
 14  7  2  0
 15 17  1  0
 16 19  1  0
 18 16  1  0
 18 20  1  0
 19  3  1  0
 19 15  1  0
 20 17  1  0
 21 22  2  0
 22 41  1  0
 23 22  1  0
 23 26  1  0
 24 25  1  0
 24 21  1  0
 25 23  2  0
 26 27  1  0
 27 28  2  0
 29 32  1  0
 29 28  1  0
 30 29  2  0
 31 30  1  0
 31 26  2  0
 32 33  1  0
 33 38  2  0
 33 34  1  0
 34 35  2  0
 36 35  1  0
 36 40  1  0
 37 36  2  0
 38 37  1  0
 39 38  1  0
 41 42  1  0
 42 45  1  0
 42 44  1  0
 43 41  2  0
 46 21  1  0
 46 47  1  0
 48 46  1  0
 49 51  1  0
 51 50  1  0
 52 53  1  0
 52  2  1  0
 54 65  2  0
 55 53  1  0
 55 60  1  0
 56 64  1  0
 56 66  1  0
 57 63  1  0
 57 59  1  0
 58 64  1  0
 59 58  1  0
 60 59  2  0
 61 62  1  0
 61 55  2  0
 62 57  2  0
 63 56  1  0
 64 54  1  0
 66 68  2  0
 67 66  1  0
 69 67  1  0
 70 79  2  0
 70 75  1  0
 71 67  1  0
 71 75  1  0
 72 71  1  0
 73 74  1  0
 73 72  1  0
 74 70  1  0
 75 76  2  0
 76 77  1  0
 78 77  2  0
 79 78  1  0
 80 54  1  0
 80 81  1  0
 80 90  1  0
 81 84  1  0
 82 86  1  0
 82 81  1  0
 83 82  2  0
 86 85  1  0
 88 89  1  0
 88 86  1  0
 88 87  1  0
 90 93  1  1
 90 91  1  0
 92 90  1  0
M  ISO  4   7 100  20 100  52 101  53 101
M  END
>  <TORSDO>  (38) 
F 18

>  <SCORE>  (38) 
-14.484

>  <name>  (38) 
37

>  <ligand_id>  (38) 
37

>  <original_smiles>  (38) 
[H]c1c([H])c([H])c2c(c1[H])C([H])([H])C([H])([H])C([H])([H])C2([H])N([H])C(=O)C1([H])N(C(=O)C([H])(N([H])C(=O)C([H])(N([H])C([H])([H])[H])C([H])([H])[H])C(C([H])([H])[H])(C([H])([H])[H])C([H])([H])[H])C([H])([H])c2c([H])c(OC([H])([H])c3c([H])c(C4([H])C([H])([H])C([H])([H])N(C(=O)N5C([H])([H])C([H])([H])C([H])([H])C([H])(n6nc(-c7c([H])c([H])c(Oc8c([H])c([H])c(F)c([H])c8F)c([H])c7[H])c(C(=O)N([H])[H])c6N([H])[H])C5([H])[H])C([H])([H])C4([H])[H])n(C([H])(C([H])([H])[H])C([H])([H])[H])c3C([H])([H])[H])c([H])c([H])c2C1([H])[H]

>  <smiles>  (38) 
[H]c1c([H])c([H])c2c(c1[H])C([H])([H])C([H])([H])C([H])([H])C2([H])N([H])C(=O)C1([H])N(C(=O)C([H])(N([H])C(=O)C([H])(N([H])C([H])([H])[H])C([H])([H])[H])C(C([H])([H])[H])(C([H])([H])[H])C([H])([H])[H])C([H])([H])c2c([H])c(OC([H])([H])c3c([H])c(C4([H])C([H])([H])C([H])([H])N(C(=O)N5C([H])([H])C([H])([H])C([H])([H])C([H])(n6nc(-c7c([H])c([H])c(Oc8c([H])c([H])c(F)c([H])c8F)c([H])c7[H])c(C(=O)N([H])[H])c6N([H])[H])C5([H])[H])C([H])([H])C4([H])[H])n(C([H])(C([H])([H])[H])C([H])([H])[H])c3C([H])([H])[H])c([H])c([H])c2C1([H])[H]

$$$$
38:0:0
     RDKit          3D

 94102  0  0  1  0  0  0  0  0999 V2000
  -29.0610  -23.2980   18.6210 C   0  0  0  0  0  3  0  0  0  0  0  0
  -28.8270  -23.0820   21.0020 C   0  0  0  0  0  3  0  0  0  0  0  0
  -28.9730  -24.7180   18.7410 C   0  0  0  0  0  3  0  0  0  0  0  0
  -28.7240  -24.5010   21.1210 C   0  0  0  0  0  3  0  0  0  0  0  0
  -28.9650  -22.4300   19.7430 C   0  0  0  0  0  0  0  0  0  0  0  0
  -28.7700  -25.3580   19.9910 C   0  0  0  0  0  0  0  0  0  0  0  0
  -28.7270  -26.7610   20.1080 O   0  0  0  0  0  0  0  0  0  0  0  0
  -24.6480  -31.7810   23.2800 C   0  0  0  0  0  0  0  0  0  0  0  0
  -27.5330  -27.4840   20.1240 C   0  0  0  0  0  0  0  0  0  0  0  0
  -23.5390  -30.3930   21.5620 C   0  0  0  0  0  3  0  0  0  0  0  0
  -25.0860  -28.9540   20.1180 C   0  0  0  0  0  0  0  0  0  0  0  0
  -26.0610  -30.8320   21.4490 C   0  0  0  0  0  2  0  0  0  0  0  0
  -26.2130  -29.4830   20.7610 C   0  0  0  0  0  0  0  0  0  0  0  0
  -27.4360  -28.7580   20.7570 C   0  0  0  0  0  3  0  0  0  0  0  0
  -26.3840  -26.9890   19.4690 C   0  0  0  0  0  3  0  0  0  0  0  0
  -25.1720  -27.7120   19.4650 C   0  0  0  0  0  3  0  0  0  0  0  0
  -23.8110  -29.7730   20.1630 C   0  0  0  0  0  2  0  0  0  0  0  0
  -24.7670  -31.0190   22.1550 N   0  0  0  0  0  0  0  0  0  0  0  0
  -23.5440  -31.9940   23.7990 O   0  0  0  0  0  0  0  0  0  0  0  0
  -22.9030  -29.3140   22.4690 C   0  0  0  0  0  0  0  0  0  0  0  0
  -21.5920  -29.0750   22.2960 N   0  0  0  0  0  0  0  0  0  0  0  0
  -23.5890  -28.6980   23.2880 O   0  0  0  0  0  0  0  0  0  0  0  0
  -21.0950  -29.6310   21.6150 H   0  0  0  0  0  0  0  0  0  0  0  0
  -18.2660  -27.7100   22.6680 C   0  0  0  0  0  0  0  0  0  0  0  0
  -20.8010  -28.0750   23.0130 C   0  0  0  0  0  3  0  0  0  0  0  0
  -20.9830  -26.6670   22.3980 C   0  0  0  0  0  2  0  0  0  0  0  0
  -19.9220  -26.3280   21.3430 C   0  0  0  0  0  2  0  0  0  0  0  0
  -18.5210  -26.3900   21.9610 C   0  0  0  0  0  2  0  0  0  0  0  0
  -19.3380  -28.5080   23.1490 C   0  0  0  0  0  0  0  0  0  0  0  0
  -19.0490  -29.7410   23.7690 C   0  0  0  0  0  3  0  0  0  0  0  0
  -17.7190  -30.1790   23.9160 C   0  0  0  0  0  3  0  0  0  0  0  0
  -16.6620  -29.3770   23.4530 C   0  0  0  0  0  3  0  0  0  0  0  0
  -16.9360  -28.1440   22.8360 C   0  0  0  0  0  3  0  0  0  0  0  0
  -25.8910  -32.4410   23.9530 C   0  0  0  0  0  3  0  0  0  0  0  0
  -25.5480  -33.8410   24.2410 N   0  0  0  0  0  0  0  0  0  0  0  0
  -25.8900  -34.8830   23.4730 C   0  0  0  0  0  0  0  0  0  0  0  0
  -26.5990  -34.7700   22.4690 O   0  0  0  0  0  0  0  0  0  0  0  0
  -24.9210  -34.0030   25.0160 H   0  0  0  0  0  0  0  0  0  0  0  0
  -24.1410  -36.6350   23.0260 C   0  0  0  0  0  1  0  0  0  0  0  0
  -25.3640  -36.2730   23.8830 C   0  0  0  0  0  3  0  0  0  0  0  0
  -27.4470  -37.2280   24.7660 C   0  0  0  0  0  1  0  0  0  0  0  0
  -26.3810  -37.3420   23.7740 N   0  0  0  0  0  0  0  0  0  0  0  0
  -25.9510  -38.2580   23.8730 H   0  0  0  0  0  0  0  0  0  0  0  0
  -26.3530  -31.7020   25.2690 C   0  0  1  0  0  0  0  0  0  0  0  0
  -25.2100  -31.4540   26.2800 C   0  0  0  0  0  1  0  0  0  0  0  0
  -26.9880  -30.3320   24.9330 C   0  0  0  0  0  1  0  0  0  0  0  0
  -27.4490  -32.5310   25.9800 C   0  0  0  0  0  1  0  0  0  0  0  0
  -28.7730  -20.8660   19.5550 C   0  0  0  0  0  3  0  0  0  0  0  0
  -29.6880  -19.8970   20.2900 N   0  0  0  0  0  4  0  0  0  0  0  0
  -30.6350  -20.1620   20.0740 H   0  0  0  0  0  0  0  0  0  0  0  0
  -29.5590  -20.0360   21.2780 H   0  0  0  0  0  0  0  0  0  0  0  0
  -29.5180  -18.4090   19.9800 C   0  0  0  0  0  3  0  0  0  0  0  0
  -30.6030  -17.3780   20.5330 C   0  0  0  0  0  3  0  0  0  0  0  0
  -30.9700  -14.8220   20.2340 C   0  0  0  0  0  0  0  0  0  0  0  0
  -30.7130  -12.5730   19.2130 C   0  0  0  0  0  2  0  0  0  0  0  0
  -29.7650  -12.6840   17.9960 C   0  0  0  0  0  2  0  0  0  0  0  0
  -28.2900  -12.5620   18.4300 C   0  0  0  0  0  2  0  0  0  0  0  0
  -27.9490  -13.4550   19.6520 C   0  0  0  0  0  3  0  0  0  0  0  0
  -29.0090  -13.3160   20.7690 C   0  0  0  0  0  2  0  0  0  0  0  0
  -30.3180  -13.6180   20.1750 N   0  0  0  0  0  0  0  0  0  0  0  0
  -32.1390  -14.9380   19.8610 O   0  0  0  0  0  0  0  0  0  0  0  0
  -30.2090  -15.9200   20.5320 N   0  0  0  0  0  0  0  0  0  0  0  0
  -29.2580  -15.7160   20.7990 H   0  0  0  0  0  0  0  0  0  0  0  0
  -25.5720  -14.1090   20.3740 C   0  0  0  0  0  0  0  0  0  0  0  0
  -24.4890  -13.3640   20.7500 C   0  0  0  0  0  0  0  0  0  0  0  0
  -24.9190  -12.0020   20.7250 C   0  0  0  0  0  0  0  0  0  0  0  0
  -26.5960  -13.2050   20.1430 N   0  0  0  0  0  0  0  0  0  0  0  0
  -26.2090  -11.9320   20.4140 N   0  0  0  0  0  0  0  0  0  0  0  0
  -24.1640  -10.7580   20.9250 C   0  0  0  0  0  0  0  0  0  0  0  0
  -24.5530   -9.8050   21.8920 C   0  0  0  0  0  3  0  0  0  0  0  0
  -23.7990   -8.6260   22.0790 C   0  0  0  0  0  3  0  0  0  0  0  0
  -22.6420   -8.3910   21.2990 C   0  0  0  0  0  0  0  0  0  0  0  0
  -22.2730   -9.3320   20.3210 C   0  0  0  0  0  3  0  0  0  0  0  0
  -23.0260  -10.5030   20.1330 C   0  0  0  0  0  3  0  0  0  0  0  0
  -21.8660   -7.2600   21.3910 O   0  0  0  0  0  0  0  0  0  0  0  0
  -21.7470   -6.5630   22.5650 C   0  0  0  0  0  0  0  0  0  0  0  0
  -21.2210   -7.1560   23.7330 C   0  0  0  0  0  3  0  0  0  0  0  0
  -21.0530   -6.3840   24.9000 C   0  0  0  0  0  3  0  0  0  0  0  0
  -21.4010   -5.0200   24.9000 C   0  0  0  0  0  0  0  0  0  0  0  0
  -21.9180   -4.4260   23.7360 C   0  0  0  0  0  3  0  0  0  0  0  0
  -22.0890   -5.1950   22.5710 C   0  0  0  0  0  0  0  0  0  0  0  0
  -22.5710   -4.6140   21.4460 F   0  0  0  0  0  0  0  0  0  0  0  0
  -21.2300   -4.2760   26.0170 F   0  0  0  0  0  0  0  0  0  0  0  0
  -23.1030  -13.8750   21.0210 C   0  0  0  0  0  0  0  0  0  0  0  0
  -22.3640  -13.2080   21.9000 N   0  0  0  0  0  0  0  0  0  0  0  0
  -22.6860  -14.9020   20.4860 O   0  0  0  0  0  0  0  0  0  0  0  0
  -22.7140  -12.3780   22.3550 H   0  0  0  0  0  0  0  0  0  0  0  0
  -21.4340  -13.5350   22.1230 H   0  0  0  0  0  0  0  0  0  0  0  0
  -25.7640  -15.4750   20.1810 N   0  0  0  0  0  0  0  0  0  0  0  0
  -24.9950  -16.1330   20.2590 H   0  0  0  0  0  0  0  0  0  0  0  0
  -26.5900  -15.8820   19.7630 H   0  0  0  0  0  0  0  0  0  0  0  0
  -27.2700  -20.5130   19.7670 C   0  0  0  0  0  2  0  0  0  0  0  0
  -26.4220  -21.3470   18.9890 O   0  0  0  0  0  0  0  0  0  0  0  0
  -26.6250  -22.2500   19.2190 H   0  0  0  0  0  0  0  0  0  0  0  0
  1  3  2  0
  1  5  1  0
  2  4  1  0
  3  6  1  0
  5  2  2  0
  6  7  1  0
  6  4  2  0
  7  9  1  0
  8 19  2  0
  9 14  1  0
 10 18  1  0
 10 20  1  0
 11 17  1  0
 11 13  1  0
 12 18  1  0
 13 12  1  0
 14 13  2  0
 15  9  2  0
 16 15  1  0
 16 11  2  0
 17 10  1  0
 18  8  1  0
 20 22  2  0
 21 20  1  0
 23 21  1  0
 24 33  2  0
 24 29  1  0
 25 21  1  0
 25 29  1  0
 26 25  1  0
 27 28  1  0
 27 26  1  0
 28 24  1  0
 29 30  2  0
 30 31  1  0
 32 31  2  0
 33 32  1  0
 34  8  1  0
 34 35  1  0
 34 44  1  0
 35 38  1  0
 36 40  1  0
 36 35  1  0
 37 36  2  0
 40 39  1  0
 42 43  1  0
 42 40  1  0
 42 41  1  0
 44 47  1  1
 44 45  1  0
 46 44  1  0
 48  5  1  0
 48 92  1  0
 48 49  1  0
 49 51  1  0
 50 49  1  0
 52 49  1  0
 52 53  2  0
 54 62  1  0
 55 60  1  0
 56 57  1  0
 56 55  1  0
 58 57  1  0
 58 67  1  0
 58 59  1  0
 60 54  1  0
 60 59  1  0
 61 54  2  0
 62 53  1  0
 62 63  1  0
 64 65  2  0
 65 84  1  0
 66 65  1  0
 66 69  1  0
 67 64  1  0
 67 68  1  0
 68 66  2  0
 69 70  1  0
 70 71  2  0
 72 75  1  0
 72 71  1  0
 73 72  2  0
 74 73  1  0
 74 69  2  0
 75 76  1  0
 76 81  2  0
 76 77  1  0
 77 78  2  0
 78 79  1  0
 79 83  1  0
 80 79  2  0
 81 80  1  0
 82 81  1  0
 84 85  1  0
 85 88  1  0
 85 87  1  0
 86 84  2  0
 89 90  1  0
 89 64  1  0
 91 89  1  0
 93 94  1  0
 93 92  1  0
M  ISO  4   6 101   7 101  54 100  62 100
M  END
>  <TORSDO>  (39) 
F 22

>  <SCORE>  (39) 
-12.752

>  <name>  (39) 
38

>  <ligand_id>  (39) 
38

>  <original_smiles>  (39) 
[H]OC([H])([H])C([H])(c1c([H])c([H])c(Oc2c([H])c([H])c3c(c2[H])C([H])([H])N(C(=O)C([H])(N([H])C(=O)C([H])(N([H])C([H])([H])[H])C([H])([H])[H])C(C([H])([H])[H])(C([H])([H])[H])C([H])([H])[H])C([H])(C(=O)N([H])C2([H])c4c([H])c([H])c([H])c([H])c4C([H])([H])C([H])([H])C2([H])[H])C3([H])[H])c([H])c1[H])[N+]([H])([H])C([H])([H])C([H])([H])N([H])C(=O)N1C([H])([H])C([H])([H])C([H])([H])C([H])(n2nc(-c3c([H])c([H])c(Oc4c([H])c([H])c(F)c([H])c4F)c([H])c3[H])c(C(=O)N([H])[H])c2N([H])[H])C1([H])[H]

>  <smiles>  (39) 
[H]OC([H])([H])C([H])(c1c([H])c([H])c(Oc2c([H])c([H])c3c(c2[H])C([H])([H])N(C(=O)C([H])(N([H])C(=O)C([H])(N([H])C([H])([H])[H])C([H])([H])[H])C(C([H])([H])[H])(C([H])([H])[H])C([H])([H])[H])C([H])(C(=O)N([H])C2([H])c4c([H])c([H])c([H])c([H])c4C([H])([H])C([H])([H])C2([H])[H])C3([H])[H])c([H])c1[H])[N+]([H])([H])C([H])([H])C([H])([H])N([H])C(=O)N1C([H])([H])C([H])([H])C([H])([H])C([H])(n2nc(-c3c([H])c([H])c(Oc4c([H])c([H])c(F)c([H])c4F)c([H])c3[H])c(C(=O)N([H])[H])c2N([H])[H])C1([H])[H]

$$$$
39:0:0
     RDKit          3D

 95104  0  0  1  0  0  0  0  0999 V2000
  -28.8000  -20.9980   21.1740 C   0  0  0  0  0  2  0  0  0  0  0  0
  -32.0740  -19.9820   22.2780 C   0  0  0  0  0  2  0  0  0  0  0  0
  -32.0060  -19.5920   20.7980 C   0  0  0  0  0  3  0  0  0  0  0  0
  -29.8430  -20.0250   21.8260 C   0  0  0  0  0  3  0  0  0  0  0  0
  -32.5120  -20.7270   19.8880 C   0  0  0  0  0  1  0  0  0  0  0  0
  -30.5700  -19.3310   20.5770 N   0  0  2  0  0  4  0  0  0  0  0  0
  -30.8670  -20.7090   22.4850 O   0  0  0  0  0  0  0  0  0  0  0  0
  -30.3130  -19.8310   19.7390 H   0  0  0  0  0  0  0  0  0  0  0  0
  -30.1960  -17.8990   20.3210 C   0  0  0  0  0  2  0  0  0  0  0  0
  -30.6140  -16.8630   21.4140 C   0  0  0  0  0  2  0  0  0  0  0  0
  -30.7980  -14.5440   20.4280 C   0  0  0  0  0  0  0  0  0  0  0  0
  -30.5010  -12.4000   19.2360 C   0  0  0  0  0  2  0  0  0  0  0  0
  -29.5480  -12.6020   18.0410 C   0  0  0  0  0  2  0  0  0  0  0  0
  -28.0790  -12.4440   18.4800 C   0  0  0  0  0  2  0  0  0  0  0  0
  -27.7430  -13.2800   19.7440 C   0  0  0  0  0  3  0  0  0  0  0  0
  -28.8030  -13.0540   20.8460 C   0  0  0  0  0  2  0  0  0  0  0  0
  -30.1260  -13.3700   20.2770 N   0  0  0  0  0  0  0  0  0  0  0  0
  -31.8840  -14.7780   19.8910 O   0  0  0  0  0  0  0  0  0  0  0  0
  -30.1540  -15.4900   21.1350 N   0  0  0  0  0  0  0  0  0  0  0  0
  -29.2670  -15.2160   21.5330 H   0  0  0  0  0  0  0  0  0  0  0  0
  -25.3440  -13.8850   20.4570 C   0  0  0  0  0  0  0  0  0  0  0  0
  -24.2780  -13.1110   20.8330 C   0  0  0  0  0  0  0  0  0  0  0  0
  -24.7440  -11.7610   20.8010 C   0  0  0  0  0  0  0  0  0  0  0  0
  -26.3900  -13.0060   20.2260 N   0  0  0  0  0  0  0  0  0  0  0  0
  -26.0320  -11.7240   20.4880 N   0  0  0  0  0  0  0  0  0  0  0  0
  -24.0220  -10.4970   20.9960 C   0  0  0  0  0  0  0  0  0  0  0  0
  -24.4540   -9.5390   21.9370 C   0  0  0  0  0  3  0  0  0  0  0  0
  -23.7340   -8.3390   22.1200 C   0  0  0  0  0  3  0  0  0  0  0  0
  -22.5670   -8.0890   21.3590 C   0  0  0  0  0  0  0  0  0  0  0  0
  -22.1550   -9.0370   20.4060 C   0  0  0  0  0  3  0  0  0  0  0  0
  -22.8760  -10.2290   20.2230 C   0  0  0  0  0  3  0  0  0  0  0  0
  -21.8190   -6.9410   21.4480 O   0  0  0  0  0  0  0  0  0  0  0  0
  -21.7490   -6.2160   22.6110 C   0  0  0  0  0  0  0  0  0  0  0  0
  -21.2760   -6.7830   23.8150 C   0  0  0  0  0  3  0  0  0  0  0  0
  -21.1570   -5.9830   24.9700 C   0  0  0  0  0  3  0  0  0  0  0  0
  -21.4970   -4.6180   24.9190 C   0  0  0  0  0  0  0  0  0  0  0  0
  -21.9610   -4.0510   23.7190 C   0  0  0  0  0  3  0  0  0  0  0  0
  -22.0830   -4.8470   22.5680 C   0  0  0  0  0  0  0  0  0  0  0  0
  -22.5110   -4.2910   21.4090 F   0  0  0  0  0  0  0  0  0  0  0  0
  -21.3740   -3.8480   26.0250 F   0  0  0  0  0  0  0  0  0  0  0  0
  -22.8810  -13.5870   21.1120 C   0  0  0  0  0  0  0  0  0  0  0  0
  -22.1590  -12.8850   21.9800 N   0  0  0  0  0  0  0  0  0  0  0  0
  -22.4380  -14.6120   20.5970 O   0  0  0  0  0  0  0  0  0  0  0  0
  -22.5320  -12.0570   22.4180 H   0  0  0  0  0  0  0  0  0  0  0  0
  -21.2220  -13.1820   22.2080 H   0  0  0  0  0  0  0  0  0  0  0  0
  -25.5040  -15.2550   20.2760 N   0  0  0  0  0  0  0  0  0  0  0  0
  -24.7330  -15.9070   20.3730 H   0  0  0  0  0  0  0  0  0  0  0  0
  -26.3500  -15.6950   19.9320 H   0  0  0  0  0  0  0  0  0  0  0  0
  -29.1260  -22.9890   19.5680 C   0  0  0  0  0  2  0  0  0  0  0  0
  -28.2470  -23.4020   21.8910 C   0  0  0  0  0  2  0  0  0  0  0  0
  -29.3390  -24.5140   19.4000 C   0  0  0  0  0  2  0  0  0  0  0  0
  -28.4430  -24.9240   21.6890 C   0  0  0  0  0  2  0  0  0  0  0  0
  -29.2010  -22.5130   21.0420 C   0  0  0  0  0  3  0  0  0  0  0  0
  -28.2890  -25.2980   20.2070 C   0  0  0  0  0  3  0  0  0  0  0  0
  -28.3910  -26.7290   20.0050 O   0  0  0  0  0  0  0  0  0  0  0  0
  -24.5950  -31.8870   23.1690 C   0  0  0  0  0  0  0  0  0  0  0  0
  -27.2170  -27.4700   20.0120 C   0  0  0  0  0  0  0  0  0  0  0  0
  -23.3780  -30.5050   21.5190 C   0  0  0  0  0  3  0  0  0  0  0  0
  -24.8220  -28.9920   20.0620 C   0  0  0  0  0  0  0  0  0  0  0  0
  -25.9060  -30.8630   21.3100 C   0  0  0  0  0  2  0  0  0  0  0  0
  -25.9870  -29.5010   20.6490 C   0  0  0  0  0  0  0  0  0  0  0  0
  -27.1860  -28.7480   20.6210 C   0  0  0  0  0  3  0  0  0  0  0  0
  -26.0340  -26.9950   19.3960 C   0  0  0  0  0  3  0  0  0  0  0  0
  -24.8420  -27.7380   19.4330 C   0  0  0  0  0  3  0  0  0  0  0  0
  -23.5790  -29.8480   20.1290 C   0  0  0  0  0  2  0  0  0  0  0  0
  -24.6450  -31.1000   22.0560 N   0  0  0  0  0  0  0  0  0  0  0  0
  -23.5180  -32.1490   23.7220 O   0  0  0  0  0  0  0  0  0  0  0  0
  -22.7400  -29.4660   22.4700 C   0  0  0  0  0  0  0  0  0  0  0  0
  -21.4140  -29.2860   22.3570 N   0  0  0  0  0  0  0  0  0  0  0  0
  -23.4330  -28.8280   23.2670 O   0  0  0  0  0  0  0  0  0  0  0  0
  -20.9140  -29.8510   21.6850 H   0  0  0  0  0  0  0  0  0  0  0  0
  -18.0420  -28.1030   22.8990 C   0  0  0  0  0  0  0  0  0  0  0  0
  -20.6070  -28.3380   23.1250 C   0  0  0  0  0  3  0  0  0  0  0  0
  -20.6870  -26.9180   22.5160 C   0  0  0  0  0  2  0  0  0  0  0  0
  -19.5620  -26.6250   21.5190 C   0  0  0  0  0  2  0  0  0  0  0  0
  -18.1950  -26.7670   22.1930 C   0  0  0  0  0  2  0  0  0  0  0  0
  -19.1750  -28.8480   23.3240 C   0  0  0  0  0  0  0  0  0  0  0  0
  -18.9780  -30.1010   23.9440 C   0  0  0  0  0  3  0  0  0  0  0  0
  -17.6800  -30.6060   24.1470 C   0  0  0  0  0  3  0  0  0  0  0  0
  -16.5630  -29.8580   23.7400 C   0  0  0  0  0  3  0  0  0  0  0  0
  -16.7450  -28.6090   23.1220 C   0  0  0  0  0  3  0  0  0  0  0  0
  -25.8850  -32.5130   23.7830 C   0  0  0  0  0  3  0  0  0  0  0  0
  -26.4200  -31.7270   25.0430 C   0  0  1  0  0  0  0  0  0  0  0  0
  -25.3400  -31.4660   26.1180 C   0  0  0  0  0  1  0  0  0  0  0  0
  -27.0100  -30.3600   24.6240 C   0  0  0  0  0  1  0  0  0  0  0  0
  -27.5710  -32.5210   25.7050 C   0  0  0  0  0  1  0  0  0  0  0  0
  -25.5740  -33.9060   24.1330 N   0  0  0  0  0  0  0  0  0  0  0  0
  -25.9110  -34.9700   23.3930 C   0  0  0  0  0  0  0  0  0  0  0  0
  -26.5880  -34.8830   22.3640 O   0  0  0  0  0  0  0  0  0  0  0  0
  -24.9760  -34.0480   24.9340 H   0  0  0  0  0  0  0  0  0  0  0  0
  -24.2040  -36.7800   23.0320 C   0  0  0  0  0  1  0  0  0  0  0  0
  -25.4180  -36.3500   23.8690 C   0  0  0  0  0  3  0  0  0  0  0  0
  -27.5320  -37.2030   24.7820 C   0  0  0  0  0  1  0  0  0  0  0  0
  -26.4600  -37.3990   23.8100 N   0  0  0  0  0  0  0  0  0  0  0  0
  -26.0550  -38.3170   23.9660 H   0  0  0  0  0  0  0  0  0  0  0  0
  2  7  1  0
  3  5  1  0
  3  2  1  0
  4  1  1  0
  4  7  1  0
  6  3  1  0
  6  4  1  0
  6  8  1  6
  9  6  1  0
  9 10  1  0
 11 19  1  0
 12 17  1  0
 13 14  1  0
 13 12  1  0
 15 14  1  0
 15 24  1  0
 15 16  1  0
 17 11  1  0
 17 16  1  0
 18 11  2  0
 19 10  1  0
 19 20  1  0
 21 22  2  0
 22 41  1  0
 23 22  1  0
 23 26  1  0
 24 21  1  0
 24 25  1  0
 25 23  2  0
 26 27  1  0
 27 28  2  0
 29 32  1  0
 29 28  1  0
 30 29  2  0
 31 30  1  0
 31 26  2  0
 32 33  1  0
 33 34  1  0
 34 35  2  0
 36 35  1  0
 36 40  1  0
 37 36  2  0
 38 33  2  0
 38 37  1  0
 39 38  1  0
 41 42  1  0
 42 45  1  0
 42 44  1  0
 43 41  2  0
 46 47  1  0
 46 21  1  0
 48 46  1  0
 49 53  1  0
 51 49  1  0
 51 54  1  0
 52 50  1  0
 53  1  1  0
 53 50  1  0
 54 55  1  0
 54 52  1  0
 55 57  1  0
 56 67  2  0
 57 62  1  0
 58 66  1  0
 58 68  1  0
 59 65  1  0
 59 61  1  0
 60 66  1  0
 61 60  1  0
 62 61  2  0
 63 64  1  0
 63 57  2  0
 64 59  2  0
 65 58  1  0
 66 56  1  0
 68 70  2  0
 69 68  1  0
 71 69  1  0
 72 81  2  0
 72 77  1  0
 73 69  1  0
 73 77  1  0
 74 73  1  0
 75 76  1  0
 75 74  1  0
 76 72  1  0
 77 78  2  0
 78 79  1  0
 80 79  2  0
 81 80  1  0
 82 56  1  0
 82 87  1  0
 82 83  1  0
 83 86  1  1
 83 84  1  0
 85 83  1  0
 87 90  1  0
 88 92  1  0
 88 87  1  0
 89 88  2  0
 92 91  1  0
 94 92  1  0
 94 95  1  0
 94 93  1  0
M  ISO  4  11 100  19 100  54 101  55 101
M  END
>  <TORSDO>  (40) 
F 20

>  <SCORE>  (40) 
-13.948

>  <name>  (40) 
39

>  <ligand_id>  (40) 
39

>  <original_smiles>  (40) 
[H]c1c([H])c([H])c2c(c1[H])C([H])([H])C([H])([H])C([H])([H])C2([H])N([H])C(=O)C1([H])N(C(=O)C([H])(N([H])C(=O)C([H])(N([H])C([H])([H])[H])C([H])([H])[H])C(C([H])([H])[H])(C([H])([H])[H])C([H])([H])[H])C([H])([H])c2c([H])c(OC3([H])C([H])([H])C([H])([H])C([H])(C([H])([H])C4([H])OC([H])([H])C([H])(C([H])([H])[H])[N+]4([H])C([H])([H])C([H])([H])N([H])C(=O)N4C([H])([H])C([H])([H])C([H])([H])C([H])(n5nc(-c6c([H])c([H])c(Oc7c([H])c([H])c(F)c([H])c7F)c([H])c6[H])c(C(=O)N([H])[H])c5N([H])[H])C4([H])[H])C([H])([H])C3([H])[H])c([H])c([H])c2C1([H])[H]

>  <smiles>  (40) 
[H]c1c([H])c([H])c2c(c1[H])C([H])([H])C([H])([H])C([H])([H])C2([H])N([H])C(=O)C1([H])N(C(=O)C([H])(N([H])C(=O)C([H])(N([H])C([H])([H])[H])C([H])([H])[H])C(C([H])([H])[H])(C([H])([H])[H])C([H])([H])[H])C([H])([H])c2c([H])c(OC3([H])C([H])([H])C([H])([H])C([H])(C([H])([H])C4([H])OC([H])([H])C([H])(C([H])([H])[H])[N+]4([H])C([H])([H])C([H])([H])N([H])C(=O)N4C([H])([H])C([H])([H])C([H])([H])C([H])(n5nc(-c6c([H])c([H])c(Oc7c([H])c([H])c(F)c([H])c7F)c([H])c6[H])c(C(=O)N([H])[H])c5N([H])[H])C4([H])[H])C([H])([H])C3([H])[H])c([H])c([H])c2C1([H])[H]

$$$$
40:0:0
     RDKit          3D

 90 98  0  0  1  0  0  0  0  0999 V2000
  -30.5010  -15.1160   20.3850 C   0  0  0  0  0  0  0  0  0  0  0  0
  -30.3920  -12.7350   19.4690 C   0  0  0  0  0  2  0  0  0  0  0  0
  -29.4760  -12.6500   18.2270 C   0  0  0  0  0  2  0  0  0  0  0  0
  -28.0140  -12.4200   18.6480 C   0  0  0  0  0  2  0  0  0  0  0  0
  -27.5850  -13.3470   19.8160 C   0  0  0  0  0  3  0  0  0  0  0  0
  -28.6320  -13.4120   20.9480 C   0  0  0  0  0  2  0  0  0  0  0  0
  -29.8940  -13.8490   20.3380 N   0  0  0  0  0  0  0  0  0  0  0  0
  -31.7130  -15.1020   20.1380 O   0  0  0  0  0  0  0  0  0  0  0  0
  -31.6650  -19.4350   19.3050 C   0  0  0  0  0  3  0  0  0  0  0  0
  -31.2860  -18.1430   19.6940 C   0  0  0  0  0  3  0  0  0  0  0  0
  -30.8320  -20.5580   19.4880 C   0  0  0  0  0  0  0  0  0  0  0  0
  -30.0400  -17.8730   20.2830 C   0  0  0  0  0  0  0  0  0  0  0  0
  -29.5890  -20.4320   20.1620 C   0  0  0  0  0  0  0  0  0  0  0  0
  -31.3240  -21.8440   18.8440 C   0  0  0  0  0  1  0  0  0  0  0  0
  -29.2390  -19.0690   20.5050 N   0  0  0  0  0  0  0  0  0  0  0  0
  -29.7530  -16.3530   20.5330 N   0  0  0  0  0  0  0  0  0  0  0  0
  -28.7970  -16.1740   20.7970 H   0  0  0  0  0  0  0  0  0  0  0  0
  -25.2030  -13.8980   20.5540 C   0  0  0  0  0  0  0  0  0  0  0  0
  -24.1450  -13.1120   20.9170 C   0  0  0  0  0  0  0  0  0  0  0  0
  -24.6220  -11.7650   20.8870 C   0  0  0  0  0  0  0  0  0  0  0  0
  -26.2530  -13.0300   20.3130 N   0  0  0  0  0  0  0  0  0  0  0  0
  -25.9140  -11.7420   20.5810 N   0  0  0  0  0  0  0  0  0  0  0  0
  -23.9040  -10.4980   21.0680 C   0  0  0  0  0  0  0  0  0  0  0  0
  -24.3360   -9.5300   22.0020 C   0  0  0  0  0  3  0  0  0  0  0  0
  -23.6150   -8.3290   22.1740 C   0  0  0  0  0  3  0  0  0  0  0  0
  -22.4470   -8.0860   21.4120 C   0  0  0  0  0  0  0  0  0  0  0  0
  -22.0350   -9.0420   20.4680 C   0  0  0  0  0  3  0  0  0  0  0  0
  -22.7560  -10.2350   20.2940 C   0  0  0  0  0  3  0  0  0  0  0  0
  -21.6990   -6.9370   21.4920 O   0  0  0  0  0  0  0  0  0  0  0  0
  -21.6410   -6.1940   22.6430 C   0  0  0  0  0  0  0  0  0  0  0  0
  -21.1710   -6.7360   23.8600 C   0  0  0  0  0  3  0  0  0  0  0  0
  -21.0660   -5.9170   25.0010 C   0  0  0  0  0  3  0  0  0  0  0  0
  -21.4190   -4.5570   24.9280 C   0  0  0  0  0  0  0  0  0  0  0  0
  -21.8790   -4.0130   23.7170 C   0  0  0  0  0  3  0  0  0  0  0  0
  -21.9870   -4.8290   22.5770 C   0  0  0  0  0  0  0  0  0  0  0  0
  -22.4120   -4.2940   21.4070 F   0  0  0  0  0  0  0  0  0  0  0  0
  -21.3090   -3.7680   26.0230 F   0  0  0  0  0  0  0  0  0  0  0  0
  -22.7420  -13.5780   21.1790 C   0  0  0  0  0  0  0  0  0  0  0  0
  -22.0140  -12.8760   22.0390 N   0  0  0  0  0  0  0  0  0  0  0  0
  -22.3010  -14.6010   20.6550 O   0  0  0  0  0  0  0  0  0  0  0  0
  -22.3860  -12.0490   22.4850 H   0  0  0  0  0  0  0  0  0  0  0  0
  -21.0720  -13.1680   22.2550 H   0  0  0  0  0  0  0  0  0  0  0  0
  -25.3550  -15.2710   20.3780 N   0  0  0  0  0  0  0  0  0  0  0  0
  -24.5820  -15.9160   20.4960 H   0  0  0  0  0  0  0  0  0  0  0  0
  -26.1850  -15.7180   20.0090 H   0  0  0  0  0  0  0  0  0  0  0  0
  -28.7290  -21.6570   20.3830 N   0  0  0  0  0  0  0  0  0  0  0  0
  -27.8170  -21.4240   20.7630 H   0  0  0  0  0  0  0  0  0  0  0  0
  -29.0340  -23.2260   20.5230 C   0  0  0  0  0  3  0  0  0  0  0  0
  -27.9690  -24.5530   20.2360 C   0  0  0  0  0  3  0  0  0  0  0  0
  -28.2260  -26.1160   20.3910 O   0  0  0  0  0  0  0  0  0  0  0  0
  -24.6350  -31.9510   23.2700 C   0  0  0  0  0  0  0  0  0  0  0  0
  -27.1910  -27.1410   20.3050 C   0  0  0  0  0  0  0  0  0  0  0  0
  -23.4380  -30.5500   21.6340 C   0  0  0  0  0  3  0  0  0  0  0  0
  -24.8840  -28.9450   20.2320 C   0  0  0  0  0  0  0  0  0  0  0  0
  -25.9980  -30.7800   21.4890 C   0  0  0  0  0  2  0  0  0  0  0  0
  -26.0660  -29.3760   20.8470 C   0  0  0  0  0  0  0  0  0  0  0  0
  -27.2180  -28.4930   20.8620 C   0  0  0  0  0  3  0  0  0  0  0  0
  -25.9820  -26.8250   19.6480 C   0  0  0  0  0  3  0  0  0  0  0  0
  -24.8600  -27.6850   19.6140 C   0  0  0  0  0  3  0  0  0  0  0  0
  -23.6660  -29.8580   20.2630 C   0  0  0  0  0  2  0  0  0  0  0  0
  -24.7100  -31.1170   22.1850 N   0  0  0  0  0  0  0  0  0  0  0  0
  -23.5460  -32.2480   23.7850 O   0  0  0  0  0  0  0  0  0  0  0  0
  -22.7410  -29.5580   22.6020 C   0  0  0  0  0  0  0  0  0  0  0  0
  -21.4120  -29.3960   22.4670 N   0  0  0  0  0  0  0  0  0  0  0  0
  -23.4010  -28.9370   23.4380 O   0  0  0  0  0  0  0  0  0  0  0  0
  -20.9350  -29.9470   21.7670 H   0  0  0  0  0  0  0  0  0  0  0  0
  -18.0190  -28.2250   22.9690 C   0  0  0  0  0  0  0  0  0  0  0  0
  -20.5790  -28.4720   23.2430 C   0  0  0  0  0  3  0  0  0  0  0  0
  -20.6710  -27.0340   22.6800 C   0  0  0  0  0  2  0  0  0  0  0  0
  -19.5720  -26.7120   21.6630 C   0  0  0  0  0  2  0  0  0  0  0  0
  -18.1880  -26.8710   22.3000 C   0  0  0  0  0  2  0  0  0  0  0  0
  -19.1410  -28.9840   23.3970 C   0  0  0  0  0  0  0  0  0  0  0  0
  -18.9270  -30.2490   23.9840 C   0  0  0  0  0  3  0  0  0  0  0  0
  -17.6240  -30.7570   24.1460 C   0  0  0  0  0  3  0  0  0  0  0  0
  -16.5160  -29.9970   23.7320 C   0  0  0  0  0  3  0  0  0  0  0  0
  -16.7140  -28.7320   23.1500 C   0  0  0  0  0  3  0  0  0  0  0  0
  -25.9110  -32.5860   23.9010 C   0  0  0  0  0  3  0  0  0  0  0  0
  -25.6030  -33.9890   24.2250 N   0  0  0  0  0  0  0  0  0  0  0  0
  -25.9250  -35.0400   23.4590 C   0  0  0  0  0  0  0  0  0  0  0  0
  -26.5780  -34.9300   22.4180 O   0  0  0  0  0  0  0  0  0  0  0  0
  -25.0230  -34.1480   25.0370 H   0  0  0  0  0  0  0  0  0  0  0  0
  -24.1920  -36.8350   23.1330 C   0  0  0  0  0  1  0  0  0  0  0  0
  -25.4500  -36.4340   23.9190 C   0  0  0  0  0  3  0  0  0  0  0  0
  -27.6010  -37.3280   24.6980 C   0  0  0  0  0  1  0  0  0  0  0  0
  -26.4820  -37.4850   23.7730 N   0  0  0  0  0  0  0  0  0  0  0  0
  -26.0790  -38.4070   23.9150 H   0  0  0  0  0  0  0  0  0  0  0  0
  -26.4090  -31.8230   25.1920 C   0  0  1  0  0  0  0  0  0  0  0  0
  -25.3030  -31.6010   26.2500 C   0  0  0  0  0  1  0  0  0  0  0  0
  -26.9890  -30.4390   24.8250 C   0  0  0  0  0  1  0  0  0  0  0  0
  -27.5560  -32.6170   25.8590 C   0  0  0  0  0  1  0  0  0  0  0  0
  1 16  1  0
  2  7  1  0
  3  4  1  0
  3  2  1  0
  5  4  1  0
  5 21  1  0
  5  6  1  0
  7  1  1  0
  7  6  1  0
  8  1  2  0
  9 11  2  0
  9 10  1  0
 10 12  2  0
 11 13  1  0
 12 15  1  0
 12 16  1  0
 13 46  1  0
 13 15  2  0
 14 11  1  0
 16 17  1  0
 18 19  2  0
 19 38  1  0
 20 19  1  0
 20 23  1  0
 21 18  1  0
 21 22  1  0
 22 20  2  0
 23 24  1  0
 24 25  2  0
 26 29  1  0
 26 25  1  0
 27 26  2  0
 28 27  1  0
 28 23  2  0
 29 30  1  0
 30 31  1  0
 31 32  2  0
 33 32  1  0
 33 37  1  0
 34 33  2  0
 35 30  2  0
 35 34  1  0
 36 35  1  0
 38 39  1  0
 39 42  1  0
 39 41  1  0
 40 38  2  0
 43 44  1  0
 43 18  1  0
 45 43  1  0
 46 48  1  0
 46 47  1  0
 49 50  1  0
 49 48  2  0
 51 62  2  0
 52 50  1  0
 52 57  1  0
 53 61  1  0
 53 63  1  0
 54 60  1  0
 54 56  1  0
 55 61  1  0
 56 57  2  0
 56 55  1  0
 58 52  2  0
 59 58  1  0
 59 54  2  0
 60 53  1  0
 61 51  1  0
 63 65  2  0
 64 63  1  0
 66 64  1  0
 67 76  2  0
 67 72  1  0
 68 64  1  0
 68 72  1  0
 69 68  1  0
 70 71  1  0
 70 69  1  0
 71 67  1  0
 72 73  2  0
 73 74  1  0
 75 74  2  0
 76 75  1  0
 77 51  1  0
 77 78  1  0
 77 87  1  0
 78 81  1  0
 79 83  1  0
 79 78  1  0
 80 79  2  0
 83 82  1  0
 85 86  1  0
 85 83  1  0
 85 84  1  0
 87 90  1  1
 87 88  1  0
 89 87  1  0
M  ISO  4   1 100  16 100  49 101  50 101
M  END
>  <TORSDO>  (41) 
F 18

>  <SCORE>  (41) 
-15.443

>  <name>  (41) 
40

>  <ligand_id>  (41) 
40

>  <original_smiles>  (41) 
[H]c1c(N([H])C(=O)N2C([H])([H])C([H])([H])C([H])([H])C([H])(n3nc(-c4c([H])c([H])c(Oc5c([H])c([H])c(F)c([H])c5F)c([H])c4[H])c(C(=O)N([H])[H])c3N([H])[H])C2([H])[H])nc(N([H])C([H])([H])C([H])([H])Oc2c([H])c([H])c3c(c2[H])C([H])([H])N(C(=O)C([H])(N([H])C(=O)C([H])(N([H])C([H])([H])[H])C([H])([H])[H])C(C([H])([H])[H])(C([H])([H])[H])C([H])([H])[H])C([H])(C(=O)N([H])C2([H])c4c([H])c([H])c([H])c([H])c4C([H])([H])C([H])([H])C2([H])[H])C3([H])[H])c(C([H])([H])[H])c1[H]

>  <smiles>  (41) 
[H]c1c(N([H])C(=O)N2C([H])([H])C([H])([H])C([H])([H])C([H])(n3nc(-c4c([H])c([H])c(Oc5c([H])c([H])c(F)c([H])c5F)c([H])c4[H])c(C(=O)N([H])[H])c3N([H])[H])C2([H])[H])nc(N([H])C([H])([H])C([H])([H])Oc2c([H])c([H])c3c(c2[H])C([H])([H])N(C(=O)C([H])(N([H])C(=O)C([H])(N([H])C([H])([H])[H])C([H])([H])[H])C(C([H])([H])[H])(C([H])([H])[H])C([H])([H])[H])C([H])(C(=O)N([H])C2([H])c4c([H])c([H])c([H])c([H])c4C([H])([H])C([H])([H])C2([H])[H])C3([H])[H])c(C([H])([H])[H])c1[H]

$$$$
41:0:0
     RDKit          3D

 88 96  0  0  1  0  0  0  0  0999 V2000
  -28.2040  -18.0940   19.9200 C   0  0  0  0  0  3  0  0  0  0  0  0
  -27.9020  -19.4930   19.8140 C   0  0  0  0  0  3  0  0  0  0  0  0
  -30.3250  -18.6870   20.7310 C   0  0  0  0  0  3  0  0  0  0  0  0
  -29.4490  -17.5830   20.3950 C   0  0  0  0  0  0  0  0  0  0  0  0
  -28.8050  -20.5220   20.1900 C   0  0  0  0  0  0  0  0  0  0  0  0
  -30.0290  -20.0680   20.6420 N   0  0  0  0  0  0  0  0  0  0  0  0
  -30.4610  -14.9830   20.4170 C   0  0  0  0  0  0  0  0  0  0  0  0
  -30.4110  -12.6290   19.4780 C   0  0  0  0  0  2  0  0  0  0  0  0
  -29.4750  -12.5950   18.2440 C   0  0  0  0  0  2  0  0  0  0  0  0
  -28.0070  -12.3800   18.6680 C   0  0  0  0  0  2  0  0  0  0  0  0
  -27.5950  -13.2950   19.8490 C   0  0  0  0  0  3  0  0  0  0  0  0
  -28.6460  -13.2780   20.9800 C   0  0  0  0  0  2  0  0  0  0  0  0
  -29.9240  -13.6990   20.3890 N   0  0  0  0  0  0  0  0  0  0  0  0
  -31.6520  -15.1250   20.1210 O   0  0  0  0  0  0  0  0  0  0  0  0
  -29.5650  -16.0630   20.6030 N   0  0  0  0  0  0  0  0  0  0  0  0
  -28.6610  -15.6560   20.7900 H   0  0  0  0  0  0  0  0  0  0  0  0
  -25.2070  -13.8800   20.5700 C   0  0  0  0  0  0  0  0  0  0  0  0
  -24.1400  -13.1050   20.9360 C   0  0  0  0  0  0  0  0  0  0  0  0
  -24.6030  -11.7540   20.9030 C   0  0  0  0  0  0  0  0  0  0  0  0
  -26.2520  -13.0000   20.3350 N   0  0  0  0  0  0  0  0  0  0  0  0
  -25.8960  -11.7170   20.5990 N   0  0  0  0  0  0  0  0  0  0  0  0
  -23.8740  -10.4930   21.0830 C   0  0  0  0  0  0  0  0  0  0  0  0
  -24.3010   -9.5180   22.0110 C   0  0  0  0  0  3  0  0  0  0  0  0
  -23.5710   -8.3220   22.1800 C   0  0  0  0  0  3  0  0  0  0  0  0
  -22.3990   -8.0920   21.4200 C   0  0  0  0  0  0  0  0  0  0  0  0
  -21.9920   -9.0550   20.4790 C   0  0  0  0  0  3  0  0  0  0  0  0
  -22.7230  -10.2420   20.3090 C   0  0  0  0  0  3  0  0  0  0  0  0
  -21.6420   -6.9480   21.4980 O   0  0  0  0  0  0  0  0  0  0  0  0
  -21.5840   -6.2010   22.6470 C   0  0  0  0  0  0  0  0  0  0  0  0
  -21.1400   -6.7480   23.8710 C   0  0  0  0  0  3  0  0  0  0  0  0
  -21.0300   -5.9260   25.0100 C   0  0  0  0  0  3  0  0  0  0  0  0
  -21.3540   -4.5580   24.9270 C   0  0  0  0  0  0  0  0  0  0  0  0
  -21.7920   -4.0110   23.7080 C   0  0  0  0  0  3  0  0  0  0  0  0
  -21.9030   -4.8300   22.5710 C   0  0  0  0  0  0  0  0  0  0  0  0
  -22.3050   -4.2940   21.3940 F   0  0  0  0  0  0  0  0  0  0  0  0
  -21.2410   -3.7670   26.0190 F   0  0  0  0  0  0  0  0  0  0  0  0
  -22.7420  -13.5840   21.1980 C   0  0  0  0  0  0  0  0  0  0  0  0
  -22.0070  -12.8870   22.0560 N   0  0  0  0  0  0  0  0  0  0  0  0
  -22.3110  -14.6110   20.6740 O   0  0  0  0  0  0  0  0  0  0  0  0
  -22.3690  -12.0580   22.5010 H   0  0  0  0  0  0  0  0  0  0  0  0
  -21.0680  -13.1910   22.2750 H   0  0  0  0  0  0  0  0  0  0  0  0
  -25.3670  -15.2490   20.3910 N   0  0  0  0  0  0  0  0  0  0  0  0
  -24.5750  -15.8810   20.4480 H   0  0  0  0  0  0  0  0  0  0  0  0
  -26.1720  -15.6660   19.9440 H   0  0  0  0  0  0  0  0  0  0  0  0
  -28.3640  -21.9140   20.0320 O   0  0  0  0  0  0  0  0  0  0  0  0
  -28.8940  -23.2990   20.4330 C   0  0  0  0  0  3  0  0  0  0  0  0
  -27.9780  -24.6810   20.0760 C   0  0  0  0  0  3  0  0  0  0  0  0
  -28.2470  -26.1960   20.3390 O   0  0  0  0  0  0  0  0  0  0  0  0
  -24.6160  -31.9070   23.2740 C   0  0  0  0  0  0  0  0  0  0  0  0
  -27.1940  -27.1810   20.2570 C   0  0  0  0  0  0  0  0  0  0  0  0
  -23.4180  -30.5110   21.6330 C   0  0  0  0  0  3  0  0  0  0  0  0
  -24.8670  -28.9320   20.2150 C   0  0  0  0  0  0  0  0  0  0  0  0
  -25.9730  -30.7690   21.4780 C   0  0  0  0  0  2  0  0  0  0  0  0
  -26.0460  -29.3760   20.8280 C   0  0  0  0  0  0  0  0  0  0  0  0
  -27.2090  -28.5170   20.8300 C   0  0  0  0  0  3  0  0  0  0  0  0
  -25.9880  -26.8400   19.6050 C   0  0  0  0  0  3  0  0  0  0  0  0
  -24.8510  -27.6770   19.5890 C   0  0  0  0  0  3  0  0  0  0  0  0
  -23.6420  -29.8320   20.2560 C   0  0  0  0  0  2  0  0  0  0  0  0
  -24.6890  -31.0840   22.1830 N   0  0  0  0  0  0  0  0  0  0  0  0
  -23.5300  -32.1990   23.7970 O   0  0  0  0  0  0  0  0  0  0  0  0
  -22.7320  -29.5090   22.5950 C   0  0  0  0  0  0  0  0  0  0  0  0
  -21.4040  -29.3400   22.4610 N   0  0  0  0  0  0  0  0  0  0  0  0
  -23.3980  -28.8830   23.4250 O   0  0  0  0  0  0  0  0  0  0  0  0
  -20.9240  -29.8960   21.7690 H   0  0  0  0  0  0  0  0  0  0  0  0
  -18.0170  -28.1550   22.9530 C   0  0  0  0  0  0  0  0  0  0  0  0
  -20.5760  -28.4090   23.2320 C   0  0  0  0  0  3  0  0  0  0  0  0
  -20.6740  -26.9740   22.6650 C   0  0  0  0  0  2  0  0  0  0  0  0
  -19.5750  -26.6510   21.6460 C   0  0  0  0  0  2  0  0  0  0  0  0
  -18.1920  -26.8020   22.2840 C   0  0  0  0  0  2  0  0  0  0  0  0
  -19.1360  -28.9160   23.3850 C   0  0  0  0  0  0  0  0  0  0  0  0
  -18.9170  -30.1810   23.9750 C   0  0  0  0  0  3  0  0  0  0  0  0
  -17.6130  -30.6830   24.1360 C   0  0  0  0  0  3  0  0  0  0  0  0
  -16.5080  -29.9200   23.7180 C   0  0  0  0  0  3  0  0  0  0  0  0
  -16.7110  -28.6570   23.1330 C   0  0  0  0  0  3  0  0  0  0  0  0
  -25.8950  -32.5400   23.9030 C   0  0  0  0  0  3  0  0  0  0  0  0
  -26.3930  -31.7780   25.1930 C   0  0  1  0  0  0  0  0  0  0  0  0
  -25.2870  -31.5570   26.2530 C   0  0  0  0  0  1  0  0  0  0  0  0
  -26.9710  -30.3920   24.8260 C   0  0  0  0  0  1  0  0  0  0  0  0
  -27.5420  -32.5700   25.8590 C   0  0  0  0  0  1  0  0  0  0  0  0
  -25.5890  -33.9430   24.2250 N   0  0  0  0  0  0  0  0  0  0  0  0
  -25.9170  -34.9910   23.4590 C   0  0  0  0  0  0  0  0  0  0  0  0
  -26.5770  -34.8790   22.4220 O   0  0  0  0  0  0  0  0  0  0  0  0
  -24.9980  -34.1030   25.0280 H   0  0  0  0  0  0  0  0  0  0  0  0
  -24.1870  -36.7880   23.1200 C   0  0  0  0  0  1  0  0  0  0  0  0
  -25.4410  -36.3860   23.9120 C   0  0  0  0  0  3  0  0  0  0  0  0
  -27.5900  -37.2780   24.7010 C   0  0  0  0  0  1  0  0  0  0  0  0
  -26.4740  -37.4360   23.7740 N   0  0  0  0  0  0  0  0  0  0  0  0
  -26.0700  -38.3580   23.9190 H   0  0  0  0  0  0  0  0  0  0  0  0
  1  4  1  0
  2  1  2  0
  2  5  1  0
  4 15  1  0
  4  3  2  0
  5  6  2  0
  6  3  1  0
  7 15  1  0
  8 13  1  0
  9 10  1  0
  9  8  1  0
 11 10  1  0
 11 20  1  0
 11 12  1  0
 13  7  1  0
 13 12  1  0
 14  7  2  0
 15 16  1  0
 17 18  2  0
 18 37  1  0
 19 18  1  0
 19 22  1  0
 20 17  1  0
 20 21  1  0
 21 19  2  0
 22 23  1  0
 23 24  2  0
 25 28  1  0
 25 24  1  0
 26 25  2  0
 27 26  1  0
 27 22  2  0
 28 29  1  0
 29 30  1  0
 30 31  2  0
 32 31  1  0
 32 36  1  0
 33 32  2  0
 34 29  2  0
 34 33  1  0
 35 34  1  0
 37 38  1  0
 38 41  1  0
 38 40  1  0
 39 37  2  0
 42 43  1  0
 42 17  1  0
 44 42  1  0
 45  5  1  0
 45 46  1  0
 47 48  1  0
 47 46  2  0
 49 60  2  0
 50 48  1  0
 50 55  1  0
 51 59  1  0
 51 61  1  0
 52 58  1  0
 52 54  1  0
 53 59  1  0
 54 55  2  0
 54 53  1  0
 56 50  2  0
 57 56  1  0
 57 52  2  0
 58 51  1  0
 59 49  1  0
 61 63  2  0
 62 61  1  0
 64 62  1  0
 65 74  2  0
 65 70  1  0
 66 62  1  0
 66 70  1  0
 67 66  1  0
 68 69  1  0
 68 67  1  0
 69 65  1  0
 70 71  2  0
 71 72  1  0
 73 72  2  0
 74 73  1  0
 75 49  1  0
 75 80  1  0
 75 76  1  0
 76 79  1  1
 76 77  1  0
 78 76  1  0
 80 83  1  0
 81 85  1  0
 81 80  1  0
 82 81  2  0
 85 84  1  0
 87 85  1  0
 87 88  1  0
 87 86  1  0
M  ISO  4   7 100  15 100  47 101  48 101
M  END
>  <TORSDO>  (42) 
F 19

>  <SCORE>  (42) 
-15.121

>  <name>  (42) 
41

>  <ligand_id>  (42) 
41

>  <original_smiles>  (42) 
[H]c1nc(OC([H])([H])C([H])([H])Oc2c([H])c([H])c3c(c2[H])C([H])([H])N(C(=O)C([H])(N([H])C(=O)C([H])(N([H])C([H])([H])[H])C([H])([H])[H])C(C([H])([H])[H])(C([H])([H])[H])C([H])([H])[H])C([H])(C(=O)N([H])C2([H])c4c([H])c([H])c([H])c([H])c4C([H])([H])C([H])([H])C2([H])[H])C3([H])[H])c([H])c([H])c1N([H])C(=O)N1C([H])([H])C([H])([H])C([H])([H])C([H])(n2nc(-c3c([H])c([H])c(Oc4c([H])c([H])c(F)c([H])c4F)c([H])c3[H])c(C(=O)N([H])[H])c2N([H])[H])C1([H])[H]

>  <smiles>  (42) 
[H]c1nc(OC([H])([H])C([H])([H])Oc2c([H])c([H])c3c(c2[H])C([H])([H])N(C(=O)C([H])(N([H])C(=O)C([H])(N([H])C([H])([H])[H])C([H])([H])[H])C(C([H])([H])[H])(C([H])([H])[H])C([H])([H])[H])C([H])(C(=O)N([H])C2([H])c4c([H])c([H])c([H])c([H])c4C([H])([H])C([H])([H])C2([H])[H])C3([H])[H])c([H])c([H])c1N([H])C(=O)N1C([H])([H])C([H])([H])C([H])([H])C([H])(n2nc(-c3c([H])c([H])c(Oc4c([H])c([H])c(F)c([H])c4F)c([H])c3[H])c(C(=O)N([H])[H])c2N([H])[H])C1([H])[H]

$$$$
42:0:0
     RDKit          3D

 95104  0  0  1  0  0  0  0  0999 V2000
  -30.9460  -22.1720   22.2560 C   0  0  0  0  0  3  0  0  0  0  0  0
  -30.6540  -20.8600   21.8230 C   0  0  0  0  0  3  0  0  0  0  0  0
  -28.7280  -21.7020   20.6030 C   0  0  0  0  0  3  0  0  0  0  0  0
  -28.9980  -23.0250   21.0490 C   0  0  0  0  0  0  0  0  0  0  0  0
  -30.0890  -23.2420   21.9260 C   0  0  0  0  0  0  0  0  0  0  0  0
  -29.5260  -20.5960   21.0160 C   0  0  0  0  0  0  0  0  0  0  0  0
  -27.7630  -24.7470   22.2150 C   0  0  0  0  0  2  0  0  0  0  0  0
  -29.0510  -25.2480   22.9160 C   0  0  0  0  0  2  0  0  0  0  0  0
  -28.0490  -24.2190   20.7990 C   0  0  0  0  0  3  0  0  0  0  0  0
  -30.2600  -24.4980   22.5300 N   0  0  0  0  0  0  0  0  0  0  0  0
  -31.1080  -24.6710   23.0670 H   0  0  0  0  0  0  0  0  0  0  0  0
  -29.1820  -19.2890   20.5880 N   0  0  0  0  0  0  0  0  0  0  0  0
  -28.3480  -19.2190   20.0100 H   0  0  0  0  0  0  0  0  0  0  0  0
  -29.5280  -18.0380   21.2970 C   0  0  0  0  0  2  0  0  0  0  0  0
  -30.3340  -17.0210   20.4190 C   0  0  0  0  0  2  0  0  0  0  0  0
  -30.7060  -14.5320   20.1970 C   0  0  0  0  0  0  0  0  0  0  0  0
  -30.3750  -12.3460   19.0900 C   0  0  0  0  0  2  0  0  0  0  0  0
  -29.4200  -12.5630   17.9000 C   0  0  0  0  0  2  0  0  0  0  0  0
  -27.9530  -12.4370   18.3480 C   0  0  0  0  0  2  0  0  0  0  0  0
  -27.6440  -13.2630   19.6260 C   0  0  0  0  0  3  0  0  0  0  0  0
  -28.7190  -13.0570   20.7160 C   0  0  0  0  0  2  0  0  0  0  0  0
  -30.0330  -13.3470   20.1170 N   0  0  0  0  0  0  0  0  0  0  0  0
  -31.8290  -14.6900   19.7100 O   0  0  0  0  0  0  0  0  0  0  0  0
  -30.0020  -15.5940   20.6610 N   0  0  0  0  0  0  0  0  0  0  0  0
  -29.0810  -15.3970   21.0180 H   0  0  0  0  0  0  0  0  0  0  0  0
  -25.2690  -13.8740   20.3950 C   0  0  0  0  0  0  0  0  0  0  0  0
  -24.2080  -13.1050   20.7970 C   0  0  0  0  0  0  0  0  0  0  0  0
  -24.6660  -11.7530   20.7570 C   0  0  0  0  0  0  0  0  0  0  0  0
  -26.3040  -12.9880   20.1390 N   0  0  0  0  0  0  0  0  0  0  0  0
  -25.9460  -11.7060   20.4120 N   0  0  0  0  0  0  0  0  0  0  0  0
  -23.9430  -10.4920   20.9720 C   0  0  0  0  0  0  0  0  0  0  0  0
  -24.3930   -9.5350   21.9070 C   0  0  0  0  0  3  0  0  0  0  0  0
  -23.6710   -8.3380   22.1070 C   0  0  0  0  0  3  0  0  0  0  0  0
  -22.4870   -8.0910   21.3740 C   0  0  0  0  0  0  0  0  0  0  0  0
  -22.0610   -9.0350   20.4260 C   0  0  0  0  0  3  0  0  0  0  0  0
  -22.7830  -10.2230   20.2220 C   0  0  0  0  0  3  0  0  0  0  0  0
  -21.7360   -6.9450   21.4840 O   0  0  0  0  0  0  0  0  0  0  0  0
  -21.6930   -6.2210   22.6470 C   0  0  0  0  0  0  0  0  0  0  0  0
  -21.2720   -6.7930   23.8700 C   0  0  0  0  0  3  0  0  0  0  0  0
  -21.1800   -5.9930   25.0270 C   0  0  0  0  0  3  0  0  0  0  0  0
  -21.4970   -4.6230   24.9630 C   0  0  0  0  0  0  0  0  0  0  0  0
  -21.9110   -4.0520   23.7470 C   0  0  0  0  0  3  0  0  0  0  0  0
  -22.0050   -4.8480   22.5940 C   0  0  0  0  0  0  0  0  0  0  0  0
  -22.3850   -4.2880   21.4200 F   0  0  0  0  0  0  0  0  0  0  0  0
  -21.3980   -3.8510   26.0710 F   0  0  0  0  0  0  0  0  0  0  0  0
  -22.8210  -13.5850   21.1090 C   0  0  0  0  0  0  0  0  0  0  0  0
  -22.1170  -12.8860   21.9940 N   0  0  0  0  0  0  0  0  0  0  0  0
  -22.3710  -14.6120   20.6020 O   0  0  0  0  0  0  0  0  0  0  0  0
  -22.4960  -12.0530   22.4230 H   0  0  0  0  0  0  0  0  0  0  0  0
  -21.1830  -13.1820   22.2430 H   0  0  0  0  0  0  0  0  0  0  0  0
  -25.4360  -15.2420   20.2090 N   0  0  0  0  0  0  0  0  0  0  0  0
  -24.6800  -15.9090   20.3290 H   0  0  0  0  0  0  0  0  0  0  0  0
  -26.2880  -15.6720   19.8660 H   0  0  0  0  0  0  0  0  0  0  0  0
  -28.6010  -25.3180   19.8080 C   0  0  0  0  0  2  0  0  0  0  0  0
  -28.4550  -26.7180   20.1550 O   0  0  0  0  0  0  0  0  0  0  0  0
  -24.6000  -31.8420   23.1810 C   0  0  0  0  0  0  0  0  0  0  0  0
  -27.2540  -27.4060   20.0980 C   0  0  0  0  0  0  0  0  0  0  0  0
  -23.3930  -30.4510   21.5210 C   0  0  0  0  0  3  0  0  0  0  0  0
  -24.8550  -28.9240   20.0830 C   0  0  0  0  0  0  0  0  0  0  0  0
  -25.9120  -30.8270   21.3160 C   0  0  0  0  0  2  0  0  0  0  0  0
  -26.0050  -29.4500   20.6790 C   0  0  0  0  0  0  0  0  0  0  0  0
  -27.2040  -28.6990   20.6800 C   0  0  0  0  0  3  0  0  0  0  0  0
  -26.0870  -26.8960   19.4920 C   0  0  0  0  0  3  0  0  0  0  0  0
  -24.8930  -27.6510   19.4820 C   0  0  0  0  0  3  0  0  0  0  0  0
  -23.6040  -29.7800   20.1340 C   0  0  0  0  0  2  0  0  0  0  0  0
  -24.6540  -31.0550   22.0670 N   0  0  0  0  0  0  0  0  0  0  0  0
  -23.5190  -32.1030   23.7280 O   0  0  0  0  0  0  0  0  0  0  0  0
  -22.7440  -29.4260   22.4770 C   0  0  0  0  0  0  0  0  0  0  0  0
  -21.4150  -29.2570   22.3670 N   0  0  0  0  0  0  0  0  0  0  0  0
  -23.4330  -28.7830   23.2740 O   0  0  0  0  0  0  0  0  0  0  0  0
  -20.9200  -29.8180   21.6890 H   0  0  0  0  0  0  0  0  0  0  0  0
  -18.0370  -28.1060   22.9050 C   0  0  0  0  0  0  0  0  0  0  0  0
  -20.6030  -28.3180   23.1360 C   0  0  0  0  0  3  0  0  0  0  0  0
  -20.6760  -26.9000   22.5240 C   0  0  0  0  0  2  0  0  0  0  0  0
  -19.5510  -26.6170   21.5240 C   0  0  0  0  0  2  0  0  0  0  0  0
  -18.1820  -26.7700   22.1930 C   0  0  0  0  0  2  0  0  0  0  0  0
  -19.1750  -28.8390   23.3350 C   0  0  0  0  0  0  0  0  0  0  0  0
  -18.9860  -30.0910   23.9590 C   0  0  0  0  0  3  0  0  0  0  0  0
  -17.6930  -30.6080   24.1610 C   0  0  0  0  0  3  0  0  0  0  0  0
  -16.5700  -29.8690   23.7490 C   0  0  0  0  0  3  0  0  0  0  0  0
  -16.7420  -28.6200   23.1250 C   0  0  0  0  0  3  0  0  0  0  0  0
  -25.8850  -32.4700   23.8090 C   0  0  0  0  0  3  0  0  0  0  0  0
  -26.4050  -31.6880   25.0760 C   0  0  1  0  0  0  0  0  0  0  0  0
  -25.3120  -31.4400   26.1400 C   0  0  0  0  0  1  0  0  0  0  0  0
  -26.9850  -30.3140   24.6630 C   0  0  0  0  0  1  0  0  0  0  0  0
  -27.5560  -32.4770   25.7460 C   0  0  0  0  0  1  0  0  0  0  0  0
  -25.5760  -33.8640   24.1510 N   0  0  0  0  0  0  0  0  0  0  0  0
  -25.9130  -34.9230   23.4050 C   0  0  0  0  0  0  0  0  0  0  0  0
  -26.5870  -34.8290   22.3750 O   0  0  0  0  0  0  0  0  0  0  0  0
  -24.9730  -34.0120   24.9470 H   0  0  0  0  0  0  0  0  0  0  0  0
  -24.1890  -36.7220   23.0580 C   0  0  0  0  0  1  0  0  0  0  0  0
  -25.4220  -36.3050   23.8750 C   0  0  0  0  0  3  0  0  0  0  0  0
  -27.5490  -37.1800   24.7360 C   0  0  0  0  0  1  0  0  0  0  0  0
  -26.4570  -37.3570   23.7830 N   0  0  0  0  0  0  0  0  0  0  0  0
  -26.0490  -38.2750   23.9390 H   0  0  0  0  0  0  0  0  0  0  0  0
  2  1  2  0
  3  6  2  0
  3  4  1  0
  4  5  2  0
  5  1  1  0
  5 10  1  0
  6  2  1  0
  7  8  1  0
  9 54  1  0
  9  4  1  0
  9  7  1  0
 10  8  1  0
 10 11  1  0
 12  6  1  0
 12 14  1  0
 13 12  1  0
 15 24  1  0
 15 14  1  0
 16 24  1  0
 17 22  1  0
 18 19  1  0
 18 17  1  0
 20 19  1  0
 20 29  1  0
 20 21  1  0
 22 16  1  0
 22 21  1  0
 23 16  2  0
 24 25  1  0
 26 27  2  0
 27 46  1  0
 28 27  1  0
 28 31  1  0
 29 26  1  0
 29 30  1  0
 30 28  2  0
 31 32  1  0
 32 33  2  0
 34 37  1  0
 34 33  1  0
 35 34  2  0
 36 35  1  0
 36 31  2  0
 37 38  1  0
 38 39  1  0
 39 40  2  0
 41 40  1  0
 41 45  1  0
 42 41  2  0
 43 38  2  0
 43 42  1  0
 44 43  1  0
 46 47  1  0
 47 50  1  0
 47 49  1  0
 48 46  2  0
 51 52  1  0
 51 26  1  0
 53 51  1  0
 54 55  1  0
 56 67  2  0
 57 55  1  0
 57 62  1  0
 58 66  1  0
 58 68  1  0
 59 65  1  0
 59 61  1  0
 60 66  1  0
 61 62  2  0
 61 60  1  0
 63 57  2  0
 64 63  1  0
 64 59  2  0
 65 58  1  0
 66 56  1  0
 68 70  2  0
 69 68  1  0
 71 69  1  0
 72 81  2  0
 72 77  1  0
 73 69  1  0
 73 77  1  0
 74 73  1  0
 75 76  1  0
 75 74  1  0
 76 72  1  0
 77 78  2  0
 78 79  1  0
 80 79  2  0
 81 80  1  0
 82 56  1  0
 82 87  1  0
 82 83  1  0
 83 86  1  1
 83 84  1  0
 85 83  1  0
 87 90  1  0
 88 92  1  0
 88 87  1  0
 89 88  2  0
 92 91  1  0
 94 92  1  0
 94 95  1  0
 94 93  1  0
M  ISO  4  16 100  24 100  54 101  55 101
M  END
>  <TORSDO>  (43) 
F 20

>  <SCORE>  (43) 
-14.108

>  <name>  (43) 
42

>  <ligand_id>  (43) 
42

>  <original_smiles>  (43) 
[H]c1c([H])c([H])c2c(c1[H])C([H])([H])C([H])([H])C([H])([H])C2([H])N([H])C(=O)C1([H])N(C(=O)C([H])(N([H])C(=O)C([H])(N([H])C([H])([H])[H])C([H])([H])[H])C(C([H])([H])[H])(C([H])([H])[H])C([H])([H])[H])C([H])([H])c2c([H])c(OC([H])([H])C3([H])c4c([H])c(N([H])C([H])([H])C([H])([H])N([H])C(=O)N5C([H])([H])C([H])([H])C([H])([H])C([H])(n6nc(-c7c([H])c([H])c(Oc8c([H])c([H])c(F)c([H])c8F)c([H])c7[H])c(C(=O)N([H])[H])c6N([H])[H])C5([H])[H])c([H])c([H])c4N([H])C([H])([H])C3([H])[H])c([H])c([H])c2C1([H])[H]

>  <smiles>  (43) 
[H]c1c([H])c([H])c2c(c1[H])C([H])([H])C([H])([H])C([H])([H])C2([H])N([H])C(=O)C1([H])N(C(=O)C([H])(N([H])C(=O)C([H])(N([H])C([H])([H])[H])C([H])([H])[H])C(C([H])([H])[H])(C([H])([H])[H])C([H])([H])[H])C([H])([H])c2c([H])c(OC([H])([H])C3([H])c4c([H])c(N([H])C([H])([H])C([H])([H])N([H])C(=O)N5C([H])([H])C([H])([H])C([H])([H])C([H])(n6nc(-c7c([H])c([H])c(Oc8c([H])c([H])c(F)c([H])c8F)c([H])c7[H])c(C(=O)N([H])[H])c6N([H])[H])C5([H])[H])c([H])c([H])c4N([H])C([H])([H])C3([H])[H])c([H])c([H])c2C1([H])[H]

$$$$
43:0:0
     RDKit          3D

 93101  0  0  1  0  0  0  0  0999 V2000
  -28.8850  -21.1660   20.1140 N   0  0  0  0  0  4  0  0  0  0  0  0
  -28.9730  -21.0810   19.1140 H   0  0  0  0  0  0  0  0  0  0  0  0
  -27.9180  -21.0010   20.3380 H   0  0  0  0  0  0  0  0  0  0  0  0
  -28.8820  -23.0440   21.9160 C   0  0  0  0  0  2  0  0  0  0  0  0
  -28.8330  -24.5970   21.9040 C   0  0  0  0  0  2  0  0  0  0  0  0
  -28.5860  -23.8170   19.6370 C   0  0  0  0  0  2  0  0  0  0  0  0
  -29.2330  -22.6190   20.4770 C   0  0  0  0  0  3  0  0  0  0  0  0
  -28.1290  -24.9990   20.5980 C   0  0  0  0  0  3  0  0  0  0  0  0
  -28.3350  -26.4430   20.2570 O   0  0  0  0  0  0  0  0  0  0  0  0
  -24.6110  -31.8970   23.2400 C   0  0  0  0  0  0  0  0  0  0  0  0
  -27.2240  -27.3070   20.2220 C   0  0  0  0  0  0  0  0  0  0  0  0
  -23.4110  -30.4920   21.6000 C   0  0  0  0  0  3  0  0  0  0  0  0
  -24.8650  -28.9320   20.1860 C   0  0  0  0  0  0  0  0  0  0  0  0
  -25.9520  -30.8050   21.4240 C   0  0  0  0  0  2  0  0  0  0  0  0
  -26.0330  -29.4210   20.7850 C   0  0  0  0  0  0  0  0  0  0  0  0
  -27.2170  -28.6210   20.7890 C   0  0  0  0  0  3  0  0  0  0  0  0
  -26.0370  -26.8760   19.5900 C   0  0  0  0  0  3  0  0  0  0  0  0
  -24.8700  -27.6650   19.5780 C   0  0  0  0  0  3  0  0  0  0  0  0
  -23.6300  -29.8090   20.2240 C   0  0  0  0  0  2  0  0  0  0  0  0
  -24.6770  -31.0820   22.1450 N   0  0  0  0  0  0  0  0  0  0  0  0
  -23.5260  -32.1780   23.7700 O   0  0  0  0  0  0  0  0  0  0  0  0
  -22.7430  -29.4810   22.5640 C   0  0  0  0  0  0  0  0  0  0  0  0
  -21.4160  -29.3140   22.4410 N   0  0  0  0  0  0  0  0  0  0  0  0
  -23.4190  -28.8520   23.3810 O   0  0  0  0  0  0  0  0  0  0  0  0
  -20.9290  -29.8740   21.7550 H   0  0  0  0  0  0  0  0  0  0  0  0
  -18.0300  -28.1480   22.9550 C   0  0  0  0  0  0  0  0  0  0  0  0
  -20.5910  -28.3830   23.2140 C   0  0  0  0  0  3  0  0  0  0  0  0
  -20.6780  -26.9520   22.6370 C   0  0  0  0  0  2  0  0  0  0  0  0
  -19.5680  -26.6400   21.6270 C   0  0  0  0  0  2  0  0  0  0  0  0
  -18.1910  -26.7980   22.2770 C   0  0  0  0  0  2  0  0  0  0  0  0
  -19.1570  -28.8990   23.3810 C   0  0  0  0  0  0  0  0  0  0  0  0
  -18.9510  -30.1630   23.9760 C   0  0  0  0  0  3  0  0  0  0  0  0
  -17.6520  -30.6750   24.1480 C   0  0  0  0  0  3  0  0  0  0  0  0
  -16.5390  -29.9210   23.7380 C   0  0  0  0  0  3  0  0  0  0  0  0
  -16.7280  -28.6590   23.1470 C   0  0  0  0  0  3  0  0  0  0  0  0
  -25.8930  -32.5310   23.8630 C   0  0  0  0  0  3  0  0  0  0  0  0
  -25.5820  -33.9300   24.1910 N   0  0  0  0  0  0  0  0  0  0  0  0
  -25.9140  -34.9820   23.4320 C   0  0  0  0  0  0  0  0  0  0  0  0
  -26.5820  -34.8780   22.4000 O   0  0  0  0  0  0  0  0  0  0  0  0
  -24.9890  -34.0850   24.9940 H   0  0  0  0  0  0  0  0  0  0  0  0
  -24.1840  -36.7740   23.0810 C   0  0  0  0  0  1  0  0  0  0  0  0
  -25.4270  -36.3710   23.8890 C   0  0  0  0  0  3  0  0  0  0  0  0
  -27.5650  -37.2570   24.7100 C   0  0  0  0  0  1  0  0  0  0  0  0
  -26.4600  -37.4250   23.7710 N   0  0  0  0  0  0  0  0  0  0  0  0
  -26.0540  -38.3450   23.9200 H   0  0  0  0  0  0  0  0  0  0  0  0
  -26.4060  -31.7620   25.1430 C   0  0  1  0  0  0  0  0  0  0  0  0
  -25.3100  -31.5280   26.2100 C   0  0  0  0  0  1  0  0  0  0  0  0
  -26.9880  -30.3830   24.7560 C   0  0  0  0  0  1  0  0  0  0  0  0
  -27.5550  -32.5570   25.8050 C   0  0  0  0  0  1  0  0  0  0  0  0
  -29.6980  -20.0110   20.7080 C   0  0  0  0  0  2  0  0  0  0  0  0
  -29.3400  -18.4960   20.2520 C   0  0  0  0  0  3  0  0  0  0  0  0
  -27.9960  -18.1640   20.6990 N   0  0  0  0  0  0  0  0  0  0  0  0
  -27.3120  -18.7080   20.1830 H   0  0  0  0  0  0  0  0  0  0  0  0
  -27.7920  -17.2140   20.4190 H   0  0  0  0  0  0  0  0  0  0  0  0
  -30.3040  -17.2960   20.7390 C   0  0  0  0  0  2  0  0  0  0  0  0
  -30.5910  -14.7190   20.3800 C   0  0  0  0  0  0  0  0  0  0  0  0
  -30.3680  -12.4590   19.3500 C   0  0  0  0  0  2  0  0  0  0  0  0
  -29.4250  -12.5530   18.1310 C   0  0  0  0  0  2  0  0  0  0  0  0
  -27.9550  -12.3890   18.5640 C   0  0  0  0  0  2  0  0  0  0  0  0
  -27.5910  -13.2710   19.7880 C   0  0  0  0  0  3  0  0  0  0  0  0
  -28.6520  -13.1640   20.9060 C   0  0  0  0  0  2  0  0  0  0  0  0
  -29.9500  -13.5060   20.3090 N   0  0  0  0  0  0  0  0  0  0  0  0
  -31.7730  -14.8190   20.0380 O   0  0  0  0  0  0  0  0  0  0  0  0
  -29.8400  -15.8460   20.6510 N   0  0  0  0  0  0  0  0  0  0  0  0
  -28.8790  -15.6740   20.9010 H   0  0  0  0  0  0  0  0  0  0  0  0
  -25.2030  -13.8700   20.5150 C   0  0  0  0  0  0  0  0  0  0  0  0
  -24.1390  -13.0990   20.8950 C   0  0  0  0  0  0  0  0  0  0  0  0
  -24.6000  -11.7470   20.8670 C   0  0  0  0  0  0  0  0  0  0  0  0
  -26.2460  -12.9880   20.2810 N   0  0  0  0  0  0  0  0  0  0  0  0
  -25.8900  -11.7080   20.5540 N   0  0  0  0  0  0  0  0  0  0  0  0
  -23.8730  -10.4870   21.0590 C   0  0  0  0  0  0  0  0  0  0  0  0
  -24.3150   -9.5110   21.9800 C   0  0  0  0  0  3  0  0  0  0  0  0
  -23.5850   -8.3150   22.1610 C   0  0  0  0  0  3  0  0  0  0  0  0
  -22.4000   -8.0870   21.4220 C   0  0  0  0  0  0  0  0  0  0  0  0
  -21.9780   -9.0510   20.4900 C   0  0  0  0  0  3  0  0  0  0  0  0
  -22.7070  -10.2380   20.3060 C   0  0  0  0  0  3  0  0  0  0  0  0
  -21.6430   -6.9440   21.5140 O   0  0  0  0  0  0  0  0  0  0  0  0
  -21.6170   -6.1870   22.6580 C   0  0  0  0  0  0  0  0  0  0  0  0
  -21.2310   -6.7310   23.9020 C   0  0  0  0  0  3  0  0  0  0  0  0
  -21.1530   -5.9010   25.0390 C   0  0  0  0  0  3  0  0  0  0  0  0
  -21.4490   -4.5300   24.9330 C   0  0  0  0  0  0  0  0  0  0  0  0
  -21.8280   -3.9860   23.6930 C   0  0  0  0  0  3  0  0  0  0  0  0
  -21.9100   -4.8120   22.5580 C   0  0  0  0  0  0  0  0  0  0  0  0
  -22.2560   -4.2780   21.3620 F   0  0  0  0  0  0  0  0  0  0  0  0
  -21.3670   -3.7310   26.0220 F   0  0  0  0  0  0  0  0  0  0  0  0
  -22.7420  -13.5790   21.1660 C   0  0  0  0  0  0  0  0  0  0  0  0
  -22.0140  -12.8880   22.0370 N   0  0  0  0  0  0  0  0  0  0  0  0
  -22.3070  -14.6020   20.6410 O   0  0  0  0  0  0  0  0  0  0  0  0
  -22.3810  -12.0610   22.4840 H   0  0  0  0  0  0  0  0  0  0  0  0
  -21.0770  -13.1930   22.2600 H   0  0  0  0  0  0  0  0  0  0  0  0
  -25.3650  -15.2370   20.3190 N   0  0  0  0  0  0  0  0  0  0  0  0
  -24.5790  -15.8740   20.3840 H   0  0  0  0  0  0  0  0  0  0  0  0
  -26.1570  -15.6370   19.8360 H   0  0  0  0  0  0  0  0  0  0  0  0
  1  3  1  0
  1 50  1  0
  2  1  1  0
  5  4  1  0
  6  7  1  0
  6  8  1  0
  7  1  1  0
  7  4  1  0
  8  9  1  0
  8  5  1  0
 10 21  2  0
 11  9  1  0
 11 16  1  0
 12 20  1  0
 12 22  1  0
 13 19  1  0
 13 15  1  0
 14 20  1  0
 15 16  2  0
 15 14  1  0
 17 11  2  0
 18 17  1  0
 18 13  2  0
 19 12  1  0
 20 10  1  0
 22 24  2  0
 23 22  1  0
 25 23  1  0
 26 35  2  0
 26 31  1  0
 27 23  1  0
 27 31  1  0
 28 27  1  0
 29 30  1  0
 29 28  1  0
 30 26  1  0
 31 32  2  0
 32 33  1  0
 34 33  2  0
 35 34  1  0
 36 10  1  0
 36 37  1  0
 36 46  1  0
 37 40  1  0
 38 42  1  0
 38 37  1  0
 39 38  2  0
 42 41  1  0
 44 42  1  0
 44 45  1  0
 44 43  1  0
 46 49  1  1
 46 47  1  0
 48 46  1  0
 51 52  1  0
 51 50  1  0
 51 55  1  0
 53 52  1  0
 54 52  1  0
 56 64  1  0
 57 62  1  0
 58 59  1  0
 58 57  1  0
 60 59  1  0
 60 69  1  0
 60 61  1  0
 62 56  1  0
 62 61  1  0
 63 56  2  0
 64 55  1  0
 64 65  1  0
 66 67  2  0
 67 86  1  0
 68 67  1  0
 68 71  1  0
 69 66  1  0
 69 70  1  0
 70 68  2  0
 71 72  1  0
 72 73  2  0
 74 77  1  0
 74 73  1  0
 75 74  2  0
 76 75  1  0
 76 71  2  0
 77 78  1  0
 78 79  1  0
 79 80  2  0
 81 80  1  0
 81 85  1  0
 82 81  2  0
 83 78  2  0
 83 82  1  0
 84 83  1  0
 86 87  1  0
 87 90  1  0
 87 89  1  0
 88 86  2  0
 91 92  1  0
 91 66  1  0
 93 91  1  0
M  ISO  4   8 101   9 101  56 100  64 100
M  END
>  <TORSDO>  (44) 
F 21

>  <SCORE>  (44) 
-13.806

>  <name>  (44) 
43

>  <ligand_id>  (44) 
43

>  <original_smiles>  (44) 
[H]c1c([H])c([H])c2c(c1[H])C([H])([H])C([H])([H])C([H])([H])C2([H])N([H])C(=O)C1([H])N(C(=O)C([H])(N([H])C(=O)C([H])(N([H])C([H])([H])[H])C([H])([H])[H])C(C([H])([H])[H])(C([H])([H])[H])C([H])([H])[H])C([H])([H])c2c([H])c(OC3([H])C([H])([H])C([H])([H])C([H])([N+]([H])([H])C([H])([H])C([H])(N([H])[H])C([H])([H])N([H])C(=O)N4C([H])([H])C([H])([H])C([H])([H])C([H])(n5nc(-c6c([H])c([H])c(Oc7c([H])c([H])c(F)c([H])c7F)c([H])c6[H])c(C(=O)N([H])[H])c5N([H])[H])C4([H])[H])C3([H])[H])c([H])c([H])c2C1([H])[H]

>  <smiles>  (44) 
[H]c1c([H])c([H])c2c(c1[H])C([H])([H])C([H])([H])C([H])([H])C2([H])N([H])C(=O)C1([H])N(C(=O)C([H])(N([H])C(=O)C([H])(N([H])C([H])([H])[H])C([H])([H])[H])C(C([H])([H])[H])(C([H])([H])[H])C([H])([H])[H])C([H])([H])c2c([H])c(OC3([H])C([H])([H])C([H])([H])C([H])([N+]([H])([H])C([H])([H])C([H])(N([H])[H])C([H])([H])N([H])C(=O)N4C([H])([H])C([H])([H])C([H])([H])C([H])(n5nc(-c6c([H])c([H])c(Oc7c([H])c([H])c(F)c([H])c7F)c([H])c6[H])c(C(=O)N([H])[H])c5N([H])[H])C4([H])[H])C3([H])[H])c([H])c([H])c2C1([H])[H]

$$$$
44:0:0
     RDKit          3D

 92102  0  0  1  0  0  0  0  0999 V2000
  -28.0810  -21.2710   19.6100 C   0  0  0  0  0  2  0  0  0  0  0  0
  -27.4730  -22.6930   19.8040 C   0  0  0  0  0  2  0  0  0  0  0  0
  -29.8480  -22.8900   19.9400 C   0  0  0  0  0  2  0  0  0  0  0  0
  -29.5950  -21.3000   19.9360 C   0  0  0  0  0  3  0  0  0  0  0  0
  -28.5670  -23.7310   19.4860 C   0  0  0  0  0  3  0  0  0  0  0  0
  -30.2330  -20.7690   23.6880 C   0  0  0  0  0  3  0  0  0  0  0  0
  -30.9790  -19.5950   23.7930 C   0  0  0  0  0  3  0  0  0  0  0  0
  -29.7770  -21.1870   22.4280 C   0  0  0  0  0  3  0  0  0  0  0  0
  -31.1970  -18.8190   22.6470 C   0  0  0  0  0  3  0  0  0  0  0  0
  -30.0460  -20.4790   21.2230 C   0  0  0  0  0  0  0  0  0  0  0  0
  -30.7150  -19.1600   21.3550 C   0  0  0  0  0  0  0  0  0  0  0  0
  -30.0250  -17.1710   19.6370 C   0  0  0  0  0  2  0  0  0  0  0  0
  -31.0630  -17.9860   20.3590 C   0  0  0  0  0  3  0  0  0  0  0  0
  -30.7820  -16.4420   20.7390 C   0  0  0  0  0  3  0  0  0  0  0  0
  -31.5860  -15.1580   20.2970 C   0  0  0  0  0  0  0  0  0  0  0  0
  -31.3070  -12.9320   19.1820 C   0  0  0  0  0  2  0  0  0  0  0  0
  -30.3560  -13.1120   17.9730 C   0  0  0  0  0  2  0  0  0  0  0  0
  -28.8790  -13.0010   18.4050 C   0  0  0  0  0  2  0  0  0  0  0  0
  -28.5670  -13.8440   19.6700 C   0  0  0  0  0  3  0  0  0  0  0  0
  -29.6250  -13.6050   20.7680 C   0  0  0  0  0  2  0  0  0  0  0  0
  -30.9390  -13.9410   20.2030 N   0  0  0  0  0  0  0  0  0  0  0  0
  -32.7510  -15.2490   19.8980 O   0  0  0  0  0  0  0  0  0  0  0  0
  -26.2130  -14.5360   20.4230 C   0  0  0  0  0  0  0  0  0  0  0  0
  -25.1050  -13.8090   20.7620 C   0  0  0  0  0  0  0  0  0  0  0  0
  -25.4910  -12.4370   20.6700 C   0  0  0  0  0  0  0  0  0  0  0  0
  -27.2070  -13.6130   20.1510 N   0  0  0  0  0  0  0  0  0  0  0  0
  -26.7780  -12.3390   20.3570 N   0  0  0  0  0  0  0  0  0  0  0  0
  -24.6960  -11.2100   20.8050 C   0  0  0  0  0  0  0  0  0  0  0  0
  -25.0310  -10.2120   21.7470 C   0  0  0  0  0  3  0  0  0  0  0  0
  -24.2380   -9.0510   21.8710 C   0  0  0  0  0  3  0  0  0  0  0  0
  -23.0950   -8.8800   21.0550 C   0  0  0  0  0  0  0  0  0  0  0  0
  -22.7790   -9.8670   20.1030 C   0  0  0  0  0  3  0  0  0  0  0  0
  -23.5730  -11.0200   19.9760 C   0  0  0  0  0  3  0  0  0  0  0  0
  -22.2810   -7.7740   21.0870 O   0  0  0  0  0  0  0  0  0  0  0  0
  -22.0550   -7.0820   22.2500 C   0  0  0  0  0  0  0  0  0  0  0  0
  -21.5490   -7.7140   23.4080 C   0  0  0  0  0  3  0  0  0  0  0  0
  -21.2660   -6.9520   24.5580 C   0  0  0  0  0  3  0  0  0  0  0  0
  -21.4790   -5.5600   24.5540 C   0  0  0  0  0  0  0  0  0  0  0  0
  -21.9780   -4.9300   23.4000 C   0  0  0  0  0  3  0  0  0  0  0  0
  -22.2630   -5.6880   22.2510 C   0  0  0  0  0  0  0  0  0  0  0  0
  -22.7230   -5.0720   21.1360 F   0  0  0  0  0  0  0  0  0  0  0  0
  -21.2010   -4.8270   25.6570 F   0  0  0  0  0  0  0  0  0  0  0  0
  -23.7370  -14.3520   21.0600 C   0  0  0  0  0  0  0  0  0  0  0  0
  -22.9890  -13.6810   21.9300 N   0  0  0  0  0  0  0  0  0  0  0  0
  -23.3440  -15.4040   20.5600 O   0  0  0  0  0  0  0  0  0  0  0  0
  -23.3200  -12.8260   22.3490 H   0  0  0  0  0  0  0  0  0  0  0  0
  -22.0730  -14.0280   22.1770 H   0  0  0  0  0  0  0  0  0  0  0  0
  -26.4520  -15.9040   20.3070 N   0  0  0  0  0  0  0  0  0  0  0  0
  -25.7190  -16.5890   20.4520 H   0  0  0  0  0  0  0  0  0  0  0  0
  -27.3320  -16.3150   20.0210 H   0  0  0  0  0  0  0  0  0  0  0  0
  -28.3080  -25.2110   20.1080 C   0  0  0  0  0  2  0  0  0  0  0  0
  -28.1400  -26.4600   19.3020 O   0  0  0  0  0  0  0  0  0  0  0  0
  -24.5650  -31.5890   23.0160 C   0  0  0  0  0  0  0  0  0  0  0  0
  -27.0090  -27.2820   19.4780 C   0  0  0  0  0  0  0  0  0  0  0  0
  -23.2710  -30.3150   21.3430 C   0  0  0  0  0  3  0  0  0  0  0  0
  -24.6430  -28.8830   19.7210 C   0  0  0  0  0  0  0  0  0  0  0  0
  -25.7940  -30.6660   21.0330 C   0  0  0  0  0  2  0  0  0  0  0  0
  -25.8440  -29.3380   20.2820 C   0  0  0  0  0  0  0  0  0  0  0  0
  -27.0290  -28.5530   20.1430 C   0  0  0  0  0  3  0  0  0  0  0  0
  -25.7800  -26.8730   18.9220 C   0  0  0  0  0  3  0  0  0  0  0  0
  -24.6140  -27.6580   19.0330 C   0  0  0  0  0  3  0  0  0  0  0  0
  -23.4090  -29.7430   19.9060 C   0  0  0  0  0  2  0  0  0  0  0  0
  -24.5670  -30.8700   21.8550 N   0  0  0  0  0  0  0  0  0  0  0  0
  -23.5130  -31.8130   23.6330 O   0  0  0  0  0  0  0  0  0  0  0  0
  -22.6710  -29.2200   22.2590 C   0  0  0  0  0  0  0  0  0  0  0  0
  -21.3430  -29.0250   22.1810 N   0  0  0  0  0  0  0  0  0  0  0  0
  -23.3980  -28.5540   23.0010 O   0  0  0  0  0  0  0  0  0  0  0  0
  -20.8110  -29.6180   21.5610 H   0  0  0  0  0  0  0  0  0  0  0  0
  -18.0280  -27.6690   22.6710 C   0  0  0  0  0  0  0  0  0  0  0  0
  -20.5780  -28.0190   22.9180 C   0  0  0  0  0  3  0  0  0  0  0  0
  -20.7280  -26.6210   22.2740 C   0  0  0  0  0  2  0  0  0  0  0  0
  -19.6270  -26.3030   21.2580 C   0  0  0  0  0  2  0  0  0  0  0  0
  -18.2490  -26.3640   21.9230 C   0  0  0  0  0  2  0  0  0  0  0  0
  -19.1220  -28.4540   23.1240 C   0  0  0  0  0  0  0  0  0  0  0  0
  -18.8620  -29.6770   23.7790 C   0  0  0  0  0  3  0  0  0  0  0  0
  -17.5410  -30.1160   23.9880 C   0  0  0  0  0  3  0  0  0  0  0  0
  -16.4610  -29.3250   23.5540 C   0  0  0  0  0  3  0  0  0  0  0  0
  -16.7040  -28.1050   22.9000 C   0  0  0  0  0  3  0  0  0  0  0  0
  -25.8800  -32.1830   23.6130 C   0  0  0  0  0  3  0  0  0  0  0  0
  -26.4570  -31.3310   24.8110 C   0  0  1  0  0  0  0  0  0  0  0  0
  -25.4220  -31.0550   25.9250 C   0  0  0  0  0  1  0  0  0  0  0  0
  -26.9900  -29.9720   24.3020 C   0  0  0  0  0  1  0  0  0  0  0  0
  -27.6580  -32.0690   25.4490 C   0  0  0  0  0  1  0  0  0  0  0  0
  -25.5970  -33.5570   24.0480 N   0  0  0  0  0  0  0  0  0  0  0  0
  -25.9160  -34.6580   23.3570 C   0  0  0  0  0  0  0  0  0  0  0  0
  -26.5500  -34.6230   22.3000 O   0  0  0  0  0  0  0  0  0  0  0  0
  -25.0400  -33.6690   24.8830 H   0  0  0  0  0  0  0  0  0  0  0  0
  -24.1910  -36.4770   23.1970 C   0  0  0  0  0  1  0  0  0  0  0  0
  -25.4600  -36.0140   23.9290 C   0  0  0  0  0  3  0  0  0  0  0  0
  -27.6360  -36.8270   24.7260 C   0  0  0  0  0  1  0  0  0  0  0  0
  -26.4930  -37.0690   23.8500 N   0  0  0  0  0  0  0  0  0  0  0  0
  -26.0980  -37.9740   24.0890 H   0  0  0  0  0  0  0  0  0  0  0  0
  1  2  1  0
  1  4  1  0
  4  3  1  0
  4 10  1  0
  5  2  1  0
  5  3  1  0
  5 51  1  0
  6  7  1  0
  8  6  2  0
  9  7  2  0
 10 11  2  0
 10  8  1  0
 11  9  1  0
 12 13  1  0
 12 14  1  0
 13 14  1  0
 13 11  1  0
 14 15  1  0
 16 21  1  0
 17 18  1  0
 17 16  1  0
 19 18  1  0
 19 26  1  0
 19 20  1  0
 21 15  1  0
 21 20  1  0
 22 15  2  0
 23 24  2  0
 24 43  1  0
 25 24  1  0
 25 28  1  0
 26 27  1  0
 26 23  1  0
 27 25  2  0
 28 29  1  0
 29 30  2  0
 31 34  1  0
 31 30  1  0
 32 31  2  0
 33 32  1  0
 33 28  2  0
 34 35  1  0
 35 40  2  0
 35 36  1  0
 36 37  2  0
 38 37  1  0
 38 42  1  0
 39 38  2  0
 40 39  1  0
 41 40  1  0
 43 44  1  0
 44 47  1  0
 44 46  1  0
 45 43  2  0
 48 23  1  0
 48 49  1  0
 50 48  1  0
 52 54  1  0
 52 51  1  0
 53 64  2  0
 54 59  1  0
 55 63  1  0
 55 65  1  0
 56 62  1  0
 56 58  1  0
 57 63  1  0
 58 57  1  0
 59 58  2  0
 60 61  1  0
 60 54  2  0
 61 56  2  0
 62 55  1  0
 63 53  1  0
 65 67  2  0
 66 65  1  0
 68 66  1  0
 69 78  2  0
 69 74  1  0
 70 66  1  0
 70 74  1  0
 71 70  1  0
 72 73  1  0
 72 71  1  0
 73 69  1  0
 74 75  2  0
 75 76  1  0
 77 76  2  0
 78 77  1  0
 79 53  1  0
 79 84  1  0
 79 80  1  0
 80 83  1  1
 80 81  1  0
 82 80  1  0
 84 87  1  0
 85 89  1  0
 85 84  1  0
 86 85  2  0
 89 88  1  0
 91 89  1  0
 91 92  1  0
 91 90  1  0
M  ISO  4  14 100  15 100  51 101  52 101
M  END
>  <TORSDO>  (45) 
F 19

>  <SCORE>  (45) 
-12.047

>  <name>  (45) 
44

>  <ligand_id>  (45) 
44

>  <original_smiles>  (45) 
[H]c1c([H])c([H])c2c(c1[H])C([H])([H])C([H])([H])C([H])([H])C2([H])N([H])C(=O)C1([H])N(C(=O)C([H])(N([H])C(=O)C([H])(N([H])C([H])([H])[H])C([H])([H])[H])C(C([H])([H])[H])(C([H])([H])[H])C([H])([H])[H])C([H])([H])c2c([H])c(OC([H])([H])C3([H])C([H])([H])C([H])([H])C([H])(c4c([H])c([H])c([H])c([H])c4C4([H])C([H])([H])C4([H])C(=O)N4C([H])([H])C([H])([H])C([H])([H])C([H])(n5nc(-c6c([H])c([H])c(Oc7c([H])c([H])c(F)c([H])c7F)c([H])c6[H])c(C(=O)N([H])[H])c5N([H])[H])C4([H])[H])C3([H])[H])c([H])c([H])c2C1([H])[H]

>  <smiles>  (45) 
[H]c1c([H])c([H])c2c(c1[H])C([H])([H])C([H])([H])C([H])([H])C2([H])N([H])C(=O)C1([H])N(C(=O)C([H])(N([H])C(=O)C([H])(N([H])C([H])([H])[H])C([H])([H])[H])C(C([H])([H])[H])(C([H])([H])[H])C([H])([H])[H])C([H])([H])c2c([H])c(OC([H])([H])C3([H])C([H])([H])C([H])([H])C([H])(c4c([H])c([H])c([H])c([H])c4C4([H])C([H])([H])C4([H])C(=O)N4C([H])([H])C([H])([H])C([H])([H])C([H])(n5nc(-c6c([H])c([H])c(Oc7c([H])c([H])c(F)c([H])c7F)c([H])c6[H])c(C(=O)N([H])[H])c5N([H])[H])C4([H])[H])C3([H])[H])c([H])c([H])c2C1([H])[H]

$$$$
45:0:0
     RDKit          3D

 94102  0  0  1  0  0  0  0  0999 V2000
  -31.2260  -22.7170   19.6270 C   0  0  0  0  0  2  0  0  0  0  0  0
  -30.9420  -21.4830   20.5230 C   0  0  0  0  0  2  0  0  0  0  0  0
  -28.6200  -22.2740   20.8800 C   0  0  0  0  0  2  0  0  0  0  0  0
  -30.2800  -23.9650   19.7910 C   0  0  0  0  0  3  0  0  0  0  0  0
  -28.7820  -23.6320   20.0600 C   0  0  0  0  0  3  0  0  0  0  0  0
  -29.4780  -21.0270   20.3670 C   0  0  0  0  0  3  0  0  0  0  0  0
  -31.8780  -25.4710   18.4650 C   0  0  0  0  0  1  0  0  0  0  0  0
  -29.8590  -24.4840   17.2390 C   0  0  0  0  0  1  0  0  0  0  0  0
  -30.4400  -24.9640   18.5910 C   0  0  0  0  0  3  0  0  0  0  0  0
  -29.1000  -19.6910   21.0080 N   0  0  0  0  0  4  0  0  0  0  0  0
  -28.2340  -19.4040   20.5860 H   0  0  0  0  0  0  0  0  0  0  0  0
  -28.8630  -19.9070   21.9640 H   0  0  0  0  0  0  0  0  0  0  0  0
  -29.9690  -18.4270   21.1180 C   0  0  0  0  0  2  0  0  0  0  0  0
  -29.7180  -17.2250   20.0910 C   0  0  0  0  0  2  0  0  0  0  0  0
  -30.5600  -14.7160   20.3410 C   0  0  0  0  0  0  0  0  0  0  0  0
  -30.3920  -12.4730   19.2870 C   0  0  0  0  0  2  0  0  0  0  0  0
  -29.4330  -12.5470   18.0790 C   0  0  0  0  0  2  0  0  0  0  0  0
  -27.9550  -12.3990   18.5020 C   0  0  0  0  0  2  0  0  0  0  0  0
  -27.5880  -13.2540   19.7460 C   0  0  0  0  0  3  0  0  0  0  0  0
  -28.6580  -13.1160   20.8580 C   0  0  0  0  0  2  0  0  0  0  0  0
  -29.9580  -13.4800   20.2760 N   0  0  0  0  0  0  0  0  0  0  0  0
  -31.7290  -14.8800   19.9860 O   0  0  0  0  0  0  0  0  0  0  0  0
  -29.7220  -15.7790   20.5700 N   0  0  0  0  0  0  0  0  0  0  0  0
  -28.7930  -15.4580   20.8030 H   0  0  0  0  0  0  0  0  0  0  0  0
  -25.2040  -13.8510   20.4880 C   0  0  0  0  0  0  0  0  0  0  0  0
  -24.1370  -13.0750   20.8710 C   0  0  0  0  0  0  0  0  0  0  0  0
  -24.6010  -11.7260   20.8340 C   0  0  0  0  0  0  0  0  0  0  0  0
  -26.2430  -12.9660   20.2380 N   0  0  0  0  0  0  0  0  0  0  0  0
  -25.8870  -11.6850   20.5110 N   0  0  0  0  0  0  0  0  0  0  0  0
  -23.8730  -10.4640   21.0390 C   0  0  0  0  0  0  0  0  0  0  0  0
  -24.3220   -9.4940   21.9620 C   0  0  0  0  0  3  0  0  0  0  0  0
  -23.6030   -8.2940   22.1470 C   0  0  0  0  0  3  0  0  0  0  0  0
  -22.4140   -8.0600   21.4130 C   0  0  0  0  0  0  0  0  0  0  0  0
  -21.9810   -9.0180   20.4800 C   0  0  0  0  0  3  0  0  0  0  0  0
  -22.7020  -10.2120   20.2950 C   0  0  0  0  0  3  0  0  0  0  0  0
  -21.6550   -6.9210   21.5160 O   0  0  0  0  0  0  0  0  0  0  0  0
  -21.6390   -6.1640   22.6600 C   0  0  0  0  0  0  0  0  0  0  0  0
  -21.2660   -6.7060   23.9100 C   0  0  0  0  0  3  0  0  0  0  0  0
  -21.2060   -5.8750   25.0470 C   0  0  0  0  0  3  0  0  0  0  0  0
  -21.4990   -4.5020   24.9340 C   0  0  0  0  0  0  0  0  0  0  0  0
  -21.8610   -3.9610   23.6890 C   0  0  0  0  0  3  0  0  0  0  0  0
  -21.9290   -4.7890   22.5550 C   0  0  0  0  0  0  0  0  0  0  0  0
  -22.2630   -4.2530   21.3530 F   0  0  0  0  0  0  0  0  0  0  0  0
  -21.4260   -3.7060   26.0250 F   0  0  0  0  0  0  0  0  0  0  0  0
  -22.7430  -13.5570   21.1470 C   0  0  0  0  0  0  0  0  0  0  0  0
  -22.0130  -12.8630   22.0180 N   0  0  0  0  0  0  0  0  0  0  0  0
  -22.3050  -14.5780   20.6290 O   0  0  0  0  0  0  0  0  0  0  0  0
  -22.3780  -12.0370   22.4650 H   0  0  0  0  0  0  0  0  0  0  0  0
  -21.0770  -13.1710   22.2360 H   0  0  0  0  0  0  0  0  0  0  0  0
  -25.3700  -15.2200   20.3150 N   0  0  0  0  0  0  0  0  0  0  0  0
  -24.6010  -15.8730   20.4350 H   0  0  0  0  0  0  0  0  0  0  0  0
  -26.2030  -15.6580   19.9430 H   0  0  0  0  0  0  0  0  0  0  0  0
  -27.8900  -24.8780   20.5920 C   0  0  0  0  0  2  0  0  0  0  0  0
  -28.2200  -26.3150   20.2700 O   0  0  0  0  0  0  0  0  0  0  0  0
  -24.6540  -31.8850   23.2250 C   0  0  0  0  0  0  0  0  0  0  0  0
  -27.1740  -27.2510   20.2040 C   0  0  0  0  0  0  0  0  0  0  0  0
  -23.4370  -30.4920   21.5970 C   0  0  0  0  0  3  0  0  0  0  0  0
  -24.8630  -28.9360   20.1550 C   0  0  0  0  0  0  0  0  0  0  0  0
  -25.9790  -30.7770   21.4060 C   0  0  0  0  0  2  0  0  0  0  0  0
  -26.0360  -29.3900   20.7710 C   0  0  0  0  0  0  0  0  0  0  0  0
  -27.1960  -28.5540   20.7980 C   0  0  0  0  0  3  0  0  0  0  0  0
  -26.0090  -26.8880   19.5070 C   0  0  0  0  0  3  0  0  0  0  0  0
  -24.8600  -27.6950   19.5020 C   0  0  0  0  0  3  0  0  0  0  0  0
  -23.6370  -29.8260   20.2090 C   0  0  0  0  0  2  0  0  0  0  0  0
  -24.7100  -31.0750   22.1290 N   0  0  0  0  0  0  0  0  0  0  0  0
  -23.5750  -32.1680   23.7650 O   0  0  0  0  0  0  0  0  0  0  0  0
  -22.7790  -29.4770   22.5650 C   0  0  0  0  0  0  0  0  0  0  0  0
  -21.4510  -29.2980   22.4460 N   0  0  0  0  0  0  0  0  0  0  0  0
  -23.4610  -28.8530   23.3840 O   0  0  0  0  0  0  0  0  0  0  0  0
  -20.9610  -29.8750   21.7760 H   0  0  0  0  0  0  0  0  0  0  0  0
  -18.0740  -28.0990   22.9720 C   0  0  0  0  0  0  0  0  0  0  0  0
  -20.6330  -28.3650   23.2240 C   0  0  0  0  0  3  0  0  0  0  0  0
  -20.7310  -26.9290   22.6590 C   0  0  0  0  0  2  0  0  0  0  0  0
  -19.6230  -26.5990   21.6540 C   0  0  0  0  0  2  0  0  0  0  0  0
  -18.2460  -26.7470   22.3030 C   0  0  0  0  0  2  0  0  0  0  0  0
  -19.1930  -28.8660   23.3910 C   0  0  0  0  0  0  0  0  0  0  0  0
  -18.9760  -30.1300   23.9780 C   0  0  0  0  0  3  0  0  0  0  0  0
  -17.6700  -30.6300   24.1480 C   0  0  0  0  0  3  0  0  0  0  0  0
  -16.5660  -29.8620   23.7370 C   0  0  0  0  0  3  0  0  0  0  0  0
  -16.7690  -28.5980   23.1590 C   0  0  0  0  0  3  0  0  0  0  0  0
  -25.9440  -32.5140   23.8420 C   0  0  0  0  0  3  0  0  0  0  0  0
  -25.6340  -33.9090   24.1830 N   0  0  0  0  0  0  0  0  0  0  0  0
  -25.9520  -34.9680   23.4260 C   0  0  0  0  0  0  0  0  0  0  0  0
  -26.6080  -34.8740   22.3840 O   0  0  0  0  0  0  0  0  0  0  0  0
  -25.0570  -34.0520   24.9990 H   0  0  0  0  0  0  0  0  0  0  0  0
  -24.2160  -36.7570   23.1000 C   0  0  0  0  0  1  0  0  0  0  0  0
  -25.4680  -36.3530   23.8970 C   0  0  0  0  0  3  0  0  0  0  0  0
  -27.6160  -37.2370   24.6980 C   0  0  0  0  0  1  0  0  0  0  0  0
  -26.4980  -37.4080   23.7730 N   0  0  0  0  0  0  0  0  0  0  0  0
  -26.0950  -38.3280   23.9260 H   0  0  0  0  0  0  0  0  0  0  0  0
  -26.4680  -31.7340   25.1100 C   0  0  1  0  0  0  0  0  0  0  0  0
  -25.3810  -31.4940   26.1840 C   0  0  0  0  0  1  0  0  0  0  0  0
  -27.0550  -30.3590   24.7100 C   0  0  0  0  0  1  0  0  0  0  0  0
  -27.6300  -32.5230   25.7550 C   0  0  0  0  0  1  0  0  0  0  0  0
  1  4  1  0
  1  2  1  0
  4  9  1  0
  4  5  1  0
  5 53  1  0
  5  3  1  0
  6  2  1  0
  6  3  1  0
  6 10  1  0
  7  9  1  0
  8  9  1  0
 10 13  1  0
 10 12  1  0
 11 10  1  0
 14 23  1  0
 14 13  1  0
 15 23  1  0
 16 21  1  0
 17 18  1  0
 17 16  1  0
 19 18  1  0
 19 28  1  0
 19 20  1  0
 21 15  1  0
 21 20  1  0
 22 15  2  0
 23 24  1  0
 25 26  2  0
 26 45  1  0
 27 26  1  0
 27 30  1  0
 28 25  1  0
 28 29  1  0
 29 27  2  0
 30 31  1  0
 31 32  2  0
 33 36  1  0
 33 32  1  0
 34 33  2  0
 35 34  1  0
 35 30  2  0
 36 37  1  0
 37 38  1  0
 38 39  2  0
 40 39  1  0
 40 44  1  0
 41 40  2  0
 42 37  2  0
 42 41  1  0
 43 42  1  0
 45 46  1  0
 46 49  1  0
 46 48  1  0
 47 45  2  0
 50 51  1  0
 50 25  1  0
 52 50  1  0
 54 53  1  0
 55 66  2  0
 56 54  1  0
 56 61  1  0
 57 65  1  0
 57 67  1  0
 58 64  1  0
 58 60  1  0
 59 65  1  0
 60 61  2  0
 60 59  1  0
 62 56  2  0
 63 62  1  0
 63 58  2  0
 64 57  1  0
 65 55  1  0
 67 69  2  0
 68 67  1  0
 70 68  1  0
 71 80  2  0
 71 76  1  0
 72 68  1  0
 72 76  1  0
 73 72  1  0
 74 75  1  0
 74 73  1  0
 75 71  1  0
 76 77  2  0
 77 78  1  0
 79 78  2  0
 80 79  1  0
 81 55  1  0
 81 82  1  0
 81 91  1  0
 82 85  1  0
 83 87  1  0
 83 82  1  0
 84 83  2  0
 87 86  1  0
 89 87  1  0
 89 90  1  0
 89 88  1  0
 91 94  1  1
 91 92  1  0
 93 91  1  0
M  ISO  4  15 100  23 100  53 101  54 101
M  END
>  <TORSDO>  (46) 
F 21

>  <SCORE>  (46) 
-13.487

>  <name>  (46) 
45

>  <ligand_id>  (46) 
45

>  <original_smiles>  (46) 
[H]c1c([H])c([H])c2c(c1[H])C([H])([H])C([H])([H])C([H])([H])C2([H])N([H])C(=O)C1([H])N(C(=O)C([H])(N([H])C(=O)C([H])(N([H])C([H])([H])[H])C([H])([H])[H])C(C([H])([H])[H])(C([H])([H])[H])C([H])([H])[H])C([H])([H])c2c([H])c(OC([H])([H])C3([H])C([H])([H])C([H])([N+]([H])([H])C([H])([H])C([H])([H])N([H])C(=O)N4C([H])([H])C([H])([H])C([H])([H])C([H])(n5nc(-c6c([H])c([H])c(Oc7c([H])c([H])c(F)c([H])c7F)c([H])c6[H])c(C(=O)N([H])[H])c5N([H])[H])C4([H])[H])C([H])([H])C([H])([H])C3([H])C([H])(C([H])([H])[H])C([H])([H])[H])c([H])c([H])c2C1([H])[H]

>  <smiles>  (46) 
[H]c1c([H])c([H])c2c(c1[H])C([H])([H])C([H])([H])C([H])([H])C2([H])N([H])C(=O)C1([H])N(C(=O)C([H])(N([H])C(=O)C([H])(N([H])C([H])([H])[H])C([H])([H])[H])C(C([H])([H])[H])(C([H])([H])[H])C([H])([H])[H])C([H])([H])c2c([H])c(OC([H])([H])C3([H])C([H])([H])C([H])([N+]([H])([H])C([H])([H])C([H])([H])N([H])C(=O)N4C([H])([H])C([H])([H])C([H])([H])C([H])(n5nc(-c6c([H])c([H])c(Oc7c([H])c([H])c(F)c([H])c7F)c([H])c6[H])c(C(=O)N([H])[H])c5N([H])[H])C4([H])[H])C([H])([H])C([H])([H])C3([H])C([H])(C([H])([H])[H])C([H])([H])[H])c([H])c([H])c2C1([H])[H]

$$$$
46:0:0
     RDKit          3D

 95104  0  0  1  0  0  0  0  0999 V2000
  -27.8910  -20.9510   22.5260 C   0  0  0  0  0  2  0  0  0  0  0  0
  -27.7860  -16.7290   21.8340 C   0  0  0  0  0  3  0  0  0  0  0  0
  -29.0780  -18.7480   22.0610 C   0  0  0  0  0  3  0  0  0  0  0  0
  -26.6300  -17.5310   21.9290 C   0  0  0  0  0  3  0  0  0  0  0  0
  -29.0520  -17.3430   21.9050 C   0  0  0  0  0  0  0  0  0  0  0  0
  -27.8720  -19.4680   22.1720 C   0  0  0  0  0  0  0  0  0  0  0  0
  -26.6640  -18.8720   22.0880 N   0  0  0  0  0  0  0  0  0  0  0  0
  -30.7100  -14.3810   20.7540 C   0  0  0  0  0  0  0  0  0  0  0  0
  -30.4280  -12.3140   19.3990 C   0  0  0  0  0  2  0  0  0  0  0  0
  -29.4960  -12.5300   18.1910 C   0  0  0  0  0  2  0  0  0  0  0  0
  -28.0090  -12.4090   18.5840 C   0  0  0  0  0  2  0  0  0  0  0  0
  -27.6630  -13.1970   19.8730 C   0  0  0  0  0  3  0  0  0  0  0  0
  -28.6850  -12.9020   20.9830 C   0  0  0  0  0  2  0  0  0  0  0  0
  -30.0290  -13.2330   20.4770 N   0  0  0  0  0  0  0  0  0  0  0  0
  -31.6830  -14.7510   20.0780 O   0  0  0  0  0  0  0  0  0  0  0  0
  -31.4170  -15.3950   23.8690 C   0  0  0  0  0  2  0  0  0  0  0  0
  -30.9900  -16.7680   23.3840 C   0  0  0  0  0  2  0  0  0  0  0  0
  -30.4360  -14.4750   23.1560 C   0  0  0  0  0  2  0  0  0  0  0  0
  -30.3660  -16.5480   21.9880 C   0  0  0  0  0  3  0  0  0  0  0  0
  -30.2540  -15.0760   21.8290 N   0  0  0  0  0  0  0  0  0  0  0  0
  -25.2460  -13.8000   20.5230 C   0  0  0  0  0  0  0  0  0  0  0  0
  -24.1770  -13.0330   20.9060 C   0  0  0  0  0  0  0  0  0  0  0  0
  -24.6370  -11.6840   20.8720 C   0  0  0  0  0  0  0  0  0  0  0  0
  -26.3000  -12.9220   20.3270 N   0  0  0  0  0  0  0  0  0  0  0  0
  -25.9320  -11.6410   20.5780 N   0  0  0  0  0  0  0  0  0  0  0  0
  -23.9020  -10.4250   21.0410 C   0  0  0  0  0  0  0  0  0  0  0  0
  -24.3560   -9.4190   21.9220 C   0  0  0  0  0  3  0  0  0  0  0  0
  -23.6250   -8.2220   22.0790 C   0  0  0  0  0  3  0  0  0  0  0  0
  -22.4240   -8.0260   21.3550 C   0  0  0  0  0  0  0  0  0  0  0  0
  -21.9840   -9.0230   20.4650 C   0  0  0  0  0  3  0  0  0  0  0  0
  -22.7170  -10.2120   20.3080 C   0  0  0  0  0  3  0  0  0  0  0  0
  -21.6630   -6.8840   21.4230 O   0  0  0  0  0  0  0  0  0  0  0  0
  -21.6850   -6.0690   22.5270 C   0  0  0  0  0  0  0  0  0  0  0  0
  -21.4020   -6.5610   23.8210 C   0  0  0  0  0  3  0  0  0  0  0  0
  -21.3660   -5.6770   24.9160 C   0  0  0  0  0  3  0  0  0  0  0  0
  -21.6050   -4.3040   24.7200 C   0  0  0  0  0  0  0  0  0  0  0  0
  -21.8830   -3.8110   23.4330 C   0  0  0  0  0  3  0  0  0  0  0  0
  -21.9200   -4.6920   22.3390 C   0  0  0  0  0  0  0  0  0  0  0  0
  -22.1670   -4.2110   21.0970 F   0  0  0  0  0  0  0  0  0  0  0  0
  -21.5610   -3.4540   25.7730 F   0  0  0  0  0  0  0  0  0  0  0  0
  -22.7830  -13.5210   21.1710 C   0  0  0  0  0  0  0  0  0  0  0  0
  -22.0460  -12.8340   22.0360 N   0  0  0  0  0  0  0  0  0  0  0  0
  -22.3540  -14.5510   20.6540 O   0  0  0  0  0  0  0  0  0  0  0  0
  -22.4000  -12.0020   22.4820 H   0  0  0  0  0  0  0  0  0  0  0  0
  -21.1110  -13.1480   22.2520 H   0  0  0  0  0  0  0  0  0  0  0  0
  -25.3910  -15.1580   20.2910 N   0  0  0  0  0  0  0  0  0  0  0  0
  -24.5760  -15.7580   20.2560 H   0  0  0  0  0  0  0  0  0  0  0  0
  -26.2050  -15.5580   19.8380 H   0  0  0  0  0  0  0  0  0  0  0  0
  -28.1000  -21.8960   21.3230 C   0  0  0  0  0  2  0  0  0  0  0  0
  -28.2590  -23.3030   21.7590 N   0  0  0  0  0  4  0  0  0  0  0  0
  -29.1250  -23.3810   22.2730 H   0  0  0  0  0  0  0  0  0  0  0  0
  -27.5020  -23.5190   22.3890 H   0  0  0  0  0  0  0  0  0  0  0  0
  -28.2550  -24.3070   20.6630 C   0  0  0  0  0  2  0  0  0  0  0  0
  -28.3610  -25.7440   21.2070 C   0  0  0  0  0  2  0  0  0  0  0  0
  -28.3630  -26.7020   20.1390 O   0  0  0  0  0  0  0  0  0  0  0  0
  -24.6120  -31.8710   23.2110 C   0  0  0  0  0  0  0  0  0  0  0  0
  -27.2260  -27.4640   20.1030 C   0  0  0  0  0  0  0  0  0  0  0  0
  -23.3980  -30.4900   21.5550 C   0  0  0  0  0  3  0  0  0  0  0  0
  -24.8430  -28.9680   20.1080 C   0  0  0  0  0  0  0  0  0  0  0  0
  -25.9190  -30.8510   21.3550 C   0  0  0  0  0  2  0  0  0  0  0  0
  -26.0000  -29.4850   20.7070 C   0  0  0  0  0  0  0  0  0  0  0  0
  -27.1990  -28.7380   20.7070 C   0  0  0  0  0  3  0  0  0  0  0  0
  -26.0630  -26.9580   19.4880 C   0  0  0  0  0  3  0  0  0  0  0  0
  -24.8690  -27.7040   19.4890 C   0  0  0  0  0  3  0  0  0  0  0  0
  -23.5990  -29.8280   20.1650 C   0  0  0  0  0  2  0  0  0  0  0  0
  -24.6610  -31.0820   22.1010 N   0  0  0  0  0  0  0  0  0  0  0  0
  -23.5330  -32.1410   23.7560 O   0  0  0  0  0  0  0  0  0  0  0  0
  -22.7420  -29.4640   22.5050 C   0  0  0  0  0  0  0  0  0  0  0  0
  -21.4170  -29.2980   22.3780 N   0  0  0  0  0  0  0  0  0  0  0  0
  -23.4220  -28.8190   23.3080 O   0  0  0  0  0  0  0  0  0  0  0  0
  -20.9330  -29.8640   21.6940 H   0  0  0  0  0  0  0  0  0  0  0  0
  -18.0280  -28.1390   22.8490 C   0  0  0  0  0  0  0  0  0  0  0  0
  -20.5870  -28.3640   23.1360 C   0  0  0  0  0  3  0  0  0  0  0  0
  -20.6790  -26.9390   22.5400 C   0  0  0  0  0  2  0  0  0  0  0  0
  -19.5750  -26.6410   21.5200 C   0  0  0  0  0  2  0  0  0  0  0  0
  -18.1940  -26.7950   22.1620 C   0  0  0  0  0  2  0  0  0  0  0  0
  -19.1540  -28.8830   23.2920 C   0  0  0  0  0  0  0  0  0  0  0  0
  -18.9470  -30.1460   23.8890 C   0  0  0  0  0  3  0  0  0  0  0  0
  -17.6450  -30.6580   24.0570 C   0  0  0  0  0  3  0  0  0  0  0  0
  -16.5330  -29.9090   23.6320 C   0  0  0  0  0  3  0  0  0  0  0  0
  -16.7270  -28.6520   23.0310 C   0  0  0  0  0  3  0  0  0  0  0  0
  -25.9030  -32.4840   23.8370 C   0  0  0  0  0  3  0  0  0  0  0  0
  -25.5900  -33.8620   24.2340 N   0  0  0  0  0  0  0  0  0  0  0  0
  -25.9030  -34.9490   23.5160 C   0  0  0  0  0  0  0  0  0  0  0  0
  -26.5560  -34.8960   22.4720 O   0  0  0  0  0  0  0  0  0  0  0  0
  -25.0170  -33.9770   25.0560 H   0  0  0  0  0  0  0  0  0  0  0  0
  -24.1480  -36.7310   23.2650 C   0  0  0  0  0  1  0  0  0  0  0  0
  -25.4100  -36.3120   24.0360 C   0  0  0  0  0  3  0  0  0  0  0  0
  -27.5580  -37.1810   24.8480 C   0  0  0  0  0  1  0  0  0  0  0  0
  -26.4290  -37.3790   23.9420 N   0  0  0  0  0  0  0  0  0  0  0  0
  -26.0240  -38.2890   24.1390 H   0  0  0  0  0  0  0  0  0  0  0  0
  -26.4500  -31.6560   25.0640 C   0  0  1  0  0  0  0  0  0  0  0  0
  -25.3790  -31.3570   26.1390 C   0  0  0  0  0  1  0  0  0  0  0  0
  -27.0370  -30.3040   24.5910 C   0  0  0  0  0  1  0  0  0  0  0  0
  -27.6120  -32.4230   25.7390 C   0  0  0  0  0  1  0  0  0  0  0  0
  2  5  2  0
  2  4  1  0
  3  6  2  0
  4  7  2  0
  5  3  1  0
  6  1  1  0
  7  6  1  0
  8 20  1  0
  9 14  1  0
 10 11  1  0
 10  9  1  0
 12 11  1  0
 12 24  1  0
 12 13  1  0
 14  8  1  0
 14 13  1  0
 15  8  2  0
 17 16  1  0
 18 16  1  0
 19  5  1  0
 19 17  1  0
 20 19  1  0
 20 18  1  0
 21 22  2  0
 22 41  1  0
 23 22  1  0
 23 26  1  0
 24 21  1  0
 24 25  1  0
 25 23  2  0
 26 27  1  0
 27 28  2  0
 29 32  1  0
 29 28  1  0
 30 29  2  0
 31 30  1  0
 31 26  2  0
 32 33  1  0
 33 34  1  0
 34 35  2  0
 36 35  1  0
 36 40  1  0
 37 36  2  0
 38 33  2  0
 38 37  1  0
 39 38  1  0
 41 42  1  0
 42 45  1  0
 42 44  1  0
 43 41  2  0
 46 21  1  0
 47 46  1  0
 48 46  1  0
 49 50  1  0
 49  1  1  0
 50 51  1  0
 50 52  1  0
 53 54  1  0
 53 50  1  0
 55 54  1  0
 56 67  2  0
 57 55  1  0
 57 62  1  0
 58 66  1  0
 58 68  1  0
 59 65  1  0
 59 61  1  0
 60 66  1  0
 61 62  2  0
 61 60  1  0
 63 64  1  0
 63 57  2  0
 64 59  2  0
 65 58  1  0
 66 56  1  0
 68 70  2  0
 69 68  1  0
 71 69  1  0
 72 81  2  0
 72 77  1  0
 73 69  1  0
 73 77  1  0
 74 73  1  0
 75 76  1  0
 75 74  1  0
 76 72  1  0
 77 78  2  0
 78 79  1  0
 80 79  2  0
 81 80  1  0
 82 56  1  0
 82 83  1  0
 82 92  1  0
 83 86  1  0
 84 88  1  0
 84 83  1  0
 85 84  2  0
 88 87  1  0
 90 88  1  0
 90 91  1  0
 90 89  1  0
 92 95  1  1
 92 93  1  0
 94 92  1  0
M  ISO  4   8 100  20 100  54 101  55 101
M  END
>  <TORSDO>  (47) 
F 21

>  <SCORE>  (47) 
15.598

>  <name>  (47) 
46

>  <ligand_id>  (47) 
46

>  <original_smiles>  (47) 
[H]c1nc(C([H])([H])C([H])([H])[N+]([H])([H])C([H])([H])C([H])([H])Oc2c([H])c([H])c3c(c2[H])C([H])([H])N(C(=O)C([H])(N([H])C(=O)C([H])(N([H])C([H])([H])[H])C([H])([H])[H])C(C([H])([H])[H])(C([H])([H])[H])C([H])([H])[H])C([H])(C(=O)N([H])C2([H])c4c([H])c([H])c([H])c([H])c4C([H])([H])C([H])([H])C2([H])[H])C3([H])[H])c([H])c(C2([H])N(C(=O)N3C([H])([H])C([H])([H])C([H])([H])C([H])(n4nc(-c5c([H])c([H])c(Oc6c([H])c([H])c(F)c([H])c6F)c([H])c5[H])c(C(=O)N([H])[H])c4N([H])[H])C3([H])[H])C([H])([H])C([H])([H])C2([H])[H])c1[H]

>  <smiles>  (47) 
[H]c1nc(C([H])([H])C([H])([H])[N+]([H])([H])C([H])([H])C([H])([H])Oc2c([H])c([H])c3c(c2[H])C([H])([H])N(C(=O)C([H])(N([H])C(=O)C([H])(N([H])C([H])([H])[H])C([H])([H])[H])C(C([H])([H])[H])(C([H])([H])[H])C([H])([H])[H])C([H])(C(=O)N([H])C2([H])c4c([H])c([H])c([H])c([H])c4C([H])([H])C([H])([H])C2([H])[H])C3([H])[H])c([H])c(C2([H])N(C(=O)N3C([H])([H])C([H])([H])C([H])([H])C([H])(n4nc(-c5c([H])c([H])c(Oc6c([H])c([H])c(F)c([H])c6F)c([H])c5[H])c(C(=O)N([H])[H])c4N([H])[H])C3([H])[H])C([H])([H])C([H])([H])C2([H])[H])c1[H]

$$$$
47:0:0
     RDKit          3D

 97106  0  0  1  0  0  0  0  0999 V2000
  -30.5190  -20.3180   15.6380 C   0  0  0  0  0  3  0  0  0  0  0  0
  -30.9950  -21.4110   16.3800 C   0  0  0  0  0  3  0  0  0  0  0  0
  -30.5470  -20.3550   14.2230 C   0  0  0  0  0  0  0  0  0  0  0  0
  -31.0300  -21.5610   13.6130 C   0  0  0  0  0  0  0  0  0  0  0  0
  -31.5040  -22.5220   15.6970 C   0  0  0  0  0  0  0  0  0  0  0  0
  -31.5050  -22.5930   14.3590 N   0  0  0  0  0  0  0  0  0  0  0  0
  -32.1470  -23.5390   16.4080 N   0  0  0  0  0  0  0  0  0  0  0  0
  -33.1410  -23.5330   16.2110 H   0  0  0  0  0  0  0  0  0  0  0  0
  -30.7000  -21.6980    9.1350 C   0  0  0  0  0  2  0  0  0  0  0  0
  -29.7470  -22.5120   10.0240 C   0  0  0  0  0  2  0  0  0  0  0  0
  -32.1050  -21.6270    9.7480 C   0  0  0  0  0  2  0  0  0  0  0  0
  -29.7010  -21.9590   11.4600 C   0  0  0  0  0  2  0  0  0  0  0  0
  -32.0580  -21.0880   11.1880 C   0  0  0  0  0  2  0  0  0  0  0  0
  -31.1070  -21.9000   12.1010 C   0  0  0  0  0  3  0  0  0  0  0  0
  -30.1050  -19.1160   13.4260 C   0  0  0  0  0  2  0  0  0  0  0  0
  -30.8680  -17.7860   13.6230 C   0  0  0  0  0  2  0  0  0  0  0  0
  -33.0660  -16.8620   12.9130 C   0  0  0  0  0  0  0  0  0  0  0  0
  -35.5140  -16.6870   13.0680 C   0  0  0  0  0  2  0  0  0  0  0  0
  -35.9860  -17.6170   14.2070 C   0  0  0  0  0  2  0  0  0  0  0  0
  -36.2360  -19.0400   13.6710 C   0  0  0  0  0  2  0  0  0  0  0  0
  -35.0500  -19.5790   12.8240 C   0  0  0  0  0  3  0  0  0  0  0  0
  -34.5880  -18.5290   11.7850 C   0  0  0  0  0  2  0  0  0  0  0  0
  -34.2950  -17.2720   12.4970 N   0  0  0  0  0  0  0  0  0  0  0  0
  -32.8680  -15.7970   13.5030 O   0  0  0  0  0  0  0  0  0  0  0  0
  -32.0980  -17.7830   12.8220 N   0  0  0  0  0  0  0  0  0  0  0  0
  -32.3320  -18.6310   12.3280 H   0  0  0  0  0  0  0  0  0  0  0  0
  -35.1610  -22.1450   12.6610 C   0  0  0  0  0  0  0  0  0  0  0  0
  -35.7150  -22.9790   11.7270 C   0  0  0  0  0  0  0  0  0  0  0  0
  -36.2610  -22.1310   10.7150 C   0  0  0  0  0  0  0  0  0  0  0  0
  -35.3780  -20.8570   12.1950 N   0  0  0  0  0  0  0  0  0  0  0  0
  -35.9980  -20.8600   10.9880 N   0  0  0  0  0  0  0  0  0  0  0  0
  -37.0690  -22.4510    9.5320 C   0  0  0  0  0  0  0  0  0  0  0  0
  -36.5410  -22.3400    8.2260 C   0  0  0  0  0  3  0  0  0  0  0  0
  -37.3320  -22.6710    7.1050 C   0  0  0  0  0  3  0  0  0  0  0  0
  -38.6600  -23.1220    7.2830 C   0  0  0  0  0  0  0  0  0  0  0  0
  -39.1880  -23.2080    8.5820 C   0  0  0  0  0  3  0  0  0  0  0  0
  -38.4030  -22.8740    9.6980 C   0  0  0  0  0  3  0  0  0  0  0  0
  -39.5100  -23.4430    6.2510 O   0  0  0  0  0  0  0  0  0  0  0  0
  -39.3590  -24.5970    5.5260 C   0  0  0  0  0  0  0  0  0  0  0  0
  -39.8290  -25.8420    5.9990 C   0  0  0  0  0  3  0  0  0  0  0  0
  -39.7160  -26.9900    5.1910 C   0  0  0  0  0  3  0  0  0  0  0  0
  -39.1400  -26.8960    3.9090 C   0  0  0  0  0  0  0  0  0  0  0  0
  -38.6780  -25.6580    3.4340 C   0  0  0  0  0  3  0  0  0  0  0  0
  -38.7890  -24.5100    4.2390 C   0  0  0  0  0  0  0  0  0  0  0  0
  -38.3600  -23.3150    3.7690 F   0  0  0  0  0  0  0  0  0  0  0  0
  -39.0390  -27.9990    3.1290 F   0  0  0  0  0  0  0  0  0  0  0  0
  -35.8200  -24.4740   11.8140 C   0  0  0  0  0  0  0  0  0  0  0  0
  -35.3410  -25.1800   10.7950 N   0  0  0  0  0  0  0  0  0  0  0  0
  -36.2840  -25.0270   12.8100 O   0  0  0  0  0  0  0  0  0  0  0  0
  -34.9470  -24.7240    9.9850 H   0  0  0  0  0  0  0  0  0  0  0  0
  -35.3710  -26.1890   10.8250 H   0  0  0  0  0  0  0  0  0  0  0  0
  -34.5120  -22.3670   13.8700 N   0  0  0  0  0  0  0  0  0  0  0  0
  -34.3790  -23.2960   14.2530 H   0  0  0  0  0  0  0  0  0  0  0  0
  -34.2200  -21.6330   14.5030 H   0  0  0  0  0  0  0  0  0  0  0  0
  -31.6440  -24.9060   16.2760 C   0  0  0  0  0  2  0  0  0  0  0  0
  -31.8090  -25.6740   17.6100 C   0  0  0  0  0  2  0  0  0  0  0  0
  -32.5190  -26.9090   17.4740 O   0  0  0  0  0  0  0  0  0  0  0  0
  -38.6200  -29.6700   15.1240 C   0  0  0  0  0  0  0  0  0  0  0  0
  -33.8840  -26.9820   17.6910 C   0  0  0  0  0  0  0  0  0  0  0  0
  -38.8480  -27.9630   16.9020 C   0  0  0  0  0  3  0  0  0  0  0  0
  -36.6810  -27.2770   18.0590 C   0  0  0  0  0  0  0  0  0  0  0  0
  -36.7350  -29.3980   16.7340 C   0  0  0  0  0  2  0  0  0  0  0  0
  -35.9690  -28.2300   17.3220 C   0  0  0  0  0  0  0  0  0  0  0  0
  -34.5760  -28.0850   17.1370 C   0  0  0  0  0  3  0  0  0  0  0  0
  -34.6240  -26.0240   18.4220 C   0  0  0  0  0  3  0  0  0  0  0  0
  -36.0120  -26.1700   18.6100 C   0  0  0  0  0  3  0  0  0  0  0  0
  -38.1670  -27.5060   18.2210 C   0  0  0  0  0  2  0  0  0  0  0  0
  -38.0670  -29.0280   16.1920 N   0  0  0  0  0  0  0  0  0  0  0  0
  -39.7760  -29.4190   14.7540 O   0  0  0  0  0  0  0  0  0  0  0  0
  -39.1170  -26.7170   16.0290 C   0  0  0  0  0  0  0  0  0  0  0  0
  -39.9670  -25.8070   16.5310 N   0  0  0  0  0  0  0  0  0  0  0  0
  -38.5480  -26.5730   14.9440 O   0  0  0  0  0  0  0  0  0  0  0  0
  -40.4000  -26.0050   17.4230 H   0  0  0  0  0  0  0  0  0  0  0  0
  -42.0430  -22.8720   16.9050 C   0  0  0  0  0  0  0  0  0  0  0  0
  -40.3360  -24.5380   15.9050 C   0  0  0  0  0  3  0  0  0  0  0  0
  -39.2710  -23.4530   16.1780 C   0  0  0  0  0  2  0  0  0  0  0  0
  -39.5780  -22.6000   17.4130 C   0  0  0  0  0  2  0  0  0  0  0  0
  -40.9300  -21.9000   17.2580 C   0  0  0  0  0  2  0  0  0  0  0  0
  -41.7620  -24.1190   16.2840 C   0  0  0  0  0  0  0  0  0  0  0  0
  -42.8280  -25.0030   16.0080 C   0  0  0  0  0  3  0  0  0  0  0  0
  -44.1530  -24.6620   16.3400 C   0  0  0  0  0  3  0  0  0  0  0  0
  -44.4270  -23.4190   16.9390 C   0  0  0  0  0  3  0  0  0  0  0  0
  -43.3750  -22.5280   17.2180 C   0  0  0  0  0  3  0  0  0  0  0  0
  -37.8400  -30.7660   14.3340 C   0  0  0  0  0  3  0  0  0  0  0  0
  -38.7290  -31.9280   14.1920 N   0  0  0  0  0  0  0  0  0  0  0  0
  -38.5070  -33.1280   14.7440 C   0  0  0  0  0  0  0  0  0  0  0  0
  -37.4820  -33.3950   15.3760 O   0  0  0  0  0  0  0  0  0  0  0  0
  -39.6140  -31.7660   13.7330 H   0  0  0  0  0  0  0  0  0  0  0  0
  -40.0500  -34.7100   15.9460 C   0  0  0  0  0  1  0  0  0  0  0  0
  -39.5960  -34.2040   14.5670 C   0  0  0  0  0  3  0  0  0  0  0  0
  -39.2350  -35.0790   12.3020 C   0  0  0  0  0  1  0  0  0  0  0  0
  -39.1640  -35.3490   13.7350 N   0  0  0  0  0  0  0  0  0  0  0  0
  -39.7280  -36.1700   13.9320 H   0  0  0  0  0  0  0  0  0  0  0  0
  -37.3330  -30.2750   12.9230 C   0  0  1  0  0  0  0  0  0  0  0  0
  -38.4090  -30.3460   11.8150 C   0  0  0  0  0  1  0  0  0  0  0  0
  -36.8350  -28.8140   13.0040 C   0  0  0  0  0  1  0  0  0  0  0  0
  -36.1270  -31.1310   12.4690 C   0  0  0  0  0  1  0  0  0  0  0  0
  1  2  1  0
  3  1  2  0
  4  3  1  0
  4  6  2  0
  5  2  2  0
  5  7  1  0
  6  5  1  0
  8  7  1  0
  9 11  1  0
  9 10  1  0
 10 12  1  0
 11 13  1  0
 12 14  1  0
 13 14  1  0
 14  4  1  0
 15 16  1  0
 15  3  1  0
 17 24  2  0
 18 19  1  0
 20 19  1  0
 21 22  1  0
 21 20  1  0
 22 23  1  0
 23 17  1  0
 23 18  1  0
 25 17  1  0
 25 16  1  0
 26 25  1  0
 27 52  1  0
 28 47  1  0
 28 27  2  0
 29 31  2  0
 29 28  1  0
 30 27  1  0
 30 21  1  0
 31 30  1  0
 32 37  1  0
 32 29  1  0
 33 32  2  0
 34 35  2  0
 34 33  1  0
 35 36  1  0
 36 37  2  0
 38 35  1  0
 39 40  1  0
 39 38  1  0
 41 40  2  0
 42 41  1  0
 43 42  2  0
 43 44  1  0
 44 39  2  0
 45 44  1  0
 46 42  1  0
 47 49  2  0
 48 51  1  0
 48 47  1  0
 50 48  1  0
 52 53  1  0
 52 54  1  0
 55  7  1  0
 55 56  1  0
 57 56  1  0
 57 59  1  0
 58 68  1  0
 59 65  1  0
 60 70  1  0
 60 67  1  0
 61 67  1  0
 61 66  1  0
 62 63  1  0
 63 61  2  0
 64 63  1  0
 64 59  2  0
 65 66  2  0
 68 62  1  0
 68 60  1  0
 69 58  2  0
 70 71  1  0
 71 73  1  0
 72 70  2  0
 74 83  1  0
 74 78  1  0
 75 76  1  0
 75 79  1  0
 75 71  1  0
 76 77  1  0
 78 77  1  0
 79 74  2  0
 80 79  1  0
 80 81  2  0
 81 82  1  0
 82 83  2  0
 84 58  1  0
 85 84  1  0
 85 86  1  0
 86 87  2  0
 88 85  1  0
 90 86  1  0
 90 89  1  0
 91 92  1  0
 92 93  1  0
 92 90  1  0
 94 96  1  1
 94 84  1  0
 95 94  1  0
 97 94  1  0
M  ISO  4  17 100  25 100  56 101  57 101
M  END
>  <TORSDO>  (48) 
F 21

>  <SCORE>  (48) 
-1.224

>  <name>  (48) 
47

>  <ligand_id>  (48) 
47

>  <original_smiles>  (48) 
[H]c1c(N([H])C([H])([H])C([H])([H])Oc2c([H])c([H])c3c(c2[H])C([H])([H])N(C(=O)C([H])(N([H])C(=O)C([H])(N([H])C([H])([H])[H])C([H])([H])[H])C(C([H])([H])[H])(C([H])([H])[H])C([H])([H])[H])C([H])(C(=O)N([H])C2([H])c4c([H])c([H])c([H])c([H])c4C([H])([H])C([H])([H])C2([H])[H])C3([H])[H])nc(C2([H])C([H])([H])C([H])([H])C([H])([H])C([H])([H])C2([H])[H])c(C([H])([H])C([H])([H])N([H])C(=O)N2C([H])([H])C([H])([H])C([H])([H])C([H])(n3nc(-c4c([H])c([H])c(Oc5c([H])c([H])c(F)c([H])c5F)c([H])c4[H])c(C(=O)N([H])[H])c3N([H])[H])C2([H])[H])c1[H]

>  <smiles>  (48) 
[H]c1c(N([H])C([H])([H])C([H])([H])Oc2c([H])c([H])c3c(c2[H])C([H])([H])N(C(=O)C([H])(N([H])C(=O)C([H])(N([H])C([H])([H])[H])C([H])([H])[H])C(C([H])([H])[H])(C([H])([H])[H])C([H])([H])[H])C([H])(C(=O)N([H])C2([H])c4c([H])c([H])c([H])c([H])c4C([H])([H])C([H])([H])C2([H])[H])C3([H])[H])nc(C2([H])C([H])([H])C([H])([H])C([H])([H])C([H])([H])C2([H])[H])c(C([H])([H])C([H])([H])N([H])C(=O)N2C([H])([H])C([H])([H])C([H])([H])C([H])(n3nc(-c4c([H])c([H])c(Oc5c([H])c([H])c(F)c([H])c5F)c([H])c4[H])c(C(=O)N([H])[H])c3N([H])[H])C2([H])[H])c1[H]

$$$$
48:0:0
     RDKit          3D

 98107  0  0  1  0  0  0  0  0999 V2000
  -30.2990  -20.5810   23.7840 C   0  0  0  0  0  2  0  0  0  0  0  0
  -28.2990  -19.4650   24.5650 C   0  0  0  0  0  2  0  0  0  0  0  0
  -29.2300  -21.6030   24.2410 C   0  0  0  0  0  3  0  0  0  0  0  0
  -29.5840  -19.2150   23.7620 C   0  0  0  0  0  3  0  0  0  0  0  0
  -27.9630  -20.8630   24.2590 N   0  0  0  0  0  4  0  0  0  0  0  0
  -27.2930  -21.2520   24.9000 H   0  0  0  0  0  0  0  0  0  0  0  0
  -27.5870  -20.8760   23.3250 H   0  0  0  0  0  0  0  0  0  0  0  0
  -28.9390  -24.1270   24.0950 C   0  0  0  0  0  3  0  0  0  0  0  0
  -29.2820  -22.9050   22.0190 C   0  0  0  0  0  3  0  0  0  0  0  0
  -28.9260  -25.3420   23.3780 C   0  0  0  0  0  3  0  0  0  0  0  0
  -29.2840  -24.1210   21.3050 C   0  0  0  0  0  3  0  0  0  0  0  0
  -29.1460  -22.8990   23.4280 C   0  0  0  0  0  0  0  0  0  0  0  0
  -29.1190  -25.3480   21.9810 C   0  0  0  0  0  0  0  0  0  0  0  0
  -29.2250  -26.6650   21.2250 C   0  0  0  0  0  2  0  0  0  0  0  0
  -28.3920  -26.7060   20.0640 O   0  0  0  0  0  0  0  0  0  0  0  0
  -24.6100  -31.8690   23.2120 C   0  0  0  0  0  0  0  0  0  0  0  0
  -27.2460  -27.4670   20.1220 C   0  0  0  0  0  0  0  0  0  0  0  0
  -23.3950  -30.4910   21.5520 C   0  0  0  0  0  3  0  0  0  0  0  0
  -24.8430  -28.9550   20.1230 C   0  0  0  0  0  0  0  0  0  0  0  0
  -25.9130  -30.8570   21.3450 C   0  0  0  0  0  2  0  0  0  0  0  0
  -25.9970  -29.4850   20.7120 C   0  0  0  0  0  0  0  0  0  0  0  0
  -27.2010  -28.7540   20.7070 C   0  0  0  0  0  3  0  0  0  0  0  0
  -26.0810  -26.9490   19.5200 C   0  0  0  0  0  3  0  0  0  0  0  0
  -24.8780  -27.6830   19.5240 C   0  0  0  0  0  3  0  0  0  0  0  0
  -23.6010  -29.8140   20.1690 C   0  0  0  0  0  2  0  0  0  0  0  0
  -24.6580  -31.0860   22.0970 N   0  0  0  0  0  0  0  0  0  0  0  0
  -23.5310  -32.1420   23.7580 O   0  0  0  0  0  0  0  0  0  0  0  0
  -22.7380  -29.4670   22.5030 C   0  0  0  0  0  0  0  0  0  0  0  0
  -21.4110  -29.3030   22.3750 N   0  0  0  0  0  0  0  0  0  0  0  0
  -23.4170  -28.8230   23.3060 O   0  0  0  0  0  0  0  0  0  0  0  0
  -20.9250  -29.8750   21.6970 H   0  0  0  0  0  0  0  0  0  0  0  0
  -18.0260  -28.1370   22.8480 C   0  0  0  0  0  0  0  0  0  0  0  0
  -20.5850  -28.3640   23.1320 C   0  0  0  0  0  3  0  0  0  0  0  0
  -20.6740  -26.9390   22.5400 C   0  0  0  0  0  2  0  0  0  0  0  0
  -19.5730  -26.6380   21.5200 C   0  0  0  0  0  2  0  0  0  0  0  0
  -18.1910  -26.7920   22.1610 C   0  0  0  0  0  2  0  0  0  0  0  0
  -19.1510  -28.8820   23.2900 C   0  0  0  0  0  0  0  0  0  0  0  0
  -18.9440  -30.1430   23.8910 C   0  0  0  0  0  3  0  0  0  0  0  0
  -17.6450  -30.6580   24.0560 C   0  0  0  0  0  3  0  0  0  0  0  0
  -16.5340  -29.9070   23.6340 C   0  0  0  0  0  3  0  0  0  0  0  0
  -16.7250  -28.6480   23.0350 C   0  0  0  0  0  3  0  0  0  0  0  0
  -25.9020  -32.4830   23.8410 C   0  0  0  0  0  3  0  0  0  0  0  0
  -25.5910  -33.8630   24.2380 N   0  0  0  0  0  0  0  0  0  0  0  0
  -25.9020  -34.9480   23.5150 C   0  0  0  0  0  0  0  0  0  0  0  0
  -26.5560  -34.8910   22.4700 O   0  0  0  0  0  0  0  0  0  0  0  0
  -25.0160  -33.9810   25.0580 H   0  0  0  0  0  0  0  0  0  0  0  0
  -24.1470  -36.7300   23.2640 C   0  0  0  0  0  1  0  0  0  0  0  0
  -25.4090  -36.3120   24.0360 C   0  0  0  0  0  3  0  0  0  0  0  0
  -27.5560  -37.1820   24.8480 C   0  0  0  0  0  1  0  0  0  0  0  0
  -26.4270  -37.3800   23.9420 N   0  0  0  0  0  0  0  0  0  0  0  0
  -26.0150  -38.2880   24.1420 H   0  0  0  0  0  0  0  0  0  0  0  0
  -26.4490  -31.6550   25.0680 C   0  0  1  0  0  0  0  0  0  0  0  0
  -25.3800  -31.3510   26.1430 C   0  0  0  0  0  1  0  0  0  0  0  0
  -27.0380  -30.3070   24.5910 C   0  0  0  0  0  1  0  0  0  0  0  0
  -27.6060  -32.4250   25.7490 C   0  0  0  0  0  1  0  0  0  0  0  0
  -29.2260  -18.8640   22.3880 N   0  0  0  0  0  0  0  0  0  0  0  0
  -29.9430  -19.1720   21.7390 H   0  0  0  0  0  0  0  0  0  0  0  0
  -29.0530  -17.4300   22.1810 C   0  0  0  0  0  2  0  0  0  0  0  0
  -30.7300  -17.5500   20.2750 C   0  0  0  0  0  1  0  0  0  0  0  0
  -30.3170  -16.7880   21.5590 C   0  0  0  0  0  3  0  0  0  0  0  0
  -30.7090  -14.4320   20.6410 C   0  0  0  0  0  0  0  0  0  0  0  0
  -30.4250  -12.3060   19.4150 C   0  0  0  0  0  2  0  0  0  0  0  0
  -29.4950  -12.5330   18.2050 C   0  0  0  0  0  2  0  0  0  0  0  0
  -28.0160  -12.3900   18.6120 C   0  0  0  0  0  2  0  0  0  0  0  0
  -27.6660  -13.2060   19.8840 C   0  0  0  0  0  3  0  0  0  0  0  0
  -28.7020  -12.9490   20.9990 C   0  0  0  0  0  2  0  0  0  0  0  0
  -30.0390  -13.2620   20.4620 N   0  0  0  0  0  0  0  0  0  0  0  0
  -31.8170  -14.6520   20.1440 O   0  0  0  0  0  0  0  0  0  0  0  0
  -30.0170  -15.3720   21.3110 N   0  0  0  0  0  0  0  0  0  0  0  0
  -29.1300  -15.0530   21.6730 H   0  0  0  0  0  0  0  0  0  0  0  0
  -25.2600  -13.8160   20.5670 C   0  0  0  0  0  0  0  0  0  0  0  0
  -24.1840  -13.0430   20.9150 C   0  0  0  0  0  0  0  0  0  0  0  0
  -24.6390  -11.6900   20.8690 C   0  0  0  0  0  0  0  0  0  0  0  0
  -26.3040  -12.9320   20.3380 N   0  0  0  0  0  0  0  0  0  0  0  0
  -25.9320  -11.6480   20.5740 N   0  0  0  0  0  0  0  0  0  0  0  0
  -23.9050  -10.4290   21.0380 C   0  0  0  0  0  0  0  0  0  0  0  0
  -24.3600   -9.4220   21.9180 C   0  0  0  0  0  3  0  0  0  0  0  0
  -23.6280   -8.2260   22.0760 C   0  0  0  0  0  3  0  0  0  0  0  0
  -22.4270   -8.0290   21.3540 C   0  0  0  0  0  0  0  0  0  0  0  0
  -21.9900   -9.0250   20.4630 C   0  0  0  0  0  3  0  0  0  0  0  0
  -22.7230  -10.2130   20.3020 C   0  0  0  0  0  3  0  0  0  0  0  0
  -21.6650   -6.8880   21.4240 O   0  0  0  0  0  0  0  0  0  0  0  0
  -21.6870   -6.0740   22.5270 C   0  0  0  0  0  0  0  0  0  0  0  0
  -21.4020   -6.5640   23.8210 C   0  0  0  0  0  3  0  0  0  0  0  0
  -21.3650   -5.6790   24.9160 C   0  0  0  0  0  3  0  0  0  0  0  0
  -21.6030   -4.3050   24.7210 C   0  0  0  0  0  0  0  0  0  0  0  0
  -21.8830   -3.8140   23.4340 C   0  0  0  0  0  3  0  0  0  0  0  0
  -21.9200   -4.6960   22.3390 C   0  0  0  0  0  0  0  0  0  0  0  0
  -22.1670   -4.2150   21.0970 F   0  0  0  0  0  0  0  0  0  0  0  0
  -21.5610   -3.4530   25.7720 F   0  0  0  0  0  0  0  0  0  0  0  0
  -22.7870  -13.5240   21.1810 C   0  0  0  0  0  0  0  0  0  0  0  0
  -22.0510  -12.8200   22.0360 N   0  0  0  0  0  0  0  0  0  0  0  0
  -22.3560  -14.5560   20.6690 O   0  0  0  0  0  0  0  0  0  0  0  0
  -22.4100  -11.9830   22.4700 H   0  0  0  0  0  0  0  0  0  0  0  0
  -21.1120  -13.1220   22.2540 H   0  0  0  0  0  0  0  0  0  0  0  0
  -25.4330  -15.1870   20.4080 N   0  0  0  0  0  0  0  0  0  0  0  0
  -24.6630  -15.8420   20.4950 H   0  0  0  0  0  0  0  0  0  0  0  0
  -26.2890  -15.6230   20.0860 H   0  0  0  0  0  0  0  0  0  0  0  0
  1  3  1  0
  3 12  1  0
  3  5  1  0
  4 56  1  0
  4  1  1  0
  4  2  1  0
  5  2  1  0
  5  6  1  0
  7  5  1  0
  9 12  2  0
 10  8  2  0
 11 13  2  0
 11  9  1  0
 12  8  1  0
 13 10  1  0
 14 13  1  0
 15 17  1  0
 15 14  1  0
 16 27  2  0
 17 22  1  0
 18 26  1  0
 18 28  1  0
 19 25  1  0
 19 21  1  0
 20 26  1  0
 21 20  1  0
 22 21  2  0
 23 24  1  0
 23 17  2  0
 24 19  2  0
 25 18  1  0
 26 16  1  0
 28 30  2  0
 29 28  1  0
 31 29  1  0
 32 41  2  0
 32 37  1  0
 33 29  1  0
 33 37  1  0
 34 33  1  0
 35 36  1  0
 35 34  1  0
 36 32  1  0
 37 38  2  0
 38 39  1  0
 40 39  2  0
 41 40  1  0
 42 16  1  0
 42 43  1  0
 42 52  1  0
 43 46  1  0
 44 48  1  0
 44 43  1  0
 45 44  2  0
 48 47  1  0
 50 48  1  0
 50 51  1  0
 50 49  1  0
 52 55  1  1
 52 53  1  0
 54 52  1  0
 57 56  1  0
 58 56  1  0
 60 59  1  0
 60 58  1  0
 61 69  1  0
 62 67  1  0
 63 64  1  0
 63 62  1  0
 65 64  1  0
 65 74  1  0
 65 66  1  0
 67 61  1  0
 67 66  1  0
 68 61  2  0
 69 60  1  0
 69 70  1  0
 71 72  2  0
 72 91  1  0
 73 72  1  0
 73 76  1  0
 74 71  1  0
 74 75  1  0
 75 73  2  0
 76 77  1  0
 77 78  2  0
 79 82  1  0
 79 78  1  0
 80 79  2  0
 81 80  1  0
 81 76  2  0
 82 83  1  0
 83 84  1  0
 84 85  2  0
 86 85  1  0
 86 90  1  0
 87 86  2  0
 88 83  2  0
 88 87  1  0
 89 88  1  0
 91 92  1  0
 92 95  1  0
 92 94  1  0
 93 91  2  0
 96 97  1  0
 96 71  1  0
 98 96  1  0
M  ISO  4  14 101  15 101  61 100  69 100
M  END
>  <TORSDO>  (49) 
F 21

>  <SCORE>  (49) 
4.982

>  <name>  (49) 
48

>  <ligand_id>  (49) 
48

>  <original_smiles>  (49) 
[H]c1c([H])c([H])c2c(c1[H])C([H])([H])C([H])([H])C([H])([H])C2([H])N([H])C(=O)C1([H])N(C(=O)C([H])(N([H])C(=O)C([H])(N([H])C([H])([H])[H])C([H])([H])[H])C(C([H])([H])[H])(C([H])([H])[H])C([H])([H])[H])C([H])([H])c2c([H])c(OC([H])([H])c3c([H])c([H])c(C4([H])C([H])([H])C([H])(N([H])C([H])([H])C([H])(N([H])C(=O)N5C([H])([H])C([H])([H])C([H])([H])C([H])(n6nc(-c7c([H])c([H])c(Oc8c([H])c([H])c(F)c([H])c8F)c([H])c7[H])c(C(=O)N([H])[H])c6N([H])[H])C5([H])[H])C([H])([H])[H])C([H])([H])[N+]4([H])[H])c([H])c3[H])c([H])c([H])c2C1([H])[H]

>  <smiles>  (49) 
[H]c1c([H])c([H])c2c(c1[H])C([H])([H])C([H])([H])C([H])([H])C2([H])N([H])C(=O)C1([H])N(C(=O)C([H])(N([H])C(=O)C([H])(N([H])C([H])([H])[H])C([H])([H])[H])C(C([H])([H])[H])(C([H])([H])[H])C([H])([H])[H])C([H])([H])c2c([H])c(OC([H])([H])c3c([H])c([H])c(C4([H])C([H])([H])C([H])(N([H])C([H])([H])C([H])(N([H])C(=O)N5C([H])([H])C([H])([H])C([H])([H])C([H])(n6nc(-c7c([H])c([H])c(Oc8c([H])c([H])c(F)c([H])c8F)c([H])c7[H])c(C(=O)N([H])[H])c6N([H])[H])C5([H])[H])C([H])([H])[H])C([H])([H])[N+]4([H])[H])c([H])c3[H])c([H])c([H])c2C1([H])[H]

$$$$
49:0:0
     RDKit          3D

102111  0  0  1  0  0  0  0  0999 V2000
  -33.3220  -24.1510   18.9400 C   0  0  0  0  0  2  0  0  0  0  0  0
  -33.4860  -25.2860   19.9550 C   0  0  0  0  0  2  0  0  0  0  0  0
  -31.1280  -25.1550   18.2680 C   0  0  0  0  0  2  0  0  0  0  0  0
  -31.8280  -23.8670   18.7330 C   0  0  0  0  0  3  0  0  0  0  0  0
  -32.7220  -26.5630   19.5390 C   0  0  0  0  0  3  0  0  0  0  0  0
  -32.9250  -27.6360   20.6290 C   0  0  0  0  0  1  0  0  0  0  0  0
  -31.2790  -26.2700   19.2500 N   0  0  1  0  0  4  0  0  0  0  0  0
  -30.8610  -25.9500   20.1130 H   0  0  0  0  0  0  0  0  0  0  0  0
  -31.5640  -22.6990   17.7580 C   0  0  0  0  0  2  0  0  0  0  0  0
  -31.9780  -21.4190   18.3580 N   0  0  0  0  0  4  0  0  0  0  0  0
  -32.9810  -21.3570   18.3910 H   0  0  0  0  0  0  0  0  0  0  0  0
  -31.6380  -21.3900   19.3050 H   0  0  0  0  0  0  0  0  0  0  0  0
  -31.4560  -20.2090   17.7110 C   0  0  0  0  0  2  0  0  0  0  0  0
  -32.5740  -18.5080   19.2060 C   0  0  0  0  0  3  0  0  0  0  0  0
  -32.5300  -17.5660   20.2460 C   0  0  0  0  0  3  0  0  0  0  0  0
  -30.1590  -18.8020   19.3800 C   0  0  0  0  0  3  0  0  0  0  0  0
  -31.3890  -19.1310   18.7720 C   0  0  0  0  0  0  0  0  0  0  0  0
  -31.3020  -17.2180   20.8450 C   0  0  0  0  0  0  0  0  0  0  0  0
  -30.1070  -17.8470   20.4160 C   0  0  0  0  0  0  0  0  0  0  0  0
  -28.7640  -17.5090   21.0470 C   0  0  0  0  0  1  0  0  0  0  0  0
  -31.2950  -16.0950   21.8730 C   0  0  0  0  0  2  0  0  0  0  0  0
  -30.9080  -14.2150   20.2880 C   0  0  0  0  0  0  0  0  0  0  0  0
  -30.3820  -12.2360   18.9220 C   0  0  0  0  0  2  0  0  0  0  0  0
  -29.4170  -12.5700   17.7720 C   0  0  0  0  0  2  0  0  0  0  0  0
  -27.9560  -12.4740   18.2470 C   0  0  0  0  0  2  0  0  0  0  0  0
  -27.7040  -13.2600   19.5600 C   0  0  0  0  0  3  0  0  0  0  0  0
  -28.7720  -12.9170   20.6200 C   0  0  0  0  0  2  0  0  0  0  0  0
  -30.1080  -13.1500   20.0390 N   0  0  0  0  0  0  0  0  0  0  0  0
  -31.8940  -14.4900   19.5970 O   0  0  0  0  0  0  0  0  0  0  0  0
  -30.5960  -14.9110   21.3870 N   0  0  0  0  0  0  0  0  0  0  0  0
  -29.8050  -14.5890   21.9230 H   0  0  0  0  0  0  0  0  0  0  0  0
  -25.3320  -13.9360   20.3030 C   0  0  0  0  0  0  0  0  0  0  0  0
  -24.2550  -13.1940   20.7070 C   0  0  0  0  0  0  0  0  0  0  0  0
  -24.6830  -11.8300   20.6850 C   0  0  0  0  0  0  0  0  0  0  0  0
  -26.3530  -13.0270   20.0650 N   0  0  0  0  0  0  0  0  0  0  0  0
  -25.9650  -11.7570   20.3480 N   0  0  0  0  0  0  0  0  0  0  0  0
  -23.9330  -10.5880   20.9080 C   0  0  0  0  0  0  0  0  0  0  0  0
  -24.3690   -9.6190   21.8400 C   0  0  0  0  0  3  0  0  0  0  0  0
  -23.6200   -8.4410   22.0500 C   0  0  0  0  0  3  0  0  0  0  0  0
  -22.4220   -8.2240   21.3300 C   0  0  0  0  0  0  0  0  0  0  0  0
  -22.0050   -9.1810   20.3870 C   0  0  0  0  0  3  0  0  0  0  0  0
  -22.7540  -10.3510   20.1750 C   0  0  0  0  0  3  0  0  0  0  0  0
  -21.6430   -7.0990   21.4490 O   0  0  0  0  0  0  0  0  0  0  0  0
  -21.6140   -6.3630   22.6080 C   0  0  0  0  0  0  0  0  0  0  0  0
  -21.2670   -6.9420   23.8480 C   0  0  0  0  0  3  0  0  0  0  0  0
  -21.1800   -6.1360   25.0010 C   0  0  0  0  0  3  0  0  0  0  0  0
  -21.4310   -4.7540   24.9150 C   0  0  0  0  0  0  0  0  0  0  0  0
  -21.7700   -4.1750   23.6790 C   0  0  0  0  0  3  0  0  0  0  0  0
  -21.8580   -4.9780   22.5280 C   0  0  0  0  0  0  0  0  0  0  0  0
  -22.1640   -4.4120   21.3360 F   0  0  0  0  0  0  0  0  0  0  0  0
  -21.3410   -3.9780   26.0210 F   0  0  0  0  0  0  0  0  0  0  0  0
  -22.8750  -13.7060   21.0050 C   0  0  0  0  0  0  0  0  0  0  0  0
  -22.1520  -13.0390   21.8990 N   0  0  0  0  0  0  0  0  0  0  0  0
  -22.4480  -14.7340   20.4810 O   0  0  0  0  0  0  0  0  0  0  0  0
  -22.5100  -12.2070   22.3430 H   0  0  0  0  0  0  0  0  0  0  0  0
  -21.2270  -13.3650   22.1400 H   0  0  0  0  0  0  0  0  0  0  0  0
  -25.5250  -15.2990   20.1010 N   0  0  0  0  0  0  0  0  0  0  0  0
  -24.7740  -15.9720   20.2090 H   0  0  0  0  0  0  0  0  0  0  0  0
  -26.3770  -15.7100   19.7420 H   0  0  0  0  0  0  0  0  0  0  0  0
  -30.5050  -27.4800   18.8450 C   0  0  0  0  0  2  0  0  0  0  0  0
  -28.9930  -27.2450   18.6790 C   0  0  0  0  0  2  0  0  0  0  0  0
  -28.4040  -26.8120   19.9120 O   0  0  0  0  0  0  0  0  0  0  0  0
  -24.5840  -31.8440   23.2040 C   0  0  0  0  0  0  0  0  0  0  0  0
  -27.2030  -27.4360   20.0970 C   0  0  0  0  0  0  0  0  0  0  0  0
  -23.3600  -30.4430   21.5690 C   0  0  0  0  0  3  0  0  0  0  0  0
  -24.7990  -28.8900   20.1520 C   0  0  0  0  0  0  0  0  0  0  0  0
  -25.8800  -30.8010   21.3550 C   0  0  0  0  0  2  0  0  0  0  0  0
  -25.9560  -29.4270   20.7330 C   0  0  0  0  0  0  0  0  0  0  0  0
  -27.1610  -28.7000   20.7170 C   0  0  0  0  0  3  0  0  0  0  0  0
  -26.0320  -26.8850   19.5400 C   0  0  0  0  0  3  0  0  0  0  0  0
  -24.8260  -27.6120   19.5650 C   0  0  0  0  0  3  0  0  0  0  0  0
  -23.5580  -29.7500   20.1940 C   0  0  0  0  0  2  0  0  0  0  0  0
  -24.6260  -31.0440   22.1020 N   0  0  0  0  0  0  0  0  0  0  0  0
  -23.5080  -32.1210   23.7510 O   0  0  0  0  0  0  0  0  0  0  0  0
  -22.7130  -29.4270   22.5370 C   0  0  0  0  0  0  0  0  0  0  0  0
  -21.3860  -29.2590   22.4210 N   0  0  0  0  0  0  0  0  0  0  0  0
  -23.3990  -28.7930   23.3410 O   0  0  0  0  0  0  0  0  0  0  0  0
  -20.8960  -29.8220   21.7400 H   0  0  0  0  0  0  0  0  0  0  0  0
  -18.0040  -28.1040   22.9490 C   0  0  0  0  0  0  0  0  0  0  0  0
  -20.5670  -28.3280   23.1950 C   0  0  0  0  0  3  0  0  0  0  0  0
  -20.6470  -26.8990   22.6100 C   0  0  0  0  0  2  0  0  0  0  0  0
  -19.5290  -26.5940   21.6070 C   0  0  0  0  0  2  0  0  0  0  0  0
  -18.1560  -26.7550   22.2660 C   0  0  0  0  0  2  0  0  0  0  0  0
  -19.1360  -28.8490   23.3710 C   0  0  0  0  0  0  0  0  0  0  0  0
  -18.9420  -30.1130   23.9690 C   0  0  0  0  0  3  0  0  0  0  0  0
  -17.6460  -30.6330   24.1480 C   0  0  0  0  0  3  0  0  0  0  0  0
  -16.5280  -29.8840   23.7440 C   0  0  0  0  0  3  0  0  0  0  0  0
  -16.7070  -28.6200   23.1520 C   0  0  0  0  0  3  0  0  0  0  0  0
  -25.8790  -32.4660   23.8160 C   0  0  0  0  0  3  0  0  0  0  0  0
  -25.5770  -33.8620   24.1630 N   0  0  0  0  0  0  0  0  0  0  0  0
  -25.9080  -34.9190   23.4090 C   0  0  0  0  0  0  0  0  0  0  0  0
  -26.5730  -34.8240   22.3740 O   0  0  0  0  0  0  0  0  0  0  0  0
  -24.9850  -34.0110   24.9660 H   0  0  0  0  0  0  0  0  0  0  0  0
  -24.1800  -36.7150   23.0780 C   0  0  0  0  0  1  0  0  0  0  0  0
  -25.4240  -36.3050   23.8800 C   0  0  0  0  0  3  0  0  0  0  0  0
  -27.5660  -37.1720   24.7070 C   0  0  0  0  0  1  0  0  0  0  0  0
  -26.4570  -37.3570   23.7730 N   0  0  0  0  0  0  0  0  0  0  0  0
  -26.0540  -38.2750   23.9380 H   0  0  0  0  0  0  0  0  0  0  0  0
  -26.4130  -31.6790   25.0750 C   0  0  1  0  0  0  0  0  0  0  0  0
  -25.3350  -31.4250   26.1540 C   0  0  0  0  0  1  0  0  0  0  0  0
  -26.9920  -30.3070   24.6560 C   0  0  0  0  0  1  0  0  0  0  0  0
  -27.5730  -32.4650   25.7310 C   0  0  0  0  0  1  0  0  0  0  0  0
  1  2  1  0
  3  4  1  0
  3  7  1  0
  4  9  1  0
  4  1  1  0
  5  2  1  0
  5  6  1  0
  7  5  1  0
  7  8  1  1
  9 10  1  0
 10 11  1  0
 10 12  1  0
 13 10  1  0
 13 17  1  0
 14 15  1  0
 15 18  2  0
 16 19  2  0
 17 14  2  0
 17 16  1  0
 18 21  1  0
 19 18  1  0
 19 20  1  0
 22 30  1  0
 23 28  1  0
 24 25  1  0
 24 23  1  0
 26 25  1  0
 26 35  1  0
 26 27  1  0
 28 22  1  0
 28 27  1  0
 29 22  2  0
 30 21  1  0
 30 31  1  0
 32 33  2  0
 33 52  1  0
 34 33  1  0
 34 37  1  0
 35 32  1  0
 35 36  1  0
 36 34  2  0
 37 38  1  0
 38 39  2  0
 40 43  1  0
 40 39  1  0
 41 40  2  0
 42 41  1  0
 42 37  2  0
 43 44  1  0
 44 45  1  0
 45 46  2  0
 47 46  1  0
 47 51  1  0
 48 47  2  0
 49 44  2  0
 49 48  1  0
 50 49  1  0
 52 53  1  0
 53 56  1  0
 53 55  1  0
 54 52  2  0
 57 58  1  0
 57 32  1  0
 59 57  1  0
 60  7  1  0
 61 60  1  0
 61 62  1  0
 62 64  1  0
 63 74  2  0
 64 69  1  0
 65 73  1  0
 65 75  1  0
 66 72  1  0
 66 68  1  0
 67 73  1  0
 68 67  1  0
 69 68  2  0
 70 71  1  0
 70 64  2  0
 71 66  2  0
 72 65  1  0
 73 63  1  0
 75 77  2  0
 76 75  1  0
 78 76  1  0
 79 88  2  0
 79 84  1  0
 80 76  1  0
 80 84  1  0
 81 80  1  0
 82 83  1  0
 82 81  1  0
 83 79  1  0
 84 85  2  0
 85 86  1  0
 87 86  2  0
 88 87  1  0
 89 63  1  0
 89 90  1  0
 89 99  1  0
 90 93  1  0
 91 95  1  0
 91 90  1  0
 92 91  2  0
 95 94  1  0
 97 95  1  0
 97 98  1  0
 97 96  1  0
 99102  1  1
 99100  1  0
101 99  1  0
M  ISO  4  22 100  30 100  61 101  62 101
M  END
>  <TORSDO>  (50) 
F 23

>  <SCORE>  (50) 
-12.567

>  <name>  (50) 
49

>  <ligand_id>  (50) 
49

>  <original_smiles>  (50) 
[H]c1c([H])c([H])c2c(c1[H])C([H])([H])C([H])([H])C([H])([H])C2([H])N([H])C(=O)C1([H])N(C(=O)C([H])(N([H])C(=O)C([H])(N([H])C([H])([H])[H])C([H])([H])[H])C(C([H])([H])[H])(C([H])([H])[H])C([H])([H])[H])C([H])([H])c2c([H])c(OC([H])([H])C([H])([H])[N+]3([H])C([H])([H])C([H])(C([H])([H])[N+]([H])([H])C([H])([H])c4c([H])c([H])c(C([H])([H])N([H])C(=O)N5C([H])([H])C([H])([H])C([H])([H])C([H])(n6nc(-c7c([H])c([H])c(Oc8c([H])c([H])c(F)c([H])c8F)c([H])c7[H])c(C(=O)N([H])[H])c6N([H])[H])C5([H])[H])c(C([H])([H])[H])c4[H])C([H])([H])C([H])([H])C3([H])C([H])([H])[H])c([H])c([H])c2C1([H])[H]

>  <smiles>  (50) 
[H]c1c([H])c([H])c2c(c1[H])C([H])([H])C([H])([H])C([H])([H])C2([H])N([H])C(=O)C1([H])N(C(=O)C([H])(N([H])C(=O)C([H])(N([H])C([H])([H])[H])C([H])([H])[H])C(C([H])([H])[H])(C([H])([H])[H])C([H])([H])[H])C([H])([H])c2c([H])c(OC([H])([H])C([H])([H])[N+]3([H])C([H])([H])C([H])(C([H])([H])[N+]([H])([H])C([H])([H])c4c([H])c([H])c(C([H])([H])N([H])C(=O)N5C([H])([H])C([H])([H])C([H])([H])C([H])(n6nc(-c7c([H])c([H])c(Oc8c([H])c([H])c(F)c([H])c8F)c([H])c7[H])c(C(=O)N([H])[H])c6N([H])[H])C5([H])[H])c(C([H])([H])[H])c4[H])C([H])([H])C([H])([H])C3([H])C([H])([H])[H])c([H])c([H])c2C1([H])[H]

$$$$
50:0:0
     RDKit          3D

 94102  0  0  1  0  0  0  0  0999 V2000
  -28.7920  -23.2600   21.6520 C   0  0  0  0  0  3  0  0  0  0  0  0
  -29.1340  -21.9230   22.0010 C   0  0  0  0  0  3  0  0  0  0  0  0
  -29.2090  -23.8170   20.4200 C   0  0  0  0  0  0  0  0  0  0  0  0
  -29.9990  -22.9360   19.6050 C   0  0  0  0  0  0  0  0  0  0  0  0
  -29.8700  -21.1090   21.1140 C   0  0  0  0  0  0  0  0  0  0  0  0
  -30.3040  -21.6360   19.9460 N   0  0  0  0  0  0  0  0  0  0  0  0
  -30.2480  -19.7840   21.4950 N   0  0  0  0  0  0  0  0  0  0  0  0
  -30.1250  -19.6240   22.4890 H   0  0  0  0  0  0  0  0  0  0  0  0
  -28.5470  -25.1390   19.8690 C   0  0  0  0  0  2  0  0  0  0  0  0
  -28.7320  -26.5130   20.4210 O   0  0  0  0  0  0  0  0  0  0  0  0
  -24.7140  -31.8330   23.2820 C   0  0  0  0  0  0  0  0  0  0  0  0
  -27.6230  -27.3870   20.2960 C   0  0  0  0  0  0  0  0  0  0  0  0
  -23.6450  -30.4230   21.5670 C   0  0  0  0  0  3  0  0  0  0  0  0
  -25.2150  -28.9490   20.1970 C   0  0  0  0  0  0  0  0  0  0  0  0
  -26.1850  -30.8150   21.5260 C   0  0  0  0  0  2  0  0  0  0  0  0
  -26.3400  -29.4510   20.8650 C   0  0  0  0  0  0  0  0  0  0  0  0
  -27.5460  -28.6800   20.9130 C   0  0  0  0  0  3  0  0  0  0  0  0
  -26.4740  -26.9730   19.5730 C   0  0  0  0  0  3  0  0  0  0  0  0
  -25.2860  -27.7160   19.5440 C   0  0  0  0  0  3  0  0  0  0  0  0
  -23.9500  -29.7810   20.1920 C   0  0  0  0  0  2  0  0  0  0  0  0
  -24.8640  -31.0430   22.1800 N   0  0  0  0  0  0  0  0  0  0  0  0
  -23.5940  -32.0690   23.7600 O   0  0  0  0  0  0  0  0  0  0  0  0
  -22.9680  -29.3700   22.4790 C   0  0  0  0  0  0  0  0  0  0  0  0
  -21.6450  -29.1920   22.3170 N   0  0  0  0  0  0  0  0  0  0  0  0
  -23.6320  -28.7200   23.2900 O   0  0  0  0  0  0  0  0  0  0  0  0
  -21.1680  -29.7660   21.6350 H   0  0  0  0  0  0  0  0  0  0  0  0
  -18.2520  -28.0230   22.7770 C   0  0  0  0  0  0  0  0  0  0  0  0
  -20.8170  -28.2250   23.0410 C   0  0  0  0  0  3  0  0  0  0  0  0
  -20.8890  -26.8250   22.3870 C   0  0  0  0  0  2  0  0  0  0  0  0
  -19.7750  -26.5760   21.3660 C   0  0  0  0  0  2  0  0  0  0  0  0
  -18.4010  -26.7100   22.0270 C   0  0  0  0  0  2  0  0  0  0  0  0
  -19.3860  -28.7410   23.2400 C   0  0  0  0  0  0  0  0  0  0  0  0
  -19.1930  -29.9730   23.9030 C   0  0  0  0  0  3  0  0  0  0  0  0
  -17.8990  -30.4860   24.1060 C   0  0  0  0  0  3  0  0  0  0  0  0
  -16.7780  -29.7640   23.6590 C   0  0  0  0  0  3  0  0  0  0  0  0
  -16.9560  -28.5340   23.0010 C   0  0  0  0  0  3  0  0  0  0  0  0
  -25.9410  -32.5010   23.9770 C   0  0  0  0  0  3  0  0  0  0  0  0
  -25.5810  -33.8960   24.2680 N   0  0  0  0  0  0  0  0  0  0  0  0
  -25.9270  -34.9470   23.5120 C   0  0  0  0  0  0  0  0  0  0  0  0
  -26.6560  -34.8470   22.5210 O   0  0  0  0  0  0  0  0  0  0  0  0
  -24.9440  -34.0450   25.0360 H   0  0  0  0  0  0  0  0  0  0  0  0
  -24.1720  -36.6890   23.0460 C   0  0  0  0  0  1  0  0  0  0  0  0
  -25.3810  -36.3280   23.9220 C   0  0  0  0  0  3  0  0  0  0  0  0
  -27.4520  -37.2830   24.8410 C   0  0  0  0  0  1  0  0  0  0  0  0
  -26.3880  -37.4090   23.8460 N   0  0  0  0  0  0  0  0  0  0  0  0
  -25.9480  -38.3180   23.9660 H   0  0  0  0  0  0  0  0  0  0  0  0
  -26.3880  -31.7560   25.2950 C   0  0  1  0  0  0  0  0  0  0  0  0
  -25.2340  -31.5070   26.2950 C   0  0  0  0  0  1  0  0  0  0  0  0
  -27.0210  -30.3850   24.9620 C   0  0  0  0  0  1  0  0  0  0  0  0
  -27.4770  -32.5850   26.0160 C   0  0  0  0  0  1  0  0  0  0  0  0
  -30.6390  -23.4080   18.2990 C   0  0  0  0  0  2  0  0  0  0  0  0
  -29.8870  -23.0510   17.0090 C   0  0  0  0  0  0  0  0  0  0  0  0
  -30.6690  -23.1640   15.7040 C   0  0  0  0  0  1  0  0  0  0  0  0
  -28.6970  -22.7170   16.9970 O   0  0  0  0  0  0  0  0  0  0  0  0
  -29.9940  -18.5320   20.7190 C   0  0  0  0  0  2  0  0  0  0  0  0
  -30.8290  -17.2680   21.2200 C   0  0  0  0  0  2  0  0  0  0  0  0
  -30.9680  -14.7490   20.7200 C   0  0  0  0  0  0  0  0  0  0  0  0
  -30.7140  -12.5320   19.6250 C   0  0  0  0  0  2  0  0  0  0  0  0
  -29.8260  -12.6740   18.3720 C   0  0  0  0  0  2  0  0  0  0  0  0
  -28.3370  -12.5280   18.7430 C   0  0  0  0  0  2  0  0  0  0  0  0
  -27.9380  -13.3900   19.9700 C   0  0  0  0  0  3  0  0  0  0  0  0
  -28.9560  -13.2510   21.1260 C   0  0  0  0  0  2  0  0  0  0  0  0
  -30.2860  -13.5670   20.5870 N   0  0  0  0  0  0  0  0  0  0  0  0
  -32.1530  -14.8350   20.3970 O   0  0  0  0  0  0  0  0  0  0  0  0
  -30.2640  -15.8780   21.0420 N   0  0  0  0  0  0  0  0  0  0  0  0
  -29.2840  -15.7510   21.2420 H   0  0  0  0  0  0  0  0  0  0  0  0
  -25.5160  -13.9890   20.5800 C   0  0  0  0  0  0  0  0  0  0  0  0
  -24.4340  -13.2180   20.9050 C   0  0  0  0  0  0  0  0  0  0  0  0
  -24.8980  -11.8660   20.9080 C   0  0  0  0  0  0  0  0  0  0  0  0
  -26.5700  -13.1080   20.4010 N   0  0  0  0  0  0  0  0  0  0  0  0
  -26.2020  -11.8270   20.6600 N   0  0  0  0  0  0  0  0  0  0  0  0
  -24.1630  -10.6050   21.0740 C   0  0  0  0  0  0  0  0  0  0  0  0
  -24.5540   -9.6440   22.0320 C   0  0  0  0  0  3  0  0  0  0  0  0
  -23.8200   -8.4470   22.1860 C   0  0  0  0  0  3  0  0  0  0  0  0
  -22.6800   -8.2050   21.3830 C   0  0  0  0  0  0  0  0  0  0  0  0
  -22.3090   -9.1560   20.4160 C   0  0  0  0  0  3  0  0  0  0  0  0
  -23.0430  -10.3430   20.2600 C   0  0  0  0  0  3  0  0  0  0  0  0
  -21.9230   -7.0600   21.4450 O   0  0  0  0  0  0  0  0  0  0  0  0
  -21.8180   -6.3290   22.6000 C   0  0  0  0  0  0  0  0  0  0  0  0
  -21.3280   -6.8940   23.7980 C   0  0  0  0  0  3  0  0  0  0  0  0
  -21.1710   -6.0880   24.9440 C   0  0  0  0  0  3  0  0  0  0  0  0
  -21.4930   -4.7200   24.8920 C   0  0  0  0  0  0  0  0  0  0  0  0
  -21.9760   -4.1530   23.6990 C   0  0  0  0  0  3  0  0  0  0  0  0
  -22.1340   -4.9550   22.5550 C   0  0  0  0  0  0  0  0  0  0  0  0
  -22.5790   -4.4010   21.4020 F   0  0  0  0  0  0  0  0  0  0  0  0
  -21.3360   -3.9440   25.9900 F   0  0  0  0  0  0  0  0  0  0  0  0
  -23.0250  -13.6960   21.1100 C   0  0  0  0  0  0  0  0  0  0  0  0
  -22.2610  -13.0070   21.9490 N   0  0  0  0  0  0  0  0  0  0  0  0
  -22.6100  -14.7160   20.5610 O   0  0  0  0  0  0  0  0  0  0  0  0
  -22.6080  -12.1810   22.4130 H   0  0  0  0  0  0  0  0  0  0  0  0
  -21.3140  -13.3100   22.1320 H   0  0  0  0  0  0  0  0  0  0  0  0
  -25.6870  -15.3590   20.3970 N   0  0  0  0  0  0  0  0  0  0  0  0
  -24.9150  -16.0150   20.4690 H   0  0  0  0  0  0  0  0  0  0  0  0
  -26.5480  -15.7930   20.0850 H   0  0  0  0  0  0  0  0  0  0  0  0
  1  2  1  0
  3  1  2  0
  4  6  2  0
  4  3  1  0
  5  7  1  0
  5  2  2  0
  6  5  1  0
  7  8  1  0
  9  3  1  0
  9 10  1  0
 11 22  2  0
 12 10  1  0
 12 17  1  0
 13 21  1  0
 13 23  1  0
 14 16  1  0
 15 21  1  0
 16 17  2  0
 16 15  1  0
 18 12  2  0
 19 18  1  0
 19 14  2  0
 20 14  1  0
 20 13  1  0
 21 11  1  0
 23 25  2  0
 24 23  1  0
 26 24  1  0
 27 36  2  0
 27 32  1  0
 28 24  1  0
 28 32  1  0
 29 28  1  0
 30 31  1  0
 30 29  1  0
 31 27  1  0
 32 33  2  0
 33 34  1  0
 35 34  2  0
 36 35  1  0
 37 11  1  0
 37 38  1  0
 37 47  1  0
 38 41  1  0
 39 43  1  0
 39 38  1  0
 40 39  2  0
 43 42  1  0
 45 43  1  0
 45 46  1  0
 45 44  1  0
 47 50  1  1
 47 48  1  0
 49 47  1  0
 51  4  1  0
 52 51  1  0
 53 52  1  0
 54 52  2  0
 55 56  1  0
 55  7  1  0
 57 65  1  0
 58 63  1  0
 59 60  1  0
 59 58  1  0
 61 60  1  0
 61 70  1  0
 61 62  1  0
 63 57  1  0
 63 62  1  0
 64 57  2  0
 65 56  1  0
 65 66  1  0
 67 68  2  0
 68 69  1  0
 68 87  1  0
 69 72  1  0
 70 67  1  0
 70 71  1  0
 71 69  2  0
 72 73  1  0
 73 74  2  0
 75 78  1  0
 75 74  1  0
 76 75  2  0
 77 76  1  0
 77 72  2  0
 78 79  1  0
 79 80  1  0
 80 81  2  0
 82 81  1  0
 82 86  1  0
 83 82  2  0
 84 79  2  0
 84 83  1  0
 85 84  1  0
 87 88  1  0
 88 91  1  0
 88 90  1  0
 89 87  2  0
 92 93  1  0
 92 67  1  0
 94 92  1  0
M  ISO  4   9 101  10 101  57 100  65 100
M  END
>  <TORSDO>  (51) 
F 21

>  <SCORE>  (51) 
-13.735

>  <name>  (51) 
50

>  <ligand_id>  (51) 
50

>  <original_smiles>  (51) 
[H]c1c(N([H])C([H])([H])C([H])([H])N([H])C(=O)N2C([H])([H])C([H])([H])C([H])([H])C([H])(n3nc(-c4c([H])c([H])c(Oc5c([H])c([H])c(F)c([H])c5F)c([H])c4[H])c(C(=O)N([H])[H])c3N([H])[H])C2([H])[H])nc(C([H])([H])C(=O)C([H])([H])[H])c(C([H])([H])Oc2c([H])c([H])c3c(c2[H])C([H])([H])N(C(=O)C([H])(N([H])C(=O)C([H])(N([H])C([H])([H])[H])C([H])([H])[H])C(C([H])([H])[H])(C([H])([H])[H])C([H])([H])[H])C([H])(C(=O)N([H])C2([H])c4c([H])c([H])c([H])c([H])c4C([H])([H])C([H])([H])C2([H])[H])C3([H])[H])c1[H]

>  <smiles>  (51) 
[H]c1c(N([H])C([H])([H])C([H])([H])N([H])C(=O)N2C([H])([H])C([H])([H])C([H])([H])C([H])(n3nc(-c4c([H])c([H])c(Oc5c([H])c([H])c(F)c([H])c5F)c([H])c4[H])c(C(=O)N([H])[H])c3N([H])[H])C2([H])[H])nc(C([H])([H])C(=O)C([H])([H])[H])c(C([H])([H])Oc2c([H])c([H])c3c(c2[H])C([H])([H])N(C(=O)C([H])(N([H])C(=O)C([H])(N([H])C([H])([H])[H])C([H])([H])[H])C(C([H])([H])[H])(C([H])([H])[H])C([H])([H])[H])C([H])(C(=O)N([H])C2([H])c4c([H])c([H])c([H])c([H])c4C([H])([H])C([H])([H])C2([H])[H])C3([H])[H])c1[H]

$$$$
51:0:0
     RDKit          3D

 94103  0  0  1  0  0  0  0  0999 V2000
  -29.3180  -23.4750   22.0360 C   0  0  0  0  0  3  0  0  0  0  0  0
  -29.7380  -22.1510   21.7850 C   0  0  0  0  0  3  0  0  0  0  0  0
  -29.1180  -23.7910   19.6600 C   0  0  0  0  0  3  0  0  0  0  0  0
  -28.9960  -24.3280   20.9590 C   0  0  0  0  0  0  0  0  0  0  0  0
  -29.8290  -21.6970   20.4550 C   0  0  0  0  0  0  0  0  0  0  0  0
  -29.5220  -22.5160   19.4150 N   0  0  0  0  0  0  0  0  0  0  0  0
  -28.4780  -25.7490   21.2540 C   0  0  0  0  0  2  0  0  0  0  0  0
  -28.3950  -26.6590   20.1410 O   0  0  0  0  0  0  0  0  0  0  0  0
  -24.5890  -31.8810   23.2240 C   0  0  0  0  0  0  0  0  0  0  0  0
  -27.2570  -27.4390   20.1520 C   0  0  0  0  0  0  0  0  0  0  0  0
  -23.3930  -30.4750   21.5770 C   0  0  0  0  0  3  0  0  0  0  0  0
  -24.8580  -28.9410   20.1560 C   0  0  0  0  0  0  0  0  0  0  0  0
  -25.9190  -30.8400   21.3890 C   0  0  0  0  0  2  0  0  0  0  0  0
  -26.0140  -29.4670   20.7500 C   0  0  0  0  0  0  0  0  0  0  0  0
  -27.2180  -28.7230   20.7480 C   0  0  0  0  0  3  0  0  0  0  0  0
  -26.0890  -26.9300   19.5510 C   0  0  0  0  0  3  0  0  0  0  0  0
  -24.8910  -27.6700   19.5540 C   0  0  0  0  0  3  0  0  0  0  0  0
  -23.6100  -29.7950   20.1990 C   0  0  0  0  0  2  0  0  0  0  0  0
  -24.6510  -31.0810   22.1220 N   0  0  0  0  0  0  0  0  0  0  0  0
  -23.5060  -32.1490   23.7610 O   0  0  0  0  0  0  0  0  0  0  0  0
  -22.7400  -29.4540   22.5370 C   0  0  0  0  0  0  0  0  0  0  0  0
  -21.4150  -29.2730   22.4110 N   0  0  0  0  0  0  0  0  0  0  0  0
  -23.4230  -28.8260   23.3510 O   0  0  0  0  0  0  0  0  0  0  0  0
  -20.9250  -29.8320   21.7250 H   0  0  0  0  0  0  0  0  0  0  0  0
  -18.0370  -28.0930   22.9170 C   0  0  0  0  0  0  0  0  0  0  0  0
  -20.5970  -28.3340   23.1780 C   0  0  0  0  0  3  0  0  0  0  0  0
  -20.6880  -26.9070   22.5890 C   0  0  0  0  0  2  0  0  0  0  0  0
  -19.5790  -26.5990   21.5780 C   0  0  0  0  0  2  0  0  0  0  0  0
  -18.2020  -26.7470   22.2310 C   0  0  0  0  0  2  0  0  0  0  0  0
  -19.1620  -28.8440   23.3470 C   0  0  0  0  0  0  0  0  0  0  0  0
  -18.9540  -30.1050   23.9490 C   0  0  0  0  0  3  0  0  0  0  0  0
  -17.6530  -30.6140   24.1230 C   0  0  0  0  0  3  0  0  0  0  0  0
  -16.5420  -29.8580   23.7100 C   0  0  0  0  0  3  0  0  0  0  0  0
  -16.7350  -28.5990   23.1130 C   0  0  0  0  0  3  0  0  0  0  0  0
  -25.8720  -32.5140   23.8480 C   0  0  0  0  0  3  0  0  0  0  0  0
  -26.3860  -31.7470   25.1280 C   0  0  1  0  0  0  0  0  0  0  0  0
  -25.2900  -31.5110   26.1940 C   0  0  0  0  0  1  0  0  0  0  0  0
  -26.9700  -30.3690   24.7400 C   0  0  0  0  0  1  0  0  0  0  0  0
  -27.5350  -32.5440   25.7910 C   0  0  0  0  0  1  0  0  0  0  0  0
  -25.5620  -33.9140   24.1700 N   0  0  0  0  0  0  0  0  0  0  0  0
  -25.9070  -34.9630   23.4110 C   0  0  0  0  0  0  0  0  0  0  0  0
  -26.5890  -34.8540   22.3890 O   0  0  0  0  0  0  0  0  0  0  0  0
  -24.9560  -34.0730   24.9610 H   0  0  0  0  0  0  0  0  0  0  0  0
  -24.1950  -36.7630   23.0170 C   0  0  0  0  0  1  0  0  0  0  0  0
  -25.4160  -36.3540   23.8570 C   0  0  0  0  0  3  0  0  0  0  0  0
  -27.5360  -37.2270   24.7330 C   0  0  0  0  0  1  0  0  0  0  0  0
  -26.4550  -37.4020   23.7660 N   0  0  0  0  0  0  0  0  0  0  0  0
  -26.0510  -38.3240   23.9060 H   0  0  0  0  0  0  0  0  0  0  0  0
  -30.2820  -20.2550   20.1240 C   0  0  0  0  0  2  0  0  0  0  0  0
  -27.6880  -18.3520   18.8040 C   0  0  0  0  0  2  0  0  0  0  0  0
  -28.3800  -17.1670   19.4510 C   0  0  0  0  0  2  0  0  0  0  0  0
  -27.9370  -19.4670   19.8170 C   0  0  0  0  0  2  0  0  0  0  0  0
  -29.6340  -17.7790   20.0970 C   0  0  0  0  0  3  0  0  0  0  0  0
  -29.2650  -19.2030   20.4350 N   0  0  1  0  0  4  0  0  0  0  0  0
  -29.1180  -19.2620   21.4320 H   0  0  0  0  0  0  0  0  0  0  0  0
  -30.1680  -16.9220   21.2950 C   0  0  0  0  0  2  0  0  0  0  0  0
  -30.6650  -14.5100   20.5410 C   0  0  0  0  0  0  0  0  0  0  0  0
  -30.4010  -12.3600   19.3420 C   0  0  0  0  0  2  0  0  0  0  0  0
  -29.4660  -12.5710   18.1330 C   0  0  0  0  0  2  0  0  0  0  0  0
  -27.9850  -12.4290   18.5430 C   0  0  0  0  0  2  0  0  0  0  0  0
  -27.6370  -13.2530   19.8100 C   0  0  0  0  0  3  0  0  0  0  0  0
  -28.6780  -13.0010   20.9240 C   0  0  0  0  0  2  0  0  0  0  0  0
  -30.0130  -13.3230   20.3840 N   0  0  0  0  0  0  0  0  0  0  0  0
  -31.7720  -14.7470   20.0510 O   0  0  0  0  0  0  0  0  0  0  0  0
  -29.9410  -15.4640   21.1560 N   0  0  0  0  0  0  0  0  0  0  0  0
  -29.0630  -15.1300   21.5250 H   0  0  0  0  0  0  0  0  0  0  0  0
  -25.2260  -13.8760   20.4690 C   0  0  0  0  0  0  0  0  0  0  0  0
  -24.1500  -13.1130   20.8320 C   0  0  0  0  0  0  0  0  0  0  0  0
  -24.6080  -11.7600   20.8240 C   0  0  0  0  0  0  0  0  0  0  0  0
  -26.2730  -12.9890   20.2670 N   0  0  0  0  0  0  0  0  0  0  0  0
  -25.9020  -11.7120   20.5360 N   0  0  0  0  0  0  0  0  0  0  0  0
  -23.8740  -10.5030   21.0150 C   0  0  0  0  0  0  0  0  0  0  0  0
  -24.2910   -9.5450   21.9650 C   0  0  0  0  0  3  0  0  0  0  0  0
  -23.5600   -8.3500   22.1450 C   0  0  0  0  0  3  0  0  0  0  0  0
  -22.3990   -8.1070   21.3750 C   0  0  0  0  0  0  0  0  0  0  0  0
  -22.0010   -9.0540   20.4140 C   0  0  0  0  0  3  0  0  0  0  0  0
  -22.7320  -10.2390   20.2330 C   0  0  0  0  0  3  0  0  0  0  0  0
  -21.6400   -6.9650   21.4630 O   0  0  0  0  0  0  0  0  0  0  0  0
  -21.5740   -6.2330   22.6220 C   0  0  0  0  0  0  0  0  0  0  0  0
  -21.1160   -6.7970   23.8340 C   0  0  0  0  0  3  0  0  0  0  0  0
  -20.9980   -5.9910   24.9830 C   0  0  0  0  0  3  0  0  0  0  0  0
  -21.3260   -4.6230   24.9220 C   0  0  0  0  0  0  0  0  0  0  0  0
  -21.7780   -4.0590   23.7160 C   0  0  0  0  0  3  0  0  0  0  0  0
  -21.8970   -4.8630   22.5670 C   0  0  0  0  0  0  0  0  0  0  0  0
  -22.3120   -4.3110   21.4020 F   0  0  0  0  0  0  0  0  0  0  0  0
  -21.2050   -3.8460   26.0230 F   0  0  0  0  0  0  0  0  0  0  0  0
  -22.7500  -13.5980   21.0770 C   0  0  0  0  0  0  0  0  0  0  0  0
  -22.0050  -12.9140   21.9370 N   0  0  0  0  0  0  0  0  0  0  0  0
  -22.3240  -14.6200   20.5390 O   0  0  0  0  0  0  0  0  0  0  0  0
  -22.3600  -12.0870   22.3960 H   0  0  0  0  0  0  0  0  0  0  0  0
  -21.0650  -13.2230   22.1430 H   0  0  0  0  0  0  0  0  0  0  0  0
  -25.3920  -15.2430   20.2770 N   0  0  0  0  0  0  0  0  0  0  0  0
  -24.6140  -15.8890   20.3560 H   0  0  0  0  0  0  0  0  0  0  0  0
  -26.2300  -15.6700   19.9090 H   0  0  0  0  0  0  0  0  0  0  0  0
  2  1  1  0
  3  4  1  0
  4  7  1  0
  4  1  2  0
  5  2  2  0
  6  3  2  0
  6  5  1  0
  8 10  1  0
  8  7  1  0
  9 20  2  0
 10 15  1  0
 11 19  1  0
 11 21  1  0
 12 18  1  0
 12 14  1  0
 13 19  1  0
 14 13  1  0
 15 14  2  0
 16 17  1  0
 16 10  2  0
 17 12  2  0
 18 11  1  0
 19  9  1  0
 21 23  2  0
 22 21  1  0
 24 22  1  0
 25 34  2  0
 25 30  1  0
 26 22  1  0
 26 30  1  0
 27 26  1  0
 28 29  1  0
 28 27  1  0
 29 25  1  0
 30 31  2  0
 31 32  1  0
 33 32  2  0
 34 33  1  0
 35  9  1  0
 35 40  1  0
 35 36  1  0
 36 39  1  1
 36 37  1  0
 38 36  1  0
 40 43  1  0
 41 45  1  0
 41 40  1  0
 42 41  2  0
 45 44  1  0
 47 45  1  0
 47 48  1  0
 47 46  1  0
 49 54  1  0
 49  5  1  0
 50 51  1  0
 50 52  1  0
 51 53  1  0
 52 54  1  0
 53 54  1  0
 53 56  1  0
 54 55  1  1
 57 65  1  0
 58 63  1  0
 59 60  1  0
 59 58  1  0
 61 60  1  0
 61 70  1  0
 61 62  1  0
 63 57  1  0
 63 62  1  0
 64 57  2  0
 65 56  1  0
 65 66  1  0
 67 68  2  0
 68 87  1  0
 69 68  1  0
 69 72  1  0
 70 67  1  0
 70 71  1  0
 71 69  2  0
 72 73  1  0
 73 74  2  0
 75 78  1  0
 75 74  1  0
 76 75  2  0
 77 76  1  0
 77 72  2  0
 78 79  1  0
 79 80  1  0
 80 81  2  0
 82 81  1  0
 82 86  1  0
 83 82  2  0
 84 79  2  0
 84 83  1  0
 85 84  1  0
 87 88  1  0
 88 91  1  0
 88 90  1  0
 89 87  2  0
 92 93  1  0
 92 67  1  0
 94 92  1  0
M  ISO  4   7 101   8 101  57 100  65 100
M  END
>  <TORSDO>  (52) 
F 20

>  <SCORE>  (52) 
-14.339

>  <name>  (52) 
51

>  <ligand_id>  (52) 
51

>  <original_smiles>  (52) 
[H]c1nc(C([H])([H])[N+]2([H])C([H])([H])C([H])([H])C([H])([H])C2([H])C([H])([H])N([H])C(=O)N2C([H])([H])C([H])([H])C([H])([H])C([H])(n3nc(-c4c([H])c([H])c(Oc5c([H])c([H])c(F)c([H])c5F)c([H])c4[H])c(C(=O)N([H])[H])c3N([H])[H])C2([H])[H])c([H])c([H])c1C([H])([H])Oc1c([H])c([H])c2c(c1[H])C([H])([H])N(C(=O)C([H])(N([H])C(=O)C([H])(N([H])C([H])([H])[H])C([H])([H])[H])C(C([H])([H])[H])(C([H])([H])[H])C([H])([H])[H])C([H])(C(=O)N([H])C1([H])c3c([H])c([H])c([H])c([H])c3C([H])([H])C([H])([H])C1([H])[H])C2([H])[H]

>  <smiles>  (52) 
[H]c1nc(C([H])([H])[N+]2([H])C([H])([H])C([H])([H])C([H])([H])C2([H])C([H])([H])N([H])C(=O)N2C([H])([H])C([H])([H])C([H])([H])C([H])(n3nc(-c4c([H])c([H])c(Oc5c([H])c([H])c(F)c([H])c5F)c([H])c4[H])c(C(=O)N([H])[H])c3N([H])[H])C2([H])[H])c([H])c([H])c1C([H])([H])Oc1c([H])c([H])c2c(c1[H])C([H])([H])N(C(=O)C([H])(N([H])C(=O)C([H])(N([H])C([H])([H])[H])C([H])([H])[H])C(C([H])([H])[H])(C([H])([H])[H])C([H])([H])[H])C([H])(C(=O)N([H])C1([H])c3c([H])c([H])c([H])c([H])c3C([H])([H])C([H])([H])C1([H])[H])C2([H])[H]

$$$$
52:0:0
     RDKit          3D

 94103  0  0  1  0  0  0  0  0999 V2000
  -29.4270  -22.2490   21.1770 C   0  0  0  0  0  3  0  0  0  0  0  0
  -27.9300  -21.6620   19.5540 C   0  0  0  0  0  0  0  0  0  0  0  0
  -28.3730  -20.2600   19.6160 C   0  0  0  0  0  0  0  0  0  0  0  0
  -28.4250  -22.8190   20.2960 C   0  0  0  0  0  0  0  0  0  0  0  0
  -29.8830  -20.8250   21.2700 C   0  0  0  0  0  0  0  0  0  0  0  0
  -29.4140  -19.6850   20.4500 C   0  0  0  0  0  0  0  0  0  0  0  0
  -26.7850  -21.7780   18.5750 C   0  0  0  0  0  2  0  0  0  0  0  0
  -27.5460  -19.4180   18.6720 C   0  0  0  0  0  2  0  0  0  0  0  0
  -26.7000  -20.4160   17.8640 C   0  0  0  0  0  2  0  0  0  0  0  0
  -30.5510  -21.1770   23.7140 C   0  0  0  0  0  1  0  0  0  0  0  0
  -32.3310  -21.0280   21.9050 C   0  0  0  0  0  1  0  0  0  0  0  0
  -30.9380  -20.5660   22.3530 C   0  0  0  0  0  3  0  0  0  0  0  0
  -30.9990  -18.2430   18.9740 C   0  0  0  0  0  1  0  0  0  0  0  0
  -30.1760  -18.1220   20.2710 C   0  0  0  0  0  0  0  0  0  0  0  0
  -30.4370  -15.2550   20.2630 C   0  0  0  0  0  0  0  0  0  0  0  0
  -30.3360  -12.8550   19.3270 C   0  0  0  0  0  2  0  0  0  0  0  0
  -29.3880  -12.7090   18.1130 C   0  0  0  0  0  2  0  0  0  0  0  0
  -27.9450  -12.4470   18.5810 C   0  0  0  0  0  2  0  0  0  0  0  0
  -27.5300  -13.3800   19.7460 C   0  0  0  0  0  3  0  0  0  0  0  0
  -28.6070  -13.4900   20.8480 C   0  0  0  0  0  2  0  0  0  0  0  0
  -29.8310  -13.9780   20.1950 N   0  0  0  0  0  0  0  0  0  0  0  0
  -31.6510  -15.2270   20.0210 O   0  0  0  0  0  0  0  0  0  0  0  0
  -29.7260  -16.5420   20.3910 N   0  0  0  0  0  4  0  0  0  0  0  0
  -28.7400  -16.4240   20.5660 H   0  0  0  0  0  0  0  0  0  0  0  0
  -25.1730  -13.9150   20.5650 C   0  0  0  0  0  0  0  0  0  0  0  0
  -24.1240  -13.1250   20.9460 C   0  0  0  0  0  0  0  0  0  0  0  0
  -24.5980  -11.7780   20.8830 C   0  0  0  0  0  0  0  0  0  0  0  0
  -26.2150  -13.0500   20.2830 N   0  0  0  0  0  0  0  0  0  0  0  0
  -25.8820  -11.7580   20.5410 N   0  0  0  0  0  0  0  0  0  0  0  0
  -23.8820  -10.5080   21.0680 C   0  0  0  0  0  0  0  0  0  0  0  0
  -24.3320   -9.5320   21.9820 C   0  0  0  0  0  3  0  0  0  0  0  0
  -23.6130   -8.3290   22.1570 C   0  0  0  0  0  3  0  0  0  0  0  0
  -22.4290   -8.0960   21.4180 C   0  0  0  0  0  0  0  0  0  0  0  0
  -21.9980   -9.0620   20.4920 C   0  0  0  0  0  3  0  0  0  0  0  0
  -22.7180  -10.2550   20.3140 C   0  0  0  0  0  3  0  0  0  0  0  0
  -21.6800   -6.9480   21.5040 O   0  0  0  0  0  0  0  0  0  0  0  0
  -21.6420   -6.1970   22.6520 C   0  0  0  0  0  0  0  0  0  0  0  0
  -21.1980   -6.7350   23.8790 C   0  0  0  0  0  3  0  0  0  0  0  0
  -21.1090   -5.9100   25.0180 C   0  0  0  0  0  3  0  0  0  0  0  0
  -21.4530   -4.5470   24.9300 C   0  0  0  0  0  0  0  0  0  0  0  0
  -21.8880   -4.0090   23.7070 C   0  0  0  0  0  3  0  0  0  0  0  0
  -21.9800   -4.8310   22.5710 C   0  0  0  0  0  0  0  0  0  0  0  0
  -22.3810   -4.3010   21.3900 F   0  0  0  0  0  0  0  0  0  0  0  0
  -21.3600   -3.7530   26.0230 F   0  0  0  0  0  0  0  0  0  0  0  0
  -22.7300  -13.5900   21.2490 C   0  0  0  0  0  0  0  0  0  0  0  0
  -22.0240  -12.8820   22.1230 N   0  0  0  0  0  0  0  0  0  0  0  0
  -22.2770  -14.6180   20.7470 O   0  0  0  0  0  0  0  0  0  0  0  0
  -22.4060  -12.0530   22.5540 H   0  0  0  0  0  0  0  0  0  0  0  0
  -21.0890  -13.1750   22.3670 H   0  0  0  0  0  0  0  0  0  0  0  0
  -25.3210  -15.2890   20.4040 N   0  0  0  0  0  0  0  0  0  0  0  0
  -24.5500  -15.9330   20.5400 H   0  0  0  0  0  0  0  0  0  0  0  0
  -26.1490  -15.7380   20.0340 H   0  0  0  0  0  0  0  0  0  0  0  0
  -27.6690  -24.3830   20.2620 C   0  0  0  0  0  2  0  0  0  0  0  0
  -28.1010  -25.9430   20.3610 O   0  0  0  0  0  0  0  0  0  0  0  0
  -24.6040  -31.9400   23.2500 C   0  0  0  0  0  0  0  0  0  0  0  0
  -27.1110  -27.0450   20.2810 C   0  0  0  0  0  0  0  0  0  0  0  0
  -23.3890  -30.5270   21.6430 C   0  0  0  0  0  3  0  0  0  0  0  0
  -24.8190  -28.9120   20.2280 C   0  0  0  0  0  0  0  0  0  0  0  0
  -25.9540  -30.7370   21.4700 C   0  0  0  0  0  2  0  0  0  0  0  0
  -26.0130  -29.3230   20.8320 C   0  0  0  0  0  0  0  0  0  0  0  0
  -27.1570  -28.4110   20.8370 C   0  0  0  0  0  3  0  0  0  0  0  0
  -25.8880  -26.7830   19.6200 C   0  0  0  0  0  3  0  0  0  0  0  0
  -24.7790  -27.6600   19.6000 C   0  0  0  0  0  3  0  0  0  0  0  0
  -23.6030  -29.8320   20.2730 C   0  0  0  0  0  2  0  0  0  0  0  0
  -24.6710  -31.0940   22.1730 N   0  0  0  0  0  0  0  0  0  0  0  0
  -23.5200  -32.2400   23.7760 O   0  0  0  0  0  0  0  0  0  0  0  0
  -22.7020  -29.5430   22.6250 C   0  0  0  0  0  0  0  0  0  0  0  0
  -21.3770  -29.3540   22.4900 N   0  0  0  0  0  0  0  0  0  0  0  0
  -23.3680  -28.9490   23.4780 O   0  0  0  0  0  0  0  0  0  0  0  0
  -20.8930  -29.8810   21.7760 H   0  0  0  0  0  0  0  0  0  0  0  0
  -18.0100  -28.0910   22.9720 C   0  0  0  0  0  0  0  0  0  0  0  0
  -20.5570  -28.4280   23.2780 C   0  0  0  0  0  3  0  0  0  0  0  0
  -20.7050  -26.9780   22.7600 C   0  0  0  0  0  2  0  0  0  0  0  0
  -19.6320  -26.5910   21.7380 C   0  0  0  0  0  2  0  0  0  0  0  0
  -18.2340  -26.7240   22.3470 C   0  0  0  0  0  2  0  0  0  0  0  0
  -19.1010  -28.8970   23.3940 C   0  0  0  0  0  0  0  0  0  0  0  0
  -18.8370  -30.1720   23.9410 C   0  0  0  0  0  3  0  0  0  0  0  0
  -17.5170  -30.6430   24.0670 C   0  0  0  0  0  3  0  0  0  0  0  0
  -16.4410  -29.8360   23.6590 C   0  0  0  0  0  3  0  0  0  0  0  0
  -16.6880  -28.5620   23.1190 C   0  0  0  0  0  3  0  0  0  0  0  0
  -25.8830  -32.5840   23.8610 C   0  0  0  0  0  3  0  0  0  0  0  0
  -26.3990  -31.8320   25.1500 C   0  0  1  0  0  0  0  0  0  0  0  0
  -25.3060  -31.6150   26.2230 C   0  0  0  0  0  1  0  0  0  0  0  0
  -26.9780  -30.4460   24.7860 C   0  0  0  0  0  1  0  0  0  0  0  0
  -27.5520  -32.6350   25.7970 C   0  0  0  0  0  1  0  0  0  0  0  0
  -25.5720  -33.9890   24.1820 N   0  0  0  0  0  0  0  0  0  0  0  0
  -25.8910  -35.0390   23.4130 C   0  0  0  0  0  0  0  0  0  0  0  0
  -26.5410  -34.9300   22.3710 O   0  0  0  0  0  0  0  0  0  0  0  0
  -24.9930  -34.1460   24.9920 H   0  0  0  0  0  0  0  0  0  0  0  0
  -24.1560  -36.8360   23.0900 C   0  0  0  0  0  1  0  0  0  0  0  0
  -25.4170  -36.4340   23.8740 C   0  0  0  0  0  3  0  0  0  0  0  0
  -27.5650  -37.3300   24.6560 C   0  0  0  0  0  1  0  0  0  0  0  0
  -26.4480  -37.4840   23.7270 N   0  0  0  0  0  0  0  0  0  0  0  0
  -26.0460  -38.4070   23.8650 H   0  0  0  0  0  0  0  0  0  0  0  0
  1  5  1  0
  2  3  2  0
  2  4  1  0
  3  6  1  0
  4  1  2  0
  5 12  1  0
  6  5  2  0
  7  2  1  0
  8  3  1  0
  9  7  1  0
  9  8  1  0
 11 12  1  0
 12 10  1  0
 13 14  1  0
 14 23  2  0
 14  6  1  0
 15 23  1  0
 16 21  1  0
 17 18  1  0
 17 16  1  0
 19 18  1  0
 19 28  1  0
 19 20  1  0
 21 15  1  0
 21 20  1  0
 22 15  2  0
 23 24  1  0
 25 26  2  0
 26 45  1  0
 27 26  1  0
 27 30  1  0
 28 29  1  0
 28 25  1  0
 29 27  2  0
 30 31  1  0
 31 32  2  0
 33 36  1  0
 33 32  1  0
 34 33  2  0
 35 34  1  0
 35 30  2  0
 36 37  1  0
 37 38  1  0
 38 39  2  0
 40 39  1  0
 40 44  1  0
 41 40  2  0
 42 37  2  0
 42 41  1  0
 43 42  1  0
 45 46  1  0
 46 49  1  0
 46 48  1  0
 47 45  2  0
 50 51  1  0
 50 25  1  0
 52 50  1  0
 53  4  1  0
 53 54  1  0
 55 66  2  0
 56 54  1  0
 56 61  1  0
 57 65  1  0
 57 67  1  0
 58 64  1  0
 58 60  1  0
 59 65  1  0
 60 61  2  0
 60 59  1  0
 62 56  2  0
 63 62  1  0
 63 58  2  0
 64 57  1  0
 65 55  1  0
 67 69  2  0
 68 67  1  0
 70 68  1  0
 71 80  2  0
 71 76  1  0
 72 68  1  0
 72 76  1  0
 73 72  1  0
 74 75  1  0
 74 73  1  0
 75 71  1  0
 76 77  2  0
 77 78  1  0
 79 78  2  0
 80 79  1  0
 81 55  1  0
 81 86  1  0
 81 82  1  0
 82 85  1  1
 82 83  1  0
 84 82  1  0
 86 89  1  0
 87 91  1  0
 87 86  1  0
 88 87  2  0
 91 90  1  0
 93 94  1  0
 93 91  1  0
 93 92  1  0
M  ISO  4  15 100  23 100  53 101  54 101
M  END
>  <TORSDO>  (53) 
F 19

>  <SCORE>  (53) 
-16.103

>  <name>  (53) 
52

>  <ligand_id>  (53) 
52

>  <original_smiles>  (53) 
[H]c1c([H])c([H])c2c(c1[H])C([H])([H])C([H])([H])C([H])([H])C2([H])N([H])C(=O)C1([H])N(C(=O)C([H])(N([H])C(=O)C([H])(N([H])C([H])([H])[H])C([H])([H])[H])C(C([H])([H])[H])(C([H])([H])[H])C([H])([H])[H])C([H])([H])c2c([H])c(OC([H])([H])c3c([H])c(C([H])(C([H])([H])[H])C([H])([H])[H])c(C([H])(N([H])C(=O)N4C([H])([H])C([H])([H])C([H])([H])C([H])(n5nc(-c6c([H])c([H])c(Oc7c([H])c([H])c(F)c([H])c7F)c([H])c6[H])c(C(=O)N([H])[H])c5N([H])[H])C4([H])[H])C([H])([H])[H])c4c3C([H])([H])C([H])([H])C4([H])[H])c([H])c([H])c2C1([H])[H]

>  <smiles>  (53) 
[H]c1c([H])c([H])c2c(c1[H])C([H])([H])C([H])([H])C([H])([H])C2([H])N([H])C(=O)C1([H])N(C(=O)C([H])(N([H])C(=O)C([H])(N([H])C([H])([H])[H])C([H])([H])[H])C(C([H])([H])[H])(C([H])([H])[H])C([H])([H])[H])C([H])([H])c2c([H])c(OC([H])([H])c3c([H])c(C([H])(C([H])([H])[H])C([H])([H])[H])c(C([H])(N([H])C(=O)N4C([H])([H])C([H])([H])C([H])([H])C([H])(n5nc(-c6c([H])c([H])c(Oc7c([H])c([H])c(F)c([H])c7F)c([H])c6[H])c(C(=O)N([H])[H])c5N([H])[H])C4([H])[H])C([H])([H])[H])c4c3C([H])([H])C([H])([H])C4([H])[H])c([H])c([H])c2C1([H])[H]

$$$$
53:0:0
     RDKit          3D

 97107  0  0  1  0  0  0  0  0999 V2000
  -29.1190  -23.2960   18.5490 C   0  0  0  0  0  3  0  0  0  0  0  0
  -29.4500  -21.9970   18.9770 C   0  0  0  0  0  3  0  0  0  0  0  0
  -29.5770  -24.1410   20.7810 C   0  0  0  0  0  3  0  0  0  0  0  0
  -29.9050  -22.8390   21.2230 C   0  0  0  0  0  0  0  0  0  0  0  0
  -29.1940  -24.3790   19.4460 C   0  0  0  0  0  0  0  0  0  0  0  0
  -29.8620  -21.7540   20.3070 C   0  0  0  0  0  0  0  0  0  0  0  0
  -29.7600  -18.0580   20.9790 C   0  0  0  0  0  2  0  0  0  0  0  0
  -32.1350  -18.8140   20.6320 C   0  0  0  0  0  2  0  0  0  0  0  0
  -29.2860  -19.4310   20.4580 C   0  0  0  0  0  2  0  0  0  0  0  0
  -31.5990  -20.1550   20.1070 C   0  0  0  0  0  2  0  0  0  0  0  0
  -31.1340  -17.6650   20.3900 C   0  0  0  0  0  3  0  0  0  0  0  0
  -30.2910  -20.4680   20.6870 N   0  0  0  0  0  0  0  0  0  0  0  0
  -31.6780  -16.3340   20.9600 C   0  0  0  0  0  2  0  0  0  0  0  0
  -31.2330  -14.2250   19.7060 C   0  0  0  0  0  0  0  0  0  0  0  0
  -30.6440  -12.1040   18.5910 C   0  0  0  0  0  2  0  0  0  0  0  0
  -29.5940  -12.3200   17.4840 C   0  0  0  0  0  2  0  0  0  0  0  0
  -28.1690  -12.2780   18.0670 C   0  0  0  0  0  2  0  0  0  0  0  0
  -28.0070  -13.1730   19.3240 C   0  0  0  0  0  3  0  0  0  0  0  0
  -29.1520  -12.9270   20.3310 C   0  0  0  0  0  2  0  0  0  0  0  0
  -30.4330  -13.1270   19.6290 N   0  0  0  0  0  0  0  0  0  0  0  0
  -32.2410  -14.3670   19.0080 O   0  0  0  0  0  0  0  0  0  0  0  0
  -30.8710  -15.1630   20.5950 N   0  0  0  0  0  0  0  0  0  0  0  0
  -30.0050  -15.0240   21.0960 H   0  0  0  0  0  0  0  0  0  0  0  0
  -25.7640  -13.9520   20.3240 C   0  0  0  0  0  0  0  0  0  0  0  0
  -24.6750  -13.2610   20.7780 C   0  0  0  0  0  0  0  0  0  0  0  0
  -24.9990  -11.8760   20.6380 C   0  0  0  0  0  0  0  0  0  0  0  0
  -26.6920  -12.9970   19.9370 N   0  0  0  0  0  0  0  0  0  0  0  0
  -26.2390  -11.7400   20.1820 N   0  0  0  0  0  0  0  0  0  0  0  0
  -24.1830  -10.6770   20.8540 C   0  0  0  0  0  0  0  0  0  0  0  0
  -24.6030   -9.6420   21.7180 C   0  0  0  0  0  3  0  0  0  0  0  0
  -23.7910   -8.5070   21.9270 C   0  0  0  0  0  3  0  0  0  0  0  0
  -22.5400   -8.3990   21.2730 C   0  0  0  0  0  0  0  0  0  0  0  0
  -22.1360   -9.4220   20.3970 C   0  0  0  0  0  3  0  0  0  0  0  0
  -22.9480  -10.5480   20.1860 C   0  0  0  0  0  3  0  0  0  0  0  0
  -21.6970   -7.3220   21.3940 O   0  0  0  0  0  0  0  0  0  0  0  0
  -21.6510   -6.5690   22.5410 C   0  0  0  0  0  0  0  0  0  0  0  0
  -21.3530   -7.1430   23.7960 C   0  0  0  0  0  3  0  0  0  0  0  0
  -21.2470   -6.3240   24.9380 C   0  0  0  0  0  3  0  0  0  0  0  0
  -21.4270   -4.9310   24.8260 C   0  0  0  0  0  0  0  0  0  0  0  0
  -21.7170   -4.3580   23.5760 C   0  0  0  0  0  3  0  0  0  0  0  0
  -21.8250   -5.1750   22.4370 C   0  0  0  0  0  0  0  0  0  0  0  0
  -22.0840   -4.6140   21.2300 F   0  0  0  0  0  0  0  0  0  0  0  0
  -21.3180   -4.1420   25.9200 F   0  0  0  0  0  0  0  0  0  0  0  0
  -23.3670  -13.8460   21.2310 C   0  0  0  0  0  0  0  0  0  0  0  0
  -22.6910  -13.1870   22.1610 N   0  0  0  0  0  0  0  0  0  0  0  0
  -22.9640  -14.9230   20.7910 O   0  0  0  0  0  0  0  0  0  0  0  0
  -23.0330  -12.3130   22.5360 H   0  0  0  0  0  0  0  0  0  0  0  0
  -21.8160  -13.5580   22.5040 H   0  0  0  0  0  0  0  0  0  0  0  0
  -26.0440  -15.3090   20.1840 N   0  0  0  0  0  0  0  0  0  0  0  0
  -25.3690  -16.0320   20.4120 H   0  0  0  0  0  0  0  0  0  0  0  0
  -26.8980  -15.6790   19.7870 H   0  0  0  0  0  0  0  0  0  0  0  0
  -30.0960  -22.5620   24.7620 C   0  0  0  0  0  2  0  0  0  0  0  0
  -30.1340  -23.7130   23.7530 C   0  0  0  0  0  2  0  0  0  0  0  0
  -29.5670  -21.7060   23.6030 C   0  0  0  0  0  2  0  0  0  0  0  0
  -30.3490  -22.6400   22.6630 C   0  0  0  0  0  3  0  0  0  0  0  0
  -28.9320  -25.7920   18.9520 C   0  0  0  0  0  2  0  0  0  0  0  0
  -28.6240  -26.7060   20.0090 O   0  0  0  0  0  0  0  0  0  0  0  0
  -24.5820  -31.6120   23.1910 C   0  0  0  0  0  0  0  0  0  0  0  0
  -27.3880  -27.3120   20.0500 C   0  0  0  0  0  0  0  0  0  0  0  0
  -23.4380  -30.2230   21.4950 C   0  0  0  0  0  3  0  0  0  0  0  0
  -24.9460  -28.7340   20.0850 C   0  0  0  0  0  0  0  0  0  0  0  0
  -25.9590  -30.6370   21.3560 C   0  0  0  0  0  2  0  0  0  0  0  0
  -26.0810  -29.2800   20.6960 C   0  0  0  0  0  0  0  0  0  0  0  0
  -27.3000  -28.5700   20.6830 C   0  0  0  0  0  3  0  0  0  0  0  0
  -26.2180  -26.7500   19.4860 C   0  0  0  0  0  3  0  0  0  0  0  0
  -25.0040  -27.4620   19.4920 C   0  0  0  0  0  3  0  0  0  0  0  0
  -23.6950  -29.5800   20.1080 C   0  0  0  0  0  2  0  0  0  0  0  0
  -24.6770  -30.8360   22.0750 N   0  0  0  0  0  0  0  0  0  0  0  0
  -23.4840  -31.8520   23.7120 O   0  0  0  0  0  0  0  0  0  0  0  0
  -22.7830  -29.1690   22.4180 C   0  0  0  0  0  0  0  0  0  0  0  0
  -21.4630  -28.9720   22.2640 N   0  0  0  0  0  0  0  0  0  0  0  0
  -23.4600  -28.5320   23.2300 O   0  0  0  0  0  0  0  0  0  0  0  0
  -20.9780  -29.5500   21.5920 H   0  0  0  0  0  0  0  0  0  0  0  0
  -18.0950  -27.7260   22.6700 C   0  0  0  0  0  0  0  0  0  0  0  0
  -20.6430  -28.0060   22.9950 C   0  0  0  0  0  3  0  0  0  0  0  0
  -20.7740  -26.5890   22.3900 C   0  0  0  0  0  2  0  0  0  0  0  0
  -19.6940  -26.2760   21.3490 C   0  0  0  0  0  2  0  0  0  0  0  0
  -18.2970  -26.3960   21.9650 C   0  0  0  0  0  2  0  0  0  0  0  0
  -19.1970  -28.4900   23.1380 C   0  0  0  0  0  0  0  0  0  0  0  0
  -18.9550  -29.7380   23.7500 C   0  0  0  0  0  3  0  0  0  0  0  0
  -17.6420  -30.2210   23.9050 C   0  0  0  0  0  3  0  0  0  0  0  0
  -16.5530  -29.4540   23.4550 C   0  0  0  0  0  3  0  0  0  0  0  0
  -16.7810  -28.2090   22.8410 C   0  0  0  0  0  3  0  0  0  0  0  0
  -25.8450  -32.2500   23.8520 C   0  0  0  0  0  3  0  0  0  0  0  0
  -26.3300  -31.4810   25.1400 C   0  0  1  0  0  0  0  0  0  0  0  0
  -25.2130  -31.2480   26.1820 C   0  0  0  0  0  1  0  0  0  0  0  0
  -26.9280  -30.1040   24.7650 C   0  0  0  0  0  1  0  0  0  0  0  0
  -27.4620  -32.2770   25.8310 C   0  0  0  0  0  1  0  0  0  0  0  0
  -25.5170  -33.6470   24.1720 N   0  0  0  0  0  0  0  0  0  0  0  0
  -25.8430  -34.6970   23.4080 C   0  0  0  0  0  0  0  0  0  0  0  0
  -26.5270  -34.5960   22.3860 O   0  0  0  0  0  0  0  0  0  0  0  0
  -24.9290  -33.8020   24.9760 H   0  0  0  0  0  0  0  0  0  0  0  0
  -24.1000  -36.4690   23.0120 C   0  0  0  0  0  1  0  0  0  0  0  0
  -25.3320  -36.0830   23.8480 C   0  0  0  0  0  3  0  0  0  0  0  0
  -27.4340  -37.0070   24.7140 C   0  0  0  0  0  1  0  0  0  0  0  0
  -26.3530  -37.1470   23.7420 N   0  0  0  0  0  0  0  0  0  0  0  0
  -25.9330  -38.0660   23.8610 H   0  0  0  0  0  0  0  0  0  0  0  0
  1  2  2  0
  1  5  1  0
  2  6  1  0
  3  4  1  0
  4 55  1  0
  5  3  2  0
  6 12  1  0
  6  4  2  0
  9 12  1  0
  9  7  1  0
 10  8  1  0
 10 12  1  0
 11  8  1  0
 11 13  1  0
 11  7  1  0
 14 22  1  0
 15 20  1  0
 16 17  1  0
 16 15  1  0
 18 17  1  0
 18 27  1  0
 18 19  1  0
 20 14  1  0
 20 19  1  0
 21 14  2  0
 22 13  1  0
 22 23  1  0
 24 25  2  0
 25 44  1  0
 26 25  1  0
 26 29  1  0
 27 28  1  0
 27 24  1  0
 28 26  2  0
 29 30  1  0
 30 31  2  0
 32 35  1  0
 32 31  1  0
 33 32  2  0
 34 33  1  0
 34 29  2  0
 35 36  1  0
 36 37  1  0
 37 38  2  0
 39 38  1  0
 39 43  1  0
 40 39  2  0
 41 36  2  0
 41 40  1  0
 42 41  1  0
 44 45  1  0
 45 48  1  0
 45 47  1  0
 46 44  2  0
 49 24  1  0
 49 50  1  0
 51 49  1  0
 53 52  1  0
 54 52  1  0
 55 54  1  0
 55 53  1  0
 56  5  1  0
 56 57  1  0
 57 59  1  0
 58 69  2  0
 59 64  1  0
 60 68  1  0
 60 70  1  0
 61 67  1  0
 61 63  1  0
 62 68  1  0
 63 62  1  0
 64 63  2  0
 65 66  1  0
 65 59  2  0
 66 61  2  0
 67 60  1  0
 68 58  1  0
 70 72  2  0
 71 70  1  0
 73 71  1  0
 74 83  2  0
 74 79  1  0
 75 71  1  0
 75 79  1  0
 76 75  1  0
 77 78  1  0
 77 76  1  0
 78 74  1  0
 79 80  2  0
 80 81  1  0
 82 81  2  0
 83 82  1  0
 84 58  1  0
 84 89  1  0
 84 85  1  0
 85 88  1  1
 85 86  1  0
 87 85  1  0
 89 92  1  0
 90 94  1  0
 90 89  1  0
 91 90  2  0
 94 93  1  0
 96 94  1  0
 96 97  1  0
 96 95  1  0
M  ISO  4  14 100  22 100  56 101  57 101
M  END
>  <TORSDO>  (54) 
F 20

>  <SCORE>  (54) 
-12.880

>  <name>  (54) 
53

>  <ligand_id>  (54) 
53

>  <original_smiles>  (54) 
[H]c1c([H])c([H])c2c(c1[H])C([H])([H])C([H])([H])C([H])([H])C2([H])N([H])C(=O)C1([H])N(C(=O)C([H])(N([H])C(=O)C([H])(N([H])C([H])([H])[H])C([H])([H])[H])C(C([H])([H])[H])(C([H])([H])[H])C([H])([H])[H])C([H])([H])c2c([H])c(OC([H])([H])c3c([H])c([H])c(N4C([H])([H])C([H])([H])C([H])(C([H])([H])N([H])C(=O)N5C([H])([H])C([H])([H])C([H])([H])C([H])(n6nc(-c7c([H])c([H])c(Oc8c([H])c([H])c(F)c([H])c8F)c([H])c7[H])c(C(=O)N([H])[H])c6N([H])[H])C5([H])[H])C([H])([H])C4([H])[H])c(C4([H])C([H])([H])C([H])([H])C4([H])[H])c3[H])c([H])c([H])c2C1([H])[H]

>  <smiles>  (54) 
[H]c1c([H])c([H])c2c(c1[H])C([H])([H])C([H])([H])C([H])([H])C2([H])N([H])C(=O)C1([H])N(C(=O)C([H])(N([H])C(=O)C([H])(N([H])C([H])([H])[H])C([H])([H])[H])C(C([H])([H])[H])(C([H])([H])[H])C([H])([H])[H])C([H])([H])c2c([H])c(OC([H])([H])c3c([H])c([H])c(N4C([H])([H])C([H])([H])C([H])(C([H])([H])N([H])C(=O)N5C([H])([H])C([H])([H])C([H])([H])C([H])(n6nc(-c7c([H])c([H])c(Oc8c([H])c([H])c(F)c([H])c8F)c([H])c7[H])c(C(=O)N([H])[H])c6N([H])[H])C5([H])[H])C([H])([H])C4([H])[H])c(C4([H])C([H])([H])C([H])([H])C4([H])[H])c3[H])c([H])c([H])c2C1([H])[H]

$$$$
54:0:0
     RDKit          3D

 93103  0  0  1  0  0  0  0  0999 V2000
  -31.3220  -21.6480   20.8850 C   0  0  0  0  0  2  0  0  0  0  0  0
  -29.3900  -20.4590   21.5930 C   0  0  0  0  0  2  0  0  0  0  0  0
  -30.9650  -22.8280   21.9900 C   0  0  0  0  0  2  0  0  0  0  0  0
  -29.1000  -21.5680   22.7880 C   0  0  0  0  0  2  0  0  0  0  0  0
  -30.9120  -20.1230   21.1630 C   0  0  0  0  0  3  0  0  0  0  0  0
  -29.4800  -23.1150   22.5720 C   0  0  0  0  0  3  0  0  0  0  0  0
  -32.8770  -14.5050   19.8850 C   0  0  0  0  0  0  0  0  0  0  0  0
  -34.5100  -12.5270   20.0170 C   0  0  0  0  0  2  0  0  0  0  0  0
  -35.6650  -12.7880   21.0150 C   0  0  0  0  0  2  0  0  0  0  0  0
  -36.8170  -13.5440   20.3330 C   0  0  0  0  0  2  0  0  0  0  0  0
  -36.3070  -14.7210   19.4640 C   0  0  0  0  0  3  0  0  0  0  0  0
  -35.1160  -14.3270   18.5660 C   0  0  0  0  0  2  0  0  0  0  0  0
  -34.0480  -13.8440   19.4560 N   0  0  0  0  0  0  0  0  0  0  0  0
  -32.0480  -13.7710   20.4400 O   0  0  0  0  0  0  0  0  0  0  0  0
  -32.3510  -16.5200   18.5660 C   0  0  0  0  0  2  0  0  0  0  0  0
  -32.0880  -17.0560   20.8970 C   0  0  0  0  0  2  0  0  0  0  0  0
  -32.9860  -17.9100   18.3760 C   0  0  0  0  0  2  0  0  0  0  0  0
  -31.6000  -18.6480   20.4130 C   0  0  0  0  0  3  0  0  0  0  0  0
  -32.6940  -15.9570   19.8730 N   0  0  0  0  0  0  0  0  0  0  0  0
  -32.4760  -19.0270   19.2440 N   0  0  1  0  0  4  0  0  0  0  0  0
  -31.8570  -19.5420   18.6370 H   0  0  0  0  0  0  0  0  0  0  0  0
  -38.3470  -16.2300   19.1790 C   0  0  0  0  0  0  0  0  0  0  0  0
  -39.1730  -16.4760   18.1170 C   0  0  0  0  0  0  0  0  0  0  0  0
  -38.6510  -15.7170   17.0240 C   0  0  0  0  0  0  0  0  0  0  0  0
  -37.3810  -15.3570   18.7110 N   0  0  0  0  0  0  0  0  0  0  0  0
  -37.5320  -15.1000   17.3860 N   0  0  0  0  0  0  0  0  0  0  0  0
  -39.1900  -15.4960   15.6750 C   0  0  0  0  0  0  0  0  0  0  0  0
  -38.7990  -16.3010   14.5830 C   0  0  0  0  0  3  0  0  0  0  0  0
  -39.3490  -16.0840   13.3010 C   0  0  0  0  0  3  0  0  0  0  0  0
  -40.3010  -15.0560   13.1010 C   0  0  0  0  0  0  0  0  0  0  0  0
  -40.6690  -14.2430   14.1870 C   0  0  0  0  0  3  0  0  0  0  0  0
  -40.1170  -14.4570   15.4610 C   0  0  0  0  0  3  0  0  0  0  0  0
  -40.8690  -14.7560   11.8860 O   0  0  0  0  0  0  0  0  0  0  0  0
  -41.7240  -15.6260   11.2570 C   0  0  0  0  0  0  0  0  0  0  0  0
  -42.7150  -16.3400   11.9640 C   0  0  0  0  0  3  0  0  0  0  0  0
  -43.6170  -17.1690   11.2680 C   0  0  0  0  0  3  0  0  0  0  0  0
  -43.5350  -17.2780    9.8660 C   0  0  0  0  0  0  0  0  0  0  0  0
  -42.5530  -16.5640    9.1600 C   0  0  0  0  0  3  0  0  0  0  0  0
  -41.6520  -15.7370    9.8540 C   0  0  0  0  0  0  0  0  0  0  0  0
  -40.7190  -15.0340    9.1660 F   0  0  0  0  0  0  0  0  0  0  0  0
  -44.4070  -18.0690    9.1960 F   0  0  0  0  0  0  0  0  0  0  0  0
  -40.4380  -17.2830   18.1460 C   0  0  0  0  0  0  0  0  0  0  0  0
  -40.6650  -18.1030   17.1260 N   0  0  0  0  0  0  0  0  0  0  0  0
  -41.2080  -17.2260   19.1020 O   0  0  0  0  0  0  0  0  0  0  0  0
  -40.0200  -18.1640   16.3510 H   0  0  0  0  0  0  0  0  0  0  0  0
  -41.4950  -18.6790   17.1200 H   0  0  0  0  0  0  0  0  0  0  0  0
  -38.3530  -16.6470   20.5070 N   0  0  0  0  0  0  0  0  0  0  0  0
  -39.1490  -17.1540   20.8750 H   0  0  0  0  0  0  0  0  0  0  0  0
  -37.8100  -16.1860   21.2240 H   0  0  0  0  0  0  0  0  0  0  0  0
  -34.4850  -20.3610   18.4300 C   0  0  0  0  0  2  0  0  0  0  0  0
  -33.4680  -21.3430   18.9460 C   0  0  0  0  0  2  0  0  0  0  0  0
  -33.5760  -19.9700   19.5900 C   0  0  0  0  0  3  0  0  0  0  0  0
  -29.3530  -24.3340   23.6160 O   0  0  0  0  0  0  0  0  0  0  0  0
  -24.3070  -27.8600   27.7560 C   0  0  0  0  0  0  0  0  0  0  0  0
  -28.4120  -25.4450   23.7560 C   0  0  0  0  0  0  0  0  0  0  0  0
  -24.1810  -28.1460   25.3100 C   0  0  0  0  0  3  0  0  0  0  0  0
  -26.2690  -27.4420   23.9610 C   0  0  0  0  0  0  0  0  0  0  0  0
  -26.4600  -27.7310   26.4290 C   0  0  0  0  0  2  0  0  0  0  0  0
  -26.9570  -27.0680   25.1210 C   0  0  0  0  0  0  0  0  0  0  0  0
  -28.0300  -26.0950   25.0150 C   0  0  0  0  0  3  0  0  0  0  0  0
  -27.7180  -25.9440   22.6360 C   0  0  0  0  0  3  0  0  0  0  0  0
  -26.6720  -26.8980   22.7270 C   0  0  0  0  0  3  0  0  0  0  0  0
  -25.1040  -28.4170   24.0880 C   0  0  0  0  0  2  0  0  0  0  0  0
  -24.9720  -27.8920   26.5570 N   0  0  0  0  0  0  0  0  0  0  0  0
  -23.0810  -28.0450   27.8250 O   0  0  0  0  0  0  0  0  0  0  0  0
  -23.1980  -26.9970   24.9680 C   0  0  0  0  0  0  0  0  0  0  0  0
  -22.5240  -27.0860   23.8070 N   0  0  0  0  0  0  0  0  0  0  0  0
  -23.0720  -26.0370   25.7330 O   0  0  0  0  0  0  0  0  0  0  0  0
  -22.6670  -27.9070   23.2370 H   0  0  0  0  0  0  0  0  0  0  0  0
  -20.2300  -26.3570   21.0960 C   0  0  0  0  0  0  0  0  0  0  0  0
  -21.5980  -26.0810   23.2740 C   0  0  0  0  0  3  0  0  0  0  0  0
  -22.3620  -24.9610   22.5280 C   0  0  0  0  0  2  0  0  0  0  0  0
  -22.4880  -25.2180   21.0230 C   0  0  0  0  0  2  0  0  0  0  0  0
  -21.1050  -25.3420   20.3800 C   0  0  0  0  0  2  0  0  0  0  0  0
  -20.4700  -26.7150   22.4500 C   0  0  0  0  0  0  0  0  0  0  0  0
  -19.6460  -27.6870   23.0560 C   0  0  0  0  0  3  0  0  0  0  0  0
  -18.6000  -28.2950   22.3370 C   0  0  0  0  0  3  0  0  0  0  0  0
  -18.3580  -27.9270   21.0020 C   0  0  0  0  0  3  0  0  0  0  0  0
  -19.1690  -26.9570   20.3870 C   0  0  0  0  0  3  0  0  0  0  0  0
  -25.0550  -27.6050   29.1010 C   0  0  0  0  0  3  0  0  0  0  0  0
  -24.1810  -28.0540   30.1970 N   0  0  0  0  0  0  0  0  0  0  0  0
  -24.4650  -29.0490   31.0470 C   0  0  0  0  0  0  0  0  0  0  0  0
  -25.5390  -29.6560   31.0250 O   0  0  0  0  0  0  0  0  0  0  0  0
  -23.2610  -27.6380   30.2380 H   0  0  0  0  0  0  0  0  0  0  0  0
  -22.5950  -30.6470   31.5820 C   0  0  0  0  0  1  0  0  0  0  0  0
  -23.3920  -29.4340   32.0860 C   0  0  0  0  0  3  0  0  0  0  0  0
  -24.5000  -28.5510   34.0930 C   0  0  0  0  0  1  0  0  0  0  0  0
  -23.9460  -29.7270   33.4260 N   0  0  0  0  0  0  0  0  0  0  0  0
  -23.2350  -30.1280   34.0310 H   0  0  0  0  0  0  0  0  0  0  0  0
  -25.4570  -26.0920   29.3090 C   0  0  1  0  0  0  0  0  0  0  0  0
  -24.2830  -25.1040   29.1180 C   0  0  0  0  0  1  0  0  0  0  0  0
  -26.5800  -25.6810   28.3310 C   0  0  0  0  0  1  0  0  0  0  0  0
  -26.0230  -25.8930   30.7350 C   0  0  0  0  0  1  0  0  0  0  0  0
  1  3  1  0
  2  4  1  0
  3  6  1  0
  5  1  1  0
  5  2  1  0
  6  4  1  0
  6 53  1  0
  7 14  2  0
  8  9  1  0
 10  9  1  0
 11 12  1  0
 11 10  1  0
 12 13  1  0
 13  7  1  0
 13  8  1  0
 15 19  1  0
 17 15  1  0
 17 20  1  0
 18 16  1  0
 18  5  1  0
 19  7  1  0
 19 16  1  0
 20 21  1  6
 20 52  1  0
 20 18  1  0
 22 47  1  0
 23 42  1  0
 23 22  2  0
 24 26  2  0
 24 23  1  0
 25 22  1  0
 25 11  1  0
 26 25  1  0
 27 24  1  0
 28 27  2  0
 29 28  1  0
 30 29  2  0
 30 31  1  0
 31 32  2  0
 32 27  1  0
 33 30  1  0
 34 33  1  0
 34 35  1  0
 36 35  2  0
 37 36  1  0
 38 39  1  0
 38 37  2  0
 39 34  2  0
 40 39  1  0
 41 37  1  0
 42 44  2  0
 43 42  1  0
 45 43  1  0
 46 43  1  0
 47 48  1  0
 47 49  1  0
 50 51  1  0
 50 52  1  0
 51 52  1  0
 53 55  1  0
 54 65  2  0
 55 60  1  0
 56 66  1  0
 56 64  1  0
 57 63  1  0
 57 59  1  0
 58 64  1  0
 59 58  1  0
 60 59  2  0
 61 62  1  0
 61 55  2  0
 62 57  2  0
 63 56  1  0
 64 54  1  0
 66 68  2  0
 67 66  1  0
 69 67  1  0
 70 75  1  0
 71 67  1  0
 72 71  1  0
 73 72  1  0
 74 73  1  0
 74 70  1  0
 75 76  2  0
 75 71  1  0
 77 76  1  0
 78 77  2  0
 79 78  1  0
 79 70  2  0
 80 54  1  0
 80 90  1  0
 80 81  1  0
 81 84  1  0
 81 82  1  0
 82 86  1  0
 83 82  2  0
 86 85  1  0
 86 88  1  0
 88 89  1  0
 88 87  1  0
 90 93  1  1
 91 90  1  0
 92 90  1  0
M  ISO  4   6 101   7 100  19 100  53 101
M  END
>  <TORSDO>  (55) 
F 17

>  <SCORE>  (55) 
-1.810

>  <name>  (55) 
54

>  <ligand_id>  (55) 
54

>  <original_smiles>  (55) 
[H]c1c([H])c([H])c2c(c1[H])C([H])([H])C([H])([H])C([H])([H])C2([H])N([H])C(=O)C1([H])N(C(=O)C([H])(N([H])C(=O)C([H])(N([H])C([H])([H])[H])C([H])([H])[H])C(C([H])([H])[H])(C([H])([H])[H])C([H])([H])[H])C([H])([H])c2c([H])c(OC3([H])C([H])([H])C([H])([H])C([H])(C4([H])C([H])([H])N(C(=O)N5C([H])([H])C([H])([H])C([H])([H])C([H])(n6nc(-c7c([H])c([H])c(Oc8c([H])c([H])c(F)c([H])c8F)c([H])c7[H])c(C(=O)N([H])[H])c6N([H])[H])C5([H])[H])C([H])([H])C([H])([H])[N+]4([H])C4([H])C([H])([H])C4([H])[H])C([H])([H])C3([H])[H])c([H])c([H])c2C1([H])[H]

>  <smiles>  (55) 
[H]c1c([H])c([H])c2c(c1[H])C([H])([H])C([H])([H])C([H])([H])C2([H])N([H])C(=O)C1([H])N(C(=O)C([H])(N([H])C(=O)C([H])(N([H])C([H])([H])[H])C([H])([H])[H])C(C([H])([H])[H])(C([H])([H])[H])C([H])([H])[H])C([H])([H])c2c([H])c(OC3([H])C([H])([H])C([H])([H])C([H])(C4([H])C([H])([H])N(C(=O)N5C([H])([H])C([H])([H])C([H])([H])C([H])(n6nc(-c7c([H])c([H])c(Oc8c([H])c([H])c(F)c([H])c8F)c([H])c7[H])c(C(=O)N([H])[H])c6N([H])[H])C5([H])[H])C([H])([H])C([H])([H])[N+]4([H])C4([H])C([H])([H])C4([H])[H])C([H])([H])C3([H])[H])c([H])c([H])c2C1([H])[H]

$$$$
55:0:0
     RDKit          3D

 94103  0  0  1  0  0  0  0  0999 V2000
  -31.3430  -22.4080   19.5370 C   0  0  0  0  0  3  0  0  0  0  0  0
  -30.6420  -24.9830   19.4940 C   0  0  0  0  0  0  0  0  0  0  0  0
  -29.9760  -22.7110   19.8880 C   0  0  0  0  0  0  0  0  0  0  0  0
  -29.5650  -24.1540   19.8500 C   0  0  0  0  0  0  0  0  0  0  0  0
  -31.9290  -24.5100   19.1510 C   0  0  0  0  0  0  0  0  0  0  0  0
  -30.9910  -26.4050   19.1030 C   0  0  0  0  0  2  0  0  0  0  0  0
  -32.4290  -25.8450   18.6700 C   0  0  0  0  0  2  0  0  0  0  0  0
  -32.3360  -23.2510   19.1420 N   0  0  0  0  0  0  0  0  0  0  0  0
  -29.1320  -21.3610   20.1490 C   0  0  0  0  0  2  0  0  0  0  0  0
  -29.9070  -20.0480   20.4690 N   0  0  0  0  0  4  0  0  0  0  0  0
  -30.1910  -20.1010   21.4350 H   0  0  0  0  0  0  0  0  0  0  0  0
  -30.7500  -20.0710   19.9230 H   0  0  0  0  0  0  0  0  0  0  0  0
  -29.3380  -18.6260   20.2620 C   0  0  0  0  0  3  0  0  0  0  0  0
  -30.3100  -17.3590   20.6160 C   0  0  0  0  0  3  0  0  0  0  0  0
  -30.5700  -14.7560   20.3820 C   0  0  0  0  0  0  0  0  0  0  0  0
  -30.3610  -12.4790   19.3800 C   0  0  0  0  0  2  0  0  0  0  0  0
  -29.4240  -12.5530   18.1530 C   0  0  0  0  0  2  0  0  0  0  0  0
  -27.9560  -12.3770   18.5860 C   0  0  0  0  0  2  0  0  0  0  0  0
  -27.5780  -13.2740   19.7950 C   0  0  0  0  0  3  0  0  0  0  0  0
  -28.6380  -13.1940   20.9180 C   0  0  0  0  0  2  0  0  0  0  0  0
  -29.9300  -13.5410   20.3160 N   0  0  0  0  0  0  0  0  0  0  0  0
  -31.7650  -14.8370   20.0880 O   0  0  0  0  0  0  0  0  0  0  0  0
  -29.8190  -15.9070   20.5670 N   0  0  0  0  0  0  0  0  0  0  0  0
  -28.8320  -15.7630   20.7290 H   0  0  0  0  0  0  0  0  0  0  0  0
  -25.1880  -13.8660   20.5150 C   0  0  0  0  0  0  0  0  0  0  0  0
  -24.1210  -13.0930   20.8750 C   0  0  0  0  0  0  0  0  0  0  0  0
  -24.5810  -11.7410   20.8410 C   0  0  0  0  0  0  0  0  0  0  0  0
  -26.2340  -12.9860   20.2820 N   0  0  0  0  0  0  0  0  0  0  0  0
  -25.8740  -11.7020   20.5430 N   0  0  0  0  0  0  0  0  0  0  0  0
  -23.8520  -10.4800   21.0230 C   0  0  0  0  0  0  0  0  0  0  0  0
  -24.2740   -9.5180   21.9670 C   0  0  0  0  0  3  0  0  0  0  0  0
  -23.5470   -8.3200   22.1420 C   0  0  0  0  0  3  0  0  0  0  0  0
  -22.3850   -8.0780   21.3740 C   0  0  0  0  0  0  0  0  0  0  0  0
  -21.9810   -9.0280   20.4200 C   0  0  0  0  0  3  0  0  0  0  0  0
  -22.7060  -10.2200   20.2430 C   0  0  0  0  0  3  0  0  0  0  0  0
  -21.6270   -6.9340   21.4600 O   0  0  0  0  0  0  0  0  0  0  0  0
  -21.5540   -6.2050   22.6180 C   0  0  0  0  0  0  0  0  0  0  0  0
  -21.0860   -6.7640   23.8280 C   0  0  0  0  0  3  0  0  0  0  0  0
  -20.9610   -5.9560   24.9760 C   0  0  0  0  0  3  0  0  0  0  0  0
  -21.2950   -4.5880   24.9140 C   0  0  0  0  0  0  0  0  0  0  0  0
  -21.7530   -4.0300   23.7080 C   0  0  0  0  0  3  0  0  0  0  0  0
  -21.8800   -4.8340   22.5640 C   0  0  0  0  0  0  0  0  0  0  0  0
  -22.3010   -4.2850   21.3980 F   0  0  0  0  0  0  0  0  0  0  0  0
  -21.1670   -3.8090   26.0130 F   0  0  0  0  0  0  0  0  0  0  0  0
  -22.7220  -13.5710   21.1390 C   0  0  0  0  0  0  0  0  0  0  0  0
  -21.9930  -12.8720   22.0010 N   0  0  0  0  0  0  0  0  0  0  0  0
  -22.2870  -14.5960   20.6160 O   0  0  0  0  0  0  0  0  0  0  0  0
  -22.3660  -12.0500   22.4510 H   0  0  0  0  0  0  0  0  0  0  0  0
  -21.0500  -13.1660   22.2160 H   0  0  0  0  0  0  0  0  0  0  0  0
  -25.3460  -15.2380   20.3410 N   0  0  0  0  0  0  0  0  0  0  0  0
  -24.5580  -15.8700   20.4420 H   0  0  0  0  0  0  0  0  0  0  0  0
  -26.1730  -15.6950   19.9830 H   0  0  0  0  0  0  0  0  0  0  0  0
  -28.1980  -24.9480   19.9610 C   0  0  0  0  0  2  0  0  0  0  0  0
  -28.3070  -26.4330   20.2080 O   0  0  0  0  0  0  0  0  0  0  0  0
  -24.6220  -31.8870   23.2700 C   0  0  0  0  0  0  0  0  0  0  0  0
  -27.1850  -27.2900   20.1830 C   0  0  0  0  0  0  0  0  0  0  0  0
  -23.4050  -30.5060   21.6260 C   0  0  0  0  0  3  0  0  0  0  0  0
  -24.8390  -28.9490   20.1890 C   0  0  0  0  0  0  0  0  0  0  0  0
  -25.9500  -30.7930   21.4490 C   0  0  0  0  0  2  0  0  0  0  0  0
  -26.0140  -29.4200   20.7820 C   0  0  0  0  0  0  0  0  0  0  0  0
  -27.1900  -28.6040   20.7640 C   0  0  0  0  0  3  0  0  0  0  0  0
  -25.9760  -26.8760   19.5810 C   0  0  0  0  0  3  0  0  0  0  0  0
  -24.8240  -27.6850   19.5800 C   0  0  0  0  0  3  0  0  0  0  0  0
  -23.6080  -29.8330   20.2430 C   0  0  0  0  0  2  0  0  0  0  0  0
  -24.6770  -31.0800   22.1710 N   0  0  0  0  0  0  0  0  0  0  0  0
  -23.5410  -32.1740   23.8070 O   0  0  0  0  0  0  0  0  0  0  0  0
  -22.7360  -29.4940   22.5860 C   0  0  0  0  0  0  0  0  0  0  0  0
  -21.4110  -29.3150   22.4520 N   0  0  0  0  0  0  0  0  0  0  0  0
  -23.4070  -28.8700   23.4120 O   0  0  0  0  0  0  0  0  0  0  0  0
  -20.9220  -29.8630   21.7580 H   0  0  0  0  0  0  0  0  0  0  0  0
  -18.0360  -28.1100   22.9500 C   0  0  0  0  0  0  0  0  0  0  0  0
  -20.5920  -28.3780   23.2250 C   0  0  0  0  0  3  0  0  0  0  0  0
  -20.7010  -26.9450   22.6550 C   0  0  0  0  0  2  0  0  0  0  0  0
  -19.6040  -26.6180   21.6390 C   0  0  0  0  0  2  0  0  0  0  0  0
  -18.2190  -26.7610   22.2750 C   0  0  0  0  0  2  0  0  0  0  0  0
  -19.1520  -28.8770   23.3830 C   0  0  0  0  0  0  0  0  0  0  0  0
  -18.9280  -30.1390   23.9720 C   0  0  0  0  0  3  0  0  0  0  0  0
  -17.6210  -30.6370   24.1340 C   0  0  0  0  0  3  0  0  0  0  0  0
  -16.5200  -29.8690   23.7180 C   0  0  0  0  0  3  0  0  0  0  0  0
  -16.7280  -28.6080   23.1300 C   0  0  0  0  0  3  0  0  0  0  0  0
  -25.9110  -32.5090   23.8910 C   0  0  0  0  0  3  0  0  0  0  0  0
  -25.6150  -33.9120   24.2180 N   0  0  0  0  0  0  0  0  0  0  0  0
  -25.9320  -34.9600   23.4480 C   0  0  0  0  0  0  0  0  0  0  0  0
  -26.5770  -34.8490   22.4020 O   0  0  0  0  0  0  0  0  0  0  0  0
  -25.0390  -34.0730   25.0330 H   0  0  0  0  0  0  0  0  0  0  0  0
  -24.1960  -36.7550   23.1400 C   0  0  0  0  0  1  0  0  0  0  0  0
  -25.4610  -36.3520   23.9130 C   0  0  0  0  0  3  0  0  0  0  0  0
  -27.6180  -37.2450   24.6750 C   0  0  0  0  0  1  0  0  0  0  0  0
  -26.4900  -37.4040   23.7620 N   0  0  0  0  0  0  0  0  0  0  0  0
  -26.0870  -38.3250   23.9140 H   0  0  0  0  0  0  0  0  0  0  0  0
  -26.4230  -31.7380   25.1710 C   0  0  1  0  0  0  0  0  0  0  0  0
  -25.3270  -31.5160   26.2370 C   0  0  0  0  0  1  0  0  0  0  0  0
  -26.9950  -30.3520   24.7930 C   0  0  0  0  0  1  0  0  0  0  0  0
  -27.5770  -32.5280   25.8310 C   0  0  0  0  0  1  0  0  0  0  0  0
  1  3  1  0
  2  4  1  0
  3  9  1  0
  4  3  2  0
  4 53  1  0
  5  2  2  0
  6  2  1  0
  7  6  1  0
  7  5  1  0
  8  5  1  0
  8  1  2  0
  9 10  1  0
 10 11  1  0
 12 10  1  0
 13 10  1  0
 13 14  2  0
 15 23  1  0
 16 21  1  0
 17 18  1  0
 17 16  1  0
 19 18  1  0
 19 28  1  0
 19 20  1  0
 21 15  1  0
 21 20  1  0
 22 15  2  0
 23 14  1  0
 23 24  1  0
 25 26  2  0
 26 45  1  0
 27 26  1  0
 27 30  1  0
 28 25  1  0
 28 29  1  0
 29 27  2  0
 30 31  1  0
 31 32  2  0
 33 36  1  0
 33 32  1  0
 34 33  2  0
 35 34  1  0
 35 30  2  0
 36 37  1  0
 37 38  1  0
 38 39  2  0
 40 39  1  0
 40 44  1  0
 41 40  2  0
 42 37  2  0
 42 41  1  0
 43 42  1  0
 45 46  1  0
 46 49  1  0
 46 48  1  0
 47 45  2  0
 50 51  1  0
 50 25  1  0
 52 50  1  0
 53 54  1  0
 55 66  2  0
 56 54  1  0
 56 61  1  0
 57 65  1  0
 57 67  1  0
 58 64  1  0
 58 60  1  0
 59 65  1  0
 60 59  1  0
 61 60  2  0
 62 56  2  0
 63 62  1  0
 63 58  2  0
 64 57  1  0
 65 55  1  0
 67 69  2  0
 68 67  1  0
 70 68  1  0
 71 80  2  0
 71 76  1  0
 72 68  1  0
 72 76  1  0
 73 72  1  0
 74 75  1  0
 74 73  1  0
 75 71  1  0
 76 77  2  0
 77 78  1  0
 79 78  2  0
 80 79  1  0
 81 55  1  0
 81 82  1  0
 81 91  1  0
 82 85  1  0
 83 87  1  0
 83 82  1  0
 84 83  2  0
 87 86  1  0
 89 87  1  0
 89 90  1  0
 89 88  1  0
 91 94  1  1
 91 92  1  0
 93 91  1  0
M  ISO  4  15 100  23 100  53 101  54 101
M  END
>  <TORSDO>  (56) 
F 21

>  <SCORE>  (56) 
-13.325

>  <name>  (56) 
55

>  <ligand_id>  (56) 
55

>  <original_smiles>  (56) 
[H]c1nc2c(c(C([H])([H])Oc3c([H])c([H])c4c(c3[H])C([H])([H])N(C(=O)C([H])(N([H])C(=O)C([H])(N([H])C([H])([H])[H])C([H])([H])[H])C(C([H])([H])[H])(C([H])([H])[H])C([H])([H])[H])C([H])(C(=O)N([H])C3([H])c5c([H])c([H])c([H])c([H])c5C([H])([H])C([H])([H])C3([H])[H])C4([H])[H])c1C([H])([H])[N+]([H])([H])C([H])([H])C([H])([H])N([H])C(=O)N1C([H])([H])C([H])([H])C([H])([H])C([H])(n3nc(-c4c([H])c([H])c(Oc5c([H])c([H])c(F)c([H])c5F)c([H])c4[H])c(C(=O)N([H])[H])c3N([H])[H])C1([H])[H])C([H])([H])C2([H])[H]

>  <smiles>  (56) 
[H]c1nc2c(c(C([H])([H])Oc3c([H])c([H])c4c(c3[H])C([H])([H])N(C(=O)C([H])(N([H])C(=O)C([H])(N([H])C([H])([H])[H])C([H])([H])[H])C(C([H])([H])[H])(C([H])([H])[H])C([H])([H])[H])C([H])(C(=O)N([H])C3([H])c5c([H])c([H])c([H])c([H])c5C([H])([H])C([H])([H])C3([H])[H])C4([H])[H])c1C([H])([H])[N+]([H])([H])C([H])([H])C([H])([H])N([H])C(=O)N1C([H])([H])C([H])([H])C([H])([H])C([H])(n3nc(-c4c([H])c([H])c(Oc5c([H])c([H])c(F)c([H])c5F)c([H])c4[H])c(C(=O)N([H])[H])c3N([H])[H])C1([H])[H])C([H])([H])C2([H])[H]

$$$$
56:0:0
     RDKit          3D

 93101  0  0  1  0  0  0  0  0999 V2000
  -28.8000  -21.8850   20.8290 C   0  0  0  0  0  3  0  0  0  0  0  0
  -30.9720  -22.6140   21.6360 C   0  0  0  0  0  3  0  0  0  0  0  0
  -29.1790  -20.5360   21.0140 C   0  0  0  0  0  3  0  0  0  0  0  0
  -31.3490  -21.2680   21.8190 C   0  0  0  0  0  3  0  0  0  0  0  0
  -29.6890  -22.9380   21.1410 C   0  0  0  0  0  0  0  0  0  0  0  0
  -30.4660  -20.2130   21.5070 C   0  0  0  0  0  0  0  0  0  0  0  0
  -29.2720  -24.2700   20.9530 N   0  0  0  0  0  0  0  0  0  0  0  0
  -28.4150  -24.4590   20.4390 H   0  0  0  0  0  0  0  0  0  0  0  0
  -29.3700  -25.1430   23.2750 C   0  0  0  0  0  1  0  0  0  0  0  0
  -29.7580  -25.3660   21.7990 C   0  0  0  0  0  3  0  0  0  0  0  0
  -29.2760  -26.7630   21.3070 C   0  0  0  0  0  2  0  0  0  0  0  0
  -28.3980  -26.7080   20.1720 O   0  0  0  0  0  0  0  0  0  0  0  0
  -24.6090  -31.9020   23.2900 C   0  0  0  0  0  0  0  0  0  0  0  0
  -27.2710  -27.5050   20.1880 C   0  0  0  0  0  0  0  0  0  0  0  0
  -23.4010  -30.5050   21.6360 C   0  0  0  0  0  3  0  0  0  0  0  0
  -24.8590  -28.9870   20.1940 C   0  0  0  0  0  0  0  0  0  0  0  0
  -25.9170  -30.8900   21.4260 C   0  0  0  0  0  2  0  0  0  0  0  0
  -26.0100  -29.5210   20.7840 C   0  0  0  0  0  0  0  0  0  0  0  0
  -27.2180  -28.7930   20.7760 C   0  0  0  0  0  3  0  0  0  0  0  0
  -26.1100  -26.9960   19.5720 C   0  0  0  0  0  3  0  0  0  0  0  0
  -24.9020  -27.7230   19.5780 C   0  0  0  0  0  3  0  0  0  0  0  0
  -23.6090  -29.8360   20.2490 C   0  0  0  0  0  2  0  0  0  0  0  0
  -24.6600  -31.1120   22.1790 N   0  0  0  0  0  0  0  0  0  0  0  0
  -23.5290  -32.1670   23.8350 O   0  0  0  0  0  0  0  0  0  0  0  0
  -22.7560  -29.4730   22.5880 C   0  0  0  0  0  0  0  0  0  0  0  0
  -21.4320  -29.2870   22.4560 N   0  0  0  0  0  0  0  0  0  0  0  0
  -23.4380  -28.8440   23.4000 O   0  0  0  0  0  0  0  0  0  0  0  0
  -20.9420  -29.8490   21.7750 H   0  0  0  0  0  0  0  0  0  0  0  0
  -18.0620  -28.0770   22.9380 C   0  0  0  0  0  0  0  0  0  0  0  0
  -20.6170  -28.3400   23.2150 C   0  0  0  0  0  3  0  0  0  0  0  0
  -20.7250  -26.9140   22.6290 C   0  0  0  0  0  2  0  0  0  0  0  0
  -19.6230  -26.5910   21.6140 C   0  0  0  0  0  2  0  0  0  0  0  0
  -18.2420  -26.7300   22.2590 C   0  0  0  0  0  2  0  0  0  0  0  0
  -19.1770  -28.8410   23.3720 C   0  0  0  0  0  0  0  0  0  0  0  0
  -18.9570  -30.1020   23.9650 C   0  0  0  0  0  3  0  0  0  0  0  0
  -17.6500  -30.5990   24.1320 C   0  0  0  0  0  3  0  0  0  0  0  0
  -16.5470  -29.8310   23.7160 C   0  0  0  0  0  3  0  0  0  0  0  0
  -16.7560  -28.5720   23.1270 C   0  0  0  0  0  3  0  0  0  0  0  0
  -25.8970  -32.5290   23.9140 C   0  0  0  0  0  3  0  0  0  0  0  0
  -25.5920  -33.9280   24.2370 N   0  0  0  0  0  0  0  0  0  0  0  0
  -25.9130  -34.9740   23.4640 C   0  0  0  0  0  0  0  0  0  0  0  0
  -26.5680  -34.8600   22.4230 O   0  0  0  0  0  0  0  0  0  0  0  0
  -25.0190  -34.0920   25.0520 H   0  0  0  0  0  0  0  0  0  0  0  0
  -24.1750  -36.7560   23.1200 C   0  0  0  0  0  1  0  0  0  0  0  0
  -25.4300  -36.3650   23.9170 C   0  0  0  0  0  3  0  0  0  0  0  0
  -27.5760  -37.2620   24.7000 C   0  0  0  0  0  1  0  0  0  0  0  0
  -26.4570  -37.4200   23.7740 N   0  0  0  0  0  0  0  0  0  0  0  0
  -26.0510  -38.3400   23.9210 H   0  0  0  0  0  0  0  0  0  0  0  0
  -26.4110  -31.7560   25.1900 C   0  0  1  0  0  0  0  0  0  0  0  0
  -25.3160  -31.5160   26.2550 C   0  0  0  0  0  1  0  0  0  0  0  0
  -26.9940  -30.3790   24.7970 C   0  0  0  0  0  1  0  0  0  0  0  0
  -27.5600  -32.5470   25.8560 C   0  0  0  0  0  1  0  0  0  0  0  0
  -30.9360  -18.9280   21.7070 O   0  0  0  0  0  0  0  0  0  0  0  0
  -30.1680  -17.8120   21.2570 C   0  0  0  0  0  2  0  0  0  0  0  0
  -30.9640  -16.5320   21.5980 C   0  0  0  0  0  2  0  0  0  0  0  0
  -30.8060  -14.4280   20.2390 C   0  0  0  0  0  0  0  0  0  0  0  0
  -30.4040  -12.3220   19.0040 C   0  0  0  0  0  2  0  0  0  0  0  0
  -29.4120  -12.5350   17.8430 C   0  0  0  0  0  2  0  0  0  0  0  0
  -27.9610  -12.3940   18.3400 C   0  0  0  0  0  2  0  0  0  0  0  0
  -27.6840  -13.2440   19.6080 C   0  0  0  0  0  3  0  0  0  0  0  0
  -28.7730  -13.0020   20.6750 C   0  0  0  0  0  2  0  0  0  0  0  0
  -30.0830  -13.2910   20.0650 N   0  0  0  0  0  0  0  0  0  0  0  0
  -31.8400  -14.6720   19.6120 O   0  0  0  0  0  0  0  0  0  0  0  0
  -30.3220  -15.2900   21.1480 N   0  0  0  0  0  0  0  0  0  0  0  0
  -29.4690  -15.0200   21.6150 H   0  0  0  0  0  0  0  0  0  0  0  0
  -25.3270  -13.8850   20.4190 C   0  0  0  0  0  0  0  0  0  0  0  0
  -24.2600  -13.1250   20.8250 C   0  0  0  0  0  0  0  0  0  0  0  0
  -24.7020  -11.7670   20.7660 C   0  0  0  0  0  0  0  0  0  0  0  0
  -26.3460  -12.9880   20.1390 N   0  0  0  0  0  0  0  0  0  0  0  0
  -25.9750  -11.7100   20.4020 N   0  0  0  0  0  0  0  0  0  0  0  0
  -23.9670  -10.5120   20.9760 C   0  0  0  0  0  0  0  0  0  0  0  0
  -24.4170   -9.5330   21.8900 C   0  0  0  0  0  3  0  0  0  0  0  0
  -23.6830   -8.3420   22.0840 C   0  0  0  0  0  3  0  0  0  0  0  0
  -22.4830   -8.1240   21.3660 C   0  0  0  0  0  0  0  0  0  0  0  0
  -22.0510   -9.0930   20.4420 C   0  0  0  0  0  3  0  0  0  0  0  0
  -22.7870  -10.2730   20.2450 C   0  0  0  0  0  3  0  0  0  0  0  0
  -21.7150   -6.9900   21.4730 O   0  0  0  0  0  0  0  0  0  0  0  0
  -21.6840   -6.2490   22.6260 C   0  0  0  0  0  0  0  0  0  0  0  0
  -21.2980   -6.8090   23.8650 C   0  0  0  0  0  3  0  0  0  0  0  0
  -21.2170   -5.9940   25.0120 C   0  0  0  0  0  3  0  0  0  0  0  0
  -21.5100   -4.6190   24.9200 C   0  0  0  0  0  0  0  0  0  0  0  0
  -21.8930   -4.0610   23.6890 C   0  0  0  0  0  3  0  0  0  0  0  0
  -21.9760   -4.8730   22.5440 C   0  0  0  0  0  0  0  0  0  0  0  0
  -22.3220   -4.3250   21.3550 F   0  0  0  0  0  0  0  0  0  0  0  0
  -21.4260   -3.8330   26.0190 F   0  0  0  0  0  0  0  0  0  0  0  0
  -22.8820  -13.6190   21.1610 C   0  0  0  0  0  0  0  0  0  0  0  0
  -22.1860  -12.9210   22.0520 N   0  0  0  0  0  0  0  0  0  0  0  0
  -22.4330  -14.6550   20.6710 O   0  0  0  0  0  0  0  0  0  0  0  0
  -22.5590  -12.0790   22.4630 H   0  0  0  0  0  0  0  0  0  0  0  0
  -21.2650  -13.2290   22.3280 H   0  0  0  0  0  0  0  0  0  0  0  0
  -25.5150  -15.2530   20.2470 N   0  0  0  0  0  0  0  0  0  0  0  0
  -24.7850  -15.9410   20.3890 H   0  0  0  0  0  0  0  0  0  0  0  0
  -26.3760  -15.6590   19.8990 H   0  0  0  0  0  0  0  0  0  0  0  0
  1  3  2  0
  1  5  1  0
  2  4  1  0
  3  6  1  0
  5  2  2  0
  6 53  1  0
  6  4  2  0
  7  5  1  0
  7 10  1  0
  8  7  1  0
 10  9  1  0
 11 10  1  0
 12 14  1  0
 12 11  1  0
 13 24  2  0
 14 19  1  0
 15 23  1  0
 15 25  1  0
 16 22  1  0
 16 18  1  0
 17 23  1  0
 18 17  1  0
 19 18  2  0
 20 21  1  0
 20 14  2  0
 21 16  2  0
 22 15  1  0
 23 13  1  0
 25 27  2  0
 26 25  1  0
 28 26  1  0
 29 38  2  0
 29 34  1  0
 30 26  1  0
 30 34  1  0
 31 30  1  0
 32 33  1  0
 32 31  1  0
 33 29  1  0
 34 35  2  0
 35 36  1  0
 37 36  2  0
 38 37  1  0
 39 13  1  0
 39 40  1  0
 39 49  1  0
 40 43  1  0
 41 45  1  0
 41 40  1  0
 42 41  2  0
 45 44  1  0
 47 45  1  0
 47 48  1  0
 47 46  1  0
 49 52  1  1
 49 50  1  0
 51 49  1  0
 54 55  1  0
 54 53  1  0
 56 64  1  0
 57 62  1  0
 58 59  1  0
 58 57  1  0
 60 59  1  0
 60 69  1  0
 60 61  1  0
 62 56  1  0
 62 61  1  0
 63 56  2  0
 64 55  1  0
 64 65  1  0
 66 67  2  0
 67 86  1  0
 68 67  1  0
 68 71  1  0
 69 70  1  0
 69 66  1  0
 70 68  2  0
 71 72  1  0
 72 73  2  0
 74 77  1  0
 74 73  1  0
 75 74  2  0
 76 75  1  0
 76 71  2  0
 77 78  1  0
 78 79  1  0
 79 80  2  0
 81 80  1  0
 81 85  1  0
 82 81  2  0
 83 78  2  0
 83 82  1  0
 84 83  1  0
 86 87  1  0
 87 90  1  0
 87 89  1  0
 88 86  2  0
 91 92  1  0
 91 66  1  0
 93 91  1  0
M  ISO  4  11 101  12 101  56 100  64 100
M  END
>  <TORSDO>  (57) 
F 22

>  <SCORE>  (57) 
-13.376

>  <name>  (57) 
56

>  <ligand_id>  (57) 
56

>  <original_smiles>  (57) 
[H]c1c([H])c([H])c2c(c1[H])C([H])([H])C([H])([H])C([H])([H])C2([H])N([H])C(=O)C1([H])N(C(=O)C([H])(N([H])C(=O)C([H])(N([H])C([H])([H])[H])C([H])([H])[H])C(C([H])([H])[H])(C([H])([H])[H])C([H])([H])[H])C([H])([H])c2c([H])c(OC([H])([H])C([H])(N([H])c3c([H])c([H])c(OC([H])([H])C([H])([H])N([H])C(=O)N4C([H])([H])C([H])([H])C([H])([H])C([H])(n5nc(-c6c([H])c([H])c(Oc7c([H])c([H])c(F)c([H])c7F)c([H])c6[H])c(C(=O)N([H])[H])c5N([H])[H])C4([H])[H])c([H])c3[H])C([H])([H])[H])c([H])c([H])c2C1([H])[H]

>  <smiles>  (57) 
[H]c1c([H])c([H])c2c(c1[H])C([H])([H])C([H])([H])C([H])([H])C2([H])N([H])C(=O)C1([H])N(C(=O)C([H])(N([H])C(=O)C([H])(N([H])C([H])([H])[H])C([H])([H])[H])C(C([H])([H])[H])(C([H])([H])[H])C([H])([H])[H])C([H])([H])c2c([H])c(OC([H])([H])C([H])(N([H])c3c([H])c([H])c(OC([H])([H])C([H])([H])N([H])C(=O)N4C([H])([H])C([H])([H])C([H])([H])C([H])(n5nc(-c6c([H])c([H])c(Oc7c([H])c([H])c(F)c([H])c7F)c([H])c6[H])c(C(=O)N([H])[H])c5N([H])[H])C4([H])[H])c([H])c3[H])C([H])([H])[H])c([H])c([H])c2C1([H])[H]

$$$$
57:0:0
     RDKit          3D

 90 98  0  0  1  0  0  0  0  0999 V2000
  -29.3030  -23.5420   21.2120 C   0  0  0  0  0  3  0  0  0  0  0  0
  -29.6230  -22.1970   21.5710 C   0  0  0  0  0  3  0  0  0  0  0  0
  -28.4610  -22.6630   19.1640 C   0  0  0  0  0  3  0  0  0  0  0  0
  -28.7150  -23.8200   19.9590 C   0  0  0  0  0  0  0  0  0  0  0  0
  -29.3600  -21.1130   20.6960 C   0  0  0  0  0  0  0  0  0  0  0  0
  -28.7590  -21.3670   19.5110 N   0  0  0  0  0  0  0  0  0  0  0  0
  -29.7720  -19.7850   21.0520 N   0  0  0  0  0  0  0  0  0  0  0  0
  -30.2760  -19.7130   21.9300 H   0  0  0  0  0  0  0  0  0  0  0  0
  -28.4880  -25.2660   19.3610 C   0  0  0  0  0  2  0  0  0  0  0  0
  -28.3460  -26.4760   20.2070 O   0  0  0  0  0  0  0  0  0  0  0  0
  -24.6230  -31.8730   23.2340 C   0  0  0  0  0  0  0  0  0  0  0  0
  -27.2130  -27.3100   20.1460 C   0  0  0  0  0  0  0  0  0  0  0  0
  -23.4070  -30.4760   21.6030 C   0  0  0  0  0  3  0  0  0  0  0  0
  -24.8450  -28.9270   20.1670 C   0  0  0  0  0  0  0  0  0  0  0  0
  -25.9450  -30.7940   21.3990 C   0  0  0  0  0  2  0  0  0  0  0  0
  -26.0200  -29.4150   20.7500 C   0  0  0  0  0  0  0  0  0  0  0  0
  -27.2030  -28.6170   20.7330 C   0  0  0  0  0  3  0  0  0  0  0  0
  -25.9990  -26.8670   19.5690 C   0  0  0  0  0  3  0  0  0  0  0  0
  -24.8360  -27.6570   19.5730 C   0  0  0  0  0  3  0  0  0  0  0  0
  -23.6100  -29.8030   20.2220 C   0  0  0  0  0  2  0  0  0  0  0  0
  -24.6770  -31.0650   22.1350 N   0  0  0  0  0  0  0  0  0  0  0  0
  -23.5430  -32.1500   23.7770 O   0  0  0  0  0  0  0  0  0  0  0  0
  -22.7520  -29.4580   22.5680 C   0  0  0  0  0  0  0  0  0  0  0  0
  -21.4250  -29.2780   22.4500 N   0  0  0  0  0  0  0  0  0  0  0  0
  -23.4360  -28.8330   23.3840 O   0  0  0  0  0  0  0  0  0  0  0  0
  -20.9320  -29.8350   21.7670 H   0  0  0  0  0  0  0  0  0  0  0  0
  -18.0540  -28.0680   22.9610 C   0  0  0  0  0  0  0  0  0  0  0  0
  -20.6110  -28.3400   23.2260 C   0  0  0  0  0  3  0  0  0  0  0  0
  -20.7190  -26.9060   22.6560 C   0  0  0  0  0  2  0  0  0  0  0  0
  -19.6170  -26.5740   21.6440 C   0  0  0  0  0  2  0  0  0  0  0  0
  -18.2350  -26.7170   22.2890 C   0  0  0  0  0  2  0  0  0  0  0  0
  -19.1690  -28.8380   23.3850 C   0  0  0  0  0  0  0  0  0  0  0  0
  -18.9460  -30.1020   23.9710 C   0  0  0  0  0  3  0  0  0  0  0  0
  -17.6400  -30.5970   24.1400 C   0  0  0  0  0  3  0  0  0  0  0  0
  -16.5380  -29.8260   23.7310 C   0  0  0  0  0  3  0  0  0  0  0  0
  -16.7460  -28.5630   23.1480 C   0  0  0  0  0  3  0  0  0  0  0  0
  -25.9100  -32.5070   23.8480 C   0  0  0  0  0  3  0  0  0  0  0  0
  -26.4380  -31.7340   25.1190 C   0  0  1  0  0  0  0  0  0  0  0  0
  -25.3570  -31.4950   26.1990 C   0  0  0  0  0  1  0  0  0  0  0  0
  -27.0200  -30.3590   24.7200 C   0  0  0  0  0  1  0  0  0  0  0  0
  -27.5960  -32.5300   25.7700 C   0  0  0  0  0  1  0  0  0  0  0  0
  -25.6000  -33.9040   24.1850 N   0  0  0  0  0  0  0  0  0  0  0  0
  -25.9190  -34.9600   23.4260 C   0  0  0  0  0  0  0  0  0  0  0  0
  -26.5750  -34.8610   22.3860 O   0  0  0  0  0  0  0  0  0  0  0  0
  -25.0230  -34.0560   25.0000 H   0  0  0  0  0  0  0  0  0  0  0  0
  -24.1810  -36.7480   23.0970 C   0  0  0  0  0  1  0  0  0  0  0  0
  -25.4320  -36.3450   23.8930 C   0  0  0  0  0  3  0  0  0  0  0  0
  -27.5800  -37.2300   24.6950 C   0  0  0  0  0  1  0  0  0  0  0  0
  -26.4590  -37.4040   23.7750 N   0  0  0  0  0  0  0  0  0  0  0  0
  -26.0520  -38.3200   23.9420 H   0  0  0  0  0  0  0  0  0  0  0  0
  -29.4320  -18.4690   20.4180 C   0  0  0  0  0  2  0  0  0  0  0  0
  -30.3250  -17.2280   20.9130 C   0  0  0  0  0  2  0  0  0  0  0  0
  -30.5860  -14.6880   20.4160 C   0  0  0  0  0  0  0  0  0  0  0  0
  -30.3560  -12.4390   19.3680 C   0  0  0  0  0  2  0  0  0  0  0  0
  -29.4110  -12.5290   18.1500 C   0  0  0  0  0  2  0  0  0  0  0  0
  -27.9430  -12.3610   18.5880 C   0  0  0  0  0  2  0  0  0  0  0  0
  -27.5780  -13.2500   19.8070 C   0  0  0  0  0  3  0  0  0  0  0  0
  -28.6380  -13.1460   20.9250 C   0  0  0  0  0  2  0  0  0  0  0  0
  -29.9390  -13.4820   20.3290 N   0  0  0  0  0  0  0  0  0  0  0  0
  -31.7670  -14.7940   20.0740 O   0  0  0  0  0  0  0  0  0  0  0  0
  -29.8420  -15.8060   20.7150 N   0  0  0  0  0  0  0  0  0  0  0  0
  -28.8660  -15.6380   20.9100 H   0  0  0  0  0  0  0  0  0  0  0  0
  -25.1880  -13.8420   20.5300 C   0  0  0  0  0  0  0  0  0  0  0  0
  -24.1230  -13.0680   20.9010 C   0  0  0  0  0  0  0  0  0  0  0  0
  -24.5890  -11.7170   20.8770 C   0  0  0  0  0  0  0  0  0  0  0  0
  -26.2340  -12.9640   20.2980 N   0  0  0  0  0  0  0  0  0  0  0  0
  -25.8790  -11.6820   20.5690 N   0  0  0  0  0  0  0  0  0  0  0  0
  -23.8650  -10.4530   21.0690 C   0  0  0  0  0  0  0  0  0  0  0  0
  -24.3110   -9.4800   21.9900 C   0  0  0  0  0  3  0  0  0  0  0  0
  -23.5880   -8.2810   22.1700 C   0  0  0  0  0  3  0  0  0  0  0  0
  -22.4050   -8.0480   21.4290 C   0  0  0  0  0  0  0  0  0  0  0  0
  -21.9780   -9.0100   20.4970 C   0  0  0  0  0  3  0  0  0  0  0  0
  -22.7020  -10.2000   20.3150 C   0  0  0  0  0  3  0  0  0  0  0  0
  -21.6520   -6.9030   21.5210 O   0  0  0  0  0  0  0  0  0  0  0  0
  -21.6310   -6.1430   22.6620 C   0  0  0  0  0  0  0  0  0  0  0  0
  -21.2500   -6.6850   23.9110 C   0  0  0  0  0  3  0  0  0  0  0  0
  -21.1770   -5.8530   25.0450 C   0  0  0  0  0  3  0  0  0  0  0  0
  -21.4750   -4.4820   24.9340 C   0  0  0  0  0  0  0  0  0  0  0  0
  -21.8480   -3.9400   23.6930 C   0  0  0  0  0  3  0  0  0  0  0  0
  -21.9230   -4.7680   22.5590 C   0  0  0  0  0  0  0  0  0  0  0  0
  -22.2640   -4.2380   21.3600 F   0  0  0  0  0  0  0  0  0  0  0  0
  -21.3950   -3.6800   26.0230 F   0  0  0  0  0  0  0  0  0  0  0  0
  -22.7250  -13.5420   21.1700 C   0  0  0  0  0  0  0  0  0  0  0  0
  -21.9980  -12.8450   22.0370 N   0  0  0  0  0  0  0  0  0  0  0  0
  -22.2840  -14.5650   20.6470 O   0  0  0  0  0  0  0  0  0  0  0  0
  -22.3650  -12.0140   22.4770 H   0  0  0  0  0  0  0  0  0  0  0  0
  -21.0610  -13.1460   22.2640 H   0  0  0  0  0  0  0  0  0  0  0  0
  -25.3490  -15.2130   20.3470 N   0  0  0  0  0  0  0  0  0  0  0  0
  -24.5830  -15.8670   20.4550 H   0  0  0  0  0  0  0  0  0  0  0  0
  -26.1920  -15.6480   19.9930 H   0  0  0  0  0  0  0  0  0  0  0  0
  1  2  1  0
  3  6  2  0
  3  4  1  0
  4  1  2  0
  5  7  1  0
  5  2  2  0
  6  5  1  0
  7  8  1  0
  9  4  1  0
  9 10  1  0
 11 22  2  0
 12 10  1  0
 12 17  1  0
 13 21  1  0
 13 23  1  0
 14 20  1  0
 14 16  1  0
 15 21  1  0
 16 15  1  0
 17 16  2  0
 18 19  1  0
 18 12  2  0
 19 14  2  0
 20 13  1  0
 21 11  1  0
 23 25  2  0
 24 23  1  0
 26 24  1  0
 27 36  2  0
 27 32  1  0
 28 24  1  0
 28 32  1  0
 29 28  1  0
 30 31  1  0
 30 29  1  0
 31 27  1  0
 32 33  2  0
 33 34  1  0
 35 34  2  0
 36 35  1  0
 37 11  1  0
 37 42  1  0
 37 38  1  0
 38 41  1  1
 38 39  1  0
 40 38  1  0
 42 45  1  0
 43 47  1  0
 43 42  1  0
 44 43  2  0
 47 46  1  0
 49 47  1  0
 49 50  1  0
 49 48  1  0
 51 52  1  0
 51  7  1  0
 53 61  1  0
 54 59  1  0
 55 56  1  0
 55 54  1  0
 57 56  1  0
 57 66  1  0
 57 58  1  0
 59 53  1  0
 59 58  1  0
 60 53  2  0
 61 62  1  0
 61 52  1  0
 63 64  2  0
 64 83  1  0
 65 64  1  0
 65 68  1  0
 66 63  1  0
 66 67  1  0
 67 65  2  0
 68 69  1  0
 69 70  2  0
 71 74  1  0
 71 70  1  0
 72 71  2  0
 73 72  1  0
 73 68  2  0
 74 75  1  0
 75 76  1  0
 76 77  2  0
 78 77  1  0
 78 82  1  0
 79 78  2  0
 80 75  2  0
 80 79  1  0
 81 80  1  0
 83 84  1  0
 84 87  1  0
 84 86  1  0
 85 83  2  0
 88 89  1  0
 88 63  1  0
 90 88  1  0
M  ISO  4   9 101  10 101  53 100  61 100
M  END
>  <TORSDO>  (58) 
F 19

>  <SCORE>  (58) 
-14.266

>  <name>  (58) 
57

>  <ligand_id>  (58) 
57

>  <original_smiles>  (58) 
[H]c1nc(N([H])C([H])([H])C([H])([H])N([H])C(=O)N2C([H])([H])C([H])([H])C([H])([H])C([H])(n3nc(-c4c([H])c([H])c(Oc5c([H])c([H])c(F)c([H])c5F)c([H])c4[H])c(C(=O)N([H])[H])c3N([H])[H])C2([H])[H])c([H])c([H])c1C([H])([H])Oc1c([H])c([H])c2c(c1[H])C([H])([H])N(C(=O)C([H])(N([H])C(=O)C([H])(N([H])C([H])([H])[H])C([H])([H])[H])C(C([H])([H])[H])(C([H])([H])[H])C([H])([H])[H])C([H])(C(=O)N([H])C1([H])c3c([H])c([H])c([H])c([H])c3C([H])([H])C([H])([H])C1([H])[H])C2([H])[H]

>  <smiles>  (58) 
[H]c1nc(N([H])C([H])([H])C([H])([H])N([H])C(=O)N2C([H])([H])C([H])([H])C([H])([H])C([H])(n3nc(-c4c([H])c([H])c(Oc5c([H])c([H])c(F)c([H])c5F)c([H])c4[H])c(C(=O)N([H])[H])c3N([H])[H])C2([H])[H])c([H])c([H])c1C([H])([H])Oc1c([H])c([H])c2c(c1[H])C([H])([H])N(C(=O)C([H])(N([H])C(=O)C([H])(N([H])C([H])([H])[H])C([H])([H])[H])C(C([H])([H])[H])(C([H])([H])[H])C([H])([H])[H])C([H])(C(=O)N([H])C1([H])c3c([H])c([H])c([H])c([H])c3C([H])([H])C([H])([H])C1([H])[H])C2([H])[H]

$$$$
58:0:0
     RDKit          3D

 97106  0  0  1  0  0  0  0  0999 V2000
  -31.2220  -20.5870   19.7330 C   0  0  0  0  0  2  0  0  0  0  0  0
  -29.0140  -21.7240   19.8940 C   0  0  0  0  0  2  0  0  0  0  0  0
  -31.8470  -21.9360   19.3250 C   0  0  0  0  0  2  0  0  0  0  0  0
  -29.7770  -20.5480   19.2260 C   0  0  0  0  0  3  0  0  0  0  0  0
  -29.6660  -23.1210   19.5730 C   0  0  0  0  0  3  0  0  0  0  0  0
  -31.1460  -23.1230   19.9130 N   0  0  2  0  0  4  0  0  0  0  0  0
  -31.2310  -23.0310   20.9170 H   0  0  0  0  0  0  0  0  0  0  0  0
  -33.3280  -25.8340   20.0720 C   0  0  0  0  0  2  0  0  0  0  0  0
  -33.4140  -24.3670   19.6420 C   0  0  0  0  0  2  0  0  0  0  0  0
  -31.9330  -25.4950   20.6020 C   0  0  0  0  0  2  0  0  0  0  0  0
  -31.8680  -24.3820   19.5300 C   0  0  0  0  0  3  0  0  0  0  0  0
  -29.0980  -19.2100   19.2370 N   0  0  0  0  0  4  0  0  0  0  0  0
  -29.3350  -18.7710   18.3610 H   0  0  0  0  0  0  0  0  0  0  0  0
  -28.1030  -19.3670   19.1800 H   0  0  0  0  0  0  0  0  0  0  0  0
  -29.3370  -18.1800   20.3000 C   0  0  0  0  0  2  0  0  0  0  0  0
  -29.9290  -16.8540   19.7120 C   0  0  0  0  0  2  0  0  0  0  0  0
  -30.6710  -14.5740   20.4040 C   0  0  0  0  0  0  0  0  0  0  0  0
  -30.4090  -12.3830   19.3360 C   0  0  0  0  0  2  0  0  0  0  0  0
  -29.4800  -12.5980   18.1210 C   0  0  0  0  0  2  0  0  0  0  0  0
  -28.0040  -12.4530   18.5420 C   0  0  0  0  0  2  0  0  0  0  0  0
  -27.6530  -13.2750   19.8110 C   0  0  0  0  0  3  0  0  0  0  0  0
  -28.7070  -13.0740   20.9260 C   0  0  0  0  0  2  0  0  0  0  0  0
  -30.0320  -13.3720   20.3590 N   0  0  0  0  0  0  0  0  0  0  0  0
  -31.8290  -14.7260   20.0130 O   0  0  0  0  0  0  0  0  0  0  0  0
  -29.8600  -15.6430   20.5700 N   0  0  0  0  0  0  0  0  0  0  0  0
  -28.9590  -15.4280   20.9690 H   0  0  0  0  0  0  0  0  0  0  0  0
  -25.2430  -13.8640   20.4960 C   0  0  0  0  0  0  0  0  0  0  0  0
  -24.1760  -13.0860   20.8600 C   0  0  0  0  0  0  0  0  0  0  0  0
  -24.6490  -11.7380   20.8420 C   0  0  0  0  0  0  0  0  0  0  0  0
  -26.2980  -12.9910   20.2770 N   0  0  0  0  0  0  0  0  0  0  0  0
  -25.9430  -11.7070   20.5420 N   0  0  0  0  0  0  0  0  0  0  0  0
  -23.9320  -10.4700   21.0300 C   0  0  0  0  0  0  0  0  0  0  0  0
  -24.3580   -9.5100   21.9760 C   0  0  0  0  0  3  0  0  0  0  0  0
  -23.6370   -8.3100   22.1530 C   0  0  0  0  0  3  0  0  0  0  0  0
  -22.4790   -8.0580   21.3800 C   0  0  0  0  0  0  0  0  0  0  0  0
  -22.0710   -9.0080   20.4260 C   0  0  0  0  0  3  0  0  0  0  0  0
  -22.7930  -10.1980   20.2480 C   0  0  0  0  0  3  0  0  0  0  0  0
  -21.7320   -6.9060   21.4650 O   0  0  0  0  0  0  0  0  0  0  0  0
  -21.6650   -6.1720   22.6220 C   0  0  0  0  0  0  0  0  0  0  0  0
  -21.1980   -6.7320   23.8300 C   0  0  0  0  0  3  0  0  0  0  0  0
  -21.0780   -5.9270   24.9800 C   0  0  0  0  0  3  0  0  0  0  0  0
  -21.4210   -4.5610   24.9230 C   0  0  0  0  0  0  0  0  0  0  0  0
  -21.8840   -4.0020   23.7190 C   0  0  0  0  0  3  0  0  0  0  0  0
  -22.0030   -4.8060   22.5720 C   0  0  0  0  0  0  0  0  0  0  0  0
  -22.4290   -4.2590   21.4090 F   0  0  0  0  0  0  0  0  0  0  0  0
  -21.3010   -3.7830   26.0240 F   0  0  0  0  0  0  0  0  0  0  0  0
  -22.7730  -13.5550   21.1180 C   0  0  0  0  0  0  0  0  0  0  0  0
  -22.0360  -12.8590   21.9750 N   0  0  0  0  0  0  0  0  0  0  0  0
  -22.3360  -14.5780   20.5930 O   0  0  0  0  0  0  0  0  0  0  0  0
  -22.3990  -12.0350   22.4300 H   0  0  0  0  0  0  0  0  0  0  0  0
  -21.0960  -13.1630   22.1890 H   0  0  0  0  0  0  0  0  0  0  0  0
  -25.4020  -15.2350   20.3110 N   0  0  0  0  0  0  0  0  0  0  0  0
  -24.6290  -15.8860   20.4090 H   0  0  0  0  0  0  0  0  0  0  0  0
  -26.2390  -15.6650   19.9500 H   0  0  0  0  0  0  0  0  0  0  0  0
  -28.8420  -24.3080   20.2120 C   0  0  0  0  0  2  0  0  0  0  0  0
  -28.6990  -25.6140   19.3630 C   0  0  0  0  0  2  0  0  0  0  0  0
  -28.4190  -26.7800   20.1650 O   0  0  0  0  0  0  0  0  0  0  0  0
  -24.5440  -31.9010   23.2380 C   0  0  0  0  0  0  0  0  0  0  0  0
  -27.2120  -27.4570   20.1290 C   0  0  0  0  0  0  0  0  0  0  0  0
  -23.3390  -30.5020   21.5900 C   0  0  0  0  0  3  0  0  0  0  0  0
  -24.7980  -28.9620   20.1540 C   0  0  0  0  0  0  0  0  0  0  0  0
  -25.8620  -30.8560   21.3950 C   0  0  0  0  0  2  0  0  0  0  0  0
  -25.9480  -29.4800   20.7600 C   0  0  0  0  0  0  0  0  0  0  0  0
  -27.1450  -28.7280   20.7570 C   0  0  0  0  0  3  0  0  0  0  0  0
  -26.0380  -26.9550   19.5190 C   0  0  0  0  0  3  0  0  0  0  0  0
  -24.8410  -27.7020   19.5260 C   0  0  0  0  0  3  0  0  0  0  0  0
  -23.5480  -29.8150   20.2080 C   0  0  0  0  0  2  0  0  0  0  0  0
  -24.6000  -31.1040   22.1330 N   0  0  0  0  0  0  0  0  0  0  0  0
  -23.4620  -32.1750   23.7770 O   0  0  0  0  0  0  0  0  0  0  0  0
  -22.6850  -29.4850   22.5520 C   0  0  0  0  0  0  0  0  0  0  0  0
  -21.3640  -29.2910   22.4090 N   0  0  0  0  0  0  0  0  0  0  0  0
  -23.3650  -28.8710   23.3780 O   0  0  0  0  0  0  0  0  0  0  0  0
  -20.8790  -29.8370   21.7110 H   0  0  0  0  0  0  0  0  0  0  0  0
  -17.9990  -28.0500   22.8560 C   0  0  0  0  0  0  0  0  0  0  0  0
  -20.5470  -28.3470   23.1730 C   0  0  0  0  0  3  0  0  0  0  0  0
  -20.6800  -26.9140   22.6090 C   0  0  0  0  0  2  0  0  0  0  0  0
  -19.6030  -26.5670   21.5780 C   0  0  0  0  0  2  0  0  0  0  0  0
  -18.2080  -26.6980   22.1950 C   0  0  0  0  0  2  0  0  0  0  0  0
  -19.0990  -28.8310   23.3010 C   0  0  0  0  0  0  0  0  0  0  0  0
  -18.8530  -30.0970   23.8760 C   0  0  0  0  0  3  0  0  0  0  0  0
  -17.5380  -30.5810   24.0130 C   0  0  0  0  0  3  0  0  0  0  0  0
  -16.4520  -29.7980   23.5850 C   0  0  0  0  0  3  0  0  0  0  0  0
  -16.6840  -28.5340   23.0120 C   0  0  0  0  0  3  0  0  0  0  0  0
  -25.8290  -32.5310   23.8600 C   0  0  0  0  0  3  0  0  0  0  0  0
  -25.5260  -33.9330   24.1800 N   0  0  0  0  0  0  0  0  0  0  0  0
  -25.8770  -34.9790   23.4190 C   0  0  0  0  0  0  0  0  0  0  0  0
  -26.5590  -34.8640   22.3980 O   0  0  0  0  0  0  0  0  0  0  0  0
  -24.9180  -34.0960   24.9690 H   0  0  0  0  0  0  0  0  0  0  0  0
  -24.1760  -36.7880   23.0260 C   0  0  0  0  0  1  0  0  0  0  0  0
  -25.3960  -36.3740   23.8640 C   0  0  0  0  0  3  0  0  0  0  0  0
  -27.5220  -37.2400   24.7370 C   0  0  0  0  0  1  0  0  0  0  0  0
  -26.4410  -37.4170   23.7700 N   0  0  0  0  0  0  0  0  0  0  0  0
  -26.0440  -38.3420   23.9010 H   0  0  0  0  0  0  0  0  0  0  0  0
  -26.3390  -31.7640   25.1420 C   0  0  1  0  0  0  0  0  0  0  0  0
  -25.2430  -31.5330   26.2090 C   0  0  0  0  0  1  0  0  0  0  0  0
  -26.9190  -30.3840   24.7540 C   0  0  0  0  0  1  0  0  0  0  0  0
  -27.4950  -32.5550   25.8020 C   0  0  0  0  0  1  0  0  0  0  0  0
  3  1  1  0
  3  6  1  0
  4 12  1  0
  4  1  1  0
  4  2  1  0
  5  2  1  0
  5  6  1  0
  5 55  1  0
  6  7  1  1
  8 10  1  0
  9  8  1  0
 11  9  1  0
 11  6  1  0
 11 10  1  0
 12 15  1  0
 13 12  1  0
 14 12  1  0
 16 15  1  0
 16 25  1  0
 17 25  1  0
 18 23  1  0
 19 20  1  0
 19 18  1  0
 21 20  1  0
 21 30  1  0
 21 22  1  0
 23 17  1  0
 23 22  1  0
 24 17  2  0
 25 26  1  0
 27 28  2  0
 28 47  1  0
 29 28  1  0
 29 32  1  0
 30 27  1  0
 30 31  1  0
 31 29  2  0
 32 33  1  0
 33 34  2  0
 35 38  1  0
 35 34  1  0
 36 35  2  0
 37 36  1  0
 37 32  2  0
 38 39  1  0
 39 40  1  0
 40 41  2  0
 42 41  1  0
 42 46  1  0
 43 42  2  0
 44 39  2  0
 44 43  1  0
 45 44  1  0
 47 48  1  0
 48 51  1  0
 48 50  1  0
 49 47  2  0
 52 53  1  0
 52 27  1  0
 54 52  1  0
 56 57  1  0
 56 55  1  0
 58 69  2  0
 59 57  1  0
 59 64  1  0
 60 68  1  0
 60 70  1  0
 61 67  1  0
 61 63  1  0
 62 68  1  0
 63 62  1  0
 64 63  2  0
 65 66  1  0
 65 59  2  0
 66 61  2  0
 67 60  1  0
 68 58  1  0
 70 72  2  0
 71 70  1  0
 73 71  1  0
 74 83  2  0
 74 79  1  0
 75 71  1  0
 75 79  1  0
 76 75  1  0
 77 78  1  0
 77 76  1  0
 78 74  1  0
 79 80  2  0
 80 81  1  0
 82 81  2  0
 83 82  1  0
 84 58  1  0
 84 85  1  0
 84 94  1  0
 85 88  1  0
 86 90  1  0
 86 85  1  0
 87 86  2  0
 90 89  1  0
 92 90  1  0
 92 93  1  0
 92 91  1  0
 94 97  1  1
 94 95  1  0
 96 94  1  0
M  ISO  4  17 100  25 100  56 101  57 101
M  END
>  <TORSDO>  (59) 
F 22

>  <SCORE>  (59) 
-13.179

>  <name>  (59) 
58

>  <ligand_id>  (59) 
58

>  <original_smiles>  (59) 
[H]c1c([H])c([H])c2c(c1[H])C([H])([H])C([H])([H])C([H])([H])C2([H])N([H])C(=O)C1([H])N(C(=O)C([H])(N([H])C(=O)C([H])(N([H])C([H])([H])[H])C([H])([H])[H])C(C([H])([H])[H])(C([H])([H])[H])C([H])([H])[H])C([H])([H])c2c([H])c(OC([H])([H])C([H])([H])C3([H])C([H])([H])C([H])([N+]([H])([H])C([H])([H])C([H])([H])N([H])C(=O)N4C([H])([H])C([H])([H])C([H])([H])C([H])(n5nc(-c6c([H])c([H])c(Oc7c([H])c([H])c(F)c([H])c7F)c([H])c6[H])c(C(=O)N([H])[H])c5N([H])[H])C4([H])[H])C([H])([H])C([H])([H])[N+]3([H])C3([H])C([H])([H])C([H])([H])C3([H])[H])c([H])c([H])c2C1([H])[H]

>  <smiles>  (59) 
[H]c1c([H])c([H])c2c(c1[H])C([H])([H])C([H])([H])C([H])([H])C2([H])N([H])C(=O)C1([H])N(C(=O)C([H])(N([H])C(=O)C([H])(N([H])C([H])([H])[H])C([H])([H])[H])C(C([H])([H])[H])(C([H])([H])[H])C([H])([H])[H])C([H])([H])c2c([H])c(OC([H])([H])C([H])([H])C3([H])C([H])([H])C([H])([N+]([H])([H])C([H])([H])C([H])([H])N([H])C(=O)N4C([H])([H])C([H])([H])C([H])([H])C([H])(n5nc(-c6c([H])c([H])c(Oc7c([H])c([H])c(F)c([H])c7F)c([H])c6[H])c(C(=O)N([H])[H])c5N([H])[H])C4([H])[H])C([H])([H])C([H])([H])[N+]3([H])C3([H])C([H])([H])C([H])([H])C3([H])[H])c([H])c([H])c2C1([H])[H]

$$$$
59:0:0
     RDKit          3D

 96104  0  0  1  0  0  0  0  0999 V2000
  -28.6600  -21.6580   19.4840 C   0  0  0  0  0  3  0  0  0  0  0  0
  -26.9290  -22.8890   18.7840 C   0  0  0  0  0  3  0  0  0  0  0  0
  -28.2200  -22.9790   19.2080 C   0  0  0  0  0  0  0  0  0  0  0  0
  -27.6320  -20.7890   19.2260 C   0  0  0  0  0  0  0  0  0  0  0  0
  -26.5250  -21.5600   18.8210 N   0  0  0  0  0  0  0  0  0  0  0  0
  -24.6620  -19.7800   18.7630 C   0  0  0  0  0  1  0  0  0  0  0  0
  -24.9860  -21.4510   16.8920 C   0  0  0  0  0  1  0  0  0  0  0  0
  -25.1650  -21.1860   18.3900 C   0  0  0  0  0  3  0  0  0  0  0  0
  -27.6800  -19.2860   19.3100 C   0  0  0  0  0  2  0  0  0  0  0  0
  -28.7450  -18.7980   20.2100 N   0  0  0  0  0  4  0  0  0  0  0  0
  -29.6310  -19.0860   19.8390 H   0  0  0  0  0  0  0  0  0  0  0  0
  -28.6230  -19.2430   21.1050 H   0  0  0  0  0  0  0  0  0  0  0  0
  -28.7670  -17.3290   20.3880 C   0  0  0  0  0  2  0  0  0  0  0  0
  -29.9720  -16.8440   21.2240 C   0  0  0  0  0  2  0  0  0  0  0  0
  -30.6510  -14.5230   20.5380 C   0  0  0  0  0  0  0  0  0  0  0  0
  -30.4220  -12.3910   19.3240 C   0  0  0  0  0  2  0  0  0  0  0  0
  -29.4630  -12.5620   18.1260 C   0  0  0  0  0  2  0  0  0  0  0  0
  -27.9880  -12.4230   18.5570 C   0  0  0  0  0  2  0  0  0  0  0  0
  -27.6460  -13.2750   19.8090 C   0  0  0  0  0  3  0  0  0  0  0  0
  -28.6850  -12.9930   20.9150 C   0  0  0  0  0  2  0  0  0  0  0  0
  -30.0230  -13.3300   20.3810 N   0  0  0  0  0  0  0  0  0  0  0  0
  -31.6970  -14.8290   19.9620 O   0  0  0  0  0  0  0  0  0  0  0  0
  -29.9570  -15.3860   21.2950 N   0  0  0  0  0  0  0  0  0  0  0  0
  -29.1620  -14.9770   21.7620 H   0  0  0  0  0  0  0  0  0  0  0  0
  -25.2510  -13.9190   20.5200 C   0  0  0  0  0  0  0  0  0  0  0  0
  -24.1730  -13.1600   20.8850 C   0  0  0  0  0  0  0  0  0  0  0  0
  -24.6160  -11.8020   20.8410 C   0  0  0  0  0  0  0  0  0  0  0  0
  -26.2840  -13.0250   20.2760 N   0  0  0  0  0  0  0  0  0  0  0  0
  -25.9020  -11.7450   20.5210 N   0  0  0  0  0  0  0  0  0  0  0  0
  -23.8760  -10.5500   21.0230 C   0  0  0  0  0  0  0  0  0  0  0  0
  -24.3030   -9.5700   21.9450 C   0  0  0  0  0  3  0  0  0  0  0  0
  -23.5680   -8.3770   22.1120 C   0  0  0  0  0  3  0  0  0  0  0  0
  -22.3910   -8.1560   21.3570 C   0  0  0  0  0  0  0  0  0  0  0  0
  -21.9800   -9.1280   20.4260 C   0  0  0  0  0  3  0  0  0  0  0  0
  -22.7170  -10.3130   20.2580 C   0  0  0  0  0  3  0  0  0  0  0  0
  -21.6270   -7.0170   21.4350 O   0  0  0  0  0  0  0  0  0  0  0  0
  -21.5830   -6.2580   22.5780 C   0  0  0  0  0  0  0  0  0  0  0  0
  -21.1830   -6.8020   23.8180 C   0  0  0  0  0  3  0  0  0  0  0  0
  -21.0820   -5.9710   24.9520 C   0  0  0  0  0  3  0  0  0  0  0  0
  -21.3740   -4.5980   24.8470 C   0  0  0  0  0  0  0  0  0  0  0  0
  -21.7680   -4.0530   23.6120 C   0  0  0  0  0  3  0  0  0  0  0  0
  -21.8690   -4.8820   22.4800 C   0  0  0  0  0  0  0  0  0  0  0  0
  -22.2300   -4.3480   21.2880 F   0  0  0  0  0  0  0  0  0  0  0  0
  -21.2700   -3.7980   25.9340 F   0  0  0  0  0  0  0  0  0  0  0  0
  -22.7850  -13.6530   21.1700 C   0  0  0  0  0  0  0  0  0  0  0  0
  -22.0620  -12.9640   22.0430 N   0  0  0  0  0  0  0  0  0  0  0  0
  -22.3580  -14.6860   20.6550 O   0  0  0  0  0  0  0  0  0  0  0  0
  -22.4300  -12.1270   22.4720 H   0  0  0  0  0  0  0  0  0  0  0  0
  -21.1280  -13.2670   22.2800 H   0  0  0  0  0  0  0  0  0  0  0  0
  -25.4360  -15.2890   20.3510 N   0  0  0  0  0  0  0  0  0  0  0  0
  -24.6540  -15.9310   20.4150 H   0  0  0  0  0  0  0  0  0  0  0  0
  -26.2460  -15.6840   19.8990 H   0  0  0  0  0  0  0  0  0  0  0  0
  -28.9790  -24.1150   19.2940 O   0  0  0  0  0  0  0  0  0  0  0  0
  -29.2710  -24.5390   20.6240 C   0  0  0  0  0  2  0  0  0  0  0  0
  -28.2400  -25.5670   21.1070 C   0  0  0  0  0  2  0  0  0  0  0  0
  -28.1980  -26.6410   20.1730 O   0  0  0  0  0  0  0  0  0  0  0  0
  -24.5230  -31.8920   23.2390 C   0  0  0  0  0  0  0  0  0  0  0  0
  -27.0420  -27.3730   20.2120 C   0  0  0  0  0  0  0  0  0  0  0  0
  -23.2710  -30.5010   21.6210 C   0  0  0  0  0  3  0  0  0  0  0  0
  -24.6770  -28.9020   20.2190 C   0  0  0  0  0  0  0  0  0  0  0  0
  -25.7990  -30.8020   21.4010 C   0  0  0  0  0  2  0  0  0  0  0  0
  -25.8500  -29.4190   20.7880 C   0  0  0  0  0  0  0  0  0  0  0  0
  -27.0370  -28.6600   20.7830 C   0  0  0  0  0  3  0  0  0  0  0  0
  -25.8640  -26.8570   19.6410 C   0  0  0  0  0  3  0  0  0  0  0  0
  -24.6770  -27.6170   19.6430 C   0  0  0  0  0  3  0  0  0  0  0  0
  -23.4540  -29.7890   20.2530 C   0  0  0  0  0  2  0  0  0  0  0  0
  -24.5500  -31.0790   22.1470 N   0  0  0  0  0  0  0  0  0  0  0  0
  -23.4540  -32.1980   23.7840 O   0  0  0  0  0  0  0  0  0  0  0  0
  -22.5990  -29.5120   22.5990 C   0  0  0  0  0  0  0  0  0  0  0  0
  -21.2720  -29.3560   22.4700 N   0  0  0  0  0  0  0  0  0  0  0  0
  -23.2670  -28.8900   23.4300 O   0  0  0  0  0  0  0  0  0  0  0  0
  -20.7960  -29.9100   21.7690 H   0  0  0  0  0  0  0  0  0  0  0  0
  -17.8720  -28.2420   22.9680 C   0  0  0  0  0  0  0  0  0  0  0  0
  -20.4310  -28.4500   23.2530 C   0  0  0  0  0  3  0  0  0  0  0  0
  -20.5060  -27.0050   22.7100 C   0  0  0  0  0  2  0  0  0  0  0  0
  -19.4040  -26.6750   21.6980 C   0  0  0  0  0  2  0  0  0  0  0  0
  -18.0230  -26.8730   22.3270 C   0  0  0  0  0  2  0  0  0  0  0  0
  -19.0030  -28.9900   23.3900 C   0  0  0  0  0  0  0  0  0  0  0  0
  -18.8050  -30.2700   23.9500 C   0  0  0  0  0  3  0  0  0  0  0  0
  -17.5110  -30.8040   24.0950 C   0  0  0  0  0  3  0  0  0  0  0  0
  -16.3940  -30.0520   23.6930 C   0  0  0  0  0  3  0  0  0  0  0  0
  -16.5740  -28.7730   23.1350 C   0  0  0  0  0  3  0  0  0  0  0  0
  -25.8340  -32.4920   23.8470 C   0  0  0  0  0  3  0  0  0  0  0  0
  -25.5600  -33.8980   24.1760 N   0  0  0  0  0  0  0  0  0  0  0  0
  -25.9190  -34.9400   23.4140 C   0  0  0  0  0  0  0  0  0  0  0  0
  -26.5870  -34.8190   22.3840 O   0  0  0  0  0  0  0  0  0  0  0  0
  -24.9680  -34.0670   24.9750 H   0  0  0  0  0  0  0  0  0  0  0  0
  -24.2360  -36.7740   23.0620 C   0  0  0  0  0  1  0  0  0  0  0  0
  -25.4680  -36.3400   23.8710 C   0  0  0  0  0  3  0  0  0  0  0  0
  -27.6280  -37.1710   24.6910 C   0  0  0  0  0  1  0  0  0  0  0  0
  -26.5260  -37.3670   23.7530 N   0  0  0  0  0  0  0  0  0  0  0  0
  -26.1450  -38.2970   23.9020 H   0  0  0  0  0  0  0  0  0  0  0  0
  -26.3470  -31.7100   25.1160 C   0  0  1  0  0  0  0  0  0  0  0  0
  -25.2590  -31.4890   26.1940 C   0  0  0  0  0  1  0  0  0  0  0  0
  -26.9020  -30.3240   24.7120 C   0  0  0  0  0  1  0  0  0  0  0  0
  -27.5170  -32.4830   25.7700 C   0  0  0  0  0  1  0  0  0  0  0  0
  2  5  1  0
  2  3  2  0
  3 53  1  0
  3  1  1  0
  4  9  1  0
  4  1  2  0
  5  4  1  0
  7  8  1  0
  8  6  1  0
  8  5  1  0
  9 10  1  0
 10 13  1  0
 10 12  1  0
 11 10  1  0
 13 14  1  0
 14 23  1  0
 15 23  1  0
 16 21  1  0
 17 18  1  0
 17 16  1  0
 19 18  1  0
 19 28  1  0
 19 20  1  0
 21 15  1  0
 21 20  1  0
 22 15  2  0
 23 24  1  0
 25 26  2  0
 26 45  1  0
 27 26  1  0
 27 30  1  0
 28 25  1  0
 28 29  1  0
 29 27  2  0
 30 31  1  0
 31 32  2  0
 33 36  1  0
 33 32  1  0
 34 33  2  0
 35 34  1  0
 35 30  2  0
 36 37  1  0
 37 38  1  0
 38 39  2  0
 40 39  1  0
 40 44  1  0
 41 40  2  0
 42 37  2  0
 42 41  1  0
 43 42  1  0
 45 46  1  0
 46 49  1  0
 46 48  1  0
 47 45  2  0
 50 51  1  0
 50 25  1  0
 52 50  1  0
 53 54  1  0
 54 55  1  0
 56 58  1  0
 56 55  1  0
 57 68  2  0
 58 63  1  0
 59 67  1  0
 59 69  1  0
 60 66  1  0
 60 62  1  0
 61 67  1  0
 62 61  1  0
 63 62  2  0
 64 65  1  0
 64 58  2  0
 65 60  2  0
 66 59  1  0
 67 57  1  0
 69 71  2  0
 70 69  1  0
 72 70  1  0
 73 82  2  0
 73 78  1  0
 74 70  1  0
 74 78  1  0
 75 74  1  0
 76 77  1  0
 76 75  1  0
 77 73  1  0
 78 79  2  0
 79 80  1  0
 81 80  2  0
 82 81  1  0
 83 57  1  0
 83 84  1  0
 83 93  1  0
 84 87  1  0
 85 89  1  0
 85 84  1  0
 86 85  2  0
 89 88  1  0
 91 89  1  0
 91 92  1  0
 91 90  1  0
 93 96  1  1
 93 94  1  0
 95 93  1  0
M  ISO  4  15 100  23 100  55 101  56 101
M  END
>  <TORSDO>  (60) 
F 24

>  <SCORE>  (60) 
-11.896

>  <name>  (60) 
59

>  <ligand_id>  (60) 
59

>  <original_smiles>  (60) 
[H]c1c([H])c([H])c2c(c1[H])C([H])([H])C([H])([H])C([H])([H])C2([H])N([H])C(=O)C1([H])N(C(=O)C([H])(N([H])C(=O)C([H])(N([H])C([H])([H])[H])C([H])([H])[H])C(C([H])([H])[H])(C([H])([H])[H])C([H])([H])[H])C([H])([H])c2c([H])c(OC([H])([H])C([H])([H])Oc3c([H])c(C([H])([H])[N+]([H])([H])C([H])([H])C([H])([H])N([H])C(=O)N4C([H])([H])C([H])([H])C([H])([H])C([H])(n5nc(-c6c([H])c([H])c(Oc7c([H])c([H])c(F)c([H])c7F)c([H])c6[H])c(C(=O)N([H])[H])c5N([H])[H])C4([H])[H])n(C([H])(C([H])([H])[H])C([H])([H])[H])c3[H])c([H])c([H])c2C1([H])[H]

>  <smiles>  (60) 
[H]c1c([H])c([H])c2c(c1[H])C([H])([H])C([H])([H])C([H])([H])C2([H])N([H])C(=O)C1([H])N(C(=O)C([H])(N([H])C(=O)C([H])(N([H])C([H])([H])[H])C([H])([H])[H])C(C([H])([H])[H])(C([H])([H])[H])C([H])([H])[H])C([H])([H])c2c([H])c(OC([H])([H])C([H])([H])Oc3c([H])c(C([H])([H])[N+]([H])([H])C([H])([H])C([H])([H])N([H])C(=O)N4C([H])([H])C([H])([H])C([H])([H])C([H])(n5nc(-c6c([H])c([H])c(Oc7c([H])c([H])c(F)c([H])c7F)c([H])c6[H])c(C(=O)N([H])[H])c5N([H])[H])C4([H])[H])n(C([H])(C([H])([H])[H])C([H])([H])[H])c3[H])c([H])c([H])c2C1([H])[H]

$$$$
60:0:0
     RDKit          3D

 91 99  0  0  1  0  0  0  0  0999 V2000
  -29.9680  -22.8330   21.1680 C   0  0  0  0  0  3  0  0  0  0  0  0
  -27.9040  -21.8930   20.3000 C   0  0  0  0  0  3  0  0  0  0  0  0
  -30.5440  -21.5460   21.1860 C   0  0  0  0  0  3  0  0  0  0  0  0
  -28.4830  -20.6000   20.3190 C   0  0  0  0  0  3  0  0  0  0  0  0
  -28.6390  -23.0210   20.7350 C   0  0  0  0  0  0  0  0  0  0  0  0
  -29.8070  -20.4130   20.7800 C   0  0  0  0  0  0  0  0  0  0  0  0
  -30.4390  -19.1580   20.8630 N   0  0  0  0  0  0  0  0  0  0  0  0
  -31.3880  -19.1310   21.2300 H   0  0  0  0  0  0  0  0  0  0  0  0
  -29.7500  -17.8760   20.7260 C   0  0  0  0  0  2  0  0  0  0  0  0
  -30.5200  -16.7550   21.4670 C   0  0  0  0  0  2  0  0  0  0  0  0
  -30.6480  -14.4680   20.4340 C   0  0  0  0  0  0  0  0  0  0  0  0
  -30.3150  -12.3540   19.2040 C   0  0  0  0  0  2  0  0  0  0  0  0
  -29.3540  -12.5850   18.0210 C   0  0  0  0  0  2  0  0  0  0  0  0
  -27.8870  -12.4400   18.4710 C   0  0  0  0  0  2  0  0  0  0  0  0
  -27.5730  -13.2580   19.7530 C   0  0  0  0  0  3  0  0  0  0  0  0
  -28.6390  -12.9960   20.8400 C   0  0  0  0  0  2  0  0  0  0  0  0
  -29.9600  -13.3080   20.2670 N   0  0  0  0  0  0  0  0  0  0  0  0
  -31.7390  -14.6840   19.8960 O   0  0  0  0  0  0  0  0  0  0  0  0
  -30.0230  -15.4080   21.1630 N   0  0  0  0  0  0  0  0  0  0  0  0
  -29.1300  -15.1490   21.5580 H   0  0  0  0  0  0  0  0  0  0  0  0
  -25.1820  -13.8710   20.4870 C   0  0  0  0  0  0  0  0  0  0  0  0
  -24.1160  -13.0990   20.8630 C   0  0  0  0  0  0  0  0  0  0  0  0
  -24.5750  -11.7470   20.8250 C   0  0  0  0  0  0  0  0  0  0  0  0
  -26.2230  -12.9880   20.2430 N   0  0  0  0  0  0  0  0  0  0  0  0
  -25.8610  -11.7050   20.5030 N   0  0  0  0  0  0  0  0  0  0  0  0
  -23.8490  -10.4850   21.0190 C   0  0  0  0  0  0  0  0  0  0  0  0
  -24.2970   -9.5100   21.9370 C   0  0  0  0  0  3  0  0  0  0  0  0
  -23.5720   -8.3130   22.1200 C   0  0  0  0  0  3  0  0  0  0  0  0
  -22.3860   -8.0820   21.3840 C   0  0  0  0  0  0  0  0  0  0  0  0
  -21.9570   -9.0460   20.4540 C   0  0  0  0  0  3  0  0  0  0  0  0
  -22.6830  -10.2340   20.2690 C   0  0  0  0  0  3  0  0  0  0  0  0
  -21.6340   -6.9360   21.4740 O   0  0  0  0  0  0  0  0  0  0  0  0
  -21.6120   -6.1780   22.6170 C   0  0  0  0  0  0  0  0  0  0  0  0
  -21.2210   -6.7170   23.8620 C   0  0  0  0  0  3  0  0  0  0  0  0
  -21.1470   -5.8860   24.9980 C   0  0  0  0  0  3  0  0  0  0  0  0
  -21.4540   -4.5160   24.8890 C   0  0  0  0  0  0  0  0  0  0  0  0
  -21.8380   -3.9750   23.6490 C   0  0  0  0  0  3  0  0  0  0  0  0
  -21.9140   -4.8050   22.5160 C   0  0  0  0  0  0  0  0  0  0  0  0
  -22.2640   -4.2750   21.3180 F   0  0  0  0  0  0  0  0  0  0  0  0
  -21.3750   -3.7150   25.9770 F   0  0  0  0  0  0  0  0  0  0  0  0
  -22.7220  -13.5780   21.1530 C   0  0  0  0  0  0  0  0  0  0  0  0
  -22.0040  -12.8810   22.0260 N   0  0  0  0  0  0  0  0  0  0  0  0
  -22.2810  -14.6060   20.6410 O   0  0  0  0  0  0  0  0  0  0  0  0
  -22.3750  -12.0510   22.4620 H   0  0  0  0  0  0  0  0  0  0  0  0
  -21.0700  -13.1860   22.2630 H   0  0  0  0  0  0  0  0  0  0  0  0
  -25.3500  -15.2430   20.3170 N   0  0  0  0  0  0  0  0  0  0  0  0
  -24.5920  -15.9020   20.4550 H   0  0  0  0  0  0  0  0  0  0  0  0
  -26.2040  -15.6830   20.0000 H   0  0  0  0  0  0  0  0  0  0  0  0
  -28.0130  -24.4170   20.8070 C   0  0  0  0  0  2  0  0  0  0  0  0
  -28.5360  -25.4180   19.7480 C   0  0  0  0  0  2  0  0  0  0  0  0
  -28.4360  -26.7870   20.1730 O   0  0  0  0  0  0  0  0  0  0  0  0
  -24.5740  -31.8930   23.2580 C   0  0  0  0  0  0  0  0  0  0  0  0
  -27.2290  -27.4580   20.1670 C   0  0  0  0  0  0  0  0  0  0  0  0
  -23.3690  -30.4900   21.6150 C   0  0  0  0  0  3  0  0  0  0  0  0
  -24.8230  -28.9530   20.1910 C   0  0  0  0  0  0  0  0  0  0  0  0
  -25.8920  -30.8550   21.4120 C   0  0  0  0  0  2  0  0  0  0  0  0
  -25.9790  -29.4840   20.7750 C   0  0  0  0  0  0  0  0  0  0  0  0
  -27.1820  -28.7440   20.7570 C   0  0  0  0  0  3  0  0  0  0  0  0
  -26.0480  -26.9320   19.5950 C   0  0  0  0  0  3  0  0  0  0  0  0
  -24.8510  -27.6760   19.6030 C   0  0  0  0  0  3  0  0  0  0  0  0
  -23.5790  -29.8110   20.2350 C   0  0  0  0  0  2  0  0  0  0  0  0
  -24.6300  -31.0960   22.1550 N   0  0  0  0  0  0  0  0  0  0  0  0
  -23.4930  -32.1630   23.8000 O   0  0  0  0  0  0  0  0  0  0  0  0
  -22.7210  -29.4680   22.5760 C   0  0  0  0  0  0  0  0  0  0  0  0
  -21.3970  -29.2810   22.4470 N   0  0  0  0  0  0  0  0  0  0  0  0
  -23.4050  -28.8450   23.3920 O   0  0  0  0  0  0  0  0  0  0  0  0
  -20.9050  -29.8370   21.7610 H   0  0  0  0  0  0  0  0  0  0  0  0
  -18.0270  -28.0730   22.9360 C   0  0  0  0  0  0  0  0  0  0  0  0
  -20.5830  -28.3390   23.2150 C   0  0  0  0  0  3  0  0  0  0  0  0
  -20.6900  -26.9090   22.6390 C   0  0  0  0  0  2  0  0  0  0  0  0
  -19.5930  -26.5830   21.6200 C   0  0  0  0  0  2  0  0  0  0  0  0
  -18.2090  -26.7240   22.2610 C   0  0  0  0  0  2  0  0  0  0  0  0
  -19.1420  -28.8380   23.3700 C   0  0  0  0  0  0  0  0  0  0  0  0
  -18.9180  -30.1000   23.9610 C   0  0  0  0  0  3  0  0  0  0  0  0
  -17.6120  -30.5990   24.1200 C   0  0  0  0  0  3  0  0  0  0  0  0
  -16.5110  -29.8310   23.7020 C   0  0  0  0  0  3  0  0  0  0  0  0
  -16.7190  -28.5690   23.1190 C   0  0  0  0  0  3  0  0  0  0  0  0
  -25.8600  -32.5260   23.8790 C   0  0  0  0  0  3  0  0  0  0  0  0
  -25.5520  -33.9260   24.2010 N   0  0  0  0  0  0  0  0  0  0  0  0
  -25.8930  -34.9730   23.4380 C   0  0  0  0  0  0  0  0  0  0  0  0
  -26.5710  -34.8620   22.4120 O   0  0  0  0  0  0  0  0  0  0  0  0
  -24.9520  -34.0860   24.9960 H   0  0  0  0  0  0  0  0  0  0  0  0
  -24.1780  -36.7710   23.0490 C   0  0  0  0  0  1  0  0  0  0  0  0
  -25.4050  -36.3650   23.8810 C   0  0  0  0  0  3  0  0  0  0  0  0
  -27.5330  -37.2450   24.7340 C   0  0  0  0  0  1  0  0  0  0  0  0
  -26.4430  -37.4140   23.7760 N   0  0  0  0  0  0  0  0  0  0  0  0
  -26.0390  -38.3360   23.9110 H   0  0  0  0  0  0  0  0  0  0  0  0
  -26.3750  -31.7590   25.1590 C   0  0  1  0  0  0  0  0  0  0  0  0
  -25.2840  -31.5270   26.2280 C   0  0  0  0  0  1  0  0  0  0  0  0
  -26.9570  -30.3790   24.7680 C   0  0  0  0  0  1  0  0  0  0  0  0
  -27.5250  -32.5550   25.8180 C   0  0  0  0  0  1  0  0  0  0  0  0
  1  3  1  0
  2  4  2  0
  2  5  1  0
  4  6  1  0
  5 49  1  0
  5  1  2  0
  6  7  1  0
  6  3  2  0
  7  8  1  0
  9  7  1  0
  9 10  1  0
 11 19  1  0
 12 17  1  0
 13 14  1  0
 13 12  1  0
 15 14  1  0
 15 24  1  0
 15 16  1  0
 17 11  1  0
 17 16  1  0
 18 11  2  0
 19 10  1  0
 19 20  1  0
 21 22  2  0
 22 41  1  0
 23 22  1  0
 23 26  1  0
 24 21  1  0
 24 25  1  0
 25 23  2  0
 26 27  1  0
 27 28  2  0
 29 32  1  0
 29 28  1  0
 30 29  2  0
 31 30  1  0
 31 26  2  0
 32 33  1  0
 33 34  1  0
 34 35  2  0
 36 35  1  0
 36 40  1  0
 37 36  2  0
 38 33  2  0
 38 37  1  0
 39 38  1  0
 41 42  1  0
 42 45  1  0
 42 44  1  0
 43 41  2  0
 46 47  1  0
 46 21  1  0
 48 46  1  0
 50 51  1  0
 50 49  1  0
 52 63  2  0
 53 51  1  0
 53 58  1  0
 54 62  1  0
 54 64  1  0
 55 61  1  0
 55 57  1  0
 56 62  1  0
 57 56  1  0
 58 57  2  0
 59 60  1  0
 59 53  2  0
 60 55  2  0
 61 54  1  0
 62 52  1  0
 64 66  2  0
 65 64  1  0
 67 65  1  0
 68 77  2  0
 68 73  1  0
 69 65  1  0
 69 73  1  0
 70 69  1  0
 71 72  1  0
 71 70  1  0
 72 68  1  0
 73 74  2  0
 74 75  1  0
 76 75  2  0
 77 76  1  0
 78 52  1  0
 78 79  1  0
 78 88  1  0
 79 82  1  0
 80 84  1  0
 80 79  1  0
 81 80  2  0
 84 83  1  0
 86 84  1  0
 86 87  1  0
 86 85  1  0
 88 91  1  1
 88 89  1  0
 90 88  1  0
M  ISO  4  11 100  19 100  50 101  51 101
M  END
>  <TORSDO>  (61) 
F 21

>  <SCORE>  (61) 
-13.668

>  <name>  (61) 
60

>  <ligand_id>  (61) 
60

>  <original_smiles>  (61) 
[H]c1c([H])c([H])c2c(c1[H])C([H])([H])C([H])([H])C([H])([H])C2([H])N([H])C(=O)C1([H])N(C(=O)C([H])(N([H])C(=O)C([H])(N([H])C([H])([H])[H])C([H])([H])[H])C(C([H])([H])[H])(C([H])([H])[H])C([H])([H])[H])C([H])([H])c2c([H])c(OC([H])([H])C([H])([H])c3c([H])c([H])c(N([H])C([H])([H])C([H])([H])N([H])C(=O)N4C([H])([H])C([H])([H])C([H])([H])C([H])(n5nc(-c6c([H])c([H])c(Oc7c([H])c([H])c(F)c([H])c7F)c([H])c6[H])c(C(=O)N([H])[H])c5N([H])[H])C4([H])[H])c([H])c3[H])c([H])c([H])c2C1([H])[H]

>  <smiles>  (61) 
[H]c1c([H])c([H])c2c(c1[H])C([H])([H])C([H])([H])C([H])([H])C2([H])N([H])C(=O)C1([H])N(C(=O)C([H])(N([H])C(=O)C([H])(N([H])C([H])([H])[H])C([H])([H])[H])C(C([H])([H])[H])(C([H])([H])[H])C([H])([H])[H])C([H])([H])c2c([H])c(OC([H])([H])C([H])([H])c3c([H])c([H])c(N([H])C([H])([H])C([H])([H])N([H])C(=O)N4C([H])([H])C([H])([H])C([H])([H])C([H])(n5nc(-c6c([H])c([H])c(Oc7c([H])c([H])c(F)c([H])c7F)c([H])c6[H])c(C(=O)N([H])[H])c5N([H])[H])C4([H])[H])c([H])c3[H])c([H])c([H])c2C1([H])[H]

$$$$
61:0:0
     RDKit          3D

 89 97  0  0  1  0  0  0  0  0999 V2000
  -27.6070  -19.5970   20.9640 C   0  0  0  0  0  3  0  0  0  0  0  0
  -28.4380  -18.5030   20.6390 C   0  0  0  0  0  3  0  0  0  0  0  0
  -27.9480  -20.9270   20.6260 C   0  0  0  0  0  3  0  0  0  0  0  0
  -29.9720  -20.0750   19.6040 C   0  0  0  0  0  3  0  0  0  0  0  0
  -29.6550  -18.6960   19.9560 C   0  0  0  0  0  0  0  0  0  0  0  0
  -29.1390  -21.2280   19.9260 C   0  0  0  0  0  0  0  0  0  0  0  0
  -30.6040  -17.4460   19.6550 C   0  0  0  0  0  2  0  0  0  0  0  0
  -31.0050  -14.8590   19.8330 C   0  0  0  0  0  0  0  0  0  0  0  0
  -30.7670  -12.5390   18.9450 C   0  0  0  0  0  2  0  0  0  0  0  0
  -29.7640  -12.5590   17.7700 C   0  0  0  0  0  2  0  0  0  0  0  0
  -28.3220  -12.3990   18.2870 C   0  0  0  0  0  2  0  0  0  0  0  0
  -28.0080  -13.3330   19.4870 C   0  0  0  0  0  3  0  0  0  0  0  0
  -29.1270  -13.3040   20.5500 C   0  0  0  0  0  2  0  0  0  0  0  0
  -30.3850  -13.6310   19.8680 N   0  0  0  0  0  0  0  0  0  0  0  0
  -32.1710  -14.9460   19.4390 O   0  0  0  0  0  0  0  0  0  0  0  0
  -30.2360  -16.0010   20.0100 N   0  0  0  0  0  0  0  0  0  0  0  0
  -29.2820  -15.8450   20.2940 H   0  0  0  0  0  0  0  0  0  0  0  0
  -25.6970  -13.9450   20.4130 C   0  0  0  0  0  0  0  0  0  0  0  0
  -24.6420  -13.1810   20.8260 C   0  0  0  0  0  0  0  0  0  0  0  0
  -25.0650  -11.8220   20.7060 C   0  0  0  0  0  0  0  0  0  0  0  0
  -26.6970  -13.0530   20.0630 N   0  0  0  0  0  0  0  0  0  0  0  0
  -26.3290  -11.7680   20.3040 N   0  0  0  0  0  0  0  0  0  0  0  0
  -24.3210  -10.5700   20.8940 C   0  0  0  0  0  0  0  0  0  0  0  0
  -24.7300   -9.6010   21.8370 C   0  0  0  0  0  3  0  0  0  0  0  0
  -23.9850   -8.4150   22.0130 C   0  0  0  0  0  3  0  0  0  0  0  0
  -22.8170   -8.1890   21.2470 C   0  0  0  0  0  0  0  0  0  0  0  0
  -22.4270   -9.1460   20.2930 C   0  0  0  0  0  3  0  0  0  0  0  0
  -23.1730  -10.3230   20.1150 C   0  0  0  0  0  3  0  0  0  0  0  0
  -22.0450   -7.0550   21.3320 O   0  0  0  0  0  0  0  0  0  0  0  0
  -21.8910   -6.3780   22.5140 C   0  0  0  0  0  0  0  0  0  0  0  0
  -21.3280   -6.9890   23.6560 C   0  0  0  0  0  3  0  0  0  0  0  0
  -21.1230   -6.2370   24.8290 C   0  0  0  0  0  3  0  0  0  0  0  0
  -21.4710   -4.8740   24.8620 C   0  0  0  0  0  0  0  0  0  0  0  0
  -22.0290   -4.2620   23.7250 C   0  0  0  0  0  3  0  0  0  0  0  0
  -22.2340   -5.0120   22.5540 C   0  0  0  0  0  0  0  0  0  0  0  0
  -22.7510   -4.4120   21.4550 F   0  0  0  0  0  0  0  0  0  0  0  0
  -21.2680   -4.1490   25.9870 F   0  0  0  0  0  0  0  0  0  0  0  0
  -23.2810  -13.6780   21.2150 C   0  0  0  0  0  0  0  0  0  0  0  0
  -22.6010  -12.9670   22.1070 N   0  0  0  0  0  0  0  0  0  0  0  0
  -22.8330  -14.7310   20.7640 O   0  0  0  0  0  0  0  0  0  0  0  0
  -22.9800  -12.1130   22.4880 H   0  0  0  0  0  0  0  0  0  0  0  0
  -21.6920  -13.2820   22.4130 H   0  0  0  0  0  0  0  0  0  0  0  0
  -25.8830  -15.3190   20.2800 N   0  0  0  0  0  0  0  0  0  0  0  0
  -25.1320  -15.9760   20.4590 H   0  0  0  0  0  0  0  0  0  0  0  0
  -26.6920  -15.7510   19.8540 H   0  0  0  0  0  0  0  0  0  0  0  0
  -29.4720  -22.5690   19.5560 O   0  0  0  0  0  0  0  0  0  0  0  0
  -28.7210  -23.7860   20.0140 C   0  0  0  0  0  2  0  0  0  0  0  0
  -29.0170  -25.2120   19.2950 C   0  0  0  0  0  2  0  0  0  0  0  0
  -28.8560  -26.5630   19.9370 O   0  0  0  0  0  0  0  0  0  0  0  0
  -24.8210  -31.6340   23.1600 C   0  0  0  0  0  0  0  0  0  0  0  0
  -27.6910  -27.3580   19.8850 C   0  0  0  0  0  0  0  0  0  0  0  0
  -23.7120  -30.2870   21.4150 C   0  0  0  0  0  3  0  0  0  0  0  0
  -25.2560  -28.8840   19.9250 C   0  0  0  0  0  0  0  0  0  0  0  0
  -26.2380  -30.7180   21.3030 C   0  0  0  0  0  2  0  0  0  0  0  0
  -26.3910  -29.3820   20.5760 C   0  0  0  0  0  0  0  0  0  0  0  0
  -27.6060  -28.6300   20.5460 C   0  0  0  0  0  3  0  0  0  0  0  0
  -26.5280  -26.9170   19.2170 C   0  0  0  0  0  3  0  0  0  0  0  0
  -25.3300  -27.6610   19.2370 C   0  0  0  0  0  3  0  0  0  0  0  0
  -23.9820  -29.7020   20.0020 C   0  0  0  0  0  2  0  0  0  0  0  0
  -24.9420  -30.8960   22.0180 N   0  0  0  0  0  0  0  0  0  0  0  0
  -23.7160  -31.8320   23.6880 O   0  0  0  0  0  0  0  0  0  0  0  0
  -23.0780  -29.1890   22.3010 C   0  0  0  0  0  0  0  0  0  0  0  0
  -21.7610  -28.9670   22.1430 N   0  0  0  0  0  0  0  0  0  0  0  0
  -23.7690  -28.5400   23.0920 O   0  0  0  0  0  0  0  0  0  0  0  0
  -21.2610  -29.5470   21.4830 H   0  0  0  0  0  0  0  0  0  0  0  0
  -18.4250  -27.6190   22.5260 C   0  0  0  0  0  0  0  0  0  0  0  0
  -20.9700  -27.9510   22.8380 C   0  0  0  0  0  3  0  0  0  0  0  0
  -21.1280  -26.5670   22.1670 C   0  0  0  0  0  2  0  0  0  0  0  0
  -20.0450  -26.2740   21.1230 C   0  0  0  0  0  2  0  0  0  0  0  0
  -18.6550  -26.3250   21.7640 C   0  0  0  0  0  2  0  0  0  0  0  0
  -19.5110  -28.3900   23.0180 C   0  0  0  0  0  0  0  0  0  0  0  0
  -19.2440  -29.5990   23.6950 C   0  0  0  0  0  3  0  0  0  0  0  0
  -17.9210  -30.0400   23.8830 C   0  0  0  0  0  3  0  0  0  0  0  0
  -16.8480  -29.2670   23.4070 C   0  0  0  0  0  3  0  0  0  0  0  0
  -17.1000  -28.0580   22.7340 C   0  0  0  0  0  3  0  0  0  0  0  0
  -26.0610  -32.2850   23.8480 C   0  0  0  0  0  3  0  0  0  0  0  0
  -26.5500  -31.4930   25.1230 C   0  0  1  0  0  0  0  0  0  0  0  0
  -25.4260  -31.2010   26.1440 C   0  0  0  0  0  1  0  0  0  0  0  0
  -27.1820  -30.1410   24.7180 C   0  0  0  0  0  1  0  0  0  0  0  0
  -27.6560  -32.2970   25.8460 C   0  0  0  0  0  1  0  0  0  0  0  0
  -25.6990  -33.6640   24.2070 N   0  0  0  0  0  0  0  0  0  0  0  0
  -26.0170  -34.7480   23.4870 C   0  0  0  0  0  0  0  0  0  0  0  0
  -26.7150  -34.6940   22.4710 O   0  0  0  0  0  0  0  0  0  0  0  0
  -25.0790  -33.7780   24.9960 H   0  0  0  0  0  0  0  0  0  0  0  0
  -24.2350  -36.4920   23.1510 C   0  0  0  0  0  1  0  0  0  0  0  0
  -25.4770  -36.1080   23.9710 C   0  0  0  0  0  3  0  0  0  0  0  0
  -27.5630  -37.0510   24.8610 C   0  0  0  0  0  1  0  0  0  0  0  0
  -26.4750  -37.1980   23.8970 N   0  0  0  0  0  0  0  0  0  0  0  0
  -26.0350  -38.1020   24.0510 H   0  0  0  0  0  0  0  0  0  0  0  0
  2  1  1  0
  3  1  2  0
  4  6  2  0
  4  5  1  0
  5  2  2  0
  6  3  1  0
  7  5  1  0
  7 16  1  0
  8 14  1  0
  8 16  1  0
  9 14  1  0
 10 11  1  0
 10  9  1  0
 12 11  1  0
 12 21  1  0
 12 13  1  0
 14 13  1  0
 15  8  2  0
 16 17  1  0
 18 19  2  0
 19 38  1  0
 20 19  1  0
 20 23  1  0
 21 22  1  0
 21 18  1  0
 22 20  2  0
 23 24  1  0
 24 25  2  0
 26 29  1  0
 26 25  1  0
 27 26  2  0
 28 27  1  0
 28 23  2  0
 29 30  1  0
 30 35  2  0
 30 31  1  0
 31 32  2  0
 32 33  1  0
 33 37  1  0
 34 33  2  0
 35 34  1  0
 36 35  1  0
 38 39  1  0
 39 42  1  0
 39 41  1  0
 40 38  2  0
 43 18  1  0
 43 44  1  0
 45 43  1  0
 46  6  1  0
 46 47  1  0
 48 49  1  0
 48 47  1  0
 50 61  2  0
 51 49  1  0
 51 56  1  0
 52 60  1  0
 52 62  1  0
 53 59  1  0
 53 55  1  0
 54 60  1  0
 55 54  1  0
 56 55  2  0
 57 58  1  0
 57 51  2  0
 58 53  2  0
 59 52  1  0
 60 50  1  0
 62 64  2  0
 63 62  1  0
 65 63  1  0
 66 75  2  0
 66 71  1  0
 67 63  1  0
 67 71  1  0
 68 67  1  0
 69 70  1  0
 69 68  1  0
 70 66  1  0
 71 72  2  0
 72 73  1  0
 74 73  2  0
 75 74  1  0
 76 50  1  0
 76 81  1  0
 76 77  1  0
 77 80  1  1
 77 78  1  0
 79 77  1  0
 81 84  1  0
 82 86  1  0
 82 81  1  0
 83 82  2  0
 86 85  1  0
 88 86  1  0
 88 89  1  0
 88 87  1  0
M  ISO  4   8 100  16 100  48 101  49 101
M  END
>  <TORSDO>  (62) 
F 20

>  <SCORE>  (62) 
-11.645

>  <name>  (62) 
61

>  <ligand_id>  (62) 
61

>  <original_smiles>  (62) 
[H]c1c([H])c(OC([H])([H])C([H])([H])Oc2c([H])c([H])c3c(c2[H])C([H])([H])N(C(=O)C([H])(N([H])C(=O)C([H])(N([H])C([H])([H])[H])C([H])([H])[H])C(C([H])([H])[H])(C([H])([H])[H])C([H])([H])[H])C([H])(C(=O)N([H])C2([H])c4c([H])c([H])c([H])c([H])c4C([H])([H])C([H])([H])C2([H])[H])C3([H])[H])c([H])c(C([H])([H])N([H])C(=O)N2C([H])([H])C([H])([H])C([H])([H])C([H])(n3nc(-c4c([H])c([H])c(Oc5c([H])c([H])c(F)c([H])c5F)c([H])c4[H])c(C(=O)N([H])[H])c3N([H])[H])C2([H])[H])c1[H]

>  <smiles>  (62) 
[H]c1c([H])c(OC([H])([H])C([H])([H])Oc2c([H])c([H])c3c(c2[H])C([H])([H])N(C(=O)C([H])(N([H])C(=O)C([H])(N([H])C([H])([H])[H])C([H])([H])[H])C(C([H])([H])[H])(C([H])([H])[H])C([H])([H])[H])C([H])(C(=O)N([H])C2([H])c4c([H])c([H])c([H])c([H])c4C([H])([H])C([H])([H])C2([H])[H])C3([H])[H])c([H])c(C([H])([H])N([H])C(=O)N2C([H])([H])C([H])([H])C([H])([H])C([H])(n3nc(-c4c([H])c([H])c(Oc5c([H])c([H])c(F)c([H])c5F)c([H])c4[H])c(C(=O)N([H])[H])c3N([H])[H])C2([H])[H])c1[H]

$$$$
62:0:0
     RDKit          3D

101110  0  0  1  0  0  0  0  0999 V2000
  -30.9130  -20.1180   20.9900 C   0  0  0  0  0  0  0  0  0  0  0  0
  -33.4970  -20.9170   19.7050 C   0  0  0  0  0  2  0  0  0  0  0  0
  -33.2900  -19.6100   18.9160 C   0  0  0  0  0  2  0  0  0  0  0  0
  -28.7900  -18.9650   20.6780 C   0  0  0  0  0  2  0  0  0  0  0  0
  -31.2180  -18.8210   20.2310 C   0  0  0  0  0  3  0  0  0  0  0  0
  -29.4220  -20.2860   21.2170 C   0  0  0  0  0  3  0  0  0  0  0  0
  -29.9180  -17.9520   20.2950 C   0  0  0  0  0  3  0  0  0  0  0  0
  -33.1770  -20.7880   21.2070 C   0  0  0  0  0  3  0  0  0  0  0  0
  -31.8420  -19.0490   18.8050 C   0  0  1  0  0  0  0  0  0  0  0  0
  -33.9140  -21.8460   22.0370 C   0  0  0  0  0  1  0  0  0  0  0  0
  -30.9920  -19.9830   17.9110 C   0  0  0  0  0  1  0  0  0  0  0  0
  -31.9900  -17.6970   18.0630 C   0  0  0  0  0  1  0  0  0  0  0  0
  -31.7580  -20.9630   21.4360 N   0  0  0  0  0  0  0  0  0  0  0  0
  -28.8500  -21.5610   20.6380 N   0  0  0  0  0  4  0  0  0  0  0  0
  -27.8570  -21.5990   20.8120 H   0  0  0  0  0  0  0  0  0  0  0  0
  -28.9600  -21.5610   19.6390 H   0  0  0  0  0  0  0  0  0  0  0  0
  -29.3630  -22.8820   21.1410 C   0  0  0  0  0  2  0  0  0  0  0  0
  -28.3750  -24.0970   20.9740 C   0  0  0  0  0  3  0  0  0  0  0  0
  -27.1100  -23.5970   20.5520 O   0  0  0  0  0  0  0  0  0  0  0  0
  -26.4610  -24.2740   20.7240 H   0  0  0  0  0  0  0  0  0  0  0  0
  -28.8500  -25.2880   20.0560 C   0  0  0  0  0  2  0  0  0  0  0  0
  -28.6950  -26.6410   20.5680 O   0  0  0  0  0  0  0  0  0  0  0  0
  -24.6770  -31.8960   23.2660 C   0  0  0  0  0  0  0  0  0  0  0  0
  -27.5080  -27.3530   20.4490 C   0  0  0  0  0  0  0  0  0  0  0  0
  -23.5650  -30.4180   21.6240 C   0  0  0  0  0  3  0  0  0  0  0  0
  -25.0960  -28.8560   20.3050 C   0  0  0  0  0  0  0  0  0  0  0  0
  -26.0930  -30.8000   21.5230 C   0  0  0  0  0  2  0  0  0  0  0  0
  -26.2220  -29.4070   20.9300 C   0  0  0  0  0  0  0  0  0  0  0  0
  -27.4260  -28.6610   20.9990 C   0  0  0  0  0  3  0  0  0  0  0  0
  -26.3600  -26.8310   19.8130 C   0  0  0  0  0  3  0  0  0  0  0  0
  -25.1620  -27.5690   19.7450 C   0  0  0  0  0  3  0  0  0  0  0  0
  -23.8400  -29.7010   20.2760 C   0  0  0  0  0  2  0  0  0  0  0  0
  -24.7940  -31.0580   22.1950 N   0  0  0  0  0  0  0  0  0  0  0  0
  -23.5700  -32.1650   23.7520 O   0  0  0  0  0  0  0  0  0  0  0  0
  -22.8900  -29.4170   22.5910 C   0  0  0  0  0  0  0  0  0  0  0  0
  -21.5790  -29.1950   22.4070 N   0  0  0  0  0  0  0  0  0  0  0  0
  -23.5460  -28.8420   23.4630 O   0  0  0  0  0  0  0  0  0  0  0  0
  -21.1080  -29.7200   21.6820 H   0  0  0  0  0  0  0  0  0  0  0  0
  -18.2130  -27.9370   22.7860 C   0  0  0  0  0  0  0  0  0  0  0  0
  -20.7480  -28.2630   23.1680 C   0  0  0  0  0  3  0  0  0  0  0  0
  -20.9080  -26.8150   22.6460 C   0  0  0  0  0  2  0  0  0  0  0  0
  -19.8630  -26.4350   21.5910 C   0  0  0  0  0  2  0  0  0  0  0  0
  -18.4500  -26.5680   22.1670 C   0  0  0  0  0  2  0  0  0  0  0  0
  -19.2930  -28.7380   23.2420 C   0  0  0  0  0  0  0  0  0  0  0  0
  -19.0210  -30.0150   23.7760 C   0  0  0  0  0  3  0  0  0  0  0  0
  -17.7000  -30.4920   23.8660 C   0  0  0  0  0  3  0  0  0  0  0  0
  -16.6330  -29.6860   23.4320 C   0  0  0  0  0  3  0  0  0  0  0  0
  -16.8890  -28.4120   22.8950 C   0  0  0  0  0  3  0  0  0  0  0  0
  -25.9240  -32.5710   23.9130 C   0  0  0  0  0  3  0  0  0  0  0  0
  -25.5650  -33.9620   24.2210 N   0  0  0  0  0  0  0  0  0  0  0  0
  -25.8730  -35.0160   23.4520 C   0  0  0  0  0  0  0  0  0  0  0  0
  -26.5580  -34.9220   22.4300 O   0  0  0  0  0  0  0  0  0  0  0  0
  -24.9530  -34.1070   25.0090 H   0  0  0  0  0  0  0  0  0  0  0  0
  -24.0780  -36.7380   23.0710 C   0  0  0  0  0  1  0  0  0  0  0  0
  -25.3330  -36.3920   23.8880 C   0  0  0  0  0  3  0  0  0  0  0  0
  -27.4270  -37.3750   24.7130 C   0  0  0  0  0  1  0  0  0  0  0  0
  -26.3280  -37.4800   23.7570 N   0  0  0  0  0  0  0  0  0  0  0  0
  -25.8870  -38.3880   23.8810 H   0  0  0  0  0  0  0  0  0  0  0  0
  -26.4300  -31.8290   25.2120 C   0  0  1  0  0  0  0  0  0  0  0  0
  -25.3120  -31.5390   26.2410 C   0  0  0  0  0  1  0  0  0  0  0  0
  -27.0940  -30.4820   24.8440 C   0  0  0  0  0  1  0  0  0  0  0  0
  -27.5120  -32.6800   25.9150 C   0  0  0  0  0  1  0  0  0  0  0  0
  -30.1050  -16.6990   21.2410 C   0  0  0  0  0  2  0  0  0  0  0  0
  -30.2610  -14.3930   20.1710 C   0  0  0  0  0  0  0  0  0  0  0  0
  -29.9480  -12.2730   18.9260 C   0  0  0  0  0  2  0  0  0  0  0  0
  -28.8920  -12.4700   17.8200 C   0  0  0  0  0  2  0  0  0  0  0  0
  -27.4700  -12.2500   18.3730 C   0  0  0  0  0  2  0  0  0  0  0  0
  -27.2160  -13.0140   19.7010 C   0  0  0  0  0  3  0  0  0  0  0  0
  -28.3740  -12.7980   20.6990 C   0  0  0  0  0  2  0  0  0  0  0  0
  -29.6200  -13.1970   20.0260 N   0  0  0  0  0  0  0  0  0  0  0  0
  -31.3640  -14.6090   19.6620 O   0  0  0  0  0  0  0  0  0  0  0  0
  -29.5700  -15.3840   20.7950 N   0  0  0  0  0  0  0  0  0  0  0  0
  -28.6520  -15.1340   21.1310 H   0  0  0  0  0  0  0  0  0  0  0  0
  -24.8730  -13.4940   20.6420 C   0  0  0  0  0  0  0  0  0  0  0  0
  -23.8680  -12.6670   21.0630 C   0  0  0  0  0  0  0  0  0  0  0  0
  -24.3690  -11.3360   20.9300 C   0  0  0  0  0  0  0  0  0  0  0  0
  -25.9230  -12.6640   20.2820 N   0  0  0  0  0  0  0  0  0  0  0  0
  -25.6300  -11.3590   20.5150 N   0  0  0  0  0  0  0  0  0  0  0  0
  -23.7040  -10.0400   21.1200 C   0  0  0  0  0  0  0  0  0  0  0  0
  -24.2060   -9.0760   22.0210 C   0  0  0  0  0  3  0  0  0  0  0  0
  -23.5390   -7.8450   22.1990 C   0  0  0  0  0  3  0  0  0  0  0  0
  -22.3530   -7.5700   21.4760 C   0  0  0  0  0  0  0  0  0  0  0  0
  -21.8700   -8.5240   20.5620 C   0  0  0  0  0  3  0  0  0  0  0  0
  -22.5400   -9.7460   20.3820 C   0  0  0  0  0  3  0  0  0  0  0  0
  -21.6510   -6.3930   21.5660 O   0  0  0  0  0  0  0  0  0  0  0  0
  -21.6460   -5.6430   22.7150 C   0  0  0  0  0  0  0  0  0  0  0  0
  -21.1610   -6.1570   23.9370 C   0  0  0  0  0  3  0  0  0  0  0  0
  -21.1090   -5.3300   25.0770 C   0  0  0  0  0  3  0  0  0  0  0  0
  -21.5330   -3.9910   24.9960 C   0  0  0  0  0  0  0  0  0  0  0  0
  -22.0100   -3.4750   23.7780 C   0  0  0  0  0  3  0  0  0  0  0  0
  -22.0650   -4.2990   22.6410 C   0  0  0  0  0  0  0  0  0  0  0  0
  -22.5060   -3.7920   21.4640 F   0  0  0  0  0  0  0  0  0  0  0  0
  -21.4760   -3.1940   26.0890 F   0  0  0  0  0  0  0  0  0  0  0  0
  -22.4830  -13.0790   21.4730 C   0  0  0  0  0  0  0  0  0  0  0  0
  -21.8500  -12.3110   22.3520 N   0  0  0  0  0  0  0  0  0  0  0  0
  -21.9720  -14.1150   21.0480 O   0  0  0  0  0  0  0  0  0  0  0  0
  -22.2780  -11.4710   22.7140 H   0  0  0  0  0  0  0  0  0  0  0  0
  -20.9240  -12.5650   22.6670 H   0  0  0  0  0  0  0  0  0  0  0  0
  -24.9810  -14.8760   20.5130 N   0  0  0  0  0  0  0  0  0  0  0  0
  -24.2070  -15.5030   20.6990 H   0  0  0  0  0  0  0  0  0  0  0  0
  -25.7840  -15.3470   20.1140 H   0  0  0  0  0  0  0  0  0  0  0  0
  1  6  1  0
  1 13  2  0
  2  8  1  0
  3  2  1  0
  4  6  1  0
  5  7  1  0
  5  1  1  0
  6 14  1  0
  7  4  1  0
  7 63  1  0
  8 13  1  0
  8 10  1  0
  9  3  1  0
  9  5  1  0
  9 11  1  6
 12  9  1  0
 14 15  1  0
 14 17  1  0
 16 14  1  0
 18 21  1  0
 18 17  1  0
 19 20  1  0
 19 18  1  0
 21 22  1  0
 23 34  2  0
 24 22  1  0
 24 29  1  0
 25 33  1  0
 25 35  1  0
 26 28  1  0
 27 33  1  0
 28 29  2  0
 28 27  1  0
 30 24  2  0
 31 30  1  0
 31 26  2  0
 32 26  1  0
 32 25  1  0
 33 23  1  0
 35 37  2  0
 36 35  1  0
 38 36  1  0
 39 48  2  0
 39 44  1  0
 40 36  1  0
 40 44  1  0
 41 40  1  0
 42 43  1  0
 42 41  1  0
 43 39  1  0
 44 45  2  0
 45 46  1  0
 47 46  2  0
 48 47  1  0
 49 23  1  0
 49 50  1  0
 49 59  1  0
 50 53  1  0
 51 55  1  0
 51 50  1  0
 52 51  2  0
 55 54  1  0
 57 58  1  0
 57 55  1  0
 57 56  1  0
 59 62  1  1
 59 60  1  0
 61 59  1  0
 64 72  1  0
 65 70  1  0
 66 67  1  0
 66 65  1  0
 68 67  1  0
 68 77  1  0
 68 69  1  0
 70 64  1  0
 70 69  1  0
 71 64  2  0
 72 73  1  0
 72 63  1  0
 74 75  2  0
 75 94  1  0
 76 75  1  0
 76 79  1  0
 77 78  1  0
 77 74  1  0
 78 76  2  0
 79 80  1  0
 80 81  2  0
 82 85  1  0
 82 81  1  0
 83 82  2  0
 84 83  1  0
 84 79  2  0
 85 86  1  0
 86 87  1  0
 87 88  2  0
 89 88  1  0
 89 93  1  0
 90 89  2  0
 91 86  2  0
 91 90  1  0
 92 91  1  0
 94 95  1  0
 95 98  1  0
 95 97  1  0
 96 94  2  0
 99 74  1  0
 99100  1  0
101 99  1  0
M  ISO  4  21 101  22 101  64 100  72 100
M  END
>  <TORSDO>  (63) 
F 22

>  <SCORE>  (63) 
-12.317

>  <name>  (63) 
62

>  <ligand_id>  (63) 
62

>  <original_smiles>  (63) 
[H]OC([H])(C([H])([H])Oc1c([H])c([H])c2c(c1[H])C([H])([H])N(C(=O)C([H])(N([H])C(=O)C([H])(N([H])C([H])([H])[H])C([H])([H])[H])C(C([H])([H])[H])(C([H])([H])[H])C([H])([H])[H])C([H])(C(=O)N([H])C1([H])c3c([H])c([H])c([H])c([H])c3C([H])([H])C([H])([H])C1([H])[H])C2([H])[H])C([H])([H])[N+]([H])([H])C1([H])C2=NC([H])(C([H])([H])[H])C([H])([H])C([H])([H])C(C([H])([H])[H])(C([H])([H])[H])C2([H])C([H])(C([H])([H])N([H])C(=O)N2C([H])([H])C([H])([H])C([H])([H])C([H])(n3nc(-c4c([H])c([H])c(Oc5c([H])c([H])c(F)c([H])c5F)c([H])c4[H])c(C(=O)N([H])[H])c3N([H])[H])C2([H])[H])C1([H])[H]

>  <smiles>  (63) 
[H]OC([H])(C([H])([H])Oc1c([H])c([H])c2c(c1[H])C([H])([H])N(C(=O)C([H])(N([H])C(=O)C([H])(N([H])C([H])([H])[H])C([H])([H])[H])C(C([H])([H])[H])(C([H])([H])[H])C([H])([H])[H])C([H])(C(=O)N([H])C1([H])c3c([H])c([H])c([H])c([H])c3C([H])([H])C([H])([H])C1([H])[H])C2([H])[H])C([H])([H])[N+]([H])([H])C1([H])C2=NC([H])(C([H])([H])[H])C([H])([H])C([H])([H])C(C([H])([H])[H])(C([H])([H])[H])C2([H])C([H])(C([H])([H])N([H])C(=O)N2C([H])([H])C([H])([H])C([H])([H])C([H])(n3nc(-c4c([H])c([H])c(Oc5c([H])c([H])c(F)c([H])c5F)c([H])c4[H])c(C(=O)N([H])[H])c3N([H])[H])C2([H])[H])C1([H])[H]

$$$$
63:0:0
     RDKit          3D

 91100  0  0  1  0  0  0  0  0999 V2000
  -29.0750  -21.9040   20.7580 C   0  0  0  0  0  3  0  0  0  0  0  0
  -27.5930  -22.6370   19.3380 C   0  0  0  0  0  3  0  0  0  0  0  0
  -28.3710  -23.1690   20.3260 C   0  0  0  0  0  0  0  0  0  0  0  0
  -28.6940  -20.6850   20.0970 C   0  0  0  0  0  0  0  0  0  0  0  0
  -27.7150  -21.2380   19.2320 N   0  0  0  0  0  0  0  0  0  0  0  0
  -24.9150  -21.2340   17.5620 C   0  0  0  0  0  2  0  0  0  0  0  0
  -26.3380  -21.0680   17.0210 C   0  0  0  0  0  2  0  0  0  0  0  0
  -25.3150  -20.4240   18.7990 C   0  0  0  0  0  2  0  0  0  0  0  0
  -26.7910  -20.5110   18.3820 C   0  0  0  0  0  3  0  0  0  0  0  0
  -28.2090  -24.7370   20.9300 C   0  0  0  0  0  2  0  0  0  0  0  0
  -28.2920  -26.1390   20.2310 O   0  0  0  0  0  0  0  0  0  0  0  0
  -24.6240  -31.8860   23.2080 C   0  0  0  0  0  0  0  0  0  0  0  0
  -27.2300  -27.1240   20.2560 C   0  0  0  0  0  0  0  0  0  0  0  0
  -23.4370  -30.4670   21.5790 C   0  0  0  0  0  3  0  0  0  0  0  0
  -24.8990  -28.8740   20.1850 C   0  0  0  0  0  0  0  0  0  0  0  0
  -25.9920  -30.7380   21.4190 C   0  0  0  0  0  2  0  0  0  0  0  0
  -26.0760  -29.3330   20.7900 C   0  0  0  0  0  0  0  0  0  0  0  0
  -27.2470  -28.4770   20.7990 C   0  0  0  0  0  3  0  0  0  0  0  0
  -26.0240  -26.7680   19.6190 C   0  0  0  0  0  3  0  0  0  0  0  0
  -24.8870  -27.6070   19.5820 C   0  0  0  0  0  3  0  0  0  0  0  0
  -23.6690  -29.7720   20.2120 C   0  0  0  0  0  2  0  0  0  0  0  0
  -24.7050  -31.0540   22.1240 N   0  0  0  0  0  0  0  0  0  0  0  0
  -23.5340  -32.1700   23.7290 O   0  0  0  0  0  0  0  0  0  0  0  0
  -22.7590  -29.4700   22.5510 C   0  0  0  0  0  0  0  0  0  0  0  0
  -21.4290  -29.3000   22.4300 N   0  0  0  0  0  0  0  0  0  0  0  0
  -23.4310  -28.8490   23.3780 O   0  0  0  0  0  0  0  0  0  0  0  0
  -20.9420  -29.8530   21.7390 H   0  0  0  0  0  0  0  0  0  0  0  0
  -18.0490  -28.1060   22.9590 C   0  0  0  0  0  0  0  0  0  0  0  0
  -20.6100  -28.3650   23.2080 C   0  0  0  0  0  3  0  0  0  0  0  0
  -20.7050  -26.9310   22.6370 C   0  0  0  0  0  2  0  0  0  0  0  0
  -19.5940  -26.6050   21.6320 C   0  0  0  0  0  2  0  0  0  0  0  0
  -18.2180  -26.7550   22.2880 C   0  0  0  0  0  2  0  0  0  0  0  0
  -19.1730  -28.8690   23.3780 C   0  0  0  0  0  0  0  0  0  0  0  0
  -18.9580  -30.1320   23.9700 C   0  0  0  0  0  3  0  0  0  0  0  0
  -17.6560  -30.6330   24.1470 C   0  0  0  0  0  3  0  0  0  0  0  0
  -16.5470  -29.8700   23.7430 C   0  0  0  0  0  3  0  0  0  0  0  0
  -16.7450  -28.6080   23.1550 C   0  0  0  0  0  3  0  0  0  0  0  0
  -25.8950  -32.5360   23.8340 C   0  0  0  0  0  3  0  0  0  0  0  0
  -26.4050  -31.7820   25.1240 C   0  0  1  0  0  0  0  0  0  0  0  0
  -25.3050  -31.5530   26.1880 C   0  0  0  0  0  1  0  0  0  0  0  0
  -26.9970  -30.4020   24.7570 C   0  0  0  0  0  1  0  0  0  0  0  0
  -27.5480  -32.5900   25.7850 C   0  0  0  0  0  1  0  0  0  0  0  0
  -25.5740  -33.9360   24.1530 N   0  0  0  0  0  0  0  0  0  0  0  0
  -25.9010  -34.9890   23.3930 C   0  0  0  0  0  0  0  0  0  0  0  0
  -26.5720  -34.8830   22.3620 O   0  0  0  0  0  0  0  0  0  0  0  0
  -24.9770  -34.0900   24.9520 H   0  0  0  0  0  0  0  0  0  0  0  0
  -24.1690  -36.7790   23.0300 C   0  0  0  0  0  1  0  0  0  0  0  0
  -25.4090  -36.3780   23.8440 C   0  0  0  0  0  3  0  0  0  0  0  0
  -27.5370  -37.2760   24.6800 C   0  0  0  0  0  1  0  0  0  0  0  0
  -26.4390  -37.4350   23.7300 N   0  0  0  0  0  0  0  0  0  0  0  0
  -26.0300  -38.3550   23.8690 H   0  0  0  0  0  0  0  0  0  0  0  0
  -28.8590  -18.9980   20.0900 C   0  0  0  0  0  3  0  0  0  0  0  0
  -29.9880  -17.8190   20.5800 C   0  0  0  0  0  3  0  0  0  0  0  0
  -30.5160  -15.0490   20.3290 C   0  0  0  0  0  0  0  0  0  0  0  0
  -30.4260  -12.6890   19.3680 C   0  0  0  0  0  2  0  0  0  0  0  0
  -29.4790  -12.6180   18.1470 C   0  0  0  0  0  2  0  0  0  0  0  0
  -28.0260  -12.3810   18.6010 C   0  0  0  0  0  2  0  0  0  0  0  0
  -27.6170  -13.3040   19.7790 C   0  0  0  0  0  3  0  0  0  0  0  0
  -28.6820  -13.3330   20.8930 C   0  0  0  0  0  2  0  0  0  0  0  0
  -29.9340  -13.7780   20.2670 N   0  0  0  0  0  0  0  0  0  0  0  0
  -31.7200  -15.1160   20.0580 O   0  0  0  0  0  0  0  0  0  0  0  0
  -29.7230  -16.2340   20.4980 N   0  0  0  0  0  0  0  0  0  0  0  0
  -28.7500  -16.0050   20.6440 H   0  0  0  0  0  0  0  0  0  0  0  0
  -25.2410  -13.8590   20.5440 C   0  0  0  0  0  0  0  0  0  0  0  0
  -24.1870  -13.0740   20.9200 C   0  0  0  0  0  0  0  0  0  0  0  0
  -24.6620  -11.7270   20.8790 C   0  0  0  0  0  0  0  0  0  0  0  0
  -26.2880  -12.9900   20.2890 N   0  0  0  0  0  0  0  0  0  0  0  0
  -25.9500  -11.7030   20.5560 N   0  0  0  0  0  0  0  0  0  0  0  0
  -23.9460  -10.4590   21.0670 C   0  0  0  0  0  0  0  0  0  0  0  0
  -24.3900   -9.4880   21.9920 C   0  0  0  0  0  3  0  0  0  0  0  0
  -23.6710   -8.2850   22.1700 C   0  0  0  0  0  3  0  0  0  0  0  0
  -22.4940   -8.0460   21.4230 C   0  0  0  0  0  0  0  0  0  0  0  0
  -22.0670   -9.0050   20.4870 C   0  0  0  0  0  3  0  0  0  0  0  0
  -22.7860  -10.1990   20.3090 C   0  0  0  0  0  3  0  0  0  0  0  0
  -21.7450   -6.8970   21.5110 O   0  0  0  0  0  0  0  0  0  0  0  0
  -21.7080   -6.1480   22.6600 C   0  0  0  0  0  0  0  0  0  0  0  0
  -21.2780   -6.6920   23.8900 C   0  0  0  0  0  3  0  0  0  0  0  0
  -21.1900   -5.8700   25.0320 C   0  0  0  0  0  3  0  0  0  0  0  0
  -21.5220   -4.5040   24.9430 C   0  0  0  0  0  0  0  0  0  0  0  0
  -21.9450   -3.9600   23.7180 C   0  0  0  0  0  3  0  0  0  0  0  0
  -22.0350   -4.7800   22.5790 C   0  0  0  0  0  0  0  0  0  0  0  0
  -22.4240   -4.2450   21.3960 F   0  0  0  0  0  0  0  0  0  0  0  0
  -21.4290   -3.7120   26.0360 F   0  0  0  0  0  0  0  0  0  0  0  0
  -22.7890  -13.5410   21.2040 C   0  0  0  0  0  0  0  0  0  0  0  0
  -22.0700  -12.8350   22.0690 N   0  0  0  0  0  0  0  0  0  0  0  0
  -22.3420  -14.5650   20.6900 O   0  0  0  0  0  0  0  0  0  0  0  0
  -22.4440  -12.0060   22.5060 H   0  0  0  0  0  0  0  0  0  0  0  0
  -21.1320  -13.1280   22.3000 H   0  0  0  0  0  0  0  0  0  0  0  0
  -25.3890  -15.2320   20.3700 N   0  0  0  0  0  0  0  0  0  0  0  0
  -24.6060  -15.8680   20.4800 H   0  0  0  0  0  0  0  0  0  0  0  0
  -26.2090  -15.6780   19.9810 H   0  0  0  0  0  0  0  0  0  0  0  0
  2  3  2  0
  3  1  1  0
  3 10  1  0
  4  1  2  0
  5  2  1  0
  5  4  1  0
  6  8  1  0
  7  6  1  0
  7  9  1  0
  9  8  1  0
  9  5  1  0
 11 13  1  0
 11 10  1  0
 12 23  2  0
 13 18  1  0
 14 22  1  0
 14 24  1  0
 15 21  1  0
 15 17  1  0
 16 22  1  0
 17 18  2  0
 17 16  1  0
 19 13  2  0
 20 19  1  0
 20 15  2  0
 21 14  1  0
 22 12  1  0
 24 26  2  0
 25 24  1  0
 27 25  1  0
 28 37  2  0
 28 33  1  0
 29 25  1  0
 29 33  1  0
 30 29  1  0
 31 32  1  0
 31 30  1  0
 32 28  1  0
 33 34  2  0
 34 35  1  0
 36 35  2  0
 37 36  1  0
 38 12  1  0
 38 43  1  0
 38 39  1  0
 39 42  1  1
 39 40  1  0
 41 39  1  0
 43 46  1  0
 44 48  1  0
 44 43  1  0
 45 44  2  0
 48 47  1  0
 50 48  1  0
 50 51  1  0
 50 49  1  0
 52  4  1  0
 52 53  2  0
 54 62  1  0
 55 60  1  0
 56 57  1  0
 56 55  1  0
 58 57  1  0
 58 67  1  0
 58 59  1  0
 60 54  1  0
 60 59  1  0
 61 54  2  0
 62 53  1  0
 62 63  1  0
 64 65  2  0
 65 84  1  0
 66 65  1  0
 66 69  1  0
 67 64  1  0
 67 68  1  0
 68 66  2  0
 69 70  1  0
 70 71  2  0
 72 75  1  0
 72 71  1  0
 73 72  2  0
 74 73  1  0
 74 69  2  0
 75 76  1  0
 76 77  1  0
 77 78  2  0
 79 78  1  0
 79 83  1  0
 80 79  2  0
 81 76  2  0
 81 80  1  0
 82 81  1  0
 84 85  1  0
 85 88  1  0
 85 87  1  0
 86 84  2  0
 89 90  1  0
 89 64  1  0
 91 89  1  0
M  ISO  4  10 101  11 101  54 100  62 100
M  END
>  <TORSDO>  (64) 
F 20

>  <SCORE>  (64) 
-14.276

>  <name>  (64) 
63

>  <ligand_id>  (64) 
63

>  <original_smiles>  (64) 
[H]c1c([H])c([H])c2c(c1[H])C([H])([H])C([H])([H])C([H])([H])C2([H])N([H])C(=O)C1([H])N(C(=O)C([H])(N([H])C(=O)C([H])(N([H])C([H])([H])[H])C([H])([H])[H])C(C([H])([H])[H])(C([H])([H])[H])C([H])([H])[H])C([H])([H])c2c([H])c(OC([H])([H])c3c([H])c(C([H])([H])C([H])([H])N([H])C(=O)N4C([H])([H])C([H])([H])C([H])([H])C([H])(n5nc(-c6c([H])c([H])c(Oc7c([H])c([H])c(F)c([H])c7F)c([H])c6[H])c(C(=O)N([H])[H])c5N([H])[H])C4([H])[H])n(C4([H])C([H])([H])C([H])([H])C4([H])[H])c3[H])c([H])c([H])c2C1([H])[H]

>  <smiles>  (64) 
[H]c1c([H])c([H])c2c(c1[H])C([H])([H])C([H])([H])C([H])([H])C2([H])N([H])C(=O)C1([H])N(C(=O)C([H])(N([H])C(=O)C([H])(N([H])C([H])([H])[H])C([H])([H])[H])C(C([H])([H])[H])(C([H])([H])[H])C([H])([H])[H])C([H])([H])c2c([H])c(OC([H])([H])c3c([H])c(C([H])([H])C([H])([H])N([H])C(=O)N4C([H])([H])C([H])([H])C([H])([H])C([H])(n5nc(-c6c([H])c([H])c(Oc7c([H])c([H])c(F)c([H])c7F)c([H])c6[H])c(C(=O)N([H])[H])c5N([H])[H])C4([H])[H])n(C4([H])C([H])([H])C([H])([H])C4([H])[H])c3[H])c([H])c([H])c2C1([H])[H]

$$$$
64:0:0
     RDKit          3D

 95104  0  0  1  0  0  0  0  0999 V2000
  -27.3580  -23.2730   22.2580 C   0  0  0  0  0  3  0  0  0  0  0  0
  -27.8650  -21.8810   20.3310 C   0  0  0  0  0  3  0  0  0  0  0  0
  -27.7280  -24.4240   21.5350 C   0  0  0  0  0  3  0  0  0  0  0  0
  -28.2310  -23.0330   19.6060 C   0  0  0  0  0  3  0  0  0  0  0  0
  -27.4120  -21.9920   21.6650 C   0  0  0  0  0  0  0  0  0  0  0  0
  -28.1600  -24.3120   20.1970 C   0  0  0  0  0  0  0  0  0  0  0  0
  -26.3040  -19.6240   21.6660 C   0  0  0  0  0  2  0  0  0  0  0  0
  -27.9620  -20.3060   23.5370 C   0  0  0  0  0  2  0  0  0  0  0  0
  -27.2620  -18.4560   21.3400 C   0  0  0  0  0  2  0  0  0  0  0  0
  -28.8420  -19.1290   23.0730 C   0  0  0  0  0  2  0  0  0  0  0  0
  -26.9370  -20.7870   22.4800 C   0  0  0  0  0  3  0  0  0  0  0  0
  -27.9820  -18.0360   22.5630 N   0  0  2  0  0  4  0  0  0  0  0  0
  -27.2630  -17.9290   23.2630 H   0  0  0  0  0  0  0  0  0  0  0  0
  -28.6030  -16.6840   22.5380 C   0  0  0  0  0  2  0  0  0  0  0  0
  -29.7020  -16.4530   21.4760 C   0  0  0  0  0  2  0  0  0  0  0  0
  -30.7550  -14.3770   20.6740 C   0  0  0  0  0  0  0  0  0  0  0  0
  -30.4190  -12.2940   19.3900 C   0  0  0  0  0  2  0  0  0  0  0  0
  -29.4800  -12.5170   18.1890 C   0  0  0  0  0  2  0  0  0  0  0  0
  -28.0070  -12.3700   18.6130 C   0  0  0  0  0  2  0  0  0  0  0  0
  -27.6660  -13.1980   19.8780 C   0  0  0  0  0  3  0  0  0  0  0  0
  -28.7050  -12.9440   20.9910 C   0  0  0  0  0  2  0  0  0  0  0  0
  -30.0460  -13.2390   20.4530 N   0  0  0  0  0  0  0  0  0  0  0  0
  -31.7750  -14.6810   20.0520 O   0  0  0  0  0  0  0  0  0  0  0  0
  -30.3190  -15.1380   21.6830 N   0  0  0  0  0  0  0  0  0  0  0  0
  -31.0140  -15.1790   22.4160 H   0  0  0  0  0  0  0  0  0  0  0  0
  -25.2620  -13.8140   20.5680 C   0  0  0  0  0  0  0  0  0  0  0  0
  -24.1860  -13.0440   20.9190 C   0  0  0  0  0  0  0  0  0  0  0  0
  -24.6390  -11.6900   20.8750 C   0  0  0  0  0  0  0  0  0  0  0  0
  -26.3050  -12.9290   20.3370 N   0  0  0  0  0  0  0  0  0  0  0  0
  -25.9310  -11.6460   20.5770 N   0  0  0  0  0  0  0  0  0  0  0  0
  -23.9050  -10.4300   21.0420 C   0  0  0  0  0  0  0  0  0  0  0  0
  -24.3610   -9.4210   21.9190 C   0  0  0  0  0  3  0  0  0  0  0  0
  -23.6290   -8.2250   22.0750 C   0  0  0  0  0  3  0  0  0  0  0  0
  -22.4270   -8.0290   21.3540 C   0  0  0  0  0  0  0  0  0  0  0  0
  -21.9910   -9.0250   20.4640 C   0  0  0  0  0  3  0  0  0  0  0  0
  -22.7230  -10.2140   20.3050 C   0  0  0  0  0  3  0  0  0  0  0  0
  -21.6630   -6.8880   21.4240 O   0  0  0  0  0  0  0  0  0  0  0  0
  -21.6860   -6.0740   22.5280 C   0  0  0  0  0  0  0  0  0  0  0  0
  -21.4010   -6.5640   23.8210 C   0  0  0  0  0  3  0  0  0  0  0  0
  -21.3660   -5.6790   24.9170 C   0  0  0  0  0  3  0  0  0  0  0  0
  -21.6050   -4.3050   24.7220 C   0  0  0  0  0  0  0  0  0  0  0  0
  -21.8820   -3.8140   23.4340 C   0  0  0  0  0  3  0  0  0  0  0  0
  -21.9190   -4.6970   22.3400 C   0  0  0  0  0  0  0  0  0  0  0  0
  -22.1660   -4.2150   21.0980 F   0  0  0  0  0  0  0  0  0  0  0  0
  -21.5630   -3.4540   25.7740 F   0  0  0  0  0  0  0  0  0  0  0  0
  -22.7890  -13.5250   21.1850 C   0  0  0  0  0  0  0  0  0  0  0  0
  -22.0510  -12.8240   22.0390 N   0  0  0  0  0  0  0  0  0  0  0  0
  -22.3580  -14.5570   20.6690 O   0  0  0  0  0  0  0  0  0  0  0  0
  -22.4110  -11.9890   22.4760 H   0  0  0  0  0  0  0  0  0  0  0  0
  -21.1130  -13.1260   22.2600 H   0  0  0  0  0  0  0  0  0  0  0  0
  -25.4380  -15.1840   20.4020 N   0  0  0  0  0  0  0  0  0  0  0  0
  -24.6360  -15.8030   20.4000 H   0  0  0  0  0  0  0  0  0  0  0  0
  -26.2270  -15.5580   19.8940 H   0  0  0  0  0  0  0  0  0  0  0  0
  -28.5870  -25.5330   19.3880 C   0  0  0  0  0  2  0  0  0  0  0  0
  -28.4540  -26.7860   20.0640 O   0  0  0  0  0  0  0  0  0  0  0  0
  -24.6310  -31.8760   23.2160 C   0  0  0  0  0  0  0  0  0  0  0  0
  -27.2440  -27.4510   20.0760 C   0  0  0  0  0  0  0  0  0  0  0  0
  -23.4330  -30.5010   21.5680 C   0  0  0  0  0  3  0  0  0  0  0  0
  -24.8520  -28.9580   20.1240 C   0  0  0  0  0  0  0  0  0  0  0  0
  -25.9460  -30.8410   21.3620 C   0  0  0  0  0  2  0  0  0  0  0  0
  -26.0130  -29.4730   20.7120 C   0  0  0  0  0  0  0  0  0  0  0  0
  -27.2060  -28.7220   20.6910 C   0  0  0  0  0  3  0  0  0  0  0  0
  -26.0580  -26.9380   19.5000 C   0  0  0  0  0  3  0  0  0  0  0  0
  -24.8670  -27.6890   19.5200 C   0  0  0  0  0  3  0  0  0  0  0  0
  -23.6180  -29.8280   20.1810 C   0  0  0  0  0  2  0  0  0  0  0  0
  -24.6910  -31.0870   22.1080 N   0  0  0  0  0  0  0  0  0  0  0  0
  -23.5470  -32.1500   23.7530 O   0  0  0  0  0  0  0  0  0  0  0  0
  -22.7750  -29.4850   22.5250 C   0  0  0  0  0  0  0  0  0  0  0  0
  -21.4540  -29.4490   22.4040 N   0  0  0  0  0  0  0  0  0  0  0  0
  -23.4260  -28.7630   23.2800 O   0  0  0  0  0  0  0  0  0  0  0  0
  -21.0750  -30.1720   21.8070 H   0  0  0  0  0  0  0  0  0  0  0  0
  -17.9930  -28.1210   22.8680 C   0  0  0  0  0  0  0  0  0  0  0  0
  -20.4770  -28.4600   22.7810 C   0  0  0  0  0  3  0  0  0  0  0  0
  -20.6880  -26.9620   22.5370 C   0  0  0  0  0  2  0  0  0  0  0  0
  -19.5550  -26.4560   21.6190 C   0  0  0  0  0  2  0  0  0  0  0  0
  -18.1550  -26.7550   22.1990 C   0  0  0  0  0  2  0  0  0  0  0  0
  -19.1130  -28.8990   23.2500 C   0  0  0  0  0  0  0  0  0  0  0  0
  -18.9310  -30.1480   23.8790 C   0  0  0  0  0  3  0  0  0  0  0  0
  -17.6330  -30.6480   24.0840 C   0  0  0  0  0  3  0  0  0  0  0  0
  -16.5170  -29.8930   23.6750 C   0  0  0  0  0  3  0  0  0  0  0  0
  -16.6970  -28.6290   23.0840 C   0  0  0  0  0  3  0  0  0  0  0  0
  -25.9160  -32.4890   23.8460 C   0  0  0  0  0  3  0  0  0  0  0  0
  -26.4510  -31.6630   25.0780 C   0  0  1  0  0  0  0  0  0  0  0  0
  -25.3740  -31.3720   26.1490 C   0  0  0  0  0  1  0  0  0  0  0  0
  -27.0310  -30.3080   24.6120 C   0  0  0  0  0  1  0  0  0  0  0  0
  -27.6100  -32.4300   25.7560 C   0  0  0  0  0  1  0  0  0  0  0  0
  -25.5980  -33.8670   24.2390 N   0  0  0  0  0  0  0  0  0  0  0  0
  -25.9050  -34.9510   23.5140 C   0  0  0  0  0  0  0  0  0  0  0  0
  -26.5580  -34.8940   22.4690 O   0  0  0  0  0  0  0  0  0  0  0  0
  -25.0150  -33.9820   25.0550 H   0  0  0  0  0  0  0  0  0  0  0  0
  -24.1480  -36.7330   23.2630 C   0  0  0  0  0  1  0  0  0  0  0  0
  -25.4100  -36.3140   24.0340 C   0  0  0  0  0  3  0  0  0  0  0  0
  -27.5580  -37.1830   24.8470 C   0  0  0  0  0  1  0  0  0  0  0  0
  -26.4300  -37.3820   23.9410 N   0  0  0  0  0  0  0  0  0  0  0  0
  -26.0190  -38.2910   24.1400 H   0  0  0  0  0  0  0  0  0  0  0  0
  2  5  2  0
  3  1  2  0
  4  6  2  0
  4  2  1  0
  5  1  1  0
  6  3  1  0
  7 11  1  0
  9  7  1  0
  9 12  1  0
 10  8  1  0
 11  5  1  0
 11  8  1  0
 12 10  1  0
 12 13  1  1
 14 12  1  0
 15 24  1  0
 15 14  1  0
 16 24  1  0
 17 22  1  0
 18 19  1  0
 18 17  1  0
 20 19  1  0
 20 29  1  0
 20 21  1  0
 22 16  1  0
 22 21  1  0
 23 16  2  0
 24 25  1  0
 26 27  2  0
 27 46  1  0
 28 27  1  0
 28 31  1  0
 29 26  1  0
 29 30  1  0
 30 28  2  0
 31 32  1  0
 32 33  2  0
 34 37  1  0
 34 33  1  0
 35 34  2  0
 36 35  1  0
 36 31  2  0
 37 38  1  0
 38 39  1  0
 39 40  2  0
 41 40  1  0
 41 45  1  0
 42 41  2  0
 43 38  2  0
 43 42  1  0
 44 43  1  0
 46 47  1  0
 47 50  1  0
 47 49  1  0
 48 46  2  0
 51 26  1  0
 52 51  1  0
 53 51  1  0
 54 55  1  0
 54  6  1  0
 55 57  1  0
 56 67  2  0
 57 62  1  0
 58 66  1  0
 58 68  1  0
 59 65  1  0
 59 61  1  0
 60 66  1  0
 61 60  1  0
 62 61  2  0
 63 64  1  0
 63 57  2  0
 64 59  2  0
 65 58  1  0
 66 56  1  0
 68 70  2  0
 69 68  1  0
 71 69  1  0
 72 81  2  0
 72 77  1  0
 73 69  1  0
 73 77  1  0
 74 73  1  0
 75 76  1  0
 75 74  1  0
 76 72  1  0
 77 78  2  0
 78 79  1  0
 80 79  2  0
 81 80  1  0
 82 56  1  0
 82 87  1  0
 82 83  1  0
 83 86  1  1
 83 84  1  0
 85 83  1  0
 87 90  1  0
 88 92  1  0
 88 87  1  0
 89 88  2  0
 92 91  1  0
 94 92  1  0
 94 95  1  0
 94 93  1  0
M  ISO  4  16 100  24 100  54 101  55 101
M  END
>  <TORSDO>  (65) 
F 20

>  <SCORE>  (65) 
20.034

>  <name>  (65) 
64

>  <ligand_id>  (65) 
64

>  <original_smiles>  (65) 
[H]c1c([H])c([H])c2c(c1[H])C([H])([H])C([H])([H])C([H])([H])C2([H])N([H])C(=O)C1([H])N(C(=O)C([H])(N([H])C(=O)C([H])(N([H])C([H])([H])[H])C([H])([H])[H])C(C([H])([H])[H])(C([H])([H])[H])C([H])([H])[H])C([H])([H])c2c([H])c(OC([H])([H])c3c([H])c([H])c(C4([H])C([H])([H])C([H])([H])[N+]([H])(C([H])([H])C([H])([H])N([H])C(=O)N5C([H])([H])C([H])([H])C([H])([H])C([H])(n6nc(-c7c([H])c([H])c(Oc8c([H])c([H])c(F)c([H])c8F)c([H])c7[H])c(C(=O)N([H])[H])c6N([H])[H])C5([H])[H])C([H])([H])C4([H])[H])c([H])c3[H])c([H])c([H])c2C1([H])[H]

>  <smiles>  (65) 
[H]c1c([H])c([H])c2c(c1[H])C([H])([H])C([H])([H])C([H])([H])C2([H])N([H])C(=O)C1([H])N(C(=O)C([H])(N([H])C(=O)C([H])(N([H])C([H])([H])[H])C([H])([H])[H])C(C([H])([H])[H])(C([H])([H])[H])C([H])([H])[H])C([H])([H])c2c([H])c(OC([H])([H])c3c([H])c([H])c(C4([H])C([H])([H])C([H])([H])[N+]([H])(C([H])([H])C([H])([H])N([H])C(=O)N5C([H])([H])C([H])([H])C([H])([H])C([H])(n6nc(-c7c([H])c([H])c(Oc8c([H])c([H])c(F)c([H])c8F)c([H])c7[H])c(C(=O)N([H])[H])c6N([H])[H])C5([H])[H])C([H])([H])C4([H])[H])c([H])c3[H])c([H])c([H])c2C1([H])[H]

$$$$
65:0:0
     RDKit          3D

 93102  0  0  1  0  0  0  0  0999 V2000
  -27.4760  -20.8810   21.0600 C   0  0  0  0  0  3  0  0  0  0  0  0
  -28.5010  -19.9370   20.8990 C   0  0  0  0  0  3  0  0  0  0  0  0
  -29.8160  -21.8060   20.0160 C   0  0  0  0  0  3  0  0  0  0  0  0
  -27.5630  -22.2300   20.6280 C   0  0  0  0  0  0  0  0  0  0  0  0
  -28.7590  -22.9280   20.2460 C   0  0  0  0  0  0  0  0  0  0  0  0
  -29.7110  -20.2630   20.2760 C   0  0  0  0  0  0  0  0  0  0  0  0
  -26.2360  -22.7850   20.1450 C   0  0  0  0  0  2  0  0  0  0  0  0
  -26.4620  -23.1750   18.6790 C   0  0  0  0  0  2  0  0  0  0  0  0
  -28.3520  -24.6220   19.7760 C   0  0  0  0  0  3  0  0  0  0  0  0
  -27.3450  -24.4350   18.5980 C   0  0  0  0  0  3  0  0  0  0  0  0
  -29.1210  -23.7040   16.8660 C   0  0  0  0  0  1  0  0  0  0  0  0
  -26.9370  -24.7290   16.0870 C   0  0  0  0  0  1  0  0  0  0  0  0
  -27.9890  -24.6870   17.2060 C   0  0  0  0  0  3  0  0  0  0  0  0
  -28.7170  -26.2600   20.0670 O   0  0  0  0  0  0  0  0  0  0  0  0
  -25.0420  -31.9740   23.5890 C   0  0  0  0  0  0  0  0  0  0  0  0
  -27.7670  -27.4540   20.1020 C   0  0  0  0  0  0  0  0  0  0  0  0
  -23.9290  -30.7450   21.7810 C   0  0  0  0  0  3  0  0  0  0  0  0
  -25.4550  -29.3600   20.2290 C   0  0  0  0  0  0  0  0  0  0  0  0
  -26.5010  -30.9840   21.7590 C   0  0  0  0  0  2  0  0  0  0  0  0
  -26.6130  -29.6560   20.9570 C   0  0  0  0  0  0  0  0  0  0  0  0
  -27.7500  -28.7120   20.9040 C   0  0  0  0  0  3  0  0  0  0  0  0
  -26.6510  -27.4800   19.2300 C   0  0  0  0  0  3  0  0  0  0  0  0
  -25.5040  -28.2900   19.3420 C   0  0  0  0  0  3  0  0  0  0  0  0
  -24.2150  -30.2430   20.3440 C   0  0  0  0  0  2  0  0  0  0  0  0
  -25.1770  -31.2590   22.4300 N   0  0  0  0  0  0  0  0  0  0  0  0
  -23.9310  -32.1860   24.1020 O   0  0  0  0  0  0  0  0  0  0  0  0
  -23.2360  -29.6260   22.6010 C   0  0  0  0  0  0  0  0  0  0  0  0
  -21.9310  -29.3940   22.3660 N   0  0  0  0  0  0  0  0  0  0  0  0
  -23.8810  -28.9740   23.4250 O   0  0  0  0  0  0  0  0  0  0  0  0
  -21.4610  -29.9740   21.6860 H   0  0  0  0  0  0  0  0  0  0  0  0
  -18.6080  -27.9430   22.5190 C   0  0  0  0  0  0  0  0  0  0  0  0
  -21.1180  -28.3500   22.9970 C   0  0  0  0  0  3  0  0  0  0  0  0
  -21.3610  -26.9760   22.3270 C   0  0  0  0  0  2  0  0  0  0  0  0
  -20.3590  -26.6660   21.2100 C   0  0  0  0  0  2  0  0  0  0  0  0
  -18.9280  -26.6680   21.7560 C   0  0  0  0  0  2  0  0  0  0  0  0
  -19.6370  -28.7410   23.0870 C   0  0  0  0  0  0  0  0  0  0  0  0
  -19.2850  -29.9310   23.7600 C   0  0  0  0  0  3  0  0  0  0  0  0
  -17.9380  -30.3280   23.8680 C   0  0  0  0  0  3  0  0  0  0  0  0
  -16.9240  -29.5270   23.3150 C   0  0  0  0  0  3  0  0  0  0  0  0
  -17.2590  -28.3350   22.6460 C   0  0  0  0  0  3  0  0  0  0  0  0
  -26.2780  -32.5740   24.3210 C   0  0  0  0  0  3  0  0  0  0  0  0
  -25.9470  -33.9580   24.7060 N   0  0  0  0  0  0  0  0  0  0  0  0
  -26.2780  -35.0530   24.0080 C   0  0  0  0  0  0  0  0  0  0  0  0
  -26.9580  -35.0040   22.9790 O   0  0  0  0  0  0  0  0  0  0  0  0
  -25.3410  -34.0680   25.5060 H   0  0  0  0  0  0  0  0  0  0  0  0
  -24.5220  -36.8420   23.7610 C   0  0  0  0  0  1  0  0  0  0  0  0
  -25.7820  -36.4160   24.5320 C   0  0  0  0  0  3  0  0  0  0  0  0
  -27.9060  -37.3080   25.3850 C   0  0  0  0  0  1  0  0  0  0  0  0
  -26.8000  -37.4870   24.4480 N   0  0  0  0  0  0  0  0  0  0  0  0
  -26.3800  -38.3970   24.6220 H   0  0  0  0  0  0  0  0  0  0  0  0
  -26.7060  -31.7440   25.5950 C   0  0  1  0  0  0  0  0  0  0  0  0
  -25.5360  -31.4390   26.5600 C   0  0  0  0  0  1  0  0  0  0  0  0
  -27.3360  -30.3910   25.1950 C   0  0  0  0  0  1  0  0  0  0  0  0
  -27.7930  -32.5150   26.3790 C   0  0  0  0  0  1  0  0  0  0  0  0
  -30.7120  -18.8520   20.0030 C   0  0  0  0  0  2  0  0  0  0  0  0
  -31.2660  -15.9430   20.1210 C   0  0  0  0  0  0  0  0  0  0  0  0
  -31.3180  -13.4700   19.3230 C   0  0  0  0  0  2  0  0  0  0  0  0
  -30.4030  -13.1910   18.1020 C   0  0  0  0  0  2  0  0  0  0  0  0
  -28.9730  -12.8620   18.5620 C   0  0  0  0  0  2  0  0  0  0  0  0
  -28.4840  -13.8420   19.6590 C   0  0  0  0  0  3  0  0  0  0  0  0
  -29.5300  -14.0850   20.7720 C   0  0  0  0  0  2  0  0  0  0  0  0
  -30.7390  -14.6170   20.1190 N   0  0  0  0  0  0  0  0  0  0  0  0
  -32.4740  -15.9690   19.8480 O   0  0  0  0  0  0  0  0  0  0  0  0
  -30.4800  -17.2030   20.2300 N   0  0  0  0  0  0  0  0  0  0  0  0
  -29.5150  -16.9960   20.4420 H   0  0  0  0  0  0  0  0  0  0  0  0
  -26.1330  -14.3340   20.5140 C   0  0  0  0  0  0  0  0  0  0  0  0
  -25.0910  -13.5290   20.8800 C   0  0  0  0  0  0  0  0  0  0  0  0
  -25.5670  -12.1870   20.7620 C   0  0  0  0  0  0  0  0  0  0  0  0
  -27.1740  -13.4840   20.1900 N   0  0  0  0  0  0  0  0  0  0  0  0
  -26.8490  -12.1830   20.4060 N   0  0  0  0  0  0  0  0  0  0  0  0
  -24.8560  -10.9100   20.9070 C   0  0  0  0  0  0  0  0  0  0  0  0
  -25.2010   -9.9800   21.9150 C   0  0  0  0  0  3  0  0  0  0  0  0
  -24.4870   -8.7710   22.0490 C   0  0  0  0  0  3  0  0  0  0  0  0
  -23.4130   -8.4790   21.1740 C   0  0  0  0  0  0  0  0  0  0  0  0
  -23.0900   -9.3960   20.1590 C   0  0  0  0  0  3  0  0  0  0  0  0
  -23.8060  -10.5970   20.0220 C   0  0  0  0  0  3  0  0  0  0  0  0
  -22.6780   -7.3180   21.2130 O   0  0  0  0  0  0  0  0  0  0  0  0
  -22.3260   -6.7290   22.4010 C   0  0  0  0  0  0  0  0  0  0  0  0
  -21.5630   -7.4110   23.3740 C   0  0  0  0  0  3  0  0  0  0  0  0
  -21.1650   -6.7450   24.5510 C   0  0  0  0  0  3  0  0  0  0  0  0
  -21.5170   -5.3970   24.7510 C   0  0  0  0  0  0  0  0  0  0  0  0
  -22.2700   -4.7140   23.7800 C   0  0  0  0  0  3  0  0  0  0  0  0
  -22.6710   -5.3780   22.6080 C   0  0  0  0  0  0  0  0  0  0  0  0
  -23.3800   -4.7080   21.6660 F   0  0  0  0  0  0  0  0  0  0  0  0
  -21.1280   -4.7550   25.8770 F   0  0  0  0  0  0  0  0  0  0  0  0
  -23.6970  -13.9770   21.2130 C   0  0  0  0  0  0  0  0  0  0  0  0
  -23.0030  -13.2350   22.0660 N   0  0  0  0  0  0  0  0  0  0  0  0
  -23.2380  -15.0230   20.7520 O   0  0  0  0  0  0  0  0  0  0  0  0
  -23.3890  -12.3910   22.4630 H   0  0  0  0  0  0  0  0  0  0  0  0
  -22.0670  -13.5140   22.3260 H   0  0  0  0  0  0  0  0  0  0  0  0
  -26.2810  -15.7140   20.4020 N   0  0  0  0  0  0  0  0  0  0  0  0
  -25.5100  -16.3540   20.5560 H   0  0  0  0  0  0  0  0  0  0  0  0
  -27.1050  -16.1700   20.0370 H   0  0  0  0  0  0  0  0  0  0  0  0
  2  1  1  0
  3  5  2  0
  3  6  1  0
  4  1  2  0
  5  4  1  0
  6  2  2  0
  7  4  1  0
  8  7  1  0
  9 14  1  0
  9  5  1  0
 10 13  1  0
 10  8  1  0
 10  9  1  0
 11 13  1  0
 12 13  1  0
 14 16  1  0
 15 26  2  0
 16 21  1  0
 17 25  1  0
 17 27  1  0
 18 24  1  0
 18 20  1  0
 19 25  1  0
 20 19  1  0
 21 20  2  0
 22 23  1  0
 22 16  2  0
 23 18  2  0
 24 17  1  0
 25 15  1  0
 27 29  2  0
 28 27  1  0
 30 28  1  0
 31 40  2  0
 31 36  1  0
 32 28  1  0
 32 36  1  0
 33 32  1  0
 34 35  1  0
 34 33  1  0
 35 31  1  0
 36 37  2  0
 37 38  1  0
 39 38  2  0
 40 39  1  0
 41 15  1  0
 41 42  1  0
 41 51  1  0
 42 45  1  0
 43 47  1  0
 43 42  1  0
 44 43  2  0
 47 46  1  0
 49 47  1  0
 49 50  1  0
 49 48  1  0
 51 54  1  1
 51 52  1  0
 53 51  1  0
 55 64  1  0
 55  6  1  0
 56 64  1  0
 57 62  1  0
 58 59  1  0
 58 57  1  0
 60 59  1  0
 60 69  1  0
 60 61  1  0
 62 56  1  0
 62 61  1  0
 63 56  2  0
 64 65  1  0
 66 67  2  0
 67 86  1  0
 68 67  1  0
 68 71  1  0
 69 70  1  0
 69 66  1  0
 70 68  2  0
 71 72  1  0
 72 73  2  0
 74 77  1  0
 74 73  1  0
 75 74  2  0
 76 75  1  0
 76 71  2  0
 77 78  1  0
 78 83  2  0
 78 79  1  0
 79 80  2  0
 80 81  1  0
 81 85  1  0
 82 81  2  0
 83 82  1  0
 84 83  1  0
 86 87  1  0
 87 90  1  0
 87 89  1  0
 88 86  2  0
 91 66  1  0
 91 92  1  0
 93 91  1  0
M  ISO  4   9 101  14 101  56 100  64 100
M  END
>  <TORSDO>  (66) 
F 18

>  <SCORE>  (66) 
-12.187

>  <name>  (66) 
65

>  <ligand_id>  (66) 
65

>  <original_smiles>  (66) 
[H]c1c([H])c([H])c2c(c1[H])C([H])([H])C([H])([H])C([H])([H])C2([H])N([H])C(=O)C1([H])N(C(=O)C([H])(N([H])C(=O)C([H])(N([H])C([H])([H])[H])C([H])([H])[H])C(C([H])([H])[H])(C([H])([H])[H])C([H])([H])[H])C([H])([H])c2c([H])c(OC3([H])c4c([H])c(C([H])([H])N([H])C(=O)N5C([H])([H])C([H])([H])C([H])([H])C([H])(n6nc(-c7c([H])c([H])c(Oc8c([H])c([H])c(F)c([H])c8F)c([H])c7[H])c(C(=O)N([H])[H])c6N([H])[H])C5([H])[H])c([H])c([H])c4C([H])([H])C([H])([H])C3([H])C([H])(C([H])([H])[H])C([H])([H])[H])c([H])c([H])c2C1([H])[H]

>  <smiles>  (66) 
[H]c1c([H])c([H])c2c(c1[H])C([H])([H])C([H])([H])C([H])([H])C2([H])N([H])C(=O)C1([H])N(C(=O)C([H])(N([H])C(=O)C([H])(N([H])C([H])([H])[H])C([H])([H])[H])C(C([H])([H])[H])(C([H])([H])[H])C([H])([H])[H])C([H])([H])c2c([H])c(OC3([H])c4c([H])c(C([H])([H])N([H])C(=O)N5C([H])([H])C([H])([H])C([H])([H])C([H])(n6nc(-c7c([H])c([H])c(Oc8c([H])c([H])c(F)c([H])c8F)c([H])c7[H])c(C(=O)N([H])[H])c6N([H])[H])C5([H])[H])c([H])c([H])c4C([H])([H])C([H])([H])C3([H])C([H])(C([H])([H])[H])C([H])([H])[H])c([H])c([H])c2C1([H])[H]

$$$$
66:0:0
     RDKit          3D

 95104  0  0  1  0  0  0  0  0999 V2000
  -26.3090  -21.8190   20.6930 C   0  0  0  0  0  2  0  0  0  0  0  0
  -27.0850  -20.5260   20.7710 C   0  0  0  0  0  2  0  0  0  0  0  0
  -27.1950  -22.7300   19.8410 C   0  0  0  0  0  2  0  0  0  0  0  0
  -28.5500  -20.9650   20.6770 C   0  0  0  0  0  3  0  0  0  0  0  0
  -28.5750  -22.1660   19.7520 N   0  0  2  0  0  4  0  0  0  0  0  0
  -28.6360  -21.7750   18.8230 H   0  0  0  0  0  0  0  0  0  0  0  0
  -30.1370  -19.1680   21.5230 C   0  0  0  0  0  3  0  0  0  0  0  0
  -29.2390  -18.8440   19.2970 C   0  0  0  0  0  3  0  0  0  0  0  0
  -30.5700  -17.8240   21.5480 C   0  0  0  0  0  3  0  0  0  0  0  0
  -29.7030  -17.4980   19.3080 C   0  0  0  0  0  3  0  0  0  0  0  0
  -29.3960  -19.6830   20.4320 C   0  0  0  0  0  0  0  0  0  0  0  0
  -30.3180  -16.9540   20.4650 C   0  0  0  0  0  0  0  0  0  0  0  0
  -31.0350  -14.6110   19.8510 C   0  0  0  0  0  0  0  0  0  0  0  0
  -30.7170  -12.3510   18.8790 C   0  0  0  0  0  2  0  0  0  0  0  0
  -29.7030  -12.4470   17.7200 C   0  0  0  0  0  2  0  0  0  0  0  0
  -28.2590  -12.3220   18.2400 C   0  0  0  0  0  2  0  0  0  0  0  0
  -27.9810  -13.2570   19.4460 C   0  0  0  0  0  3  0  0  0  0  0  0
  -29.0970  -13.1300   20.5090 C   0  0  0  0  0  2  0  0  0  0  0  0
  -30.3960  -13.4040   19.8610 N   0  0  0  0  0  0  0  0  0  0  0  0
  -32.0430  -14.8280   19.1700 O   0  0  0  0  0  0  0  0  0  0  0  0
  -30.5210  -15.5460   20.6740 N   0  0  0  0  0  0  0  0  0  0  0  0
  -29.9690  -15.1530   21.4230 H   0  0  0  0  0  0  0  0  0  0  0  0
  -25.6740  -13.9220   20.3770 C   0  0  0  0  0  0  0  0  0  0  0  0
  -24.6040  -13.1760   20.7940 C   0  0  0  0  0  0  0  0  0  0  0  0
  -24.9990  -11.8100   20.6570 C   0  0  0  0  0  0  0  0  0  0  0  0
  -26.6570  -13.0130   20.0170 N   0  0  0  0  0  0  0  0  0  0  0  0
  -26.2560  -11.7330   20.2380 N   0  0  0  0  0  0  0  0  0  0  0  0
  -24.2320  -10.5700   20.8430 C   0  0  0  0  0  0  0  0  0  0  0  0
  -24.6000   -9.6160   21.8170 C   0  0  0  0  0  3  0  0  0  0  0  0
  -23.8380   -8.4400   21.9880 C   0  0  0  0  0  3  0  0  0  0  0  0
  -22.6940   -8.2110   21.1870 C   0  0  0  0  0  0  0  0  0  0  0  0
  -22.3460   -9.1540   20.2040 C   0  0  0  0  0  3  0  0  0  0  0  0
  -23.1090  -10.3220   20.0300 C   0  0  0  0  0  3  0  0  0  0  0  0
  -21.9070   -7.0880   21.2670 O   0  0  0  0  0  0  0  0  0  0  0  0
  -21.6580   -6.4670   22.4660 C   0  0  0  0  0  0  0  0  0  0  0  0
  -21.0540   -7.1470   23.5450 C   0  0  0  0  0  3  0  0  0  0  0  0
  -20.7530   -6.4530   24.7340 C   0  0  0  0  0  3  0  0  0  0  0  0
  -21.0440   -5.0810   24.8420 C   0  0  0  0  0  0  0  0  0  0  0  0
  -21.6400   -4.4000   23.7660 C   0  0  0  0  0  3  0  0  0  0  0  0
  -21.9440   -5.0920   22.5800 C   0  0  0  0  0  0  0  0  0  0  0  0
  -22.4990   -4.4270   21.5380 F   0  0  0  0  0  0  0  0  0  0  0  0
  -20.7470   -4.4120   25.9810 F   0  0  0  0  0  0  0  0  0  0  0  0
  -23.2570  -13.6960   21.2070 C   0  0  0  0  0  0  0  0  0  0  0  0
  -22.5780  -12.9970   22.1120 N   0  0  0  0  0  0  0  0  0  0  0  0
  -22.8180  -14.7570   20.7650 O   0  0  0  0  0  0  0  0  0  0  0  0
  -22.9460  -12.1380   22.4940 H   0  0  0  0  0  0  0  0  0  0  0  0
  -21.6780  -13.3300   22.4280 H   0  0  0  0  0  0  0  0  0  0  0  0
  -25.8870  -15.2920   20.2560 N   0  0  0  0  0  0  0  0  0  0  0  0
  -25.1640  -15.9740   20.4570 H   0  0  0  0  0  0  0  0  0  0  0  0
  -26.7380  -15.7100   19.8980 H   0  0  0  0  0  0  0  0  0  0  0  0
  -29.6510  -24.5340   19.4080 C   0  0  0  0  0  3  0  0  0  0  0  0
  -29.6700  -23.2420   19.8760 C   0  0  0  0  0  0  0  0  0  0  0  0
  -30.8930  -22.6980   20.6050 C   0  0  0  0  0  1  0  0  0  0  0  0
  -28.6170  -25.3690   18.6270 C   0  0  0  0  0  2  0  0  0  0  0  0
  -28.4990  -26.7270   19.1260 O   0  0  0  0  0  0  0  0  0  0  0  0
  -24.6120  -31.3930   22.8680 C   0  0  0  0  0  0  0  0  0  0  0  0
  -27.2720  -27.3800   19.2170 C   0  0  0  0  0  0  0  0  0  0  0  0
  -23.3700  -30.0710   21.1890 C   0  0  0  0  0  3  0  0  0  0  0  0
  -24.7990  -28.7560   19.5310 C   0  0  0  0  0  0  0  0  0  0  0  0
  -25.8560  -30.5890   20.8600 C   0  0  0  0  0  2  0  0  0  0  0  0
  -25.9690  -29.2850   20.0910 C   0  0  0  0  0  0  0  0  0  0  0  0
  -27.2000  -28.6030   19.9350 C   0  0  0  0  0  3  0  0  0  0  0  0
  -26.0780  -26.8880   18.6350 C   0  0  0  0  0  3  0  0  0  0  0  0
  -24.8510  -27.5570   18.8020 C   0  0  0  0  0  3  0  0  0  0  0  0
  -23.5160  -29.5310   19.7410 C   0  0  0  0  0  2  0  0  0  0  0  0
  -24.6340  -30.6970   21.6960 N   0  0  0  0  0  0  0  0  0  0  0  0
  -23.5590  -31.5510   23.5020 O   0  0  0  0  0  0  0  0  0  0  0  0
  -22.8470  -28.9310   22.0930 C   0  0  0  0  0  0  0  0  0  0  0  0
  -21.5370  -28.6470   22.0070 N   0  0  0  0  0  0  0  0  0  0  0  0
  -23.6160  -28.3070   22.8290 O   0  0  0  0  0  0  0  0  0  0  0  0
  -20.9710  -29.2110   21.3890 H   0  0  0  0  0  0  0  0  0  0  0  0
  -18.3110  -27.0940   22.4940 C   0  0  0  0  0  0  0  0  0  0  0  0
  -20.8370  -27.5890   22.7340 C   0  0  0  0  0  3  0  0  0  0  0  0
  -21.0660  -26.2120   22.0710 C   0  0  0  0  0  2  0  0  0  0  0  0
  -19.9770  -25.8390   21.0590 C   0  0  0  0  0  2  0  0  0  0  0  0
  -18.6040  -25.8100   21.7360 C   0  0  0  0  0  2  0  0  0  0  0  0
  -19.3600  -27.9370   22.9490 C   0  0  0  0  0  0  0  0  0  0  0  0
  -19.0310  -29.1380   23.6160 C   0  0  0  0  0  3  0  0  0  0  0  0
  -17.6870  -29.4960   23.8350 C   0  0  0  0  0  3  0  0  0  0  0  0
  -16.6540  -28.6500   23.3950 C   0  0  0  0  0  3  0  0  0  0  0  0
  -16.9670  -27.4500   22.7310 C   0  0  0  0  0  3  0  0  0  0  0  0
  -25.9030  -32.0460   23.4550 C   0  0  0  0  0  3  0  0  0  0  0  0
  -26.5290  -31.2220   24.6460 C   0  0  1  0  0  0  0  0  0  0  0  0
  -25.5170  -30.8740   25.7620 C   0  0  0  0  0  1  0  0  0  0  0  0
  -27.1400  -29.8970   24.1320 C   0  0  0  0  0  1  0  0  0  0  0  0
  -27.6880  -32.0240   25.2840 C   0  0  0  0  0  1  0  0  0  0  0  0
  -25.5520  -33.4050   23.8920 N   0  0  0  0  0  0  0  0  0  0  0  0
  -25.7860  -34.5160   23.1820 C   0  0  0  0  0  0  0  0  0  0  0  0
  -26.3940  -34.5080   22.1070 O   0  0  0  0  0  0  0  0  0  0  0  0
  -25.0030  -33.4800   24.7360 H   0  0  0  0  0  0  0  0  0  0  0  0
  -23.9490  -36.2290   23.0580 C   0  0  0  0  0  1  0  0  0  0  0  0
  -25.2660  -35.8500   23.7540 C   0  0  0  0  0  3  0  0  0  0  0  0
  -27.4070  -36.8030   24.4840 C   0  0  0  0  0  1  0  0  0  0  0  0
  -26.2330  -36.9600   23.6290 N   0  0  0  0  0  0  0  0  0  0  0  0
  -25.7930  -37.8490   23.8520 H   0  0  0  0  0  0  0  0  0  0  0  0
  1  2  1  0
  3  1  1  0
  4 11  1  0
  4  2  1  0
  5  3  1  0
  5 52  1  0
  5  4  1  0
  5  6  1  6
  7  9  1  0
  8 10  2  0
  8 11  1  0
 10 12  1  0
 11  7  2  0
 12 21  1  0
 12  9  2  0
 13 19  1  0
 13 21  1  0
 14 19  1  0
 15 16  1  0
 15 14  1  0
 17 16  1  0
 17 26  1  0
 17 18  1  0
 19 18  1  0
 20 13  2  0
 21 22  1  0
 23 24  2  0
 24 43  1  0
 25 24  1  0
 25 28  1  0
 26 27  1  0
 26 23  1  0
 27 25  2  0
 28 29  1  0
 29 30  2  0
 31 34  1  0
 31 30  1  0
 32 31  2  0
 33 32  1  0
 33 28  2  0
 34 35  1  0
 35 40  2  0
 35 36  1  0
 36 37  2  0
 37 38  1  0
 38 42  1  0
 39 38  2  0
 40 39  1  0
 41 40  1  0
 43 44  1  0
 44 47  1  0
 44 46  1  0
 45 43  2  0
 48 23  1  0
 48 49  1  0
 50 48  1  0
 51 52  2  0
 52 53  1  0
 54 55  1  0
 54 51  1  0
 55 57  1  0
 56 67  2  0
 57 62  1  0
 58 66  1  0
 58 68  1  0
 59 65  1  0
 59 61  1  0
 60 66  1  0
 61 60  1  0
 62 61  2  0
 63 64  1  0
 63 57  2  0
 64 59  2  0
 65 58  1  0
 66 56  1  0
 68 70  2  0
 69 68  1  0
 71 69  1  0
 72 81  2  0
 72 77  1  0
 73 69  1  0
 73 77  1  0
 74 73  1  0
 75 76  1  0
 75 74  1  0
 76 72  1  0
 77 78  2  0
 78 79  1  0
 80 79  2  0
 81 80  1  0
 82 56  1  0
 82 87  1  0
 82 83  1  0
 83 86  1  1
 83 84  1  0
 85 83  1  0
 87 90  1  0
 88 92  1  0
 88 87  1  0
 89 88  2  0
 92 91  1  0
 94 92  1  0
 94 95  1  0
 94 93  1  0
M  ISO  4  13 100  21 100  54 101  55 101
M  END
>  <TORSDO>  (67) 
F 19

>  <SCORE>  (67) 
-9.960

>  <name>  (67) 
66

>  <ligand_id>  (67) 
66

>  <original_smiles>  (67) 
[H]C(=C(C([H])([H])[H])[N+]1([H])C([H])([H])C([H])([H])C([H])([H])C1([H])c1c([H])c([H])c(N([H])C(=O)N2C([H])([H])C([H])([H])C([H])([H])C([H])(n3nc(-c4c([H])c([H])c(Oc5c([H])c([H])c(F)c([H])c5F)c([H])c4[H])c(C(=O)N([H])[H])c3N([H])[H])C2([H])[H])c([H])c1[H])C([H])([H])Oc1c([H])c([H])c2c(c1[H])C([H])([H])N(C(=O)C([H])(N([H])C(=O)C([H])(N([H])C([H])([H])[H])C([H])([H])[H])C(C([H])([H])[H])(C([H])([H])[H])C([H])([H])[H])C([H])(C(=O)N([H])C1([H])c3c([H])c([H])c([H])c([H])c3C([H])([H])C([H])([H])C1([H])[H])C2([H])[H]

>  <smiles>  (67) 
[H]C(=C(C([H])([H])[H])[N+]1([H])C([H])([H])C([H])([H])C([H])([H])C1([H])c1c([H])c([H])c(N([H])C(=O)N2C([H])([H])C([H])([H])C([H])([H])C([H])(n3nc(-c4c([H])c([H])c(Oc5c([H])c([H])c(F)c([H])c5F)c([H])c4[H])c(C(=O)N([H])[H])c3N([H])[H])C2([H])[H])c([H])c1[H])C([H])([H])Oc1c([H])c([H])c2c(c1[H])C([H])([H])N(C(=O)C([H])(N([H])C(=O)C([H])(N([H])C([H])([H])[H])C([H])([H])[H])C(C([H])([H])[H])(C([H])([H])[H])C([H])([H])[H])C([H])(C(=O)N([H])C1([H])c3c([H])c([H])c([H])c([H])c3C([H])([H])C([H])([H])C1([H])[H])C2([H])[H]

$$$$
67:0:0
     RDKit          3D

 95104  0  0  1  0  0  0  0  0999 V2000
  -28.7370  -19.9110   21.1550 C   0  0  0  0  0  3  0  0  0  0  0  0
  -28.1150  -21.1130   20.7500 C   0  0  0  0  0  3  0  0  0  0  0  0
  -29.5910  -19.1880   20.2740 C   0  0  0  0  0  0  0  0  0  0  0  0
  -29.7020  -19.7370   18.9560 C   0  0  0  0  0  0  0  0  0  0  0  0
  -28.3260  -21.5740   19.4410 C   0  0  0  0  0  0  0  0  0  0  0  0
  -30.6180  -19.1710   17.8780 C   0  0  0  0  0  1  0  0  0  0  0  0
  -29.0590  -20.8670   18.5640 N   0  0  0  0  0  0  0  0  0  0  0  0
  -27.8070  -22.7770   18.9370 N   0  0  0  0  0  0  0  0  0  0  0  0
  -28.0570  -22.9650   17.9690 H   0  0  0  0  0  0  0  0  0  0  0  0
  -31.9260  -18.6370   22.2140 C   0  0  0  0  0  2  0  0  0  0  0  0
  -31.9550  -18.2420   20.7370 C   0  0  0  0  0  2  0  0  0  0  0  0
  -30.6410  -17.8210   22.3220 C   0  0  0  0  0  2  0  0  0  0  0  0
  -30.4210  -17.9560   20.7830 C   0  0  1  0  0  0  0  0  0  0  0  0
  -29.8900  -16.6210   20.1710 C   0  0  0  0  0  2  0  0  0  0  0  0
  -31.1040  -14.4720   19.9700 C   0  0  0  0  0  0  0  0  0  0  0  0
  -30.7390  -12.2940   18.8470 C   0  0  0  0  0  2  0  0  0  0  0  0
  -29.7470  -12.4840   17.6850 C   0  0  0  0  0  2  0  0  0  0  0  0
  -28.2840  -12.3860   18.1690 C   0  0  0  0  0  2  0  0  0  0  0  0
  -28.0200  -13.2800   19.4050 C   0  0  0  0  0  3  0  0  0  0  0  0
  -29.1050  -13.0370   20.4770 C   0  0  0  0  0  2  0  0  0  0  0  0
  -30.4150  -13.3050   19.8630 N   0  0  0  0  0  0  0  0  0  0  0  0
  -32.1750  -14.6830   19.3940 O   0  0  0  0  0  0  0  0  0  0  0  0
  -30.5250  -15.4150   20.7350 N   0  0  0  0  0  0  0  0  0  0  0  0
  -31.1180  -15.6680   21.5110 H   0  0  0  0  0  0  0  0  0  0  0  0
  -25.7030  -14.0160   20.2480 C   0  0  0  0  0  0  0  0  0  0  0  0
  -24.6140  -13.2980   20.6720 C   0  0  0  0  0  0  0  0  0  0  0  0
  -24.9990  -11.9270   20.5990 C   0  0  0  0  0  0  0  0  0  0  0  0
  -26.6820  -13.0790   19.9530 N   0  0  0  0  0  0  0  0  0  0  0  0
  -26.2630  -11.8170   20.2180 N   0  0  0  0  0  0  0  0  0  0  0  0
  -24.2170  -10.7050   20.8230 C   0  0  0  0  0  0  0  0  0  0  0  0
  -24.5990   -9.7550   21.7940 C   0  0  0  0  0  3  0  0  0  0  0  0
  -23.8260   -8.5950   22.0030 C   0  0  0  0  0  3  0  0  0  0  0  0
  -22.6520   -8.3780   21.2420 C   0  0  0  0  0  0  0  0  0  0  0  0
  -22.2860   -9.3170   20.2630 C   0  0  0  0  0  3  0  0  0  0  0  0
  -23.0610  -10.4720   20.0520 C   0  0  0  0  0  3  0  0  0  0  0  0
  -21.8520   -7.2680   21.3590 O   0  0  0  0  0  0  0  0  0  0  0  0
  -21.6930   -6.6170   22.5570 C   0  0  0  0  0  0  0  0  0  0  0  0
  -21.1830   -7.2740   23.6990 C   0  0  0  0  0  3  0  0  0  0  0  0
  -20.9640   -6.5490   24.8870 C   0  0  0  0  0  3  0  0  0  0  0  0
  -21.2510   -5.1710   24.9350 C   0  0  0  0  0  0  0  0  0  0  0  0
  -21.7570   -4.5170   23.7970 C   0  0  0  0  0  3  0  0  0  0  0  0
  -21.9710   -5.2380   22.6100 C   0  0  0  0  0  0  0  0  0  0  0  0
  -22.4380   -4.5980   21.5110 F   0  0  0  0  0  0  0  0  0  0  0  0
  -21.0360   -4.4730   26.0740 F   0  0  0  0  0  0  0  0  0  0  0  0
  -23.2660  -13.8530   21.0240 C   0  0  0  0  0  0  0  0  0  0  0  0
  -22.5510  -13.1910   21.9310 N   0  0  0  0  0  0  0  0  0  0  0  0
  -22.8540  -14.8980   20.5280 O   0  0  0  0  0  0  0  0  0  0  0  0
  -22.8960  -12.3450   22.3520 H   0  0  0  0  0  0  0  0  0  0  0  0
  -21.6450  -13.5410   22.2020 H   0  0  0  0  0  0  0  0  0  0  0  0
  -25.9290  -15.3770   20.0770 N   0  0  0  0  0  0  0  0  0  0  0  0
  -25.2150  -16.0710   20.2550 H   0  0  0  0  0  0  0  0  0  0  0  0
  -26.7900  -15.7690   19.7160 H   0  0  0  0  0  0  0  0  0  0  0  0
  -27.5690  -23.9750   19.7600 C   0  0  0  0  0  2  0  0  0  0  0  0
  -27.9040  -25.2840   18.9760 C   0  0  0  0  0  2  0  0  0  0  0  0
  -27.9120  -26.5370   19.7070 O   0  0  0  0  0  0  0  0  0  0  0  0
  -24.5290  -31.7950   23.2130 C   0  0  0  0  0  0  0  0  0  0  0  0
  -26.7670  -27.3190   19.7990 C   0  0  0  0  0  0  0  0  0  0  0  0
  -23.1640  -30.5030   21.6070 C   0  0  0  0  0  3  0  0  0  0  0  0
  -24.4540  -28.9470   20.0500 C   0  0  0  0  0  0  0  0  0  0  0  0
  -25.6880  -30.7470   21.2680 C   0  0  0  0  0  2  0  0  0  0  0  0
  -25.6720  -29.3950   20.5730 C   0  0  0  0  0  0  0  0  0  0  0  0
  -26.8300  -28.5850   20.4470 C   0  0  0  0  0  3  0  0  0  0  0  0
  -25.5230  -26.8970   19.2830 C   0  0  0  0  0  3  0  0  0  0  0  0
  -24.3720  -27.6960   19.4160 C   0  0  0  0  0  3  0  0  0  0  0  0
  -23.2650  -29.8670   20.1950 C   0  0  0  0  0  2  0  0  0  0  0  0
  -24.4830  -31.0330   22.0850 N   0  0  0  0  0  0  0  0  0  0  0  0
  -23.5000  -32.0900   23.8340 O   0  0  0  0  0  0  0  0  0  0  0  0
  -22.5250  -29.4820   22.5750 C   0  0  0  0  0  0  0  0  0  0  0  0
  -21.2040  -29.2680   22.4410 N   0  0  0  0  0  0  0  0  0  0  0  0
  -23.2190  -28.8900   23.4080 O   0  0  0  0  0  0  0  0  0  0  0  0
  -20.7040  -29.8050   21.7460 H   0  0  0  0  0  0  0  0  0  0  0  0
  -17.8950  -27.8490   22.8190 C   0  0  0  0  0  0  0  0  0  0  0  0
  -20.4100  -28.3110   23.2150 C   0  0  0  0  0  3  0  0  0  0  0  0
  -20.6440  -26.8590   22.7250 C   0  0  0  0  0  2  0  0  0  0  0  0
  -19.6260  -26.3950   21.6760 C   0  0  0  0  0  2  0  0  0  0  0  0
  -18.2040  -26.4780   22.2350 C   0  0  0  0  0  2  0  0  0  0  0  0
  -18.9330  -28.7110   23.2640 C   0  0  0  0  0  0  0  0  0  0  0  0
  -18.5930  -29.9850   23.7710 C   0  0  0  0  0  3  0  0  0  0  0  0
  -17.2500  -30.4030   23.8270 C   0  0  0  0  0  3  0  0  0  0  0  0
  -16.2260  -29.5400   23.3940 C   0  0  0  0  0  3  0  0  0  0  0  0
  -16.5480  -28.2670   22.8910 C   0  0  0  0  0  3  0  0  0  0  0  0
  -25.8790  -32.3440   23.7670 C   0  0  0  0  0  3  0  0  0  0  0  0
  -26.4360  -31.5170   24.9910 C   0  0  1  0  0  0  0  0  0  0  0  0
  -25.3950  -31.2920   26.1130 C   0  0  0  0  0  1  0  0  0  0  0  0
  -26.9470  -30.1300   24.5310 C   0  0  0  0  0  1  0  0  0  0  0  0
  -27.6450  -32.2550   25.6120 C   0  0  0  0  0  1  0  0  0  0  0  0
  -25.6580  -33.7460   24.1470 N   0  0  0  0  0  0  0  0  0  0  0  0
  -25.9880  -34.8030   23.3920 C   0  0  0  0  0  0  0  0  0  0  0  0
  -26.5870  -34.6970   22.3180 O   0  0  0  0  0  0  0  0  0  0  0  0
  -25.1210  -33.9050   24.9860 H   0  0  0  0  0  0  0  0  0  0  0  0
  -24.3220  -36.6820   23.1990 C   0  0  0  0  0  1  0  0  0  0  0  0
  -25.5990  -36.2030   23.9080 C   0  0  0  0  0  3  0  0  0  0  0  0
  -27.8210  -36.9850   24.6050 C   0  0  0  0  0  1  0  0  0  0  0  0
  -26.6640  -37.2130   23.7430 N   0  0  0  0  0  0  0  0  0  0  0  0
  -26.3080  -38.1450   23.9370 H   0  0  0  0  0  0  0  0  0  0  0  0
  2  1  1  0
  3 13  1  0
  3  1  2  0
  4  3  1  0
  5  2  2  0
  6  4  1  0
  7  4  2  0
  7  5  1  0
  8  5  1  0
  8 53  1  0
  9  8  1  0
 10 12  1  0
 11 13  1  0
 11 10  1  0
 13 12  1  0
 14 23  1  0
 13 14  1  6
 15 23  1  0
 16 21  1  0
 17 18  1  0
 17 16  1  0
 19 18  1  0
 19 28  1  0
 19 20  1  0
 21 15  1  0
 21 20  1  0
 22 15  2  0
 23 24  1  0
 25 26  2  0
 26 45  1  0
 27 26  1  0
 27 30  1  0
 28 29  1  0
 28 25  1  0
 29 27  2  0
 30 31  1  0
 31 32  2  0
 33 36  1  0
 33 32  1  0
 34 33  2  0
 35 34  1  0
 35 30  2  0
 36 37  1  0
 37 42  2  0
 37 38  1  0
 38 39  2  0
 39 40  1  0
 40 44  1  0
 41 40  2  0
 42 41  1  0
 43 42  1  0
 45 46  1  0
 46 49  1  0
 46 48  1  0
 47 45  2  0
 50 25  1  0
 50 51  1  0
 52 50  1  0
 54 55  1  0
 54 53  1  0
 55 57  1  0
 56 67  2  0
 57 62  1  0
 58 66  1  0
 58 68  1  0
 59 65  1  0
 59 61  1  0
 60 66  1  0
 61 60  1  0
 62 61  2  0
 63 64  1  0
 63 57  2  0
 64 59  2  0
 65 58  1  0
 66 56  1  0
 68 70  2  0
 69 68  1  0
 71 69  1  0
 72 81  2  0
 72 77  1  0
 73 69  1  0
 73 77  1  0
 74 73  1  0
 75 76  1  0
 75 74  1  0
 76 72  1  0
 77 78  2  0
 78 79  1  0
 80 79  2  0
 81 80  1  0
 82 56  1  0
 82 87  1  0
 82 83  1  0
 83 86  1  1
 83 84  1  0
 85 83  1  0
 87 90  1  0
 88 92  1  0
 88 87  1  0
 89 88  2  0
 92 91  1  0
 94 92  1  0
 94 95  1  0
 94 93  1  0
M  ISO  4  15 100  23 100  54 101  55 101
M  END
>  <TORSDO>  (68) 
F 20

>  <SCORE>  (68) 
-12.865

>  <name>  (68) 
67

>  <ligand_id>  (68) 
67

>  <original_smiles>  (68) 
[H]c1c(N([H])C([H])([H])C([H])([H])Oc2c([H])c([H])c3c(c2[H])C([H])([H])N(C(=O)C([H])(N([H])C(=O)C([H])(N([H])C([H])([H])[H])C([H])([H])[H])C(C([H])([H])[H])(C([H])([H])[H])C([H])([H])[H])C([H])(C(=O)N([H])C2([H])c4c([H])c([H])c([H])c([H])c4C([H])([H])C([H])([H])C2([H])[H])C3([H])[H])nc(C([H])([H])[H])c(C2(C([H])([H])N([H])C(=O)N3C([H])([H])C([H])([H])C([H])([H])C([H])(n4nc(-c5c([H])c([H])c(Oc6c([H])c([H])c(F)c([H])c6F)c([H])c5[H])c(C(=O)N([H])[H])c4N([H])[H])C3([H])[H])C([H])([H])C([H])([H])C2([H])[H])c1[H]

>  <smiles>  (68) 
[H]c1c(N([H])C([H])([H])C([H])([H])Oc2c([H])c([H])c3c(c2[H])C([H])([H])N(C(=O)C([H])(N([H])C(=O)C([H])(N([H])C([H])([H])[H])C([H])([H])[H])C(C([H])([H])[H])(C([H])([H])[H])C([H])([H])[H])C([H])(C(=O)N([H])C2([H])c4c([H])c([H])c([H])c([H])c4C([H])([H])C([H])([H])C2([H])[H])C3([H])[H])nc(C([H])([H])[H])c(C2(C([H])([H])N([H])C(=O)N3C([H])([H])C([H])([H])C([H])([H])C([H])(n4nc(-c5c([H])c([H])c(Oc6c([H])c([H])c(F)c([H])c6F)c([H])c5[H])c(C(=O)N([H])[H])c4N([H])[H])C3([H])[H])C([H])([H])C([H])([H])C2([H])[H])c1[H]

$$$$
68:0:0
     RDKit          3D

101110  0  0  1  0  0  0  0  0999 V2000
  -28.8010  -18.1960   20.2080 C   0  0  0  0  0  3  0  0  0  0  0  0
  -30.9330  -18.9160   21.6610 C   0  0  0  0  0  2  0  0  0  0  0  0
  -32.0870  -19.4410   20.7650 C   0  0  0  0  0  2  0  0  0  0  0  0
  -31.7500  -17.5950   19.0770 C   0  0  0  0  0  2  0  0  0  0  0  0
  -30.0910  -17.7690   21.0350 C   0  0  0  0  0  3  0  0  0  0  0  0
  -31.1310  -16.8620   20.3030 C   0  0  0  0  0  3  0  0  0  0  0  0
  -31.9620  -19.0460   19.3370 N   0  0  0  0  0  4  0  0  0  0  0  0
  -32.7840  -19.3420   18.8320 H   0  0  0  0  0  0  0  0  0  0  0  0
  -31.1970  -19.5680   18.9410 H   0  0  0  0  0  0  0  0  0  0  0  0
  -31.3730  -14.4210   19.6060 C   0  0  0  0  0  0  0  0  0  0  0  0
  -31.0120  -12.1240   18.7730 C   0  0  0  0  0  2  0  0  0  0  0  0
  -29.9890  -12.1830   17.6200 C   0  0  0  0  0  2  0  0  0  0  0  0
  -28.5420  -12.1360   18.1580 C   0  0  0  0  0  2  0  0  0  0  0  0
  -28.3030  -13.1340   19.3230 C   0  0  0  0  0  3  0  0  0  0  0  0
  -29.4300  -13.0250   20.3760 C   0  0  0  0  0  2  0  0  0  0  0  0
  -30.7110  -13.2390   19.6800 N   0  0  0  0  0  0  0  0  0  0  0  0
  -32.4610  -14.5590   19.0350 O   0  0  0  0  0  0  0  0  0  0  0  0
  -30.6890  -15.4690   20.1030 N   0  0  0  0  0  0  0  0  0  0  0  0
  -29.8080  -15.2080   20.5220 H   0  0  0  0  0  0  0  0  0  0  0  0
  -26.0510  -13.9180   20.2800 C   0  0  0  0  0  0  0  0  0  0  0  0
  -24.9530  -13.2240   20.7200 C   0  0  0  0  0  0  0  0  0  0  0  0
  -25.2830  -11.8410   20.5970 C   0  0  0  0  0  0  0  0  0  0  0  0
  -26.9820  -12.9570   19.9170 N   0  0  0  0  0  0  0  0  0  0  0  0
  -26.5270  -11.7020   20.1570 N   0  0  0  0  0  0  0  0  0  0  0  0
  -24.4670  -10.6360   20.8070 C   0  0  0  0  0  0  0  0  0  0  0  0
  -24.8340   -9.6520   21.7520 C   0  0  0  0  0  3  0  0  0  0  0  0
  -24.0220   -8.5160   21.9550 C   0  0  0  0  0  3  0  0  0  0  0  0
  -22.8290   -8.3540   21.2110 C   0  0  0  0  0  0  0  0  0  0  0  0
  -22.4800   -9.3250   20.2570 C   0  0  0  0  0  3  0  0  0  0  0  0
  -23.2920  -10.4530   20.0520 C   0  0  0  0  0  3  0  0  0  0  0  0
  -21.9950   -7.2690   21.3220 O   0  0  0  0  0  0  0  0  0  0  0  0
  -21.8250   -6.6080   22.5130 C   0  0  0  0  0  0  0  0  0  0  0  0
  -21.3110   -7.2570   23.6570 C   0  0  0  0  0  3  0  0  0  0  0  0
  -21.0910   -6.5250   24.8410 C   0  0  0  0  0  3  0  0  0  0  0  0
  -21.3690   -5.1450   24.8780 C   0  0  0  0  0  0  0  0  0  0  0  0
  -21.8780   -4.4980   23.7390 C   0  0  0  0  0  3  0  0  0  0  0  0
  -22.1010   -5.2270   22.5580 C   0  0  0  0  0  0  0  0  0  0  0  0
  -22.5700   -4.5940   21.4550 F   0  0  0  0  0  0  0  0  0  0  0  0
  -21.1480   -4.4400   26.0120 F   0  0  0  0  0  0  0  0  0  0  0  0
  -23.6350  -13.8080   21.1350 C   0  0  0  0  0  0  0  0  0  0  0  0
  -22.9410  -13.1570   22.0650 N   0  0  0  0  0  0  0  0  0  0  0  0
  -23.2350  -14.8730   20.6700 O   0  0  0  0  0  0  0  0  0  0  0  0
  -23.2800  -12.2920   22.4580 H   0  0  0  0  0  0  0  0  0  0  0  0
  -22.0570  -13.5320   22.3830 H   0  0  0  0  0  0  0  0  0  0  0  0
  -26.3280  -15.2750   20.1260 N   0  0  0  0  0  0  0  0  0  0  0  0
  -25.4650  -15.8090   20.0820 H   0  0  0  0  0  0  0  0  0  0  0  0
  -26.8900  -15.4440   19.2990 H   0  0  0  0  0  0  0  0  0  0  0  0
  -28.6210  -20.1750   18.5560 C   0  0  0  0  0  3  0  0  0  0  0  0
  -28.5330  -21.5600   18.3010 C   0  0  0  0  0  3  0  0  0  0  0  0
  -28.4570  -20.6890   20.8940 C   0  0  0  0  0  3  0  0  0  0  0  0
  -28.6440  -19.7090   19.8920 C   0  0  0  0  0  0  0  0  0  0  0  0
  -28.4740  -22.4570   19.3890 C   0  0  0  0  0  0  0  0  0  0  0  0
  -28.4190  -22.0180   20.6570 N   0  0  0  0  0  0  0  0  0  0  0  0
  -28.5600  -23.8300   19.2910 O   0  0  0  0  0  0  0  0  0  0  0  0
  -27.8010  -24.4670   18.2700 C   0  0  0  0  0  2  0  0  0  0  0  0
  -28.1290  -25.9780   18.1570 C   0  0  0  0  0  2  0  0  0  0  0  0
  -27.9050  -26.8040   19.3070 O   0  0  0  0  0  0  0  0  0  0  0  0
  -24.4450  -31.7470   23.0700 C   0  0  0  0  0  0  0  0  0  0  0  0
  -26.7480  -27.5460   19.4110 C   0  0  0  0  0  0  0  0  0  0  0  0
  -23.0950  -30.5250   21.4000 C   0  0  0  0  0  3  0  0  0  0  0  0
  -24.4050  -29.0990   19.7410 C   0  0  0  0  0  0  0  0  0  0  0  0
  -25.6120  -30.8350   21.0690 C   0  0  0  0  0  2  0  0  0  0  0  0
  -25.6090  -29.5260   20.3080 C   0  0  0  0  0  0  0  0  0  0  0  0
  -26.7770  -28.7450   20.1610 C   0  0  0  0  0  3  0  0  0  0  0  0
  -25.5260  -27.1480   18.8230 C   0  0  0  0  0  3  0  0  0  0  0  0
  -24.3580  -27.9070   19.0000 C   0  0  0  0  0  3  0  0  0  0  0  0
  -23.1900  -29.9770   19.9520 C   0  0  0  0  0  2  0  0  0  0  0  0
  -24.4070  -31.0410   21.9060 N   0  0  0  0  0  0  0  0  0  0  0  0
  -23.4100  -31.9980   23.7020 O   0  0  0  0  0  0  0  0  0  0  0  0
  -22.4820  -29.4330   22.3050 C   0  0  0  0  0  0  0  0  0  0  0  0
  -21.1500  -29.2770   22.2350 N   0  0  0  0  0  0  0  0  0  0  0  0
  -23.1960  -28.7310   23.0250 O   0  0  0  0  0  0  0  0  0  0  0  0
  -20.6340  -29.8920   21.6220 H   0  0  0  0  0  0  0  0  0  0  0  0
  -17.7930  -28.0620   22.7960 C   0  0  0  0  0  0  0  0  0  0  0  0
  -20.3610  -28.2840   22.9610 C   0  0  0  0  0  3  0  0  0  0  0  0
  -20.4220  -26.9020   22.2690 C   0  0  0  0  0  2  0  0  0  0  0  0
  -19.2700  -26.6670   21.2860 C   0  0  0  0  0  2  0  0  0  0  0  0
  -17.9250  -26.7660   22.0150 C   0  0  0  0  0  2  0  0  0  0  0  0
  -18.9380  -28.7820   23.2250 C   0  0  0  0  0  0  0  0  0  0  0  0
  -18.7590  -30.0040   23.9120 C   0  0  0  0  0  3  0  0  0  0  0  0
  -17.4680  -30.5040   24.1670 C   0  0  0  0  0  3  0  0  0  0  0  0
  -16.3390  -29.7760   23.7540 C   0  0  0  0  0  3  0  0  0  0  0  0
  -16.5020  -28.5560   23.0770 C   0  0  0  0  0  3  0  0  0  0  0  0
  -25.7860  -32.2940   23.6500 C   0  0  0  0  0  3  0  0  0  0  0  0
  -25.5600  -33.6910   24.0440 N   0  0  0  0  0  0  0  0  0  0  0  0
  -25.9350  -34.7540   23.3190 C   0  0  0  0  0  0  0  0  0  0  0  0
  -26.5810  -34.6570   22.2720 O   0  0  0  0  0  0  0  0  0  0  0  0
  -24.9870  -33.8410   24.8610 H   0  0  0  0  0  0  0  0  0  0  0  0
  -24.2990  -36.6450   23.0680 C   0  0  0  0  0  1  0  0  0  0  0  0
  -25.5310  -36.1480   23.8420 C   0  0  0  0  0  3  0  0  0  0  0  0
  -27.7170  -36.8890   24.6780 C   0  0  0  0  0  1  0  0  0  0  0  0
  -26.6170  -37.1470   23.7510 N   0  0  0  0  0  0  0  0  0  0  0  0
  -26.2660  -38.0850   23.9280 H   0  0  0  0  0  0  0  0  0  0  0  0
  -26.3220  -31.4490   24.8680 C   0  0  1  0  0  0  0  0  0  0  0  0
  -25.2720  -31.2290   25.9820 C   0  0  0  0  0  1  0  0  0  0  0  0
  -26.8000  -30.0580   24.3950 C   0  0  0  0  0  1  0  0  0  0  0  0
  -27.5520  -32.1490   25.4910 C   0  0  0  0  0  1  0  0  0  0  0  0
  -27.5630  -17.6500   20.8070 N   0  0  0  0  0  4  0  0  0  0  0  0
  -26.7510  -17.9640   20.2980 H   0  0  0  0  0  0  0  0  0  0  0  0
  -27.4620  -17.9070   21.7750 H   0  0  0  0  0  0  0  0  0  0  0  0
  -27.5520  -16.6410   20.7650 H   0  0  0  0  0  0  0  0  0  0  0  0
  1 98  1  0
  3  2  1  0
  4  7  1  0
  4  6  1  0
  5  1  1  0
  5  2  1  0
  6 18  1  0
  6  5  1  0
  7  3  1  0
  8  7  1  0
  9  7  1  0
 10 16  1  0
 10 18  1  0
 11 16  1  0
 12 13  1  0
 12 11  1  0
 14 13  1  0
 14 23  1  0
 14 15  1  0
 16 15  1  0
 17 10  2  0
 18 19  1  0
 20 21  2  0
 21 40  1  0
 22 21  1  0
 22 25  1  0
 23 24  1  0
 23 20  1  0
 24 22  2  0
 25 26  1  0
 26 27  2  0
 28 31  1  0
 28 27  1  0
 29 28  2  0
 30 29  1  0
 30 25  2  0
 31 32  1  0
 32 37  2  0
 32 33  1  0
 33 34  2  0
 34 35  1  0
 35 39  1  0
 36 35  2  0
 37 36  1  0
 38 37  1  0
 40 41  1  0
 41 44  1  0
 41 43  1  0
 42 40  2  0
 45 20  1  0
 46 45  1  0
 47 45  1  0
 48 51  1  0
 49 48  2  0
 49 52  1  0
 51  1  1  0
 51 50  2  0
 52 53  2  0
 53 50  1  0
 54 52  1  0
 55 54  1  0
 56 55  1  0
 56 57  1  0
 57 59  1  0
 58 69  2  0
 59 64  1  0
 60 68  1  0
 60 70  1  0
 61 67  1  0
 61 63  1  0
 62 68  1  0
 63 62  1  0
 64 63  2  0
 65 66  1  0
 65 59  2  0
 66 61  2  0
 67 60  1  0
 68 58  1  0
 70 72  2  0
 71 70  1  0
 73 71  1  0
 74 83  2  0
 74 79  1  0
 75 71  1  0
 75 79  1  0
 76 75  1  0
 77 78  1  0
 77 76  1  0
 78 74  1  0
 79 80  2  0
 80 81  1  0
 82 81  2  0
 83 82  1  0
 84 58  1  0
 84 85  1  0
 84 94  1  0
 85 88  1  0
 86 90  1  0
 86 85  1  0
 87 86  2  0
 90 89  1  0
 92 90  1  0
 92 93  1  0
 92 91  1  0
 94 97  1  1
 94 95  1  0
 96 94  1  0
 98100  1  0
 99 98  1  0
101 98  1  0
M  ISO  4  10 100  18 100  56 101  57 101
M  END
>  <TORSDO>  (69) 
F 22

>  <SCORE>  (69) 
-12.337

>  <name>  (69) 
68

>  <ligand_id>  (69) 
68

>  <original_smiles>  (69) 
[H]c1nc(OC([H])([H])C([H])([H])Oc2c([H])c([H])c3c(c2[H])C([H])([H])N(C(=O)C([H])(N([H])C(=O)C([H])(N([H])C([H])([H])[H])C([H])([H])[H])C(C([H])([H])[H])(C([H])([H])[H])C([H])([H])[H])C([H])(C(=O)N([H])C2([H])c4c([H])c([H])c([H])c([H])c4C([H])([H])C([H])([H])C2([H])[H])C3([H])[H])c([H])c([H])c1C([H])(C1([H])C([H])([H])C([H])([H])[N+]([H])([H])C([H])([H])C1([H])N([H])C(=O)N1C([H])([H])C([H])([H])C([H])([H])C([H])(n2nc(-c3c([H])c([H])c(Oc4c([H])c([H])c(F)c([H])c4F)c([H])c3[H])c(C(=O)N([H])[H])c2N([H])[H])C1([H])[H])[N+]([H])([H])[H]

>  <smiles>  (69) 
[H]c1nc(OC([H])([H])C([H])([H])Oc2c([H])c([H])c3c(c2[H])C([H])([H])N(C(=O)C([H])(N([H])C(=O)C([H])(N([H])C([H])([H])[H])C([H])([H])[H])C(C([H])([H])[H])(C([H])([H])[H])C([H])([H])[H])C([H])(C(=O)N([H])C2([H])c4c([H])c([H])c([H])c([H])c4C([H])([H])C([H])([H])C2([H])[H])C3([H])[H])c([H])c([H])c1C([H])(C1([H])C([H])([H])C([H])([H])[N+]([H])([H])C([H])([H])C1([H])N([H])C(=O)N1C([H])([H])C([H])([H])C([H])([H])C([H])(n2nc(-c3c([H])c([H])c(Oc4c([H])c([H])c(F)c([H])c4F)c([H])c3[H])c(C(=O)N([H])[H])c2N([H])[H])C1([H])[H])[N+]([H])([H])[H]

$$$$
69:0:0
     RDKit          3D

 88 96  0  0  1  0  0  0  0  0999 V2000
  -28.9370  -21.2030   21.4360 C   0  0  0  0  0  3  0  0  0  0  0  0
  -29.5150  -21.3920   19.1510 C   0  0  0  0  0  3  0  0  0  0  0  0
  -29.2160  -19.7780   21.4010 C   0  0  0  0  0  3  0  0  0  0  0  0
  -29.7910  -19.9730   19.1160 C   0  0  0  0  0  3  0  0  0  0  0  0
  -29.1130  -22.1000   20.3260 C   0  0  0  0  0  0  0  0  0  0  0  0
  -29.7000  -19.0880   20.2410 C   0  0  0  0  0  0  0  0  0  0  0  0
  -29.1790  -23.7300   20.4760 C   0  0  0  0  0  3  0  0  0  0  0  0
  -28.0700  -24.8720   20.0390 C   0  0  0  0  0  3  0  0  0  0  0  0
  -28.2980  -26.3770   20.2570 O   0  0  0  0  0  0  0  0  0  0  0  0
  -24.6500  -31.9570   23.2800 C   0  0  0  0  0  0  0  0  0  0  0  0
  -27.2220  -27.3160   20.1950 C   0  0  0  0  0  0  0  0  0  0  0  0
  -23.4400  -30.5710   21.6370 C   0  0  0  0  0  3  0  0  0  0  0  0
  -24.8810  -29.0140   20.1920 C   0  0  0  0  0  0  0  0  0  0  0  0
  -25.9880  -30.8560   21.4540 C   0  0  0  0  0  2  0  0  0  0  0  0
  -26.0600  -29.4740   20.7920 C   0  0  0  0  0  0  0  0  0  0  0  0
  -27.2330  -28.6390   20.7760 C   0  0  0  0  0  3  0  0  0  0  0  0
  -26.0170  -26.9430   19.5590 C   0  0  0  0  0  3  0  0  0  0  0  0
  -24.8680  -27.7590   19.5620 C   0  0  0  0  0  3  0  0  0  0  0  0
  -23.6500  -29.8990   20.2530 C   0  0  0  0  0  2  0  0  0  0  0  0
  -24.7120  -31.1480   22.1790 N   0  0  0  0  0  0  0  0  0  0  0  0
  -23.5670  -32.2370   23.8160 O   0  0  0  0  0  0  0  0  0  0  0  0
  -22.7700  -29.5560   22.5960 C   0  0  0  0  0  0  0  0  0  0  0  0
  -21.4450  -29.3750   22.4640 N   0  0  0  0  0  0  0  0  0  0  0  0
  -23.4450  -28.9330   23.4190 O   0  0  0  0  0  0  0  0  0  0  0  0
  -20.9570  -29.9300   21.7740 H   0  0  0  0  0  0  0  0  0  0  0  0
  -18.0680  -28.1610   22.9540 C   0  0  0  0  0  0  0  0  0  0  0  0
  -20.6250  -28.4320   23.2300 C   0  0  0  0  0  3  0  0  0  0  0  0
  -20.7350  -27.0030   22.6500 C   0  0  0  0  0  2  0  0  0  0  0  0
  -19.6360  -26.6790   21.6310 C   0  0  0  0  0  2  0  0  0  0  0  0
  -18.2530  -26.8150   22.2740 C   0  0  0  0  0  2  0  0  0  0  0  0
  -19.1830  -28.9270   23.3880 C   0  0  0  0  0  0  0  0  0  0  0  0
  -18.9570  -30.1860   23.9860 C   0  0  0  0  0  3  0  0  0  0  0  0
  -17.6500  -30.6800   24.1540 C   0  0  0  0  0  3  0  0  0  0  0  0
  -16.5500  -29.9120   23.7360 C   0  0  0  0  0  3  0  0  0  0  0  0
  -16.7600  -28.6540   23.1420 C   0  0  0  0  0  3  0  0  0  0  0  0
  -25.9340  -32.5850   23.9040 C   0  0  0  0  0  3  0  0  0  0  0  0
  -26.4380  -31.8180   25.1880 C   0  0  1  0  0  0  0  0  0  0  0  0
  -25.3390  -31.5940   26.2530 C   0  0  0  0  0  1  0  0  0  0  0  0
  -27.0160  -30.4340   24.8090 C   0  0  0  0  0  1  0  0  0  0  0  0
  -27.5900  -32.6090   25.8510 C   0  0  0  0  0  1  0  0  0  0  0  0
  -25.6320  -33.9870   24.2310 N   0  0  0  0  0  0  0  0  0  0  0  0
  -25.9480  -35.0370   23.4600 C   0  0  0  0  0  0  0  0  0  0  0  0
  -26.5920  -34.9250   22.4140 O   0  0  0  0  0  0  0  0  0  0  0  0
  -25.0510  -34.1480   25.0420 H   0  0  0  0  0  0  0  0  0  0  0  0
  -24.2020  -36.8240   23.1570 C   0  0  0  0  0  1  0  0  0  0  0  0
  -25.4750  -36.4300   23.9220 C   0  0  0  0  0  3  0  0  0  0  0  0
  -27.6340  -37.3320   24.6660 C   0  0  0  0  0  1  0  0  0  0  0  0
  -26.5000  -37.4840   23.7580 N   0  0  0  0  0  0  0  0  0  0  0  0
  -26.0970  -38.4040   23.9060 H   0  0  0  0  0  0  0  0  0  0  0  0
  -30.4160  -17.6160   20.2240 C   0  0  0  0  0  2  0  0  0  0  0  0
  -30.5730  -14.9790   20.2240 C   0  0  0  0  0  0  0  0  0  0  0  0
  -30.3690  -12.6690   19.2490 C   0  0  0  0  0  2  0  0  0  0  0  0
  -29.4170  -12.6920   18.0330 C   0  0  0  0  0  2  0  0  0  0  0  0
  -27.9570  -12.5040   18.4890 C   0  0  0  0  0  2  0  0  0  0  0  0
  -27.5910  -13.3990   19.7040 C   0  0  0  0  0  3  0  0  0  0  0  0
  -28.6690  -13.3710   20.8060 C   0  0  0  0  0  2  0  0  0  0  0  0
  -29.9370  -13.7490   20.1760 N   0  0  0  0  0  0  0  0  0  0  0  0
  -31.7650  -15.0240   19.9040 O   0  0  0  0  0  0  0  0  0  0  0  0
  -29.8540  -16.1770   20.4060 N   0  0  0  0  0  0  0  0  0  0  0  0
  -28.8690  -16.0930   20.6110 H   0  0  0  0  0  0  0  0  0  0  0  0
  -25.2300  -13.9710   20.5080 C   0  0  0  0  0  0  0  0  0  0  0  0
  -24.1740  -13.1910   20.8910 C   0  0  0  0  0  0  0  0  0  0  0  0
  -24.6350  -11.8400   20.8260 C   0  0  0  0  0  0  0  0  0  0  0  0
  -26.2650  -13.0950   20.2260 N   0  0  0  0  0  0  0  0  0  0  0  0
  -25.9170  -11.8070   20.4840 N   0  0  0  0  0  0  0  0  0  0  0  0
  -23.9100  -10.5760   21.0130 C   0  0  0  0  0  0  0  0  0  0  0  0
  -24.3430   -9.6050   21.9430 C   0  0  0  0  0  3  0  0  0  0  0  0
  -23.6180   -8.4070   22.1170 C   0  0  0  0  0  3  0  0  0  0  0  0
  -22.4450   -8.1720   21.3610 C   0  0  0  0  0  0  0  0  0  0  0  0
  -22.0310   -9.1310   20.4200 C   0  0  0  0  0  3  0  0  0  0  0  0
  -22.7580  -10.3200   20.2430 C   0  0  0  0  0  3  0  0  0  0  0  0
  -21.6900   -7.0270   21.4460 O   0  0  0  0  0  0  0  0  0  0  0  0
  -21.6110   -6.2990   22.6060 C   0  0  0  0  0  0  0  0  0  0  0  0
  -21.1220   -6.8620   23.8050 C   0  0  0  0  0  3  0  0  0  0  0  0
  -20.9930   -6.0600   24.9570 C   0  0  0  0  0  3  0  0  0  0  0  0
  -21.3420   -4.6970   24.9100 C   0  0  0  0  0  0  0  0  0  0  0  0
  -21.8230   -4.1330   23.7150 C   0  0  0  0  0  3  0  0  0  0  0  0
  -21.9540   -4.9320   22.5660 C   0  0  0  0  0  0  0  0  0  0  0  0
  -22.3990   -4.3800   21.4120 F   0  0  0  0  0  0  0  0  0  0  0  0
  -21.2100   -3.9240   26.0140 F   0  0  0  0  0  0  0  0  0  0  0  0
  -22.7840  -13.6660   21.2010 C   0  0  0  0  0  0  0  0  0  0  0  0
  -22.0760  -12.9600   22.0750 N   0  0  0  0  0  0  0  0  0  0  0  0
  -22.3360  -14.6980   20.7040 O   0  0  0  0  0  0  0  0  0  0  0  0
  -22.4520  -12.1270   22.5010 H   0  0  0  0  0  0  0  0  0  0  0  0
  -21.1420  -13.2590   22.3240 H   0  0  0  0  0  0  0  0  0  0  0  0
  -25.3890  -15.3450   20.3500 N   0  0  0  0  0  0  0  0  0  0  0  0
  -24.6200  -15.9920   20.4890 H   0  0  0  0  0  0  0  0  0  0  0  0
  -26.2190  -15.7910   19.9830 H   0  0  0  0  0  0  0  0  0  0  0  0
  2  5  1  0
  3  1  1  0
  4  2  2  0
  4  6  1  0
  5  7  1  0
  5  1  2  0
  6  3  2  0
  8  9  1  0
  8  7  2  0
 10 21  2  0
 11  9  1  0
 11 16  1  0
 12 20  1  0
 12 22  1  0
 13 19  1  0
 13 15  1  0
 14 20  1  0
 15 14  1  0
 16 15  2  0
 17 18  1  0
 17 11  2  0
 18 13  2  0
 19 12  1  0
 20 10  1  0
 22 24  2  0
 23 22  1  0
 25 23  1  0
 26 35  2  0
 26 31  1  0
 27 23  1  0
 27 31  1  0
 28 27  1  0
 29 30  1  0
 29 28  1  0
 30 26  1  0
 31 32  2  0
 32 33  1  0
 34 33  2  0
 35 34  1  0
 36 10  1  0
 36 41  1  0
 36 37  1  0
 37 40  1  1
 37 38  1  0
 39 37  1  0
 41 44  1  0
 42 46  1  0
 42 41  1  0
 43 42  2  0
 46 45  1  0
 48 49  1  0
 48 46  1  0
 48 47  1  0
 50  6  1  0
 50 59  1  0
 51 59  1  0
 52 57  1  0
 53 54  1  0
 53 52  1  0
 55 54  1  0
 55 64  1  0
 55 56  1  0
 57 51  1  0
 57 56  1  0
 58 51  2  0
 59 60  1  0
 61 62  2  0
 62 81  1  0
 63 62  1  0
 63 66  1  0
 64 65  1  0
 64 61  1  0
 65 63  2  0
 66 67  1  0
 67 68  2  0
 69 72  1  0
 69 68  1  0
 70 69  2  0
 71 70  1  0
 71 66  2  0
 72 73  1  0
 73 74  1  0
 74 75  2  0
 76 75  1  0
 76 80  1  0
 77 76  2  0
 78 73  2  0
 78 77  1  0
 79 78  1  0
 81 82  1  0
 82 85  1  0
 82 84  1  0
 83 81  2  0
 86 87  1  0
 86 61  1  0
 88 86  1  0
M  ISO  4   8 101   9 101  51 100  59 100
M  END
>  <TORSDO>  (70) 
F 19

>  <SCORE>  (70) 
-13.742

>  <name>  (70) 
69

>  <ligand_id>  (70) 
69

>  <original_smiles>  (70) 
[H]c1c([H])c([H])c2c(c1[H])C([H])([H])C([H])([H])C([H])([H])C2([H])N([H])C(=O)C1([H])N(C(=O)C([H])(N([H])C(=O)C([H])(N([H])C([H])([H])[H])C([H])([H])[H])C(C([H])([H])[H])(C([H])([H])[H])C([H])([H])[H])C([H])([H])c2c([H])c(OC([H])([H])C([H])([H])c3c([H])c([H])c(C([H])([H])N([H])C(=O)N4C([H])([H])C([H])([H])C([H])([H])C([H])(n5nc(-c6c([H])c([H])c(Oc7c([H])c([H])c(F)c([H])c7F)c([H])c6[H])c(C(=O)N([H])[H])c5N([H])[H])C4([H])[H])c([H])c3[H])c([H])c([H])c2C1([H])[H]

>  <smiles>  (70) 
[H]c1c([H])c([H])c2c(c1[H])C([H])([H])C([H])([H])C([H])([H])C2([H])N([H])C(=O)C1([H])N(C(=O)C([H])(N([H])C(=O)C([H])(N([H])C([H])([H])[H])C([H])([H])[H])C(C([H])([H])[H])(C([H])([H])[H])C([H])([H])[H])C([H])([H])c2c([H])c(OC([H])([H])C([H])([H])c3c([H])c([H])c(C([H])([H])N([H])C(=O)N4C([H])([H])C([H])([H])C([H])([H])C([H])(n5nc(-c6c([H])c([H])c(Oc7c([H])c([H])c(F)c([H])c7F)c([H])c6[H])c(C(=O)N([H])[H])c5N([H])[H])C4([H])[H])c([H])c3[H])c([H])c([H])c2C1([H])[H]

$$$$
70:0:0
     RDKit          3D

 96105  0  0  1  0  0  0  0  0999 V2000
  -30.8010  -22.6900   21.0700 C   0  0  0  0  0  2  0  0  0  0  0  0
  -30.8980  -24.0270   21.8210 C   0  0  0  0  0  2  0  0  0  0  0  0
  -28.5670  -23.4680   20.1630 C   0  0  0  0  0  2  0  0  0  0  0  0
  -29.3440  -22.2100   20.9420 C   0  0  0  0  0  3  0  0  0  0  0  0
  -30.2320  -25.2030   21.0690 C   0  0  0  0  0  3  0  0  0  0  0  0
  -28.7080  -25.0270   20.7800 C   0  0  0  0  0  3  0  0  0  0  0  0
  -30.4990  -15.0030   19.9690 C   0  0  0  0  0  0  0  0  0  0  0  0
  -30.3770  -12.6960   18.9370 C   0  0  0  0  0  2  0  0  0  0  0  0
  -29.3500  -12.7070   17.7770 C   0  0  0  0  0  2  0  0  0  0  0  0
  -27.9180  -12.4720   18.3050 C   0  0  0  0  0  2  0  0  0  0  0  0
  -27.5990  -13.3460   19.5460 C   0  0  0  0  0  3  0  0  0  0  0  0
  -28.7300  -13.2810   20.5920 C   0  0  0  0  0  2  0  0  0  0  0  0
  -29.9560  -13.7260   19.9210 N   0  0  0  0  0  0  0  0  0  0  0  0
  -31.6770  -15.1510   19.6180 O   0  0  0  0  0  0  0  0  0  0  0  0
  -28.8700  -19.8840   19.4990 C   0  0  0  0  0  3  0  0  0  0  0  0
  -28.9940  -18.4460   19.3370 C   0  0  0  0  0  3  0  0  0  0  0  0
  -29.3640  -20.5760   20.6520 C   0  0  0  0  0  0  0  0  0  0  0  0
  -29.9640  -19.6270   21.5720 C   0  0  0  0  0  0  0  0  0  0  0  0
  -29.6610  -17.5860   20.2750 C   0  0  0  0  0  0  0  0  0  0  0  0
  -30.5100  -20.0420   22.9370 C   0  0  0  0  0  1  0  0  0  0  0  0
  -30.1090  -18.2600   21.3740 N   0  0  0  0  0  0  0  0  0  0  0  0
  -29.6060  -16.0760   20.1640 N   0  0  0  0  0  0  0  0  0  0  0  0
  -28.6670  -15.7290   20.2690 H   0  0  0  0  0  0  0  0  0  0  0  0
  -25.2770  -13.8990   20.4670 C   0  0  0  0  0  0  0  0  0  0  0  0
  -24.2420  -13.1090   20.8870 C   0  0  0  0  0  0  0  0  0  0  0  0
  -24.7030  -11.7610   20.7720 C   0  0  0  0  0  0  0  0  0  0  0  0
  -26.2980  -13.0310   20.1230 N   0  0  0  0  0  0  0  0  0  0  0  0
  -25.9680  -11.7380   20.3700 N   0  0  0  0  0  0  0  0  0  0  0  0
  -23.9950  -10.4910   20.9650 C   0  0  0  0  0  0  0  0  0  0  0  0
  -24.4480   -9.5250   21.8900 C   0  0  0  0  0  3  0  0  0  0  0  0
  -23.7380   -8.3190   22.0690 C   0  0  0  0  0  3  0  0  0  0  0  0
  -22.5610   -8.0690   21.3220 C   0  0  0  0  0  0  0  0  0  0  0  0
  -22.1280   -9.0220   20.3840 C   0  0  0  0  0  3  0  0  0  0  0  0
  -22.8400  -10.2220   20.2020 C   0  0  0  0  0  3  0  0  0  0  0  0
  -21.8210   -6.9150   21.4100 O   0  0  0  0  0  0  0  0  0  0  0  0
  -21.7240   -6.2120   22.5850 C   0  0  0  0  0  0  0  0  0  0  0  0
  -21.2100   -6.7950   23.7630 C   0  0  0  0  0  3  0  0  0  0  0  0
  -21.0630   -6.0150   24.9270 C   0  0  0  0  0  3  0  0  0  0  0  0
  -21.4200   -4.6520   24.9130 C   0  0  0  0  0  0  0  0  0  0  0  0
  -21.9290   -4.0680   23.7400 C   0  0  0  0  0  3  0  0  0  0  0  0
  -22.0770   -4.8470   22.5780 C   0  0  0  0  0  0  0  0  0  0  0  0
  -22.5460   -4.2740   21.4450 F   0  0  0  0  0  0  0  0  0  0  0  0
  -21.2740   -3.9030   26.0300 F   0  0  0  0  0  0  0  0  0  0  0  0
  -22.8660  -13.5720   21.2720 C   0  0  0  0  0  0  0  0  0  0  0  0
  -22.2000  -12.8440   22.1630 N   0  0  0  0  0  0  0  0  0  0  0  0
  -22.3920  -14.6120   20.8210 O   0  0  0  0  0  0  0  0  0  0  0  0
  -22.5950  -11.9970   22.5430 H   0  0  0  0  0  0  0  0  0  0  0  0
  -21.2810  -13.1370   22.4650 H   0  0  0  0  0  0  0  0  0  0  0  0
  -25.4240  -15.2750   20.3210 N   0  0  0  0  0  0  0  0  0  0  0  0
  -24.6420  -15.9040   20.4590 H   0  0  0  0  0  0  0  0  0  0  0  0
  -26.1930  -15.7130   19.8320 H   0  0  0  0  0  0  0  0  0  0  0  0
  -30.5010  -26.4690   21.7920 N   0  0  0  0  0  4  0  0  0  0  0  0
  -30.0860  -26.4730   22.7080 H   0  0  0  0  0  0  0  0  0  0  0  0
  -30.1190  -27.2310   21.2590 H   0  0  0  0  0  0  0  0  0  0  0  0
  -31.4880  -26.6290   21.8900 H   0  0  0  0  0  0  0  0  0  0  0  0
  -28.4400  -26.3940   20.0980 O   0  0  0  0  0  0  0  0  0  0  0  0
  -24.6490  -31.9130   23.2130 C   0  0  0  0  0  0  0  0  0  0  0  0
  -27.3020  -27.2580   20.2120 C   0  0  0  0  0  0  0  0  0  0  0  0
  -23.4640  -30.5030   21.5720 C   0  0  0  0  0  3  0  0  0  0  0  0
  -24.9330  -28.9370   20.1650 C   0  0  0  0  0  0  0  0  0  0  0  0
  -26.0090  -30.8140   21.3960 C   0  0  0  0  0  2  0  0  0  0  0  0
  -26.1030  -29.4150   20.7690 C   0  0  0  0  0  0  0  0  0  0  0  0
  -27.2880  -28.5960   20.7690 C   0  0  0  0  0  3  0  0  0  0  0  0
  -26.1030  -26.8570   19.5870 C   0  0  0  0  0  3  0  0  0  0  0  0
  -24.9420  -27.6660   19.5620 C   0  0  0  0  0  3  0  0  0  0  0  0
  -23.6960  -29.8190   20.1970 C   0  0  0  0  0  2  0  0  0  0  0  0
  -24.7280  -31.0970   22.1180 N   0  0  0  0  0  0  0  0  0  0  0  0
  -23.5620  -32.1790   23.7420 O   0  0  0  0  0  0  0  0  0  0  0  0
  -22.8010  -29.4840   22.5330 C   0  0  0  0  0  0  0  0  0  0  0  0
  -21.4740  -29.3060   22.4140 N   0  0  0  0  0  0  0  0  0  0  0  0
  -23.4830  -28.8590   23.3490 O   0  0  0  0  0  0  0  0  0  0  0  0
  -20.9790  -29.8690   21.7360 H   0  0  0  0  0  0  0  0  0  0  0  0
  -18.0950  -28.1030   22.9140 C   0  0  0  0  0  0  0  0  0  0  0  0
  -20.6560  -28.3600   23.1790 C   0  0  0  0  0  3  0  0  0  0  0  0
  -20.7570  -26.9350   22.5880 C   0  0  0  0  0  2  0  0  0  0  0  0
  -19.6520  -26.6260   21.5750 C   0  0  0  0  0  2  0  0  0  0  0  0
  -18.2710  -26.7640   22.2240 C   0  0  0  0  0  2  0  0  0  0  0  0
  -19.2140  -28.8620   23.3480 C   0  0  0  0  0  0  0  0  0  0  0  0
  -18.9950  -30.1220   23.9490 C   0  0  0  0  0  3  0  0  0  0  0  0
  -17.6900  -30.6140   24.1300 C   0  0  0  0  0  3  0  0  0  0  0  0
  -16.5850  -29.8480   23.7190 C   0  0  0  0  0  3  0  0  0  0  0  0
  -16.7880  -28.5980   23.1120 C   0  0  0  0  0  3  0  0  0  0  0  0
  -25.9220  -32.5640   23.8440 C   0  0  0  0  0  3  0  0  0  0  0  0
  -26.4370  -31.7950   25.1230 C   0  0  1  0  0  0  0  0  0  0  0  0
  -25.3390  -31.5430   26.1820 C   0  0  0  0  0  1  0  0  0  0  0  0
  -27.0400  -30.4290   24.7220 C   0  0  0  0  0  1  0  0  0  0  0  0
  -27.5720  -32.6000   25.7990 C   0  0  0  0  0  1  0  0  0  0  0  0
  -25.5910  -33.9580   24.1800 N   0  0  0  0  0  0  0  0  0  0  0  0
  -25.9130  -35.0190   23.4280 C   0  0  0  0  0  0  0  0  0  0  0  0
  -26.5840  -34.9280   22.3970 O   0  0  0  0  0  0  0  0  0  0  0  0
  -25.0060  -34.1040   24.9890 H   0  0  0  0  0  0  0  0  0  0  0  0
  -24.1770  -36.8020   23.0830 C   0  0  0  0  0  1  0  0  0  0  0  0
  -25.4160  -36.3990   23.8970 C   0  0  0  0  0  3  0  0  0  0  0  0
  -27.5390  -37.2990   24.7440 C   0  0  0  0  0  1  0  0  0  0  0  0
  -26.4420  -37.4610   23.7950 N   0  0  0  0  0  0  0  0  0  0  0  0
  -26.0250  -38.3760   23.9490 H   0  0  0  0  0  0  0  0  0  0  0  0
  1  2  1  0
  3  6  1  0
  3  4  1  0
  4 17  1  0
  4  1  1  0
  5 52  1  0
  5  2  1  0
  6 56  1  0
  6  5  1  0
  7 22  1  0
  8 13  1  0
  9 10  1  0
  9  8  1  0
 11 10  1  0
 11 27  1  0
 11 12  1  0
 13  7  1  0
 13 12  1  0
 14  7  2  0
 15 17  1  0
 16 15  2  0
 16 19  1  0
 17 18  2  0
 18 20  1  0
 19 21  2  0
 21 18  1  0
 22 23  1  0
 22 19  1  0
 24 25  2  0
 25 44  1  0
 26 25  1  0
 26 29  1  0
 27 28  1  0
 27 24  1  0
 28 26  2  0
 29 30  1  0
 30 31  2  0
 32 35  1  0
 32 31  1  0
 33 32  2  0
 34 33  1  0
 34 29  2  0
 35 36  1  0
 36 37  1  0
 37 38  2  0
 39 38  1  0
 39 43  1  0
 40 39  2  0
 41 36  2  0
 41 40  1  0
 42 41  1  0
 44 45  1  0
 45 48  1  0
 45 47  1  0
 46 44  2  0
 49 50  1  0
 49 24  1  0
 51 49  1  0
 52 55  1  0
 52 53  1  0
 54 52  1  0
 56 58  1  0
 57 68  2  0
 58 63  1  0
 59 67  1  0
 59 69  1  0
 60 66  1  0
 60 62  1  0
 61 67  1  0
 62 61  1  0
 63 62  2  0
 64 58  2  0
 65 64  1  0
 65 60  2  0
 66 59  1  0
 67 57  1  0
 69 71  2  0
 70 69  1  0
 72 70  1  0
 73 82  2  0
 73 78  1  0
 74 70  1  0
 74 78  1  0
 75 74  1  0
 76 77  1  0
 76 75  1  0
 77 73  1  0
 78 79  2  0
 79 80  1  0
 81 80  2  0
 82 81  1  0
 83 57  1  0
 83 88  1  0
 83 84  1  0
 84 87  1  1
 84 85  1  0
 86 84  1  0
 88 91  1  0
 89 93  1  0
 89 88  1  0
 90 89  2  0
 93 92  1  0
 95 93  1  0
 95 96  1  0
 95 94  1  0
M  ISO  4   6 101   7 100  22 100  56 101
M  END
>  <TORSDO>  (71) 
F 17

>  <SCORE>  (71) 
-14.651

>  <name>  (71) 
70

>  <ligand_id>  (71) 
70

>  <original_smiles>  (71) 
[H]c1c(N([H])C(=O)N2C([H])([H])C([H])([H])C([H])([H])C([H])(n3nc(-c4c([H])c([H])c(Oc5c([H])c([H])c(F)c([H])c5F)c([H])c4[H])c(C(=O)N([H])[H])c3N([H])[H])C2([H])[H])nc(C([H])([H])[H])c(C2([H])C([H])([H])C([H])([H])C([H])([N+]([H])([H])[H])C([H])(Oc3c([H])c([H])c4c(c3[H])C([H])([H])N(C(=O)C([H])(N([H])C(=O)C([H])(N([H])C([H])([H])[H])C([H])([H])[H])C(C([H])([H])[H])(C([H])([H])[H])C([H])([H])[H])C([H])(C(=O)N([H])C3([H])c5c([H])c([H])c([H])c([H])c5C([H])([H])C([H])([H])C3([H])[H])C4([H])[H])C2([H])[H])c1[H]

>  <smiles>  (71) 
[H]c1c(N([H])C(=O)N2C([H])([H])C([H])([H])C([H])([H])C([H])(n3nc(-c4c([H])c([H])c(Oc5c([H])c([H])c(F)c([H])c5F)c([H])c4[H])c(C(=O)N([H])[H])c3N([H])[H])C2([H])[H])nc(C([H])([H])[H])c(C2([H])C([H])([H])C([H])([H])C([H])([N+]([H])([H])[H])C([H])(Oc3c([H])c([H])c4c(c3[H])C([H])([H])N(C(=O)C([H])(N([H])C(=O)C([H])(N([H])C([H])([H])[H])C([H])([H])[H])C(C([H])([H])[H])(C([H])([H])[H])C([H])([H])[H])C([H])(C(=O)N([H])C3([H])c5c([H])c([H])c([H])c([H])c5C([H])([H])C([H])([H])C3([H])[H])C4([H])[H])C2([H])[H])c1[H]

$$$$
71:0:0
     RDKit          3D

101110  0  0  1  0  0  0  0  0999 V2000
  -28.3760  -20.5950   21.4760 C   0  0  0  0  0  2  0  0  0  0  0  0
  -28.1080  -22.0710   21.8270 C   0  0  0  0  0  2  0  0  0  0  0  0
  -28.7150  -21.3640   19.0390 C   0  0  0  0  0  2  0  0  0  0  0  0
  -29.2140  -20.4200   20.1900 C   0  0  0  0  0  3  0  0  0  0  0  0
  -27.3310  -22.7650   20.6950 C   0  0  0  0  0  3  0  0  0  0  0  0
  -28.1860  -22.8000   19.4050 C   0  0  0  0  0  3  0  0  0  0  0  0
  -26.8630  -24.1110   21.0880 N   0  0  0  0  0  4  0  0  0  0  0  0
  -27.6420  -24.7430   21.1750 H   0  0  0  0  0  0  0  0  0  0  0  0
  -26.3780  -24.0820   21.9690 H   0  0  0  0  0  0  0  0  0  0  0  0
  -26.2180  -24.4810   20.4100 H   0  0  0  0  0  0  0  0  0  0  0  0
  -29.1860  -18.9790   19.7690 N   0  0  0  0  0  4  0  0  0  0  0  0
  -28.7610  -18.9430   18.8550 H   0  0  0  0  0  0  0  0  0  0  0  0
  -28.5770  -18.4590   20.3840 H   0  0  0  0  0  0  0  0  0  0  0  0
  -30.4690  -18.2280   19.6390 C   0  0  0  0  0  2  0  0  0  0  0  0
  -30.7850  -17.2500   20.8150 C   0  0  0  0  0  2  0  0  0  0  0  0
  -30.9510  -14.8240   20.1230 C   0  0  0  0  0  0  0  0  0  0  0  0
  -30.5940  -12.6730   18.9660 C   0  0  0  0  0  2  0  0  0  0  0  0
  -29.5920  -12.8760   17.8090 C   0  0  0  0  0  2  0  0  0  0  0  0
  -28.1390  -12.7400   18.3070 C   0  0  0  0  0  2  0  0  0  0  0  0
  -27.8650  -13.5610   19.5960 C   0  0  0  0  0  3  0  0  0  0  0  0
  -28.9770  -13.3350   20.6480 C   0  0  0  0  0  2  0  0  0  0  0  0
  -30.2660  -13.6530   20.0140 N   0  0  0  0  0  0  0  0  0  0  0  0
  -32.0660  -14.9890   19.6280 O   0  0  0  0  0  0  0  0  0  0  0  0
  -30.2760  -15.8650   20.6630 N   0  0  0  0  0  0  0  0  0  0  0  0
  -29.3580  -15.6560   21.0280 H   0  0  0  0  0  0  0  0  0  0  0  0
  -25.5120  -14.1590   20.4430 C   0  0  0  0  0  0  0  0  0  0  0  0
  -24.4550  -13.3860   20.8410 C   0  0  0  0  0  0  0  0  0  0  0  0
  -24.9010  -12.0320   20.7460 C   0  0  0  0  0  0  0  0  0  0  0  0
  -26.5360  -13.2770   20.1370 N   0  0  0  0  0  0  0  0  0  0  0  0
  -26.1760  -11.9900   20.3780 N   0  0  0  0  0  0  0  0  0  0  0  0
  -24.1730  -10.7690   20.9320 C   0  0  0  0  0  0  0  0  0  0  0  0
  -24.5980   -9.8020   21.8710 C   0  0  0  0  0  3  0  0  0  0  0  0
  -23.8710   -8.6050   22.0450 C   0  0  0  0  0  3  0  0  0  0  0  0
  -22.7050   -8.3670   21.2800 C   0  0  0  0  0  0  0  0  0  0  0  0
  -22.3000   -9.3220   20.3310 C   0  0  0  0  0  3  0  0  0  0  0  0
  -23.0260  -10.5100   20.1550 C   0  0  0  0  0  3  0  0  0  0  0  0
  -21.9500   -7.2220   21.3620 O   0  0  0  0  0  0  0  0  0  0  0  0
  -21.8450   -6.5140   22.5310 C   0  0  0  0  0  0  0  0  0  0  0  0
  -21.3060   -7.0870   23.7050 C   0  0  0  0  0  3  0  0  0  0  0  0
  -21.1510   -6.3040   24.8660 C   0  0  0  0  0  3  0  0  0  0  0  0
  -21.5210   -4.9460   24.8530 C   0  0  0  0  0  0  0  0  0  0  0  0
  -22.0510   -4.3710   23.6850 C   0  0  0  0  0  3  0  0  0  0  0  0
  -22.2080   -5.1520   22.5270 C   0  0  0  0  0  0  0  0  0  0  0  0
  -22.6980   -4.5870   21.3970 F   0  0  0  0  0  0  0  0  0  0  0  0
  -21.3650   -4.1910   25.9660 F   0  0  0  0  0  0  0  0  0  0  0  0
  -23.0780  -13.8650   21.1930 C   0  0  0  0  0  0  0  0  0  0  0  0
  -22.3860  -13.1510   22.0730 N   0  0  0  0  0  0  0  0  0  0  0  0
  -22.6240  -14.9080   20.7240 O   0  0  0  0  0  0  0  0  0  0  0  0
  -22.7660  -12.3060   22.4750 H   0  0  0  0  0  0  0  0  0  0  0  0
  -21.4620  -13.4500   22.3500 H   0  0  0  0  0  0  0  0  0  0  0  0
  -25.6820  -15.5340   20.2920 N   0  0  0  0  0  0  0  0  0  0  0  0
  -24.9190  -16.1890   20.4250 H   0  0  0  0  0  0  0  0  0  0  0  0
  -26.4990  -15.9510   19.8650 H   0  0  0  0  0  0  0  0  0  0  0  0
  -29.1770  -23.8520   19.5550 O   0  0  0  0  0  0  0  0  0  0  0  0
  -30.7200  -26.8200   16.8040 C   0  0  0  0  0  2  0  0  0  0  0  0
  -30.1560  -25.4980   16.2720 C   0  0  0  0  0  2  0  0  0  0  0  0
  -29.8630  -27.3570   17.9610 C   0  0  0  0  0  2  0  0  0  0  0  0
  -30.0370  -24.4470   17.3840 C   0  0  0  0  0  2  0  0  0  0  0  0
  -29.6560  -26.3160   19.0880 C   0  0  0  0  0  3  0  0  0  0  0  0
  -29.1430  -24.9120   18.5630 C   0  0  0  0  0  3  0  0  0  0  0  0
  -29.0190  -26.9800   20.2070 O   0  0  0  0  0  0  0  0  0  0  0  0
  -24.7880  -31.8160   23.3310 C   0  0  0  0  0  0  0  0  0  0  0  0
  -27.8200  -27.6760   20.1170 C   0  0  0  0  0  0  0  0  0  0  0  0
  -23.7410  -30.4420   21.5640 C   0  0  0  0  0  3  0  0  0  0  0  0
  -25.3400  -29.0710   20.1190 C   0  0  0  0  0  0  0  0  0  0  0  0
  -26.2500  -30.9360   21.5070 C   0  0  0  0  0  2  0  0  0  0  0  0
  -26.4400  -29.6090   20.7910 C   0  0  0  0  0  0  0  0  0  0  0  0
  -27.6780  -28.9130   20.7960 C   0  0  0  0  0  3  0  0  0  0  0  0
  -26.6920  -27.1610   19.4430 C   0  0  0  0  0  3  0  0  0  0  0  0
  -25.4600  -27.8480   19.4390 C   0  0  0  0  0  3  0  0  0  0  0  0
  -24.0470  -29.8600   20.1600 C   0  0  0  0  0  2  0  0  0  0  0  0
  -24.9410  -31.0790   22.1940 N   0  0  0  0  0  0  0  0  0  0  0  0
  -23.6700  -32.0020   23.8310 O   0  0  0  0  0  0  0  0  0  0  0  0
  -23.1050  -29.3320   22.4330 C   0  0  0  0  0  0  0  0  0  0  0  0
  -21.7950  -29.1010   22.2560 N   0  0  0  0  0  0  0  0  0  0  0  0
  -23.7940  -28.6840   23.2240 O   0  0  0  0  0  0  0  0  0  0  0  0
  -21.2940  -29.6920   21.6060 H   0  0  0  0  0  0  0  0  0  0  0  0
  -18.4590  -27.7580   22.5990 C   0  0  0  0  0  0  0  0  0  0  0  0
  -21.0020  -28.0770   22.9340 C   0  0  0  0  0  3  0  0  0  0  0  0
  -21.1610  -26.6990   22.2510 C   0  0  0  0  0  2  0  0  0  0  0  0
  -20.0860  -26.4210   21.1950 C   0  0  0  0  0  2  0  0  0  0  0  0
  -18.6900  -26.4680   21.8250 C   0  0  0  0  0  2  0  0  0  0  0  0
  -19.5460  -28.5210   23.1060 C   0  0  0  0  0  0  0  0  0  0  0  0
  -19.2780  -29.7310   23.7840 C   0  0  0  0  0  3  0  0  0  0  0  0
  -17.9550  -30.1800   23.9590 C   0  0  0  0  0  3  0  0  0  0  0  0
  -16.8830  -29.4140   23.4680 C   0  0  0  0  0  3  0  0  0  0  0  0
  -17.1360  -28.2030   22.7950 C   0  0  0  0  0  3  0  0  0  0  0  0
  -26.0080  -32.4740   24.0480 C   0  0  0  0  0  3  0  0  0  0  0  0
  -25.6430  -33.8630   24.3630 N   0  0  0  0  0  0  0  0  0  0  0  0
  -25.9880  -34.9240   23.6260 C   0  0  0  0  0  0  0  0  0  0  0  0
  -26.7240  -34.8470   22.6390 O   0  0  0  0  0  0  0  0  0  0  0  0
  -25.0060  -34.0050   25.1340 H   0  0  0  0  0  0  0  0  0  0  0  0
  -24.2250  -36.6540   23.1730 C   0  0  0  0  0  1  0  0  0  0  0  0
  -25.4300  -36.2950   24.0580 C   0  0  0  0  0  3  0  0  0  0  0  0
  -27.4730  -37.2440   25.0240 C   0  0  0  0  0  1  0  0  0  0  0  0
  -26.4290  -37.3820   24.0120 N   0  0  0  0  0  0  0  0  0  0  0  0
  -25.9830  -38.2850   24.1440 H   0  0  0  0  0  0  0  0  0  0  0  0
  -26.4590  -31.7100   25.3530 C   0  0  1  0  0  0  0  0  0  0  0  0
  -25.3000  -31.4220   26.3380 C   0  0  0  0  0  1  0  0  0  0  0  0
  -27.1200  -30.3620   24.9830 C   0  0  0  0  0  1  0  0  0  0  0  0
  -27.5350  -32.5380   26.0980 C   0  0  0  0  0  1  0  0  0  0  0  0
  1  2  1  0
  3  6  1  0
  3  4  1  0
  4 11  1  0
  4  1  1  0
  5  7  1  0
  5  2  1  0
  6 54  1  0
  6  5  1  0
  7  8  1  0
  7  9  1  0
 10  7  1  0
 11 13  1  0
 12 11  1  0
 14 11  1  0
 14 15  1  0
 16 24  1  0
 17 22  1  0
 18 19  1  0
 18 17  1  0
 20 19  1  0
 20 29  1  0
 20 21  1  0
 22 16  1  0
 22 21  1  0
 23 16  2  0
 24 15  1  0
 24 25  1  0
 26 27  2  0
 27 46  1  0
 28 27  1  0
 28 31  1  0
 29 30  1  0
 29 26  1  0
 30 28  2  0
 31 32  1  0
 32 33  2  0
 34 37  1  0
 34 33  1  0
 35 34  2  0
 36 35  1  0
 36 31  2  0
 37 38  1  0
 38 39  1  0
 39 40  2  0
 41 40  1  0
 41 45  1  0
 42 41  2  0
 43 38  2  0
 43 42  1  0
 44 43  1  0
 46 47  1  0
 47 50  1  0
 47 49  1  0
 48 46  2  0
 51 52  1  0
 51 26  1  0
 53 51  1  0
 55 57  1  0
 56 55  1  0
 56 58  1  0
 57 59  1  0
 58 60  1  0
 59 61  1  0
 60 59  1  0
 60 54  1  0
 62 73  2  0
 63 61  1  0
 63 68  1  0
 64 72  1  0
 64 74  1  0
 65 71  1  0
 65 67  1  0
 66 72  1  0
 67 68  2  0
 67 66  1  0
 69 63  2  0
 70 69  1  0
 70 65  2  0
 71 64  1  0
 72 62  1  0
 74 76  2  0
 75 74  1  0
 77 75  1  0
 78 87  2  0
 78 83  1  0
 79 75  1  0
 79 83  1  0
 80 79  1  0
 81 82  1  0
 81 80  1  0
 82 78  1  0
 83 84  2  0
 84 85  1  0
 86 85  2  0
 87 86  1  0
 88 62  1  0
 88 89  1  0
 88 98  1  0
 89 92  1  0
 90 94  1  0
 90 89  1  0
 91 90  2  0
 94 93  1  0
 96 94  1  0
 96 97  1  0
 96 95  1  0
 98101  1  1
 98 99  1  0
100 98  1  0
M  ISO  4  16 100  24 100  59 101  61 101
M  END
>  <TORSDO>  (72) 
F 22

>  <SCORE>  (72) 
-12.327

>  <name>  (72) 
71

>  <ligand_id>  (72) 
71

>  <original_smiles>  (72) 
[H]c1c([H])c([H])c2c(c1[H])C([H])([H])C([H])([H])C([H])([H])C2([H])N([H])C(=O)C1([H])N(C(=O)C([H])(N([H])C(=O)C([H])(N([H])C([H])([H])[H])C([H])([H])[H])C(C([H])([H])[H])(C([H])([H])[H])C([H])([H])[H])C([H])([H])c2c([H])c(OC3([H])C([H])([H])C([H])([H])C([H])([H])C([H])([H])C3([H])OC3([H])C([H])([H])C([H])([N+]([H])([H])C([H])([H])C([H])([H])N([H])C(=O)N4C([H])([H])C([H])([H])C([H])([H])C([H])(n5nc(-c6c([H])c([H])c(Oc7c([H])c([H])c(F)c([H])c7F)c([H])c6[H])c(C(=O)N([H])[H])c5N([H])[H])C4([H])[H])C([H])([H])C([H])([H])C3([H])[N+]([H])([H])[H])c([H])c([H])c2C1([H])[H]

>  <smiles>  (72) 
[H]c1c([H])c([H])c2c(c1[H])C([H])([H])C([H])([H])C([H])([H])C2([H])N([H])C(=O)C1([H])N(C(=O)C([H])(N([H])C(=O)C([H])(N([H])C([H])([H])[H])C([H])([H])[H])C(C([H])([H])[H])(C([H])([H])[H])C([H])([H])[H])C([H])([H])c2c([H])c(OC3([H])C([H])([H])C([H])([H])C([H])([H])C([H])([H])C3([H])OC3([H])C([H])([H])C([H])([N+]([H])([H])C([H])([H])C([H])([H])N([H])C(=O)N4C([H])([H])C([H])([H])C([H])([H])C([H])(n5nc(-c6c([H])c([H])c(Oc7c([H])c([H])c(F)c([H])c7F)c([H])c6[H])c(C(=O)N([H])[H])c5N([H])[H])C4([H])[H])C([H])([H])C([H])([H])C3([H])[N+]([H])([H])[H])c([H])c([H])c2C1([H])[H]

$$$$
72:0:0
     RDKit          3D

 96105  0  0  1  0  0  0  0  0999 V2000
  -29.6630  -24.8480   19.2150 C   0  0  0  0  0  2  0  0  0  0  0  0
  -28.5420  -25.3840   20.1020 C   0  0  0  0  0  3  0  0  0  0  0  0
  -29.2980  -24.8580   21.3390 C   0  0  0  0  0  3  0  0  0  0  0  0
  -30.2290  -24.1970   20.3990 N   0  0  0  0  0  0  0  0  0  0  0  0
  -30.9080  -22.0560   21.5120 C   0  0  0  0  0  3  0  0  0  0  0  0
  -30.5030  -22.0220   19.1620 C   0  0  0  0  0  3  0  0  0  0  0  0
  -31.2460  -20.6860   21.4930 C   0  0  0  0  0  3  0  0  0  0  0  0
  -30.8600  -20.6590   19.1170 C   0  0  0  0  0  3  0  0  0  0  0  0
  -30.4990  -22.7810   20.3620 C   0  0  0  0  0  0  0  0  0  0  0  0
  -31.2270  -19.9660   20.2810 C   0  0  0  0  0  0  0  0  0  0  0  0
  -31.6420  -18.6600   20.1350 O   0  0  0  0  0  0  0  0  0  0  0  0
  -31.3580  -17.6850   21.1420 C   0  0  0  0  0  2  0  0  0  0  0  0
  -30.1060  -16.8980   20.7050 C   0  0  0  0  0  2  0  0  0  0  0  0
  -30.7630  -14.5070   20.5500 C   0  0  0  0  0  0  0  0  0  0  0  0
  -30.4690  -12.3640   19.3750 C   0  0  0  0  0  2  0  0  0  0  0  0
  -29.5520  -12.6070   18.1560 C   0  0  0  0  0  2  0  0  0  0  0  0
  -28.0670  -12.4920   18.5500 C   0  0  0  0  0  2  0  0  0  0  0  0
  -27.7200  -13.3150   19.8200 C   0  0  0  0  0  3  0  0  0  0  0  0
  -28.7480  -13.0450   20.9460 C   0  0  0  0  0  2  0  0  0  0  0  0
  -30.0950  -13.3310   20.4180 N   0  0  0  0  0  0  0  0  0  0  0  0
  -31.8610  -14.7250   20.0320 O   0  0  0  0  0  0  0  0  0  0  0  0
  -30.0560  -15.4910   21.1230 N   0  0  0  0  0  0  0  0  0  0  0  0
  -29.2040  -15.1970   21.5790 H   0  0  0  0  0  0  0  0  0  0  0  0
  -25.3040  -13.9530   20.4520 C   0  0  0  0  0  0  0  0  0  0  0  0
  -24.2230  -13.1930   20.8080 C   0  0  0  0  0  0  0  0  0  0  0  0
  -24.6760  -11.8380   20.8100 C   0  0  0  0  0  0  0  0  0  0  0  0
  -26.3510  -13.0620   20.2640 N   0  0  0  0  0  0  0  0  0  0  0  0
  -25.9730  -11.7870   20.5340 N   0  0  0  0  0  0  0  0  0  0  0  0
  -23.9390  -10.5840   21.0030 C   0  0  0  0  0  0  0  0  0  0  0  0
  -24.3560   -9.6200   21.9480 C   0  0  0  0  0  3  0  0  0  0  0  0
  -23.6200   -8.4280   22.1280 C   0  0  0  0  0  3  0  0  0  0  0  0
  -22.4520   -8.1930   21.3640 C   0  0  0  0  0  0  0  0  0  0  0  0
  -22.0530   -9.1470   20.4100 C   0  0  0  0  0  3  0  0  0  0  0  0
  -22.7890  -10.3290   20.2280 C   0  0  0  0  0  3  0  0  0  0  0  0
  -21.6890   -7.0540   21.4540 O   0  0  0  0  0  0  0  0  0  0  0  0
  -21.6360   -6.3110   22.6070 C   0  0  0  0  0  0  0  0  0  0  0  0
  -21.2280   -6.8720   23.8360 C   0  0  0  0  0  3  0  0  0  0  0  0
  -21.1230   -6.0570   24.9810 C   0  0  0  0  0  3  0  0  0  0  0  0
  -21.4110   -4.6830   24.8960 C   0  0  0  0  0  0  0  0  0  0  0  0
  -21.8110   -4.1210   23.6710 C   0  0  0  0  0  3  0  0  0  0  0  0
  -21.9190   -4.9330   22.5290 C   0  0  0  0  0  0  0  0  0  0  0  0
  -22.2850   -4.3830   21.3450 F   0  0  0  0  0  0  0  0  0  0  0  0
  -21.3020   -3.8970   25.9930 F   0  0  0  0  0  0  0  0  0  0  0  0
  -22.8220  -13.6810   21.0400 C   0  0  0  0  0  0  0  0  0  0  0  0
  -22.0690  -13.0050   21.9030 N   0  0  0  0  0  0  0  0  0  0  0  0
  -22.4000  -14.7000   20.4920 O   0  0  0  0  0  0  0  0  0  0  0  0
  -22.4210  -12.1820   22.3680 H   0  0  0  0  0  0  0  0  0  0  0  0
  -21.1290  -13.3160   22.1000 H   0  0  0  0  0  0  0  0  0  0  0  0
  -25.4820  -15.3200   20.2550 N   0  0  0  0  0  0  0  0  0  0  0  0
  -24.7150  -15.9780   20.3330 H   0  0  0  0  0  0  0  0  0  0  0  0
  -26.3440  -15.7490   19.9420 H   0  0  0  0  0  0  0  0  0  0  0  0
  -29.2400  -24.1340   23.7970 C   0  0  0  0  0  1  0  0  0  0  0  0
  -28.5770  -24.0120   22.4120 C   0  0  0  0  0  3  0  0  0  0  0  0
  -27.2670  -24.5120   22.5940 O   0  0  0  0  0  0  0  0  0  0  0  0
  -26.8090  -23.9260   23.1890 H   0  0  0  0  0  0  0  0  0  0  0  0
  -28.4900  -26.8170   20.0500 O   0  0  0  0  0  0  0  0  0  0  0  0
  -24.6650  -31.8980   23.2110 C   0  0  0  0  0  0  0  0  0  0  0  0
  -27.2760  -27.4710   20.0920 C   0  0  0  0  0  0  0  0  0  0  0  0
  -23.4310  -30.4930   21.5870 C   0  0  0  0  0  3  0  0  0  0  0  0
  -24.8640  -28.9540   20.1440 C   0  0  0  0  0  0  0  0  0  0  0  0
  -25.9490  -30.8630   21.3430 C   0  0  0  0  0  2  0  0  0  0  0  0
  -26.0270  -29.4880   20.7120 C   0  0  0  0  0  0  0  0  0  0  0  0
  -27.2310  -28.7540   20.6820 C   0  0  0  0  0  3  0  0  0  0  0  0
  -26.0940  -26.9460   19.5200 C   0  0  0  0  0  3  0  0  0  0  0  0
  -24.8910  -27.6800   19.5490 C   0  0  0  0  0  3  0  0  0  0  0  0
  -23.6190  -29.8090   20.2060 C   0  0  0  0  0  2  0  0  0  0  0  0
  -24.7010  -31.1000   22.1050 N   0  0  0  0  0  0  0  0  0  0  0  0
  -23.5930  -32.1690   23.7690 O   0  0  0  0  0  0  0  0  0  0  0  0
  -22.8000  -29.4710   22.5590 C   0  0  0  0  0  0  0  0  0  0  0  0
  -21.4760  -29.2820   22.4490 N   0  0  0  0  0  0  0  0  0  0  0  0
  -23.4980  -28.8560   23.3690 O   0  0  0  0  0  0  0  0  0  0  0  0
  -20.9750  -29.8320   21.7650 H   0  0  0  0  0  0  0  0  0  0  0  0
  -18.1170  -28.0620   22.9730 C   0  0  0  0  0  0  0  0  0  0  0  0
  -20.6740  -28.3420   23.2300 C   0  0  0  0  0  3  0  0  0  0  0  0
  -20.7860  -26.9100   22.6610 C   0  0  0  0  0  2  0  0  0  0  0  0
  -19.6810  -26.5720   21.6550 C   0  0  0  0  0  2  0  0  0  0  0  0
  -18.3020  -26.7090   22.3070 C   0  0  0  0  0  2  0  0  0  0  0  0
  -19.2310  -28.8350   23.3920 C   0  0  0  0  0  0  0  0  0  0  0  0
  -19.0070  -30.1020   23.9740 C   0  0  0  0  0  3  0  0  0  0  0  0
  -17.6990  -30.5940   24.1460 C   0  0  0  0  0  3  0  0  0  0  0  0
  -16.5990  -29.8170   23.7430 C   0  0  0  0  0  3  0  0  0  0  0  0
  -16.8090  -28.5540   23.1620 C   0  0  0  0  0  3  0  0  0  0  0  0
  -25.9630  -32.5300   23.8070 C   0  0  0  0  0  3  0  0  0  0  0  0
  -25.6520  -33.9200   24.1650 N   0  0  0  0  0  0  0  0  0  0  0  0
  -25.9540  -34.9840   23.4100 C   0  0  0  0  0  0  0  0  0  0  0  0
  -26.5940  -34.9000   22.3590 O   0  0  0  0  0  0  0  0  0  0  0  0
  -25.0800  -34.0590   24.9850 H   0  0  0  0  0  0  0  0  0  0  0  0
  -24.1960  -36.7620   23.1320 C   0  0  0  0  0  1  0  0  0  0  0  0
  -25.4660  -36.3610   23.8990 C   0  0  0  0  0  3  0  0  0  0  0  0
  -27.6170  -37.2580   24.6740 C   0  0  0  0  0  1  0  0  0  0  0  0
  -26.4840  -37.4270   23.7680 N   0  0  0  0  0  0  0  0  0  0  0  0
  -26.0710  -38.3410   23.9420 H   0  0  0  0  0  0  0  0  0  0  0  0
  -26.5200  -31.7420   25.0550 C   0  0  1  0  0  0  0  0  0  0  0  0
  -25.4590  -31.4780   26.1490 C   0  0  0  0  0  1  0  0  0  0  0  0
  -27.1010  -30.3750   24.6210 C   0  0  0  0  0  1  0  0  0  0  0  0
  -27.6820  -32.5310   25.6990 C   0  0  0  0  0  1  0  0  0  0  0  0
  1  2  1  0
  1  4  1  0
  2 56  1  0
  2  3  1  0
  3 53  1  0
  4  3  1  0
  6  9  1  0
  7  5  1  0
  8  6  2  0
  8 10  1  0
  9  4  1  0
  9  5  2  0
 10  7  2  0
 11 10  1  0
 11 12  1  0
 13 22  1  0
 13 12  1  0
 14 22  1  0
 15 20  1  0
 16 17  1  0
 16 15  1  0
 18 17  1  0
 18 27  1  0
 18 19  1  0
 20 14  1  0
 20 19  1  0
 21 14  2  0
 22 23  1  0
 24 25  2  0
 25 26  1  0
 25 44  1  0
 26 29  1  0
 27 24  1  0
 27 28  1  0
 28 26  2  0
 29 30  1  0
 30 31  2  0
 32 35  1  0
 32 31  1  0
 33 32  2  0
 34 33  1  0
 34 29  2  0
 35 36  1  0
 36 37  1  0
 37 38  2  0
 39 38  1  0
 39 43  1  0
 40 39  2  0
 41 36  2  0
 41 40  1  0
 42 41  1  0
 44 45  1  0
 45 48  1  0
 45 47  1  0
 46 44  2  0
 49 50  1  0
 49 24  1  0
 51 49  1  0
 53 54  1  0
 53 52  1  0
 54 55  1  0
 56 58  1  0
 57 68  2  0
 58 63  1  0
 59 67  1  0
 59 69  1  0
 60 66  1  0
 60 62  1  0
 61 67  1  0
 62 61  1  0
 63 62  2  0
 64 65  1  0
 64 58  2  0
 65 60  2  0
 66 59  1  0
 67 57  1  0
 69 71  2  0
 70 69  1  0
 72 70  1  0
 73 82  2  0
 73 78  1  0
 74 70  1  0
 74 78  1  0
 75 74  1  0
 76 77  1  0
 76 75  1  0
 77 73  1  0
 78 79  2  0
 79 80  1  0
 81 80  2  0
 82 81  1  0
 83 57  1  0
 83 84  1  0
 83 93  1  0
 84 87  1  0
 85 89  1  0
 85 84  1  0
 86 85  2  0
 89 88  1  0
 91 89  1  0
 91 92  1  0
 91 90  1  0
 93 96  1  1
 93 94  1  0
 95 93  1  0
M  ISO  4   2 101  14 100  22 100  56 101
M  END
>  <TORSDO>  (73) 
F 22

>  <SCORE>  (73) 
-13.162

>  <name>  (73) 
72

>  <ligand_id>  (73) 
72

>  <original_smiles>  (73) 
[H]OC([H])(C([H])([H])[H])C1([H])N(c2c([H])c([H])c(OC([H])([H])C([H])([H])N([H])C(=O)N3C([H])([H])C([H])([H])C([H])([H])C([H])(n4nc(-c5c([H])c([H])c(Oc6c([H])c([H])c(F)c([H])c6F)c([H])c5[H])c(C(=O)N([H])[H])c4N([H])[H])C3([H])[H])c([H])c2[H])C([H])([H])C1([H])Oc1c([H])c([H])c2c(c1[H])C([H])([H])N(C(=O)C([H])(N([H])C(=O)C([H])(N([H])C([H])([H])[H])C([H])([H])[H])C(C([H])([H])[H])(C([H])([H])[H])C([H])([H])[H])C([H])(C(=O)N([H])C1([H])c3c([H])c([H])c([H])c([H])c3C([H])([H])C([H])([H])C1([H])[H])C2([H])[H]

>  <smiles>  (73) 
[H]OC([H])(C([H])([H])[H])C1([H])N(c2c([H])c([H])c(OC([H])([H])C([H])([H])N([H])C(=O)N3C([H])([H])C([H])([H])C([H])([H])C([H])(n4nc(-c5c([H])c([H])c(Oc6c([H])c([H])c(F)c([H])c6F)c([H])c5[H])c(C(=O)N([H])[H])c4N([H])[H])C3([H])[H])c([H])c2[H])C([H])([H])C1([H])Oc1c([H])c([H])c2c(c1[H])C([H])([H])N(C(=O)C([H])(N([H])C(=O)C([H])(N([H])C([H])([H])[H])C([H])([H])[H])C(C([H])([H])[H])(C([H])([H])[H])C([H])([H])[H])C([H])(C(=O)N([H])C1([H])c3c([H])c([H])c([H])c([H])c3C([H])([H])C([H])([H])C1([H])[H])C2([H])[H]

$$$$
73:0:0
     RDKit          3D

 98108  0  0  1  0  0  0  0  0999 V2000
  -29.0360  -20.2820   19.6930 N   0  0  0  0  0  4  0  0  0  0  0  0
  -28.2920  -20.1670   19.0250 H   0  0  0  0  0  0  0  0  0  0  0  0
  -28.7010  -19.8990   20.5700 H   0  0  0  0  0  0  0  0  0  0  0  0
  -29.8040  -22.5900   18.7090 C   0  0  0  0  0  2  0  0  0  0  0  0
  -27.9840  -22.4750   20.4070 C   0  0  0  0  0  2  0  0  0  0  0  0
  -29.8960  -24.1470   18.9620 C   0  0  0  0  0  2  0  0  0  0  0  0
  -28.0770  -24.0230   20.6300 C   0  0  0  0  0  2  0  0  0  0  0  0
  -29.2910  -21.7650   19.9310 C   0  0  0  0  0  3  0  0  0  0  0  0
  -28.5540  -24.8160   19.3840 C   0  0  0  0  0  3  0  0  0  0  0  0
  -28.6480  -26.2840   19.6070 O   0  0  0  0  0  0  0  0  0  0  0  0
  -24.8500  -31.5140   22.8280 C   0  0  0  0  0  0  0  0  0  0  0  0
  -27.4920  -27.0820   19.6170 C   0  0  0  0  0  0  0  0  0  0  0  0
  -23.6410  -30.1170   21.1930 C   0  0  0  0  0  3  0  0  0  0  0  0
  -25.0900  -28.6310   19.7050 C   0  0  0  0  0  0  0  0  0  0  0  0
  -26.1690  -30.4990   20.9590 C   0  0  0  0  0  2  0  0  0  0  0  0
  -26.2620  -29.1360   20.2810 C   0  0  0  0  0  0  0  0  0  0  0  0
  -27.4660  -28.3770   20.2230 C   0  0  0  0  0  3  0  0  0  0  0  0
  -26.2890  -26.6260   19.0320 C   0  0  0  0  0  3  0  0  0  0  0  0
  -25.1030  -27.3810   19.0760 C   0  0  0  0  0  3  0  0  0  0  0  0
  -23.8390  -29.4790   19.7950 C   0  0  0  0  0  2  0  0  0  0  0  0
  -24.9060  -30.7280   21.7140 N   0  0  0  0  0  0  0  0  0  0  0  0
  -23.7730  -31.7540   23.3920 O   0  0  0  0  0  0  0  0  0  0  0  0
  -23.0300  -29.0640   22.1480 C   0  0  0  0  0  0  0  0  0  0  0  0
  -21.7020  -28.8720   22.0630 N   0  0  0  0  0  0  0  0  0  0  0  0
  -23.7450  -28.4260   22.9240 O   0  0  0  0  0  0  0  0  0  0  0  0
  -21.1780  -29.4390   21.4110 H   0  0  0  0  0  0  0  0  0  0  0  0
  -18.3590  -27.6300   22.6630 C   0  0  0  0  0  0  0  0  0  0  0  0
  -20.9230  -27.9070   22.8400 C   0  0  0  0  0  3  0  0  0  0  0  0
  -21.0160  -26.4910   22.2210 C   0  0  0  0  0  2  0  0  0  0  0  0
  -19.8770  -26.1870   21.2430 C   0  0  0  0  0  2  0  0  0  0  0  0
  -18.5200  -26.3020   21.9420 C   0  0  0  0  0  2  0  0  0  0  0  0
  -19.4870  -28.3900   23.0710 C   0  0  0  0  0  0  0  0  0  0  0  0
  -19.2800  -29.6350   23.7060 C   0  0  0  0  0  3  0  0  0  0  0  0
  -17.9790  -30.1180   23.9360 C   0  0  0  0  0  3  0  0  0  0  0  0
  -16.8660  -29.3570   23.5420 C   0  0  0  0  0  3  0  0  0  0  0  0
  -17.0570  -28.1130   22.9140 C   0  0  0  0  0  3  0  0  0  0  0  0
  -26.1330  -32.1640   23.4350 C   0  0  0  0  0  3  0  0  0  0  0  0
  -26.7570  -31.3280   24.6210 C   0  0  1  0  0  0  0  0  0  0  0  0
  -25.7330  -30.9440   25.7140 C   0  0  0  0  0  1  0  0  0  0  0  0
  -27.3960  -30.0220   24.0920 C   0  0  0  0  0  1  0  0  0  0  0  0
  -27.8890  -32.1390   25.2940 C   0  0  0  0  0  1  0  0  0  0  0  0
  -25.7690  -33.5150   23.8880 N   0  0  0  0  0  0  0  0  0  0  0  0
  -26.0000  -34.6400   23.1960 C   0  0  0  0  0  0  0  0  0  0  0  0
  -26.6100  -34.6520   22.1240 O   0  0  0  0  0  0  0  0  0  0  0  0
  -25.2240  -33.5750   24.7350 H   0  0  0  0  0  0  0  0  0  0  0  0
  -24.1540  -36.3450   23.0890 C   0  0  0  0  0  1  0  0  0  0  0  0
  -25.4670  -35.9580   23.7890 C   0  0  0  0  0  3  0  0  0  0  0  0
  -27.5990  -36.9070   24.5520 C   0  0  0  0  0  1  0  0  0  0  0  0
  -26.4300  -37.0780   23.6950 N   0  0  0  0  0  0  0  0  0  0  0  0
  -25.9810  -37.9570   23.9370 H   0  0  0  0  0  0  0  0  0  0  0  0
  -30.1270  -19.2770   19.3700 C   0  0  0  0  0  2  0  0  0  0  0  0
  -29.9900  -16.9280   22.3740 C   0  0  0  0  0  2  0  0  0  0  0  0
  -29.3720  -18.2910   22.5800 C   0  0  0  0  0  2  0  0  0  0  0  0
  -30.3010  -16.8820   20.8840 C   0  0  0  0  0  3  0  0  0  0  0  0
  -30.6820  -18.4360   20.6170 C   0  0  0  0  0  3  0  0  0  0  0  0
  -30.2450  -19.1810   21.8230 N   0  0  0  0  0  0  0  0  0  0  0  0
  -31.5630  -14.9090   19.6780 C   0  0  0  0  0  0  0  0  0  0  0  0
  -30.8220  -13.0230   18.2180 C   0  0  0  0  0  2  0  0  0  0  0  0
  -29.6710  -13.4740   17.2970 C   0  0  0  0  0  2  0  0  0  0  0  0
  -28.3160  -13.2930   17.9980 C   0  0  0  0  0  2  0  0  0  0  0  0
  -28.3090  -13.8680   19.4410 C   0  0  0  0  0  3  0  0  0  0  0  0
  -29.5620  -13.4090   20.2300 C   0  0  0  0  0  2  0  0  0  0  0  0
  -30.7420  -13.8240   19.4640 N   0  0  0  0  0  0  0  0  0  0  0  0
  -32.5770  -15.0550   18.9960 O   0  0  0  0  0  0  0  0  0  0  0  0
  -31.3490  -15.8140   20.6870 N   0  0  0  0  0  0  0  0  0  0  0  0
  -32.2460  -16.1720   20.9780 H   0  0  0  0  0  0  0  0  0  0  0  0
  -26.1530  -14.3980   20.7390 C   0  0  0  0  0  0  0  0  0  0  0  0
  -25.1300  -13.6110   21.1830 C   0  0  0  0  0  0  0  0  0  0  0  0
  -25.4470  -12.2840   20.7630 C   0  0  0  0  0  0  0  0  0  0  0  0
  -27.0630  -13.5460   20.1310 N   0  0  0  0  0  0  0  0  0  0  0  0
  -26.6430  -12.2540   20.1880 N   0  0  0  0  0  0  0  0  0  0  0  0
  -24.6470  -11.0540   20.8190 C   0  0  0  0  0  0  0  0  0  0  0  0
  -25.0330   -9.9600   21.6230 C   0  0  0  0  0  3  0  0  0  0  0  0
  -24.2380   -8.7960   21.6790 C   0  0  0  0  0  3  0  0  0  0  0  0
  -23.0380   -8.7180   20.9320 C   0  0  0  0  0  0  0  0  0  0  0  0
  -22.6660   -9.8030   20.1170 C   0  0  0  0  0  3  0  0  0  0  0  0
  -23.4640  -10.9590   20.0580 C   0  0  0  0  0  3  0  0  0  0  0  0
  -22.2110   -7.6210   20.9100 O   0  0  0  0  0  0  0  0  0  0  0  0
  -21.9610   -6.8890   22.0410 C   0  0  0  0  0  0  0  0  0  0  0  0
  -21.4550   -7.4860   23.2170 C   0  0  0  0  0  3  0  0  0  0  0  0
  -21.1450   -6.6860   24.3350 C   0  0  0  0  0  3  0  0  0  0  0  0
  -21.3310   -5.2900   24.2760 C   0  0  0  0  0  0  0  0  0  0  0  0
  -21.8320   -4.6950   23.1040 C   0  0  0  0  0  3  0  0  0  0  0  0
  -22.1420   -5.4910   21.9890 C   0  0  0  0  0  0  0  0  0  0  0  0
  -22.6010   -4.9120   20.8550 F   0  0  0  0  0  0  0  0  0  0  0  0
  -21.0250   -4.5210   25.3460 F   0  0  0  0  0  0  0  0  0  0  0  0
  -23.8710  -14.0830   21.8490 C   0  0  0  0  0  0  0  0  0  0  0  0
  -23.2860  -13.2560   22.7070 N   0  0  0  0  0  0  0  0  0  0  0  0
  -23.4270  -15.2130   21.6540 O   0  0  0  0  0  0  0  0  0  0  0  0
  -23.6560  -12.3340   22.8830 H   0  0  0  0  0  0  0  0  0  0  0  0
  -22.4500  -13.5460   23.1930 H   0  0  0  0  0  0  0  0  0  0  0  0
  -26.3510  -15.7720   20.7730 N   0  0  0  0  0  0  0  0  0  0  0  0
  -25.6420  -16.4010   21.1340 H   0  0  0  0  0  0  0  0  0  0  0  0
  -27.0850  -16.2480   20.2650 H   0  0  0  0  0  0  0  0  0  0  0  0
  -32.4950  -21.1200   23.6780 C   0  0  0  0  0  2  0  0  0  0  0  0
  -32.2330  -20.8340   22.1960 C   0  0  0  0  0  2  0  0  0  0  0  0
  -31.2080  -20.3470   23.9780 C   0  0  0  0  0  2  0  0  0  0  0  0
  -31.3950  -19.6240   22.6340 C   0  0  0  0  0  3  0  0  0  0  0  0
  1  3  1  0
  2  1  1  0
  4  6  1  0
  4  8  1  0
  5  7  1  0
  6  9  1  0
  8  1  1  0
  8  5  1  0
  9 10  1  0
  9  7  1  0
 10 12  1  0
 11 22  2  0
 12 17  1  0
 13 21  1  0
 13 23  1  0
 14 20  1  0
 14 16  1  0
 15 21  1  0
 16 15  1  0
 17 16  2  0
 18 19  1  0
 18 12  2  0
 19 14  2  0
 20 13  1  0
 21 11  1  0
 23 25  2  0
 24 23  1  0
 26 24  1  0
 27 36  2  0
 27 32  1  0
 28 24  1  0
 28 32  1  0
 29 28  1  0
 30 31  1  0
 30 29  1  0
 31 27  1  0
 32 33  2  0
 33 34  1  0
 35 34  2  0
 36 35  1  0
 37 11  1  0
 37 42  1  0
 37 38  1  0
 38 41  1  1
 38 39  1  0
 40 38  1  0
 42 45  1  0
 43 47  1  0
 43 42  1  0
 44 43  2  0
 47 46  1  0
 49 47  1  0
 49 50  1  0
 49 48  1  0
 51  1  1  0
 52 53  1  0
 54 65  1  0
 54 52  1  0
 55 51  1  0
 55 54  1  0
 55 56  1  0
 56 53  1  0
 56 98  1  0
 57 65  1  0
 58 63  1  0
 59 60  1  0
 59 58  1  0
 61 60  1  0
 61 70  1  0
 61 62  1  0
 63 57  1  0
 63 62  1  0
 64 57  2  0
 65 66  1  0
 67 92  1  0
 67 68  2  0
 68 87  1  0
 69 72  1  0
 69 68  1  0
 70 71  1  0
 70 67  1  0
 71 69  2  0
 72 73  1  0
 73 74  2  0
 75 74  1  0
 76 75  2  0
 77 76  1  0
 77 72  2  0
 78 75  1  0
 78 79  1  0
 79 80  1  0
 80 81  2  0
 82 81  1  0
 82 86  1  0
 83 82  2  0
 84 79  2  0
 84 83  1  0
 85 84  1  0
 87 88  1  0
 88 90  1  0
 88 91  1  0
 89 87  2  0
 92 93  1  0
 94 92  1  0
 95 97  1  0
 96 98  1  0
 96 95  1  0
 98 97  1  0
M  ISO  4   9 101  10 101  57 100  65 100
M  END
>  <TORSDO>  (74) 
F 20

>  <SCORE>  (74) 
-6.344

>  <name>  (74) 
73

>  <ligand_id>  (74) 
73

>  <original_smiles>  (74) 
[H]c1c([H])c([H])c2c(c1[H])C([H])([H])C([H])([H])C([H])([H])C2([H])N([H])C(=O)C1([H])N(C(=O)C([H])(N([H])C(=O)C([H])(N([H])C([H])([H])[H])C([H])([H])[H])C(C([H])([H])[H])(C([H])([H])[H])C([H])([H])[H])C([H])([H])c2c([H])c(OC3([H])C([H])([H])C([H])([H])C([H])([N+]([H])([H])C([H])([H])C4([H])N(C5([H])C([H])([H])C([H])([H])C5([H])[H])C([H])([H])C([H])([H])C4([H])N([H])C(=O)N4C([H])([H])C([H])([H])C([H])([H])C([H])(n5nc(-c6c([H])c([H])c(Oc7c([H])c([H])c(F)c([H])c7F)c([H])c6[H])c(C(=O)N([H])[H])c5N([H])[H])C4([H])[H])C([H])([H])C3([H])[H])c([H])c([H])c2C1([H])[H]

>  <smiles>  (74) 
[H]c1c([H])c([H])c2c(c1[H])C([H])([H])C([H])([H])C([H])([H])C2([H])N([H])C(=O)C1([H])N(C(=O)C([H])(N([H])C(=O)C([H])(N([H])C([H])([H])[H])C([H])([H])[H])C(C([H])([H])[H])(C([H])([H])[H])C([H])([H])[H])C([H])([H])c2c([H])c(OC3([H])C([H])([H])C([H])([H])C([H])([N+]([H])([H])C([H])([H])C4([H])N(C5([H])C([H])([H])C([H])([H])C5([H])[H])C([H])([H])C([H])([H])C4([H])N([H])C(=O)N4C([H])([H])C([H])([H])C([H])([H])C([H])(n5nc(-c6c([H])c([H])c(Oc7c([H])c([H])c(F)c([H])c7F)c([H])c6[H])c(C(=O)N([H])[H])c5N([H])[H])C4([H])[H])C([H])([H])C3([H])[H])c([H])c([H])c2C1([H])[H]

$$$$
74:0:0
     RDKit          3D

 88 96  0  0  1  0  0  0  0  0999 V2000
  -27.9590  -23.7590   20.8850 C   0  0  0  0  0  3  0  0  0  0  0  0
  -29.5430  -22.6940   18.9870 C   0  0  0  0  0  3  0  0  0  0  0  0
  -28.2410  -22.3010   20.8360 C   0  0  0  0  0  0  0  0  0  0  0  0
  -29.0740  -21.6120   19.8500 C   0  0  0  0  0  0  0  0  0  0  0  0
  -28.4520  -24.7550   19.9600 C   0  0  0  0  0  0  0  0  0  0  0  0
  -27.5690  -21.4570   21.9020 C   0  0  0  0  0  1  0  0  0  0  0  0
  -29.2870  -24.0980   19.0510 N   0  0  0  0  0  0  0  0  0  0  0  0
  -28.3850  -26.2870   19.9980 O   0  0  0  0  0  0  0  0  0  0  0  0
  -24.5800  -31.9550   23.2080 C   0  0  0  0  0  0  0  0  0  0  0  0
  -27.2830  -27.2790   20.0450 C   0  0  0  0  0  0  0  0  0  0  0  0
  -23.4230  -30.5750   21.5270 C   0  0  0  0  0  3  0  0  0  0  0  0
  -24.9160  -29.0590   20.0580 C   0  0  0  0  0  0  0  0  0  0  0  0
  -25.9770  -30.8790   21.3800 C   0  0  0  0  0  2  0  0  0  0  0  0
  -26.0880  -29.4920   20.6890 C   0  0  0  0  0  0  0  0  0  0  0  0
  -27.2630  -28.6220   20.6610 C   0  0  0  0  0  3  0  0  0  0  0  0
  -26.0770  -26.9870   19.3700 C   0  0  0  0  0  3  0  0  0  0  0  0
  -24.9310  -27.8260   19.3820 C   0  0  0  0  0  3  0  0  0  0  0  0
  -23.6690  -29.9380   20.1310 C   0  0  0  0  0  2  0  0  0  0  0  0
  -24.6810  -31.1620   22.0930 N   0  0  0  0  0  0  0  0  0  0  0  0
  -23.4850  -32.1930   23.7420 O   0  0  0  0  0  0  0  0  0  0  0  0
  -22.7650  -29.5290   22.4620 C   0  0  0  0  0  0  0  0  0  0  0  0
  -21.4460  -29.3030   22.3130 N   0  0  0  0  0  0  0  0  0  0  0  0
  -23.4480  -28.9190   23.2900 O   0  0  0  0  0  0  0  0  0  0  0  0
  -20.9470  -29.8480   21.6240 H   0  0  0  0  0  0  0  0  0  0  0  0
  -18.1240  -27.9100   22.7280 C   0  0  0  0  0  0  0  0  0  0  0  0
  -20.6590  -28.3130   23.0530 C   0  0  0  0  0  3  0  0  0  0  0  0
  -20.8510  -26.8960   22.4650 C   0  0  0  0  0  2  0  0  0  0  0  0
  -19.7910  -26.5270   21.4200 C   0  0  0  0  0  2  0  0  0  0  0  0
  -18.3900  -26.5850   22.0350 C   0  0  0  0  0  2  0  0  0  0  0  0
  -19.1890  -28.7280   23.1920 C   0  0  0  0  0  0  0  0  0  0  0  0
  -18.8840  -29.9650   23.8020 C   0  0  0  0  0  3  0  0  0  0  0  0
  -17.5490  -30.3860   23.9510 C   0  0  0  0  0  3  0  0  0  0  0  0
  -16.5000  -29.5670   23.5000 C   0  0  0  0  0  3  0  0  0  0  0  0
  -16.7870  -28.3310   22.8950 C   0  0  0  0  0  3  0  0  0  0  0  0
  -25.8340  -32.6150   23.8570 C   0  0  0  0  0  3  0  0  0  0  0  0
  -25.4940  -34.0120   24.1820 N   0  0  0  0  0  0  0  0  0  0  0  0
  -25.8090  -35.0730   23.4290 C   0  0  0  0  0  0  0  0  0  0  0  0
  -26.4800  -34.9810   22.3970 O   0  0  0  0  0  0  0  0  0  0  0  0
  -24.8960  -34.1550   24.9820 H   0  0  0  0  0  0  0  0  0  0  0  0
  -24.0480  -36.8400   23.0910 C   0  0  0  0  0  1  0  0  0  0  0  0
  -25.3040  -36.4560   23.8890 C   0  0  0  0  0  3  0  0  0  0  0  0
  -27.4230  -37.3910   24.7060 C   0  0  0  0  0  1  0  0  0  0  0  0
  -26.3170  -37.5270   23.7630 N   0  0  0  0  0  0  0  0  0  0  0  0
  -25.8940  -38.4410   23.8980 H   0  0  0  0  0  0  0  0  0  0  0  0
  -26.3280  -31.8610   25.1550 C   0  0  1  0  0  0  0  0  0  0  0  0
  -25.2070  -31.6010   26.1880 C   0  0  0  0  0  1  0  0  0  0  0  0
  -26.9570  -30.4960   24.7940 C   0  0  0  0  0  1  0  0  0  0  0  0
  -27.4370  -32.6850   25.8500 C   0  0  0  0  0  1  0  0  0  0  0  0
  -29.1590  -19.8800   19.5850 C   0  0  0  0  0  3  0  0  0  0  0  0
  -30.2790  -18.5270   19.9000 C   0  0  0  0  0  3  0  0  0  0  0  0
  -30.7910  -15.6270   19.8290 C   0  0  0  0  0  0  0  0  0  0  0  0
  -30.7460  -13.1600   19.0420 C   0  0  0  0  0  2  0  0  0  0  0  0
  -29.7860  -12.9130   17.8530 C   0  0  0  0  0  2  0  0  0  0  0  0
  -28.3520  -12.6600   18.3490 C   0  0  0  0  0  2  0  0  0  0  0  0
  -27.9340  -13.6620   19.4550 C   0  0  0  0  0  3  0  0  0  0  0  0
  -29.0190  -13.8500   20.5370 C   0  0  0  0  0  2  0  0  0  0  0  0
  -30.2250  -14.3250   19.8420 N   0  0  0  0  0  0  0  0  0  0  0  0
  -32.0050  -15.6330   19.5850 O   0  0  0  0  0  0  0  0  0  0  0  0
  -30.0150  -16.8830   19.8940 N   0  0  0  0  0  0  0  0  0  0  0  0
  -29.0360  -16.6720   20.0170 H   0  0  0  0  0  0  0  0  0  0  0  0
  -25.6170  -14.2460   20.3460 C   0  0  0  0  0  0  0  0  0  0  0  0
  -24.5560  -13.4800   20.7410 C   0  0  0  0  0  0  0  0  0  0  0  0
  -24.9900  -12.1220   20.6400 C   0  0  0  0  0  0  0  0  0  0  0  0
  -26.6260  -13.3580   20.0190 N   0  0  0  0  0  0  0  0  0  0  0  0
  -26.2650  -12.0720   20.2650 N   0  0  0  0  0  0  0  0  0  0  0  0
  -24.2450  -10.8700   20.8220 C   0  0  0  0  0  0  0  0  0  0  0  0
  -24.6450   -9.8990   21.7670 C   0  0  0  0  0  3  0  0  0  0  0  0
  -23.8980   -8.7150   21.9380 C   0  0  0  0  0  3  0  0  0  0  0  0
  -22.7340   -8.4910   21.1640 C   0  0  0  0  0  0  0  0  0  0  0  0
  -22.3520   -9.4480   20.2080 C   0  0  0  0  0  3  0  0  0  0  0  0
  -23.1010  -10.6250   20.0350 C   0  0  0  0  0  3  0  0  0  0  0  0
  -21.9610   -7.3580   21.2440 O   0  0  0  0  0  0  0  0  0  0  0  0
  -21.8100   -6.6710   22.4220 C   0  0  0  0  0  0  0  0  0  0  0  0
  -21.2430   -7.2710   23.5670 C   0  0  0  0  0  3  0  0  0  0  0  0
  -21.0430   -6.5080   24.7350 C   0  0  0  0  0  3  0  0  0  0  0  0
  -21.4000   -5.1460   24.7570 C   0  0  0  0  0  0  0  0  0  0  0  0
  -21.9580   -4.5450   23.6150 C   0  0  0  0  0  3  0  0  0  0  0  0
  -22.1600   -5.3050   22.4500 C   0  0  0  0  0  0  0  0  0  0  0  0
  -22.6800   -4.7170   21.3460 F   0  0  0  0  0  0  0  0  0  0  0  0
  -21.2000   -4.4100   25.8760 F   0  0  0  0  0  0  0  0  0  0  0  0
  -23.1850  -13.9780   21.0900 C   0  0  0  0  0  0  0  0  0  0  0  0
  -22.4880  -13.2790   21.9780 N   0  0  0  0  0  0  0  0  0  0  0  0
  -22.7430  -15.0210   20.6100 O   0  0  0  0  0  0  0  0  0  0  0  0
  -22.8600  -12.4340   22.3860 H   0  0  0  0  0  0  0  0  0  0  0  0
  -21.5680  -13.5930   22.2540 H   0  0  0  0  0  0  0  0  0  0  0  0
  -25.8000  -15.6200   20.2080 N   0  0  0  0  0  0  0  0  0  0  0  0
  -25.0460  -16.2780   20.3760 H   0  0  0  0  0  0  0  0  0  0  0  0
  -26.6240  -16.0540   19.8160 H   0  0  0  0  0  0  0  0  0  0  0  0
  2  7  1  0
  2  4  2  0
  3  1  2  0
  3  6  1  0
  4  3  1  0
  5  8  1  0
  5  1  1  0
  7  5  2  0
  8 10  1  0
  9 20  2  0
 10 15  1  0
 11 19  1  0
 11 21  1  0
 12 18  1  0
 12 14  1  0
 13 19  1  0
 14 13  1  0
 15 14  2  0
 16 17  1  0
 16 10  2  0
 17 12  2  0
 18 11  1  0
 19  9  1  0
 21 23  2  0
 22 21  1  0
 24 22  1  0
 25 34  2  0
 25 30  1  0
 26 22  1  0
 26 30  1  0
 27 26  1  0
 28 29  1  0
 28 27  1  0
 29 25  1  0
 30 31  2  0
 31 32  1  0
 33 32  2  0
 34 33  1  0
 35  9  1  0
 35 36  1  0
 35 45  1  0
 36 39  1  0
 37 41  1  0
 37 36  1  0
 38 37  2  0
 41 40  1  0
 43 41  1  0
 43 44  1  0
 43 42  1  0
 45 48  1  1
 45 46  1  0
 47 45  1  0
 49  4  1  0
 49 50  2  0
 51 57  1  0
 51 59  1  0
 52 57  1  0
 53 54  1  0
 53 52  1  0
 55 54  1  0
 55 64  1  0
 55 56  1  0
 57 56  1  0
 58 51  2  0
 59 50  1  0
 59 60  1  0
 61 62  2  0
 62 81  1  0
 63 62  1  0
 63 66  1  0
 64 65  1  0
 64 61  1  0
 65 63  2  0
 66 67  1  0
 67 68  2  0
 69 72  1  0
 69 68  1  0
 70 69  2  0
 71 70  1  0
 71 66  2  0
 72 73  1  0
 73 78  2  0
 73 74  1  0
 74 75  2  0
 75 76  1  0
 76 80  1  0
 77 76  2  0
 78 77  1  0
 79 78  1  0
 81 82  1  0
 82 85  1  0
 82 84  1  0
 83 81  2  0
 86 61  1  0
 86 87  1  0
 88 86  1  0
M  ISO  4   5 101   8 101  51 100  59 100
M  END
>  <TORSDO>  (75) 
F 18

>  <SCORE>  (75) 
-13.971

>  <name>  (75) 
74

>  <ligand_id>  (75) 
74

>  <original_smiles>  (75) 
[H]c1nc(Oc2c([H])c([H])c3c(c2[H])C([H])([H])N(C(=O)C([H])(N([H])C(=O)C([H])(N([H])C([H])([H])[H])C([H])([H])[H])C(C([H])([H])[H])(C([H])([H])[H])C([H])([H])[H])C([H])(C(=O)N([H])C2([H])c4c([H])c([H])c([H])c([H])c4C([H])([H])C([H])([H])C2([H])[H])C3([H])[H])c([H])c(C([H])([H])[H])c1C([H])([H])C([H])([H])N([H])C(=O)N1C([H])([H])C([H])([H])C([H])([H])C([H])(n2nc(-c3c([H])c([H])c(Oc4c([H])c([H])c(F)c([H])c4F)c([H])c3[H])c(C(=O)N([H])[H])c2N([H])[H])C1([H])[H]

>  <smiles>  (75) 
[H]c1nc(Oc2c([H])c([H])c3c(c2[H])C([H])([H])N(C(=O)C([H])(N([H])C(=O)C([H])(N([H])C([H])([H])[H])C([H])([H])[H])C(C([H])([H])[H])(C([H])([H])[H])C([H])([H])[H])C([H])(C(=O)N([H])C2([H])c4c([H])c([H])c([H])c([H])c4C([H])([H])C([H])([H])C2([H])[H])C3([H])[H])c([H])c(C([H])([H])[H])c1C([H])([H])C([H])([H])N([H])C(=O)N1C([H])([H])C([H])([H])C([H])([H])C([H])(n2nc(-c3c([H])c([H])c(Oc4c([H])c([H])c(F)c([H])c4F)c([H])c3[H])c(C(=O)N([H])[H])c2N([H])[H])C1([H])[H]

$$$$
75:0:0
     RDKit          3D

102112  0  0  1  0  0  0  0  0999 V2000
  -28.4630  -18.1350   18.5920 C   0  0  0  0  0  2  0  0  0  0  0  0
  -26.9580  -18.2040   18.2670 C   0  0  0  0  0  2  0  0  0  0  0  0
  -26.8810  -20.4820   19.1800 C   0  0  0  0  0  2  0  0  0  0  0  0
  -28.8810  -19.0390   19.7860 C   0  0  0  0  0  3  0  0  0  0  0  0
  -28.4220  -20.5410   19.3920 C   0  0  0  0  0  3  0  0  0  0  0  0
  -26.5090  -19.5910   18.0610 N   0  0  0  0  0  4  0  0  0  0  0  0
  -25.5030  -19.5860   17.9680 H   0  0  0  0  0  0  0  0  0  0  0  0
  -26.8780  -19.9470   17.1950 H   0  0  0  0  0  0  0  0  0  0  0  0
  -28.6930  -21.8040   20.3040 C   0  0  0  0  0  0  0  0  0  0  0  0
  -28.4570  -24.9390   18.2240 C   0  0  0  0  0  2  0  0  0  0  0  0
  -28.5570  -23.4030   18.3340 C   0  0  0  0  0  2  0  0  0  0  0  0
  -28.7580  -24.3640   20.5060 C   0  0  0  0  0  2  0  0  0  0  0  0
  -28.0330  -25.4130   19.6110 C   0  0  0  0  0  3  0  0  0  0  0  0
  -28.7110  -23.0730   19.7600 N   0  0  0  0  0  0  0  0  0  0  0  0
  -28.8520  -21.6330   21.5150 O   0  0  0  0  0  0  0  0  0  0  0  0
  -28.2390  -26.8650   19.7930 O   0  0  0  0  0  0  0  0  0  0  0  0
  -24.6550  -31.9890   23.3310 C   0  0  0  0  0  0  0  0  0  0  0  0
  -27.1220  -27.7120   19.8120 C   0  0  0  0  0  0  0  0  0  0  0  0
  -23.3780  -30.7280   21.6360 C   0  0  0  0  0  3  0  0  0  0  0  0
  -24.7640  -29.3110   20.0240 C   0  0  0  0  0  0  0  0  0  0  0  0
  -25.9080  -31.0640   21.3760 C   0  0  0  0  0  2  0  0  0  0  0  0
  -25.9550  -29.7450   20.6190 C   0  0  0  0  0  0  0  0  0  0  0  0
  -27.1330  -28.9530   20.5160 C   0  0  0  0  0  3  0  0  0  0  0  0
  -25.9170  -27.3540   19.1600 C   0  0  0  0  0  3  0  0  0  0  0  0
  -24.7460  -28.1220   19.2850 C   0  0  0  0  0  3  0  0  0  0  0  0
  -23.5310  -30.1740   20.1960 C   0  0  0  0  0  2  0  0  0  0  0  0
  -24.6680  -31.2730   22.1710 N   0  0  0  0  0  0  0  0  0  0  0  0
  -23.5970  -32.2220   23.9330 O   0  0  0  0  0  0  0  0  0  0  0  0
  -22.7580  -29.6320   22.5350 C   0  0  0  0  0  0  0  0  0  0  0  0
  -21.4350  -29.4310   22.4140 N   0  0  0  0  0  0  0  0  0  0  0  0
  -23.4650  -28.9700   23.2990 O   0  0  0  0  0  0  0  0  0  0  0  0
  -20.9280  -30.0190   21.7680 H   0  0  0  0  0  0  0  0  0  0  0  0
  -18.0980  -28.1000   22.8420 C   0  0  0  0  0  0  0  0  0  0  0  0
  -20.6460  -28.4290   23.1330 C   0  0  0  0  0  3  0  0  0  0  0  0
  -20.7980  -27.0330   22.4870 C   0  0  0  0  0  2  0  0  0  0  0  0
  -19.7080  -26.7260   21.4550 C   0  0  0  0  0  2  0  0  0  0  0  0
  -18.3210  -26.7920   22.1000 C   0  0  0  0  0  2  0  0  0  0  0  0
  -19.1920  -28.8760   23.3130 C   0  0  0  0  0  0  0  0  0  0  0  0
  -18.9320  -30.0970   23.9680 C   0  0  0  0  0  3  0  0  0  0  0  0
  -17.6120  -30.5500   24.1550 C   0  0  0  0  0  3  0  0  0  0  0  0
  -16.5340  -29.7710   23.7000 C   0  0  0  0  0  3  0  0  0  0  0  0
  -16.7780  -28.5480   23.0500 C   0  0  0  0  0  3  0  0  0  0  0  0
  -25.9660  -32.5660   23.9470 C   0  0  0  0  0  3  0  0  0  0  0  0
  -26.5120  -31.7170   25.1610 C   0  0  1  0  0  0  0  0  0  0  0  0
  -25.4460  -31.4290   26.2440 C   0  0  0  0  0  1  0  0  0  0  0  0
  -27.0660  -30.3590   24.6740 C   0  0  0  0  0  1  0  0  0  0  0  0
  -27.6900  -32.4590   25.8320 C   0  0  0  0  0  1  0  0  0  0  0  0
  -25.6860  -33.9470   24.3650 N   0  0  0  0  0  0  0  0  0  0  0  0
  -26.0370  -35.0390   23.6720 C   0  0  0  0  0  0  0  0  0  0  0  0
  -26.7020  -34.9880   22.6340 O   0  0  0  0  0  0  0  0  0  0  0  0
  -25.0970  -34.0620   25.1750 H   0  0  0  0  0  0  0  0  0  0  0  0
  -24.3740  -36.9070   23.4050 C   0  0  0  0  0  1  0  0  0  0  0  0
  -25.5770  -36.4040   24.2180 C   0  0  0  0  0  3  0  0  0  0  0  0
  -27.7080  -37.1600   25.1770 C   0  0  0  0  0  1  0  0  0  0  0  0
  -26.6440  -37.4290   24.2120 N   0  0  0  0  0  0  0  0  0  0  0  0
  -26.2610  -38.3490   24.4090 H   0  0  0  0  0  0  0  0  0  0  0  0
  -32.1670  -17.3710   21.1420 C   0  0  0  0  0  3  0  0  0  0  0  0
  -33.0200  -18.4820   21.1580 C   0  0  0  0  0  3  0  0  0  0  0  0
  -31.2770  -19.8010   20.1320 C   0  0  0  0  0  3  0  0  0  0  0  0
  -30.3560  -18.7220   20.1790 C   0  0  0  0  0  0  0  0  0  0  0  0
  -30.8600  -17.4190   20.5890 C   0  0  0  0  0  0  0  0  0  0  0  0
  -32.6040  -19.6980   20.6050 C   0  0  0  0  0  0  0  0  0  0  0  0
  -30.7880  -14.9880   19.9990 C   0  0  0  0  0  0  0  0  0  0  0  0
  -30.4340  -12.7750   18.9430 C   0  0  0  0  0  2  0  0  0  0  0  0
  -29.4360  -12.9010   17.7760 C   0  0  0  0  0  2  0  0  0  0  0  0
  -28.0010  -12.7120   18.2960 C   0  0  0  0  0  2  0  0  0  0  0  0
  -27.6970  -13.5780   19.5490 C   0  0  0  0  0  3  0  0  0  0  0  0
  -28.8210  -13.4890   20.6070 C   0  0  0  0  0  2  0  0  0  0  0  0
  -30.0880  -13.8130   19.9380 N   0  0  0  0  0  0  0  0  0  0  0  0
  -31.9020  -15.0610   19.4770 O   0  0  0  0  0  0  0  0  0  0  0  0
  -30.1860  -16.1270   20.4720 N   0  0  0  0  0  0  0  0  0  0  0  0
  -29.2090  -16.0750   20.7140 H   0  0  0  0  0  0  0  0  0  0  0  0
  -25.3490  -14.1060   20.4440 C   0  0  0  0  0  0  0  0  0  0  0  0
  -24.3170  -13.3020   20.8450 C   0  0  0  0  0  0  0  0  0  0  0  0
  -24.7980  -11.9610   20.7400 C   0  0  0  0  0  0  0  0  0  0  0  0
  -26.3890  -13.2540   20.1130 N   0  0  0  0  0  0  0  0  0  0  0  0
  -26.0680  -11.9570   20.3530 N   0  0  0  0  0  0  0  0  0  0  0  0
  -24.1040  -10.6810   20.9330 C   0  0  0  0  0  0  0  0  0  0  0  0
  -24.5590   -9.7280   21.8720 C   0  0  0  0  0  3  0  0  0  0  0  0
  -23.8630   -8.5140   22.0530 C   0  0  0  0  0  3  0  0  0  0  0  0
  -22.6970   -8.2450   21.2970 C   0  0  0  0  0  0  0  0  0  0  0  0
  -22.2620   -9.1870   20.3490 C   0  0  0  0  0  3  0  0  0  0  0  0
  -22.9590  -10.3920   20.1660 C   0  0  0  0  0  3  0  0  0  0  0  0
  -21.9720   -7.0810   21.3870 O   0  0  0  0  0  0  0  0  0  0  0  0
  -21.8610   -6.3910   22.5670 C   0  0  0  0  0  0  0  0  0  0  0  0
  -21.2750   -6.9670   23.7150 C   0  0  0  0  0  3  0  0  0  0  0  0
  -21.1180   -6.2010   24.8860 C   0  0  0  0  0  3  0  0  0  0  0  0
  -21.5380   -4.8570   24.9100 C   0  0  0  0  0  0  0  0  0  0  0  0
  -22.1170   -4.2800   23.7670 C   0  0  0  0  0  3  0  0  0  0  0  0
  -22.2750   -5.0450   22.5980 C   0  0  0  0  0  0  0  0  0  0  0  0
  -22.8140   -4.4770   21.4910 F   0  0  0  0  0  0  0  0  0  0  0  0
  -21.3820   -4.1170   26.0340 F   0  0  0  0  0  0  0  0  0  0  0  0
  -22.9340  -13.7480   21.2180 C   0  0  0  0  0  0  0  0  0  0  0  0
  -22.2740  -13.0180   22.1090 N   0  0  0  0  0  0  0  0  0  0  0  0
  -22.4500  -14.7810   20.7560 O   0  0  0  0  0  0  0  0  0  0  0  0
  -22.6800  -12.1830   22.5040 H   0  0  0  0  0  0  0  0  0  0  0  0
  -21.3490  -13.3010   22.4010 H   0  0  0  0  0  0  0  0  0  0  0  0
  -25.4870  -15.4830   20.3170 N   0  0  0  0  0  0  0  0  0  0  0  0
  -24.7410  -16.1220   20.5710 H   0  0  0  0  0  0  0  0  0  0  0  0
  -26.3560  -15.9450   20.0900 H   0  0  0  0  0  0  0  0  0  0  0  0
  -33.2130  -21.8900   19.8330 C   0  0  0  0  0  1  0  0  0  0  0  0
  -33.5270  -20.7200   20.5800 O   0  0  0  0  0  0  0  0  0  0  0  0
  1  4  1  0
  2  1  1  0
  3  5  1  0
  4 60  1  0
  5  4  1  0
  5  9  1  0
  6  2  1  0
  6  3  1  0
  7  6  1  0
  8  6  1  0
  9 15  2  0
 10 11  1  0
 10 13  1  0
 11 14  1  0
 13 16  1  0
 13 12  1  0
 14  9  1  0
 14 12  1  0
 16 18  1  0
 17 28  2  0
 18 23  1  0
 19 27  1  0
 19 29  1  0
 20 26  1  0
 20 22  1  0
 21 27  1  0
 22 21  1  0
 23 22  2  0
 24 25  1  0
 24 18  2  0
 25 20  2  0
 26 19  1  0
 27 17  1  0
 29 31  2  0
 30 29  1  0
 32 30  1  0
 33 42  2  0
 33 38  1  0
 34 30  1  0
 34 38  1  0
 35 34  1  0
 36 37  1  0
 36 35  1  0
 37 33  1  0
 38 39  2  0
 39 40  1  0
 41 40  2  0
 42 41  1  0
 43 17  1  0
 43 48  1  0
 43 44  1  0
 44 47  1  1
 44 45  1  0
 46 44  1  0
 48 51  1  0
 49 53  1  0
 49 48  1  0
 50 49  2  0
 53 52  1  0
 55 53  1  0
 55 56  1  0
 55 54  1  0
 57 58  1  0
 59 60  2  0
 59 62  1  0
 60 61  1  0
 61 57  2  0
 62 58  2  0
 63 71  1  0
 64 69  1  0
 65 66  1  0
 65 64  1  0
 67 66  1  0
 67 76  1  0
 67 68  1  0
 69 63  1  0
 69 68  1  0
 70 63  2  0
 71 61  1  0
 71 72  1  0
 73 74  2  0
 74 93  1  0
 75 74  1  0
 75 78  1  0
 76 77  1  0
 76 73  1  0
 77 75  2  0
 78 79  1  0
 79 80  2  0
 81 84  1  0
 81 80  1  0
 82 81  2  0
 83 82  1  0
 83 78  2  0
 84 85  1  0
 85 90  2  0
 85 86  1  0
 86 87  2  0
 87 88  1  0
 88 92  1  0
 89 88  2  0
 90 89  1  0
 91 90  1  0
 93 94  1  0
 94 97  1  0
 94 96  1  0
 95 93  2  0
 98 73  1  0
 98 99  1  0
100 98  1  0
101102  1  0
102 62  1  0
M  ISO  4  13 101  16 101  63 100  71 100
M  END
>  <TORSDO>  (76) 
F 19

>  <SCORE>  (76) 
-13.093

>  <name>  (76) 
75

>  <ligand_id>  (76) 
75

>  <original_smiles>  (76) 
[H]c1c([H])c([H])c2c(c1[H])C([H])([H])C([H])([H])C([H])([H])C2([H])N([H])C(=O)C1([H])N(C(=O)C([H])(N([H])C(=O)C([H])(N([H])C([H])([H])[H])C([H])([H])[H])C(C([H])([H])[H])(C([H])([H])[H])C([H])([H])[H])C([H])([H])c2c([H])c(OC3([H])C([H])([H])N(C(=O)C4([H])C([H])(c5c([H])c(OC([H])([H])[H])c([H])c([H])c5N([H])C(=O)N5C([H])([H])C([H])([H])C([H])([H])C([H])(n6nc(-c7c([H])c([H])c(Oc8c([H])c([H])c(F)c([H])c8F)c([H])c7[H])c(C(=O)N([H])[H])c6N([H])[H])C5([H])[H])C([H])([H])C([H])([H])[N+]([H])([H])C4([H])[H])C([H])([H])C3([H])[H])c([H])c([H])c2C1([H])[H]

>  <smiles>  (76) 
[H]c1c([H])c([H])c2c(c1[H])C([H])([H])C([H])([H])C([H])([H])C2([H])N([H])C(=O)C1([H])N(C(=O)C([H])(N([H])C(=O)C([H])(N([H])C([H])([H])[H])C([H])([H])[H])C(C([H])([H])[H])(C([H])([H])[H])C([H])([H])[H])C([H])([H])c2c([H])c(OC3([H])C([H])([H])N(C(=O)C4([H])C([H])(c5c([H])c(OC([H])([H])[H])c([H])c([H])c5N([H])C(=O)N5C([H])([H])C([H])([H])C([H])([H])C([H])(n6nc(-c7c([H])c([H])c(Oc8c([H])c([H])c(F)c([H])c8F)c([H])c7[H])c(C(=O)N([H])[H])c6N([H])[H])C5([H])[H])C([H])([H])C([H])([H])[N+]([H])([H])C4([H])[H])C([H])([H])C3([H])[H])c([H])c([H])c2C1([H])[H]

$$$$
76:0:0
     RDKit          3D

 94102  0  0  1  0  0  0  0  0999 V2000
  -33.6010  -20.1870   20.2880 C   0  0  0  0  0  3  0  0  0  0  0  0
  -32.5520  -19.3230   20.6070 C   0  0  0  0  0  3  0  0  0  0  0  0
  -31.9910  -21.9200   19.8680 C   0  0  0  0  0  3  0  0  0  0  0  0
  -33.3340  -21.4900   19.8650 C   0  0  0  0  0  0  0  0  0  0  0  0
  -31.1780  -19.6980   20.5470 C   0  0  0  0  0  0  0  0  0  0  0  0
  -30.8890  -21.0970   20.2620 C   0  0  0  0  0  0  0  0  0  0  0  0
  -34.1060  -23.8260   19.0470 C   0  0  0  0  0  1  0  0  0  0  0  0
  -35.3690  -21.7530   18.3590 C   0  0  0  0  0  1  0  0  0  0  0  0
  -34.5050  -22.3960   19.4590 C   0  0  0  0  0  3  0  0  0  0  0  0
  -30.1380  -18.5370   20.7730 C   0  0  0  0  0  2  0  0  0  0  0  0
  -30.7870  -17.0760   20.7180 C   0  0  0  0  0  2  0  0  0  0  0  0
  -30.6680  -14.6070   20.4560 C   0  0  0  0  0  0  0  0  0  0  0  0
  -30.3340  -12.4100   19.3780 C   0  0  0  0  0  2  0  0  0  0  0  0
  -29.4220  -12.5840   18.1490 C   0  0  0  0  0  2  0  0  0  0  0  0
  -27.9460  -12.4450   18.5640 C   0  0  0  0  0  2  0  0  0  0  0  0
  -27.5860  -13.3030   19.8090 C   0  0  0  0  0  3  0  0  0  0  0  0
  -28.6340  -13.1600   20.9340 C   0  0  0  0  0  2  0  0  0  0  0  0
  -29.9490  -13.4480   20.3540 N   0  0  0  0  0  0  0  0  0  0  0  0
  -31.8480  -14.6430   20.0990 O   0  0  0  0  0  0  0  0  0  0  0  0
  -30.0310  -15.7810   20.7510 N   0  0  0  0  0  0  0  0  0  0  0  0
  -29.0470  -15.7770   20.9800 H   0  0  0  0  0  0  0  0  0  0  0  0
  -25.1880  -13.8940   20.5100 C   0  0  0  0  0  0  0  0  0  0  0  0
  -24.1210  -13.1190   20.8740 C   0  0  0  0  0  0  0  0  0  0  0  0
  -24.5870  -11.7690   20.8560 C   0  0  0  0  0  0  0  0  0  0  0  0
  -26.2370  -13.0170   20.2880 N   0  0  0  0  0  0  0  0  0  0  0  0
  -25.8810  -11.7350   20.5580 N   0  0  0  0  0  0  0  0  0  0  0  0
  -23.8620  -10.5060   21.0480 C   0  0  0  0  0  0  0  0  0  0  0  0
  -24.2970   -9.5400   21.9820 C   0  0  0  0  0  3  0  0  0  0  0  0
  -23.5720   -8.3420   22.1620 C   0  0  0  0  0  3  0  0  0  0  0  0
  -22.3990   -8.1010   21.4080 C   0  0  0  0  0  0  0  0  0  0  0  0
  -21.9830   -9.0550   20.4640 C   0  0  0  0  0  3  0  0  0  0  0  0
  -22.7070  -10.2460   20.2810 C   0  0  0  0  0  3  0  0  0  0  0  0
  -21.6450   -6.9550   21.4990 O   0  0  0  0  0  0  0  0  0  0  0  0
  -21.6090   -6.2060   22.6470 C   0  0  0  0  0  0  0  0  0  0  0  0
  -21.2060   -6.7560   23.8840 C   0  0  0  0  0  3  0  0  0  0  0  0
  -21.1170   -5.9340   25.0240 C   0  0  0  0  0  3  0  0  0  0  0  0
  -21.4200   -4.5610   24.9290 C   0  0  0  0  0  0  0  0  0  0  0  0
  -21.8160   -4.0110   23.6970 C   0  0  0  0  0  3  0  0  0  0  0  0
  -21.9080   -4.8320   22.5590 C   0  0  0  0  0  0  0  0  0  0  0  0
  -22.2700   -4.2930   21.3690 F   0  0  0  0  0  0  0  0  0  0  0  0
  -21.3250   -3.7690   26.0210 F   0  0  0  0  0  0  0  0  0  0  0  0
  -22.7210  -13.5950   21.1290 C   0  0  0  0  0  0  0  0  0  0  0  0
  -21.9870  -12.9030   21.9930 N   0  0  0  0  0  0  0  0  0  0  0  0
  -22.2850  -14.6140   20.5960 O   0  0  0  0  0  0  0  0  0  0  0  0
  -22.3510  -12.0780   22.4470 H   0  0  0  0  0  0  0  0  0  0  0  0
  -21.0450  -13.2010   22.2060 H   0  0  0  0  0  0  0  0  0  0  0  0
  -25.3510  -15.2650   20.3260 N   0  0  0  0  0  0  0  0  0  0  0  0
  -24.5770  -15.9150   20.4080 H   0  0  0  0  0  0  0  0  0  0  0  0
  -26.1990  -15.7030   19.9900 H   0  0  0  0  0  0  0  0  0  0  0  0
  -29.6160  -21.6990   20.3580 O   0  0  0  0  0  0  0  0  0  0  0  0
  -29.5580  -23.1760   20.3220 C   0  0  0  0  0  2  0  0  0  0  0  0
  -28.2310  -23.9370   20.6670 C   0  0  0  0  0  2  0  0  0  0  0  0
  -28.3560  -25.4330   21.1830 C   0  0  0  0  0  2  0  0  0  0  0  0
  -28.4010  -26.5760   20.2710 O   0  0  0  0  0  0  0  0  0  0  0  0
  -24.6100  -31.9130   23.2650 C   0  0  0  0  0  0  0  0  0  0  0  0
  -27.2760  -27.3920   20.2600 C   0  0  0  0  0  0  0  0  0  0  0  0
  -23.4260  -30.4990   21.6200 C   0  0  0  0  0  3  0  0  0  0  0  0
  -24.8980  -28.9490   20.2190 C   0  0  0  0  0  0  0  0  0  0  0  0
  -25.9610  -30.8470   21.4500 C   0  0  0  0  0  2  0  0  0  0  0  0
  -26.0560  -29.4660   20.8160 C   0  0  0  0  0  0  0  0  0  0  0  0
  -27.2520  -28.6990   20.8260 C   0  0  0  0  0  3  0  0  0  0  0  0
  -26.1020  -26.9060   19.6530 C   0  0  0  0  0  3  0  0  0  0  0  0
  -24.9200  -27.6730   19.6310 C   0  0  0  0  0  3  0  0  0  0  0  0
  -23.6540  -29.8120   20.2460 C   0  0  0  0  0  2  0  0  0  0  0  0
  -24.6850  -31.1040   22.1690 N   0  0  0  0  0  0  0  0  0  0  0  0
  -23.5230  -32.1850   23.7930 O   0  0  0  0  0  0  0  0  0  0  0  0
  -22.7610  -29.4860   22.5810 C   0  0  0  0  0  0  0  0  0  0  0  0
  -21.4380  -29.2990   22.4420 N   0  0  0  0  0  0  0  0  0  0  0  0
  -23.4360  -28.8670   23.4090 O   0  0  0  0  0  0  0  0  0  0  0  0
  -20.9520  -29.8520   21.7480 H   0  0  0  0  0  0  0  0  0  0  0  0
  -18.0630  -28.0900   22.9110 C   0  0  0  0  0  0  0  0  0  0  0  0
  -20.6170  -28.3630   23.2100 C   0  0  0  0  0  3  0  0  0  0  0  0
  -20.7330  -26.9270   22.6470 C   0  0  0  0  0  2  0  0  0  0  0  0
  -19.6450  -26.5920   21.6210 C   0  0  0  0  0  2  0  0  0  0  0  0
  -18.2550  -26.7370   22.2470 C   0  0  0  0  0  2  0  0  0  0  0  0
  -19.1730  -28.8610   23.3480 C   0  0  0  0  0  0  0  0  0  0  0  0
  -18.9420  -30.1270   23.9270 C   0  0  0  0  0  3  0  0  0  0  0  0
  -17.6330  -30.6250   24.0720 C   0  0  0  0  0  3  0  0  0  0  0  0
  -16.5370  -29.8500   23.6500 C   0  0  0  0  0  3  0  0  0  0  0  0
  -16.7530  -28.5860   23.0770 C   0  0  0  0  0  3  0  0  0  0  0  0
  -25.8870  -32.5550   23.8950 C   0  0  0  0  0  3  0  0  0  0  0  0
  -25.5710  -33.9550   24.2070 N   0  0  0  0  0  0  0  0  0  0  0  0
  -25.9130  -35.0020   23.4450 C   0  0  0  0  0  0  0  0  0  0  0  0
  -26.5960  -34.8910   22.4230 O   0  0  0  0  0  0  0  0  0  0  0  0
  -24.9670  -34.1140   25.0000 H   0  0  0  0  0  0  0  0  0  0  0  0
  -24.1880  -36.7910   23.0520 C   0  0  0  0  0  1  0  0  0  0  0  0
  -25.4180  -36.3950   23.8840 C   0  0  0  0  0  3  0  0  0  0  0  0
  -27.5410  -37.2870   24.7350 C   0  0  0  0  0  1  0  0  0  0  0  0
  -26.4520  -37.4480   23.7770 N   0  0  0  0  0  0  0  0  0  0  0  0
  -26.0440  -38.3700   23.9100 H   0  0  0  0  0  0  0  0  0  0  0  0
  -26.3900  -31.7980   25.1840 C   0  0  1  0  0  0  0  0  0  0  0  0
  -25.2850  -31.5700   26.2420 C   0  0  0  0  0  1  0  0  0  0  0  0
  -26.9770  -30.4170   24.8120 C   0  0  0  0  0  1  0  0  0  0  0  0
  -27.5330  -32.5980   25.8500 C   0  0  0  0  0  1  0  0  0  0  0  0
  1  2  1  0
  3  6  2  0
  4  3  1  0
  4  1  2  0
  5  2  2  0
  5 10  1  0
  6 50  1  0
  6  5  1  0
  7  9  1  0
  8  9  1  0
  9  4  1  0
 11 20  1  0
 11 10  1  0
 12 20  1  0
 13 18  1  0
 14 15  1  0
 14 13  1  0
 16 15  1  0
 16 25  1  0
 16 17  1  0
 18 12  1  0
 18 17  1  0
 19 12  2  0
 20 21  1  0
 22 23  2  0
 23 42  1  0
 24 23  1  0
 24 27  1  0
 25 22  1  0
 25 26  1  0
 26 24  2  0
 27 28  1  0
 28 29  2  0
 30 33  1  0
 30 29  1  0
 31 30  2  0
 32 31  1  0
 32 27  2  0
 33 34  1  0
 34 35  1  0
 35 36  2  0
 37 36  1  0
 37 41  1  0
 38 37  2  0
 39 34  2  0
 39 38  1  0
 40 39  1  0
 42 43  1  0
 43 46  1  0
 43 45  1  0
 44 42  2  0
 47 48  1  0
 47 22  1  0
 49 47  1  0
 51 50  1  0
 51 52  1  0
 52 53  1  0
 54 53  1  0
 55 66  2  0
 56 54  1  0
 56 61  1  0
 57 65  1  0
 57 67  1  0
 58 64  1  0
 58 60  1  0
 59 65  1  0
 60 61  2  0
 60 59  1  0
 62 56  2  0
 63 62  1  0
 63 58  2  0
 64 57  1  0
 65 55  1  0
 67 69  2  0
 68 67  1  0
 70 68  1  0
 71 80  2  0
 71 76  1  0
 72 68  1  0
 72 76  1  0
 73 72  1  0
 74 75  1  0
 74 73  1  0
 75 71  1  0
 76 77  2  0
 77 78  1  0
 79 78  2  0
 80 79  1  0
 81 55  1  0
 81 82  1  0
 81 91  1  0
 82 85  1  0
 83 87  1  0
 83 82  1  0
 84 83  2  0
 87 86  1  0
 89 87  1  0
 89 90  1  0
 89 88  1  0
 91 94  1  1
 91 92  1  0
 93 91  1  0
M  ISO  4  12 100  20 100  53 101  54 101
M  END
>  <TORSDO>  (77) 
F 23

>  <SCORE>  (77) 
-12.910

>  <name>  (77) 
76

>  <ligand_id>  (77) 
76

>  <original_smiles>  (77) 
[H]c1c([H])c([H])c2c(c1[H])C([H])([H])C([H])([H])C([H])([H])C2([H])N([H])C(=O)C1([H])N(C(=O)C([H])(N([H])C(=O)C([H])(N([H])C([H])([H])[H])C([H])([H])[H])C(C([H])([H])[H])(C([H])([H])[H])C([H])([H])[H])C([H])([H])c2c([H])c(OC([H])([H])C([H])([H])C([H])([H])Oc3c([H])c(C([H])(C([H])([H])[H])C([H])([H])[H])c([H])c([H])c3C([H])([H])C([H])([H])N([H])C(=O)N3C([H])([H])C([H])([H])C([H])([H])C([H])(n4nc(-c5c([H])c([H])c(Oc6c([H])c([H])c(F)c([H])c6F)c([H])c5[H])c(C(=O)N([H])[H])c4N([H])[H])C3([H])[H])c([H])c([H])c2C1([H])[H]

>  <smiles>  (77) 
[H]c1c([H])c([H])c2c(c1[H])C([H])([H])C([H])([H])C([H])([H])C2([H])N([H])C(=O)C1([H])N(C(=O)C([H])(N([H])C(=O)C([H])(N([H])C([H])([H])[H])C([H])([H])[H])C(C([H])([H])[H])(C([H])([H])[H])C([H])([H])[H])C([H])([H])c2c([H])c(OC([H])([H])C([H])([H])C([H])([H])Oc3c([H])c(C([H])(C([H])([H])[H])C([H])([H])[H])c([H])c([H])c3C([H])([H])C([H])([H])N([H])C(=O)N3C([H])([H])C([H])([H])C([H])([H])C([H])(n4nc(-c5c([H])c([H])c(Oc6c([H])c([H])c(F)c([H])c6F)c([H])c5[H])c(C(=O)N([H])[H])c4N([H])[H])C3([H])[H])c([H])c([H])c2C1([H])[H]

$$$$
77:0:0
     RDKit          3D

 93101  0  0  1  0  0  0  0  0999 V2000
  -28.1170  -24.3060   19.0920 C   0  0  0  0  0  3  0  0  0  0  0  0
  -28.7140  -24.4800   21.3870 C   0  0  0  0  0  3  0  0  0  0  0  0
  -28.1560  -22.8840   19.2270 C   0  0  0  0  0  0  0  0  0  0  0  0
  -28.3600  -25.1610   20.1950 C   0  0  0  0  0  0  0  0  0  0  0  0
  -28.4950  -22.2950   20.4800 C   0  0  0  0  0  0  0  0  0  0  0  0
  -28.7830  -23.1190   21.5260 N   0  0  0  0  0  0  0  0  0  0  0  0
  -26.2490  -21.8720   17.8990 C   0  0  0  0  0  1  0  0  0  0  0  0
  -27.7690  -22.0430   18.0170 C   0  0  0  0  0  2  0  0  0  0  0  0
  -28.3750  -26.5700   20.0940 O   0  0  0  0  0  0  0  0  0  0  0  0
  -24.6430  -31.8910   23.2230 C   0  0  0  0  0  0  0  0  0  0  0  0
  -27.2180  -27.3540   20.1240 C   0  0  0  0  0  0  0  0  0  0  0  0
  -23.4130  -30.4910   21.6000 C   0  0  0  0  0  3  0  0  0  0  0  0
  -24.8410  -28.9390   20.1550 C   0  0  0  0  0  0  0  0  0  0  0  0
  -25.9450  -30.8180   21.3730 C   0  0  0  0  0  2  0  0  0  0  0  0
  -26.0150  -29.4390   20.7340 C   0  0  0  0  0  0  0  0  0  0  0  0
  -27.2050  -28.6550   20.7120 C   0  0  0  0  0  3  0  0  0  0  0  0
  -26.0210  -26.8960   19.5330 C   0  0  0  0  0  3  0  0  0  0  0  0
  -24.8450  -27.6720   19.5490 C   0  0  0  0  0  3  0  0  0  0  0  0
  -23.6030  -29.8100   20.2190 C   0  0  0  0  0  2  0  0  0  0  0  0
  -24.6860  -31.0850   22.1220 N   0  0  0  0  0  0  0  0  0  0  0  0
  -23.5690  -32.1680   23.7750 O   0  0  0  0  0  0  0  0  0  0  0  0
  -22.7680  -29.4750   22.5720 C   0  0  0  0  0  0  0  0  0  0  0  0
  -21.4430  -29.2890   22.4570 N   0  0  0  0  0  0  0  0  0  0  0  0
  -23.4580  -28.8550   23.3860 O   0  0  0  0  0  0  0  0  0  0  0  0
  -20.9440  -29.8400   21.7730 H   0  0  0  0  0  0  0  0  0  0  0  0
  -18.0810  -28.0600   22.9730 C   0  0  0  0  0  0  0  0  0  0  0  0
  -20.6360  -28.3490   23.2380 C   0  0  0  0  0  3  0  0  0  0  0  0
  -20.7530  -26.9130   22.6750 C   0  0  0  0  0  2  0  0  0  0  0  0
  -19.6520  -26.5700   21.6650 C   0  0  0  0  0  2  0  0  0  0  0  0
  -18.2700  -26.7070   22.3100 C   0  0  0  0  0  2  0  0  0  0  0  0
  -19.1920  -28.8380   23.3940 C   0  0  0  0  0  0  0  0  0  0  0  0
  -18.9610  -30.1040   23.9730 C   0  0  0  0  0  3  0  0  0  0  0  0
  -17.6520  -30.5940   24.1380 C   0  0  0  0  0  3  0  0  0  0  0  0
  -16.5550  -29.8130   23.7330 C   0  0  0  0  0  3  0  0  0  0  0  0
  -16.7700  -28.5490   23.1560 C   0  0  0  0  0  3  0  0  0  0  0  0
  -25.9370  -32.5220   23.8250 C   0  0  0  0  0  3  0  0  0  0  0  0
  -25.6270  -33.9140   24.1830 N   0  0  0  0  0  0  0  0  0  0  0  0
  -25.9240  -34.9780   23.4260 C   0  0  0  0  0  0  0  0  0  0  0  0
  -26.5600  -34.8930   22.3720 O   0  0  0  0  0  0  0  0  0  0  0  0
  -25.0590  -34.0530   25.0060 H   0  0  0  0  0  0  0  0  0  0  0  0
  -24.1640  -36.7540   23.1590 C   0  0  0  0  0  1  0  0  0  0  0  0
  -25.4400  -36.3570   23.9160 C   0  0  0  0  0  3  0  0  0  0  0  0
  -27.5970  -37.2560   24.6690 C   0  0  0  0  0  1  0  0  0  0  0  0
  -26.4560  -37.4220   23.7730 N   0  0  0  0  0  0  0  0  0  0  0  0
  -26.0460  -38.3360   23.9460 H   0  0  0  0  0  0  0  0  0  0  0  0
  -26.4860  -31.7350   25.0780 C   0  0  1  0  0  0  0  0  0  0  0  0
  -25.4190  -31.4790   26.1680 C   0  0  0  0  0  1  0  0  0  0  0  0
  -27.0650  -30.3660   24.6530 C   0  0  0  0  0  1  0  0  0  0  0  0
  -27.6480  -32.5250   25.7260 C   0  0  0  0  0  1  0  0  0  0  0  0
  -28.3320  -20.7590   20.8110 C   0  0  0  0  0  2  0  0  0  0  0  0
  -29.4360  -19.7680   20.5140 N   0  0  0  0  0  4  0  0  0  0  0  0
  -30.2290  -20.0380   21.0720 H   0  0  0  0  0  0  0  0  0  0  0  0
  -29.6950  -19.8780   19.5490 H   0  0  0  0  0  0  0  0  0  0  0  0
  -29.1070  -18.3040   20.7840 C   0  0  0  0  0  3  0  0  0  0  0  0
  -30.2280  -17.2090   20.4810 C   0  0  0  0  0  3  0  0  0  0  0  0
  -30.6150  -14.6620   20.3530 C   0  0  0  0  0  0  0  0  0  0  0  0
  -30.3480  -12.4570   19.2470 C   0  0  0  0  0  2  0  0  0  0  0  0
  -29.3880  -12.6280   18.0480 C   0  0  0  0  0  2  0  0  0  0  0  0
  -27.9220  -12.4810   18.4990 C   0  0  0  0  0  2  0  0  0  0  0  0
  -27.5940  -13.3150   19.7660 C   0  0  0  0  0  3  0  0  0  0  0  0
  -28.6680  -13.1290   20.8610 C   0  0  0  0  0  2  0  0  0  0  0  0
  -29.9690  -13.4590   20.2640 N   0  0  0  0  0  0  0  0  0  0  0  0
  -31.7750  -14.7990   19.9580 O   0  0  0  0  0  0  0  0  0  0  0  0
  -29.8580  -15.7570   20.6770 N   0  0  0  0  0  0  0  0  0  0  0  0
  -28.9180  -15.5630   20.9860 H   0  0  0  0  0  0  0  0  0  0  0  0
  -25.2120  -13.9140   20.5230 C   0  0  0  0  0  0  0  0  0  0  0  0
  -24.1500  -13.1400   20.9060 C   0  0  0  0  0  0  0  0  0  0  0  0
  -24.6110  -11.7890   20.8620 C   0  0  0  0  0  0  0  0  0  0  0  0
  -26.2520  -13.0340   20.2690 N   0  0  0  0  0  0  0  0  0  0  0  0
  -25.8960  -11.7500   20.5330 N   0  0  0  0  0  0  0  0  0  0  0  0
  -23.8850  -10.5270   21.0540 C   0  0  0  0  0  0  0  0  0  0  0  0
  -24.3310   -9.5500   21.9710 C   0  0  0  0  0  3  0  0  0  0  0  0
  -23.6050   -8.3520   22.1500 C   0  0  0  0  0  3  0  0  0  0  0  0
  -22.4190   -8.1230   21.4130 C   0  0  0  0  0  0  0  0  0  0  0  0
  -21.9920   -9.0890   20.4850 C   0  0  0  0  0  3  0  0  0  0  0  0
  -22.7190  -10.2790   20.3030 C   0  0  0  0  0  3  0  0  0  0  0  0
  -21.6640   -6.9800   21.5040 O   0  0  0  0  0  0  0  0  0  0  0  0
  -21.6320   -6.2270   22.6510 C   0  0  0  0  0  0  0  0  0  0  0  0
  -21.2380   -6.7740   23.8910 C   0  0  0  0  0  3  0  0  0  0  0  0
  -21.1530   -5.9490   25.0310 C   0  0  0  0  0  3  0  0  0  0  0  0
  -21.4520   -4.5770   24.9300 C   0  0  0  0  0  0  0  0  0  0  0  0
  -21.8390   -4.0290   23.6950 C   0  0  0  0  0  3  0  0  0  0  0  0
  -21.9260   -4.8520   22.5580 C   0  0  0  0  0  0  0  0  0  0  0  0
  -22.2800   -4.3140   21.3650 F   0  0  0  0  0  0  0  0  0  0  0  0
  -21.3650   -3.7820   26.0220 F   0  0  0  0  0  0  0  0  0  0  0  0
  -22.7570  -13.6190   21.1970 C   0  0  0  0  0  0  0  0  0  0  0  0
  -22.0380  -12.9260   22.0730 N   0  0  0  0  0  0  0  0  0  0  0  0
  -22.3140  -14.6460   20.6840 O   0  0  0  0  0  0  0  0  0  0  0  0
  -22.4080  -12.0950   22.5130 H   0  0  0  0  0  0  0  0  0  0  0  0
  -21.1040  -13.2310   22.3070 H   0  0  0  0  0  0  0  0  0  0  0  0
  -25.3730  -15.2850   20.3450 N   0  0  0  0  0  0  0  0  0  0  0  0
  -24.5950  -15.9270   20.4460 H   0  0  0  0  0  0  0  0  0  0  0  0
  -26.1900  -15.7170   19.9330 H   0  0  0  0  0  0  0  0  0  0  0  0
  1  3  2  0
  1  4  1  0
  2  6  1  0
  3  5  1  0
  4  2  2  0
  5 50  1  0
  5  6  2  0
  7  8  1  0
  8  3  1  0
  9 11  1  0
  9  4  1  0
 10 21  2  0
 11 16  1  0
 12 20  1  0
 12 22  1  0
 13 19  1  0
 13 15  1  0
 14 20  1  0
 15 14  1  0
 16 15  2  0
 17 18  1  0
 17 11  2  0
 18 13  2  0
 19 12  1  0
 20 10  1  0
 22 24  2  0
 23 22  1  0
 25 23  1  0
 26 35  2  0
 26 31  1  0
 27 23  1  0
 27 31  1  0
 28 27  1  0
 29 30  1  0
 29 28  1  0
 30 26  1  0
 31 32  2  0
 32 33  1  0
 34 33  2  0
 35 34  1  0
 36 10  1  0
 36 37  1  0
 36 46  1  0
 37 40  1  0
 38 42  1  0
 38 37  1  0
 39 38  2  0
 42 41  1  0
 44 42  1  0
 44 45  1  0
 44 43  1  0
 46 49  1  1
 46 47  1  0
 48 46  1  0
 51 54  1  0
 51 50  1  0
 51 52  1  0
 53 51  1  0
 55 64  1  0
 55 54  2  0
 56 64  1  0
 57 62  1  0
 58 59  1  0
 58 57  1  0
 60 59  1  0
 60 69  1  0
 60 61  1  0
 62 56  1  0
 62 61  1  0
 63 56  2  0
 64 65  1  0
 66 67  2  0
 67 86  1  0
 68 67  1  0
 68 71  1  0
 69 66  1  0
 69 70  1  0
 70 68  2  0
 71 72  1  0
 72 73  2  0
 74 77  1  0
 74 73  1  0
 75 74  2  0
 76 75  1  0
 76 71  2  0
 77 78  1  0
 78 79  1  0
 79 80  2  0
 81 80  1  0
 81 85  1  0
 82 81  2  0
 83 78  2  0
 83 82  1  0
 84 83  1  0
 86 87  1  0
 87 90  1  0
 87 89  1  0
 88 86  2  0
 91 92  1  0
 91 66  1  0
 93 91  1  0
M  ISO  4   4 101   9 101  56 100  64 100
M  END
>  <TORSDO>  (78) 
F 21

>  <SCORE>  (78) 
-13.469

>  <name>  (78) 
77

>  <ligand_id>  (78) 
77

>  <original_smiles>  (78) 
[H]c1nc(C([H])([H])[N+]([H])([H])C([H])([H])C([H])([H])N([H])C(=O)N2C([H])([H])C([H])([H])C([H])([H])C([H])(n3nc(-c4c([H])c([H])c(Oc5c([H])c([H])c(F)c([H])c5F)c([H])c4[H])c(C(=O)N([H])[H])c3N([H])[H])C2([H])[H])c(C([H])([H])C([H])([H])[H])c([H])c1Oc1c([H])c([H])c2c(c1[H])C([H])([H])N(C(=O)C([H])(N([H])C(=O)C([H])(N([H])C([H])([H])[H])C([H])([H])[H])C(C([H])([H])[H])(C([H])([H])[H])C([H])([H])[H])C([H])(C(=O)N([H])C1([H])c3c([H])c([H])c([H])c([H])c3C([H])([H])C([H])([H])C1([H])[H])C2([H])[H]

>  <smiles>  (78) 
[H]c1nc(C([H])([H])[N+]([H])([H])C([H])([H])C([H])([H])N([H])C(=O)N2C([H])([H])C([H])([H])C([H])([H])C([H])(n3nc(-c4c([H])c([H])c(Oc5c([H])c([H])c(F)c([H])c5F)c([H])c4[H])c(C(=O)N([H])[H])c3N([H])[H])C2([H])[H])c(C([H])([H])C([H])([H])[H])c([H])c1Oc1c([H])c([H])c2c(c1[H])C([H])([H])N(C(=O)C([H])(N([H])C(=O)C([H])(N([H])C([H])([H])[H])C([H])([H])[H])C(C([H])([H])[H])(C([H])([H])[H])C([H])([H])[H])C([H])(C(=O)N([H])C1([H])c3c([H])c([H])c([H])c([H])c3C([H])([H])C([H])([H])C1([H])[H])C2([H])[H]

$$$$
78:0:0
     RDKit          3D

 93101  0  0  1  0  0  0  0  0999 V2000
  -29.7350  -23.2970   19.7200 C   0  0  0  0  0  3  0  0  0  0  0  0
  -30.2690  -21.9630   19.6670 C   0  0  0  0  0  3  0  0  0  0  0  0
  -27.5690  -22.3820   20.1790 C   0  0  0  0  0  3  0  0  0  0  0  0
  -28.0840  -21.0540   20.1460 C   0  0  0  0  0  0  0  0  0  0  0  0
  -28.3640  -23.5450   20.0100 C   0  0  0  0  0  0  0  0  0  0  0  0
  -29.4740  -20.8070   19.9230 C   0  0  0  0  0  0  0  0  0  0  0  0
  -27.1030  -19.9750   20.3730 C   0  0  0  0  0  3  0  0  0  0  0  0
  -26.9980  -18.8390   19.6610 C   0  0  0  0  0  3  0  0  0  0  0  0
  -25.9900  -17.7440   19.9350 C   0  0  0  0  0  1  0  0  0  0  0  0
  -30.0280  -19.5070   20.1970 N   0  0  0  0  0  0  0  0  0  0  0  0
  -29.5640  -19.1180   21.0140 H   0  0  0  0  0  0  0  0  0  0  0  0
  -30.3460  -18.4020   19.2410 C   0  0  0  0  0  2  0  0  0  0  0  0
  -31.2190  -17.2200   19.8800 C   0  0  0  0  0  2  0  0  0  0  0  0
  -31.3970  -14.6400   19.7150 C   0  0  0  0  0  0  0  0  0  0  0  0
  -31.0560  -12.2890   18.9730 C   0  0  0  0  0  2  0  0  0  0  0  0
  -30.0720  -12.2720   17.7840 C   0  0  0  0  0  2  0  0  0  0  0  0
  -28.6150  -12.2180   18.2850 C   0  0  0  0  0  2  0  0  0  0  0  0
  -28.3260  -13.2560   19.4030 C   0  0  0  0  0  3  0  0  0  0  0  0
  -29.4250  -13.2450   20.4870 C   0  0  0  0  0  2  0  0  0  0  0  0
  -30.7120  -13.4550   19.8110 N   0  0  0  0  0  0  0  0  0  0  0  0
  -32.5640  -14.6640   19.3170 O   0  0  0  0  0  0  0  0  0  0  0  0
  -30.6930  -15.8050   19.8910 N   0  0  0  0  0  0  0  0  0  0  0  0
  -29.7240  -15.6950   20.1500 H   0  0  0  0  0  0  0  0  0  0  0  0
  -26.0670  -14.0490   20.3320 C   0  0  0  0  0  0  0  0  0  0  0  0
  -24.9520  -13.3670   20.7370 C   0  0  0  0  0  0  0  0  0  0  0  0
  -25.2650  -11.9790   20.5990 C   0  0  0  0  0  0  0  0  0  0  0  0
  -26.9940  -13.0820   19.9730 N   0  0  0  0  0  0  0  0  0  0  0  0
  -26.5210  -11.8290   20.1950 N   0  0  0  0  0  0  0  0  0  0  0  0
  -24.4230  -10.7890   20.7720 C   0  0  0  0  0  0  0  0  0  0  0  0
  -24.7740   -9.7600   21.6740 C   0  0  0  0  0  3  0  0  0  0  0  0
  -23.9360   -8.6350   21.8360 C   0  0  0  0  0  3  0  0  0  0  0  0
  -22.7340   -8.5310   21.0970 C   0  0  0  0  0  0  0  0  0  0  0  0
  -22.4010   -9.5470   20.1840 C   0  0  0  0  0  3  0  0  0  0  0  0
  -23.2380  -10.6640   20.0200 C   0  0  0  0  0  3  0  0  0  0  0  0
  -21.8730   -7.4630   21.1710 O   0  0  0  0  0  0  0  0  0  0  0  0
  -21.7210   -6.7410   22.3270 C   0  0  0  0  0  0  0  0  0  0  0  0
  -21.3120   -7.3450   23.5360 C   0  0  0  0  0  3  0  0  0  0  0  0
  -21.1010   -6.5530   24.6820 C   0  0  0  0  0  3  0  0  0  0  0  0
  -21.2870   -5.1600   24.6210 C   0  0  0  0  0  0  0  0  0  0  0  0
  -21.6890   -4.5560   23.4170 C   0  0  0  0  0  3  0  0  0  0  0  0
  -21.9020   -5.3430   22.2720 C   0  0  0  0  0  0  0  0  0  0  0  0
  -22.2680   -4.7540   21.1090 F   0  0  0  0  0  0  0  0  0  0  0  0
  -21.0770   -4.3980   25.7200 F   0  0  0  0  0  0  0  0  0  0  0  0
  -23.6350  -13.9670   21.1330 C   0  0  0  0  0  0  0  0  0  0  0  0
  -22.9030  -13.3060   22.0240 N   0  0  0  0  0  0  0  0  0  0  0  0
  -23.2690  -15.0560   20.6920 O   0  0  0  0  0  0  0  0  0  0  0  0
  -23.2140  -12.4230   22.4010 H   0  0  0  0  0  0  0  0  0  0  0  0
  -22.0210  -13.6880   22.3310 H   0  0  0  0  0  0  0  0  0  0  0  0
  -26.3640  -15.4030   20.2160 N   0  0  0  0  0  0  0  0  0  0  0  0
  -25.6770  -16.1220   20.4150 H   0  0  0  0  0  0  0  0  0  0  0  0
  -27.2190  -15.7730   19.8220 H   0  0  0  0  0  0  0  0  0  0  0  0
  -27.7040  -24.9420   20.3600 C   0  0  0  0  0  2  0  0  0  0  0  0
  -27.9340  -26.1810   19.6020 O   0  0  0  0  0  0  0  0  0  0  0  0
  -24.4470  -31.5270   23.0050 C   0  0  0  0  0  0  0  0  0  0  0  0
  -26.8770  -27.0950   19.6510 C   0  0  0  0  0  0  0  0  0  0  0  0
  -23.1810  -30.2680   21.2980 C   0  0  0  0  0  3  0  0  0  0  0  0
  -24.5660  -28.7610   19.7640 C   0  0  0  0  0  0  0  0  0  0  0  0
  -25.7250  -30.5230   21.1010 C   0  0  0  0  0  2  0  0  0  0  0  0
  -25.7560  -29.1830   20.3750 C   0  0  0  0  0  0  0  0  0  0  0  0
  -26.9200  -28.3600   20.3110 C   0  0  0  0  0  3  0  0  0  0  0  0
  -25.6740  -26.7190   19.0260 C   0  0  0  0  0  3  0  0  0  0  0  0
  -24.5260  -27.5330   19.0820 C   0  0  0  0  0  3  0  0  0  0  0  0
  -23.3580  -29.6670   19.8780 C   0  0  0  0  0  2  0  0  0  0  0  0
  -24.4710  -30.7850   21.8580 N   0  0  0  0  0  0  0  0  0  0  0  0
  -23.3800  -31.8050   23.5700 O   0  0  0  0  0  0  0  0  0  0  0  0
  -22.4950  -29.2180   22.2050 C   0  0  0  0  0  0  0  0  0  0  0  0
  -21.1580  -29.1260   22.1190 N   0  0  0  0  0  0  0  0  0  0  0  0
  -23.1660  -28.4920   22.9440 O   0  0  0  0  0  0  0  0  0  0  0  0
  -20.6780  -29.7610   21.4960 H   0  0  0  0  0  0  0  0  0  0  0  0
  -17.7320  -28.1280   22.7070 C   0  0  0  0  0  0  0  0  0  0  0  0
  -20.3120  -28.1800   22.8490 C   0  0  0  0  0  3  0  0  0  0  0  0
  -20.2760  -26.8060   22.1400 C   0  0  0  0  0  2  0  0  0  0  0  0
  -19.1020  -26.6590   21.1680 C   0  0  0  0  0  2  0  0  0  0  0  0
  -17.7700  -26.8390   21.9030 C   0  0  0  0  0  2  0  0  0  0  0  0
  -18.9250  -28.7650   23.1370 C   0  0  0  0  0  0  0  0  0  0  0  0
  -18.8330  -29.9790   23.8540 C   0  0  0  0  0  3  0  0  0  0  0  0
  -17.5800  -30.5520   24.1420 C   0  0  0  0  0  3  0  0  0  0  0  0
  -16.4010  -29.9090   23.7250 C   0  0  0  0  0  3  0  0  0  0  0  0
  -16.4780  -28.6980   23.0150 C   0  0  0  0  0  3  0  0  0  0  0  0
  -25.7570  -32.0770   23.6480 C   0  0  0  0  0  3  0  0  0  0  0  0
  -25.5050  -33.4700   24.0460 N   0  0  0  0  0  0  0  0  0  0  0  0
  -25.8910  -34.5440   23.3450 C   0  0  0  0  0  0  0  0  0  0  0  0
  -26.5660  -34.4630   22.3150 O   0  0  0  0  0  0  0  0  0  0  0  0
  -24.9110  -33.6090   24.8490 H   0  0  0  0  0  0  0  0  0  0  0  0
  -24.2440  -36.4250   23.0730 C   0  0  0  0  0  1  0  0  0  0  0  0
  -25.4600  -35.9270   23.8690 C   0  0  0  0  0  3  0  0  0  0  0  0
  -27.6270  -36.6740   24.7520 C   0  0  0  0  0  1  0  0  0  0  0  0
  -26.5380  -36.9390   23.8150 N   0  0  0  0  0  0  0  0  0  0  0  0
  -26.1710  -37.8670   24.0090 H   0  0  0  0  0  0  0  0  0  0  0  0
  -26.2480  -31.2260   24.8820 C   0  0  1  0  0  0  0  0  0  0  0  0
  -25.1520  -30.9840   25.9460 C   0  0  0  0  0  1  0  0  0  0  0  0
  -26.7720  -29.8460   24.4220 C   0  0  0  0  0  1  0  0  0  0  0  0
  -27.4340  -31.9400   25.5720 C   0  0  0  0  0  1  0  0  0  0  0  0
  1  5  1  0
  2  1  2  0
  2  6  1  0
  4  3  1  0
  4  7  1  0
  5  3  2  0
  5 52  1  0
  6  4  2  0
  6 10  1  0
  8  9  1  0
  8  7  2  0
 10 11  1  0
 12 13  1  0
 12 10  1  0
 13 22  1  0
 14 20  1  0
 14 22  1  0
 15 20  1  0
 16 17  1  0
 16 15  1  0
 18 17  1  0
 18 27  1  0
 18 19  1  0
 20 19  1  0
 21 14  2  0
 22 23  1  0
 24 25  2  0
 25 44  1  0
 26 25  1  0
 26 29  1  0
 27 28  1  0
 27 24  1  0
 28 26  2  0
 29 30  1  0
 30 31  2  0
 32 35  1  0
 32 31  1  0
 33 32  2  0
 34 33  1  0
 34 29  2  0
 35 36  1  0
 36 37  1  0
 37 38  2  0
 39 38  1  0
 39 43  1  0
 40 39  2  0
 41 36  2  0
 41 40  1  0
 42 41  1  0
 44 45  1  0
 45 48  1  0
 45 47  1  0
 46 44  2  0
 49 24  1  0
 49 50  1  0
 51 49  1  0
 53 55  1  0
 53 52  1  0
 54 65  2  0
 55 60  1  0
 56 64  1  0
 56 66  1  0
 57 63  1  0
 57 59  1  0
 58 64  1  0
 59 58  1  0
 60 59  2  0
 61 62  1  0
 61 55  2  0
 62 57  2  0
 63 56  1  0
 64 54  1  0
 66 68  2  0
 67 66  1  0
 69 67  1  0
 70 79  2  0
 70 75  1  0
 71 67  1  0
 71 75  1  0
 72 71  1  0
 73 74  1  0
 73 72  1  0
 74 70  1  0
 75 76  2  0
 76 77  1  0
 78 77  2  0
 79 78  1  0
 80 54  1  0
 80 81  1  0
 80 90  1  0
 81 84  1  0
 82 86  1  0
 82 81  1  0
 83 82  2  0
 86 85  1  0
 88 86  1  0
 88 89  1  0
 88 87  1  0
 90 93  1  1
 90 91  1  0
 92 90  1  0
M  ISO  4  14 100  22 100  52 101  53 101
M  END
>  <TORSDO>  (79) 
F 21

>  <SCORE>  (79) 
-11.538

>  <name>  (79) 
78

>  <ligand_id>  (79) 
78

>  <original_smiles>  (79) 
[H]C(=C([H])C([H])([H])[H])c1c([H])c(C([H])([H])Oc2c([H])c([H])c3c(c2[H])C([H])([H])N(C(=O)C([H])(N([H])C(=O)C([H])(N([H])C([H])([H])[H])C([H])([H])[H])C(C([H])([H])[H])(C([H])([H])[H])C([H])([H])[H])C([H])(C(=O)N([H])C2([H])c4c([H])c([H])c([H])c([H])c4C([H])([H])C([H])([H])C2([H])[H])C3([H])[H])c([H])c([H])c1N([H])C([H])([H])C([H])([H])N([H])C(=O)N1C([H])([H])C([H])([H])C([H])([H])C([H])(n2nc(-c3c([H])c([H])c(Oc4c([H])c([H])c(F)c([H])c4F)c([H])c3[H])c(C(=O)N([H])[H])c2N([H])[H])C1([H])[H]

>  <smiles>  (79) 
[H]C(=C([H])C([H])([H])[H])c1c([H])c(C([H])([H])Oc2c([H])c([H])c3c(c2[H])C([H])([H])N(C(=O)C([H])(N([H])C(=O)C([H])(N([H])C([H])([H])[H])C([H])([H])[H])C(C([H])([H])[H])(C([H])([H])[H])C([H])([H])[H])C([H])(C(=O)N([H])C2([H])c4c([H])c([H])c([H])c([H])c4C([H])([H])C([H])([H])C2([H])[H])C3([H])[H])c([H])c([H])c1N([H])C([H])([H])C([H])([H])N([H])C(=O)N1C([H])([H])C([H])([H])C([H])([H])C([H])(n2nc(-c3c([H])c([H])c(Oc4c([H])c([H])c(F)c([H])c4F)c([H])c3[H])c(C(=O)N([H])[H])c2N([H])[H])C1([H])[H]

$$$$
79:0:0
     RDKit          3D

 92100  0  0  1  0  0  0  0  0999 V2000
  -29.6410  -21.7560   19.7780 C   0  0  0  0  0  2  0  0  0  0  0  0
  -28.8980  -22.8340   20.5010 N   0  0  0  0  0  4  0  0  0  0  0  0
  -29.1990  -22.8310   21.4640 H   0  0  0  0  0  0  0  0  0  0  0  0
  -27.9170  -22.5950   20.4940 H   0  0  0  0  0  0  0  0  0  0  0  0
  -29.0510  -24.2190   19.9400 C   0  0  0  0  0  2  0  0  0  0  0  0
  -28.2720  -25.3160   20.7280 C   0  0  0  0  0  2  0  0  0  0  0  0
  -28.3880  -26.6500   20.1660 O   0  0  0  0  0  0  0  0  0  0  0  0
  -24.6080  -31.8870   23.2350 C   0  0  0  0  0  0  0  0  0  0  0  0
  -27.2340  -27.4130   20.1650 C   0  0  0  0  0  0  0  0  0  0  0  0
  -23.3950  -30.4810   21.6030 C   0  0  0  0  0  3  0  0  0  0  0  0
  -24.8430  -28.9390   20.1750 C   0  0  0  0  0  0  0  0  0  0  0  0
  -25.9210  -30.8350   21.3920 C   0  0  0  0  0  2  0  0  0  0  0  0
  -26.0060  -29.4600   20.7550 C   0  0  0  0  0  0  0  0  0  0  0  0
  -27.2070  -28.7080   20.7400 C   0  0  0  0  0  3  0  0  0  0  0  0
  -26.0540  -26.9180   19.5650 C   0  0  0  0  0  3  0  0  0  0  0  0
  -24.8630  -27.6670   19.5740 C   0  0  0  0  0  3  0  0  0  0  0  0
  -23.5980  -29.7980   20.2240 C   0  0  0  0  0  2  0  0  0  0  0  0
  -24.6600  -31.0830   22.1350 N   0  0  0  0  0  0  0  0  0  0  0  0
  -23.5290  -32.1610   23.7790 O   0  0  0  0  0  0  0  0  0  0  0  0
  -22.7470  -29.4630   22.5700 C   0  0  0  0  0  0  0  0  0  0  0  0
  -21.4220  -29.2800   22.4510 N   0  0  0  0  0  0  0  0  0  0  0  0
  -23.4350  -28.8390   23.3830 O   0  0  0  0  0  0  0  0  0  0  0  0
  -20.9280  -29.8350   21.7660 H   0  0  0  0  0  0  0  0  0  0  0  0
  -18.0510  -28.0790   22.9610 C   0  0  0  0  0  0  0  0  0  0  0  0
  -20.6090  -28.3450   23.2270 C   0  0  0  0  0  3  0  0  0  0  0  0
  -20.7140  -26.9110   22.6570 C   0  0  0  0  0  2  0  0  0  0  0  0
  -19.6110  -26.5810   21.6460 C   0  0  0  0  0  2  0  0  0  0  0  0
  -18.2290  -26.7270   22.2920 C   0  0  0  0  0  2  0  0  0  0  0  0
  -19.1690  -28.8460   23.3860 C   0  0  0  0  0  0  0  0  0  0  0  0
  -18.9490  -30.1120   23.9700 C   0  0  0  0  0  3  0  0  0  0  0  0
  -17.6440  -30.6120   24.1340 C   0  0  0  0  0  3  0  0  0  0  0  0
  -16.5410  -29.8430   23.7260 C   0  0  0  0  0  3  0  0  0  0  0  0
  -16.7450  -28.5790   23.1460 C   0  0  0  0  0  3  0  0  0  0  0  0
  -25.8960  -32.5210   23.8470 C   0  0  0  0  0  3  0  0  0  0  0  0
  -25.5860  -33.9170   24.1840 N   0  0  0  0  0  0  0  0  0  0  0  0
  -25.9110  -34.9730   23.4250 C   0  0  0  0  0  0  0  0  0  0  0  0
  -26.5730  -34.8740   22.3890 O   0  0  0  0  0  0  0  0  0  0  0  0
  -24.9970  -34.0680   24.9890 H   0  0  0  0  0  0  0  0  0  0  0  0
  -24.1730  -36.7590   23.0900 C   0  0  0  0  0  1  0  0  0  0  0  0
  -25.4220  -36.3590   23.8900 C   0  0  0  0  0  3  0  0  0  0  0  0
  -27.5640  -37.2450   24.7000 C   0  0  0  0  0  1  0  0  0  0  0  0
  -26.4500  -37.4150   23.7700 N   0  0  0  0  0  0  0  0  0  0  0  0
  -26.0430  -38.3330   23.9290 H   0  0  0  0  0  0  0  0  0  0  0  0
  -26.4290  -31.7460   25.1130 C   0  0  1  0  0  0  0  0  0  0  0  0
  -25.3490  -31.5000   26.1920 C   0  0  0  0  0  1  0  0  0  0  0  0
  -27.0100  -30.3720   24.7080 C   0  0  0  0  0  1  0  0  0  0  0  0
  -27.5860  -32.5400   25.7660 C   0  0  0  0  0  1  0  0  0  0  0  0
  -29.3230  -20.2960   20.2610 C   0  0  0  0  0  2  0  0  0  0  0  0
  -30.4330  -17.0680   20.8870 C   0  0  0  0  0  0  0  0  0  0  0  0
  -28.3850  -18.1630   18.0070 C   0  0  0  0  0  2  0  0  0  0  0  0
  -29.6050  -19.0730   17.9980 C   0  0  0  0  0  2  0  0  0  0  0  0
  -28.6780  -17.1670   19.1270 C   0  0  0  0  0  2  0  0  0  0  0  0
  -30.0360  -19.1400   19.4720 C   0  0  0  0  0  3  0  0  0  0  0  0
  -29.7090  -17.7780   19.9740 N   0  0  0  0  0  0  0  0  0  0  0  0
  -31.4140  -17.5680   21.4470 O   0  0  0  0  0  0  0  0  0  0  0  0
  -29.9710  -15.6450   21.3270 C   0  0  0  0  0  2  0  0  0  0  0  0
  -30.6460  -14.5040   20.5010 C   0  0  0  0  0  0  0  0  0  0  0  0
  -30.3540  -12.3570   19.2870 C   0  0  0  0  0  2  0  0  0  0  0  0
  -29.4040  -12.5760   18.0910 C   0  0  0  0  0  2  0  0  0  0  0  0
  -27.9300  -12.4360   18.5260 C   0  0  0  0  0  2  0  0  0  0  0  0
  -27.6050  -13.2560   19.8030 C   0  0  0  0  0  3  0  0  0  0  0  0
  -28.6650  -12.9980   20.8990 C   0  0  0  0  0  2  0  0  0  0  0  0
  -29.9840  -13.3220   20.3340 N   0  0  0  0  0  0  0  0  0  0  0  0
  -31.7480  -14.6920   19.9710 O   0  0  0  0  0  0  0  0  0  0  0  0
  -25.2100  -13.8830   20.5030 C   0  0  0  0  0  0  0  0  0  0  0  0
  -24.1360  -13.1190   20.8760 C   0  0  0  0  0  0  0  0  0  0  0  0
  -24.5900  -11.7650   20.8540 C   0  0  0  0  0  0  0  0  0  0  0  0
  -26.2500  -12.9940   20.2800 N   0  0  0  0  0  0  0  0  0  0  0  0
  -25.8790  -11.7150   20.5460 N   0  0  0  0  0  0  0  0  0  0  0  0
  -23.8560  -10.5080   21.0520 C   0  0  0  0  0  0  0  0  0  0  0  0
  -24.2960   -9.5340   21.9740 C   0  0  0  0  0  3  0  0  0  0  0  0
  -23.5640   -8.3410   22.1600 C   0  0  0  0  0  3  0  0  0  0  0  0
  -22.3770   -8.1170   21.4230 C   0  0  0  0  0  0  0  0  0  0  0  0
  -21.9560   -9.0800   20.4900 C   0  0  0  0  0  3  0  0  0  0  0  0
  -22.6890  -10.2640   20.3020 C   0  0  0  0  0  3  0  0  0  0  0  0
  -21.6140   -6.9780   21.5190 O   0  0  0  0  0  0  0  0  0  0  0  0
  -21.5950   -6.2190   22.6610 C   0  0  0  0  0  0  0  0  0  0  0  0
  -21.2320   -6.7640   23.9120 C   0  0  0  0  0  3  0  0  0  0  0  0
  -21.1590   -5.9320   25.0480 C   0  0  0  0  0  3  0  0  0  0  0  0
  -21.4380   -4.5580   24.9340 C   0  0  0  0  0  0  0  0  0  0  0  0
  -21.7940   -4.0120   23.6880 C   0  0  0  0  0  3  0  0  0  0  0  0
  -21.8700   -4.8400   22.5550 C   0  0  0  0  0  0  0  0  0  0  0  0
  -22.1930   -4.3050   21.3530 F   0  0  0  0  0  0  0  0  0  0  0  0
  -21.3600   -3.7570   26.0220 F   0  0  0  0  0  0  0  0  0  0  0  0
  -22.7420  -13.6070   21.1440 C   0  0  0  0  0  0  0  0  0  0  0  0
  -22.0090  -12.9230   22.0150 N   0  0  0  0  0  0  0  0  0  0  0  0
  -22.3100  -14.6320   20.6170 O   0  0  0  0  0  0  0  0  0  0  0  0
  -22.3700  -12.0930   22.4630 H   0  0  0  0  0  0  0  0  0  0  0  0
  -21.0740  -13.2330   22.2390 H   0  0  0  0  0  0  0  0  0  0  0  0
  -25.3810  -15.2500   20.3160 N   0  0  0  0  0  0  0  0  0  0  0  0
  -24.6120  -15.9040   20.4090 H   0  0  0  0  0  0  0  0  0  0  0  0
  -26.2270  -15.6790   19.9650 H   0  0  0  0  0  0  0  0  0  0  0  0
  1 48  1  0
  1  2  1  0
  2  3  1  0
  4  2  1  0
  5  2  1  0
  5  6  1  0
  7  6  1  0
  8 19  2  0
  9  7  1  0
  9 14  1  0
 10 18  1  0
 10 20  1  0
 11 17  1  0
 11 13  1  0
 12 18  1  0
 13 12  1  0
 14 13  2  0
 15 16  1  0
 15  9  2  0
 16 11  2  0
 17 10  1  0
 18  8  1  0
 20 22  2  0
 21 20  1  0
 23 21  1  0
 24 33  2  0
 24 29  1  0
 25 21  1  0
 25 29  1  0
 26 25  1  0
 27 28  1  0
 27 26  1  0
 28 24  1  0
 29 30  2  0
 30 31  1  0
 32 31  2  0
 33 32  1  0
 34  8  1  0
 34 35  1  0
 34 44  1  0
 35 38  1  0
 36 40  1  0
 36 35  1  0
 37 36  2  0
 40 39  1  0
 42 40  1  0
 42 43  1  0
 42 41  1  0
 44 47  1  1
 44 45  1  0
 46 44  1  0
 49 56  1  0
 49 55  2  0
 50 52  1  0
 51 50  1  0
 51 53  1  0
 52 54  1  0
 53 54  1  0
 53 48  1  0
 54 49  1  0
 57 56  1  0
 58 63  1  0
 59 60  1  0
 59 58  1  0
 61 60  1  0
 61 68  1  0
 61 62  1  0
 63 57  1  0
 63 62  1  0
 64 57  2  0
 65 66  2  0
 66 85  1  0
 67 66  1  0
 67 70  1  0
 68 65  1  0
 68 69  1  0
 69 67  2  0
 70 71  1  0
 71 72  2  0
 73 76  1  0
 73 72  1  0
 74 73  2  0
 75 74  1  0
 75 70  2  0
 76 77  1  0
 77 78  1  0
 78 79  2  0
 80 79  1  0
 80 84  1  0
 81 80  2  0
 82 77  2  0
 82 81  1  0
 83 82  1  0
 85 86  1  0
 86 89  1  0
 86 88  1  0
 87 85  2  0
 90 91  1  0
 90 65  1  0
 92 90  1  0
M  ISO  4   6 101   7 101  56 100  57 100
M  END
>  <TORSDO>  (80) 
F 22

>  <SCORE>  (80) 
-13.346

>  <name>  (80) 
79

>  <ligand_id>  (80) 
79

>  <original_smiles>  (80) 
[H]c1c([H])c([H])c2c(c1[H])C([H])([H])C([H])([H])C([H])([H])C2([H])N([H])C(=O)C1([H])N(C(=O)C([H])(N([H])C(=O)C([H])(N([H])C([H])([H])[H])C([H])([H])[H])C(C([H])([H])[H])(C([H])([H])[H])C([H])([H])[H])C([H])([H])c2c([H])c(OC([H])([H])C([H])([H])[N+]([H])([H])C([H])([H])C([H])([H])C3([H])N(C(=O)C([H])([H])C(=O)N4C([H])([H])C([H])([H])C([H])([H])C([H])(n5nc(-c6c([H])c([H])c(Oc7c([H])c([H])c(F)c([H])c7F)c([H])c6[H])c(C(=O)N([H])[H])c5N([H])[H])C4([H])[H])C([H])([H])C([H])([H])C3([H])[H])c([H])c([H])c2C1([H])[H]

>  <smiles>  (80) 
[H]c1c([H])c([H])c2c(c1[H])C([H])([H])C([H])([H])C([H])([H])C2([H])N([H])C(=O)C1([H])N(C(=O)C([H])(N([H])C(=O)C([H])(N([H])C([H])([H])[H])C([H])([H])[H])C(C([H])([H])[H])(C([H])([H])[H])C([H])([H])[H])C([H])([H])c2c([H])c(OC([H])([H])C([H])([H])[N+]([H])([H])C([H])([H])C([H])([H])C3([H])N(C(=O)C([H])([H])C(=O)N4C([H])([H])C([H])([H])C([H])([H])C([H])(n5nc(-c6c([H])c([H])c(Oc7c([H])c([H])c(F)c([H])c7F)c([H])c6[H])c(C(=O)N([H])[H])c5N([H])[H])C4([H])[H])C([H])([H])C([H])([H])C3([H])[H])c([H])c([H])c2C1([H])[H]

$$$$
80:0:0
     RDKit          3D

 96105  0  0  1  0  0  0  0  0999 V2000
  -30.7510  -20.2820   19.8400 C   0  0  0  0  0  3  0  0  0  0  0  0
  -29.0830  -18.9830   20.5450 C   0  0  0  0  0  3  0  0  0  0  0  0
  -29.3460  -20.0680   19.7490 C   0  0  0  0  0  0  0  0  0  0  0  0
  -31.2880  -19.3670   20.7060 C   0  0  0  0  0  0  0  0  0  0  0  0
  -30.2540  -18.5430   21.1420 N   0  0  0  0  0  0  0  0  0  0  0  0
  -33.8350  -19.9050   20.4600 C   0  0  0  0  0  2  0  0  0  0  0  0
  -33.7400  -18.4000   20.5110 C   0  0  0  0  0  2  0  0  0  0  0  0
  -32.6970  -19.2460   21.2050 C   0  0  0  0  0  3  0  0  0  0  0  0
  -28.3300  -20.8450   18.9310 C   0  0  0  0  0  2  0  0  0  0  0  0
  -28.0940  -22.3210   19.3430 C   0  0  0  0  0  2  0  0  0  0  0  0
  -29.2420  -23.2150   19.0540 N   0  0  0  0  0  4  0  0  0  0  0  0
  -29.6220  -22.9370   18.1630 H   0  0  0  0  0  0  0  0  0  0  0  0
  -29.9620  -23.0560   19.7420 H   0  0  0  0  0  0  0  0  0  0  0  0
  -28.9310  -24.6720   18.9550 C   0  0  0  0  0  2  0  0  0  0  0  0
  -28.3740  -25.3010   20.2500 C   0  0  0  0  0  2  0  0  0  0  0  0
  -28.3970  -26.7350   20.1680 O   0  0  0  0  0  0  0  0  0  0  0  0
  -24.5870  -31.8960   23.2410 C   0  0  0  0  0  0  0  0  0  0  0  0
  -27.2040  -27.4270   20.1710 C   0  0  0  0  0  0  0  0  0  0  0  0
  -23.3660  -30.4850   21.6160 C   0  0  0  0  0  3  0  0  0  0  0  0
  -24.8070  -28.9330   20.1950 C   0  0  0  0  0  0  0  0  0  0  0  0
  -25.8920  -30.8370   21.4010 C   0  0  0  0  0  2  0  0  0  0  0  0
  -25.9680  -29.4600   20.7700 C   0  0  0  0  0  0  0  0  0  0  0  0
  -27.1680  -28.7160   20.7520 C   0  0  0  0  0  3  0  0  0  0  0  0
  -26.0230  -26.9140   19.5840 C   0  0  0  0  0  3  0  0  0  0  0  0
  -24.8280  -27.6590   19.6020 C   0  0  0  0  0  3  0  0  0  0  0  0
  -23.5660  -29.7960   20.2400 C   0  0  0  0  0  2  0  0  0  0  0  0
  -24.6330  -31.0880   22.1430 N   0  0  0  0  0  0  0  0  0  0  0  0
  -23.5090  -32.1740   23.7840 O   0  0  0  0  0  0  0  0  0  0  0  0
  -22.7220  -29.4710   22.5860 C   0  0  0  0  0  0  0  0  0  0  0  0
  -21.4000  -29.2750   22.4550 N   0  0  0  0  0  0  0  0  0  0  0  0
  -23.4070  -28.8610   23.4120 O   0  0  0  0  0  0  0  0  0  0  0  0
  -20.9090  -29.8170   21.7570 H   0  0  0  0  0  0  0  0  0  0  0  0
  -18.0360  -28.0500   22.9360 C   0  0  0  0  0  0  0  0  0  0  0  0
  -20.5870  -28.3440   23.2350 C   0  0  0  0  0  3  0  0  0  0  0  0
  -20.7140  -26.9020   22.6870 C   0  0  0  0  0  2  0  0  0  0  0  0
  -19.6290  -26.5480   21.6660 C   0  0  0  0  0  2  0  0  0  0  0  0
  -18.2360  -26.6900   22.2890 C   0  0  0  0  0  2  0  0  0  0  0  0
  -19.1400  -28.8330   23.3640 C   0  0  0  0  0  0  0  0  0  0  0  0
  -18.9000  -30.1070   23.9260 C   0  0  0  0  0  3  0  0  0  0  0  0
  -17.5870  -30.5960   24.0640 C   0  0  0  0  0  3  0  0  0  0  0  0
  -16.4980  -29.8110   23.6520 C   0  0  0  0  0  3  0  0  0  0  0  0
  -16.7220  -28.5390   23.0940 C   0  0  0  0  0  3  0  0  0  0  0  0
  -25.8790  -32.5290   23.8470 C   0  0  0  0  0  3  0  0  0  0  0  0
  -25.5730  -33.9280   24.1750 N   0  0  0  0  0  0  0  0  0  0  0  0
  -25.9080  -34.9790   23.4140 C   0  0  0  0  0  0  0  0  0  0  0  0
  -26.5800  -34.8720   22.3830 O   0  0  0  0  0  0  0  0  0  0  0  0
  -24.9810  -34.0850   24.9760 H   0  0  0  0  0  0  0  0  0  0  0  0
  -24.1880  -36.7750   23.0470 C   0  0  0  0  0  1  0  0  0  0  0  0
  -25.4200  -36.3670   23.8690 C   0  0  0  0  0  3  0  0  0  0  0  0
  -27.5480  -37.2430   24.7210 C   0  0  0  0  0  1  0  0  0  0  0  0
  -26.4560  -37.4170   23.7660 N   0  0  0  0  0  0  0  0  0  0  0  0
  -26.0510  -38.3380   23.9140 H   0  0  0  0  0  0  0  0  0  0  0  0
  -26.4090  -31.7620   25.1180 C   0  0  1  0  0  0  0  0  0  0  0  0
  -25.3270  -31.5250   26.1990 C   0  0  0  0  0  1  0  0  0  0  0  0
  -26.9870  -30.3850   24.7190 C   0  0  0  0  0  1  0  0  0  0  0  0
  -27.5640  -32.5580   25.7690 C   0  0  0  0  0  1  0  0  0  0  0  0
  -30.3160  -17.4790   22.1530 C   0  0  0  0  0  2  0  0  0  0  0  0
  -31.1500  -16.2240   21.7930 C   0  0  0  0  0  2  0  0  0  0  0  0
  -30.8200  -14.3110   20.2260 C   0  0  0  0  0  0  0  0  0  0  0  0
  -30.3570  -12.2670   18.9200 C   0  0  0  0  0  2  0  0  0  0  0  0
  -29.3710  -12.5570   17.7730 C   0  0  0  0  0  2  0  0  0  0  0  0
  -27.9150  -12.4330   18.2630 C   0  0  0  0  0  2  0  0  0  0  0  0
  -27.6590  -13.2310   19.5680 C   0  0  0  0  0  3  0  0  0  0  0  0
  -28.7460  -12.9240   20.6200 C   0  0  0  0  0  2  0  0  0  0  0  0
  -30.0640  -13.2020   20.0180 N   0  0  0  0  0  0  0  0  0  0  0  0
  -31.8480  -14.5550   19.5910 O   0  0  0  0  0  0  0  0  0  0  0  0
  -30.3850  -15.1230   21.2020 N   0  0  0  0  0  0  0  0  0  0  0  0
  -29.5270  -14.8510   21.6590 H   0  0  0  0  0  0  0  0  0  0  0  0
  -25.2970  -13.8800   20.3640 C   0  0  0  0  0  0  0  0  0  0  0  0
  -24.2300  -13.1230   20.7730 C   0  0  0  0  0  0  0  0  0  0  0  0
  -24.6670  -11.7650   20.7240 C   0  0  0  0  0  0  0  0  0  0  0  0
  -26.3180  -12.9810   20.0940 N   0  0  0  0  0  0  0  0  0  0  0  0
  -25.9430  -11.7040   20.3670 N   0  0  0  0  0  0  0  0  0  0  0  0
  -23.9290  -10.5130   20.9390 C   0  0  0  0  0  0  0  0  0  0  0  0
  -24.3720   -9.5480   21.8710 C   0  0  0  0  0  3  0  0  0  0  0  0
  -23.6350   -8.3610   22.0750 C   0  0  0  0  0  3  0  0  0  0  0  0
  -22.4430   -8.1310   21.3500 C   0  0  0  0  0  0  0  0  0  0  0  0
  -22.0190   -9.0840   20.4080 C   0  0  0  0  0  3  0  0  0  0  0  0
  -22.7540  -10.2630   20.2010 C   0  0  0  0  0  3  0  0  0  0  0  0
  -21.6760   -6.9960   21.4640 O   0  0  0  0  0  0  0  0  0  0  0  0
  -21.6340   -6.2690   22.6260 C   0  0  0  0  0  0  0  0  0  0  0  0
  -21.2400   -6.8470   23.8520 C   0  0  0  0  0  3  0  0  0  0  0  0
  -21.1460   -6.0470   25.0090 C   0  0  0  0  0  3  0  0  0  0  0  0
  -21.4320   -4.6710   24.9400 C   0  0  0  0  0  0  0  0  0  0  0  0
  -21.8200   -4.0920   23.7180 C   0  0  0  0  0  3  0  0  0  0  0  0
  -21.9180   -4.8890   22.5640 C   0  0  0  0  0  0  0  0  0  0  0  0
  -22.2700   -4.3240   21.3850 F   0  0  0  0  0  0  0  0  0  0  0  0
  -21.3350   -3.9010   26.0490 F   0  0  0  0  0  0  0  0  0  0  0  0
  -22.8520  -13.6210   21.0990 C   0  0  0  0  0  0  0  0  0  0  0  0
  -22.1480  -12.9380   21.9950 N   0  0  0  0  0  0  0  0  0  0  0  0
  -22.4090  -14.6530   20.5950 O   0  0  0  0  0  0  0  0  0  0  0  0
  -22.5170  -12.1020   22.4240 H   0  0  0  0  0  0  0  0  0  0  0  0
  -21.2250  -13.2550   22.2540 H   0  0  0  0  0  0  0  0  0  0  0  0
  -25.4840  -15.2470   20.1850 N   0  0  0  0  0  0  0  0  0  0  0  0
  -24.7490  -15.9290   20.3320 H   0  0  0  0  0  0  0  0  0  0  0  0
  -26.3460  -15.6620   19.8530 H   0  0  0  0  0  0  0  0  0  0  0  0
  1  4  2  0
  2  5  1  0
  3  1  1  0
  3  2  2  0
  4  5  1  0
  4  8  1  0
  5 57  1  0
  6  7  1  0
  6  8  1  0
  7  8  1  0
  9 10  1  0
  9  3  1  0
 11 10  1  0
 11 13  1  0
 12 11  1  0
 14 11  1  0
 14 15  1  0
 16 18  1  0
 16 15  1  0
 17 28  2  0
 18 23  1  0
 19 27  1  0
 19 29  1  0
 20 26  1  0
 20 22  1  0
 21 27  1  0
 22 21  1  0
 23 22  2  0
 24 25  1  0
 24 18  2  0
 25 20  2  0
 26 19  1  0
 27 17  1  0
 29 31  2  0
 30 29  1  0
 32 30  1  0
 33 42  2  0
 33 38  1  0
 34 30  1  0
 34 38  1  0
 35 34  1  0
 36 37  1  0
 36 35  1  0
 37 33  1  0
 38 39  2  0
 39 40  1  0
 41 40  2  0
 42 41  1  0
 43 17  1  0
 43 44  1  0
 43 53  1  0
 44 47  1  0
 45 49  1  0
 45 44  1  0
 46 45  2  0
 49 48  1  0
 51 49  1  0
 51 52  1  0
 51 50  1  0
 53 56  1  1
 53 54  1  0
 55 53  1  0
 58 57  1  0
 59 67  1  0
 60 65  1  0
 61 62  1  0
 61 60  1  0
 63 62  1  0
 63 72  1  0
 63 64  1  0
 65 59  1  0
 65 64  1  0
 66 59  2  0
 67 68  1  0
 67 58  1  0
 69 70  2  0
 70 89  1  0
 71 70  1  0
 71 74  1  0
 72 69  1  0
 72 73  1  0
 73 71  2  0
 74 75  1  0
 75 76  2  0
 77 80  1  0
 77 76  1  0
 78 77  2  0
 79 78  1  0
 79 74  2  0
 80 81  1  0
 81 82  1  0
 82 83  2  0
 84 83  1  0
 84 88  1  0
 85 84  2  0
 86 81  2  0
 86 85  1  0
 87 86  1  0
 89 90  1  0
 90 93  1  0
 90 92  1  0
 91 89  2  0
 94 95  1  0
 94 69  1  0
 96 94  1  0
M  ISO  4  15 101  16 101  59 100  67 100
M  END
>  <TORSDO>  (81) 
F 24

>  <SCORE>  (81) 
-12.482

>  <name>  (81) 
80

>  <ligand_id>  (81) 
80

>  <original_smiles>  (81) 
[H]c1c([H])c([H])c2c(c1[H])C([H])([H])C([H])([H])C([H])([H])C2([H])N([H])C(=O)C1([H])N(C(=O)C([H])(N([H])C(=O)C([H])(N([H])C([H])([H])[H])C([H])([H])[H])C(C([H])([H])[H])(C([H])([H])[H])C([H])([H])[H])C([H])([H])c2c([H])c(OC([H])([H])C([H])([H])[N+]([H])([H])C([H])([H])C([H])([H])c3c([H])c(C4([H])C([H])([H])C4([H])[H])n(C([H])([H])C([H])([H])N([H])C(=O)N4C([H])([H])C([H])([H])C([H])([H])C([H])(n5nc(-c6c([H])c([H])c(Oc7c([H])c([H])c(F)c([H])c7F)c([H])c6[H])c(C(=O)N([H])[H])c5N([H])[H])C4([H])[H])c3[H])c([H])c([H])c2C1([H])[H]

>  <smiles>  (81) 
[H]c1c([H])c([H])c2c(c1[H])C([H])([H])C([H])([H])C([H])([H])C2([H])N([H])C(=O)C1([H])N(C(=O)C([H])(N([H])C(=O)C([H])(N([H])C([H])([H])[H])C([H])([H])[H])C(C([H])([H])[H])(C([H])([H])[H])C([H])([H])[H])C([H])([H])c2c([H])c(OC([H])([H])C([H])([H])[N+]([H])([H])C([H])([H])C([H])([H])c3c([H])c(C4([H])C([H])([H])C4([H])[H])n(C([H])([H])C([H])([H])N([H])C(=O)N4C([H])([H])C([H])([H])C([H])([H])C([H])(n5nc(-c6c([H])c([H])c(Oc7c([H])c([H])c(F)c([H])c7F)c([H])c6[H])c(C(=O)N([H])[H])c5N([H])[H])C4([H])[H])c3[H])c([H])c([H])c2C1([H])[H]

$$$$
81:0:0
     RDKit          3D

 94102  0  0  1  0  0  0  0  0999 V2000
  -26.7820  -22.7610   21.8960 C   0  0  0  0  0  3  0  0  0  0  0  0
  -26.9220  -21.4000   21.5460 C   0  0  0  0  0  3  0  0  0  0  0  0
  -27.3890  -23.7550   21.1010 C   0  0  0  0  0  3  0  0  0  0  0  0
  -28.2890  -22.0370   19.6300 C   0  0  0  0  0  3  0  0  0  0  0  0
  -27.6680  -21.0360   20.4050 C   0  0  0  0  0  0  0  0  0  0  0  0
  -28.1460  -23.3940   19.9610 C   0  0  0  0  0  0  0  0  0  0  0  0
  -27.7400  -19.5810   19.9620 C   0  0  0  0  0  2  0  0  0  0  0  0
  -29.1140  -19.1330   19.6550 N   0  0  0  0  0  4  0  0  0  0  0  0
  -29.2580  -19.2430   18.6670 H   0  0  0  0  0  0  0  0  0  0  0  0
  -29.7630  -19.7260   20.1450 H   0  0  0  0  0  0  0  0  0  0  0  0
  -29.3700  -17.7290   20.0300 C   0  0  0  0  0  2  0  0  0  0  0  0
  -30.8650  -17.3450   20.0380 C   0  0  0  0  0  2  0  0  0  0  0  0
  -31.7060  -15.0250   20.4830 C   0  0  0  0  0  0  0  0  0  0  0  0
  -31.7710  -12.5610   20.6760 C   0  0  0  0  0  2  0  0  0  0  0  0
  -31.0610  -11.9050   19.4740 C   0  0  0  0  0  2  0  0  0  0  0  0
  -29.5470  -11.7930   19.7380 C   0  0  0  0  0  2  0  0  0  0  0  0
  -28.9230  -13.1340   20.2070 C   0  0  0  0  0  3  0  0  0  0  0  0
  -29.7470  -13.7190   21.3740 C   0  0  0  0  0  2  0  0  0  0  0  0
  -31.1540  -13.8700   20.9320 N   0  0  0  0  0  0  0  0  0  0  0  0
  -32.7630  -15.0940   19.8440 O   0  0  0  0  0  0  0  0  0  0  0  0
  -30.9930  -16.1080   20.7980 N   0  0  0  0  0  0  0  0  0  0  0  0
  -30.2840  -15.9480   21.4990 H   0  0  0  0  0  0  0  0  0  0  0  0
  -26.5350  -13.9310   20.7720 C   0  0  0  0  0  0  0  0  0  0  0  0
  -25.3800  -13.2440   21.0380 C   0  0  0  0  0  0  0  0  0  0  0  0
  -25.7250  -11.8600   20.9780 C   0  0  0  0  0  0  0  0  0  0  0  0
  -27.5160  -12.9710   20.5730 N   0  0  0  0  0  0  0  0  0  0  0  0
  -27.0230  -11.7170   20.7500 N   0  0  0  0  0  0  0  0  0  0  0  0
  -24.8840  -10.6590   21.0730 C   0  0  0  0  0  0  0  0  0  0  0  0
  -25.1010   -9.6820   22.0710 C   0  0  0  0  0  3  0  0  0  0  0  0
  -24.2690   -8.5450   22.1520 C   0  0  0  0  0  3  0  0  0  0  0  0
  -23.2060   -8.3750   21.2330 C   0  0  0  0  0  0  0  0  0  0  0  0
  -23.0090   -9.3390   20.2290 C   0  0  0  0  0  3  0  0  0  0  0  0
  -23.8400  -10.4690   20.1460 C   0  0  0  0  0  3  0  0  0  0  0  0
  -22.3670   -7.2870   21.2180 O   0  0  0  0  0  0  0  0  0  0  0  0
  -21.9940   -6.6500   22.3740 C   0  0  0  0  0  0  0  0  0  0  0  0
  -21.3540   -7.3350   23.4280 C   0  0  0  0  0  3  0  0  0  0  0  0
  -20.9270   -6.6290   24.5700 C   0  0  0  0  0  3  0  0  0  0  0  0
  -21.1270   -5.2380   24.6540 C   0  0  0  0  0  0  0  0  0  0  0  0
  -21.7560   -4.5520   23.6010 C   0  0  0  0  0  3  0  0  0  0  0  0
  -22.1860   -5.2560   22.4620 C   0  0  0  0  0  0  0  0  0  0  0  0
  -22.7760   -4.5890   21.4420 F   0  0  0  0  0  0  0  0  0  0  0  0
  -20.7070   -4.5560   25.7460 F   0  0  0  0  0  0  0  0  0  0  0  0
  -24.0120  -13.8310   21.2370 C   0  0  0  0  0  0  0  0  0  0  0  0
  -23.1790  -13.1840   22.0460 N   0  0  0  0  0  0  0  0  0  0  0  0
  -23.6910  -14.8960   20.7130 O   0  0  0  0  0  0  0  0  0  0  0  0
  -23.4470  -12.3200   22.4930 H   0  0  0  0  0  0  0  0  0  0  0  0
  -22.2570  -13.5590   22.2170 H   0  0  0  0  0  0  0  0  0  0  0  0
  -26.8270  -15.2880   20.6650 N   0  0  0  0  0  0  0  0  0  0  0  0
  -26.0890  -15.9830   20.6990 H   0  0  0  0  0  0  0  0  0  0  0  0
  -27.6990  -15.6470   20.3020 H   0  0  0  0  0  0  0  0  0  0  0  0
  -28.7530  -24.2800   19.1090 O   0  0  0  0  0  0  0  0  0  0  0  0
  -28.0790  -25.4950   18.8230 C   0  0  0  0  0  2  0  0  0  0  0  0
  -28.8360  -26.6950   19.4140 C   0  0  0  0  0  2  0  0  0  0  0  0
  -28.5020  -27.9070   18.7400 O   0  0  0  0  0  0  0  0  0  0  0  0
  -24.4490  -31.5260   23.3010 C   0  0  0  0  0  0  0  0  0  0  0  0
  -27.2490  -28.3820   19.0320 C   0  0  0  0  0  0  0  0  0  0  0  0
  -23.2400  -30.2910   21.5310 C   0  0  0  0  0  3  0  0  0  0  0  0
  -24.6820  -29.3650   19.6440 C   0  0  0  0  0  0  0  0  0  0  0  0
  -25.6180  -31.1440   21.1350 C   0  0  0  0  0  2  0  0  0  0  0  0
  -25.8140  -29.9680   20.2060 C   0  0  0  0  0  0  0  0  0  0  0  0
  -27.1030  -29.4770   19.9070 C   0  0  0  0  0  3  0  0  0  0  0  0
  -26.1050  -27.8060   18.4450 C   0  0  0  0  0  3  0  0  0  0  0  0
  -24.8200  -28.2780   18.7660 C   0  0  0  0  0  3  0  0  0  0  0  0
  -23.3400  -29.9480   20.0210 C   0  0  0  0  0  2  0  0  0  0  0  0
  -24.4610  -30.9910   22.0480 N   0  0  0  0  0  0  0  0  0  0  0  0
  -23.4300  -31.4830   24.0050 O   0  0  0  0  0  0  0  0  0  0  0  0
  -22.9060  -28.9980   22.3070 C   0  0  0  0  0  0  0  0  0  0  0  0
  -21.7080  -28.4440   22.0570 N   0  0  0  0  0  0  0  0  0  0  0  0
  -23.7210  -28.5000   23.0860 O   0  0  0  0  0  0  0  0  0  0  0  0
  -21.0950  -28.9130   21.4060 H   0  0  0  0  0  0  0  0  0  0  0  0
  -18.9880  -26.0790   21.9090 C   0  0  0  0  0  0  0  0  0  0  0  0
  -21.1970  -27.2020   22.6330 C   0  0  0  0  0  3  0  0  0  0  0  0
  -21.9050  -25.9740   22.0160 C   0  0  0  0  0  2  0  0  0  0  0  0
  -21.1540  -25.3990   20.8120 C   0  0  0  0  0  2  0  0  0  0  0  0
  -19.7500  -24.9590   21.2240 C   0  0  0  0  0  2  0  0  0  0  0  0
  -19.6680  -27.1410   22.5610 C   0  0  0  0  0  0  0  0  0  0  0  0
  -18.9110  -28.1790   23.1520 C   0  0  0  0  0  3  0  0  0  0  0  0
  -17.5040  -28.1620   23.1020 C   0  0  0  0  0  3  0  0  0  0  0  0
  -16.8380  -27.0970   22.4700 C   0  0  0  0  0  3  0  0  0  0  0  0
  -17.5790  -26.0590   21.8790 C   0  0  0  0  0  3  0  0  0  0  0  0
  -25.7030  -32.2380   23.8990 C   0  0  0  0  0  3  0  0  0  0  0  0
  -25.3230  -33.6230   24.2010 N   0  0  0  0  0  0  0  0  0  0  0  0
  -25.6230  -34.6790   23.4310 C   0  0  0  0  0  0  0  0  0  0  0  0
  -26.3220  -34.5920   22.4180 O   0  0  0  0  0  0  0  0  0  0  0  0
  -24.6970  -33.7600   24.9810 H   0  0  0  0  0  0  0  0  0  0  0  0
  -23.8290  -36.3850   22.9920 C   0  0  0  0  0  1  0  0  0  0  0  0
  -25.0580  -36.0490   23.8520 C   0  0  0  0  0  3  0  0  0  0  0  0
  -27.1240  -37.0320   24.7390 C   0  0  0  0  0  1  0  0  0  0  0  0
  -26.0450  -37.1440   23.7600 N   0  0  0  0  0  0  0  0  0  0  0  0
  -25.5940  -38.0460   23.8860 H   0  0  0  0  0  0  0  0  0  0  0  0
  -26.2730  -31.5220   25.1850 C   0  0  1  0  0  0  0  0  0  0  0  0
  -25.1970  -31.1830   26.2390 C   0  0  0  0  0  1  0  0  0  0  0  0
  -26.9880  -30.2060   24.8030 C   0  0  0  0  0  1  0  0  0  0  0  0
  -27.3350  -32.4210   25.8610 C   0  0  0  0  0  1  0  0  0  0  0  0
  2  1  1  0
  3  1  2  0
  4  6  2  0
  4  5  1  0
  5  2  2  0
  6  3  1  0
  7  5  1  0
  8  7  1  0
  8 11  1  0
  8 10  1  0
  9  8  1  0
 11 12  1  0
 12 21  1  0
 13 21  1  0
 13 19  1  0
 14 19  1  0
 15 16  1  0
 15 14  1  0
 17 16  1  0
 17 26  1  0
 17 18  1  0
 19 18  1  0
 20 13  2  0
 21 22  1  0
 23 24  2  0
 24 43  1  0
 25 24  1  0
 25 28  1  0
 26 27  1  0
 26 23  1  0
 27 25  2  0
 28 29  1  0
 29 30  2  0
 31 30  1  0
 32 31  2  0
 33 32  1  0
 33 28  2  0
 34 31  1  0
 34 35  1  0
 35 40  2  0
 35 36  1  0
 36 37  2  0
 37 38  1  0
 38 42  1  0
 39 38  2  0
 40 39  1  0
 41 40  1  0
 43 44  1  0
 44 47  1  0
 44 46  1  0
 45 43  2  0
 48 49  1  0
 48 23  1  0
 50 48  1  0
 51  6  1  0
 52 51  1  0
 52 53  1  0
 54 56  1  0
 54 53  1  0
 55 66  2  0
 56 61  1  0
 57 65  1  0
 57 67  1  0
 58 64  1  0
 58 60  1  0
 59 65  1  0
 60 59  1  0
 61 60  2  0
 62 63  1  0
 62 56  2  0
 63 58  2  0
 64 57  1  0
 65 55  1  0
 67 69  2  0
 68 67  1  0
 70 68  1  0
 71 76  1  0
 72 68  1  0
 73 72  1  0
 74 75  1  0
 74 73  1  0
 75 71  1  0
 76 72  1  0
 76 77  2  0
 78 77  1  0
 79 78  2  0
 80 71  2  0
 80 79  1  0
 81 55  1  0
 81 82  1  0
 81 91  1  0
 82 85  1  0
 83 87  1  0
 83 82  1  0
 84 83  2  0
 87 86  1  0
 89 87  1  0
 89 90  1  0
 89 88  1  0
 91 94  1  1
 91 92  1  0
 93 91  1  0
M  ISO  4  13 100  21 100  53 101  54 101
M  END
>  <TORSDO>  (82) 
F 23

>  <SCORE>  (82) 
-6.940

>  <name>  (82) 
81

>  <ligand_id>  (82) 
81

>  <original_smiles>  (82) 
[H]c1c([H])c([H])c2c(c1[H])C([H])([H])C([H])([H])C([H])([H])C2([H])N([H])C(=O)C1([H])N(C(=O)C([H])(N([H])C(=O)C([H])(N([H])C([H])([H])[H])C([H])([H])[H])C(C([H])([H])[H])(C([H])([H])[H])C([H])([H])[H])C([H])([H])c2c([H])c(OC([H])([H])C([H])([H])Oc3c([H])c([H])c([H])c(C([H])([H])[N+]([H])([H])C([H])([H])C([H])([H])N([H])C(=O)N4C([H])([H])C([H])([H])C([H])([H])C([H])(n5nc(-c6c([H])c([H])c(Oc7c([H])c([H])c(F)c([H])c7F)c([H])c6[H])c(C(=O)N([H])[H])c5N([H])[H])C4([H])[H])c3[H])c([H])c([H])c2C1([H])[H]

>  <smiles>  (82) 
[H]c1c([H])c([H])c2c(c1[H])C([H])([H])C([H])([H])C([H])([H])C2([H])N([H])C(=O)C1([H])N(C(=O)C([H])(N([H])C(=O)C([H])(N([H])C([H])([H])[H])C([H])([H])[H])C(C([H])([H])[H])(C([H])([H])[H])C([H])([H])[H])C([H])([H])c2c([H])c(OC([H])([H])C([H])([H])Oc3c([H])c([H])c([H])c(C([H])([H])[N+]([H])([H])C([H])([H])C([H])([H])N([H])C(=O)N4C([H])([H])C([H])([H])C([H])([H])C([H])(n5nc(-c6c([H])c([H])c(Oc7c([H])c([H])c(F)c([H])c7F)c([H])c6[H])c(C(=O)N([H])[H])c5N([H])[H])C4([H])[H])c3[H])c([H])c([H])c2C1([H])[H]

$$$$
82:0:0
     RDKit          3D

 95104  0  0  1  0  0  0  0  0999 V2000
  -28.1970  -20.6460   20.8330 C   0  0  0  0  0  3  0  0  0  0  0  0
  -30.3590  -21.1050   20.7570 C   0  0  0  0  0  0  0  0  0  0  0  0
  -29.0720  -21.7000   20.9160 C   0  0  0  0  0  0  0  0  0  0  0  0
  -30.2600  -19.7600   20.5270 C   0  0  0  0  0  0  0  0  0  0  0  0
  -31.3010  -18.7190   20.2330 C   0  0  0  0  0  1  0  0  0  0  0  0
  -28.8990  -19.4620   20.5920 N   0  0  0  0  0  0  0  0  0  0  0  0
  -33.7600  -22.0490   20.3640 C   0  0  0  0  0  2  0  0  0  0  0  0
  -32.9380  -21.3390   21.4470 C   0  0  0  0  0  2  0  0  0  0  0  0
  -32.4850  -22.1350   19.5160 C   0  0  0  0  0  2  0  0  0  0  0  0
  -31.6620  -21.8960   20.7940 C   0  0  0  0  0  3  0  0  0  0  0  0
  -28.7810  -23.1780   21.1460 C   0  0  0  0  0  2  0  0  0  0  0  0
  -27.4960  -23.6270   20.7040 O   0  0  0  0  0  0  0  0  0  0  0  0
  -27.0990  -24.8040   21.4180 C   0  0  0  0  0  2  0  0  0  0  0  0
  -25.6060  -25.1570   21.2490 C   0  0  0  0  0  2  0  0  0  0  0  0
  -23.9590  -26.6160   22.4490 C   0  0  0  0  0  0  0  0  0  0  0  0
  -22.8580  -28.7100   23.1450 C   0  0  0  0  0  2  0  0  0  0  0  0
  -23.3660  -29.8590   22.2490 C   0  0  0  0  0  2  0  0  0  0  0  0
  -24.6740  -30.4560   22.8050 C   0  0  0  0  0  2  0  0  0  0  0  0
  -25.7290  -29.3700   23.1530 C   0  0  0  0  0  3  0  0  0  0  0  0
  -25.0870  -28.2490   24.0010 C   0  0  0  0  0  2  0  0  0  0  0  0
  -23.9340  -27.7130   23.2510 N   0  0  0  0  0  0  0  0  0  0  0  0
  -22.9970  -26.2350   21.7800 O   0  0  0  0  0  0  0  0  0  0  0  0
  -25.1690  -26.0530   22.3230 N   0  0  0  0  0  0  0  0  0  0  0  0
  -25.8900  -26.4420   22.9120 H   0  0  0  0  0  0  0  0  0  0  0  0
  -28.2040  -30.0430   23.3690 C   0  0  0  0  0  0  0  0  0  0  0  0
  -28.8830  -30.7280   24.3410 C   0  0  0  0  0  0  0  0  0  0  0  0
  -27.9220  -31.0320   25.3540 C   0  0  0  0  0  0  0  0  0  0  0  0
  -26.8960  -29.9480   23.8140 N   0  0  0  0  0  0  0  0  0  0  0  0
  -26.7440  -30.5070   25.0430 N   0  0  0  0  0  0  0  0  0  0  0  0
  -28.0380  -31.8420   26.5720 C   0  0  0  0  0  0  0  0  0  0  0  0
  -27.6910  -31.3240   27.8400 C   0  0  0  0  0  3  0  0  0  0  0  0
  -27.8290  -32.1170   28.9990 C   0  0  0  0  0  3  0  0  0  0  0  0
  -28.3200  -33.4400   28.8990 C   0  0  0  0  0  0  0  0  0  0  0  0
  -28.6430  -33.9590   27.6320 C   0  0  0  0  0  3  0  0  0  0  0  0
  -28.5000  -33.1690   26.4800 C   0  0  0  0  0  3  0  0  0  0  0  0
  -28.4630  -34.2920   29.9690 O   0  0  0  0  0  0  0  0  0  0  0  0
  -28.6270  -33.8200   31.2480 C   0  0  0  0  0  0  0  0  0  0  0  0
  -29.6960  -32.9650   31.5940 C   0  0  0  0  0  3  0  0  0  0  0  0
  -29.8680  -32.5630   32.9340 C   0  0  0  0  0  3  0  0  0  0  0  0
  -28.9810  -33.0190   33.9270 C   0  0  0  0  0  0  0  0  0  0  0  0
  -27.9200  -33.8750   33.5840 C   0  0  0  0  0  3  0  0  0  0  0  0
  -27.7460  -34.2770   32.2490 C   0  0  0  0  0  0  0  0  0  0  0  0
  -26.7360  -35.1200   31.9270 F   0  0  0  0  0  0  0  0  0  0  0  0
  -29.1510  -32.6390   35.2150 F   0  0  0  0  0  0  0  0  0  0  0  0
  -30.3190  -31.1640   24.2940 C   0  0  0  0  0  0  0  0  0  0  0  0
  -30.9820  -31.2180   25.4440 N   0  0  0  0  0  0  0  0  0  0  0  0
  -30.8770  -31.4120   23.2260 O   0  0  0  0  0  0  0  0  0  0  0  0
  -30.5300  -31.0000   26.3210 H   0  0  0  0  0  0  0  0  0  0  0  0
  -31.9570  -31.4830   25.4520 H   0  0  0  0  0  0  0  0  0  0  0  0
  -28.5820  -29.5080   22.1400 N   0  0  0  0  0  0  0  0  0  0  0  0
  -29.5190  -29.6090   21.7670 H   0  0  0  0  0  0  0  0  0  0  0  0
  -27.9380  -29.0810   21.4860 H   0  0  0  0  0  0  0  0  0  0  0  0
  -28.2870  -18.1430   20.3840 C   0  0  0  0  0  2  0  0  0  0  0  0
  -29.0480  -16.9850   21.0750 C   0  0  0  0  0  2  0  0  0  0  0  0
  -28.9180  -15.7270   20.3930 O   0  0  0  0  0  0  0  0  0  0  0  0
  -34.8150  -11.8730   19.3690 C   0  0  0  0  0  0  0  0  0  0  0  0
  -29.9690  -15.4260   19.5580 C   0  0  0  0  0  0  0  0  0  0  0  0
  -34.4620  -13.7520   17.7990 C   0  0  0  0  0  3  0  0  0  0  0  0
  -32.1550  -14.8370   17.8700 C   0  0  0  0  0  0  0  0  0  0  0  0
  -32.4750  -12.5840   18.9040 C   0  0  0  0  0  2  0  0  0  0  0  0
  -31.7320  -13.9000   18.8210 C   0  0  0  0  0  0  0  0  0  0  0  0
  -30.6410  -14.1890   19.6700 C   0  0  0  0  0  3  0  0  0  0  0  0
  -30.3830  -16.3430   18.5710 C   0  0  0  0  0  3  0  0  0  0  0  0
  -31.4820  -16.0630   17.7390 C   0  0  0  0  0  3  0  0  0  0  0  0
  -33.3290  -14.4500   16.9990 C   0  0  0  0  0  2  0  0  0  0  0  0
  -33.9410  -12.7110   18.7420 N   0  0  0  0  0  0  0  0  0  0  0  0
  -36.0310  -11.9290   19.1390 O   0  0  0  0  0  0  0  0  0  0  0  0
  -35.3180  -14.8340   18.4940 C   0  0  0  0  0  0  0  0  0  0  0  0
  -36.2440  -15.4410   17.7360 N   0  0  0  0  0  0  0  0  0  0  0  0
  -35.1270  -15.1260   19.6780 O   0  0  0  0  0  0  0  0  0  0  0  0
  -36.3350  -15.1430   16.7740 H   0  0  0  0  0  0  0  0  0  0  0  0
  -38.9330  -17.5990   16.6570 C   0  0  0  0  0  0  0  0  0  0  0  0
  -37.1410  -16.5110   18.1700 C   0  0  0  0  0  3  0  0  0  0  0  0
  -36.4280  -17.8830   18.1370 C   0  0  0  0  0  2  0  0  0  0  0  0
  -36.6300  -18.6410   16.8210 C   0  0  0  0  0  2  0  0  0  0  0  0
  -38.1200  -18.8790   16.5620 C   0  0  0  0  0  2  0  0  0  0  0  0
  -38.4660  -16.4810   17.4010 C   0  0  0  0  0  0  0  0  0  0  0  0
  -39.2470  -15.3050   17.4310 C   0  0  0  0  0  3  0  0  0  0  0  0
  -40.4710  -15.2340   16.7400 C   0  0  0  0  0  3  0  0  0  0  0  0
  -40.9360  -16.3470   16.0190 C   0  0  0  0  0  3  0  0  0  0  0  0
  -40.1700  -17.5260   15.9840 C   0  0  0  0  0  3  0  0  0  0  0  0
  -34.3250  -10.7900   20.3810 C   0  0  0  0  0  3  0  0  0  0  0  0
  -35.2280   -9.6360   20.2670 N   0  0  0  0  0  0  0  0  0  0  0  0
  -34.9280   -8.4990   19.6260 C   0  0  0  0  0  0  0  0  0  0  0  0
  -33.8190   -8.2830   19.1270 O   0  0  0  0  0  0  0  0  0  0  0  0
  -36.1700   -9.7620   20.6070 H   0  0  0  0  0  0  0  0  0  0  0  0
  -36.6570   -7.4690   18.1200 C   0  0  0  0  0  1  0  0  0  0  0  0
  -36.0320   -7.4300   19.5240 C   0  0  0  0  0  3  0  0  0  0  0  0
  -35.2010   -5.8660   21.2240 C   0  0  0  0  0  1  0  0  0  0  0  0
  -35.5550   -6.0620   19.8210 N   0  0  0  0  0  0  0  0  0  0  0  0
  -36.2590   -5.3710   19.5700 H   0  0  0  0  0  0  0  0  0  0  0  0
  -34.2680  -11.3090   21.8700 C   0  0  1  0  0  0  0  0  0  0  0  0
  -35.5800  -11.9750   22.3470 C   0  0  0  0  0  1  0  0  0  0  0  0
  -33.1270  -12.3380   22.0430 C   0  0  0  0  0  1  0  0  0  0  0  0
  -33.9500  -10.1360   22.8250 C   0  0  0  0  0  1  0  0  0  0  0  0
  1  3  2  0
  2 10  1  0
  2  3  1  0
  3 11  1  0
  4  6  1  0
  4  2  2  0
  5  4  1  0
  6  1  1  0
  7  8  1  0
  9  7  1  0
  9 10  1  0
 10  8  1  0
 12 11  1  0
 12 13  1  0
 14 13  1  0
 14 23  1  0
 15 21  1  0
 16 21  1  0
 17 18  1  0
 17 16  1  0
 19 18  1  0
 19 28  1  0
 19 20  1  0
 21 20  1  0
 22 15  2  0
 23 15  1  0
 23 24  1  0
 25 28  1  0
 25 26  2  0
 26 27  1  0
 27 30  1  0
 28 29  1  0
 29 27  2  0
 30 31  1  0
 31 32  2  0
 33 32  1  0
 33 36  1  0
 34 33  2  0
 35 30  2  0
 35 34  1  0
 36 37  1  0
 37 38  2  0
 37 42  1  0
 38 39  1  0
 39 40  2  0
 40 44  1  0
 41 40  1  0
 42 41  2  0
 43 42  1  0
 45 26  1  0
 45 46  1  0
 46 49  1  0
 46 48  1  0
 47 45  2  0
 50 25  1  0
 51 50  1  0
 52 50  1  0
 53  6  1  0
 53 54  1  0
 55 54  1  0
 57 62  1  0
 57 55  1  0
 58 68  1  0
 58 66  1  0
 59 61  1  0
 61 60  1  0
 61 62  2  0
 63 57  2  0
 64 59  2  0
 64 63  1  0
 65 58  1  0
 65 59  1  0
 66 60  1  0
 66 56  1  0
 67 56  2  0
 68 70  2  0
 69 68  1  0
 71 69  1  0
 72 77  1  0
 73 69  1  0
 74 73  1  0
 75 74  1  0
 76 72  1  0
 76 75  1  0
 77 78  2  0
 77 73  1  0
 79 78  1  0
 80 79  2  0
 81 80  1  0
 81 72  2  0
 82 56  1  0
 82 92  1  0
 83 82  1  0
 83 86  1  0
 84 83  1  0
 85 84  2  0
 88 87  1  0
 88 84  1  0
 88 90  1  0
 90 89  1  0
 91 90  1  0
 92 94  1  6
 92 93  1  0
 92 95  1  0
M  ISO  4  15 100  23 100  54 101  55 101
M  END
>  <TORSDO>  (83) 
F 23

>  <SCORE>  (83) 
-4.820

>  <name>  (83) 
82

>  <ligand_id>  (83) 
82

>  <original_smiles>  (83) 
[H]c1c([H])c([H])c2c(c1[H])C([H])([H])C([H])([H])C([H])([H])C2([H])N([H])C(=O)C1([H])N(C(=O)C([H])(N([H])C(=O)C([H])(N([H])C([H])([H])[H])C([H])([H])[H])C(C([H])([H])[H])(C([H])([H])[H])C([H])([H])[H])C([H])([H])c2c([H])c(OC([H])([H])C([H])([H])n3c([H])c(C([H])([H])OC([H])([H])C([H])([H])N([H])C(=O)N4C([H])([H])C([H])([H])C([H])([H])C([H])(n5nc(-c6c([H])c([H])c(Oc7c([H])c([H])c(F)c([H])c7F)c([H])c6[H])c(C(=O)N([H])[H])c5N([H])[H])C4([H])[H])c(C4([H])C([H])([H])C([H])([H])C4([H])[H])c3C([H])([H])[H])c([H])c([H])c2C1([H])[H]

>  <smiles>  (83) 
[H]c1c([H])c([H])c2c(c1[H])C([H])([H])C([H])([H])C([H])([H])C2([H])N([H])C(=O)C1([H])N(C(=O)C([H])(N([H])C(=O)C([H])(N([H])C([H])([H])[H])C([H])([H])[H])C(C([H])([H])[H])(C([H])([H])[H])C([H])([H])[H])C([H])([H])c2c([H])c(OC([H])([H])C([H])([H])n3c([H])c(C([H])([H])OC([H])([H])C([H])([H])N([H])C(=O)N4C([H])([H])C([H])([H])C([H])([H])C([H])(n5nc(-c6c([H])c([H])c(Oc7c([H])c([H])c(F)c([H])c7F)c([H])c6[H])c(C(=O)N([H])[H])c5N([H])[H])C4([H])[H])c(C4([H])C([H])([H])C([H])([H])C4([H])[H])c3C([H])([H])[H])c([H])c([H])c2C1([H])[H]

$$$$
83:0:0
     RDKit          3D

 89 97  0  0  1  0  0  0  0  0999 V2000
  -27.0530  -19.4630   19.9040 C   0  0  0  0  0  3  0  0  0  0  0  0
  -27.9720  -18.4020   20.0430 C   0  0  0  0  0  3  0  0  0  0  0  0
  -27.4800  -20.8000   20.0400 C   0  0  0  0  0  3  0  0  0  0  0  0
  -29.3190  -18.6710   20.3270 C   0  0  0  0  0  0  0  0  0  0  0  0
  -28.8280  -21.0790   20.3220 C   0  0  0  0  0  0  0  0  0  0  0  0
  -29.7180  -20.0070   20.4730 N   0  0  0  0  0  0  0  0  0  0  0  0
  -30.3550  -17.4490   20.4520 C   0  0  0  0  0  2  0  0  0  0  0  0
  -30.6820  -14.8340   20.2160 C   0  0  0  0  0  0  0  0  0  0  0  0
  -30.4800  -12.5680   19.1720 C   0  0  0  0  0  2  0  0  0  0  0  0
  -29.5100  -12.6490   17.9740 C   0  0  0  0  0  2  0  0  0  0  0  0
  -28.0580  -12.4380   18.4430 C   0  0  0  0  0  2  0  0  0  0  0  0
  -27.7020  -13.3140   19.6730 C   0  0  0  0  0  3  0  0  0  0  0  0
  -28.7860  -13.2300   20.7690 C   0  0  0  0  0  2  0  0  0  0  0  0
  -30.0610  -13.6050   20.1470 N   0  0  0  0  0  0  0  0  0  0  0  0
  -31.8590  -14.9350   19.8580 O   0  0  0  0  0  0  0  0  0  0  0  0
  -29.9270  -15.9710   20.4910 N   0  0  0  0  0  0  0  0  0  0  0  0
  -28.9640  -15.8100   20.7410 H   0  0  0  0  0  0  0  0  0  0  0  0
  -25.3320  -13.8940   20.4600 C   0  0  0  0  0  0  0  0  0  0  0  0
  -24.2760  -13.1160   20.8480 C   0  0  0  0  0  0  0  0  0  0  0  0
  -24.7400  -11.7650   20.7920 C   0  0  0  0  0  0  0  0  0  0  0  0
  -26.3700  -13.0180   20.1910 N   0  0  0  0  0  0  0  0  0  0  0  0
  -26.0250  -11.7320   20.4540 N   0  0  0  0  0  0  0  0  0  0  0  0
  -24.0200  -10.5020   20.9830 C   0  0  0  0  0  0  0  0  0  0  0  0
  -24.4460   -9.5440   21.9310 C   0  0  0  0  0  3  0  0  0  0  0  0
  -23.7250   -8.3440   22.1100 C   0  0  0  0  0  3  0  0  0  0  0  0
  -22.5640   -8.0930   21.3400 C   0  0  0  0  0  0  0  0  0  0  0  0
  -22.1570   -9.0390   20.3820 C   0  0  0  0  0  3  0  0  0  0  0  0
  -22.8800  -10.2300   20.2010 C   0  0  0  0  0  3  0  0  0  0  0  0
  -21.8150   -6.9440   21.4260 O   0  0  0  0  0  0  0  0  0  0  0  0
  -21.7160   -6.2360   22.5970 C   0  0  0  0  0  0  0  0  0  0  0  0
  -21.1740   -6.8060   23.7700 C   0  0  0  0  0  3  0  0  0  0  0  0
  -21.0270   -6.0230   24.9320 C   0  0  0  0  0  3  0  0  0  0  0  0
  -21.4130   -4.6690   24.9220 C   0  0  0  0  0  0  0  0  0  0  0  0
  -21.9470   -4.0970   23.7530 C   0  0  0  0  0  3  0  0  0  0  0  0
  -22.0950   -4.8780   22.5930 C   0  0  0  0  0  0  0  0  0  0  0  0
  -22.5910   -4.3170   21.4650 F   0  0  0  0  0  0  0  0  0  0  0  0
  -21.2640   -3.9130   26.0350 F   0  0  0  0  0  0  0  0  0  0  0  0
  -22.8850  -13.5890   21.1520 C   0  0  0  0  0  0  0  0  0  0  0  0
  -22.1740  -12.8820   22.0210 N   0  0  0  0  0  0  0  0  0  0  0  0
  -22.4380  -14.6230   20.6550 O   0  0  0  0  0  0  0  0  0  0  0  0
  -22.5490  -12.0470   22.4440 H   0  0  0  0  0  0  0  0  0  0  0  0
  -21.2420  -13.1820   22.2700 H   0  0  0  0  0  0  0  0  0  0  0  0
  -25.4870  -15.2650   20.2830 N   0  0  0  0  0  0  0  0  0  0  0  0
  -24.6990  -15.8970   20.3670 H   0  0  0  0  0  0  0  0  0  0  0  0
  -26.2830  -15.6830   19.8200 H   0  0  0  0  0  0  0  0  0  0  0  0
  -29.2800  -22.4170   20.5490 O   0  0  0  0  0  0  0  0  0  0  0  0
  -28.6670  -23.6540   19.9330 C   0  0  0  0  0  2  0  0  0  0  0  0
  -28.3010  -24.9830   20.8070 C   0  0  0  0  0  2  0  0  0  0  0  0
  -28.4490  -26.4140   20.3350 O   0  0  0  0  0  0  0  0  0  0  0  0
  -24.5620  -31.8560   23.2320 C   0  0  0  0  0  0  0  0  0  0  0  0
  -27.3310  -27.2790   20.2970 C   0  0  0  0  0  0  0  0  0  0  0  0
  -23.4380  -30.4430   21.5500 C   0  0  0  0  0  3  0  0  0  0  0  0
  -24.9570  -28.8980   20.1850 C   0  0  0  0  0  0  0  0  0  0  0  0
  -25.9820  -30.7820   21.4600 C   0  0  0  0  0  2  0  0  0  0  0  0
  -26.1030  -29.3980   20.8190 C   0  0  0  0  0  0  0  0  0  0  0  0
  -27.2970  -28.6070   20.8500 C   0  0  0  0  0  3  0  0  0  0  0  0
  -26.1610  -26.8390   19.6460 C   0  0  0  0  0  3  0  0  0  0  0  0
  -24.9920  -27.6270   19.5850 C   0  0  0  0  0  3  0  0  0  0  0  0
  -23.7110  -29.7650   20.1820 C   0  0  0  0  0  2  0  0  0  0  0  0
  -24.6790  -31.0470   22.1380 N   0  0  0  0  0  0  0  0  0  0  0  0
  -23.4550  -32.1220   23.7250 O   0  0  0  0  0  0  0  0  0  0  0  0
  -22.7470  -29.4230   22.4890 C   0  0  0  0  0  0  0  0  0  0  0  0
  -21.4170  -29.2780   22.3560 N   0  0  0  0  0  0  0  0  0  0  0  0
  -23.4090  -28.7660   23.2970 O   0  0  0  0  0  0  0  0  0  0  0  0
  -20.9440  -29.8570   21.6760 H   0  0  0  0  0  0  0  0  0  0  0  0
  -18.0080  -28.1800   22.8690 C   0  0  0  0  0  0  0  0  0  0  0  0
  -20.5780  -28.3370   23.1010 C   0  0  0  0  0  3  0  0  0  0  0  0
  -20.6160  -26.9280   22.4660 C   0  0  0  0  0  2  0  0  0  0  0  0
  -19.4910  -26.6900   21.4570 C   0  0  0  0  0  2  0  0  0  0  0  0
  -18.1230  -26.8600   22.1260 C   0  0  0  0  0  2  0  0  0  0  0  0
  -19.1610  -28.8840   23.3090 C   0  0  0  0  0  0  0  0  0  0  0  0
  -18.9970  -30.1270   23.9590 C   0  0  0  0  0  3  0  0  0  0  0  0
  -17.7140  -30.6650   24.1700 C   0  0  0  0  0  3  0  0  0  0  0  0
  -16.5760  -29.9570   23.7470 C   0  0  0  0  0  3  0  0  0  0  0  0
  -16.7240  -28.7160   23.1000 C   0  0  0  0  0  3  0  0  0  0  0  0
  -25.8110  -32.5050   23.9040 C   0  0  0  0  0  3  0  0  0  0  0  0
  -26.2730  -31.7570   25.2140 C   0  0  1  0  0  0  0  0  0  0  0  0
  -25.1320  -31.5250   26.2340 C   0  0  0  0  0  1  0  0  0  0  0  0
  -26.8850  -30.3790   24.8720 C   0  0  0  0  0  1  0  0  0  0  0  0
  -27.3850  -32.5710   25.9180 C   0  0  0  0  0  1  0  0  0  0  0  0
  -25.4780  -33.9070   24.2000 N   0  0  0  0  0  0  0  0  0  0  0  0
  -25.8330  -34.9520   23.4420 C   0  0  0  0  0  0  0  0  0  0  0  0
  -26.5430  -34.8410   22.4380 O   0  0  0  0  0  0  0  0  0  0  0  0
  -24.8510  -34.0670   24.9750 H   0  0  0  0  0  0  0  0  0  0  0  0
  -24.1160  -36.7370   22.9960 C   0  0  0  0  0  1  0  0  0  0  0  0
  -25.3220  -36.3440   23.8650 C   0  0  0  0  0  3  0  0  0  0  0  0
  -27.4070  -37.2550   24.7890 C   0  0  0  0  0  1  0  0  0  0  0  0
  -26.3550  -37.4000   23.7870 N   0  0  0  0  0  0  0  0  0  0  0  0
  -25.9380  -38.3200   23.8940 H   0  0  0  0  0  0  0  0  0  0  0  0
  1  3  2  0
  1  2  1  0
  2  4  2  0
  3  5  1  0
  4  7  1  0
  4  6  1  0
  5  6  2  0
  5 46  1  0
  7 16  1  0
  8 16  1  0
  9 14  1  0
 10 11  1  0
 10  9  1  0
 12 11  1  0
 12 21  1  0
 12 13  1  0
 14  8  1  0
 14 13  1  0
 15  8  2  0
 16 17  1  0
 18 19  2  0
 19 38  1  0
 20 19  1  0
 20 23  1  0
 21 22  1  0
 21 18  1  0
 22 20  2  0
 23 24  1  0
 24 25  2  0
 26 29  1  0
 26 25  1  0
 27 26  2  0
 28 27  1  0
 28 23  2  0
 29 30  1  0
 30 31  1  0
 31 32  2  0
 33 32  1  0
 33 37  1  0
 34 33  2  0
 35 30  2  0
 35 34  1  0
 36 35  1  0
 38 39  1  0
 39 42  1  0
 39 41  1  0
 40 38  2  0
 43 44  1  0
 43 18  1  0
 45 43  1  0
 47 46  1  0
 47 48  1  0
 49 48  1  0
 50 61  2  0
 51 49  1  0
 51 56  1  0
 52 60  1  0
 52 62  1  0
 53 55  1  0
 54 60  1  0
 55 56  2  0
 55 54  1  0
 57 51  2  0
 58 57  1  0
 58 53  2  0
 59 53  1  0
 59 52  1  0
 60 50  1  0
 62 64  2  0
 63 62  1  0
 65 63  1  0
 66 75  2  0
 66 71  1  0
 67 63  1  0
 67 71  1  0
 68 67  1  0
 69 70  1  0
 69 68  1  0
 70 66  1  0
 71 72  2  0
 72 73  1  0
 74 73  2  0
 75 74  1  0
 76 50  1  0
 76 81  1  0
 76 77  1  0
 77 80  1  1
 77 78  1  0
 79 77  1  0
 81 84  1  0
 82 86  1  0
 82 81  1  0
 83 82  2  0
 86 85  1  0
 88 86  1  0
 88 89  1  0
 88 87  1  0
M  ISO  4   8 100  16 100  48 101  49 101
M  END
>  <TORSDO>  (84) 
F 20

>  <SCORE>  (84) 
-13.384

>  <name>  (84) 
83

>  <ligand_id>  (84) 
83

>  <original_smiles>  (84) 
[H]c1c(OC([H])([H])C([H])([H])Oc2c([H])c([H])c3c(c2[H])C([H])([H])N(C(=O)C([H])(N([H])C(=O)C([H])(N([H])C([H])([H])[H])C([H])([H])[H])C(C([H])([H])[H])(C([H])([H])[H])C([H])([H])[H])C([H])(C(=O)N([H])C2([H])c4c([H])c([H])c([H])c([H])c4C([H])([H])C([H])([H])C2([H])[H])C3([H])[H])nc(C([H])([H])N([H])C(=O)N2C([H])([H])C([H])([H])C([H])([H])C([H])(n3nc(-c4c([H])c([H])c(Oc5c([H])c([H])c(F)c([H])c5F)c([H])c4[H])c(C(=O)N([H])[H])c3N([H])[H])C2([H])[H])c([H])c1[H]

>  <smiles>  (84) 
[H]c1c(OC([H])([H])C([H])([H])Oc2c([H])c([H])c3c(c2[H])C([H])([H])N(C(=O)C([H])(N([H])C(=O)C([H])(N([H])C([H])([H])[H])C([H])([H])[H])C(C([H])([H])[H])(C([H])([H])[H])C([H])([H])[H])C([H])(C(=O)N([H])C2([H])c4c([H])c([H])c([H])c([H])c4C([H])([H])C([H])([H])C2([H])[H])C3([H])[H])nc(C([H])([H])N([H])C(=O)N2C([H])([H])C([H])([H])C([H])([H])C([H])(n3nc(-c4c([H])c([H])c(Oc5c([H])c([H])c(F)c([H])c5F)c([H])c4[H])c(C(=O)N([H])[H])c3N([H])[H])C2([H])[H])c([H])c1[H]

$$$$
84:0:0
     RDKit          3D

 91100  0  0  1  0  0  0  0  0999 V2000
  -29.7330  -22.0550   21.5560 C   0  0  0  0  0  3  0  0  0  0  0  0
  -29.4110  -22.1070   19.1950 C   0  0  0  0  0  3  0  0  0  0  0  0
  -29.4750  -22.8330   20.4010 C   0  0  0  0  0  0  0  0  0  0  0  0
  -29.9560  -20.6480   21.4670 C   0  0  0  0  0  0  0  0  0  0  0  0
  -29.8970  -20.0040   20.1990 C   0  0  0  0  0  0  0  0  0  0  0  0
  -30.3040  -19.9010   22.7430 C   0  0  0  0  0  1  0  0  0  0  0  0
  -29.6200  -20.7640   19.1030 N   0  0  0  0  0  0  0  0  0  0  0  0
  -30.8860  -14.8640   20.2520 C   0  0  0  0  0  0  0  0  0  0  0  0
  -30.6390  -12.6090   19.2660 C   0  0  0  0  0  2  0  0  0  0  0  0
  -29.6740  -12.7060   18.0650 C   0  0  0  0  0  2  0  0  0  0  0  0
  -28.2100  -12.5480   18.5290 C   0  0  0  0  0  2  0  0  0  0  0  0
  -27.8620  -13.4180   19.7680 C   0  0  0  0  0  3  0  0  0  0  0  0
  -28.9540  -13.3400   20.8550 C   0  0  0  0  0  2  0  0  0  0  0  0
  -30.2400  -13.6580   20.2190 N   0  0  0  0  0  0  0  0  0  0  0  0
  -32.0980  -14.9520   20.0370 O   0  0  0  0  0  0  0  0  0  0  0  0
  -29.3100  -17.8820   18.8160 C   0  0  0  0  0  2  0  0  0  0  0  0
  -29.7320  -16.4080   18.7750 C   0  0  0  0  0  2  0  0  0  0  0  0
  -30.2960  -17.2920   20.8760 C   0  0  0  0  0  2  0  0  0  0  0  0
  -30.2340  -18.4950   19.8540 C   0  0  0  0  0  3  0  0  0  0  0  0
  -30.1000  -15.9920   20.1420 N   0  0  0  0  0  0  0  0  0  0  0  0
  -25.4960  -14.0050   20.5640 C   0  0  0  0  0  0  0  0  0  0  0  0
  -24.4360  -13.2250   20.9370 C   0  0  0  0  0  0  0  0  0  0  0  0
  -24.8960  -11.8740   20.8640 C   0  0  0  0  0  0  0  0  0  0  0  0
  -26.5310  -13.1260   20.2870 N   0  0  0  0  0  0  0  0  0  0  0  0
  -26.1790  -11.8390   20.5280 N   0  0  0  0  0  0  0  0  0  0  0  0
  -24.1730  -10.6100   21.0360 C   0  0  0  0  0  0  0  0  0  0  0  0
  -24.5970   -9.6420   21.9730 C   0  0  0  0  0  3  0  0  0  0  0  0
  -23.8760   -8.4390   22.1360 C   0  0  0  0  0  3  0  0  0  0  0  0
  -22.7160   -8.1980   21.3620 C   0  0  0  0  0  0  0  0  0  0  0  0
  -22.3120   -9.1550   20.4140 C   0  0  0  0  0  3  0  0  0  0  0  0
  -23.0340  -10.3480   20.2480 C   0  0  0  0  0  3  0  0  0  0  0  0
  -21.9670   -7.0480   21.4340 O   0  0  0  0  0  0  0  0  0  0  0  0
  -21.8610   -6.3310   22.5980 C   0  0  0  0  0  0  0  0  0  0  0  0
  -21.2780   -6.8780   23.7610 C   0  0  0  0  0  3  0  0  0  0  0  0
  -21.1270   -6.0830   24.9150 C   0  0  0  0  0  3  0  0  0  0  0  0
  -21.5480   -4.7400   24.9040 C   0  0  0  0  0  0  0  0  0  0  0  0
  -22.1230   -4.1910   23.7450 C   0  0  0  0  0  3  0  0  0  0  0  0
  -22.2760   -4.9840   22.5930 C   0  0  0  0  0  0  0  0  0  0  0  0
  -22.8120   -4.4440   21.4720 F   0  0  0  0  0  0  0  0  0  0  0  0
  -21.3950   -3.9730   26.0080 F   0  0  0  0  0  0  0  0  0  0  0  0
  -23.0460  -13.6970   21.2490 C   0  0  0  0  0  0  0  0  0  0  0  0
  -22.3420  -12.9910   22.1260 N   0  0  0  0  0  0  0  0  0  0  0  0
  -22.5930  -14.7270   20.7510 O   0  0  0  0  0  0  0  0  0  0  0  0
  -22.7210  -12.1590   22.5530 H   0  0  0  0  0  0  0  0  0  0  0  0
  -21.4080  -13.2880   22.3750 H   0  0  0  0  0  0  0  0  0  0  0  0
  -25.6600  -15.3800   20.4160 N   0  0  0  0  0  0  0  0  0  0  0  0
  -24.9020  -16.0360   20.5690 H   0  0  0  0  0  0  0  0  0  0  0  0
  -26.5180  -15.8250   20.1170 H   0  0  0  0  0  0  0  0  0  0  0  0
  -29.4560  -24.4020   20.4390 C   0  0  0  0  0  3  0  0  0  0  0  0
  -28.1690  -25.2090   20.0220 C   0  0  0  0  0  3  0  0  0  0  0  0
  -28.3020  -26.6760   20.0830 O   0  0  0  0  0  0  0  0  0  0  0  0
  -24.5020  -31.9380   23.1760 C   0  0  0  0  0  0  0  0  0  0  0  0
  -27.1430  -27.4580   20.0600 C   0  0  0  0  0  0  0  0  0  0  0  0
  -23.2840  -30.4990   21.5790 C   0  0  0  0  0  3  0  0  0  0  0  0
  -24.7300  -28.9820   20.1160 C   0  0  0  0  0  0  0  0  0  0  0  0
  -25.8040  -30.8920   21.3120 C   0  0  0  0  0  2  0  0  0  0  0  0
  -25.9000  -29.5140   20.6720 C   0  0  0  0  0  0  0  0  0  0  0  0
  -27.1090  -28.7640   20.6340 C   0  0  0  0  0  3  0  0  0  0  0  0
  -25.9480  -26.9720   19.4810 C   0  0  0  0  0  3  0  0  0  0  0  0
  -24.7550  -27.7150   19.5140 C   0  0  0  0  0  3  0  0  0  0  0  0
  -23.4700  -29.8200   20.1980 C   0  0  0  0  0  2  0  0  0  0  0  0
  -24.5500  -31.1280   22.0790 N   0  0  0  0  0  0  0  0  0  0  0  0
  -23.4290  -32.1910   23.7410 O   0  0  0  0  0  0  0  0  0  0  0  0
  -22.6810  -29.4700   22.5640 C   0  0  0  0  0  0  0  0  0  0  0  0
  -21.3650  -29.2250   22.4480 N   0  0  0  0  0  0  0  0  0  0  0  0
  -23.3930  -28.8960   23.3910 O   0  0  0  0  0  0  0  0  0  0  0  0
  -20.8480  -29.7430   21.7510 H   0  0  0  0  0  0  0  0  0  0  0  0
  -18.0560  -27.8630   22.9710 C   0  0  0  0  0  0  0  0  0  0  0  0
  -20.5960  -28.2660   23.2410 C   0  0  0  0  0  3  0  0  0  0  0  0
  -20.7770  -26.8280   22.7040 C   0  0  0  0  0  2  0  0  0  0  0  0
  -19.6980  -26.4190   21.6970 C   0  0  0  0  0  2  0  0  0  0  0  0
  -18.3070  -26.5080   22.3330 C   0  0  0  0  0  2  0  0  0  0  0  0
  -19.1300  -28.6960   23.3820 C   0  0  0  0  0  0  0  0  0  0  0  0
  -18.8420  -29.9610   23.9380 C   0  0  0  0  0  3  0  0  0  0  0  0
  -17.5120  -30.3960   24.0880 C   0  0  0  0  0  3  0  0  0  0  0  0
  -16.4520  -29.5610   23.6930 C   0  0  0  0  0  3  0  0  0  0  0  0
  -16.7250  -28.2970   23.1400 C   0  0  0  0  0  3  0  0  0  0  0  0
  -25.7880  -32.6050   23.7550 C   0  0  0  0  0  3  0  0  0  0  0  0
  -25.4480  -33.9920   24.1060 N   0  0  0  0  0  0  0  0  0  0  0  0
  -25.7410  -35.0610   23.3540 C   0  0  0  0  0  0  0  0  0  0  0  0
  -26.3950  -34.9860   22.3110 O   0  0  0  0  0  0  0  0  0  0  0  0
  -24.8630  -34.1220   24.9180 H   0  0  0  0  0  0  0  0  0  0  0  0
  -23.9860  -36.8330   23.0220 C   0  0  0  0  0  1  0  0  0  0  0  0
  -25.2260  -36.4310   23.8360 C   0  0  0  0  0  3  0  0  0  0  0  0
  -27.3280  -37.3420   24.7200 C   0  0  0  0  0  1  0  0  0  0  0  0
  -26.2420  -37.5030   23.7570 N   0  0  0  0  0  0  0  0  0  0  0  0
  -25.8180  -38.4140   23.9070 H   0  0  0  0  0  0  0  0  0  0  0  0
  -26.3730  -31.8420   25.0060 C   0  0  1  0  0  0  0  0  0  0  0  0
  -25.3220  -31.5410   26.0980 C   0  0  0  0  0  1  0  0  0  0  0  0
  -27.0100  -30.4990   24.5790 C   0  0  0  0  0  1  0  0  0  0  0  0
  -27.5030  -32.6810   25.6490 C   0  0  0  0  0  1  0  0  0  0  0  0
  2  3  1  0
  3 49  1  0
  3  1  2  0
  4  1  1  0
  4  6  1  0
  5  4  2  0
  7  2  2  0
  7  5  1  0
  9 14  1  0
 10 11  1  0
 10  9  1  0
 12 11  1  0
 12 24  1  0
 12 13  1  0
 14  8  1  0
 14 13  1  0
 15  8  2  0
 16 19  1  0
 17 16  1  0
 17 20  1  0
 19  5  1  0
 19 18  1  0
 20  8  1  0
 20 18  1  0
 21 22  2  0
 22 41  1  0
 23 22  1  0
 23 26  1  0
 24 25  1  0
 24 21  1  0
 25 23  2  0
 26 27  1  0
 27 28  2  0
 29 32  1  0
 29 28  1  0
 30 29  2  0
 31 30  1  0
 31 26  2  0
 32 33  1  0
 33 34  1  0
 34 35  2  0
 36 35  1  0
 36 40  1  0
 37 36  2  0
 38 33  2  0
 38 37  1  0
 39 38  1  0
 41 42  1  0
 42 45  1  0
 42 44  1  0
 43 41  2  0
 46 21  1  0
 46 47  1  0
 48 46  1  0
 50 51  1  0
 50 49  2  0
 52 63  2  0
 53 51  1  0
 53 58  1  0
 54 62  1  0
 54 64  1  0
 55 61  1  0
 55 57  1  0
 56 62  1  0
 57 56  1  0
 58 57  2  0
 59 60  1  0
 59 53  2  0
 60 55  2  0
 61 54  1  0
 62 52  1  0
 64 66  2  0
 65 64  1  0
 67 65  1  0
 68 77  2  0
 68 73  1  0
 69 65  1  0
 69 73  1  0
 70 69  1  0
 71 72  1  0
 71 70  1  0
 72 68  1  0
 73 74  2  0
 74 75  1  0
 76 75  2  0
 77 76  1  0
 78 52  1  0
 78 79  1  0
 78 88  1  0
 79 82  1  0
 80 84  1  0
 80 79  1  0
 81 80  2  0
 84 83  1  0
 86 84  1  0
 86 87  1  0
 86 85  1  0
 88 91  1  1
 88 89  1  0
 90 88  1  0
M  ISO  4   8 100  20 100  50 101  51 101
M  END
>  <TORSDO>  (85) 
F 18

>  <SCORE>  (85) 
-13.840

>  <name>  (85) 
84

>  <ligand_id>  (85) 
84

>  <original_smiles>  (85) 
[H]c1nc(C2([H])C([H])([H])N(C(=O)N3C([H])([H])C([H])([H])C([H])([H])C([H])(n4nc(-c5c([H])c([H])c(Oc6c([H])c([H])c(F)c([H])c6F)c([H])c5[H])c(C(=O)N([H])[H])c4N([H])[H])C3([H])[H])C([H])([H])C2([H])[H])c(C([H])([H])[H])c([H])c1C([H])([H])C([H])([H])Oc1c([H])c([H])c2c(c1[H])C([H])([H])N(C(=O)C([H])(N([H])C(=O)C([H])(N([H])C([H])([H])[H])C([H])([H])[H])C(C([H])([H])[H])(C([H])([H])[H])C([H])([H])[H])C([H])(C(=O)N([H])C1([H])c3c([H])c([H])c([H])c([H])c3C([H])([H])C([H])([H])C1([H])[H])C2([H])[H]

>  <smiles>  (85) 
[H]c1nc(C2([H])C([H])([H])N(C(=O)N3C([H])([H])C([H])([H])C([H])([H])C([H])(n4nc(-c5c([H])c([H])c(Oc6c([H])c([H])c(F)c([H])c6F)c([H])c5[H])c(C(=O)N([H])[H])c4N([H])[H])C3([H])[H])C([H])([H])C2([H])[H])c(C([H])([H])[H])c([H])c1C([H])([H])C([H])([H])Oc1c([H])c([H])c2c(c1[H])C([H])([H])N(C(=O)C([H])(N([H])C(=O)C([H])(N([H])C([H])([H])[H])C([H])([H])[H])C(C([H])([H])[H])(C([H])([H])[H])C([H])([H])[H])C([H])(C(=O)N([H])C1([H])c3c([H])c([H])c([H])c([H])c3C([H])([H])C([H])([H])C1([H])[H])C2([H])[H]

$$$$
85:0:0
     RDKit          3D

 94103  0  0  1  0  0  0  0  0999 V2000
  -28.9230  -19.8460   18.4130 C   0  0  0  0  0  3  0  0  0  0  0  0
  -29.8790  -19.5030   17.4560 C   0  0  0  0  0  3  0  0  0  0  0  0
  -29.1580  -19.5180   19.7600 C   0  0  0  0  0  0  0  0  0  0  0  0
  -30.0160  -18.1990   19.9220 C   0  0  0  0  0  0  0  0  0  0  0  0
  -31.0870  -18.2500   18.9800 C   0  0  0  0  0  0  0  0  0  0  0  0
  -31.0130  -18.8630   17.7840 N   0  0  0  0  0  0  0  0  0  0  0  0
  -32.2750  -17.5510   19.1470 N   0  0  0  0  0  0  0  0  0  0  0  0
  -32.2000  -16.7540   19.7910 H   0  0  0  0  0  0  0  0  0  0  0  0
  -30.4340  -15.3150   20.2800 C   0  0  0  0  0  0  0  0  0  0  0  0
  -30.3970  -12.8680   19.4210 C   0  0  0  0  0  2  0  0  0  0  0  0
  -29.4880  -12.6500   18.1880 C   0  0  0  0  0  2  0  0  0  0  0  0
  -28.0390  -12.3710   18.6250 C   0  0  0  0  0  2  0  0  0  0  0  0
  -27.5790  -13.3330   19.7500 C   0  0  0  0  0  3  0  0  0  0  0  0
  -28.6210  -13.5130   20.8700 C   0  0  0  0  0  2  0  0  0  0  0  0
  -29.8410  -14.0210   20.2240 N   0  0  0  0  0  0  0  0  0  0  0  0
  -31.6630  -15.2330   20.1630 O   0  0  0  0  0  0  0  0  0  0  0  0
  -29.7240  -16.6370   20.3220 N   0  0  0  0  0  0  0  0  0  0  0  0
  -28.7490  -16.4870   20.5400 H   0  0  0  0  0  0  0  0  0  0  0  0
  -25.2090  -13.8660   20.5120 C   0  0  0  0  0  0  0  0  0  0  0  0
  -24.1530  -13.0800   20.8800 C   0  0  0  0  0  0  0  0  0  0  0  0
  -24.6320  -11.7340   20.8450 C   0  0  0  0  0  0  0  0  0  0  0  0
  -26.2580  -13.0020   20.2640 N   0  0  0  0  0  0  0  0  0  0  0  0
  -25.9260  -11.7120   20.5360 N   0  0  0  0  0  0  0  0  0  0  0  0
  -23.9140  -10.4660   21.0280 C   0  0  0  0  0  0  0  0  0  0  0  0
  -24.3340   -9.5080   21.9760 C   0  0  0  0  0  3  0  0  0  0  0  0
  -23.6140   -8.3050   22.1480 C   0  0  0  0  0  3  0  0  0  0  0  0
  -22.4550   -8.0560   21.3750 C   0  0  0  0  0  0  0  0  0  0  0  0
  -22.0540   -9.0030   20.4160 C   0  0  0  0  0  3  0  0  0  0  0  0
  -22.7760  -10.1960   20.2400 C   0  0  0  0  0  3  0  0  0  0  0  0
  -21.7060   -6.9070   21.4570 O   0  0  0  0  0  0  0  0  0  0  0  0
  -21.6280   -6.1780   22.6160 C   0  0  0  0  0  0  0  0  0  0  0  0
  -21.1390   -6.7390   23.8170 C   0  0  0  0  0  3  0  0  0  0  0  0
  -21.0100   -5.9350   24.9660 C   0  0  0  0  0  3  0  0  0  0  0  0
  -21.3620   -4.5740   24.9180 C   0  0  0  0  0  0  0  0  0  0  0  0
  -21.8440   -4.0130   23.7220 C   0  0  0  0  0  3  0  0  0  0  0  0
  -21.9740   -4.8140   22.5740 C   0  0  0  0  0  0  0  0  0  0  0  0
  -22.4190   -4.2620   21.4190 F   0  0  0  0  0  0  0  0  0  0  0  0
  -21.2330   -3.7990   26.0220 F   0  0  0  0  0  0  0  0  0  0  0  0
  -22.7510  -13.5450   21.1450 C   0  0  0  0  0  0  0  0  0  0  0  0
  -22.0230  -12.8360   21.9990 N   0  0  0  0  0  0  0  0  0  0  0  0
  -22.3120  -14.5720   20.6280 O   0  0  0  0  0  0  0  0  0  0  0  0
  -22.3930  -12.0060   22.4390 H   0  0  0  0  0  0  0  0  0  0  0  0
  -21.0810  -13.1290   22.2190 H   0  0  0  0  0  0  0  0  0  0  0  0
  -25.3600  -15.2390   20.3360 N   0  0  0  0  0  0  0  0  0  0  0  0
  -24.5890  -15.8870   20.4460 H   0  0  0  0  0  0  0  0  0  0  0  0
  -26.1970  -15.6810   19.9780 H   0  0  0  0  0  0  0  0  0  0  0  0
  -28.8210  -21.0010   20.6050 C   0  0  0  0  0  2  0  0  0  0  0  0
  -28.8020  -22.7210   20.0220 C   0  0  0  0  0  3  0  0  0  0  0  0
  -28.0210  -24.2620   20.5620 C   0  0  0  0  0  3  0  0  0  0  0  0
  -28.2210  -25.8790   20.2890 O   0  0  0  0  0  0  0  0  0  0  0  0
  -24.5780  -31.8360   23.2200 C   0  0  0  0  0  0  0  0  0  0  0  0
  -27.1920  -26.9570   20.2720 C   0  0  0  0  0  0  0  0  0  0  0  0
  -23.4120  -30.4310   21.5670 C   0  0  0  0  0  3  0  0  0  0  0  0
  -24.8860  -28.8240   20.1800 C   0  0  0  0  0  0  0  0  0  0  0  0
  -25.9780  -30.6540   21.4580 C   0  0  0  0  0  2  0  0  0  0  0  0
  -26.0630  -29.2390   20.8130 C   0  0  0  0  0  0  0  0  0  0  0  0
  -27.2140  -28.3290   20.8290 C   0  0  0  0  0  3  0  0  0  0  0  0
  -25.9810  -26.6900   19.5950 C   0  0  0  0  0  3  0  0  0  0  0  0
  -24.8700  -27.5680   19.5490 C   0  0  0  0  0  3  0  0  0  0  0  0
  -23.6650  -29.7420   20.1980 C   0  0  0  0  0  2  0  0  0  0  0  0
  -24.6770  -31.0010   22.1350 N   0  0  0  0  0  0  0  0  0  0  0  0
  -23.4800  -32.1230   23.7250 O   0  0  0  0  0  0  0  0  0  0  0  0
  -22.7060  -29.4370   22.5250 C   0  0  0  0  0  0  0  0  0  0  0  0
  -21.3750  -29.2780   22.3890 N   0  0  0  0  0  0  0  0  0  0  0  0
  -23.3620  -28.8100   23.3610 O   0  0  0  0  0  0  0  0  0  0  0  0
  -20.8990  -29.8380   21.6950 H   0  0  0  0  0  0  0  0  0  0  0  0
  -17.9820  -28.0920   22.8790 C   0  0  0  0  0  0  0  0  0  0  0  0
  -20.5430  -28.3410   23.1510 C   0  0  0  0  0  3  0  0  0  0  0  0
  -20.6360  -26.9110   22.5710 C   0  0  0  0  0  2  0  0  0  0  0  0
  -19.5360  -26.6000   21.5520 C   0  0  0  0  0  2  0  0  0  0  0  0
  -18.1530  -26.7480   22.1920 C   0  0  0  0  0  2  0  0  0  0  0  0
  -19.1040  -28.8470   23.3160 C   0  0  0  0  0  0  0  0  0  0  0  0
  -18.8880  -30.1040   23.9210 C   0  0  0  0  0  3  0  0  0  0  0  0
  -17.5850  -30.6070   24.0940 C   0  0  0  0  0  3  0  0  0  0  0  0
  -16.4780  -29.8510   23.6720 C   0  0  0  0  0  3  0  0  0  0  0  0
  -16.6770  -28.5960   23.0700 C   0  0  0  0  0  3  0  0  0  0  0  0
  -25.8390  -32.4830   23.8700 C   0  0  0  0  0  3  0  0  0  0  0  0
  -25.5200  -33.8880   24.1790 N   0  0  0  0  0  0  0  0  0  0  0  0
  -25.8740  -34.9400   23.4290 C   0  0  0  0  0  0  0  0  0  0  0  0
  -26.5680  -34.8320   22.4160 O   0  0  0  0  0  0  0  0  0  0  0  0
  -24.9130  -34.0460   24.9700 H   0  0  0  0  0  0  0  0  0  0  0  0
  -24.1730  -36.7530   23.0220 C   0  0  0  0  0  1  0  0  0  0  0  0
  -25.3830  -36.3340   23.8730 C   0  0  0  0  0  3  0  0  0  0  0  0
  -27.4900  -37.2110   24.7790 C   0  0  0  0  0  1  0  0  0  0  0  0
  -26.4260  -37.3810   23.7940 N   0  0  0  0  0  0  0  0  0  0  0  0
  -26.0210  -38.3040   23.9210 H   0  0  0  0  0  0  0  0  0  0  0  0
  -26.3150  -31.7360   25.1780 C   0  0  1  0  0  0  0  0  0  0  0  0
  -25.1920  -31.5270   26.2210 C   0  0  0  0  0  1  0  0  0  0  0  0
  -26.9030  -30.3470   24.8410 C   0  0  0  0  0  1  0  0  0  0  0  0
  -27.4470  -32.5400   25.8590 C   0  0  0  0  0  1  0  0  0  0  0  0
  -33.5180  -18.3040   19.2310 C   0  0  0  0  0  2  0  0  0  0  0  0
  -34.6140  -20.3600   20.4590 C   0  0  0  0  0  2  0  0  0  0  0  0
  -33.2490  -20.8020   19.9930 C   0  0  0  0  0  2  0  0  0  0  0  0
  -33.4990  -19.3490   20.3320 C   0  0  0  0  0  3  0  0  0  0  0  0
  1  3  1  0
  2  6  1  0
  2  1  2  0
  3  4  2  3
  3 47  1  0
  4 17  1  0
  5  7  1  0
  5  4  1  0
  6  5  2  0
  7 91  1  0
  7  8  1  0
  9 17  1  0
 10 15  1  0
 11 12  1  0
 11 10  1  0
 13 12  1  0
 13 22  1  0
 13 14  1  0
 15  9  1  0
 15 14  1  0
 16  9  2  0
 17 18  1  0
 19 20  2  0
 20 39  1  0
 21 20  1  0
 21 24  1  0
 22 19  1  0
 22 23  1  0
 23 21  2  0
 24 25  1  0
 25 26  2  0
 27 30  1  0
 27 26  1  0
 28 27  2  0
 29 28  1  0
 29 24  2  0
 30 31  1  0
 31 32  1  0
 32 33  2  0
 34 33  1  0
 34 38  1  0
 35 34  2  0
 36 31  2  0
 36 35  1  0
 37 36  1  0
 39 40  1  0
 40 43  1  0
 40 42  1  0
 41 39  2  0
 44 45  1  0
 44 19  1  0
 46 44  1  0
 48 49  2  0
 48 47  1  0
 50 49  1  0
 51 62  2  0
 52 50  1  0
 52 57  1  0
 53 61  1  0
 53 63  1  0
 54 60  1  0
 54 56  1  0
 55 61  1  0
 56 57  2  0
 56 55  1  0
 58 52  2  0
 59 58  1  0
 59 54  2  0
 60 53  1  0
 61 51  1  0
 63 65  2  0
 64 63  1  0
 66 64  1  0
 67 76  2  0
 67 72  1  0
 68 64  1  0
 68 72  1  0
 69 68  1  0
 70 71  1  0
 70 69  1  0
 71 67  1  0
 72 73  2  0
 73 74  1  0
 75 74  2  0
 76 75  1  0
 77 51  1  0
 77 78  1  0
 77 87  1  0
 78 81  1  0
 79 83  1  0
 79 78  1  0
 80 79  2  0
 83 82  1  0
 85 83  1  0
 85 86  1  0
 85 84  1  0
 87 90  1  1
 87 88  1  0
 89 87  1  0
 91 94  1  0
 93 94  1  0
 93 92  1  0
 94 92  1  0
M  ISO  4   9 100  17 100  49 101  50 101
M  END
>  <TORSDO>  (86) 
F 21

>  <SCORE>  (86) 
-15.432

>  <name>  (86) 
85

>  <ligand_id>  (86) 
85

>  <original_smiles>  (86) 
[H]c1nc(N([H])C([H])([H])C2([H])C([H])([H])C2([H])[H])c(N([H])C(=O)N2C([H])([H])C([H])([H])C([H])([H])C([H])(n3nc(-c4c([H])c([H])c(Oc5c([H])c([H])c(F)c([H])c5F)c([H])c4[H])c(C(=O)N([H])[H])c3N([H])[H])C2([H])[H])c(C([H])([H])C([H])([H])C([H])([H])Oc2c([H])c([H])c3c(c2[H])C([H])([H])N(C(=O)C([H])(N([H])C(=O)C([H])(N([H])C([H])([H])[H])C([H])([H])[H])C(C([H])([H])[H])(C([H])([H])[H])C([H])([H])[H])C([H])(C(=O)N([H])C2([H])c4c([H])c([H])c([H])c([H])c4C([H])([H])C([H])([H])C2([H])[H])C3([H])[H])c1[H]

>  <smiles>  (86) 
[H]c1nc(N([H])C([H])([H])C2([H])C([H])([H])C2([H])[H])c(N([H])C(=O)N2C([H])([H])C([H])([H])C([H])([H])C([H])(n3nc(-c4c([H])c([H])c(Oc5c([H])c([H])c(F)c([H])c5F)c([H])c4[H])c(C(=O)N([H])[H])c3N([H])[H])C2([H])[H])c(C([H])([H])C([H])([H])C([H])([H])Oc2c([H])c([H])c3c(c2[H])C([H])([H])N(C(=O)C([H])(N([H])C(=O)C([H])(N([H])C([H])([H])[H])C([H])([H])[H])C(C([H])([H])[H])(C([H])([H])[H])C([H])([H])[H])C([H])(C(=O)N([H])C2([H])c4c([H])c([H])c([H])c([H])c4C([H])([H])C([H])([H])C2([H])[H])C3([H])[H])c1[H]

$$$$
86:0:0
     RDKit          3D

 93101  0  0  1  0  0  0  0  0999 V2000
  -27.8300  -22.0110   20.9860 C   0  0  0  0  0  2  0  0  0  0  0  0
  -27.7060  -19.8050   19.7120 C   0  0  0  0  0  3  0  0  0  0  0  0
  -28.2310  -18.5390   19.3710 C   0  0  0  0  0  3  0  0  0  0  0  0
  -29.5330  -20.1350   21.2810 C   0  0  0  0  0  3  0  0  0  0  0  0
  -28.3710  -20.6230   20.6480 C   0  0  0  0  0  0  0  0  0  0  0  0
  -29.4300  -18.0760   19.9640 C   0  0  0  0  0  0  0  0  0  0  0  0
  -30.0620  -18.8710   20.9490 C   0  0  0  0  0  0  0  0  0  0  0  0
  -31.5040  -18.3380   21.7380 Cl  0  0  0  0  0  0  0  0  0  0  0  0
  -30.0950  -16.8060   19.4480 C   0  0  0  0  0  2  0  0  0  0  0  0
  -30.6850  -14.5200   20.0880 C   0  0  0  0  0  0  0  0  0  0  0  0
  -30.3440  -12.3560   19.0050 C   0  0  0  0  0  2  0  0  0  0  0  0
  -29.3520  -12.5920   17.8470 C   0  0  0  0  0  2  0  0  0  0  0  0
  -27.8950  -12.4790   18.3380 C   0  0  0  0  0  2  0  0  0  0  0  0
  -27.6230  -13.2960   19.6310 C   0  0  0  0  0  3  0  0  0  0  0  0
  -28.7310  -13.0550   20.6860 C   0  0  0  0  0  2  0  0  0  0  0  0
  -30.0280  -13.3360   20.0530 N   0  0  0  0  0  0  0  0  0  0  0  0
  -31.8400  -14.6630   19.6800 O   0  0  0  0  0  0  0  0  0  0  0  0
  -29.8810  -15.5870   20.2340 N   0  0  0  0  0  0  0  0  0  0  0  0
  -28.9470  -15.4180   20.5710 H   0  0  0  0  0  0  0  0  0  0  0  0
  -25.2650  -13.9090   20.4600 C   0  0  0  0  0  0  0  0  0  0  0  0
  -24.2090  -13.1380   20.8670 C   0  0  0  0  0  0  0  0  0  0  0  0
  -24.6570  -11.7850   20.7900 C   0  0  0  0  0  0  0  0  0  0  0  0
  -26.2920  -13.0230   20.1700 N   0  0  0  0  0  0  0  0  0  0  0  0
  -25.9330  -11.7410   20.4270 N   0  0  0  0  0  0  0  0  0  0  0  0
  -23.9290  -10.5240   20.9870 C   0  0  0  0  0  0  0  0  0  0  0  0
  -24.3740   -9.5530   21.9110 C   0  0  0  0  0  3  0  0  0  0  0  0
  -23.6510   -8.3550   22.0960 C   0  0  0  0  0  3  0  0  0  0  0  0
  -22.4650   -8.1210   21.3590 C   0  0  0  0  0  0  0  0  0  0  0  0
  -22.0390   -9.0790   20.4220 C   0  0  0  0  0  3  0  0  0  0  0  0
  -22.7640  -10.2690   20.2360 C   0  0  0  0  0  3  0  0  0  0  0  0
  -21.7130   -6.9760   21.4540 O   0  0  0  0  0  0  0  0  0  0  0  0
  -21.6540   -6.2480   22.6160 C   0  0  0  0  0  0  0  0  0  0  0  0
  -21.2050   -6.8160   23.8270 C   0  0  0  0  0  3  0  0  0  0  0  0
  -21.0950   -6.0150   24.9800 C   0  0  0  0  0  3  0  0  0  0  0  0
  -21.4200   -4.6470   24.9240 C   0  0  0  0  0  0  0  0  0  0  0  0
  -21.8620   -4.0780   23.7150 C   0  0  0  0  0  3  0  0  0  0  0  0
  -21.9740   -4.8770   22.5630 C   0  0  0  0  0  0  0  0  0  0  0  0
  -22.3810   -4.3210   21.3970 F   0  0  0  0  0  0  0  0  0  0  0  0
  -21.3050   -3.8750   26.0290 F   0  0  0  0  0  0  0  0  0  0  0  0
  -22.8280  -13.6220   21.2060 C   0  0  0  0  0  0  0  0  0  0  0  0
  -22.1300  -12.9120   22.0860 N   0  0  0  0  0  0  0  0  0  0  0  0
  -22.3780  -14.6610   20.7270 O   0  0  0  0  0  0  0  0  0  0  0  0
  -22.5080  -12.0710   22.4950 H   0  0  0  0  0  0  0  0  0  0  0  0
  -21.2040  -13.2170   22.3550 H   0  0  0  0  0  0  0  0  0  0  0  0
  -25.4310  -15.2800   20.2920 N   0  0  0  0  0  0  0  0  0  0  0  0
  -24.6660  -15.9330   20.4120 H   0  0  0  0  0  0  0  0  0  0  0  0
  -26.2540  -15.7090   19.8910 H   0  0  0  0  0  0  0  0  0  0  0  0
  -28.4640  -23.0750   20.1780 N   0  0  0  0  0  4  0  0  0  0  0  0
  -28.2270  -22.9120   19.2120 H   0  0  0  0  0  0  0  0  0  0  0  0
  -29.4650  -22.9710   20.2570 H   0  0  0  0  0  0  0  0  0  0  0  0
  -28.0740  -24.4570   20.5710 C   0  0  0  0  0  2  0  0  0  0  0  0
  -28.5800  -25.5290   19.5810 C   0  0  0  0  0  2  0  0  0  0  0  0
  -28.4480  -26.8530   20.1070 O   0  0  0  0  0  0  0  0  0  0  0  0
  -24.5600  -31.9070   23.2220 C   0  0  0  0  0  0  0  0  0  0  0  0
  -27.2340  -27.5090   20.0990 C   0  0  0  0  0  0  0  0  0  0  0  0
  -23.3560  -30.4990   21.5800 C   0  0  0  0  0  3  0  0  0  0  0  0
  -24.8140  -28.9820   20.1390 C   0  0  0  0  0  0  0  0  0  0  0  0
  -25.8750  -30.8830   21.3690 C   0  0  0  0  0  2  0  0  0  0  0  0
  -25.9680  -29.5150   20.7250 C   0  0  0  0  0  0  0  0  0  0  0  0
  -27.1740  -28.7830   20.7070 C   0  0  0  0  0  3  0  0  0  0  0  0
  -26.0580  -26.9850   19.5100 C   0  0  0  0  0  3  0  0  0  0  0  0
  -24.8550  -27.7150   19.5290 C   0  0  0  0  0  3  0  0  0  0  0  0
  -23.5640  -29.8310   20.1950 C   0  0  0  0  0  2  0  0  0  0  0  0
  -24.6150  -31.1110   22.1150 N   0  0  0  0  0  0  0  0  0  0  0  0
  -23.4800  -32.1710   23.7680 O   0  0  0  0  0  0  0  0  0  0  0  0
  -22.7220  -29.4680   22.5380 C   0  0  0  0  0  0  0  0  0  0  0  0
  -21.3990  -29.2730   22.4140 N   0  0  0  0  0  0  0  0  0  0  0  0
  -23.4130  -28.8470   23.3470 O   0  0  0  0  0  0  0  0  0  0  0  0
  -20.9060  -29.8170   21.7210 H   0  0  0  0  0  0  0  0  0  0  0  0
  -18.0320  -28.0760   22.9330 C   0  0  0  0  0  0  0  0  0  0  0  0
  -20.5910  -28.3280   23.1810 C   0  0  0  0  0  3  0  0  0  0  0  0
  -20.6890  -26.9020   22.5910 C   0  0  0  0  0  2  0  0  0  0  0  0
  -19.5770  -26.5890   21.5870 C   0  0  0  0  0  2  0  0  0  0  0  0
  -18.2020  -26.7320   22.2450 C   0  0  0  0  0  2  0  0  0  0  0  0
  -19.1550  -28.8340   23.3560 C   0  0  0  0  0  0  0  0  0  0  0  0
  -18.9450  -30.0980   23.9480 C   0  0  0  0  0  3  0  0  0  0  0  0
  -17.6440  -30.6020   24.1320 C   0  0  0  0  0  3  0  0  0  0  0  0
  -16.5340  -29.8350   23.7330 C   0  0  0  0  0  3  0  0  0  0  0  0
  -16.7280  -28.5760   23.1390 C   0  0  0  0  0  3  0  0  0  0  0  0
  -25.8460  -32.5430   23.8360 C   0  0  0  0  0  3  0  0  0  0  0  0
  -25.5350  -33.9410   24.1610 N   0  0  0  0  0  0  0  0  0  0  0  0
  -25.8710  -34.9930   23.4010 C   0  0  0  0  0  0  0  0  0  0  0  0
  -26.5480  -34.8850   22.3740 O   0  0  0  0  0  0  0  0  0  0  0  0
  -24.9380  -34.0970   24.9600 H   0  0  0  0  0  0  0  0  0  0  0  0
  -24.1490  -36.7840   23.0220 C   0  0  0  0  0  1  0  0  0  0  0  0
  -25.3780  -36.3800   23.8510 C   0  0  0  0  0  3  0  0  0  0  0  0
  -27.5010  -37.2630   24.7140 C   0  0  0  0  0  1  0  0  0  0  0  0
  -26.4130  -37.4320   23.7540 N   0  0  0  0  0  0  0  0  0  0  0  0
  -26.0050  -38.3520   23.8950 H   0  0  0  0  0  0  0  0  0  0  0  0
  -26.3720  -31.7740   25.1100 C   0  0  1  0  0  0  0  0  0  0  0  0
  -25.2840  -31.5310   26.1810 C   0  0  0  0  0  1  0  0  0  0  0  0
  -26.9600  -30.4000   24.7120 C   0  0  0  0  0  1  0  0  0  0  0  0
  -27.5200  -32.5750   25.7690 C   0  0  0  0  0  1  0  0  0  0  0  0
  2  5  1  0
  3  2  2  0
  3  6  1  0
  5  1  1  0
  5  4  2  0
  6  7  2  0
  7  4  1  0
  7  8  1  0
  9  6  1  0
  9 18  1  0
 10 18  1  0
 11 16  1  0
 12 13  1  0
 12 11  1  0
 14 13  1  0
 14 23  1  0
 14 15  1  0
 16 10  1  0
 16 15  1  0
 17 10  2  0
 18 19  1  0
 20 21  2  0
 21 40  1  0
 22 21  1  0
 22 25  1  0
 23 24  1  0
 23 20  1  0
 24 22  2  0
 25 26  1  0
 26 27  2  0
 28 31  1  0
 28 27  1  0
 29 28  2  0
 30 29  1  0
 30 25  2  0
 31 32  1  0
 32 33  1  0
 33 34  2  0
 35 34  1  0
 35 39  1  0
 36 35  2  0
 37 32  2  0
 37 36  1  0
 38 37  1  0
 40 41  1  0
 41 44  1  0
 41 43  1  0
 42 40  2  0
 45 46  1  0
 45 20  1  0
 47 45  1  0
 48 50  1  0
 48 51  1  0
 48  1  1  0
 49 48  1  0
 52 53  1  0
 52 51  1  0
 54 65  2  0
 55 53  1  0
 55 60  1  0
 56 64  1  0
 56 66  1  0
 57 63  1  0
 57 59  1  0
 58 64  1  0
 59 58  1  0
 60 59  2  0
 61 62  1  0
 61 55  2  0
 62 57  2  0
 63 56  1  0
 64 54  1  0
 66 68  2  0
 67 66  1  0
 69 67  1  0
 70 79  2  0
 70 75  1  0
 71 67  1  0
 71 75  1  0
 72 71  1  0
 73 74  1  0
 73 72  1  0
 74 70  1  0
 75 76  2  0
 76 77  1  0
 78 77  2  0
 79 78  1  0
 80 54  1  0
 80 81  1  0
 80 90  1  0
 81 84  1  0
 82 86  1  0
 82 81  1  0
 83 82  2  0
 86 85  1  0
 88 86  1  0
 88 89  1  0
 88 87  1  0
 90 93  1  1
 90 91  1  0
 92 90  1  0
M  ISO  4  10 100  18 100  52 101  53 101
M  END
>  <TORSDO>  (87) 
F 21

>  <SCORE>  (87) 
-13.510

>  <name>  (87) 
86

>  <ligand_id>  (87) 
86

>  <original_smiles>  (87) 
[H]c1c([H])c([H])c2c(c1[H])C([H])([H])C([H])([H])C([H])([H])C2([H])N([H])C(=O)C1([H])N(C(=O)C([H])(N([H])C(=O)C([H])(N([H])C([H])([H])[H])C([H])([H])[H])C(C([H])([H])[H])(C([H])([H])[H])C([H])([H])[H])C([H])([H])c2c([H])c(OC([H])([H])C([H])([H])[N+]([H])([H])C([H])([H])c3c([H])c([H])c(C([H])([H])N([H])C(=O)N4C([H])([H])C([H])([H])C([H])([H])C([H])(n5nc(-c6c([H])c([H])c(Oc7c([H])c([H])c(F)c([H])c7F)c([H])c6[H])c(C(=O)N([H])[H])c5N([H])[H])C4([H])[H])c(Cl)c3[H])c([H])c([H])c2C1([H])[H]

>  <smiles>  (87) 
[H]c1c([H])c([H])c2c(c1[H])C([H])([H])C([H])([H])C([H])([H])C2([H])N([H])C(=O)C1([H])N(C(=O)C([H])(N([H])C(=O)C([H])(N([H])C([H])([H])[H])C([H])([H])[H])C(C([H])([H])[H])(C([H])([H])[H])C([H])([H])[H])C([H])([H])c2c([H])c(OC([H])([H])C([H])([H])[N+]([H])([H])C([H])([H])c3c([H])c([H])c(C([H])([H])N([H])C(=O)N4C([H])([H])C([H])([H])C([H])([H])C([H])(n5nc(-c6c([H])c([H])c(Oc7c([H])c([H])c(F)c([H])c7F)c([H])c6[H])c(C(=O)N([H])[H])c5N([H])[H])C4([H])[H])c(Cl)c3[H])c([H])c([H])c2C1([H])[H]

$$$$
87:0:0
     RDKit          3D

 89 97  0  0  1  0  0  0  0  0999 V2000
  -27.6430  -23.7590   19.1630 C   0  0  0  0  0  3  0  0  0  0  0  0
  -28.6160  -24.0560   21.4350 C   0  0  0  0  0  2  0  0  0  0  0  0
  -27.6600  -22.2040   19.6140 C   0  0  0  0  0  2  0  0  0  0  0  0
  -29.4170  -22.6810   21.2900 C   0  0  0  0  0  2  0  0  0  0  0  0
  -28.3810  -24.8210   20.0930 C   0  0  0  0  0  0  0  0  0  0  0  0
  -28.9100  -21.6510   20.2810 N   0  0  1  0  0  4  0  0  0  0  0  0
  -29.6130  -21.6540   19.5540 H   0  0  0  0  0  0  0  0  0  0  0  0
  -28.2900  -26.3610   20.1110 O   0  0  0  0  0  0  0  0  0  0  0  0
  -24.6100  -31.8810   23.2010 C   0  0  0  0  0  0  0  0  0  0  0  0
  -27.1620  -27.2220   20.1320 C   0  0  0  0  0  0  0  0  0  0  0  0
  -23.4000  -30.4840   21.5750 C   0  0  0  0  0  3  0  0  0  0  0  0
  -24.8270  -28.9180   20.1400 C   0  0  0  0  0  0  0  0  0  0  0  0
  -25.9430  -30.7750   21.3750 C   0  0  0  0  0  2  0  0  0  0  0  0
  -26.0090  -29.3870   20.7230 C   0  0  0  0  0  0  0  0  0  0  0  0
  -27.1780  -28.5490   20.7010 C   0  0  0  0  0  3  0  0  0  0  0  0
  -25.9500  -26.8330   19.5320 C   0  0  0  0  0  3  0  0  0  0  0  0
  -24.8030  -27.6540   19.5370 C   0  0  0  0  0  3  0  0  0  0  0  0
  -23.6060  -29.8180   20.1890 C   0  0  0  0  0  2  0  0  0  0  0  0
  -24.6710  -31.0630   22.1070 N   0  0  0  0  0  0  0  0  0  0  0  0
  -23.5300  -32.1570   23.7430 O   0  0  0  0  0  0  0  0  0  0  0  0
  -22.7380  -29.4630   22.5330 C   0  0  0  0  0  0  0  0  0  0  0  0
  -21.4100  -29.2880   22.4120 N   0  0  0  0  0  0  0  0  0  0  0  0
  -23.4150  -28.8360   23.3510 O   0  0  0  0  0  0  0  0  0  0  0  0
  -20.9140  -29.8580   21.7390 H   0  0  0  0  0  0  0  0  0  0  0  0
  -18.0300  -28.0950   22.9270 C   0  0  0  0  0  0  0  0  0  0  0  0
  -20.5960  -28.3490   23.1860 C   0  0  0  0  0  3  0  0  0  0  0  0
  -20.6910  -26.9190   22.6080 C   0  0  0  0  0  2  0  0  0  0  0  0
  -19.5840  -26.6030   21.5980 C   0  0  0  0  0  2  0  0  0  0  0  0
  -18.2040  -26.7450   22.2490 C   0  0  0  0  0  2  0  0  0  0  0  0
  -19.1550  -28.8520   23.3530 C   0  0  0  0  0  0  0  0  0  0  0  0
  -18.9410  -30.1120   23.9480 C   0  0  0  0  0  3  0  0  0  0  0  0
  -17.6400  -30.6170   24.1260 C   0  0  0  0  0  3  0  0  0  0  0  0
  -16.5310  -29.8530   23.7240 C   0  0  0  0  0  3  0  0  0  0  0  0
  -16.7270  -28.5960   23.1240 C   0  0  0  0  0  3  0  0  0  0  0  0
  -25.8920  -32.5140   23.8200 C   0  0  0  0  0  3  0  0  0  0  0  0
  -26.4170  -31.7370   25.0900 C   0  0  1  0  0  0  0  0  0  0  0  0
  -25.3340  -31.4910   26.1660 C   0  0  0  0  0  1  0  0  0  0  0  0
  -27.0030  -30.3670   24.6780 C   0  0  0  0  0  1  0  0  0  0  0  0
  -27.5690  -32.5310   25.7490 C   0  0  0  0  0  1  0  0  0  0  0  0
  -25.5830  -33.9100   24.1680 N   0  0  0  0  0  0  0  0  0  0  0  0
  -25.9000  -34.9710   23.4150 C   0  0  0  0  0  0  0  0  0  0  0  0
  -26.5550  -34.8800   22.3730 O   0  0  0  0  0  0  0  0  0  0  0  0
  -25.0120  -34.0560   24.9870 H   0  0  0  0  0  0  0  0  0  0  0  0
  -24.1600  -36.7570   23.0960 C   0  0  0  0  0  1  0  0  0  0  0  0
  -25.4110  -36.3540   23.8920 C   0  0  0  0  0  3  0  0  0  0  0  0
  -27.5490  -37.2380   24.7020 C   0  0  0  0  0  1  0  0  0  0  0  0
  -26.4380  -37.4130   23.7720 N   0  0  0  0  0  0  0  0  0  0  0  0
  -26.0310  -38.3290   23.9400 H   0  0  0  0  0  0  0  0  0  0  0  0
  -28.8930  -20.1800   20.8370 C   0  0  0  0  0  2  0  0  0  0  0  0
  -29.1820  -18.7940   19.9730 C   0  0  0  0  0  2  0  0  0  0  0  0
  -29.9090  -17.5000   20.7160 C   0  0  0  0  0  2  0  0  0  0  0  0
  -30.5150  -14.8790   20.3200 C   0  0  0  0  0  0  0  0  0  0  0  0
  -30.4070  -12.5540   19.3620 C   0  0  0  0  0  2  0  0  0  0  0  0
  -29.4590  -12.5320   18.1410 C   0  0  0  0  0  2  0  0  0  0  0  0
  -27.9940  -12.3440   18.5860 C   0  0  0  0  0  2  0  0  0  0  0  0
  -27.6040  -13.2800   19.7570 C   0  0  0  0  0  3  0  0  0  0  0  0
  -28.6580  -13.2530   20.8780 C   0  0  0  0  0  2  0  0  0  0  0  0
  -29.9350  -13.6280   20.2660 N   0  0  0  0  0  0  0  0  0  0  0  0
  -31.7310  -14.9840   20.1250 O   0  0  0  0  0  0  0  0  0  0  0  0
  -29.6720  -16.0010   20.3910 N   0  0  0  0  0  0  0  0  0  0  0  0
  -28.6970  -15.7410   20.4060 H   0  0  0  0  0  0  0  0  0  0  0  0
  -25.2270  -13.8890   20.4850 C   0  0  0  0  0  0  0  0  0  0  0  0
  -24.1560  -13.1190   20.8580 C   0  0  0  0  0  0  0  0  0  0  0  0
  -24.6190  -11.7660   20.8420 C   0  0  0  0  0  0  0  0  0  0  0  0
  -26.2660  -13.0020   20.2590 N   0  0  0  0  0  0  0  0  0  0  0  0
  -25.9090  -11.7240   20.5390 N   0  0  0  0  0  0  0  0  0  0  0  0
  -23.8870  -10.5080   21.0360 C   0  0  0  0  0  0  0  0  0  0  0  0
  -24.3210   -9.5420   21.9710 C   0  0  0  0  0  3  0  0  0  0  0  0
  -23.5920   -8.3460   22.1530 C   0  0  0  0  0  3  0  0  0  0  0  0
  -22.4160   -8.1100   21.4000 C   0  0  0  0  0  0  0  0  0  0  0  0
  -22.0050   -9.0650   20.4540 C   0  0  0  0  0  3  0  0  0  0  0  0
  -22.7330  -10.2510   20.2720 C   0  0  0  0  0  3  0  0  0  0  0  0
  -21.6600   -6.9670   21.4920 O   0  0  0  0  0  0  0  0  0  0  0  0
  -21.6210   -6.2210   22.6430 C   0  0  0  0  0  0  0  0  0  0  0  0
  -21.2170   -6.7740   23.8770 C   0  0  0  0  0  3  0  0  0  0  0  0
  -21.1260   -5.9550   25.0200 C   0  0  0  0  0  3  0  0  0  0  0  0
  -21.4290   -4.5840   24.9300 C   0  0  0  0  0  0  0  0  0  0  0  0
  -21.8250   -4.0290   23.7000 C   0  0  0  0  0  3  0  0  0  0  0  0
  -21.9190   -4.8470   22.5590 C   0  0  0  0  0  0  0  0  0  0  0  0
  -22.2830   -4.3040   21.3720 F   0  0  0  0  0  0  0  0  0  0  0  0
  -21.3340   -3.7940   26.0240 F   0  0  0  0  0  0  0  0  0  0  0  0
  -22.7610  -13.6010   21.1170 C   0  0  0  0  0  0  0  0  0  0  0  0
  -22.0280  -12.9110   21.9850 N   0  0  0  0  0  0  0  0  0  0  0  0
  -22.3260  -14.6230   20.5860 O   0  0  0  0  0  0  0  0  0  0  0  0
  -22.3900  -12.0760   22.4250 H   0  0  0  0  0  0  0  0  0  0  0  0
  -21.0930  -13.2170   22.2130 H   0  0  0  0  0  0  0  0  0  0  0  0
  -25.3990  -15.2560   20.2930 N   0  0  0  0  0  0  0  0  0  0  0  0
  -24.6310  -15.9160   20.3670 H   0  0  0  0  0  0  0  0  0  0  0  0
  -26.2330  -15.6700   19.8980 H   0  0  0  0  0  0  0  0  0  0  0  0
  1  3  1  0
  1  5  2  0
  3  6  1  0
  4  2  1  0
  5  8  1  0
  5  2  1  0
  6 49  1  0
  6  4  1  0
  6  7  1  6
  8 10  1  0
  9 20  2  0
 10 15  1  0
 11 19  1  0
 11 21  1  0
 12 18  1  0
 12 14  1  0
 13 19  1  0
 14 13  1  0
 15 14  2  0
 16 17  1  0
 16 10  2  0
 17 12  2  0
 18 11  1  0
 19  9  1  0
 21 23  2  0
 22 21  1  0
 24 22  1  0
 25 34  2  0
 25 30  1  0
 26 22  1  0
 26 30  1  0
 27 26  1  0
 28 29  1  0
 28 27  1  0
 29 25  1  0
 30 31  2  0
 31 32  1  0
 33 32  2  0
 34 33  1  0
 35  9  1  0
 35 40  1  0
 35 36  1  0
 36 39  1  1
 36 37  1  0
 38 36  1  0
 40 43  1  0
 41 45  1  0
 41 40  1  0
 42 41  2  0
 45 44  1  0
 47 45  1  0
 47 48  1  0
 47 46  1  0
 50 51  1  0
 50 49  1  0
 52 60  1  0
 53 58  1  0
 54 55  1  0
 54 53  1  0
 56 55  1  0
 56 65  1  0
 56 57  1  0
 58 52  1  0
 58 57  1  0
 59 52  2  0
 60 61  1  0
 60 51  1  0
 62 63  2  0
 63 82  1  0
 64 63  1  0
 64 67  1  0
 65 62  1  0
 65 66  1  0
 66 64  2  0
 67 68  1  0
 68 69  2  0
 70 73  1  0
 70 69  1  0
 71 70  2  0
 72 71  1  0
 72 67  2  0
 73 74  1  0
 74 75  1  0
 75 76  2  0
 77 76  1  0
 77 81  1  0
 78 77  2  0
 79 74  2  0
 79 78  1  0
 80 79  1  0
 82 83  1  0
 83 86  1  0
 83 85  1  0
 84 82  2  0
 87 88  1  0
 87 62  1  0
 89 87  1  0
M  ISO  4   5 101   8 101  52 100  60 100
M  END
>  <TORSDO>  (88) 
F 19

>  <SCORE>  (88) 
-14.091

>  <name>  (88) 
87

>  <ligand_id>  (88) 
87

>  <original_smiles>  (88) 
[H]c1c([H])c([H])c2c(c1[H])C([H])([H])C([H])([H])C([H])([H])C2([H])N([H])C(=O)C1([H])N(C(=O)C([H])(N([H])C(=O)C([H])(N([H])C([H])([H])[H])C([H])([H])[H])C(C([H])([H])[H])(C([H])([H])[H])C([H])([H])[H])C([H])([H])c2c([H])c(OC3([H])C([H])([H])C([H])([H])[N+]([H])(C([H])([H])C([H])([H])C([H])([H])N([H])C(=O)N4C([H])([H])C([H])([H])C([H])([H])C([H])(n5nc(-c6c([H])c([H])c(Oc7c([H])c([H])c(F)c([H])c7F)c([H])c6[H])c(C(=O)N([H])[H])c5N([H])[H])C4([H])[H])C([H])([H])C3([H])[H])c([H])c([H])c2C1([H])[H]

>  <smiles>  (88) 
[H]c1c([H])c([H])c2c(c1[H])C([H])([H])C([H])([H])C([H])([H])C2([H])N([H])C(=O)C1([H])N(C(=O)C([H])(N([H])C(=O)C([H])(N([H])C([H])([H])[H])C([H])([H])[H])C(C([H])([H])[H])(C([H])([H])[H])C([H])([H])[H])C([H])([H])c2c([H])c(OC3([H])C([H])([H])C([H])([H])[N+]([H])(C([H])([H])C([H])([H])C([H])([H])N([H])C(=O)N4C([H])([H])C([H])([H])C([H])([H])C([H])(n5nc(-c6c([H])c([H])c(Oc7c([H])c([H])c(F)c([H])c7F)c([H])c6[H])c(C(=O)N([H])[H])c5N([H])[H])C4([H])[H])C([H])([H])C3([H])[H])c([H])c([H])c2C1([H])[H]

$$$$
88:0:0
     RDKit          3D

 90 98  0  0  1  0  0  0  0  0999 V2000
  -27.8950  -20.8540   20.5100 C   0  0  0  0  0  3  0  0  0  0  0  0
  -27.4700  -19.5120   20.6390 C   0  0  0  0  0  3  0  0  0  0  0  0
  -30.0380  -20.0280   19.7420 C   0  0  0  0  0  3  0  0  0  0  0  0
  -29.6350  -18.6320   19.8850 C   0  0  0  0  0  0  0  0  0  0  0  0
  -29.1910  -21.1740   20.0430 C   0  0  0  0  0  0  0  0  0  0  0  0
  -28.3130  -18.4230   20.3320 C   0  0  0  0  0  0  0  0  0  0  0  0
  -27.8340  -17.1640   20.4750 F   0  0  0  0  0  0  0  0  0  0  0  0
  -30.5990  -17.3880   19.5990 C   0  0  0  0  0  2  0  0  0  0  0  0
  -31.0220  -14.8030   19.7890 C   0  0  0  0  0  0  0  0  0  0  0  0
  -30.8090  -12.4710   18.9320 C   0  0  0  0  0  2  0  0  0  0  0  0
  -29.8120  -12.4650   17.7530 C   0  0  0  0  0  2  0  0  0  0  0  0
  -28.3680  -12.2960   18.2680 C   0  0  0  0  0  2  0  0  0  0  0  0
  -28.0420  -13.2460   19.4520 C   0  0  0  0  0  3  0  0  0  0  0  0
  -29.1560  -13.2390   20.5200 C   0  0  0  0  0  2  0  0  0  0  0  0
  -30.4140  -13.5710   19.8420 N   0  0  0  0  0  0  0  0  0  0  0  0
  -32.1860  -14.8960   19.3860 O   0  0  0  0  0  0  0  0  0  0  0  0
  -30.2500  -15.9410   19.9640 N   0  0  0  0  0  0  0  0  0  0  0  0
  -29.3070  -15.7970   20.2980 H   0  0  0  0  0  0  0  0  0  0  0  0
  -25.7230  -13.8530   20.3630 C   0  0  0  0  0  0  0  0  0  0  0  0
  -24.6700  -13.0840   20.7790 C   0  0  0  0  0  0  0  0  0  0  0  0
  -25.1030  -11.7280   20.6730 C   0  0  0  0  0  0  0  0  0  0  0  0
  -26.7300  -12.9640   20.0270 N   0  0  0  0  0  0  0  0  0  0  0  0
  -26.3690  -11.6790   20.2750 N   0  0  0  0  0  0  0  0  0  0  0  0
  -24.3670  -10.4730   20.8730 C   0  0  0  0  0  0  0  0  0  0  0  0
  -24.7630   -9.5300   21.8460 C   0  0  0  0  0  3  0  0  0  0  0  0
  -24.0260   -8.3390   22.0310 C   0  0  0  0  0  3  0  0  0  0  0  0
  -22.8800   -8.0840   21.2420 C   0  0  0  0  0  0  0  0  0  0  0  0
  -22.5030   -9.0160   20.2580 C   0  0  0  0  0  3  0  0  0  0  0  0
  -23.2410  -10.1970   20.0710 C   0  0  0  0  0  3  0  0  0  0  0  0
  -22.1180   -6.9450   21.3330 O   0  0  0  0  0  0  0  0  0  0  0  0
  -21.9240   -6.3030   22.5300 C   0  0  0  0  0  0  0  0  0  0  0  0
  -21.3220   -6.9480   23.6320 C   0  0  0  0  0  3  0  0  0  0  0  0
  -21.0790   -6.2320   24.8210 C   0  0  0  0  0  3  0  0  0  0  0  0
  -21.4270   -4.8700   24.9060 C   0  0  0  0  0  0  0  0  0  0  0  0
  -22.0210   -4.2250   23.8080 C   0  0  0  0  0  3  0  0  0  0  0  0
  -22.2660   -4.9390   22.6220 C   0  0  0  0  0  0  0  0  0  0  0  0
  -22.8190   -4.3060   21.5600 F   0  0  0  0  0  0  0  0  0  0  0  0
  -21.1860   -4.1790   26.0450 F   0  0  0  0  0  0  0  0  0  0  0  0
  -23.3040  -13.5780   21.1610 C   0  0  0  0  0  0  0  0  0  0  0  0
  -22.6280  -12.8710   22.0600 N   0  0  0  0  0  0  0  0  0  0  0  0
  -22.8480  -14.6230   20.6990 O   0  0  0  0  0  0  0  0  0  0  0  0
  -23.0100  -12.0250   22.4540 H   0  0  0  0  0  0  0  0  0  0  0  0
  -21.7140  -13.1820   22.3590 H   0  0  0  0  0  0  0  0  0  0  0  0
  -25.8990  -15.2250   20.2220 N   0  0  0  0  0  0  0  0  0  0  0  0
  -25.1650  -15.8890   20.4430 H   0  0  0  0  0  0  0  0  0  0  0  0
  -26.7630  -15.6740   19.9480 H   0  0  0  0  0  0  0  0  0  0  0  0
  -29.6080  -22.5310   19.8650 O   0  0  0  0  0  0  0  0  0  0  0  0
  -28.8180  -23.7280   20.3110 C   0  0  0  0  0  2  0  0  0  0  0  0
  -29.1210  -25.1730   19.6360 C   0  0  0  0  0  2  0  0  0  0  0  0
  -28.9260  -26.5030   20.3090 O   0  0  0  0  0  0  0  0  0  0  0  0
  -24.8920  -31.7150   23.2970 C   0  0  0  0  0  0  0  0  0  0  0  0
  -27.7690  -27.3060   20.2100 C   0  0  0  0  0  0  0  0  0  0  0  0
  -23.7990  -30.3270   21.5730 C   0  0  0  0  0  3  0  0  0  0  0  0
  -25.3540  -28.8620   20.1560 C   0  0  0  0  0  0  0  0  0  0  0  0
  -26.3320  -30.7260   21.4980 C   0  0  0  0  0  2  0  0  0  0  0  0
  -26.4820  -29.3670   20.8120 C   0  0  0  0  0  0  0  0  0  0  0  0
  -27.6880  -28.6000   20.8290 C   0  0  0  0  0  3  0  0  0  0  0  0
  -26.6140  -26.8580   19.5360 C   0  0  0  0  0  3  0  0  0  0  0  0
  -25.4240  -27.6170   19.5090 C   0  0  0  0  0  3  0  0  0  0  0  0
  -24.0880  -29.6980   20.1830 C   0  0  0  0  0  2  0  0  0  0  0  0
  -25.0240  -30.9400   22.1800 N   0  0  0  0  0  0  0  0  0  0  0  0
  -23.7800  -31.9410   23.7980 O   0  0  0  0  0  0  0  0  0  0  0  0
  -23.1340  -29.2630   22.4800 C   0  0  0  0  0  0  0  0  0  0  0  0
  -21.8220  -29.0400   22.2910 N   0  0  0  0  0  0  0  0  0  0  0  0
  -23.8000  -28.6430   23.3130 O   0  0  0  0  0  0  0  0  0  0  0  0
  -21.3420  -29.5940   21.5940 H   0  0  0  0  0  0  0  0  0  0  0  0
  -18.4730  -27.7110   22.6230 C   0  0  0  0  0  0  0  0  0  0  0  0
  -21.0080  -28.0520   23.0010 C   0  0  0  0  0  3  0  0  0  0  0  0
  -21.1830  -26.6430   22.3870 C   0  0  0  0  0  2  0  0  0  0  0  0
  -20.1330  -26.3140   21.3230 C   0  0  0  0  0  2  0  0  0  0  0  0
  -18.7240  -26.3900   21.9160 C   0  0  0  0  0  2  0  0  0  0  0  0
  -19.5450  -28.4980   23.1190 C   0  0  0  0  0  0  0  0  0  0  0  0
  -19.2590  -29.7340   23.7390 C   0  0  0  0  0  3  0  0  0  0  0  0
  -17.9300  -30.1840   23.8680 C   0  0  0  0  0  3  0  0  0  0  0  0
  -16.8710  -29.3930   23.3880 C   0  0  0  0  0  3  0  0  0  0  0  0
  -17.1430  -28.1590   22.7710 C   0  0  0  0  0  3  0  0  0  0  0  0
  -26.1270  -32.3710   23.9890 C   0  0  0  0  0  3  0  0  0  0  0  0
  -26.6280  -31.5720   25.2540 C   0  0  1  0  0  0  0  0  0  0  0  0
  -25.5060  -31.2430   26.2660 C   0  0  0  0  0  1  0  0  0  0  0  0
  -27.2900  -30.2400   24.8350 C   0  0  0  0  0  1  0  0  0  0  0  0
  -27.7130  -32.3910   25.9940 C   0  0  0  0  0  1  0  0  0  0  0  0
  -25.7520  -33.7430   24.3600 N   0  0  0  0  0  0  0  0  0  0  0  0
  -26.0630  -34.8370   23.6520 C   0  0  0  0  0  0  0  0  0  0  0  0
  -26.7630  -34.8000   22.6370 O   0  0  0  0  0  0  0  0  0  0  0  0
  -25.1310  -33.8430   25.1490 H   0  0  0  0  0  0  0  0  0  0  0  0
  -24.2750  -36.5770   23.3200 C   0  0  0  0  0  1  0  0  0  0  0  0
  -25.5100  -36.1880   24.1480 C   0  0  0  0  0  3  0  0  0  0  0  0
  -27.5820  -37.1260   25.0750 C   0  0  0  0  0  1  0  0  0  0  0  0
  -26.5030  -37.2830   24.1030 N   0  0  0  0  0  0  0  0  0  0  0  0
  -26.0570  -38.1820   24.2670 H   0  0  0  0  0  0  0  0  0  0  0  0
  1  2  1  0
  3  4  2  0
  3  5  1  0
  4  6  1  0
  5  1  2  0
  6  7  1  0
  6  2  2  0
  8  4  1  0
  8 17  1  0
  9 15  1  0
  9 17  1  0
 10 15  1  0
 11 12  1  0
 11 10  1  0
 13 12  1  0
 13 22  1  0
 13 14  1  0
 15 14  1  0
 16  9  2  0
 17 18  1  0
 19 20  2  0
 20 39  1  0
 21 20  1  0
 21 24  1  0
 22 23  1  0
 22 19  1  0
 23 21  2  0
 24 25  1  0
 25 26  2  0
 27 30  1  0
 27 26  1  0
 28 27  2  0
 29 28  1  0
 29 24  2  0
 30 31  1  0
 31 36  2  0
 31 32  1  0
 32 33  2  0
 33 34  1  0
 34 38  1  0
 35 34  2  0
 36 35  1  0
 37 36  1  0
 39 40  1  0
 40 43  1  0
 40 42  1  0
 41 39  2  0
 44 19  1  0
 44 45  1  0
 46 44  1  0
 47  5  1  0
 47 48  1  0
 49 50  1  0
 49 48  1  0
 51 62  2  0
 52 50  1  0
 52 57  1  0
 53 61  1  0
 53 63  1  0
 54 60  1  0
 54 56  1  0
 55 61  1  0
 56 57  2  0
 56 55  1  0
 58 52  2  0
 59 58  1  0
 59 54  2  0
 60 53  1  0
 61 51  1  0
 63 65  2  0
 64 63  1  0
 66 64  1  0
 67 76  2  0
 67 72  1  0
 68 64  1  0
 68 72  1  0
 69 68  1  0
 70 71  1  0
 70 69  1  0
 71 67  1  0
 72 73  2  0
 73 74  1  0
 75 74  2  0
 76 75  1  0
 77 51  1  0
 77 82  1  0
 77 78  1  0
 78 81  1  1
 78 79  1  0
 80 78  1  0
 82 85  1  0
 83 87  1  0
 83 82  1  0
 84 83  2  0
 87 86  1  0
 89 87  1  0
 89 90  1  0
 89 88  1  0
M  ISO  4   9 100  17 100  49 101  50 101
M  END
>  <TORSDO>  (89) 
F 20

>  <SCORE>  (89) 
-12.238

>  <name>  (89) 
88

>  <ligand_id>  (89) 
88

>  <original_smiles>  (89) 
[H]c1c([H])c([H])c2c(c1[H])C([H])([H])C([H])([H])C([H])([H])C2([H])N([H])C(=O)C1([H])N(C(=O)C([H])(N([H])C(=O)C([H])(N([H])C([H])([H])[H])C([H])([H])[H])C(C([H])([H])[H])(C([H])([H])[H])C([H])([H])[H])C([H])([H])c2c([H])c(OC([H])([H])C([H])([H])Oc3c([H])c([H])c(F)c(C([H])([H])N([H])C(=O)N4C([H])([H])C([H])([H])C([H])([H])C([H])(n5nc(-c6c([H])c([H])c(Oc7c([H])c([H])c(F)c([H])c7F)c([H])c6[H])c(C(=O)N([H])[H])c5N([H])[H])C4([H])[H])c3[H])c([H])c([H])c2C1([H])[H]

>  <smiles>  (89) 
[H]c1c([H])c([H])c2c(c1[H])C([H])([H])C([H])([H])C([H])([H])C2([H])N([H])C(=O)C1([H])N(C(=O)C([H])(N([H])C(=O)C([H])(N([H])C([H])([H])[H])C([H])([H])[H])C(C([H])([H])[H])(C([H])([H])[H])C([H])([H])[H])C([H])([H])c2c([H])c(OC([H])([H])C([H])([H])Oc3c([H])c([H])c(F)c(C([H])([H])N([H])C(=O)N4C([H])([H])C([H])([H])C([H])([H])C([H])(n5nc(-c6c([H])c([H])c(Oc7c([H])c([H])c(F)c([H])c7F)c([H])c6[H])c(C(=O)N([H])[H])c5N([H])[H])C4([H])[H])c3[H])c([H])c([H])c2C1([H])[H]

$$$$
89:0:0
     RDKit          3D

 88 96  0  0  1  0  0  0  0  0999 V2000
  -28.9350  -21.6710   20.6200 N   0  0  0  0  0  4  0  0  0  0  0  0
  -29.7150  -21.7610   21.2540 H   0  0  0  0  0  0  0  0  0  0  0  0
  -28.1220  -21.6440   21.2150 H   0  0  0  0  0  0  0  0  0  0  0  0
  -30.3400  -17.9040   18.9460 C   0  0  0  0  0  2  0  0  0  0  0  0
  -29.4450  -17.5220   21.1480 C   0  0  0  0  0  2  0  0  0  0  0  0
  -30.3190  -19.4920   19.4180 C   0  0  0  0  0  2  0  0  0  0  0  0
  -28.6060  -18.9400   21.0390 C   0  0  0  0  0  2  0  0  0  0  0  0
  -29.7730  -16.6710   19.8400 C   0  0  0  0  0  3  0  0  0  0  0  0
  -28.9960  -20.1520   20.0330 C   0  0  0  0  0  3  0  0  0  0  0  0
  -30.5840  -15.1590   19.8330 C   0  0  0  0  0  0  0  0  0  0  0  0
  -30.4560  -12.7600   18.9500 C   0  0  0  0  0  2  0  0  0  0  0  0
  -29.4530  -12.6740   17.7740 C   0  0  0  0  0  2  0  0  0  0  0  0
  -28.0250  -12.4300   18.2960 C   0  0  0  0  0  2  0  0  0  0  0  0
  -27.6730  -13.3570   19.4870 C   0  0  0  0  0  3  0  0  0  0  0  0
  -28.7960  -13.4380   20.5390 C   0  0  0  0  0  2  0  0  0  0  0  0
  -30.0170  -13.8730   19.8510 N   0  0  0  0  0  0  0  0  0  0  0  0
  -31.7880  -15.1680   19.5460 O   0  0  0  0  0  0  0  0  0  0  0  0
  -25.3690  -13.9020   20.4410 C   0  0  0  0  0  0  0  0  0  0  0  0
  -24.3320  -13.1150   20.8560 C   0  0  0  0  0  0  0  0  0  0  0  0
  -24.7860  -11.7650   20.7410 C   0  0  0  0  0  0  0  0  0  0  0  0
  -26.3830  -13.0320   20.0830 N   0  0  0  0  0  0  0  0  0  0  0  0
  -26.0510  -11.7380   20.3310 N   0  0  0  0  0  0  0  0  0  0  0  0
  -24.0670  -10.4990   20.9360 C   0  0  0  0  0  0  0  0  0  0  0  0
  -24.5180   -9.5270   21.8550 C   0  0  0  0  0  3  0  0  0  0  0  0
  -23.7970   -8.3270   22.0390 C   0  0  0  0  0  3  0  0  0  0  0  0
  -22.6110   -8.0910   21.3040 C   0  0  0  0  0  0  0  0  0  0  0  0
  -22.1790   -9.0530   20.3730 C   0  0  0  0  0  3  0  0  0  0  0  0
  -22.9000  -10.2440   20.1870 C   0  0  0  0  0  3  0  0  0  0  0  0
  -21.8580   -6.9460   21.3990 O   0  0  0  0  0  0  0  0  0  0  0  0
  -21.7770   -6.2320   22.5670 C   0  0  0  0  0  0  0  0  0  0  0  0
  -21.2920   -6.8100   23.7610 C   0  0  0  0  0  3  0  0  0  0  0  0
  -21.1590   -6.0220   24.9220 C   0  0  0  0  0  3  0  0  0  0  0  0
  -21.5010   -4.6580   24.8900 C   0  0  0  0  0  0  0  0  0  0  0  0
  -21.9800   -4.0790   23.7010 C   0  0  0  0  0  3  0  0  0  0  0  0
  -22.1140   -4.8640   22.5420 C   0  0  0  0  0  0  0  0  0  0  0  0
  -22.5550   -4.2960   21.3940 F   0  0  0  0  0  0  0  0  0  0  0  0
  -21.3680   -3.8980   26.0030 F   0  0  0  0  0  0  0  0  0  0  0  0
  -22.9600  -13.5870   21.2450 C   0  0  0  0  0  0  0  0  0  0  0  0
  -22.2890  -12.8600   22.1300 N   0  0  0  0  0  0  0  0  0  0  0  0
  -22.4970  -14.6340   20.7970 O   0  0  0  0  0  0  0  0  0  0  0  0
  -22.6790  -12.0100   22.5120 H   0  0  0  0  0  0  0  0  0  0  0  0
  -21.3740  -13.1600   22.4320 H   0  0  0  0  0  0  0  0  0  0  0  0
  -25.5290  -15.2780   20.3090 N   0  0  0  0  0  0  0  0  0  0  0  0
  -24.7820  -15.9330   20.5160 H   0  0  0  0  0  0  0  0  0  0  0  0
  -26.3630  -15.7310   19.9560 H   0  0  0  0  0  0  0  0  0  0  0  0
  -28.7830  -23.1040   19.8740 C   0  0  0  0  0  2  0  0  0  0  0  0
  -28.1810  -24.5640   20.5990 C   0  0  0  0  0  2  0  0  0  0  0  0
  -28.3770  -26.1140   20.2680 O   0  0  0  0  0  0  0  0  0  0  0  0
  -24.7300  -31.9160   23.2150 C   0  0  0  0  0  0  0  0  0  0  0  0
  -27.3200  -27.1190   20.2580 C   0  0  0  0  0  0  0  0  0  0  0  0
  -23.5410  -30.4980   21.5890 C   0  0  0  0  0  3  0  0  0  0  0  0
  -24.9960  -28.8990   20.1900 C   0  0  0  0  0  0  0  0  0  0  0  0
  -26.0970  -30.7550   21.4290 C   0  0  0  0  0  2  0  0  0  0  0  0
  -26.1780  -29.3480   20.7960 C   0  0  0  0  0  0  0  0  0  0  0  0
  -27.3420  -28.4780   20.8030 C   0  0  0  0  0  3  0  0  0  0  0  0
  -26.1120  -26.7870   19.6110 C   0  0  0  0  0  3  0  0  0  0  0  0
  -24.9810  -27.6360   19.5780 C   0  0  0  0  0  3  0  0  0  0  0  0
  -23.7690  -29.8010   20.2210 C   0  0  0  0  0  2  0  0  0  0  0  0
  -24.8100  -31.0810   22.1320 N   0  0  0  0  0  0  0  0  0  0  0  0
  -23.6410  -32.2030   23.7360 O   0  0  0  0  0  0  0  0  0  0  0  0
  -22.8590  -29.5030   22.5630 C   0  0  0  0  0  0  0  0  0  0  0  0
  -21.5300  -29.3340   22.4440 N   0  0  0  0  0  0  0  0  0  0  0  0
  -23.5310  -28.8830   23.3910 O   0  0  0  0  0  0  0  0  0  0  0  0
  -21.0410  -29.8860   21.7530 H   0  0  0  0  0  0  0  0  0  0  0  0
  -18.1490  -28.1380   22.9760 C   0  0  0  0  0  0  0  0  0  0  0  0
  -20.7100  -28.4020   23.2260 C   0  0  0  0  0  3  0  0  0  0  0  0
  -20.8070  -26.9670   22.6610 C   0  0  0  0  0  2  0  0  0  0  0  0
  -19.6980  -26.6370   21.6550 C   0  0  0  0  0  2  0  0  0  0  0  0
  -18.3200  -26.7860   22.3060 C   0  0  0  0  0  2  0  0  0  0  0  0
  -19.2700  -28.9040   23.3940 C   0  0  0  0  0  0  0  0  0  0  0  0
  -19.0530  -30.1680   23.9840 C   0  0  0  0  0  3  0  0  0  0  0  0
  -17.7490  -30.6680   24.1580 C   0  0  0  0  0  3  0  0  0  0  0  0
  -16.6430  -29.9000   23.7550 C   0  0  0  0  0  3  0  0  0  0  0  0
  -16.8430  -28.6370   23.1700 C   0  0  0  0  0  3  0  0  0  0  0  0
  -26.0020  -32.5670   23.8380 C   0  0  0  0  0  3  0  0  0  0  0  0
  -26.5200  -31.8080   25.1220 C   0  0  1  0  0  0  0  0  0  0  0  0
  -25.4250  -31.5690   26.1890 C   0  0  0  0  0  1  0  0  0  0  0  0
  -27.1160  -30.4320   24.7480 C   0  0  0  0  0  1  0  0  0  0  0  0
  -27.6620  -32.6160   25.7840 C   0  0  0  0  0  1  0  0  0  0  0  0
  -25.6770  -33.9650   24.1690 N   0  0  0  0  0  0  0  0  0  0  0  0
  -25.9980  -35.0240   23.4140 C   0  0  0  0  0  0  0  0  0  0  0  0
  -26.6640  -34.9280   22.3800 O   0  0  0  0  0  0  0  0  0  0  0  0
  -25.0850  -34.1130   24.9730 H   0  0  0  0  0  0  0  0  0  0  0  0
  -24.2580  -36.8120   23.0740 C   0  0  0  0  0  1  0  0  0  0  0  0
  -25.5050  -36.4100   23.8780 C   0  0  0  0  0  3  0  0  0  0  0  0
  -27.6340  -37.3110   24.7060 C   0  0  0  0  0  1  0  0  0  0  0  0
  -26.5300  -37.4710   23.7630 N   0  0  0  0  0  0  0  0  0  0  0  0
  -26.1180  -38.3880   23.9100 H   0  0  0  0  0  0  0  0  0  0  0  0
  1  3  1  0
  1  2  1  0
  4  6  1  0
  4  8  1  0
  6  9  1  0
  7  5  1  0
  8 10  1  0
  8  5  1  0
  9  1  1  0
  9  7  1  0
 10 16  1  0
 11 16  1  0
 12 13  1  0
 12 11  1  0
 14 13  1  0
 14 21  1  0
 14 15  1  0
 16 15  1  0
 17 10  2  0
 18 19  2  0
 19 38  1  0
 20 19  1  0
 20 23  1  0
 21 22  1  0
 21 18  1  0
 22 20  2  0
 23 24  1  0
 24 25  2  0
 26 29  1  0
 26 25  1  0
 27 26  2  0
 28 27  1  0
 28 23  2  0
 29 30  1  0
 30 31  1  0
 31 32  2  0
 33 32  1  0
 33 37  1  0
 34 33  2  0
 35 30  2  0
 35 34  1  0
 36 35  1  0
 38 39  1  0
 39 42  1  0
 39 41  1  0
 40 38  2  0
 43 18  1  0
 43 44  1  0
 45 43  1  0
 46 47  1  0
 46  1  1  0
 48 47  1  0
 49 60  2  0
 50 48  1  0
 50 55  1  0
 51 59  1  0
 51 61  1  0
 52 58  1  0
 52 54  1  0
 53 59  1  0
 54 55  2  0
 54 53  1  0
 56 50  2  0
 57 56  1  0
 57 52  2  0
 58 51  1  0
 59 49  1  0
 61 63  2  0
 62 61  1  0
 64 62  1  0
 65 74  2  0
 65 70  1  0
 66 62  1  0
 66 70  1  0
 67 66  1  0
 68 69  1  0
 68 67  1  0
 69 65  1  0
 70 71  2  0
 71 72  1  0
 73 72  2  0
 74 73  1  0
 75 49  1  0
 75 80  1  0
 75 76  1  0
 76 79  1  1
 76 77  1  0
 78 76  1  0
 80 83  1  0
 81 85  1  0
 81 80  1  0
 82 81  2  0
 85 84  1  0
 87 85  1  0
 87 88  1  0
 87 86  1  0
M  ISO  4   8 100  10 100  47 101  48 101
M  END
>  <TORSDO>  (90) 
F 19

>  <SCORE>  (90) 
-14.674

>  <name>  (90) 
89

>  <ligand_id>  (90) 
89

>  <original_smiles>  (90) 
[H]c1c([H])c([H])c2c(c1[H])C([H])([H])C([H])([H])C([H])([H])C2([H])N([H])C(=O)C1([H])N(C(=O)C([H])(N([H])C(=O)C([H])(N([H])C([H])([H])[H])C([H])([H])[H])C(C([H])([H])[H])(C([H])([H])[H])C([H])([H])[H])C([H])([H])c2c([H])c(OC([H])([H])C([H])([H])[N+]([H])([H])C3([H])C([H])([H])C([H])([H])C([H])(C(=O)N4C([H])([H])C([H])([H])C([H])([H])C([H])(n5nc(-c6c([H])c([H])c(Oc7c([H])c([H])c(F)c([H])c7F)c([H])c6[H])c(C(=O)N([H])[H])c5N([H])[H])C4([H])[H])C([H])([H])C3([H])[H])c([H])c([H])c2C1([H])[H]

>  <smiles>  (90) 
[H]c1c([H])c([H])c2c(c1[H])C([H])([H])C([H])([H])C([H])([H])C2([H])N([H])C(=O)C1([H])N(C(=O)C([H])(N([H])C(=O)C([H])(N([H])C([H])([H])[H])C([H])([H])[H])C(C([H])([H])[H])(C([H])([H])[H])C([H])([H])[H])C([H])([H])c2c([H])c(OC([H])([H])C([H])([H])[N+]([H])([H])C3([H])C([H])([H])C([H])([H])C([H])(C(=O)N4C([H])([H])C([H])([H])C([H])([H])C([H])(n5nc(-c6c([H])c([H])c(Oc7c([H])c([H])c(F)c([H])c7F)c([H])c6[H])c(C(=O)N([H])[H])c5N([H])[H])C4([H])[H])C([H])([H])C3([H])[H])c([H])c([H])c2C1([H])[H]

$$$$
90:0:0
     RDKit          3D

 92100  0  0  1  0  0  0  0  0999 V2000
  -27.9390  -21.8940   20.7260 C   0  0  0  0  0  2  0  0  0  0  0  0
  -28.5030  -18.0980   20.3010 C   0  0  0  0  0  3  0  0  0  0  0  0
  -30.3620  -19.0050   21.5730 C   0  0  0  0  0  3  0  0  0  0  0  0
  -27.9810  -19.4010   20.1350 C   0  0  0  0  0  3  0  0  0  0  0  0
  -29.8390  -20.3090   21.4100 C   0  0  0  0  0  3  0  0  0  0  0  0
  -29.6800  -17.8830   21.0510 C   0  0  0  0  0  0  0  0  0  0  0  0
  -28.6260  -20.5190   20.7140 C   0  0  0  0  0  0  0  0  0  0  0  0
  -30.1700  -16.4620   21.3430 C   0  0  0  0  0  2  0  0  0  0  0  0
  -31.0560  -14.5510   20.0630 C   0  0  0  0  0  0  0  0  0  0  0  0
  -30.6810  -12.3980   18.9380 C   0  0  0  0  0  2  0  0  0  0  0  0
  -29.7080  -12.6510   17.7690 C   0  0  0  0  0  2  0  0  0  0  0  0
  -28.2430  -12.5570   18.2430 C   0  0  0  0  0  2  0  0  0  0  0  0
  -27.9700  -13.3750   19.5340 C   0  0  0  0  0  3  0  0  0  0  0  0
  -29.0610  -13.1150   20.5980 C   0  0  0  0  0  2  0  0  0  0  0  0
  -30.3650  -13.3850   19.9780 N   0  0  0  0  0  0  0  0  0  0  0  0
  -32.2140  -14.6810   19.6640 O   0  0  0  0  0  0  0  0  0  0  0  0
  -30.2870  -15.6440   20.1430 N   0  0  0  0  0  0  0  0  0  0  0  0
  -30.4810  -16.2510   19.3630 H   0  0  0  0  0  0  0  0  0  0  0  0
  -25.6080  -14.0360   20.3140 C   0  0  0  0  0  0  0  0  0  0  0  0
  -24.5330  -13.2840   20.7100 C   0  0  0  0  0  0  0  0  0  0  0  0
  -24.9640  -11.9230   20.6640 C   0  0  0  0  0  0  0  0  0  0  0  0
  -26.6270  -13.1320   20.0540 N   0  0  0  0  0  0  0  0  0  0  0  0
  -26.2450  -11.8580   20.3220 N   0  0  0  0  0  0  0  0  0  0  0  0
  -24.2170  -10.6750   20.8720 C   0  0  0  0  0  0  0  0  0  0  0  0
  -24.6290   -9.7210   21.8290 C   0  0  0  0  0  3  0  0  0  0  0  0
  -23.8870   -8.5360   22.0260 C   0  0  0  0  0  3  0  0  0  0  0  0
  -22.7170   -8.2970   21.2640 C   0  0  0  0  0  0  0  0  0  0  0  0
  -22.3240   -9.2380   20.2970 C   0  0  0  0  0  3  0  0  0  0  0  0
  -23.0670  -10.4140   20.0990 C   0  0  0  0  0  3  0  0  0  0  0  0
  -21.9490   -7.1630   21.3690 O   0  0  0  0  0  0  0  0  0  0  0  0
  -21.8380   -6.4740   22.5490 C   0  0  0  0  0  0  0  0  0  0  0  0
  -21.3720   -7.0910   23.7310 C   0  0  0  0  0  3  0  0  0  0  0  0
  -21.2050   -6.3280   24.9040 C   0  0  0  0  0  3  0  0  0  0  0  0
  -21.4970   -4.9510   24.8960 C   0  0  0  0  0  0  0  0  0  0  0  0
  -21.9580   -4.3350   23.7190 C   0  0  0  0  0  3  0  0  0  0  0  0
  -22.1260   -5.0940   22.5490 C   0  0  0  0  0  0  0  0  0  0  0  0
  -22.5500   -4.4920   21.4110 F   0  0  0  0  0  0  0  0  0  0  0  0
  -21.3300   -4.2160   26.0200 F   0  0  0  0  0  0  0  0  0  0  0  0
  -23.1520  -13.7880   21.0170 C   0  0  0  0  0  0  0  0  0  0  0  0
  -22.4380  -13.1120   21.9110 N   0  0  0  0  0  0  0  0  0  0  0  0
  -22.7150  -14.8150   20.5010 O   0  0  0  0  0  0  0  0  0  0  0  0
  -22.8050  -12.2800   22.3490 H   0  0  0  0  0  0  0  0  0  0  0  0
  -21.5120  -13.4310   22.1610 H   0  0  0  0  0  0  0  0  0  0  0  0
  -25.7970  -15.4030   20.1300 N   0  0  0  0  0  0  0  0  0  0  0  0
  -25.0570  -16.0870   20.2520 H   0  0  0  0  0  0  0  0  0  0  0  0
  -26.6570  -15.8080   19.7820 H   0  0  0  0  0  0  0  0  0  0  0  0
  -28.5620  -22.9720   19.9180 N   0  0  0  0  0  4  0  0  0  0  0  0
  -28.4370  -22.7490   18.9420 H   0  0  0  0  0  0  0  0  0  0  0  0
  -29.5560  -22.9820   20.0950 H   0  0  0  0  0  0  0  0  0  0  0  0
  -27.9680  -24.3100   20.2340 C   0  0  0  0  0  2  0  0  0  0  0  0
  -28.4670  -25.4940   19.3680 C   0  0  0  0  0  2  0  0  0  0  0  0
  -28.3300  -26.7680   20.0270 O   0  0  0  0  0  0  0  0  0  0  0  0
  -24.5210  -31.8890   23.2090 C   0  0  0  0  0  0  0  0  0  0  0  0
  -27.1290  -27.4560   20.0400 C   0  0  0  0  0  0  0  0  0  0  0  0
  -23.2920  -30.4980   21.5740 C   0  0  0  0  0  3  0  0  0  0  0  0
  -24.7260  -28.9640   20.1190 C   0  0  0  0  0  0  0  0  0  0  0  0
  -25.8150  -30.8470   21.3490 C   0  0  0  0  0  2  0  0  0  0  0  0
  -25.8910  -29.4780   20.7000 C   0  0  0  0  0  0  0  0  0  0  0  0
  -27.0900  -28.7280   20.6650 C   0  0  0  0  0  3  0  0  0  0  0  0
  -25.9420  -26.9580   19.4540 C   0  0  0  0  0  3  0  0  0  0  0  0
  -24.7460  -27.7060   19.4930 C   0  0  0  0  0  3  0  0  0  0  0  0
  -23.4860  -29.8290   20.1860 C   0  0  0  0  0  2  0  0  0  0  0  0
  -24.5610  -31.0940   22.1020 N   0  0  0  0  0  0  0  0  0  0  0  0
  -23.4480  -32.1600   23.7670 O   0  0  0  0  0  0  0  0  0  0  0  0
  -22.6550  -29.4700   22.5360 C   0  0  0  0  0  0  0  0  0  0  0  0
  -21.3330  -29.2660   22.4040 N   0  0  0  0  0  0  0  0  0  0  0  0
  -23.3420  -28.8610   23.3570 O   0  0  0  0  0  0  0  0  0  0  0  0
  -20.8420  -29.7830   21.6870 H   0  0  0  0  0  0  0  0  0  0  0  0
  -17.9680  -28.0630   22.9410 C   0  0  0  0  0  0  0  0  0  0  0  0
  -20.5260  -28.3420   23.1980 C   0  0  0  0  0  3  0  0  0  0  0  0
  -20.6290  -26.8990   22.6550 C   0  0  0  0  0  2  0  0  0  0  0  0
  -19.5370  -26.5770   21.6290 C   0  0  0  0  0  2  0  0  0  0  0  0
  -18.1580  -26.7070   22.2830 C   0  0  0  0  0  2  0  0  0  0  0  0
  -19.0830  -28.8410   23.3540 C   0  0  0  0  0  0  0  0  0  0  0  0
  -18.8570  -30.1100   23.9260 C   0  0  0  0  0  3  0  0  0  0  0  0
  -17.5500  -30.6030   24.0910 C   0  0  0  0  0  3  0  0  0  0  0  0
  -16.4510  -29.8240   23.6990 C   0  0  0  0  0  3  0  0  0  0  0  0
  -16.6610  -28.5540   23.1300 C   0  0  0  0  0  3  0  0  0  0  0  0
  -25.8160  -32.5160   23.8150 C   0  0  0  0  0  3  0  0  0  0  0  0
  -25.5160  -33.9130   24.1530 N   0  0  0  0  0  0  0  0  0  0  0  0
  -25.8470  -34.9670   23.3940 C   0  0  0  0  0  0  0  0  0  0  0  0
  -26.5090  -34.8620   22.3570 O   0  0  0  0  0  0  0  0  0  0  0  0
  -24.9280  -34.0720   24.9590 H   0  0  0  0  0  0  0  0  0  0  0  0
  -24.1240  -36.7680   23.0500 C   0  0  0  0  0  1  0  0  0  0  0  0
  -25.3660  -36.3560   23.8570 C   0  0  0  0  0  3  0  0  0  0  0  0
  -27.5080  -37.2260   24.6850 C   0  0  0  0  0  1  0  0  0  0  0  0
  -26.4020  -37.4050   23.7460 N   0  0  0  0  0  0  0  0  0  0  0  0
  -26.0020  -38.3270   23.8980 H   0  0  0  0  0  0  0  0  0  0  0  0
  -26.3510  -31.7380   25.0780 C   0  0  1  0  0  0  0  0  0  0  0  0
  -25.2740  -31.4920   26.1610 C   0  0  0  0  0  1  0  0  0  0  0  0
  -26.9270  -30.3650   24.6660 C   0  0  0  0  0  1  0  0  0  0  0  0
  -27.5130  -32.5270   25.7260 C   0  0  0  0  0  1  0  0  0  0  0  0
  2  6  1  0
  4  2  2  0
  4  7  1  0
  5  3  1  0
  6  8  1  0
  6  3  2  0
  7  1  1  0
  7  5  2  0
  9 17  1  0
 10 15  1  0
 11 12  1  0
 11 10  1  0
 13 12  1  0
 13 22  1  0
 13 14  1  0
 15  9  1  0
 15 14  1  0
 16  9  2  0
 17  8  1  0
 18 17  1  0
 19 20  2  0
 20 39  1  0
 21 20  1  0
 21 24  1  0
 22 19  1  0
 22 23  1  0
 23 21  2  0
 24 25  1  0
 25 26  2  0
 27 30  1  0
 27 26  1  0
 28 27  2  0
 29 28  1  0
 29 24  2  0
 30 31  1  0
 31 32  1  0
 32 33  2  0
 34 33  1  0
 34 38  1  0
 35 34  2  0
 36 31  2  0
 36 35  1  0
 37 36  1  0
 39 40  1  0
 40 43  1  0
 40 42  1  0
 41 39  2  0
 44 45  1  0
 44 19  1  0
 46 44  1  0
 47 49  1  0
 47 50  1  0
 47  1  1  0
 48 47  1  0
 51 52  1  0
 51 50  1  0
 52 54  1  0
 53 64  2  0
 54 59  1  0
 55 63  1  0
 55 65  1  0
 56 62  1  0
 56 58  1  0
 57 63  1  0
 58 57  1  0
 59 58  2  0
 60 61  1  0
 60 54  2  0
 61 56  2  0
 62 55  1  0
 63 53  1  0
 65 67  2  0
 66 65  1  0
 68 66  1  0
 69 78  2  0
 69 74  1  0
 70 66  1  0
 70 74  1  0
 71 70  1  0
 72 73  1  0
 72 71  1  0
 73 69  1  0
 74 75  2  0
 75 76  1  0
 77 76  2  0
 78 77  1  0
 79 53  1  0
 79 80  1  0
 79 89  1  0
 80 83  1  0
 81 85  1  0
 81 80  1  0
 82 81  2  0
 85 84  1  0
 87 85  1  0
 87 88  1  0
 87 86  1  0
 89 92  1  1
 89 90  1  0
 91 89  1  0
M  ISO  4   9 100  17 100  51 101  52 101
M  END
>  <TORSDO>  (91) 
F 21

>  <SCORE>  (91) 
-13.256

>  <name>  (91) 
90

>  <ligand_id>  (91) 
90

>  <original_smiles>  (91) 
[H]c1c([H])c([H])c2c(c1[H])C([H])([H])C([H])([H])C([H])([H])C2([H])N([H])C(=O)C1([H])N(C(=O)C([H])(N([H])C(=O)C([H])(N([H])C([H])([H])[H])C([H])([H])[H])C(C([H])([H])[H])(C([H])([H])[H])C([H])([H])[H])C([H])([H])c2c([H])c(OC([H])([H])C([H])([H])[N+]([H])([H])C([H])([H])c3c([H])c([H])c(C([H])([H])N([H])C(=O)N4C([H])([H])C([H])([H])C([H])([H])C([H])(n5nc(-c6c([H])c([H])c(Oc7c([H])c([H])c(F)c([H])c7F)c([H])c6[H])c(C(=O)N([H])[H])c5N([H])[H])C4([H])[H])c([H])c3[H])c([H])c([H])c2C1([H])[H]

>  <smiles>  (91) 
[H]c1c([H])c([H])c2c(c1[H])C([H])([H])C([H])([H])C([H])([H])C2([H])N([H])C(=O)C1([H])N(C(=O)C([H])(N([H])C(=O)C([H])(N([H])C([H])([H])[H])C([H])([H])[H])C(C([H])([H])[H])(C([H])([H])[H])C([H])([H])[H])C([H])([H])c2c([H])c(OC([H])([H])C([H])([H])[N+]([H])([H])C([H])([H])c3c([H])c([H])c(C([H])([H])N([H])C(=O)N4C([H])([H])C([H])([H])C([H])([H])C([H])(n5nc(-c6c([H])c([H])c(Oc7c([H])c([H])c(F)c([H])c7F)c([H])c6[H])c(C(=O)N([H])[H])c5N([H])[H])C4([H])[H])c([H])c3[H])c([H])c([H])c2C1([H])[H]

$$$$
91:0:0
     RDKit          3D

 96105  0  0  1  0  0  0  0  0999 V2000
  -31.7490  -21.8820   19.1940 C   0  0  0  0  0  3  0  0  0  0  0  0
  -30.8390  -22.8960   19.4910 C   0  0  0  0  0  3  0  0  0  0  0  0
  -31.4420  -20.5130   19.3980 C   0  0  0  0  0  0  0  0  0  0  0  0
  -29.5770  -22.5800   20.0000 C   0  0  0  0  0  0  0  0  0  0  0  0
  -30.1390  -20.1830   19.9180 C   0  0  0  0  0  0  0  0  0  0  0  0
  -29.2570  -21.2350   20.1980 N   0  0  0  0  0  0  0  0  0  0  0  0
  -33.9910  -20.0060   19.0190 C   0  0  0  0  0  2  0  0  0  0  0  0
  -34.2650  -20.3500   17.5500 C   0  0  0  0  0  2  0  0  0  0  0  0
  -32.3880  -18.8490   17.6630 C   0  0  0  0  0  2  0  0  0  0  0  0
  -32.5400  -19.4800   19.0640 C   0  0  0  0  0  3  0  0  0  0  0  0
  -33.3760  -19.4790   16.7630 N   0  0  0  0  0  4  0  0  0  0  0  0
  -33.9210  -18.7550   16.3200 H   0  0  0  0  0  0  0  0  0  0  0  0
  -32.9200  -20.0130   16.0430 H   0  0  0  0  0  0  0  0  0  0  0  0
  -28.6630  -23.7920   20.4860 C   0  0  0  0  0  2  0  0  0  0  0  0
  -28.5240  -25.1430   19.6050 C   0  0  0  0  0  2  0  0  0  0  0  0
  -28.3850  -26.4950   20.2320 O   0  0  0  0  0  0  0  0  0  0  0  0
  -24.6050  -31.8800   23.2390 C   0  0  0  0  0  0  0  0  0  0  0  0
  -27.2330  -27.3090   20.1730 C   0  0  0  0  0  0  0  0  0  0  0  0
  -23.4060  -30.4750   21.6000 C   0  0  0  0  0  3  0  0  0  0  0  0
  -24.8600  -28.9250   20.1740 C   0  0  0  0  0  0  0  0  0  0  0  0
  -25.9440  -30.7970   21.4150 C   0  0  0  0  0  2  0  0  0  0  0  0
  -26.0250  -29.4140   20.7720 C   0  0  0  0  0  0  0  0  0  0  0  0
  -27.2110  -28.6160   20.7640 C   0  0  0  0  0  3  0  0  0  0  0  0
  -26.0360  -26.8700   19.5670 C   0  0  0  0  0  3  0  0  0  0  0  0
  -24.8670  -27.6600   19.5640 C   0  0  0  0  0  3  0  0  0  0  0  0
  -23.6220  -29.7980   20.2200 C   0  0  0  0  0  2  0  0  0  0  0  0
  -24.6710  -31.0690   22.1420 N   0  0  0  0  0  0  0  0  0  0  0  0
  -23.5190  -32.1570   23.7710 O   0  0  0  0  0  0  0  0  0  0  0  0
  -22.7450  -29.4590   22.5610 C   0  0  0  0  0  0  0  0  0  0  0  0
  -21.4180  -29.2830   22.4380 N   0  0  0  0  0  0  0  0  0  0  0  0
  -23.4240  -28.8330   23.3790 O   0  0  0  0  0  0  0  0  0  0  0  0
  -20.9320  -29.8410   21.7520 H   0  0  0  0  0  0  0  0  0  0  0  0
  -18.0400  -28.0860   22.9320 C   0  0  0  0  0  0  0  0  0  0  0  0
  -20.5970  -28.3460   23.2080 C   0  0  0  0  0  3  0  0  0  0  0  0
  -20.7020  -26.9140   22.6320 C   0  0  0  0  0  2  0  0  0  0  0  0
  -19.6010  -26.5920   21.6170 C   0  0  0  0  0  2  0  0  0  0  0  0
  -18.2190  -26.7360   22.2580 C   0  0  0  0  0  2  0  0  0  0  0  0
  -19.1570  -28.8490   23.3640 C   0  0  0  0  0  0  0  0  0  0  0  0
  -18.9350  -30.1110   23.9540 C   0  0  0  0  0  3  0  0  0  0  0  0
  -17.6280  -30.6090   24.1180 C   0  0  0  0  0  3  0  0  0  0  0  0
  -16.5260  -29.8440   23.7010 C   0  0  0  0  0  3  0  0  0  0  0  0
  -16.7340  -28.5840   23.1120 C   0  0  0  0  0  3  0  0  0  0  0  0
  -25.8840  -32.5140   23.8670 C   0  0  0  0  0  3  0  0  0  0  0  0
  -25.5720  -33.9140   24.1920 N   0  0  0  0  0  0  0  0  0  0  0  0
  -25.9080  -34.9640   23.4310 C   0  0  0  0  0  0  0  0  0  0  0  0
  -26.5840  -34.8570   22.4040 O   0  0  0  0  0  0  0  0  0  0  0  0
  -24.9660  -34.0720   24.9830 H   0  0  0  0  0  0  0  0  0  0  0  0
  -24.1830  -36.7600   23.0700 C   0  0  0  0  0  1  0  0  0  0  0  0
  -25.4210  -36.3530   23.8840 C   0  0  0  0  0  3  0  0  0  0  0  0
  -27.5560  -37.2380   24.7140 C   0  0  0  0  0  1  0  0  0  0  0  0
  -26.4550  -37.4040   23.7690 N   0  0  0  0  0  0  0  0  0  0  0  0
  -26.0490  -38.3240   23.9160 H   0  0  0  0  0  0  0  0  0  0  0  0
  -26.3930  -31.7460   25.1480 C   0  0  1  0  0  0  0  0  0  0  0  0
  -25.2920  -31.5170   26.2110 C   0  0  0  0  0  1  0  0  0  0  0  0
  -26.9730  -30.3630   24.7620 C   0  0  0  0  0  1  0  0  0  0  0  0
  -27.5430  -32.5380   25.8130 C   0  0  0  0  0  1  0  0  0  0  0  0
  -29.5840  -18.6830   20.1650 C   0  0  0  0  0  3  0  0  0  0  0  0
  -30.4910  -17.3300   20.2280 C   0  0  0  0  0  3  0  0  0  0  0  0
  -30.6080  -14.7400   20.3480 C   0  0  0  0  0  0  0  0  0  0  0  0
  -30.3470  -12.4680   19.3710 C   0  0  0  0  0  2  0  0  0  0  0  0
  -29.4120  -12.5380   18.1440 C   0  0  0  0  0  2  0  0  0  0  0  0
  -27.9410  -12.3850   18.5730 C   0  0  0  0  0  2  0  0  0  0  0  0
  -27.5670  -13.2900   19.7780 C   0  0  0  0  0  3  0  0  0  0  0  0
  -28.6290  -13.2230   20.9000 C   0  0  0  0  0  2  0  0  0  0  0  0
  -29.9280  -13.5450   20.2950 N   0  0  0  0  0  0  0  0  0  0  0  0
  -31.8080  -14.7780   20.0760 O   0  0  0  0  0  0  0  0  0  0  0  0
  -29.9060  -15.9310   20.4450 N   0  0  0  0  0  0  0  0  0  0  0  0
  -28.9090  -15.8640   20.5890 H   0  0  0  0  0  0  0  0  0  0  0  0
  -25.1760  -13.8820   20.5050 C   0  0  0  0  0  0  0  0  0  0  0  0
  -24.1090  -13.1090   20.8750 C   0  0  0  0  0  0  0  0  0  0  0  0
  -24.5750  -11.7580   20.8530 C   0  0  0  0  0  0  0  0  0  0  0  0
  -26.2230  -13.0040   20.2740 N   0  0  0  0  0  0  0  0  0  0  0  0
  -25.8680  -11.7220   20.5500 N   0  0  0  0  0  0  0  0  0  0  0  0
  -23.8490  -10.4950   21.0450 C   0  0  0  0  0  0  0  0  0  0  0  0
  -24.2780   -9.5270   21.9790 C   0  0  0  0  0  3  0  0  0  0  0  0
  -23.5490   -8.3320   22.1580 C   0  0  0  0  0  3  0  0  0  0  0  0
  -22.3760   -8.0940   21.4020 C   0  0  0  0  0  0  0  0  0  0  0  0
  -21.9640   -9.0520   20.4590 C   0  0  0  0  0  3  0  0  0  0  0  0
  -22.6940  -10.2390   20.2770 C   0  0  0  0  0  3  0  0  0  0  0  0
  -21.6200   -6.9510   21.4910 O   0  0  0  0  0  0  0  0  0  0  0  0
  -21.5770   -6.2030   22.6410 C   0  0  0  0  0  0  0  0  0  0  0  0
  -21.1670   -6.7550   23.8740 C   0  0  0  0  0  3  0  0  0  0  0  0
  -21.0690   -5.9330   25.0150 C   0  0  0  0  0  3  0  0  0  0  0  0
  -21.3750   -4.5620   24.9250 C   0  0  0  0  0  0  0  0  0  0  0  0
  -21.7780   -4.0100   23.6960 C   0  0  0  0  0  3  0  0  0  0  0  0
  -21.8760   -4.8280   22.5580 C   0  0  0  0  0  0  0  0  0  0  0  0
  -22.2450   -4.2870   21.3720 F   0  0  0  0  0  0  0  0  0  0  0  0
  -21.2740   -3.7720   26.0180 F   0  0  0  0  0  0  0  0  0  0  0  0
  -22.7100  -13.5860   21.1320 C   0  0  0  0  0  0  0  0  0  0  0  0
  -21.9740  -12.8960   21.9960 N   0  0  0  0  0  0  0  0  0  0  0  0
  -22.2780  -14.6090   20.6010 O   0  0  0  0  0  0  0  0  0  0  0  0
  -22.3370  -12.0710   22.4510 H   0  0  0  0  0  0  0  0  0  0  0  0
  -21.0340  -13.1990   22.2080 H   0  0  0  0  0  0  0  0  0  0  0  0
  -25.3340  -15.2520   20.3220 N   0  0  0  0  0  0  0  0  0  0  0  0
  -24.5600  -15.8950   20.4450 H   0  0  0  0  0  0  0  0  0  0  0  0
  -26.1640  -15.7000   19.9590 H   0  0  0  0  0  0  0  0  0  0  0  0
  1  3  2  0
  1  2  1  0
  2  4  2  0
  3  5  1  0
  4  6  1  0
  4 14  1  0
  5 57  1  0
  5  6  2  0
  7 10  1  0
  8  7  1  0
  9 10  1  0
 10  3  1  0
 11  8  1  0
 11  9  1  0
 12 11  1  0
 13 11  1  0
 15 16  1  0
 15 14  1  0
 17 28  2  0
 18 16  1  0
 18 23  1  0
 19 27  1  0
 19 29  1  0
 20 26  1  0
 20 22  1  0
 21 27  1  0
 22 21  1  0
 23 22  2  0
 24 18  2  0
 25 24  1  0
 25 20  2  0
 26 19  1  0
 27 17  1  0
 29 31  2  0
 30 29  1  0
 32 30  1  0
 33 42  2  0
 33 38  1  0
 34 30  1  0
 34 38  1  0
 35 34  1  0
 36 37  1  0
 36 35  1  0
 37 33  1  0
 38 39  2  0
 39 40  1  0
 41 40  2  0
 42 41  1  0
 43 17  1  0
 43 44  1  0
 43 53  1  0
 44 47  1  0
 45 49  1  0
 45 44  1  0
 46 45  2  0
 49 48  1  0
 51 49  1  0
 51 52  1  0
 51 50  1  0
 53 56  1  1
 53 54  1  0
 55 53  1  0
 57 58  2  0
 58 67  1  0
 59 67  1  0
 60 65  1  0
 61 62  1  0
 61 60  1  0
 63 62  1  0
 63 72  1  0
 63 64  1  0
 65 59  1  0
 65 64  1  0
 66 59  2  0
 67 68  1  0
 69 70  2  0
 70 89  1  0
 71 70  1  0
 71 74  1  0
 72 69  1  0
 72 73  1  0
 73 71  2  0
 74 75  1  0
 75 76  2  0
 77 80  1  0
 77 76  1  0
 78 77  2  0
 79 78  1  0
 79 74  2  0
 80 81  1  0
 81 82  1  0
 82 83  2  0
 84 83  1  0
 84 88  1  0
 85 84  2  0
 86 81  2  0
 86 85  1  0
 87 86  1  0
 89 90  1  0
 90 93  1  0
 90 92  1  0
 91 89  2  0
 94 95  1  0
 94 69  1  0
 96 94  1  0
M  ISO  4  15 101  16 101  59 100  67 100
M  END
>  <TORSDO>  (92) 
F 21

>  <SCORE>  (92) 
-13.426

>  <name>  (92) 
91

>  <ligand_id>  (92) 
91

>  <original_smiles>  (92) 
[H]c1c(C([H])([H])C([H])([H])Oc2c([H])c([H])c3c(c2[H])C([H])([H])N(C(=O)C([H])(N([H])C(=O)C([H])(N([H])C([H])([H])[H])C([H])([H])[H])C(C([H])([H])[H])(C([H])([H])[H])C([H])([H])[H])C([H])(C(=O)N([H])C2([H])c4c([H])c([H])c([H])c([H])c4C([H])([H])C([H])([H])C2([H])[H])C3([H])[H])nc(C([H])([H])C([H])([H])N([H])C(=O)N2C([H])([H])C([H])([H])C([H])([H])C([H])(n3nc(-c4c([H])c([H])c(Oc5c([H])c([H])c(F)c([H])c5F)c([H])c4[H])c(C(=O)N([H])[H])c3N([H])[H])C2([H])[H])c(C2([H])C([H])([H])C([H])([H])[N+]([H])([H])C2([H])[H])c1[H]

>  <smiles>  (92) 
[H]c1c(C([H])([H])C([H])([H])Oc2c([H])c([H])c3c(c2[H])C([H])([H])N(C(=O)C([H])(N([H])C(=O)C([H])(N([H])C([H])([H])[H])C([H])([H])[H])C(C([H])([H])[H])(C([H])([H])[H])C([H])([H])[H])C([H])(C(=O)N([H])C2([H])c4c([H])c([H])c([H])c([H])c4C([H])([H])C([H])([H])C2([H])[H])C3([H])[H])nc(C([H])([H])C([H])([H])N([H])C(=O)N2C([H])([H])C([H])([H])C([H])([H])C([H])(n3nc(-c4c([H])c([H])c(Oc5c([H])c([H])c(F)c([H])c5F)c([H])c4[H])c(C(=O)N([H])[H])c3N([H])[H])C2([H])[H])c(C2([H])C([H])([H])C([H])([H])[N+]([H])([H])C2([H])[H])c1[H]

$$$$
92:0:0
     RDKit          3D

 92100  0  0  1  0  0  0  0  0999 V2000
  -25.7280  -22.1280   20.5610 C   0  0  0  0  0  3  0  0  0  0  0  0
  -25.4570  -23.4650   20.8550 C   0  0  0  0  0  3  0  0  0  0  0  0
  -27.0490  -21.7250   20.3320 C   0  0  0  0  0  3  0  0  0  0  0  0
  -26.5030  -24.3990   20.8600 C   0  0  0  0  0  3  0  0  0  0  0  0
  -28.1500  -22.6180   20.3700 C   0  0  0  0  0  0  0  0  0  0  0  0
  -27.8460  -24.0720   20.5550 C   0  0  0  0  0  0  0  0  0  0  0  0
  -29.5180  -21.8210   20.1510 C   0  0  0  0  0  2  0  0  0  0  0  0
  -29.8040  -20.4650   20.8670 N   0  0  0  0  0  4  0  0  0  0  0  0
  -29.3990  -20.5110   21.7870 H   0  0  0  0  0  0  0  0  0  0  0  0
  -30.7990  -20.4980   21.0140 H   0  0  0  0  0  0  0  0  0  0  0  0
  -29.5580  -19.0460   20.2800 C   0  0  0  0  0  3  0  0  0  0  0  0
  -30.4010  -17.7760   20.9020 C   0  0  0  0  0  3  0  0  0  0  0  0
  -30.8300  -15.1670   20.4220 C   0  0  0  0  0  0  0  0  0  0  0  0
  -30.6920  -12.8680   19.4170 C   0  0  0  0  0  2  0  0  0  0  0  0
  -29.7750  -12.8880   18.1740 C   0  0  0  0  0  2  0  0  0  0  0  0
  -28.3000  -12.6970   18.5820 C   0  0  0  0  0  2  0  0  0  0  0  0
  -27.8860  -13.6060   19.7680 C   0  0  0  0  0  3  0  0  0  0  0  0
  -28.9220  -13.5570   20.9120 C   0  0  0  0  0  2  0  0  0  0  0  0
  -30.2190  -13.9320   20.3360 N   0  0  0  0  0  0  0  0  0  0  0  0
  -32.0280  -15.2720   20.1480 O   0  0  0  0  0  0  0  0  0  0  0  0
  -30.0380  -16.2960   20.6350 N   0  0  0  0  0  0  0  0  0  0  0  0
  -29.0610  -16.0770   20.7580 H   0  0  0  0  0  0  0  0  0  0  0  0
  -25.4830  -14.1880   20.4470 C   0  0  0  0  0  0  0  0  0  0  0  0
  -24.4150  -13.4110   20.8010 C   0  0  0  0  0  0  0  0  0  0  0  0
  -24.8870  -12.0620   20.7880 C   0  0  0  0  0  0  0  0  0  0  0  0
  -26.5350  -13.3130   20.2360 N   0  0  0  0  0  0  0  0  0  0  0  0
  -26.1830  -12.0300   20.5050 N   0  0  0  0  0  0  0  0  0  0  0  0
  -24.1630  -10.7960   20.9680 C   0  0  0  0  0  0  0  0  0  0  0  0
  -24.5510   -9.8550   21.9470 C   0  0  0  0  0  3  0  0  0  0  0  0
  -23.8280   -8.6550   22.1140 C   0  0  0  0  0  3  0  0  0  0  0  0
  -22.7000   -8.3880   21.3010 C   0  0  0  0  0  0  0  0  0  0  0  0
  -22.3320   -9.3170   20.3130 C   0  0  0  0  0  3  0  0  0  0  0  0
  -23.0580  -10.5080   20.1450 C   0  0  0  0  0  3  0  0  0  0  0  0
  -21.9520   -7.2380   21.3750 O   0  0  0  0  0  0  0  0  0  0  0  0
  -21.8100   -6.5460   22.5510 C   0  0  0  0  0  0  0  0  0  0  0  0
  -21.2450   -7.1390   23.7020 C   0  0  0  0  0  3  0  0  0  0  0  0
  -21.0550   -6.3720   24.8680 C   0  0  0  0  0  3  0  0  0  0  0  0
  -21.4170   -5.0120   24.8840 C   0  0  0  0  0  0  0  0  0  0  0  0
  -21.9750   -4.4180   23.7380 C   0  0  0  0  0  3  0  0  0  0  0  0
  -22.1670   -5.1830   22.5750 C   0  0  0  0  0  0  0  0  0  0  0  0
  -22.6850   -4.6000   21.4660 F   0  0  0  0  0  0  0  0  0  0  0  0
  -21.2280   -4.2720   26.0020 F   0  0  0  0  0  0  0  0  0  0  0  0
  -23.0090  -13.8810   21.0400 C   0  0  0  0  0  0  0  0  0  0  0  0
  -22.2690  -13.1910   21.9000 N   0  0  0  0  0  0  0  0  0  0  0  0
  -22.5760  -14.8980   20.4990 O   0  0  0  0  0  0  0  0  0  0  0  0
  -22.6310  -12.3670   22.3580 H   0  0  0  0  0  0  0  0  0  0  0  0
  -21.3260  -13.4900   22.1030 H   0  0  0  0  0  0  0  0  0  0  0  0
  -25.6420  -15.5580   20.2600 N   0  0  0  0  0  0  0  0  0  0  0  0
  -24.8630  -16.2030   20.3340 H   0  0  0  0  0  0  0  0  0  0  0  0
  -26.4760  -15.9900   19.8830 H   0  0  0  0  0  0  0  0  0  0  0  0
  -28.7950  -25.3560   20.6570 C   0  0  0  0  0  2  0  0  0  0  0  0
  -28.5280  -26.7450   20.0770 O   0  0  0  0  0  0  0  0  0  0  0  0
  -24.7190  -32.0310   23.4330 C   0  0  0  0  0  0  0  0  0  0  0  0
  -27.3890  -27.5800   20.2120 C   0  0  0  0  0  0  0  0  0  0  0  0
  -23.5460  -30.7040   21.7150 C   0  0  0  0  0  3  0  0  0  0  0  0
  -25.0260  -29.2240   20.2350 C   0  0  0  0  0  0  0  0  0  0  0  0
  -26.0880  -31.0340   21.5780 C   0  0  0  0  0  2  0  0  0  0  0  0
  -26.1850  -29.6780   20.8770 C   0  0  0  0  0  0  0  0  0  0  0  0
  -27.3710  -28.8680   20.8530 C   0  0  0  0  0  3  0  0  0  0  0  0
  -26.2200  -27.2190   19.5150 C   0  0  0  0  0  3  0  0  0  0  0  0
  -25.0480  -28.0030   19.5430 C   0  0  0  0  0  3  0  0  0  0  0  0
  -23.7840  -30.0950   20.3070 C   0  0  0  0  0  2  0  0  0  0  0  0
  -24.8040  -31.2750   22.2990 N   0  0  0  0  0  0  0  0  0  0  0  0
  -23.6270  -32.2740   23.9680 O   0  0  0  0  0  0  0  0  0  0  0  0
  -22.8810  -29.6390   22.6190 C   0  0  0  0  0  0  0  0  0  0  0  0
  -21.5640  -29.4340   22.4490 N   0  0  0  0  0  0  0  0  0  0  0  0
  -23.5510  -29.0010   23.4340 O   0  0  0  0  0  0  0  0  0  0  0  0
  -21.0810  -30.0030   21.7680 H   0  0  0  0  0  0  0  0  0  0  0  0
  -18.2050  -28.1340   22.8110 C   0  0  0  0  0  0  0  0  0  0  0  0
  -20.7490  -28.4460   23.1580 C   0  0  0  0  0  3  0  0  0  0  0  0
  -20.9020  -27.0420   22.5290 C   0  0  0  0  0  2  0  0  0  0  0  0
  -19.8350  -26.7340   21.4740 C   0  0  0  0  0  2  0  0  0  0  0  0
  -18.4330  -26.8190   22.0870 C   0  0  0  0  0  2  0  0  0  0  0  0
  -19.2930  -28.9050   23.3010 C   0  0  0  0  0  0  0  0  0  0  0  0
  -19.0270  -30.1370   23.9380 C   0  0  0  0  0  3  0  0  0  0  0  0
  -17.7060  -30.5970   24.0920 C   0  0  0  0  0  3  0  0  0  0  0  0
  -16.6320  -29.8230   23.6190 C   0  0  0  0  0  3  0  0  0  0  0  0
  -16.8830  -28.5930   22.9850 C   0  0  0  0  0  3  0  0  0  0  0  0
  -25.9880  -32.6470   24.1010 C   0  0  0  0  0  3  0  0  0  0  0  0
  -25.6910  -34.0520   24.4140 N   0  0  0  0  0  0  0  0  0  0  0  0
  -26.0570  -35.0970   23.6580 C   0  0  0  0  0  0  0  0  0  0  0  0
  -26.7490  -34.9760   22.6420 O   0  0  0  0  0  0  0  0  0  0  0  0
  -25.0850  -34.2220   25.2030 H   0  0  0  0  0  0  0  0  0  0  0  0
  -24.3590  -36.9090   23.2620 C   0  0  0  0  0  1  0  0  0  0  0  0
  -25.5820  -36.4960   24.0960 C   0  0  0  0  0  3  0  0  0  0  0  0
  -27.7110  -37.3660   24.9550 C   0  0  0  0  0  1  0  0  0  0  0  0
  -26.6300  -37.5340   23.9870 N   0  0  0  0  0  0  0  0  0  0  0  0
  -26.2330  -38.4620   24.1130 H   0  0  0  0  0  0  0  0  0  0  0  0
  -26.4410  -31.8750   25.4020 C   0  0  1  0  0  0  0  0  0  0  0  0
  -25.2990  -31.6520   26.4210 C   0  0  0  0  0  1  0  0  0  0  0  0
  -27.0280  -30.4910   25.0410 C   0  0  0  0  0  1  0  0  0  0  0  0
  -27.5680  -32.6610   26.1110 C   0  0  0  0  0  1  0  0  0  0  0  0
  1  2  1  0
  2  4  2  0
  3  5  1  0
  3  1  2  0
  5  6  2  0
  6 51  1  0
  6  4  1  0
  7  5  1  0
  7  8  1  0
  8 10  1  0
  8  9  1  0
 11  8  1  0
 11 12  2  0
 13 21  1  0
 14 19  1  0
 15 16  1  0
 15 14  1  0
 17 16  1  0
 17 26  1  0
 17 18  1  0
 19 13  1  0
 19 18  1  0
 20 13  2  0
 21 22  1  0
 21 12  1  0
 23 24  2  0
 24 43  1  0
 25 24  1  0
 25 28  1  0
 26 23  1  0
 26 27  1  0
 27 25  2  0
 28 29  1  0
 29 30  2  0
 31 34  1  0
 31 30  1  0
 32 31  2  0
 33 32  1  0
 33 28  2  0
 34 35  1  0
 35 40  2  0
 35 36  1  0
 36 37  2  0
 37 38  1  0
 38 42  1  0
 39 38  2  0
 40 39  1  0
 41 40  1  0
 43 44  1  0
 44 47  1  0
 44 46  1  0
 45 43  2  0
 48 49  1  0
 48 23  1  0
 50 48  1  0
 52 54  1  0
 52 51  1  0
 53 64  2  0
 54 59  1  0
 55 63  1  0
 55 65  1  0
 56 62  1  0
 56 58  1  0
 57 63  1  0
 58 57  1  0
 59 58  2  0
 60 61  1  0
 60 54  2  0
 61 56  2  0
 62 55  1  0
 63 53  1  0
 65 67  2  0
 66 65  1  0
 68 66  1  0
 69 78  2  0
 69 74  1  0
 70 66  1  0
 70 74  1  0
 71 70  1  0
 72 73  1  0
 72 71  1  0
 73 69  1  0
 74 75  2  0
 75 76  1  0
 77 76  2  0
 78 77  1  0
 79 53  1  0
 79 80  1  0
 79 89  1  0
 80 83  1  0
 81 85  1  0
 81 80  1  0
 82 81  2  0
 85 84  1  0
 87 85  1  0
 87 88  1  0
 87 86  1  0
 89 92  1  1
 89 90  1  0
 91 89  1  0
M  ISO  4  13 100  21 100  51 101  52 101
M  END
>  <TORSDO>  (93) 
F 21

>  <SCORE>  (93) 
-11.893

>  <name>  (93) 
92

>  <ligand_id>  (93) 
92

>  <original_smiles>  (93) 
[H]c1c([H])c([H])c(C([H])([H])[N+]([H])([H])C([H])([H])C([H])([H])N([H])C(=O)N2C([H])([H])C([H])([H])C([H])([H])C([H])(n3nc(-c4c([H])c([H])c(Oc5c([H])c([H])c(F)c([H])c5F)c([H])c4[H])c(C(=O)N([H])[H])c3N([H])[H])C2([H])[H])c(C([H])([H])Oc2c([H])c([H])c3c(c2[H])C([H])([H])N(C(=O)C([H])(N([H])C(=O)C([H])(N([H])C([H])([H])[H])C([H])([H])[H])C(C([H])([H])[H])(C([H])([H])[H])C([H])([H])[H])C([H])(C(=O)N([H])C2([H])c4c([H])c([H])c([H])c([H])c4C([H])([H])C([H])([H])C2([H])[H])C3([H])[H])c1[H]

>  <smiles>  (93) 
[H]c1c([H])c([H])c(C([H])([H])[N+]([H])([H])C([H])([H])C([H])([H])N([H])C(=O)N2C([H])([H])C([H])([H])C([H])([H])C([H])(n3nc(-c4c([H])c([H])c(Oc5c([H])c([H])c(F)c([H])c5F)c([H])c4[H])c(C(=O)N([H])[H])c3N([H])[H])C2([H])[H])c(C([H])([H])Oc2c([H])c([H])c3c(c2[H])C([H])([H])N(C(=O)C([H])(N([H])C(=O)C([H])(N([H])C([H])([H])[H])C([H])([H])[H])C(C([H])([H])[H])(C([H])([H])[H])C([H])([H])[H])C([H])(C(=O)N([H])C2([H])c4c([H])c([H])c([H])c([H])c4C([H])([H])C([H])([H])C2([H])[H])C3([H])[H])c1[H]

$$$$
93:0:0
     RDKit          3D

100109  0  0  1  0  0  0  0  0999 V2000
  -29.9410  -21.9180   22.0530 C   0  0  0  0  0  0  0  0  0  0  0  0
  -30.3190  -22.7340   23.1520 C   0  0  0  0  0  0  0  0  0  0  0  0
  -30.6180  -20.6730   21.9780 C   0  0  0  0  0  0  0  0  0  0  0  0
  -31.7860  -21.1500   23.8910 C   0  0  0  0  0  0  0  0  0  0  0  0
  -29.7350  -24.1130   23.4140 C   0  0  0  0  0  1  0  0  0  0  0  0
  -32.8090  -20.7100   24.9160 C   0  0  0  0  0  1  0  0  0  0  0  0
  -31.2330  -22.3410   24.0560 N   0  0  0  0  0  0  0  0  0  0  0  0
  -31.5270  -20.3140   22.8980 N   0  0  0  0  0  0  0  0  0  0  0  0
  -30.4220  -19.7480   20.9460 N   0  0  0  0  0  0  0  0  0  0  0  0
  -29.6930  -19.9770   20.2870 H   0  0  0  0  0  0  0  0  0  0  0  0
  -28.0200  -21.4350   20.2560 C   0  0  0  0  0  2  0  0  0  0  0  0
  -27.2310  -22.3870   19.3450 C   0  0  0  0  0  2  0  0  0  0  0  0
  -29.2680  -23.4560   20.0190 C   0  0  0  0  0  2  0  0  0  0  0  0
  -28.8500  -22.4230   21.0750 C   0  0  0  0  0  3  0  0  0  0  0  0
  -28.0960  -23.5760   19.1050 N   0  0  2  0  0  4  0  0  0  0  0  0
  -28.4570  -23.4810   18.1660 H   0  0  0  0  0  0  0  0  0  0  0  0
  -27.3710  -24.8830   19.1710 C   0  0  0  0  0  2  0  0  0  0  0  0
  -27.8350  -25.8770   18.0830 C   0  0  0  0  0  2  0  0  0  0  0  0
  -27.8180  -27.2330   18.5500 O   0  0  0  0  0  0  0  0  0  0  0  0
  -24.4170  -31.4590   23.1240 C   0  0  0  0  0  0  0  0  0  0  0  0
  -26.6290  -27.8780   18.8230 C   0  0  0  0  0  0  0  0  0  0  0  0
  -23.0110  -30.4780   21.3400 C   0  0  0  0  0  3  0  0  0  0  0  0
  -24.2700  -29.3200   19.4460 C   0  0  0  0  0  0  0  0  0  0  0  0
  -25.5060  -30.8820   20.9600 C   0  0  0  0  0  2  0  0  0  0  0  0
  -25.4920  -29.6980   20.0140 C   0  0  0  0  0  0  0  0  0  0  0  0
  -26.6680  -28.9840   19.7020 C   0  0  0  0  0  3  0  0  0  0  0  0
  -25.3840  -27.5060   18.2590 C   0  0  0  0  0  3  0  0  0  0  0  0
  -24.2110  -28.2220   18.5700 C   0  0  0  0  0  3  0  0  0  0  0  0
  -23.0570  -30.1380   19.8260 C   0  0  0  0  0  2  0  0  0  0  0  0
  -24.3350  -30.9410   21.8670 N   0  0  0  0  0  0  0  0  0  0  0  0
  -23.4060  -31.5920   23.8280 O   0  0  0  0  0  0  0  0  0  0  0  0
  -22.4450  -29.2580   22.1010 C   0  0  0  0  0  0  0  0  0  0  0  0
  -21.1170  -29.0740   22.0330 N   0  0  0  0  0  0  0  0  0  0  0  0
  -23.1940  -28.4900   22.7120 O   0  0  0  0  0  0  0  0  0  0  0  0
  -20.5710  -29.7520   21.5200 H   0  0  0  0  0  0  0  0  0  0  0  0
  -17.8110  -27.6720   22.4210 C   0  0  0  0  0  0  0  0  0  0  0  0
  -20.3680  -27.9700   22.6360 C   0  0  0  0  0  3  0  0  0  0  0  0
  -20.4880  -26.6860   21.7830 C   0  0  0  0  0  2  0  0  0  0  0  0
  -19.3500  -26.5260   20.7720 C   0  0  0  0  0  2  0  0  0  0  0  0
  -17.9960  -26.4890   21.4860 C   0  0  0  0  0  2  0  0  0  0  0  0
  -18.9250  -28.3770   22.9490 C   0  0  0  0  0  0  0  0  0  0  0  0
  -18.6960  -29.4930   23.7840 C   0  0  0  0  0  3  0  0  0  0  0  0
  -17.3860  -29.9020   24.0960 C   0  0  0  0  0  3  0  0  0  0  0  0
  -16.2870  -29.1890   23.5850 C   0  0  0  0  0  3  0  0  0  0  0  0
  -16.5010  -28.0750   22.7540 C   0  0  0  0  0  3  0  0  0  0  0  0
  -25.7760  -31.9310   23.7310 C   0  0  0  0  0  3  0  0  0  0  0  0
  -25.5860  -33.2990   24.2310 N   0  0  0  0  0  0  0  0  0  0  0  0
  -25.9970  -34.4050   23.5960 C   0  0  0  0  0  0  0  0  0  0  0  0
  -26.6460  -34.3730   22.5470 O   0  0  0  0  0  0  0  0  0  0  0  0
  -25.0110  -33.4030   25.0540 H   0  0  0  0  0  0  0  0  0  0  0  0
  -24.4300  -36.3690   23.4760 C   0  0  0  0  0  1  0  0  0  0  0  0
  -25.6280  -35.7630   24.2250 C   0  0  0  0  0  3  0  0  0  0  0  0
  -27.8230  -36.3560   25.1520 C   0  0  0  0  0  1  0  0  0  0  0  0
  -26.7480  -36.7280   24.2370 N   0  0  0  0  0  0  0  0  0  0  0  0
  -26.4210  -37.6560   24.4910 H   0  0  0  0  0  0  0  0  0  0  0  0
  -26.3070  -30.9850   24.8770 C   0  0  1  0  0  0  0  0  0  0  0  0
  -25.2580  -30.6890   25.9740 C   0  0  0  0  0  1  0  0  0  0  0  0
  -26.7770  -29.6320   24.2950 C   0  0  0  0  0  1  0  0  0  0  0  0
  -27.5390  -31.6260   25.5560 C   0  0  0  0  0  1  0  0  0  0  0  0
  -30.5610  -18.3240   21.2630 C   0  0  0  0  0  2  0  0  0  0  0  0
  -28.9730  -17.7840   19.3230 C   0  0  0  0  0  1  0  0  0  0  0  0
  -30.2740  -17.4080   20.0570 C   0  0  0  0  0  3  0  0  0  0  0  0
  -30.9640  -14.9960   20.1310 C   0  0  0  0  0  0  0  0  0  0  0  0
  -30.8130  -12.6670   19.3490 C   0  0  0  0  0  2  0  0  0  0  0  0
  -29.8700  -12.6310   18.1270 C   0  0  0  0  0  2  0  0  0  0  0  0
  -28.3990  -12.4880   18.5690 C   0  0  0  0  0  2  0  0  0  0  0  0
  -28.0080  -13.4990   19.6820 C   0  0  0  0  0  3  0  0  0  0  0  0
  -29.0610  -13.4950   20.8150 C   0  0  0  0  0  2  0  0  0  0  0  0
  -30.3780  -13.7730   20.2150 N   0  0  0  0  0  0  0  0  0  0  0  0
  -32.0630  -15.1880   19.6050 O   0  0  0  0  0  0  0  0  0  0  0  0
  -30.1650  -16.0140   20.4940 N   0  0  0  0  0  0  0  0  0  0  0  0
  -29.2990  -15.7470   20.9360 H   0  0  0  0  0  0  0  0  0  0  0  0
  -25.6520  -14.1370   20.4990 C   0  0  0  0  0  0  0  0  0  0  0  0
  -24.5780  -13.3760   20.8780 C   0  0  0  0  0  0  0  0  0  0  0  0
  -25.0030  -12.0170   20.7760 C   0  0  0  0  0  0  0  0  0  0  0  0
  -26.6650  -13.2400   20.1960 N   0  0  0  0  0  0  0  0  0  0  0  0
  -26.2780  -11.9580   20.4170 N   0  0  0  0  0  0  0  0  0  0  0  0
  -24.2530  -10.7650   20.9420 C   0  0  0  0  0  0  0  0  0  0  0  0
  -24.6220   -9.8070   21.9100 C   0  0  0  0  0  3  0  0  0  0  0  0
  -23.8750   -8.6190   22.0630 C   0  0  0  0  0  3  0  0  0  0  0  0
  -22.7450   -8.3810   21.2460 C   0  0  0  0  0  0  0  0  0  0  0  0
  -22.3960   -9.3280   20.2660 C   0  0  0  0  0  3  0  0  0  0  0  0
  -23.1430  -10.5070   20.1120 C   0  0  0  0  0  3  0  0  0  0  0  0
  -21.9740   -7.2460   21.3070 O   0  0  0  0  0  0  0  0  0  0  0  0
  -21.7410   -6.5970   22.4920 C   0  0  0  0  0  0  0  0  0  0  0  0
  -21.0920   -7.2310   23.5740 C   0  0  0  0  0  3  0  0  0  0  0  0
  -20.8110   -6.5040   24.7490 C   0  0  0  0  0  3  0  0  0  0  0  0
  -21.1660   -5.1440   24.8390 C   0  0  0  0  0  0  0  0  0  0  0  0
  -21.8060   -4.5110   23.7600 C   0  0  0  0  0  3  0  0  0  0  0  0
  -22.0900   -5.2350   22.5890 C   0  0  0  0  0  0  0  0  0  0  0  0
  -22.6870   -4.6140   21.5440 F   0  0  0  0  0  0  0  0  0  0  0  0
  -20.8870   -4.4440   25.9640 F   0  0  0  0  0  0  0  0  0  0  0  0
  -23.2040  -13.8750   21.2240 C   0  0  0  0  0  0  0  0  0  0  0  0
  -22.4970  -13.1690   22.0990 N   0  0  0  0  0  0  0  0  0  0  0  0
  -22.7680  -14.9250   20.7530 O   0  0  0  0  0  0  0  0  0  0  0  0
  -22.8630  -12.3200   22.5040 H   0  0  0  0  0  0  0  0  0  0  0  0
  -21.5740  -13.4820   22.3670 H   0  0  0  0  0  0  0  0  0  0  0  0
  -25.8460  -15.5080   20.3680 N   0  0  0  0  0  0  0  0  0  0  0  0
  -25.1020  -16.1790   20.5200 H   0  0  0  0  0  0  0  0  0  0  0  0
  -26.6940  -15.9330   20.0140 H   0  0  0  0  0  0  0  0  0  0  0  0
  1  2  2  0
  2  5  1  0
  2  7  1  0
  3  1  1  0
  3  8  2  0
  4  7  2  0
  4  6  1  0
  8  4  1  0
  9 60  1  0
  9  3  1  0
 10  9  1  0
 11 14  1  0
 12 11  1  0
 13 14  1  0
 14  1  1  0
 15 17  1  0
 15 12  1  0
 15 13  1  0
 15 16  1  6
 18 19  1  0
 18 17  1  0
 19 21  1  0
 20 31  2  0
 21 26  1  0
 22 30  1  0
 22 32  1  0
 23 29  1  0
 23 25  1  0
 24 30  1  0
 25 24  1  0
 26 25  2  0
 27 28  1  0
 27 21  2  0
 28 23  2  0
 29 22  1  0
 30 20  1  0
 32 34  2  0
 33 32  1  0
 35 33  1  0
 36 45  2  0
 36 41  1  0
 37 33  1  0
 37 41  1  0
 38 37  1  0
 39 40  1  0
 39 38  1  0
 40 36  1  0
 41 42  2  0
 42 43  1  0
 44 43  2  0
 45 44  1  0
 46 20  1  0
 46 47  1  0
 46 56  1  0
 47 50  1  0
 48 52  1  0
 48 47  1  0
 49 48  2  0
 52 51  1  0
 52 54  1  0
 54 55  1  0
 54 53  1  0
 56 59  1  1
 56 57  1  0
 58 56  1  0
 62 61  1  0
 62 71  1  0
 62 60  1  0
 63 69  1  0
 63 71  1  0
 64 69  1  0
 65 66  1  0
 65 64  1  0
 67 66  1  0
 67 76  1  0
 67 68  1  0
 69 68  1  0
 70 63  2  0
 71 72  1  0
 73 74  2  0
 74 93  1  0
 75 74  1  0
 75 78  1  0
 76 77  1  0
 76 73  1  0
 77 75  2  0
 78 79  1  0
 79 80  2  0
 81 84  1  0
 81 80  1  0
 82 81  2  0
 83 82  1  0
 83 78  2  0
 84 85  1  0
 85 90  2  0
 85 86  1  0
 86 87  2  0
 87 88  1  0
 88 92  1  0
 89 88  2  0
 90 89  1  0
 91 90  1  0
 93 94  1  0
 94 97  1  0
 94 96  1  0
 95 93  2  0
 98 73  1  0
 98 99  1  0
100 98  1  0
M  ISO  4  18 101  19 101  63 100  71 100
M  END
>  <TORSDO>  (94) 
F 21

>  <SCORE>  (94) 
-9.948

>  <name>  (94) 
93

>  <ligand_id>  (94) 
93

>  <original_smiles>  (94) 
[H]c1c([H])c([H])c2c(c1[H])C([H])([H])C([H])([H])C([H])([H])C2([H])N([H])C(=O)C1([H])N(C(=O)C([H])(N([H])C(=O)C([H])(N([H])C([H])([H])[H])C([H])([H])[H])C(C([H])([H])[H])(C([H])([H])[H])C([H])([H])[H])C([H])([H])c2c([H])c(OC([H])([H])C([H])([H])[N+]3([H])C([H])([H])C([H])([H])C([H])(c4c(N([H])C([H])([H])C([H])(N([H])C(=O)N5C([H])([H])C([H])([H])C([H])([H])C([H])(n6nc(-c7c([H])c([H])c(Oc8c([H])c([H])c(F)c([H])c8F)c([H])c7[H])c(C(=O)N([H])[H])c6N([H])[H])C5([H])[H])C([H])([H])[H])nc(C([H])([H])[H])nc4C([H])([H])[H])C3([H])[H])c([H])c([H])c2C1([H])[H]

>  <smiles>  (94) 
[H]c1c([H])c([H])c2c(c1[H])C([H])([H])C([H])([H])C([H])([H])C2([H])N([H])C(=O)C1([H])N(C(=O)C([H])(N([H])C(=O)C([H])(N([H])C([H])([H])[H])C([H])([H])[H])C(C([H])([H])[H])(C([H])([H])[H])C([H])([H])[H])C([H])([H])c2c([H])c(OC([H])([H])C([H])([H])[N+]3([H])C([H])([H])C([H])([H])C([H])(c4c(N([H])C([H])([H])C([H])(N([H])C(=O)N5C([H])([H])C([H])([H])C([H])([H])C([H])(n6nc(-c7c([H])c([H])c(Oc8c([H])c([H])c(F)c([H])c8F)c([H])c7[H])c(C(=O)N([H])[H])c6N([H])[H])C5([H])[H])C([H])([H])[H])nc(C([H])([H])[H])nc4C([H])([H])[H])C3([H])[H])c([H])c([H])c2C1([H])[H]

$$$$
94:0:0
     RDKit          3D

 92100  0  0  1  0  0  0  0  0999 V2000
  -27.8170  -21.7470   20.1290 C   0  0  0  0  0  2  0  0  0  0  0  0
  -29.4220  -20.2480   21.4550 C   0  0  0  0  0  3  0  0  0  0  0  0
  -29.9500  -18.9660   21.7110 C   0  0  0  0  0  3  0  0  0  0  0  0
  -28.3830  -19.3210   19.4860 C   0  0  0  0  0  3  0  0  0  0  0  0
  -28.5940  -20.4360   20.3280 C   0  0  0  0  0  0  0  0  0  0  0  0
  -29.6260  -17.8970   20.8530 C   0  0  0  0  0  0  0  0  0  0  0  0
  -28.8880  -18.0850   19.7340 N   0  0  0  0  0  0  0  0  0  0  0  0
  -29.9680  -16.4480   21.2250 C   0  0  0  0  0  2  0  0  0  0  0  0
  -31.0910  -14.5460   20.0810 C   0  0  0  0  0  0  0  0  0  0  0  0
  -30.7160  -12.3730   18.9890 C   0  0  0  0  0  2  0  0  0  0  0  0
  -29.7590  -12.6210   17.8030 C   0  0  0  0  0  2  0  0  0  0  0  0
  -28.2860  -12.5480   18.2590 C   0  0  0  0  0  2  0  0  0  0  0  0
  -28.0070  -13.3750   19.5450 C   0  0  0  0  0  3  0  0  0  0  0  0
  -29.0860  -13.1240   20.6250 C   0  0  0  0  0  2  0  0  0  0  0  0
  -30.3970  -13.3780   20.0130 N   0  0  0  0  0  0  0  0  0  0  0  0
  -32.2570  -14.6570   19.7010 O   0  0  0  0  0  0  0  0  0  0  0  0
  -30.3210  -15.6400   20.0630 N   0  0  0  0  0  0  0  0  0  0  0  0
  -30.5710  -16.2750   19.3190 H   0  0  0  0  0  0  0  0  0  0  0  0
  -25.6450  -14.0530   20.3070 C   0  0  0  0  0  0  0  0  0  0  0  0
  -24.5610  -13.3090   20.6960 C   0  0  0  0  0  0  0  0  0  0  0  0
  -24.9820  -11.9460   20.6500 C   0  0  0  0  0  0  0  0  0  0  0  0
  -26.6580  -13.1380   20.0530 N   0  0  0  0  0  0  0  0  0  0  0  0
  -26.2630  -11.8670   20.3140 N   0  0  0  0  0  0  0  0  0  0  0  0
  -24.2220  -10.7030   20.8530 C   0  0  0  0  0  0  0  0  0  0  0  0
  -24.5990   -9.7610   21.8340 C   0  0  0  0  0  3  0  0  0  0  0  0
  -23.8430   -8.5830   22.0220 C   0  0  0  0  0  3  0  0  0  0  0  0
  -22.6950   -8.3420   21.2320 C   0  0  0  0  0  0  0  0  0  0  0  0
  -22.3350   -9.2750   20.2430 C   0  0  0  0  0  3  0  0  0  0  0  0
  -23.0920  -10.4440   20.0520 C   0  0  0  0  0  3  0  0  0  0  0  0
  -21.9160   -7.2150   21.3270 O   0  0  0  0  0  0  0  0  0  0  0  0
  -21.7420   -6.5570   22.5190 C   0  0  0  0  0  0  0  0  0  0  0  0
  -21.2210   -7.2060   23.6590 C   0  0  0  0  0  3  0  0  0  0  0  0
  -20.9940   -6.4760   24.8420 C   0  0  0  0  0  3  0  0  0  0  0  0
  -21.2780   -5.0980   24.8860 C   0  0  0  0  0  0  0  0  0  0  0  0
  -21.7940   -4.4490   23.7510 C   0  0  0  0  0  3  0  0  0  0  0  0
  -22.0220   -5.1760   22.5690 C   0  0  0  0  0  0  0  0  0  0  0  0
  -22.4980   -4.5410   21.4710 F   0  0  0  0  0  0  0  0  0  0  0  0
  -21.0550   -4.3950   26.0210 F   0  0  0  0  0  0  0  0  0  0  0  0
  -23.1850  -13.8280   20.9990 C   0  0  0  0  0  0  0  0  0  0  0  0
  -22.4650  -13.1620   21.8940 N   0  0  0  0  0  0  0  0  0  0  0  0
  -22.7590  -14.8570   20.4770 O   0  0  0  0  0  0  0  0  0  0  0  0
  -22.8230  -12.3330   22.3420 H   0  0  0  0  0  0  0  0  0  0  0  0
  -21.5410  -13.4890   22.1400 H   0  0  0  0  0  0  0  0  0  0  0  0
  -25.8460  -15.4180   20.1320 N   0  0  0  0  0  0  0  0  0  0  0  0
  -25.1060  -16.0960   20.2700 H   0  0  0  0  0  0  0  0  0  0  0  0
  -26.7080  -15.8350   19.7990 H   0  0  0  0  0  0  0  0  0  0  0  0
  -28.6310  -22.9630   19.8540 N   0  0  0  0  0  4  0  0  0  0  0  0
  -28.9080  -22.9500   18.8840 H   0  0  0  0  0  0  0  0  0  0  0  0
  -29.4770  -22.9290   20.4020 H   0  0  0  0  0  0  0  0  0  0  0  0
  -27.9340  -24.2510   20.1540 C   0  0  0  0  0  2  0  0  0  0  0  0
  -28.4720  -25.4540   19.3360 C   0  0  0  0  0  2  0  0  0  0  0  0
  -28.3920  -26.7300   19.9990 O   0  0  0  0  0  0  0  0  0  0  0  0
  -24.7020  -31.7980   23.3710 C   0  0  0  0  0  0  0  0  0  0  0  0
  -27.2180  -27.4580   20.0230 C   0  0  0  0  0  0  0  0  0  0  0  0
  -23.4550  -30.5220   21.6640 C   0  0  0  0  0  3  0  0  0  0  0  0
  -24.8580  -29.0280   20.1450 C   0  0  0  0  0  0  0  0  0  0  0  0
  -25.9900  -30.8210   21.4680 C   0  0  0  0  0  2  0  0  0  0  0  0
  -26.0330  -29.4840   20.7550 C   0  0  0  0  0  0  0  0  0  0  0  0
  -27.2100  -28.7030   20.7000 C   0  0  0  0  0  3  0  0  0  0  0  0
  -26.0220  -27.0200   19.4070 C   0  0  0  0  0  3  0  0  0  0  0  0
  -24.8460  -27.7890   19.4790 C   0  0  0  0  0  3  0  0  0  0  0  0
  -23.6390  -29.9160   20.2470 C   0  0  0  0  0  2  0  0  0  0  0  0
  -24.7360  -31.0570   22.2260 N   0  0  0  0  0  0  0  0  0  0  0  0
  -23.6290  -32.0660   23.9280 O   0  0  0  0  0  0  0  0  0  0  0  0
  -22.7870  -29.4610   22.5690 C   0  0  0  0  0  0  0  0  0  0  0  0
  -21.4640  -29.3000   22.4280 N   0  0  0  0  0  0  0  0  0  0  0  0
  -23.4550  -28.7870   23.3560 O   0  0  0  0  0  0  0  0  0  0  0  0
  -20.9790  -29.8880   21.7640 H   0  0  0  0  0  0  0  0  0  0  0  0
  -18.0820  -28.1090   22.8290 C   0  0  0  0  0  0  0  0  0  0  0  0
  -20.6360  -28.3400   23.1530 C   0  0  0  0  0  3  0  0  0  0  0  0
  -20.7400  -26.9300   22.5280 C   0  0  0  0  0  2  0  0  0  0  0  0
  -19.6620  -26.6660   21.4720 C   0  0  0  0  0  2  0  0  0  0  0  0
  -18.2680  -26.7900   22.0950 C   0  0  0  0  0  2  0  0  0  0  0  0
  -19.1960  -28.8450   23.3090 C   0  0  0  0  0  0  0  0  0  0  0  0
  -18.9740  -30.0850   23.9420 C   0  0  0  0  0  3  0  0  0  0  0  0
  -17.6700  -30.5890   24.1060 C   0  0  0  0  0  3  0  0  0  0  0  0
  -16.5680  -29.8480   23.6490 C   0  0  0  0  0  3  0  0  0  0  0  0
  -16.7750  -28.6110   23.0140 C   0  0  0  0  0  3  0  0  0  0  0  0
  -26.0060  -32.3650   24.0180 C   0  0  0  0  0  3  0  0  0  0  0  0
  -25.7310  -33.7490   24.4280 N   0  0  0  0  0  0  0  0  0  0  0  0
  -26.0890  -34.8340   23.7290 C   0  0  0  0  0  0  0  0  0  0  0  0
  -26.7610  -34.7720   22.6940 O   0  0  0  0  0  0  0  0  0  0  0  0
  -25.1390  -33.8760   25.2350 H   0  0  0  0  0  0  0  0  0  0  0  0
  -24.4120  -36.6880   23.4630 C   0  0  0  0  0  1  0  0  0  0  0  0
  -25.6330  -36.2050   24.2610 C   0  0  0  0  0  3  0  0  0  0  0  0
  -27.7830  -36.9820   25.1580 C   0  0  0  0  0  1  0  0  0  0  0  0
  -26.6940  -37.2350   24.2190 N   0  0  0  0  0  0  0  0  0  0  0  0
  -26.3100  -38.1560   24.4160 H   0  0  0  0  0  0  0  0  0  0  0  0
  -26.5190  -31.5070   25.2400 C   0  0  1  0  0  0  0  0  0  0  0  0
  -25.4380  -31.2260   26.3100 C   0  0  0  0  0  1  0  0  0  0  0  0
  -27.0680  -30.1440   24.7570 C   0  0  0  0  0  1  0  0  0  0  0  0
  -27.6910  -32.2400   25.9350 C   0  0  0  0  0  1  0  0  0  0  0  0
  1  5  1  0
  2  3  1  0
  4  7  2  0
  4  5  1  0
  5  2  2  0
  6  8  1  0
  6  3  2  0
  7  6  1  0
 10 15  1  0
 11 12  1  0
 11 10  1  0
 13 12  1  0
 13 22  1  0
 13 14  1  0
 15  9  1  0
 15 14  1  0
 16  9  2  0
 17  9  1  0
 17  8  1  0
 18 17  1  0
 19 20  2  0
 20 39  1  0
 21 20  1  0
 21 24  1  0
 22 19  1  0
 22 23  1  0
 23 21  2  0
 24 25  1  0
 25 26  2  0
 27 30  1  0
 27 26  1  0
 28 27  2  0
 29 28  1  0
 29 24  2  0
 30 31  1  0
 31 36  2  0
 31 32  1  0
 32 33  2  0
 33 34  1  0
 34 38  1  0
 35 34  2  0
 36 35  1  0
 37 36  1  0
 39 40  1  0
 40 43  1  0
 40 42  1  0
 41 39  2  0
 44 45  1  0
 44 19  1  0
 46 44  1  0
 47  1  1  0
 47 50  1  0
 47 49  1  0
 48 47  1  0
 51 52  1  0
 51 50  1  0
 52 54  1  0
 53 64  2  0
 54 59  1  0
 55 63  1  0
 55 65  1  0
 56 62  1  0
 56 58  1  0
 57 63  1  0
 58 57  1  0
 59 58  2  0
 60 61  1  0
 60 54  2  0
 61 56  2  0
 62 55  1  0
 63 53  1  0
 65 67  2  0
 66 65  1  0
 68 66  1  0
 69 78  2  0
 69 74  1  0
 70 66  1  0
 70 74  1  0
 71 70  1  0
 72 73  1  0
 72 71  1  0
 73 69  1  0
 74 75  2  0
 75 76  1  0
 77 76  2  0
 78 77  1  0
 79 53  1  0
 79 80  1  0
 79 89  1  0
 80 83  1  0
 81 85  1  0
 81 80  1  0
 82 81  2  0
 85 84  1  0
 87 85  1  0
 87 88  1  0
 87 86  1  0
 89 92  1  1
 89 90  1  0
 91 89  1  0
M  ISO  4   9 100  17 100  51 101  52 101
M  END
>  <TORSDO>  (95) 
F 21

>  <SCORE>  (95) 
-12.536

>  <name>  (95) 
94

>  <ligand_id>  (95) 
94

>  <original_smiles>  (95) 
[H]c1nc(C([H])([H])N([H])C(=O)N2C([H])([H])C([H])([H])C([H])([H])C([H])(n3nc(-c4c([H])c([H])c(Oc5c([H])c([H])c(F)c([H])c5F)c([H])c4[H])c(C(=O)N([H])[H])c3N([H])[H])C2([H])[H])c([H])c([H])c1C([H])([H])[N+]([H])([H])C([H])([H])C([H])([H])Oc1c([H])c([H])c2c(c1[H])C([H])([H])N(C(=O)C([H])(N([H])C(=O)C([H])(N([H])C([H])([H])[H])C([H])([H])[H])C(C([H])([H])[H])(C([H])([H])[H])C([H])([H])[H])C([H])(C(=O)N([H])C1([H])c3c([H])c([H])c([H])c([H])c3C([H])([H])C([H])([H])C1([H])[H])C2([H])[H]

>  <smiles>  (95) 
[H]c1nc(C([H])([H])N([H])C(=O)N2C([H])([H])C([H])([H])C([H])([H])C([H])(n3nc(-c4c([H])c([H])c(Oc5c([H])c([H])c(F)c([H])c5F)c([H])c4[H])c(C(=O)N([H])[H])c3N([H])[H])C2([H])[H])c([H])c([H])c1C([H])([H])[N+]([H])([H])C([H])([H])C([H])([H])Oc1c([H])c([H])c2c(c1[H])C([H])([H])N(C(=O)C([H])(N([H])C(=O)C([H])(N([H])C([H])([H])[H])C([H])([H])[H])C(C([H])([H])[H])(C([H])([H])[H])C([H])([H])[H])C([H])(C(=O)N([H])C1([H])c3c([H])c([H])c([H])c([H])c3C([H])([H])C([H])([H])C1([H])[H])C2([H])[H]

$$$$
95:0:0
     RDKit          3D

 91 99  0  0  1  0  0  0  0  0999 V2000
  -30.2870  -23.8940   20.8270 C   0  0  0  0  0  3  0  0  0  0  0  0
  -28.6840  -22.2680   20.0770 C   0  0  0  0  0  3  0  0  0  0  0  0
  -31.1330  -22.7960   21.1050 C   0  0  0  0  0  3  0  0  0  0  0  0
  -29.0050  -23.6700   20.2930 C   0  0  0  0  0  0  0  0  0  0  0  0
  -29.5970  -21.1900   20.3890 C   0  0  0  0  0  0  0  0  0  0  0  0
  -30.8060  -21.4930   20.8990 N   0  0  0  0  0  0  0  0  0  0  0  0
  -29.3080  -19.7870   20.1830 N   0  0  0  0  0  0  0  0  0  0  0  0
  -28.3800  -19.5650   19.8390 H   0  0  0  0  0  0  0  0  0  0  0  0
  -28.0100  -24.8700   19.9500 C   0  0  0  0  0  2  0  0  0  0  0  0
  -28.2990  -26.3310   20.2160 O   0  0  0  0  0  0  0  0  0  0  0  0
  -24.6370  -31.8640   23.2150 C   0  0  0  0  0  0  0  0  0  0  0  0
  -27.2130  -27.2470   20.1470 C   0  0  0  0  0  0  0  0  0  0  0  0
  -23.4190  -30.4630   21.5910 C   0  0  0  0  0  3  0  0  0  0  0  0
  -24.8560  -28.9090   20.1510 C   0  0  0  0  0  0  0  0  0  0  0  0
  -25.9630  -30.7650   21.3890 C   0  0  0  0  0  2  0  0  0  0  0  0
  -26.0360  -29.3810   20.7410 C   0  0  0  0  0  0  0  0  0  0  0  0
  -27.2150  -28.5630   20.7290 C   0  0  0  0  0  3  0  0  0  0  0  0
  -26.0060  -26.8590   19.5140 C   0  0  0  0  0  3  0  0  0  0  0  0
  -24.8480  -27.6550   19.5270 C   0  0  0  0  0  3  0  0  0  0  0  0
  -23.6230  -29.7880   20.2100 C   0  0  0  0  0  2  0  0  0  0  0  0
  -24.6930  -31.0490   22.1210 N   0  0  0  0  0  0  0  0  0  0  0  0
  -23.5570  -32.1460   23.7560 O   0  0  0  0  0  0  0  0  0  0  0  0
  -22.7610  -29.4510   22.5590 C   0  0  0  0  0  0  0  0  0  0  0  0
  -21.4330  -29.2730   22.4440 N   0  0  0  0  0  0  0  0  0  0  0  0
  -23.4450  -28.8270   23.3750 O   0  0  0  0  0  0  0  0  0  0  0  0
  -20.9400  -29.8270   21.7570 H   0  0  0  0  0  0  0  0  0  0  0  0
  -18.0600  -28.0700   22.9720 C   0  0  0  0  0  0  0  0  0  0  0  0
  -20.6190  -28.3410   23.2260 C   0  0  0  0  0  3  0  0  0  0  0  0
  -20.7240  -26.9060   22.6600 C   0  0  0  0  0  2  0  0  0  0  0  0
  -19.6170  -26.5720   21.6540 C   0  0  0  0  0  2  0  0  0  0  0  0
  -18.2370  -26.7180   22.3040 C   0  0  0  0  0  2  0  0  0  0  0  0
  -19.1790  -28.8400   23.3900 C   0  0  0  0  0  0  0  0  0  0  0  0
  -18.9570  -30.1060   23.9760 C   0  0  0  0  0  3  0  0  0  0  0  0
  -17.6520  -30.6030   24.1450 C   0  0  0  0  0  3  0  0  0  0  0  0
  -16.5480  -29.8320   23.7420 C   0  0  0  0  0  3  0  0  0  0  0  0
  -16.7540  -28.5670   23.1600 C   0  0  0  0  0  3  0  0  0  0  0  0
  -25.9240  -32.4980   23.8250 C   0  0  0  0  0  3  0  0  0  0  0  0
  -26.4640  -31.7170   25.0870 C   0  0  1  0  0  0  0  0  0  0  0  0
  -25.3880  -31.4680   26.1680 C   0  0  0  0  0  1  0  0  0  0  0  0
  -27.0450  -30.3450   24.6750 C   0  0  0  0  0  1  0  0  0  0  0  0
  -27.6230  -32.5100   25.7360 C   0  0  0  0  0  1  0  0  0  0  0  0
  -25.6120  -33.8920   24.1740 N   0  0  0  0  0  0  0  0  0  0  0  0
  -25.9230  -34.9540   23.4200 C   0  0  0  0  0  0  0  0  0  0  0  0
  -26.5730  -34.8650   22.3740 O   0  0  0  0  0  0  0  0  0  0  0  0
  -25.0330  -34.0380   24.9890 H   0  0  0  0  0  0  0  0  0  0  0  0
  -24.1730  -36.7360   23.1290 C   0  0  0  0  0  1  0  0  0  0  0  0
  -25.4380  -36.3340   23.9030 C   0  0  0  0  0  3  0  0  0  0  0  0
  -27.5890  -37.2260   24.6840 C   0  0  0  0  0  1  0  0  0  0  0  0
  -26.4600  -37.3960   23.7730 N   0  0  0  0  0  0  0  0  0  0  0  0
  -26.0510  -38.3120   23.9400 H   0  0  0  0  0  0  0  0  0  0  0  0
  -30.1630  -18.5840   20.5520 C   0  0  0  0  0  2  0  0  0  0  0  0
  -28.1150  -17.0970   20.7660 C   0  0  0  0  0  1  0  0  0  0  0  0
  -29.5590  -17.1020   20.2480 C   0  0  0  0  0  3  0  0  0  0  0  0
  -30.7490  -14.7230   20.2460 C   0  0  0  0  0  0  0  0  0  0  0  0
  -30.4350  -12.4470   19.2480 C   0  0  0  0  0  2  0  0  0  0  0  0
  -29.4980  -12.5170   18.0250 C   0  0  0  0  0  2  0  0  0  0  0  0
  -28.0290  -12.3710   18.4660 C   0  0  0  0  0  2  0  0  0  0  0  0
  -27.6730  -13.2890   19.6680 C   0  0  0  0  0  3  0  0  0  0  0  0
  -28.7420  -13.2220   20.7840 C   0  0  0  0  0  2  0  0  0  0  0  0
  -30.0460  -13.5340   20.1820 N   0  0  0  0  0  0  0  0  0  0  0  0
  -31.8820  -14.7830   19.7670 O   0  0  0  0  0  0  0  0  0  0  0  0
  -30.2210  -15.8540   20.8430 N   0  0  0  0  0  0  0  0  0  0  0  0
  -30.8880  -16.1620   21.5370 H   0  0  0  0  0  0  0  0  0  0  0  0
  -25.2880  -13.9080   20.3990 C   0  0  0  0  0  0  0  0  0  0  0  0
  -24.2210  -13.1530   20.7980 C   0  0  0  0  0  0  0  0  0  0  0  0
  -24.6670  -11.7970   20.7760 C   0  0  0  0  0  0  0  0  0  0  0  0
  -26.3270  -13.0180   20.1740 N   0  0  0  0  0  0  0  0  0  0  0  0
  -25.9570  -11.7410   20.4580 N   0  0  0  0  0  0  0  0  0  0  0  0
  -23.9220  -10.5490   20.9800 C   0  0  0  0  0  0  0  0  0  0  0  0
  -24.3560   -9.5710   21.9030 C   0  0  0  0  0  3  0  0  0  0  0  0
  -23.6090   -8.3890   22.0990 C   0  0  0  0  0  3  0  0  0  0  0  0
  -22.4140   -8.1780   21.3730 C   0  0  0  0  0  0  0  0  0  0  0  0
  -21.9970   -9.1430   20.4390 C   0  0  0  0  0  3  0  0  0  0  0  0
  -22.7450  -10.3160   20.2410 C   0  0  0  0  0  3  0  0  0  0  0  0
  -21.6380   -7.0480   21.4790 O   0  0  0  0  0  0  0  0  0  0  0  0
  -21.6140   -6.2960   22.6270 C   0  0  0  0  0  0  0  0  0  0  0  0
  -21.2610   -6.8550   23.8750 C   0  0  0  0  0  3  0  0  0  0  0  0
  -21.1820   -6.0320   25.0160 C   0  0  0  0  0  3  0  0  0  0  0  0
  -21.4420   -4.6520   24.9100 C   0  0  0  0  0  0  0  0  0  0  0  0
  -21.7890   -4.0950   23.6670 C   0  0  0  0  0  3  0  0  0  0  0  0
  -21.8700   -4.9140   22.5280 C   0  0  0  0  0  0  0  0  0  0  0  0
  -22.1820   -4.3670   21.3290 F   0  0  0  0  0  0  0  0  0  0  0  0
  -21.3590   -3.8610   26.0050 F   0  0  0  0  0  0  0  0  0  0  0  0
  -22.8320  -13.6560   21.0760 C   0  0  0  0  0  0  0  0  0  0  0  0
  -22.1010  -12.9870   21.9610 N   0  0  0  0  0  0  0  0  0  0  0  0
  -22.4050  -14.6810   20.5460 O   0  0  0  0  0  0  0  0  0  0  0  0
  -22.4570  -12.1600   22.4170 H   0  0  0  0  0  0  0  0  0  0  0  0
  -21.1710  -13.3110   22.1890 H   0  0  0  0  0  0  0  0  0  0  0  0
  -25.4430  -15.2710   20.1840 N   0  0  0  0  0  0  0  0  0  0  0  0
  -24.6740  -15.9230   20.2920 H   0  0  0  0  0  0  0  0  0  0  0  0
  -26.2870  -15.7050   19.8370 H   0  0  0  0  0  0  0  0  0  0  0  0
  1  3  1  0
  2  4  1  0
  2  5  2  0
  4  1  2  0
  5  6  1  0
  6  3  2  0
  7  5  1  0
  7 51  1  0
  8  7  1  0
  9 10  1  0
  9  4  1  0
 11 22  2  0
 12 10  1  0
 12 17  1  0
 13 21  1  0
 13 23  1  0
 14 20  1  0
 14 16  1  0
 15 21  1  0
 16 15  1  0
 17 16  2  0
 18 19  1  0
 18 12  2  0
 19 14  2  0
 20 13  1  0
 21 11  1  0
 23 25  2  0
 24 23  1  0
 26 24  1  0
 27 36  2  0
 27 32  1  0
 28 24  1  0
 28 32  1  0
 29 28  1  0
 30 31  1  0
 30 29  1  0
 31 27  1  0
 32 33  2  0
 33 34  1  0
 35 34  2  0
 36 35  1  0
 37 11  1  0
 37 42  1  0
 37 38  1  0
 38 41  1  1
 38 39  1  0
 40 38  1  0
 42 45  1  0
 43 47  1  0
 43 42  1  0
 44 43  2  0
 47 46  1  0
 49 47  1  0
 49 50  1  0
 49 48  1  0
 53 51  1  0
 53 52  1  0
 53 62  1  0
 54 62  1  0
 55 60  1  0
 56 57  1  0
 56 55  1  0
 58 57  1  0
 58 67  1  0
 58 59  1  0
 60 54  1  0
 60 59  1  0
 61 54  2  0
 62 63  1  0
 64 65  2  0
 65 84  1  0
 66 65  1  0
 66 69  1  0
 67 64  1  0
 67 68  1  0
 68 66  2  0
 69 70  1  0
 70 71  2  0
 72 75  1  0
 72 71  1  0
 73 72  2  0
 74 73  1  0
 74 69  2  0
 75 76  1  0
 76 77  1  0
 77 78  2  0
 79 78  1  0
 79 83  1  0
 80 79  2  0
 81 76  2  0
 81 80  1  0
 82 81  1  0
 84 85  1  0
 85 88  1  0
 85 87  1  0
 86 84  2  0
 89 90  1  0
 89 64  1  0
 91 89  1  0
M  ISO  4   9 101  10 101  54 100  62 100
M  END
>  <TORSDO>  (96) 
F 19

>  <SCORE>  (96) 
-14.014

>  <name>  (96) 
95

>  <ligand_id>  (96) 
95

>  <original_smiles>  (96) 
[H]c1nc(N([H])C([H])([H])C([H])(N([H])C(=O)N2C([H])([H])C([H])([H])C([H])([H])C([H])(n3nc(-c4c([H])c([H])c(Oc5c([H])c([H])c(F)c([H])c5F)c([H])c4[H])c(C(=O)N([H])[H])c3N([H])[H])C2([H])[H])C([H])([H])[H])c([H])c(C([H])([H])Oc2c([H])c([H])c3c(c2[H])C([H])([H])N(C(=O)C([H])(N([H])C(=O)C([H])(N([H])C([H])([H])[H])C([H])([H])[H])C(C([H])([H])[H])(C([H])([H])[H])C([H])([H])[H])C([H])(C(=O)N([H])C2([H])c4c([H])c([H])c([H])c([H])c4C([H])([H])C([H])([H])C2([H])[H])C3([H])[H])c1[H]

>  <smiles>  (96) 
[H]c1nc(N([H])C([H])([H])C([H])(N([H])C(=O)N2C([H])([H])C([H])([H])C([H])([H])C([H])(n3nc(-c4c([H])c([H])c(Oc5c([H])c([H])c(F)c([H])c5F)c([H])c4[H])c(C(=O)N([H])[H])c3N([H])[H])C2([H])[H])C([H])([H])[H])c([H])c(C([H])([H])Oc2c([H])c([H])c3c(c2[H])C([H])([H])N(C(=O)C([H])(N([H])C(=O)C([H])(N([H])C([H])([H])[H])C([H])([H])[H])C(C([H])([H])[H])(C([H])([H])[H])C([H])([H])[H])C([H])(C(=O)N([H])C2([H])c4c([H])c([H])c([H])c([H])c4C([H])([H])C([H])([H])C2([H])[H])C3([H])[H])c1[H]

$$$$
96:0:0
     RDKit          3D

 99109  0  0  1  0  0  0  0  0999 V2000
  -28.5010  -24.2510   21.5290 C   0  0  0  0  0  2  0  0  0  0  0  0
  -28.4630  -25.7550   21.8510 C   0  0  0  0  0  2  0  0  0  0  0  0
  -30.0470  -25.9880   19.8650 C   0  0  0  0  0  2  0  0  0  0  0  0
  -29.9230  -23.7460   21.1580 C   0  0  0  0  0  3  0  0  0  0  0  0
  -30.8440  -24.9150   20.6550 C   0  0  0  0  0  3  0  0  0  0  0  0
  -28.8210  -26.5860   20.6000 C   0  0  0  0  0  3  0  0  0  0  0  0
  -27.7520  -26.5620   19.6420 O   0  0  0  0  0  0  0  0  0  0  0  0
  -24.5640  -31.8940   23.1640 C   0  0  0  0  0  0  0  0  0  0  0  0
  -26.6640  -27.3820   19.8260 C   0  0  0  0  0  0  0  0  0  0  0  0
  -23.1240  -30.5830   21.6320 C   0  0  0  0  0  3  0  0  0  0  0  0
  -24.3520  -28.9870   20.0610 C   0  0  0  0  0  0  0  0  0  0  0  0
  -25.6260  -30.8220   21.1820 C   0  0  0  0  0  2  0  0  0  0  0  0
  -25.5820  -29.4490   20.5480 C   0  0  0  0  0  0  0  0  0  0  0  0
  -26.7400  -28.6510   20.4410 C   0  0  0  0  0  3  0  0  0  0  0  0
  -25.4240  -26.9360   19.3260 C   0  0  0  0  0  3  0  0  0  0  0  0
  -24.2640  -27.7250   19.4490 C   0  0  0  0  0  3  0  0  0  0  0  0
  -23.1600  -29.9050   20.2330 C   0  0  0  0  0  2  0  0  0  0  0  0
  -24.4630  -31.1140   22.0510 N   0  0  0  0  0  0  0  0  0  0  0  0
  -23.5610  -32.2140   23.8150 O   0  0  0  0  0  0  0  0  0  0  0  0
  -22.5180  -29.5850   22.6450 C   0  0  0  0  0  0  0  0  0  0  0  0
  -21.2000  -29.3560   22.5430 N   0  0  0  0  0  0  0  0  0  0  0  0
  -23.2320  -29.0180   23.4780 O   0  0  0  0  0  0  0  0  0  0  0  0
  -20.6840  -29.8690   21.8410 H   0  0  0  0  0  0  0  0  0  0  0  0
  -17.9190  -27.9130   22.9850 C   0  0  0  0  0  0  0  0  0  0  0  0
  -20.4240  -28.4270   23.3630 C   0  0  0  0  0  3  0  0  0  0  0  0
  -20.6800  -26.9620   22.9430 C   0  0  0  0  0  2  0  0  0  0  0  0
  -19.6760  -26.4450   21.9100 C   0  0  0  0  0  2  0  0  0  0  0  0
  -18.2500  -26.5260   22.4610 C   0  0  0  0  0  2  0  0  0  0  0  0
  -18.9400  -28.8110   23.3940 C   0  0  0  0  0  0  0  0  0  0  0  0
  -18.5800  -30.1020   23.8390 C   0  0  0  0  0  3  0  0  0  0  0  0
  -17.2300  -30.4990   23.8830 C   0  0  0  0  0  3  0  0  0  0  0  0
  -16.2220  -29.6010   23.4910 C   0  0  0  0  0  3  0  0  0  0  0  0
  -16.5670  -28.3100   23.0500 C   0  0  0  0  0  3  0  0  0  0  0  0
  -25.9410  -32.4430   23.6560 C   0  0  0  0  0  3  0  0  0  0  0  0
  -25.7320  -33.8260   24.1020 N   0  0  0  0  0  0  0  0  0  0  0  0
  -26.0340  -34.9120   23.3770 C   0  0  0  0  0  0  0  0  0  0  0  0
  -26.5910  -34.8500   22.2770 O   0  0  0  0  0  0  0  0  0  0  0  0
  -25.2310  -33.9500   24.9690 H   0  0  0  0  0  0  0  0  0  0  0  0
  -24.3630  -36.7890   23.3010 C   0  0  0  0  0  1  0  0  0  0  0  0
  -25.6560  -36.2850   23.9630 C   0  0  0  0  0  3  0  0  0  0  0  0
  -27.8970  -37.0280   24.6350 C   0  0  0  0  0  1  0  0  0  0  0  0
  -26.7200  -37.3010   23.8140 N   0  0  0  0  0  0  0  0  0  0  0  0
  -26.3730  -38.2260   24.0540 H   0  0  0  0  0  0  0  0  0  0  0  0
  -26.5830  -31.5730   24.8060 C   0  0  1  0  0  0  0  0  0  0  0  0
  -25.6280  -31.3050   25.9900 C   0  0  0  0  0  1  0  0  0  0  0  0
  -27.0540  -30.2060   24.2550 C   0  0  0  0  0  1  0  0  0  0  0  0
  -27.8440  -32.2810   25.3560 C   0  0  0  0  0  1  0  0  0  0  0  0
  -32.0140  -24.3560   19.8020 C   0  0  0  0  0  2  0  0  0  0  0  0
  -34.0670  -24.8560   18.3100 C   0  0  0  0  0  2  0  0  0  0  0  0
  -33.0190  -25.8020   17.7880 C   0  0  0  0  0  2  0  0  0  0  0  0
  -32.9940  -25.3740   19.2440 C   0  0  0  0  0  3  0  0  0  0  0  0
  -30.5400  -22.9260   22.3340 C   0  0  0  0  0  2  0  0  0  0  0  0
  -30.1960  -21.0240   23.9970 C   0  0  0  0  0  1  0  0  0  0  0  0
  -29.9780  -21.4780   22.5400 C   0  0  0  0  0  3  0  0  0  0  0  0
  -31.7180  -19.4030   20.0590 C   0  0  0  0  0  3  0  0  0  0  0  0
  -31.6070  -20.5520   20.7860 C   0  0  0  0  0  3  0  0  0  0  0  0
  -29.9470  -19.1900   21.3950 C   0  0  0  0  0  3  0  0  0  0  0  0
  -30.6430  -18.5380   20.4090 C   0  0  0  0  0  0  0  0  0  0  0  0
  -30.5020  -20.4520   21.6110 N   0  0  0  0  0  0  0  0  0  0  0  0
  -29.0590  -17.4310   18.8180 C   0  0  0  0  0  1  0  0  0  0  0  0
  -30.3100  -17.2380   19.6860 C   0  0  0  0  0  3  0  0  0  0  0  0
  -30.9400  -14.9360   20.3740 C   0  0  0  0  0  0  0  0  0  0  0  0
  -30.7110  -12.6540   19.4910 C   0  0  0  0  0  2  0  0  0  0  0  0
  -29.8250  -12.7220   18.2300 C   0  0  0  0  0  2  0  0  0  0  0  0
  -28.3310  -12.6240   18.5990 C   0  0  0  0  0  2  0  0  0  0  0  0
  -27.9300  -13.5500   19.7810 C   0  0  0  0  0  3  0  0  0  0  0  0
  -28.9530  -13.4770   20.9420 C   0  0  0  0  0  2  0  0  0  0  0  0
  -30.2900  -13.7380   20.3910 N   0  0  0  0  0  0  0  0  0  0  0  0
  -32.1010  -15.0510   19.9820 O   0  0  0  0  0  0  0  0  0  0  0  0
  -30.1510  -16.0220   20.5130 N   0  0  0  0  0  0  0  0  0  0  0  0
  -29.2300  -15.8510   20.8800 H   0  0  0  0  0  0  0  0  0  0  0  0
  -25.5290  -14.1590   20.4830 C   0  0  0  0  0  0  0  0  0  0  0  0
  -24.4540  -13.3880   20.8370 C   0  0  0  0  0  0  0  0  0  0  0  0
  -24.9070  -12.0350   20.7950 C   0  0  0  0  0  0  0  0  0  0  0  0
  -26.5700  -13.2750   20.2440 N   0  0  0  0  0  0  0  0  0  0  0  0
  -26.2010  -11.9930   20.4990 N   0  0  0  0  0  0  0  0  0  0  0  0
  -24.1720  -10.7750   20.9620 C   0  0  0  0  0  0  0  0  0  0  0  0
  -24.5730   -9.8080   21.9090 C   0  0  0  0  0  3  0  0  0  0  0  0
  -23.8430   -8.6090   22.0680 C   0  0  0  0  0  3  0  0  0  0  0  0
  -22.6950   -8.3720   21.2730 C   0  0  0  0  0  0  0  0  0  0  0  0
  -22.3130   -9.3290   20.3150 C   0  0  0  0  0  3  0  0  0  0  0  0
  -23.0440  -10.5170   20.1560 C   0  0  0  0  0  3  0  0  0  0  0  0
  -21.9370   -7.2300   21.3390 O   0  0  0  0  0  0  0  0  0  0  0  0
  -21.7970   -6.5230   22.5080 C   0  0  0  0  0  0  0  0  0  0  0  0
  -21.2800   -7.1190   23.6800 C   0  0  0  0  0  3  0  0  0  0  0  0
  -21.0870   -6.3400   24.8390 C   0  0  0  0  0  3  0  0  0  0  0  0
  -21.3960   -4.9670   24.8250 C   0  0  0  0  0  0  0  0  0  0  0  0
  -21.9030   -4.3700   23.6580 C   0  0  0  0  0  3  0  0  0  0  0  0
  -22.1010   -5.1470   22.5030 C   0  0  0  0  0  0  0  0  0  0  0  0
  -22.5680   -4.5600   21.3720 F   0  0  0  0  0  0  0  0  0  0  0  0
  -21.2040   -4.2180   25.9340 F   0  0  0  0  0  0  0  0  0  0  0  0
  -23.0560  -13.8740   21.1010 C   0  0  0  0  0  0  0  0  0  0  0  0
  -22.3190  -13.1930   21.9720 N   0  0  0  0  0  0  0  0  0  0  0  0
  -22.6240  -14.8920   20.5640 O   0  0  0  0  0  0  0  0  0  0  0  0
  -22.6780  -12.3720   22.4370 H   0  0  0  0  0  0  0  0  0  0  0  0
  -21.3820  -13.5100   22.1830 H   0  0  0  0  0  0  0  0  0  0  0  0
  -25.7070  -15.5300   20.3250 N   0  0  0  0  0  0  0  0  0  0  0  0
  -24.9440  -16.1890   20.4500 H   0  0  0  0  0  0  0  0  0  0  0  0
  -26.5550  -15.9650   19.9860 H   0  0  0  0  0  0  0  0  0  0  0  0
  1  2  1  0
  3  6  1  0
  3  5  1  0
  4  1  1  0
  4 52  1  0
  5 48  1  0
  5  4  1  0
  6  7  1  0
  6  2  1  0
  7  9  1  0
  8 19  2  0
  9 14  1  0
 10 18  1  0
 10 20  1  0
 11 17  1  0
 11 13  1  0
 12 18  1  0
 13 12  1  0
 14 13  2  0
 15 16  1  0
 15  9  2  0
 16 11  2  0
 17 10  1  0
 18  8  1  0
 20 22  2  0
 21 20  1  0
 23 21  1  0
 24 33  2  0
 24 29  1  0
 25 21  1  0
 25 29  1  0
 26 25  1  0
 27 28  1  0
 27 26  1  0
 28 24  1  0
 29 30  2  0
 30 31  1  0
 32 31  2  0
 33 32  1  0
 34  8  1  0
 34 35  1  0
 34 44  1  0
 35 38  1  0
 36 40  1  0
 36 35  1  0
 37 36  2  0
 40 39  1  0
 42 40  1  0
 42 43  1  0
 42 41  1  0
 44 47  1  1
 44 45  1  0
 46 44  1  0
 49 51  1  0
 50 49  1  0
 50 51  1  0
 51 48  1  0
 52 54  1  0
 54 53  1  0
 55 58  1  0
 55 56  2  0
 56 59  1  0
 57 59  1  0
 58 57  2  0
 59 54  1  0
 61 60  1  0
 61 58  1  0
 61 70  1  0
 62 68  1  0
 62 70  1  0
 63 68  1  0
 64 65  1  0
 64 63  1  0
 66 65  1  0
 66 75  1  0
 66 67  1  0
 68 67  1  0
 69 62  2  0
 70 71  1  0
 72 73  2  0
 73 92  1  0
 74 73  1  0
 74 77  1  0
 75 72  1  0
 75 76  1  0
 76 74  2  0
 77 78  1  0
 78 79  2  0
 80 83  1  0
 80 79  1  0
 81 80  2  0
 82 81  1  0
 82 77  2  0
 83 84  1  0
 84 85  1  0
 85 86  2  0
 87 86  1  0
 87 91  1  0
 88 87  2  0
 89 84  2  0
 89 88  1  0
 90 89  1  0
 92 93  1  0
 93 96  1  0
 93 95  1  0
 94 92  2  0
 97 98  1  0
 97 72  1  0
 99 97  1  0
M  ISO  4   6 101   7 101  62 100  70 100
M  END
>  <TORSDO>  (97) 
F 22

>  <SCORE>  (97) 
-12.888

>  <name>  (97) 
96

>  <ligand_id>  (97) 
96

>  <original_smiles>  (97) 
[H]c1c([H])c([H])c2c(c1[H])C([H])([H])C([H])([H])C([H])([H])C2([H])N([H])C(=O)C1([H])N(C(=O)C([H])(N([H])C(=O)C([H])(N([H])C([H])([H])[H])C([H])([H])[H])C(C([H])([H])[H])(C([H])([H])[H])C([H])([H])[H])C([H])([H])c2c([H])c(OC3([H])C([H])([H])C([H])([H])C([H])(C([H])([H])C([H])(n4c([H])c([H])c(C([H])(N([H])C(=O)N5C([H])([H])C([H])([H])C([H])([H])C([H])(n6nc(-c7c([H])c([H])c(Oc8c([H])c([H])c(F)c([H])c8F)c([H])c7[H])c(C(=O)N([H])[H])c6N([H])[H])C5([H])[H])C([H])([H])[H])c4[H])C([H])([H])[H])C([H])(C([H])([H])C4([H])C([H])([H])C4([H])[H])C3([H])[H])c([H])c([H])c2C1([H])[H]

>  <smiles>  (97) 
[H]c1c([H])c([H])c2c(c1[H])C([H])([H])C([H])([H])C([H])([H])C2([H])N([H])C(=O)C1([H])N(C(=O)C([H])(N([H])C(=O)C([H])(N([H])C([H])([H])[H])C([H])([H])[H])C(C([H])([H])[H])(C([H])([H])[H])C([H])([H])[H])C([H])([H])c2c([H])c(OC3([H])C([H])([H])C([H])([H])C([H])(C([H])([H])C([H])(n4c([H])c([H])c(C([H])(N([H])C(=O)N5C([H])([H])C([H])([H])C([H])([H])C([H])(n6nc(-c7c([H])c([H])c(Oc8c([H])c([H])c(F)c([H])c8F)c([H])c7[H])c(C(=O)N([H])[H])c6N([H])[H])C5([H])[H])C([H])([H])[H])c4[H])C([H])([H])[H])C([H])(C([H])([H])C4([H])C([H])([H])C4([H])[H])C3([H])[H])c([H])c([H])c2C1([H])[H]

$$$$
97:0:0
     RDKit          3D

 95103  0  0  1  0  0  0  0  0999 V2000
  -31.1130  -20.5250   20.6520 C   0  0  0  0  0  3  0  0  0  0  0  0
  -31.0880  -21.8440   20.1540 C   0  0  0  0  0  3  0  0  0  0  0  0
  -28.7370  -20.3160   20.1920 C   0  0  0  0  0  3  0  0  0  0  0  0
  -28.7050  -21.6290   19.6690 C   0  0  0  0  0  0  0  0  0  0  0  0
  -29.9340  -19.7430   20.6670 C   0  0  0  0  0  0  0  0  0  0  0  0
  -29.8940  -22.4000   19.6510 C   0  0  0  0  0  0  0  0  0  0  0  0
  -26.4480  -22.5900   20.2850 C   0  0  0  0  0  1  0  0  0  0  0  0
  -26.6970  -21.2260   18.1580 C   0  0  0  0  0  1  0  0  0  0  0  0
  -27.3860  -22.1910   19.1350 C   0  0  0  0  0  3  0  0  0  0  0  0
  -29.8990  -18.4180   21.1360 N   0  0  0  0  0  0  0  0  0  0  0  0
  -29.0170  -17.9170   21.0690 H   0  0  0  0  0  0  0  0  0  0  0  0
  -31.1070  -17.6020   21.1480 C   0  0  0  0  0  2  0  0  0  0  0  0
  -30.9450  -16.3570   22.0410 C   0  0  0  0  0  2  0  0  0  0  0  0
  -30.5550  -14.5400   20.3830 C   0  0  0  0  0  0  0  0  0  0  0  0
  -30.1680  -12.4820   19.0730 C   0  0  0  0  0  2  0  0  0  0  0  0
  -29.1680  -12.7130   17.9250 C   0  0  0  0  0  2  0  0  0  0  0  0
  -27.7230  -12.5210   18.4200 C   0  0  0  0  0  2  0  0  0  0  0  0
  -27.4300  -13.3150   19.7190 C   0  0  0  0  0  3  0  0  0  0  0  0
  -28.5330  -13.0750   20.7740 C   0  0  0  0  0  2  0  0  0  0  0  0
  -29.8360  -13.4070   20.1670 N   0  0  0  0  0  0  0  0  0  0  0  0
  -31.5480  -14.8460   19.7160 O   0  0  0  0  0  0  0  0  0  0  0  0
  -30.1630  -15.2850   21.4240 N   0  0  0  0  0  0  0  0  0  0  0  0
  -29.3410  -14.9710   21.9200 H   0  0  0  0  0  0  0  0  0  0  0  0
  -25.0460  -13.8530   20.5300 C   0  0  0  0  0  0  0  0  0  0  0  0
  -24.0130  -13.0490   20.9320 C   0  0  0  0  0  0  0  0  0  0  0  0
  -24.5050  -11.7100   20.8610 C   0  0  0  0  0  0  0  0  0  0  0  0
  -26.1030  -13.0010   20.2460 N   0  0  0  0  0  0  0  0  0  0  0  0
  -25.7830  -11.7070   20.5000 N   0  0  0  0  0  0  0  0  0  0  0  0
  -23.8190  -10.4270   21.0630 C   0  0  0  0  0  0  0  0  0  0  0  0
  -24.2960   -9.4710   21.9860 C   0  0  0  0  0  3  0  0  0  0  0  0
  -23.6090   -8.2520   22.1740 C   0  0  0  0  0  3  0  0  0  0  0  0
  -22.4300   -7.9810   21.4390 C   0  0  0  0  0  0  0  0  0  0  0  0
  -21.9730   -8.9270   20.5040 C   0  0  0  0  0  3  0  0  0  0  0  0
  -22.6610  -10.1360   20.3140 C   0  0  0  0  0  3  0  0  0  0  0  0
  -21.7110   -6.8150   21.5370 O   0  0  0  0  0  0  0  0  0  0  0  0
  -21.6900   -6.0770   22.6940 C   0  0  0  0  0  0  0  0  0  0  0  0
  -21.2510   -6.6240   23.9190 C   0  0  0  0  0  3  0  0  0  0  0  0
  -21.1800   -5.8110   25.0680 C   0  0  0  0  0  3  0  0  0  0  0  0
  -21.5380   -4.4520   24.9930 C   0  0  0  0  0  0  0  0  0  0  0  0
  -21.9710   -3.9040   23.7720 C   0  0  0  0  0  3  0  0  0  0  0  0
  -22.0440   -4.7140   22.6250 C   0  0  0  0  0  0  0  0  0  0  0  0
  -22.4420   -4.1770   21.4470 F   0  0  0  0  0  0  0  0  0  0  0  0
  -21.4630   -3.6680   26.0940 F   0  0  0  0  0  0  0  0  0  0  0  0
  -22.6160  -13.4870   21.2690 C   0  0  0  0  0  0  0  0  0  0  0  0
  -21.9460  -12.7660   22.1620 N   0  0  0  0  0  0  0  0  0  0  0  0
  -22.1290  -14.5030   20.7760 O   0  0  0  0  0  0  0  0  0  0  0  0
  -22.3540  -11.9430   22.5800 H   0  0  0  0  0  0  0  0  0  0  0  0
  -21.0130  -13.0410   22.4290 H   0  0  0  0  0  0  0  0  0  0  0  0
  -25.1700  -15.2290   20.3670 N   0  0  0  0  0  0  0  0  0  0  0  0
  -24.3950  -15.8660   20.5150 H   0  0  0  0  0  0  0  0  0  0  0  0
  -26.0020  -15.6910   20.0190 H   0  0  0  0  0  0  0  0  0  0  0  0
  -29.9240  -23.6420   19.0690 O   0  0  0  0  0  0  0  0  0  0  0  0
  -29.9140  -24.7630   19.9530 C   0  0  0  0  0  2  0  0  0  0  0  0
  -28.6420  -25.5640   19.6340 C   0  0  0  0  0  2  0  0  0  0  0  0
  -28.6560  -26.9110   20.1210 O   0  0  0  0  0  0  0  0  0  0  0  0
  -24.6100  -31.8700   23.2330 C   0  0  0  0  0  0  0  0  0  0  0  0
  -27.4520  -27.5930   20.0930 C   0  0  0  0  0  0  0  0  0  0  0  0
  -23.4820  -30.4790   21.5300 C   0  0  0  0  0  3  0  0  0  0  0  0
  -25.0100  -29.0290   20.0980 C   0  0  0  0  0  0  0  0  0  0  0  0
  -26.0000  -30.9160   21.3990 C   0  0  0  0  0  2  0  0  0  0  0  0
  -26.1410  -29.5660   20.7250 C   0  0  0  0  0  0  0  0  0  0  0  0
  -27.3630  -28.8560   20.7220 C   0  0  0  0  0  3  0  0  0  0  0  0
  -26.2960  -27.0730   19.4580 C   0  0  0  0  0  3  0  0  0  0  0  0
  -25.0820  -27.7800   19.4640 C   0  0  0  0  0  3  0  0  0  0  0  0
  -23.7410  -29.8470   20.1360 C   0  0  0  0  0  2  0  0  0  0  0  0
  -24.7150  -31.1010   22.1130 N   0  0  0  0  0  0  0  0  0  0  0  0
  -23.5100  -32.0960   23.7540 O   0  0  0  0  0  0  0  0  0  0  0  0
  -22.8420  -29.4100   22.4450 C   0  0  0  0  0  0  0  0  0  0  0  0
  -21.5230  -29.2090   22.2990 N   0  0  0  0  0  0  0  0  0  0  0  0
  -23.5300  -28.7680   23.2440 O   0  0  0  0  0  0  0  0  0  0  0  0
  -21.0280  -29.7820   21.6310 H   0  0  0  0  0  0  0  0  0  0  0  0
  -18.1600  -27.9660   22.7470 C   0  0  0  0  0  0  0  0  0  0  0  0
  -20.7160  -28.2320   23.0290 C   0  0  0  0  0  3  0  0  0  0  0  0
  -20.8290  -26.8290   22.3890 C   0  0  0  0  0  2  0  0  0  0  0  0
  -19.7280  -26.5420   21.3620 C   0  0  0  0  0  2  0  0  0  0  0  0
  -18.3460  -26.6490   22.0140 C   0  0  0  0  0  2  0  0  0  0  0  0
  -19.2740  -28.7170   23.2110 C   0  0  0  0  0  0  0  0  0  0  0  0
  -19.0470  -29.9520   23.8550 C   0  0  0  0  0  3  0  0  0  0  0  0
  -17.7390  -30.4370   24.0410 C   0  0  0  0  0  3  0  0  0  0  0  0
  -16.6400  -29.6830   23.5960 C   0  0  0  0  0  3  0  0  0  0  0  0
  -16.8510  -28.4490   22.9560 C   0  0  0  0  0  3  0  0  0  0  0  0
  -25.8630  -32.5210   23.8970 C   0  0  0  0  0  3  0  0  0  0  0  0
  -25.5220  -33.9140   24.2120 N   0  0  0  0  0  0  0  0  0  0  0  0
  -25.8620  -34.9690   23.4580 C   0  0  0  0  0  0  0  0  0  0  0  0
  -26.5670  -34.8720   22.4500 O   0  0  0  0  0  0  0  0  0  0  0  0
  -24.8960  -34.0630   24.9890 H   0  0  0  0  0  0  0  0  0  0  0  0
  -24.1130  -36.7270   23.0410 C   0  0  0  0  0  1  0  0  0  0  0  0
  -25.3360  -36.3500   23.8930 C   0  0  0  0  0  3  0  0  0  0  0  0
  -27.4250  -37.2770   24.7860 C   0  0  0  0  0  1  0  0  0  0  0  0
  -26.3520  -37.4210   23.8070 N   0  0  0  0  0  0  0  0  0  0  0  0
  -25.9240  -38.3340   23.9360 H   0  0  0  0  0  0  0  0  0  0  0  0
  -26.3500  -31.7580   25.1900 C   0  0  1  0  0  0  0  0  0  0  0  0
  -25.2250  -31.5000   26.2200 C   0  0  0  0  0  1  0  0  0  0  0  0
  -26.9680  -30.3900   24.8160 C   0  0  0  0  0  1  0  0  0  0  0  0
  -27.4640  -32.5700   25.8900 C   0  0  0  0  0  1  0  0  0  0  0  0
  1  5  1  0
  2  1  2  0
  3  5  2  0
  4  3  1  0
  5 10  1  0
  6  4  2  0
  6  2  1  0
  8  9  1  0
  9  4  1  0
  9  7  1  0
 10 12  1  0
 11 10  1  0
 12 13  1  0
 14 22  1  0
 15 20  1  0
 16 17  1  0
 16 15  1  0
 18 17  1  0
 18 27  1  0
 18 19  1  0
 20 14  1  0
 20 19  1  0
 21 14  2  0
 22 23  1  0
 22 13  1  0
 24 25  2  0
 25 44  1  0
 26 25  1  0
 26 29  1  0
 27 28  1  0
 27 24  1  0
 28 26  2  0
 29 30  1  0
 30 31  2  0
 32 35  1  0
 32 31  1  0
 33 32  2  0
 34 33  1  0
 34 29  2  0
 35 36  1  0
 36 37  1  0
 37 38  2  0
 39 38  1  0
 39 43  1  0
 40 39  2  0
 41 36  2  0
 41 40  1  0
 42 41  1  0
 44 45  1  0
 45 48  1  0
 45 47  1  0
 46 44  2  0
 49 50  1  0
 49 24  1  0
 51 49  1  0
 52  6  1  0
 52 53  1  0
 54 53  1  0
 54 55  1  0
 56 67  2  0
 57 55  1  0
 57 62  1  0
 58 66  1  0
 58 68  1  0
 59 65  1  0
 59 61  1  0
 60 66  1  0
 61 60  1  0
 62 61  2  0
 63 64  1  0
 63 57  2  0
 64 59  2  0
 65 58  1  0
 66 56  1  0
 68 70  2  0
 69 68  1  0
 71 69  1  0
 72 81  2  0
 72 77  1  0
 73 69  1  0
 73 77  1  0
 74 73  1  0
 75 76  1  0
 75 74  1  0
 76 72  1  0
 77 78  2  0
 78 79  1  0
 80 79  2  0
 81 80  1  0
 82 56  1  0
 82 83  1  0
 82 92  1  0
 83 86  1  0
 84 88  1  0
 84 83  1  0
 85 84  2  0
 88 87  1  0
 90 88  1  0
 90 91  1  0
 90 89  1  0
 92 95  1  1
 92 93  1  0
 94 92  1  0
M  ISO  4  14 100  22 100  54 101  55 101
M  END
>  <TORSDO>  (98) 
F 23

>  <SCORE>  (98) 
-13.061

>  <name>  (98) 
97

>  <ligand_id>  (98) 
97

>  <original_smiles>  (98) 
[H]c1c([H])c([H])c2c(c1[H])C([H])([H])C([H])([H])C([H])([H])C2([H])N([H])C(=O)C1([H])N(C(=O)C([H])(N([H])C(=O)C([H])(N([H])C([H])([H])[H])C([H])([H])[H])C(C([H])([H])[H])(C([H])([H])[H])C([H])([H])[H])C([H])([H])c2c([H])c(OC([H])([H])C([H])([H])Oc3c([H])c([H])c(N([H])C([H])([H])C([H])([H])N([H])C(=O)N4C([H])([H])C([H])([H])C([H])([H])C([H])(n5nc(-c6c([H])c([H])c(Oc7c([H])c([H])c(F)c([H])c7F)c([H])c6[H])c(C(=O)N([H])[H])c5N([H])[H])C4([H])[H])c([H])c3C([H])(C([H])([H])[H])C([H])([H])[H])c([H])c([H])c2C1([H])[H]

>  <smiles>  (98) 
[H]c1c([H])c([H])c2c(c1[H])C([H])([H])C([H])([H])C([H])([H])C2([H])N([H])C(=O)C1([H])N(C(=O)C([H])(N([H])C(=O)C([H])(N([H])C([H])([H])[H])C([H])([H])[H])C(C([H])([H])[H])(C([H])([H])[H])C([H])([H])[H])C([H])([H])c2c([H])c(OC([H])([H])C([H])([H])Oc3c([H])c([H])c(N([H])C([H])([H])C([H])([H])N([H])C(=O)N4C([H])([H])C([H])([H])C([H])([H])C([H])(n5nc(-c6c([H])c([H])c(Oc7c([H])c([H])c(F)c([H])c7F)c([H])c6[H])c(C(=O)N([H])[H])c5N([H])[H])C4([H])[H])c([H])c3C([H])(C([H])([H])[H])C([H])([H])[H])c([H])c([H])c2C1([H])[H]

$$$$
