0:0:0
     RDKit          3D

 96105  0  0  1  0  0  0  0  0999 V2000
  -31.4650  -19.7620   23.1340 C   0  0  0  0  0  0  0  0  0  0  0  0
  -32.9640  -19.0310   19.9650 C   0  0  0  0  0  2  0  0  0  0  0  0
  -31.7390  -18.4660   19.2200 C   0  0  0  0  0  2  0  0  0  0  0  0
  -32.6000  -20.1660   20.9560 C   0  0  0  0  0  2  0  0  0  0  0  0
  -30.1490  -19.6580   20.9820 C   0  0  0  0  0  3  0  0  0  0  0  0
  -30.6670  -18.1340   20.2620 C   0  0  0  0  0  3  0  0  0  0  0  0
  -31.3870  -19.8810   21.7820 N   0  0  0  0  0  0  0  0  0  0  0  0
  -32.5220  -19.9160   23.7600 O   0  0  0  0  0  0  0  0  0  0  0  0
  -30.9440  -15.3220   20.2640 C   0  0  0  0  0  0  0  0  0  0  0  0
  -30.8280  -12.9250   19.3900 C   0  0  0  0  0  2  0  0  0  0  0  0
  -29.9030  -12.8000   18.1580 C   0  0  0  0  0  2  0  0  0  0  0  0
  -28.4430  -12.5830   18.5980 C   0  0  0  0  0  2  0  0  0  0  0  0
  -28.0230  -13.5450   19.7380 C   0  0  0  0  0  3  0  0  0  0  0  0
  -29.0750  -13.6360   20.8620 C   0  0  0  0  0  2  0  0  0  0  0  0
  -30.3290  -14.0610   20.2270 N   0  0  0  0  0  0  0  0  0  0  0  0
  -32.1620  -15.3110   20.0520 O   0  0  0  0  0  0  0  0  0  0  0  0
  -30.2170  -16.5790   20.3300 N   0  0  0  0  0  0  0  0  0  0  0  0
  -29.2210  -16.4480   20.4390 H   0  0  0  0  0  0  0  0  0  0  0  0
  -25.6600  -14.1350   20.5080 C   0  0  0  0  0  0  0  0  0  0  0  0
  -24.5890  -13.3690   20.8730 C   0  0  0  0  0  0  0  0  0  0  0  0
  -25.0380  -12.0130   20.8220 C   0  0  0  0  0  0  0  0  0  0  0  0
  -26.6900  -13.2490   20.2480 N   0  0  0  0  0  0  0  0  0  0  0  0
  -26.3270  -11.9650   20.5050 N   0  0  0  0  0  0  0  0  0  0  0  0
  -24.2950  -10.7580   20.9980 C   0  0  0  0  0  0  0  0  0  0  0  0
  -24.6820   -9.7970   21.9580 C   0  0  0  0  0  3  0  0  0  0  0  0
  -23.9380   -8.6080   22.1220 C   0  0  0  0  0  3  0  0  0  0  0  0
  -22.7930   -8.3710   21.3250 C   0  0  0  0  0  0  0  0  0  0  0  0
  -22.4250   -9.3210   20.3540 C   0  0  0  0  0  3  0  0  0  0  0  0
  -23.1700  -10.5010   20.1890 C   0  0  0  0  0  3  0  0  0  0  0  0
  -22.0240   -7.2350   21.3960 O   0  0  0  0  0  0  0  0  0  0  0  0
  -21.8820   -6.5360   22.5680 C   0  0  0  0  0  0  0  0  0  0  0  0
  -21.2990   -7.1160   23.7150 C   0  0  0  0  0  3  0  0  0  0  0  0
  -21.1070   -6.3400   24.8760 C   0  0  0  0  0  3  0  0  0  0  0  0
  -21.4880   -4.9840   24.8900 C   0  0  0  0  0  0  0  0  0  0  0  0
  -22.0640   -4.4040   23.7450 C   0  0  0  0  0  3  0  0  0  0  0  0
  -22.2570   -5.1760   22.5870 C   0  0  0  0  0  0  0  0  0  0  0  0
  -22.7920   -4.6070   21.4810 F   0  0  0  0  0  0  0  0  0  0  0  0
  -21.2980   -4.2380   26.0020 F   0  0  0  0  0  0  0  0  0  0  0  0
  -23.1990  -13.8600   21.1520 C   0  0  0  0  0  0  0  0  0  0  0  0
  -22.4710  -13.1770   22.0270 N   0  0  0  0  0  0  0  0  0  0  0  0
  -22.7690  -14.8870   20.6280 O   0  0  0  0  0  0  0  0  0  0  0  0
  -22.8320  -12.3470   22.4740 H   0  0  0  0  0  0  0  0  0  0  0  0
  -21.5390  -13.4900   22.2570 H   0  0  0  0  0  0  0  0  0  0  0  0
  -25.8370  -15.5070   20.3460 N   0  0  0  0  0  0  0  0  0  0  0  0
  -25.0710  -16.1620   20.4610 H   0  0  0  0  0  0  0  0  0  0  0  0
  -26.6740  -15.9410   19.9790 H   0  0  0  0  0  0  0  0  0  0  0  0
  -28.4870  -21.9680   19.8900 C   0  0  0  0  0  2  0  0  0  0  0  0
  -30.0740  -22.5090   21.5460 C   0  0  0  0  0  2  0  0  0  0  0  0
  -28.3510  -23.5930   19.5460 C   0  0  0  0  0  2  0  0  0  0  0  0
  -29.9660  -24.0940   21.1940 C   0  0  0  0  0  2  0  0  0  0  0  0
  -29.8640  -21.3300   20.4490 C   0  0  0  0  0  3  0  0  0  0  0  0
  -28.6110  -24.7340   20.6660 C   0  0  0  0  0  3  0  0  0  0  0  0
  -28.6620  -26.3150   20.4510 O   0  0  0  0  0  0  0  0  0  0  0  0
  -24.7610  -31.9790   23.3020 C   0  0  0  0  0  0  0  0  0  0  0  0
  -27.5560  -27.2610   20.4080 C   0  0  0  0  0  0  0  0  0  0  0  0
  -23.6500  -30.5310   21.6460 C   0  0  0  0  0  3  0  0  0  0  0  0
  -25.1820  -28.9700   20.2830 C   0  0  0  0  0  0  0  0  0  0  0  0
  -26.2010  -30.8580   21.5480 C   0  0  0  0  0  2  0  0  0  0  0  0
  -26.3340  -29.4540   20.9160 C   0  0  0  0  0  0  0  0  0  0  0  0
  -27.5220  -28.6190   20.9480 C   0  0  0  0  0  3  0  0  0  0  0  0
  -26.3700  -26.8830   19.7450 C   0  0  0  0  0  3  0  0  0  0  0  0
  -25.2170  -27.7010   19.6800 C   0  0  0  0  0  3  0  0  0  0  0  0
  -23.9310  -29.8400   20.2830 C   0  0  0  0  0  2  0  0  0  0  0  0
  -24.8900  -31.1470   22.2200 N   0  0  0  0  0  0  0  0  0  0  0  0
  -23.6530  -32.2370   23.7950 O   0  0  0  0  0  0  0  0  0  0  0  0
  -22.9720  -29.5180   22.6020 C   0  0  0  0  0  0  0  0  0  0  0  0
  -21.6620  -29.2750   22.4140 N   0  0  0  0  0  0  0  0  0  0  0  0
  -23.6300  -28.9520   23.4790 O   0  0  0  0  0  0  0  0  0  0  0  0
  -21.1850  -29.7840   21.6830 H   0  0  0  0  0  0  0  0  0  0  0  0
  -18.3300  -27.8950   22.7750 C   0  0  0  0  0  0  0  0  0  0  0  0
  -20.8520  -28.3130   23.1690 C   0  0  0  0  0  3  0  0  0  0  0  0
  -21.0650  -26.8740   22.6450 C   0  0  0  0  0  2  0  0  0  0  0  0
  -20.0410  -26.4600   21.5840 C   0  0  0  0  0  2  0  0  0  0  0  0
  -18.6200  -26.5410   22.1490 C   0  0  0  0  0  2  0  0  0  0  0  0
  -19.3780  -28.7340   23.2400 C   0  0  0  0  0  0  0  0  0  0  0  0
  -19.0540  -29.9950   23.7840 C   0  0  0  0  0  3  0  0  0  0  0  0
  -17.7150  -30.4200   23.8690 C   0  0  0  0  0  3  0  0  0  0  0  0
  -16.6810  -29.5820   23.4200 C   0  0  0  0  0  3  0  0  0  0  0  0
  -16.9890  -28.3210   22.8780 C   0  0  0  0  0  3  0  0  0  0  0  0
  -25.9990  -32.6630   23.9580 C   0  0  0  0  0  3  0  0  0  0  0  0
  -26.4810  -31.9380   25.2760 C   0  0  1  0  0  0  0  0  0  0  0  0
  -25.3410  -31.6560   26.2840 C   0  0  0  0  0  1  0  0  0  0  0  0
  -27.1600  -30.5890   24.9460 C   0  0  0  0  0  1  0  0  0  0  0  0
  -27.5460  -32.8030   25.9910 C   0  0  0  0  0  1  0  0  0  0  0  0
  -25.6420  -34.0610   24.2470 N   0  0  0  0  0  0  0  0  0  0  0  0
  -25.9640  -35.1090   23.4770 C   0  0  0  0  0  0  0  0  0  0  0  0
  -26.6590  -35.0020   22.4620 O   0  0  0  0  0  0  0  0  0  0  0  0
  -25.0270  -34.2150   25.0310 H   0  0  0  0  0  0  0  0  0  0  0  0
  -24.1910  -36.8480   23.0650 C   0  0  0  0  0  1  0  0  0  0  0  0
  -25.4360  -36.4950   23.8960 C   0  0  0  0  0  3  0  0  0  0  0  0
  -27.5290  -37.4700   24.7330 C   0  0  0  0  0  1  0  0  0  0  0  0
  -26.4390  -37.5750   23.7660 N   0  0  0  0  0  0  0  0  0  0  0  0
  -26.0050  -38.4870   23.8760 H   0  0  0  0  0  0  0  0  0  0  0  0
  -30.2110  -19.4220   23.9540 C   0  0  0  0  0  2  0  0  0  0  0  0
  -30.5770  -19.2560   25.3160 O   0  0  0  0  0  0  0  0  0  0  0  0
  -31.5260  -19.3900   25.3090 H   0  0  0  0  0  0  0  0  0  0  0  0
  1  8  2  0
  1 94  1  0
  2  4  1  0
  3  2  1  0
  3  6  1  0
  4  7  1  0
  5  7  1  0
  6 17  1  0
  6  5  1  0
  7  1  1  0
  9 17  1  0
 10 15  1  0
 11 12  1  0
 11 10  1  0
 13 12  1  0
 13 22  1  0
 13 14  1  0
 15  9  1  0
 15 14  1  0
 16  9  2  0
 17 18  1  0
 19 20  2  0
 20 39  1  0
 21 20  1  0
 21 24  1  0
 22 23  1  0
 22 19  1  0
 23 21  2  0
 24 25  1  0
 25 26  2  0
 27 30  1  0
 27 26  1  0
 28 27  2  0
 29 28  1  0
 29 24  2  0
 30 31  1  0
 31 36  2  0
 31 32  1  0
 32 33  2  0
 33 34  1  0
 34 38  1  0
 35 34  2  0
 36 35  1  0
 37 36  1  0
 39 40  1  0
 40 43  1  0
 40 42  1  0
 41 39  2  0
 44 45  1  0
 44 19  1  0
 46 44  1  0
 49 47  1  0
 49 52  1  0
 50 48  1  0
 51 47  1  0
 51  5  1  0
 51 48  1  0
 52 53  1  0
 52 50  1  0
 54 65  2  0
 55 53  1  0
 55 60  1  0
 56 64  1  0
 56 66  1  0
 57 59  1  0
 58 64  1  0
 59 60  2  0
 59 58  1  0
 61 55  2  0
 62 61  1  0
 62 57  2  0
 63 57  1  0
 63 56  1  0
 64 54  1  0
 66 68  2  0
 67 66  1  0
 69 67  1  0
 70 79  2  0
 70 75  1  0
 71 67  1  0
 71 75  1  0
 72 71  1  0
 73 74  1  0
 73 72  1  0
 74 70  1  0
 75 76  2  0
 76 77  1  0
 78 77  2  0
 79 78  1  0
 80 54  1  0
 80 85  1  0
 80 81  1  0
 81 84  1  1
 81 82  1  0
 83 81  1  0
 85 88  1  0
 86 90  1  0
 86 85  1  0
 87 86  2  0
 90 89  1  0
 92 93  1  0
 92 90  1  0
 92 91  1  0
 94 95  1  0
 96 95  1  0
M  ISO  4   9 100  17 100  52 101  53 101
M  END
>  <TORSDO>  (1) 
F 19

>  <SCORE>  (1) 
-13.118

>  <name>  (1) 
0

>  <ligand_id>  (1) 
0

>  <original_smiles>  (1) 
[H]OC([H])([H])C(=O)N1C([H])([H])C([H])([H])C([H])([H])C([H])(N([H])C(=O)N2C([H])([H])C([H])([H])C([H])([H])C([H])(n3nc(-c4c([H])c([H])c(Oc5c([H])c([H])c(F)c([H])c5F)c([H])c4[H])c(C(=O)N([H])[H])c3N([H])[H])C2([H])[H])C1([H])C1([H])C([H])([H])C([H])([H])C([H])(Oc2c([H])c([H])c3c(c2[H])C([H])([H])N(C(=O)C([H])(N([H])C(=O)C([H])(N([H])C([H])([H])[H])C([H])([H])[H])C(C([H])([H])[H])(C([H])([H])[H])C([H])([H])[H])C([H])(C(=O)N([H])C2([H])c4c([H])c([H])c([H])c([H])c4C([H])([H])C([H])([H])C2([H])[H])C3([H])[H])C([H])([H])C1([H])[H]

>  <smiles>  (1) 
[H]OC([H])([H])C(=O)N1C([H])([H])C([H])([H])C([H])([H])C([H])(N([H])C(=O)N2C([H])([H])C([H])([H])C([H])([H])C([H])(n3nc(-c4c([H])c([H])c(Oc5c([H])c([H])c(F)c([H])c5F)c([H])c4[H])c(C(=O)N([H])[H])c3N([H])[H])C2([H])[H])C1([H])C1([H])C([H])([H])C([H])([H])C([H])(Oc2c([H])c([H])c3c(c2[H])C([H])([H])N(C(=O)C([H])(N([H])C(=O)C([H])(N([H])C([H])([H])[H])C([H])([H])[H])C(C([H])([H])[H])(C([H])([H])[H])C([H])([H])[H])C([H])(C(=O)N([H])C2([H])c4c([H])c([H])c([H])c([H])c4C([H])([H])C([H])([H])C2([H])[H])C3([H])[H])C([H])([H])C1([H])[H]

$$$$
1:0:0
     RDKit          3D

 88 96  0  0  1  0  0  0  0  0999 V2000
  -29.9240  -22.2780   19.4340 C   0  0  0  0  0  3  0  0  0  0  0  0
  -30.3530  -20.8590   19.4240 C   0  0  0  0  0  3  0  0  0  0  0  0
  -27.8180  -21.5790   20.0430 C   0  0  0  0  0  3  0  0  0  0  0  0
  -28.6040  -22.7830   19.7580 C   0  0  0  0  0  0  0  0  0  0  0  0
  -29.5700  -19.6570   19.7010 C   0  0  0  0  0  0  0  0  0  0  0  0
  -28.2410  -20.1490   20.0280 C   0  0  0  0  0  0  0  0  0  0  0  0
  -27.1990  -19.1060   20.3830 C   0  0  0  0  0  1  0  0  0  0  0  0
  -30.2880  -18.0720   19.7300 C   0  0  0  0  0  2  0  0  0  0  0  0
  -30.5780  -15.2270   19.7740 C   0  0  0  0  0  0  0  0  0  0  0  0
  -30.4580  -12.7880   18.9380 C   0  0  0  0  0  2  0  0  0  0  0  0
  -29.4480  -12.5960   17.7800 C   0  0  0  0  0  2  0  0  0  0  0  0
  -28.0340  -12.3430   18.3320 C   0  0  0  0  0  2  0  0  0  0  0  0
  -27.6750  -13.3160   19.4830 C   0  0  0  0  0  3  0  0  0  0  0  0
  -28.8050  -13.4660   20.5230 C   0  0  0  0  0  2  0  0  0  0  0  0
  -29.9910  -13.9380   19.7910 N   0  0  0  0  0  0  0  0  0  0  0  0
  -31.7720  -15.2220   19.4470 O   0  0  0  0  0  0  0  0  0  0  0  0
  -29.8520  -16.4980   19.9110 N   0  0  0  0  0  0  0  0  0  0  0  0
  -28.8760  -16.3720   20.1350 H   0  0  0  0  0  0  0  0  0  0  0  0
  -25.3950  -13.8860   20.4750 C   0  0  0  0  0  0  0  0  0  0  0  0
  -24.3520  -13.1120   20.9010 C   0  0  0  0  0  0  0  0  0  0  0  0
  -24.7820  -11.7550   20.7620 C   0  0  0  0  0  0  0  0  0  0  0  0
  -26.3900  -13.0030   20.0950 N   0  0  0  0  0  0  0  0  0  0  0  0
  -26.0390  -11.7120   20.3340 N   0  0  0  0  0  0  0  0  0  0  0  0
  -24.0440  -10.4990   20.9540 C   0  0  0  0  0  0  0  0  0  0  0  0
  -24.4820   -9.5170   21.8690 C   0  0  0  0  0  3  0  0  0  0  0  0
  -23.7430   -8.3280   22.0510 C   0  0  0  0  0  3  0  0  0  0  0  0
  -22.5510   -8.1140   21.3180 C   0  0  0  0  0  0  0  0  0  0  0  0
  -22.1320   -9.0850   20.3920 C   0  0  0  0  0  3  0  0  0  0  0  0
  -22.8720  -10.2650   20.2080 C   0  0  0  0  0  3  0  0  0  0  0  0
  -21.7820   -6.9790   21.4110 O   0  0  0  0  0  0  0  0  0  0  0  0
  -21.6760   -6.2750   22.5840 C   0  0  0  0  0  0  0  0  0  0  0  0
  -21.1880   -6.8690   23.7680 C   0  0  0  0  0  3  0  0  0  0  0  0
  -21.0300   -6.0910   24.9340 C   0  0  0  0  0  3  0  0  0  0  0  0
  -21.3500   -4.7210   24.9140 C   0  0  0  0  0  0  0  0  0  0  0  0
  -21.8310   -4.1260   23.7340 C   0  0  0  0  0  3  0  0  0  0  0  0
  -21.9900   -4.9020   22.5710 C   0  0  0  0  0  0  0  0  0  0  0  0
  -22.4340   -4.3180   21.4320 F   0  0  0  0  0  0  0  0  0  0  0  0
  -21.1920   -3.9710   26.0300 F   0  0  0  0  0  0  0  0  0  0  0  0
  -22.9960  -13.6010   21.3170 C   0  0  0  0  0  0  0  0  0  0  0  0
  -22.3320  -12.8810   22.2120 N   0  0  0  0  0  0  0  0  0  0  0  0
  -22.5390  -14.6580   20.8820 O   0  0  0  0  0  0  0  0  0  0  0  0
  -22.7180  -12.0260   22.5830 H   0  0  0  0  0  0  0  0  0  0  0  0
  -21.4250  -13.1890   22.5320 H   0  0  0  0  0  0  0  0  0  0  0  0
  -25.5700  -15.2610   20.3480 N   0  0  0  0  0  0  0  0  0  0  0  0
  -24.8240  -15.9170   20.5490 H   0  0  0  0  0  0  0  0  0  0  0  0
  -26.3770  -15.6970   19.9210 H   0  0  0  0  0  0  0  0  0  0  0  0
  -27.9240  -24.3640   19.5230 C   0  0  0  0  0  2  0  0  0  0  0  0
  -28.2570  -25.8930   19.9590 O   0  0  0  0  0  0  0  0  0  0  0  0
  -24.6570  -31.6900   23.1220 C   0  0  0  0  0  0  0  0  0  0  0  0
  -27.2490  -26.9840   19.9200 C   0  0  0  0  0  0  0  0  0  0  0  0
  -23.4680  -30.3380   21.4440 C   0  0  0  0  0  3  0  0  0  0  0  0
  -24.9260  -28.8130   19.9540 C   0  0  0  0  0  0  0  0  0  0  0  0
  -26.0290  -30.5950   21.2880 C   0  0  0  0  0  2  0  0  0  0  0  0
  -26.1120  -29.2150   20.5820 C   0  0  0  0  0  0  0  0  0  0  0  0
  -27.2700  -28.3210   20.5450 C   0  0  0  0  0  3  0  0  0  0  0  0
  -26.0330  -26.7320   19.2440 C   0  0  0  0  0  3  0  0  0  0  0  0
  -24.9090  -27.5920   19.2660 C   0  0  0  0  0  3  0  0  0  0  0  0
  -23.6950  -29.7110   20.0410 C   0  0  0  0  0  2  0  0  0  0  0  0
  -24.7390  -30.8990   22.0050 N   0  0  0  0  0  0  0  0  0  0  0  0
  -23.5680  -31.9480   23.6600 O   0  0  0  0  0  0  0  0  0  0  0  0
  -22.7950  -29.2980   22.3760 C   0  0  0  0  0  0  0  0  0  0  0  0
  -21.4660  -29.1240   22.2570 N   0  0  0  0  0  0  0  0  0  0  0  0
  -23.4750  -28.6490   23.1760 O   0  0  0  0  0  0  0  0  0  0  0  0
  -20.9700  -29.7000   21.5900 H   0  0  0  0  0  0  0  0  0  0  0  0
  -18.0950  -27.8850   22.7690 C   0  0  0  0  0  0  0  0  0  0  0  0
  -20.6580  -28.1520   23.0030 C   0  0  0  0  0  3  0  0  0  0  0  0
  -20.7560  -26.7450   22.3680 C   0  0  0  0  0  2  0  0  0  0  0  0
  -19.6380  -26.4590   21.3590 C   0  0  0  0  0  2  0  0  0  0  0  0
  -18.2670  -26.5670   22.0320 C   0  0  0  0  0  2  0  0  0  0  0  0
  -19.2170  -28.6360   23.2110 C   0  0  0  0  0  0  0  0  0  0  0  0
  -18.9990  -29.8680   23.8650 C   0  0  0  0  0  3  0  0  0  0  0  0
  -17.6950  -30.3500   24.0790 C   0  0  0  0  0  3  0  0  0  0  0  0
  -16.5880  -29.5970   23.6500 C   0  0  0  0  0  3  0  0  0  0  0  0
  -16.7890  -28.3650   23.0030 C   0  0  0  0  0  3  0  0  0  0  0  0
  -25.9270  -32.3250   23.7660 C   0  0  0  0  0  3  0  0  0  0  0  0
  -25.6030  -33.7170   24.1250 N   0  0  0  0  0  0  0  0  0  0  0  0
  -25.9110  -34.7900   23.3860 C   0  0  0  0  0  0  0  0  0  0  0  0
  -26.5600  -34.7150   22.3400 O   0  0  0  0  0  0  0  0  0  0  0  0
  -25.0220  -33.8480   24.9400 H   0  0  0  0  0  0  0  0  0  0  0  0
  -24.1460  -36.5690   23.1300 C   0  0  0  0  0  1  0  0  0  0  0  0
  -25.4230  -36.1670   23.8840 C   0  0  0  0  0  3  0  0  0  0  0  0
  -27.5720  -37.0770   24.6530 C   0  0  0  0  0  1  0  0  0  0  0  0
  -26.4370  -37.2360   23.7480 N   0  0  0  0  0  0  0  0  0  0  0  0
  -26.0210  -38.1490   23.9160 H   0  0  0  0  0  0  0  0  0  0  0  0
  -26.4320  -31.5390   25.0390 C   0  0  1  0  0  0  0  0  0  0  0  0
  -25.3300  -31.2910   26.0980 C   0  0  0  0  0  1  0  0  0  0  0  0
  -27.0160  -30.1640   24.6440 C   0  0  0  0  0  1  0  0  0  0  0  0
  -27.5780  -32.3250   25.7180 C   0  0  0  0  0  1  0  0  0  0  0  0
  1  4  1  0
  2  1  2  0
  2  5  1  0
  4  3  2  0
  5  8  1  0
  5  6  2  0
  6  3  1  0
  6  7  1  0
  8 17  1  0
  9 15  1  0
  9 17  1  0
 10 15  1  0
 11 12  1  0
 11 10  1  0
 13 12  1  0
 13 22  1  0
 13 14  1  0
 15 14  1  0
 16  9  2  0
 17 18  1  0
 19 20  2  0
 20 39  1  0
 21 20  1  0
 21 24  1  0
 22 23  1  0
 22 19  1  0
 23 21  2  0
 24 25  1  0
 25 26  2  0
 27 30  1  0
 27 26  1  0
 28 27  2  0
 29 28  1  0
 29 24  2  0
 30 31  1  0
 31 32  1  0
 32 33  2  0
 34 33  1  0
 34 38  1  0
 35 34  2  0
 36 31  2  0
 36 35  1  0
 37 36  1  0
 39 40  1  0
 40 43  1  0
 40 42  1  0
 41 39  2  0
 44 19  1  0
 44 45  1  0
 46 44  1  0
 47  4  1  0
 47 48  1  0
 49 60  2  0
 50 48  1  0
 50 55  1  0
 51 59  1  0
 51 61  1  0
 52 58  1  0
 52 54  1  0
 53 59  1  0
 54 53  1  0
 55 54  2  0
 56 57  1  0
 56 50  2  0
 57 52  2  0
 58 51  1  0
 59 49  1  0
 61 63  2  0
 62 61  1  0
 64 62  1  0
 65 74  2  0
 65 70  1  0
 66 62  1  0
 66 70  1  0
 67 66  1  0
 68 69  1  0
 68 67  1  0
 69 65  1  0
 70 71  2  0
 71 72  1  0
 73 72  2  0
 74 73  1  0
 75 49  1  0
 75 76  1  0
 75 85  1  0
 76 79  1  0
 77 81  1  0
 77 76  1  0
 78 77  2  0
 81 80  1  0
 83 81  1  0
 83 84  1  0
 83 82  1  0
 85 88  1  1
 85 86  1  0
 87 85  1  0
M  ISO  4   9 100  17 100  47 101  48 101
M  END
>  <TORSDO>  (2) 
F 18

>  <SCORE>  (2) 
-14.865

>  <name>  (2) 
1

>  <ligand_id>  (2) 
1

>  <original_smiles>  (2) 
[H]c1c([H])c([H])c2c(c1[H])C([H])([H])C([H])([H])C([H])([H])C2([H])N([H])C(=O)C1([H])N(C(=O)C([H])(N([H])C(=O)C([H])(N([H])C([H])([H])[H])C([H])([H])[H])C(C([H])([H])[H])(C([H])([H])[H])C([H])([H])[H])C([H])([H])c2c([H])c(OC([H])([H])c3c([H])c([H])c(C([H])([H])N([H])C(=O)N4C([H])([H])C([H])([H])C([H])([H])C([H])(n5nc(-c6c([H])c([H])c(Oc7c([H])c([H])c(F)c([H])c7F)c([H])c6[H])c(C(=O)N([H])[H])c5N([H])[H])C4([H])[H])c(C([H])([H])[H])c3[H])c([H])c([H])c2C1([H])[H]

>  <smiles>  (2) 
[H]c1c([H])c([H])c2c(c1[H])C([H])([H])C([H])([H])C([H])([H])C2([H])N([H])C(=O)C1([H])N(C(=O)C([H])(N([H])C(=O)C([H])(N([H])C([H])([H])[H])C([H])([H])[H])C(C([H])([H])[H])(C([H])([H])[H])C([H])([H])[H])C([H])([H])c2c([H])c(OC([H])([H])c3c([H])c([H])c(C([H])([H])N([H])C(=O)N4C([H])([H])C([H])([H])C([H])([H])C([H])(n5nc(-c6c([H])c([H])c(Oc7c([H])c([H])c(F)c([H])c7F)c([H])c6[H])c(C(=O)N([H])[H])c5N([H])[H])C4([H])[H])c(C([H])([H])[H])c3[H])c([H])c([H])c2C1([H])[H]

$$$$
2:0:0
     RDKit          3D

 89 97  0  0  1  0  0  0  0  0999 V2000
  -28.4230  -21.9800   20.2360 N   0  0  0  0  0  0  0  0  0  0  0  0
  -27.4070  -22.0210   20.2670 H   0  0  0  0  0  0  0  0  0  0  0  0
  -28.2210  -18.1270   20.4770 C   0  0  0  0  0  3  0  0  0  0  0  0
  -30.5180  -18.5690   20.1860 C   0  0  0  0  0  3  0  0  0  0  0  0
  -27.9360  -19.5390   20.4420 C   0  0  0  0  0  3  0  0  0  0  0  0
  -30.2270  -20.0090   20.1650 C   0  0  0  0  0  3  0  0  0  0  0  0
  -29.5170  -17.5420   20.3430 C   0  0  0  0  0  0  0  0  0  0  0  0
  -28.9060  -20.5760   20.2850 C   0  0  0  0  0  0  0  0  0  0  0  0
  -30.4840  -14.9520   20.0880 C   0  0  0  0  0  0  0  0  0  0  0  0
  -30.3570  -12.6400   19.0650 C   0  0  0  0  0  2  0  0  0  0  0  0
  -29.3590  -12.6630   17.8820 C   0  0  0  0  0  2  0  0  0  0  0  0
  -27.9130  -12.4460   18.3730 C   0  0  0  0  0  2  0  0  0  0  0  0
  -27.5710  -13.3200   19.6080 C   0  0  0  0  0  3  0  0  0  0  0  0
  -28.6790  -13.2460   20.6810 C   0  0  0  0  0  2  0  0  0  0  0  0
  -29.9320  -13.6750   20.0430 N   0  0  0  0  0  0  0  0  0  0  0  0
  -31.6500  -15.1040   19.7070 O   0  0  0  0  0  0  0  0  0  0  0  0
  -29.6180  -16.0180   20.4090 N   0  0  0  0  0  0  0  0  0  0  0  0
  -28.7440  -15.6130   20.7050 H   0  0  0  0  0  0  0  0  0  0  0  0
  -25.2200  -13.8850   20.4550 C   0  0  0  0  0  0  0  0  0  0  0  0
  -24.1730  -13.1010   20.8570 C   0  0  0  0  0  0  0  0  0  0  0  0
  -24.6360  -11.7520   20.7750 C   0  0  0  0  0  0  0  0  0  0  0  0
  -26.2520  -13.0130   20.1510 N   0  0  0  0  0  0  0  0  0  0  0  0
  -25.9120  -11.7240   20.4080 N   0  0  0  0  0  0  0  0  0  0  0  0
  -23.9180  -10.4850   20.9680 C   0  0  0  0  0  0  0  0  0  0  0  0
  -24.3600   -9.5210   21.9010 C   0  0  0  0  0  3  0  0  0  0  0  0
  -23.6420   -8.3190   22.0830 C   0  0  0  0  0  3  0  0  0  0  0  0
  -22.4700   -8.0730   21.3320 C   0  0  0  0  0  0  0  0  0  0  0  0
  -22.0460   -9.0260   20.3880 C   0  0  0  0  0  3  0  0  0  0  0  0
  -22.7650  -10.2190   20.2050 C   0  0  0  0  0  3  0  0  0  0  0  0
  -21.7230   -6.9230   21.4220 O   0  0  0  0  0  0  0  0  0  0  0  0
  -21.6360   -6.2120   22.5920 C   0  0  0  0  0  0  0  0  0  0  0  0
  -21.1400   -6.7890   23.7810 C   0  0  0  0  0  3  0  0  0  0  0  0
  -21.0040   -6.0020   24.9420 C   0  0  0  0  0  3  0  0  0  0  0  0
  -21.3530   -4.6390   24.9160 C   0  0  0  0  0  0  0  0  0  0  0  0
  -21.8430   -4.0610   23.7310 C   0  0  0  0  0  3  0  0  0  0  0  0
  -21.9810   -4.8440   22.5720 C   0  0  0  0  0  0  0  0  0  0  0  0
  -22.4330   -4.2770   21.4270 F   0  0  0  0  0  0  0  0  0  0  0  0
  -21.2160   -3.8810   26.0280 F   0  0  0  0  0  0  0  0  0  0  0  0
  -22.7880  -13.5710   21.1980 C   0  0  0  0  0  0  0  0  0  0  0  0
  -22.1010  -12.8590   22.0840 N   0  0  0  0  0  0  0  0  0  0  0  0
  -22.3260  -14.6020   20.7120 O   0  0  0  0  0  0  0  0  0  0  0  0
  -22.4890  -12.0250   22.4980 H   0  0  0  0  0  0  0  0  0  0  0  0
  -21.1730  -13.1550   22.3540 H   0  0  0  0  0  0  0  0  0  0  0  0
  -25.3710  -15.2590   20.2940 N   0  0  0  0  0  0  0  0  0  0  0  0
  -24.5900  -15.8940   20.4230 H   0  0  0  0  0  0  0  0  0  0  0  0
  -26.1580  -15.6910   19.8280 H   0  0  0  0  0  0  0  0  0  0  0  0
  -29.0040  -23.4170   20.3020 C   0  0  0  0  0  3  0  0  0  0  0  0
  -27.9840  -24.7350   20.0800 C   0  0  0  0  0  3  0  0  0  0  0  0
  -28.2720  -26.2470   20.2500 O   0  0  0  0  0  0  0  0  0  0  0  0
  -24.6400  -31.8950   23.2610 C   0  0  0  0  0  0  0  0  0  0  0  0
  -27.2080  -27.2180   20.1940 C   0  0  0  0  0  0  0  0  0  0  0  0
  -23.4350  -30.5170   21.6090 C   0  0  0  0  0  3  0  0  0  0  0  0
  -24.8790  -28.9540   20.1750 C   0  0  0  0  0  0  0  0  0  0  0  0
  -25.9890  -30.7820   21.4470 C   0  0  0  0  0  2  0  0  0  0  0  0
  -26.0590  -29.3960   20.7850 C   0  0  0  0  0  0  0  0  0  0  0  0
  -27.2250  -28.5450   20.7760 C   0  0  0  0  0  3  0  0  0  0  0  0
  -25.9990  -26.8710   19.5490 C   0  0  0  0  0  3  0  0  0  0  0  0
  -24.8600  -27.7030   19.5420 C   0  0  0  0  0  3  0  0  0  0  0  0
  -23.6530  -29.8510   20.2260 C   0  0  0  0  0  2  0  0  0  0  0  0
  -24.7080  -31.0850   22.1610 N   0  0  0  0  0  0  0  0  0  0  0  0
  -23.5540  -32.1800   23.7900 O   0  0  0  0  0  0  0  0  0  0  0  0
  -22.7520  -29.5050   22.5630 C   0  0  0  0  0  0  0  0  0  0  0  0
  -21.4240  -29.3390   22.4300 N   0  0  0  0  0  0  0  0  0  0  0  0
  -23.4200  -28.8700   23.3840 O   0  0  0  0  0  0  0  0  0  0  0  0
  -20.9430  -29.9020   21.7440 H   0  0  0  0  0  0  0  0  0  0  0  0
  -18.0350  -28.1590   22.9260 C   0  0  0  0  0  0  0  0  0  0  0  0
  -20.5960  -28.4000   23.1930 C   0  0  0  0  0  3  0  0  0  0  0  0
  -20.6870  -26.9730   22.6050 C   0  0  0  0  0  2  0  0  0  0  0  0
  -19.5810  -26.6680   21.5890 C   0  0  0  0  0  2  0  0  0  0  0  0
  -18.2010  -26.8160   22.2360 C   0  0  0  0  0  2  0  0  0  0  0  0
  -19.1600  -28.9100   23.3610 C   0  0  0  0  0  0  0  0  0  0  0  0
  -18.9490  -30.1680   23.9680 C   0  0  0  0  0  3  0  0  0  0  0  0
  -17.6470  -30.6750   24.1430 C   0  0  0  0  0  3  0  0  0  0  0  0
  -16.5370  -29.9210   23.7210 C   0  0  0  0  0  3  0  0  0  0  0  0
  -16.7330  -28.6650   23.1200 C   0  0  0  0  0  3  0  0  0  0  0  0
  -25.9200  -32.5200   23.8940 C   0  0  0  0  0  3  0  0  0  0  0  0
  -26.4170  -31.7460   25.1780 C   0  0  1  0  0  0  0  0  0  0  0  0
  -25.3120  -31.5190   26.2350 C   0  0  0  0  0  1  0  0  0  0  0  0
  -26.9930  -30.3620   24.7960 C   0  0  0  0  0  1  0  0  0  0  0  0
  -27.5680  -32.5310   25.8480 C   0  0  0  0  0  1  0  0  0  0  0  0
  -25.6180  -33.9210   24.2260 N   0  0  0  0  0  0  0  0  0  0  0  0
  -25.9290  -34.9720   23.4570 C   0  0  0  0  0  0  0  0  0  0  0  0
  -26.5690  -34.8650   22.4070 O   0  0  0  0  0  0  0  0  0  0  0  0
  -25.0460  -34.0780   25.0430 H   0  0  0  0  0  0  0  0  0  0  0  0
  -24.1790  -36.7580   23.1700 C   0  0  0  0  0  1  0  0  0  0  0  0
  -25.4580  -36.3640   23.9250 C   0  0  0  0  0  3  0  0  0  0  0  0
  -27.6240  -37.2700   24.6500 C   0  0  0  0  0  1  0  0  0  0  0  0
  -26.4810  -37.4200   23.7530 N   0  0  0  0  0  0  0  0  0  0  0  0
  -26.0770  -38.3400   23.9050 H   0  0  0  0  0  0  0  0  0  0  0  0
  1  2  1  0
  1  8  1  0
  1 47  1  0
  4  7  1  0
  5  3  1  0
  6  4  2  0
  6  8  1  0
  7 17  1  0
  7  3  2  0
  8  5  2  0
  9 17  1  0
 10 15  1  0
 11 12  1  0
 11 10  1  0
 13 12  1  0
 13 22  1  0
 13 14  1  0
 15  9  1  0
 15 14  1  0
 16  9  2  0
 17 18  1  0
 19 20  2  0
 20 39  1  0
 21 20  1  0
 21 24  1  0
 22 23  1  0
 22 19  1  0
 23 21  2  0
 24 25  1  0
 25 26  2  0
 27 30  1  0
 27 26  1  0
 28 27  2  0
 29 28  1  0
 29 24  2  0
 30 31  1  0
 31 32  1  0
 32 33  2  0
 34 33  1  0
 34 38  1  0
 35 34  2  0
 36 31  2  0
 36 35  1  0
 37 36  1  0
 39 40  1  0
 40 43  1  0
 40 42  1  0
 41 39  2  0
 44 45  1  0
 44 19  1  0
 46 44  1  0
 48 49  1  0
 48 47  2  0
 50 61  2  0
 51 49  1  0
 51 56  1  0
 52 60  1  0
 52 62  1  0
 53 59  1  0
 53 55  1  0
 54 60  1  0
 55 54  1  0
 56 55  2  0
 57 51  2  0
 58 57  1  0
 58 53  2  0
 59 52  1  0
 60 50  1  0
 62 64  2  0
 63 62  1  0
 65 63  1  0
 66 75  2  0
 66 71  1  0
 67 63  1  0
 67 71  1  0
 68 67  1  0
 69 70  1  0
 69 68  1  0
 70 66  1  0
 71 72  2  0
 72 73  1  0
 74 73  2  0
 75 74  1  0
 76 50  1  0
 76 81  1  0
 76 77  1  0
 77 80  1  1
 77 78  1  0
 79 77  1  0
 81 84  1  0
 82 86  1  0
 82 81  1  0
 83 82  2  0
 86 85  1  0
 88 89  1  0
 88 86  1  0
 88 87  1  0
M  ISO  4   9 100  17 100  48 101  49 101
M  END
>  <TORSDO>  (3) 
F 19

>  <SCORE>  (3) 
-14.107

>  <name>  (3) 
2

>  <ligand_id>  (3) 
2

>  <original_smiles>  (3) 
[H]c1c([H])c([H])c2c(c1[H])C([H])([H])C([H])([H])C([H])([H])C2([H])N([H])C(=O)C1([H])N(C(=O)C([H])(N([H])C(=O)C([H])(N([H])C([H])([H])[H])C([H])([H])[H])C(C([H])([H])[H])(C([H])([H])[H])C([H])([H])[H])C([H])([H])c2c([H])c(OC([H])([H])C([H])([H])N([H])c3c([H])c([H])c(N([H])C(=O)N4C([H])([H])C([H])([H])C([H])([H])C([H])(n5nc(-c6c([H])c([H])c(Oc7c([H])c([H])c(F)c([H])c7F)c([H])c6[H])c(C(=O)N([H])[H])c5N([H])[H])C4([H])[H])c([H])c3[H])c([H])c([H])c2C1([H])[H]

>  <smiles>  (3) 
[H]c1c([H])c([H])c2c(c1[H])C([H])([H])C([H])([H])C([H])([H])C2([H])N([H])C(=O)C1([H])N(C(=O)C([H])(N([H])C(=O)C([H])(N([H])C([H])([H])[H])C([H])([H])[H])C(C([H])([H])[H])(C([H])([H])[H])C([H])([H])[H])C([H])([H])c2c([H])c(OC([H])([H])C([H])([H])N([H])c3c([H])c([H])c(N([H])C(=O)N4C([H])([H])C([H])([H])C([H])([H])C([H])(n5nc(-c6c([H])c([H])c(Oc7c([H])c([H])c(F)c([H])c7F)c([H])c6[H])c(C(=O)N([H])[H])c5N([H])[H])C4([H])[H])c([H])c3[H])c([H])c([H])c2C1([H])[H]

$$$$
3:0:0
     RDKit          3D

 91 99  0  0  1  0  0  0  0  0999 V2000
  -30.0100  -23.8200   21.0220 C   0  0  0  0  0  3  0  0  0  0  0  0
  -27.5820  -23.8970   21.0390 C   0  0  0  0  0  3  0  0  0  0  0  0
  -29.9690  -22.4160   20.8520 C   0  0  0  0  0  3  0  0  0  0  0  0
  -27.5410  -22.4960   20.8810 C   0  0  0  0  0  3  0  0  0  0  0  0
  -28.8170  -24.5720   21.1090 C   0  0  0  0  0  0  0  0  0  0  0  0
  -28.7300  -21.7380   20.7890 C   0  0  0  0  0  0  0  0  0  0  0  0
  -28.6160  -20.3460   20.6270 N   0  0  0  0  0  0  0  0  0  0  0  0
  -27.6850  -19.9370   20.6000 H   0  0  0  0  0  0  0  0  0  0  0  0
  -29.7520  -19.4380   20.7770 C   0  0  0  0  0  2  0  0  0  0  0  0
  -29.2940  -17.9580   20.8090 C   0  0  0  0  0  2  0  0  0  0  0  0
  -30.4570  -16.9400   20.7940 C   0  0  0  0  0  2  0  0  0  0  0  0
  -30.6800  -14.4930   20.3510 C   0  0  0  0  0  0  0  0  0  0  0  0
  -30.3470  -12.3390   19.2160 C   0  0  0  0  0  2  0  0  0  0  0  0
  -29.4090  -12.5640   18.0130 C   0  0  0  0  0  2  0  0  0  0  0  0
  -27.9380  -12.4200   18.4500 C   0  0  0  0  0  2  0  0  0  0  0  0
  -27.6070  -13.2590   19.7140 C   0  0  0  0  0  3  0  0  0  0  0  0
  -28.6670  -13.0480   20.8220 C   0  0  0  0  0  2  0  0  0  0  0  0
  -29.9910  -13.3280   20.2420 N   0  0  0  0  0  0  0  0  0  0  0  0
  -31.8110  -14.6500   19.8850 O   0  0  0  0  0  0  0  0  0  0  0  0
  -29.9950  -15.5410   20.8400 N   0  0  0  0  0  0  0  0  0  0  0  0
  -29.0640  -15.3620   21.1910 H   0  0  0  0  0  0  0  0  0  0  0  0
  -25.2120  -13.8660   20.4270 C   0  0  0  0  0  0  0  0  0  0  0  0
  -24.1450  -13.0950   20.8070 C   0  0  0  0  0  0  0  0  0  0  0  0
  -24.6070  -11.7440   20.7810 C   0  0  0  0  0  0  0  0  0  0  0  0
  -26.2560  -12.9850   20.2010 N   0  0  0  0  0  0  0  0  0  0  0  0
  -25.8970  -11.7040   20.4710 N   0  0  0  0  0  0  0  0  0  0  0  0
  -23.8800  -10.4830   20.9800 C   0  0  0  0  0  0  0  0  0  0  0  0
  -24.3080   -9.5270   21.9260 C   0  0  0  0  0  3  0  0  0  0  0  0
  -23.5860   -8.3280   22.1110 C   0  0  0  0  0  3  0  0  0  0  0  0
  -22.4170   -8.0810   21.3520 C   0  0  0  0  0  0  0  0  0  0  0  0
  -22.0070   -9.0260   20.3950 C   0  0  0  0  0  3  0  0  0  0  0  0
  -22.7320  -10.2150   20.2090 C   0  0  0  0  0  3  0  0  0  0  0  0
  -21.6660   -6.9350   21.4480 O   0  0  0  0  0  0  0  0  0  0  0  0
  -21.6050   -6.2060   22.6080 C   0  0  0  0  0  0  0  0  0  0  0  0
  -21.1500   -6.7710   23.8180 C   0  0  0  0  0  3  0  0  0  0  0  0
  -21.0380   -5.9700   24.9710 C   0  0  0  0  0  3  0  0  0  0  0  0
  -21.3690   -4.6040   24.9150 C   0  0  0  0  0  0  0  0  0  0  0  0
  -21.8170   -4.0370   23.7100 C   0  0  0  0  0  3  0  0  0  0  0  0
  -21.9310   -4.8350   22.5570 C   0  0  0  0  0  0  0  0  0  0  0  0
  -22.3430   -4.2800   21.3920 F   0  0  0  0  0  0  0  0  0  0  0  0
  -21.2520   -3.8310   26.0200 F   0  0  0  0  0  0  0  0  0  0  0  0
  -22.7500  -13.5750   21.0830 C   0  0  0  0  0  0  0  0  0  0  0  0
  -22.0260  -12.8800   21.9540 N   0  0  0  0  0  0  0  0  0  0  0  0
  -22.3110  -14.5970   20.5600 O   0  0  0  0  0  0  0  0  0  0  0  0
  -22.3930  -12.0500   22.3950 H   0  0  0  0  0  0  0  0  0  0  0  0
  -21.0910  -13.1820   22.1830 H   0  0  0  0  0  0  0  0  0  0  0  0
  -25.3750  -15.2340   20.2300 N   0  0  0  0  0  0  0  0  0  0  0  0
  -24.5990  -15.8850   20.2900 H   0  0  0  0  0  0  0  0  0  0  0  0
  -26.2170  -15.6540   19.8550 H   0  0  0  0  0  0  0  0  0  0  0  0
  -28.8540  -26.0890   21.2790 C   0  0  0  0  0  2  0  0  0  0  0  0
  -28.4570  -26.7690   20.0900 O   0  0  0  0  0  0  0  0  0  0  0  0
  -24.6280  -31.9050   23.2530 C   0  0  0  0  0  0  0  0  0  0  0  0
  -27.2920  -27.4900   20.1740 C   0  0  0  0  0  0  0  0  0  0  0  0
  -23.4280  -30.4990   21.6090 C   0  0  0  0  0  3  0  0  0  0  0  0
  -24.8890  -28.9650   20.1910 C   0  0  0  0  0  0  0  0  0  0  0  0
  -25.9480  -30.8750   21.4090 C   0  0  0  0  0  2  0  0  0  0  0  0
  -26.0420  -29.5000   20.7800 C   0  0  0  0  0  0  0  0  0  0  0  0
  -27.2470  -28.7660   20.7780 C   0  0  0  0  0  3  0  0  0  0  0  0
  -26.1300  -26.9670   19.5770 C   0  0  0  0  0  3  0  0  0  0  0  0
  -24.9250  -27.6940   19.5920 C   0  0  0  0  0  3  0  0  0  0  0  0
  -23.6420  -29.8210   20.2280 C   0  0  0  0  0  2  0  0  0  0  0  0
  -24.6860  -31.1080   22.1500 N   0  0  0  0  0  0  0  0  0  0  0  0
  -23.5450  -32.1710   23.7950 O   0  0  0  0  0  0  0  0  0  0  0  0
  -22.7780  -29.4770   22.5670 C   0  0  0  0  0  0  0  0  0  0  0  0
  -21.4550  -29.2910   22.4380 N   0  0  0  0  0  0  0  0  0  0  0  0
  -23.4610  -28.8540   23.3840 O   0  0  0  0  0  0  0  0  0  0  0  0
  -20.9650  -29.8310   21.7380 H   0  0  0  0  0  0  0  0  0  0  0  0
  -18.0860  -28.0940   22.9410 C   0  0  0  0  0  0  0  0  0  0  0  0
  -20.6420  -28.3520   23.2100 C   0  0  0  0  0  3  0  0  0  0  0  0
  -20.7460  -26.9230   22.6310 C   0  0  0  0  0  2  0  0  0  0  0  0
  -19.6450  -26.6040   21.6160 C   0  0  0  0  0  2  0  0  0  0  0  0
  -18.2650  -26.7460   22.2640 C   0  0  0  0  0  2  0  0  0  0  0  0
  -19.2030  -28.8540   23.3740 C   0  0  0  0  0  0  0  0  0  0  0  0
  -18.9850  -30.1150   23.9710 C   0  0  0  0  0  3  0  0  0  0  0  0
  -17.6810  -30.6160   24.1380 C   0  0  0  0  0  3  0  0  0  0  0  0
  -16.5760  -29.8520   23.7230 C   0  0  0  0  0  3  0  0  0  0  0  0
  -16.7790  -28.5930   23.1300 C   0  0  0  0  0  3  0  0  0  0  0  0
  -25.9120  -32.5390   23.8750 C   0  0  0  0  0  3  0  0  0  0  0  0
  -25.5990  -33.9350   24.2040 N   0  0  0  0  0  0  0  0  0  0  0  0
  -25.9250  -34.9860   23.4420 C   0  0  0  0  0  0  0  0  0  0  0  0
  -26.5910  -34.8840   22.4070 O   0  0  0  0  0  0  0  0  0  0  0  0
  -25.0030  -34.0880   25.0060 H   0  0  0  0  0  0  0  0  0  0  0  0
  -24.1850  -36.7700   23.0950 C   0  0  0  0  0  1  0  0  0  0  0  0
  -25.4350  -36.3760   23.8990 C   0  0  0  0  0  3  0  0  0  0  0  0
  -27.5710  -37.2720   24.7100 C   0  0  0  0  0  1  0  0  0  0  0  0
  -26.4620  -37.4320   23.7720 N   0  0  0  0  0  0  0  0  0  0  0  0
  -26.0540  -38.3510   23.9210 H   0  0  0  0  0  0  0  0  0  0  0  0
  -26.4350  -31.7660   25.1470 C   0  0  1  0  0  0  0  0  0  0  0  0
  -25.3470  -31.5160   26.2170 C   0  0  0  0  0  1  0  0  0  0  0  0
  -27.0260  -30.3940   24.7440 C   0  0  0  0  0  1  0  0  0  0  0  0
  -27.5860  -32.5610   25.8080 C   0  0  0  0  0  1  0  0  0  0  0  0
  1  5  1  0
  2  5  2  0
  3  1  2  0
  4  2  1  0
  5 50  1  0
  6  3  1  0
  6  4  2  0
  7  9  1  0
  7  6  1  0
  8  7  1  0
  9 10  1  0
 11 10  1  0
 11 20  1  0
 12 20  1  0
 13 18  1  0
 14 15  1  0
 14 13  1  0
 16 15  1  0
 16 25  1  0
 16 17  1  0
 18 12  1  0
 18 17  1  0
 19 12  2  0
 20 21  1  0
 22 23  2  0
 23 42  1  0
 24 23  1  0
 24 27  1  0
 25 22  1  0
 25 26  1  0
 26 24  2  0
 27 28  1  0
 28 29  2  0
 30 33  1  0
 30 29  1  0
 31 30  2  0
 32 31  1  0
 32 27  2  0
 33 34  1  0
 34 35  1  0
 35 36  2  0
 37 36  1  0
 37 41  1  0
 38 37  2  0
 39 34  2  0
 39 38  1  0
 40 39  1  0
 42 43  1  0
 43 46  1  0
 43 45  1  0
 44 42  2  0
 47 48  1  0
 47 22  1  0
 49 47  1  0
 51 53  1  0
 51 50  1  0
 52 63  2  0
 53 58  1  0
 54 62  1  0
 54 64  1  0
 55 61  1  0
 55 57  1  0
 56 62  1  0
 57 56  1  0
 58 57  2  0
 59 60  1  0
 59 53  2  0
 60 55  2  0
 61 54  1  0
 62 52  1  0
 64 66  2  0
 65 64  1  0
 67 65  1  0
 68 77  2  0
 68 73  1  0
 69 65  1  0
 69 73  1  0
 70 69  1  0
 71 72  1  0
 71 70  1  0
 72 68  1  0
 73 74  2  0
 74 75  1  0
 76 75  2  0
 77 76  1  0
 78 52  1  0
 78 79  1  0
 78 88  1  0
 79 82  1  0
 80 84  1  0
 80 79  1  0
 81 80  2  0
 84 83  1  0
 86 84  1  0
 86 87  1  0
 86 85  1  0
 88 91  1  1
 88 89  1  0
 90 88  1  0
M  ISO  4  12 100  20 100  50 101  51 101
M  END
>  <TORSDO>  (4) 
F 21

>  <SCORE>  (4) 
-13.570

>  <name>  (4) 
3

>  <ligand_id>  (4) 
3

>  <original_smiles>  (4) 
[H]c1c([H])c([H])c2c(c1[H])C([H])([H])C([H])([H])C([H])([H])C2([H])N([H])C(=O)C1([H])N(C(=O)C([H])(N([H])C(=O)C([H])(N([H])C([H])([H])[H])C([H])([H])[H])C(C([H])([H])[H])(C([H])([H])[H])C([H])([H])[H])C([H])([H])c2c([H])c(OC([H])([H])c3c([H])c([H])c(N([H])C([H])([H])C([H])([H])C([H])([H])N([H])C(=O)N4C([H])([H])C([H])([H])C([H])([H])C([H])(n5nc(-c6c([H])c([H])c(Oc7c([H])c([H])c(F)c([H])c7F)c([H])c6[H])c(C(=O)N([H])[H])c5N([H])[H])C4([H])[H])c([H])c3[H])c([H])c([H])c2C1([H])[H]

>  <smiles>  (4) 
[H]c1c([H])c([H])c2c(c1[H])C([H])([H])C([H])([H])C([H])([H])C2([H])N([H])C(=O)C1([H])N(C(=O)C([H])(N([H])C(=O)C([H])(N([H])C([H])([H])[H])C([H])([H])[H])C(C([H])([H])[H])(C([H])([H])[H])C([H])([H])[H])C([H])([H])c2c([H])c(OC([H])([H])c3c([H])c([H])c(N([H])C([H])([H])C([H])([H])C([H])([H])N([H])C(=O)N4C([H])([H])C([H])([H])C([H])([H])C([H])(n5nc(-c6c([H])c([H])c(Oc7c([H])c([H])c(F)c([H])c7F)c([H])c6[H])c(C(=O)N([H])[H])c5N([H])[H])C4([H])[H])c([H])c3[H])c([H])c([H])c2C1([H])[H]

$$$$
4:0:0
     RDKit          3D

 93102  0  0  1  0  0  0  0  0999 V2000
  -30.4750  -19.2710   18.1160 C   0  0  0  0  0  3  0  0  0  0  0  0
  -29.9120  -20.4280   18.6870 C   0  0  0  0  0  0  0  0  0  0  0  0
  -30.4300  -17.9920   18.7090 C   0  0  0  0  0  0  0  0  0  0  0  0
  -29.3290  -20.3500   19.9730 C   0  0  0  0  0  0  0  0  0  0  0  0
  -29.8560  -17.7950   19.9970 C   0  0  0  0  0  0  0  0  0  0  0  0
  -30.9500  -16.8580   17.8320 C   0  0  0  0  0  1  0  0  0  0  0  0
  -29.3090  -19.0240   20.5590 N   0  0  0  0  0  0  0  0  0  0  0  0
  -28.7050  -21.5970   20.5510 N   0  0  0  0  0  0  0  0  0  0  0  0
  -28.1520  -21.3960   21.3770 H   0  0  0  0  0  0  0  0  0  0  0  0
  -30.5260  -15.0850   20.3650 C   0  0  0  0  0  0  0  0  0  0  0  0
  -30.4240  -12.7070   19.4470 C   0  0  0  0  0  2  0  0  0  0  0  0
  -29.5020  -12.6370   18.2060 C   0  0  0  0  0  2  0  0  0  0  0  0
  -28.0400  -12.4090   18.6300 C   0  0  0  0  0  2  0  0  0  0  0  0
  -27.6180  -13.3300   19.8040 C   0  0  0  0  0  3  0  0  0  0  0  0
  -28.6680  -13.3720   20.9360 C   0  0  0  0  0  2  0  0  0  0  0  0
  -29.9310  -13.8130   20.3300 N   0  0  0  0  0  0  0  0  0  0  0  0
  -31.7410  -15.0900   20.1250 O   0  0  0  0  0  0  0  0  0  0  0  0
  -29.7660  -16.3130   20.5120 N   0  0  0  0  0  0  0  0  0  0  0  0
  -28.8820  -16.1300   20.9600 H   0  0  0  0  0  0  0  0  0  0  0  0
  -25.2370  -13.8870   20.5430 C   0  0  0  0  0  0  0  0  0  0  0  0
  -24.1750  -13.1070   20.9050 C   0  0  0  0  0  0  0  0  0  0  0  0
  -24.6460  -11.7580   20.8690 C   0  0  0  0  0  0  0  0  0  0  0  0
  -26.2830  -13.0160   20.3000 N   0  0  0  0  0  0  0  0  0  0  0  0
  -25.9380  -11.7290   20.5640 N   0  0  0  0  0  0  0  0  0  0  0  0
  -23.9210  -10.4920   21.0480 C   0  0  0  0  0  0  0  0  0  0  0  0
  -24.3360   -9.5300   21.9940 C   0  0  0  0  0  3  0  0  0  0  0  0
  -23.6090   -8.3310   22.1620 C   0  0  0  0  0  3  0  0  0  0  0  0
  -22.4520   -8.0860   21.3840 C   0  0  0  0  0  0  0  0  0  0  0  0
  -22.0580   -9.0370   20.4270 C   0  0  0  0  0  3  0  0  0  0  0  0
  -22.7850  -10.2270   20.2580 C   0  0  0  0  0  3  0  0  0  0  0  0
  -21.6990   -6.9400   21.4610 O   0  0  0  0  0  0  0  0  0  0  0  0
  -21.6100   -6.2130   22.6210 C   0  0  0  0  0  0  0  0  0  0  0  0
  -21.1040   -6.7730   23.8150 C   0  0  0  0  0  3  0  0  0  0  0  0
  -20.9650   -5.9700   24.9650 C   0  0  0  0  0  3  0  0  0  0  0  0
  -21.3240   -4.6090   24.9220 C   0  0  0  0  0  0  0  0  0  0  0  0
  -21.8240   -4.0490   23.7340 C   0  0  0  0  0  3  0  0  0  0  0  0
  -21.9640   -4.8490   22.5860 C   0  0  0  0  0  0  0  0  0  0  0  0
  -22.4260   -4.2990   21.4370 F   0  0  0  0  0  0  0  0  0  0  0  0
  -21.1840   -3.8360   26.0260 F   0  0  0  0  0  0  0  0  0  0  0  0
  -22.7750  -13.5780   21.1680 C   0  0  0  0  0  0  0  0  0  0  0  0
  -22.0440  -12.8770   22.0260 N   0  0  0  0  0  0  0  0  0  0  0  0
  -22.3400  -14.6040   20.6480 O   0  0  0  0  0  0  0  0  0  0  0  0
  -22.4080  -12.0470   22.4690 H   0  0  0  0  0  0  0  0  0  0  0  0
  -21.1020  -13.1750   22.2450 H   0  0  0  0  0  0  0  0  0  0  0  0
  -25.3950  -15.2600   20.3730 N   0  0  0  0  0  0  0  0  0  0  0  0
  -24.6190  -15.9050   20.4800 H   0  0  0  0  0  0  0  0  0  0  0  0
  -26.2300  -15.7050   20.0160 H   0  0  0  0  0  0  0  0  0  0  0  0
  -28.6410  -22.2650   17.2720 C   0  0  0  0  0  2  0  0  0  0  0  0
  -29.5940  -21.5660   16.3390 C   0  0  0  0  0  2  0  0  0  0  0  0
  -29.9180  -21.6600   17.8190 C   0  0  0  0  0  3  0  0  0  0  0  0
  -29.0440  -23.1600   20.4520 C   0  0  0  0  0  3  0  0  0  0  0  0
  -27.9490  -24.4910   20.3190 C   0  0  0  0  0  3  0  0  0  0  0  0
  -28.2160  -26.0590   20.4050 O   0  0  0  0  0  0  0  0  0  0  0  0
  -24.5820  -31.8730   23.2970 C   0  0  0  0  0  0  0  0  0  0  0  0
  -27.1740  -27.0800   20.3300 C   0  0  0  0  0  0  0  0  0  0  0  0
  -23.3980  -30.4670   21.6570 C   0  0  0  0  0  3  0  0  0  0  0  0
  -24.8580  -28.8730   20.2580 C   0  0  0  0  0  0  0  0  0  0  0  0
  -25.9580  -30.7130   21.5200 C   0  0  0  0  0  2  0  0  0  0  0  0
  -26.0360  -29.3100   20.8770 C   0  0  0  0  0  0  0  0  0  0  0  0
  -27.1940  -28.4330   20.8890 C   0  0  0  0  0  3  0  0  0  0  0  0
  -25.9680  -26.7620   19.6700 C   0  0  0  0  0  3  0  0  0  0  0  0
  -24.8420  -27.6160   19.6360 C   0  0  0  0  0  3  0  0  0  0  0  0
  -23.6340  -29.7800   20.2870 C   0  0  0  0  0  2  0  0  0  0  0  0
  -24.6660  -31.0410   22.2120 N   0  0  0  0  0  0  0  0  0  0  0  0
  -23.4900  -32.1630   23.8120 O   0  0  0  0  0  0  0  0  0  0  0  0
  -22.7050  -29.4690   22.6210 C   0  0  0  0  0  0  0  0  0  0  0  0
  -21.3800  -29.2890   22.4740 N   0  0  0  0  0  0  0  0  0  0  0  0
  -23.3650  -28.8600   23.4660 O   0  0  0  0  0  0  0  0  0  0  0  0
  -20.9040  -29.8310   21.7670 H   0  0  0  0  0  0  0  0  0  0  0  0
  -18.0000  -28.0590   22.9280 C   0  0  0  0  0  0  0  0  0  0  0  0
  -20.5510  -28.3540   23.2430 C   0  0  0  0  0  3  0  0  0  0  0  0
  -20.6790  -26.9150   22.6930 C   0  0  0  0  0  2  0  0  0  0  0  0
  -19.6020  -26.5640   21.6610 C   0  0  0  0  0  2  0  0  0  0  0  0
  -18.2060  -26.7030   22.2750 C   0  0  0  0  0  2  0  0  0  0  0  0
  -19.1020  -28.8420   23.3680 C   0  0  0  0  0  0  0  0  0  0  0  0
  -18.8550  -30.1080   23.9410 C   0  0  0  0  0  3  0  0  0  0  0  0
  -17.5410  -30.5930   24.0760 C   0  0  0  0  0  3  0  0  0  0  0  0
  -16.4540  -29.8090   23.6510 C   0  0  0  0  0  3  0  0  0  0  0  0
  -16.6850  -28.5440   23.0830 C   0  0  0  0  0  3  0  0  0  0  0  0
  -25.8520  -32.5140   23.9340 C   0  0  0  0  0  3  0  0  0  0  0  0
  -26.3270  -31.7770   25.2470 C   0  0  1  0  0  0  0  0  0  0  0  0
  -25.2030  -31.5830   26.2940 C   0  0  0  0  0  1  0  0  0  0  0  0
  -26.9050  -30.3820   24.9200 C   0  0  0  0  0  1  0  0  0  0  0  0
  -27.4670  -32.5810   25.9160 C   0  0  0  0  0  1  0  0  0  0  0  0
  -25.5460  -33.9250   24.2230 N   0  0  0  0  0  0  0  0  0  0  0  0
  -25.8820  -34.9580   23.4400 C   0  0  0  0  0  0  0  0  0  0  0  0
  -26.5480  -34.8240   22.4100 O   0  0  0  0  0  0  0  0  0  0  0  0
  -24.9530  -34.1030   25.0210 H   0  0  0  0  0  0  0  0  0  0  0  0
  -24.1560  -36.7520   23.0590 C   0  0  0  0  0  1  0  0  0  0  0  0
  -25.4070  -36.3620   23.8640 C   0  0  0  0  0  3  0  0  0  0  0  0
  -27.5510  -37.2710   24.6470 C   0  0  0  0  0  1  0  0  0  0  0  0
  -26.4420  -37.4090   23.7070 N   0  0  0  0  0  0  0  0  0  0  0  0
  -26.0400  -38.3340   23.8240 H   0  0  0  0  0  0  0  0  0  0  0  0
  1  2  2  0
  1  3  1  0
  2  4  1  0
  3  5  2  0
  4  8  1  0
  4  7  2  0
  5 18  1  0
  5  7  1  0
  6  3  1  0
  8  9  1  0
 10 18  1  0
 11 16  1  0
 12 13  1  0
 12 11  1  0
 14 13  1  0
 14 23  1  0
 14 15  1  0
 16 10  1  0
 16 15  1  0
 17 10  2  0
 18 19  1  0
 20 21  2  0
 21 40  1  0
 22 21  1  0
 22 25  1  0
 23 20  1  0
 23 24  1  0
 24 22  2  0
 25 26  1  0
 26 27  2  0
 28 31  1  0
 28 27  1  0
 29 28  2  0
 30 29  1  0
 30 25  2  0
 31 32  1  0
 32 33  1  0
 33 34  2  0
 35 34  1  0
 35 39  1  0
 36 35  2  0
 37 32  2  0
 37 36  1  0
 38 37  1  0
 40 41  1  0
 41 44  1  0
 41 43  1  0
 42 40  2  0
 45 46  1  0
 45 20  1  0
 47 45  1  0
 48 50  1  0
 49 48  1  0
 49 50  1  0
 50  2  1  0
 51  8  1  0
 52 53  1  0
 52 51  2  0
 54 65  2  0
 55 53  1  0
 55 60  1  0
 56 64  1  0
 56 66  1  0
 57 63  1  0
 57 59  1  0
 58 64  1  0
 59 60  2  0
 59 58  1  0
 61 55  2  0
 62 61  1  0
 62 57  2  0
 63 56  1  0
 64 54  1  0
 66 68  2  0
 67 66  1  0
 69 67  1  0
 70 79  2  0
 70 75  1  0
 71 67  1  0
 71 75  1  0
 72 71  1  0
 73 74  1  0
 73 72  1  0
 74 70  1  0
 75 76  2  0
 76 77  1  0
 78 77  2  0
 79 78  1  0
 80 54  1  0
 80 85  1  0
 80 81  1  0
 81 84  1  1
 81 82  1  0
 83 81  1  0
 85 88  1  0
 86 90  1  0
 86 85  1  0
 87 86  2  0
 90 89  1  0
 92 93  1  0
 92 90  1  0
 92 91  1  0
M  ISO  4  10 100  18 100  52 101  53 101
M  END
>  <TORSDO>  (5) 
F 19

>  <SCORE>  (5) 
-14.731

>  <name>  (5) 
4

>  <ligand_id>  (5) 
4

>  <original_smiles>  (5) 
[H]c1c([H])c([H])c2c(c1[H])C([H])([H])C([H])([H])C([H])([H])C2([H])N([H])C(=O)C1([H])N(C(=O)C([H])(N([H])C(=O)C([H])(N([H])C([H])([H])[H])C([H])([H])[H])C(C([H])([H])[H])(C([H])([H])[H])C([H])([H])[H])C([H])([H])c2c([H])c(OC([H])([H])C([H])([H])N([H])c3nc(N([H])C(=O)N4C([H])([H])C([H])([H])C([H])([H])C([H])(n5nc(-c6c([H])c([H])c(Oc7c([H])c([H])c(F)c([H])c7F)c([H])c6[H])c(C(=O)N([H])[H])c5N([H])[H])C4([H])[H])c(C([H])([H])[H])c([H])c3C3([H])C([H])([H])C3([H])[H])c([H])c([H])c2C1([H])[H]

>  <smiles>  (5) 
[H]c1c([H])c([H])c2c(c1[H])C([H])([H])C([H])([H])C([H])([H])C2([H])N([H])C(=O)C1([H])N(C(=O)C([H])(N([H])C(=O)C([H])(N([H])C([H])([H])[H])C([H])([H])[H])C(C([H])([H])[H])(C([H])([H])[H])C([H])([H])[H])C([H])([H])c2c([H])c(OC([H])([H])C([H])([H])N([H])c3nc(N([H])C(=O)N4C([H])([H])C([H])([H])C([H])([H])C([H])(n5nc(-c6c([H])c([H])c(Oc7c([H])c([H])c(F)c([H])c7F)c([H])c6[H])c(C(=O)N([H])[H])c5N([H])[H])C4([H])[H])c(C([H])([H])[H])c([H])c3C3([H])C([H])([H])C3([H])[H])c([H])c([H])c2C1([H])[H]

$$$$
5:0:0
     RDKit          3D

102111  0  0  1  0  0  0  0  0999 V2000
  -29.8620  -21.9960   20.5750 C   0  0  0  0  0  2  0  0  0  0  0  0
  -29.2810  -24.0650   21.8940 C   0  0  0  0  0  3  0  0  0  0  0  0
  -30.5250  -26.1530   21.7390 C   0  0  0  0  0  3  0  0  0  0  0  0
  -29.4740  -25.4010   22.2930 C   0  0  0  0  0  0  0  0  0  0  0  0
  -30.1360  -23.4610   20.9470 C   0  0  0  0  0  0  0  0  0  0  0  0
  -31.3940  -25.5820   20.7880 C   0  0  0  0  0  0  0  0  0  0  0  0
  -31.2040  -24.2260   20.3860 C   0  0  0  0  0  0  0  0  0  0  0  0
  -28.5550  -26.0260   23.3230 C   0  0  0  0  0  1  0  0  0  0  0  0
  -32.1610  -23.6120   19.3670 C   0  0  0  0  0  1  0  0  0  0  0  0
  -32.5030  -26.4480   20.1780 C   0  0  0  0  0  2  0  0  0  0  0  0
  -32.9080  -27.5700   20.9810 O   0  0  0  0  0  0  0  0  0  0  0  0
  -37.0300  -31.9620   17.1770 C   0  0  0  0  0  0  0  0  0  0  0  0
  -34.1780  -28.0250   20.7120 C   0  0  0  0  0  0  0  0  0  0  0  0
  -38.2040  -30.1750   18.4220 C   0  0  0  0  0  3  0  0  0  0  0  0
  -36.7960  -28.9070   20.1300 C   0  0  0  0  0  0  0  0  0  0  0  0
  -35.9750  -31.1050   19.2660 C   0  0  0  0  0  2  0  0  0  0  0  0
  -35.7010  -29.7440   19.8720 C   0  0  0  0  0  0  0  0  0  0  0  0
  -34.3890  -29.3110   20.1690 C   0  0  0  0  0  3  0  0  0  0  0  0
  -35.2910  -27.1990   20.9810 C   0  0  0  0  0  3  0  0  0  0  0  0
  -36.5960  -27.6320   20.6860 C   0  0  0  0  0  3  0  0  0  0  0  0
  -38.1670  -29.4450   19.7900 C   0  0  0  0  0  2  0  0  0  0  0  0
  -37.0410  -31.1040   18.2360 N   0  0  0  0  0  0  0  0  0  0  0  0
  -37.9830  -32.0170   16.3870 O   0  0  0  0  0  0  0  0  0  0  0  0
  -38.3260  -29.1180   17.3020 C   0  0  0  0  0  0  0  0  0  0  0  0
  -39.5730  -28.7790   16.9340 N   0  0  0  0  0  0  0  0  0  0  0  0
  -37.3210  -28.6030   16.8050 O   0  0  0  0  0  0  0  0  0  0  0  0
  -40.3440  -29.2530   17.3830 H   0  0  0  0  0  0  0  0  0  0  0  0
  -42.3160  -27.4640   14.9860 C   0  0  0  0  0  0  0  0  0  0  0  0
  -39.9300  -27.7800   15.9280 C   0  0  0  0  0  3  0  0  0  0  0  0
  -40.1090  -26.3840   16.5700 C   0  0  0  0  0  2  0  0  0  0  0  0
  -41.5580  -26.0830   16.9660 C   0  0  0  0  0  2  0  0  0  0  0  0
  -42.4760  -26.1560   15.7430 C   0  0  0  0  0  2  0  0  0  0  0  0
  -41.1270  -28.2340   15.0860 C   0  0  0  0  0  0  0  0  0  0  0  0
  -41.0450  -29.4590   14.3890 C   0  0  0  0  0  3  0  0  0  0  0  0
  -42.1200  -29.9150   13.6040 C   0  0  0  0  0  3  0  0  0  0  0  0
  -43.2890  -29.1410   13.4960 C   0  0  0  0  0  3  0  0  0  0  0  0
  -43.3830  -27.9180   14.1830 C   0  0  0  0  0  3  0  0  0  0  0  0
  -35.8330  -32.9300   16.9220 C   0  0  0  0  0  3  0  0  0  0  0  0
  -36.3910  -34.2680   16.6870 N   0  0  0  0  0  0  0  0  0  0  0  0
  -36.6100  -35.1790   17.6440 C   0  0  0  0  0  0  0  0  0  0  0  0
  -36.2930  -35.0030   18.8230 O   0  0  0  0  0  0  0  0  0  0  0  0
  -36.7270  -34.4600   15.7540 H   0  0  0  0  0  0  0  0  0  0  0  0
  -38.7730  -36.4640   17.6290 C   0  0  0  0  0  1  0  0  0  0  0  0
  -37.2900  -36.4980   17.2260 C   0  0  0  0  0  3  0  0  0  0  0  0
  -35.3910  -38.0530   17.1390 C   0  0  0  0  0  1  0  0  0  0  0  0
  -36.6460  -37.6990   17.7980 N   0  0  0  0  0  0  0  0  0  0  0  0
  -37.2670  -38.5020   17.7460 H   0  0  0  0  0  0  0  0  0  0  0  0
  -34.9180  -32.4850   15.7160 C   0  0  1  0  0  0  0  0  0  0  0  0
  -35.6790  -32.3510   14.3760 C   0  0  0  0  0  1  0  0  0  0  0  0
  -34.2430  -31.1270   16.0150 C   0  0  0  0  0  1  0  0  0  0  0  0
  -33.7780  -33.5120   15.5170 C   0  0  0  0  0  1  0  0  0  0  0  0
  -29.0820  -21.9050   19.3230 N   0  0  0  0  0  4  0  0  0  0  0  0
  -28.1180  -22.1220   19.5170 H   0  0  0  0  0  0  0  0  0  0  0  0
  -29.4380  -22.6320   18.7210 H   0  0  0  0  0  0  0  0  0  0  0  0
  -28.6410  -17.6840   18.5100 C   0  0  0  0  0  2  0  0  0  0  0  0
  -27.8110  -18.6840   17.6950 C   0  0  0  0  0  2  0  0  0  0  0  0
  -30.1510  -19.6310   19.2440 C   0  0  0  0  0  2  0  0  0  0  0  0
  -30.0870  -18.1680   18.7170 C   0  0  0  0  0  3  0  0  0  0  0  0
  -29.1870  -20.6350   18.5520 C   0  0  0  0  0  3  0  0  0  0  0  0
  -27.7680  -20.0480   18.4060 C   0  0  0  0  0  3  0  0  0  0  0  0
  -32.0420  -17.2690   17.4470 C   0  0  0  0  0  0  0  0  0  0  0  0
  -33.7000  -16.1720   15.9810 C   0  0  0  0  0  2  0  0  0  0  0  0
  -34.6250  -17.2040   15.3100 C   0  0  0  0  0  2  0  0  0  0  0  0
  -33.9940  -17.7390   14.0100 C   0  0  0  0  0  2  0  0  0  0  0  0
  -32.5230  -18.1910   14.2040 C   0  0  0  0  0  3  0  0  0  0  0  0
  -31.7100  -17.1090   14.9470 C   0  0  0  0  0  2  0  0  0  0  0  0
  -32.3980  -16.8120   16.2170 N   0  0  0  0  0  0  0  0  0  0  0  0
  -32.7250  -17.0870   18.4580 O   0  0  0  0  0  0  0  0  0  0  0  0
  -30.8690  -17.9200   17.5020 N   0  0  0  0  0  0  0  0  0  0  0  0
  -30.4010  -18.0480   16.6170 H   0  0  0  0  0  0  0  0  0  0  0  0
  -31.4590  -19.7880   12.4880 C   0  0  0  0  0  0  0  0  0  0  0  0
  -31.0300  -19.5950   11.2020 C   0  0  0  0  0  0  0  0  0  0  0  0
  -31.2490  -18.2120   10.9180 C   0  0  0  0  0  0  0  0  0  0  0  0
  -31.9030  -18.5530   12.9310 N   0  0  0  0  0  0  0  0  0  0  0  0
  -31.7230  -17.5910   11.9900 N   0  0  0  0  0  0  0  0  0  0  0  0
  -31.0880  -17.4550    9.6690 C   0  0  0  0  0  0  0  0  0  0  0  0
  -30.0120  -16.5590    9.4830 C   0  0  0  0  0  3  0  0  0  0  0  0
  -29.8680  -15.8580    8.2670 C   0  0  0  0  0  3  0  0  0  0  0  0
  -30.8010  -16.0500    7.2210 C   0  0  0  0  0  0  0  0  0  0  0  0
  -31.8830  -16.9260    7.4200 C   0  0  0  0  0  3  0  0  0  0  0  0
  -32.0280  -17.6200    8.6330 C   0  0  0  0  0  3  0  0  0  0  0  0
  -30.7560  -15.3930    6.0160 O   0  0  0  0  0  0  0  0  0  0  0  0
  -29.5670  -15.1200    5.3890 C   0  0  0  0  0  0  0  0  0  0  0  0
  -28.8620  -16.1080    4.6660 C   0  0  0  0  0  3  0  0  0  0  0  0
  -27.6790  -15.7680    3.9790 C   0  0  0  0  0  3  0  0  0  0  0  0
  -27.2060  -14.4430    4.0040 C   0  0  0  0  0  0  0  0  0  0  0  0
  -27.9090  -13.4570    4.7190 C   0  0  0  0  0  3  0  0  0  0  0  0
  -29.0880  -13.7940    5.4060 C   0  0  0  0  0  0  0  0  0  0  0  0
  -29.7740  -12.8360    6.0750 F   0  0  0  0  0  0  0  0  0  0  0  0
  -26.0740  -14.1130    3.3380 F   0  0  0  0  0  0  0  0  0  0  0  0
  -30.5360  -20.6500   10.2550 C   0  0  0  0  0  0  0  0  0  0  0  0
  -29.3740  -20.4330    9.6480 N   0  0  0  0  0  0  0  0  0  0  0  0
  -31.1560  -21.6980   10.0850 O   0  0  0  0  0  0  0  0  0  0  0  0
  -28.8560  -19.5810    9.8030 H   0  0  0  0  0  0  0  0  0  0  0  0
  -28.9990  -21.1280    9.0200 H   0  0  0  0  0  0  0  0  0  0  0  0
  -31.5260  -20.9100   13.3100 N   0  0  0  0  0  0  0  0  0  0  0  0
  -31.2580  -21.8340   12.9870 H   0  0  0  0  0  0  0  0  0  0  0  0
  -31.9190  -20.9130   14.2430 H   0  0  0  0  0  0  0  0  0  0  0  0
  -27.0200  -21.0030   17.6540 O   0  0  0  0  0  0  0  0  0  0  0  0
  -25.7210  -22.7470   18.6630 C   0  0  0  0  0  1  0  0  0  0  0  0
  -24.7190  -21.0990   17.0170 C   0  0  0  0  0  1  0  0  0  0  0  0
  -25.7220  -21.3020   18.1580 C   0  0  0  0  0  3  0  0  0  0  0  0
  1  5  1  0
  2  4  1  0
  3  4  2  0
  4  8  1  0
  5  2  2  0
  6  3  1  0
  7  6  2  0
  7  5  1  0
  9  7  1  0
 10  6  1  0
 10 11  1  0
 12 22  1  0
 13 11  1  0
 13 19  1  0
 14 24  1  0
 14 21  1  0
 15 20  1  0
 16 17  1  0
 17 15  2  0
 17 18  1  0
 18 13  2  0
 20 19  2  0
 21 15  1  0
 22 14  1  0
 22 16  1  0
 23 12  2  0
 25 24  1  0
 25 27  1  0
 26 24  2  0
 28 33  1  0
 28 32  1  0
 29 30  1  0
 29 25  1  0
 30 31  1  0
 32 31  1  0
 33 29  1  0
 34 33  2  0
 35 34  1  0
 36 35  2  0
 36 37  1  0
 37 28  2  0
 38 12  1  0
 39 38  1  0
 39 40  1  0
 40 41  2  0
 42 39  1  0
 44 43  1  0
 44 40  1  0
 44 46  1  0
 45 46  1  0
 47 46  1  0
 48 50  1  1
 48 38  1  0
 49 48  1  0
 51 48  1  0
 52 53  1  0
 52  1  1  0
 54 52  1  0
 55 58  1  0
 56 60  1  0
 56 55  1  0
 58 69  1  0
 58 57  1  0
 59 57  1  0
 59 52  1  0
 60 99  1  0
 60 59  1  0
 61 69  1  0
 61 68  2  0
 62 67  1  0
 63 62  1  0
 64 65  1  0
 64 63  1  0
 65 74  1  0
 65 66  1  0
 66 67  1  0
 67 61  1  0
 70 69  1  0
 71 74  1  0
 71 96  1  0
 72 71  2  0
 73 72  1  0
 73 75  2  0
 75 74  1  0
 76 73  1  0
 77 76  1  0
 78 77  2  0
 79 80  2  0
 79 78  1  0
 80 81  1  0
 81 76  2  0
 82 79  1  0
 83 88  1  0
 83 82  1  0
 84 83  2  0
 85 86  2  0
 85 84  1  0
 86 87  1  0
 87 88  2  0
 88 89  1  0
 90 86  1  0
 91 72  1  0
 92 94  1  0
 92 91  1  0
 93 91  2  0
 95 92  1  0
 96 98  1  0
 97 96  1  0
 99102  1  0
101102  1  0
102100  1  0
M  ISO  4  10 101  11 101  61 100  69 100
M  END
>  <TORSDO>  (6) 
F 22

>  <SCORE>  (6) 
-3.965

>  <name>  (6) 
5

>  <ligand_id>  (6) 
5

>  <original_smiles>  (6) 
[H]c1c([H])c([H])c2c(c1[H])C([H])([H])C([H])([H])C([H])([H])C2([H])N([H])C(=O)C1([H])N(C(=O)C([H])(N([H])C(=O)C([H])(N([H])C([H])([H])[H])C([H])([H])[H])C(C([H])([H])[H])(C([H])([H])[H])C([H])([H])[H])C([H])([H])c2c([H])c(OC([H])([H])c3c([H])c(C([H])([H])[H])c([H])c(C([H])([H])[N+]([H])([H])C4([H])C([H])([H])C([H])(N([H])C(=O)N5C([H])([H])C([H])([H])C([H])([H])C([H])(n6nc(-c7c([H])c([H])c(Oc8c([H])c([H])c(F)c([H])c8F)c([H])c7[H])c(C(=O)N([H])[H])c6N([H])[H])C5([H])[H])C([H])([H])C([H])([H])C4([H])OC([H])(C([H])([H])[H])C([H])([H])[H])c3C([H])([H])[H])c([H])c([H])c2C1([H])[H]

>  <smiles>  (6) 
[H]c1c([H])c([H])c2c(c1[H])C([H])([H])C([H])([H])C([H])([H])C2([H])N([H])C(=O)C1([H])N(C(=O)C([H])(N([H])C(=O)C([H])(N([H])C([H])([H])[H])C([H])([H])[H])C(C([H])([H])[H])(C([H])([H])[H])C([H])([H])[H])C([H])([H])c2c([H])c(OC([H])([H])c3c([H])c(C([H])([H])[H])c([H])c(C([H])([H])[N+]([H])([H])C4([H])C([H])([H])C([H])(N([H])C(=O)N5C([H])([H])C([H])([H])C([H])([H])C([H])(n6nc(-c7c([H])c([H])c(Oc8c([H])c([H])c(F)c([H])c8F)c([H])c7[H])c(C(=O)N([H])[H])c6N([H])[H])C5([H])[H])C([H])([H])C([H])([H])C4([H])OC([H])(C([H])([H])[H])C([H])([H])[H])c3C([H])([H])[H])c([H])c([H])c2C1([H])[H]

$$$$
6:0:0
     RDKit          3D

 96104  0  0  1  0  0  0  0  0999 V2000
  -30.9190  -22.6780   22.3140 C   0  0  0  0  0  2  0  0  0  0  0  0
  -29.9010  -23.6820   22.8800 C   0  0  0  0  0  2  0  0  0  0  0  0
  -31.1590  -22.9020   20.8080 C   0  0  0  0  0  2  0  0  0  0  0  0
  -28.8080  -23.9860   20.5520 C   0  0  0  0  0  3  0  0  0  0  0  0
  -28.5690  -23.7040   22.0880 C   0  0  0  0  0  3  0  0  0  0  0  0
  -29.8470  -22.8510   19.9810 C   0  0  0  0  0  3  0  0  0  0  0  0
  -27.7350  -22.5260   22.4250 N   0  0  0  0  0  4  0  0  0  0  0  0
  -28.2400  -21.6590   22.4380 H   0  0  0  0  0  0  0  0  0  0  0  0
  -26.9100  -22.4540   21.8560 H   0  0  0  0  0  0  0  0  0  0  0  0
  -27.4050  -22.6460   23.3670 H   0  0  0  0  0  0  0  0  0  0  0  0
  -29.3410  -21.3930   19.7710 N   0  0  0  0  0  4  0  0  0  0  0  0
  -28.9700  -21.3750   18.8320 H   0  0  0  0  0  0  0  0  0  0  0  0
  -28.5510  -21.2070   20.3580 H   0  0  0  0  0  0  0  0  0  0  0  0
  -30.2830  -20.1730   19.8600 C   0  0  0  0  0  2  0  0  0  0  0  0
  -29.6760  -18.6700   19.8990 C   0  0  0  0  0  3  0  0  0  0  0  0
  -30.7070  -17.4240   19.9800 C   0  0  0  0  0  3  0  0  0  0  0  0
  -30.9400  -14.8220   19.9200 C   0  0  0  0  0  0  0  0  0  0  0  0
  -30.6550  -12.5160   19.0160 C   0  0  0  0  0  2  0  0  0  0  0  0
  -29.6780  -12.5520   17.8190 C   0  0  0  0  0  2  0  0  0  0  0  0
  -28.2180  -12.4340   18.3020 C   0  0  0  0  0  2  0  0  0  0  0  0
  -27.9010  -13.3800   19.4920 C   0  0  0  0  0  3  0  0  0  0  0  0
  -28.9940  -13.3260   20.5820 C   0  0  0  0  0  2  0  0  0  0  0  0
  -30.2790  -13.6170   19.9320 N   0  0  0  0  0  0  0  0  0  0  0  0
  -32.1100  -14.8840   19.5310 O   0  0  0  0  0  0  0  0  0  0  0  0
  -30.2210  -15.9850   20.1490 N   0  0  0  0  0  0  0  0  0  0  0  0
  -29.2650  -15.8610   20.4490 H   0  0  0  0  0  0  0  0  0  0  0  0
  -25.5750  -14.0540   20.3420 C   0  0  0  0  0  0  0  0  0  0  0  0
  -24.4970  -13.3170   20.7490 C   0  0  0  0  0  0  0  0  0  0  0  0
  -24.9030  -11.9480   20.6760 C   0  0  0  0  0  0  0  0  0  0  0  0
  -26.5690  -13.1360   20.0390 N   0  0  0  0  0  0  0  0  0  0  0  0
  -26.1750  -11.8640   20.3040 N   0  0  0  0  0  0  0  0  0  0  0  0
  -24.1340  -10.7130   20.8810 C   0  0  0  0  0  0  0  0  0  0  0  0
  -24.5380   -9.7370   21.8180 C   0  0  0  0  0  3  0  0  0  0  0  0
  -23.7710   -8.5680   22.0080 C   0  0  0  0  0  3  0  0  0  0  0  0
  -22.5850   -8.3680   21.2620 C   0  0  0  0  0  0  0  0  0  0  0  0
  -22.2010   -9.3310   20.3140 C   0  0  0  0  0  3  0  0  0  0  0  0
  -22.9680  -10.4920   20.1210 C   0  0  0  0  0  3  0  0  0  0  0  0
  -21.7920   -7.2490   21.3600 O   0  0  0  0  0  0  0  0  0  0  0  0
  -21.6930   -6.5390   22.5290 C   0  0  0  0  0  0  0  0  0  0  0  0
  -21.2170   -7.1270   23.7200 C   0  0  0  0  0  3  0  0  0  0  0  0
  -21.0610   -6.3460   24.8820 C   0  0  0  0  0  3  0  0  0  0  0  0
  -21.3740   -4.9720   24.8520 C   0  0  0  0  0  0  0  0  0  0  0  0
  -21.8440   -4.3820   23.6650 C   0  0  0  0  0  3  0  0  0  0  0  0
  -21.9980   -5.1620   22.5060 C   0  0  0  0  0  0  0  0  0  0  0  0
  -22.4330   -4.5840   21.3610 F   0  0  0  0  0  0  0  0  0  0  0  0
  -21.2170   -4.2190   25.9640 F   0  0  0  0  0  0  0  0  0  0  0  0
  -23.1330  -13.8460   21.0900 C   0  0  0  0  0  0  0  0  0  0  0  0
  -22.4190  -13.1740   21.9880 N   0  0  0  0  0  0  0  0  0  0  0  0
  -22.7120  -14.8900   20.5940 O   0  0  0  0  0  0  0  0  0  0  0  0
  -22.7750  -12.3340   22.4210 H   0  0  0  0  0  0  0  0  0  0  0  0
  -21.5040  -13.5080   22.2490 H   0  0  0  0  0  0  0  0  0  0  0  0
  -25.7880  -15.4190   20.1790 N   0  0  0  0  0  0  0  0  0  0  0  0
  -25.0490  -16.0980   20.3290 H   0  0  0  0  0  0  0  0  0  0  0  0
  -26.6220  -15.8300   19.7800 H   0  0  0  0  0  0  0  0  0  0  0  0
  -29.1840  -25.5910   20.5040 C   0  0  0  0  0  2  0  0  0  0  0  0
  -28.7360  -26.6290   19.5510 O   0  0  0  0  0  0  0  0  0  0  0  0
  -24.6710  -31.6440   22.9960 C   0  0  0  0  0  0  0  0  0  0  0  0
  -27.5770  -27.4060   19.7340 C   0  0  0  0  0  0  0  0  0  0  0  0
  -23.5690  -30.2890   21.2500 C   0  0  0  0  0  3  0  0  0  0  0  0
  -25.1270  -28.8960   19.7740 C   0  0  0  0  0  0  0  0  0  0  0  0
  -26.0910  -30.7450   21.1390 C   0  0  0  0  0  2  0  0  0  0  0  0
  -26.2600  -29.4060   20.4260 C   0  0  0  0  0  0  0  0  0  0  0  0
  -27.4890  -28.6710   20.4020 C   0  0  0  0  0  3  0  0  0  0  0  0
  -26.4220  -26.9530   19.0670 C   0  0  0  0  0  3  0  0  0  0  0  0
  -25.2110  -27.6730   19.0900 C   0  0  0  0  0  3  0  0  0  0  0  0
  -23.8440  -29.7030   19.8410 C   0  0  0  0  0  2  0  0  0  0  0  0
  -24.7940  -30.9100   21.8520 N   0  0  0  0  0  0  0  0  0  0  0  0
  -23.5660  -31.8290   23.5280 O   0  0  0  0  0  0  0  0  0  0  0  0
  -22.9470  -29.1810   22.1360 C   0  0  0  0  0  0  0  0  0  0  0  0
  -21.6220  -28.9900   22.0260 N   0  0  0  0  0  0  0  0  0  0  0  0
  -23.6570  -28.4980   22.8800 O   0  0  0  0  0  0  0  0  0  0  0  0
  -21.1060  -29.5910   21.3980 H   0  0  0  0  0  0  0  0  0  0  0  0
  -18.2670  -27.7650   22.5950 C   0  0  0  0  0  0  0  0  0  0  0  0
  -20.8400  -27.9740   22.7330 C   0  0  0  0  0  3  0  0  0  0  0  0
  -20.8880  -26.6190   21.9890 C   0  0  0  0  0  2  0  0  0  0  0  0
  -19.7210  -26.4240   21.0160 C   0  0  0  0  0  2  0  0  0  0  0  0
  -18.3830  -26.5030   21.7550 C   0  0  0  0  0  2  0  0  0  0  0  0
  -19.4180  -28.4640   23.0400 C   0  0  0  0  0  0  0  0  0  0  0  0
  -19.2530  -29.6510   23.7880 C   0  0  0  0  0  3  0  0  0  0  0  0
  -17.9660  -30.1360   24.0900 C   0  0  0  0  0  3  0  0  0  0  0  0
  -16.8290  -29.4310   23.6600 C   0  0  0  0  0  3  0  0  0  0  0  0
  -16.9800  -28.2460   22.9190 C   0  0  0  0  0  3  0  0  0  0  0  0
  -25.9080  -32.3050   23.6780 C   0  0  0  0  0  3  0  0  0  0  0  0
  -25.5300  -33.6760   24.0510 N   0  0  0  0  0  0  0  0  0  0  0  0
  -25.8260  -34.7700   23.3390 C   0  0  0  0  0  0  0  0  0  0  0  0
  -26.5150  -34.7360   22.3160 O   0  0  0  0  0  0  0  0  0  0  0  0
  -24.9170  -33.7730   24.8480 H   0  0  0  0  0  0  0  0  0  0  0  0
  -24.0220  -36.4970   23.0240 C   0  0  0  0  0  1  0  0  0  0  0  0
  -25.2690  -36.1160   23.8390 C   0  0  0  0  0  3  0  0  0  0  0  0
  -27.3440  -37.0710   24.7430 C   0  0  0  0  0  1  0  0  0  0  0  0
  -26.2530  -37.2190   23.7820 N   0  0  0  0  0  0  0  0  0  0  0  0
  -25.8010  -38.1150   23.9510 H   0  0  0  0  0  0  0  0  0  0  0  0
  -26.4210  -31.5080   24.9400 C   0  0  1  0  0  0  0  0  0  0  0  0
  -25.3070  -31.1940   25.9650 C   0  0  0  0  0  1  0  0  0  0  0  0
  -27.0690  -30.1690   24.5190 C   0  0  0  0  0  1  0  0  0  0  0  0
  -27.5190  -32.3240   25.6620 C   0  0  0  0  0  1  0  0  0  0  0  0
  1  2  1  0
  3  1  1  0
  4 55  1  0
  4  5  1  0
  5  7  1  0
  5  2  1  0
  6 11  1  0
  6  4  1  0
  6  3  1  0
  7  8  1  0
  7 10  1  0
  9  7  1  0
 11 14  1  0
 11 13  1  0
 12 11  1  0
 14 15  1  0
 15 16  2  0
 16 25  1  0
 17 23  1  0
 17 25  1  0
 18 23  1  0
 19 20  1  0
 19 18  1  0
 21 20  1  0
 21 30  1  0
 21 22  1  0
 23 22  1  0
 24 17  2  0
 25 26  1  0
 27 28  2  0
 28 47  1  0
 29 28  1  0
 29 32  1  0
 30 31  1  0
 30 27  1  0
 31 29  2  0
 32 33  1  0
 33 34  2  0
 35 38  1  0
 35 34  1  0
 36 35  2  0
 37 36  1  0
 37 32  2  0
 38 39  1  0
 39 40  1  0
 40 41  2  0
 42 41  1  0
 42 46  1  0
 43 42  2  0
 44 39  2  0
 44 43  1  0
 45 44  1  0
 47 48  1  0
 48 51  1  0
 48 50  1  0
 49 47  2  0
 52 53  1  0
 52 27  1  0
 54 52  1  0
 56 58  1  0
 56 55  1  0
 57 68  2  0
 58 63  1  0
 59 67  1  0
 59 69  1  0
 60 66  1  0
 60 62  1  0
 61 67  1  0
 62 61  1  0
 63 62  2  0
 64 65  1  0
 64 58  2  0
 65 60  2  0
 66 59  1  0
 67 57  1  0
 69 71  2  0
 70 69  1  0
 72 70  1  0
 73 82  2  0
 73 78  1  0
 74 70  1  0
 74 78  1  0
 75 74  1  0
 76 77  1  0
 76 75  1  0
 77 73  1  0
 78 79  2  0
 79 80  1  0
 81 80  2  0
 82 81  1  0
 83 57  1  0
 83 84  1  0
 83 93  1  0
 84 87  1  0
 85 89  1  0
 85 84  1  0
 86 85  2  0
 89 88  1  0
 91 89  1  0
 91 92  1  0
 91 90  1  0
 93 96  1  1
 93 94  1  0
 95 93  1  0
M  ISO  4  17 100  25 100  55 101  56 101
M  END
>  <TORSDO>  (7) 
F 22

>  <SCORE>  (7) 
-12.068

>  <name>  (7) 
6

>  <ligand_id>  (7) 
6

>  <original_smiles>  (7) 
[H]c1c([H])c([H])c2c(c1[H])C([H])([H])C([H])([H])C([H])([H])C2([H])N([H])C(=O)C1([H])N(C(=O)C([H])(N([H])C(=O)C([H])(N([H])C([H])([H])[H])C([H])([H])[H])C(C([H])([H])[H])(C([H])([H])[H])C([H])([H])[H])C([H])([H])c2c([H])c(OC([H])([H])C3([H])C([H])([N+]([H])([H])[H])C([H])([H])C([H])([H])C([H])([H])C3([H])[N+]([H])([H])C([H])([H])C([H])([H])C([H])([H])N([H])C(=O)N3C([H])([H])C([H])([H])C([H])([H])C([H])(n4nc(-c5c([H])c([H])c(Oc6c([H])c([H])c(F)c([H])c6F)c([H])c5[H])c(C(=O)N([H])[H])c4N([H])[H])C3([H])[H])c([H])c([H])c2C1([H])[H]

>  <smiles>  (7) 
[H]c1c([H])c([H])c2c(c1[H])C([H])([H])C([H])([H])C([H])([H])C2([H])N([H])C(=O)C1([H])N(C(=O)C([H])(N([H])C(=O)C([H])(N([H])C([H])([H])[H])C([H])([H])[H])C(C([H])([H])[H])(C([H])([H])[H])C([H])([H])[H])C([H])([H])c2c([H])c(OC([H])([H])C3([H])C([H])([N+]([H])([H])[H])C([H])([H])C([H])([H])C([H])([H])C3([H])[N+]([H])([H])C([H])([H])C([H])([H])C([H])([H])N([H])C(=O)N3C([H])([H])C([H])([H])C([H])([H])C([H])(n4nc(-c5c([H])c([H])c(Oc6c([H])c([H])c(F)c([H])c6F)c([H])c5[H])c(C(=O)N([H])[H])c4N([H])[H])C3([H])[H])c([H])c([H])c2C1([H])[H]

$$$$
7:0:0
     RDKit          3D

 93101  0  0  1  0  0  0  0  0999 V2000
  -29.7680  -23.1450   18.6630 C   0  0  0  0  0  3  0  0  0  0  0  0
  -29.9720  -21.7910   19.0700 C   0  0  0  0  0  3  0  0  0  0  0  0
  -28.9060  -23.7000   20.8270 C   0  0  0  0  0  3  0  0  0  0  0  0
  -29.2510  -24.1510   19.5280 C   0  0  0  0  0  0  0  0  0  0  0  0
  -29.0920  -22.3390   21.2430 C   0  0  0  0  0  0  0  0  0  0  0  0
  -29.6620  -21.3450   20.3810 C   0  0  0  0  0  0  0  0  0  0  0  0
  -28.6120  -21.9860   22.6460 C   0  0  0  0  0  3  0  0  0  0  0  0
  -27.3440  -22.3690   22.7990 F   0  0  0  0  0  0  0  0  0  0  0  0
  -29.3680  -22.5910   23.5620 F   0  0  0  0  0  0  0  0  0  0  0  0
  -29.9470  -20.0110   20.8500 N   0  0  0  0  0  0  0  0  0  0  0  0
  -29.9110  -19.8720   21.8550 H   0  0  0  0  0  0  0  0  0  0  0  0
  -30.0550  -18.7270   20.0830 C   0  0  0  0  0  2  0  0  0  0  0  0
  -30.7370  -17.5130   20.8780 C   0  0  0  0  0  2  0  0  0  0  0  0
  -31.0320  -14.9640   20.3980 C   0  0  0  0  0  0  0  0  0  0  0  0
  -30.7870  -12.7040   19.3810 C   0  0  0  0  0  2  0  0  0  0  0  0
  -29.8730  -12.8130   18.1420 C   0  0  0  0  0  2  0  0  0  0  0  0
  -28.3910  -12.6820   18.5460 C   0  0  0  0  0  2  0  0  0  0  0  0
  -28.0170  -13.5840   19.7510 C   0  0  0  0  0  3  0  0  0  0  0  0
  -29.0520  -13.4600   20.8910 C   0  0  0  0  0  2  0  0  0  0  0  0
  -30.3710  -13.7660   20.3210 N   0  0  0  0  0  0  0  0  0  0  0  0
  -32.2240  -15.0520   20.0910 O   0  0  0  0  0  0  0  0  0  0  0  0
  -30.2830  -16.0900   20.6430 N   0  0  0  0  0  0  0  0  0  0  0  0
  -29.3040  -15.9180   20.8110 H   0  0  0  0  0  0  0  0  0  0  0  0
  -25.6330  -14.2360   20.4430 C   0  0  0  0  0  0  0  0  0  0  0  0
  -24.5400  -13.4870   20.7850 C   0  0  0  0  0  0  0  0  0  0  0  0
  -24.9670  -12.1240   20.7460 C   0  0  0  0  0  0  0  0  0  0  0  0
  -26.6570  -13.3310   20.2150 N   0  0  0  0  0  0  0  0  0  0  0  0
  -26.2620  -12.0550   20.4600 N   0  0  0  0  0  0  0  0  0  0  0  0
  -24.2040  -10.8800   20.9070 C   0  0  0  0  0  0  0  0  0  0  0  0
  -24.5930   -9.8910   21.8380 C   0  0  0  0  0  3  0  0  0  0  0  0
  -23.8310   -8.7110   21.9880 C   0  0  0  0  0  3  0  0  0  0  0  0
  -22.6680   -8.5140   21.2070 C   0  0  0  0  0  0  0  0  0  0  0  0
  -22.2990   -9.4910   20.2670 C   0  0  0  0  0  3  0  0  0  0  0  0
  -23.0600  -10.6620   20.1150 C   0  0  0  0  0  3  0  0  0  0  0  0
  -21.8800   -7.3890   21.2670 O   0  0  0  0  0  0  0  0  0  0  0  0
  -21.7780   -6.6430   22.4130 C   0  0  0  0  0  0  0  0  0  0  0  0
  -21.3320   -7.2030   23.6300 C   0  0  0  0  0  3  0  0  0  0  0  0
  -21.1760   -6.3860   24.7660 C   0  0  0  0  0  3  0  0  0  0  0  0
  -21.4550   -5.0080   24.6870 C   0  0  0  0  0  0  0  0  0  0  0  0
  -21.8920   -4.4470   23.4750 C   0  0  0  0  0  3  0  0  0  0  0  0
  -22.0520   -5.2610   22.3410 C   0  0  0  0  0  0  0  0  0  0  0  0
  -22.4550   -4.7120   21.1700 F   0  0  0  0  0  0  0  0  0  0  0  0
  -21.2970   -4.2200   25.7770 F   0  0  0  0  0  0  0  0  0  0  0  0
  -23.1530  -13.9990   21.0400 C   0  0  0  0  0  0  0  0  0  0  0  0
  -22.3940  -13.3150   21.8900 N   0  0  0  0  0  0  0  0  0  0  0  0
  -22.7490  -15.0390   20.5200 O   0  0  0  0  0  0  0  0  0  0  0  0
  -22.7330  -12.4720   22.3280 H   0  0  0  0  0  0  0  0  0  0  0  0
  -21.4640  -13.6420   22.1070 H   0  0  0  0  0  0  0  0  0  0  0  0
  -25.8350  -15.6040   20.2830 N   0  0  0  0  0  0  0  0  0  0  0  0
  -25.0780  -16.2740   20.3740 H   0  0  0  0  0  0  0  0  0  0  0  0
  -26.6930  -16.0230   19.9440 H   0  0  0  0  0  0  0  0  0  0  0  0
  -28.9780  -25.6050   18.9710 C   0  0  0  0  0  2  0  0  0  0  0  0
  -28.8250  -26.7840   19.8510 O   0  0  0  0  0  0  0  0  0  0  0  0
  -24.8950  -31.7820   23.2750 C   0  0  0  0  0  0  0  0  0  0  0  0
  -27.6590  -27.5730   19.8520 C   0  0  0  0  0  0  0  0  0  0  0  0
  -23.7330  -30.4660   21.5390 C   0  0  0  0  0  3  0  0  0  0  0  0
  -25.2310  -29.0880   19.9880 C   0  0  0  0  0  0  0  0  0  0  0  0
  -26.2580  -30.8920   21.3690 C   0  0  0  0  0  2  0  0  0  0  0  0
  -26.3830  -29.5710   20.6200 C   0  0  0  0  0  0  0  0  0  0  0  0
  -27.5970  -28.8220   20.5490 C   0  0  0  0  0  3  0  0  0  0  0  0
  -26.4720  -27.1320   19.2260 C   0  0  0  0  0  3  0  0  0  0  0  0
  -25.2760  -27.8750   19.2860 C   0  0  0  0  0  3  0  0  0  0  0  0
  -23.9620  -29.9100   20.1100 C   0  0  0  0  0  2  0  0  0  0  0  0
  -24.9810  -31.0600   22.1190 N   0  0  0  0  0  0  0  0  0  0  0  0
  -23.8050  -31.9760   23.8330 O   0  0  0  0  0  0  0  0  0  0  0  0
  -23.1190  -29.3540   22.4220 C   0  0  0  0  0  0  0  0  0  0  0  0
  -21.8040  -29.1150   22.2690 N   0  0  0  0  0  0  0  0  0  0  0  0
  -23.8220  -28.7120   23.2060 O   0  0  0  0  0  0  0  0  0  0  0  0
  -21.2920  -29.6920   21.6170 H   0  0  0  0  0  0  0  0  0  0  0  0
  -18.5000  -27.6820   22.6110 C   0  0  0  0  0  0  0  0  0  0  0  0
  -21.0300  -28.0870   22.9670 C   0  0  0  0  0  3  0  0  0  0  0  0
  -21.2370  -26.6960   22.3210 C   0  0  0  0  0  2  0  0  0  0  0  0
  -20.1840  -26.3590   21.2610 C   0  0  0  0  0  2  0  0  0  0  0  0
  -18.7800  -26.3840   21.8730 C   0  0  0  0  0  2  0  0  0  0  0  0
  -19.5570  -28.4890   23.1100 C   0  0  0  0  0  0  0  0  0  0  0  0
  -19.2420  -29.7040   23.7600 C   0  0  0  0  0  3  0  0  0  0  0  0
  -17.9040  -30.1110   23.9150 C   0  0  0  0  0  3  0  0  0  0  0  0
  -16.8610  -29.3000   23.4330 C   0  0  0  0  0  3  0  0  0  0  0  0
  -17.1600  -28.0880   22.7860 C   0  0  0  0  0  3  0  0  0  0  0  0
  -26.1570  -32.4170   23.9370 C   0  0  0  0  0  3  0  0  0  0  0  0
  -25.7950  -33.7740   24.3720 N   0  0  0  0  0  0  0  0  0  0  0  0
  -26.0790  -34.8930   23.6930 C   0  0  0  0  0  0  0  0  0  0  0  0
  -26.7410  -34.8920   22.6520 O   0  0  0  0  0  0  0  0  0  0  0  0
  -25.2070  -33.8460   25.1900 H   0  0  0  0  0  0  0  0  0  0  0  0
  -24.2740  -36.6350   23.4930 C   0  0  0  0  0  1  0  0  0  0  0  0
  -25.5440  -36.2240   24.2560 C   0  0  0  0  0  3  0  0  0  0  0  0
  -27.6540  -37.1350   25.1210 C   0  0  0  0  0  1  0  0  0  0  0  0
  -26.5300  -37.3240   24.2070 N   0  0  0  0  0  0  0  0  0  0  0  0
  -26.0900  -38.2120   24.4310 H   0  0  0  0  0  0  0  0  0  0  0  0
  -26.7120  -31.5760   25.1520 C   0  0  1  0  0  0  0  0  0  0  0  0
  -25.6370  -31.2170   26.2060 C   0  0  0  0  0  1  0  0  0  0  0  0
  -27.3430  -30.2530   24.6560 C   0  0  0  0  0  1  0  0  0  0  0  0
  -27.8420  -32.3610   25.8610 C   0  0  0  0  0  1  0  0  0  0  0  0
  1  2  2  0
  1  4  1  0
  2  6  1  0
  3  5  1  0
  4  3  2  0
  5  7  1  0
  6 10  1  0
  6  5  2  0
  7  8  1  0
  7  9  1  0
 10 11  1  0
 12 10  1  0
 12 13  1  0
 14 22  1  0
 15 20  1  0
 16 17  1  0
 16 15  1  0
 18 17  1  0
 18 27  1  0
 18 19  1  0
 20 14  1  0
 20 19  1  0
 21 14  2  0
 22 23  1  0
 22 13  1  0
 24 25  2  0
 25 44  1  0
 26 25  1  0
 26 29  1  0
 27 24  1  0
 27 28  1  0
 28 26  2  0
 29 30  1  0
 30 31  2  0
 32 35  1  0
 32 31  1  0
 33 32  2  0
 34 33  1  0
 34 29  2  0
 35 36  1  0
 36 37  1  0
 37 38  2  0
 39 38  1  0
 39 43  1  0
 40 39  2  0
 41 36  2  0
 41 40  1  0
 42 41  1  0
 44 45  1  0
 45 48  1  0
 45 47  1  0
 46 44  2  0
 49 50  1  0
 49 24  1  0
 51 49  1  0
 52  4  1  0
 52 53  1  0
 53 55  1  0
 54 65  2  0
 55 60  1  0
 56 64  1  0
 56 66  1  0
 57 63  1  0
 57 59  1  0
 58 64  1  0
 59 58  1  0
 60 59  2  0
 61 62  1  0
 61 55  2  0
 62 57  2  0
 63 56  1  0
 64 54  1  0
 66 68  2  0
 67 66  1  0
 69 67  1  0
 70 79  2  0
 70 75  1  0
 71 67  1  0
 71 75  1  0
 72 71  1  0
 73 74  1  0
 73 72  1  0
 74 70  1  0
 75 76  2  0
 76 77  1  0
 78 77  2  0
 79 78  1  0
 80 54  1  0
 80 81  1  0
 80 90  1  0
 81 84  1  0
 82 86  1  0
 82 81  1  0
 83 82  2  0
 86 85  1  0
 88 86  1  0
 88 89  1  0
 88 87  1  0
 90 93  1  1
 90 91  1  0
 92 90  1  0
M  ISO  4  14 100  22 100  52 101  53 101
M  END
>  <TORSDO>  (8) 
F 21

>  <SCORE>  (8) 
-11.431

>  <name>  (8) 
7

>  <ligand_id>  (8) 
7

>  <original_smiles>  (8) 
[H]c1c([H])c([H])c2c(c1[H])C([H])([H])C([H])([H])C([H])([H])C2([H])N([H])C(=O)C1([H])N(C(=O)C([H])(N([H])C(=O)C([H])(N([H])C([H])([H])[H])C([H])([H])[H])C(C([H])([H])[H])(C([H])([H])[H])C([H])([H])[H])C([H])([H])c2c([H])c(OC([H])([H])c3c([H])c([H])c(N([H])C([H])([H])C([H])([H])N([H])C(=O)N4C([H])([H])C([H])([H])C([H])([H])C([H])(n5nc(-c6c([H])c([H])c(Oc7c([H])c([H])c(F)c([H])c7F)c([H])c6[H])c(C(=O)N([H])[H])c5N([H])[H])C4([H])[H])c(C([H])(F)F)c3[H])c([H])c([H])c2C1([H])[H]

>  <smiles>  (8) 
[H]c1c([H])c([H])c2c(c1[H])C([H])([H])C([H])([H])C([H])([H])C2([H])N([H])C(=O)C1([H])N(C(=O)C([H])(N([H])C(=O)C([H])(N([H])C([H])([H])[H])C([H])([H])[H])C(C([H])([H])[H])(C([H])([H])[H])C([H])([H])[H])C([H])([H])c2c([H])c(OC([H])([H])c3c([H])c([H])c(N([H])C([H])([H])C([H])([H])N([H])C(=O)N4C([H])([H])C([H])([H])C([H])([H])C([H])(n5nc(-c6c([H])c([H])c(Oc7c([H])c([H])c(F)c([H])c7F)c([H])c6[H])c(C(=O)N([H])[H])c5N([H])[H])C4([H])[H])c(C([H])(F)F)c3[H])c([H])c([H])c2C1([H])[H]

$$$$
8:0:0
     RDKit          3D

 96104  0  0  1  0  0  0  0  0999 V2000
  -27.0390  -19.8410   19.7370 C   0  0  0  0  0  2  0  0  0  0  0  0
  -27.0530  -21.8630   18.5390 C   0  0  0  0  0  2  0  0  0  0  0  0
  -28.3150  -20.5670   20.2130 C   0  0  0  0  0  3  0  0  0  0  0  0
  -28.3200  -21.9150   19.4240 C   0  0  0  0  0  3  0  0  0  0  0  0
  -26.1670  -20.8760   19.1670 N   0  0  0  0  0  4  0  0  0  0  0  0
  -25.6500  -21.3190   19.9090 H   0  0  0  0  0  0  0  0  0  0  0  0
  -25.5100  -20.4930   18.5080 H   0  0  0  0  0  0  0  0  0  0  0  0
  -28.2880  -23.0520   20.3560 N   0  0  0  0  0  0  0  0  0  0  0  0
  -27.4070  -23.0910   20.8610 H   0  0  0  0  0  0  0  0  0  0  0  0
  -28.5430  -24.3520   19.7230 C   0  0  0  0  0  2  0  0  0  0  0  0
  -28.4270  -25.4810   20.7720 C   0  0  0  0  0  2  0  0  0  0  0  0
  -28.5210  -26.7960   20.2100 O   0  0  0  0  0  0  0  0  0  0  0  0
  -24.6170  -31.8870   23.2950 C   0  0  0  0  0  0  0  0  0  0  0  0
  -27.3480  -27.5160   20.2020 C   0  0  0  0  0  0  0  0  0  0  0  0
  -23.4510  -30.5000   21.6130 C   0  0  0  0  0  3  0  0  0  0  0  0
  -24.9410  -28.9930   20.1950 C   0  0  0  0  0  0  0  0  0  0  0  0
  -25.9750  -30.8850   21.4610 C   0  0  0  0  0  2  0  0  0  0  0  0
  -26.0840  -29.5250   20.8040 C   0  0  0  0  0  0  0  0  0  0  0  0
  -27.2950  -28.7950   20.8000 C   0  0  0  0  0  3  0  0  0  0  0  0
  -26.1870  -26.9950   19.5920 C   0  0  0  0  0  3  0  0  0  0  0  0
  -24.9860  -27.7280   19.5860 C   0  0  0  0  0  3  0  0  0  0  0  0
  -23.6890  -29.8390   20.2280 C   0  0  0  0  0  2  0  0  0  0  0  0
  -24.6990  -31.1040   22.1830 N   0  0  0  0  0  0  0  0  0  0  0  0
  -23.5250  -32.1450   23.8190 O   0  0  0  0  0  0  0  0  0  0  0  0
  -22.7910  -29.4610   22.5470 C   0  0  0  0  0  0  0  0  0  0  0  0
  -21.4750  -29.2510   22.3730 N   0  0  0  0  0  0  0  0  0  0  0  0
  -23.4590  -28.8460   23.3820 O   0  0  0  0  0  0  0  0  0  0  0  0
  -20.9980  -29.8000   21.6710 H   0  0  0  0  0  0  0  0  0  0  0  0
  -18.1110  -27.9920   22.7510 C   0  0  0  0  0  0  0  0  0  0  0  0
  -20.6520  -28.2940   23.1110 C   0  0  0  0  0  3  0  0  0  0  0  0
  -20.8010  -26.8690   22.5310 C   0  0  0  0  0  2  0  0  0  0  0  0
  -19.7400  -26.5320   21.4780 C   0  0  0  0  0  2  0  0  0  0  0  0
  -18.3350  -26.6490   22.0760 C   0  0  0  0  0  2  0  0  0  0  0  0
  -19.2000  -28.7720   23.2220 C   0  0  0  0  0  0  0  0  0  0  0  0
  -18.9390  -30.0280   23.8110 C   0  0  0  0  0  3  0  0  0  0  0  0
  -17.6200  -30.5060   23.9320 C   0  0  0  0  0  3  0  0  0  0  0  0
  -16.5450  -29.7230   23.4790 C   0  0  0  0  0  3  0  0  0  0  0  0
  -16.7910  -28.4670   22.8940 C   0  0  0  0  0  3  0  0  0  0  0  0
  -25.8880  -32.5180   23.9460 C   0  0  0  0  0  3  0  0  0  0  0  0
  -25.5920  -33.9300   24.2200 N   0  0  0  0  0  0  0  0  0  0  0  0
  -25.9790  -34.9510   23.4440 C   0  0  0  0  0  0  0  0  0  0  0  0
  -26.6950  -34.8030   22.4500 O   0  0  0  0  0  0  0  0  0  0  0  0
  -24.9660  -34.1210   24.9890 H   0  0  0  0  0  0  0  0  0  0  0  0
  -24.3190  -36.7680   22.9320 C   0  0  0  0  0  1  0  0  0  0  0  0
  -25.4960  -36.3610   23.8330 C   0  0  0  0  0  3  0  0  0  0  0  0
  -27.5830  -37.2320   24.7870 C   0  0  0  0  0  1  0  0  0  0  0  0
  -26.5580  -37.3890   23.7610 N   0  0  0  0  0  0  0  0  0  0  0  0
  -26.1630  -38.3210   23.8470 H   0  0  0  0  0  0  0  0  0  0  0  0
  -26.3440  -31.7770   25.2630 C   0  0  1  0  0  0  0  0  0  0  0  0
  -25.2060  -31.5770   26.2910 C   0  0  0  0  0  1  0  0  0  0  0  0
  -26.9290  -30.3840   24.9300 C   0  0  0  0  0  1  0  0  0  0  0  0
  -27.4770  -32.5760   25.9500 C   0  0  0  0  0  1  0  0  0  0  0  0
  -29.6100  -19.7220   20.0430 C   0  0  0  0  0  2  0  0  0  0  0  0
  -29.6900  -18.5470   20.9540 N   0  0  0  0  0  4  0  0  0  0  0  0
  -28.9680  -17.8820   20.7270 H   0  0  0  0  0  0  0  0  0  0  0  0
  -29.5340  -18.8640   21.8990 H   0  0  0  0  0  0  0  0  0  0  0  0
  -30.9900  -17.8340   20.9310 C   0  0  0  0  0  2  0  0  0  0  0  0
  -31.0340  -16.6240   21.8980 C   0  0  0  0  0  2  0  0  0  0  0  0
  -30.8390  -14.5870   20.4780 C   0  0  0  0  0  0  0  0  0  0  0  0
  -30.4410  -12.5660   19.1230 C   0  0  0  0  0  2  0  0  0  0  0  0
  -29.4570  -12.8670   17.9750 C   0  0  0  0  0  2  0  0  0  0  0  0
  -28.0010  -12.6990   18.4480 C   0  0  0  0  0  2  0  0  0  0  0  0
  -27.7150  -13.4400   19.7810 C   0  0  0  0  0  3  0  0  0  0  0  0
  -28.8070  -13.1280   20.8310 C   0  0  0  0  0  2  0  0  0  0  0  0
  -30.1180  -13.4600   20.2440 N   0  0  0  0  0  0  0  0  0  0  0  0
  -31.8770  -14.8640   19.8720 O   0  0  0  0  0  0  0  0  0  0  0  0
  -30.3430  -15.4240   21.4030 N   0  0  0  0  0  0  0  0  0  0  0  0
  -29.5000  -15.1290   21.8740 H   0  0  0  0  0  0  0  0  0  0  0  0
  -25.3240  -13.9960   20.5630 C   0  0  0  0  0  0  0  0  0  0  0  0
  -24.2760  -13.1980   20.9390 C   0  0  0  0  0  0  0  0  0  0  0  0
  -24.7570  -11.8550   20.8610 C   0  0  0  0  0  0  0  0  0  0  0  0
  -26.3770  -13.1360   20.2850 N   0  0  0  0  0  0  0  0  0  0  0  0
  -26.0400  -11.8420   20.5210 N   0  0  0  0  0  0  0  0  0  0  0  0
  -24.0540  -10.5770   21.0350 C   0  0  0  0  0  0  0  0  0  0  0  0
  -24.4890   -9.6170   21.9750 C   0  0  0  0  0  3  0  0  0  0  0  0
  -23.7850   -8.4050   22.1380 C   0  0  0  0  0  3  0  0  0  0  0  0
  -22.6320   -8.1420   21.3600 C   0  0  0  0  0  0  0  0  0  0  0  0
  -22.2170   -9.0920   20.4090 C   0  0  0  0  0  3  0  0  0  0  0  0
  -22.9210  -10.2970   20.2450 C   0  0  0  0  0  3  0  0  0  0  0  0
  -21.9010   -6.9820   21.4320 O   0  0  0  0  0  0  0  0  0  0  0  0
  -21.8140   -6.2570   22.5940 C   0  0  0  0  0  0  0  0  0  0  0  0
  -21.2620   -6.8040   23.7730 C   0  0  0  0  0  3  0  0  0  0  0  0
  -21.1260   -6.0010   24.9230 C   0  0  0  0  0  3  0  0  0  0  0  0
  -21.5330   -4.6530   24.8960 C   0  0  0  0  0  0  0  0  0  0  0  0
  -22.0780   -4.1070   23.7200 C   0  0  0  0  0  3  0  0  0  0  0  0
  -22.2140   -4.9060   22.5710 C   0  0  0  0  0  0  0  0  0  0  0  0
  -22.7200   -4.3690   21.4350 F   0  0  0  0  0  0  0  0  0  0  0  0
  -21.3960   -3.8800   25.9980 F   0  0  0  0  0  0  0  0  0  0  0  0
  -22.8810  -13.6470   21.2590 C   0  0  0  0  0  0  0  0  0  0  0  0
  -22.1850  -12.9160   22.1240 N   0  0  0  0  0  0  0  0  0  0  0  0
  -22.4150  -14.6800   20.7780 O   0  0  0  0  0  0  0  0  0  0  0  0
  -22.5770  -12.0820   22.5350 H   0  0  0  0  0  0  0  0  0  0  0  0
  -21.2490  -13.1960   22.3800 H   0  0  0  0  0  0  0  0  0  0  0  0
  -25.4620  -15.3730   20.4130 N   0  0  0  0  0  0  0  0  0  0  0  0
  -24.6800  -16.0050   20.5430 H   0  0  0  0  0  0  0  0  0  0  0  0
  -26.2830  -15.8250   20.0340 H   0  0  0  0  0  0  0  0  0  0  0  0
  1  3  1  0
  2  5  1  0
  2  4  1  0
  3 53  1  0
  4  3  1  0
  4  8  1  0
  5  1  1  0
  5  6  1  0
  7  5  1  0
  8  9  1  0
 10  8  1  0
 10 11  1  0
 12 11  1  0
 13 24  2  0
 14 12  1  0
 14 19  1  0
 15 23  1  0
 15 25  1  0
 16 22  1  0
 16 18  1  0
 17 23  1  0
 18 17  1  0
 19 18  2  0
 20 14  2  0
 21 20  1  0
 21 16  2  0
 22 15  1  0
 23 13  1  0
 25 27  2  0
 26 25  1  0
 28 26  1  0
 29 38  2  0
 29 34  1  0
 30 26  1  0
 30 34  1  0
 31 30  1  0
 32 33  1  0
 32 31  1  0
 33 29  1  0
 34 35  2  0
 35 36  1  0
 37 36  2  0
 38 37  1  0
 39 13  1  0
 39 40  1  0
 39 49  1  0
 40 43  1  0
 41 45  1  0
 41 40  1  0
 42 41  2  0
 45 44  1  0
 47 45  1  0
 47 48  1  0
 47 46  1  0
 49 52  1  1
 49 50  1  0
 51 49  1  0
 53 54  1  0
 54 56  1  0
 55 54  1  0
 57 54  1  0
 57 58  1  0
 59 67  1  0
 60 65  1  0
 61 62  1  0
 61 60  1  0
 63 62  1  0
 63 72  1  0
 63 64  1  0
 65 59  1  0
 65 64  1  0
 66 59  2  0
 67 68  1  0
 67 58  1  0
 69 70  2  0
 70 89  1  0
 71 70  1  0
 71 74  1  0
 72 73  1  0
 72 69  1  0
 73 71  2  0
 74 75  1  0
 75 76  2  0
 77 80  1  0
 77 76  1  0
 78 77  2  0
 79 78  1  0
 79 74  2  0
 80 81  1  0
 81 82  1  0
 82 83  2  0
 84 83  1  0
 84 88  1  0
 85 84  2  0
 86 81  2  0
 86 85  1  0
 87 86  1  0
 89 90  1  0
 90 93  1  0
 90 92  1  0
 91 89  2  0
 94 95  1  0
 94 69  1  0
 96 94  1  0
M  ISO  4  11 101  12 101  59 100  67 100
M  END
>  <TORSDO>  (9) 
F 23

>  <SCORE>  (9) 
-12.516

>  <name>  (9) 
8

>  <ligand_id>  (9) 
8

>  <original_smiles>  (9) 
[H]c1c([H])c([H])c2c(c1[H])C([H])([H])C([H])([H])C([H])([H])C2([H])N([H])C(=O)C1([H])N(C(=O)C([H])(N([H])C(=O)C([H])(N([H])C([H])([H])[H])C([H])([H])[H])C(C([H])([H])[H])(C([H])([H])[H])C([H])([H])[H])C([H])([H])c2c([H])c(OC([H])([H])C([H])([H])N([H])C3([H])C([H])(C([H])([H])[N+]([H])([H])C([H])([H])C([H])([H])N([H])C(=O)N4C([H])([H])C([H])([H])C([H])([H])C([H])(n5nc(-c6c([H])c([H])c(Oc7c([H])c([H])c(F)c([H])c7F)c([H])c6[H])c(C(=O)N([H])[H])c5N([H])[H])C4([H])[H])C([H])([H])[N+]([H])([H])C3([H])[H])c([H])c([H])c2C1([H])[H]

>  <smiles>  (9) 
[H]c1c([H])c([H])c2c(c1[H])C([H])([H])C([H])([H])C([H])([H])C2([H])N([H])C(=O)C1([H])N(C(=O)C([H])(N([H])C(=O)C([H])(N([H])C([H])([H])[H])C([H])([H])[H])C(C([H])([H])[H])(C([H])([H])[H])C([H])([H])[H])C([H])([H])c2c([H])c(OC([H])([H])C([H])([H])N([H])C3([H])C([H])(C([H])([H])[N+]([H])([H])C([H])([H])C([H])([H])N([H])C(=O)N4C([H])([H])C([H])([H])C([H])([H])C([H])(n5nc(-c6c([H])c([H])c(Oc7c([H])c([H])c(F)c([H])c7F)c([H])c6[H])c(C(=O)N([H])[H])c5N([H])[H])C4([H])[H])C([H])([H])[N+]([H])([H])C3([H])[H])c([H])c([H])c2C1([H])[H]

$$$$
9:0:0
     RDKit          3D

 93102  0  0  1  0  0  0  0  0999 V2000
  -29.3500  -22.0610   21.8500 C   0  0  0  0  0  2  0  0  0  0  0  0
  -30.1440  -21.9050   19.3930 C   0  0  0  0  0  2  0  0  0  0  0  0
  -29.1890  -23.5950   21.6600 C   0  0  0  0  0  2  0  0  0  0  0  0
  -29.9760  -23.4460   19.2870 C   0  0  0  0  0  2  0  0  0  0  0  0
  -30.3210  -21.3650   20.8410 C   0  0  0  0  0  3  0  0  0  0  0  0
  -28.8240  -23.8950   20.1990 C   0  0  0  0  0  3  0  0  0  0  0  0
  -30.6790  -14.5520   20.3930 C   0  0  0  0  0  0  0  0  0  0  0  0
  -30.3880  -12.3810   19.2390 C   0  0  0  0  0  2  0  0  0  0  0  0
  -29.4340  -12.5750   18.0410 C   0  0  0  0  0  2  0  0  0  0  0  0
  -27.9630  -12.4290   18.4810 C   0  0  0  0  0  2  0  0  0  0  0  0
  -27.6320  -13.2640   19.7460 C   0  0  0  0  0  3  0  0  0  0  0  0
  -28.6970  -13.0460   20.8460 C   0  0  0  0  0  2  0  0  0  0  0  0
  -30.0170  -13.3640   20.2720 N   0  0  0  0  0  0  0  0  0  0  0  0
  -31.8070  -14.7210   19.9190 O   0  0  0  0  0  0  0  0  0  0  0  0
  -28.9960  -19.1470   20.9030 C   0  0  0  0  0  3  0  0  0  0  0  0
  -28.9430  -17.7370   20.9320 C   0  0  0  0  0  3  0  0  0  0  0  0
  -30.2430  -19.8100   20.8770 C   0  0  0  0  0  0  0  0  0  0  0  0
  -31.3890  -18.9720   20.8550 C   0  0  0  0  0  0  0  0  0  0  0  0
  -30.1260  -16.9740   20.8990 C   0  0  0  0  0  0  0  0  0  0  0  0
  -32.7940  -19.5420   20.8070 C   0  0  0  0  0  1  0  0  0  0  0  0
  -31.3230  -17.6130   20.8660 N   0  0  0  0  0  0  0  0  0  0  0  0
  -29.9480  -15.5520   20.9380 N   0  0  0  0  0  0  0  0  0  0  0  0
  -29.0410  -15.2510   21.2500 H   0  0  0  0  0  0  0  0  0  0  0  0
  -25.2370  -13.8690   20.4730 C   0  0  0  0  0  0  0  0  0  0  0  0
  -24.1710  -13.0960   20.8470 C   0  0  0  0  0  0  0  0  0  0  0  0
  -24.6310  -11.7450   20.8070 C   0  0  0  0  0  0  0  0  0  0  0  0
  -26.2800  -12.9880   20.2320 N   0  0  0  0  0  0  0  0  0  0  0  0
  -25.9190  -11.7050   20.4890 N   0  0  0  0  0  0  0  0  0  0  0  0
  -23.9050  -10.4810   20.9960 C   0  0  0  0  0  0  0  0  0  0  0  0
  -24.3290   -9.5200   21.9390 C   0  0  0  0  0  3  0  0  0  0  0  0
  -23.6030   -8.3210   22.1140 C   0  0  0  0  0  3  0  0  0  0  0  0
  -22.4390   -8.0770   21.3470 C   0  0  0  0  0  0  0  0  0  0  0  0
  -22.0350   -9.0280   20.3940 C   0  0  0  0  0  3  0  0  0  0  0  0
  -22.7610  -10.2180   20.2160 C   0  0  0  0  0  3  0  0  0  0  0  0
  -21.6870   -6.9310   21.4320 O   0  0  0  0  0  0  0  0  0  0  0  0
  -21.5980   -6.2130   22.5980 C   0  0  0  0  0  0  0  0  0  0  0  0
  -21.0980   -6.7830   23.7880 C   0  0  0  0  0  3  0  0  0  0  0  0
  -20.9590   -5.9900   24.9450 C   0  0  0  0  0  3  0  0  0  0  0  0
  -21.3110   -4.6270   24.9120 C   0  0  0  0  0  0  0  0  0  0  0  0
  -21.8040   -4.0560   23.7240 C   0  0  0  0  0  3  0  0  0  0  0  0
  -21.9440   -4.8470   22.5700 C   0  0  0  0  0  0  0  0  0  0  0  0
  -22.4000   -4.2860   21.4240 F   0  0  0  0  0  0  0  0  0  0  0  0
  -21.1700   -3.8630   26.0200 F   0  0  0  0  0  0  0  0  0  0  0  0
  -22.7760  -13.5730   21.1310 C   0  0  0  0  0  0  0  0  0  0  0  0
  -22.0530  -12.8740   22.0000 N   0  0  0  0  0  0  0  0  0  0  0  0
  -22.3350  -14.6000   20.6180 O   0  0  0  0  0  0  0  0  0  0  0  0
  -22.4240  -12.0430   22.4370 H   0  0  0  0  0  0  0  0  0  0  0  0
  -21.1180  -13.1750   22.2330 H   0  0  0  0  0  0  0  0  0  0  0  0
  -25.4010  -15.2400   20.2960 N   0  0  0  0  0  0  0  0  0  0  0  0
  -24.6270  -15.8880   20.3960 H   0  0  0  0  0  0  0  0  0  0  0  0
  -26.2300  -15.6710   19.9060 H   0  0  0  0  0  0  0  0  0  0  0  0
  -28.0100  -25.1820   19.8460 C   0  0  0  0  0  2  0  0  0  0  0  0
  -28.3230  -26.5700   20.1730 O   0  0  0  0  0  0  0  0  0  0  0  0
  -24.6370  -31.9040   23.2710 C   0  0  0  0  0  0  0  0  0  0  0  0
  -27.2090  -27.4220   20.1210 C   0  0  0  0  0  0  0  0  0  0  0  0
  -23.4100  -30.5280   21.6310 C   0  0  0  0  0  3  0  0  0  0  0  0
  -24.8410  -29.0130   20.1690 C   0  0  0  0  0  0  0  0  0  0  0  0
  -25.9480  -30.8530   21.4260 C   0  0  0  0  0  2  0  0  0  0  0  0
  -26.0170  -29.4890   20.7620 C   0  0  0  0  0  0  0  0  0  0  0  0
  -27.2040  -28.7030   20.7410 C   0  0  0  0  0  3  0  0  0  0  0  0
  -26.0080  -27.0120   19.4800 C   0  0  0  0  0  3  0  0  0  0  0  0
  -24.8360  -27.7740   19.5240 C   0  0  0  0  0  3  0  0  0  0  0  0
  -23.6060  -29.8790   20.2390 C   0  0  0  0  0  2  0  0  0  0  0  0
  -24.6840  -31.1090   22.1660 N   0  0  0  0  0  0  0  0  0  0  0  0
  -23.5590  -32.1780   23.8200 O   0  0  0  0  0  0  0  0  0  0  0  0
  -22.7610  -29.4940   22.5810 C   0  0  0  0  0  0  0  0  0  0  0  0
  -21.4370  -29.3040   22.4500 N   0  0  0  0  0  0  0  0  0  0  0  0
  -23.4450  -28.8700   23.3960 O   0  0  0  0  0  0  0  0  0  0  0  0
  -20.9450  -29.8610   21.7650 H   0  0  0  0  0  0  0  0  0  0  0  0
  -18.0660  -28.0940   22.9450 C   0  0  0  0  0  0  0  0  0  0  0  0
  -20.6230  -28.3600   23.2170 C   0  0  0  0  0  3  0  0  0  0  0  0
  -20.7300  -26.9310   22.6360 C   0  0  0  0  0  2  0  0  0  0  0  0
  -19.6290  -26.6080   21.6210 C   0  0  0  0  0  2  0  0  0  0  0  0
  -18.2470  -26.7470   22.2650 C   0  0  0  0  0  2  0  0  0  0  0  0
  -19.1820  -28.8590   23.3780 C   0  0  0  0  0  0  0  0  0  0  0  0
  -18.9590  -30.1190   23.9720 C   0  0  0  0  0  3  0  0  0  0  0  0
  -17.6530  -30.6160   24.1390 C   0  0  0  0  0  3  0  0  0  0  0  0
  -16.5510  -29.8490   23.7230 C   0  0  0  0  0  3  0  0  0  0  0  0
  -16.7580  -28.5890   23.1320 C   0  0  0  0  0  3  0  0  0  0  0  0
  -25.9280  -32.5240   23.8840 C   0  0  0  0  0  3  0  0  0  0  0  0
  -25.6250  -33.9170   24.2380 N   0  0  0  0  0  0  0  0  0  0  0  0
  -25.9110  -34.9760   23.4690 C   0  0  0  0  0  0  0  0  0  0  0  0
  -26.5330  -34.8850   22.4070 O   0  0  0  0  0  0  0  0  0  0  0  0
  -25.0680  -34.0620   25.0660 H   0  0  0  0  0  0  0  0  0  0  0  0
  -24.1400  -36.7450   23.2230 C   0  0  0  0  0  1  0  0  0  0  0  0
  -25.4340  -36.3580   23.9570 C   0  0  0  0  0  3  0  0  0  0  0  0
  -27.5990  -37.2760   24.6620 C   0  0  0  0  0  1  0  0  0  0  0  0
  -26.4440  -37.4250   23.7820 N   0  0  0  0  0  0  0  0  0  0  0  0
  -26.0330  -38.3390   23.9500 H   0  0  0  0  0  0  0  0  0  0  0  0
  -26.4610  -31.7320   25.1400 C   0  0  1  0  0  0  0  0  0  0  0  0
  -25.3810  -31.4770   26.2170 C   0  0  0  0  0  1  0  0  0  0  0  0
  -27.0410  -30.3620   24.7190 C   0  0  0  0  0  1  0  0  0  0  0  0
  -27.6200  -32.5170   25.8000 C   0  0  0  0  0  1  0  0  0  0  0  0
  2  5  1  0
  3  1  1  0
  4  2  1  0
  4  6  1  0
  5 17  1  0
  5  1  1  0
  6 52  1  0
  6  3  1  0
  7 22  1  0
  8 13  1  0
  9 10  1  0
  9  8  1  0
 11 10  1  0
 11 27  1  0
 11 12  1  0
 13  7  1  0
 13 12  1  0
 14  7  2  0
 15 16  1  0
 17 15  2  0
 18 21  2  0
 18 17  1  0
 19 16  2  0
 19 22  1  0
 20 18  1  0
 21 19  1  0
 22 23  1  0
 24 25  2  0
 25 44  1  0
 26 25  1  0
 26 29  1  0
 27 24  1  0
 27 28  1  0
 28 26  2  0
 29 30  1  0
 30 31  2  0
 32 35  1  0
 32 31  1  0
 33 32  2  0
 34 33  1  0
 34 29  2  0
 35 36  1  0
 36 37  1  0
 37 38  2  0
 39 38  1  0
 39 43  1  0
 40 39  2  0
 41 36  2  0
 41 40  1  0
 42 41  1  0
 44 45  1  0
 45 48  1  0
 45 47  1  0
 46 44  2  0
 49 50  1  0
 49 24  1  0
 51 49  1  0
 52 53  1  0
 54 65  2  0
 55 53  1  0
 55 60  1  0
 56 64  1  0
 56 66  1  0
 57 63  1  0
 57 59  1  0
 58 64  1  0
 59 58  1  0
 60 59  2  0
 61 62  1  0
 61 55  2  0
 62 57  2  0
 63 56  1  0
 64 54  1  0
 66 68  2  0
 67 66  1  0
 69 67  1  0
 70 79  2  0
 70 75  1  0
 71 67  1  0
 71 75  1  0
 72 71  1  0
 73 74  1  0
 73 72  1  0
 74 70  1  0
 75 76  2  0
 76 77  1  0
 78 77  2  0
 79 78  1  0
 80 54  1  0
 80 81  1  0
 80 90  1  0
 81 84  1  0
 82 86  1  0
 82 81  1  0
 83 82  2  0
 86 85  1  0
 88 89  1  0
 88 86  1  0
 88 87  1  0
 90 93  1  1
 90 91  1  0
 92 90  1  0
M  ISO  4   7 100  22 100  52 101  53 101
M  END
>  <TORSDO>  (10) 
F 17

>  <SCORE>  (10) 
-15.197

>  <name>  (10) 
9

>  <ligand_id>  (10) 
9

>  <original_smiles>  (10) 
[H]c1c(N([H])C(=O)N2C([H])([H])C([H])([H])C([H])([H])C([H])(n3nc(-c4c([H])c([H])c(Oc5c([H])c([H])c(F)c([H])c5F)c([H])c4[H])c(C(=O)N([H])[H])c3N([H])[H])C2([H])[H])nc(C([H])([H])[H])c(C2([H])C([H])([H])C([H])([H])C([H])(C([H])([H])Oc3c([H])c([H])c4c(c3[H])C([H])([H])N(C(=O)C([H])(N([H])C(=O)C([H])(N([H])C([H])([H])[H])C([H])([H])[H])C(C([H])([H])[H])(C([H])([H])[H])C([H])([H])[H])C([H])(C(=O)N([H])C3([H])c5c([H])c([H])c([H])c([H])c5C([H])([H])C([H])([H])C3([H])[H])C4([H])[H])C([H])([H])C2([H])[H])c1[H]

>  <smiles>  (10) 
[H]c1c(N([H])C(=O)N2C([H])([H])C([H])([H])C([H])([H])C([H])(n3nc(-c4c([H])c([H])c(Oc5c([H])c([H])c(F)c([H])c5F)c([H])c4[H])c(C(=O)N([H])[H])c3N([H])[H])C2([H])[H])nc(C([H])([H])[H])c(C2([H])C([H])([H])C([H])([H])C([H])(C([H])([H])Oc3c([H])c([H])c4c(c3[H])C([H])([H])N(C(=O)C([H])(N([H])C(=O)C([H])(N([H])C([H])([H])[H])C([H])([H])[H])C(C([H])([H])[H])(C([H])([H])[H])C([H])([H])[H])C([H])(C(=O)N([H])C3([H])c5c([H])c([H])c([H])c([H])c5C([H])([H])C([H])([H])C3([H])[H])C4([H])[H])C([H])([H])C2([H])[H])c1[H]

$$$$
10:0:0
     RDKit          3D

 93102  0  0  1  0  0  0  0  0999 V2000
  -28.7930  -18.9060   20.7510 C   0  0  0  0  0  3  0  0  0  0  0  0
  -28.3350  -20.2440   20.9310 C   0  0  0  0  0  3  0  0  0  0  0  0
  -30.4010  -21.1000   20.0700 C   0  0  0  0  0  3  0  0  0  0  0  0
  -30.8750  -19.7610   19.8670 C   0  0  0  0  0  0  0  0  0  0  0  0
  -30.0600  -18.6210   20.1880 C   0  0  0  0  0  0  0  0  0  0  0  0
  -29.1070  -21.3830   20.5750 C   0  0  0  0  0  0  0  0  0  0  0  0
  -33.4230  -19.0700   19.9570 C   0  0  0  0  0  2  0  0  0  0  0  0
  -33.3910  -20.5080   19.5090 C   0  0  0  0  0  2  0  0  0  0  0  0
  -32.2220  -19.5970   19.2040 C   0  0  0  0  0  3  0  0  0  0  0  0
  -29.8540  -16.9540   18.3200 C   0  0  0  0  0  1  0  0  0  0  0  0
  -30.4610  -17.1640   19.7170 C   0  0  0  0  0  3  0  0  0  0  0  0
  -30.8750  -14.7510   20.3820 C   0  0  0  0  0  0  0  0  0  0  0  0
  -30.5860  -12.5140   19.3610 C   0  0  0  0  0  2  0  0  0  0  0  0
  -29.6620  -12.6760   18.1360 C   0  0  0  0  0  2  0  0  0  0  0  0
  -28.1830  -12.5390   18.5540 C   0  0  0  0  0  2  0  0  0  0  0  0
  -27.8280  -13.3890   19.8060 C   0  0  0  0  0  3  0  0  0  0  0  0
  -28.8900  -13.2520   20.9210 C   0  0  0  0  0  2  0  0  0  0  0  0
  -30.2000  -13.5590   20.3340 N   0  0  0  0  0  0  0  0  0  0  0  0
  -32.0590  -14.8150   20.0380 O   0  0  0  0  0  0  0  0  0  0  0  0
  -30.1460  -15.9120   20.5030 N   0  0  0  0  0  0  0  0  0  0  0  0
  -29.1940  -15.8140   20.8210 H   0  0  0  0  0  0  0  0  0  0  0  0
  -25.4400  -13.9710   20.5560 C   0  0  0  0  0  0  0  0  0  0  0  0
  -24.3730  -13.1950   20.9190 C   0  0  0  0  0  0  0  0  0  0  0  0
  -24.8310  -11.8430   20.8580 C   0  0  0  0  0  0  0  0  0  0  0  0
  -26.4800  -13.0940   20.2940 N   0  0  0  0  0  0  0  0  0  0  0  0
  -26.1190  -11.8060   20.5360 N   0  0  0  0  0  0  0  0  0  0  0  0
  -24.0980  -10.5780   21.0290 C   0  0  0  0  0  0  0  0  0  0  0  0
  -24.5210   -9.5980   21.9540 C   0  0  0  0  0  3  0  0  0  0  0  0
  -23.7900   -8.4000   22.1140 C   0  0  0  0  0  3  0  0  0  0  0  0
  -22.6210   -8.1760   21.3480 C   0  0  0  0  0  0  0  0  0  0  0  0
  -22.2170   -9.1440   20.4140 C   0  0  0  0  0  3  0  0  0  0  0  0
  -22.9490  -10.3340   20.2510 C   0  0  0  0  0  3  0  0  0  0  0  0
  -21.8620   -7.0320   21.4170 O   0  0  0  0  0  0  0  0  0  0  0  0
  -21.7870   -6.2840   22.5630 C   0  0  0  0  0  0  0  0  0  0  0  0
  -21.3000   -6.8240   23.7750 C   0  0  0  0  0  3  0  0  0  0  0  0
  -21.1750   -6.0030   24.9120 C   0  0  0  0  0  3  0  0  0  0  0  0
  -21.5260   -4.6410   24.8420 C   0  0  0  0  0  0  0  0  0  0  0  0
  -22.0030   -4.0980   23.6350 C   0  0  0  0  0  3  0  0  0  0  0  0
  -22.1320   -4.9180   22.4990 C   0  0  0  0  0  0  0  0  0  0  0  0
  -22.5740   -4.3860   21.3340 F   0  0  0  0  0  0  0  0  0  0  0  0
  -21.4000   -3.8500   25.9330 F   0  0  0  0  0  0  0  0  0  0  0  0
  -22.9790  -13.6720   21.2110 C   0  0  0  0  0  0  0  0  0  0  0  0
  -22.2490  -12.9630   22.0660 N   0  0  0  0  0  0  0  0  0  0  0  0
  -22.5420  -14.7100   20.7130 O   0  0  0  0  0  0  0  0  0  0  0  0
  -22.6100  -12.1250   22.4980 H   0  0  0  0  0  0  0  0  0  0  0  0
  -21.3140  -13.2700   22.2950 H   0  0  0  0  0  0  0  0  0  0  0  0
  -25.6120  -15.3460   20.4050 N   0  0  0  0  0  0  0  0  0  0  0  0
  -24.8590  -16.0110   20.5310 H   0  0  0  0  0  0  0  0  0  0  0  0
  -26.4570  -15.7740   20.0500 H   0  0  0  0  0  0  0  0  0  0  0  0
  -28.5130  -22.6600   20.7030 O   0  0  0  0  0  0  0  0  0  0  0  0
  -29.1750  -23.9480   20.4600 C   0  0  0  0  0  2  0  0  0  0  0  0
  -28.1570  -25.0940   20.0200 C   0  0  0  0  0  2  0  0  0  0  0  0
  -28.3940  -26.5450   20.2480 O   0  0  0  0  0  0  0  0  0  0  0  0
  -24.5890  -31.8990   23.2540 C   0  0  0  0  0  0  0  0  0  0  0  0
  -27.2780  -27.4020   20.1750 C   0  0  0  0  0  0  0  0  0  0  0  0
  -23.4170  -30.5140   21.5800 C   0  0  0  0  0  3  0  0  0  0  0  0
  -24.9000  -29.0030   20.1460 C   0  0  0  0  0  0  0  0  0  0  0  0
  -25.9580  -30.8520   21.4390 C   0  0  0  0  0  2  0  0  0  0  0  0
  -26.0550  -29.4860   20.7740 C   0  0  0  0  0  0  0  0  0  0  0  0
  -27.2450  -28.6960   20.7820 C   0  0  0  0  0  3  0  0  0  0  0  0
  -26.1000  -26.9850   19.5080 C   0  0  0  0  0  3  0  0  0  0  0  0
  -24.9280  -27.7600   19.4990 C   0  0  0  0  0  3  0  0  0  0  0  0
  -23.6530  -29.8640   20.1920 C   0  0  0  0  0  2  0  0  0  0  0  0
  -24.6720  -31.1050   22.1470 N   0  0  0  0  0  0  0  0  0  0  0  0
  -23.4950  -32.1630   23.7770 O   0  0  0  0  0  0  0  0  0  0  0  0
  -22.7480  -29.4780   22.5170 C   0  0  0  0  0  0  0  0  0  0  0  0
  -21.4250  -29.2970   22.3710 N   0  0  0  0  0  0  0  0  0  0  0  0
  -23.4190  -28.8440   23.3330 O   0  0  0  0  0  0  0  0  0  0  0  0
  -20.9400  -29.8660   21.6920 H   0  0  0  0  0  0  0  0  0  0  0  0
  -18.0420  -28.1000   22.8350 C   0  0  0  0  0  0  0  0  0  0  0  0
  -20.6010  -28.3470   23.1200 C   0  0  0  0  0  3  0  0  0  0  0  0
  -20.6990  -26.9260   22.5180 C   0  0  0  0  0  2  0  0  0  0  0  0
  -19.6020  -26.6270   21.4920 C   0  0  0  0  0  2  0  0  0  0  0  0
  -18.2170  -26.7630   22.1320 C   0  0  0  0  0  2  0  0  0  0  0  0
  -19.1620  -28.8500   23.2830 C   0  0  0  0  0  0  0  0  0  0  0  0
  -18.9440  -30.1010   23.9010 C   0  0  0  0  0  3  0  0  0  0  0  0
  -17.6400  -30.6020   24.0730 C   0  0  0  0  0  3  0  0  0  0  0  0
  -16.5350  -29.8500   23.6390 C   0  0  0  0  0  3  0  0  0  0  0  0
  -16.7370  -28.6010   23.0260 C   0  0  0  0  0  3  0  0  0  0  0  0
  -25.8570  -32.5310   23.9030 C   0  0  0  0  0  3  0  0  0  0  0  0
  -25.5420  -33.9330   24.2190 N   0  0  0  0  0  0  0  0  0  0  0  0
  -25.8910  -34.9810   23.4620 C   0  0  0  0  0  0  0  0  0  0  0  0
  -26.5790  -34.8740   22.4440 O   0  0  0  0  0  0  0  0  0  0  0  0
  -24.9280  -34.0900   25.0040 H   0  0  0  0  0  0  0  0  0  0  0  0
  -24.1850  -36.7860   23.0570 C   0  0  0  0  0  1  0  0  0  0  0  0
  -25.3970  -36.3730   23.9050 C   0  0  0  0  0  3  0  0  0  0  0  0
  -27.5050  -37.2540   24.8040 C   0  0  0  0  0  1  0  0  0  0  0  0
  -26.4380  -37.4210   23.8220 N   0  0  0  0  0  0  0  0  0  0  0  0
  -26.0310  -38.3450   23.9480 H   0  0  0  0  0  0  0  0  0  0  0  0
  -26.3460  -31.7650   25.1950 C   0  0  1  0  0  0  0  0  0  0  0  0
  -25.2300  -31.5290   26.2380 C   0  0  0  0  0  1  0  0  0  0  0  0
  -26.9390  -30.3850   24.8260 C   0  0  0  0  0  1  0  0  0  0  0  0
  -27.4770  -32.5650   25.8810 C   0  0  0  0  0  1  0  0  0  0  0  0
  1  2  1  0
  3  6  1  0
  4  3  2  0
  4  5  1  0
  5  1  2  0
  6 50  1  0
  6  2  2  0
  8  7  1  0
  9  8  1  0
  9  4  1  0
  9  7  1  0
 11 10  1  0
 11  5  1  0
 11 20  1  0
 12 20  1  0
 13 18  1  0
 14 15  1  0
 14 13  1  0
 16 15  1  0
 16 25  1  0
 16 17  1  0
 18 12  1  0
 18 17  1  0
 19 12  2  0
 20 21  1  0
 22 23  2  0
 23 42  1  0
 24 23  1  0
 24 27  1  0
 25 26  1  0
 25 22  1  0
 26 24  2  0
 27 28  1  0
 28 29  2  0
 30 33  1  0
 30 29  1  0
 31 30  2  0
 32 31  1  0
 32 27  2  0
 33 34  1  0
 34 35  1  0
 35 36  2  0
 37 36  1  0
 37 41  1  0
 38 37  2  0
 39 34  2  0
 39 38  1  0
 40 39  1  0
 42 43  1  0
 43 46  1  0
 43 45  1  0
 44 42  2  0
 47 48  1  0
 47 22  1  0
 49 47  1  0
 51 50  1  0
 52 53  1  0
 52 51  1  0
 54 65  2  0
 55 53  1  0
 55 60  1  0
 56 64  1  0
 56 66  1  0
 57 63  1  0
 57 59  1  0
 58 64  1  0
 59 60  2  0
 59 58  1  0
 61 55  2  0
 62 61  1  0
 62 57  2  0
 63 56  1  0
 64 54  1  0
 66 68  2  0
 67 66  1  0
 69 67  1  0
 70 79  2  0
 70 75  1  0
 71 67  1  0
 71 75  1  0
 72 71  1  0
 73 74  1  0
 73 72  1  0
 74 70  1  0
 75 76  2  0
 76 77  1  0
 78 77  2  0
 79 78  1  0
 80 54  1  0
 80 81  1  0
 80 90  1  0
 81 84  1  0
 82 86  1  0
 82 81  1  0
 83 82  2  0
 86 85  1  0
 88 86  1  0
 88 89  1  0
 88 87  1  0
 90 93  1  1
 90 91  1  0
 92 90  1  0
M  ISO  4  12 100  20 100  52 101  53 101
M  END
>  <TORSDO>  (11) 
F 21

>  <SCORE>  (11) 
-13.096

>  <name>  (11) 
10

>  <ligand_id>  (11) 
10

>  <original_smiles>  (11) 
[H]c1c([H])c([H])c2c(c1[H])C([H])([H])C([H])([H])C([H])([H])C2([H])N([H])C(=O)C1([H])N(C(=O)C([H])(N([H])C(=O)C([H])(N([H])C([H])([H])[H])C([H])([H])[H])C(C([H])([H])[H])(C([H])([H])[H])C([H])([H])[H])C([H])([H])c2c([H])c(OC([H])([H])C([H])([H])Oc3c([H])c([H])c(C([H])(N([H])C(=O)N4C([H])([H])C([H])([H])C([H])([H])C([H])(n5nc(-c6c([H])c([H])c(Oc7c([H])c([H])c(F)c([H])c7F)c([H])c6[H])c(C(=O)N([H])[H])c5N([H])[H])C4([H])[H])C([H])([H])[H])c(C4([H])C([H])([H])C4([H])[H])c3[H])c([H])c([H])c2C1([H])[H]

>  <smiles>  (11) 
[H]c1c([H])c([H])c2c(c1[H])C([H])([H])C([H])([H])C([H])([H])C2([H])N([H])C(=O)C1([H])N(C(=O)C([H])(N([H])C(=O)C([H])(N([H])C([H])([H])[H])C([H])([H])[H])C(C([H])([H])[H])(C([H])([H])[H])C([H])([H])[H])C([H])([H])c2c([H])c(OC([H])([H])C([H])([H])Oc3c([H])c([H])c(C([H])(N([H])C(=O)N4C([H])([H])C([H])([H])C([H])([H])C([H])(n5nc(-c6c([H])c([H])c(Oc7c([H])c([H])c(F)c([H])c7F)c([H])c6[H])c(C(=O)N([H])[H])c5N([H])[H])C4([H])[H])C([H])([H])[H])c(C4([H])C([H])([H])C4([H])[H])c3[H])c([H])c([H])c2C1([H])[H]

$$$$
11:0:0
     RDKit          3D

 92101  0  0  1  0  0  0  0  0999 V2000
  -30.6110  -14.7780   20.4840 C   0  0  0  0  0  0  0  0  0  0  0  0
  -30.3920  -12.4940   19.4730 C   0  0  0  0  0  2  0  0  0  0  0  0
  -29.4840  -12.5610   18.2250 C   0  0  0  0  0  2  0  0  0  0  0  0
  -28.0080  -12.3860   18.6290 C   0  0  0  0  0  2  0  0  0  0  0  0
  -27.6110  -13.2850   19.8300 C   0  0  0  0  0  3  0  0  0  0  0  0
  -28.6470  -13.2200   20.9730 C   0  0  0  0  0  2  0  0  0  0  0  0
  -29.9560  -13.5640   20.4040 N   0  0  0  0  0  0  0  0  0  0  0  0
  -31.7800  -14.8550   20.0870 O   0  0  0  0  0  0  0  0  0  0  0  0
  -28.0830  -18.1520   18.6200 C   0  0  0  0  0  3  0  0  0  0  0  0
  -28.7240  -17.0330   19.1870 C   0  0  0  0  0  3  0  0  0  0  0  0
  -28.2740  -19.4360   19.1670 C   0  0  0  0  0  0  0  0  0  0  0  0
  -29.1460  -19.5880   20.2610 C   0  0  0  0  0  0  0  0  0  0  0  0
  -29.5310  -17.1600   20.3360 C   0  0  0  0  0  0  0  0  0  0  0  0
  -27.5510  -20.6420   18.5650 C   0  0  0  0  0  2  0  0  0  0  0  0
  -29.3870  -21.0650   20.8150 C   0  0  0  0  0  2  0  0  0  0  0  0
  -27.4800  -21.8810   19.4900 C   0  0  0  0  0  2  0  0  0  0  0  0
  -29.7240  -18.4520   20.8390 N   0  0  0  0  0  0  0  0  0  0  0  0
  -29.9720  -15.9020   20.9870 N   0  0  0  0  0  0  0  0  0  0  0  0
  -28.8310  -22.2410   19.9870 N   0  0  1  0  0  4  0  0  0  0  0  0
  -30.2680  -16.0580   21.9380 H   0  0  0  0  0  0  0  0  0  0  0  0
  -29.3930  -22.2140   19.1480 H   0  0  0  0  0  0  0  0  0  0  0  0
  -25.2120  -13.8980   20.4930 C   0  0  0  0  0  0  0  0  0  0  0  0
  -24.1360  -13.1310   20.8480 C   0  0  0  0  0  0  0  0  0  0  0  0
  -24.5960  -11.7780   20.8480 C   0  0  0  0  0  0  0  0  0  0  0  0
  -26.2580  -13.0100   20.2950 N   0  0  0  0  0  0  0  0  0  0  0  0
  -25.8930  -11.7320   20.5710 N   0  0  0  0  0  0  0  0  0  0  0  0
  -23.8630  -10.5200   21.0340 C   0  0  0  0  0  0  0  0  0  0  0  0
  -24.2790   -9.5560   21.9780 C   0  0  0  0  0  3  0  0  0  0  0  0
  -23.5440   -8.3650   22.1570 C   0  0  0  0  0  3  0  0  0  0  0  0
  -22.3790   -8.1270   21.3890 C   0  0  0  0  0  0  0  0  0  0  0  0
  -21.9830   -9.0790   20.4340 C   0  0  0  0  0  3  0  0  0  0  0  0
  -22.7180  -10.2620   20.2540 C   0  0  0  0  0  3  0  0  0  0  0  0
  -21.6180   -6.9860   21.4740 O   0  0  0  0  0  0  0  0  0  0  0  0
  -21.5550   -6.2490   22.6290 C   0  0  0  0  0  0  0  0  0  0  0  0
  -21.1220   -6.8120   23.8490 C   0  0  0  0  0  3  0  0  0  0  0  0
  -21.0060   -6.0020   24.9960 C   0  0  0  0  0  3  0  0  0  0  0  0
  -21.3110   -4.6290   24.9230 C   0  0  0  0  0  0  0  0  0  0  0  0
  -21.7360   -4.0660   23.7070 C   0  0  0  0  0  3  0  0  0  0  0  0
  -21.8550   -4.8730   22.5620 C   0  0  0  0  0  0  0  0  0  0  0  0
  -22.2440   -4.3210   21.3880 F   0  0  0  0  0  0  0  0  0  0  0  0
  -21.1920   -3.8490   26.0230 F   0  0  0  0  0  0  0  0  0  0  0  0
  -22.7350  -13.6150   21.0810 C   0  0  0  0  0  0  0  0  0  0  0  0
  -21.9870  -12.9320   21.9420 N   0  0  0  0  0  0  0  0  0  0  0  0
  -22.3130  -14.6310   20.5330 O   0  0  0  0  0  0  0  0  0  0  0  0
  -22.3380  -12.1050   22.4030 H   0  0  0  0  0  0  0  0  0  0  0  0
  -21.0470  -13.2450   22.1450 H   0  0  0  0  0  0  0  0  0  0  0  0
  -25.3880  -15.2660   20.3030 N   0  0  0  0  0  0  0  0  0  0  0  0
  -24.6260  -15.9290   20.3850 H   0  0  0  0  0  0  0  0  0  0  0  0
  -26.2550  -15.6970   20.0090 H   0  0  0  0  0  0  0  0  0  0  0  0
  -28.9950  -23.6950   20.5260 C   0  0  0  0  0  3  0  0  0  0  0  0
  -28.1290  -24.9200   19.8940 C   0  0  0  0  0  3  0  0  0  0  0  0
  -28.3280  -26.3780   20.2480 O   0  0  0  0  0  0  0  0  0  0  0  0
  -24.6230  -31.8710   23.2440 C   0  0  0  0  0  0  0  0  0  0  0  0
  -27.2380  -27.2840   20.1650 C   0  0  0  0  0  0  0  0  0  0  0  0
  -23.4290  -30.4850   21.5910 C   0  0  0  0  0  3  0  0  0  0  0  0
  -24.8850  -28.9470   20.1540 C   0  0  0  0  0  0  0  0  0  0  0  0
  -25.9740  -30.7870   21.4300 C   0  0  0  0  0  2  0  0  0  0  0  0
  -26.0530  -29.4100   20.7700 C   0  0  0  0  0  0  0  0  0  0  0  0
  -27.2280  -28.5890   20.7700 C   0  0  0  0  0  3  0  0  0  0  0  0
  -26.0510  -26.9090   19.4930 C   0  0  0  0  0  3  0  0  0  0  0  0
  -24.8900  -27.7060   19.5020 C   0  0  0  0  0  3  0  0  0  0  0  0
  -23.6520  -29.8250   20.2060 C   0  0  0  0  0  2  0  0  0  0  0  0
  -24.6950  -31.0660   22.1440 N   0  0  0  0  0  0  0  0  0  0  0  0
  -23.5350  -32.1420   23.7730 O   0  0  0  0  0  0  0  0  0  0  0  0
  -22.7620  -29.4600   22.5420 C   0  0  0  0  0  0  0  0  0  0  0  0
  -21.4340  -29.2920   22.4190 N   0  0  0  0  0  0  0  0  0  0  0  0
  -23.4390  -28.8200   23.3520 O   0  0  0  0  0  0  0  0  0  0  0  0
  -20.9460  -29.8670   21.7460 H   0  0  0  0  0  0  0  0  0  0  0  0
  -18.0540  -28.1000   22.9130 C   0  0  0  0  0  0  0  0  0  0  0  0
  -20.6140  -28.3460   23.1780 C   0  0  0  0  0  3  0  0  0  0  0  0
  -20.7090  -26.9200   22.5870 C   0  0  0  0  0  2  0  0  0  0  0  0
  -19.6030  -26.6110   21.5740 C   0  0  0  0  0  2  0  0  0  0  0  0
  -18.2230  -26.7560   22.2230 C   0  0  0  0  0  2  0  0  0  0  0  0
  -19.1760  -28.8530   23.3490 C   0  0  0  0  0  0  0  0  0  0  0  0
  -18.9640  -30.1090   23.9540 C   0  0  0  0  0  3  0  0  0  0  0  0
  -17.6600  -30.6140   24.1280 C   0  0  0  0  0  3  0  0  0  0  0  0
  -16.5510  -29.8580   23.7090 C   0  0  0  0  0  3  0  0  0  0  0  0
  -16.7500  -28.6030   23.1070 C   0  0  0  0  0  3  0  0  0  0  0  0
  -25.9000  -32.5010   23.8780 C   0  0  0  0  0  3  0  0  0  0  0  0
  -25.5880  -33.9000   24.2050 N   0  0  0  0  0  0  0  0  0  0  0  0
  -25.9180  -34.9520   23.4460 C   0  0  0  0  0  0  0  0  0  0  0  0
  -26.5870  -34.8460   22.4130 O   0  0  0  0  0  0  0  0  0  0  0  0
  -24.9930  -34.0530   25.0050 H   0  0  0  0  0  0  0  0  0  0  0  0
  -24.1820  -36.7410   23.1020 C   0  0  0  0  0  1  0  0  0  0  0  0
  -25.4320  -36.3430   23.9020 C   0  0  0  0  0  3  0  0  0  0  0  0
  -27.5740  -37.2380   24.7050 C   0  0  0  0  0  1  0  0  0  0  0  0
  -26.4620  -37.3970   23.7720 N   0  0  0  0  0  0  0  0  0  0  0  0
  -26.0560  -38.3180   23.9160 H   0  0  0  0  0  0  0  0  0  0  0  0
  -26.3990  -31.7310   25.1630 C   0  0  1  0  0  0  0  0  0  0  0  0
  -25.2960  -31.5010   26.2220 C   0  0  0  0  0  1  0  0  0  0  0  0
  -26.9810  -30.3510   24.7810 C   0  0  0  0  0  1  0  0  0  0  0  0
  -27.5480  -32.5220   25.8310 C   0  0  0  0  0  1  0  0  0  0  0  0
  1 18  1  0
  2  7  1  0
  3  4  1  0
  3  2  1  0
  5  4  1  0
  5 25  1  0
  5  6  1  0
  7  1  1  0
  7  6  1  0
  8  1  2  0
  9 11  2  0
  9 10  1  0
 10 13  2  0
 11 12  1  0
 12 15  1  0
 12 17  2  0
 13 17  1  0
 13 18  1  0
 14 11  1  0
 14 16  1  0
 16 19  1  0
 18 20  1  0
 19 50  1  0
 19 15  1  0
 19 21  1  6
 22 23  2  0
 23 42  1  0
 24 23  1  0
 24 27  1  0
 25 22  1  0
 25 26  1  0
 26 24  2  0
 27 28  1  0
 28 29  2  0
 30 33  1  0
 30 29  1  0
 31 30  2  0
 32 31  1  0
 32 27  2  0
 33 34  1  0
 34 35  1  0
 35 36  2  0
 37 36  1  0
 37 41  1  0
 38 37  2  0
 39 34  2  0
 39 38  1  0
 40 39  1  0
 42 43  1  0
 43 46  1  0
 43 45  1  0
 44 42  2  0
 47 48  1  0
 47 22  1  0
 49 47  1  0
 51 52  1  0
 51 50  2  0
 53 64  2  0
 54 52  1  0
 54 59  1  0
 55 63  1  0
 55 65  1  0
 56 62  1  0
 56 58  1  0
 57 63  1  0
 58 57  1  0
 59 58  2  0
 60 61  1  0
 60 54  2  0
 61 56  2  0
 62 55  1  0
 63 53  1  0
 65 67  2  0
 66 65  1  0
 68 66  1  0
 69 78  2  0
 69 74  1  0
 70 66  1  0
 70 74  1  0
 71 70  1  0
 72 73  1  0
 72 71  1  0
 73 69  1  0
 74 75  2  0
 75 76  1  0
 77 76  2  0
 78 77  1  0
 79 53  1  0
 79 80  1  0
 79 89  1  0
 80 83  1  0
 81 85  1  0
 81 80  1  0
 82 81  2  0
 85 84  1  0
 87 85  1  0
 87 88  1  0
 87 86  1  0
 89 92  1  1
 89 90  1  0
 91 89  1  0
M  ISO  4   1 100  18 100  51 101  52 101
M  END
>  <TORSDO>  (12) 
F 17

>  <SCORE>  (12) 
-15.471

>  <name>  (12) 
11

>  <ligand_id>  (12) 
11

>  <original_smiles>  (12) 
[H]c1c(N([H])C(=O)N2C([H])([H])C([H])([H])C([H])([H])C([H])(n3nc(-c4c([H])c([H])c(Oc5c([H])c([H])c(F)c([H])c5F)c([H])c4[H])c(C(=O)N([H])[H])c3N([H])[H])C2([H])[H])nc2c(c1[H])C([H])([H])C([H])([H])[N+]([H])(C([H])([H])C([H])([H])Oc1c([H])c([H])c3c(c1[H])C([H])([H])N(C(=O)C([H])(N([H])C(=O)C([H])(N([H])C([H])([H])[H])C([H])([H])[H])C(C([H])([H])[H])(C([H])([H])[H])C([H])([H])[H])C([H])(C(=O)N([H])C1([H])c4c([H])c([H])c([H])c([H])c4C([H])([H])C([H])([H])C1([H])[H])C3([H])[H])C2([H])[H]

>  <smiles>  (12) 
[H]c1c(N([H])C(=O)N2C([H])([H])C([H])([H])C([H])([H])C([H])(n3nc(-c4c([H])c([H])c(Oc5c([H])c([H])c(F)c([H])c5F)c([H])c4[H])c(C(=O)N([H])[H])c3N([H])[H])C2([H])[H])nc2c(c1[H])C([H])([H])C([H])([H])[N+]([H])(C([H])([H])C([H])([H])Oc1c([H])c([H])c3c(c1[H])C([H])([H])N(C(=O)C([H])(N([H])C(=O)C([H])(N([H])C([H])([H])[H])C([H])([H])[H])C(C([H])([H])[H])(C([H])([H])[H])C([H])([H])[H])C([H])(C(=O)N([H])C1([H])c4c([H])c([H])c([H])c([H])c4C([H])([H])C([H])([H])C1([H])[H])C3([H])[H])C2([H])[H]

$$$$
12:0:0
     RDKit          3D

 88 96  0  0  1  0  0  0  0  0999 V2000
  -30.5040  -20.6120   19.6040 C   0  0  0  0  0  3  0  0  0  0  0  0
  -30.6780  -19.1390   19.6850 C   0  0  0  0  0  3  0  0  0  0  0  0
  -28.4210  -18.9510   20.1040 C   0  0  0  0  0  3  0  0  0  0  0  0
  -29.2860  -21.4050   19.7730 C   0  0  0  0  0  0  0  0  0  0  0  0
  -28.2410  -20.4280   20.0370 C   0  0  0  0  0  0  0  0  0  0  0  0
  -29.6430  -18.1600   19.9570 C   0  0  0  0  0  0  0  0  0  0  0  0
  -26.8520  -20.9800   20.2960 C   0  0  0  0  0  1  0  0  0  0  0  0
  -30.5080  -15.3650   19.8860 C   0  0  0  0  0  0  0  0  0  0  0  0
  -30.4460  -12.9200   19.0550 C   0  0  0  0  0  2  0  0  0  0  0  0
  -29.4700  -12.7440   17.8630 C   0  0  0  0  0  2  0  0  0  0  0  0
  -28.0340  -12.5030   18.3650 C   0  0  0  0  0  2  0  0  0  0  0  0
  -27.6450  -13.4950   19.4910 C   0  0  0  0  0  3  0  0  0  0  0  0
  -28.7340  -13.6050   20.5780 C   0  0  0  0  0  2  0  0  0  0  0  0
  -29.9600  -14.0610   19.9040 N   0  0  0  0  0  0  0  0  0  0  0  0
  -31.7060  -15.4080   19.5720 O   0  0  0  0  0  0  0  0  0  0  0  0
  -29.6740  -16.5580   20.0580 N   0  0  0  0  0  0  0  0  0  0  0  0
  -28.7660  -16.2180   20.3360 H   0  0  0  0  0  0  0  0  0  0  0  0
  -25.3240  -14.1180   20.3520 C   0  0  0  0  0  0  0  0  0  0  0  0
  -24.2570  -13.3670   20.7580 C   0  0  0  0  0  0  0  0  0  0  0  0
  -24.6820  -12.0040   20.6850 C   0  0  0  0  0  0  0  0  0  0  0  0
  -26.3280  -13.2160   20.0490 N   0  0  0  0  0  0  0  0  0  0  0  0
  -25.9560  -11.9380   20.3180 N   0  0  0  0  0  0  0  0  0  0  0  0
  -23.9280  -10.7600   20.8870 C   0  0  0  0  0  0  0  0  0  0  0  0
  -24.3580   -9.7730   21.8000 C   0  0  0  0  0  3  0  0  0  0  0  0
  -23.6040   -8.5950   21.9920 C   0  0  0  0  0  3  0  0  0  0  0  0
  -22.4050   -8.3940   21.2670 C   0  0  0  0  0  0  0  0  0  0  0  0
  -21.9910   -9.3700   20.3420 C   0  0  0  0  0  3  0  0  0  0  0  0
  -22.7470  -10.5390   20.1500 C   0  0  0  0  0  3  0  0  0  0  0  0
  -21.6220   -7.2700   21.3670 O   0  0  0  0  0  0  0  0  0  0  0  0
  -21.5800   -6.5210   22.5170 C   0  0  0  0  0  0  0  0  0  0  0  0
  -21.1840   -7.0750   23.7530 C   0  0  0  0  0  3  0  0  0  0  0  0
  -21.0890   -6.2550   24.8950 C   0  0  0  0  0  3  0  0  0  0  0  0
  -21.3820   -4.8810   24.8010 C   0  0  0  0  0  0  0  0  0  0  0  0
  -21.7740   -4.3270   23.5700 C   0  0  0  0  0  3  0  0  0  0  0  0
  -21.8700   -5.1440   22.4300 C   0  0  0  0  0  0  0  0  0  0  0  0
  -22.2280   -4.6010   21.2420 F   0  0  0  0  0  0  0  0  0  0  0  0
  -21.2850   -4.0910   25.8950 F   0  0  0  0  0  0  0  0  0  0  0  0
  -22.8860  -13.8790   21.0920 C   0  0  0  0  0  0  0  0  0  0  0  0
  -22.1750  -13.1930   21.9800 N   0  0  0  0  0  0  0  0  0  0  0  0
  -22.4580  -14.9230   20.6020 O   0  0  0  0  0  0  0  0  0  0  0  0
  -22.5330  -12.3470   22.3980 H   0  0  0  0  0  0  0  0  0  0  0  0
  -21.2580  -13.5210   22.2460 H   0  0  0  0  0  0  0  0  0  0  0  0
  -25.5160  -15.4860   20.1850 N   0  0  0  0  0  0  0  0  0  0  0  0
  -24.7620  -16.1510   20.3200 H   0  0  0  0  0  0  0  0  0  0  0  0
  -26.3370  -15.9010   19.7650 H   0  0  0  0  0  0  0  0  0  0  0  0
  -29.2620  -23.1400   19.9010 C   0  0  0  0  0  3  0  0  0  0  0  0
  -28.2280  -24.5020   19.4350 C   0  0  0  0  0  3  0  0  0  0  0  0
  -28.3690  -26.1040   19.7160 O   0  0  0  0  0  0  0  0  0  0  0  0
  -24.5580  -31.6770   22.9960 C   0  0  0  0  0  0  0  0  0  0  0  0
  -27.2980  -27.1250   19.7040 C   0  0  0  0  0  0  0  0  0  0  0  0
  -23.4120  -30.3280   21.2840 C   0  0  0  0  0  3  0  0  0  0  0  0
  -24.9160  -28.8700   19.7690 C   0  0  0  0  0  0  0  0  0  0  0  0
  -25.9620  -30.6640   21.1390 C   0  0  0  0  0  2  0  0  0  0  0  0
  -26.0870  -29.3020   20.4040 C   0  0  0  0  0  0  0  0  0  0  0  0
  -27.2730  -28.4500   20.3480 C   0  0  0  0  0  3  0  0  0  0  0  0
  -26.0920  -26.8310   19.0300 C   0  0  0  0  0  3  0  0  0  0  0  0
  -24.9380  -27.6560   19.0640 C   0  0  0  0  0  3  0  0  0  0  0  0
  -23.6610  -29.7340   19.8700 C   0  0  0  0  0  2  0  0  0  0  0  0
  -24.6640  -30.9150   21.8600 N   0  0  0  0  0  0  0  0  0  0  0  0
  -23.4620  -31.8940   23.5360 O   0  0  0  0  0  0  0  0  0  0  0  0
  -22.7640  -29.2510   22.1930 C   0  0  0  0  0  0  0  0  0  0  0  0
  -21.4360  -29.0630   22.0860 N   0  0  0  0  0  0  0  0  0  0  0  0
  -23.4630  -28.5890   22.9650 O   0  0  0  0  0  0  0  0  0  0  0  0
  -20.9250  -29.6550   21.4460 H   0  0  0  0  0  0  0  0  0  0  0  0
  -18.0860  -27.7790   22.6180 C   0  0  0  0  0  0  0  0  0  0  0  0
  -20.6510  -28.0560   22.8070 C   0  0  0  0  0  3  0  0  0  0  0  0
  -20.7450  -26.6760   22.1150 C   0  0  0  0  0  2  0  0  0  0  0  0
  -19.6090  -26.4220   21.1190 C   0  0  0  0  0  2  0  0  0  0  0  0
  -18.2520  -26.4920   21.8250 C   0  0  0  0  0  2  0  0  0  0  0  0
  -19.2130  -28.5200   23.0650 C   0  0  0  0  0  0  0  0  0  0  0  0
  -19.0020  -29.7220   23.7740 C   0  0  0  0  0  3  0  0  0  0  0  0
  -17.7000  -30.1860   24.0350 C   0  0  0  0  0  3  0  0  0  0  0  0
  -16.5880  -29.4430   23.6010 C   0  0  0  0  0  3  0  0  0  0  0  0
  -16.7830  -28.2400   22.8990 C   0  0  0  0  0  3  0  0  0  0  0  0
  -25.8080  -32.3320   23.6600 C   0  0  0  0  0  3  0  0  0  0  0  0
  -25.4450  -33.7060   24.0500 N   0  0  0  0  0  0  0  0  0  0  0  0
  -25.7320  -34.8060   23.3410 C   0  0  0  0  0  0  0  0  0  0  0  0
  -26.3930  -34.7730   22.3000 O   0  0  0  0  0  0  0  0  0  0  0  0
  -24.8550  -33.8010   24.8620 H   0  0  0  0  0  0  0  0  0  0  0  0
  -23.9290  -36.5480   23.1060 C   0  0  0  0  0  1  0  0  0  0  0  0
  -25.2040  -36.1560   23.8680 C   0  0  0  0  0  3  0  0  0  0  0  0
  -27.3200  -37.1020   24.6850 C   0  0  0  0  0  1  0  0  0  0  0  0
  -26.1920  -37.2540   23.7710 N   0  0  0  0  0  0  0  0  0  0  0  0
  -25.7530  -38.1520   23.9550 H   0  0  0  0  0  0  0  0  0  0  0  0
  -26.3320  -31.5310   24.9170 C   0  0  1  0  0  0  0  0  0  0  0  0
  -25.2350  -31.2260   25.9650 C   0  0  0  0  0  1  0  0  0  0  0  0
  -26.9570  -30.1830   24.4910 C   0  0  0  0  0  1  0  0  0  0  0  0
  -27.4530  -32.3330   25.6190 C   0  0  0  0  0  1  0  0  0  0  0  0
  1  2  2  0
  1  4  1  0
  2  6  1  0
  4 46  1  0
  4  5  2  0
  5  3  1  0
  5  7  1  0
  6 16  1  0
  6  3  2  0
  8 14  1  0
  8 16  1  0
  9 14  1  0
 10 11  1  0
 10  9  1  0
 12 11  1  0
 12 21  1  0
 12 13  1  0
 14 13  1  0
 15  8  2  0
 16 17  1  0
 18 19  2  0
 19 38  1  0
 20 19  1  0
 20 23  1  0
 21 22  1  0
 21 18  1  0
 22 20  2  0
 23 24  1  0
 24 25  2  0
 26 29  1  0
 26 25  1  0
 27 26  2  0
 28 27  1  0
 28 23  2  0
 29 30  1  0
 30 31  1  0
 31 32  2  0
 33 32  1  0
 33 37  1  0
 34 33  2  0
 35 30  2  0
 35 34  1  0
 36 35  1  0
 38 39  1  0
 39 42  1  0
 39 41  1  0
 40 38  2  0
 43 44  1  0
 43 18  1  0
 45 43  1  0
 47 48  1  0
 47 46  2  0
 49 60  2  0
 50 48  1  0
 50 55  1  0
 51 59  1  0
 51 61  1  0
 52 58  1  0
 52 54  1  0
 53 59  1  0
 54 53  1  0
 55 54  2  0
 56 57  1  0
 56 50  2  0
 57 52  2  0
 58 51  1  0
 59 49  1  0
 61 63  2  0
 62 61  1  0
 64 62  1  0
 65 74  2  0
 65 70  1  0
 66 62  1  0
 66 70  1  0
 67 66  1  0
 68 69  1  0
 68 67  1  0
 69 65  1  0
 70 71  2  0
 71 72  1  0
 73 72  2  0
 74 73  1  0
 75 49  1  0
 75 76  1  0
 75 85  1  0
 76 79  1  0
 77 81  1  0
 77 76  1  0
 78 77  2  0
 81 80  1  0
 83 81  1  0
 83 84  1  0
 83 82  1  0
 85 88  1  1
 85 86  1  0
 87 85  1  0
M  ISO  4   8 100  16 100  47 101  48 101
M  END
>  <TORSDO>  (13) 
F 18

>  <SCORE>  (13) 
-14.192

>  <name>  (13) 
12

>  <ligand_id>  (13) 
12

>  <original_smiles>  (13) 
[H]c1c([H])c([H])c2c(c1[H])C([H])([H])C([H])([H])C([H])([H])C2([H])N([H])C(=O)C1([H])N(C(=O)C([H])(N([H])C(=O)C([H])(N([H])C([H])([H])[H])C([H])([H])[H])C(C([H])([H])[H])(C([H])([H])[H])C([H])([H])[H])C([H])([H])c2c([H])c(OC([H])([H])C([H])([H])c3c([H])c([H])c(N([H])C(=O)N4C([H])([H])C([H])([H])C([H])([H])C([H])(n5nc(-c6c([H])c([H])c(Oc7c([H])c([H])c(F)c([H])c7F)c([H])c6[H])c(C(=O)N([H])[H])c5N([H])[H])C4([H])[H])c([H])c3C([H])([H])[H])c([H])c([H])c2C1([H])[H]

>  <smiles>  (13) 
[H]c1c([H])c([H])c2c(c1[H])C([H])([H])C([H])([H])C([H])([H])C2([H])N([H])C(=O)C1([H])N(C(=O)C([H])(N([H])C(=O)C([H])(N([H])C([H])([H])[H])C([H])([H])[H])C(C([H])([H])[H])(C([H])([H])[H])C([H])([H])[H])C([H])([H])c2c([H])c(OC([H])([H])C([H])([H])c3c([H])c([H])c(N([H])C(=O)N4C([H])([H])C([H])([H])C([H])([H])C([H])(n5nc(-c6c([H])c([H])c(Oc7c([H])c([H])c(F)c([H])c7F)c([H])c6[H])c(C(=O)N([H])[H])c5N([H])[H])C4([H])[H])c([H])c3C([H])([H])[H])c([H])c([H])c2C1([H])[H]

$$$$
13:0:0
     RDKit          3D

 95104  0  0  1  0  0  0  0  0999 V2000
  -29.2510  -22.6280   19.9730 C   0  0  0  0  0  0  0  0  0  0  0  0
  -28.8450  -21.3350   20.1660 N   0  0  0  0  0  0  0  0  0  0  0  0
  -30.4390  -22.8560   19.7420 O   0  0  0  0  0  0  0  0  0  0  0  0
  -27.8720  -21.1510   20.3850 H   0  0  0  0  0  0  0  0  0  0  0  0
  -27.4160  -24.0870   17.7340 C   0  0  0  0  0  2  0  0  0  0  0  0
  -27.0250  -23.5330   19.1140 C   0  0  0  0  0  2  0  0  0  0  0  0
  -28.4010  -25.2470   17.9750 C   0  0  0  0  0  2  0  0  0  0  0  0
  -28.2180  -23.8390   20.0370 C   0  0  0  0  0  3  0  0  0  0  0  0
  -28.7070  -25.2620   19.4860 C   0  0  0  0  0  3  0  0  0  0  0  0
  -28.4520  -26.5680   20.1560 O   0  0  0  0  0  0  0  0  0  0  0  0
  -24.6130  -31.8150   23.2400 C   0  0  0  0  0  0  0  0  0  0  0  0
  -27.2870  -27.3470   20.1050 C   0  0  0  0  0  0  0  0  0  0  0  0
  -23.4390  -30.4600   21.5420 C   0  0  0  0  0  3  0  0  0  0  0  0
  -24.9130  -28.9480   20.1040 C   0  0  0  0  0  0  0  0  0  0  0  0
  -25.9790  -30.7850   21.4140 C   0  0  0  0  0  2  0  0  0  0  0  0
  -26.0690  -29.4240   20.7350 C   0  0  0  0  0  0  0  0  0  0  0  0
  -27.2520  -28.6320   20.7290 C   0  0  0  0  0  3  0  0  0  0  0  0
  -26.1020  -26.9200   19.4670 C   0  0  0  0  0  3  0  0  0  0  0  0
  -24.9310  -27.7000   19.4650 C   0  0  0  0  0  3  0  0  0  0  0  0
  -23.6770  -29.8210   20.1480 C   0  0  0  0  0  2  0  0  0  0  0  0
  -24.6940  -31.0370   22.1220 N   0  0  0  0  0  0  0  0  0  0  0  0
  -23.5200  -32.0780   23.7630 O   0  0  0  0  0  0  0  0  0  0  0  0
  -22.7620  -29.4170   22.4620 C   0  0  0  0  0  0  0  0  0  0  0  0
  -21.4420  -29.2310   22.2940 N   0  0  0  0  0  0  0  0  0  0  0  0
  -23.4230  -28.7790   23.2850 O   0  0  0  0  0  0  0  0  0  0  0  0
  -20.9680  -29.7980   21.6040 H   0  0  0  0  0  0  0  0  0  0  0  0
  -18.0650  -27.9940   22.6640 C   0  0  0  0  0  0  0  0  0  0  0  0
  -20.6090  -28.2730   23.0220 C   0  0  0  0  0  3  0  0  0  0  0  0
  -20.7440  -26.8530   22.4260 C   0  0  0  0  0  2  0  0  0  0  0  0
  -19.6790  -26.5360   21.3720 C   0  0  0  0  0  2  0  0  0  0  0  0
  -18.2760  -26.6580   21.9720 C   0  0  0  0  0  2  0  0  0  0  0  0
  -19.1610  -28.7600   23.1430 C   0  0  0  0  0  0  0  0  0  0  0  0
  -18.9090  -30.0100   23.7470 C   0  0  0  0  0  3  0  0  0  0  0  0
  -17.5950  -30.4970   23.8780 C   0  0  0  0  0  3  0  0  0  0  0  0
  -16.5120  -29.7270   23.4170 C   0  0  0  0  0  3  0  0  0  0  0  0
  -16.7480  -28.4780   22.8150 C   0  0  0  0  0  3  0  0  0  0  0  0
  -25.8850  -32.4300   23.9010 C   0  0  0  0  0  3  0  0  0  0  0  0
  -26.3750  -31.6280   25.1700 C   0  0  1  0  0  0  0  0  0  0  0  0
  -25.2590  -31.3640   26.2090 C   0  0  0  0  0  1  0  0  0  0  0  0
  -26.9680  -30.2610   24.7580 C   0  0  0  0  0  1  0  0  0  0  0  0
  -27.5100  -32.4070   25.8760 C   0  0  0  0  0  1  0  0  0  0  0  0
  -25.5710  -33.8200   24.2590 N   0  0  0  0  0  0  0  0  0  0  0  0
  -25.8910  -34.8880   23.5160 C   0  0  0  0  0  0  0  0  0  0  0  0
  -26.5530  -34.8070   22.4770 O   0  0  0  0  0  0  0  0  0  0  0  0
  -24.9850  -33.9590   25.0690 H   0  0  0  0  0  0  0  0  0  0  0  0
  -24.1330  -36.6640   23.2280 C   0  0  0  0  0  1  0  0  0  0  0  0
  -25.4000  -36.2650   24.0030 C   0  0  0  0  0  3  0  0  0  0  0  0
  -27.5390  -37.1710   24.7970 C   0  0  0  0  0  1  0  0  0  0  0  0
  -26.4160  -37.3320   23.8760 N   0  0  0  0  0  0  0  0  0  0  0  0
  -26.0020  -38.2460   24.0370 H   0  0  0  0  0  0  0  0  0  0  0  0
  -29.6690  -20.0800   20.0940 C   0  0  0  0  0  2  0  0  0  0  0  0
  -30.8230  -14.6680   20.0120 C   0  0  0  0  0  0  0  0  0  0  0  0
  -30.5250  -12.4270   18.9930 C   0  0  0  0  0  2  0  0  0  0  0  0
  -29.5210  -12.5340   17.8260 C   0  0  0  0  0  2  0  0  0  0  0  0
  -28.0780  -12.3670   18.3410 C   0  0  0  0  0  2  0  0  0  0  0  0
  -27.7770  -13.2440   19.5870 C   0  0  0  0  0  3  0  0  0  0  0  0
  -28.8990  -13.1450   20.6440 C   0  0  0  0  0  2  0  0  0  0  0  0
  -30.1640  -13.4690   19.9740 N   0  0  0  0  0  0  0  0  0  0  0  0
  -31.9870  -14.7630   19.6090 O   0  0  0  0  0  0  0  0  0  0  0  0
  -29.6710  -17.9130   21.6810 C   0  0  0  0  0  2  0  0  0  0  0  0
  -28.5820  -17.7120   19.4370 C   0  0  0  0  0  2  0  0  0  0  0  0
  -30.6750  -16.8090   21.2130 C   0  0  0  0  0  2  0  0  0  0  0  0
  -29.6490  -16.6140   19.1070 C   0  0  0  0  0  2  0  0  0  0  0  0
  -28.9470  -18.7330   20.5630 C   0  0  2  0  0  0  0  0  0  0  0  0
  -30.0970  -15.8140   20.2760 N   0  0  0  0  0  0  0  0  0  0  0  0
  -25.4480  -13.8170   20.4970 C   0  0  0  0  0  0  0  0  0  0  0  0
  -24.4020  -13.0330   20.9020 C   0  0  0  0  0  0  0  0  0  0  0  0
  -24.8500  -11.6830   20.7790 C   0  0  0  0  0  0  0  0  0  0  0  0
  -26.4670  -12.9440   20.1530 N   0  0  0  0  0  0  0  0  0  0  0  0
  -26.1170  -11.6520   20.3850 N   0  0  0  0  0  0  0  0  0  0  0  0
  -24.1280  -10.4170   20.9600 C   0  0  0  0  0  0  0  0  0  0  0  0
  -24.5740   -9.4350   21.8700 C   0  0  0  0  0  3  0  0  0  0  0  0
  -23.8520   -8.2340   22.0400 C   0  0  0  0  0  3  0  0  0  0  0  0
  -22.6680   -8.0080   21.2990 C   0  0  0  0  0  0  0  0  0  0  0  0
  -22.2410   -8.9790   20.3770 C   0  0  0  0  0  3  0  0  0  0  0  0
  -22.9630  -10.1710   20.2050 C   0  0  0  0  0  3  0  0  0  0  0  0
  -21.9150   -6.8610   21.3800 O   0  0  0  0  0  0  0  0  0  0  0  0
  -21.8230   -6.1410   22.5440 C   0  0  0  0  0  0  0  0  0  0  0  0
  -21.3310   -6.7130   23.7370 C   0  0  0  0  0  3  0  0  0  0  0  0
  -21.1890   -5.9180   24.8930 C   0  0  0  0  0  3  0  0  0  0  0  0
  -21.5270   -4.5530   24.8530 C   0  0  0  0  0  0  0  0  0  0  0  0
  -22.0110   -3.9790   23.6650 C   0  0  0  0  0  3  0  0  0  0  0  0
  -22.1560   -4.7710   22.5120 C   0  0  0  0  0  0  0  0  0  0  0  0
  -22.6030   -4.2100   21.3630 F   0  0  0  0  0  0  0  0  0  0  0  0
  -21.3830   -3.7860   25.9600 F   0  0  0  0  0  0  0  0  0  0  0  0
  -23.0290  -13.5050   21.2860 C   0  0  0  0  0  0  0  0  0  0  0  0
  -22.3580  -12.7800   22.1730 N   0  0  0  0  0  0  0  0  0  0  0  0
  -22.5640  -14.5510   20.8340 O   0  0  0  0  0  0  0  0  0  0  0  0
  -22.7500  -11.9340   22.5590 H   0  0  0  0  0  0  0  0  0  0  0  0
  -21.4400  -13.0760   22.4730 H   0  0  0  0  0  0  0  0  0  0  0  0
  -25.6100  -15.1930   20.3690 N   0  0  0  0  0  0  0  0  0  0  0  0
  -24.8540  -15.8460   20.5440 H   0  0  0  0  0  0  0  0  0  0  0  0
  -26.4390  -15.6310   19.9890 H   0  0  0  0  0  0  0  0  0  0  0  0
  -27.7130  -19.1690   21.1210 O   0  0  0  0  0  0  0  0  0  0  0  0
  -27.2510  -18.4050   21.4490 H   0  0  0  0  0  0  0  0  0  0  0  0
  1  2  1  0
  2  4  1  0
  3  1  2  0
  5  7  1  0
  5  6  1  0
  6  8  1  0
  7  9  1  0
  8  1  1  0
  9  8  1  0
  9 10  1  0
 11 22  2  0
 12 10  1  0
 12 17  1  0
 13 21  1  0
 13 23  1  0
 14 20  1  0
 14 16  1  0
 15 21  1  0
 16 15  1  0
 17 16  2  0
 18 12  2  0
 19 18  1  0
 19 14  2  0
 20 13  1  0
 21 11  1  0
 23 25  2  0
 24 23  1  0
 26 24  1  0
 27 36  2  0
 27 32  1  0
 28 24  1  0
 28 32  1  0
 29 28  1  0
 30 31  1  0
 30 29  1  0
 31 27  1  0
 32 33  2  0
 33 34  1  0
 35 34  2  0
 36 35  1  0
 37 11  1  0
 37 42  1  0
 37 38  1  0
 38 41  1  1
 38 39  1  0
 40 38  1  0
 42 45  1  0
 43 47  1  0
 43 42  1  0
 44 43  2  0
 47 46  1  0
 49 47  1  0
 49 50  1  0
 49 48  1  0
 51  2  1  0
 52 65  1  0
 53 58  1  0
 54 55  1  0
 54 53  1  0
 56 55  1  0
 56 69  1  0
 56 57  1  0
 58 52  1  0
 58 57  1  0
 59 52  2  0
 61 64  1  0
 62 60  1  0
 63 61  1  0
 63 65  1  0
 64 51  1  6
 64 94  1  0
 64 60  1  0
 65 62  1  0
 66 67  2  0
 67 86  1  0
 68 67  1  0
 68 71  1  0
 69 70  1  0
 69 66  1  0
 70 68  2  0
 71 72  1  0
 72 73  2  0
 74 77  1  0
 74 73  1  0
 75 74  2  0
 76 75  1  0
 76 71  2  0
 77 78  1  0
 78 79  1  0
 79 80  2  0
 81 80  1  0
 81 85  1  0
 82 81  2  0
 83 78  2  0
 83 82  1  0
 84 83  1  0
 86 87  1  0
 87 90  1  0
 87 89  1  0
 88 86  2  0
 91 66  1  0
 91 92  1  0
 93 91  1  0
 94 95  1  0
M  ISO  4   9 101  10 101  52 100  65 100
M  END
>  <TORSDO>  (14) 
F 19

>  <SCORE>  (14) 
-13.955

>  <name>  (14) 
13

>  <ligand_id>  (14) 
13

>  <original_smiles>  (14) 
[H]OC1(C([H])([H])N([H])C(=O)C2([H])C([H])([H])C([H])([H])C([H])([H])C2([H])Oc2c([H])c([H])c3c(c2[H])C([H])([H])N(C(=O)C([H])(N([H])C(=O)C([H])(N([H])C([H])([H])[H])C([H])([H])[H])C(C([H])([H])[H])(C([H])([H])[H])C([H])([H])[H])C([H])(C(=O)N([H])C2([H])c4c([H])c([H])c([H])c([H])c4C([H])([H])C([H])([H])C2([H])[H])C3([H])[H])C([H])([H])C([H])([H])N(C(=O)N2C([H])([H])C([H])([H])C([H])([H])C([H])(n3nc(-c4c([H])c([H])c(Oc5c([H])c([H])c(F)c([H])c5F)c([H])c4[H])c(C(=O)N([H])[H])c3N([H])[H])C2([H])[H])C([H])([H])C1([H])[H]

>  <smiles>  (14) 
[H]OC1(C([H])([H])N([H])C(=O)C2([H])C([H])([H])C([H])([H])C([H])([H])C2([H])Oc2c([H])c([H])c3c(c2[H])C([H])([H])N(C(=O)C([H])(N([H])C(=O)C([H])(N([H])C([H])([H])[H])C([H])([H])[H])C(C([H])([H])[H])(C([H])([H])[H])C([H])([H])[H])C([H])(C(=O)N([H])C2([H])c4c([H])c([H])c([H])c([H])c4C([H])([H])C([H])([H])C2([H])[H])C3([H])[H])C([H])([H])C([H])([H])N(C(=O)N2C([H])([H])C([H])([H])C([H])([H])C([H])(n3nc(-c4c([H])c([H])c(Oc5c([H])c([H])c(F)c([H])c5F)c([H])c4[H])c(C(=O)N([H])[H])c3N([H])[H])C2([H])[H])C([H])([H])C1([H])[H]

$$$$
14:0:0
     RDKit          3D

 97105  0  0  1  0  0  0  0  0999 V2000
  -29.6410  -21.9650   21.9900 N   0  0  0  0  0  4  0  0  0  0  0  0
  -28.8020  -21.6250   22.4280 H   0  0  0  0  0  0  0  0  0  0  0  0
  -29.7280  -21.5010   21.1020 H   0  0  0  0  0  0  0  0  0  0  0  0
  -30.7950  -21.5440   22.7980 C   0  0  0  0  0  2  0  0  0  0  0  0
  -32.3940  -19.1110   20.3340 C   0  0  0  0  0  3  0  0  0  0  0  0
  -32.0070  -20.2910   20.9910 C   0  0  0  0  0  3  0  0  0  0  0  0
  -31.3960  -17.7940   22.1230 C   0  0  0  0  0  3  0  0  0  0  0  0
  -32.0740  -17.8580   20.8890 C   0  0  0  0  0  0  0  0  0  0  0  0
  -31.2970  -20.2350   22.2100 C   0  0  0  0  0  0  0  0  0  0  0  0
  -31.0000  -18.9730   22.7910 C   0  0  0  0  0  0  0  0  0  0  0  0
  -30.9900  -19.5440   25.2610 C   0  0  0  0  0  1  0  0  0  0  0  0
  -30.2590  -18.8340   24.1150 C   0  0  0  0  0  2  0  0  0  0  0  0
  -32.4900  -16.5920   20.1620 C   0  0  0  0  0  2  0  0  0  0  0  0
  -31.1710  -15.0390   18.7380 C   0  0  0  0  0  0  0  0  0  0  0  0
  -30.8510  -12.6850   18.1160 C   0  0  0  0  0  2  0  0  0  0  0  0
  -29.6810  -12.3880   17.1690 C   0  0  0  0  0  2  0  0  0  0  0  0
  -28.3810  -12.1970   17.9670 C   0  0  0  0  0  2  0  0  0  0  0  0
  -28.1200  -13.3610   18.9560 C   0  0  0  0  0  3  0  0  0  0  0  0
  -29.3690  -13.6620   19.8130 C   0  0  0  0  0  2  0  0  0  0  0  0
  -30.5290  -13.8650   18.9250 N   0  0  0  0  0  0  0  0  0  0  0  0
  -31.7700  -15.3410   17.7000 O   0  0  0  0  0  0  0  0  0  0  0  0
  -31.3830  -15.6810   19.8920 N   0  0  0  0  0  0  0  0  0  0  0  0
  -30.8980  -15.3090   20.6940 H   0  0  0  0  0  0  0  0  0  0  0  0
  -26.1200  -13.9810   20.4560 C   0  0  0  0  0  0  0  0  0  0  0  0
  -25.1290  -13.2220   21.0200 C   0  0  0  0  0  0  0  0  0  0  0  0
  -25.4080  -11.8710   20.6480 C   0  0  0  0  0  0  0  0  0  0  0  0
  -26.9470  -13.0920   19.7880 N   0  0  0  0  0  0  0  0  0  0  0  0
  -26.5360  -11.8080   19.9530 N   0  0  0  0  0  0  0  0  0  0  0  0
  -24.6350  -10.6420   20.8660 C   0  0  0  0  0  0  0  0  0  0  0  0
  -24.9050   -9.7830   21.9550 C   0  0  0  0  0  3  0  0  0  0  0  0
  -24.1360   -8.6160   22.1550 C   0  0  0  0  0  3  0  0  0  0  0  0
  -23.0840   -8.2990   21.2640 C   0  0  0  0  0  0  0  0  0  0  0  0
  -22.8340   -9.1440   20.1690 C   0  0  0  0  0  3  0  0  0  0  0  0
  -23.6030  -10.3020   19.9680 C   0  0  0  0  0  3  0  0  0  0  0  0
  -22.3020   -7.1730   21.3650 O   0  0  0  0  0  0  0  0  0  0  0  0
  -21.6570   -6.8460   22.5300 C   0  0  0  0  0  0  0  0  0  0  0  0
  -20.6730   -7.6830   23.0990 C   0  0  0  0  0  3  0  0  0  0  0  0
  -19.9860   -7.2750   24.2590 C   0  0  0  0  0  3  0  0  0  0  0  0
  -20.2760   -6.0290   24.8480 C   0  0  0  0  0  0  0  0  0  0  0  0
  -21.2510   -5.1910   24.2800 C   0  0  0  0  0  3  0  0  0  0  0  0
  -21.9380   -5.5980   23.1220 C   0  0  0  0  0  0  0  0  0  0  0  0
  -22.8620   -4.7770   22.5680 F   0  0  0  0  0  0  0  0  0  0  0  0
  -19.6110   -5.6330   25.9580 F   0  0  0  0  0  0  0  0  0  0  0  0
  -23.9390  -13.7280   21.7820 C   0  0  0  0  0  0  0  0  0  0  0  0
  -23.5190  -13.0030   22.8140 N   0  0  0  0  0  0  0  0  0  0  0  0
  -23.4020  -14.7970   21.4960 O   0  0  0  0  0  0  0  0  0  0  0  0
  -23.9710  -12.1340   23.0600 H   0  0  0  0  0  0  0  0  0  0  0  0
  -22.7340  -13.3200   23.3640 H   0  0  0  0  0  0  0  0  0  0  0  0
  -26.3760  -15.3490   20.4390 N   0  0  0  0  0  0  0  0  0  0  0  0
  -25.7580  -16.0240   20.8750 H   0  0  0  0  0  0  0  0  0  0  0  0
  -27.1490  -15.7790   19.9460 H   0  0  0  0  0  0  0  0  0  0  0  0
  -29.5120  -23.4100   21.7370 C   0  0  0  0  0  2  0  0  0  0  0  0
  -28.8910  -23.6220   20.3500 C   0  0  0  0  0  2  0  0  0  0  0  0
  -29.3720  -24.8830   19.6230 C   0  0  0  0  0  2  0  0  0  0  0  0
  -28.7190  -24.9770   18.2400 C   0  0  0  0  0  2  0  0  0  0  0  0
  -29.1870  -26.1730   17.4130 C   0  0  0  0  0  2  0  0  0  0  0  0
  -28.0860  -26.5260   16.5860 O   0  0  0  0  0  0  0  0  0  0  0  0
  -25.2370  -29.0920   22.5890 C   0  0  0  0  0  0  0  0  0  0  0  0
  -27.0520  -27.1740   17.2090 C   0  0  0  0  0  0  0  0  0  0  0  0
  -23.7590  -29.0770   20.6030 C   0  0  0  0  0  3  0  0  0  0  0  0
  -24.8990  -28.5600   18.3820 C   0  0  0  0  0  0  0  0  0  0  0  0
  -26.2940  -29.2460   20.3430 C   0  0  0  0  0  2  0  0  0  0  0  0
  -26.1430  -28.5230   19.0250 C   0  0  0  0  0  0  0  0  0  0  0  0
  -27.2230  -27.8300   18.4460 C   0  0  0  0  0  3  0  0  0  0  0  0
  -25.8020  -27.2190   16.5640 C   0  0  0  0  0  3  0  0  0  0  0  0
  -24.7190  -27.9030   17.1510 C   0  0  0  0  0  3  0  0  0  0  0  0
  -23.8010  -29.3350   19.0720 C   0  0  0  0  0  2  0  0  0  0  0  0
  -25.1190  -29.1130   21.2320 N   0  0  0  0  0  0  0  0  0  0  0  0
  -24.2360  -29.0910   23.3180 O   0  0  0  0  0  0  0  0  0  0  0  0
  -23.0020  -27.7540   20.8560 C   0  0  0  0  0  0  0  0  0  0  0  0
  -21.7020  -27.7390   20.5230 N   0  0  0  0  0  0  0  0  0  0  0  0
  -23.5870  -26.7670   21.3100 O   0  0  0  0  0  0  0  0  0  0  0  0
  -21.2960  -28.5910   20.1630 H   0  0  0  0  0  0  0  0  0  0  0  0
  -18.3530  -26.5970   19.7990 C   0  0  0  0  0  0  0  0  0  0  0  0
  -20.7980  -26.5960   20.6360 C   0  0  0  0  0  3  0  0  0  0  0  0
  -21.0720  -25.5580   19.5230 C   0  0  0  0  0  2  0  0  0  0  0  0
  -20.1980  -25.7600   18.2810 C   0  0  0  0  0  2  0  0  0  0  0  0
  -18.7130  -25.6720   18.6490 C   0  0  0  0  0  2  0  0  0  0  0  0
  -19.3350  -27.0440   20.7230 C   0  0  0  0  0  0  0  0  0  0  0  0
  -18.9540  -27.9320   21.7510 C   0  0  0  0  0  3  0  0  0  0  0  0
  -17.6220  -28.3710   21.8670 C   0  0  0  0  0  3  0  0  0  0  0  0
  -16.6510  -27.9120   20.9610 C   0  0  0  0  0  3  0  0  0  0  0  0
  -17.0160  -27.0240   19.9320 C   0  0  0  0  0  3  0  0  0  0  0  0
  -26.6320  -29.0940   23.2900 C   0  0  0  0  0  3  0  0  0  0  0  0
  -26.9710  -27.7300   24.0070 C   0  0  1  0  0  0  0  0  0  0  0  0
  -25.7890  -27.1430   24.8130 C   0  0  0  0  0  1  0  0  0  0  0  0
  -27.4130  -26.6670   22.9740 C   0  0  0  0  0  1  0  0  0  0  0  0
  -28.1600  -27.9270   24.9770 C   0  0  0  0  0  1  0  0  0  0  0  0
  -26.6410  -30.2050   24.2510 N   0  0  0  0  0  0  0  0  0  0  0  0
  -27.3440  -31.3350   24.0980 C   0  0  0  0  0  0  0  0  0  0  0  0
  -28.1190  -31.5210   23.1560 O   0  0  0  0  0  0  0  0  0  0  0  0
  -25.9880  -30.1460   25.0170 H   0  0  0  0  0  0  0  0  0  0  0  0
  -26.2820  -33.5610   24.5860 C   0  0  0  0  0  1  0  0  0  0  0  0
  -27.1590  -32.4360   25.1590 C   0  0  0  0  0  3  0  0  0  0  0  0
  -29.2410  -32.0330   26.3970 C   0  0  0  0  0  1  0  0  0  0  0  0
  -28.4340  -32.9980   25.6540 N   0  0  0  0  0  0  0  0  0  0  0  0
  -28.2640  -33.8000   26.2550 H   0  0  0  0  0  0  0  0  0  0  0  0
  1  2  1  0
  1  4  1  0
  3  1  1  0
  5  8  2  0
  5  6  1  0
  6  9  2  0
  7 10  2  0
  8  7  1  0
  9 10  1  0
  9  4  1  0
 10 12  1  0
 12 11  1  0
 13  8  1  0
 14 20  1  0
 14 22  1  0
 15 20  1  0
 16 17  1  0
 16 15  1  0
 18 17  1  0
 18 27  1  0
 18 19  1  0
 20 19  1  0
 21 14  2  0
 22 13  1  0
 22 23  1  0
 24 25  2  0
 25 44  1  0
 26 29  1  0
 26 25  1  0
 27 28  1  0
 27 24  1  0
 28 26  2  0
 29 30  1  0
 30 31  2  0
 32 35  1  0
 32 31  1  0
 33 32  2  0
 34 33  1  0
 34 29  2  0
 35 36  1  0
 36 37  2  0
 36 41  1  0
 37 38  1  0
 38 39  2  0
 39 43  1  0
 40 39  1  0
 41 40  2  0
 42 41  1  0
 44 45  1  0
 45 47  1  0
 45 48  1  0
 46 44  2  0
 49 24  1  0
 49 50  1  0
 51 49  1  0
 52  1  1  0
 53 52  1  0
 54 53  1  0
 55 54  1  0
 56 55  1  0
 57 59  1  0
 57 56  1  0
 58 69  2  0
 59 64  1  0
 60 70  1  0
 60 68  1  0
 61 63  1  0
 61 67  1  0
 62 68  1  0
 63 62  1  0
 64 63  2  0
 65 66  1  0
 65 59  2  0
 66 61  2  0
 67 60  1  0
 68 58  1  0
 70 72  2  0
 71 70  1  0
 73 71  1  0
 74 83  2  0
 74 79  1  0
 75 71  1  0
 75 79  1  0
 76 75  1  0
 77 78  1  0
 77 76  1  0
 78 74  1  0
 79 80  2  0
 80 81  1  0
 82 81  2  0
 83 82  1  0
 84 58  1  0
 84 85  1  0
 84 89  1  0
 85 86  1  1
 85 88  1  0
 87 85  1  0
 89 92  1  0
 90 89  1  0
 90 94  1  0
 91 90  2  0
 94 93  1  0
 94 96  1  0
 96 97  1  0
 96 95  1  0
M  ISO  4  14 100  22 100  56 101  57 101
M  END
>  <TORSDO>  (15) 
F 25

>  <SCORE>  (15) 
-3.393

>  <name>  (15) 
14

>  <ligand_id>  (15) 
14

>  <original_smiles>  (15) 
[H]c1c([H])c([H])c2c(c1[H])C([H])([H])C([H])([H])C([H])([H])C2([H])N([H])C(=O)C1([H])N(C(=O)C([H])(N([H])C(=O)C([H])(N([H])C([H])([H])[H])C([H])([H])[H])C(C([H])([H])[H])(C([H])([H])[H])C([H])([H])[H])C([H])([H])c2c([H])c(OC([H])([H])C([H])([H])C([H])([H])C([H])([H])C([H])([H])[N+]([H])([H])C([H])([H])c3c([H])c([H])c(C([H])([H])N([H])C(=O)N4C([H])([H])C([H])([H])C([H])([H])C([H])(n5nc(-c6c([H])c([H])c(Oc7c([H])c([H])c(F)c([H])c7F)c([H])c6[H])c(C(=O)N([H])[H])c5N([H])[H])C4([H])[H])c([H])c3C([H])([H])C([H])([H])[H])c([H])c([H])c2C1([H])[H]

>  <smiles>  (15) 
[H]c1c([H])c([H])c2c(c1[H])C([H])([H])C([H])([H])C([H])([H])C2([H])N([H])C(=O)C1([H])N(C(=O)C([H])(N([H])C(=O)C([H])(N([H])C([H])([H])[H])C([H])([H])[H])C(C([H])([H])[H])(C([H])([H])[H])C([H])([H])[H])C([H])([H])c2c([H])c(OC([H])([H])C([H])([H])C([H])([H])C([H])([H])C([H])([H])[N+]([H])([H])C([H])([H])c3c([H])c([H])c(C([H])([H])N([H])C(=O)N4C([H])([H])C([H])([H])C([H])([H])C([H])(n5nc(-c6c([H])c([H])c(Oc7c([H])c([H])c(F)c([H])c7F)c([H])c6[H])c(C(=O)N([H])[H])c5N([H])[H])C4([H])[H])c([H])c3C([H])([H])C([H])([H])[H])c([H])c([H])c2C1([H])[H]

$$$$
15:0:0
     RDKit          3D

 97105  0  0  1  0  0  0  0  0999 V2000
  -30.0570  -24.2640   20.6590 N   0  0  0  0  0  4  0  0  0  0  0  0
  -29.2690  -24.3040   20.0300 H   0  0  0  0  0  0  0  0  0  0  0  0
  -30.8870  -24.2550   20.0860 H   0  0  0  0  0  0  0  0  0  0  0  0
  -30.0480  -22.9900   21.4300 C   0  0  0  0  0  2  0  0  0  0  0  0
  -31.6240  -19.4810   19.5600 C   0  0  0  0  0  2  0  0  0  0  0  0
  -30.2220  -20.4250   21.3210 C   0  0  0  0  0  2  0  0  0  0  0  0
  -31.5320  -20.8320   18.8250 C   0  0  0  0  0  2  0  0  0  0  0  0
  -30.1580  -21.7490   20.5210 C   0  0  0  0  0  3  0  0  0  0  0  0
  -30.4270  -19.2590   20.4160 N   0  0  2  0  0  4  0  0  0  0  0  0
  -31.3640  -21.8870   19.7730 O   0  0  0  0  0  0  0  0  0  0  0  0
  -29.6230  -19.2350   19.8060 H   0  0  0  0  0  0  0  0  0  0  0  0
  -30.4340  -17.9430   21.1180 C   0  0  0  0  0  2  0  0  0  0  0  0
  -29.9280  -16.8170   20.1920 C   0  0  0  0  0  2  0  0  0  0  0  0
  -30.6430  -14.4610   20.4400 C   0  0  0  0  0  0  0  0  0  0  0  0
  -30.3380  -12.3060   19.3070 C   0  0  0  0  0  2  0  0  0  0  0  0
  -29.3940  -12.5470   18.1090 C   0  0  0  0  0  2  0  0  0  0  0  0
  -27.9170  -12.4280   18.5410 C   0  0  0  0  0  2  0  0  0  0  0  0
  -27.5960  -13.2500   19.8180 C   0  0  0  0  0  3  0  0  0  0  0  0
  -28.6540  -12.9940   20.9190 C   0  0  0  0  0  2  0  0  0  0  0  0
  -29.9850  -13.2770   20.3520 N   0  0  0  0  0  0  0  0  0  0  0  0
  -31.7700  -14.6560   19.9780 O   0  0  0  0  0  0  0  0  0  0  0  0
  -29.8650  -15.4880   20.8120 N   0  0  0  0  0  0  0  0  0  0  0  0
  -28.9790  -15.2280   21.2200 H   0  0  0  0  0  0  0  0  0  0  0  0
  -25.2000  -13.8800   20.5260 C   0  0  0  0  0  0  0  0  0  0  0  0
  -24.1290  -13.1150   20.9000 C   0  0  0  0  0  0  0  0  0  0  0  0
  -24.5800  -11.7600   20.8710 C   0  0  0  0  0  0  0  0  0  0  0  0
  -26.2400  -12.9900   20.2960 N   0  0  0  0  0  0  0  0  0  0  0  0
  -25.8690  -11.7110   20.5600 N   0  0  0  0  0  0  0  0  0  0  0  0
  -23.8480  -10.5020   21.0660 C   0  0  0  0  0  0  0  0  0  0  0  0
  -24.2950   -9.5230   21.9800 C   0  0  0  0  0  3  0  0  0  0  0  0
  -23.5630   -8.3300   22.1630 C   0  0  0  0  0  3  0  0  0  0  0  0
  -22.3710   -8.1070   21.4340 C   0  0  0  0  0  0  0  0  0  0  0  0
  -21.9440   -9.0770   20.5090 C   0  0  0  0  0  3  0  0  0  0  0  0
  -22.6760  -10.2620   20.3220 C   0  0  0  0  0  3  0  0  0  0  0  0
  -21.6110   -6.9680   21.5270 O   0  0  0  0  0  0  0  0  0  0  0  0
  -21.6000   -6.2000   22.6640 C   0  0  0  0  0  0  0  0  0  0  0  0
  -21.2500   -6.7370   23.9220 C   0  0  0  0  0  3  0  0  0  0  0  0
  -21.1830   -5.8990   25.0530 C   0  0  0  0  0  3  0  0  0  0  0  0
  -21.4600   -4.5240   24.9280 C   0  0  0  0  0  0  0  0  0  0  0  0
  -21.8040   -3.9850   23.6750 C   0  0  0  0  0  3  0  0  0  0  0  0
  -21.8720   -4.8210   22.5460 C   0  0  0  0  0  0  0  0  0  0  0  0
  -22.1840   -4.2950   21.3380 F   0  0  0  0  0  0  0  0  0  0  0  0
  -21.3890   -3.7160   26.0120 F   0  0  0  0  0  0  0  0  0  0  0  0
  -22.7340  -13.6000   21.1780 C   0  0  0  0  0  0  0  0  0  0  0  0
  -22.0060  -12.9120   22.0480 N   0  0  0  0  0  0  0  0  0  0  0  0
  -22.2990  -14.6270   20.6560 O   0  0  0  0  0  0  0  0  0  0  0  0
  -22.3710  -12.0820   22.4940 H   0  0  0  0  0  0  0  0  0  0  0  0
  -21.0710  -13.2190   22.2740 H   0  0  0  0  0  0  0  0  0  0  0  0
  -25.3740  -15.2490   20.3420 N   0  0  0  0  0  0  0  0  0  0  0  0
  -24.6080  -15.9050   20.4410 H   0  0  0  0  0  0  0  0  0  0  0  0
  -26.2170  -15.6780   19.9840 H   0  0  0  0  0  0  0  0  0  0  0  0
  -30.0710  -25.5020   21.4870 C   0  0  0  0  0  3  0  0  0  0  0  0
  -31.4170  -26.9460   19.7790 C   0  0  0  0  0  1  0  0  0  0  0  0
  -31.5150  -27.4850   22.2490 C   0  0  0  0  0  1  0  0  0  0  0  0
  -31.3310  -26.3690   21.2050 C   0  0  0  0  0  3  0  0  0  0  0  0
  -28.7090  -26.2390   21.4410 C   0  0  0  0  0  2  0  0  0  0  0  0
  -28.3670  -26.6990   20.1320 O   0  0  0  0  0  0  0  0  0  0  0  0
  -24.5950  -31.8750   23.2210 C   0  0  0  0  0  0  0  0  0  0  0  0
  -27.2210  -27.4560   20.1270 C   0  0  0  0  0  0  0  0  0  0  0  0
  -23.3730  -30.4700   21.5880 C   0  0  0  0  0  3  0  0  0  0  0  0
  -24.8190  -28.9330   20.1510 C   0  0  0  0  0  0  0  0  0  0  0  0
  -25.8910  -30.8410   21.3650 C   0  0  0  0  0  2  0  0  0  0  0  0
  -25.9760  -29.4690   20.7290 C   0  0  0  0  0  0  0  0  0  0  0  0
  -27.1810  -28.7380   20.7180 C   0  0  0  0  0  3  0  0  0  0  0  0
  -26.0560  -26.9300   19.5350 C   0  0  0  0  0  3  0  0  0  0  0  0
  -24.8520  -27.6610   19.5510 C   0  0  0  0  0  3  0  0  0  0  0  0
  -23.5710  -29.7850   20.2080 C   0  0  0  0  0  2  0  0  0  0  0  0
  -24.6370  -31.0770   22.1160 N   0  0  0  0  0  0  0  0  0  0  0  0
  -23.5190  -32.1460   23.7730 O   0  0  0  0  0  0  0  0  0  0  0  0
  -22.7320  -29.4510   22.5570 C   0  0  0  0  0  0  0  0  0  0  0  0
  -21.4070  -29.2700   22.4420 N   0  0  0  0  0  0  0  0  0  0  0  0
  -23.4240  -28.8260   23.3650 O   0  0  0  0  0  0  0  0  0  0  0  0
  -20.9100  -29.8280   21.7600 H   0  0  0  0  0  0  0  0  0  0  0  0
  -18.0390  -28.0730   22.9580 C   0  0  0  0  0  0  0  0  0  0  0  0
  -20.5970  -28.3340   23.2200 C   0  0  0  0  0  3  0  0  0  0  0  0
  -20.6990  -26.9010   22.6480 C   0  0  0  0  0  2  0  0  0  0  0  0
  -19.5940  -26.5730   21.6390 C   0  0  0  0  0  2  0  0  0  0  0  0
  -18.2150  -26.7200   22.2880 C   0  0  0  0  0  2  0  0  0  0  0  0
  -19.1580  -28.8380   23.3810 C   0  0  0  0  0  0  0  0  0  0  0  0
  -18.9410  -30.1040   23.9660 C   0  0  0  0  0  3  0  0  0  0  0  0
  -17.6360  -30.6060   24.1340 C   0  0  0  0  0  3  0  0  0  0  0  0
  -16.5310  -29.8380   23.7280 C   0  0  0  0  0  3  0  0  0  0  0  0
  -16.7330  -28.5730   23.1460 C   0  0  0  0  0  3  0  0  0  0  0  0
  -25.8890  -32.5050   23.8270 C   0  0  0  0  0  3  0  0  0  0  0  0
  -25.5840  -33.8980   24.1730 N   0  0  0  0  0  0  0  0  0  0  0  0
  -25.9060  -34.9560   23.4180 C   0  0  0  0  0  0  0  0  0  0  0  0
  -26.5640  -34.8620   22.3780 O   0  0  0  0  0  0  0  0  0  0  0  0
  -24.9980  -34.0460   24.9820 H   0  0  0  0  0  0  0  0  0  0  0  0
  -24.1700  -36.7460   23.0970 C   0  0  0  0  0  1  0  0  0  0  0  0
  -25.4210  -36.3390   23.8920 C   0  0  0  0  0  3  0  0  0  0  0  0
  -27.5660  -37.2180   24.7010 C   0  0  0  0  0  1  0  0  0  0  0  0
  -26.4490  -37.3950   23.7760 N   0  0  0  0  0  0  0  0  0  0  0  0
  -26.0440  -38.3120   23.9420 H   0  0  0  0  0  0  0  0  0  0  0  0
  -26.4340  -31.7210   25.0840 C   0  0  1  0  0  0  0  0  0  0  0  0
  -25.3640  -31.4690   26.1720 C   0  0  0  0  0  1  0  0  0  0  0  0
  -27.0110  -30.3490   24.6650 C   0  0  0  0  0  1  0  0  0  0  0  0
  -27.5950  -32.5120   25.7320 C   0  0  0  0  0  1  0  0  0  0  0  0
  1  4  1  0
  1 52  1  0
  2  1  1  0
  3  1  1  0
  5  9  1  0
  7  5  1  0
  7 10  1  0
  8  6  1  0
  8  4  1  0
  9 12  1  0
  9  6  1  0
 10  8  1  0
  9 11  1  6
 13 22  1  0
 13 12  1  0
 14 22  1  0
 15 20  1  0
 16 17  1  0
 16 15  1  0
 18 17  1  0
 18 27  1  0
 18 19  1  0
 20 14  1  0
 20 19  1  0
 21 14  2  0
 22 23  1  0
 24 25  2  0
 25 44  1  0
 26 25  1  0
 26 29  1  0
 27 24  1  0
 27 28  1  0
 28 26  2  0
 29 30  1  0
 30 31  2  0
 32 35  1  0
 32 31  1  0
 33 32  2  0
 34 33  1  0
 34 29  2  0
 35 36  1  0
 36 37  1  0
 37 38  2  0
 39 38  1  0
 39 43  1  0
 40 39  2  0
 41 36  2  0
 41 40  1  0
 42 41  1  0
 44 45  1  0
 45 48  1  0
 45 47  1  0
 46 44  2  0
 49 50  1  0
 49 24  1  0
 51 49  1  0
 52 56  1  0
 53 55  1  0
 55 52  1  0
 55 54  1  0
 57 56  1  0
 58 69  2  0
 59 57  1  0
 59 64  1  0
 60 68  1  0
 60 70  1  0
 61 67  1  0
 61 63  1  0
 62 68  1  0
 63 62  1  0
 64 63  2  0
 65 66  1  0
 65 59  2  0
 66 61  2  0
 67 60  1  0
 68 58  1  0
 70 72  2  0
 71 70  1  0
 73 71  1  0
 74 83  2  0
 74 79  1  0
 75 71  1  0
 75 79  1  0
 76 75  1  0
 77 78  1  0
 77 76  1  0
 78 74  1  0
 79 80  2  0
 80 81  1  0
 82 81  2  0
 83 82  1  0
 84 58  1  0
 84 85  1  0
 84 94  1  0
 85 88  1  0
 86 90  1  0
 86 85  1  0
 87 86  2  0
 90 89  1  0
 92 90  1  0
 92 93  1  0
 92 91  1  0
 94 97  1  1
 94 95  1  0
 96 94  1  0
M  ISO  4  14 100  22 100  56 101  57 101
M  END
>  <TORSDO>  (16) 
F 23

>  <SCORE>  (16) 
-13.045

>  <name>  (16) 
15

>  <ligand_id>  (16) 
15

>  <original_smiles>  (16) 
[H]c1c([H])c([H])c2c(c1[H])C([H])([H])C([H])([H])C([H])([H])C2([H])N([H])C(=O)C1([H])N(C(=O)C([H])(N([H])C(=O)C([H])(N([H])C([H])([H])[H])C([H])([H])[H])C(C([H])([H])[H])(C([H])([H])[H])C([H])([H])[H])C([H])([H])c2c([H])c(OC([H])([H])C([H])(C([H])(C([H])([H])[H])C([H])([H])[H])[N+]([H])([H])C([H])([H])C3([H])OC([H])([H])C([H])([H])[N+]([H])(C([H])([H])C([H])([H])N([H])C(=O)N4C([H])([H])C([H])([H])C([H])([H])C([H])(n5nc(-c6c([H])c([H])c(Oc7c([H])c([H])c(F)c([H])c7F)c([H])c6[H])c(C(=O)N([H])[H])c5N([H])[H])C4([H])[H])C3([H])[H])c([H])c([H])c2C1([H])[H]

>  <smiles>  (16) 
[H]c1c([H])c([H])c2c(c1[H])C([H])([H])C([H])([H])C([H])([H])C2([H])N([H])C(=O)C1([H])N(C(=O)C([H])(N([H])C(=O)C([H])(N([H])C([H])([H])[H])C([H])([H])[H])C(C([H])([H])[H])(C([H])([H])[H])C([H])([H])[H])C([H])([H])c2c([H])c(OC([H])([H])C([H])(C([H])(C([H])([H])[H])C([H])([H])[H])[N+]([H])([H])C([H])([H])C3([H])OC([H])([H])C([H])([H])[N+]([H])(C([H])([H])C([H])([H])N([H])C(=O)N4C([H])([H])C([H])([H])C([H])([H])C([H])(n5nc(-c6c([H])c([H])c(Oc7c([H])c([H])c(F)c([H])c7F)c([H])c6[H])c(C(=O)N([H])[H])c5N([H])[H])C4([H])[H])C3([H])[H])c([H])c([H])c2C1([H])[H]

$$$$
16:0:0
     RDKit          3D

 97106  0  0  1  0  0  0  0  0999 V2000
  -28.5190  -24.1020   19.9380 C   0  0  0  0  0  2  0  0  0  0  0  0
  -29.7550  -23.9860   16.9350 C   0  0  0  0  0  2  0  0  0  0  0  0
  -30.0640  -26.3310   17.3170 C   0  0  0  0  0  2  0  0  0  0  0  0
  -30.3630  -24.1560   18.3460 C   0  0  0  0  0  3  0  0  0  0  0  0
  -29.9980  -25.6000   18.6700 C   0  0  0  0  0  3  0  0  0  0  0  0
  -29.7840  -23.2880   19.4950 C   0  0  0  0  0  3  0  0  0  0  0  0
  -28.5900  -25.5210   19.2760 C   0  0  0  0  0  3  0  0  0  0  0  0
  -29.8750  -25.3000   16.2780 N   0  0  0  0  0  4  0  0  0  0  0  0
  -29.0590  -25.4900   15.7190 H   0  0  0  0  0  0  0  0  0  0  0  0
  -30.6750  -25.3040   15.6660 H   0  0  0  0  0  0  0  0  0  0  0  0
  -31.0000  -21.2180   18.5350 C   0  0  0  0  0  1  0  0  0  0  0  0
  -29.6830  -21.7330   19.1780 C   0  0  0  0  0  3  0  0  0  0  0  0
  -29.2300  -20.7790   20.3570 C   0  0  0  0  0  2  0  0  0  0  0  0
  -30.0760  -19.5490   20.5320 N   0  0  0  0  0  4  0  0  0  0  0  0
  -30.6760  -19.5160   19.7250 H   0  0  0  0  0  0  0  0  0  0  0  0
  -30.6710  -19.6960   21.3330 H   0  0  0  0  0  0  0  0  0  0  0  0
  -29.4190  -18.2070   20.6690 C   0  0  0  0  0  2  0  0  0  0  0  0
  -30.4640  -17.0380   20.7490 C   0  0  0  0  0  2  0  0  0  0  0  0
  -30.6480  -14.5500   20.4440 C   0  0  0  0  0  0  0  0  0  0  0  0
  -30.3520  -12.3620   19.3430 C   0  0  0  0  0  2  0  0  0  0  0  0
  -29.4200  -12.5440   18.1290 C   0  0  0  0  0  2  0  0  0  0  0  0
  -27.9440  -12.4100   18.5540 C   0  0  0  0  0  2  0  0  0  0  0  0
  -27.5980  -13.2550   19.8110 C   0  0  0  0  0  3  0  0  0  0  0  0
  -28.6530  -13.0700   20.9240 C   0  0  0  0  0  2  0  0  0  0  0  0
  -29.9710  -13.3710   20.3470 N   0  0  0  0  0  0  0  0  0  0  0  0
  -31.8070  -14.6760   20.0410 O   0  0  0  0  0  0  0  0  0  0  0  0
  -29.9370  -15.6460   20.8080 N   0  0  0  0  0  0  0  0  0  0  0  0
  -28.9760  -15.5100   21.0880 H   0  0  0  0  0  0  0  0  0  0  0  0
  -25.2010  -13.8560   20.5230 C   0  0  0  0  0  0  0  0  0  0  0  0
  -24.1340  -13.0840   20.8940 C   0  0  0  0  0  0  0  0  0  0  0  0
  -24.5970  -11.7330   20.8680 C   0  0  0  0  0  0  0  0  0  0  0  0
  -26.2460  -12.9750   20.2930 N   0  0  0  0  0  0  0  0  0  0  0  0
  -25.8880  -11.6940   20.5610 N   0  0  0  0  0  0  0  0  0  0  0  0
  -23.8720  -10.4710   21.0590 C   0  0  0  0  0  0  0  0  0  0  0  0
  -24.3120   -9.4990   21.9840 C   0  0  0  0  0  3  0  0  0  0  0  0
  -23.5880   -8.3010   22.1640 C   0  0  0  0  0  3  0  0  0  0  0  0
  -22.4070   -8.0670   21.4200 C   0  0  0  0  0  0  0  0  0  0  0  0
  -21.9850   -9.0290   20.4840 C   0  0  0  0  0  3  0  0  0  0  0  0
  -22.7100  -10.2170   20.3010 C   0  0  0  0  0  3  0  0  0  0  0  0
  -21.6530   -6.9220   21.5110 O   0  0  0  0  0  0  0  0  0  0  0  0
  -21.6270   -6.1660   22.6550 C   0  0  0  0  0  0  0  0  0  0  0  0
  -21.2390   -6.7090   23.9000 C   0  0  0  0  0  3  0  0  0  0  0  0
  -21.1550   -5.8780   25.0360 C   0  0  0  0  0  3  0  0  0  0  0  0
  -21.4550   -4.5070   24.9290 C   0  0  0  0  0  0  0  0  0  0  0  0
  -21.8390   -3.9640   23.6890 C   0  0  0  0  0  3  0  0  0  0  0  0
  -21.9210   -4.7910   22.5560 C   0  0  0  0  0  0  0  0  0  0  0  0
  -22.2690   -4.2580   21.3600 F   0  0  0  0  0  0  0  0  0  0  0  0
  -21.3700   -3.7070   26.0170 F   0  0  0  0  0  0  0  0  0  0  0  0
  -22.7350  -13.5620   21.1570 C   0  0  0  0  0  0  0  0  0  0  0  0
  -22.0010  -12.8700   22.0210 N   0  0  0  0  0  0  0  0  0  0  0  0
  -22.2990  -14.5850   20.6320 O   0  0  0  0  0  0  0  0  0  0  0  0
  -22.3640  -12.0450   22.4750 H   0  0  0  0  0  0  0  0  0  0  0  0
  -21.0610  -13.1730   22.2320 H   0  0  0  0  0  0  0  0  0  0  0  0
  -25.3650  -15.2270   20.3390 N   0  0  0  0  0  0  0  0  0  0  0  0
  -24.5990  -15.8810   20.4460 H   0  0  0  0  0  0  0  0  0  0  0  0
  -26.2020  -15.6590   19.9670 H   0  0  0  0  0  0  0  0  0  0  0  0
  -28.4040  -26.6790   20.1260 O   0  0  0  0  0  0  0  0  0  0  0  0
  -24.6100  -31.8770   23.2260 C   0  0  0  0  0  0  0  0  0  0  0  0
  -27.2180  -27.4020   20.1140 C   0  0  0  0  0  0  0  0  0  0  0  0
  -23.3890  -30.4780   21.5940 C   0  0  0  0  0  3  0  0  0  0  0  0
  -24.8260  -28.9360   20.1560 C   0  0  0  0  0  0  0  0  0  0  0  0
  -25.9160  -30.8250   21.3740 C   0  0  0  0  0  2  0  0  0  0  0  0
  -25.9920  -29.4510   20.7330 C   0  0  0  0  0  0  0  0  0  0  0  0
  -27.1880  -28.6910   20.7100 C   0  0  0  0  0  3  0  0  0  0  0  0
  -26.0190  -26.9000   19.5580 C   0  0  0  0  0  3  0  0  0  0  0  0
  -24.8350  -27.6600   19.5700 C   0  0  0  0  0  3  0  0  0  0  0  0
  -23.5860  -29.8000   20.2120 C   0  0  0  0  0  2  0  0  0  0  0  0
  -24.6570  -31.0760   22.1230 N   0  0  0  0  0  0  0  0  0  0  0  0
  -23.5320  -32.1500   23.7740 O   0  0  0  0  0  0  0  0  0  0  0  0
  -22.7410  -29.4590   22.5590 C   0  0  0  0  0  0  0  0  0  0  0  0
  -21.4150  -29.2770   22.4410 N   0  0  0  0  0  0  0  0  0  0  0  0
  -23.4290  -28.8330   23.3710 O   0  0  0  0  0  0  0  0  0  0  0  0
  -20.9220  -29.8340   21.7570 H   0  0  0  0  0  0  0  0  0  0  0  0
  -18.0440  -28.0780   22.9510 C   0  0  0  0  0  0  0  0  0  0  0  0
  -20.6020  -28.3400   23.2160 C   0  0  0  0  0  3  0  0  0  0  0  0
  -20.7050  -26.9070   22.6420 C   0  0  0  0  0  2  0  0  0  0  0  0
  -19.6010  -26.5820   21.6320 C   0  0  0  0  0  2  0  0  0  0  0  0
  -18.2210  -26.7270   22.2800 C   0  0  0  0  0  2  0  0  0  0  0  0
  -19.1630  -28.8420   23.3770 C   0  0  0  0  0  0  0  0  0  0  0  0
  -18.9430  -30.1080   23.9640 C   0  0  0  0  0  3  0  0  0  0  0  0
  -17.6380  -30.6080   24.1310 C   0  0  0  0  0  3  0  0  0  0  0  0
  -16.5350  -29.8390   23.7210 C   0  0  0  0  0  3  0  0  0  0  0  0
  -16.7390  -28.5770   23.1370 C   0  0  0  0  0  3  0  0  0  0  0  0
  -25.9010  -32.5070   23.8350 C   0  0  0  0  0  3  0  0  0  0  0  0
  -25.5940  -33.9030   24.1760 N   0  0  0  0  0  0  0  0  0  0  0  0
  -25.9180  -34.9600   23.4190 C   0  0  0  0  0  0  0  0  0  0  0  0
  -26.5800  -34.8620   22.3810 O   0  0  0  0  0  0  0  0  0  0  0  0
  -25.0110  -34.0520   24.9850 H   0  0  0  0  0  0  0  0  0  0  0  0
  -24.1880  -36.7540   23.0860 C   0  0  0  0  0  1  0  0  0  0  0  0
  -25.4340  -36.3450   23.8870 C   0  0  0  0  0  3  0  0  0  0  0  0
  -27.5740  -37.2230   24.7090 C   0  0  0  0  0  1  0  0  0  0  0  0
  -26.4650  -37.3990   23.7750 N   0  0  0  0  0  0  0  0  0  0  0  0
  -26.0610  -38.3190   23.9350 H   0  0  0  0  0  0  0  0  0  0  0  0
  -26.4330  -31.7310   25.1010 C   0  0  1  0  0  0  0  0  0  0  0  0
  -25.3540  -31.4880   26.1820 C   0  0  0  0  0  1  0  0  0  0  0  0
  -27.0120  -30.3560   24.6920 C   0  0  0  0  0  1  0  0  0  0  0  0
  -27.5910  -32.5230   25.7540 C   0  0  0  0  0  1  0  0  0  0  0  0
  4  2  1  0
  4  5  1  0
  4  6  1  0
  5  3  1  0
  5  7  1  0
  6 12  1  0
  6  1  1  0
  7  1  1  0
  7 57  1  0
  8  2  1  0
  8  3  1  0
  9  8  1  0
 10  8  1  0
 12 11  1  0
 12 13  1  0
 13 14  1  0
 14 17  1  0
 14 16  1  0
 15 14  1  0
 17 18  1  0
 18 27  1  0
 19 27  1  0
 20 25  1  0
 21 22  1  0
 21 20  1  0
 23 22  1  0
 23 32  1  0
 23 24  1  0
 25 19  1  0
 25 24  1  0
 26 19  2  0
 27 28  1  0
 29 30  2  0
 30 49  1  0
 31 30  1  0
 31 34  1  0
 32 29  1  0
 32 33  1  0
 33 31  2  0
 34 35  1  0
 35 36  2  0
 37 40  1  0
 37 36  1  0
 38 37  2  0
 39 38  1  0
 39 34  2  0
 40 41  1  0
 41 42  1  0
 42 43  2  0
 44 43  1  0
 44 48  1  0
 45 44  2  0
 46 41  2  0
 46 45  1  0
 47 46  1  0
 49 50  1  0
 50 53  1  0
 50 52  1  0
 51 49  2  0
 54 55  1  0
 54 29  1  0
 56 54  1  0
 58 69  2  0
 59 57  1  0
 59 64  1  0
 60 68  1  0
 60 70  1  0
 61 67  1  0
 61 63  1  0
 62 68  1  0
 63 62  1  0
 64 63  2  0
 65 66  1  0
 65 59  2  0
 66 61  2  0
 67 60  1  0
 68 58  1  0
 70 72  2  0
 71 70  1  0
 73 71  1  0
 74 83  2  0
 74 79  1  0
 75 71  1  0
 75 79  1  0
 76 75  1  0
 77 78  1  0
 77 76  1  0
 78 74  1  0
 79 80  2  0
 80 81  1  0
 82 81  2  0
 83 82  1  0
 84 58  1  0
 84 85  1  0
 84 94  1  0
 85 88  1  0
 86 90  1  0
 86 85  1  0
 87 86  2  0
 90 89  1  0
 92 90  1  0
 92 93  1  0
 92 91  1  0
 94 97  1  1
 94 95  1  0
 96 94  1  0
M  ISO  4   7 101  19 100  27 100  57 101
M  END
>  <TORSDO>  (17) 
F 21

>  <SCORE>  (17) 
-13.388

>  <name>  (17) 
16

>  <ligand_id>  (17) 
16

>  <original_smiles>  (17) 
[H]c1c([H])c([H])c2c(c1[H])C([H])([H])C([H])([H])C([H])([H])C2([H])N([H])C(=O)C1([H])N(C(=O)C([H])(N([H])C(=O)C([H])(N([H])C([H])([H])[H])C([H])([H])[H])C(C([H])([H])[H])(C([H])([H])[H])C([H])([H])[H])C([H])([H])c2c([H])c(OC3([H])C([H])([H])C([H])(C([H])(C([H])([H])[H])C([H])([H])[N+]([H])([H])C([H])([H])C([H])([H])N([H])C(=O)N4C([H])([H])C([H])([H])C([H])([H])C([H])(n5nc(-c6c([H])c([H])c(Oc7c([H])c([H])c(F)c([H])c7F)c([H])c6[H])c(C(=O)N([H])[H])c5N([H])[H])C4([H])[H])C4([H])C3([H])C([H])([H])[N+]([H])([H])C4([H])[H])c([H])c([H])c2C1([H])[H]

>  <smiles>  (17) 
[H]c1c([H])c([H])c2c(c1[H])C([H])([H])C([H])([H])C([H])([H])C2([H])N([H])C(=O)C1([H])N(C(=O)C([H])(N([H])C(=O)C([H])(N([H])C([H])([H])[H])C([H])([H])[H])C(C([H])([H])[H])(C([H])([H])[H])C([H])([H])[H])C([H])([H])c2c([H])c(OC3([H])C([H])([H])C([H])(C([H])(C([H])([H])[H])C([H])([H])[N+]([H])([H])C([H])([H])C([H])([H])N([H])C(=O)N4C([H])([H])C([H])([H])C([H])([H])C([H])(n5nc(-c6c([H])c([H])c(Oc7c([H])c([H])c(F)c([H])c7F)c([H])c6[H])c(C(=O)N([H])[H])c5N([H])[H])C4([H])[H])C4([H])C3([H])C([H])([H])[N+]([H])([H])C4([H])[H])c([H])c([H])c2C1([H])[H]

$$$$
17:0:0
     RDKit          3D

 92100  0  0  1  0  0  0  0  0999 V2000
  -29.7140  -21.9080   20.4680 C   0  0  0  0  0  2  0  0  0  0  0  0
  -28.9920  -23.0370   21.1100 N   0  0  0  0  0  4  0  0  0  0  0  0
  -29.0930  -22.9710   22.1120 H   0  0  0  0  0  0  0  0  0  0  0  0
  -28.0130  -22.9120   20.9050 H   0  0  0  0  0  0  0  0  0  0  0  0
  -29.3770  -24.4120   20.6730 C   0  0  0  0  0  2  0  0  0  0  0  0
  -28.1200  -25.2680   20.4170 C   0  0  0  0  0  2  0  0  0  0  0  0
  -28.3560  -26.6700   20.1850 O   0  0  0  0  0  0  0  0  0  0  0  0
  -24.5860  -31.8810   23.2430 C   0  0  0  0  0  0  0  0  0  0  0  0
  -27.2030  -27.4350   20.1450 C   0  0  0  0  0  0  0  0  0  0  0  0
  -23.3710  -30.4890   21.6030 C   0  0  0  0  0  3  0  0  0  0  0  0
  -24.8160  -28.9600   20.1650 C   0  0  0  0  0  0  0  0  0  0  0  0
  -25.8980  -30.8410   21.3980 C   0  0  0  0  0  2  0  0  0  0  0  0
  -25.9790  -29.4740   20.7520 C   0  0  0  0  0  0  0  0  0  0  0  0
  -27.1780  -28.7210   20.7370 C   0  0  0  0  0  3  0  0  0  0  0  0
  -26.0200  -26.9500   19.5370 C   0  0  0  0  0  3  0  0  0  0  0  0
  -24.8320  -27.6990   19.5520 C   0  0  0  0  0  3  0  0  0  0  0  0
  -23.5720  -29.8170   20.2200 C   0  0  0  0  0  2  0  0  0  0  0  0
  -24.6370  -31.0850   22.1390 N   0  0  0  0  0  0  0  0  0  0  0  0
  -23.5070  -32.1550   23.7880 O   0  0  0  0  0  0  0  0  0  0  0  0
  -22.7220  -29.4630   22.5610 C   0  0  0  0  0  0  0  0  0  0  0  0
  -21.3970  -29.2790   22.4350 N   0  0  0  0  0  0  0  0  0  0  0  0
  -23.4080  -28.8360   23.3730 O   0  0  0  0  0  0  0  0  0  0  0  0
  -20.9060  -29.8350   21.7490 H   0  0  0  0  0  0  0  0  0  0  0  0
  -18.0270  -28.0760   22.9240 C   0  0  0  0  0  0  0  0  0  0  0  0
  -20.5820  -28.3400   23.2050 C   0  0  0  0  0  3  0  0  0  0  0  0
  -20.6910  -26.9080   22.6320 C   0  0  0  0  0  2  0  0  0  0  0  0
  -19.5940  -26.5800   21.6150 C   0  0  0  0  0  2  0  0  0  0  0  0
  -18.2090  -26.7250   22.2530 C   0  0  0  0  0  2  0  0  0  0  0  0
  -19.1410  -28.8410   23.3560 C   0  0  0  0  0  0  0  0  0  0  0  0
  -18.9190  -30.1060   23.9420 C   0  0  0  0  0  3  0  0  0  0  0  0
  -17.6130  -30.6060   24.0990 C   0  0  0  0  0  3  0  0  0  0  0  0
  -16.5120  -29.8370   23.6850 C   0  0  0  0  0  3  0  0  0  0  0  0
  -16.7200  -28.5750   23.1030 C   0  0  0  0  0  3  0  0  0  0  0  0
  -25.8770  -32.5080   23.8590 C   0  0  0  0  0  3  0  0  0  0  0  0
  -25.5730  -33.9060   24.1930 N   0  0  0  0  0  0  0  0  0  0  0  0
  -25.9070  -34.9580   23.4330 C   0  0  0  0  0  0  0  0  0  0  0  0
  -26.5750  -34.8540   22.3990 O   0  0  0  0  0  0  0  0  0  0  0  0
  -24.9790  -34.0610   24.9930 H   0  0  0  0  0  0  0  0  0  0  0  0
  -24.1820  -36.7530   23.0820 C   0  0  0  0  0  1  0  0  0  0  0  0
  -25.4230  -36.3450   23.8930 C   0  0  0  0  0  3  0  0  0  0  0  0
  -27.5610  -37.2210   24.7220 C   0  0  0  0  0  1  0  0  0  0  0  0
  -26.4580  -37.3960   23.7810 N   0  0  0  0  0  0  0  0  0  0  0  0
  -26.0550  -38.3160   23.9340 H   0  0  0  0  0  0  0  0  0  0  0  0
  -26.4010  -31.7300   25.1270 C   0  0  1  0  0  0  0  0  0  0  0  0
  -25.3150  -31.4880   26.2010 C   0  0  0  0  0  1  0  0  0  0  0  0
  -26.9790  -30.3540   24.7220 C   0  0  0  0  0  1  0  0  0  0  0  0
  -27.5590  -32.5180   25.7840 C   0  0  0  0  0  1  0  0  0  0  0  0
  -29.0920  -20.5260   20.8330 C   0  0  0  0  0  2  0  0  0  0  0  0
  -30.8310  -18.2530   18.2510 C   0  0  0  0  0  3  0  0  0  0  0  0
  -30.3270  -19.3950   18.8920 C   0  0  0  0  0  3  0  0  0  0  0  0
  -30.7170  -16.9930   18.8590 C   0  0  0  0  0  3  0  0  0  0  0  0
  -29.5850  -18.0110   20.7610 C   0  0  0  0  0  3  0  0  0  0  0  0
  -29.7000  -19.2910   20.1540 C   0  0  0  0  0  0  0  0  0  0  0  0
  -30.1060  -16.8510   20.1310 C   0  0  0  0  0  0  0  0  0  0  0  0
  -30.6910  -14.4700   20.4570 C   0  0  0  0  0  0  0  0  0  0  0  0
  -30.3770  -12.3000   19.3660 C   0  0  0  0  0  2  0  0  0  0  0  0
  -29.4580  -12.5290   18.1490 C   0  0  0  0  0  2  0  0  0  0  0  0
  -27.9770  -12.4110   18.5580 C   0  0  0  0  0  2  0  0  0  0  0  0
  -27.6310  -13.2420   19.8240 C   0  0  0  0  0  3  0  0  0  0  0  0
  -28.6770  -13.0260   20.9430 C   0  0  0  0  0  2  0  0  0  0  0  0
  -30.0100  -13.2970   20.3820 N   0  0  0  0  0  0  0  0  0  0  0  0
  -31.8660  -14.5810   20.0980 O   0  0  0  0  0  0  0  0  0  0  0  0
  -29.9540  -15.5620   20.7450 N   0  0  0  0  0  0  0  0  0  0  0  0
  -29.0890  -15.3990   21.2380 H   0  0  0  0  0  0  0  0  0  0  0  0
  -25.2240  -13.8450   20.5030 C   0  0  0  0  0  0  0  0  0  0  0  0
  -24.1550  -13.0710   20.8680 C   0  0  0  0  0  0  0  0  0  0  0  0
  -24.6220  -11.7210   20.8560 C   0  0  0  0  0  0  0  0  0  0  0  0
  -26.2750  -12.9650   20.2910 N   0  0  0  0  0  0  0  0  0  0  0  0
  -25.9160  -11.6830   20.5610 N   0  0  0  0  0  0  0  0  0  0  0  0
  -23.8990  -10.4570   21.0500 C   0  0  0  0  0  0  0  0  0  0  0  0
  -24.3340   -9.4910   21.9830 C   0  0  0  0  0  3  0  0  0  0  0  0
  -23.6100   -8.2940   22.1650 C   0  0  0  0  0  3  0  0  0  0  0  0
  -22.4360   -8.0540   21.4120 C   0  0  0  0  0  0  0  0  0  0  0  0
  -22.0200   -9.0080   20.4670 C   0  0  0  0  0  3  0  0  0  0  0  0
  -22.7460  -10.1970   20.2830 C   0  0  0  0  0  3  0  0  0  0  0  0
  -21.6800   -6.9090   21.5050 O   0  0  0  0  0  0  0  0  0  0  0  0
  -21.6480   -6.1580   22.6520 C   0  0  0  0  0  0  0  0  0  0  0  0
  -21.2490   -6.7070   23.8910 C   0  0  0  0  0  3  0  0  0  0  0  0
  -21.1650   -5.8820   25.0310 C   0  0  0  0  0  3  0  0  0  0  0  0
  -21.4680   -4.5110   24.9330 C   0  0  0  0  0  0  0  0  0  0  0  0
  -21.8610   -3.9620   23.6990 C   0  0  0  0  0  3  0  0  0  0  0  0
  -21.9480   -4.7830   22.5620 C   0  0  0  0  0  0  0  0  0  0  0  0
  -22.3070   -4.2460   21.3710 F   0  0  0  0  0  0  0  0  0  0  0  0
  -21.3800   -3.7170   26.0250 F   0  0  0  0  0  0  0  0  0  0  0  0
  -22.7530  -13.5460   21.1200 C   0  0  0  0  0  0  0  0  0  0  0  0
  -22.0190  -12.8540   21.9850 N   0  0  0  0  0  0  0  0  0  0  0  0
  -22.3170  -14.5650   20.5860 O   0  0  0  0  0  0  0  0  0  0  0  0
  -22.3840  -12.0300   22.4380 H   0  0  0  0  0  0  0  0  0  0  0  0
  -21.0780  -13.1530   22.1980 H   0  0  0  0  0  0  0  0  0  0  0  0
  -25.3870  -15.2140   20.3140 N   0  0  0  0  0  0  0  0  0  0  0  0
  -24.6180  -15.8670   20.4080 H   0  0  0  0  0  0  0  0  0  0  0  0
  -26.2380  -15.6490   19.9790 H   0  0  0  0  0  0  0  0  0  0  0  0
  1 48  1  0
  1  2  1  0
  2  3  1  0
  4  2  1  0
  5  2  1  0
  6  5  1  0
  7  6  1  0
  8 19  2  0
  9  7  1  0
  9 14  1  0
 10 18  1  0
 10 20  1  0
 11 17  1  0
 11 13  1  0
 12 18  1  0
 13 12  1  0
 14 13  2  0
 15 16  1  0
 15  9  2  0
 16 11  2  0
 17 10  1  0
 18  8  1  0
 20 22  2  0
 21 20  1  0
 23 21  1  0
 24 33  2  0
 24 29  1  0
 25 21  1  0
 25 29  1  0
 26 25  1  0
 27 28  1  0
 27 26  1  0
 28 24  1  0
 29 30  2  0
 30 31  1  0
 32 31  2  0
 33 32  1  0
 34  8  1  0
 34 35  1  0
 34 44  1  0
 35 38  1  0
 36 40  1  0
 36 35  1  0
 37 36  2  0
 40 39  1  0
 42 40  1  0
 42 43  1  0
 42 41  1  0
 44 47  1  1
 44 45  1  0
 46 44  1  0
 49 51  2  0
 49 50  1  0
 50 53  2  0
 51 54  1  0
 53 52  1  0
 53 48  1  0
 54 63  1  0
 54 52  2  0
 55 63  1  0
 56 61  1  0
 57 58  1  0
 57 56  1  0
 59 58  1  0
 59 68  1  0
 59 60  1  0
 61 55  1  0
 61 60  1  0
 62 55  2  0
 63 64  1  0
 65 66  2  0
 66 85  1  0
 67 66  1  0
 67 70  1  0
 68 65  1  0
 68 69  1  0
 69 67  2  0
 70 71  1  0
 71 72  2  0
 73 76  1  0
 73 72  1  0
 74 73  2  0
 75 74  1  0
 75 70  2  0
 76 77  1  0
 77 78  1  0
 78 79  2  0
 80 79  1  0
 80 84  1  0
 81 80  2  0
 82 77  2  0
 82 81  1  0
 83 82  1  0
 85 86  1  0
 86 89  1  0
 86 88  1  0
 87 85  2  0
 90 91  1  0
 90 65  1  0
 92 90  1  0
M  ISO  4   6 101   7 101  55 100  63 100
M  END
>  <TORSDO>  (18) 
F 21

>  <SCORE>  (18) 
-13.538

>  <name>  (18) 
17

>  <ligand_id>  (18) 
17

>  <original_smiles>  (18) 
[H]c1c([H])c([H])c2c(c1[H])C([H])([H])C([H])([H])C([H])([H])C2([H])N([H])C(=O)C1([H])N(C(=O)C([H])(N([H])C(=O)C([H])(N([H])C([H])([H])[H])C([H])([H])[H])C(C([H])([H])[H])(C([H])([H])[H])C([H])([H])[H])C([H])([H])c2c([H])c(OC([H])([H])C([H])([H])[N+]([H])([H])C([H])([H])C([H])([H])c3c([H])c([H])c([H])c(N([H])C(=O)N4C([H])([H])C([H])([H])C([H])([H])C([H])(n5nc(-c6c([H])c([H])c(Oc7c([H])c([H])c(F)c([H])c7F)c([H])c6[H])c(C(=O)N([H])[H])c5N([H])[H])C4([H])[H])c3[H])c([H])c([H])c2C1([H])[H]

>  <smiles>  (18) 
[H]c1c([H])c([H])c2c(c1[H])C([H])([H])C([H])([H])C([H])([H])C2([H])N([H])C(=O)C1([H])N(C(=O)C([H])(N([H])C(=O)C([H])(N([H])C([H])([H])[H])C([H])([H])[H])C(C([H])([H])[H])(C([H])([H])[H])C([H])([H])[H])C([H])([H])c2c([H])c(OC([H])([H])C([H])([H])[N+]([H])([H])C([H])([H])C([H])([H])c3c([H])c([H])c([H])c(N([H])C(=O)N4C([H])([H])C([H])([H])C([H])([H])C([H])(n5nc(-c6c([H])c([H])c(Oc7c([H])c([H])c(F)c([H])c7F)c([H])c6[H])c(C(=O)N([H])[H])c5N([H])[H])C4([H])[H])c3[H])c([H])c([H])c2C1([H])[H]

$$$$
18:0:0
     RDKit          3D

 93101  0  0  1  0  0  0  0  0999 V2000
  -30.1710  -22.5440   20.8690 C   0  0  0  0  0  2  0  0  0  0  0  0
  -29.5800  -23.8140   20.3670 N   0  0  0  0  0  4  0  0  0  0  0  0
  -28.6250  -23.6320   20.1010 H   0  0  0  0  0  0  0  0  0  0  0  0
  -30.0660  -24.1070   19.5330 H   0  0  0  0  0  0  0  0  0  0  0  0
  -29.6190  -24.9330   21.3470 C   0  0  0  0  0  2  0  0  0  0  0  0
  -28.3780  -25.8450   21.2980 C   0  0  0  0  0  2  0  0  0  0  0  0
  -28.3980  -26.7760   20.2120 O   0  0  0  0  0  0  0  0  0  0  0  0
  -24.5890  -31.9570   23.2520 C   0  0  0  0  0  0  0  0  0  0  0  0
  -27.2500  -27.5310   20.1840 C   0  0  0  0  0  0  0  0  0  0  0  0
  -23.3860  -30.5470   21.6110 C   0  0  0  0  0  3  0  0  0  0  0  0
  -24.8460  -29.0080   20.1940 C   0  0  0  0  0  0  0  0  0  0  0  0
  -25.9080  -30.9190   21.4110 C   0  0  0  0  0  2  0  0  0  0  0  0
  -26.0010  -29.5460   20.7780 C   0  0  0  0  0  0  0  0  0  0  0  0
  -27.2080  -28.8140   20.7720 C   0  0  0  0  0  3  0  0  0  0  0  0
  -26.0850  -27.0020   19.5930 C   0  0  0  0  0  3  0  0  0  0  0  0
  -24.8820  -27.7330   19.5990 C   0  0  0  0  0  3  0  0  0  0  0  0
  -23.5980  -29.8600   20.2360 C   0  0  0  0  0  2  0  0  0  0  0  0
  -24.6460  -31.1550   22.1510 N   0  0  0  0  0  0  0  0  0  0  0  0
  -23.5080  -32.2300   23.7910 O   0  0  0  0  0  0  0  0  0  0  0  0
  -22.7360  -29.5300   22.5760 C   0  0  0  0  0  0  0  0  0  0  0  0
  -21.4140  -29.3400   22.4430 N   0  0  0  0  0  0  0  0  0  0  0  0
  -23.4190  -28.9140   23.3990 O   0  0  0  0  0  0  0  0  0  0  0  0
  -20.9240  -29.8890   21.7500 H   0  0  0  0  0  0  0  0  0  0  0  0
  -18.0450  -28.1240   22.9190 C   0  0  0  0  0  0  0  0  0  0  0  0
  -20.5980  -28.4020   23.2140 C   0  0  0  0  0  3  0  0  0  0  0  0
  -20.7170  -26.9670   22.6530 C   0  0  0  0  0  2  0  0  0  0  0  0
  -19.6270  -26.6260   21.6300 C   0  0  0  0  0  2  0  0  0  0  0  0
  -18.2390  -26.7680   22.2590 C   0  0  0  0  0  2  0  0  0  0  0  0
  -19.1540  -28.8970   23.3540 C   0  0  0  0  0  0  0  0  0  0  0  0
  -18.9210  -30.1650   23.9290 C   0  0  0  0  0  3  0  0  0  0  0  0
  -17.6120  -30.6600   24.0750 C   0  0  0  0  0  3  0  0  0  0  0  0
  -16.5170  -29.8830   23.6570 C   0  0  0  0  0  3  0  0  0  0  0  0
  -16.7340  -28.6170   23.0850 C   0  0  0  0  0  3  0  0  0  0  0  0
  -25.8750  -32.5920   23.8690 C   0  0  0  0  0  3  0  0  0  0  0  0
  -25.5700  -33.9930   24.1840 N   0  0  0  0  0  0  0  0  0  0  0  0
  -25.9130  -35.0370   23.4170 C   0  0  0  0  0  0  0  0  0  0  0  0
  -26.5920  -34.9200   22.3930 O   0  0  0  0  0  0  0  0  0  0  0  0
  -24.9680  -34.1580   24.9790 H   0  0  0  0  0  0  0  0  0  0  0  0
  -24.1970  -36.8320   23.0260 C   0  0  0  0  0  1  0  0  0  0  0  0
  -25.4260  -36.4300   23.8570 C   0  0  0  0  0  3  0  0  0  0  0  0
  -27.5560  -37.3120   24.7040 C   0  0  0  0  0  1  0  0  0  0  0  0
  -26.4660  -37.4770   23.7460 N   0  0  0  0  0  0  0  0  0  0  0  0
  -26.0620  -38.4000   23.8810 H   0  0  0  0  0  0  0  0  0  0  0  0
  -26.3910  -31.8280   25.1500 C   0  0  1  0  0  0  0  0  0  0  0  0
  -25.2990  -31.6000   26.2210 C   0  0  0  0  0  1  0  0  0  0  0  0
  -26.9720  -30.4480   24.7660 C   0  0  0  0  0  1  0  0  0  0  0  0
  -27.5430  -32.6260   25.8070 C   0  0  0  0  0  1  0  0  0  0  0  0
  -30.4770  -21.5210   19.7560 C   0  0  0  0  0  2  0  0  0  0  0  0
  -32.7580  -18.8490   21.3070 C   0  0  0  0  0  3  0  0  0  0  0  0
  -32.3080  -20.0990   20.8410 C   0  0  0  0  0  3  0  0  0  0  0  0
  -31.9090  -17.7340   21.1820 C   0  0  0  0  0  3  0  0  0  0  0  0
  -31.0210  -20.1930   20.2800 C   0  0  0  0  0  0  0  0  0  0  0  0
  -30.6430  -17.9080   20.5950 C   0  0  0  0  0  0  0  0  0  0  0  0
  -30.2070  -19.1180   20.1740 N   0  0  0  0  0  0  0  0  0  0  0  0
  -29.6660  -16.7640   20.3510 C   0  0  0  0  0  2  0  0  0  0  0  0
  -30.6500  -14.5070   20.3150 C   0  0  0  0  0  0  0  0  0  0  0  0
  -30.3300  -12.3780   19.1230 C   0  0  0  0  0  2  0  0  0  0  0  0
  -29.3490  -12.6340   17.9570 C   0  0  0  0  0  2  0  0  0  0  0  0
  -27.8870  -12.4920   18.4270 C   0  0  0  0  0  2  0  0  0  0  0  0
  -27.5960  -13.2870   19.7280 C   0  0  0  0  0  3  0  0  0  0  0  0
  -28.6840  -13.0020   20.7920 C   0  0  0  0  0  2  0  0  0  0  0  0
  -30.0020  -13.3160   20.2080 N   0  0  0  0  0  0  0  0  0  0  0  0
  -31.7040  -14.7620   19.7300 O   0  0  0  0  0  0  0  0  0  0  0  0
  -29.9480  -15.4560   20.9470 N   0  0  0  0  0  0  0  0  0  0  0  0
  -29.2040  -15.1070   21.5290 H   0  0  0  0  0  0  0  0  0  0  0  0
  -25.2100  -13.8850   20.4960 C   0  0  0  0  0  0  0  0  0  0  0  0
  -24.1560  -13.1060   20.8920 C   0  0  0  0  0  0  0  0  0  0  0  0
  -24.6230  -11.7560   20.8430 C   0  0  0  0  0  0  0  0  0  0  0  0
  -26.2540  -13.0080   20.2360 N   0  0  0  0  0  0  0  0  0  0  0  0
  -25.9030  -11.7240   20.4970 N   0  0  0  0  0  0  0  0  0  0  0  0
  -23.9080  -10.4900   21.0460 C   0  0  0  0  0  0  0  0  0  0  0  0
  -24.3690   -9.5230   21.9680 C   0  0  0  0  0  3  0  0  0  0  0  0
  -23.6550   -8.3210   22.1610 C   0  0  0  0  0  3  0  0  0  0  0  0
  -22.4660   -8.0770   21.4330 C   0  0  0  0  0  0  0  0  0  0  0  0
  -22.0240   -9.0310   20.5010 C   0  0  0  0  0  3  0  0  0  0  0  0
  -22.7380  -10.2250   20.3060 C   0  0  0  0  0  3  0  0  0  0  0  0
  -21.7230   -6.9260   21.5350 O   0  0  0  0  0  0  0  0  0  0  0  0
  -21.7040   -6.1800   22.6870 C   0  0  0  0  0  0  0  0  0  0  0  0
  -21.3050   -6.7300   23.9240 C   0  0  0  0  0  3  0  0  0  0  0  0
  -21.2350   -5.9110   25.0690 C   0  0  0  0  0  3  0  0  0  0  0  0
  -21.5530   -4.5430   24.9770 C   0  0  0  0  0  0  0  0  0  0  0  0
  -21.9460   -3.9920   23.7450 C   0  0  0  0  0  3  0  0  0  0  0  0
  -22.0180   -4.8090   22.6020 C   0  0  0  0  0  0  0  0  0  0  0  0
  -22.3770   -4.2690   21.4130 F   0  0  0  0  0  0  0  0  0  0  0  0
  -21.4770   -3.7540   26.0750 F   0  0  0  0  0  0  0  0  0  0  0  0
  -22.7640  -13.5750   21.2070 C   0  0  0  0  0  0  0  0  0  0  0  0
  -22.0630  -12.8710   22.0900 N   0  0  0  0  0  0  0  0  0  0  0  0
  -22.3060  -14.6020   20.7060 O   0  0  0  0  0  0  0  0  0  0  0  0
  -22.4460  -12.0420   22.5180 H   0  0  0  0  0  0  0  0  0  0  0  0
  -21.1310  -13.1680   22.3420 H   0  0  0  0  0  0  0  0  0  0  0  0
  -25.3630  -15.2560   20.3180 N   0  0  0  0  0  0  0  0  0  0  0  0
  -24.5940  -15.9060   20.4380 H   0  0  0  0  0  0  0  0  0  0  0  0
  -26.1970  -15.6950   19.9450 H   0  0  0  0  0  0  0  0  0  0  0  0
  2  1  1  0
  2  5  1  0
  3  2  1  0
  4  2  1  0
  6  5  1  0
  7  6  1  0
  8 19  2  0
  9  7  1  0
  9 14  1  0
 10 18  1  0
 10 20  1  0
 11 17  1  0
 11 13  1  0
 12 18  1  0
 13 12  1  0
 14 13  2  0
 15 16  1  0
 15  9  2  0
 16 11  2  0
 17 10  1  0
 18  8  1  0
 20 22  2  0
 21 20  1  0
 23 21  1  0
 24 33  2  0
 24 29  1  0
 25 21  1  0
 25 29  1  0
 26 25  1  0
 27 28  1  0
 27 26  1  0
 28 24  1  0
 29 30  2  0
 30 31  1  0
 32 31  2  0
 33 32  1  0
 34  8  1  0
 34 35  1  0
 34 44  1  0
 35 38  1  0
 36 40  1  0
 36 35  1  0
 37 36  2  0
 40 39  1  0
 42 40  1  0
 42 43  1  0
 42 41  1  0
 44 47  1  1
 44 45  1  0
 46 44  1  0
 48 52  1  0
 48  1  1  0
 50 49  2  0
 51 49  1  0
 52 50  1  0
 53 51  2  0
 54 52  2  0
 54 53  1  0
 55 53  1  0
 55 64  1  0
 56 64  1  0
 57 62  1  0
 58 59  1  0
 58 57  1  0
 60 59  1  0
 60 69  1  0
 60 61  1  0
 62 56  1  0
 62 61  1  0
 63 56  2  0
 64 65  1  0
 66 67  2  0
 67 86  1  0
 68 67  1  0
 68 71  1  0
 69 66  1  0
 69 70  1  0
 70 68  2  0
 71 72  1  0
 72 73  2  0
 74 77  1  0
 74 73  1  0
 75 74  2  0
 76 75  1  0
 76 71  2  0
 77 78  1  0
 78 79  1  0
 79 80  2  0
 81 80  1  0
 81 85  1  0
 82 81  2  0
 83 78  2  0
 83 82  1  0
 84 83  1  0
 86 87  1  0
 87 90  1  0
 87 89  1  0
 88 86  2  0
 91 92  1  0
 91 66  1  0
 93 91  1  0
M  ISO  4   6 101   7 101  56 100  64 100
M  END
>  <TORSDO>  (19) 
F 22

>  <SCORE>  (19) 
-13.159

>  <name>  (19) 
18

>  <ligand_id>  (19) 
18

>  <original_smiles>  (19) 
[H]c1c(C([H])([H])N([H])C(=O)N2C([H])([H])C([H])([H])C([H])([H])C([H])(n3nc(-c4c([H])c([H])c(Oc5c([H])c([H])c(F)c([H])c5F)c([H])c4[H])c(C(=O)N([H])[H])c3N([H])[H])C2([H])[H])nc(C([H])([H])C([H])([H])[N+]([H])([H])C([H])([H])C([H])([H])Oc2c([H])c([H])c3c(c2[H])C([H])([H])N(C(=O)C([H])(N([H])C(=O)C([H])(N([H])C([H])([H])[H])C([H])([H])[H])C(C([H])([H])[H])(C([H])([H])[H])C([H])([H])[H])C([H])(C(=O)N([H])C2([H])c4c([H])c([H])c([H])c([H])c4C([H])([H])C([H])([H])C2([H])[H])C3([H])[H])c([H])c1[H]

>  <smiles>  (19) 
[H]c1c(C([H])([H])N([H])C(=O)N2C([H])([H])C([H])([H])C([H])([H])C([H])(n3nc(-c4c([H])c([H])c(Oc5c([H])c([H])c(F)c([H])c5F)c([H])c4[H])c(C(=O)N([H])[H])c3N([H])[H])C2([H])[H])nc(C([H])([H])C([H])([H])[N+]([H])([H])C([H])([H])C([H])([H])Oc2c([H])c([H])c3c(c2[H])C([H])([H])N(C(=O)C([H])(N([H])C(=O)C([H])(N([H])C([H])([H])[H])C([H])([H])[H])C(C([H])([H])[H])(C([H])([H])[H])C([H])([H])[H])C([H])(C(=O)N([H])C2([H])c4c([H])c([H])c([H])c([H])c4C([H])([H])C([H])([H])C2([H])[H])C3([H])[H])c([H])c1[H]

$$$$
19:0:0
     RDKit          3D

 92100  0  0  1  0  0  0  0  0999 V2000
  -28.9640  -21.5520   20.6720 C   0  0  0  0  0  2  0  0  0  0  0  0
  -30.3740  -19.4430   19.6870 C   0  0  0  0  0  3  0  0  0  0  0  0
  -30.5820  -18.0180   19.6060 C   0  0  0  0  0  3  0  0  0  0  0  0
  -28.4940  -19.0710   21.1240 C   0  0  0  0  0  3  0  0  0  0  0  0
  -29.3040  -20.0140   20.4450 C   0  0  0  0  0  0  0  0  0  0  0  0
  -28.7050  -17.6660   21.0730 C   0  0  0  0  0  0  0  0  0  0  0  0
  -29.7480  -17.0870   20.2990 C   0  0  0  0  0  0  0  0  0  0  0  0
  -27.7900  -16.7730   21.8980 C   0  0  0  0  0  1  0  0  0  0  0  0
  -30.5170  -14.6410   19.6210 C   0  0  0  0  0  0  0  0  0  0  0  0
  -30.1470  -12.4680   18.4530 C   0  0  0  0  0  2  0  0  0  0  0  0
  -29.0520  -12.6780   17.3810 C   0  0  0  0  0  2  0  0  0  0  0  0
  -27.6420  -12.5230   17.9860 C   0  0  0  0  0  2  0  0  0  0  0  0
  -27.4730  -13.3110   19.3110 C   0  0  0  0  0  3  0  0  0  0  0  0
  -28.6580  -13.0500   20.2690 C   0  0  0  0  0  2  0  0  0  0  0  0
  -29.8940  -13.4190   19.5540 N   0  0  0  0  0  0  0  0  0  0  0  0
  -31.5980  -14.8460   19.0580 O   0  0  0  0  0  0  0  0  0  0  0  0
  -29.7950  -15.6180   20.2570 N   0  0  0  0  0  0  0  0  0  0  0  0
  -29.0280  -15.2030   20.7640 H   0  0  0  0  0  0  0  0  0  0  0  0
  -25.2180  -13.9290   20.3760 C   0  0  0  0  0  0  0  0  0  0  0  0
  -24.1760  -13.1650   20.8290 C   0  0  0  0  0  0  0  0  0  0  0  0
  -24.5670  -11.8070   20.6230 C   0  0  0  0  0  0  0  0  0  0  0  0
  -26.1840  -13.0360   19.9420 N   0  0  0  0  0  0  0  0  0  0  0  0
  -25.8030  -11.7480   20.1430 N   0  0  0  0  0  0  0  0  0  0  0  0
  -23.8090  -10.5610   20.7960 C   0  0  0  0  0  0  0  0  0  0  0  0
  -24.2820   -9.5190   21.6230 C   0  0  0  0  0  3  0  0  0  0  0  0
  -23.5280   -8.3380   21.7860 C   0  0  0  0  0  3  0  0  0  0  0  0
  -22.2860   -8.1920   21.1240 C   0  0  0  0  0  0  0  0  0  0  0  0
  -21.8310   -9.2230   20.2830 C   0  0  0  0  0  3  0  0  0  0  0  0
  -22.5850  -10.3950   20.1170 C   0  0  0  0  0  3  0  0  0  0  0  0
  -21.4960   -7.0700   21.2050 O   0  0  0  0  0  0  0  0  0  0  0  0
  -21.4800   -6.2810   22.3270 C   0  0  0  0  0  0  0  0  0  0  0  0
  -21.1590   -6.8020   23.6010 C   0  0  0  0  0  3  0  0  0  0  0  0
  -21.0880   -5.9420   24.7150 C   0  0  0  0  0  3  0  0  0  0  0  0
  -21.3280   -4.5630   24.5580 C   0  0  0  0  0  0  0  0  0  0  0  0
  -21.6410   -4.0430   23.2890 C   0  0  0  0  0  3  0  0  0  0  0  0
  -21.7160   -4.9000   22.1770 C   0  0  0  0  0  0  0  0  0  0  0  0
  -21.9980   -4.3900   20.9550 F   0  0  0  0  0  0  0  0  0  0  0  0
  -21.2520   -3.7370   25.6260 F   0  0  0  0  0  0  0  0  0  0  0  0
  -22.8520  -13.6690   21.3270 C   0  0  0  0  0  0  0  0  0  0  0  0
  -22.2240  -12.9410   22.2460 N   0  0  0  0  0  0  0  0  0  0  0  0
  -22.3870  -14.7400   20.9370 O   0  0  0  0  0  0  0  0  0  0  0  0
  -22.6110  -12.0710   22.5810 H   0  0  0  0  0  0  0  0  0  0  0  0
  -21.3440  -13.2630   22.6210 H   0  0  0  0  0  0  0  0  0  0  0  0
  -25.4090  -15.3010   20.2620 N   0  0  0  0  0  0  0  0  0  0  0  0
  -24.6130  -15.9210   20.3710 H   0  0  0  0  0  0  0  0  0  0  0  0
  -26.1240  -15.6870   19.6590 H   0  0  0  0  0  0  0  0  0  0  0  0
  -29.3810  -22.6380   19.7070 N   0  0  0  0  0  4  0  0  0  0  0  0
  -29.4260  -22.1840   18.8100 H   0  0  0  0  0  0  0  0  0  0  0  0
  -30.3220  -22.9260   19.9250 H   0  0  0  0  0  0  0  0  0  0  0  0
  -28.4940  -23.8770   19.4890 C   0  0  0  0  0  2  0  0  0  0  0  0
  -28.5650  -25.1300   20.4740 C   0  0  0  0  0  2  0  0  0  0  0  0
  -28.5050  -26.5120   19.9300 O   0  0  0  0  0  0  0  0  0  0  0  0
  -24.4570  -31.6480   23.0120 C   0  0  0  0  0  0  0  0  0  0  0  0
  -27.3180  -27.2540   19.9540 C   0  0  0  0  0  0  0  0  0  0  0  0
  -23.3370  -30.2090   21.3410 C   0  0  0  0  0  3  0  0  0  0  0  0
  -24.8750  -28.7350   19.9240 C   0  0  0  0  0  0  0  0  0  0  0  0
  -25.8550  -30.6550   21.1840 C   0  0  0  0  0  2  0  0  0  0  0  0
  -26.0100  -29.2860   20.5310 C   0  0  0  0  0  0  0  0  0  0  0  0
  -27.2360  -28.5610   20.5260 C   0  0  0  0  0  3  0  0  0  0  0  0
  -26.1600  -26.7420   19.3350 C   0  0  0  0  0  3  0  0  0  0  0  0
  -24.9510  -27.4690   19.3170 C   0  0  0  0  0  3  0  0  0  0  0  0
  -23.6000  -29.5530   19.9580 C   0  0  0  0  0  2  0  0  0  0  0  0
  -24.5670  -30.8560   21.9040 N   0  0  0  0  0  0  0  0  0  0  0  0
  -23.3580  -31.8680   23.5410 O   0  0  0  0  0  0  0  0  0  0  0  0
  -22.7130  -29.1560   22.2870 C   0  0  0  0  0  0  0  0  0  0  0  0
  -21.3990  -28.9140   22.1400 N   0  0  0  0  0  0  0  0  0  0  0  0
  -23.4120  -28.5600   23.1090 O   0  0  0  0  0  0  0  0  0  0  0  0
  -20.8950  -29.4550   21.4510 H   0  0  0  0  0  0  0  0  0  0  0  0
  -18.0780  -27.5440   22.5670 C   0  0  0  0  0  0  0  0  0  0  0  0
  -20.6150  -27.9320   22.8890 C   0  0  0  0  0  3  0  0  0  0  0  0
  -20.8010  -26.5120   22.3060 C   0  0  0  0  0  2  0  0  0  0  0  0
  -19.7350  -26.1420   21.2680 C   0  0  0  0  0  2  0  0  0  0  0  0
  -18.3360  -26.2090   21.8880 C   0  0  0  0  0  2  0  0  0  0  0  0
  -19.1490  -28.3580   23.0230 C   0  0  0  0  0  0  0  0  0  0  0  0
  -18.8550  -29.6040   23.6210 C   0  0  0  0  0  3  0  0  0  0  0  0
  -17.5240  -30.0370   23.7660 C   0  0  0  0  0  3  0  0  0  0  0  0
  -16.4680  -29.2180   23.3300 C   0  0  0  0  0  3  0  0  0  0  0  0
  -16.7450  -27.9750   22.7340 C   0  0  0  0  0  3  0  0  0  0  0  0
  -25.7050  -32.3300   23.6560 C   0  0  0  0  0  3  0  0  0  0  0  0
  -26.2750  -31.5390   24.8970 C   0  0  1  0  0  0  0  0  0  0  0  0
  -25.2040  -31.1860   25.9540 C   0  0  0  0  0  1  0  0  0  0  0  0
  -26.9470  -30.2230   24.4420 C   0  0  0  0  0  1  0  0  0  0  0  0
  -27.3700  -32.3800   25.5940 C   0  0  0  0  0  1  0  0  0  0  0  0
  -25.3170  -33.6930   24.0480 N   0  0  0  0  0  0  0  0  0  0  0  0
  -25.5780  -34.7950   23.3320 C   0  0  0  0  0  0  0  0  0  0  0  0
  -26.2390  -34.7740   22.2900 O   0  0  0  0  0  0  0  0  0  0  0  0
  -24.7320  -33.7780   24.8660 H   0  0  0  0  0  0  0  0  0  0  0  0
  -23.7470  -36.4980   23.0580 C   0  0  0  0  0  1  0  0  0  0  0  0
  -25.0110  -36.1310   23.8520 C   0  0  0  0  0  3  0  0  0  0  0  0
  -27.0920  -37.1010   24.7190 C   0  0  0  0  0  1  0  0  0  0  0  0
  -25.9790  -37.2460   23.7850 N   0  0  0  0  0  0  0  0  0  0  0  0
  -25.5220  -38.1340   23.9710 H   0  0  0  0  0  0  0  0  0  0  0  0
  2  5  1  0
  3  2  2  0
  3  7  1  0
  5  1  1  0
  5  4  2  0
  6  4  1  0
  6  8  1  0
  7  6  2  0
  9 17  1  0
 10 15  1  0
 11 12  1  0
 11 10  1  0
 13 12  1  0
 13 22  1  0
 13 14  1  0
 15  9  1  0
 15 14  1  0
 16  9  2  0
 17  7  1  0
 17 18  1  0
 19 20  2  0
 20 39  1  0
 21 24  1  0
 21 20  1  0
 22 23  1  0
 22 19  1  0
 23 21  2  0
 24 25  1  0
 25 26  2  0
 27 30  1  0
 27 26  1  0
 28 27  2  0
 29 28  1  0
 29 24  2  0
 30 31  1  0
 31 32  1  0
 32 33  2  0
 34 33  1  0
 34 38  1  0
 35 34  2  0
 36 31  2  0
 36 35  1  0
 37 36  1  0
 39 40  1  0
 40 42  1  0
 40 43  1  0
 41 39  2  0
 44 45  1  0
 44 19  1  0
 46 44  1  0
 47 49  1  0
 47  1  1  0
 48 47  1  0
 50 47  1  0
 50 51  1  0
 52 54  1  0
 52 51  1  0
 53 64  2  0
 54 59  1  0
 55 63  1  0
 55 65  1  0
 56 62  1  0
 56 58  1  0
 57 63  1  0
 58 57  1  0
 59 58  2  0
 60 54  2  0
 61 60  1  0
 61 56  2  0
 62 55  1  0
 63 53  1  0
 65 67  2  0
 66 65  1  0
 68 66  1  0
 69 78  2  0
 69 74  1  0
 70 66  1  0
 70 74  1  0
 71 70  1  0
 72 73  1  0
 72 71  1  0
 73 69  1  0
 74 75  2  0
 75 76  1  0
 77 76  2  0
 78 77  1  0
 79 53  1  0
 79 84  1  0
 79 80  1  0
 80 83  1  1
 80 81  1  0
 82 80  1  0
 84 87  1  0
 85 89  1  0
 85 84  1  0
 86 85  2  0
 89 88  1  0
 91 89  1  0
 91 92  1  0
 91 90  1  0
M  ISO  4   9 100  17 100  51 101  52 101
M  END
>  <TORSDO>  (20) 
F 20

>  <SCORE>  (20) 
-8.481

>  <name>  (20) 
19

>  <ligand_id>  (20) 
19

>  <original_smiles>  (20) 
[H]c1c([H])c([H])c2c(c1[H])C([H])([H])C([H])([H])C([H])([H])C2([H])N([H])C(=O)C1([H])N(C(=O)C([H])(N([H])C(=O)C([H])(N([H])C([H])([H])[H])C([H])([H])[H])C(C([H])([H])[H])(C([H])([H])[H])C([H])([H])[H])C([H])([H])c2c([H])c(OC([H])([H])C([H])([H])[N+]([H])([H])C([H])([H])c3c([H])c([H])c(N([H])C(=O)N4C([H])([H])C([H])([H])C([H])([H])C([H])(n5nc(-c6c([H])c([H])c(Oc7c([H])c([H])c(F)c([H])c7F)c([H])c6[H])c(C(=O)N([H])[H])c5N([H])[H])C4([H])[H])c(C([H])([H])[H])c3[H])c([H])c([H])c2C1([H])[H]

>  <smiles>  (20) 
[H]c1c([H])c([H])c2c(c1[H])C([H])([H])C([H])([H])C([H])([H])C2([H])N([H])C(=O)C1([H])N(C(=O)C([H])(N([H])C(=O)C([H])(N([H])C([H])([H])[H])C([H])([H])[H])C(C([H])([H])[H])(C([H])([H])[H])C([H])([H])[H])C([H])([H])c2c([H])c(OC([H])([H])C([H])([H])[N+]([H])([H])C([H])([H])c3c([H])c([H])c(N([H])C(=O)N4C([H])([H])C([H])([H])C([H])([H])C([H])(n5nc(-c6c([H])c([H])c(Oc7c([H])c([H])c(F)c([H])c7F)c([H])c6[H])c(C(=O)N([H])[H])c5N([H])[H])C4([H])[H])c(C([H])([H])[H])c3[H])c([H])c([H])c2C1([H])[H]

$$$$
20:0:0
     RDKit          3D

 91 99  0  0  1  0  0  0  0  0999 V2000
  -29.3420  -22.8600   18.8770 C   0  0  0  0  0  3  0  0  0  0  0  0
  -29.5470  -21.4830   19.2060 C   0  0  0  0  0  3  0  0  0  0  0  0
  -28.5780  -21.9030   21.3540 C   0  0  0  0  0  3  0  0  0  0  0  0
  -28.7470  -23.8120   19.7620 C   0  0  0  0  0  0  0  0  0  0  0  0
  -28.3380  -23.2770   21.0180 C   0  0  0  0  0  0  0  0  0  0  0  0
  -29.1750  -20.9600   20.4690 C   0  0  0  0  0  0  0  0  0  0  0  0
  -27.6050  -24.1460   22.0240 C   0  0  0  0  0  1  0  0  0  0  0  0
  -29.3630  -19.6010   20.9060 N   0  0  0  0  0  0  0  0  0  0  0  0
  -29.0430  -19.3990   21.8500 H   0  0  0  0  0  0  0  0  0  0  0  0
  -29.7400  -18.3780   20.1280 C   0  0  0  0  0  2  0  0  0  0  0  0
  -30.2680  -17.1700   21.0300 C   0  0  0  0  0  2  0  0  0  0  0  0
  -30.6190  -14.6540   20.4830 C   0  0  0  0  0  0  0  0  0  0  0  0
  -30.3850  -12.4090   19.4380 C   0  0  0  0  0  2  0  0  0  0  0  0
  -29.4560  -12.5350   18.2110 C   0  0  0  0  0  2  0  0  0  0  0  0
  -27.9840  -12.3670   18.6360 C   0  0  0  0  0  2  0  0  0  0  0  0
  -27.6120  -13.2460   19.8620 C   0  0  0  0  0  3  0  0  0  0  0  0
  -28.6640  -13.1240   20.9880 C   0  0  0  0  0  2  0  0  0  0  0  0
  -29.9730  -13.4470   20.4010 N   0  0  0  0  0  0  0  0  0  0  0  0
  -31.8060  -14.7690   20.1760 O   0  0  0  0  0  0  0  0  0  0  0  0
  -29.8470  -15.7570   20.7300 N   0  0  0  0  0  0  0  0  0  0  0  0
  -28.8660  -15.5600   20.8670 H   0  0  0  0  0  0  0  0  0  0  0  0
  -25.2100  -13.8450   20.5420 C   0  0  0  0  0  0  0  0  0  0  0  0
  -24.1390  -13.0710   20.9020 C   0  0  0  0  0  0  0  0  0  0  0  0
  -24.6050  -11.7220   20.8910 C   0  0  0  0  0  0  0  0  0  0  0  0
  -26.2600  -12.9660   20.3350 N   0  0  0  0  0  0  0  0  0  0  0  0
  -25.9010  -11.6850   20.6040 N   0  0  0  0  0  0  0  0  0  0  0  0
  -23.8780  -10.4600   21.0790 C   0  0  0  0  0  0  0  0  0  0  0  0
  -24.3150   -9.4880   22.0060 C   0  0  0  0  0  3  0  0  0  0  0  0
  -23.5880   -8.2910   22.1840 C   0  0  0  0  0  3  0  0  0  0  0  0
  -22.4100   -8.0590   21.4340 C   0  0  0  0  0  0  0  0  0  0  0  0
  -21.9930   -9.0180   20.4970 C   0  0  0  0  0  3  0  0  0  0  0  0
  -22.7210  -10.2080   20.3180 C   0  0  0  0  0  3  0  0  0  0  0  0
  -21.6540   -6.9140   21.5210 O   0  0  0  0  0  0  0  0  0  0  0  0
  -21.6280   -6.1520   22.6610 C   0  0  0  0  0  0  0  0  0  0  0  0
  -21.2490   -6.6940   23.9090 C   0  0  0  0  0  3  0  0  0  0  0  0
  -21.1710   -5.8630   25.0430 C   0  0  0  0  0  3  0  0  0  0  0  0
  -21.4580   -4.4880   24.9320 C   0  0  0  0  0  0  0  0  0  0  0  0
  -21.8300   -3.9460   23.6890 C   0  0  0  0  0  3  0  0  0  0  0  0
  -21.9120   -4.7760   22.5560 C   0  0  0  0  0  0  0  0  0  0  0  0
  -22.2500   -4.2450   21.3570 F   0  0  0  0  0  0  0  0  0  0  0  0
  -21.3740   -3.6870   26.0190 F   0  0  0  0  0  0  0  0  0  0  0  0
  -22.7380  -13.5480   21.1490 C   0  0  0  0  0  0  0  0  0  0  0  0
  -22.0030  -12.8560   22.0120 N   0  0  0  0  0  0  0  0  0  0  0  0
  -22.3040  -14.5690   20.6150 O   0  0  0  0  0  0  0  0  0  0  0  0
  -22.3690  -12.0290   22.4610 H   0  0  0  0  0  0  0  0  0  0  0  0
  -21.0630  -13.1560   22.2290 H   0  0  0  0  0  0  0  0  0  0  0  0
  -25.3640  -15.2150   20.3530 N   0  0  0  0  0  0  0  0  0  0  0  0
  -24.5760  -15.8490   20.4210 H   0  0  0  0  0  0  0  0  0  0  0  0
  -26.2020  -15.6660   20.0100 H   0  0  0  0  0  0  0  0  0  0  0  0
  -28.5080  -25.2930   19.2380 C   0  0  0  0  0  2  0  0  0  0  0  0
  -28.3580  -26.4730   20.1290 O   0  0  0  0  0  0  0  0  0  0  0  0
  -24.6440  -31.8720   23.2040 C   0  0  0  0  0  0  0  0  0  0  0  0
  -27.2270  -27.3140   20.0810 C   0  0  0  0  0  0  0  0  0  0  0  0
  -23.4220  -30.4750   21.5770 C   0  0  0  0  0  3  0  0  0  0  0  0
  -24.8570  -28.9330   20.1240 C   0  0  0  0  0  0  0  0  0  0  0  0
  -25.9580  -30.7930   21.3610 C   0  0  0  0  0  2  0  0  0  0  0  0
  -26.0340  -29.4150   20.7100 C   0  0  0  0  0  0  0  0  0  0  0  0
  -27.2180  -28.6150   20.6840 C   0  0  0  0  0  3  0  0  0  0  0  0
  -26.0160  -26.8810   19.4960 C   0  0  0  0  0  3  0  0  0  0  0  0
  -24.8530  -27.6740   19.5100 C   0  0  0  0  0  3  0  0  0  0  0  0
  -23.6150  -29.7990   20.1950 C   0  0  0  0  0  2  0  0  0  0  0  0
  -24.6960  -31.0630   22.1050 N   0  0  0  0  0  0  0  0  0  0  0  0
  -23.5680  -32.1500   23.7500 O   0  0  0  0  0  0  0  0  0  0  0  0
  -22.7710  -29.4560   22.5440 C   0  0  0  0  0  0  0  0  0  0  0  0
  -21.4430  -29.2800   22.4350 N   0  0  0  0  0  0  0  0  0  0  0  0
  -23.4590  -28.8270   23.3520 O   0  0  0  0  0  0  0  0  0  0  0  0
  -20.9440  -29.8470   21.7630 H   0  0  0  0  0  0  0  0  0  0  0  0
  -18.0750  -28.0740   22.9620 C   0  0  0  0  0  0  0  0  0  0  0  0
  -20.6350  -28.3420   23.2140 C   0  0  0  0  0  3  0  0  0  0  0  0
  -20.7380  -26.9080   22.6420 C   0  0  0  0  0  2  0  0  0  0  0  0
  -19.6290  -26.5800   21.6380 C   0  0  0  0  0  2  0  0  0  0  0  0
  -18.2500  -26.7230   22.2900 C   0  0  0  0  0  2  0  0  0  0  0  0
  -19.1940  -28.8410   23.3810 C   0  0  0  0  0  0  0  0  0  0  0  0
  -18.9750  -30.1080   23.9650 C   0  0  0  0  0  3  0  0  0  0  0  0
  -17.6700  -30.6020   24.1440 C   0  0  0  0  0  3  0  0  0  0  0  0
  -16.5650  -29.8310   23.7430 C   0  0  0  0  0  3  0  0  0  0  0  0
  -16.7680  -28.5710   23.1520 C   0  0  0  0  0  3  0  0  0  0  0  0
  -25.9350  -32.5030   23.8120 C   0  0  0  0  0  3  0  0  0  0  0  0
  -26.4780  -31.7230   25.0720 C   0  0  1  0  0  0  0  0  0  0  0  0
  -25.4060  -31.4670   26.1560 C   0  0  0  0  0  1  0  0  0  0  0  0
  -27.0600  -30.3520   24.6540 C   0  0  0  0  0  1  0  0  0  0  0  0
  -27.6370  -32.5160   25.7220 C   0  0  0  0  0  1  0  0  0  0  0  0
  -25.6250  -33.8970   24.1620 N   0  0  0  0  0  0  0  0  0  0  0  0
  -25.9360  -34.9600   23.4090 C   0  0  0  0  0  0  0  0  0  0  0  0
  -26.5860  -34.8740   22.3640 O   0  0  0  0  0  0  0  0  0  0  0  0
  -25.0500  -34.0400   24.9810 H   0  0  0  0  0  0  0  0  0  0  0  0
  -24.1900  -36.7500   23.1120 C   0  0  0  0  0  1  0  0  0  0  0  0
  -25.4490  -36.3410   23.8940 C   0  0  0  0  0  3  0  0  0  0  0  0
  -27.5970  -37.2260   24.6870 C   0  0  0  0  0  1  0  0  0  0  0  0
  -26.4690  -37.4060   23.7770 N   0  0  0  0  0  0  0  0  0  0  0  0
  -26.0570  -38.3160   23.9670 H   0  0  0  0  0  0  0  0  0  0  0  0
  1  2  2  0
  1  4  1  0
  2  6  1  0
  4  5  2  0
  5  3  1  0
  5  7  1  0
  6  8  1  0
  6  3  2  0
  8  9  1  0
 10  8  1  0
 10 11  1  0
 12 20  1  0
 13 18  1  0
 14 15  1  0
 14 13  1  0
 16 15  1  0
 16 25  1  0
 16 17  1  0
 18 12  1  0
 18 17  1  0
 19 12  2  0
 20 21  1  0
 20 11  1  0
 22 23  2  0
 23 42  1  0
 24 23  1  0
 24 27  1  0
 25 22  1  0
 25 26  1  0
 26 24  2  0
 27 28  1  0
 28 29  2  0
 30 33  1  0
 30 29  1  0
 31 30  2  0
 32 31  1  0
 32 27  2  0
 33 34  1  0
 34 35  1  0
 35 36  2  0
 37 36  1  0
 37 41  1  0
 38 37  2  0
 39 34  2  0
 39 38  1  0
 40 39  1  0
 42 43  1  0
 43 46  1  0
 43 45  1  0
 44 42  2  0
 47 48  1  0
 47 22  1  0
 49 47  1  0
 50  4  1  0
 50 51  1  0
 52 63  2  0
 53 51  1  0
 53 58  1  0
 54 62  1  0
 54 64  1  0
 55 61  1  0
 55 57  1  0
 56 62  1  0
 57 56  1  0
 58 57  2  0
 59 60  1  0
 59 53  2  0
 60 55  2  0
 61 54  1  0
 62 52  1  0
 64 66  2  0
 65 64  1  0
 67 65  1  0
 68 77  2  0
 68 73  1  0
 69 65  1  0
 69 73  1  0
 70 69  1  0
 71 72  1  0
 71 70  1  0
 72 68  1  0
 73 74  2  0
 74 75  1  0
 76 75  2  0
 77 76  1  0
 78 52  1  0
 78 83  1  0
 78 79  1  0
 79 82  1  1
 79 80  1  0
 81 79  1  0
 83 86  1  0
 84 88  1  0
 84 83  1  0
 85 84  2  0
 88 87  1  0
 90 88  1  0
 90 91  1  0
 90 89  1  0
M  ISO  4  12 100  20 100  50 101  51 101
M  END
>  <TORSDO>  (21) 
F 20

>  <SCORE>  (21) 
-13.878

>  <name>  (21) 
20

>  <ligand_id>  (21) 
20

>  <original_smiles>  (21) 
[H]c1c([H])c([H])c2c(c1[H])C([H])([H])C([H])([H])C([H])([H])C2([H])N([H])C(=O)C1([H])N(C(=O)C([H])(N([H])C(=O)C([H])(N([H])C([H])([H])[H])C([H])([H])[H])C(C([H])([H])[H])(C([H])([H])[H])C([H])([H])[H])C([H])([H])c2c([H])c(OC([H])([H])c3c([H])c([H])c(N([H])C([H])([H])C([H])([H])N([H])C(=O)N4C([H])([H])C([H])([H])C([H])([H])C([H])(n5nc(-c6c([H])c([H])c(Oc7c([H])c([H])c(F)c([H])c7F)c([H])c6[H])c(C(=O)N([H])[H])c5N([H])[H])C4([H])[H])c([H])c3C([H])([H])[H])c([H])c([H])c2C1([H])[H]

>  <smiles>  (21) 
[H]c1c([H])c([H])c2c(c1[H])C([H])([H])C([H])([H])C([H])([H])C2([H])N([H])C(=O)C1([H])N(C(=O)C([H])(N([H])C(=O)C([H])(N([H])C([H])([H])[H])C([H])([H])[H])C(C([H])([H])[H])(C([H])([H])[H])C([H])([H])[H])C([H])([H])c2c([H])c(OC([H])([H])c3c([H])c([H])c(N([H])C([H])([H])C([H])([H])N([H])C(=O)N4C([H])([H])C([H])([H])C([H])([H])C([H])(n5nc(-c6c([H])c([H])c(Oc7c([H])c([H])c(F)c([H])c7F)c([H])c6[H])c(C(=O)N([H])[H])c5N([H])[H])C4([H])[H])c([H])c3C([H])([H])[H])c([H])c([H])c2C1([H])[H]

$$$$
21:0:0
     RDKit          3D

 92100  0  0  1  0  0  0  0  0999 V2000
  -28.5030  -22.4420   21.1330 C   0  0  0  0  0  3  0  0  0  0  0  0
  -30.5440  -22.2490   19.8410 C   0  0  0  0  0  3  0  0  0  0  0  0
  -28.5260  -21.0480   21.3640 C   0  0  0  0  0  3  0  0  0  0  0  0
  -30.5610  -20.8510   20.0650 C   0  0  0  0  0  3  0  0  0  0  0  0
  -29.5160  -23.0670   20.3680 C   0  0  0  0  0  0  0  0  0  0  0  0
  -29.5520  -20.2330   20.8390 C   0  0  0  0  0  0  0  0  0  0  0  0
  -29.5390  -24.5540   20.1270 C   0  0  0  0  0  0  0  0  0  0  0  0
  -30.5120  -25.1300   19.6240 O   0  0  0  0  0  0  0  0  0  0  0  0
  -28.2840  -25.3690   20.5000 C   0  0  0  0  0  2  0  0  0  0  0  0
  -28.4180  -26.7670   20.1690 O   0  0  0  0  0  0  0  0  0  0  0  0
  -24.5800  -31.9270   23.2470 C   0  0  0  0  0  0  0  0  0  0  0  0
  -27.2450  -27.4920   20.1710 C   0  0  0  0  0  0  0  0  0  0  0  0
  -23.3810  -30.5200   21.6040 C   0  0  0  0  0  3  0  0  0  0  0  0
  -24.8430  -28.9910   20.1810 C   0  0  0  0  0  0  0  0  0  0  0  0
  -25.9060  -30.8900   21.4080 C   0  0  0  0  0  2  0  0  0  0  0  0
  -25.9990  -29.5190   20.7680 C   0  0  0  0  0  0  0  0  0  0  0  0
  -27.2050  -28.7780   20.7560 C   0  0  0  0  0  3  0  0  0  0  0  0
  -26.0710  -26.9840   19.5690 C   0  0  0  0  0  3  0  0  0  0  0  0
  -24.8730  -27.7230   19.5780 C   0  0  0  0  0  3  0  0  0  0  0  0
  -23.5950  -29.8430   20.2240 C   0  0  0  0  0  2  0  0  0  0  0  0
  -24.6410  -31.1270   22.1450 N   0  0  0  0  0  0  0  0  0  0  0  0
  -23.4960  -32.1940   23.7860 O   0  0  0  0  0  0  0  0  0  0  0  0
  -22.7340  -29.4950   22.5630 C   0  0  0  0  0  0  0  0  0  0  0  0
  -21.4110  -29.3060   22.4330 N   0  0  0  0  0  0  0  0  0  0  0  0
  -23.4190  -28.8710   23.3780 O   0  0  0  0  0  0  0  0  0  0  0  0
  -20.9200  -29.8610   21.7460 H   0  0  0  0  0  0  0  0  0  0  0  0
  -18.0410  -28.0960   22.9210 C   0  0  0  0  0  0  0  0  0  0  0  0
  -20.5960  -28.3650   23.2010 C   0  0  0  0  0  3  0  0  0  0  0  0
  -20.7070  -26.9340   22.6250 C   0  0  0  0  0  2  0  0  0  0  0  0
  -19.6090  -26.6070   21.6070 C   0  0  0  0  0  2  0  0  0  0  0  0
  -18.2250  -26.7470   22.2470 C   0  0  0  0  0  2  0  0  0  0  0  0
  -19.1550  -28.8630   23.3550 C   0  0  0  0  0  0  0  0  0  0  0  0
  -18.9300  -30.1260   23.9440 C   0  0  0  0  0  3  0  0  0  0  0  0
  -17.6230  -30.6230   24.1040 C   0  0  0  0  0  3  0  0  0  0  0  0
  -16.5230  -29.8540   23.6870 C   0  0  0  0  0  3  0  0  0  0  0  0
  -16.7330  -28.5920   23.1020 C   0  0  0  0  0  3  0  0  0  0  0  0
  -25.8620  -32.5630   23.8680 C   0  0  0  0  0  3  0  0  0  0  0  0
  -25.5520  -33.9620   24.1860 N   0  0  0  0  0  0  0  0  0  0  0  0
  -25.8940  -35.0090   23.4230 C   0  0  0  0  0  0  0  0  0  0  0  0
  -26.5750  -34.8980   22.4000 O   0  0  0  0  0  0  0  0  0  0  0  0
  -24.9490  -34.1230   24.9800 H   0  0  0  0  0  0  0  0  0  0  0  0
  -24.1760  -36.8010   23.0300 C   0  0  0  0  0  1  0  0  0  0  0  0
  -25.4020  -36.4000   23.8650 C   0  0  0  0  0  3  0  0  0  0  0  0
  -27.5240  -37.2830   24.7280 C   0  0  0  0  0  1  0  0  0  0  0  0
  -26.4390  -37.4500   23.7650 N   0  0  0  0  0  0  0  0  0  0  0  0
  -26.0330  -38.3720   23.9010 H   0  0  0  0  0  0  0  0  0  0  0  0
  -26.3770  -31.7980   25.1500 C   0  0  1  0  0  0  0  0  0  0  0  0
  -25.2820  -31.5640   26.2160 C   0  0  0  0  0  1  0  0  0  0  0  0
  -26.9640  -30.4200   24.7640 C   0  0  0  0  0  1  0  0  0  0  0  0
  -27.5250  -32.5980   25.8100 C   0  0  0  0  0  1  0  0  0  0  0  0
  -29.5170  -18.8550   21.1350 N   0  0  0  0  0  0  0  0  0  0  0  0
  -28.7210  -18.5060   21.6630 H   0  0  0  0  0  0  0  0  0  0  0  0
  -30.3830  -17.8490   20.5190 C   0  0  0  0  0  2  0  0  0  0  0  0
  -30.7220  -16.7030   21.5060 C   0  0  0  0  0  2  0  0  0  0  0  0
  -30.7460  -14.4960   20.3110 C   0  0  0  0  0  0  0  0  0  0  0  0
  -30.3910  -12.3910   19.0680 C   0  0  0  0  0  2  0  0  0  0  0  0
  -29.4150  -12.6210   17.8970 C   0  0  0  0  0  2  0  0  0  0  0  0
  -27.9540  -12.4750   18.3650 C   0  0  0  0  0  2  0  0  0  0  0  0
  -27.6540  -13.2900   19.6520 C   0  0  0  0  0  3  0  0  0  0  0  0
  -28.7340  -13.0280   20.7250 C   0  0  0  0  0  2  0  0  0  0  0  0
  -30.0480  -13.3420   20.1360 N   0  0  0  0  0  0  0  0  0  0  0  0
  -31.8150  -14.7330   19.7400 O   0  0  0  0  0  0  0  0  0  0  0  0
  -30.1680  -15.4050   21.1110 N   0  0  0  0  0  0  0  0  0  0  0  0
  -29.2820  -15.1450   21.5180 H   0  0  0  0  0  0  0  0  0  0  0  0
  -25.2670  -13.8950   20.4040 C   0  0  0  0  0  0  0  0  0  0  0  0
  -24.2090  -13.1220   20.7970 C   0  0  0  0  0  0  0  0  0  0  0  0
  -24.6720  -11.7700   20.7600 C   0  0  0  0  0  0  0  0  0  0  0  0
  -26.3100  -13.0150   20.1560 N   0  0  0  0  0  0  0  0  0  0  0  0
  -25.9550  -11.7330   20.4250 N   0  0  0  0  0  0  0  0  0  0  0  0
  -23.9520  -10.5070   20.9670 C   0  0  0  0  0  0  0  0  0  0  0  0
  -24.4020   -9.5460   21.9000 C   0  0  0  0  0  3  0  0  0  0  0  0
  -23.6840   -8.3470   22.0940 C   0  0  0  0  0  3  0  0  0  0  0  0
  -22.5020   -8.1000   21.3560 C   0  0  0  0  0  0  0  0  0  0  0  0
  -22.0710   -9.0500   20.4130 C   0  0  0  0  0  3  0  0  0  0  0  0
  -22.7910  -10.2400   20.2160 C   0  0  0  0  0  3  0  0  0  0  0  0
  -21.7540   -6.9530   21.4600 O   0  0  0  0  0  0  0  0  0  0  0  0
  -21.7170   -6.2200   22.6190 C   0  0  0  0  0  0  0  0  0  0  0  0
  -21.2980   -6.7820   23.8440 C   0  0  0  0  0  3  0  0  0  0  0  0
  -21.2100   -5.9750   24.9970 C   0  0  0  0  0  3  0  0  0  0  0  0
  -21.5300   -4.6060   24.9240 C   0  0  0  0  0  0  0  0  0  0  0  0
  -21.9420   -4.0430   23.7040 C   0  0  0  0  0  3  0  0  0  0  0  0
  -22.0320   -4.8470   22.5540 C   0  0  0  0  0  0  0  0  0  0  0  0
  -22.4100   -4.2950   21.3760 F   0  0  0  0  0  0  0  0  0  0  0  0
  -21.4380   -3.8290   26.0280 F   0  0  0  0  0  0  0  0  0  0  0  0
  -22.8160  -13.5960   21.0980 C   0  0  0  0  0  0  0  0  0  0  0  0
  -22.1080  -12.8990   21.9810 N   0  0  0  0  0  0  0  0  0  0  0  0
  -22.3650  -14.6200   20.5880 O   0  0  0  0  0  0  0  0  0  0  0  0
  -22.4870  -12.0710   22.4160 H   0  0  0  0  0  0  0  0  0  0  0  0
  -21.1760  -13.1990   22.2250 H   0  0  0  0  0  0  0  0  0  0  0  0
  -25.4270  -15.2650   20.2210 N   0  0  0  0  0  0  0  0  0  0  0  0
  -24.6630  -15.9220   20.3440 H   0  0  0  0  0  0  0  0  0  0  0  0
  -26.2750  -15.7030   19.8830 H   0  0  0  0  0  0  0  0  0  0  0  0
  1  3  1  0
  2  4  2  0
  2  5  1  0
  4  6  1  0
  5  1  2  0
  6 51  1  0
  6  3  2  0
  7  5  1  0
  7  9  1  0
  8  7  2  0
 10 12  1  0
 10  9  1  0
 11 22  2  0
 12 17  1  0
 13 21  1  0
 13 23  1  0
 14 20  1  0
 14 16  1  0
 15 21  1  0
 16 15  1  0
 17 16  2  0
 18 19  1  0
 18 12  2  0
 19 14  2  0
 20 13  1  0
 21 11  1  0
 23 25  2  0
 24 23  1  0
 26 24  1  0
 27 36  2  0
 27 32  1  0
 28 24  1  0
 28 32  1  0
 29 28  1  0
 30 31  1  0
 30 29  1  0
 31 27  1  0
 32 33  2  0
 33 34  1  0
 35 34  2  0
 36 35  1  0
 37 11  1  0
 37 38  1  0
 37 47  1  0
 38 41  1  0
 39 43  1  0
 39 38  1  0
 40 39  2  0
 43 42  1  0
 45 43  1  0
 45 46  1  0
 45 44  1  0
 47 50  1  1
 47 48  1  0
 49 47  1  0
 51 52  1  0
 53 51  1  0
 53 54  1  0
 55 63  1  0
 56 61  1  0
 57 58  1  0
 57 56  1  0
 59 58  1  0
 59 68  1  0
 59 60  1  0
 61 55  1  0
 61 60  1  0
 62 55  2  0
 63 54  1  0
 63 64  1  0
 65 66  2  0
 66 85  1  0
 67 66  1  0
 67 70  1  0
 68 65  1  0
 68 69  1  0
 69 67  2  0
 70 71  1  0
 71 72  2  0
 73 76  1  0
 73 72  1  0
 74 73  2  0
 75 74  1  0
 75 70  2  0
 76 77  1  0
 77 78  1  0
 78 79  2  0
 80 79  1  0
 80 84  1  0
 81 80  2  0
 82 77  2  0
 82 81  1  0
 83 82  1  0
 85 86  1  0
 86 89  1  0
 86 88  1  0
 87 85  2  0
 90 91  1  0
 90 65  1  0
 92 90  1  0
M  ISO  4   9 101  10 101  55 100  63 100
M  END
>  <TORSDO>  (22) 
F 21

>  <SCORE>  (22) 
-13.682

>  <name>  (22) 
21

>  <ligand_id>  (22) 
21

>  <original_smiles>  (22) 
[H]c1c([H])c([H])c2c(c1[H])C([H])([H])C([H])([H])C([H])([H])C2([H])N([H])C(=O)C1([H])N(C(=O)C([H])(N([H])C(=O)C([H])(N([H])C([H])([H])[H])C([H])([H])[H])C(C([H])([H])[H])(C([H])([H])[H])C([H])([H])[H])C([H])([H])c2c([H])c(OC([H])([H])C(=O)c3c([H])c([H])c(N([H])C([H])([H])C([H])([H])N([H])C(=O)N4C([H])([H])C([H])([H])C([H])([H])C([H])(n5nc(-c6c([H])c([H])c(Oc7c([H])c([H])c(F)c([H])c7F)c([H])c6[H])c(C(=O)N([H])[H])c5N([H])[H])C4([H])[H])c([H])c3[H])c([H])c([H])c2C1([H])[H]

>  <smiles>  (22) 
[H]c1c([H])c([H])c2c(c1[H])C([H])([H])C([H])([H])C([H])([H])C2([H])N([H])C(=O)C1([H])N(C(=O)C([H])(N([H])C(=O)C([H])(N([H])C([H])([H])[H])C([H])([H])[H])C(C([H])([H])[H])(C([H])([H])[H])C([H])([H])[H])C([H])([H])c2c([H])c(OC([H])([H])C(=O)c3c([H])c([H])c(N([H])C([H])([H])C([H])([H])N([H])C(=O)N4C([H])([H])C([H])([H])C([H])([H])C([H])(n5nc(-c6c([H])c([H])c(Oc7c([H])c([H])c(F)c([H])c7F)c([H])c6[H])c(C(=O)N([H])[H])c5N([H])[H])C4([H])[H])c([H])c3[H])c([H])c([H])c2C1([H])[H]

$$$$
22:0:0
     RDKit          3D

 98107  0  0  1  0  0  0  0  0999 V2000
  -30.6150  -17.4460   21.8300 C   0  0  0  0  0  3  0  0  0  0  0  0
  -29.0270  -18.1130   20.0960 C   0  0  0  0  0  3  0  0  0  0  0  0
  -30.7540  -18.8100   22.1340 C   0  0  0  0  0  0  0  0  0  0  0  0
  -30.1090  -19.8280   21.4230 C   0  0  0  0  0  0  0  0  0  0  0  0
  -29.1960  -19.5380   20.3730 C   0  0  0  0  0  0  0  0  0  0  0  0
  -29.7510  -17.0490   20.7880 C   0  0  0  0  0  0  0  0  0  0  0  0
  -31.6150  -19.3450   23.2430 C   0  0  0  0  0  2  0  0  0  0  0  0
  -31.2970  -20.8510   23.2570 C   0  0  0  0  0  2  0  0  0  0  0  0
  -30.5560  -21.1920   21.9350 C   0  0  0  0  0  3  0  0  0  0  0  0
  -30.4290  -14.5290   20.7230 C   0  0  0  0  0  0  0  0  0  0  0  0
  -30.4180  -12.1290   20.0260 C   0  0  0  0  0  2  0  0  0  0  0  0
  -29.5590  -11.9700   18.7510 C   0  0  0  0  0  2  0  0  0  0  0  0
  -28.0710  -11.7850   19.1140 C   0  0  0  0  0  2  0  0  0  0  0  0
  -27.5760  -12.8210   20.1570 C   0  0  0  0  0  3  0  0  0  0  0  0
  -28.5570  -12.9470   21.3410 C   0  0  0  0  0  2  0  0  0  0  0  0
  -29.8710  -13.2760   20.7770 N   0  0  0  0  0  0  0  0  0  0  0  0
  -31.6410  -14.6620   20.5240 O   0  0  0  0  0  0  0  0  0  0  0  0
  -29.5590  -15.5990   20.5780 N   0  0  0  0  0  0  0  0  0  0  0  0
  -28.6040  -15.3210   20.4160 H   0  0  0  0  0  0  0  0  0  0  0  0
  -25.1620  -13.4270   20.7780 C   0  0  0  0  0  0  0  0  0  0  0  0
  -24.0830  -12.6590   21.1220 C   0  0  0  0  0  0  0  0  0  0  0  0
  -24.5480  -11.3090   21.1360 C   0  0  0  0  0  0  0  0  0  0  0  0
  -26.2140  -12.5440   20.6000 N   0  0  0  0  0  0  0  0  0  0  0  0
  -25.8500  -11.2670   20.8800 N   0  0  0  0  0  0  0  0  0  0  0  0
  -23.8180  -10.0490   21.3190 C   0  0  0  0  0  0  0  0  0  0  0  0
  -24.2300   -9.0870   22.2670 C   0  0  0  0  0  3  0  0  0  0  0  0
  -23.4990   -7.8910   22.4390 C   0  0  0  0  0  3  0  0  0  0  0  0
  -22.3420   -7.6490   21.6610 C   0  0  0  0  0  0  0  0  0  0  0  0
  -21.9490   -8.5990   20.7020 C   0  0  0  0  0  3  0  0  0  0  0  0
  -22.6810   -9.7870   20.5290 C   0  0  0  0  0  3  0  0  0  0  0  0
  -21.5850   -6.5060   21.7410 O   0  0  0  0  0  0  0  0  0  0  0  0
  -21.5320   -5.7560   22.8890 C   0  0  0  0  0  0  0  0  0  0  0  0
  -21.0810   -6.2970   24.1120 C   0  0  0  0  0  3  0  0  0  0  0  0
  -20.9770   -5.4740   25.2500 C   0  0  0  0  0  3  0  0  0  0  0  0
  -21.3130   -4.1090   25.1670 C   0  0  0  0  0  0  0  0  0  0  0  0
  -21.7570   -3.5670   23.9480 C   0  0  0  0  0  3  0  0  0  0  0  0
  -21.8630   -4.3880   22.8110 C   0  0  0  0  0  0  0  0  0  0  0  0
  -22.2720   -3.8560   21.6340 F   0  0  0  0  0  0  0  0  0  0  0  0
  -21.2050   -3.3150   26.2580 F   0  0  0  0  0  0  0  0  0  0  0  0
  -22.6760  -13.1380   21.3250 C   0  0  0  0  0  0  0  0  0  0  0  0
  -21.9130  -12.4610   22.1750 N   0  0  0  0  0  0  0  0  0  0  0  0
  -22.2570  -14.1500   20.7630 O   0  0  0  0  0  0  0  0  0  0  0  0
  -22.2640  -11.6420   22.6530 H   0  0  0  0  0  0  0  0  0  0  0  0
  -20.9670  -12.7640   22.3550 H   0  0  0  0  0  0  0  0  0  0  0  0
  -25.3280  -14.7940   20.5810 N   0  0  0  0  0  0  0  0  0  0  0  0
  -24.5460  -15.4390   20.6400 H   0  0  0  0  0  0  0  0  0  0  0  0
  -26.1760  -15.2340   20.2500 H   0  0  0  0  0  0  0  0  0  0  0  0
  -31.7310  -23.4150   21.3810 C   0  0  0  0  0  1  0  0  0  0  0  0
  -32.7180  -21.2450   20.5040 C   0  0  0  0  0  1  0  0  0  0  0  0
  -31.4300  -21.9800   20.9180 C   0  0  0  0  0  3  0  0  0  0  0  0
  -28.5500  -20.7100   19.4980 C   0  0  0  0  0  2  0  0  0  0  0  0
  -27.9640  -21.9740   20.1450 N   0  0  0  0  0  4  0  0  0  0  0  0
  -28.4140  -22.0810   21.0370 H   0  0  0  0  0  0  0  0  0  0  0  0
  -26.9970  -21.7660   20.3330 H   0  0  0  0  0  0  0  0  0  0  0  0
  -28.0400  -23.3310   19.4060 C   0  0  0  0  0  2  0  0  0  0  0  0
  -27.9180  -24.7710   21.5650 C   0  0  0  0  0  1  0  0  0  0  0  0
  -27.4140  -24.6440   20.1220 C   0  0  0  0  0  3  0  0  0  0  0  0
  -27.6510  -26.0140   19.5560 O   0  0  0  0  0  0  0  0  0  0  0  0
  -24.5880  -31.5050   23.2170 C   0  0  0  0  0  0  0  0  0  0  0  0
  -26.6340  -26.9840   19.6810 C   0  0  0  0  0  0  0  0  0  0  0  0
  -23.1950  -30.3590   21.5310 C   0  0  0  0  0  3  0  0  0  0  0  0
  -24.4370  -28.8080   19.9180 C   0  0  0  0  0  0  0  0  0  0  0  0
  -25.7440  -30.4580   21.2530 C   0  0  0  0  0  2  0  0  0  0  0  0
  -25.6710  -29.1350   20.4950 C   0  0  0  0  0  0  0  0  0  0  0  0
  -26.7780  -28.2380   20.3630 C   0  0  0  0  0  3  0  0  0  0  0  0
  -25.3840  -26.7210   19.0840 C   0  0  0  0  0  3  0  0  0  0  0  0
  -24.2960  -27.6080   19.2030 C   0  0  0  0  0  3  0  0  0  0  0  0
  -23.2920  -29.7860   20.0940 C   0  0  0  0  0  2  0  0  0  0  0  0
  -24.5320  -30.7870   22.0560 N   0  0  0  0  0  0  0  0  0  0  0  0
  -23.5570  -31.8340   23.8210 O   0  0  0  0  0  0  0  0  0  0  0  0
  -22.4820  -29.3290   22.4390 C   0  0  0  0  0  0  0  0  0  0  0  0
  -21.1440  -29.2560   22.3380 N   0  0  0  0  0  0  0  0  0  0  0  0
  -23.1310  -28.6000   23.1940 O   0  0  0  0  0  0  0  0  0  0  0  0
  -20.6830  -29.8940   21.7050 H   0  0  0  0  0  0  0  0  0  0  0  0
  -17.7040  -28.2350   22.8100 C   0  0  0  0  0  0  0  0  0  0  0  0
  -20.2760  -28.3290   23.0660 C   0  0  0  0  0  3  0  0  0  0  0  0
  -20.2870  -26.9260   22.4140 C   0  0  0  0  0  2  0  0  0  0  0  0
  -19.1610  -26.7240   21.3950 C   0  0  0  0  0  2  0  0  0  0  0  0
  -17.7950  -26.9160   22.0610 C   0  0  0  0  0  2  0  0  0  0  0  0
  -18.8700  -28.9060   23.2680 C   0  0  0  0  0  0  0  0  0  0  0  0
  -18.7310  -30.1460   23.9270 C   0  0  0  0  0  3  0  0  0  0  0  0
  -17.4590  -30.7120   24.1350 C   0  0  0  0  0  3  0  0  0  0  0  0
  -16.3090  -30.0370   23.6930 C   0  0  0  0  0  3  0  0  0  0  0  0
  -16.4320  -28.8000   23.0350 C   0  0  0  0  0  3  0  0  0  0  0  0
  -25.9490  -31.9680   23.8240 C   0  0  0  0  0  3  0  0  0  0  0  0
  -25.7670  -33.3380   24.3250 N   0  0  0  0  0  0  0  0  0  0  0  0
  -26.1580  -34.4440   23.6770 C   0  0  0  0  0  0  0  0  0  0  0  0
  -26.7810  -34.4110   22.6130 O   0  0  0  0  0  0  0  0  0  0  0  0
  -25.2130  -33.4410   25.1610 H   0  0  0  0  0  0  0  0  0  0  0  0
  -24.5780  -36.4000   23.6070 C   0  0  0  0  0  1  0  0  0  0  0  0
  -25.8040  -35.8030   24.3130 C   0  0  0  0  0  3  0  0  0  0  0  0
  -28.0310  -36.4090   25.1550 C   0  0  0  0  0  1  0  0  0  0  0  0
  -26.9190  -36.7730   24.2810 N   0  0  0  0  0  0  0  0  0  0  0  0
  -26.5960  -37.7000   24.5470 H   0  0  0  0  0  0  0  0  0  0  0  0
  -26.4680  -31.0200   24.9750 C   0  0  1  0  0  0  0  0  0  0  0  0
  -25.4190  -30.7540   26.0800 C   0  0  0  0  0  1  0  0  0  0  0  0
  -26.9120  -29.6540   24.4040 C   0  0  0  0  0  1  0  0  0  0  0  0
  -27.7170  -31.6450   25.6410 C   0  0  0  0  0  1  0  0  0  0  0  0
  1  3  1  0
  2  5  2  0
  2  6  1  0
  3  7  1  0
  4  9  1  0
  4  3  2  0
  5  4  1  0
  6  1  2  0
  7  8  1  0
  9 50  1  0
  9  8  1  0
 10 16  1  0
 11 16  1  0
 12 13  1  0
 12 11  1  0
 14 13  1  0
 14 23  1  0
 14 15  1  0
 16 15  1  0
 17 10  2  0
 18 10  1  0
 18  6  1  0
 19 18  1  0
 20 21  2  0
 21 22  1  0
 21 40  1  0
 22 25  1  0
 23 20  1  0
 23 24  1  0
 24 22  2  0
 25 26  1  0
 26 27  2  0
 28 31  1  0
 28 27  1  0
 29 28  2  0
 30 29  1  0
 30 25  2  0
 31 32  1  0
 32 33  1  0
 33 34  2  0
 35 34  1  0
 35 39  1  0
 36 35  2  0
 37 32  2  0
 37 36  1  0
 38 37  1  0
 40 41  1  0
 41 44  1  0
 41 43  1  0
 42 40  2  0
 45 46  1  0
 45 20  1  0
 47 45  1  0
 49 50  1  0
 50 48  1  0
 51 52  1  0
 51  5  1  0
 52 54  1  0
 52 53  1  0
 55 57  1  0
 55 52  1  0
 57 56  1  0
 58 60  1  0
 58 57  1  0
 59 70  2  0
 60 65  1  0
 61 69  1  0
 61 71  1  0
 62 68  1  0
 62 64  1  0
 63 69  1  0
 64 63  1  0
 65 64  2  0
 66 67  1  0
 66 60  2  0
 67 62  2  0
 68 61  1  0
 69 59  1  0
 71 73  2  0
 72 71  1  0
 74 72  1  0
 75 84  2  0
 75 80  1  0
 76 72  1  0
 76 80  1  0
 77 76  1  0
 78 79  1  0
 78 77  1  0
 79 75  1  0
 80 81  2  0
 81 82  1  0
 83 82  2  0
 84 83  1  0
 85 59  1  0
 85 86  1  0
 85 95  1  0
 86 89  1  0
 87 91  1  0
 87 86  1  0
 88 87  2  0
 91 90  1  0
 93 91  1  0
 93 94  1  0
 93 92  1  0
 95 98  1  1
 95 96  1  0
 97 95  1  0
M  ISO  4  10 100  18 100  57 101  58 101
M  END
>  <TORSDO>  (23) 
F 21

>  <SCORE>  (23) 
-11.933

>  <name>  (23) 
22

>  <ligand_id>  (23) 
22

>  <original_smiles>  (23) 
[H]c1c([H])c([H])c2c(c1[H])C([H])([H])C([H])([H])C([H])([H])C2([H])N([H])C(=O)C1([H])N(C(=O)C([H])(N([H])C(=O)C([H])(N([H])C([H])([H])[H])C([H])([H])[H])C(C([H])([H])[H])(C([H])([H])[H])C([H])([H])[H])C([H])([H])c2c([H])c(OC([H])(C([H])([H])[H])C([H])([H])[N+]([H])([H])C([H])([H])c3c([H])c(N([H])C(=O)N4C([H])([H])C([H])([H])C([H])([H])C([H])(n5nc(-c6c([H])c([H])c(Oc7c([H])c([H])c(F)c([H])c7F)c([H])c6[H])c(C(=O)N([H])[H])c5N([H])[H])C4([H])[H])c([H])c4c3C([H])(C([H])(C([H])([H])[H])C([H])([H])[H])C([H])([H])C4([H])[H])c([H])c([H])c2C1([H])[H]

>  <smiles>  (23) 
[H]c1c([H])c([H])c2c(c1[H])C([H])([H])C([H])([H])C([H])([H])C2([H])N([H])C(=O)C1([H])N(C(=O)C([H])(N([H])C(=O)C([H])(N([H])C([H])([H])[H])C([H])([H])[H])C(C([H])([H])[H])(C([H])([H])[H])C([H])([H])[H])C([H])([H])c2c([H])c(OC([H])(C([H])([H])[H])C([H])([H])[N+]([H])([H])C([H])([H])c3c([H])c(N([H])C(=O)N4C([H])([H])C([H])([H])C([H])([H])C([H])(n5nc(-c6c([H])c([H])c(Oc7c([H])c([H])c(F)c([H])c7F)c([H])c6[H])c(C(=O)N([H])[H])c5N([H])[H])C4([H])[H])c([H])c4c3C([H])(C([H])(C([H])([H])[H])C([H])([H])[H])C([H])([H])C4([H])[H])c([H])c([H])c2C1([H])[H]

$$$$
23:0:0
     RDKit          3D

 94102  0  0  1  0  0  0  0  0999 V2000
  -28.2680  -18.3910   21.5820 C   0  0  0  0  0  3  0  0  0  0  0  0
  -27.7630  -20.7840   21.4740 C   0  0  0  0  0  3  0  0  0  0  0  0
  -27.4520  -19.4830   21.9440 C   0  0  0  0  0  0  0  0  0  0  0  0
  -29.3770  -18.5680   20.7350 C   0  0  0  0  0  3  0  0  0  0  0  0
  -28.8640  -21.0090   20.6190 C   0  0  0  0  0  0  0  0  0  0  0  0
  -29.6090  -19.8710   20.2860 N   0  0  0  0  0  0  0  0  0  0  0  0
  -30.4110  -20.0030   19.6600 H   0  0  0  0  0  0  0  0  0  0  0  0
  -25.2770  -20.2090   22.8930 C   0  0  0  0  0  1  0  0  0  0  0  0
  -26.3510  -19.2300   22.7810 N   0  0  0  0  0  0  0  0  0  0  0  0
  -26.1050  -18.2560   22.9400 H   0  0  0  0  0  0  0  0  0  0  0  0
  -29.1490  -22.3350   20.0990 N   0  0  0  0  0  0  0  0  0  0  0  0
  -29.9130  -22.3940   19.4400 H   0  0  0  0  0  0  0  0  0  0  0  0
  -28.8040  -23.6770   20.7360 C   0  0  0  0  0  3  0  0  0  0  0  0
  -28.2760  -24.8970   19.8010 C   0  0  0  0  0  3  0  0  0  0  0  0
  -28.3170  -26.3520   20.2270 O   0  0  0  0  0  0  0  0  0  0  0  0
  -24.6310  -31.8560   23.2000 C   0  0  0  0  0  0  0  0  0  0  0  0
  -27.2140  -27.2420   20.1320 C   0  0  0  0  0  0  0  0  0  0  0  0
  -23.4280  -30.4800   21.5430 C   0  0  0  0  0  3  0  0  0  0  0  0
  -24.8740  -28.9260   20.1110 C   0  0  0  0  0  0  0  0  0  0  0  0
  -25.9760  -30.7640   21.3820 C   0  0  0  0  0  2  0  0  0  0  0  0
  -26.0460  -29.3840   20.7240 C   0  0  0  0  0  0  0  0  0  0  0  0
  -27.2150  -28.5540   20.7260 C   0  0  0  0  0  3  0  0  0  0  0  0
  -26.0180  -26.8650   19.4780 C   0  0  0  0  0  3  0  0  0  0  0  0
  -24.8680  -27.6770   19.4770 C   0  0  0  0  0  3  0  0  0  0  0  0
  -23.6460  -29.8140   20.1590 C   0  0  0  0  0  2  0  0  0  0  0  0
  -24.6970  -31.0520   22.0980 N   0  0  0  0  0  0  0  0  0  0  0  0
  -23.5460  -32.1370   23.7310 O   0  0  0  0  0  0  0  0  0  0  0  0
  -22.7490  -29.4610   22.4910 C   0  0  0  0  0  0  0  0  0  0  0  0
  -21.4190  -29.3080   22.3660 N   0  0  0  0  0  0  0  0  0  0  0  0
  -23.4190  -28.8140   23.2990 O   0  0  0  0  0  0  0  0  0  0  0  0
  -20.9380  -29.8800   21.6870 H   0  0  0  0  0  0  0  0  0  0  0  0
  -18.0290  -28.1410   22.8470 C   0  0  0  0  0  0  0  0  0  0  0  0
  -20.5890  -28.3740   23.1280 C   0  0  0  0  0  3  0  0  0  0  0  0
  -20.6780  -26.9450   22.5430 C   0  0  0  0  0  2  0  0  0  0  0  0
  -19.5770  -26.6390   21.5230 C   0  0  0  0  0  2  0  0  0  0  0  0
  -18.1940  -26.7940   22.1630 C   0  0  0  0  0  2  0  0  0  0  0  0
  -19.1540  -28.8890   23.2870 C   0  0  0  0  0  0  0  0  0  0  0  0
  -18.9460  -30.1490   23.8880 C   0  0  0  0  0  3  0  0  0  0  0  0
  -17.6460  -30.6620   24.0560 C   0  0  0  0  0  3  0  0  0  0  0  0
  -16.5360  -29.9110   23.6340 C   0  0  0  0  0  3  0  0  0  0  0  0
  -16.7270  -28.6530   23.0350 C   0  0  0  0  0  3  0  0  0  0  0  0
  -25.9130  -32.4760   23.8340 C   0  0  0  0  0  3  0  0  0  0  0  0
  -25.5930  -33.8570   24.2260 N   0  0  0  0  0  0  0  0  0  0  0  0
  -25.9060  -34.9440   23.5090 C   0  0  0  0  0  0  0  0  0  0  0  0
  -26.5650  -34.8920   22.4670 O   0  0  0  0  0  0  0  0  0  0  0  0
  -25.0010  -33.9720   25.0360 H   0  0  0  0  0  0  0  0  0  0  0  0
  -24.1490  -36.7280   23.2640 C   0  0  0  0  0  1  0  0  0  0  0  0
  -25.4130  -36.3070   24.0320 C   0  0  0  0  0  3  0  0  0  0  0  0
  -27.5580  -37.1800   24.8460 C   0  0  0  0  0  1  0  0  0  0  0  0
  -26.4290  -37.3780   23.9400 N   0  0  0  0  0  0  0  0  0  0  0  0
  -26.0170  -38.2850   24.1410 H   0  0  0  0  0  0  0  0  0  0  0  0
  -26.4490  -31.6600   25.0740 C   0  0  1  0  0  0  0  0  0  0  0  0
  -25.3700  -31.3740   26.1450 C   0  0  0  0  0  1  0  0  0  0  0  0
  -27.0330  -30.3010   24.6240 C   0  0  0  0  0  1  0  0  0  0  0  0
  -27.6050  -32.4340   25.7510 C   0  0  0  0  0  1  0  0  0  0  0  0
  -30.3070  -17.3250   20.3770 C   0  0  0  0  0  2  0  0  0  0  0  0
  -30.6250  -14.7340   20.4440 C   0  0  0  0  0  0  0  0  0  0  0  0
  -30.4300  -12.4430   19.4690 C   0  0  0  0  0  2  0  0  0  0  0  0
  -29.5050  -12.4940   18.2340 C   0  0  0  0  0  2  0  0  0  0  0  0
  -28.0330  -12.3250   18.6540 C   0  0  0  0  0  2  0  0  0  0  0  0
  -27.6420  -13.2310   19.8510 C   0  0  0  0  0  3  0  0  0  0  0  0
  -28.6910  -13.1660   20.9840 C   0  0  0  0  0  2  0  0  0  0  0  0
  -29.9910  -13.5110   20.3960 N   0  0  0  0  0  0  0  0  0  0  0  0
  -31.8120  -14.8250   20.1230 O   0  0  0  0  0  0  0  0  0  0  0  0
  -29.8690  -15.8800   20.6180 N   0  0  0  0  0  0  0  0  0  0  0  0
  -28.8900  -15.7370   20.8100 H   0  0  0  0  0  0  0  0  0  0  0  0
  -25.2530  -13.8200   20.5710 C   0  0  0  0  0  0  0  0  0  0  0  0
  -24.1810  -13.0450   20.9230 C   0  0  0  0  0  0  0  0  0  0  0  0
  -24.6390  -11.6920   20.8760 C   0  0  0  0  0  0  0  0  0  0  0  0
  -26.2950  -12.9400   20.3290 N   0  0  0  0  0  0  0  0  0  0  0  0
  -25.9330  -11.6550   20.5770 N   0  0  0  0  0  0  0  0  0  0  0  0
  -23.9080  -10.4290   21.0420 C   0  0  0  0  0  0  0  0  0  0  0  0
  -24.3630   -9.4200   21.9190 C   0  0  0  0  0  3  0  0  0  0  0  0
  -23.6300   -8.2240   22.0760 C   0  0  0  0  0  3  0  0  0  0  0  0
  -22.4280   -8.0290   21.3550 C   0  0  0  0  0  0  0  0  0  0  0  0
  -21.9920   -9.0260   20.4650 C   0  0  0  0  0  3  0  0  0  0  0  0
  -22.7250  -10.2140   20.3060 C   0  0  0  0  0  3  0  0  0  0  0  0
  -21.6650   -6.8880   21.4240 O   0  0  0  0  0  0  0  0  0  0  0  0
  -21.6850   -6.0740   22.5280 C   0  0  0  0  0  0  0  0  0  0  0  0
  -21.4010   -6.5640   23.8210 C   0  0  0  0  0  3  0  0  0  0  0  0
  -21.3660   -5.6790   24.9180 C   0  0  0  0  0  3  0  0  0  0  0  0
  -21.6050   -4.3060   24.7230 C   0  0  0  0  0  0  0  0  0  0  0  0
  -21.8820   -3.8150   23.4350 C   0  0  0  0  0  3  0  0  0  0  0  0
  -21.9190   -4.6960   22.3400 C   0  0  0  0  0  0  0  0  0  0  0  0
  -22.1660   -4.2150   21.0980 F   0  0  0  0  0  0  0  0  0  0  0  0
  -21.5630   -3.4540   25.7740 F   0  0  0  0  0  0  0  0  0  0  0  0
  -22.7830  -13.5230   21.1880 C   0  0  0  0  0  0  0  0  0  0  0  0
  -22.0480  -12.8210   22.0420 N   0  0  0  0  0  0  0  0  0  0  0  0
  -22.3510  -14.5550   20.6740 O   0  0  0  0  0  0  0  0  0  0  0  0
  -22.4110  -11.9850   22.4760 H   0  0  0  0  0  0  0  0  0  0  0  0
  -21.1100  -13.1220   22.2660 H   0  0  0  0  0  0  0  0  0  0  0  0
  -25.4240  -15.1920   20.4090 N   0  0  0  0  0  0  0  0  0  0  0  0
  -24.6440  -15.8360   20.4790 H   0  0  0  0  0  0  0  0  0  0  0  0
  -26.2410  -15.6070   19.9810 H   0  0  0  0  0  0  0  0  0  0  0  0
  1  3  2  0
  2  3  1  0
  3  9  1  0
  4 56  1  0
  4  1  1  0
  5  2  2  0
  6  5  1  0
  6  4  1  0
  7  6  1  0
  9  8  1  0
  9 10  1  0
 11  5  1  0
 11 13  1  0
 12 11  1  0
 14 15  1  0
 14 13  2  0
 16 27  2  0
 17 15  1  0
 17 22  1  0
 18 26  1  0
 18 28  1  0
 19 25  1  0
 19 21  1  0
 20 26  1  0
 21 22  2  0
 21 20  1  0
 23 17  2  0
 24 23  1  0
 24 19  2  0
 25 18  1  0
 26 16  1  0
 28 30  2  0
 29 28  1  0
 31 29  1  0
 32 41  2  0
 32 37  1  0
 33 29  1  0
 33 37  1  0
 34 33  1  0
 35 36  1  0
 35 34  1  0
 36 32  1  0
 37 38  2  0
 38 39  1  0
 40 39  2  0
 41 40  1  0
 42 16  1  0
 42 43  1  0
 42 52  1  0
 43 46  1  0
 44 48  1  0
 44 43  1  0
 45 44  2  0
 48 47  1  0
 50 48  1  0
 50 51  1  0
 50 49  1  0
 52 55  1  1
 52 53  1  0
 54 52  1  0
 56 65  1  0
 57 65  1  0
 58 63  1  0
 59 60  1  0
 59 58  1  0
 61 60  1  0
 61 70  1  0
 61 62  1  0
 63 57  1  0
 63 62  1  0
 64 57  2  0
 65 66  1  0
 67 68  2  0
 68 87  1  0
 69 68  1  0
 69 72  1  0
 70 67  1  0
 70 71  1  0
 71 69  2  0
 72 73  1  0
 73 74  2  0
 75 78  1  0
 75 74  1  0
 76 75  2  0
 77 76  1  0
 77 72  2  0
 78 79  1  0
 79 80  1  0
 80 81  2  0
 82 81  1  0
 82 86  1  0
 83 82  2  0
 84 79  2  0
 84 83  1  0
 85 84  1  0
 87 88  1  0
 88 91  1  0
 88 90  1  0
 89 87  2  0
 92 93  1  0
 92 67  1  0
 94 92  1  0
M  ISO  4  14 101  15 101  57 100  65 100
M  END
>  <TORSDO>  (24) 
F 21

>  <SCORE>  (24) 
13.538

>  <name>  (24) 
23

>  <ligand_id>  (24) 
23

>  <original_smiles>  (24) 
[H]c1c([H])c([H])c2c(c1[H])C([H])([H])C([H])([H])C([H])([H])C2([H])N([H])C(=O)C1([H])N(C(=O)C([H])(N([H])C(=O)C([H])(N([H])C([H])([H])[H])C([H])([H])[H])C(C([H])([H])[H])(C([H])([H])[H])C([H])([H])[H])C([H])([H])c2c([H])c(OC([H])([H])C([H])([H])N([H])c3c([H])c(N([H])C([H])([H])[H])c([H])c(C([H])([H])N([H])C(=O)N4C([H])([H])C([H])([H])C([H])([H])C([H])(n5nc(-c6c([H])c([H])c(Oc7c([H])c([H])c(F)c([H])c7F)c([H])c6[H])c(C(=O)N([H])[H])c5N([H])[H])C4([H])[H])[n+]3[H])c([H])c([H])c2C1([H])[H]

>  <smiles>  (24) 
[H]c1c([H])c([H])c2c(c1[H])C([H])([H])C([H])([H])C([H])([H])C2([H])N([H])C(=O)C1([H])N(C(=O)C([H])(N([H])C(=O)C([H])(N([H])C([H])([H])[H])C([H])([H])[H])C(C([H])([H])[H])(C([H])([H])[H])C([H])([H])[H])C([H])([H])c2c([H])c(OC([H])([H])C([H])([H])N([H])c3c([H])c(N([H])C([H])([H])[H])c([H])c(C([H])([H])N([H])C(=O)N4C([H])([H])C([H])([H])C([H])([H])C([H])(n5nc(-c6c([H])c([H])c(Oc7c([H])c([H])c(F)c([H])c7F)c([H])c6[H])c(C(=O)N([H])[H])c5N([H])[H])C4([H])[H])[n+]3[H])c([H])c([H])c2C1([H])[H]

$$$$
24:0:0
     RDKit          3D

 98108  0  0  1  0  0  0  0  0999 V2000
  -30.5920  -14.6600   20.3310 C   0  0  0  0  0  0  0  0  0  0  0  0
  -30.4530  -12.2930   19.6550 C   0  0  0  0  0  2  0  0  0  0  0  0
  -29.5410  -12.1690   18.4190 C   0  0  0  0  0  2  0  0  0  0  0  0
  -28.0760  -11.9820   18.8520 C   0  0  0  0  0  2  0  0  0  0  0  0
  -27.6290  -13.0240   19.9140 C   0  0  0  0  0  3  0  0  0  0  0  0
  -28.6670  -13.1770   21.0500 C   0  0  0  0  0  2  0  0  0  0  0  0
  -29.9740  -13.4490   20.4350 N   0  0  0  0  0  0  0  0  0  0  0  0
  -31.7500  -14.7620   19.9140 O   0  0  0  0  0  0  0  0  0  0  0  0
  -28.5600  -17.7000   19.3950 C   0  0  0  0  0  2  0  0  0  0  0  0
  -29.3380  -16.3750   19.2430 C   0  0  0  0  0  2  0  0  0  0  0  0
  -30.4680  -16.8200   21.3850 C   0  0  0  0  0  2  0  0  0  0  0  0
  -29.7540  -18.2100   21.5060 C   0  0  0  0  0  3  0  0  0  0  0  0
  -29.4220  -18.7620   20.0940 C   0  0  0  0  0  3  0  0  0  0  0  0
  -29.8490  -15.7950   20.5070 N   0  0  0  0  0  0  0  0  0  0  0  0
  -31.2110  -20.1560   24.4570 C   0  0  0  0  0  2  0  0  0  0  0  0
  -30.7730  -18.8390   23.8240 C   0  0  0  0  0  2  0  0  0  0  0  0
  -30.5060  -21.2210   23.6100 C   0  0  0  0  0  2  0  0  0  0  0  0
  -30.6480  -19.1840   22.3310 C   0  0  0  0  0  3  0  0  0  0  0  0
  -30.1740  -20.5840   22.3180 N   0  0  0  0  0  4  0  0  0  0  0  0
  -30.5840  -21.0870   21.5470 H   0  0  0  0  0  0  0  0  0  0  0  0
  -29.1740  -20.6030   22.1960 H   0  0  0  0  0  0  0  0  0  0  0  0
  -25.2570  -13.6020   20.7110 C   0  0  0  0  0  0  0  0  0  0  0  0
  -24.2010  -12.8160   21.0830 C   0  0  0  0  0  0  0  0  0  0  0  0
  -24.6640  -11.4670   21.0010 C   0  0  0  0  0  0  0  0  0  0  0  0
  -26.2960  -12.7290   20.4280 N   0  0  0  0  0  0  0  0  0  0  0  0
  -25.9460  -11.4390   20.6620 N   0  0  0  0  0  0  0  0  0  0  0  0
  -23.9470  -10.1990   21.1720 C   0  0  0  0  0  0  0  0  0  0  0  0
  -24.4100   -9.2020   22.0590 C   0  0  0  0  0  3  0  0  0  0  0  0
  -23.6910   -7.9970   22.2180 C   0  0  0  0  0  3  0  0  0  0  0  0
  -22.4970   -7.7800   21.4900 C   0  0  0  0  0  0  0  0  0  0  0  0
  -22.0550   -8.7660   20.5890 C   0  0  0  0  0  3  0  0  0  0  0  0
  -22.7750   -9.9620   20.4280 C   0  0  0  0  0  3  0  0  0  0  0  0
  -21.7470   -6.6310   21.5610 O   0  0  0  0  0  0  0  0  0  0  0  0
  -21.7220   -5.8590   22.6940 C   0  0  0  0  0  0  0  0  0  0  0  0
  -21.3210   -6.3810   23.9420 C   0  0  0  0  0  3  0  0  0  0  0  0
  -21.2430   -5.5350   25.0670 C   0  0  0  0  0  3  0  0  0  0  0  0
  -21.5550   -4.1680   24.9440 C   0  0  0  0  0  0  0  0  0  0  0  0
  -21.9480   -3.6440   23.7000 C   0  0  0  0  0  3  0  0  0  0  0  0
  -22.0280   -4.4880   22.5770 C   0  0  0  0  0  0  0  0  0  0  0  0
  -22.3860   -3.9760   21.3760 F   0  0  0  0  0  0  0  0  0  0  0  0
  -21.4740   -3.3510   26.0220 F   0  0  0  0  0  0  0  0  0  0  0  0
  -22.8110  -13.2810   21.4070 C   0  0  0  0  0  0  0  0  0  0  0  0
  -22.1100  -12.5580   22.2740 N   0  0  0  0  0  0  0  0  0  0  0  0
  -22.3550  -14.3190   20.9270 O   0  0  0  0  0  0  0  0  0  0  0  0
  -22.4910  -11.7150   22.6790 H   0  0  0  0  0  0  0  0  0  0  0  0
  -21.1800  -12.8500   22.5380 H   0  0  0  0  0  0  0  0  0  0  0  0
  -25.4170  -14.9780   20.5700 N   0  0  0  0  0  0  0  0  0  0  0  0
  -24.6590  -15.6340   20.7230 H   0  0  0  0  0  0  0  0  0  0  0  0
  -26.2750  -15.4240   20.2730 H   0  0  0  0  0  0  0  0  0  0  0  0
  -28.7840  -20.0620   20.1180 O   0  0  0  0  0  0  0  0  0  0  0  0
  -28.9510  -20.8340   18.9120 C   0  0  0  0  0  2  0  0  0  0  0  0
  -29.3830  -23.1050   17.8100 C   0  0  0  0  0  2  0  0  0  0  0  0
  -27.5050  -22.9290   19.4740 C   0  0  0  0  0  2  0  0  0  0  0  0
  -29.3210  -24.6480   17.9070 C   0  0  0  0  0  2  0  0  0  0  0  0
  -27.4400  -24.4810   19.5380 C   0  0  0  0  0  2  0  0  0  0  0  0
  -28.9050  -22.3860   19.0980 C   0  0  0  0  0  3  0  0  0  0  0  0
  -27.9010  -25.1540   18.2190 C   0  0  0  0  0  3  0  0  0  0  0  0
  -27.9350  -26.5980   18.2990 O   0  0  0  0  0  0  0  0  0  0  0  0
  -24.6950  -31.2210   22.6440 C   0  0  0  0  0  0  0  0  0  0  0  0
  -26.7770  -27.3210   18.5430 C   0  0  0  0  0  0  0  0  0  0  0  0
  -23.2430  -30.1320   20.9630 C   0  0  0  0  0  3  0  0  0  0  0  0
  -24.4500  -28.8450   19.1210 C   0  0  0  0  0  0  0  0  0  0  0  0
  -25.7340  -30.4900   20.4970 C   0  0  0  0  0  2  0  0  0  0  0  0
  -25.6920  -29.2470   19.6280 C   0  0  0  0  0  0  0  0  0  0  0  0
  -26.8550  -28.4970   19.3320 C   0  0  0  0  0  3  0  0  0  0  0  0
  -25.5120  -26.9420   18.0350 C   0  0  0  0  0  3  0  0  0  0  0  0
  -24.3570  -27.6940   18.3210 C   0  0  0  0  0  3  0  0  0  0  0  0
  -23.2500  -29.6950   19.4730 C   0  0  0  0  0  2  0  0  0  0  0  0
  -24.5830  -30.6190   21.4240 N   0  0  0  0  0  0  0  0  0  0  0  0
  -23.7010  -31.4080   23.3590 O   0  0  0  0  0  0  0  0  0  0  0  0
  -22.6880  -28.9680   21.8170 C   0  0  0  0  0  0  0  0  0  0  0  0
  -21.3520  -28.8240   21.8370 N   0  0  0  0  0  0  0  0  0  0  0  0
  -23.4500  -28.2060   22.4180 O   0  0  0  0  0  0  0  0  0  0  0  0
  -20.7960  -29.4950   21.3260 H   0  0  0  0  0  0  0  0  0  0  0  0
  -18.0350  -27.5720   22.5330 C   0  0  0  0  0  0  0  0  0  0  0  0
  -20.6120  -27.7760   22.5380 C   0  0  0  0  0  3  0  0  0  0  0  0
  -20.6160  -26.4550   21.7360 C   0  0  0  0  0  2  0  0  0  0  0  0
  -19.3990  -26.3010   20.8190 C   0  0  0  0  0  2  0  0  0  0  0  0
  -18.1030  -26.3470   21.6350 C   0  0  0  0  0  2  0  0  0  0  0  0
  -19.2120  -28.2520   22.9440 C   0  0  0  0  0  0  0  0  0  0  0  0
  -19.0910  -29.4050   23.7490 C   0  0  0  0  0  3  0  0  0  0  0  0
  -17.8250  -29.8780   24.1420 C   0  0  0  0  0  3  0  0  0  0  0  0
  -16.6640  -29.1920   23.7450 C   0  0  0  0  0  3  0  0  0  0  0  0
  -16.7700  -28.0400   22.9470 C   0  0  0  0  0  3  0  0  0  0  0  0
  -26.0700  -31.7240   23.1850 C   0  0  0  0  0  3  0  0  0  0  0  0
  -26.7860  -30.6830   24.1300 C   0  0  1  0  0  0  0  0  0  0  0  0
  -25.8860  -30.1590   25.2720 C   0  0  0  0  0  1  0  0  0  0  0  0
  -27.2800  -29.4600   23.3220 C   0  0  0  0  0  1  0  0  0  0  0  0
  -28.0380  -31.3280   24.7680 C   0  0  0  0  0  1  0  0  0  0  0  0
  -25.8280  -32.9890   23.8920 N   0  0  0  0  0  0  0  0  0  0  0  0
  -26.0970  -34.2030   23.3940 C   0  0  0  0  0  0  0  0  0  0  0  0
  -26.6490  -34.3720   22.3020 O   0  0  0  0  0  0  0  0  0  0  0  0
  -25.3290  -32.9300   24.7670 H   0  0  0  0  0  0  0  0  0  0  0  0
  -24.3920  -36.0290   23.6850 C   0  0  0  0  0  1  0  0  0  0  0  0
  -25.6910  -35.4240   24.2400 C   0  0  0  0  0  3  0  0  0  0  0  0
  -27.9180  -36.0530   25.0610 C   0  0  0  0  0  1  0  0  0  0  0  0
  -26.7350  -36.4680   24.3110 N   0  0  0  0  0  0  0  0  0  0  0  0
  -26.3690  -37.3130   24.7410 H   0  0  0  0  0  0  0  0  0  0  0  0
  1  7  1  0
  1 14  1  0
  2  7  1  0
  3  4  1  0
  3  2  1  0
  5  4  1  0
  5 25  1  0
  5  6  1  0
  7  6  1  0
  8  1  2  0
  9 13  1  0
 10  9  1  0
 10 14  1  0
 12 11  1  0
 12 18  1  0
 13 50  1  0
 13 12  1  0
 14 11  1  0
 16 15  1  0
 17 15  1  0
 18 16  1  0
 19 18  1  0
 19 17  1  0
 20 19  1  0
 21 19  1  0
 22 23  2  0
 23 42  1  0
 24 23  1  0
 24 27  1  0
 25 26  1  0
 25 22  1  0
 26 24  2  0
 27 28  1  0
 28 29  2  0
 30 33  1  0
 30 29  1  0
 31 30  2  0
 32 31  1  0
 32 27  2  0
 33 34  1  0
 34 35  1  0
 35 36  2  0
 37 36  1  0
 37 41  1  0
 38 37  2  0
 39 34  2  0
 39 38  1  0
 40 39  1  0
 42 43  1  0
 43 46  1  0
 43 45  1  0
 44 42  2  0
 47 22  1  0
 47 48  1  0
 49 47  1  0
 51 50  1  0
 52 54  1  0
 52 56  1  0
 53 55  1  0
 54 57  1  0
 56 51  1  0
 56 53  1  0
 57 58  1  0
 57 55  1  0
 58 60  1  0
 59 70  2  0
 60 65  1  0
 61 69  1  0
 61 71  1  0
 62 68  1  0
 62 64  1  0
 63 69  1  0
 64 63  1  0
 65 64  2  0
 66 67  1  0
 66 60  2  0
 67 62  2  0
 68 61  1  0
 69 59  1  0
 71 72  1  0
 71 73  2  0
 74 72  1  0
 75 80  2  0
 75 84  1  0
 76 72  1  0
 76 80  1  0
 77 76  1  0
 78 79  1  0
 78 77  1  0
 79 75  1  0
 80 81  1  0
 81 82  2  0
 83 82  1  0
 84 83  2  0
 85 59  1  0
 85 90  1  0
 85 86  1  0
 86 89  1  1
 86 87  1  0
 88 86  1  0
 90 93  1  0
 91 90  1  0
 91 95  1  0
 92 91  2  0
 95 94  1  0
 95 97  1  0
 97 98  1  0
 97 96  1  0
M  ISO  4   1 100  14 100  57 101  58 101
M  END
>  <TORSDO>  (25) 
F 19

>  <SCORE>  (25) 
-11.164

>  <name>  (25) 
24

>  <ligand_id>  (25) 
24

>  <original_smiles>  (25) 
[H]c1c([H])c([H])c2c(c1[H])C([H])([H])C([H])([H])C([H])([H])C2([H])N([H])C(=O)C1([H])N(C(=O)C([H])(N([H])C(=O)C([H])(N([H])C([H])([H])[H])C([H])([H])[H])C(C([H])([H])[H])(C([H])([H])[H])C([H])([H])[H])C([H])([H])c2c([H])c(OC3([H])C([H])([H])C([H])([H])C([H])(C([H])([H])OC4([H])C([H])([H])C([H])([H])N(C(=O)N5C([H])([H])C([H])([H])C([H])([H])C([H])(n6nc(-c7c([H])c([H])c(Oc8c([H])c([H])c(F)c([H])c8F)c([H])c7[H])c(C(=O)N([H])[H])c6N([H])[H])C5([H])[H])C([H])([H])C4([H])C4([H])C([H])([H])C([H])([H])C([H])([H])[N+]4([H])[H])C([H])([H])C3([H])[H])c([H])c([H])c2C1([H])[H]

>  <smiles>  (25) 
[H]c1c([H])c([H])c2c(c1[H])C([H])([H])C([H])([H])C([H])([H])C2([H])N([H])C(=O)C1([H])N(C(=O)C([H])(N([H])C(=O)C([H])(N([H])C([H])([H])[H])C([H])([H])[H])C(C([H])([H])[H])(C([H])([H])[H])C([H])([H])[H])C([H])([H])c2c([H])c(OC3([H])C([H])([H])C([H])([H])C([H])(C([H])([H])OC4([H])C([H])([H])C([H])([H])N(C(=O)N5C([H])([H])C([H])([H])C([H])([H])C([H])(n6nc(-c7c([H])c([H])c(Oc8c([H])c([H])c(F)c([H])c8F)c([H])c7[H])c(C(=O)N([H])[H])c6N([H])[H])C5([H])[H])C([H])([H])C4([H])C4([H])C([H])([H])C([H])([H])C([H])([H])[N+]4([H])[H])C([H])([H])C3([H])[H])c([H])c([H])c2C1([H])[H]

$$$$
25:0:0
     RDKit          3D

 93102  0  0  1  0  0  0  0  0999 V2000
  -29.5500  -23.2330   21.3680 C   0  0  0  0  0  3  0  0  0  0  0  0
  -29.4710  -21.8410   21.0930 C   0  0  0  0  0  3  0  0  0  0  0  0
  -28.0800  -23.6970   19.5170 C   0  0  0  0  0  3  0  0  0  0  0  0
  -28.8270  -24.1910   20.6110 C   0  0  0  0  0  0  0  0  0  0  0  0
  -27.9930  -22.3040   19.2340 C   0  0  0  0  0  0  0  0  0  0  0  0
  -28.6490  -21.3370   20.0590 C   0  0  0  0  0  0  0  0  0  0  0  0
  -27.1440  -21.8820   18.0440 C   0  0  0  0  0  1  0  0  0  0  0  0
  -26.9720  -19.5830   20.2030 C   0  0  0  0  0  1  0  0  0  0  0  0
  -28.3710  -19.9390   19.9520 N   0  0  0  0  0  0  0  0  0  0  0  0
  -31.0280  -14.7620   20.0370 C   0  0  0  0  0  0  0  0  0  0  0  0
  -30.7750  -12.4340   19.2430 C   0  0  0  0  0  2  0  0  0  0  0  0
  -29.8350  -12.4280   18.0210 C   0  0  0  0  0  2  0  0  0  0  0  0
  -28.3660  -12.3190   18.4710 C   0  0  0  0  0  2  0  0  0  0  0  0
  -28.0020  -13.3160   19.6040 C   0  0  0  0  0  3  0  0  0  0  0  0
  -29.0660  -13.3230   20.7230 C   0  0  0  0  0  2  0  0  0  0  0  0
  -30.3690  -13.5670   20.0930 N   0  0  0  0  0  0  0  0  0  0  0  0
  -32.2110  -14.8280   19.6870 O   0  0  0  0  0  0  0  0  0  0  0  0
  -28.8960  -17.6980   18.9240 C   0  0  0  0  0  2  0  0  0  0  0  0
  -29.8040  -18.2030   21.1660 C   0  0  0  0  0  2  0  0  0  0  0  0
  -29.9120  -16.5230   18.8190 C   0  0  0  0  0  2  0  0  0  0  0  0
  -30.7780  -16.9910   21.0050 C   0  0  0  0  0  2  0  0  0  0  0  0
  -29.3900  -18.8600   19.8210 C   0  0  0  0  0  3  0  0  0  0  0  0
  -30.2810  -15.9110   20.1180 N   0  0  0  0  0  0  0  0  0  0  0  0
  -25.6580  -13.9870   20.4090 C   0  0  0  0  0  0  0  0  0  0  0  0
  -24.5750  -13.2460   20.7960 C   0  0  0  0  0  0  0  0  0  0  0  0
  -24.9870  -11.8790   20.7320 C   0  0  0  0  0  0  0  0  0  0  0  0
  -26.6620  -13.0740   20.1280 N   0  0  0  0  0  0  0  0  0  0  0  0
  -26.2650  -11.8010   20.3840 N   0  0  0  0  0  0  0  0  0  0  0  0
  -24.2210  -10.6420   20.9250 C   0  0  0  0  0  0  0  0  0  0  0  0
  -24.6140   -9.6720   21.8730 C   0  0  0  0  0  3  0  0  0  0  0  0
  -23.8530   -8.4970   22.0550 C   0  0  0  0  0  3  0  0  0  0  0  0
  -22.6830   -8.2850   21.2870 C   0  0  0  0  0  0  0  0  0  0  0  0
  -22.3090   -9.2430   20.3290 C   0  0  0  0  0  3  0  0  0  0  0  0
  -23.0710  -10.4100   20.1460 C   0  0  0  0  0  3  0  0  0  0  0  0
  -21.8950   -7.1630   21.3760 O   0  0  0  0  0  0  0  0  0  0  0  0
  -21.7530   -6.4740   22.5540 C   0  0  0  0  0  0  0  0  0  0  0  0
  -21.2680   -7.0940   23.7250 C   0  0  0  0  0  3  0  0  0  0  0  0
  -21.0720   -6.3330   24.8960 C   0  0  0  0  0  3  0  0  0  0  0  0
  -21.3510   -4.9540   24.8940 C   0  0  0  0  0  0  0  0  0  0  0  0
  -21.8280   -4.3330   23.7260 C   0  0  0  0  0  3  0  0  0  0  0  0
  -22.0260   -5.0920   22.5590 C   0  0  0  0  0  0  0  0  0  0  0  0
  -22.4680   -4.4850   21.4310 F   0  0  0  0  0  0  0  0  0  0  0  0
  -21.1560   -4.2200   26.0140 F   0  0  0  0  0  0  0  0  0  0  0  0
  -23.2050  -13.7700   21.1150 C   0  0  0  0  0  0  0  0  0  0  0  0
  -22.4840  -13.0990   22.0070 N   0  0  0  0  0  0  0  0  0  0  0  0
  -22.7820  -14.8090   20.6090 O   0  0  0  0  0  0  0  0  0  0  0  0
  -22.8390  -12.2590   22.4390 H   0  0  0  0  0  0  0  0  0  0  0  0
  -21.5650  -13.4320   22.2610 H   0  0  0  0  0  0  0  0  0  0  0  0
  -25.8660  -15.3530   20.2480 N   0  0  0  0  0  0  0  0  0  0  0  0
  -25.1290  -16.0330   20.3970 H   0  0  0  0  0  0  0  0  0  0  0  0
  -26.7340  -15.7650   19.9330 H   0  0  0  0  0  0  0  0  0  0  0  0
  -28.7290  -25.6680   21.1020 C   0  0  0  0  0  2  0  0  0  0  0  0
  -28.7060  -26.7470   20.1300 O   0  0  0  0  0  0  0  0  0  0  0  0
  -24.6260  -31.8020   23.2190 C   0  0  0  0  0  0  0  0  0  0  0  0
  -27.5550  -27.5180   20.1280 C   0  0  0  0  0  0  0  0  0  0  0  0
  -23.5440  -30.3970   21.4990 C   0  0  0  0  0  3  0  0  0  0  0  0
  -25.1150  -28.9630   20.0860 C   0  0  0  0  0  0  0  0  0  0  0  0
  -26.0620  -30.8570   21.4070 C   0  0  0  0  0  2  0  0  0  0  0  0
  -26.2310  -29.5040   20.7360 C   0  0  0  0  0  0  0  0  0  0  0  0
  -27.4570  -28.7880   20.7590 C   0  0  0  0  0  3  0  0  0  0  0  0
  -26.4270  -27.0130   19.4550 C   0  0  0  0  0  3  0  0  0  0  0  0
  -25.2080  -27.7180   19.4400 C   0  0  0  0  0  3  0  0  0  0  0  0
  -23.8350  -29.7700   20.1100 C   0  0  0  0  0  2  0  0  0  0  0  0
  -24.7600  -31.0340   22.1000 N   0  0  0  0  0  0  0  0  0  0  0  0
  -23.5160  -32.0110   23.7260 O   0  0  0  0  0  0  0  0  0  0  0  0
  -22.9040  -29.3210   22.4060 C   0  0  0  0  0  0  0  0  0  0  0  0
  -21.5860  -29.1120   22.2580 N   0  0  0  0  0  0  0  0  0  0  0  0
  -23.5930  -28.6770   23.2030 O   0  0  0  0  0  0  0  0  0  0  0  0
  -21.0890  -29.6860   21.5900 H   0  0  0  0  0  0  0  0  0  0  0  0
  -18.2240  -27.8650   22.7180 C   0  0  0  0  0  0  0  0  0  0  0  0
  -20.7830  -28.1240   22.9790 C   0  0  0  0  0  3  0  0  0  0  0  0
  -20.8880  -26.7310   22.3170 C   0  0  0  0  0  2  0  0  0  0  0  0
  -19.7780  -26.4650   21.2940 C   0  0  0  0  0  2  0  0  0  0  0  0
  -18.4020  -26.5610   21.9580 C   0  0  0  0  0  2  0  0  0  0  0  0
  -19.3420  -28.6070   23.1840 C   0  0  0  0  0  0  0  0  0  0  0  0
  -19.1210  -29.8300   23.8520 C   0  0  0  0  0  3  0  0  0  0  0  0
  -17.8150  -30.3120   24.0620 C   0  0  0  0  0  3  0  0  0  0  0  0
  -16.7110  -29.5650   23.6130 C   0  0  0  0  0  3  0  0  0  0  0  0
  -16.9170  -28.3440   22.9480 C   0  0  0  0  0  3  0  0  0  0  0  0
  -25.8590  -32.4730   23.9000 C   0  0  0  0  0  3  0  0  0  0  0  0
  -25.4940  -33.8620   24.2090 N   0  0  0  0  0  0  0  0  0  0  0  0
  -25.8280  -34.9220   23.4600 C   0  0  0  0  0  0  0  0  0  0  0  0
  -26.5450  -34.8340   22.4600 O   0  0  0  0  0  0  0  0  0  0  0  0
  -24.8610  -34.0030   24.9840 H   0  0  0  0  0  0  0  0  0  0  0  0
  -24.0630  -36.6560   23.0160 C   0  0  0  0  0  1  0  0  0  0  0  0
  -25.2770  -36.2960   23.8860 C   0  0  0  0  0  3  0  0  0  0  0  0
  -27.3470  -37.2480   24.8030 C   0  0  0  0  0  1  0  0  0  0  0  0
  -26.2790  -37.3820   23.8150 N   0  0  0  0  0  0  0  0  0  0  0  0
  -25.8380  -38.2880   23.9450 H   0  0  0  0  0  0  0  0  0  0  0  0
  -26.3360  -31.7200   25.2030 C   0  0  1  0  0  0  0  0  0  0  0  0
  -25.1980  -31.4510   26.2150 C   0  0  0  0  0  1  0  0  0  0  0  0
  -26.9800  -30.3610   24.8420 C   0  0  0  0  0  1  0  0  0  0  0  0
  -27.4270  -32.5500   25.9180 C   0  0  0  0  0  1  0  0  0  0  0  0
  2  1  1  0
  3  4  1  0
  4 52  1  0
  4  1  2  0
  5  3  2  0
  5  6  1  0
  6  2  2  0
  7  5  1  0
  9  6  1  0
  9  8  1  0
 10 16  1  0
 10 23  1  0
 11 16  1  0
 12 13  1  0
 12 11  1  0
 14 13  1  0
 14 27  1  0
 14 15  1  0
 16 15  1  0
 17 10  2  0
 18 22  1  0
 20 18  1  0
 20 23  1  0
 21 19  1  0
 22  9  1  0
 22 19  1  0
 23 21  1  0
 24 25  2  0
 25 44  1  0
 26 25  1  0
 26 29  1  0
 27 28  1  0
 27 24  1  0
 28 26  2  0
 29 30  1  0
 30 31  2  0
 32 35  1  0
 32 31  1  0
 33 32  2  0
 34 33  1  0
 34 29  2  0
 35 36  1  0
 36 41  2  0
 36 37  1  0
 37 38  2  0
 39 38  1  0
 39 43  1  0
 40 39  2  0
 41 40  1  0
 42 41  1  0
 44 45  1  0
 45 48  1  0
 45 47  1  0
 46 44  2  0
 49 50  1  0
 49 24  1  0
 51 49  1  0
 53 52  1  0
 54 65  2  0
 55 53  1  0
 55 60  1  0
 56 64  1  0
 56 66  1  0
 57 63  1  0
 57 59  1  0
 58 64  1  0
 59 60  2  0
 59 58  1  0
 61 55  2  0
 62 61  1  0
 62 57  2  0
 63 56  1  0
 64 54  1  0
 66 68  2  0
 67 66  1  0
 69 67  1  0
 70 79  2  0
 70 75  1  0
 71 67  1  0
 71 75  1  0
 72 71  1  0
 73 74  1  0
 73 72  1  0
 74 70  1  0
 75 76  2  0
 76 77  1  0
 78 77  2  0
 79 78  1  0
 80 54  1  0
 80 81  1  0
 80 90  1  0
 81 84  1  0
 82 86  1  0
 82 81  1  0
 83 82  2  0
 86 85  1  0
 88 86  1  0
 88 89  1  0
 88 87  1  0
 90 93  1  1
 90 91  1  0
 92 90  1  0
M  ISO  4  10 100  23 100  52 101  53 101
M  END
>  <TORSDO>  (26) 
F 18

>  <SCORE>  (26) 
-13.805

>  <name>  (26) 
25

>  <ligand_id>  (26) 
25

>  <original_smiles>  (26) 
[H]c1c([H])c([H])c2c(c1[H])C([H])([H])C([H])([H])C([H])([H])C2([H])N([H])C(=O)C1([H])N(C(=O)C([H])(N([H])C(=O)C([H])(N([H])C([H])([H])[H])C([H])([H])[H])C(C([H])([H])[H])(C([H])([H])[H])C([H])([H])[H])C([H])([H])c2c([H])c(OC([H])([H])c3c([H])c([H])c(N(C([H])([H])[H])C4([H])C([H])([H])C([H])([H])N(C(=O)N5C([H])([H])C([H])([H])C([H])([H])C([H])(n6nc(-c7c([H])c([H])c(Oc8c([H])c([H])c(F)c([H])c8F)c([H])c7[H])c(C(=O)N([H])[H])c6N([H])[H])C5([H])[H])C([H])([H])C4([H])[H])c(C([H])([H])[H])c3[H])c([H])c([H])c2C1([H])[H]

>  <smiles>  (26) 
[H]c1c([H])c([H])c2c(c1[H])C([H])([H])C([H])([H])C([H])([H])C2([H])N([H])C(=O)C1([H])N(C(=O)C([H])(N([H])C(=O)C([H])(N([H])C([H])([H])[H])C([H])([H])[H])C(C([H])([H])[H])(C([H])([H])[H])C([H])([H])[H])C([H])([H])c2c([H])c(OC([H])([H])c3c([H])c([H])c(N(C([H])([H])[H])C4([H])C([H])([H])C([H])([H])N(C(=O)N5C([H])([H])C([H])([H])C([H])([H])C([H])(n6nc(-c7c([H])c([H])c(Oc8c([H])c([H])c(F)c([H])c8F)c([H])c7[H])c(C(=O)N([H])[H])c6N([H])[H])C5([H])[H])C([H])([H])C4([H])[H])c(C([H])([H])[H])c3[H])c([H])c([H])c2C1([H])[H]

$$$$
26:0:0
     RDKit          3D

 89 97  0  0  1  0  0  0  0  0999 V2000
  -28.6140  -23.2310   21.0510 C   0  0  0  0  0  3  0  0  0  0  0  0
  -28.6900  -21.7410   18.8740 C   0  0  0  0  0  3  0  0  0  0  0  0
  -28.9980  -21.7420   21.0700 C   0  0  0  0  0  0  0  0  0  0  0  0
  -29.0740  -20.7610   19.9450 C   0  0  0  0  0  0  0  0  0  0  0  0
  -28.2200  -24.1140   19.9240 C   0  0  0  0  0  0  0  0  0  0  0  0
  -28.3430  -23.1710   18.8570 N   0  0  0  0  0  0  0  0  0  0  0  0
  -28.0930  -25.7250   19.7340 O   0  0  0  0  0  0  0  0  0  0  0  0
  -24.6090  -31.8520   23.0740 C   0  0  0  0  0  0  0  0  0  0  0  0
  -27.0530  -26.8800   19.8360 C   0  0  0  0  0  0  0  0  0  0  0  0
  -23.3510  -30.4560   21.4900 C   0  0  0  0  0  3  0  0  0  0  0  0
  -24.7390  -28.8640   19.9600 C   0  0  0  0  0  0  0  0  0  0  0  0
  -25.9120  -30.6580   21.2080 C   0  0  0  0  0  2  0  0  0  0  0  0
  -25.9630  -29.2360   20.5270 C   0  0  0  0  0  0  0  0  0  0  0  0
  -27.1000  -28.2730   20.4340 C   0  0  0  0  0  3  0  0  0  0  0  0
  -25.7870  -26.7230   19.2150 C   0  0  0  0  0  3  0  0  0  0  0  0
  -24.6860  -27.6340   19.2800 C   0  0  0  0  0  3  0  0  0  0  0  0
  -23.5170  -29.7860   20.0950 C   0  0  0  0  0  2  0  0  0  0  0  0
  -24.6510  -31.0210   21.9750 N   0  0  0  0  0  0  0  0  0  0  0  0
  -23.5460  -32.1180   23.6590 O   0  0  0  0  0  0  0  0  0  0  0  0
  -22.7190  -29.4460   22.4860 C   0  0  0  0  0  0  0  0  0  0  0  0
  -21.4030  -29.1860   22.3760 N   0  0  0  0  0  0  0  0  0  0  0  0
  -23.4270  -28.8930   23.3320 O   0  0  0  0  0  0  0  0  0  0  0  0
  -20.8780  -29.6840   21.6690 H   0  0  0  0  0  0  0  0  0  0  0  0
  -18.1550  -27.6240   22.8480 C   0  0  0  0  0  0  0  0  0  0  0  0
  -20.6550  -28.2030   23.1720 C   0  0  0  0  0  3  0  0  0  0  0  0
  -20.9400  -26.7630   22.6870 C   0  0  0  0  0  2  0  0  0  0  0  0
  -19.9230  -26.2600   21.6580 C   0  0  0  0  0  2  0  0  0  0  0  0
  -18.5100  -26.2730   22.2490 C   0  0  0  0  0  2  0  0  0  0  0  0
  -19.1610  -28.5350   23.2660 C   0  0  0  0  0  0  0  0  0  0  0  0
  -18.7710  -29.7870   23.7890 C   0  0  0  0  0  3  0  0  0  0  0  0
  -17.4110  -30.1330   23.8960 C   0  0  0  0  0  3  0  0  0  0  0  0
  -16.4200  -29.2220   23.4910 C   0  0  0  0  0  3  0  0  0  0  0  0
  -16.7930  -27.9690   22.9720 C   0  0  0  0  0  3  0  0  0  0  0  0
  -25.8980  -32.5200   23.6450 C   0  0  0  0  0  3  0  0  0  0  0  0
  -26.4890  -31.7550   24.8940 C   0  0  1  0  0  0  0  0  0  0  0  0
  -25.4540  -31.4960   26.0140 C   0  0  0  0  0  1  0  0  0  0  0  0
  -27.0760  -30.3870   24.4820 C   0  0  0  0  0  1  0  0  0  0  0  0
  -27.6560  -32.5670   25.5020 C   0  0  0  0  0  1  0  0  0  0  0  0
  -25.5680  -33.9100   24.0210 N   0  0  0  0  0  0  0  0  0  0  0  0
  -25.8980  -35.0000   23.3160 C   0  0  0  0  0  0  0  0  0  0  0  0
  -26.5700  -34.9440   22.2840 O   0  0  0  0  0  0  0  0  0  0  0  0
  -24.9690  -34.0270   24.8250 H   0  0  0  0  0  0  0  0  0  0  0  0
  -24.1830  -36.8250   23.0310 C   0  0  0  0  0  1  0  0  0  0  0  0
  -25.4110  -36.3700   23.8360 C   0  0  0  0  0  3  0  0  0  0  0  0
  -27.5330  -37.2150   24.7430 C   0  0  0  0  0  1  0  0  0  0  0  0
  -26.4490  -37.4240   23.7870 N   0  0  0  0  0  0  0  0  0  0  0  0
  -26.0440  -38.3380   23.9640 H   0  0  0  0  0  0  0  0  0  0  0  0
  -29.4640  -21.2200   22.4180 C   0  0  0  0  0  2  0  0  0  0  0  0
  -31.4740  -20.9630   23.9890 C   0  0  0  0  0  1  0  0  0  0  0  0
  -30.9540  -21.5160   22.6570 C   0  0  0  0  0  2  0  0  0  0  0  0
  -29.8010  -19.0260   19.7600 C   0  0  0  0  0  2  0  0  0  0  0  0
  -30.3260  -15.8980   19.9100 C   0  0  0  0  0  0  0  0  0  0  0  0
  -30.4590  -13.3180   19.2160 C   0  0  0  0  0  2  0  0  0  0  0  0
  -29.5630  -12.8330   18.0400 C   0  0  0  0  0  2  0  0  0  0  0  0
  -28.1520  -12.4740   18.5330 C   0  0  0  0  0  2  0  0  0  0  0  0
  -27.6380  -13.5150   19.5540 C   0  0  0  0  0  3  0  0  0  0  0  0
  -28.6760  -13.9080   20.6310 C   0  0  0  0  0  2  0  0  0  0  0  0
  -29.8230  -14.5220   19.9220 N   0  0  0  0  0  0  0  0  0  0  0  0
  -31.5560  -15.8400   19.7110 O   0  0  0  0  0  0  0  0  0  0  0  0
  -29.5620  -17.2650   19.9320 N   0  0  0  0  0  0  0  0  0  0  0  0
  -28.5810  -17.0690   20.0720 H   0  0  0  0  0  0  0  0  0  0  0  0
  -25.3030  -14.0360   20.4030 C   0  0  0  0  0  0  0  0  0  0  0  0
  -24.2560  -13.2510   20.7940 C   0  0  0  0  0  0  0  0  0  0  0  0
  -24.7260  -11.9030   20.7310 C   0  0  0  0  0  0  0  0  0  0  0  0
  -26.3380  -13.1690   20.1120 N   0  0  0  0  0  0  0  0  0  0  0  0
  -26.0070  -11.8760   20.3770 N   0  0  0  0  0  0  0  0  0  0  0  0
  -24.0030  -10.6380   20.9260 C   0  0  0  0  0  0  0  0  0  0  0  0
  -24.4360   -9.6750   21.8630 C   0  0  0  0  0  3  0  0  0  0  0  0
  -23.7090   -8.4780   22.0500 C   0  0  0  0  0  3  0  0  0  0  0  0
  -22.5340   -8.2380   21.2990 C   0  0  0  0  0  0  0  0  0  0  0  0
  -22.1200   -9.1890   20.3500 C   0  0  0  0  0  3  0  0  0  0  0  0
  -22.8480  -10.3760   20.1620 C   0  0  0  0  0  3  0  0  0  0  0  0
  -21.7790   -7.0930   21.3940 O   0  0  0  0  0  0  0  0  0  0  0  0
  -21.6950   -6.3820   22.5630 C   0  0  0  0  0  0  0  0  0  0  0  0
  -21.2040   -6.9600   23.7550 C   0  0  0  0  0  3  0  0  0  0  0  0
  -21.0700   -6.1720   24.9160 C   0  0  0  0  0  3  0  0  0  0  0  0
  -21.4170   -4.8080   24.8860 C   0  0  0  0  0  0  0  0  0  0  0  0
  -21.9010   -4.2300   23.7000 C   0  0  0  0  0  3  0  0  0  0  0  0
  -22.0360   -5.0130   22.5410 C   0  0  0  0  0  0  0  0  0  0  0  0
  -22.4820   -4.4460   21.3950 F   0  0  0  0  0  0  0  0  0  0  0  0
  -21.2810   -4.0490   26.0000 F   0  0  0  0  0  0  0  0  0  0  0  0
  -22.8670  -13.7250   21.1070 C   0  0  0  0  0  0  0  0  0  0  0  0
  -22.1700  -13.0310   21.9980 N   0  0  0  0  0  0  0  0  0  0  0  0
  -22.4130  -14.7480   20.5950 O   0  0  0  0  0  0  0  0  0  0  0  0
  -22.5540  -12.2050   22.4340 H   0  0  0  0  0  0  0  0  0  0  0  0
  -21.2390  -13.3300   22.2500 H   0  0  0  0  0  0  0  0  0  0  0  0
  -25.4550  -15.4100   20.2350 N   0  0  0  0  0  0  0  0  0  0  0  0
  -24.6870  -16.0570   20.3720 H   0  0  0  0  0  0  0  0  0  0  0  0
  -26.2790  -15.8490   19.8480 H   0  0  0  0  0  0  0  0  0  0  0  0
  1  3  2  0
  2  4  2  0
  3 48  1  0
  4  3  1  0
  5  1  1  0
  6  2  1  0
  6  5  2  0
  7  9  1  0
  7  5  1  0
  8 19  2  0
  9 14  1  0
 10 18  1  0
 10 20  1  0
 11 17  1  0
 11 13  1  0
 12 18  1  0
 13 12  1  0
 14 13  2  0
 15 16  1  0
 15  9  2  0
 16 11  2  0
 17 10  1  0
 18  8  1  0
 20 22  2  0
 21 20  1  0
 23 21  1  0
 24 33  2  0
 24 29  1  0
 25 21  1  0
 25 29  1  0
 26 25  1  0
 27 28  1  0
 27 26  1  0
 28 24  1  0
 29 30  2  0
 30 31  1  0
 32 31  2  0
 33 32  1  0
 34  8  1  0
 34 39  1  0
 34 35  1  0
 35 38  1  1
 35 36  1  0
 37 35  1  0
 39 42  1  0
 40 44  1  0
 40 39  1  0
 41 40  2  0
 44 43  1  0
 46 44  1  0
 46 47  1  0
 46 45  1  0
 48 50  1  0
 50 49  1  0
 51 60  1  0
 51  4  1  0
 52 58  1  0
 52 60  1  0
 53 58  1  0
 54 55  1  0
 54 53  1  0
 56 55  1  0
 56 65  1  0
 56 57  1  0
 58 57  1  0
 59 52  2  0
 60 61  1  0
 62 63  2  0
 63 82  1  0
 64 63  1  0
 64 67  1  0
 65 66  1  0
 65 62  1  0
 66 64  2  0
 67 68  1  0
 68 69  2  0
 70 73  1  0
 70 69  1  0
 71 70  2  0
 72 71  1  0
 72 67  2  0
 73 74  1  0
 74 75  1  0
 75 76  2  0
 77 76  1  0
 77 81  1  0
 78 77  2  0
 79 74  2  0
 79 78  1  0
 80 79  1  0
 82 83  1  0
 83 86  1  0
 83 85  1  0
 84 82  2  0
 87 88  1  0
 87 62  1  0
 89 87  1  0
M  ISO  4   5 101   7 101  52 100  60 100
M  END
>  <TORSDO>  (27) 
F 19

>  <SCORE>  (27) 
-15.014

>  <name>  (27) 
26

>  <ligand_id>  (27) 
26

>  <original_smiles>  (27) 
[H]c1nc(Oc2c([H])c([H])c3c(c2[H])C([H])([H])N(C(=O)C([H])(N([H])C(=O)C([H])(N([H])C([H])([H])[H])C([H])([H])[H])C(C([H])([H])[H])(C([H])([H])[H])C([H])([H])[H])C([H])(C(=O)N([H])C2([H])c4c([H])c([H])c([H])c([H])c4C([H])([H])C([H])([H])C2([H])[H])C3([H])[H])c([H])c(C([H])([H])C([H])([H])C([H])([H])[H])c1C([H])([H])N([H])C(=O)N1C([H])([H])C([H])([H])C([H])([H])C([H])(n2nc(-c3c([H])c([H])c(Oc4c([H])c([H])c(F)c([H])c4F)c([H])c3[H])c(C(=O)N([H])[H])c2N([H])[H])C1([H])[H]

>  <smiles>  (27) 
[H]c1nc(Oc2c([H])c([H])c3c(c2[H])C([H])([H])N(C(=O)C([H])(N([H])C(=O)C([H])(N([H])C([H])([H])[H])C([H])([H])[H])C(C([H])([H])[H])(C([H])([H])[H])C([H])([H])[H])C([H])(C(=O)N([H])C2([H])c4c([H])c([H])c([H])c([H])c4C([H])([H])C([H])([H])C2([H])[H])C3([H])[H])c([H])c(C([H])([H])C([H])([H])C([H])([H])[H])c1C([H])([H])N([H])C(=O)N1C([H])([H])C([H])([H])C([H])([H])C([H])(n2nc(-c3c([H])c([H])c(Oc4c([H])c([H])c(F)c([H])c4F)c([H])c3[H])c(C(=O)N([H])[H])c2N([H])[H])C1([H])[H]

$$$$
27:0:0
     RDKit          3D

 91 99  0  0  1  0  0  0  0  0999 V2000
  -29.3520  -22.9830   18.7620 C   0  0  0  0  0  3  0  0  0  0  0  0
  -29.6100  -21.6300   19.1380 C   0  0  0  0  0  3  0  0  0  0  0  0
  -28.8830  -23.5760   21.0350 C   0  0  0  0  0  3  0  0  0  0  0  0
  -28.9990  -24.0040   19.6890 C   0  0  0  0  0  0  0  0  0  0  0  0
  -29.1230  -22.2140   21.4230 C   0  0  0  0  0  0  0  0  0  0  0  0
  -29.5210  -21.2050   20.4870 C   0  0  0  0  0  0  0  0  0  0  0  0
  -28.9250  -21.8350   22.8800 C   0  0  0  0  0  1  0  0  0  0  0  0
  -29.8240  -19.8730   20.9420 N   0  0  0  0  0  0  0  0  0  0  0  0
  -29.6770  -19.7180   21.9340 H   0  0  0  0  0  0  0  0  0  0  0  0
  -30.0190  -18.6110   20.1560 C   0  0  0  0  0  2  0  0  0  0  0  0
  -30.6780  -17.3990   20.9730 C   0  0  0  0  0  2  0  0  0  0  0  0
  -31.0270  -14.8720   20.4240 C   0  0  0  0  0  0  0  0  0  0  0  0
  -30.7960  -12.6260   19.3790 C   0  0  0  0  0  2  0  0  0  0  0  0
  -29.8790  -12.7530   18.1430 C   0  0  0  0  0  2  0  0  0  0  0  0
  -28.3990  -12.6120   18.5490 C   0  0  0  0  0  2  0  0  0  0  0  0
  -28.0270  -13.5010   19.7650 C   0  0  0  0  0  3  0  0  0  0  0  0
  -29.0600  -13.3560   20.9030 C   0  0  0  0  0  2  0  0  0  0  0  0
  -30.3780  -13.6680   20.3360 N   0  0  0  0  0  0  0  0  0  0  0  0
  -32.2150  -14.9830   20.1110 O   0  0  0  0  0  0  0  0  0  0  0  0
  -30.2590  -15.9760   20.6950 N   0  0  0  0  0  0  0  0  0  0  0  0
  -29.2850  -15.7770   20.8570 H   0  0  0  0  0  0  0  0  0  0  0  0
  -25.6380  -14.1450   20.4480 C   0  0  0  0  0  0  0  0  0  0  0  0
  -24.5490  -13.3910   20.7940 C   0  0  0  0  0  0  0  0  0  0  0  0
  -24.9830  -12.0310   20.7610 C   0  0  0  0  0  0  0  0  0  0  0  0
  -26.6670  -13.2450   20.2280 N   0  0  0  0  0  0  0  0  0  0  0  0
  -26.2780  -11.9680   20.4750 N   0  0  0  0  0  0  0  0  0  0  0  0
  -24.2260  -10.7830   20.9290 C   0  0  0  0  0  0  0  0  0  0  0  0
  -24.6080   -9.8090   21.8780 C   0  0  0  0  0  3  0  0  0  0  0  0
  -23.8540   -8.6270   22.0310 C   0  0  0  0  0  3  0  0  0  0  0  0
  -22.7050   -8.4090   21.2360 C   0  0  0  0  0  0  0  0  0  0  0  0
  -22.3420   -9.3700   20.2760 C   0  0  0  0  0  3  0  0  0  0  0  0
  -23.0960  -10.5460   20.1200 C   0  0  0  0  0  3  0  0  0  0  0  0
  -21.9260   -7.2790   21.2970 O   0  0  0  0  0  0  0  0  0  0  0  0
  -21.8000   -6.5540   22.4560 C   0  0  0  0  0  0  0  0  0  0  0  0
  -21.2880   -7.1270   23.6410 C   0  0  0  0  0  3  0  0  0  0  0  0
  -21.1110   -6.3300   24.7880 C   0  0  0  0  0  3  0  0  0  0  0  0
  -21.4350   -4.9610   24.7520 C   0  0  0  0  0  0  0  0  0  0  0  0
  -21.9380   -4.3870   23.5710 C   0  0  0  0  0  3  0  0  0  0  0  0
  -22.1180   -5.1830   22.4250 C   0  0  0  0  0  0  0  0  0  0  0  0
  -22.5840   -4.6200   21.2840 F   0  0  0  0  0  0  0  0  0  0  0  0
  -21.2570   -4.1910   25.8510 F   0  0  0  0  0  0  0  0  0  0  0  0
  -23.1590  -13.8970   21.0470 C   0  0  0  0  0  0  0  0  0  0  0  0
  -22.4050  -13.2140   21.9010 N   0  0  0  0  0  0  0  0  0  0  0  0
  -22.7490  -14.9320   20.5240 O   0  0  0  0  0  0  0  0  0  0  0  0
  -22.7490  -12.3720   22.3410 H   0  0  0  0  0  0  0  0  0  0  0  0
  -21.4730  -13.5350   22.1190 H   0  0  0  0  0  0  0  0  0  0  0  0
  -25.8310  -15.5130   20.2800 N   0  0  0  0  0  0  0  0  0  0  0  0
  -25.0610  -16.1700   20.3480 H   0  0  0  0  0  0  0  0  0  0  0  0
  -26.6790  -15.9350   19.9270 H   0  0  0  0  0  0  0  0  0  0  0  0
  -28.6850  -25.4520   19.1370 C   0  0  0  0  0  2  0  0  0  0  0  0
  -28.5370  -26.6470   20.0000 O   0  0  0  0  0  0  0  0  0  0  0  0
  -24.6970  -31.8810   23.1530 C   0  0  0  0  0  0  0  0  0  0  0  0
  -27.3940  -27.4660   19.9460 C   0  0  0  0  0  0  0  0  0  0  0  0
  -23.5180  -30.5090   21.4730 C   0  0  0  0  0  3  0  0  0  0  0  0
  -24.9960  -29.0380   19.9950 C   0  0  0  0  0  0  0  0  0  0  0  0
  -26.0500  -30.8850   21.2930 C   0  0  0  0  0  2  0  0  0  0  0  0
  -26.1570  -29.5270   20.6060 C   0  0  0  0  0  0  0  0  0  0  0  0
  -27.3530  -28.7510   20.5750 C   0  0  0  0  0  3  0  0  0  0  0  0
  -26.1970  -27.0230   19.3370 C   0  0  0  0  0  3  0  0  0  0  0  0
  -25.0200  -27.7910   19.3530 C   0  0  0  0  0  3  0  0  0  0  0  0
  -23.7440  -29.8870   20.0700 C   0  0  0  0  0  2  0  0  0  0  0  0
  -24.7750  -31.1070   22.0300 N   0  0  0  0  0  0  0  0  0  0  0  0
  -23.6110  -32.1180   23.6970 O   0  0  0  0  0  0  0  0  0  0  0  0
  -22.8820  -29.4450   22.4010 C   0  0  0  0  0  0  0  0  0  0  0  0
  -21.5630  -29.2320   22.2670 N   0  0  0  0  0  0  0  0  0  0  0  0
  -23.5760  -28.8190   23.2070 O   0  0  0  0  0  0  0  0  0  0  0  0
  -21.0590  -29.7940   21.5950 H   0  0  0  0  0  0  0  0  0  0  0  0
  -18.2230  -27.9160   22.7050 C   0  0  0  0  0  0  0  0  0  0  0  0
  -20.7690  -28.2520   23.0090 C   0  0  0  0  0  3  0  0  0  0  0  0
  -20.9230  -26.8350   22.4050 C   0  0  0  0  0  2  0  0  0  0  0  0
  -19.8430  -26.4990   21.3730 C   0  0  0  0  0  2  0  0  0  0  0  0
  -18.4510  -26.5870   22.0040 C   0  0  0  0  0  2  0  0  0  0  0  0
  -19.3110  -28.7060   23.1620 C   0  0  0  0  0  0  0  0  0  0  0  0
  -19.0460  -29.9490   23.7770 C   0  0  0  0  0  3  0  0  0  0  0  0
  -17.7230  -30.4020   23.9390 C   0  0  0  0  0  3  0  0  0  0  0  0
  -16.6500  -29.6090   23.5010 C   0  0  0  0  0  3  0  0  0  0  0  0
  -16.9000  -28.3700   22.8870 C   0  0  0  0  0  3  0  0  0  0  0  0
  -25.9680  -32.5230   23.7890 C   0  0  0  0  0  3  0  0  0  0  0  0
  -26.4880  -31.7450   25.0620 C   0  0  1  0  0  0  0  0  0  0  0  0
  -25.3920  -31.4740   26.1200 C   0  0  0  0  0  1  0  0  0  0  0  0
  -27.0940  -30.3820   24.6560 C   0  0  0  0  0  1  0  0  0  0  0  0
  -27.6280  -32.5460   25.7370 C   0  0  0  0  0  1  0  0  0  0  0  0
  -25.6380  -33.9130   24.1340 N   0  0  0  0  0  0  0  0  0  0  0  0
  -25.9610  -34.9810   23.3910 C   0  0  0  0  0  0  0  0  0  0  0  0
  -26.6400  -34.9000   22.3630 O   0  0  0  0  0  0  0  0  0  0  0  0
  -25.0440  -34.0510   24.9380 H   0  0  0  0  0  0  0  0  0  0  0  0
  -24.2150  -36.7560   23.0390 C   0  0  0  0  0  1  0  0  0  0  0  0
  -25.4490  -36.3550   23.8620 C   0  0  0  0  0  3  0  0  0  0  0  0
  -27.5660  -37.2490   24.7320 C   0  0  0  0  0  1  0  0  0  0  0  0
  -26.4650  -37.4280   23.7900 N   0  0  0  0  0  0  0  0  0  0  0  0
  -26.0380  -38.3320   23.9760 H   0  0  0  0  0  0  0  0  0  0  0  0
  1  2  2  0
  1  4  1  0
  2  6  1  0
  3  5  1  0
  4  3  2  0
  5  7  1  0
  6  8  1  0
  6  5  2  0
  8  9  1  0
 10  8  1  0
 10 11  1  0
 12 20  1  0
 13 18  1  0
 14 15  1  0
 14 13  1  0
 16 15  1  0
 16 25  1  0
 16 17  1  0
 18 12  1  0
 18 17  1  0
 19 12  2  0
 20 21  1  0
 20 11  1  0
 22 23  2  0
 23 42  1  0
 24 23  1  0
 24 27  1  0
 25 22  1  0
 25 26  1  0
 26 24  2  0
 27 28  1  0
 28 29  2  0
 30 33  1  0
 30 29  1  0
 31 30  2  0
 32 31  1  0
 32 27  2  0
 33 34  1  0
 34 35  1  0
 35 36  2  0
 37 36  1  0
 37 41  1  0
 38 37  2  0
 39 34  2  0
 39 38  1  0
 40 39  1  0
 42 43  1  0
 43 46  1  0
 43 45  1  0
 44 42  2  0
 47 48  1  0
 47 22  1  0
 49 47  1  0
 50  4  1  0
 50 51  1  0
 52 63  2  0
 53 51  1  0
 53 58  1  0
 54 62  1  0
 54 64  1  0
 55 61  1  0
 55 57  1  0
 56 62  1  0
 57 56  1  0
 58 57  2  0
 59 60  1  0
 59 53  2  0
 60 55  2  0
 61 54  1  0
 62 52  1  0
 64 66  2  0
 65 64  1  0
 67 65  1  0
 68 77  2  0
 68 73  1  0
 69 65  1  0
 69 73  1  0
 70 69  1  0
 71 72  1  0
 71 70  1  0
 72 68  1  0
 73 74  2  0
 74 75  1  0
 76 75  2  0
 77 76  1  0
 78 52  1  0
 78 83  1  0
 78 79  1  0
 79 82  1  1
 79 80  1  0
 81 79  1  0
 83 86  1  0
 84 88  1  0
 84 83  1  0
 85 84  2  0
 88 87  1  0
 90 88  1  0
 90 91  1  0
 90 89  1  0
M  ISO  4  12 100  20 100  50 101  51 101
M  END
>  <TORSDO>  (28) 
F 20

>  <SCORE>  (28) 
-13.204

>  <name>  (28) 
27

>  <ligand_id>  (28) 
27

>  <original_smiles>  (28) 
[H]c1c([H])c([H])c2c(c1[H])C([H])([H])C([H])([H])C([H])([H])C2([H])N([H])C(=O)C1([H])N(C(=O)C([H])(N([H])C(=O)C([H])(N([H])C([H])([H])[H])C([H])([H])[H])C(C([H])([H])[H])(C([H])([H])[H])C([H])([H])[H])C([H])([H])c2c([H])c(OC([H])([H])c3c([H])c([H])c(N([H])C([H])([H])C([H])([H])N([H])C(=O)N4C([H])([H])C([H])([H])C([H])([H])C([H])(n5nc(-c6c([H])c([H])c(Oc7c([H])c([H])c(F)c([H])c7F)c([H])c6[H])c(C(=O)N([H])[H])c5N([H])[H])C4([H])[H])c(C([H])([H])[H])c3[H])c([H])c([H])c2C1([H])[H]

>  <smiles>  (28) 
[H]c1c([H])c([H])c2c(c1[H])C([H])([H])C([H])([H])C([H])([H])C2([H])N([H])C(=O)C1([H])N(C(=O)C([H])(N([H])C(=O)C([H])(N([H])C([H])([H])[H])C([H])([H])[H])C(C([H])([H])[H])(C([H])([H])[H])C([H])([H])[H])C([H])([H])c2c([H])c(OC([H])([H])c3c([H])c([H])c(N([H])C([H])([H])C([H])([H])N([H])C(=O)N4C([H])([H])C([H])([H])C([H])([H])C([H])(n5nc(-c6c([H])c([H])c(Oc7c([H])c([H])c(F)c([H])c7F)c([H])c6[H])c(C(=O)N([H])[H])c5N([H])[H])C4([H])[H])c(C([H])([H])[H])c3[H])c([H])c([H])c2C1([H])[H]

$$$$
28:0:0
     RDKit          3D

 97106  0  0  1  0  0  0  0  0999 V2000
  -31.6560  -19.9240   16.3800 C   0  0  0  0  0  2  0  0  0  0  0  0
  -31.0540  -19.1120   17.5350 C   0  0  0  0  0  2  0  0  0  0  0  0
  -30.8050  -21.1460   16.0530 C   0  0  0  0  0  2  0  0  0  0  0  0
  -29.8340  -21.2160   18.2550 C   0  0  0  0  0  3  0  0  0  0  0  0
  -30.6670  -19.9770   18.7830 C   0  0  0  0  0  3  0  0  0  0  0  0
  -30.6710  -21.9190   17.2760 N   0  0  0  0  0  0  0  0  0  0  0  0
  -30.1990  -22.7890   17.0460 H   0  0  0  0  0  0  0  0  0  0  0  0
  -30.0870  -23.1240   20.1600 C   0  0  0  0  0  2  0  0  0  0  0  0
  -28.4730  -23.3580   18.2170 C   0  0  0  0  0  2  0  0  0  0  0  0
  -29.8690  -24.6780   20.2240 C   0  0  0  0  0  2  0  0  0  0  0  0
  -27.7030  -24.4790   18.9100 C   0  0  0  0  0  2  0  0  0  0  0  0
  -29.1880  -22.3470   19.1520 C   0  0  0  0  0  3  0  0  0  0  0  0
  -28.3980  -25.1750   20.1070 C   0  0  0  0  0  3  0  0  0  0  0  0
  -28.3850  -26.6350   20.0690 O   0  0  0  0  0  0  0  0  0  0  0  0
  -24.6260  -31.8760   23.2290 C   0  0  0  0  0  0  0  0  0  0  0  0
  -27.1970  -27.3650   20.1170 C   0  0  0  0  0  0  0  0  0  0  0  0
  -23.3960  -30.4840   21.6040 C   0  0  0  0  0  3  0  0  0  0  0  0
  -24.8200  -28.9460   20.1640 C   0  0  0  0  0  0  0  0  0  0  0  0
  -25.9330  -30.8090   21.3870 C   0  0  0  0  0  2  0  0  0  0  0  0
  -25.9990  -29.4400   20.7350 C   0  0  0  0  0  0  0  0  0  0  0  0
  -27.1880  -28.6660   20.6950 C   0  0  0  0  0  3  0  0  0  0  0  0
  -25.9750  -26.9030   19.5740 C   0  0  0  0  0  3  0  0  0  0  0  0
  -24.8070  -27.6750   19.5820 C   0  0  0  0  0  3  0  0  0  0  0  0
  -23.5900  -29.8170   20.2200 C   0  0  0  0  0  2  0  0  0  0  0  0
  -24.6710  -31.0750   22.1270 N   0  0  0  0  0  0  0  0  0  0  0  0
  -23.5500  -32.1510   23.7800 O   0  0  0  0  0  0  0  0  0  0  0  0
  -22.7570  -29.4570   22.5680 C   0  0  0  0  0  0  0  0  0  0  0  0
  -21.4310  -29.2720   22.4570 N   0  0  0  0  0  0  0  0  0  0  0  0
  -23.4480  -28.8260   23.3720 O   0  0  0  0  0  0  0  0  0  0  0  0
  -20.9290  -29.8340   21.7830 H   0  0  0  0  0  0  0  0  0  0  0  0
  -18.0610  -28.0620   22.9740 C   0  0  0  0  0  0  0  0  0  0  0  0
  -20.6210  -28.3340   23.2350 C   0  0  0  0  0  3  0  0  0  0  0  0
  -20.7260  -26.8980   22.6700 C   0  0  0  0  0  2  0  0  0  0  0  0
  -19.6240  -26.5620   21.6620 C   0  0  0  0  0  2  0  0  0  0  0  0
  -18.2440  -26.7090   22.3090 C   0  0  0  0  0  2  0  0  0  0  0  0
  -19.1780  -28.8310   23.3950 C   0  0  0  0  0  0  0  0  0  0  0  0
  -18.9570  -30.1010   23.9730 C   0  0  0  0  0  3  0  0  0  0  0  0
  -17.6510  -30.5970   24.1400 C   0  0  0  0  0  3  0  0  0  0  0  0
  -16.5490  -29.8230   23.7380 C   0  0  0  0  0  3  0  0  0  0  0  0
  -16.7550  -28.5590   23.1580 C   0  0  0  0  0  3  0  0  0  0  0  0
  -25.9190  -32.5060   23.8320 C   0  0  0  0  0  3  0  0  0  0  0  0
  -26.4600  -31.7250   25.0920 C   0  0  1  0  0  0  0  0  0  0  0  0
  -25.3900  -31.4770   26.1800 C   0  0  0  0  0  1  0  0  0  0  0  0
  -27.0370  -30.3520   24.6760 C   0  0  0  0  0  1  0  0  0  0  0  0
  -27.6240  -32.5160   25.7380 C   0  0  0  0  0  1  0  0  0  0  0  0
  -25.6200  -33.8980   24.1790 N   0  0  0  0  0  0  0  0  0  0  0  0
  -25.9280  -34.9590   23.4170 C   0  0  0  0  0  0  0  0  0  0  0  0
  -26.5740  -34.8650   22.3700 O   0  0  0  0  0  0  0  0  0  0  0  0
  -25.0570  -34.0450   25.0030 H   0  0  0  0  0  0  0  0  0  0  0  0
  -24.1830  -36.7410   23.1180 C   0  0  0  0  0  1  0  0  0  0  0  0
  -25.4440  -36.3400   23.8980 C   0  0  0  0  0  3  0  0  0  0  0  0
  -27.5930  -37.2250   24.6810 C   0  0  0  0  0  1  0  0  0  0  0  0
  -26.4670  -37.4000   23.7700 N   0  0  0  0  0  0  0  0  0  0  0  0
  -26.0610  -38.3160   23.9390 H   0  0  0  0  0  0  0  0  0  0  0  0
  -30.0000  -19.1460   19.8370 N   0  0  0  0  0  4  0  0  0  0  0  0
  -29.0030  -19.2610   19.7480 H   0  0  0  0  0  0  0  0  0  0  0  0
  -30.2620  -19.5350   20.7300 H   0  0  0  0  0  0  0  0  0  0  0  0
  -30.3000  -17.6710   19.8400 C   0  0  0  0  0  3  0  0  0  0  0  0
  -29.9500  -16.9310   21.1550 C   0  0  0  0  0  3  0  0  0  0  0  0
  -30.6130  -14.4940   20.5390 C   0  0  0  0  0  0  0  0  0  0  0  0
  -30.3620  -12.3400   19.3490 C   0  0  0  0  0  2  0  0  0  0  0  0
  -29.4180  -12.5810   18.1510 C   0  0  0  0  0  2  0  0  0  0  0  0
  -27.9420  -12.4360   18.5710 C   0  0  0  0  0  2  0  0  0  0  0  0
  -27.6100  -13.2420   19.8520 C   0  0  0  0  0  3  0  0  0  0  0  0
  -28.6590  -12.9680   20.9530 C   0  0  0  0  0  2  0  0  0  0  0  0
  -29.9850  -13.2920   20.4050 N   0  0  0  0  0  0  0  0  0  0  0  0
  -31.7360  -14.7300   20.0850 O   0  0  0  0  0  0  0  0  0  0  0  0
  -29.8180  -15.4600   21.0520 N   0  0  0  0  0  0  0  0  0  0  0  0
  -28.9320  -15.1030   21.3780 H   0  0  0  0  0  0  0  0  0  0  0  0
  -25.2120  -13.8710   20.5430 C   0  0  0  0  0  0  0  0  0  0  0  0
  -24.1370  -13.1100   20.9120 C   0  0  0  0  0  0  0  0  0  0  0  0
  -24.5870  -11.7530   20.8910 C   0  0  0  0  0  0  0  0  0  0  0  0
  -26.2520  -12.9800   20.3220 N   0  0  0  0  0  0  0  0  0  0  0  0
  -25.8770  -11.7010   20.5840 N   0  0  0  0  0  0  0  0  0  0  0  0
  -23.8480  -10.4990   21.0850 C   0  0  0  0  0  0  0  0  0  0  0  0
  -24.2840   -9.5170   22.0040 C   0  0  0  0  0  3  0  0  0  0  0  0
  -23.5460   -8.3300   22.1800 C   0  0  0  0  0  3  0  0  0  0  0  0
  -22.3560   -8.1140   21.4430 C   0  0  0  0  0  0  0  0  0  0  0  0
  -21.9420   -9.0840   20.5110 C   0  0  0  0  0  3  0  0  0  0  0  0
  -22.6830  -10.2620   20.3300 C   0  0  0  0  0  3  0  0  0  0  0  0
  -21.5890   -6.9790   21.5340 O   0  0  0  0  0  0  0  0  0  0  0  0
  -21.5710   -6.2130   22.6740 C   0  0  0  0  0  0  0  0  0  0  0  0
  -21.2170   -6.7550   23.9280 C   0  0  0  0  0  3  0  0  0  0  0  0
  -21.1350   -5.9160   25.0590 C   0  0  0  0  0  3  0  0  0  0  0  0
  -21.4030   -4.5390   24.9360 C   0  0  0  0  0  0  0  0  0  0  0  0
  -21.7530   -3.9970   23.6870 C   0  0  0  0  0  3  0  0  0  0  0  0
  -21.8320   -4.8330   22.5570 C   0  0  0  0  0  0  0  0  0  0  0  0
  -22.1460   -4.3000   21.3520 F   0  0  0  0  0  0  0  0  0  0  0  0
  -21.3180   -3.7320   26.0200 F   0  0  0  0  0  0  0  0  0  0  0  0
  -22.7430  -13.6000   21.1750 C   0  0  0  0  0  0  0  0  0  0  0  0
  -22.0040  -12.9160   22.0420 N   0  0  0  0  0  0  0  0  0  0  0  0
  -22.3160  -14.6270   20.6470 O   0  0  0  0  0  0  0  0  0  0  0  0
  -22.3600  -12.0810   22.4810 H   0  0  0  0  0  0  0  0  0  0  0  0
  -21.0720  -13.2310   22.2680 H   0  0  0  0  0  0  0  0  0  0  0  0
  -25.3880  -15.2370   20.3530 N   0  0  0  0  0  0  0  0  0  0  0  0
  -24.6130  -15.8880   20.4110 H   0  0  0  0  0  0  0  0  0  0  0  0
  -26.2300  -15.6610   19.9840 H   0  0  0  0  0  0  0  0  0  0  0  0
  1  2  1  0
  2  5  1  0
  3  1  1  0
  3  6  1  0
  4  6  1  0
  4  5  1  0
  4 12  1  0
  5 55  1  0
  7  6  1  0
  8 10  1  0
  9 11  1  0
 11 13  1  0
 12  9  1  0
 12  8  1  0
 13 14  1  0
 13 10  1  0
 14 16  1  0
 15 26  2  0
 16 21  1  0
 17 25  1  0
 17 27  1  0
 18 24  1  0
 18 20  1  0
 19 25  1  0
 20 19  1  0
 21 20  2  0
 22 23  1  0
 22 16  2  0
 23 18  2  0
 24 17  1  0
 25 15  1  0
 27 29  2  0
 28 27  1  0
 30 28  1  0
 31 40  2  0
 31 36  1  0
 32 28  1  0
 32 36  1  0
 33 32  1  0
 34 35  1  0
 34 33  1  0
 35 31  1  0
 36 37  2  0
 37 38  1  0
 39 38  2  0
 40 39  1  0
 41 15  1  0
 41 46  1  0
 41 42  1  0
 42 45  1  1
 42 43  1  0
 44 42  1  0
 46 49  1  0
 47 51  1  0
 47 46  1  0
 48 47  2  0
 51 50  1  0
 53 51  1  0
 53 54  1  0
 53 52  1  0
 55 58  1  0
 55 57  1  0
 56 55  1  0
 58 59  2  0
 60 68  1  0
 61 66  1  0
 62 63  1  0
 62 61  1  0
 64 63  1  0
 64 73  1  0
 64 65  1  0
 66 60  1  0
 66 65  1  0
 67 60  2  0
 68 59  1  0
 68 69  1  0
 70 71  2  0
 71 90  1  0
 72 71  1  0
 72 75  1  0
 73 70  1  0
 73 74  1  0
 74 72  2  0
 75 76  1  0
 76 77  2  0
 78 81  1  0
 78 77  1  0
 79 78  2  0
 80 79  1  0
 80 75  2  0
 81 82  1  0
 82 83  1  0
 83 84  2  0
 85 84  1  0
 85 89  1  0
 86 85  2  0
 87 82  2  0
 87 86  1  0
 88 87  1  0
 90 91  1  0
 91 94  1  0
 91 93  1  0
 92 90  2  0
 95 96  1  0
 95 70  1  0
 97 95  1  0
M  ISO  4  13 101  14 101  60 100  68 100
M  END
>  <TORSDO>  (29) 
F 20

>  <SCORE>  (29) 
-13.844

>  <name>  (29) 
28

>  <ligand_id>  (29) 
28

>  <original_smiles>  (29) 
[H]c1c([H])c([H])c2c(c1[H])C([H])([H])C([H])([H])C([H])([H])C2([H])N([H])C(=O)C1([H])N(C(=O)C([H])(N([H])C(=O)C([H])(N([H])C([H])([H])[H])C([H])([H])[H])C(C([H])([H])[H])(C([H])([H])[H])C([H])([H])[H])C([H])([H])c2c([H])c(OC3([H])C([H])([H])C([H])([H])C([H])(C4([H])N([H])C([H])([H])C([H])([H])C([H])([H])C4([H])[N+]([H])([H])C([H])([H])C([H])([H])N([H])C(=O)N4C([H])([H])C([H])([H])C([H])([H])C([H])(n5nc(-c6c([H])c([H])c(Oc7c([H])c([H])c(F)c([H])c7F)c([H])c6[H])c(C(=O)N([H])[H])c5N([H])[H])C4([H])[H])C([H])([H])C3([H])[H])c([H])c([H])c2C1([H])[H]

>  <smiles>  (29) 
[H]c1c([H])c([H])c2c(c1[H])C([H])([H])C([H])([H])C([H])([H])C2([H])N([H])C(=O)C1([H])N(C(=O)C([H])(N([H])C(=O)C([H])(N([H])C([H])([H])[H])C([H])([H])[H])C(C([H])([H])[H])(C([H])([H])[H])C([H])([H])[H])C([H])([H])c2c([H])c(OC3([H])C([H])([H])C([H])([H])C([H])(C4([H])N([H])C([H])([H])C([H])([H])C([H])([H])C4([H])[N+]([H])([H])C([H])([H])C([H])([H])N([H])C(=O)N4C([H])([H])C([H])([H])C([H])([H])C([H])(n5nc(-c6c([H])c([H])c(Oc7c([H])c([H])c(F)c([H])c7F)c([H])c6[H])c(C(=O)N([H])[H])c5N([H])[H])C4([H])[H])C([H])([H])C3([H])[H])c([H])c([H])c2C1([H])[H]

$$$$
29:0:0
     RDKit          3D

 95104  0  0  1  0  0  0  0  0999 V2000
  -31.6980  -22.1180   22.1070 C   0  0  0  0  0  3  0  0  0  0  0  0
  -30.5470  -22.8960   21.9200 C   0  0  0  0  0  3  0  0  0  0  0  0
  -30.0330  -22.6850   24.2840 C   0  0  0  0  0  3  0  0  0  0  0  0
  -32.0010  -21.5640   23.3680 C   0  0  0  0  0  0  0  0  0  0  0  0
  -31.1680  -21.8710   24.4710 C   0  0  0  0  0  0  0  0  0  0  0  0
  -29.6890  -23.1740   23.0060 C   0  0  0  0  0  0  0  0  0  0  0  0
  -31.4700  -21.3350   25.8600 C   0  0  0  0  0  1  0  0  0  0  0  0
  -34.2010  -20.5680   22.3700 C   0  0  0  0  0  2  0  0  0  0  0  0
  -33.2220  -20.7060   23.5130 C   0  0  0  0  0  3  0  0  0  0  0  0
  -33.4270  -19.3650   22.8270 C   0  0  0  0  0  3  0  0  0  0  0  0
  -32.4390  -18.7080   21.8750 C   0  0  0  0  0  2  0  0  0  0  0  0
  -33.1620  -17.8650   20.7960 C   0  0  0  0  0  2  0  0  0  0  0  0
  -32.8300  -15.7620   19.4950 C   0  0  0  0  0  0  0  0  0  0  0  0
  -32.3980  -13.5120   18.5650 C   0  0  0  0  0  2  0  0  0  0  0  0
  -31.4120  -13.5490   17.3820 C   0  0  0  0  0  2  0  0  0  0  0  0
  -29.9560  -13.5060   17.8830 C   0  0  0  0  0  2  0  0  0  0  0  0
  -29.6820  -14.5510   18.9940 C   0  0  0  0  0  3  0  0  0  0  0  0
  -30.7560  -14.4520   20.0940 C   0  0  0  0  0  2  0  0  0  0  0  0
  -32.0810  -14.6280   19.4680 N   0  0  0  0  0  0  0  0  0  0  0  0
  -33.8550  -15.9150   18.8190 O   0  0  0  0  0  0  0  0  0  0  0  0
  -32.4050  -16.6910   20.3660 N   0  0  0  0  0  0  0  0  0  0  0  0
  -31.5510  -16.4830   20.8630 H   0  0  0  0  0  0  0  0  0  0  0  0
  -27.4110  -15.3910   19.8760 C   0  0  0  0  0  0  0  0  0  0  0  0
  -26.2930  -14.7250   20.2980 C   0  0  0  0  0  0  0  0  0  0  0  0
  -26.6020  -13.3340   20.1970 C   0  0  0  0  0  0  0  0  0  0  0  0
  -28.3370  -14.4120   19.5480 N   0  0  0  0  0  0  0  0  0  0  0  0
  -27.8560  -13.1680   19.7960 N   0  0  0  0  0  0  0  0  0  0  0  0
  -25.7590  -12.1510   20.4060 C   0  0  0  0  0  0  0  0  0  0  0  0
  -26.0080  -11.2480   21.4610 C   0  0  0  0  0  3  0  0  0  0  0  0
  -25.1760  -10.1250   21.6530 C   0  0  0  0  0  3  0  0  0  0  0  0
  -24.0790   -9.9000   20.7890 C   0  0  0  0  0  0  0  0  0  0  0  0
  -23.8460  -10.7910   19.7260 C   0  0  0  0  0  3  0  0  0  0  0  0
  -24.6780  -11.9060   19.5350 C   0  0  0  0  0  3  0  0  0  0  0  0
  -23.2330   -8.8230   20.8820 O   0  0  0  0  0  0  0  0  0  0  0  0
  -22.7700   -8.3720   22.0910 C   0  0  0  0  0  0  0  0  0  0  0  0
  -22.0220   -9.1980   22.9590 C   0  0  0  0  0  3  0  0  0  0  0  0
  -21.5090   -8.6740   24.1620 C   0  0  0  0  0  3  0  0  0  0  0  0
  -21.7310   -7.3240   24.4930 C   0  0  0  0  0  0  0  0  0  0  0  0
  -22.4710   -6.4980   23.6270 C   0  0  0  0  0  3  0  0  0  0  0  0
  -22.9860   -7.0210   22.4290 C   0  0  0  0  0  0  0  0  0  0  0  0
  -23.6810   -6.2180   21.5880 F   0  0  0  0  0  0  0  0  0  0  0  0
  -21.2300   -6.8170   25.6420 F   0  0  0  0  0  0  0  0  0  0  0  0
  -24.9780  -15.3390   20.6840 C   0  0  0  0  0  0  0  0  0  0  0  0
  -24.2550  -14.7090   21.6030 N   0  0  0  0  0  0  0  0  0  0  0  0
  -24.6060  -16.4080   20.2020 O   0  0  0  0  0  0  0  0  0  0  0  0
  -24.5750  -13.8470   22.0170 H   0  0  0  0  0  0  0  0  0  0  0  0
  -23.3700  -15.0930   21.9020 H   0  0  0  0  0  0  0  0  0  0  0  0
  -27.7140  -16.7420   19.7310 N   0  0  0  0  0  0  0  0  0  0  0  0
  -27.0150  -17.4590   19.8950 H   0  0  0  0  0  0  0  0  0  0  0  0
  -28.5940  -17.1090   19.3890 H   0  0  0  0  0  0  0  0  0  0  0  0
  -28.5200  -23.8920   22.8990 O   0  0  0  0  0  0  0  0  0  0  0  0
  -28.0370  -24.1760   21.5910 C   0  0  0  0  0  2  0  0  0  0  0  0
  -28.6190  -25.4940   21.0750 C   0  0  0  0  0  2  0  0  0  0  0  0
  -28.5450  -25.6090   19.5420 C   0  0  0  0  0  2  0  0  0  0  0  0
  -28.4110  -26.9710   19.1570 O   0  0  0  0  0  0  0  0  0  0  0  0
  -24.6660  -31.5070   23.1050 C   0  0  0  0  0  0  0  0  0  0  0  0
  -27.1810  -27.5710   19.3330 C   0  0  0  0  0  0  0  0  0  0  0  0
  -23.3580  -30.2010   21.4610 C   0  0  0  0  0  3  0  0  0  0  0  0
  -24.7220  -28.8890   19.7620 C   0  0  0  0  0  0  0  0  0  0  0  0
  -25.8210  -30.7320   21.0410 C   0  0  0  0  0  2  0  0  0  0  0  0
  -25.9070  -29.4340   20.2700 C   0  0  0  0  0  0  0  0  0  0  0  0
  -27.1370  -28.7850   20.0470 C   0  0  0  0  0  3  0  0  0  0  0  0
  -25.9720  -27.0230   18.8380 C   0  0  0  0  0  3  0  0  0  0  0  0
  -24.7470  -27.6800   19.0490 C   0  0  0  0  0  3  0  0  0  0  0  0
  -23.4490  -29.6620   20.0090 C   0  0  0  0  0  2  0  0  0  0  0  0
  -24.6420  -30.8200   21.9300 N   0  0  0  0  0  0  0  0  0  0  0  0
  -23.6390  -31.6670   23.7760 O   0  0  0  0  0  0  0  0  0  0  0  0
  -22.8600  -29.0620   22.3760 C   0  0  0  0  0  0  0  0  0  0  0  0
  -21.5950  -28.6560   22.1900 N   0  0  0  0  0  0  0  0  0  0  0  0
  -23.6110  -28.5470   23.2080 O   0  0  0  0  0  0  0  0  0  0  0  0
  -21.0430  -29.1400   21.4930 H   0  0  0  0  0  0  0  0  0  0  0  0
  -18.5400  -26.7340   22.3500 C   0  0  0  0  0  0  0  0  0  0  0  0
  -20.9200  -27.5740   22.9040 C   0  0  0  0  0  3  0  0  0  0  0  0
  -21.4120  -26.1910   22.4160 C   0  0  0  0  0  2  0  0  0  0  0  0
  -20.5450  -25.6030   21.2990 C   0  0  0  0  0  2  0  0  0  0  0  0
  -19.0960  -25.4420   21.7680 C   0  0  0  0  0  2  0  0  0  0  0  0
  -19.3970  -27.7390   22.8680 C   0  0  0  0  0  0  0  0  0  0  0  0
  -18.8310  -28.9330   23.3630 C   0  0  0  0  0  3  0  0  0  0  0  0
  -17.4370  -29.1290   23.3500 C   0  0  0  0  0  3  0  0  0  0  0  0
  -16.5910  -28.1230   22.8500 C   0  0  0  0  0  3  0  0  0  0  0  0
  -17.1430  -26.9290   22.3550 C   0  0  0  0  0  3  0  0  0  0  0  0
  -25.9820  -32.1430   23.6510 C   0  0  0  0  0  3  0  0  0  0  0  0
  -25.6690  -33.5220   24.0540 N   0  0  0  0  0  0  0  0  0  0  0  0
  -25.9790  -34.6110   23.3380 C   0  0  0  0  0  0  0  0  0  0  0  0
  -26.6310  -34.5640   22.2920 O   0  0  0  0  0  0  0  0  0  0  0  0
  -25.1010  -33.6380   24.8790 H   0  0  0  0  0  0  0  0  0  0  0  0
  -24.2540  -36.4210   23.0770 C   0  0  0  0  0  1  0  0  0  0  0  0
  -25.4890  -35.9710   23.8710 C   0  0  0  0  0  3  0  0  0  0  0  0
  -27.6150  -36.8070   24.7660 C   0  0  0  0  0  1  0  0  0  0  0  0
  -26.5210  -37.0290   23.8250 N   0  0  0  0  0  0  0  0  0  0  0  0
  -26.1120  -37.9390   24.0210 H   0  0  0  0  0  0  0  0  0  0  0  0
  -26.6120  -31.3330   24.8510 C   0  0  1  0  0  0  0  0  0  0  0  0
  -25.6060  -31.0000   25.9780 C   0  0  0  0  0  1  0  0  0  0  0  0
  -27.2170  -30.0010   24.3500 C   0  0  0  0  0  1  0  0  0  0  0  0
  -27.7710  -32.1400   25.4830 C   0  0  0  0  0  1  0  0  0  0  0  0
  1  4  1  0
  2  1  2  0
  2  6  1  0
  3  5  1  0
  4  5  2  0
  5  7  1  0
  6  3  2  0
  8 10  1  0
  8  9  1  0
  9  4  1  0
 10 11  1  0
 10  9  1  0
 12 11  1  0
 13 21  1  0
 14 19  1  0
 15 16  1  0
 15 14  1  0
 17 16  1  0
 17 26  1  0
 17 18  1  0
 19 13  1  0
 19 18  1  0
 20 13  2  0
 21 12  1  0
 21 22  1  0
 23 24  2  0
 24 43  1  0
 25 24  1  0
 25 28  1  0
 26 27  1  0
 26 23  1  0
 27 25  2  0
 28 29  1  0
 29 30  2  0
 31 34  1  0
 31 30  1  0
 32 31  2  0
 33 32  1  0
 33 28  2  0
 34 35  1  0
 35 40  2  0
 35 36  1  0
 36 37  2  0
 37 38  1  0
 38 42  1  0
 39 38  2  0
 40 39  1  0
 41 40  1  0
 43 44  1  0
 44 47  1  0
 44 46  1  0
 45 43  2  0
 48 23  1  0
 48 49  1  0
 50 48  1  0
 51  6  1  0
 52 51  1  0
 53 52  1  0
 54 53  1  0
 55 57  1  0
 55 54  1  0
 56 67  2  0
 57 62  1  0
 58 66  1  0
 58 68  1  0
 59 65  1  0
 59 61  1  0
 60 66  1  0
 61 60  1  0
 62 61  2  0
 63 64  1  0
 63 57  2  0
 64 59  2  0
 65 58  1  0
 66 56  1  0
 68 70  2  0
 69 68  1  0
 71 69  1  0
 72 81  2  0
 72 77  1  0
 73 69  1  0
 74 73  1  0
 75 76  1  0
 75 74  1  0
 76 72  1  0
 77 73  1  0
 77 78  2  0
 79 78  1  0
 80 79  2  0
 81 80  1  0
 82 56  1  0
 82 83  1  0
 82 92  1  0
 83 86  1  0
 84 88  1  0
 84 83  1  0
 85 84  2  0
 88 87  1  0
 90 88  1  0
 90 91  1  0
 90 89  1  0
 92 95  1  1
 92 93  1  0
 94 92  1  0
M  ISO  4  13 100  21 100  54 101  55 101
M  END
>  <TORSDO>  (30) 
F 23

>  <SCORE>  (30) 
-4.284

>  <name>  (30) 
29

>  <ligand_id>  (30) 
29

>  <original_smiles>  (30) 
[H]c1c([H])c([H])c2c(c1[H])C([H])([H])C([H])([H])C([H])([H])C2([H])N([H])C(=O)C1([H])N(C(=O)C([H])(N([H])C(=O)C([H])(N([H])C([H])([H])[H])C([H])([H])[H])C(C([H])([H])[H])(C([H])([H])[H])C([H])([H])[H])C([H])([H])c2c([H])c(OC([H])([H])C([H])([H])C([H])([H])Oc3c([H])c([H])c(C4([H])C([H])([H])C4([H])C([H])([H])C([H])([H])N([H])C(=O)N4C([H])([H])C([H])([H])C([H])([H])C([H])(n5nc(-c6c([H])c([H])c(Oc7c([H])c([H])c(F)c([H])c7F)c([H])c6[H])c(C(=O)N([H])[H])c5N([H])[H])C4([H])[H])c(C([H])([H])[H])c3[H])c([H])c([H])c2C1([H])[H]

>  <smiles>  (30) 
[H]c1c([H])c([H])c2c(c1[H])C([H])([H])C([H])([H])C([H])([H])C2([H])N([H])C(=O)C1([H])N(C(=O)C([H])(N([H])C(=O)C([H])(N([H])C([H])([H])[H])C([H])([H])[H])C(C([H])([H])[H])(C([H])([H])[H])C([H])([H])[H])C([H])([H])c2c([H])c(OC([H])([H])C([H])([H])C([H])([H])Oc3c([H])c([H])c(C4([H])C([H])([H])C4([H])C([H])([H])C([H])([H])N([H])C(=O)N4C([H])([H])C([H])([H])C([H])([H])C([H])(n5nc(-c6c([H])c([H])c(Oc7c([H])c([H])c(F)c([H])c7F)c([H])c6[H])c(C(=O)N([H])[H])c5N([H])[H])C4([H])[H])c(C([H])([H])[H])c3[H])c([H])c([H])c2C1([H])[H]

$$$$
30:0:0
     RDKit          3D

 90 98  0  0  1  0  0  0  0  0999 V2000
  -29.8910  -22.2290   21.4550 C   0  0  0  0  0  3  0  0  0  0  0  0
  -29.5750  -23.5770   21.1220 C   0  0  0  0  0  3  0  0  0  0  0  0
  -28.5410  -21.5180   19.6250 C   0  0  0  0  0  3  0  0  0  0  0  0
  -29.4040  -21.1300   20.6880 C   0  0  0  0  0  0  0  0  0  0  0  0
  -28.7430  -23.8620   20.0160 C   0  0  0  0  0  0  0  0  0  0  0  0
  -28.2330  -22.8140   19.3030 N   0  0  0  0  0  0  0  0  0  0  0  0
  -29.8200  -19.7870   21.0200 N   0  0  0  0  0  0  0  0  0  0  0  0
  -30.5400  -19.7180   21.7370 H   0  0  0  0  0  0  0  0  0  0  0  0
  -29.3790  -18.4670   20.4570 C   0  0  0  0  0  2  0  0  0  0  0  0
  -30.2740  -17.2240   20.9320 C   0  0  0  0  0  2  0  0  0  0  0  0
  -30.5710  -14.6960   20.4030 C   0  0  0  0  0  0  0  0  0  0  0  0
  -30.3460  -12.4520   19.3440 C   0  0  0  0  0  2  0  0  0  0  0  0
  -29.3940  -12.5420   18.1310 C   0  0  0  0  0  2  0  0  0  0  0  0
  -27.9290  -12.3700   18.5790 C   0  0  0  0  0  2  0  0  0  0  0  0
  -27.5690  -13.2570   19.7980 C   0  0  0  0  0  3  0  0  0  0  0  0
  -28.6330  -13.1490   20.9110 C   0  0  0  0  0  2  0  0  0  0  0  0
  -29.9290  -13.4890   20.3100 N   0  0  0  0  0  0  0  0  0  0  0  0
  -31.7530  -14.8110   20.0680 O   0  0  0  0  0  0  0  0  0  0  0  0
  -29.8100  -15.8060   20.6970 N   0  0  0  0  0  0  0  0  0  0  0  0
  -28.8290  -15.6270   20.8580 H   0  0  0  0  0  0  0  0  0  0  0  0
  -25.1800  -13.8520   20.5270 C   0  0  0  0  0  0  0  0  0  0  0  0
  -24.1180  -13.0770   20.9020 C   0  0  0  0  0  0  0  0  0  0  0  0
  -24.5840  -11.7270   20.8760 C   0  0  0  0  0  0  0  0  0  0  0  0
  -26.2260  -12.9740   20.2930 N   0  0  0  0  0  0  0  0  0  0  0  0
  -25.8740  -11.6910   20.5650 N   0  0  0  0  0  0  0  0  0  0  0  0
  -23.8650  -10.4620   21.0690 C   0  0  0  0  0  0  0  0  0  0  0  0
  -24.3110   -9.4890   21.9890 C   0  0  0  0  0  3  0  0  0  0  0  0
  -23.5900   -8.2890   22.1700 C   0  0  0  0  0  3  0  0  0  0  0  0
  -22.4070   -8.0530   21.4310 C   0  0  0  0  0  0  0  0  0  0  0  0
  -21.9770   -9.0160   20.5000 C   0  0  0  0  0  3  0  0  0  0  0  0
  -22.7010  -10.2070   20.3170 C   0  0  0  0  0  3  0  0  0  0  0  0
  -21.6550   -6.9080   21.5240 O   0  0  0  0  0  0  0  0  0  0  0  0
  -21.6370   -6.1500   22.6670 C   0  0  0  0  0  0  0  0  0  0  0  0
  -21.2530   -6.6900   23.9140 C   0  0  0  0  0  3  0  0  0  0  0  0
  -21.1810   -5.8590   25.0480 C   0  0  0  0  0  3  0  0  0  0  0  0
  -21.4830   -4.4890   24.9410 C   0  0  0  0  0  0  0  0  0  0  0  0
  -21.8610   -3.9490   23.7000 C   0  0  0  0  0  3  0  0  0  0  0  0
  -21.9340   -4.7760   22.5650 C   0  0  0  0  0  0  0  0  0  0  0  0
  -22.2780   -4.2450   21.3670 F   0  0  0  0  0  0  0  0  0  0  0  0
  -21.4070   -3.6890   26.0300 F   0  0  0  0  0  0  0  0  0  0  0  0
  -22.7200  -13.5480   21.1750 C   0  0  0  0  0  0  0  0  0  0  0  0
  -21.9970  -12.8510   22.0450 N   0  0  0  0  0  0  0  0  0  0  0  0
  -22.2780  -14.5720   20.6550 O   0  0  0  0  0  0  0  0  0  0  0  0
  -22.3670  -12.0200   22.4830 H   0  0  0  0  0  0  0  0  0  0  0  0
  -21.0620  -13.1520   22.2780 H   0  0  0  0  0  0  0  0  0  0  0  0
  -25.3430  -15.2210   20.3430 N   0  0  0  0  0  0  0  0  0  0  0  0
  -24.5760  -15.8770   20.4480 H   0  0  0  0  0  0  0  0  0  0  0  0
  -26.1800  -15.6530   19.9740 H   0  0  0  0  0  0  0  0  0  0  0  0
  -28.5550  -25.3080   19.4030 C   0  0  0  0  0  2  0  0  0  0  0  0
  -28.3770  -26.5140   20.2410 O   0  0  0  0  0  0  0  0  0  0  0  0
  -24.6200  -31.8820   23.2360 C   0  0  0  0  0  0  0  0  0  0  0  0
  -27.2380  -27.3320   20.1620 C   0  0  0  0  0  0  0  0  0  0  0  0
  -23.4120  -30.4850   21.5960 C   0  0  0  0  0  3  0  0  0  0  0  0
  -24.8620  -28.9370   20.1660 C   0  0  0  0  0  0  0  0  0  0  0  0
  -25.9520  -30.8060   21.4080 C   0  0  0  0  0  2  0  0  0  0  0  0
  -26.0310  -29.4290   20.7570 C   0  0  0  0  0  0  0  0  0  0  0  0
  -27.2160  -28.6360   20.7520 C   0  0  0  0  0  3  0  0  0  0  0  0
  -26.0350  -26.8840   19.5670 C   0  0  0  0  0  3  0  0  0  0  0  0
  -24.8640  -27.6670   19.5700 C   0  0  0  0  0  3  0  0  0  0  0  0
  -23.6250  -29.8120   20.2160 C   0  0  0  0  0  2  0  0  0  0  0  0
  -24.6800  -31.0740   22.1350 N   0  0  0  0  0  0  0  0  0  0  0  0
  -23.5380  -32.1600   23.7730 O   0  0  0  0  0  0  0  0  0  0  0  0
  -22.7540  -29.4660   22.5540 C   0  0  0  0  0  0  0  0  0  0  0  0
  -21.4270  -29.2860   22.4300 N   0  0  0  0  0  0  0  0  0  0  0  0
  -23.4340  -28.8400   23.3710 O   0  0  0  0  0  0  0  0  0  0  0  0
  -20.9360  -29.8450   21.7460 H   0  0  0  0  0  0  0  0  0  0  0  0
  -18.0560  -28.0730   22.9290 C   0  0  0  0  0  0  0  0  0  0  0  0
  -20.6130  -28.3480   23.2040 C   0  0  0  0  0  3  0  0  0  0  0  0
  -20.7230  -26.9140   22.6370 C   0  0  0  0  0  2  0  0  0  0  0  0
  -19.6260  -26.5800   21.6210 C   0  0  0  0  0  2  0  0  0  0  0  0
  -18.2390  -26.7220   22.2580 C   0  0  0  0  0  2  0  0  0  0  0  0
  -19.1700  -28.8430   23.3580 C   0  0  0  0  0  0  0  0  0  0  0  0
  -18.9430  -30.1070   23.9430 C   0  0  0  0  0  3  0  0  0  0  0  0
  -17.6360  -30.6020   24.1070 C   0  0  0  0  0  3  0  0  0  0  0  0
  -16.5370  -29.8300   23.6940 C   0  0  0  0  0  3  0  0  0  0  0  0
  -16.7480  -28.5680   23.1100 C   0  0  0  0  0  3  0  0  0  0  0  0
  -25.9050  -32.5150   23.8560 C   0  0  0  0  0  3  0  0  0  0  0  0
  -26.4260  -31.7470   25.1310 C   0  0  1  0  0  0  0  0  0  0  0  0
  -25.3390  -31.5080   26.2050 C   0  0  0  0  0  1  0  0  0  0  0  0
  -27.0140  -30.3690   24.7410 C   0  0  0  0  0  1  0  0  0  0  0  0
  -27.5800  -32.5460   25.7870 C   0  0  0  0  0  1  0  0  0  0  0  0
  -25.5920  -33.9130   24.1880 N   0  0  0  0  0  0  0  0  0  0  0  0
  -25.9150  -34.9670   23.4260 C   0  0  0  0  0  0  0  0  0  0  0  0
  -26.5790  -34.8660   22.3900 O   0  0  0  0  0  0  0  0  0  0  0  0
  -25.0090  -34.0660   24.9980 H   0  0  0  0  0  0  0  0  0  0  0  0
  -24.1800  -36.7560   23.0860 C   0  0  0  0  0  1  0  0  0  0  0  0
  -25.4290  -36.3550   23.8880 C   0  0  0  0  0  3  0  0  0  0  0  0
  -27.5750  -37.2360   24.6930 C   0  0  0  0  0  1  0  0  0  0  0  0
  -26.4550  -37.4140   23.7720 N   0  0  0  0  0  0  0  0  0  0  0  0
  -26.0450  -38.3280   23.9490 H   0  0  0  0  0  0  0  0  0  0  0  0
  2  1  1  0
  3  4  1  0
  4  7  1  0
  4  1  2  0
  5  2  2  0
  6  3  2  0
  6  5  1  0
  7  8  1  0
  9 10  1  0
  9  7  1  0
 11 19  1  0
 12 17  1  0
 13 14  1  0
 13 12  1  0
 15 14  1  0
 15 24  1  0
 15 16  1  0
 17 11  1  0
 17 16  1  0
 18 11  2  0
 19 20  1  0
 19 10  1  0
 21 22  2  0
 22 41  1  0
 23 22  1  0
 23 26  1  0
 24 21  1  0
 24 25  1  0
 25 23  2  0
 26 27  1  0
 27 28  2  0
 29 32  1  0
 29 28  1  0
 30 29  2  0
 31 30  1  0
 31 26  2  0
 32 33  1  0
 33 34  1  0
 34 35  2  0
 36 35  1  0
 36 40  1  0
 37 36  2  0
 38 33  2  0
 38 37  1  0
 39 38  1  0
 41 42  1  0
 42 45  1  0
 42 44  1  0
 43 41  2  0
 46 47  1  0
 46 21  1  0
 48 46  1  0
 49  5  1  0
 49 50  1  0
 51 62  2  0
 52 50  1  0
 52 57  1  0
 53 61  1  0
 53 63  1  0
 54 60  1  0
 54 56  1  0
 55 61  1  0
 56 55  1  0
 57 56  2  0
 58 59  1  0
 58 52  2  0
 59 54  2  0
 60 53  1  0
 61 51  1  0
 63 65  2  0
 64 63  1  0
 66 64  1  0
 67 76  2  0
 67 72  1  0
 68 64  1  0
 68 72  1  0
 69 68  1  0
 70 71  1  0
 70 69  1  0
 71 67  1  0
 72 73  2  0
 73 74  1  0
 75 74  2  0
 76 75  1  0
 77 51  1  0
 77 82  1  0
 77 78  1  0
 78 81  1  1
 78 79  1  0
 80 78  1  0
 82 85  1  0
 83 87  1  0
 83 82  1  0
 84 83  2  0
 87 86  1  0
 89 87  1  0
 89 90  1  0
 89 88  1  0
M  ISO  4  11 100  19 100  49 101  50 101
M  END
>  <TORSDO>  (31) 
F 20

>  <SCORE>  (31) 
-13.898

>  <name>  (31) 
30

>  <ligand_id>  (31) 
30

>  <original_smiles>  (31) 
[H]c1nc(C([H])([H])Oc2c([H])c([H])c3c(c2[H])C([H])([H])N(C(=O)C([H])(N([H])C(=O)C([H])(N([H])C([H])([H])[H])C([H])([H])[H])C(C([H])([H])[H])(C([H])([H])[H])C([H])([H])[H])C([H])(C(=O)N([H])C2([H])c4c([H])c([H])c([H])c([H])c4C([H])([H])C([H])([H])C2([H])[H])C3([H])[H])c([H])c([H])c1N([H])C([H])([H])C([H])([H])N([H])C(=O)N1C([H])([H])C([H])([H])C([H])([H])C([H])(n2nc(-c3c([H])c([H])c(Oc4c([H])c([H])c(F)c([H])c4F)c([H])c3[H])c(C(=O)N([H])[H])c2N([H])[H])C1([H])[H]

>  <smiles>  (31) 
[H]c1nc(C([H])([H])Oc2c([H])c([H])c3c(c2[H])C([H])([H])N(C(=O)C([H])(N([H])C(=O)C([H])(N([H])C([H])([H])[H])C([H])([H])[H])C(C([H])([H])[H])(C([H])([H])[H])C([H])([H])[H])C([H])(C(=O)N([H])C2([H])c4c([H])c([H])c([H])c([H])c4C([H])([H])C([H])([H])C2([H])[H])C3([H])[H])c([H])c([H])c1N([H])C([H])([H])C([H])([H])N([H])C(=O)N1C([H])([H])C([H])([H])C([H])([H])C([H])(n2nc(-c3c([H])c([H])c(Oc4c([H])c([H])c(F)c([H])c4F)c([H])c3[H])c(C(=O)N([H])[H])c2N([H])[H])C1([H])[H]

$$$$
31:0:0
     RDKit          3D

 95104  0  0  1  0  0  0  0  0999 V2000
  -29.5920  -24.7740   19.4920 C   0  0  0  0  0  3  0  0  0  0  0  0
  -28.3520  -25.2770   21.5130 C   0  0  0  0  0  3  0  0  0  0  0  0
  -29.8780  -23.4720   19.9680 C   0  0  0  0  0  0  0  0  0  0  0  0
  -29.3750  -23.0530   21.2260 C   0  0  0  0  0  0  0  0  0  0  0  0
  -28.6300  -23.9790   22.0070 C   0  0  0  0  0  0  0  0  0  0  0  0
  -28.8230  -25.6850   20.2470 C   0  0  0  0  0  0  0  0  0  0  0  0
  -30.7440  -22.5550   19.1080 C   0  0  0  0  0  2  0  0  0  0  0  0
  -29.6830  -21.6450   21.7630 C   0  0  0  0  0  2  0  0  0  0  0  0
  -31.2330  -21.2710   19.8040 C   0  0  0  0  0  2  0  0  0  0  0  0
  -30.1630  -20.6240   20.6990 C   0  0  0  0  0  3  0  0  0  0  0  0
  -28.1490  -23.6120   23.4000 C   0  0  0  0  0  1  0  0  0  0  0  0
  -30.6790  -19.3770   21.3310 N   0  0  0  0  0  4  0  0  0  0  0  0
  -30.3840  -19.3670   22.2950 H   0  0  0  0  0  0  0  0  0  0  0  0
  -31.6850  -19.4230   21.3340 H   0  0  0  0  0  0  0  0  0  0  0  0
  -30.2580  -18.0840   20.7290 C   0  0  0  0  0  2  0  0  0  0  0  0
  -31.0140  -16.8820   21.3600 C   0  0  0  0  0  2  0  0  0  0  0  0
  -31.0600  -14.6490   20.1760 C   0  0  0  0  0  0  0  0  0  0  0  0
  -30.6830  -12.5140   18.9840 C   0  0  0  0  0  2  0  0  0  0  0  0
  -29.6960  -12.7210   17.8180 C   0  0  0  0  0  2  0  0  0  0  0  0
  -28.2350  -12.6120   18.3010 C   0  0  0  0  0  2  0  0  0  0  0  0
  -27.9590  -13.4590   19.5710 C   0  0  0  0  0  3  0  0  0  0  0  0
  -29.0450  -13.2030   20.6390 C   0  0  0  0  0  2  0  0  0  0  0  0
  -30.3570  -13.4920   20.0330 N   0  0  0  0  0  0  0  0  0  0  0  0
  -32.1220  -14.8740   19.5910 O   0  0  0  0  0  0  0  0  0  0  0  0
  -30.4830  -15.5690   20.9680 N   0  0  0  0  0  0  0  0  0  0  0  0
  -29.6080  -15.2890   21.3880 H   0  0  0  0  0  0  0  0  0  0  0  0
  -25.6030  -14.1230   20.3720 C   0  0  0  0  0  0  0  0  0  0  0  0
  -24.5290  -13.3740   20.7710 C   0  0  0  0  0  0  0  0  0  0  0  0
  -24.9530  -12.0100   20.7090 C   0  0  0  0  0  0  0  0  0  0  0  0
  -26.6160  -13.2170   20.0930 N   0  0  0  0  0  0  0  0  0  0  0  0
  -26.2290  -11.9410   20.3520 N   0  0  0  0  0  0  0  0  0  0  0  0
  -24.2010  -10.7660   20.9120 C   0  0  0  0  0  0  0  0  0  0  0  0
  -24.6090   -9.8050   21.8630 C   0  0  0  0  0  3  0  0  0  0  0  0
  -23.8620   -8.6240   22.0530 C   0  0  0  0  0  3  0  0  0  0  0  0
  -22.6910   -8.3950   21.2910 C   0  0  0  0  0  0  0  0  0  0  0  0
  -22.3030   -9.3440   20.3290 C   0  0  0  0  0  3  0  0  0  0  0  0
  -23.0510  -10.5170   20.1370 C   0  0  0  0  0  3  0  0  0  0  0  0
  -21.9150   -7.2660   21.3890 O   0  0  0  0  0  0  0  0  0  0  0  0
  -21.8000   -6.5710   22.5660 C   0  0  0  0  0  0  0  0  0  0  0  0
  -21.2830   -7.1670   23.7370 C   0  0  0  0  0  3  0  0  0  0  0  0
  -21.1180   -6.3970   24.9060 C   0  0  0  0  0  3  0  0  0  0  0  0
  -21.4600   -5.0330   24.9040 C   0  0  0  0  0  0  0  0  0  0  0  0
  -21.9710   -4.4350   23.7380 C   0  0  0  0  0  3  0  0  0  0  0  0
  -22.1380   -5.2030   22.5710 C   0  0  0  0  0  0  0  0  0  0  0  0
  -22.6110   -4.6170   21.4450 F   0  0  0  0  0  0  0  0  0  0  0  0
  -21.2960   -4.2900   26.0240 F   0  0  0  0  0  0  0  0  0  0  0  0
  -23.1560  -13.8850   21.1020 C   0  0  0  0  0  0  0  0  0  0  0  0
  -22.4460  -13.2020   21.9920 N   0  0  0  0  0  0  0  0  0  0  0  0
  -22.7230  -14.9230   20.6040 O   0  0  0  0  0  0  0  0  0  0  0  0
  -22.8090  -12.3610   22.4170 H   0  0  0  0  0  0  0  0  0  0  0  0
  -21.5240  -13.5250   22.2550 H   0  0  0  0  0  0  0  0  0  0  0  0
  -25.7990  -15.4910   20.2020 N   0  0  0  0  0  0  0  0  0  0  0  0
  -25.0530  -16.1640   20.3410 H   0  0  0  0  0  0  0  0  0  0  0  0
  -26.6490  -15.9080   19.8430 H   0  0  0  0  0  0  0  0  0  0  0  0
  -28.6430  -26.9660   19.7580 O   0  0  0  0  0  0  0  0  0  0  0  0
  -24.6500  -31.8380   23.1030 C   0  0  0  0  0  0  0  0  0  0  0  0
  -27.4270  -27.6110   19.8500 C   0  0  0  0  0  0  0  0  0  0  0  0
  -23.4800  -30.4620   21.4100 C   0  0  0  0  0  3  0  0  0  0  0  0
  -24.9770  -29.0220   19.9250 C   0  0  0  0  0  0  0  0  0  0  0  0
  -25.9870  -30.9160   21.2130 C   0  0  0  0  0  2  0  0  0  0  0  0
  -26.1160  -29.5690   20.5280 C   0  0  0  0  0  0  0  0  0  0  0  0
  -27.3440  -28.8680   20.4900 C   0  0  0  0  0  3  0  0  0  0  0  0
  -26.2740  -27.0750   19.2420 C   0  0  0  0  0  3  0  0  0  0  0  0
  -25.0490  -27.7720   19.2810 C   0  0  0  0  0  3  0  0  0  0  0  0
  -23.7050  -29.8380   20.0060 C   0  0  0  0  0  2  0  0  0  0  0  0
  -24.7230  -31.0850   21.9700 N   0  0  0  0  0  0  0  0  0  0  0  0
  -23.5650  -32.0500   23.6620 O   0  0  0  0  0  0  0  0  0  0  0  0
  -22.8690  -29.3850   22.3350 C   0  0  0  0  0  0  0  0  0  0  0  0
  -21.5490  -29.1650   22.2090 N   0  0  0  0  0  0  0  0  0  0  0  0
  -23.5800  -28.7480   23.1180 O   0  0  0  0  0  0  0  0  0  0  0  0
  -21.0360  -29.7320   21.5510 H   0  0  0  0  0  0  0  0  0  0  0  0
  -18.2160  -27.8620   22.6990 C   0  0  0  0  0  0  0  0  0  0  0  0
  -20.7690  -28.1730   22.9480 C   0  0  0  0  0  3  0  0  0  0  0  0
  -20.9000  -26.7730   22.3040 C   0  0  0  0  0  2  0  0  0  0  0  0
  -19.7920  -26.4700   21.2910 C   0  0  0  0  0  2  0  0  0  0  0  0
  -18.4160  -26.5510   21.9590 C   0  0  0  0  0  2  0  0  0  0  0  0
  -19.3210  -28.6320   23.1500 C   0  0  0  0  0  0  0  0  0  0  0  0
  -19.0780  -29.8610   23.8000 C   0  0  0  0  0  3  0  0  0  0  0  0
  -17.7640  -30.3210   24.0030 C   0  0  0  0  0  3  0  0  0  0  0  0
  -16.6730  -29.5460   23.5710 C   0  0  0  0  0  3  0  0  0  0  0  0
  -16.9010  -28.3180   22.9230 C   0  0  0  0  0  3  0  0  0  0  0  0
  -25.9200  -32.4870   23.7400 C   0  0  0  0  0  3  0  0  0  0  0  0
  -26.4620  -31.6940   24.9920 C   0  0  1  0  0  0  0  0  0  0  0  0
  -25.3780  -31.3910   26.0530 C   0  0  0  0  0  1  0  0  0  0  0  0
  -27.0860  -30.3490   24.5550 C   0  0  0  0  0  1  0  0  0  0  0  0
  -27.5910  -32.5000   25.6780 C   0  0  0  0  0  1  0  0  0  0  0  0
  -25.5760  -33.8660   24.1110 N   0  0  0  0  0  0  0  0  0  0  0  0
  -25.8710  -34.9470   23.3740 C   0  0  0  0  0  0  0  0  0  0  0  0
  -26.5350  -34.8890   22.3360 O   0  0  0  0  0  0  0  0  0  0  0  0
  -25.0040  -33.9840   24.9330 H   0  0  0  0  0  0  0  0  0  0  0  0
  -24.0950  -36.6950   23.0630 C   0  0  0  0  0  1  0  0  0  0  0  0
  -25.3460  -36.3080   23.8690 C   0  0  0  0  0  3  0  0  0  0  0  0
  -27.4490  -37.2340   24.7340 C   0  0  0  0  0  1  0  0  0  0  0  0
  -26.3490  -37.3920   23.7840 N   0  0  0  0  0  0  0  0  0  0  0  0
  -25.9160  -38.2970   23.9480 H   0  0  0  0  0  0  0  0  0  0  0  0
  1  3  2  0
  1  6  1  0
  2  5  1  0
  3  4  1  0
  4  8  1  0
  4  5  2  0
  5 11  1  0
  6  2  2  0
  7  9  1  0
  7  3  1  0
  9 10  1  0
 10 12  1  0
 10  8  1  0
 12 14  1  0
 12 13  1  0
 15 12  1  0
 15 16  1  0
 17 25  1  0
 18 23  1  0
 19 20  1  0
 19 18  1  0
 21 20  1  0
 21 30  1  0
 21 22  1  0
 23 17  1  0
 23 22  1  0
 24 17  2  0
 25 16  1  0
 25 26  1  0
 27 28  2  0
 28 47  1  0
 29 28  1  0
 29 32  1  0
 30 31  1  0
 30 27  1  0
 31 29  2  0
 32 33  1  0
 33 34  2  0
 35 38  1  0
 35 34  1  0
 36 35  2  0
 37 36  1  0
 37 32  2  0
 38 39  1  0
 39 44  2  0
 39 40  1  0
 40 41  2  0
 42 41  1  0
 42 46  1  0
 43 42  2  0
 44 43  1  0
 45 44  1  0
 47 48  1  0
 48 51  1  0
 48 50  1  0
 49 47  2  0
 52 53  1  0
 52 27  1  0
 54 52  1  0
 55 57  1  0
 55  6  1  0
 56 67  2  0
 57 62  1  0
 58 66  1  0
 58 68  1  0
 59 65  1  0
 59 61  1  0
 60 66  1  0
 61 60  1  0
 62 61  2  0
 63 64  1  0
 63 57  2  0
 64 59  2  0
 65 58  1  0
 66 56  1  0
 68 70  2  0
 69 68  1  0
 71 69  1  0
 72 81  2  0
 72 77  1  0
 73 69  1  0
 73 77  1  0
 74 73  1  0
 75 76  1  0
 75 74  1  0
 76 72  1  0
 77 78  2  0
 78 79  1  0
 80 79  2  0
 81 80  1  0
 82 56  1  0
 82 87  1  0
 82 83  1  0
 83 86  1  1
 83 84  1  0
 85 83  1  0
 87 90  1  0
 88 92  1  0
 88 87  1  0
 89 88  2  0
 92 91  1  0
 94 92  1  0
 94 95  1  0
 94 93  1  0
M  ISO  4   6 101  17 100  25 100  55 101
M  END
>  <TORSDO>  (32) 
F 19

>  <SCORE>  (32) 
-12.590

>  <name>  (32) 
31

>  <ligand_id>  (32) 
31

>  <original_smiles>  (32) 
[H]c1c([H])c([H])c2c(c1[H])C([H])([H])C([H])([H])C([H])([H])C2([H])N([H])C(=O)C1([H])N(C(=O)C([H])(N([H])C(=O)C([H])(N([H])C([H])([H])[H])C([H])([H])[H])C(C([H])([H])[H])(C([H])([H])[H])C([H])([H])[H])C([H])([H])c2c([H])c(Oc3c([H])c(C([H])([H])[H])c4c(c3[H])C([H])([H])C([H])([H])C([H])([N+]([H])([H])C([H])([H])C([H])([H])N([H])C(=O)N3C([H])([H])C([H])([H])C([H])([H])C([H])(n5nc(-c6c([H])c([H])c(Oc7c([H])c([H])c(F)c([H])c7F)c([H])c6[H])c(C(=O)N([H])[H])c5N([H])[H])C3([H])[H])C4([H])[H])c([H])c([H])c2C1([H])[H]

>  <smiles>  (32) 
[H]c1c([H])c([H])c2c(c1[H])C([H])([H])C([H])([H])C([H])([H])C2([H])N([H])C(=O)C1([H])N(C(=O)C([H])(N([H])C(=O)C([H])(N([H])C([H])([H])[H])C([H])([H])[H])C(C([H])([H])[H])(C([H])([H])[H])C([H])([H])[H])C([H])([H])c2c([H])c(Oc3c([H])c(C([H])([H])[H])c4c(c3[H])C([H])([H])C([H])([H])C([H])([N+]([H])([H])C([H])([H])C([H])([H])N([H])C(=O)N3C([H])([H])C([H])([H])C([H])([H])C([H])(n5nc(-c6c([H])c([H])c(Oc7c([H])c([H])c(F)c([H])c7F)c([H])c6[H])c(C(=O)N([H])[H])c5N([H])[H])C3([H])[H])C4([H])[H])c([H])c([H])c2C1([H])[H]

$$$$
32:0:0
     RDKit          3D

 95104  0  0  1  0  0  0  0  0999 V2000
  -28.5270  -20.6470   19.7160 C   0  0  0  0  0  3  0  0  0  0  0  0
  -27.9430  -22.9140   21.1160 C   0  0  0  0  0  2  0  0  0  0  0  0
  -29.9900  -22.9720   19.6760 C   0  0  0  0  0  2  0  0  0  0  0  0
  -27.6300  -24.4380   20.9000 C   0  0  0  0  0  2  0  0  0  0  0  0
  -29.9610  -24.5270   19.9560 C   0  0  0  0  0  2  0  0  0  0  0  0
  -28.6320  -22.2470   19.9000 C   0  0  0  0  0  3  0  0  0  0  0  0
  -28.5560  -25.1970   19.9020 C   0  0  0  0  0  3  0  0  0  0  0  0
  -28.5850  -26.6520   20.1520 O   0  0  0  0  0  0  0  0  0  0  0  0
  -24.6410  -31.8530   23.1890 C   0  0  0  0  0  0  0  0  0  0  0  0
  -27.4120  -27.4170   20.1130 C   0  0  0  0  0  0  0  0  0  0  0  0
  -23.4980  -30.4600   21.5000 C   0  0  0  0  0  3  0  0  0  0  0  0
  -25.0050  -28.9600   20.0870 C   0  0  0  0  0  0  0  0  0  0  0  0
  -26.0320  -30.8350   21.3760 C   0  0  0  0  0  2  0  0  0  0  0  0
  -26.1510  -29.4700   20.7120 C   0  0  0  0  0  0  0  0  0  0  0  0
  -27.3530  -28.7090   20.7150 C   0  0  0  0  0  3  0  0  0  0  0  0
  -26.2390  -26.9490   19.4770 C   0  0  0  0  0  3  0  0  0  0  0  0
  -25.0520  -27.7040   19.4640 C   0  0  0  0  0  3  0  0  0  0  0  0
  -23.7530  -29.8080   20.1170 C   0  0  0  0  0  2  0  0  0  0  0  0
  -24.7410  -31.0660   22.0790 N   0  0  0  0  0  0  0  0  0  0  0  0
  -23.5410  -32.1030   23.7050 O   0  0  0  0  0  0  0  0  0  0  0  0
  -22.8340  -29.4170   22.4300 C   0  0  0  0  0  0  0  0  0  0  0  0
  -21.5070  -29.2500   22.3000 N   0  0  0  0  0  0  0  0  0  0  0  0
  -23.5120  -28.7620   23.2270 O   0  0  0  0  0  0  0  0  0  0  0  0
  -21.0190  -29.8340   21.6350 H   0  0  0  0  0  0  0  0  0  0  0  0
  -18.1140  -28.1090   22.8170 C   0  0  0  0  0  0  0  0  0  0  0  0
  -20.6830  -28.2940   23.0420 C   0  0  0  0  0  3  0  0  0  0  0  0
  -20.7370  -26.8910   22.3930 C   0  0  0  0  0  2  0  0  0  0  0  0
  -19.6050  -26.6460   21.3910 C   0  0  0  0  0  2  0  0  0  0  0  0
  -18.2420  -26.7900   22.0730 C   0  0  0  0  0  2  0  0  0  0  0  0
  -19.2600  -28.8220   23.2580 C   0  0  0  0  0  0  0  0  0  0  0  0
  -19.0860  -30.0590   23.9150 C   0  0  0  0  0  3  0  0  0  0  0  0
  -17.7970  -30.5820   24.1360 C   0  0  0  0  0  3  0  0  0  0  0  0
  -16.6660  -29.8640   23.7110 C   0  0  0  0  0  3  0  0  0  0  0  0
  -16.8250  -28.6300   23.0570 C   0  0  0  0  0  3  0  0  0  0  0  0
  -25.8990  -32.4970   23.8500 C   0  0  0  0  0  3  0  0  0  0  0  0
  -25.5650  -33.8920   24.1750 N   0  0  0  0  0  0  0  0  0  0  0  0
  -25.9180  -34.9510   23.4340 C   0  0  0  0  0  0  0  0  0  0  0  0
  -26.6270  -34.8570   22.4280 O   0  0  0  0  0  0  0  0  0  0  0  0
  -24.9420  -34.0360   24.9560 H   0  0  0  0  0  0  0  0  0  0  0  0
  -24.1850  -36.7280   23.0260 C   0  0  0  0  0  1  0  0  0  0  0  0
  -25.4020  -36.3340   23.8790 C   0  0  0  0  0  3  0  0  0  0  0  0
  -27.5010  -37.2370   24.7800 C   0  0  0  0  0  1  0  0  0  0  0  0
  -26.4290  -37.3970   23.8010 N   0  0  0  0  0  0  0  0  0  0  0  0
  -26.0100  -38.3130   23.9340 H   0  0  0  0  0  0  0  0  0  0  0  0
  -26.3840  -31.7270   25.1380 C   0  0  1  0  0  0  0  0  0  0  0  0
  -25.2620  -31.4760   26.1740 C   0  0  0  0  0  1  0  0  0  0  0  0
  -26.9930  -30.3560   24.7630 C   0  0  0  0  0  1  0  0  0  0  0  0
  -27.5070  -32.5310   25.8350 C   0  0  0  0  0  1  0  0  0  0  0  0
  -29.1300  -19.7200   20.7630 N   0  0  0  0  0  4  0  0  0  0  0  0
  -30.1110  -19.9340   20.8280 H   0  0  0  0  0  0  0  0  0  0  0  0
  -28.7240  -19.9310   21.6600 H   0  0  0  0  0  0  0  0  0  0  0  0
  -28.9830  -18.2230   20.5050 C   0  0  0  0  0  3  0  0  0  0  0  0
  -30.1010  -17.2250   21.0250 C   0  0  0  0  0  3  0  0  0  0  0  0
  -30.5060  -14.7140   20.5340 C   0  0  0  0  0  0  0  0  0  0  0  0
  -30.2920  -12.5390   19.3630 C   0  0  0  0  0  2  0  0  0  0  0  0
  -29.3430  -12.7080   18.1550 C   0  0  0  0  0  2  0  0  0  0  0  0
  -27.8730  -12.5320   18.5820 C   0  0  0  0  0  2  0  0  0  0  0  0
  -27.5140  -13.3360   19.8580 C   0  0  0  0  0  3  0  0  0  0  0  0
  -28.5740  -13.1360   20.9640 C   0  0  0  0  0  2  0  0  0  0  0  0
  -29.8780  -13.5070   20.3970 N   0  0  0  0  0  0  0  0  0  0  0  0
  -31.6580  -14.8960   20.1310 O   0  0  0  0  0  0  0  0  0  0  0  0
  -29.7420  -15.7630   20.9600 N   0  0  0  0  0  0  0  0  0  0  0  0
  -28.8130  -15.5130   21.2640 H   0  0  0  0  0  0  0  0  0  0  0  0
  -25.0960  -13.8800   20.5440 C   0  0  0  0  0  0  0  0  0  0  0  0
  -24.0470  -13.0830   20.9090 C   0  0  0  0  0  0  0  0  0  0  0  0
  -24.5430  -11.7420   20.8870 C   0  0  0  0  0  0  0  0  0  0  0  0
  -26.1670  -13.0250   20.3300 N   0  0  0  0  0  0  0  0  0  0  0  0
  -25.8380  -11.7350   20.5940 N   0  0  0  0  0  0  0  0  0  0  0  0
  -23.8460  -10.4640   21.0720 C   0  0  0  0  0  0  0  0  0  0  0  0
  -24.3000   -9.5030   22.0030 C   0  0  0  0  0  3  0  0  0  0  0  0
  -23.6030   -8.2890   22.1780 C   0  0  0  0  0  3  0  0  0  0  0  0
  -22.4360   -8.0250   21.4220 C   0  0  0  0  0  0  0  0  0  0  0  0
  -22.0020   -8.9740   20.4800 C   0  0  0  0  0  3  0  0  0  0  0  0
  -22.6990  -10.1800   20.3040 C   0  0  0  0  0  3  0  0  0  0  0  0
  -21.7060   -6.8650   21.5090 O   0  0  0  0  0  0  0  0  0  0  0  0
  -21.6890   -6.1090   22.6540 C   0  0  0  0  0  0  0  0  0  0  0  0
  -21.2650   -6.6410   23.8920 C   0  0  0  0  0  3  0  0  0  0  0  0
  -21.1950   -5.8100   25.0280 C   0  0  0  0  0  3  0  0  0  0  0  0
  -21.5390   -4.4480   24.9290 C   0  0  0  0  0  0  0  0  0  0  0  0
  -21.9540   -3.9160   23.6960 C   0  0  0  0  0  3  0  0  0  0  0  0
  -22.0270   -4.7440   22.5620 C   0  0  0  0  0  0  0  0  0  0  0  0
  -22.4060   -4.2200   21.3720 F   0  0  0  0  0  0  0  0  0  0  0  0
  -21.4640   -3.6480   26.0180 F   0  0  0  0  0  0  0  0  0  0  0  0
  -22.6350  -13.5240   21.1650 C   0  0  0  0  0  0  0  0  0  0  0  0
  -21.9210  -12.8200   22.0370 N   0  0  0  0  0  0  0  0  0  0  0  0
  -22.1730  -14.5300   20.6290 O   0  0  0  0  0  0  0  0  0  0  0  0
  -22.3100  -12.0100   22.4970 H   0  0  0  0  0  0  0  0  0  0  0  0
  -20.9710  -13.0930   22.2460 H   0  0  0  0  0  0  0  0  0  0  0  0
  -25.2240  -15.2530   20.3510 N   0  0  0  0  0  0  0  0  0  0  0  0
  -24.4250  -15.8750   20.4150 H   0  0  0  0  0  0  0  0  0  0  0  0
  -26.0360  -15.6920   19.9390 H   0  0  0  0  0  0  0  0  0  0  0  0
  -27.0650  -20.2270   19.3510 C   0  0  0  0  0  2  0  0  0  0  0  0
  -25.1730  -20.4300   17.5200 C   0  0  0  0  0  2  0  0  0  0  0  0
  -25.6440  -21.8380   17.7880 C   0  0  0  0  0  2  0  0  0  0  0  0
  -26.5950  -20.6730   17.9740 C   0  0  0  0  0  3  0  0  0  0  0  0
  1 92  1  0
  1 49  1  0
  3  6  1  0
  3  5  1  0
  4  2  1  0
  6  1  1  0
  6  2  1  0
  7  5  1  0
  7  8  1  0
  7  4  1  0
  9 20  2  0
 10  8  1  0
 10 15  1  0
 11 19  1  0
 11 21  1  0
 12 18  1  0
 12 14  1  0
 13 19  1  0
 14 15  2  0
 14 13  1  0
 16 10  2  0
 17 16  1  0
 17 12  2  0
 18 11  1  0
 19  9  1  0
 21 23  2  0
 22 21  1  0
 24 22  1  0
 25 34  2  0
 25 30  1  0
 26 22  1  0
 26 30  1  0
 27 26  1  0
 28 29  1  0
 28 27  1  0
 29 25  1  0
 30 31  2  0
 31 32  1  0
 33 32  2  0
 34 33  1  0
 35  9  1  0
 35 36  1  0
 35 45  1  0
 36 39  1  0
 37 41  1  0
 37 36  1  0
 38 37  2  0
 41 40  1  0
 43 41  1  0
 43 44  1  0
 43 42  1  0
 45 48  1  1
 45 46  1  0
 47 45  1  0
 49 50  1  0
 49 51  1  0
 52 49  1  0
 52 53  2  0
 54 62  1  0
 55 60  1  0
 56 57  1  0
 56 55  1  0
 58 57  1  0
 58 67  1  0
 58 59  1  0
 60 54  1  0
 60 59  1  0
 61 54  2  0
 62 53  1  0
 62 63  1  0
 64 65  2  0
 65 84  1  0
 66 65  1  0
 66 69  1  0
 67 64  1  0
 67 68  1  0
 68 66  2  0
 69 70  1  0
 70 71  2  0
 72 75  1  0
 72 71  1  0
 73 72  2  0
 74 73  1  0
 74 69  2  0
 75 76  1  0
 76 77  1  0
 77 78  2  0
 79 78  1  0
 79 83  1  0
 80 79  2  0
 81 76  2  0
 81 80  1  0
 82 81  1  0
 84 85  1  0
 85 88  1  0
 85 87  1  0
 86 84  2  0
 89 90  1  0
 89 64  1  0
 91 89  1  0
 93 94  1  0
 93 95  1  0
 94 95  1  0
 95 92  1  0
M  ISO  4   7 101   8 101  54 100  62 100
M  END
>  <TORSDO>  (33) 
F 22

>  <SCORE>  (33) 
-13.345

>  <name>  (33) 
32

>  <ligand_id>  (33) 
32

>  <original_smiles>  (33) 
[H]c1c([H])c([H])c2c(c1[H])C([H])([H])C([H])([H])C([H])([H])C2([H])N([H])C(=O)C1([H])N(C(=O)C([H])(N([H])C(=O)C([H])(N([H])C([H])([H])[H])C([H])([H])[H])C(C([H])([H])[H])(C([H])([H])[H])C([H])([H])[H])C([H])([H])c2c([H])c(OC3([H])C([H])([H])C([H])([H])C([H])(C([H])(C([H])([H])C4([H])C([H])([H])C4([H])[H])[N+]([H])([H])C([H])([H])C([H])([H])N([H])C(=O)N4C([H])([H])C([H])([H])C([H])([H])C([H])(n5nc(-c6c([H])c([H])c(Oc7c([H])c([H])c(F)c([H])c7F)c([H])c6[H])c(C(=O)N([H])[H])c5N([H])[H])C4([H])[H])C([H])([H])C3([H])[H])c([H])c([H])c2C1([H])[H]

>  <smiles>  (33) 
[H]c1c([H])c([H])c2c(c1[H])C([H])([H])C([H])([H])C([H])([H])C2([H])N([H])C(=O)C1([H])N(C(=O)C([H])(N([H])C(=O)C([H])(N([H])C([H])([H])[H])C([H])([H])[H])C(C([H])([H])[H])(C([H])([H])[H])C([H])([H])[H])C([H])([H])c2c([H])c(OC3([H])C([H])([H])C([H])([H])C([H])(C([H])(C([H])([H])C4([H])C([H])([H])C4([H])[H])[N+]([H])([H])C([H])([H])C([H])([H])N([H])C(=O)N4C([H])([H])C([H])([H])C([H])([H])C([H])(n5nc(-c6c([H])c([H])c(Oc7c([H])c([H])c(F)c([H])c7F)c([H])c6[H])c(C(=O)N([H])[H])c5N([H])[H])C4([H])[H])C([H])([H])C3([H])[H])c([H])c([H])c2C1([H])[H]

$$$$
33:0:0
     RDKit          3D

 92100  0  0  1  0  0  0  0  0999 V2000
  -27.9390  -21.8940   20.7260 C   0  0  0  0  0  2  0  0  0  0  0  0
  -28.5030  -18.0980   20.3010 C   0  0  0  0  0  3  0  0  0  0  0  0
  -30.3620  -19.0050   21.5730 C   0  0  0  0  0  3  0  0  0  0  0  0
  -27.9810  -19.4010   20.1350 C   0  0  0  0  0  3  0  0  0  0  0  0
  -29.8390  -20.3090   21.4100 C   0  0  0  0  0  3  0  0  0  0  0  0
  -29.6800  -17.8830   21.0510 C   0  0  0  0  0  0  0  0  0  0  0  0
  -28.6260  -20.5190   20.7140 C   0  0  0  0  0  0  0  0  0  0  0  0
  -30.1700  -16.4620   21.3430 C   0  0  0  0  0  2  0  0  0  0  0  0
  -31.0560  -14.5510   20.0630 C   0  0  0  0  0  0  0  0  0  0  0  0
  -30.6810  -12.3980   18.9380 C   0  0  0  0  0  2  0  0  0  0  0  0
  -29.7080  -12.6510   17.7690 C   0  0  0  0  0  2  0  0  0  0  0  0
  -28.2430  -12.5570   18.2430 C   0  0  0  0  0  2  0  0  0  0  0  0
  -27.9700  -13.3750   19.5340 C   0  0  0  0  0  3  0  0  0  0  0  0
  -29.0610  -13.1150   20.5980 C   0  0  0  0  0  2  0  0  0  0  0  0
  -30.3650  -13.3850   19.9780 N   0  0  0  0  0  0  0  0  0  0  0  0
  -32.2140  -14.6810   19.6640 O   0  0  0  0  0  0  0  0  0  0  0  0
  -30.2870  -15.6440   20.1430 N   0  0  0  0  0  0  0  0  0  0  0  0
  -30.4810  -16.2510   19.3630 H   0  0  0  0  0  0  0  0  0  0  0  0
  -25.6080  -14.0360   20.3140 C   0  0  0  0  0  0  0  0  0  0  0  0
  -24.5330  -13.2840   20.7100 C   0  0  0  0  0  0  0  0  0  0  0  0
  -24.9640  -11.9230   20.6640 C   0  0  0  0  0  0  0  0  0  0  0  0
  -26.6270  -13.1320   20.0540 N   0  0  0  0  0  0  0  0  0  0  0  0
  -26.2450  -11.8580   20.3220 N   0  0  0  0  0  0  0  0  0  0  0  0
  -24.2170  -10.6750   20.8720 C   0  0  0  0  0  0  0  0  0  0  0  0
  -24.6290   -9.7210   21.8290 C   0  0  0  0  0  3  0  0  0  0  0  0
  -23.8870   -8.5360   22.0260 C   0  0  0  0  0  3  0  0  0  0  0  0
  -22.7170   -8.2970   21.2640 C   0  0  0  0  0  0  0  0  0  0  0  0
  -22.3240   -9.2380   20.2970 C   0  0  0  0  0  3  0  0  0  0  0  0
  -23.0670  -10.4140   20.0990 C   0  0  0  0  0  3  0  0  0  0  0  0
  -21.9490   -7.1630   21.3690 O   0  0  0  0  0  0  0  0  0  0  0  0
  -21.8380   -6.4740   22.5490 C   0  0  0  0  0  0  0  0  0  0  0  0
  -21.3720   -7.0910   23.7310 C   0  0  0  0  0  3  0  0  0  0  0  0
  -21.2050   -6.3280   24.9040 C   0  0  0  0  0  3  0  0  0  0  0  0
  -21.4970   -4.9510   24.8960 C   0  0  0  0  0  0  0  0  0  0  0  0
  -21.9580   -4.3350   23.7190 C   0  0  0  0  0  3  0  0  0  0  0  0
  -22.1260   -5.0940   22.5490 C   0  0  0  0  0  0  0  0  0  0  0  0
  -22.5500   -4.4920   21.4110 F   0  0  0  0  0  0  0  0  0  0  0  0
  -21.3300   -4.2160   26.0200 F   0  0  0  0  0  0  0  0  0  0  0  0
  -23.1520  -13.7880   21.0170 C   0  0  0  0  0  0  0  0  0  0  0  0
  -22.4380  -13.1120   21.9110 N   0  0  0  0  0  0  0  0  0  0  0  0
  -22.7150  -14.8150   20.5010 O   0  0  0  0  0  0  0  0  0  0  0  0
  -22.8050  -12.2800   22.3490 H   0  0  0  0  0  0  0  0  0  0  0  0
  -21.5120  -13.4310   22.1610 H   0  0  0  0  0  0  0  0  0  0  0  0
  -25.7970  -15.4030   20.1300 N   0  0  0  0  0  0  0  0  0  0  0  0
  -25.0570  -16.0870   20.2520 H   0  0  0  0  0  0  0  0  0  0  0  0
  -26.6570  -15.8080   19.7820 H   0  0  0  0  0  0  0  0  0  0  0  0
  -28.5620  -22.9720   19.9180 N   0  0  0  0  0  4  0  0  0  0  0  0
  -28.4370  -22.7490   18.9420 H   0  0  0  0  0  0  0  0  0  0  0  0
  -29.5560  -22.9820   20.0950 H   0  0  0  0  0  0  0  0  0  0  0  0
  -27.9680  -24.3100   20.2340 C   0  0  0  0  0  2  0  0  0  0  0  0
  -28.4670  -25.4940   19.3680 C   0  0  0  0  0  2  0  0  0  0  0  0
  -28.3300  -26.7680   20.0270 O   0  0  0  0  0  0  0  0  0  0  0  0
  -24.5210  -31.8890   23.2090 C   0  0  0  0  0  0  0  0  0  0  0  0
  -27.1290  -27.4560   20.0400 C   0  0  0  0  0  0  0  0  0  0  0  0
  -23.2920  -30.4980   21.5740 C   0  0  0  0  0  3  0  0  0  0  0  0
  -24.7260  -28.9640   20.1190 C   0  0  0  0  0  0  0  0  0  0  0  0
  -25.8150  -30.8470   21.3490 C   0  0  0  0  0  2  0  0  0  0  0  0
  -25.8910  -29.4780   20.7000 C   0  0  0  0  0  0  0  0  0  0  0  0
  -27.0900  -28.7280   20.6650 C   0  0  0  0  0  3  0  0  0  0  0  0
  -25.9420  -26.9580   19.4540 C   0  0  0  0  0  3  0  0  0  0  0  0
  -24.7460  -27.7060   19.4930 C   0  0  0  0  0  3  0  0  0  0  0  0
  -23.4860  -29.8290   20.1860 C   0  0  0  0  0  2  0  0  0  0  0  0
  -24.5610  -31.0940   22.1020 N   0  0  0  0  0  0  0  0  0  0  0  0
  -23.4480  -32.1600   23.7670 O   0  0  0  0  0  0  0  0  0  0  0  0
  -22.6550  -29.4700   22.5360 C   0  0  0  0  0  0  0  0  0  0  0  0
  -21.3330  -29.2660   22.4040 N   0  0  0  0  0  0  0  0  0  0  0  0
  -23.3420  -28.8610   23.3570 O   0  0  0  0  0  0  0  0  0  0  0  0
  -20.8420  -29.7830   21.6870 H   0  0  0  0  0  0  0  0  0  0  0  0
  -17.9680  -28.0630   22.9410 C   0  0  0  0  0  0  0  0  0  0  0  0
  -20.5260  -28.3420   23.1980 C   0  0  0  0  0  3  0  0  0  0  0  0
  -20.6290  -26.8990   22.6550 C   0  0  0  0  0  2  0  0  0  0  0  0
  -19.5370  -26.5770   21.6290 C   0  0  0  0  0  2  0  0  0  0  0  0
  -18.1580  -26.7070   22.2830 C   0  0  0  0  0  2  0  0  0  0  0  0
  -19.0830  -28.8410   23.3540 C   0  0  0  0  0  0  0  0  0  0  0  0
  -18.8570  -30.1100   23.9260 C   0  0  0  0  0  3  0  0  0  0  0  0
  -17.5500  -30.6030   24.0910 C   0  0  0  0  0  3  0  0  0  0  0  0
  -16.4510  -29.8240   23.6990 C   0  0  0  0  0  3  0  0  0  0  0  0
  -16.6610  -28.5540   23.1300 C   0  0  0  0  0  3  0  0  0  0  0  0
  -25.8160  -32.5160   23.8150 C   0  0  0  0  0  3  0  0  0  0  0  0
  -25.5160  -33.9130   24.1530 N   0  0  0  0  0  0  0  0  0  0  0  0
  -25.8470  -34.9670   23.3940 C   0  0  0  0  0  0  0  0  0  0  0  0
  -26.5090  -34.8620   22.3570 O   0  0  0  0  0  0  0  0  0  0  0  0
  -24.9280  -34.0720   24.9590 H   0  0  0  0  0  0  0  0  0  0  0  0
  -24.1240  -36.7680   23.0500 C   0  0  0  0  0  1  0  0  0  0  0  0
  -25.3660  -36.3560   23.8570 C   0  0  0  0  0  3  0  0  0  0  0  0
  -27.5080  -37.2260   24.6850 C   0  0  0  0  0  1  0  0  0  0  0  0
  -26.4020  -37.4050   23.7460 N   0  0  0  0  0  0  0  0  0  0  0  0
  -26.0020  -38.3270   23.8980 H   0  0  0  0  0  0  0  0  0  0  0  0
  -26.3510  -31.7380   25.0780 C   0  0  1  0  0  0  0  0  0  0  0  0
  -25.2740  -31.4920   26.1610 C   0  0  0  0  0  1  0  0  0  0  0  0
  -26.9270  -30.3650   24.6660 C   0  0  0  0  0  1  0  0  0  0  0  0
  -27.5130  -32.5270   25.7260 C   0  0  0  0  0  1  0  0  0  0  0  0
  2  6  1  0
  4  2  2  0
  4  7  1  0
  5  3  1  0
  6  8  1  0
  6  3  2  0
  7  1  1  0
  7  5  2  0
  9 17  1  0
 10 15  1  0
 11 12  1  0
 11 10  1  0
 13 12  1  0
 13 22  1  0
 13 14  1  0
 15  9  1  0
 15 14  1  0
 16  9  2  0
 17  8  1  0
 18 17  1  0
 19 20  2  0
 20 39  1  0
 21 20  1  0
 21 24  1  0
 22 19  1  0
 22 23  1  0
 23 21  2  0
 24 25  1  0
 25 26  2  0
 27 30  1  0
 27 26  1  0
 28 27  2  0
 29 28  1  0
 29 24  2  0
 30 31  1  0
 31 32  1  0
 32 33  2  0
 34 33  1  0
 34 38  1  0
 35 34  2  0
 36 31  2  0
 36 35  1  0
 37 36  1  0
 39 40  1  0
 40 43  1  0
 40 42  1  0
 41 39  2  0
 44 45  1  0
 44 19  1  0
 46 44  1  0
 47 49  1  0
 47 50  1  0
 47  1  1  0
 48 47  1  0
 51 52  1  0
 51 50  1  0
 52 54  1  0
 53 64  2  0
 54 59  1  0
 55 63  1  0
 55 65  1  0
 56 62  1  0
 56 58  1  0
 57 63  1  0
 58 57  1  0
 59 58  2  0
 60 61  1  0
 60 54  2  0
 61 56  2  0
 62 55  1  0
 63 53  1  0
 65 67  2  0
 66 65  1  0
 68 66  1  0
 69 78  2  0
 69 74  1  0
 70 66  1  0
 70 74  1  0
 71 70  1  0
 72 73  1  0
 72 71  1  0
 73 69  1  0
 74 75  2  0
 75 76  1  0
 77 76  2  0
 78 77  1  0
 79 53  1  0
 79 80  1  0
 79 89  1  0
 80 83  1  0
 81 85  1  0
 81 80  1  0
 82 81  2  0
 85 84  1  0
 87 85  1  0
 87 88  1  0
 87 86  1  0
 89 92  1  1
 89 90  1  0
 91 89  1  0
M  ISO  4   9 100  17 100  51 101  52 101
M  END
>  <TORSDO>  (34) 
F 21

>  <SCORE>  (34) 
-13.256

>  <name>  (34) 
33

>  <ligand_id>  (34) 
33

>  <original_smiles>  (34) 
[H]c1c([H])c([H])c2c(c1[H])C([H])([H])C([H])([H])C([H])([H])C2([H])N([H])C(=O)C1([H])N(C(=O)C([H])(N([H])C(=O)C([H])(N([H])C([H])([H])[H])C([H])([H])[H])C(C([H])([H])[H])(C([H])([H])[H])C([H])([H])[H])C([H])([H])c2c([H])c(OC([H])([H])C([H])([H])[N+]([H])([H])C([H])([H])c3c([H])c([H])c(C([H])([H])N([H])C(=O)N4C([H])([H])C([H])([H])C([H])([H])C([H])(n5nc(-c6c([H])c([H])c(Oc7c([H])c([H])c(F)c([H])c7F)c([H])c6[H])c(C(=O)N([H])[H])c5N([H])[H])C4([H])[H])c([H])c3[H])c([H])c([H])c2C1([H])[H]

>  <smiles>  (34) 
[H]c1c([H])c([H])c2c(c1[H])C([H])([H])C([H])([H])C([H])([H])C2([H])N([H])C(=O)C1([H])N(C(=O)C([H])(N([H])C(=O)C([H])(N([H])C([H])([H])[H])C([H])([H])[H])C(C([H])([H])[H])(C([H])([H])[H])C([H])([H])[H])C([H])([H])c2c([H])c(OC([H])([H])C([H])([H])[N+]([H])([H])C([H])([H])c3c([H])c([H])c(C([H])([H])N([H])C(=O)N4C([H])([H])C([H])([H])C([H])([H])C([H])(n5nc(-c6c([H])c([H])c(Oc7c([H])c([H])c(F)c([H])c7F)c([H])c6[H])c(C(=O)N([H])[H])c5N([H])[H])C4([H])[H])c([H])c3[H])c([H])c([H])c2C1([H])[H]

$$$$
34:0:0
     RDKit          3D

 93101  0  0  1  0  0  0  0  0999 V2000
  -28.8210  -22.5490   21.5480 C   0  0  0  0  0  2  0  0  0  0  0  0
  -29.2590  -22.6700   19.1110 C   0  0  0  0  0  2  0  0  0  0  0  0
  -28.9790  -24.1460   21.4150 C   0  0  0  0  0  2  0  0  0  0  0  0
  -28.4300  -24.0420   19.0010 C   0  0  0  0  0  2  0  0  0  0  0  0
  -28.9020  -21.6360   20.2550 C   0  0  0  0  0  3  0  0  0  0  0  0
  -28.1580  -24.8950   20.3020 C   0  0  0  0  0  3  0  0  0  0  0  0
  -29.8270  -20.3720   20.3280 N   0  0  0  0  0  4  0  0  0  0  0  0
  -30.5960  -20.5830   20.9430 H   0  0  0  0  0  0  0  0  0  0  0  0
  -30.2300  -20.3060   19.4080 H   0  0  0  0  0  0  0  0  0  0  0  0
  -29.3540  -18.9150   20.6430 C   0  0  0  0  0  2  0  0  0  0  0  0
  -30.4570  -17.6680   20.5830 C   0  0  0  0  0  3  0  0  0  0  0  0
  -30.8070  -14.9980   20.8620 C   0  0  0  0  0  0  0  0  0  0  0  0
  -30.6910  -12.6970   19.8730 C   0  0  0  0  0  2  0  0  0  0  0  0
  -29.8380  -12.7240   18.5850 C   0  0  0  0  0  2  0  0  0  0  0  0
  -28.3450  -12.5400   18.9160 C   0  0  0  0  0  2  0  0  0  0  0  0
  -27.8780  -13.4320   20.0970 C   0  0  0  0  0  3  0  0  0  0  0  0
  -28.8630  -13.3930   21.2860 C   0  0  0  0  0  2  0  0  0  0  0  0
  -30.1800  -13.7690   20.7630 N   0  0  0  0  0  0  0  0  0  0  0  0
  -32.0300  -15.0390   20.7220 O   0  0  0  0  0  0  0  0  0  0  0  0
  -30.0460  -16.1810   20.8490 N   0  0  0  0  0  0  0  0  0  0  0  0
  -29.0530  -16.0300   20.9340 H   0  0  0  0  0  0  0  0  0  0  0  0
  -25.4390  -13.9890   20.6480 C   0  0  0  0  0  0  0  0  0  0  0  0
  -24.3620  -13.2030   20.9500 C   0  0  0  0  0  0  0  0  0  0  0  0
  -24.8460  -11.8600   20.9780 C   0  0  0  0  0  0  0  0  0  0  0  0
  -26.5100  -13.1240   20.5020 N   0  0  0  0  0  0  0  0  0  0  0  0
  -26.1580  -11.8390   20.7660 N   0  0  0  0  0  0  0  0  0  0  0  0
  -24.1250  -10.5900   21.1330 C   0  0  0  0  0  0  0  0  0  0  0  0
  -24.4960   -9.6400   22.1110 C   0  0  0  0  0  3  0  0  0  0  0  0
  -23.7730   -8.4360   22.2510 C   0  0  0  0  0  3  0  0  0  0  0  0
  -22.6640   -8.1720   21.4120 C   0  0  0  0  0  0  0  0  0  0  0  0
  -22.3130   -9.1090   20.4240 C   0  0  0  0  0  3  0  0  0  0  0  0
  -23.0370  -10.3050   20.2830 C   0  0  0  0  0  3  0  0  0  0  0  0
  -21.9160   -7.0210   21.4600 O   0  0  0  0  0  0  0  0  0  0  0  0
  -21.7700   -6.3060   22.6220 C   0  0  0  0  0  0  0  0  0  0  0  0
  -21.1870   -6.8720   23.7760 C   0  0  0  0  0  3  0  0  0  0  0  0
  -20.9930   -6.0820   24.9270 C   0  0  0  0  0  3  0  0  0  0  0  0
  -21.3720   -4.7260   24.9220 C   0  0  0  0  0  0  0  0  0  0  0  0
  -21.9480   -4.1590   23.7720 C   0  0  0  0  0  3  0  0  0  0  0  0
  -22.1430   -4.9460   22.6240 C   0  0  0  0  0  0  0  0  0  0  0  0
  -22.6790   -4.3910   21.5110 F   0  0  0  0  0  0  0  0  0  0  0  0
  -21.1790   -3.9630   26.0240 F   0  0  0  0  0  0  0  0  0  0  0  0
  -22.9410  -13.6640   21.1060 C   0  0  0  0  0  0  0  0  0  0  0  0
  -22.1650  -12.9800   21.9400 N   0  0  0  0  0  0  0  0  0  0  0  0
  -22.5280  -14.6650   20.5240 O   0  0  0  0  0  0  0  0  0  0  0  0
  -22.5140  -12.1710   22.4290 H   0  0  0  0  0  0  0  0  0  0  0  0
  -21.2090  -13.2700   22.0890 H   0  0  0  0  0  0  0  0  0  0  0  0
  -25.5920  -15.3590   20.4590 N   0  0  0  0  0  0  0  0  0  0  0  0
  -24.8000  -15.9930   20.4940 H   0  0  0  0  0  0  0  0  0  0  0  0
  -26.4400  -15.8070   20.1380 H   0  0  0  0  0  0  0  0  0  0  0  0
  -32.7760  -18.0070   19.4890 C   0  0  0  0  0  1  0  0  0  0  0  0
  -31.0230  -16.6970   18.1960 C   0  0  0  0  0  1  0  0  0  0  0  0
  -31.2700  -17.7990   19.2480 C   0  0  0  0  0  3  0  0  0  0  0  0
  -28.3370  -26.4120   20.2280 O   0  0  0  0  0  0  0  0  0  0  0  0
  -24.5770  -31.9120   23.2300 C   0  0  0  0  0  0  0  0  0  0  0  0
  -27.2340  -27.3120   20.1790 C   0  0  0  0  0  0  0  0  0  0  0  0
  -23.4010  -30.5140   21.5730 C   0  0  0  0  0  3  0  0  0  0  0  0
  -24.8730  -28.9720   20.1480 C   0  0  0  0  0  0  0  0  0  0  0  0
  -25.9460  -30.8320   21.4160 C   0  0  0  0  0  2  0  0  0  0  0  0
  -26.0410  -29.4500   20.7580 C   0  0  0  0  0  0  0  0  0  0  0  0
  -27.2260  -28.6360   20.7530 C   0  0  0  0  0  3  0  0  0  0  0  0
  -26.0420  -26.9100   19.5410 C   0  0  0  0  0  3  0  0  0  0  0  0
  -24.8810  -27.7120   19.5290 C   0  0  0  0  0  3  0  0  0  0  0  0
  -23.6350  -29.8490   20.1910 C   0  0  0  0  0  2  0  0  0  0  0  0
  -24.6610  -31.1060   22.1300 N   0  0  0  0  0  0  0  0  0  0  0  0
  -23.4860  -32.1800   23.7550 O   0  0  0  0  0  0  0  0  0  0  0  0
  -22.7310  -29.4900   22.5210 C   0  0  0  0  0  0  0  0  0  0  0  0
  -21.4040  -29.3170   22.3920 N   0  0  0  0  0  0  0  0  0  0  0  0
  -23.4060  -28.8550   23.3350 O   0  0  0  0  0  0  0  0  0  0  0  0
  -20.9170  -29.8820   21.7110 H   0  0  0  0  0  0  0  0  0  0  0  0
  -18.0210  -28.1310   22.9020 C   0  0  0  0  0  0  0  0  0  0  0  0
  -20.5840  -28.3690   23.1520 C   0  0  0  0  0  3  0  0  0  0  0  0
  -20.6710  -26.9480   22.5480 C   0  0  0  0  0  2  0  0  0  0  0  0
  -19.5590  -26.6530   21.5380 C   0  0  0  0  0  2  0  0  0  0  0  0
  -18.1830  -26.7930   22.1980 C   0  0  0  0  0  2  0  0  0  0  0  0
  -19.1490  -28.8770   23.3360 C   0  0  0  0  0  0  0  0  0  0  0  0
  -18.9430  -30.1280   23.9560 C   0  0  0  0  0  3  0  0  0  0  0  0
  -17.6430  -30.6320   24.1460 C   0  0  0  0  0  3  0  0  0  0  0  0
  -16.5300  -29.8830   23.7270 C   0  0  0  0  0  3  0  0  0  0  0  0
  -16.7200  -28.6330   23.1110 C   0  0  0  0  0  3  0  0  0  0  0  0
  -25.8460  -32.5540   23.8700 C   0  0  0  0  0  3  0  0  0  0  0  0
  -26.3420  -31.7950   25.1620 C   0  0  1  0  0  0  0  0  0  0  0  0
  -25.2300  -31.5630   26.2120 C   0  0  0  0  0  1  0  0  0  0  0  0
  -26.9370  -30.4160   24.7940 C   0  0  0  0  0  1  0  0  0  0  0  0
  -27.4780  -32.5980   25.8390 C   0  0  0  0  0  1  0  0  0  0  0  0
  -25.5270  -33.9540   24.1880 N   0  0  0  0  0  0  0  0  0  0  0  0
  -25.8620  -35.0040   23.4260 C   0  0  0  0  0  0  0  0  0  0  0  0
  -26.5400  -34.8970   22.4020 O   0  0  0  0  0  0  0  0  0  0  0  0
  -24.9270  -34.1120   24.9840 H   0  0  0  0  0  0  0  0  0  0  0  0
  -24.1400  -36.8000   23.0380 C   0  0  0  0  0  1  0  0  0  0  0  0
  -25.3670  -36.3960   23.8710 C   0  0  0  0  0  3  0  0  0  0  0  0
  -27.4810  -37.2880   24.7460 C   0  0  0  0  0  1  0  0  0  0  0  0
  -26.4020  -37.4490   23.7750 N   0  0  0  0  0  0  0  0  0  0  0  0
  -25.9920  -38.3700   23.9090 H   0  0  0  0  0  0  0  0  0  0  0  0
  2  5  1  0
  3  1  1  0
  4  2  1  0
  4  6  1  0
  5  7  1  0
  5  1  1  0
  6 53  1  0
  6  3  1  0
  7 10  1  0
  7  8  1  0
  9  7  1  0
 11 10  1  0
 11 20  1  0
 13 18  1  0
 14 15  1  0
 14 13  1  0
 16 15  1  0
 16 25  1  0
 16 17  1  0
 18 12  1  0
 18 17  1  0
 19 12  2  0
 20 12  1  0
 20 21  1  0
 22 23  2  0
 23 24  1  0
 23 42  1  0
 24 27  1  0
 25 22  1  0
 25 26  1  0
 26 24  2  0
 27 28  1  0
 28 29  2  0
 30 33  1  0
 30 29  1  0
 31 30  2  0
 32 31  1  0
 32 27  2  0
 33 34  1  0
 34 39  2  0
 34 35  1  0
 35 36  2  0
 37 36  1  0
 37 41  1  0
 38 37  2  0
 39 38  1  0
 40 39  1  0
 42 43  1  0
 43 46  1  0
 43 45  1  0
 44 42  2  0
 47 48  1  0
 47 22  1  0
 49 47  1  0
 51 52  1  0
 52 50  1  0
 52 11  1  0
 54 65  2  0
 55 53  1  0
 55 60  1  0
 56 64  1  0
 56 66  1  0
 57 63  1  0
 57 59  1  0
 58 64  1  0
 59 58  1  0
 60 59  2  0
 61 55  2  0
 62 61  1  0
 62 57  2  0
 63 56  1  0
 64 54  1  0
 66 68  2  0
 67 66  1  0
 69 67  1  0
 70 79  2  0
 70 75  1  0
 71 67  1  0
 71 75  1  0
 72 71  1  0
 73 74  1  0
 73 72  1  0
 74 70  1  0
 75 76  2  0
 76 77  1  0
 78 77  2  0
 79 78  1  0
 80 54  1  0
 80 85  1  0
 80 81  1  0
 81 84  1  1
 81 82  1  0
 83 81  1  0
 85 88  1  0
 86 90  1  0
 86 85  1  0
 87 86  2  0
 90 89  1  0
 92 90  1  0
 92 93  1  0
 92 91  1  0
M  ISO  4   6 101  12 100  20 100  53 101
M  END
>  <TORSDO>  (35) 
F 20

>  <SCORE>  (35) 
-13.708

>  <name>  (35) 
34

>  <ligand_id>  (35) 
34

>  <original_smiles>  (35) 
[H]c1c([H])c([H])c2c(c1[H])C([H])([H])C([H])([H])C([H])([H])C2([H])N([H])C(=O)C1([H])N(C(=O)C([H])(N([H])C(=O)C([H])(N([H])C([H])([H])[H])C([H])([H])[H])C(C([H])([H])[H])(C([H])([H])[H])C([H])([H])[H])C([H])([H])c2c([H])c(OC3([H])C([H])([H])C([H])([H])C([H])([N+]([H])([H])C([H])([H])C([H])(N([H])C(=O)N4C([H])([H])C([H])([H])C([H])([H])C([H])(n5nc(-c6c([H])c([H])c(Oc7c([H])c([H])c(F)c([H])c7F)c([H])c6[H])c(C(=O)N([H])[H])c5N([H])[H])C4([H])[H])C([H])(C([H])([H])[H])C([H])([H])[H])C([H])([H])C3([H])[H])c([H])c([H])c2C1([H])[H]

>  <smiles>  (35) 
[H]c1c([H])c([H])c2c(c1[H])C([H])([H])C([H])([H])C([H])([H])C2([H])N([H])C(=O)C1([H])N(C(=O)C([H])(N([H])C(=O)C([H])(N([H])C([H])([H])[H])C([H])([H])[H])C(C([H])([H])[H])(C([H])([H])[H])C([H])([H])[H])C([H])([H])c2c([H])c(OC3([H])C([H])([H])C([H])([H])C([H])([N+]([H])([H])C([H])([H])C([H])(N([H])C(=O)N4C([H])([H])C([H])([H])C([H])([H])C([H])(n5nc(-c6c([H])c([H])c(Oc7c([H])c([H])c(F)c([H])c7F)c([H])c6[H])c(C(=O)N([H])[H])c5N([H])[H])C4([H])[H])C([H])(C([H])([H])[H])C([H])([H])[H])C([H])([H])C3([H])[H])c([H])c([H])c2C1([H])[H]

$$$$
35:0:0
     RDKit          3D

 93102  0  0  1  0  0  0  0  0999 V2000
  -29.8970  -22.2190   21.1170 C   0  0  0  0  0  3  0  0  0  0  0  0
  -29.5350  -23.5860   20.9700 C   0  0  0  0  0  3  0  0  0  0  0  0
  -28.4620  -23.0240   18.8650 C   0  0  0  0  0  3  0  0  0  0  0  0
  -29.4900  -21.2350   20.1720 C   0  0  0  0  0  0  0  0  0  0  0  0
  -28.7990  -23.9890   19.8340 C   0  0  0  0  0  0  0  0  0  0  0  0
  -28.7560  -21.6640   19.0330 C   0  0  0  0  0  0  0  0  0  0  0  0
  -28.1540  -20.6980   18.0180 C   0  0  0  0  0  1  0  0  0  0  0  0
  -30.3010  -19.2530   21.7270 C   0  0  0  0  0  2  0  0  0  0  0  0
  -30.6410  -19.1180   19.2780 C   0  0  0  0  0  2  0  0  0  0  0  0
  -30.1810  -17.7070   21.8270 C   0  0  0  0  0  2  0  0  0  0  0  0
  -30.4770  -17.5880   19.2660 C   0  0  0  0  0  2  0  0  0  0  0  0
  -29.7490  -19.7310   20.3690 C   0  0  0  0  0  3  0  0  0  0  0  0
  -30.8060  -16.9260   20.6320 C   0  0  0  0  0  3  0  0  0  0  0  0
  -30.9300  -14.4850   20.0350 C   0  0  0  0  0  0  0  0  0  0  0  0
  -30.4930  -12.3280   18.9220 C   0  0  0  0  0  2  0  0  0  0  0  0
  -29.4890  -12.5320   17.7690 C   0  0  0  0  0  2  0  0  0  0  0  0
  -28.0410  -12.4160   18.2850 C   0  0  0  0  0  2  0  0  0  0  0  0
  -27.7880  -13.2680   19.5570 C   0  0  0  0  0  3  0  0  0  0  0  0
  -28.9110  -13.0720   20.6070 C   0  0  0  0  0  2  0  0  0  0  0  0
  -30.2040  -13.3370   19.9560 N   0  0  0  0  0  0  0  0  0  0  0  0
  -32.0130  -14.6310   19.4680 O   0  0  0  0  0  0  0  0  0  0  0  0
  -30.3360  -15.5270   20.6480 N   0  0  0  0  0  0  0  0  0  0  0  0
  -29.4430  -15.3410   21.0770 H   0  0  0  0  0  0  0  0  0  0  0  0
  -25.4590  -13.9040   20.4480 C   0  0  0  0  0  0  0  0  0  0  0  0
  -24.3950  -13.1480   20.8590 C   0  0  0  0  0  0  0  0  0  0  0  0
  -24.8150  -11.7870   20.7500 C   0  0  0  0  0  0  0  0  0  0  0  0
  -26.4630  -13.0070   20.1180 N   0  0  0  0  0  0  0  0  0  0  0  0
  -26.0810  -11.7250   20.3570 N   0  0  0  0  0  0  0  0  0  0  0  0
  -24.0640  -10.5390   20.9450 C   0  0  0  0  0  0  0  0  0  0  0  0
  -24.4880   -9.5610   21.8720 C   0  0  0  0  0  3  0  0  0  0  0  0
  -23.7450   -8.3770   22.0570 C   0  0  0  0  0  3  0  0  0  0  0  0
  -22.5590   -8.1610   21.3170 C   0  0  0  0  0  0  0  0  0  0  0  0
  -22.1530   -9.1250   20.3760 C   0  0  0  0  0  3  0  0  0  0  0  0
  -22.8980  -10.3000   20.1900 C   0  0  0  0  0  3  0  0  0  0  0  0
  -21.7850   -7.0300   21.4120 O   0  0  0  0  0  0  0  0  0  0  0  0
  -21.6720   -6.3280   22.5850 C   0  0  0  0  0  0  0  0  0  0  0  0
  -21.1730   -6.9250   23.7640 C   0  0  0  0  0  3  0  0  0  0  0  0
  -21.0120   -6.1530   24.9310 C   0  0  0  0  0  3  0  0  0  0  0  0
  -21.3380   -4.7830   24.9180 C   0  0  0  0  0  0  0  0  0  0  0  0
  -21.8270   -4.1850   23.7450 C   0  0  0  0  0  3  0  0  0  0  0  0
  -21.9920   -4.9560   22.5800 C   0  0  0  0  0  0  0  0  0  0  0  0
  -22.4460   -4.3690   21.4450 F   0  0  0  0  0  0  0  0  0  0  0  0
  -21.1720   -4.0370   26.0360 F   0  0  0  0  0  0  0  0  0  0  0  0
  -23.0330  -13.6510   21.2390 C   0  0  0  0  0  0  0  0  0  0  0  0
  -22.3420  -12.9480   22.1300 N   0  0  0  0  0  0  0  0  0  0  0  0
  -22.5910  -14.7040   20.7800 O   0  0  0  0  0  0  0  0  0  0  0  0
  -22.7080  -12.0920   22.5190 H   0  0  0  0  0  0  0  0  0  0  0  0
  -21.4330  -13.2740   22.4260 H   0  0  0  0  0  0  0  0  0  0  0  0
  -25.6530  -15.2760   20.3110 N   0  0  0  0  0  0  0  0  0  0  0  0
  -24.9260  -15.9530   20.5180 H   0  0  0  0  0  0  0  0  0  0  0  0
  -26.5120  -15.7030   19.9880 H   0  0  0  0  0  0  0  0  0  0  0  0
  -28.0080  -25.2820   19.6850 C   0  0  0  0  0  2  0  0  0  0  0  0
  -28.3320  -26.5780   20.2500 O   0  0  0  0  0  0  0  0  0  0  0  0
  -24.6250  -31.9030   23.3140 C   0  0  0  0  0  0  0  0  0  0  0  0
  -27.2270  -27.4380   20.1890 C   0  0  0  0  0  0  0  0  0  0  0  0
  -23.4150  -30.5270   21.6610 C   0  0  0  0  0  3  0  0  0  0  0  0
  -24.8640  -29.0290   20.2160 C   0  0  0  0  0  0  0  0  0  0  0  0
  -25.9560  -30.8610   21.4840 C   0  0  0  0  0  2  0  0  0  0  0  0
  -26.0340  -29.5000   20.8230 C   0  0  0  0  0  0  0  0  0  0  0  0
  -27.2200  -28.7140   20.8170 C   0  0  0  0  0  3  0  0  0  0  0  0
  -26.0240  -27.0430   19.5320 C   0  0  0  0  0  3  0  0  0  0  0  0
  -24.8570  -27.7990   19.5660 C   0  0  0  0  0  3  0  0  0  0  0  0
  -23.6270  -29.8880   20.2700 C   0  0  0  0  0  2  0  0  0  0  0  0
  -24.6840  -31.1100   22.2090 N   0  0  0  0  0  0  0  0  0  0  0  0
  -23.5420  -32.1730   23.8550 O   0  0  0  0  0  0  0  0  0  0  0  0
  -22.7610  -29.4850   22.5990 C   0  0  0  0  0  0  0  0  0  0  0  0
  -21.4430  -29.2800   22.4410 N   0  0  0  0  0  0  0  0  0  0  0  0
  -23.4390  -28.8690   23.4280 O   0  0  0  0  0  0  0  0  0  0  0  0
  -20.9580  -29.8290   21.7450 H   0  0  0  0  0  0  0  0  0  0  0  0
  -18.0790  -28.0260   22.8650 C   0  0  0  0  0  0  0  0  0  0  0  0
  -20.6240  -28.3330   23.1970 C   0  0  0  0  0  3  0  0  0  0  0  0
  -20.7690  -26.8990   22.6360 C   0  0  0  0  0  2  0  0  0  0  0  0
  -19.7010  -26.5470   21.5990 C   0  0  0  0  0  2  0  0  0  0  0  0
  -18.2990  -26.6740   22.2040 C   0  0  0  0  0  2  0  0  0  0  0  0
  -19.1720  -28.8120   23.3160 C   0  0  0  0  0  0  0  0  0  0  0  0
  -18.9160  -30.0770   23.8870 C   0  0  0  0  0  3  0  0  0  0  0  0
  -17.5990  -30.5580   24.0110 C   0  0  0  0  0  3  0  0  0  0  0  0
  -16.5190  -29.7670   23.5820 C   0  0  0  0  0  3  0  0  0  0  0  0
  -16.7600  -28.5030   23.0150 C   0  0  0  0  0  3  0  0  0  0  0  0
  -25.9140  -32.5240   23.9350 C   0  0  0  0  0  3  0  0  0  0  0  0
  -25.6170  -33.9270   24.2540 N   0  0  0  0  0  0  0  0  0  0  0  0
  -25.9280  -34.9660   23.4680 C   0  0  0  0  0  0  0  0  0  0  0  0
  -26.5700  -34.8460   22.4210 O   0  0  0  0  0  0  0  0  0  0  0  0
  -25.0700  -34.0960   25.0830 H   0  0  0  0  0  0  0  0  0  0  0  0
  -24.1830  -36.7450   23.1170 C   0  0  0  0  0  1  0  0  0  0  0  0
  -25.4430  -36.3600   23.9100 C   0  0  0  0  0  3  0  0  0  0  0  0
  -27.5900  -37.2660   24.6810 C   0  0  0  0  0  1  0  0  0  0  0  0
  -26.4670  -37.4170   23.7590 N   0  0  0  0  0  0  0  0  0  0  0  0
  -26.0590  -38.3350   23.9090 H   0  0  0  0  0  0  0  0  0  0  0  0
  -26.4180  -31.7550   25.2170 C   0  0  1  0  0  0  0  0  0  0  0  0
  -25.3180  -31.5200   26.2760 C   0  0  0  0  0  1  0  0  0  0  0  0
  -27.0040  -30.3780   24.8350 C   0  0  0  0  0  1  0  0  0  0  0  0
  -27.5660  -32.5480   25.8880 C   0  0  0  0  0  1  0  0  0  0  0  0
  2  1  1  0
  3  6  2  0
  3  5  1  0
  4  1  2  0
  5  2  2  0
  6  4  1  0
  7  6  1  0
  8 10  1  0
  9 12  1  0
 11  9  1  0
 11 13  1  0
 12  4  1  0
 12  8  1  0
 13 22  1  0
 13 10  1  0
 14 22  1  0
 15 20  1  0
 16 17  1  0
 16 15  1  0
 18 17  1  0
 18 27  1  0
 18 19  1  0
 20 14  1  0
 20 19  1  0
 21 14  2  0
 22 23  1  0
 24 25  2  0
 25 44  1  0
 26 25  1  0
 26 29  1  0
 27 28  1  0
 27 24  1  0
 28 26  2  0
 29 30  1  0
 30 31  2  0
 32 35  1  0
 32 31  1  0
 33 32  2  0
 34 33  1  0
 34 29  2  0
 35 36  1  0
 36 37  1  0
 37 38  2  0
 39 38  1  0
 39 43  1  0
 40 39  2  0
 41 36  2  0
 41 40  1  0
 42 41  1  0
 44 45  1  0
 45 48  1  0
 45 47  1  0
 46 44  2  0
 49 24  1  0
 49 50  1  0
 51 49  1  0
 52  5  1  0
 52 53  1  0
 54 65  2  0
 55 53  1  0
 55 60  1  0
 56 64  1  0
 56 66  1  0
 57 63  1  0
 57 59  1  0
 58 64  1  0
 59 58  1  0
 60 59  2  0
 61 62  1  0
 61 55  2  0
 62 57  2  0
 63 56  1  0
 64 54  1  0
 66 68  2  0
 67 66  1  0
 69 67  1  0
 70 79  2  0
 70 75  1  0
 71 67  1  0
 71 75  1  0
 72 71  1  0
 73 74  1  0
 73 72  1  0
 74 70  1  0
 75 76  2  0
 76 77  1  0
 78 77  2  0
 79 78  1  0
 80 54  1  0
 80 81  1  0
 80 90  1  0
 81 84  1  0
 82 86  1  0
 82 81  1  0
 83 82  2  0
 86 85  1  0
 88 89  1  0
 88 86  1  0
 88 87  1  0
 90 93  1  1
 90 91  1  0
 92 90  1  0
M  ISO  4  14 100  22 100  52 101  53 101
M  END
>  <TORSDO>  (36) 
F 18

>  <SCORE>  (36) 
-14.390

>  <name>  (36) 
35

>  <ligand_id>  (36) 
35

>  <original_smiles>  (36) 
[H]c1c([H])c([H])c2c(c1[H])C([H])([H])C([H])([H])C([H])([H])C2([H])N([H])C(=O)C1([H])N(C(=O)C([H])(N([H])C(=O)C([H])(N([H])C([H])([H])[H])C([H])([H])[H])C(C([H])([H])[H])(C([H])([H])[H])C([H])([H])[H])C([H])([H])c2c([H])c(OC([H])([H])c3c([H])c([H])c(C4([H])C([H])([H])C([H])([H])C([H])(N([H])C(=O)N5C([H])([H])C([H])([H])C([H])([H])C([H])(n6nc(-c7c([H])c([H])c(Oc8c([H])c([H])c(F)c([H])c8F)c([H])c7[H])c(C(=O)N([H])[H])c6N([H])[H])C5([H])[H])C([H])([H])C4([H])[H])c(C([H])([H])[H])c3[H])c([H])c([H])c2C1([H])[H]

>  <smiles>  (36) 
[H]c1c([H])c([H])c2c(c1[H])C([H])([H])C([H])([H])C([H])([H])C2([H])N([H])C(=O)C1([H])N(C(=O)C([H])(N([H])C(=O)C([H])(N([H])C([H])([H])[H])C([H])([H])[H])C(C([H])([H])[H])(C([H])([H])[H])C([H])([H])[H])C([H])([H])c2c([H])c(OC([H])([H])c3c([H])c([H])c(C4([H])C([H])([H])C([H])([H])C([H])(N([H])C(=O)N5C([H])([H])C([H])([H])C([H])([H])C([H])(n6nc(-c7c([H])c([H])c(Oc8c([H])c([H])c(F)c([H])c8F)c([H])c7[H])c(C(=O)N([H])[H])c6N([H])[H])C5([H])[H])C([H])([H])C4([H])[H])c(C([H])([H])[H])c3[H])c([H])c([H])c2C1([H])[H]

$$$$
36:0:0
     RDKit          3D

 95 97  0  0  1  0  0  0  0  0999 V2000
  -22.8890  -28.9360   19.8390 C   0  0  0  0  0  2  0  0  0  0  0  0
  -22.5560  -29.0580   21.3560 C   0  0  0  0  0  2  0  0  0  0  0  0
  -22.4940  -26.9410   20.9090 C   0  0  0  0  0  3  0  0  0  0  0  0
  -22.9370  -27.5120   19.1650 C   0  0  2  0  0  0  0  0  0  0  0  0
  -22.7000  -27.8630   22.2750 C   0  0  0  0  0  2  0  0  0  0  0  0
  -23.3970  -26.0890   19.8450 C   0  0  0  0  0  2  0  0  0  0  0  0
  -20.7460  -28.6860   17.4970 C   0  0  0  0  0  2  0  0  0  0  0  0
  -20.4730  -28.9100   18.9410 C   0  0  0  0  0  2  0  0  0  0  0  0
  -21.4370  -27.7180   18.5050 C   0  0  0  0  0  3  0  0  0  0  0  0
  -24.5030  -24.0330   19.7470 C   0  0  0  0  0 15  0  0  0  0  0  0
  -26.0580  -22.5690   20.0560 N   0  0  0  0  0  2  0  0  0  0  0  0
  -26.0060  -22.2520   19.0960 H   0  0  0  0  0  0  0  0  0  0  0  0
  -26.8480  -23.1830   20.1290 H   0  0  0  0  0  0  0  0  0  0  0  0
  -26.9260  -20.6770   20.5720 C   0  0  0  0  0 15  0  0  0  0  0  0
  -28.2950  -18.6240   20.2710 C   0  0  0  0  0 15  0  0  0  0  0  0
  -30.0870  -15.0350   20.2850 C   0  0  0  0  0  0  0  0  0  0  0  0
  -30.8370  -12.2420   19.5800 C   0  0  0  0  0  2  0  0  0  0  0  0
  -30.1060  -11.3210   18.5120 C   0  0  0  0  0  2  0  0  0  0  0  0
  -28.7670  -10.7930   19.0310 C   0  0  0  0  0  2  0  0  0  0  0  0
  -28.1930  -11.8730   19.9530 C   0  0  0  0  0  3  0  0  0  0  0  0
  -29.1400  -12.4620   21.0160 C   0  0  0  0  0  2  0  0  0  0  0  0
  -29.9660  -13.4410   20.2590 N   0  0  0  0  0  0  0  0  0  0  0  0
  -31.3580  -14.9170   20.0530 O   0  0  0  0  0  0  0  0  0  0  0  0
  -29.0210  -16.5460   20.4120 N   0  0  0  0  0  2  0  0  0  0  0  0
  -28.1930  -16.0570   20.7350 H   0  0  0  0  0  0  0  0  0  0  0  0
  -26.0700  -12.5820   20.9880 C   0  0  0  0  0  0  0  0  0  0  0  0
  -24.9510  -11.9130   21.3730 C   0  0  0  0  0  0  0  0  0  0  0  0
  -25.2060  -10.5290   21.1160 C   0  0  0  0  0  0  0  0  0  0  0  0
  -26.9180  -11.6050   20.5260 N   0  0  0  0  0  0  0  0  0  0  0  0
  -26.4390  -10.3460   20.6590 N   0  0  0  0  0  0  0  0  0  0  0  0
  -24.3100   -9.3790   21.2060 C   0  0  0  0  0  0  0  0  0  0  0  0
  -24.4940   -8.3780   22.1810 C   0  0  0  0  0  3  0  0  0  0  0  0
  -23.6020   -7.2880   22.2580 C   0  0  0  0  0  3  0  0  0  0  0  0
  -22.5130   -7.2000   21.3570 C   0  0  0  0  0  0  0  0  0  0  0  0
  -22.3530   -8.1890   20.3680 C   0  0  0  0  0  3  0  0  0  0  0  0
  -23.2460   -9.2690   20.2910 C   0  0  0  0  0  3  0  0  0  0  0  0
  -21.6070   -6.1670   21.3420 O   0  0  0  0  0  0  0  0  0  0  0  0
  -21.0280   -5.7050   22.4960 C   0  0  0  0  0  0  0  0  0  0  0  0
  -20.2560   -6.5430   23.3310 C   0  0  0  0  0  3  0  0  0  0  0  0
  -19.6230   -6.0090   24.4710 C   0  0  0  0  0  3  0  0  0  0  0  0
  -19.7500   -4.6400   24.7720 C   0  0  0  0  0  0  0  0  0  0  0  0
  -20.5160   -3.8040   23.9390 C   0  0  0  0  0  3  0  0  0  0  0  0
  -21.1510   -4.3360   22.8030 C   0  0  0  0  0  0  0  0  0  0  0  0
  -21.8690   -3.5240   21.9910 F   0  0  0  0  0  0  0  0  0  0  0  0
  -19.1370   -4.1240   25.8620 F   0  0  0  0  0  0  0  0  0  0  0  0
  -23.6830  -12.5600   21.8270 C   0  0  0  0  0  0  0  0  0  0  0  0
  -22.9230  -11.8810   22.6780 N   0  0  0  0  0  0  0  0  0  0  0  0
  -23.3870  -13.6980   21.4650 O   0  0  0  0  0  0  0  0  0  0  0  0
  -23.1840  -10.9580   22.9920 H   0  0  0  0  0  0  0  0  0  0  0  0
  -22.0710  -12.2960   23.0270 H   0  0  0  0  0  0  0  0  0  0  0  0
  -26.4390  -13.9270   20.9550 N   0  0  0  0  0  0  0  0  0  0  0  0
  -25.7350  -14.6390   21.1100 H   0  0  0  0  0  0  0  0  0  0  0  0
  -27.1590  -14.2170   20.3080 H   0  0  0  0  0  0  0  0  0  0  0  0
  -24.1150  -27.5050   23.8870 C   0  0  0  0  0 15  0  0  0  0  0  0
  -25.9540  -26.6400   23.7080 O   0  0  0  0  0  1  0  0  0  0  0  0
  -25.3760  -29.8720   23.3210 C   0  0  0  0  0  0  0  0  0  0  0  0
  -26.9640  -25.9570   22.7820 C   0  0  0  0  0  3  0  0  0  0  0  0
  -25.0490  -27.3760   21.6090 C   0  0  0  0  0  2  0  0  0  0  0  0
  -26.8350  -26.8470   20.3850 C   0  0  0  0  0  3  0  0  0  0  0  0
  -27.0550  -28.9620   21.8130 C   0  0  0  0  0  2  0  0  0  0  0  0
  -27.5390  -27.5720   21.3850 C   0  0  0  0  0  3  0  0  0  0  0  0
  -28.0100  -26.8000   22.4250 C   0  0  0  0  0  2  0  0  0  0  0  0
  -26.7820  -24.9600   21.7670 C   0  0  0  0  0  2  0  0  0  0  0  0
  -26.7200  -25.4530   20.4760 C   0  0  0  0  0  2  0  0  0  0  0  0
  -25.5830  -27.4090   20.1110 C   0  0  0  0  0  2  0  0  0  0  0  0
  -25.7070  -28.8310   22.3120 N   0  0  0  0  0  0  0  0  0  0  0  0
  -24.2080  -30.3120   23.5610 O   0  0  0  0  0  0  0  0  0  0  0  0
  -23.9330  -25.8270   22.3250 C   0  0  0  0  0  2  0  0  0  0  0  0
  -22.5690  -25.8220   23.0490 N   0  0  0  0  0  0  0  0  0  0  0  0
  -24.3730  -24.9790   23.0260 O   0  0  0  0  0  1  0  0  0  0  0  0
  -22.7480  -25.1030   23.7120 H   0  0  0  0  0  0  0  0  0  0  0  0
  -18.6960  -27.3740   22.1500 C   0  0  0  0  0  0  0  0  0  0  0  0
  -20.9540  -26.2100   23.0630 C   0  0  0  0  0  3  0  0  0  0  0  0
  -20.5550  -25.2110   21.9850 C   0  0  0  0  0  2  0  0  0  0  0  0
  -19.8790  -25.6560   20.7210 C   0  0  0  0  0  2  0  0  0  0  0  0
  -18.5640  -26.2390   21.1270 C   0  0  0  0  0  2  0  0  0  0  0  0
  -19.8930  -27.5320   22.9820 C   0  0  0  0  0  0  0  0  0  0  0  0
  -19.8520  -28.7200   23.7730 C   0  0  0  0  0  3  0  0  0  0  0  0
  -18.7280  -29.6070   23.7470 C   0  0  0  0  0  3  0  0  0  0  0  0
  -17.5870  -29.3650   22.9500 C   0  0  0  0  0  3  0  0  0  0  0  0
  -17.5740  -28.2300   22.1600 C   0  0  0  0  0  3  0  0  0  0  0  0
  -26.3050  -30.3940   24.4990 C   0  0  0  0  0  3  0  0  0  0  0  0
  -26.0370  -31.8310   24.7470 N   0  0  0  0  0  0  0  0  0  0  0  0
  -26.7940  -32.8330   24.2820 C   0  0  0  0  0  0  0  0  0  0  0  0
  -27.7870  -32.6080   23.5890 O   0  0  0  0  0  0  0  0  0  0  0  0
  -25.1980  -32.0390   25.2770 H   0  0  0  0  0  0  0  0  0  0  0  0
  -25.5710  -34.8310   23.4460 C   0  0  0  0  0  1  0  0  0  0  0  0
  -26.3830  -34.2780   24.6230 C   0  0  0  0  0  3  0  0  0  0  0  0
  -28.1920  -34.8420   26.1750 C   0  0  0  0  0  1  0  0  0  0  0  0
  -27.5380  -35.1620   24.9040 N   0  0  0  0  0  0  0  0  0  0  0  0
  -27.2420  -36.1300   24.9510 H   0  0  0  0  0  0  0  0  0  0  0  0
  -26.1070  -29.7420   25.9760 C   0  0  1  0  0  0  0  0  0  0  0  0
  -24.6600  -29.7570   26.6340 C   0  0  0  0  0  1  0  0  0  0  0  0
  -26.7940  -28.3680   26.0770 C   0  0  0  0  0  1  0  0  0  0  0  0
  -26.8920  -30.5880   26.9940 C   0  0  0  0  0  1  0  0  0  0  0  0
  1  2  1  0
  2  5  1  0
  3  6  1  0
  3  5  1  0
  4  9  1  1
  4  1  1  0
  4  6  1  0
  4  3  1  0
  7  9  1  0
  7  8  1  0
  9  8  1  0
 11 13  1  0
 12 11  1  0
 16 24  1  0
 17 22  1  0
 18 19  1  0
 18 17  1  0
 20 19  1  0
 20 29  1  0
 20 21  1  0
 22 16  1  0
 22 21  1  0
 23 16  2  0
 24 25  1  0
 26 27  2  0
 27 46  1  0
 28 31  1  0
 28 27  1  0
 29 30  1  0
 29 26  1  0
 30 28  2  0
 31 32  1  0
 32 33  2  0
 34 33  1  0
 35 34  2  0
 36 35  1  0
 36 31  2  0
 37 34  1  0
 37 38  1  0
 38 43  2  0
 38 39  1  0
 39 40  2  0
 40 41  1  0
 41 45  1  0
 42 41  2  0
 43 42  1  0
 44 43  1  0
 46 47  1  0
 47 49  1  0
 47 50  1  0
 48 46  2  0
 51 26  1  0
 51 52  1  0
 53 51  1  0
 56 67  2  0
 57 55  1  0
 58 66  1  0
 59 65  1  0
 59 64  1  0
 59 61  1  0
 60 66  1  0
 61 60  1  0
 61 62  1  0
 62 57  1  0
 63 57  1  0
 64 63  1  0
 65 58  1  0
 66 56  1  0
 68 70  1  0
 68 69  1  0
 69 71  1  0
 72 81  2  0
 72 77  1  0
 73 69  1  0
 74 73  1  0
 75 76  1  0
 75 74  1  0
 76 72  1  0
 77 73  1  0
 77 78  2  0
 79 78  1  0
 80 79  2  0
 81 80  1  0
 82 56  1  0
 82 83  1  0
 82 92  1  0
 83 86  1  0
 84 88  1  0
 84 83  1  0
 85 84  2  0
 88 87  1  0
 88 90  1  0
 90 91  1  0
 90 89  1  0
 92 94  1  6
 92 93  1  0
 92 95  1  0
M  ISO  4  16 100  24 100  54 101  55 101
M  END
>  <TORSDO>  (37) 
F 22

>  <SCORE>  (37) 
-4.912

>  <name>  (37) 
36

>  <ligand_id>  (37) 
36

>  <original_smiles>  (37) 
[H]c1c([H])c([H])c2c(c1[H])C([H])([H])C([H])([H])C([H])([H])C2([H])N([H])C(=O)C1([H])N(C(=O)C([H])(N([H])C(=O)C([H])(N([H])C([H])([H])[H])C([H])([H])[H])C(C([H])([H])[H])(C([H])([H])[H])C([H])([H])[H])C([H])([H])c2c([H])c(OC([H])([H])c3c([H])c([H])c(C4([H])C([H])([H])C4([H])[H])c(C([H])([H])[N+]([H])([H])C([H])([H])C([H])([H])N([H])C(=O)N4C([H])([H])C([H])([H])C([H])([H])C([H])(n5nc(-c6c([H])c([H])c(Oc7c([H])c([H])c(F)c([H])c7F)c([H])c6[H])c(C(=O)N([H])[H])c5N([H])[H])C4([H])[H])c3[H])c([H])c([H])c2C1([H])[H]

>  <smiles>  (37) 
[H]c1c([H])c([H])c2c(c1[H])C([H])([H])C([H])([H])C([H])([H])C2([H])N([H])C(=O)C1([H])N(C(=O)C([H])(N([H])C(=O)C([H])(N([H])C([H])([H])[H])C([H])([H])[H])C(C([H])([H])[H])(C([H])([H])[H])C([H])([H])[H])C([H])([H])c2c([H])c(OC([H])([H])c3c([H])c([H])c(C4([H])C([H])([H])C4([H])[H])c(C([H])([H])[N+]([H])([H])C([H])([H])C([H])([H])N([H])C(=O)N4C([H])([H])C([H])([H])C([H])([H])C([H])(n5nc(-c6c([H])c([H])c(Oc7c([H])c([H])c(F)c([H])c7F)c([H])c6[H])c(C(=O)N([H])[H])c5N([H])[H])C4([H])[H])c3[H])c([H])c([H])c2C1([H])[H]

$$$$
37:0:0
     RDKit          3D

 93102  0  0  1  0  0  0  0  0999 V2000
  -29.0760  -24.1570   19.3160 C   0  0  0  0  0  3  0  0  0  0  0  0
  -28.1600  -25.3160   19.5020 C   0  0  0  0  0  0  0  0  0  0  0  0
  -28.5810  -23.0100   19.9890 C   0  0  0  0  0  0  0  0  0  0  0  0
  -27.1420  -24.8610   20.2110 N   0  0  0  0  0  0  0  0  0  0  0  0
  -27.3750  -23.5350   20.5040 N   0  0  0  0  0  0  0  0  0  0  0  0
  -24.9500  -23.3660   21.1120 C   0  0  0  0  0  1  0  0  0  0  0  0
  -26.7610  -23.1510   22.8690 C   0  0  0  0  0  1  0  0  0  0  0  0
  -26.3960  -22.8970   21.3940 C   0  0  0  0  0  3  0  0  0  0  0  0
  -28.9990  -21.6250   20.4130 N   0  0  0  0  0  0  0  0  0  0  0  0
  -28.6400  -21.4740   21.3500 H   0  0  0  0  0  0  0  0  0  0  0  0
  -31.0260  -15.6580   19.9910 C   0  0  0  0  0  0  0  0  0  0  0  0
  -30.8940  -13.2410   19.2340 C   0  0  0  0  0  2  0  0  0  0  0  0
  -29.9690  -13.0510   18.0130 C   0  0  0  0  0  2  0  0  0  0  0  0
  -28.5230  -12.8160   18.4800 C   0  0  0  0  0  2  0  0  0  0  0  0
  -28.0850  -13.8230   19.5760 C   0  0  0  0  0  3  0  0  0  0  0  0
  -29.1450  -14.0060   20.6830 C   0  0  0  0  0  2  0  0  0  0  0  0
  -30.3830  -14.4160   20.0120 N   0  0  0  0  0  0  0  0  0  0  0  0
  -32.2370  -15.5980   19.7440 O   0  0  0  0  0  0  0  0  0  0  0  0
  -28.5630  -18.9850   20.2330 C   0  0  0  0  0  2  0  0  0  0  0  0
  -30.8060  -19.6930   20.1930 C   0  0  0  0  0  2  0  0  0  0  0  0
  -28.9960  -17.4530   19.8510 C   0  0  0  0  0  2  0  0  0  0  0  0
  -31.2510  -18.2080   19.7340 C   0  0  0  0  0  2  0  0  0  0  0  0
  -29.4020  -20.2630   19.7580 C   0  0  0  0  0  3  0  0  0  0  0  0
  -30.4160  -16.9740   20.0370 N   0  0  0  0  0  0  0  0  0  0  0  0
  -25.7430  -14.3780   20.4280 C   0  0  0  0  0  0  0  0  0  0  0  0
  -24.6890  -13.5950   20.8030 C   0  0  0  0  0  0  0  0  0  0  0  0
  -25.1420  -12.2440   20.7000 C   0  0  0  0  0  0  0  0  0  0  0  0
  -26.7710  -13.5060   20.1150 N   0  0  0  0  0  0  0  0  0  0  0  0
  -26.4210  -12.2130   20.3440 N   0  0  0  0  0  0  0  0  0  0  0  0
  -24.4100  -10.9810   20.8640 C   0  0  0  0  0  0  0  0  0  0  0  0
  -24.7870  -10.0280   21.8370 C   0  0  0  0  0  3  0  0  0  0  0  0
  -24.0540   -8.8310   21.9890 C   0  0  0  0  0  3  0  0  0  0  0  0
  -22.9300   -8.5780   21.1670 C   0  0  0  0  0  0  0  0  0  0  0  0
  -22.5710   -9.5180   20.1860 C   0  0  0  0  0  3  0  0  0  0  0  0
  -23.3060  -10.7070   20.0330 C   0  0  0  0  0  3  0  0  0  0  0  0
  -22.1760   -7.4300   21.2250 O   0  0  0  0  0  0  0  0  0  0  0  0
  -21.9520   -6.7750   22.4110 C   0  0  0  0  0  0  0  0  0  0  0  0
  -21.3060   -7.4030   23.4960 C   0  0  0  0  0  3  0  0  0  0  0  0
  -21.0320   -6.6730   24.6700 C   0  0  0  0  0  3  0  0  0  0  0  0
  -21.3940   -5.3160   24.7570 C   0  0  0  0  0  0  0  0  0  0  0  0
  -22.0340   -4.6880   23.6730 C   0  0  0  0  0  3  0  0  0  0  0  0
  -22.3100   -5.4160   22.5040 C   0  0  0  0  0  0  0  0  0  0  0  0
  -22.9070   -4.8010   21.4540 F   0  0  0  0  0  0  0  0  0  0  0  0
  -21.1260   -4.6110   25.8820 F   0  0  0  0  0  0  0  0  0  0  0  0
  -23.3060  -14.0720   21.1390 C   0  0  0  0  0  0  0  0  0  0  0  0
  -22.6020  -13.3520   22.0050 N   0  0  0  0  0  0  0  0  0  0  0  0
  -22.8630  -15.1200   20.6730 O   0  0  0  0  0  0  0  0  0  0  0  0
  -22.9720  -12.5040   22.4060 H   0  0  0  0  0  0  0  0  0  0  0  0
  -21.6800  -13.6600   22.2770 H   0  0  0  0  0  0  0  0  0  0  0  0
  -25.9020  -15.7520   20.2990 N   0  0  0  0  0  0  0  0  0  0  0  0
  -25.1330  -16.3960   20.4580 H   0  0  0  0  0  0  0  0  0  0  0  0
  -26.7260  -16.2030   19.9260 H   0  0  0  0  0  0  0  0  0  0  0  0
  -28.2200  -26.7500   19.1750 O   0  0  0  0  0  0  0  0  0  0  0  0
  -24.7390  -31.8930   23.1680 C   0  0  0  0  0  0  0  0  0  0  0  0
  -27.1620  -27.7080   19.3660 C   0  0  0  0  0  0  0  0  0  0  0  0
  -23.4660  -30.7660   21.3800 C   0  0  0  0  0  3  0  0  0  0  0  0
  -24.8490  -29.4330   19.6750 C   0  0  0  0  0  0  0  0  0  0  0  0
  -26.0100  -31.0600   21.1580 C   0  0  0  0  0  2  0  0  0  0  0  0
  -26.0510  -29.7830   20.3040 C   0  0  0  0  0  0  0  0  0  0  0  0
  -27.2090  -28.9360   20.1380 C   0  0  0  0  0  3  0  0  0  0  0  0
  -25.9390  -27.4670   18.7060 C   0  0  0  0  0  3  0  0  0  0  0  0
  -24.8040  -28.2920   18.8610 C   0  0  0  0  0  3  0  0  0  0  0  0
  -23.6300  -30.3150   19.9050 C   0  0  0  0  0  2  0  0  0  0  0  0
  -24.7600  -31.2520   21.9590 N   0  0  0  0  0  0  0  0  0  0  0  0
  -23.6780  -32.0910   23.7790 O   0  0  0  0  0  0  0  0  0  0  0  0
  -22.8250  -29.6190   22.2010 C   0  0  0  0  0  0  0  0  0  0  0  0
  -21.4980  -29.4430   22.0760 N   0  0  0  0  0  0  0  0  0  0  0  0
  -23.5230  -28.8960   22.9160 O   0  0  0  0  0  0  0  0  0  0  0  0
  -20.9880  -30.0820   21.4830 H   0  0  0  0  0  0  0  0  0  0  0  0
  -18.1340  -28.1900   22.5510 C   0  0  0  0  0  0  0  0  0  0  0  0
  -20.7060  -28.3920   22.7220 C   0  0  0  0  0  3  0  0  0  0  0  0
  -20.7570  -27.0760   21.9120 C   0  0  0  0  0  2  0  0  0  0  0  0
  -19.6010  -26.9340   20.9170 C   0  0  0  0  0  2  0  0  0  0  0  0
  -18.2560  -26.9750   21.6490 C   0  0  0  0  0  2  0  0  0  0  0  0
  -19.2830  -28.8660   23.0440 C   0  0  0  0  0  0  0  0  0  0  0  0
  -19.1100  -30.0080   23.8550 C   0  0  0  0  0  3  0  0  0  0  0  0
  -17.8210  -30.4760   24.1750 C   0  0  0  0  0  3  0  0  0  0  0  0
  -16.6880  -29.7960   23.6950 C   0  0  0  0  0  3  0  0  0  0  0  0
  -16.8450  -28.6540   22.8910 C   0  0  0  0  0  3  0  0  0  0  0  0
  -26.0460  -32.4250   23.8310 C   0  0  0  0  0  3  0  0  0  0  0  0
  -25.7730  -33.7790   24.3380 N   0  0  0  0  0  0  0  0  0  0  0  0
  -26.0560  -34.9120   23.6810 C   0  0  0  0  0  0  0  0  0  0  0  0
  -26.6420  -34.9250   22.5950 O   0  0  0  0  0  0  0  0  0  0  0  0
  -25.2480  -33.8420   25.1980 H   0  0  0  0  0  0  0  0  0  0  0  0
  -24.3040  -36.7170   23.6960 C   0  0  0  0  0  1  0  0  0  0  0  0
  -25.6210  -36.2410   24.3290 C   0  0  0  0  0  3  0  0  0  0  0  0
  -27.8230  -37.0660   25.0360 C   0  0  0  0  0  1  0  0  0  0  0  0
  -26.6380  -37.3100   24.2190 N   0  0  0  0  0  0  0  0  0  0  0  0
  -26.2470  -38.2080   24.4900 H   0  0  0  0  0  0  0  0  0  0  0  0
  -26.5720  -31.4980   24.9970 C   0  0  1  0  0  0  0  0  0  0  0  0
  -25.4970  -31.1640   26.0590 C   0  0  0  0  0  1  0  0  0  0  0  0
  -27.1100  -30.1600   24.4380 C   0  0  0  0  0  1  0  0  0  0  0  0
  -27.7580  -32.1820   25.7160 C   0  0  0  0  0  1  0  0  0  0  0  0
  1  2  1  0
  1  3  2  0
  2  4  2  0
  3  9  1  0
  3  5  1  0
  4  5  1  0
  5  8  1  0
  6  8  1  0
  8  7  1  0
  9 10  1  0
 11 17  1  0
 11 24  1  0
 12 17  1  0
 13 14  1  0
 13 12  1  0
 15 14  1  0
 15 28  1  0
 15 16  1  0
 17 16  1  0
 18 11  2  0
 21 24  1  0
 21 19  1  0
 22 24  1  0
 22 20  1  0
 23 20  1  0
 23 19  1  0
 23  9  1  0
 25 26  2  0
 26 45  1  0
 27 26  1  0
 27 30  1  0
 28 29  1  0
 28 25  1  0
 29 27  2  0
 30 31  1  0
 31 32  2  0
 33 36  1  0
 33 32  1  0
 34 33  2  0
 35 34  1  0
 35 30  2  0
 36 37  1  0
 37 42  2  0
 37 38  1  0
 38 39  2  0
 39 40  1  0
 40 44  1  0
 41 40  2  0
 42 41  1  0
 43 42  1  0
 45 46  1  0
 46 49  1  0
 46 48  1  0
 47 45  2  0
 50 25  1  0
 50 51  1  0
 52 50  1  0
 53 55  1  0
 53  2  1  0
 54 65  2  0
 55 60  1  0
 56 64  1  0
 56 66  1  0
 57 63  1  0
 57 59  1  0
 58 64  1  0
 59 58  1  0
 60 59  2  0
 61 62  1  0
 61 55  2  0
 62 57  2  0
 63 56  1  0
 64 54  1  0
 66 68  2  0
 67 66  1  0
 69 67  1  0
 70 79  2  0
 70 75  1  0
 71 67  1  0
 71 75  1  0
 72 71  1  0
 73 74  1  0
 73 72  1  0
 74 70  1  0
 75 76  2  0
 76 77  1  0
 78 77  2  0
 79 78  1  0
 80 54  1  0
 80 81  1  0
 80 90  1  0
 81 84  1  0
 82 86  1  0
 82 81  1  0
 83 82  2  0
 86 85  1  0
 88 86  1  0
 88 89  1  0
 88 87  1  0
 90 93  1  1
 90 91  1  0
 92 90  1  0
M  ISO  4   2 101  11 100  24 100  53 101
M  END
>  <TORSDO>  (38) 
F 18

>  <SCORE>  (38) 
-11.165

>  <name>  (38) 
37

>  <ligand_id>  (38) 
37

>  <original_smiles>  (38) 
[H]c1c([H])c([H])c2c(c1[H])C([H])([H])C([H])([H])C([H])([H])C2([H])N([H])C(=O)C1([H])N(C(=O)C([H])(N([H])C(=O)C([H])(N([H])C([H])([H])[H])C([H])([H])[H])C(C([H])([H])[H])(C([H])([H])[H])C([H])([H])[H])C([H])([H])c2c([H])c(Oc3nn(C([H])(C([H])([H])[H])C([H])([H])[H])c(N([H])C4([H])C([H])([H])C([H])([H])N(C(=O)N5C([H])([H])C([H])([H])C([H])([H])C([H])(n6nc(-c7c([H])c([H])c(Oc8c([H])c([H])c(F)c([H])c8F)c([H])c7[H])c(C(=O)N([H])[H])c6N([H])[H])C5([H])[H])C([H])([H])C4([H])[H])c3[H])c([H])c([H])c2C1([H])[H]

>  <smiles>  (38) 
[H]c1c([H])c([H])c2c(c1[H])C([H])([H])C([H])([H])C([H])([H])C2([H])N([H])C(=O)C1([H])N(C(=O)C([H])(N([H])C(=O)C([H])(N([H])C([H])([H])[H])C([H])([H])[H])C(C([H])([H])[H])(C([H])([H])[H])C([H])([H])[H])C([H])([H])c2c([H])c(Oc3nn(C([H])(C([H])([H])[H])C([H])([H])[H])c(N([H])C4([H])C([H])([H])C([H])([H])N(C(=O)N5C([H])([H])C([H])([H])C([H])([H])C([H])(n6nc(-c7c([H])c([H])c(Oc8c([H])c([H])c(F)c([H])c8F)c([H])c7[H])c(C(=O)N([H])[H])c6N([H])[H])C5([H])[H])C([H])([H])C4([H])[H])c3[H])c([H])c([H])c2C1([H])[H]

$$$$
38:0:0
     RDKit          3D

 93101  0  0  1  0  0  0  0  0999 V2000
  -26.8410  -24.9440   21.6470 C   0  0  0  0  0  2  0  0  0  0  0  0
  -27.1660  -23.9050   22.7350 C   0  0  0  0  0  2  0  0  0  0  0  0
  -28.2120  -25.3340   21.0830 C   0  0  0  0  0  3  0  0  0  0  0  0
  -29.0190  -23.9280   21.2110 C   0  0  0  0  0  3  0  0  0  0  0  0
  -28.5950  -23.5510   22.5810 N   0  0  0  0  0  4  0  0  0  0  0  0
  -28.7600  -22.5860   22.8100 H   0  0  0  0  0  0  0  0  0  0  0  0
  -29.1160  -24.1060   23.2450 H   0  0  0  0  0  0  0  0  0  0  0  0
  -28.2750  -26.4280   20.0630 O   0  0  0  0  0  0  0  0  0  0  0  0
  -24.6780  -31.8900   23.2140 C   0  0  0  0  0  0  0  0  0  0  0  0
  -27.2140  -27.3550   20.0520 C   0  0  0  0  0  0  0  0  0  0  0  0
  -23.4430  -30.5190   21.5740 C   0  0  0  0  0  3  0  0  0  0  0  0
  -24.8660  -28.9940   20.0870 C   0  0  0  0  0  0  0  0  0  0  0  0
  -25.9790  -30.8320   21.3510 C   0  0  0  0  0  2  0  0  0  0  0  0
  -26.0460  -29.4610   20.6830 C   0  0  0  0  0  0  0  0  0  0  0  0
  -27.2260  -28.6520   20.6600 C   0  0  0  0  0  3  0  0  0  0  0  0
  -26.0240  -26.9610   19.4060 C   0  0  0  0  0  3  0  0  0  0  0  0
  -24.8600  -27.7520   19.4320 C   0  0  0  0  0  3  0  0  0  0  0  0
  -23.6300  -29.8680   20.1780 C   0  0  0  0  0  2  0  0  0  0  0  0
  -24.7210  -31.0970   22.1030 N   0  0  0  0  0  0  0  0  0  0  0  0
  -23.6050  -32.1620   23.7730 O   0  0  0  0  0  0  0  0  0  0  0  0
  -22.7950  -29.4870   22.5310 C   0  0  0  0  0  0  0  0  0  0  0  0
  -21.4690  -29.3030   22.4140 N   0  0  0  0  0  0  0  0  0  0  0  0
  -23.4850  -28.8560   23.3360 O   0  0  0  0  0  0  0  0  0  0  0  0
  -20.9730  -29.8630   21.7360 H   0  0  0  0  0  0  0  0  0  0  0  0
  -18.1060  -28.0570   22.9050 C   0  0  0  0  0  0  0  0  0  0  0  0
  -20.6600  -28.3550   23.1830 C   0  0  0  0  0  3  0  0  0  0  0  0
  -20.7850  -26.9240   22.6110 C   0  0  0  0  0  2  0  0  0  0  0  0
  -19.6920  -26.5860   21.5920 C   0  0  0  0  0  2  0  0  0  0  0  0
  -18.3050  -26.7100   22.2320 C   0  0  0  0  0  2  0  0  0  0  0  0
  -19.2130  -28.8360   23.3350 C   0  0  0  0  0  0  0  0  0  0  0  0
  -18.9720  -30.0970   23.9240 C   0  0  0  0  0  3  0  0  0  0  0  0
  -17.6590  -30.5770   24.0900 C   0  0  0  0  0  3  0  0  0  0  0  0
  -16.5680  -29.7930   23.6780 C   0  0  0  0  0  3  0  0  0  0  0  0
  -16.7920  -28.5360   23.0890 C   0  0  0  0  0  3  0  0  0  0  0  0
  -25.9730  -32.5100   23.8220 C   0  0  0  0  0  3  0  0  0  0  0  0
  -25.6740  -33.9050   24.1750 N   0  0  0  0  0  0  0  0  0  0  0  0
  -26.0020  -34.9680   23.4300 C   0  0  0  0  0  0  0  0  0  0  0  0
  -26.6590  -34.8760   22.3870 O   0  0  0  0  0  0  0  0  0  0  0  0
  -25.0880  -34.0480   24.9850 H   0  0  0  0  0  0  0  0  0  0  0  0
  -24.2770  -36.7740   23.1300 C   0  0  0  0  0  1  0  0  0  0  0  0
  -25.5290  -36.3510   23.9150 C   0  0  0  0  0  3  0  0  0  0  0  0
  -27.6810  -37.2110   24.7270 C   0  0  0  0  0  1  0  0  0  0  0  0
  -26.5650  -37.4010   23.8040 N   0  0  0  0  0  0  0  0  0  0  0  0
  -26.1670  -38.3200   23.9760 H   0  0  0  0  0  0  0  0  0  0  0  0
  -26.5070  -31.7220   25.0810 C   0  0  1  0  0  0  0  0  0  0  0  0
  -25.4310  -31.4780   26.1660 C   0  0  0  0  0  1  0  0  0  0  0  0
  -27.0780  -30.3470   24.6640 C   0  0  0  0  0  1  0  0  0  0  0  0
  -27.6720  -32.5050   25.7310 C   0  0  0  0  0  1  0  0  0  0  0  0
  -28.8310  -22.5910   20.3110 C   0  0  0  0  0  3  0  0  0  0  0  0
  -29.3900  -21.1900   20.9290 C   0  0  0  0  0  3  0  0  0  0  0  0
  -29.4300  -19.9110   20.0880 N   0  0  0  0  0  4  0  0  0  0  0  0
  -30.2270  -19.9870   19.4770 H   0  0  0  0  0  0  0  0  0  0  0  0
  -28.6100  -19.8890   19.5040 H   0  0  0  0  0  0  0  0  0  0  0  0
  -29.5260  -18.5480   20.7920 C   0  0  0  0  0  3  0  0  0  0  0  0
  -29.9420  -17.2760   19.8920 C   0  0  0  0  0  3  0  0  0  0  0  0
  -30.5780  -14.7570   20.0600 C   0  0  0  0  0  0  0  0  0  0  0  0
  -30.3220  -12.5210   18.9970 C   0  0  0  0  0  2  0  0  0  0  0  0
  -29.3170  -12.6240   17.8270 C   0  0  0  0  0  2  0  0  0  0  0  0
  -27.8620  -12.4870   18.3140 C   0  0  0  0  0  2  0  0  0  0  0  0
  -27.5650  -13.3320   19.5800 C   0  0  0  0  0  3  0  0  0  0  0  0
  -28.6750  -13.1800   20.6450 C   0  0  0  0  0  2  0  0  0  0  0  0
  -29.9520  -13.5340   20.0120 N   0  0  0  0  0  0  0  0  0  0  0  0
  -31.7090  -14.8990   19.5890 O   0  0  0  0  0  0  0  0  0  0  0  0
  -29.8270  -15.8520   20.4230 N   0  0  0  0  0  0  0  0  0  0  0  0
  -28.9500  -15.6180   20.8650 H   0  0  0  0  0  0  0  0  0  0  0  0
  -25.2030  -13.9270   20.3970 C   0  0  0  0  0  0  0  0  0  0  0  0
  -24.1510  -13.1540   20.8070 C   0  0  0  0  0  0  0  0  0  0  0  0
  -24.6100  -11.8010   20.7530 C   0  0  0  0  0  0  0  0  0  0  0  0
  -26.2370  -13.0470   20.1200 N   0  0  0  0  0  0  0  0  0  0  0  0
  -25.8870  -11.7630   20.3920 N   0  0  0  0  0  0  0  0  0  0  0  0
  -23.8880  -10.5390   20.9660 C   0  0  0  0  0  0  0  0  0  0  0  0
  -24.3530   -9.5660   21.8790 C   0  0  0  0  0  3  0  0  0  0  0  0
  -23.6300   -8.3720   22.0830 C   0  0  0  0  0  3  0  0  0  0  0  0
  -22.4260   -8.1400   21.3740 C   0  0  0  0  0  0  0  0  0  0  0  0
  -21.9810   -9.1000   20.4490 C   0  0  0  0  0  3  0  0  0  0  0  0
  -22.7050  -10.2860   20.2440 C   0  0  0  0  0  3  0  0  0  0  0  0
  -21.6720   -6.9960   21.4880 O   0  0  0  0  0  0  0  0  0  0  0  0
  -21.6660   -6.2490   22.6390 C   0  0  0  0  0  0  0  0  0  0  0  0
  -21.2960   -6.8040   23.8850 C   0  0  0  0  0  3  0  0  0  0  0  0
  -21.2380   -5.9850   25.0300 C   0  0  0  0  0  3  0  0  0  0  0  0
  -21.5360   -4.6120   24.9320 C   0  0  0  0  0  0  0  0  0  0  0  0
  -21.9000   -4.0580   23.6920 C   0  0  0  0  0  3  0  0  0  0  0  0
  -21.9610   -4.8740   22.5480 C   0  0  0  0  0  0  0  0  0  0  0  0
  -22.2900   -4.3300   21.3520 F   0  0  0  0  0  0  0  0  0  0  0  0
  -21.4730   -3.8240   26.0300 F   0  0  0  0  0  0  0  0  0  0  0  0
  -22.7650  -13.6300   21.1370 C   0  0  0  0  0  0  0  0  0  0  0  0
  -22.0750  -12.9310   22.0290 N   0  0  0  0  0  0  0  0  0  0  0  0
  -22.3100  -14.6600   20.6390 O   0  0  0  0  0  0  0  0  0  0  0  0
  -22.4600  -12.0990   22.4510 H   0  0  0  0  0  0  0  0  0  0  0  0
  -21.1470  -13.2310   22.2930 H   0  0  0  0  0  0  0  0  0  0  0  0
  -25.3680  -15.2970   20.2130 N   0  0  0  0  0  0  0  0  0  0  0  0
  -24.6200  -15.9640   20.3690 H   0  0  0  0  0  0  0  0  0  0  0  0
  -26.1930  -15.7190   19.8090 H   0  0  0  0  0  0  0  0  0  0  0  0
  1  2  1  0
  3  8  1  0
  3  4  1  0
  3  1  1  0
  4 49  1  0
  4  5  1  0
  5  2  1  0
  5  6  1  0
  5  7  1  0
  9 20  2  0
 10  8  1  0
 10 15  1  0
 11 19  1  0
 11 21  1  0
 12 18  1  0
 12 14  1  0
 13 19  1  0
 14 13  1  0
 15 14  2  0
 16 17  1  0
 16 10  2  0
 17 12  2  0
 18 11  1  0
 19  9  1  0
 21 23  2  0
 22 21  1  0
 24 22  1  0
 25 34  2  0
 25 30  1  0
 26 22  1  0
 26 30  1  0
 27 26  1  0
 28 29  1  0
 28 27  1  0
 29 25  1  0
 30 31  2  0
 31 32  1  0
 33 32  2  0
 34 33  1  0
 35  9  1  0
 35 36  1  0
 35 45  1  0
 36 39  1  0
 37 41  1  0
 37 36  1  0
 38 37  2  0
 41 40  1  0
 43 41  1  0
 43 44  1  0
 43 42  1  0
 45 48  1  1
 45 46  1  0
 47 45  1  0
 49 50  2  0
 51 54  1  0
 51 50  1  0
 52 51  1  0
 53 51  1  0
 55 64  1  0
 55 54  2  0
 56 64  1  0
 57 62  1  0
 58 59  1  0
 58 57  1  0
 60 59  1  0
 60 69  1  0
 60 61  1  0
 62 56  1  0
 62 61  1  0
 63 56  2  0
 64 65  1  0
 66 67  2  0
 67 86  1  0
 68 67  1  0
 68 71  1  0
 69 70  1  0
 69 66  1  0
 70 68  2  0
 71 72  1  0
 72 73  2  0
 74 77  1  0
 74 73  1  0
 75 74  2  0
 76 75  1  0
 76 71  2  0
 77 78  1  0
 78 79  1  0
 79 80  2  0
 81 80  1  0
 81 85  1  0
 82 81  2  0
 83 78  2  0
 83 82  1  0
 84 83  1  0
 86 87  1  0
 87 90  1  0
 87 89  1  0
 88 86  2  0
 91 92  1  0
 91 66  1  0
 93 91  1  0
M  ISO  4   3 101   8 101  56 100  64 100
M  END
>  <TORSDO>  (39) 
F 21

>  <SCORE>  (39) 
-12.580

>  <name>  (39) 
38

>  <ligand_id>  (39) 
38

>  <original_smiles>  (39) 
[H]c1c([H])c([H])c2c(c1[H])C([H])([H])C([H])([H])C([H])([H])C2([H])N([H])C(=O)C1([H])N(C(=O)C([H])(N([H])C(=O)C([H])(N([H])C([H])([H])[H])C([H])([H])[H])C(C([H])([H])[H])(C([H])([H])[H])C([H])([H])[H])C([H])([H])c2c([H])c(OC3([H])C([H])([H])C([H])([H])[N+]([H])([H])C3([H])C([H])([H])C([H])([H])[N+]([H])([H])C([H])([H])C([H])([H])N([H])C(=O)N3C([H])([H])C([H])([H])C([H])([H])C([H])(n4nc(-c5c([H])c([H])c(Oc6c([H])c([H])c(F)c([H])c6F)c([H])c5[H])c(C(=O)N([H])[H])c4N([H])[H])C3([H])[H])c([H])c([H])c2C1([H])[H]

>  <smiles>  (39) 
[H]c1c([H])c([H])c2c(c1[H])C([H])([H])C([H])([H])C([H])([H])C2([H])N([H])C(=O)C1([H])N(C(=O)C([H])(N([H])C(=O)C([H])(N([H])C([H])([H])[H])C([H])([H])[H])C(C([H])([H])[H])(C([H])([H])[H])C([H])([H])[H])C([H])([H])c2c([H])c(OC3([H])C([H])([H])C([H])([H])[N+]([H])([H])C3([H])C([H])([H])C([H])([H])[N+]([H])([H])C([H])([H])C([H])([H])N([H])C(=O)N3C([H])([H])C([H])([H])C([H])([H])C([H])(n4nc(-c5c([H])c([H])c(Oc6c([H])c([H])c(F)c([H])c6F)c([H])c5[H])c(C(=O)N([H])[H])c4N([H])[H])C3([H])[H])c([H])c([H])c2C1([H])[H]

$$$$
40:0:0
     RDKit          3D

 95103  0  0  1  0  0  0  0  0999 V2000
  -30.8490  -20.5100   21.1660 C   0  0  0  0  0  3  0  0  0  0  0  0
  -30.7890  -21.8320   20.6840 C   0  0  0  0  0  3  0  0  0  0  0  0
  -28.8740  -19.9540   19.8690 C   0  0  0  0  0  3  0  0  0  0  0  0
  -28.8020  -21.2780   19.3620 C   0  0  0  0  0  0  0  0  0  0  0  0
  -29.9000  -19.5530   20.7460 C   0  0  0  0  0  0  0  0  0  0  0  0
  -29.7870  -22.2230   19.7700 C   0  0  0  0  0  0  0  0  0  0  0  0
  -27.7070  -21.6390   18.4000 C   0  0  0  0  0  0  0  0  0  0  0  0
  -26.6310  -20.5940   18.1150 C   0  0  0  0  0  1  0  0  0  0  0  0
  -27.6050  -22.7310   17.8350 O   0  0  0  0  0  0  0  0  0  0  0  0
  -29.9400  -18.2140   21.1700 N   0  0  0  0  0  0  0  0  0  0  0  0
  -29.1340  -17.6480   20.9200 H   0  0  0  0  0  0  0  0  0  0  0  0
  -31.2150  -17.5100   21.0740 C   0  0  0  0  0  2  0  0  0  0  0  0
  -31.2100  -16.1970   21.8790 C   0  0  0  0  0  2  0  0  0  0  0  0
  -30.7420  -14.3910   20.2210 C   0  0  0  0  0  0  0  0  0  0  0  0
  -30.2920  -12.3180   18.9520 C   0  0  0  0  0  2  0  0  0  0  0  0
  -29.2860  -12.5460   17.8080 C   0  0  0  0  0  2  0  0  0  0  0  0
  -27.8400  -12.4050   18.3170 C   0  0  0  0  0  2  0  0  0  0  0  0
  -27.5810  -13.2390   19.5980 C   0  0  0  0  0  3  0  0  0  0  0  0
  -28.6840  -12.9910   20.6490 C   0  0  0  0  0  2  0  0  0  0  0  0
  -29.9910  -13.2750   20.0290 N   0  0  0  0  0  0  0  0  0  0  0  0
  -31.7290  -14.6690   19.5320 O   0  0  0  0  0  0  0  0  0  0  0  0
  -30.3940  -15.1440   21.2740 N   0  0  0  0  0  0  0  0  0  0  0  0
  -29.5760  -14.8500   21.7860 H   0  0  0  0  0  0  0  0  0  0  0  0
  -25.2340  -13.8730   20.4470 C   0  0  0  0  0  0  0  0  0  0  0  0
  -24.1730  -13.1100   20.8590 C   0  0  0  0  0  0  0  0  0  0  0  0
  -24.6080  -11.7530   20.7730 C   0  0  0  0  0  0  0  0  0  0  0  0
  -26.2500  -12.9790   20.1420 N   0  0  0  0  0  0  0  0  0  0  0  0
  -25.8780  -11.6980   20.3930 N   0  0  0  0  0  0  0  0  0  0  0  0
  -23.8720  -10.4980   20.9780 C   0  0  0  0  0  0  0  0  0  0  0  0
  -24.3220   -9.5170   21.8890 C   0  0  0  0  0  3  0  0  0  0  0  0
  -23.5870   -8.3280   22.0810 C   0  0  0  0  0  3  0  0  0  0  0  0
  -22.3870   -8.1110   21.3620 C   0  0  0  0  0  0  0  0  0  0  0  0
  -21.9570   -9.0800   20.4390 C   0  0  0  0  0  3  0  0  0  0  0  0
  -22.6910  -10.2610   20.2460 C   0  0  0  0  0  3  0  0  0  0  0  0
  -21.6230   -6.9740   21.4650 O   0  0  0  0  0  0  0  0  0  0  0  0
  -21.5860   -6.2320   22.6190 C   0  0  0  0  0  0  0  0  0  0  0  0
  -21.1820   -6.7920   23.8510 C   0  0  0  0  0  3  0  0  0  0  0  0
  -21.0920   -5.9770   24.9970 C   0  0  0  0  0  3  0  0  0  0  0  0
  -21.3950   -4.6050   24.9120 C   0  0  0  0  0  0  0  0  0  0  0  0
  -21.7920   -4.0450   23.6860 C   0  0  0  0  0  3  0  0  0  0  0  0
  -21.8840   -4.8560   22.5410 C   0  0  0  0  0  0  0  0  0  0  0  0
  -22.2460   -4.3080   21.3560 F   0  0  0  0  0  0  0  0  0  0  0  0
  -21.3020   -3.8210   26.0120 F   0  0  0  0  0  0  0  0  0  0  0  0
  -22.8020  -13.6040   21.2190 C   0  0  0  0  0  0  0  0  0  0  0  0
  -22.1120  -12.9000   22.1090 N   0  0  0  0  0  0  0  0  0  0  0  0
  -22.3540  -14.6480   20.7470 O   0  0  0  0  0  0  0  0  0  0  0  0
  -22.4880  -12.0540   22.5110 H   0  0  0  0  0  0  0  0  0  0  0  0
  -21.1930  -13.2120   22.3920 H   0  0  0  0  0  0  0  0  0  0  0  0
  -25.4140  -15.2440   20.2870 N   0  0  0  0  0  0  0  0  0  0  0  0
  -24.6700  -15.9130   20.4510 H   0  0  0  0  0  0  0  0  0  0  0  0
  -26.2600  -15.6710   19.9330 H   0  0  0  0  0  0  0  0  0  0  0  0
  -29.8360  -23.4830   19.2170 O   0  0  0  0  0  0  0  0  0  0  0  0
  -29.8410  -24.6060   20.1000 C   0  0  0  0  0  2  0  0  0  0  0  0
  -28.6290  -25.4640   19.6980 C   0  0  0  0  0  2  0  0  0  0  0  0
  -28.6560  -26.8130   20.1860 O   0  0  0  0  0  0  0  0  0  0  0  0
  -24.6360  -31.8420   23.2250 C   0  0  0  0  0  0  0  0  0  0  0  0
  -27.4620  -27.5120   20.1370 C   0  0  0  0  0  0  0  0  0  0  0  0
  -23.5070  -30.4460   21.5270 C   0  0  0  0  0  3  0  0  0  0  0  0
  -25.0310  -28.9720   20.1150 C   0  0  0  0  0  0  0  0  0  0  0  0
  -26.0310  -30.8600   21.4080 C   0  0  0  0  0  2  0  0  0  0  0  0
  -26.1620  -29.5050   20.7430 C   0  0  0  0  0  0  0  0  0  0  0  0
  -27.3790  -28.7820   20.7540 C   0  0  0  0  0  3  0  0  0  0  0  0
  -26.3050  -27.0000   19.4980 C   0  0  0  0  0  3  0  0  0  0  0  0
  -25.0960  -27.7180   19.4920 C   0  0  0  0  0  3  0  0  0  0  0  0
  -23.7670  -29.8000   20.1430 C   0  0  0  0  0  2  0  0  0  0  0  0
  -24.7420  -31.0630   22.1120 N   0  0  0  0  0  0  0  0  0  0  0  0
  -23.5350  -32.0820   23.7390 O   0  0  0  0  0  0  0  0  0  0  0  0
  -22.8540  -29.3900   22.4490 C   0  0  0  0  0  0  0  0  0  0  0  0
  -21.5300  -29.2130   22.3120 N   0  0  0  0  0  0  0  0  0  0  0  0
  -23.5360  -28.7370   23.2440 O   0  0  0  0  0  0  0  0  0  0  0  0
  -21.0410  -29.7920   21.6430 H   0  0  0  0  0  0  0  0  0  0  0  0
  -18.1450  -28.0550   22.8090 C   0  0  0  0  0  0  0  0  0  0  0  0
  -20.7110  -28.2520   23.0480 C   0  0  0  0  0  3  0  0  0  0  0  0
  -20.7770  -26.8500   22.3990 C   0  0  0  0  0  2  0  0  0  0  0  0
  -19.6520  -26.6000   21.3890 C   0  0  0  0  0  2  0  0  0  0  0  0
  -18.2830  -26.7380   22.0640 C   0  0  0  0  0  2  0  0  0  0  0  0
  -19.2840  -28.7730   23.2570 C   0  0  0  0  0  0  0  0  0  0  0  0
  -19.1000  -30.0080   23.9140 C   0  0  0  0  0  3  0  0  0  0  0  0
  -17.8080  -30.5250   24.1280 C   0  0  0  0  0  3  0  0  0  0  0  0
  -16.6830  -29.8030   23.6960 C   0  0  0  0  0  3  0  0  0  0  0  0
  -16.8520  -28.5690   23.0420 C   0  0  0  0  0  3  0  0  0  0  0  0
  -25.8900  -32.4910   23.8900 C   0  0  0  0  0  3  0  0  0  0  0  0
  -25.5540  -33.8860   24.2010 N   0  0  0  0  0  0  0  0  0  0  0  0
  -25.8950  -34.9370   23.4450 C   0  0  0  0  0  0  0  0  0  0  0  0
  -26.6000  -34.8370   22.4360 O   0  0  0  0  0  0  0  0  0  0  0  0
  -24.9280  -34.0360   24.9780 H   0  0  0  0  0  0  0  0  0  0  0  0
  -24.1510  -36.7000   23.0270 C   0  0  0  0  0  1  0  0  0  0  0  0
  -25.3750  -36.3220   23.8760 C   0  0  0  0  0  3  0  0  0  0  0  0
  -27.4720  -37.2450   24.7600 C   0  0  0  0  0  1  0  0  0  0  0  0
  -26.3950  -37.3890   23.7840 N   0  0  0  0  0  0  0  0  0  0  0  0
  -25.9710  -38.3040   23.9150 H   0  0  0  0  0  0  0  0  0  0  0  0
  -26.3710  -31.7280   25.1860 C   0  0  1  0  0  0  0  0  0  0  0  0
  -25.2420  -31.4730   26.2110 C   0  0  0  0  0  1  0  0  0  0  0  0
  -26.9920  -30.3600   24.8190 C   0  0  0  0  0  1  0  0  0  0  0  0
  -27.4840  -32.5420   25.8890 C   0  0  0  0  0  1  0  0  0  0  0  0
  2  1  2  0
  3  5  2  0
  4  6  2  0
  4  3  1  0
  5  1  1  0
  5 10  1  0
  6  2  1  0
  7  4  1  0
  8  7  1  0
  9  7  2  0
 11 10  1  0
 12 10  1  0
 12 13  1  0
 14 22  1  0
 15 20  1  0
 16 17  1  0
 16 15  1  0
 18 17  1  0
 18 27  1  0
 18 19  1  0
 20 14  1  0
 20 19  1  0
 21 14  2  0
 22 23  1  0
 22 13  1  0
 24 25  2  0
 25 44  1  0
 26 25  1  0
 26 29  1  0
 27 28  1  0
 27 24  1  0
 28 26  2  0
 29 30  1  0
 30 31  2  0
 32 35  1  0
 32 31  1  0
 33 32  2  0
 34 33  1  0
 34 29  2  0
 35 36  1  0
 36 37  1  0
 37 38  2  0
 39 38  1  0
 39 43  1  0
 40 39  2  0
 41 36  2  0
 41 40  1  0
 42 41  1  0
 44 45  1  0
 45 48  1  0
 45 47  1  0
 46 44  2  0
 49 24  1  0
 49 50  1  0
 51 49  1  0
 52  6  1  0
 52 53  1  0
 54 53  1  0
 54 55  1  0
 56 67  2  0
 57 55  1  0
 57 62  1  0
 58 66  1  0
 58 68  1  0
 59 65  1  0
 59 61  1  0
 60 66  1  0
 61 62  2  0
 61 60  1  0
 63 57  2  0
 64 63  1  0
 64 59  2  0
 65 58  1  0
 66 56  1  0
 68 70  2  0
 69 68  1  0
 71 69  1  0
 72 81  2  0
 72 77  1  0
 73 69  1  0
 73 77  1  0
 74 73  1  0
 75 76  1  0
 75 74  1  0
 76 72  1  0
 77 78  2  0
 78 79  1  0
 80 79  2  0
 81 80  1  0
 82 56  1  0
 82 83  1  0
 82 92  1  0
 83 86  1  0
 84 88  1  0
 84 83  1  0
 85 84  2  0
 88 87  1  0
 90 88  1  0
 90 91  1  0
 90 89  1  0
 92 95  1  1
 92 93  1  0
 94 92  1  0
M  ISO  4  14 100  22 100  54 101  55 101
M  END
>  <TORSDO>  (40) 
F 23

>  <SCORE>  (40) 
-13.243

>  <name>  (40) 
40

>  <ligand_id>  (40) 
40

>  <original_smiles>  (40) 
[H]c1c([H])c([H])c2c(c1[H])C([H])([H])C([H])([H])C([H])([H])C2([H])N([H])C(=O)C1([H])N(C(=O)C([H])(N([H])C(=O)C([H])(N([H])C([H])([H])[H])C([H])([H])[H])C(C([H])([H])[H])(C([H])([H])[H])C([H])([H])[H])C([H])([H])c2c([H])c(OC([H])([H])C([H])([H])Oc3c([H])c([H])c(N([H])C([H])([H])C([H])([H])N([H])C(=O)N4C([H])([H])C([H])([H])C([H])([H])C([H])(n5nc(-c6c([H])c([H])c(Oc7c([H])c([H])c(F)c([H])c7F)c([H])c6[H])c(C(=O)N([H])[H])c5N([H])[H])C4([H])[H])c([H])c3C(=O)C([H])([H])[H])c([H])c([H])c2C1([H])[H]

>  <smiles>  (40) 
[H]c1c([H])c([H])c2c(c1[H])C([H])([H])C([H])([H])C([H])([H])C2([H])N([H])C(=O)C1([H])N(C(=O)C([H])(N([H])C(=O)C([H])(N([H])C([H])([H])[H])C([H])([H])[H])C(C([H])([H])[H])(C([H])([H])[H])C([H])([H])[H])C([H])([H])c2c([H])c(OC([H])([H])C([H])([H])Oc3c([H])c([H])c(N([H])C([H])([H])C([H])([H])N([H])C(=O)N4C([H])([H])C([H])([H])C([H])([H])C([H])(n5nc(-c6c([H])c([H])c(Oc7c([H])c([H])c(F)c([H])c7F)c([H])c6[H])c(C(=O)N([H])[H])c5N([H])[H])C4([H])[H])c([H])c3C(=O)C([H])([H])[H])c([H])c([H])c2C1([H])[H]

$$$$
41:0:0
     RDKit          3D

 93101  0  0  1  0  0  0  0  0999 V2000
  -28.4270  -23.1190   21.5620 C   0  0  0  0  0  3  0  0  0  0  0  0
  -28.8440  -21.7900   21.8390 C   0  0  0  0  0  3  0  0  0  0  0  0
  -28.7780  -23.7550   20.3470 C   0  0  0  0  0  0  0  0  0  0  0  0
  -29.6030  -22.9690   19.4820 C   0  0  0  0  0  0  0  0  0  0  0  0
  -29.5920  -21.0590   20.8930 C   0  0  0  0  0  0  0  0  0  0  0  0
  -29.9620  -21.6640   19.7400 N   0  0  0  0  0  0  0  0  0  0  0  0
  -30.0720  -19.7510   21.2060 N   0  0  0  0  0  0  0  0  0  0  0  0
  -30.0650  -19.5920   22.2080 H   0  0  0  0  0  0  0  0  0  0  0  0
  -29.4200  -22.9000   16.9470 C   0  0  0  0  0  1  0  0  0  0  0  0
  -31.6610  -23.4260   18.0640 C   0  0  0  0  0  1  0  0  0  0  0  0
  -30.1270  -23.5290   18.1590 C   0  0  0  0  0  3  0  0  0  0  0  0
  -27.9840  -25.0340   19.8830 C   0  0  0  0  0  2  0  0  0  0  0  0
  -28.2960  -26.4390   20.2670 O   0  0  0  0  0  0  0  0  0  0  0  0
  -24.6250  -31.9060   23.2800 C   0  0  0  0  0  0  0  0  0  0  0  0
  -27.2150  -27.3460   20.1850 C   0  0  0  0  0  0  0  0  0  0  0  0
  -23.4160  -30.5160   21.6420 C   0  0  0  0  0  3  0  0  0  0  0  0
  -24.8580  -28.9860   20.1970 C   0  0  0  0  0  0  0  0  0  0  0  0
  -25.9600  -30.8280   21.4530 C   0  0  0  0  0  2  0  0  0  0  0  0
  -26.0340  -29.4540   20.7970 C   0  0  0  0  0  0  0  0  0  0  0  0
  -27.2140  -28.6460   20.7890 C   0  0  0  0  0  3  0  0  0  0  0  0
  -26.0160  -26.9630   19.5300 C   0  0  0  0  0  3  0  0  0  0  0  0
  -24.8530  -27.7450   19.5550 C   0  0  0  0  0  3  0  0  0  0  0  0
  -23.6210  -29.8560   20.2570 C   0  0  0  0  0  2  0  0  0  0  0  0
  -24.6870  -31.1020   22.1800 N   0  0  0  0  0  0  0  0  0  0  0  0
  -23.5430  -32.1790   23.8180 O   0  0  0  0  0  0  0  0  0  0  0  0
  -22.7610  -29.4910   22.5970 C   0  0  0  0  0  0  0  0  0  0  0  0
  -21.4360  -29.3020   22.4650 N   0  0  0  0  0  0  0  0  0  0  0  0
  -23.4400  -28.8690   23.4170 O   0  0  0  0  0  0  0  0  0  0  0  0
  -20.9460  -29.8500   21.7720 H   0  0  0  0  0  0  0  0  0  0  0  0
  -18.0670  -28.0780   22.9590 C   0  0  0  0  0  0  0  0  0  0  0  0
  -20.6240  -28.3600   23.2350 C   0  0  0  0  0  3  0  0  0  0  0  0
  -20.7390  -26.9270   22.6640 C   0  0  0  0  0  2  0  0  0  0  0  0
  -19.6420  -26.5910   21.6500 C   0  0  0  0  0  2  0  0  0  0  0  0
  -18.2570  -26.7290   22.2860 C   0  0  0  0  0  2  0  0  0  0  0  0
  -19.1790  -28.8500   23.3900 C   0  0  0  0  0  0  0  0  0  0  0  0
  -18.9480  -30.1140   23.9770 C   0  0  0  0  0  3  0  0  0  0  0  0
  -17.6390  -30.6040   24.1390 C   0  0  0  0  0  3  0  0  0  0  0  0
  -16.5420  -29.8300   23.7240 C   0  0  0  0  0  3  0  0  0  0  0  0
  -16.7560  -28.5690   23.1400 C   0  0  0  0  0  3  0  0  0  0  0  0
  -25.9090  -32.5370   23.8960 C   0  0  0  0  0  3  0  0  0  0  0  0
  -26.4230  -31.7750   25.1790 C   0  0  1  0  0  0  0  0  0  0  0  0
  -25.3290  -31.5440   26.2500 C   0  0  0  0  0  1  0  0  0  0  0  0
  -27.0050  -30.3930   24.8000 C   0  0  0  0  0  1  0  0  0  0  0  0
  -27.5770  -32.5710   25.8320 C   0  0  0  0  0  1  0  0  0  0  0  0
  -25.6040  -33.9390   24.2170 N   0  0  0  0  0  0  0  0  0  0  0  0
  -25.9230  -34.9860   23.4450 C   0  0  0  0  0  0  0  0  0  0  0  0
  -26.5800  -34.8740   22.4060 O   0  0  0  0  0  0  0  0  0  0  0  0
  -25.0250  -34.1000   25.0280 H   0  0  0  0  0  0  0  0  0  0  0  0
  -24.1840  -36.7720   23.1050 C   0  0  0  0  0  1  0  0  0  0  0  0
  -25.4400  -36.3770   23.8970 C   0  0  0  0  0  3  0  0  0  0  0  0
  -27.5850  -37.2750   24.6840 C   0  0  0  0  0  1  0  0  0  0  0  0
  -26.4660  -37.4330   23.7580 N   0  0  0  0  0  0  0  0  0  0  0  0
  -26.0590  -38.3530   23.9060 H   0  0  0  0  0  0  0  0  0  0  0  0
  -29.7020  -18.4890   20.4970 C   0  0  0  0  0  2  0  0  0  0  0  0
  -30.5700  -17.2180   20.9220 C   0  0  0  0  0  2  0  0  0  0  0  0
  -30.6980  -14.6940   20.4480 C   0  0  0  0  0  0  0  0  0  0  0  0
  -30.4320  -12.4610   19.3830 C   0  0  0  0  0  2  0  0  0  0  0  0
  -29.5160  -12.5840   18.1480 C   0  0  0  0  0  2  0  0  0  0  0  0
  -28.0390  -12.4290   18.5580 C   0  0  0  0  0  2  0  0  0  0  0  0
  -27.6590  -13.3080   19.7800 C   0  0  0  0  0  3  0  0  0  0  0  0
  -28.7020  -13.1920   20.9150 C   0  0  0  0  0  2  0  0  0  0  0  0
  -30.0190  -13.5070   20.3430 N   0  0  0  0  0  0  0  0  0  0  0  0
  -31.8790  -14.7770   20.1020 O   0  0  0  0  0  0  0  0  0  0  0  0
  -30.0000  -15.8280   20.7660 N   0  0  0  0  0  0  0  0  0  0  0  0
  -29.0230  -15.7040   20.9880 H   0  0  0  0  0  0  0  0  0  0  0  0
  -25.2530  -13.9040   20.4480 C   0  0  0  0  0  0  0  0  0  0  0  0
  -24.1810  -13.1310   20.8040 C   0  0  0  0  0  0  0  0  0  0  0  0
  -24.6490  -11.7810   20.7980 C   0  0  0  0  0  0  0  0  0  0  0  0
  -26.3050  -13.0260   20.2460 N   0  0  0  0  0  0  0  0  0  0  0  0
  -25.9460  -11.7450   20.5180 N   0  0  0  0  0  0  0  0  0  0  0  0
  -23.9230  -10.5180   20.9850 C   0  0  0  0  0  0  0  0  0  0  0  0
  -24.3450   -9.5570   21.9300 C   0  0  0  0  0  3  0  0  0  0  0  0
  -23.6200   -8.3590   22.1070 C   0  0  0  0  0  3  0  0  0  0  0  0
  -22.4570   -8.1140   21.3370 C   0  0  0  0  0  0  0  0  0  0  0  0
  -22.0540   -9.0640   20.3820 C   0  0  0  0  0  3  0  0  0  0  0  0
  -22.7800  -10.2540   20.2040 C   0  0  0  0  0  3  0  0  0  0  0  0
  -21.7040   -6.9670   21.4220 O   0  0  0  0  0  0  0  0  0  0  0  0
  -21.6470   -6.2270   22.5760 C   0  0  0  0  0  0  0  0  0  0  0  0
  -21.2100   -6.7830   23.7990 C   0  0  0  0  0  3  0  0  0  0  0  0
  -21.1030   -5.9680   24.9430 C   0  0  0  0  0  3  0  0  0  0  0  0
  -21.4220   -4.6000   24.8670 C   0  0  0  0  0  0  0  0  0  0  0  0
  -21.8510   -4.0430   23.6490 C   0  0  0  0  0  3  0  0  0  0  0  0
  -21.9610   -4.8540   22.5060 C   0  0  0  0  0  0  0  0  0  0  0  0
  -22.3560   -4.3090   21.3310 F   0  0  0  0  0  0  0  0  0  0  0  0
  -21.3120   -3.8150   25.9650 F   0  0  0  0  0  0  0  0  0  0  0  0
  -22.7770  -13.6060   21.0420 C   0  0  0  0  0  0  0  0  0  0  0  0
  -22.0360  -12.9150   21.9010 N   0  0  0  0  0  0  0  0  0  0  0  0
  -22.3460  -14.6220   20.4990 O   0  0  0  0  0  0  0  0  0  0  0  0
  -22.3990  -12.0930   22.3600 H   0  0  0  0  0  0  0  0  0  0  0  0
  -21.0910  -13.2130   22.1040 H   0  0  0  0  0  0  0  0  0  0  0  0
  -25.4150  -15.2750   20.2590 N   0  0  0  0  0  0  0  0  0  0  0  0
  -24.6430  -15.9260   20.3520 H   0  0  0  0  0  0  0  0  0  0  0  0
  -26.2680  -15.7140   19.9360 H   0  0  0  0  0  0  0  0  0  0  0  0
  1  2  1  0
  3  1  2  0
  4  6  2  0
  4  3  1  0
  5  7  1  0
  5  2  2  0
  6  5  1  0
  7  8  1  0
  9 11  1  0
 10 11  1  0
 11  4  1  0
 12 13  1  0
 12  3  1  0
 14 25  2  0
 15 13  1  0
 15 20  1  0
 16 24  1  0
 16 26  1  0
 17 23  1  0
 17 19  1  0
 18 24  1  0
 19 18  1  0
 20 19  2  0
 21 22  1  0
 21 15  2  0
 22 17  2  0
 23 16  1  0
 24 14  1  0
 26 28  2  0
 27 26  1  0
 29 27  1  0
 30 39  2  0
 30 35  1  0
 31 27  1  0
 31 35  1  0
 32 31  1  0
 33 34  1  0
 33 32  1  0
 34 30  1  0
 35 36  2  0
 36 37  1  0
 38 37  2  0
 39 38  1  0
 40 14  1  0
 40 45  1  0
 40 41  1  0
 41 44  1  1
 41 42  1  0
 43 41  1  0
 45 48  1  0
 46 50  1  0
 46 45  1  0
 47 46  2  0
 50 49  1  0
 52 50  1  0
 52 53  1  0
 52 51  1  0
 54 55  1  0
 54  7  1  0
 56 64  1  0
 57 62  1  0
 58 59  1  0
 58 57  1  0
 60 59  1  0
 60 69  1  0
 60 61  1  0
 62 56  1  0
 62 61  1  0
 63 56  2  0
 64 55  1  0
 64 65  1  0
 66 67  2  0
 67 86  1  0
 68 67  1  0
 68 71  1  0
 69 66  1  0
 69 70  1  0
 70 68  2  0
 71 72  1  0
 72 73  2  0
 74 77  1  0
 74 73  1  0
 75 74  2  0
 76 75  1  0
 76 71  2  0
 77 78  1  0
 78 79  1  0
 79 80  2  0
 81 80  1  0
 81 85  1  0
 82 81  2  0
 83 78  2  0
 83 82  1  0
 84 83  1  0
 86 87  1  0
 87 90  1  0
 87 89  1  0
 88 86  2  0
 91 92  1  0
 91 66  1  0
 93 91  1  0
M  ISO  4  12 101  13 101  56 100  64 100
M  END
>  <TORSDO>  (41) 
F 20

>  <SCORE>  (41) 
-14.014

>  <name>  (41) 
41

>  <ligand_id>  (41) 
41

>  <original_smiles>  (41) 
[H]c1c(N([H])C([H])([H])C([H])([H])N([H])C(=O)N2C([H])([H])C([H])([H])C([H])([H])C([H])(n3nc(-c4c([H])c([H])c(Oc5c([H])c([H])c(F)c([H])c5F)c([H])c4[H])c(C(=O)N([H])[H])c3N([H])[H])C2([H])[H])nc(C([H])(C([H])([H])[H])C([H])([H])[H])c(C([H])([H])Oc2c([H])c([H])c3c(c2[H])C([H])([H])N(C(=O)C([H])(N([H])C(=O)C([H])(N([H])C([H])([H])[H])C([H])([H])[H])C(C([H])([H])[H])(C([H])([H])[H])C([H])([H])[H])C([H])(C(=O)N([H])C2([H])c4c([H])c([H])c([H])c([H])c4C([H])([H])C([H])([H])C2([H])[H])C3([H])[H])c1[H]

>  <smiles>  (41) 
[H]c1c(N([H])C([H])([H])C([H])([H])N([H])C(=O)N2C([H])([H])C([H])([H])C([H])([H])C([H])(n3nc(-c4c([H])c([H])c(Oc5c([H])c([H])c(F)c([H])c5F)c([H])c4[H])c(C(=O)N([H])[H])c3N([H])[H])C2([H])[H])nc(C([H])(C([H])([H])[H])C([H])([H])[H])c(C([H])([H])Oc2c([H])c([H])c3c(c2[H])C([H])([H])N(C(=O)C([H])(N([H])C(=O)C([H])(N([H])C([H])([H])[H])C([H])([H])[H])C(C([H])([H])[H])(C([H])([H])[H])C([H])([H])[H])C([H])(C(=O)N([H])C2([H])c4c([H])c([H])c([H])c([H])c4C([H])([H])C([H])([H])C2([H])[H])C3([H])[H])c1[H]

$$$$
42:0:0
     RDKit          3D

 93101  0  0  1  0  0  0  0  0999 V2000
  -29.5660  -22.9090   19.7090 C   0  0  0  0  0  2  0  0  0  0  0  0
  -27.3680  -22.8560   20.9150 C   0  0  0  0  0  2  0  0  0  0  0  0
  -29.6290  -24.4560   19.9480 C   0  0  0  0  0  2  0  0  0  0  0  0
  -27.4600  -24.3940   21.1450 C   0  0  0  0  0  2  0  0  0  0  0  0
  -28.7420  -22.1360   20.7800 C   0  0  0  0  0  3  0  0  0  0  0  0
  -28.2320  -25.1310   20.0190 C   0  0  0  0  0  3  0  0  0  0  0  0
  -28.5630  -20.6620   20.4970 N   0  0  0  0  0  4  0  0  0  0  0  0
  -28.1700  -20.5330   19.5800 H   0  0  0  0  0  0  0  0  0  0  0  0
  -27.8810  -20.2960   21.1440 H   0  0  0  0  0  0  0  0  0  0  0  0
  -29.7370  -19.7330   20.6300 C   0  0  0  0  0  2  0  0  0  0  0  0
  -29.2880  -18.2330   20.5720 C   0  0  0  0  0  0  0  0  0  0  0  0
  -28.1020  -17.9500   20.7710 O   0  0  0  0  0  0  0  0  0  0  0  0
  -30.7070  -17.2080   18.7370 C   0  0  0  0  0  1  0  0  0  0  0  0
  -30.3430  -17.1130   20.2380 C   0  0  0  0  0  3  0  0  0  0  0  0
  -30.6510  -14.5850   20.4240 C   0  0  0  0  0  0  0  0  0  0  0  0
  -30.3660  -12.3770   19.3660 C   0  0  0  0  0  2  0  0  0  0  0  0
  -29.4390  -12.5450   18.1450 C   0  0  0  0  0  2  0  0  0  0  0  0
  -27.9620  -12.4090   18.5660 C   0  0  0  0  0  2  0  0  0  0  0  0
  -27.6070  -13.2700   19.8080 C   0  0  0  0  0  3  0  0  0  0  0  0
  -28.6590  -13.1120   20.9280 C   0  0  0  0  0  2  0  0  0  0  0  0
  -29.9770  -13.4020   20.3500 N   0  0  0  0  0  0  0  0  0  0  0  0
  -31.8420  -14.6710   20.1170 O   0  0  0  0  0  0  0  0  0  0  0  0
  -29.9020  -15.7140   20.5610 N   0  0  0  0  0  0  0  0  0  0  0  0
  -28.9250  -15.5980   20.7880 H   0  0  0  0  0  0  0  0  0  0  0  0
  -25.2120  -13.8820   20.5080 C   0  0  0  0  0  0  0  0  0  0  0  0
  -24.1390  -13.1140   20.8720 C   0  0  0  0  0  0  0  0  0  0  0  0
  -24.5950  -11.7610   20.8490 C   0  0  0  0  0  0  0  0  0  0  0  0
  -26.2550  -12.9970   20.2860 N   0  0  0  0  0  0  0  0  0  0  0  0
  -25.8880  -11.7160   20.5510 N   0  0  0  0  0  0  0  0  0  0  0  0
  -23.8640  -10.5010   21.0370 C   0  0  0  0  0  0  0  0  0  0  0  0
  -24.2830   -9.5360   21.9780 C   0  0  0  0  0  3  0  0  0  0  0  0
  -23.5500   -8.3410   22.1540 C   0  0  0  0  0  3  0  0  0  0  0  0
  -22.3830   -8.1060   21.3890 C   0  0  0  0  0  0  0  0  0  0  0  0
  -21.9830   -9.0610   20.4360 C   0  0  0  0  0  3  0  0  0  0  0  0
  -22.7170  -10.2450   20.2580 C   0  0  0  0  0  3  0  0  0  0  0  0
  -21.6230   -6.9640   21.4720 O   0  0  0  0  0  0  0  0  0  0  0  0
  -21.5580   -6.2280   22.6280 C   0  0  0  0  0  0  0  0  0  0  0  0
  -21.1090   -6.7880   23.8450 C   0  0  0  0  0  3  0  0  0  0  0  0
  -20.9900   -5.9770   24.9910 C   0  0  0  0  0  3  0  0  0  0  0  0
  -21.3080   -4.6080   24.9230 C   0  0  0  0  0  0  0  0  0  0  0  0
  -21.7510   -4.0480   23.7110 C   0  0  0  0  0  3  0  0  0  0  0  0
  -21.8710   -4.8540   22.5660 C   0  0  0  0  0  0  0  0  0  0  0  0
  -22.2770   -4.3050   21.3960 F   0  0  0  0  0  0  0  0  0  0  0  0
  -21.1870   -3.8270   26.0210 F   0  0  0  0  0  0  0  0  0  0  0  0
  -22.7410  -13.5980   21.1300 C   0  0  0  0  0  0  0  0  0  0  0  0
  -22.0050  -12.9100   21.9970 N   0  0  0  0  0  0  0  0  0  0  0  0
  -22.3100  -14.6200   20.5980 O   0  0  0  0  0  0  0  0  0  0  0  0
  -22.3660  -12.0860   22.4530 H   0  0  0  0  0  0  0  0  0  0  0  0
  -21.0660  -13.2160   22.2120 H   0  0  0  0  0  0  0  0  0  0  0  0
  -25.3820  -15.2520   20.3290 N   0  0  0  0  0  0  0  0  0  0  0  0
  -24.6170  -15.9080   20.4380 H   0  0  0  0  0  0  0  0  0  0  0  0
  -26.2400  -15.6990   20.0300 H   0  0  0  0  0  0  0  0  0  0  0  0
  -28.3280  -26.5810   20.2180 O   0  0  0  0  0  0  0  0  0  0  0  0
  -24.5840  -31.8880   23.2540 C   0  0  0  0  0  0  0  0  0  0  0  0
  -27.1780  -27.3720   20.1690 C   0  0  0  0  0  0  0  0  0  0  0  0
  -23.3690  -30.5000   21.6110 C   0  0  0  0  0  3  0  0  0  0  0  0
  -24.8080  -28.9570   20.1760 C   0  0  0  0  0  0  0  0  0  0  0  0
  -25.9030  -30.8260   21.4160 C   0  0  0  0  0  2  0  0  0  0  0  0
  -25.9770  -29.4520   20.7650 C   0  0  0  0  0  0  0  0  0  0  0  0
  -27.1640  -28.6710   20.7540 C   0  0  0  0  0  3  0  0  0  0  0  0
  -25.9850  -26.9180   19.5610 C   0  0  0  0  0  3  0  0  0  0  0  0
  -24.8100  -27.6930   19.5680 C   0  0  0  0  0  3  0  0  0  0  0  0
  -23.5730  -29.8300   20.2280 C   0  0  0  0  0  2  0  0  0  0  0  0
  -24.6380  -31.0870   22.1510 N   0  0  0  0  0  0  0  0  0  0  0  0
  -23.5040  -32.1650   23.7950 O   0  0  0  0  0  0  0  0  0  0  0  0
  -22.7090  -29.4790   22.5680 C   0  0  0  0  0  0  0  0  0  0  0  0
  -21.3830  -29.3060   22.4430 N   0  0  0  0  0  0  0  0  0  0  0  0
  -23.3900  -28.8460   23.3800 O   0  0  0  0  0  0  0  0  0  0  0  0
  -20.8940  -29.8680   21.7610 H   0  0  0  0  0  0  0  0  0  0  0  0
  -18.0020  -28.1290   22.9480 C   0  0  0  0  0  0  0  0  0  0  0  0
  -20.5630  -28.3700   23.2120 C   0  0  0  0  0  3  0  0  0  0  0  0
  -20.6540  -26.9400   22.6300 C   0  0  0  0  0  2  0  0  0  0  0  0
  -19.5470  -26.6290   21.6180 C   0  0  0  0  0  2  0  0  0  0  0  0
  -18.1680  -26.7820   22.2660 C   0  0  0  0  0  2  0  0  0  0  0  0
  -19.1270  -28.8820   23.3780 C   0  0  0  0  0  0  0  0  0  0  0  0
  -18.9180  -30.1440   23.9750 C   0  0  0  0  0  3  0  0  0  0  0  0
  -17.6170  -30.6540   24.1460 C   0  0  0  0  0  3  0  0  0  0  0  0
  -16.5070  -29.8980   23.7320 C   0  0  0  0  0  3  0  0  0  0  0  0
  -16.7000  -28.6370   23.1390 C   0  0  0  0  0  3  0  0  0  0  0  0
  -25.8720  -32.5110   23.8740 C   0  0  0  0  0  3  0  0  0  0  0  0
  -26.3960  -31.7260   25.1390 C   0  0  1  0  0  0  0  0  0  0  0  0
  -25.3090  -31.4770   26.2110 C   0  0  0  0  0  1  0  0  0  0  0  0
  -26.9760  -30.3530   24.7280 C   0  0  0  0  0  1  0  0  0  0  0  0
  -27.5510  -32.5130   25.8040 C   0  0  0  0  0  1  0  0  0  0  0  0
  -25.5670  -33.9060   24.2200 N   0  0  0  0  0  0  0  0  0  0  0  0
  -25.8730  -34.9640   23.4560 C   0  0  0  0  0  0  0  0  0  0  0  0
  -26.5140  -34.8680   22.4060 O   0  0  0  0  0  0  0  0  0  0  0  0
  -24.9950  -34.0550   25.0390 H   0  0  0  0  0  0  0  0  0  0  0  0
  -24.1180  -36.7420   23.1730 C   0  0  0  0  0  1  0  0  0  0  0  0
  -25.3930  -36.3470   23.9350 C   0  0  0  0  0  3  0  0  0  0  0  0
  -27.5520  -37.2490   24.6810 C   0  0  0  0  0  1  0  0  0  0  0  0
  -26.4110  -37.4100   23.7830 N   0  0  0  0  0  0  0  0  0  0  0  0
  -26.0030  -38.3250   23.9520 H   0  0  0  0  0  0  0  0  0  0  0  0
  1  3  1  0
  1  5  1  0
  2  4  1  0
  3  6  1  0
  5  7  1  0
  5  2  1  0
  6 53  1  0
  6  4  1  0
  7 10  1  0
  7  9  1  0
  8  7  1  0
 11 10  1  0
 11 12  2  0
 14 13  1  0
 14 23  1  0
 14 11  1  0
 15 23  1  0
 16 21  1  0
 17 18  1  0
 17 16  1  0
 19 18  1  0
 19 28  1  0
 19 20  1  0
 21 15  1  0
 21 20  1  0
 22 15  2  0
 23 24  1  0
 25 26  2  0
 26 45  1  0
 27 26  1  0
 27 30  1  0
 28 25  1  0
 28 29  1  0
 29 27  2  0
 30 31  1  0
 31 32  2  0
 33 36  1  0
 33 32  1  0
 34 33  2  0
 35 34  1  0
 35 30  2  0
 36 37  1  0
 37 38  1  0
 38 39  2  0
 40 39  1  0
 40 44  1  0
 41 40  2  0
 42 37  2  0
 42 41  1  0
 43 42  1  0
 45 46  1  0
 46 49  1  0
 46 48  1  0
 47 45  2  0
 50 51  1  0
 50 25  1  0
 52 50  1  0
 54 65  2  0
 55 53  1  0
 55 60  1  0
 56 64  1  0
 56 66  1  0
 57 63  1  0
 57 59  1  0
 58 64  1  0
 59 58  1  0
 60 59  2  0
 61 62  1  0
 61 55  2  0
 62 57  2  0
 63 56  1  0
 64 54  1  0
 66 68  2  0
 67 66  1  0
 69 67  1  0
 70 79  2  0
 70 75  1  0
 71 67  1  0
 71 75  1  0
 72 71  1  0
 73 74  1  0
 73 72  1  0
 74 70  1  0
 75 76  2  0
 76 77  1  0
 78 77  2  0
 79 78  1  0
 80 54  1  0
 80 85  1  0
 80 81  1  0
 81 84  1  1
 81 82  1  0
 83 81  1  0
 85 88  1  0
 86 90  1  0
 86 85  1  0
 87 86  2  0
 90 89  1  0
 92 90  1  0
 92 93  1  0
 92 91  1  0
M  ISO  4   6 101  15 100  23 100  53 101
M  END
>  <TORSDO>  (42) 
F 20

>  <SCORE>  (42) 
-14.044

>  <name>  (42) 
42

>  <ligand_id>  (42) 
42

>  <original_smiles>  (42) 
[H]c1c([H])c([H])c2c(c1[H])C([H])([H])C([H])([H])C([H])([H])C2([H])N([H])C(=O)C1([H])N(C(=O)C([H])(N([H])C(=O)C([H])(N([H])C([H])([H])[H])C([H])([H])[H])C(C([H])([H])[H])(C([H])([H])[H])C([H])([H])[H])C([H])([H])c2c([H])c(OC3([H])C([H])([H])C([H])([H])C([H])([N+]([H])([H])C([H])([H])C(=O)C([H])(N([H])C(=O)N4C([H])([H])C([H])([H])C([H])([H])C([H])(n5nc(-c6c([H])c([H])c(Oc7c([H])c([H])c(F)c([H])c7F)c([H])c6[H])c(C(=O)N([H])[H])c5N([H])[H])C4([H])[H])C([H])([H])[H])C([H])([H])C3([H])[H])c([H])c([H])c2C1([H])[H]

>  <smiles>  (42) 
[H]c1c([H])c([H])c2c(c1[H])C([H])([H])C([H])([H])C([H])([H])C2([H])N([H])C(=O)C1([H])N(C(=O)C([H])(N([H])C(=O)C([H])(N([H])C([H])([H])[H])C([H])([H])[H])C(C([H])([H])[H])(C([H])([H])[H])C([H])([H])[H])C([H])([H])c2c([H])c(OC3([H])C([H])([H])C([H])([H])C([H])([N+]([H])([H])C([H])([H])C(=O)C([H])(N([H])C(=O)N4C([H])([H])C([H])([H])C([H])([H])C([H])(n5nc(-c6c([H])c([H])c(Oc7c([H])c([H])c(F)c([H])c7F)c([H])c6[H])c(C(=O)N([H])[H])c5N([H])[H])C4([H])[H])C([H])([H])[H])C([H])([H])C3([H])[H])c([H])c([H])c2C1([H])[H]

$$$$
43:0:0
     RDKit          3D

103113  0  0  1  0  0  0  0  0999 V2000
  -30.9970  -20.6450   21.0550 C   0  0  0  0  0  3  0  0  0  0  0  0
  -32.5680  -18.5540   20.8870 C   0  0  0  0  0  2  0  0  0  0  0  0
  -31.0310  -18.7550   22.8850 C   0  0  0  0  0  2  0  0  0  0  0  0
  -31.6240  -17.5070   20.2950 C   0  0  0  0  0  2  0  0  0  0  0  0
  -30.1930  -17.5780   22.3320 C   0  0  0  0  0  2  0  0  0  0  0  0
  -31.8250  -19.5490   21.8060 C   0  0  0  0  0  3  0  0  0  0  0  0
  -31.0630  -16.6560   21.4570 C   0  0  0  0  0  3  0  0  0  0  0  0
  -30.9420  -14.4110   20.3880 C   0  0  0  0  0  0  0  0  0  0  0  0
  -30.5410  -12.2870   19.2180 C   0  0  0  0  0  2  0  0  0  0  0  0
  -29.5960  -12.5220   18.0270 C   0  0  0  0  0  2  0  0  0  0  0  0
  -28.1270  -12.4020   18.4770 C   0  0  0  0  0  2  0  0  0  0  0  0
  -27.8160  -13.2380   19.7470 C   0  0  0  0  0  3  0  0  0  0  0  0
  -28.8840  -13.0170   20.8400 C   0  0  0  0  0  2  0  0  0  0  0  0
  -30.2030  -13.2820   20.2460 N   0  0  0  0  0  0  0  0  0  0  0  0
  -32.0540  -14.5330   19.8750 O   0  0  0  0  0  0  0  0  0  0  0  0
  -30.3690  -15.4250   21.0540 N   0  0  0  0  0  0  0  0  0  0  0  0
  -29.4380  -15.2700   21.4100 H   0  0  0  0  0  0  0  0  0  0  0  0
  -25.4370  -13.8550   20.5090 C   0  0  0  0  0  0  0  0  0  0  0  0
  -24.3680  -13.0840   20.8840 C   0  0  0  0  0  0  0  0  0  0  0  0
  -24.8170  -11.7290   20.8250 C   0  0  0  0  0  0  0  0  0  0  0  0
  -26.4690  -12.9690   20.2460 N   0  0  0  0  0  0  0  0  0  0  0  0
  -26.1010  -11.6840   20.4930 N   0  0  0  0  0  0  0  0  0  0  0  0
  -24.0820  -10.4710   21.0100 C   0  0  0  0  0  0  0  0  0  0  0  0
  -24.4990   -9.5040   21.9520 C   0  0  0  0  0  3  0  0  0  0  0  0
  -23.7680   -8.3100   22.1240 C   0  0  0  0  0  3  0  0  0  0  0  0
  -22.6040   -8.0730   21.3530 C   0  0  0  0  0  0  0  0  0  0  0  0
  -22.2050   -9.0290   20.4030 C   0  0  0  0  0  3  0  0  0  0  0  0
  -22.9380  -10.2150   20.2290 C   0  0  0  0  0  3  0  0  0  0  0  0
  -21.8450   -6.9310   21.4340 O   0  0  0  0  0  0  0  0  0  0  0  0
  -21.7430   -6.2150   22.6000 C   0  0  0  0  0  0  0  0  0  0  0  0
  -21.2240   -6.7850   23.7830 C   0  0  0  0  0  3  0  0  0  0  0  0
  -21.0710   -5.9940   24.9380 C   0  0  0  0  0  3  0  0  0  0  0  0
  -21.4300   -4.6330   24.9120 C   0  0  0  0  0  0  0  0  0  0  0  0
  -21.9420   -4.0610   23.7350 C   0  0  0  0  0  3  0  0  0  0  0  0
  -22.0970   -4.8510   22.5810 C   0  0  0  0  0  0  0  0  0  0  0  0
  -22.5710   -4.2890   21.4420 F   0  0  0  0  0  0  0  0  0  0  0  0
  -21.2760   -3.8710   26.0210 F   0  0  0  0  0  0  0  0  0  0  0  0
  -22.9810  -13.5690   21.1890 C   0  0  0  0  0  0  0  0  0  0  0  0
  -22.2590  -12.8640   22.0550 N   0  0  0  0  0  0  0  0  0  0  0  0
  -22.5430  -14.6090   20.6970 O   0  0  0  0  0  0  0  0  0  0  0  0
  -22.6250  -12.0230   22.4780 H   0  0  0  0  0  0  0  0  0  0  0  0
  -21.3300  -13.1740   22.3020 H   0  0  0  0  0  0  0  0  0  0  0  0
  -25.6120  -15.2270   20.3490 N   0  0  0  0  0  0  0  0  0  0  0  0
  -24.8540  -15.8890   20.4770 H   0  0  0  0  0  0  0  0  0  0  0  0
  -26.4680  -15.6620   20.0270 H   0  0  0  0  0  0  0  0  0  0  0  0
  -30.5490  -21.7690   22.0380 C   0  0  0  0  0  2  0  0  0  0  0  0
  -28.9730  -23.1010   20.4610 C   0  0  0  0  0  2  0  0  0  0  0  0
  -29.8940  -24.1850   22.5300 C   0  0  0  0  0  2  0  0  0  0  0  0
  -28.7610  -24.4810   19.8100 C   0  0  0  0  0  2  0  0  0  0  0  0
  -29.6990  -25.5740   21.9080 C   0  0  0  0  0  2  0  0  0  0  0  0
  -30.1710  -23.1410   21.4330 C   0  0  0  0  0  3  0  0  0  0  0  0
  -28.5600  -25.5790   20.8730 C   0  0  0  0  0  3  0  0  0  0  0  0
  -28.5790  -26.8630   20.2570 O   0  0  0  0  0  0  0  0  0  0  0  0
  -24.6150  -31.9380   23.2490 C   0  0  0  0  0  0  0  0  0  0  0  0
  -27.3850  -27.5350   20.2590 C   0  0  0  0  0  0  0  0  0  0  0  0
  -23.4570  -30.4930   21.6080 C   0  0  0  0  0  3  0  0  0  0  0  0
  -24.9580  -28.9640   20.2260 C   0  0  0  0  0  0  0  0  0  0  0  0
  -25.9750  -30.9060   21.4360 C   0  0  0  0  0  2  0  0  0  0  0  0
  -26.0940  -29.5300   20.8170 C   0  0  0  0  0  0  0  0  0  0  0  0
  -27.3140  -28.8230   20.8280 C   0  0  0  0  0  3  0  0  0  0  0  0
  -26.2330  -26.9680   19.6760 C   0  0  0  0  0  3  0  0  0  0  0  0
  -25.0200  -27.6810   19.6540 C   0  0  0  0  0  3  0  0  0  0  0  0
  -23.6980  -29.7990   20.2410 C   0  0  0  0  0  2  0  0  0  0  0  0
  -24.7000  -31.1280   22.1570 N   0  0  0  0  0  0  0  0  0  0  0  0
  -23.5220  -32.1950   23.7730 O   0  0  0  0  0  0  0  0  0  0  0  0
  -22.8130  -29.4720   22.5730 C   0  0  0  0  0  0  0  0  0  0  0  0
  -21.4920  -29.2760   22.4410 N   0  0  0  0  0  0  0  0  0  0  0  0
  -23.5000  -28.8570   23.3940 O   0  0  0  0  0  0  0  0  0  0  0  0
  -21.0000  -29.8240   21.7490 H   0  0  0  0  0  0  0  0  0  0  0  0
  -18.1240  -28.0700   22.9390 C   0  0  0  0  0  0  0  0  0  0  0  0
  -20.6800  -28.3360   23.2120 C   0  0  0  0  0  3  0  0  0  0  0  0
  -20.7880  -26.9050   22.6370 C   0  0  0  0  0  2  0  0  0  0  0  0
  -19.6870  -26.5780   21.6230 C   0  0  0  0  0  2  0  0  0  0  0  0
  -18.3050  -26.7190   22.2680 C   0  0  0  0  0  2  0  0  0  0  0  0
  -19.2400  -28.8360   23.3690 C   0  0  0  0  0  0  0  0  0  0  0  0
  -19.0170  -30.0990   23.9570 C   0  0  0  0  0  3  0  0  0  0  0  0
  -17.7110  -30.5990   24.1200 C   0  0  0  0  0  3  0  0  0  0  0  0
  -16.6100  -29.8310   23.7070 C   0  0  0  0  0  3  0  0  0  0  0  0
  -16.8160  -28.5680   23.1220 C   0  0  0  0  0  3  0  0  0  0  0  0
  -25.8830  -32.5980   23.8780 C   0  0  0  0  0  3  0  0  0  0  0  0
  -25.5390  -33.9880   24.2070 N   0  0  0  0  0  0  0  0  0  0  0  0
  -25.8570  -35.0490   23.4530 C   0  0  0  0  0  0  0  0  0  0  0  0
  -26.5420  -34.9620   22.4300 O   0  0  0  0  0  0  0  0  0  0  0  0
  -24.9320  -34.1270   25.0010 H   0  0  0  0  0  0  0  0  0  0  0  0
  -24.0980  -36.8050   23.0620 C   0  0  0  0  0  1  0  0  0  0  0  0
  -25.3260  -36.4230   23.9040 C   0  0  0  0  0  3  0  0  0  0  0  0
  -27.4260  -37.3410   24.7880 C   0  0  0  0  0  1  0  0  0  0  0  0
  -26.3340  -37.5020   23.8320 N   0  0  0  0  0  0  0  0  0  0  0  0
  -25.9010  -38.4060   23.9990 H   0  0  0  0  0  0  0  0  0  0  0  0
  -26.4140  -31.8360   25.1540 C   0  0  1  0  0  0  0  0  0  0  0  0
  -25.3200  -31.5590   26.2110 C   0  0  0  0  0  1  0  0  0  0  0  0
  -27.0440  -30.4810   24.7570 C   0  0  0  0  0  1  0  0  0  0  0  0
  -27.5310  -32.6640   25.8320 C   0  0  0  0  0  1  0  0  0  0  0  0
  -31.7220  -21.1990   19.7980 C   0  0  0  0  0  2  0  0  0  0  0  0
  -33.0110  -21.7940   20.1470 N   0  0  0  0  0  0  0  0  0  0  0  0
  -32.8300  -22.5160   20.8340 H   0  0  0  0  0  0  0  0  0  0  0  0
  -34.8290  -23.2660   19.4560 C   0  0  0  0  0  2  0  0  0  0  0  0
  -36.0970  -22.4230   19.2420 C   0  0  0  0  0  2  0  0  0  0  0  0
  -34.3350  -21.3330   18.0970 C   0  0  0  0  0  2  0  0  0  0  0  0
  -33.6590  -22.3920   18.9810 C   0  0  0  0  0  3  0  0  0  0  0  0
  -35.6430  -21.1210   18.7280 N   0  0  0  0  0  4  0  0  0  0  0  0
  -35.4910  -20.5130   19.5160 H   0  0  0  0  0  0  0  0  0  0  0  0
  -36.3100  -20.6980   18.1030 H   0  0  0  0  0  0  0  0  0  0  0  0
  1 94  1  0
  1 46  1  0
  2  6  1  0
  4  2  1  0
  4  7  1  0
  5  3  1  0
  6  1  1  0
  6  3  1  0
  7 16  1  0
  7  5  1  0
  8 16  1  0
  9 14  1  0
 10 11  1  0
 10  9  1  0
 12 11  1  0
 12 21  1  0
 12 13  1  0
 14  8  1  0
 14 13  1  0
 15  8  2  0
 16 17  1  0
 18 19  2  0
 19 38  1  0
 20 19  1  0
 20 23  1  0
 21 22  1  0
 21 18  1  0
 22 20  2  0
 23 24  1  0
 24 25  2  0
 26 29  1  0
 26 25  1  0
 27 26  2  0
 28 27  1  0
 28 23  2  0
 29 30  1  0
 30 31  1  0
 31 32  2  0
 33 32  1  0
 33 37  1  0
 34 33  2  0
 35 30  2  0
 35 34  1  0
 36 35  1  0
 38 39  1  0
 39 42  1  0
 39 41  1  0
 40 38  2  0
 43 44  1  0
 43 18  1  0
 45 43  1  0
 47 51  1  0
 49 47  1  0
 49 52  1  0
 50 48  1  0
 51 46  1  0
 51 48  1  0
 52 53  1  0
 52 50  1  0
 53 55  1  0
 54 65  2  0
 55 60  1  0
 56 64  1  0
 56 66  1  0
 57 63  1  0
 57 59  1  0
 58 64  1  0
 59 60  2  0
 59 58  1  0
 61 55  2  0
 62 61  1  0
 62 57  2  0
 63 56  1  0
 64 54  1  0
 66 68  2  0
 67 66  1  0
 69 67  1  0
 70 79  2  0
 70 75  1  0
 71 67  1  0
 71 75  1  0
 72 71  1  0
 73 74  1  0
 73 72  1  0
 74 70  1  0
 75 76  2  0
 76 77  1  0
 78 77  2  0
 79 78  1  0
 80 54  1  0
 80 81  1  0
 80 90  1  0
 81 84  1  0
 82 86  1  0
 82 81  1  0
 83 82  2  0
 86 85  1  0
 88 86  1  0
 88 89  1  0
 88 87  1  0
 90 93  1  1
 90 91  1  0
 92 90  1  0
 94 95  1  0
 95 96  1  0
 98 97  1  0
 99101  1  0
 99100  1  0
100 97  1  0
100 95  1  0
101 98  1  0
101102  1  0
103101  1  0
M  ISO  4   8 100  16 100  52 101  53 101
M  END
>  <TORSDO>  (43) 
F 22

>  <SCORE>  (43) 
-13.270

>  <name>  (43) 
43

>  <ligand_id>  (43) 
43

>  <original_smiles>  (43) 
[H]c1c([H])c([H])c2c(c1[H])C([H])([H])C([H])([H])C([H])([H])C2([H])N([H])C(=O)C1([H])N(C(=O)C([H])(N([H])C(=O)C([H])(N([H])C([H])([H])[H])C([H])([H])[H])C(C([H])([H])[H])(C([H])([H])[H])C([H])([H])[H])C([H])([H])c2c([H])c(OC3([H])C([H])([H])C([H])([H])C([H])(C([H])([H])C([H])(C([H])([H])N([H])C4([H])C([H])([H])C([H])([H])[N+]([H])([H])C4([H])[H])C4([H])C([H])([H])C([H])([H])C([H])(N([H])C(=O)N5C([H])([H])C([H])([H])C([H])([H])C([H])(n6nc(-c7c([H])c([H])c(Oc8c([H])c([H])c(F)c([H])c8F)c([H])c7[H])c(C(=O)N([H])[H])c6N([H])[H])C5([H])[H])C([H])([H])C4([H])[H])C([H])([H])C3([H])[H])c([H])c([H])c2C1([H])[H]

>  <smiles>  (43) 
[H]c1c([H])c([H])c2c(c1[H])C([H])([H])C([H])([H])C([H])([H])C2([H])N([H])C(=O)C1([H])N(C(=O)C([H])(N([H])C(=O)C([H])(N([H])C([H])([H])[H])C([H])([H])[H])C(C([H])([H])[H])(C([H])([H])[H])C([H])([H])[H])C([H])([H])c2c([H])c(OC3([H])C([H])([H])C([H])([H])C([H])(C([H])([H])C([H])(C([H])([H])N([H])C4([H])C([H])([H])C([H])([H])[N+]([H])([H])C4([H])[H])C4([H])C([H])([H])C([H])([H])C([H])(N([H])C(=O)N5C([H])([H])C([H])([H])C([H])([H])C([H])(n6nc(-c7c([H])c([H])c(Oc8c([H])c([H])c(F)c([H])c8F)c([H])c7[H])c(C(=O)N([H])[H])c6N([H])[H])C5([H])[H])C([H])([H])C4([H])[H])C([H])([H])C3([H])[H])c([H])c([H])c2C1([H])[H]

$$$$
44:0:0
     RDKit          3D

 94103  0  0  1  0  0  0  0  0999 V2000
  -28.6180  -24.3240   21.4430 C   0  0  0  0  0  2  0  0  0  0  0  0
  -29.0480  -24.4290   18.9990 C   0  0  0  0  0  2  0  0  0  0  0  0
  -29.4670  -22.9960   21.2990 C   0  0  0  0  0  2  0  0  0  0  0  0
  -28.8280  -22.8750   18.9110 C   0  0  0  0  0  2  0  0  0  0  0  0
  -28.2440  -25.0880   20.1400 C   0  0  0  0  0  3  0  0  0  0  0  0
  -29.1720  -22.0750   20.1430 N   0  0  1  0  0  4  0  0  0  0  0  0
  -28.3360  -21.5670   20.3930 H   0  0  0  0  0  0  0  0  0  0  0  0
  -28.3670  -26.5720   20.2160 O   0  0  0  0  0  0  0  0  0  0  0  0
  -24.5860  -31.9430   23.2370 C   0  0  0  0  0  0  0  0  0  0  0  0
  -27.2290  -27.3980   20.1730 C   0  0  0  0  0  0  0  0  0  0  0  0
  -23.3970  -30.5370   21.5950 C   0  0  0  0  0  3  0  0  0  0  0  0
  -24.8560  -28.9970   20.1750 C   0  0  0  0  0  0  0  0  0  0  0  0
  -25.9370  -30.8680   21.4240 C   0  0  0  0  0  2  0  0  0  0  0  0
  -26.0220  -29.4920   20.7730 C   0  0  0  0  0  0  0  0  0  0  0  0
  -27.2110  -28.7020   20.7610 C   0  0  0  0  0  3  0  0  0  0  0  0
  -26.0410  -26.9720   19.5350 C   0  0  0  0  0  3  0  0  0  0  0  0
  -24.8660  -27.7410   19.5560 C   0  0  0  0  0  3  0  0  0  0  0  0
  -23.6150  -29.8630   20.2160 C   0  0  0  0  0  2  0  0  0  0  0  0
  -24.6580  -31.1350   22.1400 N   0  0  0  0  0  0  0  0  0  0  0  0
  -23.4990  -32.2130   23.7680 O   0  0  0  0  0  0  0  0  0  0  0  0
  -22.7370  -29.5170   22.5530 C   0  0  0  0  0  0  0  0  0  0  0  0
  -21.4100  -29.3400   22.4300 N   0  0  0  0  0  0  0  0  0  0  0  0
  -23.4200  -28.8860   23.3640 O   0  0  0  0  0  0  0  0  0  0  0  0
  -20.9210  -29.8980   21.7440 H   0  0  0  0  0  0  0  0  0  0  0  0
  -18.0320  -28.1530   22.9490 C   0  0  0  0  0  0  0  0  0  0  0  0
  -20.5940  -28.4000   23.2010 C   0  0  0  0  0  3  0  0  0  0  0  0
  -20.6850  -26.9720   22.6160 C   0  0  0  0  0  2  0  0  0  0  0  0
  -19.5740  -26.6600   21.6090 C   0  0  0  0  0  2  0  0  0  0  0  0
  -18.1960  -26.8080   22.2620 C   0  0  0  0  0  2  0  0  0  0  0  0
  -19.1570  -28.9090   23.3740 C   0  0  0  0  0  0  0  0  0  0  0  0
  -18.9480  -30.1700   23.9750 C   0  0  0  0  0  3  0  0  0  0  0  0
  -17.6450  -30.6730   24.1560 C   0  0  0  0  0  3  0  0  0  0  0  0
  -16.5370  -29.9150   23.7450 C   0  0  0  0  0  3  0  0  0  0  0  0
  -16.7300  -28.6580   23.1460 C   0  0  0  0  0  3  0  0  0  0  0  0
  -25.8640  -32.5830   23.8630 C   0  0  0  0  0  3  0  0  0  0  0  0
  -25.5480  -33.9820   24.1860 N   0  0  0  0  0  0  0  0  0  0  0  0
  -25.8850  -35.0320   23.4290 C   0  0  0  0  0  0  0  0  0  0  0  0
  -26.5660  -34.9270   22.4040 O   0  0  0  0  0  0  0  0  0  0  0  0
  -24.9510  -34.1380   24.9860 H   0  0  0  0  0  0  0  0  0  0  0  0
  -24.1680  -36.8270   23.0370 C   0  0  0  0  0  1  0  0  0  0  0  0
  -25.3920  -36.4220   23.8760 C   0  0  0  0  0  3  0  0  0  0  0  0
  -27.5100  -37.3030   24.7530 C   0  0  0  0  0  1  0  0  0  0  0  0
  -26.4290  -37.4730   23.7840 N   0  0  0  0  0  0  0  0  0  0  0  0
  -26.0220  -38.3940   23.9210 H   0  0  0  0  0  0  0  0  0  0  0  0
  -26.3760  -31.8200   25.1480 C   0  0  1  0  0  0  0  0  0  0  0  0
  -25.2780  -31.5820   26.2110 C   0  0  0  0  0  1  0  0  0  0  0  0
  -26.9690  -30.4430   24.7700 C   0  0  0  0  0  1  0  0  0  0  0  0
  -27.5180  -32.6240   25.8130 C   0  0  0  0  0  1  0  0  0  0  0  0
  -30.2430  -20.9880   19.9970 C   0  0  0  0  0  2  0  0  0  0  0  0
  -30.7580  -14.8130   20.6290 C   0  0  0  0  0  0  0  0  0  0  0  0
  -30.5940  -12.5200   19.7090 C   0  0  0  0  0  2  0  0  0  0  0  0
  -29.7330  -12.6120   18.4320 C   0  0  0  0  0  2  0  0  0  0  0  0
  -28.2340  -12.4670   18.7720 C   0  0  0  0  0  2  0  0  0  0  0  0
  -27.7980  -13.3490   19.9740 C   0  0  0  0  0  3  0  0  0  0  0  0
  -28.8030  -13.2690   21.1470 C   0  0  0  0  0  2  0  0  0  0  0  0
  -30.1340  -13.5900   20.6200 N   0  0  0  0  0  0  0  0  0  0  0  0
  -31.9580  -14.9010   20.3480 O   0  0  0  0  0  0  0  0  0  0  0  0
  -29.8750  -17.9170   17.6090 C   0  0  0  0  0  3  0  0  0  0  0  0
  -29.8920  -16.8700   18.5340 C   0  0  0  0  0  3  0  0  0  0  0  0
  -29.9690  -19.2490   18.0450 C   0  0  0  0  0  0  0  0  0  0  0  0
  -29.9690  -19.5250   19.4440 C   0  0  0  0  0  0  0  0  0  0  0  0
  -29.9850  -17.1320   19.9120 C   0  0  0  0  0  0  0  0  0  0  0  0
  -30.1520  -20.2890   16.9460 C   0  0  0  0  0  1  0  0  0  0  0  0
  -29.9680  -18.4560   20.3340 N   0  0  0  0  0  0  0  0  0  0  0  0
  -29.9850  -15.9460   20.7730 N   0  0  0  0  0  0  0  0  0  0  0  0
  -29.1150  -15.7960   21.2570 H   0  0  0  0  0  0  0  0  0  0  0  0
  -25.3680  -13.9230   20.5680 C   0  0  0  0  0  0  0  0  0  0  0  0
  -24.2950  -13.1420   20.9030 C   0  0  0  0  0  0  0  0  0  0  0  0
  -24.7740  -11.7960   20.9210 C   0  0  0  0  0  0  0  0  0  0  0  0
  -26.4330  -13.0530   20.4020 N   0  0  0  0  0  0  0  0  0  0  0  0
  -26.0800  -11.7700   20.6750 N   0  0  0  0  0  0  0  0  0  0  0  0
  -24.0510  -10.5290   21.1040 C   0  0  0  0  0  0  0  0  0  0  0  0
  -24.4540   -9.5780   22.0650 C   0  0  0  0  0  3  0  0  0  0  0  0
  -23.7300   -8.3780   22.2350 C   0  0  0  0  0  3  0  0  0  0  0  0
  -22.5870   -8.1190   21.4420 C   0  0  0  0  0  0  0  0  0  0  0  0
  -22.2020   -9.0590   20.4710 C   0  0  0  0  0  3  0  0  0  0  0  0
  -22.9270  -10.2500   20.3010 C   0  0  0  0  0  3  0  0  0  0  0  0
  -21.8390   -6.9680   21.5190 O   0  0  0  0  0  0  0  0  0  0  0  0
  -21.7610   -6.2360   22.6750 C   0  0  0  0  0  0  0  0  0  0  0  0
  -21.2890   -6.7980   23.8820 C   0  0  0  0  0  3  0  0  0  0  0  0
  -21.1590   -5.9930   25.0310 C   0  0  0  0  0  3  0  0  0  0  0  0
  -21.4900   -4.6250   24.9740 C   0  0  0  0  0  0  0  0  0  0  0  0
  -21.9530   -4.0620   23.7710 C   0  0  0  0  0  3  0  0  0  0  0  0
  -22.0860   -4.8650   22.6250 C   0  0  0  0  0  0  0  0  0  0  0  0
  -22.5130   -4.3140   21.4630 F   0  0  0  0  0  0  0  0  0  0  0  0
  -21.3560   -3.8470   26.0740 F   0  0  0  0  0  0  0  0  0  0  0  0
  -22.8800  -13.6050   21.0910 C   0  0  0  0  0  0  0  0  0  0  0  0
  -22.1180  -12.9230   21.9380 N   0  0  0  0  0  0  0  0  0  0  0  0
  -22.4570  -14.6120   20.5250 O   0  0  0  0  0  0  0  0  0  0  0  0
  -22.4690  -12.1050   22.4140 H   0  0  0  0  0  0  0  0  0  0  0  0
  -21.1670  -13.2210   22.1090 H   0  0  0  0  0  0  0  0  0  0  0  0
  -25.5200  -15.2910   20.3700 N   0  0  0  0  0  0  0  0  0  0  0  0
  -24.7300  -15.9270   20.4090 H   0  0  0  0  0  0  0  0  0  0  0  0
  -26.3670  -15.7370   20.0410 H   0  0  0  0  0  0  0  0  0  0  0  0
  2  5  1  0
  3  1  1  0
  4  2  1  0
  4  6  1  0
  5  8  1  0
  5  1  1  0
  6  7  1  1
  6  3  1  0
  9 20  2  0
 10  8  1  0
 10 15  1  0
 11 19  1  0
 11 21  1  0
 12 18  1  0
 12 14  1  0
 13 19  1  0
 14 13  1  0
 15 14  2  0
 16 17  1  0
 16 10  2  0
 17 12  2  0
 18 11  1  0
 19  9  1  0
 21 23  2  0
 22 21  1  0
 24 22  1  0
 25 34  2  0
 25 30  1  0
 26 22  1  0
 26 30  1  0
 27 26  1  0
 28 29  1  0
 28 27  1  0
 29 25  1  0
 30 31  2  0
 31 32  1  0
 33 32  2  0
 34 33  1  0
 35  9  1  0
 35 36  1  0
 35 45  1  0
 36 39  1  0
 37 41  1  0
 37 36  1  0
 38 37  2  0
 41 40  1  0
 43 41  1  0
 43 44  1  0
 43 42  1  0
 45 48  1  1
 45 46  1  0
 47 45  1  0
 49  6  1  0
 50 65  1  0
 51 56  1  0
 52 53  1  0
 52 51  1  0
 54 53  1  0
 54 70  1  0
 54 55  1  0
 56 50  1  0
 56 55  1  0
 57 50  2  0
 58 60  2  0
 58 59  1  0
 59 62  2  0
 60 61  1  0
 61 49  1  0
 61 64  2  0
 62 64  1  0
 62 65  1  0
 63 60  1  0
 65 66  1  0
 67 68  2  0
 68 69  1  0
 68 87  1  0
 69 72  1  0
 70 67  1  0
 70 71  1  0
 71 69  2  0
 72 73  1  0
 73 74  2  0
 75 78  1  0
 75 74  1  0
 76 75  2  0
 77 76  1  0
 77 72  2  0
 78 79  1  0
 79 80  1  0
 80 81  2  0
 82 81  1  0
 82 86  1  0
 83 82  2  0
 84 79  2  0
 84 83  1  0
 85 84  1  0
 87 88  1  0
 88 91  1  0
 88 90  1  0
 89 87  2  0
 92 93  1  0
 92 67  1  0
 94 92  1  0
M  ISO  4   5 101   8 101  50 100  65 100
M  END
>  <TORSDO>  (44) 
F 17

>  <SCORE>  (44) 
-14.769

>  <name>  (44) 
44

>  <ligand_id>  (44) 
44

>  <original_smiles>  (44) 
[H]c1c(N([H])C(=O)N2C([H])([H])C([H])([H])C([H])([H])C([H])(n3nc(-c4c([H])c([H])c(Oc5c([H])c([H])c(F)c([H])c5F)c([H])c4[H])c(C(=O)N([H])[H])c3N([H])[H])C2([H])[H])nc(C([H])([H])[N+]2([H])C([H])([H])C([H])([H])C([H])(Oc3c([H])c([H])c4c(c3[H])C([H])([H])N(C(=O)C([H])(N([H])C(=O)C([H])(N([H])C([H])([H])[H])C([H])([H])[H])C(C([H])([H])[H])(C([H])([H])[H])C([H])([H])[H])C([H])(C(=O)N([H])C3([H])c5c([H])c([H])c([H])c([H])c5C([H])([H])C([H])([H])C3([H])[H])C4([H])[H])C([H])([H])C2([H])[H])c(C([H])([H])[H])c1[H]

>  <smiles>  (44) 
[H]c1c(N([H])C(=O)N2C([H])([H])C([H])([H])C([H])([H])C([H])(n3nc(-c4c([H])c([H])c(Oc5c([H])c([H])c(F)c([H])c5F)c([H])c4[H])c(C(=O)N([H])[H])c3N([H])[H])C2([H])[H])nc(C([H])([H])[N+]2([H])C([H])([H])C([H])([H])C([H])(Oc3c([H])c([H])c4c(c3[H])C([H])([H])N(C(=O)C([H])(N([H])C(=O)C([H])(N([H])C([H])([H])[H])C([H])([H])[H])C(C([H])([H])[H])(C([H])([H])[H])C([H])([H])[H])C([H])(C(=O)N([H])C3([H])c5c([H])c([H])c([H])c([H])c5C([H])([H])C([H])([H])C3([H])[H])C4([H])[H])C([H])([H])C2([H])[H])c(C([H])([H])[H])c1[H]

$$$$
45:0:0
     RDKit          3D

 95103  0  0  1  0  0  0  0  0999 V2000
  -28.0230  -22.3100   20.8810 C   0  0  0  0  0  2  0  0  0  0  0  0
  -30.6670  -20.7820   19.9520 C   0  0  0  0  0  2  0  0  0  0  0  0
  -28.8510  -23.6520   20.5800 C   0  0  0  0  0  3  0  0  0  0  0  0
  -29.4300  -20.1290   20.6250 C   0  0  0  0  0  3  0  0  0  0  0  0
  -30.1280  -23.2950   19.7540 C   0  0  0  0  0  3  0  0  0  0  0  0
  -28.2920  -20.9970   20.1960 N   0  0  0  0  0  0  0  0  0  0  0  0
  -30.9260  -22.1910   20.3870 N   0  0  0  0  0  4  0  0  0  0  0  0
  -27.4430  -20.4430   20.2890 H   0  0  0  0  0  0  0  0  0  0  0  0
  -31.8810  -22.3770   20.1270 H   0  0  0  0  0  0  0  0  0  0  0  0
  -30.8750  -22.2500   21.3900 H   0  0  0  0  0  0  0  0  0  0  0  0
  -31.5440  -25.2380   20.7630 C   0  0  0  0  0  1  0  0  0  0  0  0
  -32.2400  -24.1640   18.5800 C   0  0  0  0  0  1  0  0  0  0  0  0
  -31.0500  -24.5200   19.4900 C   0  0  0  0  0  3  0  0  0  0  0  0
  -27.9500  -24.9080   20.0570 C   0  0  0  0  0  2  0  0  0  0  0  0
  -28.2420  -26.3780   20.2480 O   0  0  0  0  0  0  0  0  0  0  0  0
  -24.5950  -31.8990   23.2470 C   0  0  0  0  0  0  0  0  0  0  0  0
  -27.1610  -27.2940   20.1700 C   0  0  0  0  0  0  0  0  0  0  0  0
  -23.3770  -30.5100   21.6110 C   0  0  0  0  0  3  0  0  0  0  0  0
  -24.8130  -28.9580   20.1660 C   0  0  0  0  0  0  0  0  0  0  0  0
  -25.9210  -30.8050   21.4190 C   0  0  0  0  0  2  0  0  0  0  0  0
  -25.9900  -29.4250   20.7650 C   0  0  0  0  0  0  0  0  0  0  0  0
  -27.1650  -28.6050   20.7580 C   0  0  0  0  0  3  0  0  0  0  0  0
  -25.9620  -26.9090   19.5220 C   0  0  0  0  0  3  0  0  0  0  0  0
  -24.8040  -27.7080   19.5330 C   0  0  0  0  0  3  0  0  0  0  0  0
  -23.5800  -29.8390   20.2280 C   0  0  0  0  0  2  0  0  0  0  0  0
  -24.6510  -31.0900   22.1470 N   0  0  0  0  0  0  0  0  0  0  0  0
  -23.5150  -32.1810   23.7860 O   0  0  0  0  0  0  0  0  0  0  0  0
  -22.7140  -29.4930   22.5740 C   0  0  0  0  0  0  0  0  0  0  0  0
  -21.3870  -29.3140   22.4490 N   0  0  0  0  0  0  0  0  0  0  0  0
  -23.3940  -28.8700   23.3940 O   0  0  0  0  0  0  0  0  0  0  0  0
  -20.8990  -29.8690   21.7610 H   0  0  0  0  0  0  0  0  0  0  0  0
  -18.0130  -28.1020   22.9450 C   0  0  0  0  0  0  0  0  0  0  0  0
  -20.5690  -28.3760   23.2210 C   0  0  0  0  0  3  0  0  0  0  0  0
  -20.6800  -26.9430   22.6530 C   0  0  0  0  0  2  0  0  0  0  0  0
  -19.5830  -26.6090   21.6370 C   0  0  0  0  0  2  0  0  0  0  0  0
  -18.1980  -26.7500   22.2750 C   0  0  0  0  0  2  0  0  0  0  0  0
  -19.1270  -28.8720   23.3740 C   0  0  0  0  0  0  0  0  0  0  0  0
  -18.8990  -30.1370   23.9600 C   0  0  0  0  0  3  0  0  0  0  0  0
  -17.5910  -30.6310   24.1200 C   0  0  0  0  0  3  0  0  0  0  0  0
  -16.4920  -29.8580   23.7060 C   0  0  0  0  0  3  0  0  0  0  0  0
  -16.7040  -28.5950   23.1250 C   0  0  0  0  0  3  0  0  0  0  0  0
  -25.8830  -32.5260   23.8620 C   0  0  0  0  0  3  0  0  0  0  0  0
  -26.3980  -31.7530   25.1390 C   0  0  1  0  0  0  0  0  0  0  0  0
  -25.3080  -31.5280   26.2120 C   0  0  0  0  0  1  0  0  0  0  0  0
  -26.9690  -30.3700   24.7500 C   0  0  0  0  0  1  0  0  0  0  0  0
  -27.5560  -32.5410   25.7950 C   0  0  0  0  0  1  0  0  0  0  0  0
  -25.5800  -33.9270   24.1940 N   0  0  0  0  0  0  0  0  0  0  0  0
  -25.9080  -34.9790   23.4330 C   0  0  0  0  0  0  0  0  0  0  0  0
  -26.5670  -34.8730   22.3950 O   0  0  0  0  0  0  0  0  0  0  0  0
  -24.9940  -34.0820   25.0010 H   0  0  0  0  0  0  0  0  0  0  0  0
  -24.1820  -36.7790   23.0990 C   0  0  0  0  0  1  0  0  0  0  0  0
  -25.4310  -36.3690   23.8960 C   0  0  0  0  0  3  0  0  0  0  0  0
  -27.5790  -37.2470   24.6990 C   0  0  0  0  0  1  0  0  0  0  0  0
  -26.4650  -37.4200   23.7710 N   0  0  0  0  0  0  0  0  0  0  0  0
  -26.0640  -38.3400   23.9260 H   0  0  0  0  0  0  0  0  0  0  0  0
  -29.1990  -18.5490   20.2730 C   0  0  0  0  0  3  0  0  0  0  0  0
  -30.2140  -17.3760   20.7500 C   0  0  0  0  0  3  0  0  0  0  0  0
  -30.5790  -14.7790   20.3810 C   0  0  0  0  0  0  0  0  0  0  0  0
  -30.3900  -12.5020   19.3610 C   0  0  0  0  0  2  0  0  0  0  0  0
  -29.4440  -12.5620   18.1410 C   0  0  0  0  0  2  0  0  0  0  0  0
  -27.9780  -12.3810   18.5790 C   0  0  0  0  0  2  0  0  0  0  0  0
  -27.6020  -13.2730   19.7920 C   0  0  0  0  0  3  0  0  0  0  0  0
  -28.6650  -13.1930   20.9090 C   0  0  0  0  0  2  0  0  0  0  0  0
  -29.9550  -13.5540   20.3080 N   0  0  0  0  0  0  0  0  0  0  0  0
  -31.7650  -14.8860   20.0560 O   0  0  0  0  0  0  0  0  0  0  0  0
  -29.8080  -15.9030   20.6300 N   0  0  0  0  0  0  0  0  0  0  0  0
  -28.8370  -15.7050   20.8210 H   0  0  0  0  0  0  0  0  0  0  0  0
  -25.2170  -13.8560   20.5340 C   0  0  0  0  0  0  0  0  0  0  0  0
  -24.1560  -13.0790   20.9080 C   0  0  0  0  0  0  0  0  0  0  0  0
  -24.6240  -11.7290   20.8740 C   0  0  0  0  0  0  0  0  0  0  0  0
  -26.2630  -12.9790   20.2910 N   0  0  0  0  0  0  0  0  0  0  0  0
  -25.9130  -11.6950   20.5590 N   0  0  0  0  0  0  0  0  0  0  0  0
  -23.9040  -10.4630   21.0640 C   0  0  0  0  0  0  0  0  0  0  0  0
  -24.3510   -9.4890   21.9830 C   0  0  0  0  0  3  0  0  0  0  0  0
  -23.6290   -8.2890   22.1610 C   0  0  0  0  0  3  0  0  0  0  0  0
  -22.4460   -8.0560   21.4210 C   0  0  0  0  0  0  0  0  0  0  0  0
  -22.0170   -9.0190   20.4900 C   0  0  0  0  0  3  0  0  0  0  0  0
  -22.7400  -10.2100   20.3100 C   0  0  0  0  0  3  0  0  0  0  0  0
  -21.6930   -6.9090   21.5100 O   0  0  0  0  0  0  0  0  0  0  0  0
  -21.6670   -6.1550   22.6540 C   0  0  0  0  0  0  0  0  0  0  0  0
  -21.2650   -6.6950   23.8960 C   0  0  0  0  0  3  0  0  0  0  0  0
  -21.1850   -5.8660   25.0330 C   0  0  0  0  0  3  0  0  0  0  0  0
  -21.4960   -4.4970   24.9300 C   0  0  0  0  0  0  0  0  0  0  0  0
  -21.8910   -3.9560   23.6930 C   0  0  0  0  0  3  0  0  0  0  0  0
  -21.9730   -4.7820   22.5590 C   0  0  0  0  0  0  0  0  0  0  0  0
  -22.3330   -4.2510   21.3660 F   0  0  0  0  0  0  0  0  0  0  0  0
  -21.4120   -3.6980   26.0190 F   0  0  0  0  0  0  0  0  0  0  0  0
  -22.7580  -13.5500   21.1840 C   0  0  0  0  0  0  0  0  0  0  0  0
  -22.0350  -12.8530   22.0510 N   0  0  0  0  0  0  0  0  0  0  0  0
  -22.3150  -14.5730   20.6640 O   0  0  0  0  0  0  0  0  0  0  0  0
  -22.4070  -12.0270   22.4980 H   0  0  0  0  0  0  0  0  0  0  0  0
  -21.0960  -13.1500   22.2750 H   0  0  0  0  0  0  0  0  0  0  0  0
  -25.3750  -15.2270   20.3550 N   0  0  0  0  0  0  0  0  0  0  0  0
  -24.6050  -15.8780   20.4640 H   0  0  0  0  0  0  0  0  0  0  0  0
  -26.2100  -15.6640   19.9830 H   0  0  0  0  0  0  0  0  0  0  0  0
  2  7  1  0
  2  4  1  0
  3 14  1  0
  3  1  1  0
  4 56  1  0
  5 13  1  0
  5  7  1  0
  5  3  1  0
  6  8  1  0
  6  4  1  0
  6  1  1  0
  7 10  1  0
  9  7  1  0
 12 13  1  0
 13 11  1  0
 14 15  1  0
 16 27  2  0
 17 15  1  0
 17 22  1  0
 18 26  1  0
 18 28  1  0
 19 25  1  0
 19 21  1  0
 20 26  1  0
 21 20  1  0
 22 21  2  0
 23 24  1  0
 23 17  2  0
 24 19  2  0
 25 18  1  0
 26 16  1  0
 28 30  2  0
 29 28  1  0
 31 29  1  0
 32 41  2  0
 32 37  1  0
 33 29  1  0
 33 37  1  0
 34 33  1  0
 35 36  1  0
 35 34  1  0
 36 32  1  0
 37 38  2  0
 38 39  1  0
 40 39  2  0
 41 40  1  0
 42 16  1  0
 42 47  1  0
 42 43  1  0
 43 46  1  1
 43 44  1  0
 45 43  1  0
 47 50  1  0
 48 52  1  0
 48 47  1  0
 49 48  2  0
 52 51  1  0
 54 52  1  0
 54 55  1  0
 54 53  1  0
 56 57  2  0
 58 66  1  0
 59 64  1  0
 60 61  1  0
 60 59  1  0
 62 61  1  0
 62 71  1  0
 62 63  1  0
 64 58  1  0
 64 63  1  0
 65 58  2  0
 66 57  1  0
 66 67  1  0
 68 69  2  0
 69 88  1  0
 70 69  1  0
 70 73  1  0
 71 68  1  0
 71 72  1  0
 72 70  2  0
 73 74  1  0
 74 75  2  0
 76 79  1  0
 76 75  1  0
 77 76  2  0
 78 77  1  0
 78 73  2  0
 79 80  1  0
 80 81  1  0
 81 82  2  0
 83 82  1  0
 83 87  1  0
 84 83  2  0
 85 80  2  0
 85 84  1  0
 86 85  1  0
 88 89  1  0
 89 92  1  0
 89 91  1  0
 90 88  2  0
 93 94  1  0
 93 68  1  0
 95 93  1  0
M  ISO  4  14 101  15 101  58 100  66 100
M  END
>  <TORSDO>  (45) 
F 20

>  <SCORE>  (45) 
-13.971

>  <name>  (45) 
45

>  <ligand_id>  (45) 
45

>  <original_smiles>  (45) 
[H]c1c([H])c([H])c2c(c1[H])C([H])([H])C([H])([H])C([H])([H])C2([H])N([H])C(=O)C1([H])N(C(=O)C([H])(N([H])C(=O)C([H])(N([H])C([H])([H])[H])C([H])([H])[H])C(C([H])([H])[H])(C([H])([H])[H])C([H])([H])[H])C([H])([H])c2c([H])c(OC([H])([H])C3([H])C([H])([H])N([H])C([H])(C([H])([H])C([H])([H])N([H])C(=O)N4C([H])([H])C([H])([H])C([H])([H])C([H])(n5nc(-c6c([H])c([H])c(Oc7c([H])c([H])c(F)c([H])c7F)c([H])c6[H])c(C(=O)N([H])[H])c5N([H])[H])C4([H])[H])C([H])([H])[N+]([H])([H])C3([H])C([H])(C([H])([H])[H])C([H])([H])[H])c([H])c([H])c2C1([H])[H]

>  <smiles>  (45) 
[H]c1c([H])c([H])c2c(c1[H])C([H])([H])C([H])([H])C([H])([H])C2([H])N([H])C(=O)C1([H])N(C(=O)C([H])(N([H])C(=O)C([H])(N([H])C([H])([H])[H])C([H])([H])[H])C(C([H])([H])[H])(C([H])([H])[H])C([H])([H])[H])C([H])([H])c2c([H])c(OC([H])([H])C3([H])C([H])([H])N([H])C([H])(C([H])([H])C([H])([H])N([H])C(=O)N4C([H])([H])C([H])([H])C([H])([H])C([H])(n5nc(-c6c([H])c([H])c(Oc7c([H])c([H])c(F)c([H])c7F)c([H])c6[H])c(C(=O)N([H])[H])c5N([H])[H])C4([H])[H])C([H])([H])[N+]([H])([H])C3([H])C([H])(C([H])([H])[H])C([H])([H])[H])c([H])c([H])c2C1([H])[H]

$$$$
46:0:0
     RDKit          3D

 87 95  0  0  1  0  0  0  0  0999 V2000
  -28.3430  -20.3520   20.7730 C   0  0  0  0  0  3  0  0  0  0  0  0
  -30.2020  -20.9310   19.5460 C   0  0  0  0  0  3  0  0  0  0  0  0
  -27.9200  -21.7790   20.7390 C   0  0  0  0  0  3  0  0  0  0  0  0
  -29.7780  -22.3530   19.5100 C   0  0  0  0  0  3  0  0  0  0  0  0
  -29.5340  -19.7860   20.1610 C   0  0  0  0  0  0  0  0  0  0  0  0
  -28.5900  -22.9230   20.1160 C   0  0  0  0  0  0  0  0  0  0  0  0
  -30.2450  -18.2000   20.1870 C   0  0  0  0  0  2  0  0  0  0  0  0
  -30.5290  -15.3550   20.1680 C   0  0  0  0  0  0  0  0  0  0  0  0
  -30.4510  -12.9400   19.2640 C   0  0  0  0  0  2  0  0  0  0  0  0
  -29.5010  -12.7760   18.0520 C   0  0  0  0  0  2  0  0  0  0  0  0
  -28.0610  -12.5130   18.5250 C   0  0  0  0  0  2  0  0  0  0  0  0
  -27.6440  -13.4600   19.6780 C   0  0  0  0  0  3  0  0  0  0  0  0
  -28.7200  -13.5800   20.7780 C   0  0  0  0  0  2  0  0  0  0  0  0
  -29.9420  -14.0670   20.1200 N   0  0  0  0  0  0  0  0  0  0  0  0
  -31.7390  -15.3570   19.9040 O   0  0  0  0  0  0  0  0  0  0  0  0
  -29.7970  -16.6240   20.3000 N   0  0  0  0  0  0  0  0  0  0  0  0
  -28.8100  -16.4950   20.4660 H   0  0  0  0  0  0  0  0  0  0  0  0
  -25.2930  -14.0040   20.5030 C   0  0  0  0  0  0  0  0  0  0  0  0
  -24.2410  -13.2200   20.8860 C   0  0  0  0  0  0  0  0  0  0  0  0
  -24.7090  -11.8700   20.8170 C   0  0  0  0  0  0  0  0  0  0  0  0
  -26.3300  -13.1360   20.2160 N   0  0  0  0  0  0  0  0  0  0  0  0
  -25.9930  -11.8450   20.4720 N   0  0  0  0  0  0  0  0  0  0  0  0
  -23.9870  -10.6030   21.0000 C   0  0  0  0  0  0  0  0  0  0  0  0
  -24.4180   -9.6360   21.9340 C   0  0  0  0  0  3  0  0  0  0  0  0
  -23.6950   -8.4360   22.1060 C   0  0  0  0  0  3  0  0  0  0  0  0
  -22.5270   -8.1960   21.3440 C   0  0  0  0  0  0  0  0  0  0  0  0
  -22.1150   -9.1520   20.3990 C   0  0  0  0  0  3  0  0  0  0  0  0
  -22.8400  -10.3430   20.2250 C   0  0  0  0  0  3  0  0  0  0  0  0
  -21.7730   -7.0490   21.4270 O   0  0  0  0  0  0  0  0  0  0  0  0
  -21.6850   -6.3290   22.5910 C   0  0  0  0  0  0  0  0  0  0  0  0
  -21.1370   -6.8810   23.7690 C   0  0  0  0  0  3  0  0  0  0  0  0
  -21.0010   -6.0840   24.9240 C   0  0  0  0  0  3  0  0  0  0  0  0
  -21.4010   -4.7350   24.9000 C   0  0  0  0  0  0  0  0  0  0  0  0
  -21.9410   -4.1810   23.7260 C   0  0  0  0  0  3  0  0  0  0  0  0
  -22.0800   -4.9760   22.5730 C   0  0  0  0  0  0  0  0  0  0  0  0
  -22.5810   -4.4310   21.4390 F   0  0  0  0  0  0  0  0  0  0  0  0
  -21.2630   -3.9660   26.0050 F   0  0  0  0  0  0  0  0  0  0  0  0
  -22.8510  -13.6890   21.1970 C   0  0  0  0  0  0  0  0  0  0  0  0
  -22.1460  -12.9780   22.0690 N   0  0  0  0  0  0  0  0  0  0  0  0
  -22.4010  -14.7220   20.7020 O   0  0  0  0  0  0  0  0  0  0  0  0
  -22.5260  -12.1440   22.4900 H   0  0  0  0  0  0  0  0  0  0  0  0
  -21.2140  -13.2750   22.3220 H   0  0  0  0  0  0  0  0  0  0  0  0
  -25.4470  -15.3790   20.3460 N   0  0  0  0  0  0  0  0  0  0  0  0
  -24.6770  -16.0250   20.4830 H   0  0  0  0  0  0  0  0  0  0  0  0
  -26.2740  -15.8250   19.9720 H   0  0  0  0  0  0  0  0  0  0  0  0
  -27.8620  -24.4830   19.8860 C   0  0  0  0  0  2  0  0  0  0  0  0
  -28.2330  -26.0370   20.1780 O   0  0  0  0  0  0  0  0  0  0  0  0
  -24.6920  -31.9260   23.2300 C   0  0  0  0  0  0  0  0  0  0  0  0
  -27.2340  -27.1330   20.1210 C   0  0  0  0  0  0  0  0  0  0  0  0
  -23.4840  -30.5440   21.5900 C   0  0  0  0  0  3  0  0  0  0  0  0
  -24.9230  -28.9780   20.1270 C   0  0  0  0  0  0  0  0  0  0  0  0
  -26.0450  -30.7820   21.4120 C   0  0  0  0  0  2  0  0  0  0  0  0
  -26.1150  -29.3860   20.7380 C   0  0  0  0  0  0  0  0  0  0  0  0
  -27.2660  -28.4830   20.7160 C   0  0  0  0  0  3  0  0  0  0  0  0
  -26.0130  -26.8730   19.4600 C   0  0  0  0  0  3  0  0  0  0  0  0
  -24.8940  -27.7400   19.4670 C   0  0  0  0  0  3  0  0  0  0  0  0
  -23.6980  -29.8840   20.2010 C   0  0  0  0  0  2  0  0  0  0  0  0
  -24.7610  -31.1090   22.1310 N   0  0  0  0  0  0  0  0  0  0  0  0
  -23.6080  -32.2010   23.7700 O   0  0  0  0  0  0  0  0  0  0  0  0
  -22.8100  -29.5280   22.5500 C   0  0  0  0  0  0  0  0  0  0  0  0
  -21.4850  -29.3350   22.4190 N   0  0  0  0  0  0  0  0  0  0  0  0
  -23.4870  -28.9170   23.3810 O   0  0  0  0  0  0  0  0  0  0  0  0
  -20.9910  -29.8800   21.7270 H   0  0  0  0  0  0  0  0  0  0  0  0
  -18.1240  -28.0690   22.9290 C   0  0  0  0  0  0  0  0  0  0  0  0
  -20.6790  -28.3800   23.1880 C   0  0  0  0  0  3  0  0  0  0  0  0
  -20.8050  -26.9520   22.6080 C   0  0  0  0  0  2  0  0  0  0  0  0
  -19.7070  -26.6140   21.5940 C   0  0  0  0  0  2  0  0  0  0  0  0
  -18.3240  -26.7280   22.2430 C   0  0  0  0  0  2  0  0  0  0  0  0
  -19.2290  -28.8510   23.3590 C   0  0  0  0  0  0  0  0  0  0  0  0
  -18.9860  -30.1030   23.9630 C   0  0  0  0  0  3  0  0  0  0  0  0
  -17.6710  -30.5750   24.1380 C   0  0  0  0  0  3  0  0  0  0  0  0
  -16.5810  -29.7910   23.7240 C   0  0  0  0  0  3  0  0  0  0  0  0
  -16.8080  -28.5400   23.1250 C   0  0  0  0  0  3  0  0  0  0  0  0
  -25.9680  -32.5680   23.8520 C   0  0  0  0  0  3  0  0  0  0  0  0
  -25.6500  -33.9640   24.1980 N   0  0  0  0  0  0  0  0  0  0  0  0
  -25.9410  -35.0280   23.4380 C   0  0  0  0  0  0  0  0  0  0  0  0
  -26.5700  -34.9390   22.3810 O   0  0  0  0  0  0  0  0  0  0  0  0
  -25.0870  -34.1050   25.0250 H   0  0  0  0  0  0  0  0  0  0  0  0
  -24.1820  -36.8090   23.1780 C   0  0  0  0  0  1  0  0  0  0  0  0
  -25.4620  -36.4100   23.9280 C   0  0  0  0  0  3  0  0  0  0  0  0
  -27.6120  -37.3250   24.6820 C   0  0  0  0  0  1  0  0  0  0  0  0
  -26.4770  -37.4760   23.7750 N   0  0  0  0  0  0  0  0  0  0  0  0
  -26.0640  -38.3910   23.9330 H   0  0  0  0  0  0  0  0  0  0  0  0
  -26.4890  -31.7970   25.1280 C   0  0  1  0  0  0  0  0  0  0  0  0
  -25.3970  -31.5480   26.1950 C   0  0  0  0  0  1  0  0  0  0  0  0
  -27.0830  -30.4240   24.7400 C   0  0  0  0  0  1  0  0  0  0  0  0
  -27.6310  -32.5980   25.7940 C   0  0  0  0  0  1  0  0  0  0  0  0
  2  5  1  0
  3  1  1  0
  4  2  2  0
  4  6  1  0
  5  7  1  0
  5  1  2  0
  6  3  2  0
  7 16  1  0
  8 16  1  0
  9 14  1  0
 10 11  1  0
 10  9  1  0
 12 11  1  0
 12 21  1  0
 12 13  1  0
 14  8  1  0
 14 13  1  0
 15  8  2  0
 16 17  1  0
 18 19  2  0
 19 38  1  0
 20 19  1  0
 20 23  1  0
 21 22  1  0
 21 18  1  0
 22 20  2  0
 23 24  1  0
 24 25  2  0
 26 29  1  0
 26 25  1  0
 27 26  2  0
 28 27  1  0
 28 23  2  0
 29 30  1  0
 30 31  1  0
 31 32  2  0
 33 32  1  0
 33 37  1  0
 34 33  2  0
 35 30  2  0
 35 34  1  0
 36 35  1  0
 38 39  1  0
 39 42  1  0
 39 41  1  0
 40 38  2  0
 43 44  1  0
 43 18  1  0
 45 43  1  0
 46  6  1  0
 46 47  1  0
 48 59  2  0
 49 47  1  0
 49 54  1  0
 50 58  1  0
 50 60  1  0
 51 57  1  0
 51 53  1  0
 52 58  1  0
 53 52  1  0
 54 53  2  0
 55 56  1  0
 55 49  2  0
 56 51  2  0
 57 50  1  0
 58 48  1  0
 60 62  2  0
 61 60  1  0
 63 61  1  0
 64 73  2  0
 64 69  1  0
 65 61  1  0
 65 69  1  0
 66 65  1  0
 67 68  1  0
 67 66  1  0
 68 64  1  0
 69 70  2  0
 70 71  1  0
 72 71  2  0
 73 72  1  0
 74 48  1  0
 74 75  1  0
 74 84  1  0
 75 78  1  0
 76 80  1  0
 76 75  1  0
 77 76  2  0
 80 79  1  0
 82 80  1  0
 82 83  1  0
 82 81  1  0
 84 87  1  1
 84 85  1  0
 86 84  1  0
M  ISO  4   8 100  16 100  46 101  47 101
M  END
>  <TORSDO>  (46) 
F 18

>  <SCORE>  (46) 
-15.768

>  <name>  (46) 
46

>  <ligand_id>  (46) 
46

>  <original_smiles>  (46) 
[H]c1c([H])c([H])c2c(c1[H])C([H])([H])C([H])([H])C([H])([H])C2([H])N([H])C(=O)C1([H])N(C(=O)C([H])(N([H])C(=O)C([H])(N([H])C([H])([H])[H])C([H])([H])[H])C(C([H])([H])[H])(C([H])([H])[H])C([H])([H])[H])C([H])([H])c2c([H])c(OC([H])([H])c3c([H])c([H])c(C([H])([H])N([H])C(=O)N4C([H])([H])C([H])([H])C([H])([H])C([H])(n5nc(-c6c([H])c([H])c(Oc7c([H])c([H])c(F)c([H])c7F)c([H])c6[H])c(C(=O)N([H])[H])c5N([H])[H])C4([H])[H])c([H])c3[H])c([H])c([H])c2C1([H])[H]

>  <smiles>  (46) 
[H]c1c([H])c([H])c2c(c1[H])C([H])([H])C([H])([H])C([H])([H])C2([H])N([H])C(=O)C1([H])N(C(=O)C([H])(N([H])C(=O)C([H])(N([H])C([H])([H])[H])C([H])([H])[H])C(C([H])([H])[H])(C([H])([H])[H])C([H])([H])[H])C([H])([H])c2c([H])c(OC([H])([H])c3c([H])c([H])c(C([H])([H])N([H])C(=O)N4C([H])([H])C([H])([H])C([H])([H])C([H])(n5nc(-c6c([H])c([H])c(Oc7c([H])c([H])c(F)c([H])c7F)c([H])c6[H])c(C(=O)N([H])[H])c5N([H])[H])C4([H])[H])c([H])c3[H])c([H])c([H])c2C1([H])[H]

$$$$
47:0:0
     RDKit          3D

 94103  0  0  1  0  0  0  0  0999 V2000
  -28.3570  -21.2240   21.4730 C   0  0  0  0  0  3  0  0  0  0  0  0
  -28.0870  -22.6360   21.3730 C   0  0  0  0  0  3  0  0  0  0  0  0
  -29.7090  -21.3190   19.5230 C   0  0  0  0  0  0  0  0  0  0  0  0
  -29.4780  -22.7660   19.4560 C   0  0  0  0  0  0  0  0  0  0  0  0
  -29.1100  -20.4670   20.5190 C   0  0  0  0  0  0  0  0  0  0  0  0
  -28.5780  -23.4730   20.3210 C   0  0  0  0  0  0  0  0  0  0  0  0
  -30.6260  -20.6630   18.4930 C   0  0  0  0  0  2  0  0  0  0  0  0
  -30.1870  -23.6030   18.3920 C   0  0  0  0  0  2  0  0  0  0  0  0
  -31.0890  -21.6130   17.3730 C   0  0  0  0  0  2  0  0  0  0  0  0
  -31.4120  -22.9380   17.9270 N   0  0  0  0  0  4  0  0  0  0  0  0
  -32.0370  -22.8410   18.7090 H   0  0  0  0  0  0  0  0  0  0  0  0
  -31.8680  -23.5160   17.2390 H   0  0  0  0  0  0  0  0  0  0  0  0
  -29.0170  -18.8250   20.5100 C   0  0  0  0  0  3  0  0  0  0  0  0
  -30.2040  -17.6730   20.5290 C   0  0  0  0  0  3  0  0  0  0  0  0
  -30.5980  -14.9940   20.3420 C   0  0  0  0  0  0  0  0  0  0  0  0
  -30.4300  -12.6850   19.3470 C   0  0  0  0  0  2  0  0  0  0  0  0
  -29.4840  -12.6780   18.1260 C   0  0  0  0  0  2  0  0  0  0  0  0
  -28.0210  -12.4790   18.5660 C   0  0  0  0  0  2  0  0  0  0  0  0
  -27.6350  -13.3870   19.7640 C   0  0  0  0  0  3  0  0  0  0  0  0
  -28.6980  -13.3690   20.8830 C   0  0  0  0  0  2  0  0  0  0  0  0
  -29.9790  -13.7550   20.2760 N   0  0  0  0  0  0  0  0  0  0  0  0
  -31.7810  -15.0780   20.0010 O   0  0  0  0  0  0  0  0  0  0  0  0
  -29.8420  -16.1540   20.5940 N   0  0  0  0  0  0  0  0  0  0  0  0
  -28.8810  -15.9620   20.8250 H   0  0  0  0  0  0  0  0  0  0  0  0
  -25.2650  -13.9640   20.5400 C   0  0  0  0  0  0  0  0  0  0  0  0
  -24.2040  -13.1850   20.9140 C   0  0  0  0  0  0  0  0  0  0  0  0
  -24.6630  -11.8340   20.8540 C   0  0  0  0  0  0  0  0  0  0  0  0
  -26.3010  -13.0850   20.2740 N   0  0  0  0  0  0  0  0  0  0  0  0
  -25.9500  -11.7980   20.5290 N   0  0  0  0  0  0  0  0  0  0  0  0
  -23.9350  -10.5710   21.0330 C   0  0  0  0  0  0  0  0  0  0  0  0
  -24.3580   -9.6010   21.9680 C   0  0  0  0  0  3  0  0  0  0  0  0
  -23.6310   -8.4020   22.1360 C   0  0  0  0  0  3  0  0  0  0  0  0
  -22.4650   -8.1650   21.3680 C   0  0  0  0  0  0  0  0  0  0  0  0
  -22.0620   -9.1230   20.4210 C   0  0  0  0  0  3  0  0  0  0  0  0
  -22.7900  -10.3130   20.2520 C   0  0  0  0  0  3  0  0  0  0  0  0
  -21.7080   -7.0200   21.4460 O   0  0  0  0  0  0  0  0  0  0  0  0
  -21.6200   -6.2940   22.6070 C   0  0  0  0  0  0  0  0  0  0  0  0
  -21.1000   -6.8500   23.7960 C   0  0  0  0  0  3  0  0  0  0  0  0
  -20.9610   -6.0460   24.9460 C   0  0  0  0  0  3  0  0  0  0  0  0
  -21.3270   -4.6870   24.9050 C   0  0  0  0  0  0  0  0  0  0  0  0
  -21.8410   -4.1310   23.7200 C   0  0  0  0  0  3  0  0  0  0  0  0
  -21.9810   -4.9320   22.5730 C   0  0  0  0  0  0  0  0  0  0  0  0
  -22.4530   -4.3850   21.4270 F   0  0  0  0  0  0  0  0  0  0  0  0
  -21.1880   -3.9130   26.0070 F   0  0  0  0  0  0  0  0  0  0  0  0
  -22.8110  -13.6600   21.2100 C   0  0  0  0  0  0  0  0  0  0  0  0
  -22.0930  -12.9490   22.0730 N   0  0  0  0  0  0  0  0  0  0  0  0
  -22.3700  -14.6930   20.7130 O   0  0  0  0  0  0  0  0  0  0  0  0
  -22.4670  -12.1150   22.5010 H   0  0  0  0  0  0  0  0  0  0  0  0
  -21.1550  -13.2430   22.3080 H   0  0  0  0  0  0  0  0  0  0  0  0
  -25.4310  -15.3360   20.3800 N   0  0  0  0  0  0  0  0  0  0  0  0
  -24.6650  -15.9890   20.4990 H   0  0  0  0  0  0  0  0  0  0  0  0
  -26.2660  -15.7760   20.0140 H   0  0  0  0  0  0  0  0  0  0  0  0
  -27.8500  -24.8780   19.9320 C   0  0  0  0  0  2  0  0  0  0  0  0
  -28.2140  -26.3290   20.2640 O   0  0  0  0  0  0  0  0  0  0  0  0
  -24.6010  -31.9340   23.2520 C   0  0  0  0  0  0  0  0  0  0  0  0
  -27.1690  -27.3110   20.1570 C   0  0  0  0  0  0  0  0  0  0  0  0
  -23.3850  -30.5520   21.6120 C   0  0  0  0  0  3  0  0  0  0  0  0
  -24.8270  -29.0180   20.1510 C   0  0  0  0  0  0  0  0  0  0  0  0
  -25.9320  -30.8490   21.4140 C   0  0  0  0  0  2  0  0  0  0  0  0
  -26.0080  -29.4700   20.7530 C   0  0  0  0  0  0  0  0  0  0  0  0
  -27.1800  -28.6320   20.7470 C   0  0  0  0  0  3  0  0  0  0  0  0
  -25.9650  -26.9660   19.4930 C   0  0  0  0  0  3  0  0  0  0  0  0
  -24.8150  -27.7750   19.5080 C   0  0  0  0  0  3  0  0  0  0  0  0
  -23.5900  -29.8970   20.2220 C   0  0  0  0  0  2  0  0  0  0  0  0
  -24.6590  -31.1320   22.1480 N   0  0  0  0  0  0  0  0  0  0  0  0
  -23.5220  -32.2030   23.8000 O   0  0  0  0  0  0  0  0  0  0  0  0
  -22.7340  -29.5230   22.5670 C   0  0  0  0  0  0  0  0  0  0  0  0
  -21.4110  -29.3230   22.4400 N   0  0  0  0  0  0  0  0  0  0  0  0
  -23.4180  -28.9080   23.3880 O   0  0  0  0  0  0  0  0  0  0  0  0
  -20.9130  -29.8670   21.7480 H   0  0  0  0  0  0  0  0  0  0  0  0
  -18.0510  -28.0690   22.9490 C   0  0  0  0  0  0  0  0  0  0  0  0
  -20.6060  -28.3710   23.2110 C   0  0  0  0  0  3  0  0  0  0  0  0
  -20.7300  -26.9430   22.6340 C   0  0  0  0  0  2  0  0  0  0  0  0
  -19.6320  -26.6050   21.6220 C   0  0  0  0  0  2  0  0  0  0  0  0
  -18.2490  -26.7260   22.2660 C   0  0  0  0  0  2  0  0  0  0  0  0
  -19.1590  -28.8490   23.3770 C   0  0  0  0  0  0  0  0  0  0  0  0
  -18.9200  -30.1060   23.9750 C   0  0  0  0  0  3  0  0  0  0  0  0
  -17.6070  -30.5850   24.1440 C   0  0  0  0  0  3  0  0  0  0  0  0
  -16.5150  -29.8040   23.7270 C   0  0  0  0  0  3  0  0  0  0  0  0
  -16.7380  -28.5470   23.1380 C   0  0  0  0  0  3  0  0  0  0  0  0
  -25.8850  -32.5680   23.8660 C   0  0  0  0  0  3  0  0  0  0  0  0
  -26.4090  -31.7950   25.1390 C   0  0  1  0  0  0  0  0  0  0  0  0
  -25.3230  -31.5490   26.2110 C   0  0  0  0  0  1  0  0  0  0  0  0
  -27.0000  -30.4220   24.7440 C   0  0  0  0  0  1  0  0  0  0  0  0
  -27.5540  -32.5960   25.8020 C   0  0  0  0  0  1  0  0  0  0  0  0
  -25.5740  -33.9640   24.2070 N   0  0  0  0  0  0  0  0  0  0  0  0
  -25.8710  -35.0200   23.4410 C   0  0  0  0  0  0  0  0  0  0  0  0
  -26.5080  -34.9250   22.3890 O   0  0  0  0  0  0  0  0  0  0  0  0
  -25.0020  -34.1130   25.0270 H   0  0  0  0  0  0  0  0  0  0  0  0
  -24.1130  -36.8000   23.1480 C   0  0  0  0  0  1  0  0  0  0  0  0
  -25.3850  -36.4050   23.9170 C   0  0  0  0  0  3  0  0  0  0  0  0
  -27.5320  -37.3190   24.6820 C   0  0  0  0  0  1  0  0  0  0  0  0
  -26.4020  -37.4690   23.7690 N   0  0  0  0  0  0  0  0  0  0  0  0
  -25.9910  -38.3860   23.9210 H   0  0  0  0  0  0  0  0  0  0  0  0
  2  1  1  0
  3  5  1  0
  4  3  2  0
  4  6  1  0
  5  1  2  0
  6  2  2  0
  7  3  1  0
  8  4  1  0
  9 10  1  0
  9  7  1  0
 10  8  1  0
 10 11  1  0
 12 10  1  0
 13  5  1  0
 13 14  2  0
 14 23  1  0
 15 23  1  0
 16 21  1  0
 17 18  1  0
 17 16  1  0
 19 18  1  0
 19 28  1  0
 19 20  1  0
 21 15  1  0
 21 20  1  0
 22 15  2  0
 23 24  1  0
 25 26  2  0
 26 45  1  0
 27 26  1  0
 27 30  1  0
 28 29  1  0
 28 25  1  0
 29 27  2  0
 30 31  1  0
 31 32  2  0
 33 36  1  0
 33 32  1  0
 34 33  2  0
 35 34  1  0
 35 30  2  0
 36 37  1  0
 37 38  1  0
 38 39  2  0
 40 39  1  0
 40 44  1  0
 41 40  2  0
 42 37  2  0
 42 41  1  0
 43 42  1  0
 45 46  1  0
 46 49  1  0
 46 48  1  0
 47 45  2  0
 50 51  1  0
 50 25  1  0
 52 50  1  0
 53 54  1  0
 53  6  1  0
 55 66  2  0
 56 54  1  0
 56 61  1  0
 57 65  1  0
 57 67  1  0
 58 64  1  0
 58 60  1  0
 59 65  1  0
 60 59  1  0
 61 60  2  0
 62 63  1  0
 62 56  2  0
 63 58  2  0
 64 57  1  0
 65 55  1  0
 67 69  2  0
 68 67  1  0
 70 68  1  0
 71 80  2  0
 71 76  1  0
 72 68  1  0
 72 76  1  0
 73 72  1  0
 74 75  1  0
 74 73  1  0
 75 71  1  0
 76 77  2  0
 77 78  1  0
 79 78  2  0
 80 79  1  0
 81 55  1  0
 81 86  1  0
 81 82  1  0
 82 85  1  1
 82 83  1  0
 84 82  1  0
 86 89  1  0
 87 91  1  0
 87 86  1  0
 88 87  2  0
 91 90  1  0
 93 91  1  0
 93 94  1  0
 93 92  1  0
M  ISO  4  15 100  23 100  53 101  54 101
M  END
>  <TORSDO>  (47) 
F 19

>  <SCORE>  (47) 
-14.209

>  <name>  (47) 
47

>  <ligand_id>  (47) 
47

>  <original_smiles>  (47) 
[H]c1c([H])c([H])c2c(c1[H])C([H])([H])C([H])([H])C([H])([H])C2([H])N([H])C(=O)C1([H])N(C(=O)C([H])(N([H])C(=O)C([H])(N([H])C([H])([H])[H])C([H])([H])[H])C(C([H])([H])[H])(C([H])([H])[H])C([H])([H])[H])C([H])([H])c2c([H])c(OC([H])([H])c3c([H])c([H])c(C([H])([H])C([H])([H])N([H])C(=O)N4C([H])([H])C([H])([H])C([H])([H])C([H])(n5nc(-c6c([H])c([H])c(Oc7c([H])c([H])c(F)c([H])c7F)c([H])c6[H])c(C(=O)N([H])[H])c5N([H])[H])C4([H])[H])c4c3C([H])([H])[N+]([H])([H])C([H])([H])C4([H])[H])c([H])c([H])c2C1([H])[H]

>  <smiles>  (47) 
[H]c1c([H])c([H])c2c(c1[H])C([H])([H])C([H])([H])C([H])([H])C2([H])N([H])C(=O)C1([H])N(C(=O)C([H])(N([H])C(=O)C([H])(N([H])C([H])([H])[H])C([H])([H])[H])C(C([H])([H])[H])(C([H])([H])[H])C([H])([H])[H])C([H])([H])c2c([H])c(OC([H])([H])c3c([H])c([H])c(C([H])([H])C([H])([H])N([H])C(=O)N4C([H])([H])C([H])([H])C([H])([H])C([H])(n5nc(-c6c([H])c([H])c(Oc7c([H])c([H])c(F)c([H])c7F)c([H])c6[H])c(C(=O)N([H])[H])c5N([H])[H])C4([H])[H])c4c3C([H])([H])[N+]([H])([H])C([H])([H])C4([H])[H])c([H])c([H])c2C1([H])[H]

$$$$
48:0:0
     RDKit          3D

 95104  0  0  1  0  0  0  0  0999 V2000
  -28.2040  -22.9870   21.2970 C   0  0  0  0  0  3  0  0  0  0  0  0
  -28.6150  -21.6570   21.5920 C   0  0  0  0  0  3  0  0  0  0  0  0
  -30.2350  -21.7750   19.8270 C   0  0  0  0  0  3  0  0  0  0  0  0
  -29.8530  -23.1270   19.5390 C   0  0  0  0  0  0  0  0  0  0  0  0
  -28.7840  -23.7570   20.2530 C   0  0  0  0  0  0  0  0  0  0  0  0
  -29.6240  -21.0010   20.8480 C   0  0  0  0  0  0  0  0  0  0  0  0
  -31.7900  -23.6430   16.3390 C   0  0  0  0  0  2  0  0  0  0  0  0
  -32.8450  -23.5050   17.4360 C   0  0  0  0  0  2  0  0  0  0  0  0
  -30.4860  -23.2740   17.0460 C   0  0  0  0  0  2  0  0  0  0  0  0
  -32.1440  -23.9590   18.7230 C   0  0  0  0  0  2  0  0  0  0  0  0
  -30.6240  -23.8780   18.4520 C   0  0  0  0  0  3  0  0  0  0  0  0
  -30.0820  -19.7000   21.2260 N   0  0  0  0  0  0  0  0  0  0  0  0
  -30.0370  -19.5740   22.2350 H   0  0  0  0  0  0  0  0  0  0  0  0
  -29.6890  -18.4330   20.5470 C   0  0  0  0  0  2  0  0  0  0  0  0
  -30.5230  -17.1620   21.0210 C   0  0  0  0  0  2  0  0  0  0  0  0
  -30.6500  -14.6610   20.4400 C   0  0  0  0  0  0  0  0  0  0  0  0
  -30.3640  -12.4370   19.3670 C   0  0  0  0  0  2  0  0  0  0  0  0
  -29.4300  -12.5630   18.1450 C   0  0  0  0  0  2  0  0  0  0  0  0
  -27.9600  -12.4070   18.5760 C   0  0  0  0  0  2  0  0  0  0  0  0
  -27.6000  -13.2830   19.8050 C   0  0  0  0  0  3  0  0  0  0  0  0
  -28.6580  -13.1630   20.9240 C   0  0  0  0  0  2  0  0  0  0  0  0
  -29.9670  -13.4790   20.3360 N   0  0  0  0  0  0  0  0  0  0  0  0
  -31.8190  -14.7530   20.0600 O   0  0  0  0  0  0  0  0  0  0  0  0
  -29.9580  -15.7840   20.8110 N   0  0  0  0  0  0  0  0  0  0  0  0
  -28.9860  -15.6510   21.0460 H   0  0  0  0  0  0  0  0  0  0  0  0
  -25.2050  -13.8780   20.5190 C   0  0  0  0  0  0  0  0  0  0  0  0
  -24.1380  -13.1050   20.8860 C   0  0  0  0  0  0  0  0  0  0  0  0
  -24.6020  -11.7530   20.8620 C   0  0  0  0  0  0  0  0  0  0  0  0
  -26.2510  -12.9990   20.2910 N   0  0  0  0  0  0  0  0  0  0  0  0
  -25.8950  -11.7160   20.5600 N   0  0  0  0  0  0  0  0  0  0  0  0
  -23.8760  -10.4910   21.0550 C   0  0  0  0  0  0  0  0  0  0  0  0
  -24.3130   -9.5230   21.9850 C   0  0  0  0  0  3  0  0  0  0  0  0
  -23.5880   -8.3250   22.1660 C   0  0  0  0  0  3  0  0  0  0  0  0
  -22.4100   -8.0890   21.4170 C   0  0  0  0  0  0  0  0  0  0  0  0
  -21.9910   -9.0460   20.4770 C   0  0  0  0  0  3  0  0  0  0  0  0
  -22.7150  -10.2360   20.2950 C   0  0  0  0  0  3  0  0  0  0  0  0
  -21.6550   -6.9440   21.5090 O   0  0  0  0  0  0  0  0  0  0  0  0
  -21.6230   -6.1920   22.6550 C   0  0  0  0  0  0  0  0  0  0  0  0
  -21.2180   -6.7380   23.8930 C   0  0  0  0  0  3  0  0  0  0  0  0
  -21.1340   -5.9130   25.0330 C   0  0  0  0  0  3  0  0  0  0  0  0
  -21.4450   -4.5430   24.9340 C   0  0  0  0  0  0  0  0  0  0  0  0
  -21.8420   -3.9970   23.7010 C   0  0  0  0  0  3  0  0  0  0  0  0
  -21.9280   -4.8190   22.5650 C   0  0  0  0  0  0  0  0  0  0  0  0
  -22.2920   -4.2830   21.3750 F   0  0  0  0  0  0  0  0  0  0  0  0
  -21.3560   -3.7490   26.0270 F   0  0  0  0  0  0  0  0  0  0  0  0
  -22.7400  -13.5820   21.1500 C   0  0  0  0  0  0  0  0  0  0  0  0
  -22.0100  -12.8870   22.0150 N   0  0  0  0  0  0  0  0  0  0  0  0
  -22.3030  -14.6050   20.6250 O   0  0  0  0  0  0  0  0  0  0  0  0
  -22.3760  -12.0580   22.4580 H   0  0  0  0  0  0  0  0  0  0  0  0
  -21.0710  -13.1880   22.2370 H   0  0  0  0  0  0  0  0  0  0  0  0
  -25.3700  -15.2490   20.3380 N   0  0  0  0  0  0  0  0  0  0  0  0
  -24.6040  -15.9030   20.4450 H   0  0  0  0  0  0  0  0  0  0  0  0
  -26.2220  -15.6860   20.0070 H   0  0  0  0  0  0  0  0  0  0  0  0
  -28.0270  -25.0490   19.7630 C   0  0  0  0  0  2  0  0  0  0  0  0
  -28.2840  -26.4350   20.2380 O   0  0  0  0  0  0  0  0  0  0  0  0
  -24.6120  -31.8940   23.2550 C   0  0  0  0  0  0  0  0  0  0  0  0
  -27.1970  -27.3350   20.1560 C   0  0  0  0  0  0  0  0  0  0  0  0
  -23.4000  -30.5100   21.6140 C   0  0  0  0  0  3  0  0  0  0  0  0
  -24.8400  -28.9770   20.1700 C   0  0  0  0  0  0  0  0  0  0  0  0
  -25.9440  -30.8140   21.4300 C   0  0  0  0  0  2  0  0  0  0  0  0
  -26.0160  -29.4400   20.7770 C   0  0  0  0  0  0  0  0  0  0  0  0
  -27.1930  -28.6290   20.7710 C   0  0  0  0  0  3  0  0  0  0  0  0
  -26.0000  -26.9590   19.4920 C   0  0  0  0  0  3  0  0  0  0  0  0
  -24.8370  -27.7390   19.5230 C   0  0  0  0  0  3  0  0  0  0  0  0
  -23.6060  -29.8500   20.2280 C   0  0  0  0  0  2  0  0  0  0  0  0
  -24.6720  -31.0900   22.1550 N   0  0  0  0  0  0  0  0  0  0  0  0
  -23.5300  -32.1700   23.7920 O   0  0  0  0  0  0  0  0  0  0  0  0
  -22.7380  -29.4850   22.5670 C   0  0  0  0  0  0  0  0  0  0  0  0
  -21.4120  -29.3050   22.4390 N   0  0  0  0  0  0  0  0  0  0  0  0
  -23.4170  -28.8550   23.3850 O   0  0  0  0  0  0  0  0  0  0  0  0
  -20.9220  -29.8670   21.7570 H   0  0  0  0  0  0  0  0  0  0  0  0
  -18.0370  -28.0980   22.9290 C   0  0  0  0  0  0  0  0  0  0  0  0
  -20.5950  -28.3640   23.2070 C   0  0  0  0  0  3  0  0  0  0  0  0
  -20.7030  -26.9320   22.6330 C   0  0  0  0  0  2  0  0  0  0  0  0
  -19.6040  -26.6040   21.6180 C   0  0  0  0  0  2  0  0  0  0  0  0
  -18.2190  -26.7490   22.2540 C   0  0  0  0  0  2  0  0  0  0  0  0
  -19.1530  -28.8630   23.3610 C   0  0  0  0  0  0  0  0  0  0  0  0
  -18.9280  -30.1280   23.9490 C   0  0  0  0  0  3  0  0  0  0  0  0
  -17.6220  -30.6260   24.1120 C   0  0  0  0  0  3  0  0  0  0  0  0
  -16.5210  -29.8560   23.6950 C   0  0  0  0  0  3  0  0  0  0  0  0
  -16.7280  -28.5950   23.1090 C   0  0  0  0  0  3  0  0  0  0  0  0
  -25.8980  -32.5230   23.8740 C   0  0  0  0  0  3  0  0  0  0  0  0
  -25.5930  -33.9230   24.2040 N   0  0  0  0  0  0  0  0  0  0  0  0
  -25.9160  -34.9740   23.4380 C   0  0  0  0  0  0  0  0  0  0  0  0
  -26.5730  -34.8680   22.4010 O   0  0  0  0  0  0  0  0  0  0  0  0
  -25.0160  -34.0790   25.0170 H   0  0  0  0  0  0  0  0  0  0  0  0
  -24.1810  -36.7660   23.1050 C   0  0  0  0  0  1  0  0  0  0  0  0
  -25.4350  -36.3630   23.9000 C   0  0  0  0  0  3  0  0  0  0  0  0
  -27.5800  -37.2520   24.6980 C   0  0  0  0  0  1  0  0  0  0  0  0
  -26.4650  -37.4160   23.7690 N   0  0  0  0  0  0  0  0  0  0  0  0
  -26.0610  -38.3360   23.9210 H   0  0  0  0  0  0  0  0  0  0  0  0
  -26.4100  -31.7520   25.1520 C   0  0  1  0  0  0  0  0  0  0  0  0
  -25.3160  -31.5180   26.2220 C   0  0  0  0  0  1  0  0  0  0  0  0
  -26.9940  -30.3740   24.7620 C   0  0  0  0  0  1  0  0  0  0  0  0
  -27.5620  -32.5450   25.8130 C   0  0  0  0  0  1  0  0  0  0  0  0
  1  2  1  0
  3  6  1  0
  4  3  2  0
  4  5  1  0
  5  1  2  0
  6 12  1  0
  6  2  2  0
  7  9  1  0
  7  8  1  0
  8 10  1  0
  9 11  1  0
 11 10  1  0
 11  4  1  0
 12 13  1  0
 14 15  1  0
 14 12  1  0
 16 24  1  0
 17 22  1  0
 18 19  1  0
 18 17  1  0
 20 19  1  0
 20 29  1  0
 20 21  1  0
 22 16  1  0
 22 21  1  0
 23 16  2  0
 24 15  1  0
 24 25  1  0
 26 27  2  0
 27 46  1  0
 28 27  1  0
 28 31  1  0
 29 26  1  0
 29 30  1  0
 30 28  2  0
 31 32  1  0
 32 33  2  0
 34 37  1  0
 34 33  1  0
 35 34  2  0
 36 35  1  0
 36 31  2  0
 37 38  1  0
 38 39  1  0
 39 40  2  0
 41 40  1  0
 41 45  1  0
 42 41  2  0
 43 38  2  0
 43 42  1  0
 44 43  1  0
 46 47  1  0
 47 50  1  0
 47 49  1  0
 48 46  2  0
 51 52  1  0
 51 26  1  0
 53 51  1  0
 54 55  1  0
 54  5  1  0
 56 67  2  0
 57 55  1  0
 57 62  1  0
 58 66  1  0
 58 68  1  0
 59 65  1  0
 59 61  1  0
 60 66  1  0
 61 60  1  0
 62 61  2  0
 63 64  1  0
 63 57  2  0
 64 59  2  0
 65 58  1  0
 66 56  1  0
 68 70  2  0
 69 68  1  0
 71 69  1  0
 72 81  2  0
 72 77  1  0
 73 69  1  0
 73 77  1  0
 74 73  1  0
 75 76  1  0
 75 74  1  0
 76 72  1  0
 77 78  2  0
 78 79  1  0
 80 79  2  0
 81 80  1  0
 82 56  1  0
 82 83  1  0
 82 92  1  0
 83 86  1  0
 84 88  1  0
 84 83  1  0
 85 84  2  0
 88 87  1  0
 90 88  1  0
 90 91  1  0
 90 89  1  0
 92 95  1  1
 92 93  1  0
 94 92  1  0
M  ISO  4  16 100  24 100  54 101  55 101
M  END
>  <TORSDO>  (48) 
F 21

>  <SCORE>  (48) 
-13.749

>  <name>  (48) 
48

>  <ligand_id>  (48) 
48

>  <original_smiles>  (48) 
[H]c1c([H])c([H])c2c(c1[H])C([H])([H])C([H])([H])C([H])([H])C2([H])N([H])C(=O)C1([H])N(C(=O)C([H])(N([H])C(=O)C([H])(N([H])C([H])([H])[H])C([H])([H])[H])C(C([H])([H])[H])(C([H])([H])[H])C([H])([H])[H])C([H])([H])c2c([H])c(OC([H])([H])c3c([H])c([H])c(N([H])C([H])([H])C([H])([H])N([H])C(=O)N4C([H])([H])C([H])([H])C([H])([H])C([H])(n5nc(-c6c([H])c([H])c(Oc7c([H])c([H])c(F)c([H])c7F)c([H])c6[H])c(C(=O)N([H])[H])c5N([H])[H])C4([H])[H])c([H])c3C3([H])C([H])([H])C([H])([H])C([H])([H])C3([H])[H])c([H])c([H])c2C1([H])[H]

>  <smiles>  (48) 
[H]c1c([H])c([H])c2c(c1[H])C([H])([H])C([H])([H])C([H])([H])C2([H])N([H])C(=O)C1([H])N(C(=O)C([H])(N([H])C(=O)C([H])(N([H])C([H])([H])[H])C([H])([H])[H])C(C([H])([H])[H])(C([H])([H])[H])C([H])([H])[H])C([H])([H])c2c([H])c(OC([H])([H])c3c([H])c([H])c(N([H])C([H])([H])C([H])([H])N([H])C(=O)N4C([H])([H])C([H])([H])C([H])([H])C([H])(n5nc(-c6c([H])c([H])c(Oc7c([H])c([H])c(F)c([H])c7F)c([H])c6[H])c(C(=O)N([H])[H])c5N([H])[H])C4([H])[H])c([H])c3C3([H])C([H])([H])C([H])([H])C([H])([H])C3([H])[H])c([H])c([H])c2C1([H])[H]

$$$$
49:0:0
     RDKit          3D

 93102  0  0  1  0  0  0  0  0999 V2000
  -27.0450  -23.3500   19.7770 C   0  0  0  0  0  3  0  0  0  0  0  0
  -29.1090  -22.5900   20.7340 C   0  0  0  0  0  3  0  0  0  0  0  0
  -28.2250  -23.7140   20.4530 C   0  0  0  0  0  0  0  0  0  0  0  0
  -26.7930  -22.0060   19.4330 C   0  0  0  0  0  0  0  0  0  0  0  0
  -28.7910  -21.2250   20.3550 C   0  0  0  0  0  0  0  0  0  0  0  0
  -27.6320  -20.9830   19.7150 N   0  0  0  0  0  0  0  0  0  0  0  0
  -25.0980  -22.2330   17.4680 C   0  0  0  0  0  2  0  0  0  0  0  0
  -25.4450  -20.7670   17.5350 C   0  0  0  0  0  2  0  0  0  0  0  0
  -25.4980  -21.6130   18.7900 C   0  0  0  0  0  3  0  0  0  0  0  0
  -29.6000  -20.0530   20.6130 N   0  0  0  0  0  0  0  0  0  0  0  0
  -30.4880  -20.1980   21.0850 H   0  0  0  0  0  0  0  0  0  0  0  0
  -29.1790  -18.6060   20.3920 C   0  0  0  0  0  3  0  0  0  0  0  0
  -30.2830  -17.4220   20.5400 C   0  0  0  0  0  3  0  0  0  0  0  0
  -30.6060  -14.8190   20.2530 C   0  0  0  0  0  0  0  0  0  0  0  0
  -30.3930  -12.5460   19.2280 C   0  0  0  0  0  2  0  0  0  0  0  0
  -29.4360  -12.6120   18.0170 C   0  0  0  0  0  2  0  0  0  0  0  0
  -27.9750  -12.4300   18.4700 C   0  0  0  0  0  2  0  0  0  0  0  0
  -27.6160  -13.3190   19.6910 C   0  0  0  0  0  3  0  0  0  0  0  0
  -28.6910  -13.2360   20.7980 C   0  0  0  0  0  2  0  0  0  0  0  0
  -29.9760  -13.5960   20.1860 N   0  0  0  0  0  0  0  0  0  0  0  0
  -31.7810  -14.9220   19.8860 O   0  0  0  0  0  0  0  0  0  0  0  0
  -29.8560  -15.9500   20.5440 N   0  0  0  0  0  0  0  0  0  0  0  0
  -28.8950  -15.7750   20.7970 H   0  0  0  0  0  0  0  0  0  0  0  0
  -25.2440  -13.9090   20.4630 C   0  0  0  0  0  0  0  0  0  0  0  0
  -24.1850  -13.1340   20.8520 C   0  0  0  0  0  0  0  0  0  0  0  0
  -24.6470  -11.7830   20.8070 C   0  0  0  0  0  0  0  0  0  0  0  0
  -26.2820  -13.0290   20.2040 N   0  0  0  0  0  0  0  0  0  0  0  0
  -25.9310  -11.7440   20.4730 N   0  0  0  0  0  0  0  0  0  0  0  0
  -23.9240  -10.5210   21.0040 C   0  0  0  0  0  0  0  0  0  0  0  0
  -24.3700   -9.5530   21.9290 C   0  0  0  0  0  3  0  0  0  0  0  0
  -23.6470   -8.3550   22.1160 C   0  0  0  0  0  3  0  0  0  0  0  0
  -22.4630   -8.1180   21.3770 C   0  0  0  0  0  0  0  0  0  0  0  0
  -22.0360   -9.0760   20.4410 C   0  0  0  0  0  3  0  0  0  0  0  0
  -22.7580  -10.2660   20.2530 C   0  0  0  0  0  3  0  0  0  0  0  0
  -21.7090   -6.9730   21.4730 O   0  0  0  0  0  0  0  0  0  0  0  0
  -21.6730   -6.2300   22.6250 C   0  0  0  0  0  0  0  0  0  0  0  0
  -21.2550   -6.7840   23.8550 C   0  0  0  0  0  3  0  0  0  0  0  0
  -21.1680   -5.9660   25.0010 C   0  0  0  0  0  3  0  0  0  0  0  0
  -21.4880   -4.5980   24.9170 C   0  0  0  0  0  0  0  0  0  0  0  0
  -21.8990   -4.0450   23.6910 C   0  0  0  0  0  3  0  0  0  0  0  0
  -21.9900   -4.8590   22.5480 C   0  0  0  0  0  0  0  0  0  0  0  0
  -22.3670   -4.3170   21.3650 F   0  0  0  0  0  0  0  0  0  0  0  0
  -21.3960   -3.8110   26.0140 F   0  0  0  0  0  0  0  0  0  0  0  0
  -22.7950  -13.6130   21.1510 C   0  0  0  0  0  0  0  0  0  0  0  0
  -22.0810  -12.9140   22.0280 N   0  0  0  0  0  0  0  0  0  0  0  0
  -22.3500  -14.6400   20.6420 O   0  0  0  0  0  0  0  0  0  0  0  0
  -22.4550  -12.0810   22.4600 H   0  0  0  0  0  0  0  0  0  0  0  0
  -21.1470  -13.2150   22.2670 H   0  0  0  0  0  0  0  0  0  0  0  0
  -25.4070  -15.2790   20.2830 N   0  0  0  0  0  0  0  0  0  0  0  0
  -24.6390  -15.9310   20.3930 H   0  0  0  0  0  0  0  0  0  0  0  0
  -26.2380  -15.7080   19.8970 H   0  0  0  0  0  0  0  0  0  0  0  0
  -28.3750  -25.2000   21.0380 C   0  0  0  0  0  2  0  0  0  0  0  0
  -28.3440  -26.4580   20.2160 O   0  0  0  0  0  0  0  0  0  0  0  0
  -24.6080  -31.9460   23.2490 C   0  0  0  0  0  0  0  0  0  0  0  0
  -27.2360  -27.3330   20.2530 C   0  0  0  0  0  0  0  0  0  0  0  0
  -23.4180  -30.5390   21.6080 C   0  0  0  0  0  3  0  0  0  0  0  0
  -24.8820  -28.9750   20.2010 C   0  0  0  0  0  0  0  0  0  0  0  0
  -25.9610  -30.8470   21.4450 C   0  0  0  0  0  2  0  0  0  0  0  0
  -26.0480  -29.4580   20.8130 C   0  0  0  0  0  0  0  0  0  0  0  0
  -27.2290  -28.6480   20.8300 C   0  0  0  0  0  3  0  0  0  0  0  0
  -26.0590  -26.9260   19.5970 C   0  0  0  0  0  3  0  0  0  0  0  0
  -24.8930  -27.7160   19.5810 C   0  0  0  0  0  3  0  0  0  0  0  0
  -23.6450  -29.8550   20.2330 C   0  0  0  0  0  2  0  0  0  0  0  0
  -24.6810  -31.1300   22.1580 N   0  0  0  0  0  0  0  0  0  0  0  0
  -23.5200  -32.2250   23.7740 O   0  0  0  0  0  0  0  0  0  0  0  0
  -22.7470  -29.5270   22.5680 C   0  0  0  0  0  0  0  0  0  0  0  0
  -21.4200  -29.3550   22.4390 N   0  0  0  0  0  0  0  0  0  0  0  0
  -23.4210  -28.9000   23.3900 O   0  0  0  0  0  0  0  0  0  0  0  0
  -20.9340  -29.9120   21.7500 H   0  0  0  0  0  0  0  0  0  0  0  0
  -18.0360  -28.1800   22.9470 C   0  0  0  0  0  0  0  0  0  0  0  0
  -20.5970  -28.4210   23.2100 C   0  0  0  0  0  3  0  0  0  0  0  0
  -20.6880  -26.9910   22.6310 C   0  0  0  0  0  2  0  0  0  0  0  0
  -19.5810  -26.6780   21.6180 C   0  0  0  0  0  2  0  0  0  0  0  0
  -18.2010  -26.8310   22.2660 C   0  0  0  0  0  2  0  0  0  0  0  0
  -19.1610  -28.9340   23.3760 C   0  0  0  0  0  0  0  0  0  0  0  0
  -18.9520  -30.1950   23.9720 C   0  0  0  0  0  3  0  0  0  0  0  0
  -17.6510  -30.7040   24.1440 C   0  0  0  0  0  3  0  0  0  0  0  0
  -16.5400  -29.9470   23.7320 C   0  0  0  0  0  3  0  0  0  0  0  0
  -16.7330  -28.6880   23.1390 C   0  0  0  0  0  3  0  0  0  0  0  0
  -25.8840  -32.5850   23.8760 C   0  0  0  0  0  3  0  0  0  0  0  0
  -25.5710  -33.9860   24.1950 N   0  0  0  0  0  0  0  0  0  0  0  0
  -25.9100  -35.0350   23.4330 C   0  0  0  0  0  0  0  0  0  0  0  0
  -26.5860  -34.9250   22.4060 O   0  0  0  0  0  0  0  0  0  0  0  0
  -24.9710  -34.1440   24.9910 H   0  0  0  0  0  0  0  0  0  0  0  0
  -24.1860  -36.8290   23.0550 C   0  0  0  0  0  1  0  0  0  0  0  0
  -25.4200  -36.4260   23.8780 C   0  0  0  0  0  3  0  0  0  0  0  0
  -27.5480  -37.3160   24.7230 C   0  0  0  0  0  1  0  0  0  0  0  0
  -26.4550  -37.4780   23.7680 N   0  0  0  0  0  0  0  0  0  0  0  0
  -26.0480  -38.3990   23.9050 H   0  0  0  0  0  0  0  0  0  0  0  0
  -26.3900  -31.8240   25.1640 C   0  0  1  0  0  0  0  0  0  0  0  0
  -25.2870  -31.5950   26.2240 C   0  0  0  0  0  1  0  0  0  0  0  0
  -26.9760  -30.4430   24.7920 C   0  0  0  0  0  1  0  0  0  0  0  0
  -27.5330  -32.6260   25.8290 C   0  0  0  0  0  1  0  0  0  0  0  0
  1  3  1  0
  3  2  2  0
  3 52  1  0
  4  6  1  0
  4  1  2  0
  5 10  1  0
  5  2  1  0
  6  5  2  0
  7  8  1  0
  7  9  1  0
  8  9  1  0
  9  4  1  0
 10 11  1  0
 12 13  2  0
 12 10  1  0
 13 22  1  0
 14 22  1  0
 15 20  1  0
 16 17  1  0
 16 15  1  0
 18 17  1  0
 18 27  1  0
 18 19  1  0
 20 14  1  0
 20 19  1  0
 21 14  2  0
 22 23  1  0
 24 25  2  0
 25 44  1  0
 26 25  1  0
 26 29  1  0
 27 24  1  0
 27 28  1  0
 28 26  2  0
 29 30  1  0
 30 31  2  0
 32 35  1  0
 32 31  1  0
 33 32  2  0
 34 33  1  0
 34 29  2  0
 35 36  1  0
 36 37  1  0
 37 38  2  0
 39 38  1  0
 39 43  1  0
 40 39  2  0
 41 36  2  0
 41 40  1  0
 42 41  1  0
 44 45  1  0
 45 48  1  0
 45 47  1  0
 46 44  2  0
 49 50  1  0
 49 24  1  0
 51 49  1  0
 53 55  1  0
 53 52  1  0
 54 65  2  0
 55 60  1  0
 56 64  1  0
 56 66  1  0
 57 63  1  0
 57 59  1  0
 58 64  1  0
 59 60  2  0
 59 58  1  0
 61 55  2  0
 62 61  1  0
 62 57  2  0
 63 56  1  0
 64 54  1  0
 66 68  2  0
 67 66  1  0
 69 67  1  0
 70 79  2  0
 70 75  1  0
 71 67  1  0
 71 75  1  0
 72 71  1  0
 73 74  1  0
 73 72  1  0
 74 70  1  0
 75 76  2  0
 76 77  1  0
 78 77  2  0
 79 78  1  0
 80 54  1  0
 80 81  1  0
 80 90  1  0
 81 84  1  0
 82 86  1  0
 82 81  1  0
 83 82  2  0
 86 85  1  0
 88 86  1  0
 88 89  1  0
 88 87  1  0
 90 93  1  1
 90 91  1  0
 92 90  1  0
M  ISO  4  14 100  22 100  52 101  53 101
M  END
>  <TORSDO>  (49) 
F 21

>  <SCORE>  (49) 
-13.532

>  <name>  (49) 
49

>  <ligand_id>  (49) 
49

>  <original_smiles>  (49) 
[H]c1c([H])c([H])c2c(c1[H])C([H])([H])C([H])([H])C([H])([H])C2([H])N([H])C(=O)C1([H])N(C(=O)C([H])(N([H])C(=O)C([H])(N([H])C([H])([H])[H])C([H])([H])[H])C(C([H])([H])[H])(C([H])([H])[H])C([H])([H])[H])C([H])([H])c2c([H])c(OC([H])([H])c3c([H])c(N([H])C([H])([H])C([H])([H])N([H])C(=O)N4C([H])([H])C([H])([H])C([H])([H])C([H])(n5nc(-c6c([H])c([H])c(Oc7c([H])c([H])c(F)c([H])c7F)c([H])c6[H])c(C(=O)N([H])[H])c5N([H])[H])C4([H])[H])nc(C4([H])C([H])([H])C4([H])[H])c3[H])c([H])c([H])c2C1([H])[H]

>  <smiles>  (49) 
[H]c1c([H])c([H])c2c(c1[H])C([H])([H])C([H])([H])C([H])([H])C2([H])N([H])C(=O)C1([H])N(C(=O)C([H])(N([H])C(=O)C([H])(N([H])C([H])([H])[H])C([H])([H])[H])C(C([H])([H])[H])(C([H])([H])[H])C([H])([H])[H])C([H])([H])c2c([H])c(OC([H])([H])c3c([H])c(N([H])C([H])([H])C([H])([H])N([H])C(=O)N4C([H])([H])C([H])([H])C([H])([H])C([H])(n5nc(-c6c([H])c([H])c(Oc7c([H])c([H])c(F)c([H])c7F)c([H])c6[H])c(C(=O)N([H])[H])c5N([H])[H])C4([H])[H])nc(C4([H])C([H])([H])C4([H])[H])c3[H])c([H])c([H])c2C1([H])[H]

$$$$
50:0:0
     RDKit          3D

 95103  0  0  1  0  0  0  0  0999 V2000
  -27.4870  -20.6710   20.6260 C   0  0  0  0  0  2  0  0  0  0  0  0
  -28.8710  -20.2450   20.9430 N   0  0  0  0  0  4  0  0  0  0  0  0
  -28.9230  -20.0700   21.9310 H   0  0  0  0  0  0  0  0  0  0  0  0
  -29.4710  -21.0270   20.7370 H   0  0  0  0  0  0  0  0  0  0  0  0
  -29.3840  -19.0380   20.2330 C   0  0  0  0  0  2  0  0  0  0  0  0
  -30.5300  -18.3250   21.0320 C   0  0  0  0  0  3  0  0  0  0  0  0
  -31.6460  -19.2560   21.1820 N   0  0  0  0  0  0  0  0  0  0  0  0
  -31.8900  -19.7240   20.3140 H   0  0  0  0  0  0  0  0  0  0  0  0
  -31.4770  -19.9910   21.8630 H   0  0  0  0  0  0  0  0  0  0  0  0
  -31.1800  -17.0620   20.3830 C   0  0  0  0  0  2  0  0  0  0  0  0
  -31.0220  -14.6300   20.0260 C   0  0  0  0  0  0  0  0  0  0  0  0
  -30.6040  -12.4210   19.0200 C   0  0  0  0  0  2  0  0  0  0  0  0
  -29.6410  -12.5690   17.8260 C   0  0  0  0  0  2  0  0  0  0  0  0
  -28.1870  -12.4320   18.3120 C   0  0  0  0  0  2  0  0  0  0  0  0
  -27.8740  -13.3420   19.5310 C   0  0  0  0  0  3  0  0  0  0  0  0
  -28.9720  -13.2570   20.6180 C   0  0  0  0  0  2  0  0  0  0  0  0
  -30.2750  -13.4920   19.9790 N   0  0  0  0  0  0  0  0  0  0  0  0
  -32.1520  -14.6830   19.5390 O   0  0  0  0  0  0  0  0  0  0  0  0
  -30.4450  -15.7780   20.4520 N   0  0  0  0  0  0  0  0  0  0  0  0
  -29.4870  -15.7690   20.7650 H   0  0  0  0  0  0  0  0  0  0  0  0
  -25.5230  -13.9560   20.3720 C   0  0  0  0  0  0  0  0  0  0  0  0
  -24.4650  -13.1910   20.7760 C   0  0  0  0  0  0  0  0  0  0  0  0
  -24.9100  -11.8330   20.7080 C   0  0  0  0  0  0  0  0  0  0  0  0
  -26.5440  -13.0680   20.0740 N   0  0  0  0  0  0  0  0  0  0  0  0
  -26.1850  -11.7850   20.3400 N   0  0  0  0  0  0  0  0  0  0  0  0
  -24.1770  -10.5780   20.9110 C   0  0  0  0  0  0  0  0  0  0  0  0
  -24.5850   -9.6240   21.8700 C   0  0  0  0  0  3  0  0  0  0  0  0
  -23.8470   -8.4370   22.0590 C   0  0  0  0  0  3  0  0  0  0  0  0
  -22.6890   -8.1880   21.2850 C   0  0  0  0  0  0  0  0  0  0  0  0
  -22.2960   -9.1310   20.3180 C   0  0  0  0  0  3  0  0  0  0  0  0
  -23.0350  -10.3100   20.1280 C   0  0  0  0  0  3  0  0  0  0  0  0
  -21.9300   -7.0470   21.3770 O   0  0  0  0  0  0  0  0  0  0  0  0
  -21.8010   -6.3620   22.5600 C   0  0  0  0  0  0  0  0  0  0  0  0
  -21.2530   -6.9620   23.7120 C   0  0  0  0  0  3  0  0  0  0  0  0
  -21.0750   -6.2010   24.8850 C   0  0  0  0  0  3  0  0  0  0  0  0
  -21.4390   -4.8420   24.9070 C   0  0  0  0  0  0  0  0  0  0  0  0
  -21.9800   -4.2400   23.7570 C   0  0  0  0  0  3  0  0  0  0  0  0
  -22.1580   -4.9990   22.5850 C   0  0  0  0  0  0  0  0  0  0  0  0
  -22.6630   -4.4100   21.4750 F   0  0  0  0  0  0  0  0  0  0  0  0
  -21.2610   -4.1080   26.0300 F   0  0  0  0  0  0  0  0  0  0  0  0
  -23.0870  -13.6840   21.1170 C   0  0  0  0  0  0  0  0  0  0  0  0
  -22.3830  -12.9910   22.0020 N   0  0  0  0  0  0  0  0  0  0  0  0
  -22.6420  -14.7240   20.6280 O   0  0  0  0  0  0  0  0  0  0  0  0
  -22.7540  -12.1530   22.4220 H   0  0  0  0  0  0  0  0  0  0  0  0
  -21.4630  -13.3120   22.2710 H   0  0  0  0  0  0  0  0  0  0  0  0
  -25.6930  -15.3270   20.2110 N   0  0  0  0  0  0  0  0  0  0  0  0
  -24.9240  -15.9730   20.3520 H   0  0  0  0  0  0  0  0  0  0  0  0
  -26.5110  -15.7650   19.8080 H   0  0  0  0  0  0  0  0  0  0  0  0
  -27.2090  -22.1270   21.0870 C   0  0  0  0  0  2  0  0  0  0  0  0
  -27.7740  -23.0760   20.1280 N   0  0  0  0  0  0  0  0  0  0  0  0
  -27.1940  -23.0580   19.2890 H   0  0  0  0  0  0  0  0  0  0  0  0
  -29.2760  -24.8990   20.9540 C   0  0  0  0  0  2  0  0  0  0  0  0
  -27.8780  -24.4500   20.6330 C   0  0  0  0  0  3  0  0  0  0  0  0
  -28.5830  -25.4740   19.7310 C   0  0  0  0  0  3  0  0  0  0  0  0
  -28.5390  -26.8960   19.9490 O   0  0  0  0  0  0  0  0  0  0  0  0
  -24.5560  -31.7800   23.2040 C   0  0  0  0  0  0  0  0  0  0  0  0
  -27.3350  -27.5690   19.9310 C   0  0  0  0  0  0  0  0  0  0  0  0
  -23.3900  -30.4140   21.5010 C   0  0  0  0  0  3  0  0  0  0  0  0
  -24.8930  -28.9930   20.0020 C   0  0  0  0  0  0  0  0  0  0  0  0
  -25.8980  -30.8770   21.3070 C   0  0  0  0  0  2  0  0  0  0  0  0
  -26.0330  -29.5400   20.6030 C   0  0  0  0  0  0  0  0  0  0  0  0
  -27.2600  -28.8370   20.5550 C   0  0  0  0  0  3  0  0  0  0  0  0
  -26.1760  -27.0450   19.3140 C   0  0  0  0  0  3  0  0  0  0  0  0
  -24.9580  -27.7460   19.3550 C   0  0  0  0  0  3  0  0  0  0  0  0
  -23.6180  -29.8050   20.0910 C   0  0  0  0  0  2  0  0  0  0  0  0
  -24.6330  -31.0330   22.0650 N   0  0  0  0  0  0  0  0  0  0  0  0
  -23.4690  -31.9880   23.7650 O   0  0  0  0  0  0  0  0  0  0  0  0
  -22.7870  -29.3270   22.4200 C   0  0  0  0  0  0  0  0  0  0  0  0
  -21.4730  -29.0830   22.2760 N   0  0  0  0  0  0  0  0  0  0  0  0
  -23.4940  -28.7070   23.2140 O   0  0  0  0  0  0  0  0  0  0  0  0
  -20.9600  -29.6450   21.6120 H   0  0  0  0  0  0  0  0  0  0  0  0
  -18.1600  -27.6970   22.6680 C   0  0  0  0  0  0  0  0  0  0  0  0
  -20.6950  -28.0740   22.9950 C   0  0  0  0  0  3  0  0  0  0  0  0
  -20.8800  -26.6730   22.3700 C   0  0  0  0  0  2  0  0  0  0  0  0
  -19.8130  -26.3320   21.3270 C   0  0  0  0  0  2  0  0  0  0  0  0
  -18.4170  -26.3840   21.9510 C   0  0  0  0  0  2  0  0  0  0  0  0
  -19.2300  -28.4990   23.1440 C   0  0  0  0  0  0  0  0  0  0  0  0
  -18.9420  -29.7240   23.7770 C   0  0  0  0  0  3  0  0  0  0  0  0
  -17.6080  -30.1520   23.9380 C   0  0  0  0  0  3  0  0  0  0  0  0
  -16.5530  -29.3480   23.4760 C   0  0  0  0  0  3  0  0  0  0  0  0
  -16.8270  -28.1210   22.8510 C   0  0  0  0  0  3  0  0  0  0  0  0
  -25.8230  -32.4270   23.8480 C   0  0  0  0  0  3  0  0  0  0  0  0
  -25.4880  -33.8190   24.1670 N   0  0  0  0  0  0  0  0  0  0  0  0
  -25.8260  -34.8730   23.4130 C   0  0  0  0  0  0  0  0  0  0  0  0
  -26.5230  -34.7760   22.4010 O   0  0  0  0  0  0  0  0  0  0  0  0
  -24.8730  -33.9650   24.9530 H   0  0  0  0  0  0  0  0  0  0  0  0
  -24.0960  -36.6480   23.0000 C   0  0  0  0  0  1  0  0  0  0  0  0
  -25.3130  -36.2550   23.8520 C   0  0  0  0  0  3  0  0  0  0  0  0
  -27.4070  -37.1720   24.7560 C   0  0  0  0  0  1  0  0  0  0  0  0
  -26.3420  -37.3170   23.7690 N   0  0  0  0  0  0  0  0  0  0  0  0
  -25.9220  -38.2370   23.8850 H   0  0  0  0  0  0  0  0  0  0  0  0
  -26.3240  -31.6610   25.1370 C   0  0  1  0  0  0  0  0  0  0  0  0
  -25.2110  -31.4150   26.1830 C   0  0  0  0  0  1  0  0  0  0  0  0
  -26.9320  -30.2910   24.7580 C   0  0  0  0  0  1  0  0  0  0  0  0
  -27.4540  -32.4670   25.8210 C   0  0  0  0  0  1  0  0  0  0  0  0
  1  2  1  0
  1 49  1  0
  2  3  1  0
  4  2  1  0
  5  2  1  0
  6  5  1  0
  6  7  1  0
  7  9  1  0
  8  7  1  0
 10 19  1  0
 10  6  1  0
 11 19  1  0
 12 17  1  0
 13 14  1  0
 13 12  1  0
 15 14  1  0
 15 24  1  0
 15 16  1  0
 17 11  1  0
 17 16  1  0
 18 11  2  0
 19 20  1  0
 21 22  2  0
 22 41  1  0
 23 22  1  0
 23 26  1  0
 24 25  1  0
 24 21  1  0
 25 23  2  0
 26 27  1  0
 27 28  2  0
 29 32  1  0
 29 28  1  0
 30 29  2  0
 31 30  1  0
 31 26  2  0
 32 33  1  0
 33 38  2  0
 33 34  1  0
 34 35  2  0
 35 36  1  0
 36 40  1  0
 37 36  2  0
 38 37  1  0
 39 38  1  0
 41 42  1  0
 42 45  1  0
 42 44  1  0
 43 41  2  0
 46 47  1  0
 46 21  1  0
 48 46  1  0
 50 49  1  0
 51 50  1  0
 53 50  1  0
 53 52  1  0
 54 55  1  0
 54 53  1  0
 54 52  1  0
 56 67  2  0
 57 55  1  0
 57 62  1  0
 58 66  1  0
 58 68  1  0
 59 65  1  0
 59 61  1  0
 60 66  1  0
 61 60  1  0
 62 61  2  0
 63 64  1  0
 63 57  2  0
 64 59  2  0
 65 58  1  0
 66 56  1  0
 68 70  2  0
 69 68  1  0
 71 69  1  0
 72 81  2  0
 72 77  1  0
 73 69  1  0
 73 77  1  0
 74 73  1  0
 75 76  1  0
 75 74  1  0
 76 72  1  0
 77 78  2  0
 78 79  1  0
 80 79  2  0
 81 80  1  0
 82 56  1  0
 82 83  1  0
 82 92  1  0
 83 86  1  0
 84 88  1  0
 84 83  1  0
 85 84  2  0
 88 87  1  0
 90 88  1  0
 90 91  1  0
 90 89  1  0
 92 95  1  1
 92 93  1  0
 94 92  1  0
M  ISO  4  11 100  19 100  54 101  55 101
M  END
>  <TORSDO>  (50) 
F 24

>  <SCORE>  (50) 
-11.857

>  <name>  (50) 
50

>  <ligand_id>  (50) 
50

>  <original_smiles>  (50) 
[H]c1c([H])c([H])c2c(c1[H])C([H])([H])C([H])([H])C([H])([H])C2([H])N([H])C(=O)C1([H])N(C(=O)C([H])(N([H])C(=O)C([H])(N([H])C([H])([H])[H])C([H])([H])[H])C(C([H])([H])[H])(C([H])([H])[H])C([H])([H])[H])C([H])([H])c2c([H])c(OC3([H])C([H])([H])C3([H])N([H])C([H])([H])C([H])([H])[N+]([H])([H])C([H])([H])C([H])(N([H])[H])C([H])([H])N([H])C(=O)N3C([H])([H])C([H])([H])C([H])([H])C([H])(n4nc(-c5c([H])c([H])c(Oc6c([H])c([H])c(F)c([H])c6F)c([H])c5[H])c(C(=O)N([H])[H])c4N([H])[H])C3([H])[H])c([H])c([H])c2C1([H])[H]

>  <smiles>  (50) 
[H]c1c([H])c([H])c2c(c1[H])C([H])([H])C([H])([H])C([H])([H])C2([H])N([H])C(=O)C1([H])N(C(=O)C([H])(N([H])C(=O)C([H])(N([H])C([H])([H])[H])C([H])([H])[H])C(C([H])([H])[H])(C([H])([H])[H])C([H])([H])[H])C([H])([H])c2c([H])c(OC3([H])C([H])([H])C3([H])N([H])C([H])([H])C([H])([H])[N+]([H])([H])C([H])([H])C([H])(N([H])[H])C([H])([H])N([H])C(=O)N3C([H])([H])C([H])([H])C([H])([H])C([H])(n4nc(-c5c([H])c([H])c(Oc6c([H])c([H])c(F)c([H])c6F)c([H])c5[H])c(C(=O)N([H])[H])c4N([H])[H])C3([H])[H])c([H])c([H])c2C1([H])[H]

$$$$
51:0:0
     RDKit          3D

 91100  0  0  1  0  0  0  0  0999 V2000
  -30.5340  -15.1610   20.4150 C   0  0  0  0  0  0  0  0  0  0  0  0
  -30.4370  -12.7880   19.4620 C   0  0  0  0  0  2  0  0  0  0  0  0
  -29.5350  -12.7520   18.2030 C   0  0  0  0  0  2  0  0  0  0  0  0
  -28.0620  -12.5350   18.5970 C   0  0  0  0  0  2  0  0  0  0  0  0
  -27.6360  -13.4360   19.7840 C   0  0  0  0  0  3  0  0  0  0  0  0
  -28.6660  -13.4340   20.9340 C   0  0  0  0  0  2  0  0  0  0  0  0
  -29.9480  -13.8800   20.3690 N   0  0  0  0  0  0  0  0  0  0  0  0
  -31.7260  -15.1940   20.0750 O   0  0  0  0  0  0  0  0  0  0  0  0
  -29.4880  -17.9150   18.8390 C   0  0  0  0  0  3  0  0  0  0  0  0
  -29.0110  -20.3350   18.8840 C   0  0  0  0  0  3  0  0  0  0  0  0
  -29.1440  -19.1180   18.1760 C   0  0  0  0  0  0  0  0  0  0  0  0
  -29.6920  -17.8410   20.2310 C   0  0  0  0  0  0  0  0  0  0  0  0
  -29.2420  -20.3900   20.2640 C   0  0  0  0  0  0  0  0  0  0  0  0
  -29.5660  -19.1280   20.8990 N   0  0  0  0  0  0  0  0  0  0  0  0
  -29.8080  -16.3680   20.7650 N   0  0  0  0  0  0  0  0  0  0  0  0
  -29.0110  -16.1340   21.3360 H   0  0  0  0  0  0  0  0  0  0  0  0
  -25.2390  -14.0150   20.4500 C   0  0  0  0  0  0  0  0  0  0  0  0
  -24.1650  -13.2440   20.7980 C   0  0  0  0  0  0  0  0  0  0  0  0
  -24.6290  -11.8930   20.7980 C   0  0  0  0  0  0  0  0  0  0  0  0
  -26.2870  -13.1340   20.2480 N   0  0  0  0  0  0  0  0  0  0  0  0
  -25.9300  -11.8540   20.5250 N   0  0  0  0  0  0  0  0  0  0  0  0
  -23.8960  -10.6330   20.9840 C   0  0  0  0  0  0  0  0  0  0  0  0
  -24.3120   -9.6660   21.9240 C   0  0  0  0  0  3  0  0  0  0  0  0
  -23.5760   -8.4740   22.0990 C   0  0  0  0  0  3  0  0  0  0  0  0
  -22.4090   -8.2400   21.3320 C   0  0  0  0  0  0  0  0  0  0  0  0
  -22.0120   -9.1970   20.3800 C   0  0  0  0  0  3  0  0  0  0  0  0
  -22.7490  -10.3800   20.2050 C   0  0  0  0  0  3  0  0  0  0  0  0
  -21.6470   -7.1000   21.4150 O   0  0  0  0  0  0  0  0  0  0  0  0
  -21.5980   -6.3490   22.5620 C   0  0  0  0  0  0  0  0  0  0  0  0
  -21.2060   -6.9040   23.8000 C   0  0  0  0  0  3  0  0  0  0  0  0
  -21.1010   -6.0810   24.9390 C   0  0  0  0  0  3  0  0  0  0  0  0
  -21.3780   -4.7050   24.8420 C   0  0  0  0  0  0  0  0  0  0  0  0
  -21.7640   -4.1490   23.6100 C   0  0  0  0  0  3  0  0  0  0  0  0
  -21.8700   -4.9690   22.4720 C   0  0  0  0  0  0  0  0  0  0  0  0
  -22.2210   -4.4250   21.2820 F   0  0  0  0  0  0  0  0  0  0  0  0
  -21.2710   -3.9120   25.9340 F   0  0  0  0  0  0  0  0  0  0  0  0
  -22.7610  -13.7260   21.0200 C   0  0  0  0  0  0  0  0  0  0  0  0
  -22.0120  -13.0540   21.8860 N   0  0  0  0  0  0  0  0  0  0  0  0
  -22.3380  -14.7360   20.4600 O   0  0  0  0  0  0  0  0  0  0  0  0
  -22.3670  -12.2380   22.3630 H   0  0  0  0  0  0  0  0  0  0  0  0
  -21.0680  -13.3610   22.0780 H   0  0  0  0  0  0  0  0  0  0  0  0
  -25.4080  -15.3830   20.2600 N   0  0  0  0  0  0  0  0  0  0  0  0
  -24.6340  -16.0360   20.3400 H   0  0  0  0  0  0  0  0  0  0  0  0
  -26.2560  -15.8160   19.9190 H   0  0  0  0  0  0  0  0  0  0  0  0
  -27.6720  -19.7110   16.0930 C   0  0  0  0  0  2  0  0  0  0  0  0
  -27.8540  -18.2110   16.0890 C   0  0  0  0  0  2  0  0  0  0  0  0
  -28.9150  -19.1000   16.6970 C   0  0  0  0  0  3  0  0  0  0  0  0
  -29.2750  -21.7280   20.9190 O   0  0  0  0  0  0  0  0  0  0  0  0
  -28.3790  -23.0290   20.6950 C   0  0  0  0  0  2  0  0  0  0  0  0
  -28.6510  -24.6590   20.1350 C   0  0  0  0  0  2  0  0  0  0  0  0
  -28.4530  -26.1520   20.6810 O   0  0  0  0  0  0  0  0  0  0  0  0
  -24.6580  -31.9650   23.2810 C   0  0  0  0  0  0  0  0  0  0  0  0
  -27.3930  -27.1380   20.4780 C   0  0  0  0  0  0  0  0  0  0  0  0
  -23.5330  -30.5050   21.6450 C   0  0  0  0  0  3  0  0  0  0  0  0
  -25.0490  -28.8980   20.3070 C   0  0  0  0  0  0  0  0  0  0  0  0
  -26.0900  -30.7820   21.5630 C   0  0  0  0  0  2  0  0  0  0  0  0
  -26.2010  -29.3650   20.9510 C   0  0  0  0  0  0  0  0  0  0  0  0
  -27.3650  -28.4990   21.0200 C   0  0  0  0  0  3  0  0  0  0  0  0
  -26.2170  -26.7870   19.7810 C   0  0  0  0  0  3  0  0  0  0  0  0
  -25.0760  -27.6260   19.7060 C   0  0  0  0  0  3  0  0  0  0  0  0
  -23.8100  -29.7870   20.2940 C   0  0  0  0  0  2  0  0  0  0  0  0
  -24.7780  -31.1110   22.2170 N   0  0  0  0  0  0  0  0  0  0  0  0
  -23.5510  -32.2510   23.7640 O   0  0  0  0  0  0  0  0  0  0  0  0
  -22.8320  -29.5230   22.6170 C   0  0  0  0  0  0  0  0  0  0  0  0
  -21.5050  -29.3510   22.4710 N   0  0  0  0  0  0  0  0  0  0  0  0
  -23.4860  -28.9150   23.4680 O   0  0  0  0  0  0  0  0  0  0  0  0
  -21.0320  -29.8920   21.7600 H   0  0  0  0  0  0  0  0  0  0  0  0
  -18.1100  -28.1800   22.9630 C   0  0  0  0  0  0  0  0  0  0  0  0
  -20.6700  -28.4290   23.2450 C   0  0  0  0  0  3  0  0  0  0  0  0
  -20.7650  -26.9900   22.6880 C   0  0  0  0  0  2  0  0  0  0  0  0
  -19.6690  -26.6640   21.6690 C   0  0  0  0  0  2  0  0  0  0  0  0
  -18.2840  -26.8240   22.3000 C   0  0  0  0  0  2  0  0  0  0  0  0
  -19.2310  -28.9410   23.3930 C   0  0  0  0  0  0  0  0  0  0  0  0
  -19.0130  -30.2080   23.9750 C   0  0  0  0  0  3  0  0  0  0  0  0
  -17.7100  -30.7160   24.1310 C   0  0  0  0  0  3  0  0  0  0  0  0
  -16.6050  -29.9530   23.7160 C   0  0  0  0  0  3  0  0  0  0  0  0
  -16.8050  -28.6870   23.1380 C   0  0  0  0  0  3  0  0  0  0  0  0
  -25.9040  -32.6420   23.9320 C   0  0  0  0  0  3  0  0  0  0  0  0
  -26.3880  -31.9140   25.2460 C   0  0  1  0  0  0  0  0  0  0  0  0
  -25.2610  -31.6740   26.2790 C   0  0  0  0  0  1  0  0  0  0  0  0
  -27.0190  -30.5410   24.9170 C   0  0  0  0  0  1  0  0  0  0  0  0
  -27.4940  -32.7500   25.9330 C   0  0  0  0  0  1  0  0  0  0  0  0
  -25.5550  -34.0420   24.2260 N   0  0  0  0  0  0  0  0  0  0  0  0
  -25.8900  -35.0920   23.4640 C   0  0  0  0  0  0  0  0  0  0  0  0
  -26.5900  -34.9850   22.4530 O   0  0  0  0  0  0  0  0  0  0  0  0
  -24.9350  -34.1970   25.0070 H   0  0  0  0  0  0  0  0  0  0  0  0
  -24.1390  -36.8530   23.0480 C   0  0  0  0  0  1  0  0  0  0  0  0
  -25.3710  -36.4800   23.8900 C   0  0  0  0  0  3  0  0  0  0  0  0
  -27.4720  -37.4190   24.7460 C   0  0  0  0  0  1  0  0  0  0  0  0
  -26.3860  -37.5510   23.7790 N   0  0  0  0  0  0  0  0  0  0  0  0
  -25.9610  -38.4650   23.9020 H   0  0  0  0  0  0  0  0  0  0  0  0
  1 15  1  0
  2  7  1  0
  3  4  1  0
  3  2  1  0
  5  4  1  0
  5 20  1  0
  5  6  1  0
  7  1  1  0
  7  6  1  0
  8  1  2  0
  9 12  2  0
 10 13  1  0
 11  9  1  0
 11 10  2  0
 12 15  1  0
 12 14  1  0
 13 14  2  0
 13 48  1  0
 15 16  1  0
 17 18  2  0
 18 19  1  0
 18 37  1  0
 19 22  1  0
 20 17  1  0
 20 21  1  0
 21 19  2  0
 22 23  1  0
 23 24  2  0
 25 28  1  0
 25 24  1  0
 26 25  2  0
 27 26  1  0
 27 22  2  0
 28 29  1  0
 29 30  1  0
 30 31  2  0
 32 31  1  0
 32 36  1  0
 33 32  2  0
 34 29  2  0
 34 33  1  0
 35 34  1  0
 37 38  1  0
 38 41  1  0
 38 40  1  0
 39 37  2  0
 42 43  1  0
 42 17  1  0
 44 42  1  0
 45 47  1  0
 46 45  1  0
 46 47  1  0
 47 11  1  0
 49 48  1  0
 50 51  1  0
 50 49  1  0
 52 63  2  0
 53 51  1  0
 53 58  1  0
 54 62  1  0
 54 64  1  0
 55 57  1  0
 56 62  1  0
 57 58  2  0
 57 56  1  0
 59 53  2  0
 60 59  1  0
 60 55  2  0
 61 55  1  0
 61 54  1  0
 62 52  1  0
 64 66  2  0
 65 64  1  0
 67 65  1  0
 68 77  2  0
 68 73  1  0
 69 65  1  0
 69 73  1  0
 70 69  1  0
 71 72  1  0
 71 70  1  0
 72 68  1  0
 73 74  2  0
 74 75  1  0
 76 75  2  0
 77 76  1  0
 78 52  1  0
 78 83  1  0
 78 79  1  0
 79 82  1  1
 79 80  1  0
 81 79  1  0
 83 86  1  0
 84 88  1  0
 84 83  1  0
 85 84  2  0
 88 87  1  0
 90 88  1  0
 90 91  1  0
 90 89  1  0
M  ISO  4   1 100  15 100  50 101  51 101
M  END
>  <TORSDO>  (51) 
F 19

>  <SCORE>  (51) 
-14.201

>  <name>  (51) 
51

>  <ligand_id>  (51) 
51

>  <original_smiles>  (51) 
[H]c1c([H])c([H])c2c(c1[H])C([H])([H])C([H])([H])C([H])([H])C2([H])N([H])C(=O)C1([H])N(C(=O)C([H])(N([H])C(=O)C([H])(N([H])C([H])([H])[H])C([H])([H])[H])C(C([H])([H])[H])(C([H])([H])[H])C([H])([H])[H])C([H])([H])c2c([H])c(OC([H])([H])C([H])([H])Oc3nc(N([H])C(=O)N4C([H])([H])C([H])([H])C([H])([H])C([H])(n5nc(-c6c([H])c([H])c(Oc7c([H])c([H])c(F)c([H])c7F)c([H])c6[H])c(C(=O)N([H])[H])c5N([H])[H])C4([H])[H])c([H])c(C4([H])C([H])([H])C4([H])[H])c3[H])c([H])c([H])c2C1([H])[H]

>  <smiles>  (51) 
[H]c1c([H])c([H])c2c(c1[H])C([H])([H])C([H])([H])C([H])([H])C2([H])N([H])C(=O)C1([H])N(C(=O)C([H])(N([H])C(=O)C([H])(N([H])C([H])([H])[H])C([H])([H])[H])C(C([H])([H])[H])(C([H])([H])[H])C([H])([H])[H])C([H])([H])c2c([H])c(OC([H])([H])C([H])([H])Oc3nc(N([H])C(=O)N4C([H])([H])C([H])([H])C([H])([H])C([H])(n5nc(-c6c([H])c([H])c(Oc7c([H])c([H])c(F)c([H])c7F)c([H])c6[H])c(C(=O)N([H])[H])c5N([H])[H])C4([H])[H])c([H])c(C4([H])C([H])([H])C4([H])[H])c3[H])c([H])c([H])c2C1([H])[H]

$$$$
52:0:0
     RDKit          3D

 94103  0  0  1  0  0  0  0  0999 V2000
  -26.8660  -22.7010   21.5150 C   0  0  0  0  0  2  0  0  0  0  0  0
  -25.8180  -22.9300   20.4370 C   0  0  0  0  0  2  0  0  0  0  0  0
  -27.9580  -22.6960   20.4110 C   0  0  2  0  0  0  0  0  0  0  0  0
  -26.8430  -22.6270   19.4500 N   0  0  0  0  0  4  0  0  0  0  0  0
  -26.8940  -23.2890   18.6950 H   0  0  0  0  0  0  0  0  0  0  0  0
  -26.7400  -21.6890   19.0980 H   0  0  0  0  0  0  0  0  0  0  0  0
  -28.8120  -20.3390   21.2540 C   0  0  0  0  0  3  0  0  0  0  0  0
  -29.2430  -20.9140   18.9650 C   0  0  0  0  0  3  0  0  0  0  0  0
  -29.2030  -18.9880   21.0060 C   0  0  0  0  0  3  0  0  0  0  0  0
  -29.6360  -19.5660   18.7170 C   0  0  0  0  0  3  0  0  0  0  0  0
  -28.7420  -21.3290   20.2270 C   0  0  0  0  0  0  0  0  0  0  0  0
  -29.5810  -18.5560   19.7130 C   0  0  0  0  0  0  0  0  0  0  0  0
  -29.8480  -17.0610   19.3070 C   0  0  0  0  0  2  0  0  0  0  0  0
  -30.8570  -14.8820   20.0200 C   0  0  0  0  0  0  0  0  0  0  0  0
  -30.5960  -12.6550   18.9610 C   0  0  0  0  0  2  0  0  0  0  0  0
  -29.6080  -12.7690   17.7790 C   0  0  0  0  0  2  0  0  0  0  0  0
  -28.1610  -12.5820   18.2650 C   0  0  0  0  0  2  0  0  0  0  0  0
  -27.8350  -13.4620   19.5030 C   0  0  0  0  0  3  0  0  0  0  0  0
  -28.9280  -13.3440   20.5860 C   0  0  0  0  0  2  0  0  0  0  0  0
  -30.2110  -13.6760   19.9540 N   0  0  0  0  0  0  0  0  0  0  0  0
  -32.0080  -15.0140   19.5950 O   0  0  0  0  0  0  0  0  0  0  0  0
  -30.1100  -15.9860   20.3210 N   0  0  0  0  0  0  0  0  0  0  0  0
  -30.4140  -16.3920   21.1950 H   0  0  0  0  0  0  0  0  0  0  0  0
  -25.4730  -14.0430   20.3250 C   0  0  0  0  0  0  0  0  0  0  0  0
  -24.4200  -13.2630   20.7130 C   0  0  0  0  0  0  0  0  0  0  0  0
  -24.8810  -11.9120   20.6390 C   0  0  0  0  0  0  0  0  0  0  0  0
  -26.5070  -13.1680   20.0340 N   0  0  0  0  0  0  0  0  0  0  0  0
  -26.1590  -11.8800   20.2860 N   0  0  0  0  0  0  0  0  0  0  0  0
  -24.1650  -10.6460   20.8280 C   0  0  0  0  0  0  0  0  0  0  0  0
  -24.5720   -9.7010   21.7970 C   0  0  0  0  0  3  0  0  0  0  0  0
  -23.8530   -8.4990   21.9650 C   0  0  0  0  0  3  0  0  0  0  0  0
  -22.7160   -8.2300   21.1680 C   0  0  0  0  0  0  0  0  0  0  0  0
  -22.3330   -9.1610   20.1860 C   0  0  0  0  0  3  0  0  0  0  0  0
  -23.0520  -10.3570   20.0140 C   0  0  0  0  0  3  0  0  0  0  0  0
  -21.9690   -7.0800   21.2470 O   0  0  0  0  0  0  0  0  0  0  0  0
  -21.8030   -6.4100   22.4330 C   0  0  0  0  0  0  0  0  0  0  0  0
  -21.2240   -7.0300   23.5610 C   0  0  0  0  0  3  0  0  0  0  0  0
  -21.0060   -6.2850   24.7370 C   0  0  0  0  0  3  0  0  0  0  0  0
  -21.3550   -4.9220   24.7850 C   0  0  0  0  0  0  0  0  0  0  0  0
  -21.9270   -4.3030   23.6590 C   0  0  0  0  0  3  0  0  0  0  0  0
  -22.1470   -5.0440   22.4840 C   0  0  0  0  0  0  0  0  0  0  0  0
  -22.6780   -4.4360   21.3960 F   0  0  0  0  0  0  0  0  0  0  0  0
  -21.1400   -4.2040   25.9130 F   0  0  0  0  0  0  0  0  0  0  0  0
  -23.0320  -13.7310   21.0420 C   0  0  0  0  0  0  0  0  0  0  0  0
  -22.3370  -13.0180   21.9200 N   0  0  0  0  0  0  0  0  0  0  0  0
  -22.5800  -14.7730   20.5660 O   0  0  0  0  0  0  0  0  0  0  0  0
  -22.7170  -12.1710   22.3180 H   0  0  0  0  0  0  0  0  0  0  0  0
  -21.4170  -13.3250   22.1980 H   0  0  0  0  0  0  0  0  0  0  0  0
  -25.6430  -15.4160   20.1730 N   0  0  0  0  0  0  0  0  0  0  0  0
  -24.9100  -16.0950   20.3340 H   0  0  0  0  0  0  0  0  0  0  0  0
  -26.5200  -15.8450   19.9020 H   0  0  0  0  0  0  0  0  0  0  0  0
  -28.7580  -24.0600   20.1550 C   0  0  0  0  0  2  0  0  0  0  0  0
  -28.1220  -25.4180   20.7200 C   0  0  0  0  0  2  0  0  0  0  0  0
  -28.3700  -26.7250   20.0820 O   0  0  0  0  0  0  0  0  0  0  0  0
  -24.5890  -31.9640   23.2290 C   0  0  0  0  0  0  0  0  0  0  0  0
  -27.2580  -27.5670   20.0490 C   0  0  0  0  0  0  0  0  0  0  0  0
  -23.3910  -30.5790   21.5720 C   0  0  0  0  0  3  0  0  0  0  0  0
  -24.8610  -29.1050   20.0920 C   0  0  0  0  0  0  0  0  0  0  0  0
  -25.9210  -30.9740   21.3590 C   0  0  0  0  0  2  0  0  0  0  0  0
  -26.0260  -29.6170   20.6810 C   0  0  0  0  0  0  0  0  0  0  0  0
  -27.2320  -28.8610   20.6470 C   0  0  0  0  0  3  0  0  0  0  0  0
  -26.0760  -27.1050   19.4320 C   0  0  0  0  0  3  0  0  0  0  0  0
  -24.8850  -27.8550   19.4600 C   0  0  0  0  0  3  0  0  0  0  0  0
  -23.6070  -29.9520   20.1720 C   0  0  0  0  0  2  0  0  0  0  0  0
  -24.6530  -31.1880   22.1120 N   0  0  0  0  0  0  0  0  0  0  0  0
  -23.5080  -32.2100   23.7840 O   0  0  0  0  0  0  0  0  0  0  0  0
  -22.7640  -29.5270   22.5160 C   0  0  0  0  0  0  0  0  0  0  0  0
  -21.4400  -29.3190   22.3980 N   0  0  0  0  0  0  0  0  0  0  0  0
  -23.4630  -28.8980   23.3120 O   0  0  0  0  0  0  0  0  0  0  0  0
  -20.9240  -29.8900   21.7440 H   0  0  0  0  0  0  0  0  0  0  0  0
  -18.1010  -28.0030   22.8390 C   0  0  0  0  0  0  0  0  0  0  0  0
  -20.6500  -28.3290   23.1330 C   0  0  0  0  0  3  0  0  0  0  0  0
  -20.8010  -26.9200   22.5100 C   0  0  0  0  0  2  0  0  0  0  0  0
  -19.6990  -26.5720   21.5030 C   0  0  0  0  0  2  0  0  0  0  0  0
  -18.3160  -26.6660   22.1520 C   0  0  0  0  0  2  0  0  0  0  0  0
  -19.1960  -28.7840   23.2950 C   0  0  0  0  0  0  0  0  0  0  0  0
  -18.9350  -30.0290   23.9080 C   0  0  0  0  0  3  0  0  0  0  0  0
  -17.6190  -30.4980   24.0720 C   0  0  0  0  0  3  0  0  0  0  0  0
  -16.5390  -29.7090   23.6330 C   0  0  0  0  0  3  0  0  0  0  0  0
  -16.7830  -28.4630   23.0260 C   0  0  0  0  0  3  0  0  0  0  0  0
  -25.8690  -32.6090   23.8470 C   0  0  0  0  0  3  0  0  0  0  0  0
  -26.3980  -31.8440   25.1220 C   0  0  1  0  0  0  0  0  0  0  0  0
  -25.3110  -31.5920   26.1900 C   0  0  0  0  0  1  0  0  0  0  0  0
  -26.9960  -30.4720   24.7320 C   0  0  0  0  0  1  0  0  0  0  0  0
  -27.5390  -32.6510   25.7870 C   0  0  0  0  0  1  0  0  0  0  0  0
  -25.5490  -34.0030   24.1750 N   0  0  0  0  0  0  0  0  0  0  0  0
  -25.8770  -35.0590   23.4160 C   0  0  0  0  0  0  0  0  0  0  0  0
  -26.5480  -34.9590   22.3870 O   0  0  0  0  0  0  0  0  0  0  0  0
  -24.9560  -34.1580   24.9760 H   0  0  0  0  0  0  0  0  0  0  0  0
  -24.1380  -36.8410   23.0550 C   0  0  0  0  0  1  0  0  0  0  0  0
  -25.3770  -36.4440   23.8730 C   0  0  0  0  0  3  0  0  0  0  0  0
  -27.4980  -37.3430   24.7200 C   0  0  0  0  0  1  0  0  0  0  0  0
  -26.4010  -37.5040   23.7690 N   0  0  0  0  0  0  0  0  0  0  0  0
  -25.9880  -38.4220   23.9130 H   0  0  0  0  0  0  0  0  0  0  0  0
  2  1  1  0
  3 52  1  6
  3  1  1  0
  4  3  1  0
  4  2  1  0
  5  4  1  0
  6  4  1  0
  8 11  1  0
  9  7  1  0
 10  8  2  0
 10 12  1  0
 11  3  1  0
 11  7  2  0
 12  9  2  0
 13 12  1  0
 13 22  1  0
 14 22  1  0
 15 20  1  0
 16 17  1  0
 16 15  1  0
 18 17  1  0
 18 27  1  0
 18 19  1  0
 20 14  1  0
 20 19  1  0
 21 14  2  0
 22 23  1  0
 24 25  2  0
 25 44  1  0
 26 25  1  0
 26 29  1  0
 27 28  1  0
 27 24  1  0
 28 26  2  0
 29 30  1  0
 30 31  2  0
 32 35  1  0
 32 31  1  0
 33 32  2  0
 34 33  1  0
 34 29  2  0
 35 36  1  0
 36 41  2  0
 36 37  1  0
 37 38  2  0
 38 39  1  0
 39 43  1  0
 40 39  2  0
 41 40  1  0
 42 41  1  0
 44 45  1  0
 45 48  1  0
 45 47  1  0
 46 44  2  0
 49 24  1  0
 49 50  1  0
 51 49  1  0
 52 53  1  0
 54 53  1  0
 55 66  2  0
 56 54  1  0
 56 61  1  0
 57 65  1  0
 57 67  1  0
 58 64  1  0
 58 60  1  0
 59 65  1  0
 60 59  1  0
 61 60  2  0
 62 63  1  0
 62 56  2  0
 63 58  2  0
 64 57  1  0
 65 55  1  0
 67 69  2  0
 68 67  1  0
 70 68  1  0
 71 80  2  0
 71 76  1  0
 72 68  1  0
 72 76  1  0
 73 72  1  0
 74 75  1  0
 74 73  1  0
 75 71  1  0
 76 77  2  0
 77 78  1  0
 79 78  2  0
 80 79  1  0
 81 55  1  0
 81 86  1  0
 81 82  1  0
 82 85  1  1
 82 83  1  0
 84 82  1  0
 86 89  1  0
 87 91  1  0
 87 86  1  0
 88 87  2  0
 91 90  1  0
 93 91  1  0
 93 94  1  0
 93 92  1  0
M  ISO  4  14 100  22 100  53 101  54 101
M  END
>  <TORSDO>  (52) 
F 20

>  <SCORE>  (52) 
-12.963

>  <name>  (52) 
52

>  <ligand_id>  (52) 
52

>  <original_smiles>  (52) 
[H]c1c([H])c([H])c2c(c1[H])C([H])([H])C([H])([H])C([H])([H])C2([H])N([H])C(=O)C1([H])N(C(=O)C([H])(N([H])C(=O)C([H])(N([H])C([H])([H])[H])C([H])([H])[H])C(C([H])([H])[H])(C([H])([H])[H])C([H])([H])[H])C([H])([H])c2c([H])c(OC([H])([H])C([H])([H])C3(c4c([H])c([H])c(C([H])([H])N([H])C(=O)N5C([H])([H])C([H])([H])C([H])([H])C([H])(n6nc(-c7c([H])c([H])c(Oc8c([H])c([H])c(F)c([H])c8F)c([H])c7[H])c(C(=O)N([H])[H])c6N([H])[H])C5([H])[H])c([H])c4[H])C([H])([H])C([H])([H])[N+]3([H])[H])c([H])c([H])c2C1([H])[H]

>  <smiles>  (52) 
[H]c1c([H])c([H])c2c(c1[H])C([H])([H])C([H])([H])C([H])([H])C2([H])N([H])C(=O)C1([H])N(C(=O)C([H])(N([H])C(=O)C([H])(N([H])C([H])([H])[H])C([H])([H])[H])C(C([H])([H])[H])(C([H])([H])[H])C([H])([H])[H])C([H])([H])c2c([H])c(OC([H])([H])C([H])([H])C3(c4c([H])c([H])c(C([H])([H])N([H])C(=O)N5C([H])([H])C([H])([H])C([H])([H])C([H])(n6nc(-c7c([H])c([H])c(Oc8c([H])c([H])c(F)c([H])c8F)c([H])c7[H])c(C(=O)N([H])[H])c6N([H])[H])C5([H])[H])c([H])c4[H])C([H])([H])C([H])([H])[N+]3([H])[H])c([H])c([H])c2C1([H])[H]

$$$$
53:0:0
     RDKit          3D

 93101  0  0  1  0  0  0  0  0999 V2000
  -28.8340  -22.0610   19.9120 C   0  0  0  0  0  3  0  0  0  0  0  0
  -28.8410  -20.6470   19.9710 C   0  0  0  0  0  3  0  0  0  0  0  0
  -29.6450  -20.7620   22.2540 C   0  0  0  0  0  3  0  0  0  0  0  0
  -29.2290  -22.8400   21.0250 C   0  0  0  0  0  0  0  0  0  0  0  0
  -29.2310  -19.9840   21.1560 C   0  0  0  0  0  0  0  0  0  0  0  0
  -29.6780  -22.1790   22.1950 C   0  0  0  0  0  0  0  0  0  0  0  0
  -30.6420  -22.3010   24.3960 C   0  0  0  0  0  1  0  0  0  0  0  0
  -30.1450  -22.9560   23.2370 O   0  0  0  0  0  0  0  0  0  0  0  0
  -29.2270  -18.5870   21.3270 N   0  0  0  0  0  0  0  0  0  0  0  0
  -29.5130  -18.2350   22.2370 H   0  0  0  0  0  0  0  0  0  0  0  0
  -29.2120  -17.6060   20.2440 C   0  0  0  0  0  2  0  0  0  0  0  0
  -30.3470  -16.5670   20.4350 C   0  0  0  0  0  2  0  0  0  0  0  0
  -30.5850  -14.1510   19.8480 C   0  0  0  0  0  0  0  0  0  0  0  0
  -30.2590  -11.9210   18.8470 C   0  0  0  0  0  2  0  0  0  0  0  0
  -29.2210  -12.0460   17.7120 C   0  0  0  0  0  2  0  0  0  0  0  0
  -27.7840  -11.9220   18.2620 C   0  0  0  0  0  2  0  0  0  0  0  0
  -27.5350  -12.8200   19.5050 C   0  0  0  0  0  3  0  0  0  0  0  0
  -28.6750  -12.6550   20.5310 C   0  0  0  0  0  2  0  0  0  0  0  0
  -29.9410  -12.9540   19.8430 N   0  0  0  0  0  0  0  0  0  0  0  0
  -31.6750  -14.3300   19.2970 O   0  0  0  0  0  0  0  0  0  0  0  0
  -29.8880  -15.1760   20.3690 N   0  0  0  0  0  0  0  0  0  0  0  0
  -28.9830  -14.9630   20.7590 H   0  0  0  0  0  0  0  0  0  0  0  0
  -25.2360  -13.4490   20.4810 C   0  0  0  0  0  0  0  0  0  0  0  0
  -24.1920  -12.6840   20.9250 C   0  0  0  0  0  0  0  0  0  0  0  0
  -24.6090  -11.3250   20.7870 C   0  0  0  0  0  0  0  0  0  0  0  0
  -26.2280  -12.5550   20.1050 N   0  0  0  0  0  0  0  0  0  0  0  0
  -25.8590  -11.2710   20.3450 N   0  0  0  0  0  0  0  0  0  0  0  0
  -23.8720  -10.0730   20.9960 C   0  0  0  0  0  0  0  0  0  0  0  0
  -24.3290   -9.0880   21.8990 C   0  0  0  0  0  3  0  0  0  0  0  0
  -23.5920   -7.9000   22.0950 C   0  0  0  0  0  3  0  0  0  0  0  0
  -22.3850   -7.6880   21.3880 C   0  0  0  0  0  0  0  0  0  0  0  0
  -21.9470   -8.6630   20.4730 C   0  0  0  0  0  3  0  0  0  0  0  0
  -22.6850   -9.8420   20.2750 C   0  0  0  0  0  3  0  0  0  0  0  0
  -21.6170   -6.5550   21.4950 O   0  0  0  0  0  0  0  0  0  0  0  0
  -21.5710   -5.8250   22.6550 C   0  0  0  0  0  0  0  0  0  0  0  0
  -21.1200   -6.3860   23.8710 C   0  0  0  0  0  3  0  0  0  0  0  0
  -21.0200   -5.5810   25.0230 C   0  0  0  0  0  3  0  0  0  0  0  0
  -21.3620   -4.2170   24.9620 C   0  0  0  0  0  0  0  0  0  0  0  0
  -21.8070   -3.6560   23.7520 C   0  0  0  0  0  3  0  0  0  0  0  0
  -21.9070   -4.4570   22.6020 C   0  0  0  0  0  0  0  0  0  0  0  0
  -22.3150   -3.9070   21.4330 F   0  0  0  0  0  0  0  0  0  0  0  0
  -21.2600   -3.4410   26.0670 F   0  0  0  0  0  0  0  0  0  0  0  0
  -22.8430  -13.1810   21.3590 C   0  0  0  0  0  0  0  0  0  0  0  0
  -22.1790  -12.4580   22.2550 N   0  0  0  0  0  0  0  0  0  0  0  0
  -22.3890  -14.2460   20.9410 O   0  0  0  0  0  0  0  0  0  0  0  0
  -22.5590  -11.5960   22.6170 H   0  0  0  0  0  0  0  0  0  0  0  0
  -21.2780  -12.7740   22.5860 H   0  0  0  0  0  0  0  0  0  0  0  0
  -25.4190  -14.8220   20.3500 N   0  0  0  0  0  0  0  0  0  0  0  0
  -24.6810  -15.4810   20.5740 H   0  0  0  0  0  0  0  0  0  0  0  0
  -26.2330  -15.2630   19.9430 H   0  0  0  0  0  0  0  0  0  0  0  0
  -29.2190  -24.3780   20.9830 C   0  0  0  0  0  2  0  0  0  0  0  0
  -28.0000  -25.0410   20.3140 C   0  0  0  0  0  2  0  0  0  0  0  0
  -28.1260  -26.4640   20.4300 O   0  0  0  0  0  0  0  0  0  0  0  0
  -24.3540  -31.8030   23.2380 C   0  0  0  0  0  0  0  0  0  0  0  0
  -26.9630  -27.2030   20.3730 C   0  0  0  0  0  0  0  0  0  0  0  0
  -23.1550  -30.3820   21.6100 C   0  0  0  0  0  3  0  0  0  0  0  0
  -24.6050  -28.7630   20.2760 C   0  0  0  0  0  0  0  0  0  0  0  0
  -25.6940  -30.6700   21.4700 C   0  0  0  0  0  2  0  0  0  0  0  0
  -25.7610  -29.2790   20.8750 C   0  0  0  0  0  0  0  0  0  0  0  0
  -26.9430  -28.5070   20.9210 C   0  0  0  0  0  3  0  0  0  0  0  0
  -25.7880  -26.7000   19.7720 C   0  0  0  0  0  3  0  0  0  0  0  0
  -24.6130  -27.4710   19.7240 C   0  0  0  0  0  3  0  0  0  0  0  0
  -23.3830  -29.6540   20.2580 C   0  0  0  0  0  2  0  0  0  0  0  0
  -24.4180  -30.9690   22.1630 N   0  0  0  0  0  0  0  0  0  0  0  0
  -23.2650  -32.1180   23.7420 O   0  0  0  0  0  0  0  0  0  0  0  0
  -22.4570  -29.4040   22.5820 C   0  0  0  0  0  0  0  0  0  0  0  0
  -21.1350  -29.2460   22.4190 N   0  0  0  0  0  0  0  0  0  0  0  0
  -23.1030  -28.7920   23.4360 O   0  0  0  0  0  0  0  0  0  0  0  0
  -20.6770  -29.7920   21.7020 H   0  0  0  0  0  0  0  0  0  0  0  0
  -17.7120  -28.1850   22.8800 C   0  0  0  0  0  0  0  0  0  0  0  0
  -20.2730  -28.3540   23.1920 C   0  0  0  0  0  3  0  0  0  0  0  0
  -20.3330  -26.9100   22.6430 C   0  0  0  0  0  2  0  0  0  0  0  0
  -19.2370  -26.6090   21.6160 C   0  0  0  0  0  2  0  0  0  0  0  0
  -17.8510  -26.8170   22.2330 C   0  0  0  0  0  2  0  0  0  0  0  0
  -18.8510  -28.9130   23.3160 C   0  0  0  0  0  0  0  0  0  0  0  0
  -18.6690  -30.1950   23.8780 C   0  0  0  0  0  3  0  0  0  0  0  0
  -17.3820  -30.7490   24.0110 C   0  0  0  0  0  3  0  0  0  0  0  0
  -16.2570  -30.0170   23.5940 C   0  0  0  0  0  3  0  0  0  0  0  0
  -16.4230  -28.7370   23.0340 C   0  0  0  0  0  3  0  0  0  0  0  0
  -25.6390  -32.4210   23.8750 C   0  0  0  0  0  3  0  0  0  0  0  0
  -25.3480  -33.8280   24.1770 N   0  0  0  0  0  0  0  0  0  0  0  0
  -25.7030  -34.8610   23.4020 C   0  0  0  0  0  0  0  0  0  0  0  0
  -26.3840  -34.7300   22.3810 O   0  0  0  0  0  0  0  0  0  0  0  0
  -24.7500  -34.0070   24.9710 H   0  0  0  0  0  0  0  0  0  0  0  0
  -23.9950  -36.6640   23.0050 C   0  0  0  0  0  1  0  0  0  0  0  0
  -25.2290  -36.2630   23.8290 C   0  0  0  0  0  3  0  0  0  0  0  0
  -27.3660  -37.1500   24.6530 C   0  0  0  0  0  1  0  0  0  0  0  0
  -26.2730  -37.3030   23.6950 N   0  0  0  0  0  0  0  0  0  0  0  0
  -25.8750  -38.2300   23.8140 H   0  0  0  0  0  0  0  0  0  0  0  0
  -26.1210  -31.6590   25.1710 C   0  0  1  0  0  0  0  0  0  0  0  0
  -24.9990  -31.4350   26.2110 C   0  0  0  0  0  1  0  0  0  0  0  0
  -26.7090  -30.2760   24.8040 C   0  0  0  0  0  1  0  0  0  0  0  0
  -27.2540  -32.4550   25.8570 C   0  0  0  0  0  1  0  0  0  0  0  0
  1  2  2  0
  1  4  1  0
  2  5  1  0
  4  6  2  0
  5  9  1  0
  5  3  2  0
  6  3  1  0
  6  8  1  0
  8  7  1  0
  9 10  1  0
 11 12  1  0
 11  9  1  0
 13 21  1  0
 14 19  1  0
 15 16  1  0
 15 14  1  0
 17 16  1  0
 17 26  1  0
 17 18  1  0
 19 13  1  0
 19 18  1  0
 20 13  2  0
 21 12  1  0
 21 22  1  0
 23 24  2  0
 24 43  1  0
 25 24  1  0
 25 28  1  0
 26 27  1  0
 26 23  1  0
 27 25  2  0
 28 29  1  0
 29 30  2  0
 31 34  1  0
 31 30  1  0
 32 31  2  0
 33 32  1  0
 33 28  2  0
 34 35  1  0
 35 36  1  0
 36 37  2  0
 38 37  1  0
 38 42  1  0
 39 38  2  0
 40 35  2  0
 40 39  1  0
 41 40  1  0
 43 44  1  0
 44 47  1  0
 44 46  1  0
 45 43  2  0
 48 23  1  0
 48 49  1  0
 50 48  1  0
 51  4  1  0
 52 53  1  0
 52 51  1  0
 54 65  2  0
 55 53  1  0
 55 60  1  0
 56 64  1  0
 56 66  1  0
 57 59  1  0
 58 64  1  0
 59 60  2  0
 59 58  1  0
 61 55  2  0
 62 61  1  0
 62 57  2  0
 63 57  1  0
 63 56  1  0
 64 54  1  0
 66 68  2  0
 67 66  1  0
 69 67  1  0
 70 79  2  0
 70 75  1  0
 71 67  1  0
 71 75  1  0
 72 71  1  0
 73 74  1  0
 73 72  1  0
 74 70  1  0
 75 76  2  0
 76 77  1  0
 78 77  2  0
 79 78  1  0
 80 54  1  0
 80 81  1  0
 80 90  1  0
 81 84  1  0
 82 86  1  0
 82 81  1  0
 83 82  2  0
 86 85  1  0
 88 89  1  0
 88 86  1  0
 88 87  1  0
 90 93  1  1
 90 91  1  0
 92 90  1  0
M  ISO  4  13 100  21 100  52 101  53 101
M  END
>  <TORSDO>  (53) 
F 22

>  <SCORE>  (53) 
-12.003

>  <name>  (53) 
53

>  <ligand_id>  (53) 
53

>  <original_smiles>  (53) 
[H]c1c([H])c([H])c2c(c1[H])C([H])([H])C([H])([H])C([H])([H])C2([H])N([H])C(=O)C1([H])N(C(=O)C([H])(N([H])C(=O)C([H])(N([H])C([H])([H])[H])C([H])([H])[H])C(C([H])([H])[H])(C([H])([H])[H])C([H])([H])[H])C([H])([H])c2c([H])c(OC([H])([H])C([H])([H])c3c([H])c([H])c(N([H])C([H])([H])C([H])([H])N([H])C(=O)N4C([H])([H])C([H])([H])C([H])([H])C([H])(n5nc(-c6c([H])c([H])c(Oc7c([H])c([H])c(F)c([H])c7F)c([H])c6[H])c(C(=O)N([H])[H])c5N([H])[H])C4([H])[H])c([H])c3OC([H])([H])[H])c([H])c([H])c2C1([H])[H]

>  <smiles>  (53) 
[H]c1c([H])c([H])c2c(c1[H])C([H])([H])C([H])([H])C([H])([H])C2([H])N([H])C(=O)C1([H])N(C(=O)C([H])(N([H])C(=O)C([H])(N([H])C([H])([H])[H])C([H])([H])[H])C(C([H])([H])[H])(C([H])([H])[H])C([H])([H])[H])C([H])([H])c2c([H])c(OC([H])([H])C([H])([H])c3c([H])c([H])c(N([H])C([H])([H])C([H])([H])N([H])C(=O)N4C([H])([H])C([H])([H])C([H])([H])C([H])(n5nc(-c6c([H])c([H])c(Oc7c([H])c([H])c(F)c([H])c7F)c([H])c6[H])c(C(=O)N([H])[H])c5N([H])[H])C4([H])[H])c([H])c3OC([H])([H])[H])c([H])c([H])c2C1([H])[H]

$$$$
54:0:0
     RDKit          3D

 96105  0  0  1  0  0  0  0  0999 V2000
  -26.7090  -23.5210   22.3170 C   0  0  0  0  0  3  0  0  0  0  0  0
  -27.3820  -22.0010   20.5340 C   0  0  0  0  0  3  0  0  0  0  0  0
  -27.2890  -24.5980   21.6180 C   0  0  0  0  0  3  0  0  0  0  0  0
  -27.9540  -23.0760   19.8380 C   0  0  0  0  0  3  0  0  0  0  0  0
  -26.7320  -22.2210   21.7660 C   0  0  0  0  0  0  0  0  0  0  0  0
  -27.9050  -24.3830   20.3630 C   0  0  0  0  0  0  0  0  0  0  0  0
  -25.2020  -20.1680   21.5930 C   0  0  0  0  0  3  0  0  0  0  0  0
  -25.7670  -18.7420   21.6340 C   0  0  0  0  0  3  0  0  0  0  0  0
  -27.1220  -20.1460   23.1620 C   0  0  0  0  0  2  0  0  0  0  0  0
  -26.0790  -21.0580   22.4980 C   0  0  0  0  0  3  0  0  0  0  0  0
  -27.0060  -18.7400   22.5480 C   0  0  0  0  0  3  0  0  0  0  0  0
  -28.2400  -18.3420   21.8260 N   0  0  0  0  0  4  0  0  0  0  0  0
  -28.0740  -18.4160   20.8350 H   0  0  0  0  0  0  0  0  0  0  0  0
  -28.9840  -18.9820   22.0580 H   0  0  0  0  0  0  0  0  0  0  0  0
  -28.6920  -16.9680   22.1290 C   0  0  0  0  0  2  0  0  0  0  0  0
  -29.9660  -16.5640   21.3670 C   0  0  0  0  0  2  0  0  0  0  0  0
  -30.7350  -14.3450   20.6610 C   0  0  0  0  0  0  0  0  0  0  0  0
  -30.4310  -12.2590   19.3940 C   0  0  0  0  0  2  0  0  0  0  0  0
  -29.4930  -12.5200   18.1990 C   0  0  0  0  0  2  0  0  0  0  0  0
  -28.0120  -12.3840   18.6090 C   0  0  0  0  0  2  0  0  0  0  0  0
  -27.6760  -13.1900   19.8900 C   0  0  0  0  0  3  0  0  0  0  0  0
  -28.7090  -12.8850   20.9980 C   0  0  0  0  0  2  0  0  0  0  0  0
  -30.0660  -13.1790   20.4790 N   0  0  0  0  0  0  0  0  0  0  0  0
  -31.7220  -14.6970   20.0080 O   0  0  0  0  0  0  0  0  0  0  0  0
  -30.1790  -15.1370   21.5730 N   0  0  0  0  0  0  0  0  0  0  0  0
  -29.5160  -14.6710   22.1740 H   0  0  0  0  0  0  0  0  0  0  0  0
  -25.2640  -13.8160   20.5630 C   0  0  0  0  0  0  0  0  0  0  0  0
  -24.1890  -13.0460   20.9220 C   0  0  0  0  0  0  0  0  0  0  0  0
  -24.6410  -11.6920   20.8760 C   0  0  0  0  0  0  0  0  0  0  0  0
  -26.3090  -12.9300   20.3410 N   0  0  0  0  0  0  0  0  0  0  0  0
  -25.9340  -11.6480   20.5790 N   0  0  0  0  0  0  0  0  0  0  0  0
  -23.9060  -10.4300   21.0420 C   0  0  0  0  0  0  0  0  0  0  0  0
  -24.3630   -9.4210   21.9180 C   0  0  0  0  0  3  0  0  0  0  0  0
  -23.6300   -8.2240   22.0750 C   0  0  0  0  0  3  0  0  0  0  0  0
  -22.4280   -8.0290   21.3550 C   0  0  0  0  0  0  0  0  0  0  0  0
  -21.9920   -9.0260   20.4650 C   0  0  0  0  0  3  0  0  0  0  0  0
  -22.7250  -10.2140   20.3060 C   0  0  0  0  0  3  0  0  0  0  0  0
  -21.6640   -6.8900   21.4260 O   0  0  0  0  0  0  0  0  0  0  0  0
  -21.6860   -6.0740   22.5280 C   0  0  0  0  0  0  0  0  0  0  0  0
  -21.4000   -6.5650   23.8220 C   0  0  0  0  0  3  0  0  0  0  0  0
  -21.3660   -5.6800   24.9180 C   0  0  0  0  0  3  0  0  0  0  0  0
  -21.6050   -4.3070   24.7230 C   0  0  0  0  0  0  0  0  0  0  0  0
  -21.8810   -3.8160   23.4360 C   0  0  0  0  0  3  0  0  0  0  0  0
  -21.9180   -4.6970   22.3410 C   0  0  0  0  0  0  0  0  0  0  0  0
  -22.1660   -4.2180   21.0980 F   0  0  0  0  0  0  0  0  0  0  0  0
  -21.5630   -3.4540   25.7730 F   0  0  0  0  0  0  0  0  0  0  0  0
  -22.7900  -13.5250   21.1830 C   0  0  0  0  0  0  0  0  0  0  0  0
  -22.0520  -12.8250   22.0410 N   0  0  0  0  0  0  0  0  0  0  0  0
  -22.3600  -14.5560   20.6690 O   0  0  0  0  0  0  0  0  0  0  0  0
  -22.4090  -11.9920   22.4830 H   0  0  0  0  0  0  0  0  0  0  0  0
  -21.1130  -13.1280   22.2560 H   0  0  0  0  0  0  0  0  0  0  0  0
  -25.4330  -15.1860   20.3920 N   0  0  0  0  0  0  0  0  0  0  0  0
  -24.6140  -15.7840   20.3740 H   0  0  0  0  0  0  0  0  0  0  0  0
  -26.2060  -15.5640   19.8600 H   0  0  0  0  0  0  0  0  0  0  0  0
  -28.5360  -25.5030   19.5500 C   0  0  0  0  0  2  0  0  0  0  0  0
  -28.4360  -26.8050   20.1120 O   0  0  0  0  0  0  0  0  0  0  0  0
  -24.6080  -31.8720   23.2180 C   0  0  0  0  0  0  0  0  0  0  0  0
  -27.2320  -27.4750   20.0880 C   0  0  0  0  0  0  0  0  0  0  0  0
  -23.3920  -30.5000   21.5590 C   0  0  0  0  0  3  0  0  0  0  0  0
  -24.8390  -28.9740   20.1160 C   0  0  0  0  0  0  0  0  0  0  0  0
  -25.9200  -30.8500   21.3670 C   0  0  0  0  0  2  0  0  0  0  0  0
  -25.9940  -29.4890   20.7140 C   0  0  0  0  0  0  0  0  0  0  0  0
  -27.1890  -28.7460   20.6980 C   0  0  0  0  0  3  0  0  0  0  0  0
  -26.0540  -26.9630   19.4880 C   0  0  0  0  0  3  0  0  0  0  0  0
  -24.8610  -27.7090   19.5020 C   0  0  0  0  0  3  0  0  0  0  0  0
  -23.6010  -29.8390   20.1700 C   0  0  0  0  0  2  0  0  0  0  0  0
  -24.6580  -31.0850   22.1070 N   0  0  0  0  0  0  0  0  0  0  0  0
  -23.5270  -32.1460   23.7570 O   0  0  0  0  0  0  0  0  0  0  0  0
  -22.7380  -29.4650   22.5020 C   0  0  0  0  0  0  0  0  0  0  0  0
  -21.4070  -29.3110   22.3850 N   0  0  0  0  0  0  0  0  0  0  0  0
  -23.4180  -28.8090   23.2970 O   0  0  0  0  0  0  0  0  0  0  0  0
  -20.9160  -29.9100   21.7350 H   0  0  0  0  0  0  0  0  0  0  0  0
  -18.0280  -28.1280   22.8540 C   0  0  0  0  0  0  0  0  0  0  0  0
  -20.5830  -28.3660   23.1350 C   0  0  0  0  0  3  0  0  0  0  0  0
  -20.6830  -26.9420   22.5380 C   0  0  0  0  0  2  0  0  0  0  0  0
  -19.5760  -26.6330   21.5240 C   0  0  0  0  0  2  0  0  0  0  0  0
  -18.1950  -26.7790   22.1710 C   0  0  0  0  0  2  0  0  0  0  0  0
  -19.1500  -28.8790   23.2950 C   0  0  0  0  0  0  0  0  0  0  0  0
  -18.9420  -30.1420   23.8920 C   0  0  0  0  0  3  0  0  0  0  0  0
  -17.6410  -30.6530   24.0530 C   0  0  0  0  0  3  0  0  0  0  0  0
  -16.5340  -29.9010   23.6290 C   0  0  0  0  0  3  0  0  0  0  0  0
  -16.7280  -28.6390   23.0370 C   0  0  0  0  0  3  0  0  0  0  0  0
  -25.8980  -32.4880   23.8430 C   0  0  0  0  0  3  0  0  0  0  0  0
  -25.5850  -33.8690   24.2370 N   0  0  0  0  0  0  0  0  0  0  0  0
  -25.9020  -34.9510   23.5170 C   0  0  0  0  0  0  0  0  0  0  0  0
  -26.5550  -34.8940   22.4710 O   0  0  0  0  0  0  0  0  0  0  0  0
  -25.0070  -33.9870   25.0570 H   0  0  0  0  0  0  0  0  0  0  0  0
  -24.1490  -36.7320   23.2640 C   0  0  0  0  0  1  0  0  0  0  0  0
  -25.4110  -36.3160   24.0370 C   0  0  0  0  0  3  0  0  0  0  0  0
  -27.5590  -37.1820   24.8470 C   0  0  0  0  0  1  0  0  0  0  0  0
  -26.4300  -37.3830   23.9420 N   0  0  0  0  0  0  0  0  0  0  0  0
  -26.0200  -38.2920   24.1400 H   0  0  0  0  0  0  0  0  0  0  0  0
  -26.4440  -31.6630   25.0730 C   0  0  1  0  0  0  0  0  0  0  0  0
  -25.3710  -31.3720   26.1470 C   0  0  0  0  0  1  0  0  0  0  0  0
  -27.0270  -30.3080   24.6080 C   0  0  0  0  0  1  0  0  0  0  0  0
  -27.6040  -32.4330   25.7480 C   0  0  0  0  0  1  0  0  0  0  0  0
  2  5  2  0
  3  1  2  0
  4  6  2  0
  4  2  1  0
  5  1  1  0
  6  3  1  0
  7  8  2  0
  7 10  1  0
  8 11  1  0
 10  5  1  0
 10  9  1  0
 11 12  1  0
 11  9  1  0
 12 14  1  0
 12 15  1  0
 13 12  1  0
 16 25  1  0
 16 15  1  0
 17 25  1  0
 18 23  1  0
 19 20  1  0
 19 18  1  0
 21 20  1  0
 21 30  1  0
 21 22  1  0
 23 17  1  0
 23 22  1  0
 24 17  2  0
 25 26  1  0
 27 28  2  0
 28 47  1  0
 29 28  1  0
 29 32  1  0
 30 27  1  0
 30 31  1  0
 31 29  2  0
 32 33  1  0
 33 34  2  0
 35 38  1  0
 35 34  1  0
 36 35  2  0
 37 36  1  0
 37 32  2  0
 38 39  1  0
 39 40  1  0
 40 41  2  0
 42 41  1  0
 42 46  1  0
 43 42  2  0
 44 39  2  0
 44 43  1  0
 45 44  1  0
 47 48  1  0
 48 51  1  0
 48 50  1  0
 49 47  2  0
 52 27  1  0
 53 52  1  0
 54 52  1  0
 55 56  1  0
 55  6  1  0
 57 68  2  0
 58 56  1  0
 58 63  1  0
 59 67  1  0
 59 69  1  0
 60 66  1  0
 60 62  1  0
 61 67  1  0
 62 61  1  0
 63 62  2  0
 64 65  1  0
 64 58  2  0
 65 60  2  0
 66 59  1  0
 67 57  1  0
 69 71  2  0
 70 69  1  0
 72 70  1  0
 73 82  2  0
 73 78  1  0
 74 70  1  0
 74 78  1  0
 75 74  1  0
 76 77  1  0
 76 75  1  0
 77 73  1  0
 78 79  2  0
 79 80  1  0
 81 80  2  0
 82 81  1  0
 83 57  1  0
 83 84  1  0
 83 93  1  0
 84 87  1  0
 85 89  1  0
 85 84  1  0
 86 85  2  0
 89 88  1  0
 91 89  1  0
 91 92  1  0
 91 90  1  0
 93 96  1  1
 93 94  1  0
 95 93  1  0
M  ISO  4  17 100  25 100  55 101  56 101
M  END
>  <TORSDO>  (54) 
F 21

>  <SCORE>  (54) 
30.117

>  <name>  (54) 
54

>  <ligand_id>  (54) 
54

>  <original_smiles>  (54) 
[H]c1c([H])c([H])c2c(c1[H])C([H])([H])C([H])([H])C([H])([H])C2([H])N([H])C(=O)C1([H])N(C(=O)C([H])(N([H])C(=O)C([H])(N([H])C([H])([H])[H])C([H])([H])[H])C(C([H])([H])[H])(C([H])([H])[H])C([H])([H])[H])C([H])([H])c2c([H])c(OC([H])([H])c3c([H])c([H])c(C4([H])C([H])([H])C([H])([H])C([H])([N+]([H])([H])C([H])([H])C([H])([H])N([H])C(=O)N5C([H])([H])C([H])([H])C([H])([H])C([H])(n6nc(-c7c([H])c([H])c(Oc8c([H])c([H])c(F)c([H])c8F)c([H])c7[H])c(C(=O)N([H])[H])c6N([H])[H])C5([H])[H])C4([H])[H])c([H])c3[H])c([H])c([H])c2C1([H])[H]

>  <smiles>  (54) 
[H]c1c([H])c([H])c2c(c1[H])C([H])([H])C([H])([H])C([H])([H])C2([H])N([H])C(=O)C1([H])N(C(=O)C([H])(N([H])C(=O)C([H])(N([H])C([H])([H])[H])C([H])([H])[H])C(C([H])([H])[H])(C([H])([H])[H])C([H])([H])[H])C([H])([H])c2c([H])c(OC([H])([H])c3c([H])c([H])c(C4([H])C([H])([H])C([H])([H])C([H])([N+]([H])([H])C([H])([H])C([H])([H])N([H])C(=O)N5C([H])([H])C([H])([H])C([H])([H])C([H])(n6nc(-c7c([H])c([H])c(Oc8c([H])c([H])c(F)c([H])c8F)c([H])c7[H])c(C(=O)N([H])[H])c6N([H])[H])C5([H])[H])C4([H])[H])c([H])c3[H])c([H])c([H])c2C1([H])[H]

$$$$
55:0:0
     RDKit          3D

 99108  0  0  1  0  0  0  0  0999 V2000
  -27.2470  -19.7990   18.3400 C   0  0  0  0  0  2  0  0  0  0  0  0
  -27.8250  -21.1830   20.2000 C   0  0  0  0  0  2  0  0  0  0  0  0
  -27.7050  -20.8510   17.3100 C   0  0  0  0  0  3  0  0  0  0  0  0
  -27.5440  -22.2840   17.8980 C   0  0  0  0  0  3  0  0  0  0  0  0
  -28.2920  -22.3290   19.2680 C   0  0  0  0  0  3  0  0  0  0  0  0
  -26.9390  -20.6110   15.9940 C   0  0  0  0  0  1  0  0  0  0  0  0
  -28.0600  -19.8870   19.5550 N   0  0  0  0  0  0  0  0  0  0  0  0
  -27.2170  -24.7430   17.1030 C   0  0  0  0  0  1  0  0  0  0  0  0
  -29.4780  -23.6260   16.7420 C   0  0  0  0  0  1  0  0  0  0  0  0
  -27.9600  -23.4110   16.8890 C   0  0  0  0  0  3  0  0  0  0  0  0
  -28.1280  -23.6450   19.9280 N   0  0  0  0  0  4  0  0  0  0  0  0
  -27.3540  -23.6010   20.5720 H   0  0  0  0  0  0  0  0  0  0  0  0
  -27.8750  -24.2740   19.1800 H   0  0  0  0  0  0  0  0  0  0  0  0
  -29.3430  -24.1870   20.5980 C   0  0  0  0  0  2  0  0  0  0  0  0
  -29.4960  -25.7180   20.4530 C   0  0  0  0  0  2  0  0  0  0  0  0
  -28.9260  -26.4310   21.5530 O   0  0  0  0  0  0  0  0  0  0  0  0
  -24.8080  -31.8640   23.5650 C   0  0  0  0  0  0  0  0  0  0  0  0
  -27.7550  -27.1190   21.3320 C   0  0  0  0  0  0  0  0  0  0  0  0
  -23.7900  -30.2840   21.9560 C   0  0  0  0  0  3  0  0  0  0  0  0
  -25.3850  -28.5960   20.9060 C   0  0  0  0  0  0  0  0  0  0  0  0
  -26.3230  -30.6190   22.0330 C   0  0  0  0  0  2  0  0  0  0  0  0
  -26.4650  -29.1830   21.5730 C   0  0  0  0  0  0  0  0  0  0  0  0
  -27.6470  -28.4460   21.8000 C   0  0  0  0  0  3  0  0  0  0  0  0
  -26.6510  -26.5350   20.6720 C   0  0  0  0  0  3  0  0  0  0  0  0
  -25.4690  -27.2660   20.4620 C   0  0  0  0  0  3  0  0  0  0  0  0
  -24.1590  -29.4540   20.6980 C   0  0  0  0  0  2  0  0  0  0  0  0
  -24.9850  -30.9440   22.5760 N   0  0  0  0  0  0  0  0  0  0  0  0
  -23.6730  -32.1960   23.9340 O   0  0  0  0  0  0  0  0  0  0  0  0
  -23.0150  -29.3760   22.9390 C   0  0  0  0  0  0  0  0  0  0  0  0
  -21.7100  -29.1920   22.6790 N   0  0  0  0  0  0  0  0  0  0  0  0
  -23.5890  -28.8370   23.8880 O   0  0  0  0  0  0  0  0  0  0  0  0
  -21.3130  -29.6770   21.8860 H   0  0  0  0  0  0  0  0  0  0  0  0
  -18.2660  -28.1400   22.9470 C   0  0  0  0  0  0  0  0  0  0  0  0
  -20.7920  -28.3520   23.4460 C   0  0  0  0  0  3  0  0  0  0  0  0
  -20.8990  -26.8720   23.0130 C   0  0  0  0  0  2  0  0  0  0  0  0
  -19.8880  -26.4860   21.9270 C   0  0  0  0  0  2  0  0  0  0  0  0
  -18.4570  -26.7290   22.4150 C   0  0  0  0  0  2  0  0  0  0  0  0
  -19.3640  -28.9070   23.4150 C   0  0  0  0  0  0  0  0  0  0  0  0
  -19.1370  -30.2260   23.8680 C   0  0  0  0  0  3  0  0  0  0  0  0
  -17.8420  -30.7770   23.8540 C   0  0  0  0  0  3  0  0  0  0  0  0
  -16.7560  -30.0080   23.4020 C   0  0  0  0  0  3  0  0  0  0  0  0
  -16.9670  -28.6920   22.9560 C   0  0  0  0  0  3  0  0  0  0  0  0
  -26.0180  -32.5610   24.2610 C   0  0  0  0  0  3  0  0  0  0  0  0
  -25.6660  -33.9740   24.4470 N   0  0  0  0  0  0  0  0  0  0  0  0
  -26.0500  -34.9650   23.6310 C   0  0  0  0  0  0  0  0  0  0  0  0
  -26.8090  -34.7890   22.6740 O   0  0  0  0  0  0  0  0  0  0  0  0
  -25.0040  -34.1840   25.1780 H   0  0  0  0  0  0  0  0  0  0  0  0
  -24.3330  -36.6840   22.9810 C   0  0  0  0  0  1  0  0  0  0  0  0
  -25.5050  -36.3760   23.9250 C   0  0  0  0  0  3  0  0  0  0  0  0
  -27.5470  -37.3700   24.8570 C   0  0  0  0  0  1  0  0  0  0  0  0
  -26.5290  -37.4380   23.8140 N   0  0  0  0  0  0  0  0  0  0  0  0
  -26.0970  -38.3570   23.8530 H   0  0  0  0  0  0  0  0  0  0  0  0
  -26.4110  -31.8970   25.6380 C   0  0  1  0  0  0  0  0  0  0  0  0
  -25.2110  -31.6820   26.5900 C   0  0  0  0  0  1  0  0  0  0  0  0
  -27.0850  -30.5240   25.4080 C   0  0  0  0  0  1  0  0  0  0  0  0
  -27.4510  -32.7800   26.3690 C   0  0  0  0  0  1  0  0  0  0  0  0
  -27.7760  -18.7450   20.4350 C   0  0  0  0  0  2  0  0  0  0  0  0
  -30.9300  -13.9400   20.0710 C   0  0  0  0  0  0  0  0  0  0  0  0
  -30.4750  -11.8630   18.8530 C   0  0  0  0  0  2  0  0  0  0  0  0
  -29.4470  -12.1760   17.7460 C   0  0  0  0  0  2  0  0  0  0  0  0
  -28.0090  -12.0480   18.2880 C   0  0  0  0  0  2  0  0  0  0  0  0
  -27.7950  -12.8030   19.6280 C   0  0  0  0  0  3  0  0  0  0  0  0
  -28.9370  -12.5080   20.6280 C   0  0  0  0  0  2  0  0  0  0  0  0
  -30.2120  -12.7940   19.9560 N   0  0  0  0  0  0  0  0  0  0  0  0
  -32.0830  -14.0520   19.6400 O   0  0  0  0  0  0  0  0  0  0  0  0
  -29.0450  -16.9470   19.0700 C   0  0  0  0  0  2  0  0  0  0  0  0
  -28.9110  -16.7270   21.5570 C   0  0  0  0  0  2  0  0  0  0  0  0
  -30.2580  -16.0130   19.0930 C   0  0  0  0  0  2  0  0  0  0  0  0
  -30.0990  -15.7360   21.5070 C   0  0  0  0  0  2  0  0  0  0  0  0
  -28.9490  -17.7360   20.3900 C   0  0  0  0  0  3  0  0  0  0  0  0
  -30.1760  -15.0550   20.2050 N   0  0  0  0  0  0  0  0  0  0  0  0
  -25.4500  -13.3900   20.5090 C   0  0  0  0  0  0  0  0  0  0  0  0
  -24.4150  -12.6070   20.9450 C   0  0  0  0  0  0  0  0  0  0  0  0
  -24.8820  -11.2590   20.8740 C   0  0  0  0  0  0  0  0  0  0  0  0
  -26.4820  -12.5170   20.2020 N   0  0  0  0  0  0  0  0  0  0  0  0
  -26.1480  -11.2300   20.4780 N   0  0  0  0  0  0  0  0  0  0  0  0
  -24.1800   -9.9900   21.1040 C   0  0  0  0  0  0  0  0  0  0  0  0
  -24.6290   -9.0610   22.0670 C   0  0  0  0  0  3  0  0  0  0  0  0
  -23.9250   -7.8570   22.2830 C   0  0  0  0  0  3  0  0  0  0  0  0
  -22.7570   -7.5740   21.5350 C   0  0  0  0  0  0  0  0  0  0  0  0
  -22.3280   -8.4910   20.5600 C   0  0  0  0  0  3  0  0  0  0  0  0
  -23.0330   -9.6870   20.3430 C   0  0  0  0  0  3  0  0  0  0  0  0
  -22.0240   -6.4190   21.6590 O   0  0  0  0  0  0  0  0  0  0  0  0
  -21.9260   -5.7520   22.8540 C   0  0  0  0  0  0  0  0  0  0  0  0
  -21.3970   -6.3680   24.0100 C   0  0  0  0  0  3  0  0  0  0  0  0
  -21.2490   -5.6250   25.1980 C   0  0  0  0  0  3  0  0  0  0  0  0
  -21.6210   -4.2680   25.2320 C   0  0  0  0  0  0  0  0  0  0  0  0
  -22.1450   -3.6530   24.0830 C   0  0  0  0  0  3  0  0  0  0  0  0
  -22.2940   -4.3920   22.8950 C   0  0  0  0  0  0  0  0  0  0  0  0
  -22.7770   -3.7870   21.7840 F   0  0  0  0  0  0  0  0  0  0  0  0
  -21.4730   -3.5530   26.3720 F   0  0  0  0  0  0  0  0  0  0  0  0
  -23.0380  -13.0720   21.3190 C   0  0  0  0  0  0  0  0  0  0  0  0
  -22.3840  -12.3720   22.2400 N   0  0  0  0  0  0  0  0  0  0  0  0
  -22.5520  -14.0930   20.8320 O   0  0  0  0  0  0  0  0  0  0  0  0
  -22.7920  -11.5490   22.6560 H   0  0  0  0  0  0  0  0  0  0  0  0
  -21.4630  -12.6660   22.5340 H   0  0  0  0  0  0  0  0  0  0  0  0
  -25.5920  -14.7610   20.3270 N   0  0  0  0  0  0  0  0  0  0  0  0
  -24.8370  -15.4140   20.5050 H   0  0  0  0  0  0  0  0  0  0  0  0
  -26.4270  -15.2040   19.9690 H   0  0  0  0  0  0  0  0  0  0  0  0
  1  7  1  0
  3  6  1  0
  3  4  1  0
  3  1  1  0
  4 10  1  0
  4  5  1  0
  5 11  1  0
  5  2  1  0
  7  2  1  0
  7 57  1  0
  9 10  1  0
 10  8  1  0
 11 12  1  0
 11 14  1  0
 13 11  1  0
 15 14  1  0
 15 16  1  0
 17 28  2  0
 18 16  1  0
 18 23  1  0
 19 27  1  0
 19 29  1  0
 20 22  1  0
 21 27  1  0
 22 23  2  0
 22 21  1  0
 24 18  2  0
 25 24  1  0
 25 20  2  0
 26 20  1  0
 26 19  1  0
 27 17  1  0
 29 31  2  0
 30 29  1  0
 32 30  1  0
 33 42  2  0
 33 38  1  0
 34 30  1  0
 35 34  1  0
 36 37  1  0
 36 35  1  0
 37 33  1  0
 38 34  1  0
 38 39  2  0
 40 39  1  0
 41 40  2  0
 42 41  1  0
 43 17  1  0
 43 44  1  0
 43 53  1  0
 44 47  1  0
 45 49  1  0
 45 44  1  0
 46 45  2  0
 49 48  1  0
 51 52  1  0
 51 49  1  0
 51 50  1  0
 53 56  1  1
 53 54  1  0
 55 53  1  0
 58 71  1  0
 59 64  1  0
 60 61  1  0
 60 59  1  0
 62 61  1  0
 62 75  1  0
 62 63  1  0
 64 58  1  0
 64 63  1  0
 65 58  2  0
 66 68  1  0
 66 70  1  0
 68 71  1  0
 69 67  1  0
 70 57  1  0
 70 67  1  0
 71 69  1  0
 72 73  2  0
 73 92  1  0
 74 73  1  0
 74 77  1  0
 75 76  1  0
 75 72  1  0
 76 74  2  0
 77 78  1  0
 78 79  2  0
 80 83  1  0
 80 79  1  0
 81 80  2  0
 82 81  1  0
 82 77  2  0
 83 84  1  0
 84 89  2  0
 84 85  1  0
 85 86  2  0
 86 87  1  0
 87 91  1  0
 88 87  2  0
 89 88  1  0
 90 89  1  0
 92 93  1  0
 93 96  1  0
 93 95  1  0
 94 92  2  0
 97 98  1  0
 97 72  1  0
 99 97  1  0
M  ISO  4  15 101  16 101  58 100  71 100
M  END
>  <TORSDO>  (55) 
F 21

>  <SCORE>  (55) 
-9.192

>  <name>  (55) 
55

>  <ligand_id>  (55) 
55

>  <original_smiles>  (55) 
[H]c1c([H])c([H])c2c(c1[H])C([H])([H])C([H])([H])C([H])([H])C2([H])N([H])C(=O)C1([H])N(C(=O)C([H])(N([H])C(=O)C([H])(N([H])C([H])([H])[H])C([H])([H])[H])C(C([H])([H])[H])(C([H])([H])[H])C([H])([H])[H])C([H])([H])c2c([H])c(OC([H])([H])C([H])([H])[N+]([H])([H])C3([H])C([H])([H])N(C([H])([H])C4([H])C([H])([H])C([H])([H])N(C(=O)N5C([H])([H])C([H])([H])C([H])([H])C([H])(n6nc(-c7c([H])c([H])c(Oc8c([H])c([H])c(F)c([H])c8F)c([H])c7[H])c(C(=O)N([H])[H])c6N([H])[H])C5([H])[H])C([H])([H])C4([H])[H])C([H])([H])C([H])(C([H])([H])[H])C3([H])C([H])(C([H])([H])[H])C([H])([H])[H])c([H])c([H])c2C1([H])[H]

>  <smiles>  (55) 
[H]c1c([H])c([H])c2c(c1[H])C([H])([H])C([H])([H])C([H])([H])C2([H])N([H])C(=O)C1([H])N(C(=O)C([H])(N([H])C(=O)C([H])(N([H])C([H])([H])[H])C([H])([H])[H])C(C([H])([H])[H])(C([H])([H])[H])C([H])([H])[H])C([H])([H])c2c([H])c(OC([H])([H])C([H])([H])[N+]([H])([H])C3([H])C([H])([H])N(C([H])([H])C4([H])C([H])([H])C([H])([H])N(C(=O)N5C([H])([H])C([H])([H])C([H])([H])C([H])(n6nc(-c7c([H])c([H])c(Oc8c([H])c([H])c(F)c([H])c8F)c([H])c7[H])c(C(=O)N([H])[H])c6N([H])[H])C5([H])[H])C([H])([H])C4([H])[H])C([H])([H])C([H])(C([H])([H])[H])C3([H])C([H])(C([H])([H])[H])C([H])([H])[H])c([H])c([H])c2C1([H])[H]

$$$$
56:0:0
     RDKit          3D

100101  0  0  1  0  0  0  0  0999 V2000
  -19.2100  -24.4570   21.9420 C   0  0  0  0  0  3  0  0  0  0  0  0
  -20.8170  -24.2750   22.3090 C   0  0  0  0  0  3  0  0  0  0  0  0
  -18.4650  -25.4280   20.8040 C   0  0  0  0  0  3  0  0  0  0  0  0
  -19.4640  -26.6220   20.0520 C   0  0  0  0  0  3  0  0  0  0  0  0
  -22.2250  -24.7830   21.6590 C   0  0  0  0  0  2  0  0  0  0  0  0
  -21.7730  -26.2590   20.8420 C   0  0  0  0  0  1  0  0  0  0  0  0
  -18.5900  -27.5590   19.1140 C   0  0  0  0  0  2  0  0  0  0  0  0
  -17.1260  -27.1270   18.8350 C   0  0  0  0  0  2  0  0  0  0  0  0
  -17.0600  -25.1770   20.2770 C   0  0  0  0  0  3  0  0  0  0  0  0
  -16.4450  -26.4710   19.9640 N   0  0  0  0  0  4  0  0  0  0  0  0
  -15.4810  -26.3180   19.7140 H   0  0  0  0  0  0  0  0  0  0  0  0
  -16.4860  -27.0660   20.7760 H   0  0  0  0  0  0  0  0  0  0  0  0
  -15.6010  -24.7150   22.4050 C   0  0  0  0  0  1  0  0  0  0  0  0
  -16.1330  -24.2140   21.0570 C   0  0  0  0  0  2  0  0  0  0  0  0
  -23.9480  -23.5720   21.7530 C   0  0  0  0  0 15  0  0  0  0  0  0
  -25.2230  -22.2940   20.9730 N   0  0  0  0  0  2  0  0  0  0  0  0
  -25.7450  -22.9120   20.3770 H   0  0  0  0  0  0  0  0  0  0  0  0
  -24.6080  -21.7960   20.3510 H   0  0  0  0  0  0  0  0  0  0  0  0
  -26.5650  -20.8910   21.3070 C   0  0  0  0  0 15  0  0  0  0  0  0
  -27.9330  -19.3660   20.4600 C   0  0  0  0  0 15  0  0  0  0  0  0
  -30.2250  -16.5400   20.3500 C   0  0  0  0  0  0  0  0  0  0  0  0
  -31.2230  -13.9930   19.5970 C   0  0  0  0  0  2  0  0  0  0  0  0
  -30.5770  -13.2810   18.3430 C   0  0  0  0  0  2  0  0  0  0  0  0
  -29.1530  -12.7950   18.6540 C   0  0  0  0  0  2  0  0  0  0  0  0
  -28.4920  -13.8330   19.5770 C   0  0  0  0  0  3  0  0  0  0  0  0
  -29.2890  -14.1500   20.8360 C   0  0  0  0  0  2  0  0  0  0  0  0
  -30.2770  -15.0420   20.3080 N   0  0  0  0  0  0  0  0  0  0  0  0
  -31.4520  -16.7430   20.0540 O   0  0  0  0  0  0  0  0  0  0  0  0
  -28.9310  -17.6340   20.5990 N   0  0  0  0  0  2  0  0  0  0  0  0
  -28.1880  -16.9960   20.8640 H   0  0  0  0  0  0  0  0  0  0  0  0
  -26.1860  -14.4950   20.2130 C   0  0  0  0  0  0  0  0  0  0  0  0
  -25.1050  -13.7680   20.5990 C   0  0  0  0  0  0  0  0  0  0  0  0
  -25.5360  -12.4040   20.6340 C   0  0  0  0  0  0  0  0  0  0  0  0
  -27.1690  -13.5570   19.9920 N   0  0  0  0  0  0  0  0  0  0  0  0
  -26.8180  -12.3040   20.3340 N   0  0  0  0  0  0  0  0  0  0  0  0
  -24.7860  -11.1740   20.8570 C   0  0  0  0  0  0  0  0  0  0  0  0
  -25.1280  -10.2770   21.8910 C   0  0  0  0  0  3  0  0  0  0  0  0
  -24.3760   -9.1000   22.0850 C   0  0  0  0  0  3  0  0  0  0  0  0
  -23.2730   -8.8220   21.2430 C   0  0  0  0  0  0  0  0  0  0  0  0
  -22.9580   -9.7060   20.1990 C   0  0  0  0  0  3  0  0  0  0  0  0
  -23.7100  -10.8730   20.0020 C   0  0  0  0  0  3  0  0  0  0  0  0
  -22.4930   -7.6960   21.3450 O   0  0  0  0  0  0  0  0  0  0  0  0
  -22.1450   -7.1740   22.5630 C   0  0  0  0  0  0  0  0  0  0  0  0
  -21.5190   -7.9560   23.5600 C   0  0  0  0  0  3  0  0  0  0  0  0
  -21.1160   -7.3590   24.7700 C   0  0  0  0  0  3  0  0  0  0  0  0
  -21.3290   -5.9840   24.9830 C   0  0  0  0  0  0  0  0  0  0  0  0
  -21.9480   -5.2050   23.9900 C   0  0  0  0  0  3  0  0  0  0  0  0
  -22.3540   -5.7980   22.7830 C   0  0  0  0  0  0  0  0  0  0  0  0
  -22.9320   -5.0410   21.8200 F   0  0  0  0  0  0  0  0  0  0  0  0
  -20.9340   -5.4080   26.1420 F   0  0  0  0  0  0  0  0  0  0  0  0
  -23.7250  -14.3000   20.8050 C   0  0  0  0  0  0  0  0  0  0  0  0
  -22.9720  -13.7060   21.7210 N   0  0  0  0  0  0  0  0  0  0  0  0
  -23.3250  -15.2820   20.1790 O   0  0  0  0  0  0  0  0  0  0  0  0
  -23.3110  -12.9130   22.2450 H   0  0  0  0  0  0  0  0  0  0  0  0
  -22.0370  -14.0460   21.8980 H   0  0  0  0  0  0  0  0  0  0  0  0
  -26.4250  -15.8540   20.0020 N   0  0  0  0  0  0  0  0  0  0  0  0
  -25.6570  -16.5150   20.0390 H   0  0  0  0  0  0  0  0  0  0  0  0
  -27.1570  -16.1510   19.3680 H   0  0  0  0  0  0  0  0  0  0  0  0
  -23.5340  -26.7900   19.9820 C   0  0  0  0  0  1  0  0  0  0  0  0
  -25.3320  -26.6570   19.7060 O   0  0  0  0  0  0  0  0  0  0  0  0
  -25.5050  -31.0900   23.6000 C   0  0  0  0  0  0  0  0  0  0  0  0
  -26.2860  -27.6270   19.1310 C   0  0  0  0  0  3  0  0  0  0  0  0
  -24.0610  -30.7610   21.6840 C   0  0  0  0  0  3  0  0  0  0  0  0
  -25.0610  -29.9170   19.4820 C   0  0  0  0  0  0  0  0  0  0  0  0
  -26.5430  -30.7600   21.3220 C   0  0  0  0  0  2  0  0  0  0  0  0
  -26.2610  -29.7780   20.1850 C   0  0  0  0  0  3  0  0  0  0  0  0
  -26.9870  -28.5970   19.9360 C   0  0  0  0  0  2  0  0  0  0  0  0
  -25.7360  -28.1460   17.9720 C   0  0  0  0  0  2  0  0  0  0  0  0
  -24.8510  -29.1810   18.2940 C   0  0  0  0  0  3  0  0  0  0  0  0
  -24.0470  -30.8260   20.1180 C   0  0  0  0  0  2  0  0  0  0  0  0
  -25.4060  -30.9000   22.2530 N   0  0  0  0  0  0  0  0  0  0  0  0
  -24.5060  -31.1420   24.3370 O   0  0  0  0  0  0  0  0  0  0  0  0
  -23.4780  -29.4870   22.2500 C   0  0  0  0  0  0  0  0  0  0  0  0
  -22.1910  -29.6050   22.4940 N   0  0  0  0  0  4  0  0  0  0  0  0
  -24.1530  -28.4540   22.4270 O   0  0  0  0  0  0  0  0  0  0  0  0
  -21.7640  -30.5200   22.4610 H   0  0  0  0  0  0  0  0  0  0  0  0
  -19.4510  -26.7730   22.6800 C   0  0  0  0  0  2  0  0  0  0  0  0
  -21.4130  -28.5280   22.1190 C   0  0  0  0  0  0  0  0  0  0  0  0
  -21.6910  -28.3580   20.3060 C   0  0  0  0  0  1  0  0  0  0  0  0
  -21.0230  -27.0560   19.0890 C   0  0  0  0  0  1  0  0  0  0  0  0
  -19.8760  -25.7450   19.7640 C   0  0  0  0  0  2  0  0  0  0  0  0
  -20.1620  -28.1570   23.0330 C   0  0  0  0  0  3  0  0  0  0  0  0
  -19.7920  -29.3840   23.7940 C   0  0  0  0  0  2  0  0  0  0  0  0
  -18.4920  -29.8640   23.9750 C   0  0  0  0  0  2  0  0  0  0  0  0
  -17.6020  -28.8950   23.5440 C   0  0  0  0  0  2  0  0  0  0  0  0
  -18.0820  -27.5310   23.1450 C   0  0  0  0  0  2  0  0  0  0  0  0
  -26.8820  -31.2940   24.2570 C   0  0  0  0  0  3  0  0  0  0  0  0
  -26.7740  -32.5400   25.0230 N   0  0  0  0  0  0  0  0  0  0  0  0
  -27.2000  -33.7280   24.5820 C   0  0  0  0  0  0  0  0  0  0  0  0
  -27.8220  -33.8630   23.5260 O   0  0  0  0  0  0  0  0  0  0  0  0
  -26.2340  -32.5050   25.8750 H   0  0  0  0  0  0  0  0  0  0  0  0
  -25.7780  -35.7910   24.8180 C   0  0  0  0  0  1  0  0  0  0  0  0
  -26.8990  -34.9570   25.4590 C   0  0  0  0  0  3  0  0  0  0  0  0
  -29.0990  -35.1640   26.5250 C   0  0  0  0  0  1  0  0  0  0  0  0
  -28.0850  -35.8080   25.6940 N   0  0  0  0  0  0  0  0  0  0  0  0
  -27.8170  -36.6820   26.1390 H   0  0  0  0  0  0  0  0  0  0  0  0
  -27.3210  -30.1000   25.1820 C   0  0  1  0  0  0  0  0  0  0  0  0
  -26.2610  -29.6820   26.2280 C   0  0  0  0  0  1  0  0  0  0  0  0
  -27.6660  -28.8480   24.3420 C   0  0  0  0  0  1  0  0  0  0  0  0
  -28.6100  -30.5000   25.9300 C   0  0  0  0  0  1  0  0  0  0  0  0
  1  2  2  0
  3  1  1  0
  4 81  1  0
  4  3  1  0
  5  2  1  0
  6  5  1  0
  7  4  1  0
  8  7  1  0
  8 10  1  0
  9  3  1  0
  9 14  1  0
 10  9  1  0
 10 12  1  0
 11 10  1  0
 14 13  1  0
 17 16  1  0
 18 16  1  0
 21 29  1  0
 22 27  1  0
 23 24  1  0
 23 22  1  0
 25 24  1  0
 25 34  1  0
 25 26  1  0
 27 21  1  0
 27 26  1  0
 28 21  2  0
 29 30  1  0
 31 32  2  0
 32 33  1  0
 32 51  1  0
 33 36  1  0
 34 31  1  0
 34 35  1  0
 35 33  2  0
 36 37  1  0
 37 38  2  0
 39 42  1  0
 39 38  1  0
 40 39  2  0
 41 40  1  0
 41 36  2  0
 42 43  1  0
 43 48  2  0
 43 44  1  0
 44 45  2  0
 45 46  1  0
 46 50  1  0
 47 46  2  0
 48 47  1  0
 49 48  1  0
 51 52  1  0
 52 55  1  0
 52 54  1  0
 53 51  2  0
 56 57  1  0
 56 31  1  0
 58 56  1  0
 60 59  1  0
 61 72  2  0
 62 60  1  0
 62 67  1  0
 63 73  1  0
 63 71  1  0
 64 70  1  0
 64 66  1  0
 65 71  1  0
 66 67  1  0
 66 65  1  0
 68 69  1  0
 68 62  1  0
 69 64  2  0
 70 63  1  0
 71 61  1  0
 73 75  2  0
 73 74  1  0
 76 74  1  0
 77 82  1  0
 77 86  1  0
 78 74  2  3
 78 82  1  0
 79 78  1  0
 80 81  1  0
 82 83  1  0
 83 84  1  0
 85 84  1  0
 86 85  1  0
 87 61  1  0
 87 88  1  0
 87 97  1  0
 88 91  1  0
 89 88  1  0
 89 93  1  0
 90 89  2  0
 93 92  1  0
 93 95  1  0
 95 96  1  0
 95 94  1  0
 97100  1  1
 97 98  1  0
 99 97  1  0
M  ISO  4  21 100  29 100  59 101  60 101
M  END
>  <TORSDO>  (56) 
F 22

>  <SCORE>  (56) 
-6.506

>  <name>  (56) 
56

>  <ligand_id>  (56) 
56

>  <original_smiles>  (56) 
[H]c1c([H])c([H])c2c(c1[H])C([H])([H])C([H])([H])C([H])([H])C2([H])N([H])C(=O)C1([H])N(C(=O)C([H])(N([H])C(=O)C([H])(N([H])C([H])([H])[H])C([H])([H])[H])C(C([H])([H])[H])(C([H])([H])[H])C([H])([H])[H])C([H])([H])c2c([H])c(OC([H])([H])c3c4c(c([H])c([H])c3C([H])([H])[N+]([H])([H])C([H])([H])C([H])([H])N([H])C(=O)N3C([H])([H])C([H])([H])C([H])([H])C([H])(n5nc(-c6c([H])c([H])c(Oc7c([H])c([H])c(F)c([H])c7F)c([H])c6[H])c(C(=O)N([H])[H])c5N([H])[H])C3([H])[H])C([H])(C([H])([H])C([H])([H])[H])[N+]([H])([H])C([H])([H])C4([H])[H])c([H])c([H])c2C1([H])[H]

>  <smiles>  (56) 
[H]c1c([H])c([H])c2c(c1[H])C([H])([H])C([H])([H])C([H])([H])C2([H])N([H])C(=O)C1([H])N(C(=O)C([H])(N([H])C(=O)C([H])(N([H])C([H])([H])[H])C([H])([H])[H])C(C([H])([H])[H])(C([H])([H])[H])C([H])([H])[H])C([H])([H])c2c([H])c(OC([H])([H])c3c4c(c([H])c([H])c3C([H])([H])[N+]([H])([H])C([H])([H])C([H])([H])N([H])C(=O)N3C([H])([H])C([H])([H])C([H])([H])C([H])(n5nc(-c6c([H])c([H])c(Oc7c([H])c([H])c(F)c([H])c7F)c([H])c6[H])c(C(=O)N([H])[H])c5N([H])[H])C3([H])[H])C([H])(C([H])([H])C([H])([H])[H])[N+]([H])([H])C([H])([H])C4([H])[H])c([H])c([H])c2C1([H])[H]

$$$$
57:0:0
     RDKit          3D

 98108  0  0  1  0  0  0  0  0999 V2000
  -29.7470  -22.1570   18.7010 C   0  0  0  0  0  3  0  0  0  0  0  0
  -30.4040  -20.9120   18.2430 C   0  0  0  0  0  3  0  0  0  0  0  0
  -31.1560  -22.2170   20.5130 C   0  0  0  0  0  3  0  0  0  0  0  0
  -31.8370  -20.9630   20.0620 C   0  0  0  0  0  0  0  0  0  0  0  0
  -30.0620  -22.9450   19.8780 C   0  0  0  0  0  0  0  0  0  0  0  0
  -31.4960  -20.1810   18.8700 C   0  0  0  0  0  0  0  0  0  0  0  0
  -34.1640  -20.7230   22.5990 C   0  0  0  0  0  2  0  0  0  0  0  0
  -33.0250  -20.4640   20.8910 C   0  0  0  0  0  3  0  0  0  0  0  0
  -34.2550  -21.3310   21.1980 C   0  0  0  0  0  3  0  0  0  0  0  0
  -32.7610  -20.4260   22.3280 N   0  0  0  0  0  4  0  0  0  0  0  0
  -32.1530  -21.1660   22.6290 H   0  0  0  0  0  0  0  0  0  0  0  0
  -32.4550  -19.5300   22.6700 H   0  0  0  0  0  0  0  0  0  0  0  0
  -35.5350  -21.1670   20.3810 C   0  0  0  0  0  2  0  0  0  0  0  0
  -35.3840  -21.6690   18.9370 C   0  0  0  0  0  2  0  0  0  0  0  0
  -36.7390  -20.0680   17.3500 C   0  0  0  0  0  2  0  0  0  0  0  0
  -36.5300  -21.3560   16.5870 C   0  0  0  0  0  2  0  0  0  0  0  0
  -36.6090  -21.3750   18.0950 C   0  0  0  0  0  3  0  0  0  0  0  0
  -32.3570  -18.8850   18.0880 C   0  0  0  0  0  2  0  0  0  0  0  0
  -33.5190  -16.2970   17.6930 C   0  0  0  0  0  0  0  0  0  0  0  0
  -33.8620  -13.9480   16.6790 C   0  0  0  0  0  2  0  0  0  0  0  0
  -32.6120  -13.4160   15.9360 C   0  0  0  0  0  2  0  0  0  0  0  0
  -31.6560  -12.7150   16.9160 C   0  0  0  0  0  2  0  0  0  0  0  0
  -31.4570  -13.5300   18.2200 C   0  0  0  0  0  3  0  0  0  0  0  0
  -32.7840  -14.0570   18.8070 C   0  0  0  0  0  2  0  0  0  0  0  0
  -33.4080  -14.8870   17.7660 N   0  0  0  0  0  0  0  0  0  0  0  0
  -34.4440  -16.6840   16.9680 O   0  0  0  0  0  0  0  0  0  0  0  0
  -32.5400  -17.2570   18.2270 N   0  0  0  0  0  0  0  0  0  0  0  0
  -31.8090  -16.8100   18.7580 H   0  0  0  0  0  0  0  0  0  0  0  0
  -29.3990  -13.1560   19.6780 C   0  0  0  0  0  0  0  0  0  0  0  0
  -29.0240  -12.1320   20.5030 C   0  0  0  0  0  0  0  0  0  0  0  0
  -30.1050  -11.1990   20.4950 C   0  0  0  0  0  0  0  0  0  0  0  0
  -30.6540  -12.8180   19.2040 N   0  0  0  0  0  0  0  0  0  0  0  0
  -31.1080  -11.6620   19.7550 N   0  0  0  0  0  0  0  0  0  0  0  0
  -30.2160   -9.8650   21.1000 C   0  0  0  0  0  0  0  0  0  0  0  0
  -31.4430   -9.3810   21.6050 C   0  0  0  0  0  3  0  0  0  0  0  0
  -31.5170   -8.1040   22.2030 C   0  0  0  0  0  3  0  0  0  0  0  0
  -30.3570   -7.2990   22.3040 C   0  0  0  0  0  0  0  0  0  0  0  0
  -29.1430   -7.7760   21.7790 C   0  0  0  0  0  3  0  0  0  0  0  0
  -29.0730   -9.0450   21.1790 C   0  0  0  0  0  3  0  0  0  0  0  0
  -30.3390   -6.0360   22.8450 O   0  0  0  0  0  0  0  0  0  0  0  0
  -31.4250   -5.5200   23.5070 C   0  0  0  0  0  0  0  0  0  0  0  0
  -32.1360   -6.2700   24.4710 C   0  0  0  0  0  3  0  0  0  0  0  0
  -33.2030   -5.6790   25.1760 C   0  0  0  0  0  3  0  0  0  0  0  0
  -33.5540   -4.3390   24.9280 C   0  0  0  0  0  0  0  0  0  0  0  0
  -32.8450   -3.5890   23.9730 C   0  0  0  0  0  3  0  0  0  0  0  0
  -31.7810   -4.1780   23.2670 C   0  0  0  0  0  0  0  0  0  0  0  0
  -31.0880   -3.4450   22.3640 F   0  0  0  0  0  0  0  0  0  0  0  0
  -34.5730   -3.7670   25.6120 F   0  0  0  0  0  0  0  0  0  0  0  0
  -27.6910  -11.9800   21.1760 C   0  0  0  0  0  0  0  0  0  0  0  0
  -27.6600  -11.3260   22.3320 N   0  0  0  0  0  0  0  0  0  0  0  0
  -26.6750  -12.4860   20.7010 O   0  0  0  0  0  0  0  0  0  0  0  0
  -28.4980  -10.9300   22.7300 H   0  0  0  0  0  0  0  0  0  0  0  0
  -26.7850  -11.2200   22.8240 H   0  0  0  0  0  0  0  0  0  0  0  0
  -28.7700  -14.3270   19.2670 N   0  0  0  0  0  0  0  0  0  0  0  0
  -27.8140  -14.5380   19.5300 H   0  0  0  0  0  0  0  0  0  0  0  0
  -29.1240  -14.9370   18.5410 H   0  0  0  0  0  0  0  0  0  0  0  0
  -29.0710  -24.1880   20.5750 C   0  0  0  0  0  2  0  0  0  0  0  0
  -29.2020  -25.7670   20.9290 O   0  0  0  0  0  0  0  0  0  0  0  0
  -24.6860  -31.3110   23.2570 C   0  0  0  0  0  0  0  0  0  0  0  0
  -28.1050  -26.7410   20.7040 C   0  0  0  0  0  0  0  0  0  0  0  0
  -23.8570  -29.7620   21.5350 C   0  0  0  0  0  3  0  0  0  0  0  0
  -25.6320  -28.3210   20.3340 C   0  0  0  0  0  0  0  0  0  0  0  0
  -26.3800  -30.2740   21.6730 C   0  0  0  0  0  2  0  0  0  0  0  0
  -26.6840  -28.8750   21.0750 C   0  0  0  0  0  0  0  0  0  0  0  0
  -27.9170  -28.1040   21.2370 C   0  0  0  0  0  3  0  0  0  0  0  0
  -27.0140  -26.3300   19.9040 C   0  0  0  0  0  3  0  0  0  0  0  0
  -25.8200  -27.0690   19.7310 C   0  0  0  0  0  3  0  0  0  0  0  0
  -24.3190  -29.0900   20.2130 C   0  0  0  0  0  2  0  0  0  0  0  0
  -24.9860  -30.4770   22.2100 N   0  0  0  0  0  0  0  0  0  0  0  0
  -23.5180  -31.4810   23.6400 O   0  0  0  0  0  0  0  0  0  0  0  0
  -23.1720  -28.7060   22.4420 C   0  0  0  0  0  0  0  0  0  0  0  0
  -21.9410  -28.2890   22.0910 N   0  0  0  0  0  0  0  0  0  0  0  0
  -23.7610  -28.2620   23.4310 O   0  0  0  0  0  0  0  0  0  0  0  0
  -21.5150  -28.7060   21.2750 H   0  0  0  0  0  0  0  0  0  0  0  0
  -18.8330  -26.4210   22.0070 C   0  0  0  0  0  0  0  0  0  0  0  0
  -21.1560  -27.2600   22.7790 C   0  0  0  0  0  3  0  0  0  0  0  0
  -21.6670  -25.8430   22.4290 C   0  0  0  0  0  2  0  0  0  0  0  0
  -20.9210  -25.2060   21.2510 C   0  0  0  0  0  2  0  0  0  0  0  0
  -19.4250  -25.0950   21.5600 C   0  0  0  0  0  2  0  0  0  0  0  0
  -19.6470  -27.4430   22.5640 C   0  0  0  0  0  0  0  0  0  0  0  0
  -19.0500  -28.6670   22.9350 C   0  0  0  0  0  3  0  0  0  0  0  0
  -17.6690  -28.8780   22.7570 C   0  0  0  0  0  3  0  0  0  0  0  0
  -16.8660  -27.8580   22.2160 C   0  0  0  0  0  3  0  0  0  0  0  0
  -17.4480  -26.6320   21.8470 C   0  0  0  0  0  3  0  0  0  0  0  0
  -25.7950  -32.1050   24.0100 C   0  0  0  0  0  3  0  0  0  0  0  0
  -25.3340  -33.4960   24.1600 N   0  0  0  0  0  0  0  0  0  0  0  0
  -25.8360  -34.5460   23.4970 C   0  0  0  0  0  0  0  0  0  0  0  0
  -26.7930  -34.4500   22.7250 O   0  0  0  0  0  0  0  0  0  0  0  0
  -24.5160  -33.6390   24.7320 H   0  0  0  0  0  0  0  0  0  0  0  0
  -24.2190  -36.2360   22.5630 C   0  0  0  0  0  1  0  0  0  0  0  0
  -25.1760  -35.9220   23.7240 C   0  0  0  0  0  3  0  0  0  0  0  0
  -26.9470  -36.9290   25.0960 C   0  0  0  0  0  1  0  0  0  0  0  0
  -26.1490  -37.0260   23.8770 N   0  0  0  0  0  0  0  0  0  0  0  0
  -25.6740  -37.9250   23.8790 H   0  0  0  0  0  0  0  0  0  0  0  0
  -26.1400  -31.4920   25.4240 C   0  0  1  0  0  0  0  0  0  0  0  0
  -24.9020  -31.2560   26.3210 C   0  0  0  0  0  1  0  0  0  0  0  0
  -26.8720  -30.1390   25.2740 C   0  0  0  0  0  1  0  0  0  0  0  0
  -27.1070  -32.4320   26.1800 C   0  0  0  0  0  1  0  0  0  0  0  0
  1  5  1  0
  2  1  2  0
  2  6  1  0
  4  3  1  0
  5  3  2  0
  5 57  1  0
  6  4  2  0
  8  4  1  0
  8  9  1  0
  8 10  1  0
  9 13  1  0
  9  7  1  0
 10  7  1  0
 10 11  1  0
 10 12  1  0
 14 13  1  0
 15 17  1  0
 16 15  1  0
 16 17  1  0
 17 14  1  0
 18 27  1  0
 18  6  1  0
 19 25  1  0
 19 27  1  0
 20 25  1  0
 21 20  1  0
 21 22  1  0
 23 22  1  0
 23 24  1  0
 23 32  1  0
 25 24  1  0
 26 19  2  0
 27 28  1  0
 29 30  2  0
 30 49  1  0
 31 30  1  0
 31 34  1  0
 32 29  1  0
 32 33  1  0
 33 31  2  0
 34 39  2  0
 34 35  1  0
 35 36  2  0
 36 37  1  0
 37 40  1  0
 38 37  2  0
 39 38  1  0
 40 41  1  0
 41 42  1  0
 42 43  2  0
 44 43  1  0
 44 48  1  0
 45 44  2  0
 46 41  2  0
 46 45  1  0
 47 46  1  0
 49 50  1  0
 50 52  1  0
 50 53  1  0
 51 49  2  0
 54 55  1  0
 54 29  1  0
 56 54  1  0
 57 58  1  0
 59 70  2  0
 60 58  1  0
 60 65  1  0
 61 69  1  0
 61 71  1  0
 62 64  1  0
 63 69  1  0
 64 65  2  0
 64 63  1  0
 66 60  2  0
 67 66  1  0
 67 62  2  0
 68 62  1  0
 68 61  1  0
 69 59  1  0
 71 73  2  0
 72 71  1  0
 74 72  1  0
 75 80  1  0
 76 72  1  0
 77 76  1  0
 78 79  1  0
 78 77  1  0
 79 75  1  0
 80 76  1  0
 80 81  2  0
 82 81  1  0
 83 82  2  0
 84 75  2  0
 84 83  1  0
 85 59  1  0
 85 86  1  0
 85 95  1  0
 86 89  1  0
 87 91  1  0
 87 86  1  0
 88 87  2  0
 91 90  1  0
 91 93  1  0
 93 94  1  0
 93 92  1  0
 95 98  1  1
 95 96  1  0
 97 95  1  0
M  ISO  4  19 100  27 100  57 101  58 101
M  END
>  <TORSDO>  (57) 
F 22

>  <SCORE>  (57) 
-6.190

>  <name>  (57) 
57

>  <ligand_id>  (57) 
57

>  <original_smiles>  (57) 
[H]c1c([H])c([H])c2c(c1[H])C([H])([H])C([H])([H])C([H])([H])C2([H])N([H])C(=O)C1([H])N(C(=O)C([H])(N([H])C(=O)C([H])(N([H])C([H])([H])[H])C([H])([H])[H])C(C([H])([H])[H])(C([H])([H])[H])C([H])([H])[H])C([H])([H])c2c([H])c(OC([H])([H])c3c([H])c([H])c(C([H])([H])N([H])C(=O)N4C([H])([H])C([H])([H])C([H])([H])C([H])(n5nc(-c6c([H])c([H])c(Oc7c([H])c([H])c(F)c([H])c7F)c([H])c6[H])c(C(=O)N([H])[H])c5N([H])[H])C4([H])[H])c(C4([H])C([H])(C([H])([H])C([H])([H])C5([H])C([H])([H])C5([H])[H])C([H])([H])[N+]4([H])[H])c3[H])c([H])c([H])c2C1([H])[H]

>  <smiles>  (57) 
[H]c1c([H])c([H])c2c(c1[H])C([H])([H])C([H])([H])C([H])([H])C2([H])N([H])C(=O)C1([H])N(C(=O)C([H])(N([H])C(=O)C([H])(N([H])C([H])([H])[H])C([H])([H])[H])C(C([H])([H])[H])(C([H])([H])[H])C([H])([H])[H])C([H])([H])c2c([H])c(OC([H])([H])c3c([H])c([H])c(C([H])([H])N([H])C(=O)N4C([H])([H])C([H])([H])C([H])([H])C([H])(n5nc(-c6c([H])c([H])c(Oc7c([H])c([H])c(F)c([H])c7F)c([H])c6[H])c(C(=O)N([H])[H])c5N([H])[H])C4([H])[H])c(C4([H])C([H])(C([H])([H])C([H])([H])C5([H])C([H])([H])C5([H])[H])C([H])([H])[N+]4([H])[H])c3[H])c([H])c([H])c2C1([H])[H]

$$$$
58:0:0
     RDKit          3D

 98104  0  0  1  0  0  0  0  0999 V2000
  -26.6580  -18.5770   19.1950 C   0  0  0  0  0  2  0  0  0  0  0  0
  -29.0900  -18.3920   18.8590 C   0  0  0  0  0  2  0  0  0  0  0  0
  -26.4670  -17.1350   18.5640 C   0  0  0  0  0  2  0  0  0  0  0  0
  -28.8660  -16.9110   18.2880 C   0  0  0  0  0  2  0  0  0  0  0  0
  -27.8950  -19.3970   18.6830 C   0  0  0  0  0  3  0  0  0  0  0  0
  -27.6110  -16.0890   18.8000 C   0  0  0  0  0  3  0  0  0  0  0  0
  -26.9140  -21.6730   19.6380 C   0  0  0  0  0  3  0  0  0  0  0  0
  -29.2490  -21.6950   19.1770 C   0  0  0  0  0  3  0  0  0  0  0  0
  -26.9820  -23.0440   20.0640 C   0  0  0  0  0  3  0  0  0  0  0  0
  -29.3230  -23.0700   19.6200 C   0  0  0  0  0  3  0  0  0  0  0  0
  -28.0420  -20.9210   19.2000 C   0  0  0  0  0  0  0  0  0  0  0  0
  -28.1910  -23.7960   20.1060 C   0  0  0  0  0  0  0  0  0  0  0  0
  -28.2650  -25.1510   20.9600 C   0  0  0  0  0  2  0  0  0  0  0  0
  -28.5110  -26.5430   20.4690 O   0  0  0  0  0  0  0  0  0  0  0  0
  -25.2040  -32.1730   23.8230 C   0  0  0  0  0  0  0  0  0  0  0  0
  -27.4800  -27.4800   20.6090 C   0  0  0  0  0  0  0  0  0  0  0  0
  -23.8990  -30.8370   22.2160 C   0  0  0  0  0  3  0  0  0  0  0  0
  -25.2260  -29.2220   20.7490 C   0  0  0  0  0  0  0  0  0  0  0  0
  -26.4500  -31.0130   21.9840 C   0  0  0  0  0  2  0  0  0  0  0  0
  -26.4420  -29.6370   21.3120 C   0  0  0  0  0  0  0  0  0  0  0  0
  -27.5790  -28.7690   21.2400 C   0  0  0  0  0  3  0  0  0  0  0  0
  -26.2430  -27.1250   20.0490 C   0  0  0  0  0  3  0  0  0  0  0  0
  -25.1290  -27.9720   20.1200 C   0  0  0  0  0  3  0  0  0  0  0  0
  -24.0430  -30.1640   20.8310 C   0  0  0  0  0  2  0  0  0  0  0  0
  -25.2060  -31.3570   22.7300 N   0  0  0  0  0  0  0  0  0  0  0  0
  -24.1440  -32.5060   24.3760 O   0  0  0  0  0  0  0  0  0  0  0  0
  -23.2110  -29.8490   23.1860 C   0  0  0  0  0  0  0  0  0  0  0  0
  -21.9110  -29.5890   22.9630 N   0  0  0  0  0  0  0  0  0  0  0  0
  -23.8480  -29.3210   24.1020 O   0  0  0  0  0  0  0  0  0  0  0  0
  -21.4580  -30.0640   22.1950 H   0  0  0  0  0  0  0  0  0  0  0  0
  -18.6220  -28.1030   23.1520 C   0  0  0  0  0  0  0  0  0  0  0  0
  -21.0790  -28.6620   23.7280 C   0  0  0  0  0  3  0  0  0  0  0  0
  -21.3940  -27.1960   23.3520 C   0  0  0  0  0  2  0  0  0  0  0  0
  -20.4840  -26.6470   22.2490 C   0  0  0  0  0  2  0  0  0  0  0  0
  -19.0150  -26.7140   22.6800 C   0  0  0  0  0  2  0  0  0  0  0  0
  -19.5930  -29.0230   23.6280 C   0  0  0  0  0  0  0  0  0  0  0  0
  -19.1770  -30.3130   24.0220 C   0  0  0  0  0  3  0  0  0  0  0  0
  -17.8220  -30.6870   23.9490 C   0  0  0  0  0  3  0  0  0  0  0  0
  -16.8630  -29.7660   23.4920 C   0  0  0  0  0  3  0  0  0  0  0  0
  -17.2630  -28.4770   23.0990 C   0  0  0  0  0  3  0  0  0  0  0  0
  -26.5270  -32.7430   24.4180 C   0  0  0  0  0  3  0  0  0  0  0  0
  -26.3400  -34.1890   24.6100 N   0  0  0  0  0  0  0  0  0  0  0  0
  -26.8600  -35.1370   23.8210 C   0  0  0  0  0  0  0  0  0  0  0  0
  -27.6160  -34.8820   22.8770 O   0  0  0  0  0  0  0  0  0  0  0  0
  -25.6870  -34.4700   25.3280 H   0  0  0  0  0  0  0  0  0  0  0  0
  -25.4090  -37.0720   23.1280 C   0  0  0  0  0  1  0  0  0  0  0  0
  -26.4840  -36.6010   24.1210 C   0  0  0  0  0  3  0  0  0  0  0  0
  -28.5940  -37.3020   25.1670 C   0  0  0  0  0  1  0  0  0  0  0  0
  -27.6400  -37.5250   24.0820 N   0  0  0  0  0  0  0  0  0  0  0  0
  -27.3290  -38.4920   24.1290 H   0  0  0  0  0  0  0  0  0  0  0  0
  -26.9470  -32.0550   25.7740 C   0  0  1  0  0  0  0  0  0  0  0  0
  -25.8040  -31.9820   26.8110 C   0  0  0  0  0  1  0  0  0  0  0  0
  -27.4470  -30.6130   25.5290 C   0  0  0  0  0  1  0  0  0  0  0  0
  -28.1270  -32.8270   26.4080 C   0  0  0  0  0  1  0  0  0  0  0  0
  -27.3630  -14.5740   18.1610 C   0  0  0  0  0  2  0  0  0  0  0  0
  -27.7990  -13.2520   18.8780 N   0  0  0  0  0  4  0  0  0  0  0  0
  -26.9390  -12.7500   19.0380 H   0  0  0  0  0  0  0  0  0  0  0  0
  -28.1430  -13.4910   19.7940 H   0  0  0  0  0  0  0  0  0  0  0  0
  -28.7530  -12.1630   18.2770 C   0  0  0  0  0  2  0  0  0  0  0  0
  -29.6520  -11.0010   19.1330 C   0  0  0  0  0  2  0  0  0  0  0  0
  -31.7660  -11.9000   21.2680 C   0  0  2  0  0  0  0  0  0  0  0  0
  -32.8210  -11.0970   20.3530 C   0  0  0  0  0  1  0  0  0  0  0  0
  -32.1810  -12.2740   18.9900 C   0  0  0  0  0  1  0  0  0  0  0  0
  -30.8430  -13.4000   19.5120 C   0  0  0  0  0  2  0  0  0  0  0  0
  -29.8270  -13.2600   21.1010 C   0  0  0  0  0  2  0  0  0  0  0  0
  -30.6380  -12.1840   22.3930 C   0  0  0  0  0  1  0  0  0  0  0  0
  -31.9770  -11.1630   21.9160 N   0  0  0  0  0  1  0  0  0  0  0  0
  -32.5610  -13.0270   21.4290 O   0  0  0  0  0  1  0  0  0  0  0  0
  -30.5810  -11.0280   20.4380 N   0  0  0  0  0  2  0  0  0  0  0  0
  -30.4230  -10.1770   20.9560 H   0  0  0  0  0  0  0  0  0  0  0  0
  -27.3280  -13.9060   21.2720 C   0  0  0  0  0  0  0  0  0  0  0  0
  -26.1140  -13.2880   21.3910 C   0  0  0  0  0  0  0  0  0  0  0  0
  -26.3560  -11.8850   21.3200 C   0  0  0  0  0  0  0  0  0  0  0  0
  -28.3140  -12.9500   21.1660 N   0  0  0  0  0  0  0  0  0  0  0  0
  -27.6930  -11.7020   21.2320 N   0  0  0  0  0  0  0  0  0  0  0  0
  -25.3630  -10.7660   21.2990 C   0  0  0  0  0  0  0  0  0  0  0  0
  -25.4360   -9.6670   22.1890 C   0  0  0  0  0  3  0  0  0  0  0  0
  -24.4420   -8.6570   22.1940 C   0  0  0  0  0  3  0  0  0  0  0  0
  -23.3450   -8.7200   21.2980 C   0  0  0  0  0  0  0  0  0  0  0  0
  -23.2820   -9.7990   20.4000 C   0  0  0  0  0  3  0  0  0  0  0  0
  -24.2700  -10.8050   20.3990 C   0  0  0  0  0  3  0  0  0  0  0  0
  -22.3590   -7.7650   21.1960 O   0  0  0  0  0  0  0  0  0  0  0  0
  -21.9580   -7.0020   22.2650 C   0  0  0  0  0  0  0  0  0  0  0  0
  -21.4470   -7.5840   23.4460 C   0  0  0  0  0  3  0  0  0  0  0  0
  -20.9840   -6.7590   24.4890 C   0  0  0  0  0  3  0  0  0  0  0  0
  -21.0270   -5.3590   24.3590 C   0  0  0  0  0  0  0  0  0  0  0  0
  -21.5310   -4.7800   23.1810 C   0  0  0  0  0  3  0  0  0  0  0  0
  -21.9850   -5.5990   22.1340 C   0  0  0  0  0  0  0  0  0  0  0  0
  -22.4420   -5.0290   20.9920 F   0  0  0  0  0  0  0  0  0  0  0  0
  -20.5840   -4.5680   25.3660 F   0  0  0  0  0  0  0  0  0  0  0  0
  -24.7930  -13.9960   21.5010 C   0  0  0  0  0  0  0  0  0  0  0  0
  -23.8540  -13.4460   22.2630 N   0  0  0  0  0  0  0  0  0  0  0  0
  -24.6170  -15.0870   20.9620 O   0  0  0  0  0  0  0  0  0  0  0  0
  -24.0160  -12.5810   22.7570 H   0  0  0  0  0  0  0  0  0  0  0  0
  -22.9750  -13.9250   22.3940 H   0  0  0  0  0  0  0  0  0  0  0  0
  -27.6910  -15.2380   21.2350 N   0  0  0  0  0  0  0  0  0  0  0  0
  -27.0060  -15.9790   21.3270 H   0  0  0  0  0  0  0  0  0  0  0  0
  -28.6390  -15.5870   21.2490 H   0  0  0  0  0  0  0  0  0  0  0  0
  3  6  1  0
  3  1  1  0
  4  6  1  0
  4  2  1  0
  5  2  1  0
  5  1  1  0
  5 11  1  0
  6 55  1  0
  7  9  1  0
  8 11  1  0
  8 10  2  0
  9 12  2  0
 10 12  1  0
 11  7  2  0
 12 13  1  0
 14 16  1  0
 14 13  1  0
 15 26  2  0
 16 21  1  0
 17 25  1  0
 17 27  1  0
 18 24  1  0
 18 20  1  0
 19 25  1  0
 20 19  1  0
 21 20  2  0
 22 23  1  0
 22 16  2  0
 23 18  2  0
 24 17  1  0
 25 15  1  0
 27 29  2  0
 28 27  1  0
 30 28  1  0
 31 36  1  0
 32 28  1  0
 33 32  1  0
 34 35  1  0
 34 33  1  0
 35 31  1  0
 36 32  1  0
 36 37  2  0
 38 37  1  0
 39 38  2  0
 40 31  2  0
 40 39  1  0
 41 15  1  0
 41 42  1  0
 41 51  1  0
 42 45  1  0
 43 47  1  0
 43 42  1  0
 44 43  2  0
 47 46  1  0
 49 47  1  0
 49 50  1  0
 49 48  1  0
 51 54  1  1
 51 52  1  0
 53 51  1  0
 55 56  1  0
 56 57  1  0
 56 58  1  0
 59 56  1  0
 59 60  1  0
 60 69  1  0
 61 68  1  0
 61 67  1  0
 61 66  1  6
 62 61  1  0
 63 64  1  0
 64 65  1  0
 65 74  1  0
 69 70  1  0
 71 72  2  0
 72 91  1  0
 73 72  1  0
 74 75  1  0
 74 71  1  0
 75 73  2  0
 76 73  1  0
 76 77  1  0
 77 78  2  0
 79 78  1  0
 80 79  2  0
 81 80  1  0
 81 76  2  0
 82 79  1  0
 82 83  1  0
 83 84  1  0
 84 85  2  0
 86 85  1  0
 86 90  1  0
 87 86  2  0
 88 83  2  0
 88 87  1  0
 89 88  1  0
 91 92  1  0
 92 95  1  0
 92 94  1  0
 93 91  2  0
 96 98  1  0
 96 71  1  0
 96 97  1  0
M  ISO  4  13 101  14 101  61 100  69 100
M  END
>  <TORSDO>  (58) 
F 22

>  <SCORE>  (58) 
-6.620

>  <name>  (58) 
58

>  <ligand_id>  (58) 
58

>  <original_smiles>  (58) 
[H]c1c([H])c([H])c2c(c1[H])C([H])([H])C([H])([H])C([H])([H])C2([H])N([H])C(=O)C1([H])N(C(=O)C([H])(N([H])C(=O)C([H])(N([H])C([H])([H])[H])C([H])([H])[H])C(C([H])([H])[H])(C([H])([H])[H])C([H])([H])[H])C([H])([H])c2c([H])c(OC([H])([H])c3c([H])c([H])c(C4([H])C([H])([H])C([H])([H])C([H])(C([H])([H])[N+]([H])([H])C([H])([H])C([H])([H])N([H])C(=O)N5C([H])([H])C([H])([H])C([H])([H])C([H])(n6nc(-c7c([H])c([H])c(Oc8c([H])c([H])c(F)c([H])c8F)c([H])c7[H])c(C(=O)N([H])[H])c6N([H])[H])C5([H])[H])C([H])([H])C4([H])[H])c([H])c3[H])c([H])c([H])c2C1([H])[H]

>  <smiles>  (58) 
[H]c1c([H])c([H])c2c(c1[H])C([H])([H])C([H])([H])C([H])([H])C2([H])N([H])C(=O)C1([H])N(C(=O)C([H])(N([H])C(=O)C([H])(N([H])C([H])([H])[H])C([H])([H])[H])C(C([H])([H])[H])(C([H])([H])[H])C([H])([H])[H])C([H])([H])c2c([H])c(OC([H])([H])c3c([H])c([H])c(C4([H])C([H])([H])C([H])([H])C([H])(C([H])([H])[N+]([H])([H])C([H])([H])C([H])([H])N([H])C(=O)N5C([H])([H])C([H])([H])C([H])([H])C([H])(n6nc(-c7c([H])c([H])c(Oc8c([H])c([H])c(F)c([H])c8F)c([H])c7[H])c(C(=O)N([H])[H])c6N([H])[H])C5([H])[H])C([H])([H])C4([H])[H])c([H])c3[H])c([H])c([H])c2C1([H])[H]

$$$$
59:0:0
     RDKit          3D

 91 99  0  0  1  0  0  0  0  0999 V2000
  -29.7330  -22.2250   20.4570 C   0  0  0  0  0  3  0  0  0  0  0  0
  -29.5670  -23.6970   20.4950 C   0  0  0  0  0  3  0  0  0  0  0  0
  -27.4870  -22.1130   20.0410 C   0  0  0  0  0  3  0  0  0  0  0  0
  -28.6820  -21.2600   20.2070 C   0  0  0  0  0  0  0  0  0  0  0  0
  -28.3380  -24.4520   20.2980 C   0  0  0  0  0  0  0  0  0  0  0  0
  -27.3150  -23.5360   20.0690 N   0  0  0  0  0  0  0  0  0  0  0  0
  -28.2460  -25.9890   20.3110 O   0  0  0  0  0  0  0  0  0  0  0  0
  -24.6460  -31.9090   23.2720 C   0  0  0  0  0  0  0  0  0  0  0  0
  -27.1780  -27.0210   20.2840 C   0  0  0  0  0  0  0  0  0  0  0  0
  -23.4470  -30.5150   21.6350 C   0  0  0  0  0  3  0  0  0  0  0  0
  -24.8870  -28.8940   20.2230 C   0  0  0  0  0  0  0  0  0  0  0  0
  -26.0110  -30.7140   21.4930 C   0  0  0  0  0  2  0  0  0  0  0  0
  -26.0710  -29.3010   20.8480 C   0  0  0  0  0  0  0  0  0  0  0  0
  -27.2090  -28.3840   20.8530 C   0  0  0  0  0  3  0  0  0  0  0  0
  -25.9690  -26.7590   19.6040 C   0  0  0  0  0  3  0  0  0  0  0  0
  -24.8590  -27.6430   19.5830 C   0  0  0  0  0  3  0  0  0  0  0  0
  -23.6750  -29.8250   20.2600 C   0  0  0  0  0  2  0  0  0  0  0  0
  -24.7230  -31.0760   22.1860 N   0  0  0  0  0  0  0  0  0  0  0  0
  -23.5580  -32.2030   23.7920 O   0  0  0  0  0  0  0  0  0  0  0  0
  -22.7490  -29.5240   22.6020 C   0  0  0  0  0  0  0  0  0  0  0  0
  -21.4200  -29.3570   22.4700 N   0  0  0  0  0  0  0  0  0  0  0  0
  -23.4120  -28.9060   23.4400 O   0  0  0  0  0  0  0  0  0  0  0  0
  -20.9370  -29.9100   21.7750 H   0  0  0  0  0  0  0  0  0  0  0  0
  -18.0360  -28.1470   22.9630 C   0  0  0  0  0  0  0  0  0  0  0  0
  -20.5930  -28.4250   23.2430 C   0  0  0  0  0  3  0  0  0  0  0  0
  -20.7030  -26.9870   22.6820 C   0  0  0  0  0  2  0  0  0  0  0  0
  -19.6110  -26.6520   21.6620 C   0  0  0  0  0  2  0  0  0  0  0  0
  -18.2240  -26.7940   22.2940 C   0  0  0  0  0  2  0  0  0  0  0  0
  -19.1490  -28.9190   23.3930 C   0  0  0  0  0  0  0  0  0  0  0  0
  -18.9160  -30.1830   23.9800 C   0  0  0  0  0  3  0  0  0  0  0  0
  -17.6070  -30.6740   24.1380 C   0  0  0  0  0  3  0  0  0  0  0  0
  -16.5110  -29.9010   23.7210 C   0  0  0  0  0  3  0  0  0  0  0  0
  -16.7260  -28.6390   23.1380 C   0  0  0  0  0  3  0  0  0  0  0  0
  -25.9200  -32.5480   23.9050 C   0  0  0  0  0  3  0  0  0  0  0  0
  -26.4200  -31.7850   25.1970 C   0  0  1  0  0  0  0  0  0  0  0  0
  -25.3170  -31.5620   26.2560 C   0  0  0  0  0  1  0  0  0  0  0  0
  -27.0010  -30.4000   24.8310 C   0  0  0  0  0  1  0  0  0  0  0  0
  -27.5670  -32.5800   25.8620 C   0  0  0  0  0  1  0  0  0  0  0  0
  -25.6100  -33.9500   24.2350 N   0  0  0  0  0  0  0  0  0  0  0  0
  -25.9240  -35.0070   23.4730 C   0  0  0  0  0  0  0  0  0  0  0  0
  -26.5680  -34.9030   22.4250 O   0  0  0  0  0  0  0  0  0  0  0  0
  -25.0360  -34.1010   25.0520 H   0  0  0  0  0  0  0  0  0  0  0  0
  -24.1770  -36.7970   23.1830 C   0  0  0  0  0  1  0  0  0  0  0  0
  -25.4500  -36.3960   23.9450 C   0  0  0  0  0  3  0  0  0  0  0  0
  -27.6070  -37.3020   24.6930 C   0  0  0  0  0  1  0  0  0  0  0  0
  -26.4720  -37.4540   23.7860 N   0  0  0  0  0  0  0  0  0  0  0  0
  -26.0660  -38.3730   23.9400 H   0  0  0  0  0  0  0  0  0  0  0  0
  -28.7030  -19.5040   20.0710 C   0  0  0  0  0  3  0  0  0  0  0  0
  -28.1910  -19.1620   18.7360 N   0  0  0  0  0  4  0  0  0  0  0  0
  -28.8530  -19.4250   18.0290 H   0  0  0  0  0  0  0  0  0  0  0  0
  -27.3070  -19.5960   18.5400 H   0  0  0  0  0  0  0  0  0  0  0  0
  -28.0610  -18.1670   18.6830 H   0  0  0  0  0  0  0  0  0  0  0  0
  -29.8380  -18.1750   20.4250 C   0  0  0  0  0  2  0  0  0  0  0  0
  -30.4070  -15.2910   20.2190 C   0  0  0  0  0  0  0  0  0  0  0  0
  -30.3910  -12.8650   19.3190 C   0  0  0  0  0  2  0  0  0  0  0  0
  -29.4530  -12.6780   18.0990 C   0  0  0  0  0  2  0  0  0  0  0  0
  -28.0050  -12.4150   18.5550 C   0  0  0  0  0  2  0  0  0  0  0  0
  -27.5740  -13.3610   19.7030 C   0  0  0  0  0  3  0  0  0  0  0  0
  -28.6360  -13.4770   20.8130 C   0  0  0  0  0  2  0  0  0  0  0  0
  -29.8560  -13.9860   20.1690 N   0  0  0  0  0  0  0  0  0  0  0  0
  -31.6200  -15.3250   19.9760 O   0  0  0  0  0  0  0  0  0  0  0  0
  -29.6090  -16.5270   20.3400 N   0  0  0  0  0  0  0  0  0  0  0  0
  -28.6420  -16.2830   20.4980 H   0  0  0  0  0  0  0  0  0  0  0  0
  -25.2120  -13.9090   20.4940 C   0  0  0  0  0  0  0  0  0  0  0  0
  -24.1590  -13.1260   20.8770 C   0  0  0  0  0  0  0  0  0  0  0  0
  -24.6330  -11.7780   20.8290 C   0  0  0  0  0  0  0  0  0  0  0  0
  -26.2530  -13.0390   20.2270 N   0  0  0  0  0  0  0  0  0  0  0  0
  -25.9190  -11.7520   20.4970 N   0  0  0  0  0  0  0  0  0  0  0  0
  -23.9130  -10.5110   21.0190 C   0  0  0  0  0  0  0  0  0  0  0  0
  -24.3520   -9.5440   21.9510 C   0  0  0  0  0  3  0  0  0  0  0  0
  -23.6300   -8.3450   22.1320 C   0  0  0  0  0  3  0  0  0  0  0  0
  -22.4560   -8.1040   21.3790 C   0  0  0  0  0  0  0  0  0  0  0  0
  -22.0350   -9.0600   20.4370 C   0  0  0  0  0  3  0  0  0  0  0  0
  -22.7580  -10.2500   20.2560 C   0  0  0  0  0  3  0  0  0  0  0  0
  -21.7050   -6.9570   21.4690 O   0  0  0  0  0  0  0  0  0  0  0  0
  -21.6480   -6.2210   22.6250 C   0  0  0  0  0  0  0  0  0  0  0  0
  -21.1800   -6.7750   23.8380 C   0  0  0  0  0  3  0  0  0  0  0  0
  -21.0720   -5.9650   24.9860 C   0  0  0  0  0  3  0  0  0  0  0  0
  -21.4230   -4.6020   24.9220 C   0  0  0  0  0  0  0  0  0  0  0  0
  -21.8840   -4.0500   23.7150 C   0  0  0  0  0  3  0  0  0  0  0  0
  -21.9930   -4.8560   22.5700 C   0  0  0  0  0  0  0  0  0  0  0  0
  -22.4180   -4.3120   21.4030 F   0  0  0  0  0  0  0  0  0  0  0  0
  -21.3130   -3.8230   26.0240 F   0  0  0  0  0  0  0  0  0  0  0  0
  -22.7650  -13.5960   21.1650 C   0  0  0  0  0  0  0  0  0  0  0  0
  -22.0490  -12.8950   22.0370 N   0  0  0  0  0  0  0  0  0  0  0  0
  -22.3190  -14.6210   20.6530 O   0  0  0  0  0  0  0  0  0  0  0  0
  -22.4240  -12.0670   22.4740 H   0  0  0  0  0  0  0  0  0  0  0  0
  -21.1120  -13.1930   22.2700 H   0  0  0  0  0  0  0  0  0  0  0  0
  -25.3640  -15.2820   20.3250 N   0  0  0  0  0  0  0  0  0  0  0  0
  -24.5860  -15.9240   20.4400 H   0  0  0  0  0  0  0  0  0  0  0  0
  -26.1820  -15.7200   19.9280 H   0  0  0  0  0  0  0  0  0  0  0  0
  1  2  2  0
  3  6  1  0
  3  4  2  0
  4  1  1  0
  5  7  1  0
  5  2  1  0
  6  5  2  0
  8 19  2  0
  9  7  1  0
  9 14  1  0
 10 18  1  0
 10 20  1  0
 11 17  1  0
 11 13  1  0
 12 18  1  0
 13 14  2  0
 13 12  1  0
 15  9  2  0
 16 15  1  0
 16 11  2  0
 17 10  1  0
 18  8  1  0
 20 22  2  0
 21 20  1  0
 23 21  1  0
 24 33  2  0
 24 29  1  0
 25 21  1  0
 25 29  1  0
 26 25  1  0
 27 28  1  0
 27 26  1  0
 28 24  1  0
 29 30  2  0
 30 31  1  0
 32 31  2  0
 33 32  1  0
 34  8  1  0
 34 39  1  0
 34 35  1  0
 35 38  1  1
 35 36  1  0
 37 35  1  0
 39 42  1  0
 40 44  1  0
 40 39  1  0
 41 40  2  0
 44 43  1  0
 46 47  1  0
 46 44  1  0
 46 45  1  0
 48  4  1  0
 48 53  1  0
 49 48  1  0
 50 49  1  0
 51 49  1  0
 52 49  1  0
 54 62  1  0
 55 60  1  0
 56 57  1  0
 56 55  1  0
 58 57  1  0
 58 67  1  0
 58 59  1  0
 60 54  1  0
 60 59  1  0
 61 54  2  0
 62 53  1  0
 62 63  1  0
 64 65  2  0
 65 84  1  0
 66 65  1  0
 66 69  1  0
 67 64  1  0
 67 68  1  0
 68 66  2  0
 69 70  1  0
 70 71  2  0
 72 75  1  0
 72 71  1  0
 73 72  2  0
 74 73  1  0
 74 69  2  0
 75 76  1  0
 76 77  1  0
 77 78  2  0
 79 78  1  0
 79 83  1  0
 80 79  2  0
 81 76  2  0
 81 80  1  0
 82 81  1  0
 84 85  1  0
 85 88  1  0
 85 87  1  0
 86 84  2  0
 89 90  1  0
 89 64  1  0
 91 89  1  0
M  ISO  4   5 101   7 101  54 100  62 100
M  END
>  <TORSDO>  (59) 
F 19

>  <SCORE>  (59) 
-15.676

>  <name>  (59) 
59

>  <ligand_id>  (59) 
59

>  <original_smiles>  (59) 
[H]c1nc(Oc2c([H])c([H])c3c(c2[H])C([H])([H])N(C(=O)C([H])(N([H])C(=O)C([H])(N([H])C([H])([H])[H])C([H])([H])[H])C(C([H])([H])[H])(C([H])([H])[H])C([H])([H])[H])C([H])(C(=O)N([H])C2([H])c4c([H])c([H])c([H])c([H])c4C([H])([H])C([H])([H])C2([H])[H])C3([H])[H])c([H])c([H])c1C([H])(C([H])([H])N([H])C(=O)N1C([H])([H])C([H])([H])C([H])([H])C([H])(n2nc(-c3c([H])c([H])c(Oc4c([H])c([H])c(F)c([H])c4F)c([H])c3[H])c(C(=O)N([H])[H])c2N([H])[H])C1([H])[H])[N+]([H])([H])[H]

>  <smiles>  (59) 
[H]c1nc(Oc2c([H])c([H])c3c(c2[H])C([H])([H])N(C(=O)C([H])(N([H])C(=O)C([H])(N([H])C([H])([H])[H])C([H])([H])[H])C(C([H])([H])[H])(C([H])([H])[H])C([H])([H])[H])C([H])(C(=O)N([H])C2([H])c4c([H])c([H])c([H])c([H])c4C([H])([H])C([H])([H])C2([H])[H])C3([H])[H])c([H])c([H])c1C([H])(C([H])([H])N([H])C(=O)N1C([H])([H])C([H])([H])C([H])([H])C([H])(n2nc(-c3c([H])c([H])c(Oc4c([H])c([H])c(F)c([H])c4F)c([H])c3[H])c(C(=O)N([H])[H])c2N([H])[H])C1([H])[H])[N+]([H])([H])[H]

$$$$
60:0:0
     RDKit          3D

 99108  0  0  1  0  0  0  0  0999 V2000
  -30.3500  -21.2640   18.0160 N   0  0  0  0  0  4  0  0  0  0  0  0
  -29.7730  -21.1580   18.8320 H   0  0  0  0  0  0  0  0  0  0  0  0
  -31.2450  -21.6150   18.3180 H   0  0  0  0  0  0  0  0  0  0  0  0
  -29.7400  -22.2650   17.1220 C   0  0  0  0  0  2  0  0  0  0  0  0
  -30.1640  -24.6640   17.8070 C   0  0  0  0  0  3  0  0  0  0  0  0
  -29.8250  -25.7960   18.5590 C   0  0  0  0  0  3  0  0  0  0  0  0
  -29.3650  -23.5070   17.9180 C   0  0  0  0  0  0  0  0  0  0  0  0
  -28.2500  -23.5430   18.7900 C   0  0  0  0  0  0  0  0  0  0  0  0
  -28.7110  -25.7280   19.4070 C   0  0  0  0  0  0  0  0  0  0  0  0
  -27.2950  -22.3740   18.9790 C   0  0  0  0  0  1  0  0  0  0  0  0
  -27.9660  -24.6150   19.5510 N   0  0  0  0  0  0  0  0  0  0  0  0
  -28.4020  -26.7940   20.2050 O   0  0  0  0  0  0  0  0  0  0  0  0
  -24.5630  -31.8640   23.2470 C   0  0  0  0  0  0  0  0  0  0  0  0
  -27.1950  -27.4550   20.1490 C   0  0  0  0  0  0  0  0  0  0  0  0
  -23.3450  -30.4690   21.6040 C   0  0  0  0  0  3  0  0  0  0  0  0
  -24.7920  -28.9410   20.1670 C   0  0  0  0  0  0  0  0  0  0  0  0
  -25.8670  -30.8320   21.4010 C   0  0  0  0  0  2  0  0  0  0  0  0
  -25.9450  -29.4640   20.7610 C   0  0  0  0  0  0  0  0  0  0  0  0
  -27.1420  -28.7210   20.7640 C   0  0  0  0  0  3  0  0  0  0  0  0
  -26.0230  -26.9430   19.5380 C   0  0  0  0  0  3  0  0  0  0  0  0
  -24.8240  -27.6780   19.5530 C   0  0  0  0  0  3  0  0  0  0  0  0
  -23.5460  -29.7940   20.2210 C   0  0  0  0  0  2  0  0  0  0  0  0
  -24.6110  -31.0680   22.1420 N   0  0  0  0  0  0  0  0  0  0  0  0
  -23.4870  -32.1400   23.7900 O   0  0  0  0  0  0  0  0  0  0  0  0
  -22.6970  -29.4450   22.5610 C   0  0  0  0  0  0  0  0  0  0  0  0
  -21.3720  -29.2690   22.4350 N   0  0  0  0  0  0  0  0  0  0  0  0
  -23.3810  -28.8130   23.3710 O   0  0  0  0  0  0  0  0  0  0  0  0
  -20.8840  -29.8270   21.7510 H   0  0  0  0  0  0  0  0  0  0  0  0
  -17.9930  -28.1000   22.9390 C   0  0  0  0  0  0  0  0  0  0  0  0
  -20.5530  -28.3340   23.2050 C   0  0  0  0  0  3  0  0  0  0  0  0
  -20.6430  -26.9060   22.6200 C   0  0  0  0  0  2  0  0  0  0  0  0
  -19.5350  -26.5980   21.6070 C   0  0  0  0  0  2  0  0  0  0  0  0
  -18.1560  -26.7500   22.2560 C   0  0  0  0  0  2  0  0  0  0  0  0
  -19.1190  -28.8500   23.3690 C   0  0  0  0  0  0  0  0  0  0  0  0
  -18.9150  -30.1130   23.9670 C   0  0  0  0  0  3  0  0  0  0  0  0
  -17.6160  -30.6260   24.1380 C   0  0  0  0  0  3  0  0  0  0  0  0
  -16.5030  -29.8730   23.7240 C   0  0  0  0  0  3  0  0  0  0  0  0
  -16.6930  -28.6110   23.1320 C   0  0  0  0  0  3  0  0  0  0  0  0
  -25.8550  -32.4850   23.8640 C   0  0  0  0  0  3  0  0  0  0  0  0
  -26.3760  -31.7050   25.1330 C   0  0  1  0  0  0  0  0  0  0  0  0
  -25.2880  -31.4670   26.2050 C   0  0  0  0  0  1  0  0  0  0  0  0
  -26.9460  -30.3240   24.7280 C   0  0  0  0  0  1  0  0  0  0  0  0
  -27.5380  -32.4870   25.7890 C   0  0  0  0  0  1  0  0  0  0  0  0
  -25.5550  -33.8830   24.1960 N   0  0  0  0  0  0  0  0  0  0  0  0
  -25.8910  -34.9330   23.4350 C   0  0  0  0  0  0  0  0  0  0  0  0
  -26.5620  -34.8250   22.4020 O   0  0  0  0  0  0  0  0  0  0  0  0
  -24.9580  -34.0440   24.9950 H   0  0  0  0  0  0  0  0  0  0  0  0
  -24.1700  -36.7320   23.0810 C   0  0  0  0  0  1  0  0  0  0  0  0
  -25.4120  -36.3240   23.8900 C   0  0  0  0  0  3  0  0  0  0  0  0
  -27.5540  -37.1970   24.7130 C   0  0  0  0  0  1  0  0  0  0  0  0
  -26.4490  -37.3720   23.7730 N   0  0  0  0  0  0  0  0  0  0  0  0
  -26.0460  -38.2930   23.9250 H   0  0  0  0  0  0  0  0  0  0  0  0
  -30.5330  -19.9250   17.4320 C   0  0  0  0  0  2  0  0  0  0  0  0
  -30.6850  -14.3910   20.4970 C   0  0  0  0  0  0  0  0  0  0  0  0
  -30.3410  -12.2560   19.3530 C   0  0  0  0  0  2  0  0  0  0  0  0
  -29.4180  -12.5170   18.1470 C   0  0  0  0  0  2  0  0  0  0  0  0
  -27.9370  -12.4080   18.5610 C   0  0  0  0  0  2  0  0  0  0  0  0
  -27.6070  -13.2310   19.8350 C   0  0  0  0  0  3  0  0  0  0  0  0
  -28.6500  -12.9780   20.9470 C   0  0  0  0  0  2  0  0  0  0  0  0
  -29.9890  -13.2320   20.3920 N   0  0  0  0  0  0  0  0  0  0  0  0
  -31.8460  -14.5080   20.0890 O   0  0  0  0  0  0  0  0  0  0  0  0
  -28.9220  -17.1110   19.4980 C   0  0  0  0  0  3  0  0  0  0  0  0
  -29.0290  -18.2010   18.6130 C   0  0  0  0  0  0  0  0  0  0  0  0
  -30.2880  -18.8430   18.4850 C   0  0  0  0  0  0  0  0  0  0  0  0
  -31.3290  -18.4270   19.3500 C   0  0  0  0  0  0  0  0  0  0  0  0
  -30.0500  -16.6810   20.2210 C   0  0  0  0  0  0  0  0  0  0  0  0
  -27.8020  -18.5960   17.8050 C   0  0  0  0  0  1  0  0  0  0  0  0
  -32.6880  -19.1010   19.3830 C   0  0  0  0  0  1  0  0  0  0  0  0
  -31.1980  -17.3930   20.2010 N   0  0  0  0  0  0  0  0  0  0  0  0
  -29.9520  -15.4450   20.8890 N   0  0  0  0  0  0  0  0  0  0  0  0
  -29.0330  -15.1980   21.2150 H   0  0  0  0  0  0  0  0  0  0  0  0
  -25.2080  -13.8690   20.5220 C   0  0  0  0  0  0  0  0  0  0  0  0
  -24.1310  -13.1090   20.8930 C   0  0  0  0  0  0  0  0  0  0  0  0
  -24.5820  -11.7530   20.8740 C   0  0  0  0  0  0  0  0  0  0  0  0
  -26.2460  -12.9770   20.3030 N   0  0  0  0  0  0  0  0  0  0  0  0
  -25.8720  -11.7000   20.5700 N   0  0  0  0  0  0  0  0  0  0  0  0
  -23.8450  -10.4980   21.0670 C   0  0  0  0  0  0  0  0  0  0  0  0
  -24.2740   -9.5240   21.9940 C   0  0  0  0  0  3  0  0  0  0  0  0
  -23.5380   -8.3340   22.1750 C   0  0  0  0  0  3  0  0  0  0  0  0
  -22.3570   -8.1110   21.4280 C   0  0  0  0  0  0  0  0  0  0  0  0
  -21.9470   -9.0730   20.4880 C   0  0  0  0  0  3  0  0  0  0  0  0
  -22.6850  -10.2530   20.3050 C   0  0  0  0  0  3  0  0  0  0  0  0
  -21.5940   -6.9710   21.5170 O   0  0  0  0  0  0  0  0  0  0  0  0
  -21.5610   -6.2150   22.6600 C   0  0  0  0  0  0  0  0  0  0  0  0
  -21.1740   -6.7610   23.9030 C   0  0  0  0  0  3  0  0  0  0  0  0
  -21.0850   -5.9340   25.0400 C   0  0  0  0  0  3  0  0  0  0  0  0
  -21.3710   -4.5590   24.9350 C   0  0  0  0  0  0  0  0  0  0  0  0
  -21.7530   -4.0120   23.6980 C   0  0  0  0  0  3  0  0  0  0  0  0
  -21.8430   -4.8380   22.5630 C   0  0  0  0  0  0  0  0  0  0  0  0
  -22.1890   -4.3010   21.3680 F   0  0  0  0  0  0  0  0  0  0  0  0
  -21.2800   -3.7620   26.0250 F   0  0  0  0  0  0  0  0  0  0  0  0
  -22.7380  -13.6010   21.1550 C   0  0  0  0  0  0  0  0  0  0  0  0
  -21.9990  -12.9160   22.0220 N   0  0  0  0  0  0  0  0  0  0  0  0
  -22.3100  -14.6260   20.6260 O   0  0  0  0  0  0  0  0  0  0  0  0
  -22.3540  -12.0840   22.4690 H   0  0  0  0  0  0  0  0  0  0  0  0
  -21.0630  -13.2290   22.2400 H   0  0  0  0  0  0  0  0  0  0  0  0
  -25.3810  -15.2360   20.3290 N   0  0  0  0  0  0  0  0  0  0  0  0
  -24.6080  -15.8880   20.4010 H   0  0  0  0  0  0  0  0  0  0  0  0
  -26.2000  -15.6460   19.9040 H   0  0  0  0  0  0  0  0  0  0  0  0
  1  3  1  0
  1  2  1  0
  4  7  1  0
  4  1  1  0
  5  7  1  0
  5  6  2  0
  6  9  1  0
  7  8  2  0
  8 10  1  0
  8 11  1  0
  9 11  2  0
  9 12  1  0
 13 24  2  0
 14 12  1  0
 14 19  1  0
 15 23  1  0
 15 25  1  0
 16 22  1  0
 16 18  1  0
 17 23  1  0
 18 19  2  0
 18 17  1  0
 20 21  1  0
 20 14  2  0
 21 16  2  0
 22 15  1  0
 23 13  1  0
 25 27  2  0
 26 25  1  0
 28 26  1  0
 29 38  2  0
 29 34  1  0
 30 26  1  0
 30 34  1  0
 31 30  1  0
 32 33  1  0
 32 31  1  0
 33 29  1  0
 34 35  2  0
 35 36  1  0
 37 36  2  0
 38 37  1  0
 39 13  1  0
 39 44  1  0
 39 40  1  0
 40 43  1  1
 40 41  1  0
 42 40  1  0
 44 47  1  0
 45 49  1  0
 45 44  1  0
 46 45  2  0
 49 48  1  0
 51 49  1  0
 51 52  1  0
 51 50  1  0
 53  1  1  0
 53 64  1  0
 54 70  1  0
 55 60  1  0
 56 57  1  0
 56 55  1  0
 58 57  1  0
 58 75  1  0
 58 59  1  0
 60 54  1  0
 60 59  1  0
 61 54  2  0
 62 66  1  0
 63 62  2  0
 64 63  1  0
 64 65  2  0
 65 68  1  0
 65 69  1  0
 66 70  1  0
 67 63  1  0
 69 66  2  0
 70 71  1  0
 72 73  2  0
 73 92  1  0
 74 73  1  0
 74 77  1  0
 75 72  1  0
 75 76  1  0
 76 74  2  0
 77 78  1  0
 78 79  2  0
 80 83  1  0
 80 79  1  0
 81 80  2  0
 82 81  1  0
 82 77  2  0
 83 84  1  0
 84 85  1  0
 85 86  2  0
 87 86  1  0
 87 91  1  0
 88 87  2  0
 89 84  2  0
 89 88  1  0
 90 89  1  0
 92 93  1  0
 93 96  1  0
 93 95  1  0
 94 92  2  0
 97 98  1  0
 97 72  1  0
 99 97  1  0
M  ISO  4   9 101  12 101  54 100  70 100
M  END
>  <TORSDO>  (60) 
F 19

>  <SCORE>  (60) 
-14.491

>  <name>  (60) 
60

>  <ligand_id>  (60) 
60

>  <original_smiles>  (60) 
[H]c1c(Oc2c([H])c([H])c3c(c2[H])C([H])([H])N(C(=O)C([H])(N([H])C(=O)C([H])(N([H])C([H])([H])[H])C([H])([H])[H])C(C([H])([H])[H])(C([H])([H])[H])C([H])([H])[H])C([H])(C(=O)N([H])C2([H])c4c([H])c([H])c([H])c([H])c4C([H])([H])C([H])([H])C2([H])[H])C3([H])[H])nc(C([H])([H])[H])c(C([H])([H])[N+]([H])([H])C([H])([H])c2c(C([H])([H])[H])nc(N([H])C(=O)N3C([H])([H])C([H])([H])C([H])([H])C([H])(n4nc(-c5c([H])c([H])c(Oc6c([H])c([H])c(F)c([H])c6F)c([H])c5[H])c(C(=O)N([H])[H])c4N([H])[H])C3([H])[H])c([H])c2C([H])([H])[H])c1[H]

>  <smiles>  (60) 
[H]c1c(Oc2c([H])c([H])c3c(c2[H])C([H])([H])N(C(=O)C([H])(N([H])C(=O)C([H])(N([H])C([H])([H])[H])C([H])([H])[H])C(C([H])([H])[H])(C([H])([H])[H])C([H])([H])[H])C([H])(C(=O)N([H])C2([H])c4c([H])c([H])c([H])c([H])c4C([H])([H])C([H])([H])C2([H])[H])C3([H])[H])nc(C([H])([H])[H])c(C([H])([H])[N+]([H])([H])C([H])([H])c2c(C([H])([H])[H])nc(N([H])C(=O)N3C([H])([H])C([H])([H])C([H])([H])C([H])(n4nc(-c5c([H])c([H])c(Oc6c([H])c([H])c(F)c([H])c6F)c([H])c5[H])c(C(=O)N([H])[H])c4N([H])[H])C3([H])[H])c([H])c2C([H])([H])[H])c1[H]

$$$$
61:0:0
     RDKit          3D

 89 97  0  0  1  0  0  0  0  0999 V2000
  -27.0780  -21.9290   21.1100 C   0  0  0  0  0  1  0  0  0  0  0  0
  -28.5840  -22.0890   20.8280 C   0  0  0  0  0  3  0  0  0  0  0  0
  -30.2060  -19.9350   21.1240 C   0  0  0  0  0  3  0  0  0  0  0  0
  -28.4580  -19.7040   19.5490 C   0  0  0  0  0  3  0  0  0  0  0  0
  -30.4850  -18.5110   21.0410 C   0  0  0  0  0  3  0  0  0  0  0  0
  -28.7220  -18.2830   19.4770 C   0  0  0  0  0  3  0  0  0  0  0  0
  -29.1520  -20.6080   20.4140 C   0  0  0  0  0  0  0  0  0  0  0  0
  -29.7280  -17.6010   20.2360 C   0  0  0  0  0  0  0  0  0  0  0  0
  -30.6200  -15.0220   20.1170 C   0  0  0  0  0  0  0  0  0  0  0  0
  -30.5090  -12.7110   19.1150 C   0  0  0  0  0  2  0  0  0  0  0  0
  -29.5230  -12.7300   17.9220 C   0  0  0  0  0  2  0  0  0  0  0  0
  -28.0700  -12.5210   18.3950 C   0  0  0  0  0  2  0  0  0  0  0  0
  -27.7100  -13.3980   19.6230 C   0  0  0  0  0  3  0  0  0  0  0  0
  -28.8070  -13.3350   20.7080 C   0  0  0  0  0  2  0  0  0  0  0  0
  -30.0680  -13.7510   20.0780 N   0  0  0  0  0  0  0  0  0  0  0  0
  -31.7980  -15.1770   19.7790 O   0  0  0  0  0  0  0  0  0  0  0  0
  -29.7350  -16.0910   20.3360 N   0  0  0  0  0  0  0  0  0  0  0  0
  -28.8090  -15.7200   20.4790 H   0  0  0  0  0  0  0  0  0  0  0  0
  -25.3460  -13.9590   20.4430 C   0  0  0  0  0  0  0  0  0  0  0  0
  -24.2980  -13.1740   20.8380 C   0  0  0  0  0  0  0  0  0  0  0  0
  -24.7690  -11.8260   20.7710 C   0  0  0  0  0  0  0  0  0  0  0  0
  -26.3860  -13.0900   20.1550 N   0  0  0  0  0  0  0  0  0  0  0  0
  -26.0490  -11.8010   20.4170 N   0  0  0  0  0  0  0  0  0  0  0  0
  -24.0570  -10.5560   20.9670 C   0  0  0  0  0  0  0  0  0  0  0  0
  -24.4990   -9.5970   21.9050 C   0  0  0  0  0  3  0  0  0  0  0  0
  -23.7850   -8.3930   22.0870 C   0  0  0  0  0  3  0  0  0  0  0  0
  -22.6160   -8.1390   21.3310 C   0  0  0  0  0  0  0  0  0  0  0  0
  -22.1940   -9.0860   20.3830 C   0  0  0  0  0  3  0  0  0  0  0  0
  -22.9080  -10.2820   20.1980 C   0  0  0  0  0  3  0  0  0  0  0  0
  -21.8750   -6.9840   21.4220 O   0  0  0  0  0  0  0  0  0  0  0  0
  -21.8060   -6.2640   22.5880 C   0  0  0  0  0  0  0  0  0  0  0  0
  -21.3110   -6.8280   23.7840 C   0  0  0  0  0  3  0  0  0  0  0  0
  -21.1910   -6.0320   24.9400 C   0  0  0  0  0  3  0  0  0  0  0  0
  -21.5540   -4.6740   24.9030 C   0  0  0  0  0  0  0  0  0  0  0  0
  -22.0410   -4.1080   23.7120 C   0  0  0  0  0  3  0  0  0  0  0  0
  -22.1640   -4.9010   22.5560 C   0  0  0  0  0  0  0  0  0  0  0  0
  -22.6150   -4.3450   21.4060 F   0  0  0  0  0  0  0  0  0  0  0  0
  -21.4320   -3.9070   26.0120 F   0  0  0  0  0  0  0  0  0  0  0  0
  -22.9060  -13.6380   21.1600 C   0  0  0  0  0  0  0  0  0  0  0  0
  -22.2070  -12.9250   22.0350 N   0  0  0  0  0  0  0  0  0  0  0  0
  -22.4490  -14.6710   20.6710 O   0  0  0  0  0  0  0  0  0  0  0  0
  -22.5910  -12.0930   22.4560 H   0  0  0  0  0  0  0  0  0  0  0  0
  -21.2750  -13.2210   22.2890 H   0  0  0  0  0  0  0  0  0  0  0  0
  -25.4920  -15.3350   20.2810 N   0  0  0  0  0  0  0  0  0  0  0  0
  -24.7180  -15.9740   20.4270 H   0  0  0  0  0  0  0  0  0  0  0  0
  -26.3090  -15.7880   19.8940 H   0  0  0  0  0  0  0  0  0  0  0  0
  -28.8280  -23.5510   20.0710 C   0  0  0  0  0  3  0  0  0  0  0  0
  -28.1130  -24.9470   20.6430 C   0  0  0  0  0  3  0  0  0  0  0  0
  -28.3480  -26.4030   20.2090 O   0  0  0  0  0  0  0  0  0  0  0  0
  -24.6330  -31.9540   23.2470 C   0  0  0  0  0  0  0  0  0  0  0  0
  -27.2660  -27.3360   20.1910 C   0  0  0  0  0  0  0  0  0  0  0  0
  -23.4440  -30.5550   21.5990 C   0  0  0  0  0  3  0  0  0  0  0  0
  -24.9100  -29.0130   20.1650 C   0  0  0  0  0  0  0  0  0  0  0  0
  -25.9900  -30.8690   21.4270 C   0  0  0  0  0  2  0  0  0  0  0  0
  -26.0820  -29.4850   20.7710 C   0  0  0  0  0  0  0  0  0  0  0  0
  -27.2640  -28.6630   20.7640 C   0  0  0  0  0  3  0  0  0  0  0  0
  -26.0710  -26.9510   19.5470 C   0  0  0  0  0  3  0  0  0  0  0  0
  -24.9130  -27.7570   19.5380 C   0  0  0  0  0  3  0  0  0  0  0  0
  -23.6710  -29.8880   20.2160 C   0  0  0  0  0  2  0  0  0  0  0  0
  -24.7080  -31.1460   22.1460 N   0  0  0  0  0  0  0  0  0  0  0  0
  -23.5450  -32.2240   23.7790 O   0  0  0  0  0  0  0  0  0  0  0  0
  -22.7830  -29.5320   22.5550 C   0  0  0  0  0  0  0  0  0  0  0  0
  -21.4580  -29.3420   22.4210 N   0  0  0  0  0  0  0  0  0  0  0  0
  -23.4620  -28.9120   23.3760 O   0  0  0  0  0  0  0  0  0  0  0  0
  -20.9690  -29.8960   21.7340 H   0  0  0  0  0  0  0  0  0  0  0  0
  -18.0910  -28.1020   22.9020 C   0  0  0  0  0  0  0  0  0  0  0  0
  -20.6440  -28.3920   23.1840 C   0  0  0  0  0  3  0  0  0  0  0  0
  -20.7650  -26.9640   22.6040 C   0  0  0  0  0  2  0  0  0  0  0  0
  -19.6720  -26.6320   21.5840 C   0  0  0  0  0  2  0  0  0  0  0  0
  -18.2860  -26.7580   22.2220 C   0  0  0  0  0  2  0  0  0  0  0  0
  -19.1980  -28.8770   23.3400 C   0  0  0  0  0  0  0  0  0  0  0  0
  -18.9600  -30.1340   23.9360 C   0  0  0  0  0  3  0  0  0  0  0  0
  -17.6490  -30.6160   24.1010 C   0  0  0  0  0  3  0  0  0  0  0  0
  -16.5560  -29.8390   23.6800 C   0  0  0  0  0  3  0  0  0  0  0  0
  -16.7770  -28.5840   23.0850 C   0  0  0  0  0  3  0  0  0  0  0  0
  -25.9070  -32.5950   23.8770 C   0  0  0  0  0  3  0  0  0  0  0  0
  -26.4070  -31.8400   25.1690 C   0  0  1  0  0  0  0  0  0  0  0  0
  -25.3010  -31.6150   26.2260 C   0  0  0  0  0  1  0  0  0  0  0  0
  -26.9950  -30.4570   24.8040 C   0  0  0  0  0  1  0  0  0  0  0  0
  -27.5480  -32.6430   25.8370 C   0  0  0  0  0  1  0  0  0  0  0  0
  -25.5910  -33.9980   24.1920 N   0  0  0  0  0  0  0  0  0  0  0  0
  -25.9290  -35.0460   23.4300 C   0  0  0  0  0  0  0  0  0  0  0  0
  -26.6070  -34.9350   22.4040 O   0  0  0  0  0  0  0  0  0  0  0  0
  -24.9890  -34.1570   24.9860 H   0  0  0  0  0  0  0  0  0  0  0  0
  -24.2080  -36.8420   23.0470 C   0  0  0  0  0  1  0  0  0  0  0  0
  -25.4390  -36.4380   23.8740 C   0  0  0  0  0  3  0  0  0  0  0  0
  -27.5620  -37.3280   24.7280 C   0  0  0  0  0  1  0  0  0  0  0  0
  -26.4740  -37.4890   23.7660 N   0  0  0  0  0  0  0  0  0  0  0  0
  -26.0680  -38.4110   23.9000 H   0  0  0  0  0  0  0  0  0  0  0  0
  2  1  1  0
  4  7  1  0
  5  3  1  0
  6  4  2  0
  6  8  1  0
  7  2  1  0
  7  3  2  0
  8 17  1  0
  8  5  2  0
  9 17  1  0
 10 15  1  0
 11 12  1  0
 11 10  1  0
 13 12  1  0
 13 22  1  0
 13 14  1  0
 15  9  1  0
 15 14  1  0
 16  9  2  0
 17 18  1  0
 19 20  2  0
 20 39  1  0
 21 20  1  0
 21 24  1  0
 22 23  1  0
 22 19  1  0
 23 21  2  0
 24 25  1  0
 25 26  2  0
 27 30  1  0
 27 26  1  0
 28 27  2  0
 29 28  1  0
 29 24  2  0
 30 31  1  0
 31 32  1  0
 32 33  2  0
 34 33  1  0
 34 38  1  0
 35 34  2  0
 36 31  2  0
 36 35  1  0
 37 36  1  0
 39 40  1  0
 40 43  1  0
 40 42  1  0
 41 39  2  0
 44 45  1  0
 44 19  1  0
 46 44  1  0
 47 48  2  0
 47  2  1  0
 49 48  1  0
 50 61  2  0
 51 49  1  0
 51 56  1  0
 52 60  1  0
 52 62  1  0
 53 59  1  0
 53 55  1  0
 54 60  1  0
 55 54  1  0
 56 55  2  0
 57 51  2  0
 58 57  1  0
 58 53  2  0
 59 52  1  0
 60 50  1  0
 62 64  2  0
 63 62  1  0
 65 63  1  0
 66 75  2  0
 66 71  1  0
 67 63  1  0
 67 71  1  0
 68 67  1  0
 69 70  1  0
 69 68  1  0
 70 66  1  0
 71 72  2  0
 72 73  1  0
 74 73  2  0
 75 74  1  0
 76 50  1  0
 76 81  1  0
 76 77  1  0
 77 80  1  1
 77 78  1  0
 79 77  1  0
 81 84  1  0
 82 86  1  0
 82 81  1  0
 83 82  2  0
 86 85  1  0
 88 86  1  0
 88 89  1  0
 88 87  1  0
M  ISO  4   9 100  17 100  48 101  49 101
M  END
>  <TORSDO>  (61) 
F 19

>  <SCORE>  (61) 
-13.877

>  <name>  (61) 
61

>  <ligand_id>  (61) 
61

>  <original_smiles>  (61) 
[H]c1c([H])c([H])c2c(c1[H])C([H])([H])C([H])([H])C([H])([H])C2([H])N([H])C(=O)C1([H])N(C(=O)C([H])(N([H])C(=O)C([H])(N([H])C([H])([H])[H])C([H])([H])[H])C(C([H])([H])[H])(C([H])([H])[H])C([H])([H])[H])C([H])([H])c2c([H])c(OC([H])([H])C([H])([H])C([H])(c3c([H])c([H])c(N([H])C(=O)N4C([H])([H])C([H])([H])C([H])([H])C([H])(n5nc(-c6c([H])c([H])c(Oc7c([H])c([H])c(F)c([H])c7F)c([H])c6[H])c(C(=O)N([H])[H])c5N([H])[H])C4([H])[H])c([H])c3[H])C([H])([H])[H])c([H])c([H])c2C1([H])[H]

>  <smiles>  (61) 
[H]c1c([H])c([H])c2c(c1[H])C([H])([H])C([H])([H])C([H])([H])C2([H])N([H])C(=O)C1([H])N(C(=O)C([H])(N([H])C(=O)C([H])(N([H])C([H])([H])[H])C([H])([H])[H])C(C([H])([H])[H])(C([H])([H])[H])C([H])([H])[H])C([H])([H])c2c([H])c(OC([H])([H])C([H])([H])C([H])(c3c([H])c([H])c(N([H])C(=O)N4C([H])([H])C([H])([H])C([H])([H])C([H])(n5nc(-c6c([H])c([H])c(Oc7c([H])c([H])c(F)c([H])c7F)c([H])c6[H])c(C(=O)N([H])[H])c5N([H])[H])C4([H])[H])c([H])c3[H])C([H])([H])[H])c([H])c([H])c2C1([H])[H]

$$$$
62:0:0
     RDKit          3D

102112  0  0  1  0  0  0  0  0999 V2000
  -29.6800  -20.2600   19.1130 C   0  0  0  0  0  3  0  0  0  0  0  0
  -29.1390  -21.5610   19.1390 C   0  0  0  0  0  3  0  0  0  0  0  0
  -30.3580  -22.0030   21.1900 C   0  0  0  0  0  3  0  0  0  0  0  0
  -30.9190  -20.7070   21.1750 C   0  0  0  0  0  0  0  0  0  0  0  0
  -30.5720  -19.8270   20.1190 C   0  0  0  0  0  0  0  0  0  0  0  0
  -29.4850  -22.4520   20.1790 C   0  0  0  0  0  0  0  0  0  0  0  0
  -32.4850  -21.0190   24.7360 C   0  0  0  0  0  2  0  0  0  0  0  0
  -31.7000  -18.8740   22.7090 C   0  0  0  0  0  2  0  0  0  0  0  0
  -33.3070  -20.8950   22.2280 C   0  0  0  0  0  2  0  0  0  0  0  0
  -31.1810  -20.5030   25.3750 C   0  0  0  0  0  2  0  0  0  0  0  0
  -30.5590  -18.6970   23.7300 C   0  0  0  0  0  2  0  0  0  0  0  0
  -32.3240  -21.3670   23.2690 C   0  0  0  0  0  3  0  0  0  0  0  0
  -31.9040  -20.3160   22.2560 C   0  0  1  0  0  0  0  0  0  0  0  0
  -30.9410  -19.0650   25.1140 N   0  0  0  0  0  4  0  0  0  0  0  0
  -30.1830  -18.7780   25.7130 H   0  0  0  0  0  0  0  0  0  0  0  0
  -31.7460  -18.5320   25.4010 H   0  0  0  0  0  0  0  0  0  0  0  0
  -31.1130  -18.5340   20.0770 N   0  0  0  0  0  0  0  0  0  0  0  0
  -31.1910  -18.0960   20.9880 H   0  0  0  0  0  0  0  0  0  0  0  0
  -32.3200  -18.3800   19.2770 C   0  0  0  0  0  2  0  0  0  0  0  0
  -33.3140  -17.4270   19.9620 C   0  0  0  0  0  2  0  0  0  0  0  0
  -33.2480  -14.9400   19.9140 C   0  0  0  0  0  0  0  0  0  0  0  0
  -33.0570  -12.4880   20.1150 C   0  0  0  0  0  2  0  0  0  0  0  0
  -32.2140  -11.8950   18.9710 C   0  0  0  0  0  2  0  0  0  0  0  0
  -30.7160  -11.9200   19.3280 C   0  0  0  0  0  2  0  0  0  0  0  0
  -30.2520  -13.3100   19.8350 C   0  0  0  0  0  3  0  0  0  0  0  0
  -31.2080  -13.8460   20.9230 C   0  0  0  0  0  2  0  0  0  0  0  0
  -32.5790  -13.8520   20.3790 N   0  0  0  0  0  0  0  0  0  0  0  0
  -34.3030  -14.8660   19.2770 O   0  0  0  0  0  0  0  0  0  0  0  0
  -32.7180  -16.1230   20.2500 N   0  0  0  0  0  0  0  0  0  0  0  0
  -31.8680  -16.1040   20.7910 H   0  0  0  0  0  0  0  0  0  0  0  0
  -28.0280  -14.3170   20.6550 C   0  0  0  0  0  0  0  0  0  0  0  0
  -26.8210  -13.7450   20.9570 C   0  0  0  0  0  0  0  0  0  0  0  0
  -26.9900  -12.3400   20.7610 C   0  0  0  0  0  0  0  0  0  0  0  0
  -28.8690  -13.2700   20.3060 N   0  0  0  0  0  0  0  0  0  0  0  0
  -28.2440  -12.0700   20.4200 N   0  0  0  0  0  0  0  0  0  0  0  0
  -26.0160  -11.2430   20.8210 C   0  0  0  0  0  0  0  0  0  0  0  0
  -26.1170  -10.2170   21.7880 C   0  0  0  0  0  3  0  0  0  0  0  0
  -25.1580   -9.1830   21.8380 C   0  0  0  0  0  3  0  0  0  0  0  0
  -24.0820   -9.1670   20.9190 C   0  0  0  0  0  0  0  0  0  0  0  0
  -23.9980  -10.1770   19.9440 C   0  0  0  0  0  3  0  0  0  0  0  0
  -24.9570  -11.2030   19.8930 C   0  0  0  0  0  3  0  0  0  0  0  0
  -23.1200   -8.1890   20.8750 O   0  0  0  0  0  0  0  0  0  0  0  0
  -22.5010   -7.7370   22.0130 C   0  0  0  0  0  0  0  0  0  0  0  0
  -21.7700   -8.6020   22.8580 C   0  0  0  0  0  3  0  0  0  0  0  0
  -21.0920   -8.0840   23.9790 C   0  0  0  0  0  3  0  0  0  0  0  0
  -21.1320   -6.7030   24.2520 C   0  0  0  0  0  0  0  0  0  0  0  0
  -21.8540   -5.8400   23.4090 C   0  0  0  0  0  3  0  0  0  0  0  0
  -22.5330   -6.3550   22.2900 C   0  0  0  0  0  0  0  0  0  0  0  0
  -23.2090   -5.5160   21.4690 F   0  0  0  0  0  0  0  0  0  0  0  0
  -20.4750   -6.2040   25.3240 F   0  0  0  0  0  0  0  0  0  0  0  0
  -25.5550  -14.4650   21.3160 C   0  0  0  0  0  0  0  0  0  0  0  0
  -24.7370  -13.8740   22.1810 N   0  0  0  0  0  0  0  0  0  0  0  0
  -25.3060  -15.5850   20.8700 O   0  0  0  0  0  0  0  0  0  0  0  0
  -24.9490  -12.9640   22.5600 H   0  0  0  0  0  0  0  0  0  0  0  0
  -23.8870  -14.3390   22.4680 H   0  0  0  0  0  0  0  0  0  0  0  0
  -28.4740  -15.6350   20.6280 N   0  0  0  0  0  0  0  0  0  0  0  0
  -27.8390  -16.4140   20.7540 H   0  0  0  0  0  0  0  0  0  0  0  0
  -29.3890  -15.9140   20.2960 H   0  0  0  0  0  0  0  0  0  0  0  0
  -29.0490  -23.7560   20.2840 O   0  0  0  0  0  0  0  0  0  0  0  0
  -28.4760  -24.4170   19.1560 C   0  0  0  0  0  2  0  0  0  0  0  0
  -28.2270  -25.8810   19.5540 C   0  0  0  0  0  2  0  0  0  0  0  0
  -27.9020  -26.7050   18.4300 O   0  0  0  0  0  0  0  0  0  0  0  0
  -24.4940  -31.4410   22.4840 C   0  0  0  0  0  0  0  0  0  0  0  0
  -26.7630  -27.4450   18.6230 C   0  0  0  0  0  0  0  0  0  0  0  0
  -23.1120  -30.2600   20.8040 C   0  0  0  0  0  3  0  0  0  0  0  0
  -24.3980  -28.9160   19.0580 C   0  0  0  0  0  0  0  0  0  0  0  0
  -25.6060  -30.6460   20.4040 C   0  0  0  0  0  2  0  0  0  0  0  0
  -25.6130  -29.3690   19.5910 C   0  0  0  0  0  0  0  0  0  0  0  0
  -26.8000  -28.6400   19.3720 C   0  0  0  0  0  3  0  0  0  0  0  0
  -25.5370  -26.9950   18.0920 C   0  0  0  0  0  3  0  0  0  0  0  0
  -24.3530  -27.7260   18.3070 C   0  0  0  0  0  3  0  0  0  0  0  0
  -23.1740  -29.7600   19.3360 C   0  0  0  0  0  2  0  0  0  0  0  0
  -24.4270  -30.7890   21.2890 N   0  0  0  0  0  0  0  0  0  0  0  0
  -23.4760  -31.6460   23.1590 O   0  0  0  0  0  0  0  0  0  0  0  0
  -22.5450  -29.1260   21.6880 C   0  0  0  0  0  0  0  0  0  0  0  0
  -21.2090  -28.9870   21.6930 N   0  0  0  0  0  0  0  0  0  0  0  0
  -23.2960  -28.3830   22.3220 O   0  0  0  0  0  0  0  0  0  0  0  0
  -20.6630  -29.6430   21.1520 H   0  0  0  0  0  0  0  0  0  0  0  0
  -17.8730  -27.8520   22.4870 C   0  0  0  0  0  0  0  0  0  0  0  0
  -20.4530  -27.9660   22.4190 C   0  0  0  0  0  3  0  0  0  0  0  0
  -20.3890  -26.6470   21.6150 C   0  0  0  0  0  2  0  0  0  0  0  0
  -19.1390  -26.5360   20.7360 C   0  0  0  0  0  2  0  0  0  0  0  0
  -17.8720  -26.6250   21.5910 C   0  0  0  0  0  2  0  0  0  0  0  0
  -19.0830  -28.4910   22.8620 C   0  0  0  0  0  0  0  0  0  0  0  0
  -19.0270  -29.6500   23.6670 C   0  0  0  0  0  3  0  0  0  0  0  0
  -17.7910  -30.1680   24.0970 C   0  0  0  0  0  3  0  0  0  0  0  0
  -16.5960  -29.5220   23.7360 C   0  0  0  0  0  3  0  0  0  0  0  0
  -16.6380  -28.3650   22.9370 C   0  0  0  0  0  3  0  0  0  0  0  0
  -25.8460  -31.9830   23.0470 C   0  0  0  0  0  3  0  0  0  0  0  0
  -25.5650  -33.2570   23.7200 N   0  0  0  0  0  0  0  0  0  0  0  0
  -25.8420  -34.4630   23.2070 C   0  0  0  0  0  0  0  0  0  0  0  0
  -26.4360  -34.6160   22.1360 O   0  0  0  0  0  0  0  0  0  0  0  0
  -25.0290  -33.2100   24.5740 H   0  0  0  0  0  0  0  0  0  0  0  0
  -24.1120  -36.2790   23.3850 C   0  0  0  0  0  1  0  0  0  0  0  0
  -25.3890  -35.6970   24.0100 C   0  0  0  0  0  3  0  0  0  0  0  0
  -27.5680  -36.3660   24.9240 C   0  0  0  0  0  1  0  0  0  0  0  0
  -26.4230  -36.7510   24.1030 N   0  0  0  0  0  0  0  0  0  0  0  0
  -26.0320  -37.6070   24.4870 H   0  0  0  0  0  0  0  0  0  0  0  0
  -26.5560  -30.9760   24.0340 C   0  0  1  0  0  0  0  0  0  0  0  0
  -25.6290  -30.4400   25.1490 C   0  0  0  0  0  1  0  0  0  0  0  0
  -27.1150  -29.7600   23.2580 C   0  0  0  0  0  1  0  0  0  0  0  0
  -27.7660  -31.6660   24.7060 C   0  0  0  0  0  1  0  0  0  0  0  0
  1  2  2  0
  1  5  1  0
  2  6  1  0
  4  3  1  0
  5  4  2  0
  6 59  1  0
  6  3  2  0
  7 10  1  0
  8 11  1  0
  9 13  1  0
 11 14  1  0
 12  9  1  0
 12  7  1  0
 13  4  1  6
 13  8  1  0
 13 12  1  0
 14 10  1  0
 14 16  1  0
 14 15  1  0
 17  5  1  0
 17 18  1  0
 19 20  1  0
 19 17  1  0
 20 29  1  0
 21 29  1  0
 21 27  1  0
 22 27  1  0
 23 24  1  0
 23 22  1  0
 25 24  1  0
 25 34  1  0
 25 26  1  0
 27 26  1  0
 28 21  2  0
 29 30  1  0
 31 32  2  0
 32 51  1  0
 33 36  1  0
 33 32  1  0
 34 35  1  0
 34 31  1  0
 35 33  2  0
 36 37  1  0
 37 38  2  0
 39 38  1  0
 40 39  2  0
 41 40  1  0
 41 36  2  0
 42 39  1  0
 42 43  1  0
 43 48  2  0
 43 44  1  0
 44 45  2  0
 45 46  1  0
 46 50  1  0
 47 46  2  0
 48 47  1  0
 49 48  1  0
 51 52  1  0
 52 55  1  0
 52 54  1  0
 53 51  2  0
 56 31  1  0
 56 57  1  0
 58 56  1  0
 60 61  1  0
 60 59  1  0
 62 64  1  0
 62 61  1  0
 63 74  2  0
 64 69  1  0
 65 73  1  0
 65 75  1  0
 66 72  1  0
 66 68  1  0
 67 73  1  0
 68 67  1  0
 69 68  2  0
 70 71  1  0
 70 64  2  0
 71 66  2  0
 72 65  1  0
 73 63  1  0
 75 76  1  0
 75 77  2  0
 78 76  1  0
 79 84  2  0
 79 88  1  0
 80 76  1  0
 80 84  1  0
 81 80  1  0
 82 83  1  0
 82 81  1  0
 83 79  1  0
 84 85  1  0
 85 86  2  0
 87 86  1  0
 88 87  2  0
 89 63  1  0
 89 90  1  0
 89 99  1  0
 90 93  1  0
 91 90  1  0
 91 95  1  0
 92 91  2  0
 95 94  1  0
 95 97  1  0
 97 98  1  0
 97 96  1  0
 99102  1  1
 99100  1  0
101 99  1  0
M  ISO  4  21 100  29 100  61 101  62 101
M  END
>  <TORSDO>  (62) 
F 23

>  <SCORE>  (62) 
-4.091

>  <name>  (62) 
62

>  <ligand_id>  (62) 
62

>  <original_smiles>  (62) 
[H]c1c([H])c([H])c2c(c1[H])C([H])([H])C([H])([H])C([H])([H])C2([H])N([H])C(=O)C1([H])N(C(=O)C([H])(N([H])C(=O)C([H])(N([H])C([H])([H])[H])C([H])([H])[H])C(C([H])([H])[H])(C([H])([H])[H])C([H])([H])[H])C([H])([H])c2c([H])c(OC([H])([H])C([H])([H])Oc3c([H])c([H])c(N([H])C([H])([H])C([H])([H])N([H])C(=O)N4C([H])([H])C([H])([H])C([H])([H])C([H])(n5nc(-c6c([H])c([H])c(Oc7c([H])c([H])c(F)c([H])c7F)c([H])c6[H])c(C(=O)N([H])[H])c5N([H])[H])C4([H])[H])c(C45C([H])([H])C4([H])C([H])([H])C([H])([H])[N+]([H])([H])C([H])([H])C5([H])[H])c3[H])c([H])c([H])c2C1([H])[H]

>  <smiles>  (62) 
[H]c1c([H])c([H])c2c(c1[H])C([H])([H])C([H])([H])C([H])([H])C2([H])N([H])C(=O)C1([H])N(C(=O)C([H])(N([H])C(=O)C([H])(N([H])C([H])([H])[H])C([H])([H])[H])C(C([H])([H])[H])(C([H])([H])[H])C([H])([H])[H])C([H])([H])c2c([H])c(OC([H])([H])C([H])([H])Oc3c([H])c([H])c(N([H])C([H])([H])C([H])([H])N([H])C(=O)N4C([H])([H])C([H])([H])C([H])([H])C([H])(n5nc(-c6c([H])c([H])c(Oc7c([H])c([H])c(F)c([H])c7F)c([H])c6[H])c(C(=O)N([H])[H])c5N([H])[H])C4([H])[H])c(C45C([H])([H])C4([H])C([H])([H])C([H])([H])[N+]([H])([H])C([H])([H])C5([H])[H])c3[H])c([H])c([H])c2C1([H])[H]

$$$$
63:0:0
     RDKit          3D

 93102  0  0  1  0  0  0  0  0999 V2000
  -31.5260  -21.7490   18.6860 C   0  0  0  0  0  2  0  0  0  0  0  0
  -31.4330  -23.2340   19.0310 C   0  0  0  0  0  2  0  0  0  0  0  0
  -29.5870  -22.2580   20.0090 C   0  0  0  0  0  2  0  0  0  0  0  0
  -30.2070  -21.1190   19.1670 C   0  0  0  0  0  3  0  0  0  0  0  0
  -30.0160  -23.4610   19.2840 N   0  0  0  0  0  0  0  0  0  0  0  0
  -29.3230  -17.8340   21.0660 C   0  0  0  0  0  2  0  0  0  0  0  0
  -31.2400  -17.4150   19.5500 C   0  0  0  0  0  2  0  0  0  0  0  0
  -29.1390  -19.2430   20.4380 C   0  0  0  0  0  2  0  0  0  0  0  0
  -31.0280  -18.8040   18.9200 C   0  0  0  0  0  2  0  0  0  0  0  0
  -29.9070  -16.8280   20.0540 C   0  0  0  0  0  3  0  0  0  0  0  0
  -30.3970  -19.7920   19.8440 N   0  0  1  0  0  4  0  0  0  0  0  0
  -31.0400  -19.9420   20.6080 H   0  0  0  0  0  0  0  0  0  0  0  0
  -30.6720  -14.3950   20.1730 C   0  0  0  0  0  0  0  0  0  0  0  0
  -30.3030  -12.2610   19.0210 C   0  0  0  0  0  2  0  0  0  0  0  0
  -29.3250  -12.5310   17.8570 C   0  0  0  0  0  2  0  0  0  0  0  0
  -27.8650  -12.4130   18.3330 C   0  0  0  0  0  2  0  0  0  0  0  0
  -27.5890  -13.2150   19.6320 C   0  0  0  0  0  3  0  0  0  0  0  0
  -28.6800  -12.9420   20.6960 C   0  0  0  0  0  2  0  0  0  0  0  0
  -29.9930  -13.2230   20.0900 N   0  0  0  0  0  0  0  0  0  0  0  0
  -31.8000  -14.5430   19.7010 O   0  0  0  0  0  0  0  0  0  0  0  0
  -29.9250  -15.4420   20.5790 N   0  0  0  0  0  0  0  0  0  0  0  0
  -29.0620  -15.1540   21.0170 H   0  0  0  0  0  0  0  0  0  0  0  0
  -25.2180  -13.8440   20.4140 C   0  0  0  0  0  0  0  0  0  0  0  0
  -24.1560  -13.0800   20.8160 C   0  0  0  0  0  0  0  0  0  0  0  0
  -24.6030  -11.7240   20.7680 C   0  0  0  0  0  0  0  0  0  0  0  0
  -26.2480  -12.9540   20.1500 N   0  0  0  0  0  0  0  0  0  0  0  0
  -25.8830  -11.6740   20.4200 N   0  0  0  0  0  0  0  0  0  0  0  0
  -23.8730  -10.4670   20.9800 C   0  0  0  0  0  0  0  0  0  0  0  0
  -24.3270   -9.4950   21.8970 C   0  0  0  0  0  3  0  0  0  0  0  0
  -23.5990   -8.3020   22.0960 C   0  0  0  0  0  3  0  0  0  0  0  0
  -22.4020   -8.0730   21.3760 C   0  0  0  0  0  0  0  0  0  0  0  0
  -21.9670   -9.0350   20.4470 C   0  0  0  0  0  3  0  0  0  0  0  0
  -22.6960  -10.2190   20.2470 C   0  0  0  0  0  3  0  0  0  0  0  0
  -21.6420   -6.9340   21.4850 O   0  0  0  0  0  0  0  0  0  0  0  0
  -21.6260   -6.1870   22.6360 C   0  0  0  0  0  0  0  0  0  0  0  0
  -21.2430   -6.7410   23.8770 C   0  0  0  0  0  3  0  0  0  0  0  0
  -21.1730   -5.9200   25.0200 C   0  0  0  0  0  3  0  0  0  0  0  0
  -21.4750   -4.5490   24.9250 C   0  0  0  0  0  0  0  0  0  0  0  0
  -21.8520   -3.9950   23.6880 C   0  0  0  0  0  3  0  0  0  0  0  0
  -21.9240   -4.8130   22.5460 C   0  0  0  0  0  0  0  0  0  0  0  0
  -22.2660   -4.2700   21.3530 F   0  0  0  0  0  0  0  0  0  0  0  0
  -21.4000   -3.7590   26.0210 F   0  0  0  0  0  0  0  0  0  0  0  0
  -22.7710  -13.5690   21.1330 C   0  0  0  0  0  0  0  0  0  0  0  0
  -22.0650  -12.8770   22.0220 N   0  0  0  0  0  0  0  0  0  0  0  0
  -22.3260  -14.5980   20.6270 O   0  0  0  0  0  0  0  0  0  0  0  0
  -22.4390  -12.0450   22.4530 H   0  0  0  0  0  0  0  0  0  0  0  0
  -21.1390  -13.1880   22.2770 H   0  0  0  0  0  0  0  0  0  0  0  0
  -25.3900  -15.2130   20.2340 N   0  0  0  0  0  0  0  0  0  0  0  0
  -24.6290  -15.8720   20.3610 H   0  0  0  0  0  0  0  0  0  0  0  0
  -26.2280  -15.6430   19.8650 H   0  0  0  0  0  0  0  0  0  0  0  0
  -29.8110  -24.7380   19.9800 C   0  0  0  0  0  2  0  0  0  0  0  0
  -28.4030  -25.3200   19.7530 C   0  0  0  0  0  2  0  0  0  0  0  0
  -28.3920  -26.6850   20.1810 O   0  0  0  0  0  0  0  0  0  0  0  0
  -24.5690  -31.8380   23.2290 C   0  0  0  0  0  0  0  0  0  0  0  0
  -27.2010  -27.3810   20.1590 C   0  0  0  0  0  0  0  0  0  0  0  0
  -23.3570  -30.4410   21.5870 C   0  0  0  0  0  3  0  0  0  0  0  0
  -24.8060  -28.8930   20.1680 C   0  0  0  0  0  0  0  0  0  0  0  0
  -25.8850  -30.7870   21.3940 C   0  0  0  0  0  2  0  0  0  0  0  0
  -25.9640  -29.4160   20.7570 C   0  0  0  0  0  0  0  0  0  0  0  0
  -27.1620  -28.6660   20.7490 C   0  0  0  0  0  3  0  0  0  0  0  0
  -26.0190  -26.8710   19.5710 C   0  0  0  0  0  3  0  0  0  0  0  0
  -24.8280  -27.6200   19.5760 C   0  0  0  0  0  3  0  0  0  0  0  0
  -23.5660  -29.7570   20.2100 C   0  0  0  0  0  2  0  0  0  0  0  0
  -24.6220  -31.0380   22.1290 N   0  0  0  0  0  0  0  0  0  0  0  0
  -23.4880  -32.1170   23.7670 O   0  0  0  0  0  0  0  0  0  0  0  0
  -22.7010  -29.4240   22.5480 C   0  0  0  0  0  0  0  0  0  0  0  0
  -21.3750  -29.2510   22.4190 N   0  0  0  0  0  0  0  0  0  0  0  0
  -23.3800  -28.7940   23.3620 O   0  0  0  0  0  0  0  0  0  0  0  0
  -20.8890  -29.8110   21.7320 H   0  0  0  0  0  0  0  0  0  0  0  0
  -17.9910  -28.0890   22.9150 C   0  0  0  0  0  0  0  0  0  0  0  0
  -20.5500  -28.3190   23.1880 C   0  0  0  0  0  3  0  0  0  0  0  0
  -20.6380  -26.8890   22.6080 C   0  0  0  0  0  2  0  0  0  0  0  0
  -19.5330  -26.5800   21.5930 C   0  0  0  0  0  2  0  0  0  0  0  0
  -18.1530  -26.7390   22.2370 C   0  0  0  0  0  2  0  0  0  0  0  0
  -19.1160  -28.8390   23.3470 C   0  0  0  0  0  0  0  0  0  0  0  0
  -18.9130  -30.1040   23.9390 C   0  0  0  0  0  3  0  0  0  0  0  0
  -17.6130  -30.6200   24.1040 C   0  0  0  0  0  3  0  0  0  0  0  0
  -16.5010  -29.8660   23.6910 C   0  0  0  0  0  3  0  0  0  0  0  0
  -16.6910  -28.6040   23.1020 C   0  0  0  0  0  3  0  0  0  0  0  0
  -25.8570  -32.4630   23.8520 C   0  0  0  0  0  3  0  0  0  0  0  0
  -26.3730  -31.6870   25.1260 C   0  0  1  0  0  0  0  0  0  0  0  0
  -25.2800  -31.4540   26.1940 C   0  0  0  0  0  1  0  0  0  0  0  0
  -26.9490  -30.3080   24.7290 C   0  0  0  0  0  1  0  0  0  0  0  0
  -27.5270  -32.4750   25.7890 C   0  0  0  0  0  1  0  0  0  0  0  0
  -25.5570  -33.8620   24.1800 N   0  0  0  0  0  0  0  0  0  0  0  0
  -25.8960  -34.9120   23.4220 C   0  0  0  0  0  0  0  0  0  0  0  0
  -26.5690  -34.8050   22.3930 O   0  0  0  0  0  0  0  0  0  0  0  0
  -24.9600  -34.0200   24.9800 H   0  0  0  0  0  0  0  0  0  0  0  0
  -24.1810  -36.7130   23.0580 C   0  0  0  0  0  1  0  0  0  0  0  0
  -25.4140  -36.3020   23.8770 C   0  0  0  0  0  3  0  0  0  0  0  0
  -27.5480  -37.1740   24.7220 C   0  0  0  0  0  1  0  0  0  0  0  0
  -26.4530  -37.3500   23.7720 N   0  0  0  0  0  0  0  0  0  0  0  0
  -26.0500  -38.2730   23.9190 H   0  0  0  0  0  0  0  0  0  0  0  0
  1  2  1  0
  2  5  1  0
  4  1  1  0
  4 11  1  0
  4  3  1  0
  5 51  1  0
  5  3  1  0
  7 10  1  0
  8  6  1  0
  9  7  1  0
  9 11  1  0
 10 21  1  0
 10  6  1  0
 11  8  1  0
 11 12  1  1
 13 21  1  0
 14 19  1  0
 15 16  1  0
 15 14  1  0
 17 16  1  0
 17 26  1  0
 17 18  1  0
 19 13  1  0
 19 18  1  0
 20 13  2  0
 21 22  1  0
 23 24  2  0
 24 43  1  0
 25 24  1  0
 25 28  1  0
 26 23  1  0
 26 27  1  0
 27 25  2  0
 28 29  1  0
 29 30  2  0
 31 34  1  0
 31 30  1  0
 32 31  2  0
 33 32  1  0
 33 28  2  0
 34 35  1  0
 35 36  1  0
 36 37  2  0
 38 37  1  0
 38 42  1  0
 39 38  2  0
 40 35  2  0
 40 39  1  0
 41 40  1  0
 43 44  1  0
 44 47  1  0
 44 46  1  0
 45 43  2  0
 48 49  1  0
 48 23  1  0
 50 48  1  0
 52 51  1  0
 52 53  1  0
 54 65  2  0
 55 53  1  0
 55 60  1  0
 56 64  1  0
 56 66  1  0
 57 63  1  0
 57 59  1  0
 58 64  1  0
 59 58  1  0
 60 59  2  0
 61 62  1  0
 61 55  2  0
 62 57  2  0
 63 56  1  0
 64 54  1  0
 66 68  2  0
 67 66  1  0
 69 67  1  0
 70 79  2  0
 70 75  1  0
 71 67  1  0
 71 75  1  0
 72 71  1  0
 73 74  1  0
 73 72  1  0
 74 70  1  0
 75 76  2  0
 76 77  1  0
 78 77  2  0
 79 78  1  0
 80 54  1  0
 80 85  1  0
 80 81  1  0
 81 84  1  1
 81 82  1  0
 83 81  1  0
 85 88  1  0
 86 90  1  0
 86 85  1  0
 87 86  2  0
 90 89  1  0
 92 90  1  0
 92 93  1  0
 92 91  1  0
M  ISO  4  13 100  21 100  52 101  53 101
M  END
>  <TORSDO>  (63) 
F 19

>  <SCORE>  (63) 
-14.053

>  <name>  (63) 
63

>  <ligand_id>  (63) 
63

>  <original_smiles>  (63) 
[H]c1c([H])c([H])c2c(c1[H])C([H])([H])C([H])([H])C([H])([H])C2([H])N([H])C(=O)C1([H])N(C(=O)C([H])(N([H])C(=O)C([H])(N([H])C([H])([H])[H])C([H])([H])[H])C(C([H])([H])[H])(C([H])([H])[H])C([H])([H])[H])C([H])([H])c2c([H])c(OC([H])([H])C([H])([H])N3C([H])([H])C([H])([H])C([H])([N+]4([H])C([H])([H])C([H])([H])C([H])(N([H])C(=O)N5C([H])([H])C([H])([H])C([H])([H])C([H])(n6nc(-c7c([H])c([H])c(Oc8c([H])c([H])c(F)c([H])c8F)c([H])c7[H])c(C(=O)N([H])[H])c6N([H])[H])C5([H])[H])C([H])([H])C4([H])[H])C3([H])[H])c([H])c([H])c2C1([H])[H]

>  <smiles>  (63) 
[H]c1c([H])c([H])c2c(c1[H])C([H])([H])C([H])([H])C([H])([H])C2([H])N([H])C(=O)C1([H])N(C(=O)C([H])(N([H])C(=O)C([H])(N([H])C([H])([H])[H])C([H])([H])[H])C(C([H])([H])[H])(C([H])([H])[H])C([H])([H])[H])C([H])([H])c2c([H])c(OC([H])([H])C([H])([H])N3C([H])([H])C([H])([H])C([H])([N+]4([H])C([H])([H])C([H])([H])C([H])(N([H])C(=O)N5C([H])([H])C([H])([H])C([H])([H])C([H])(n6nc(-c7c([H])c([H])c(Oc8c([H])c([H])c(F)c([H])c8F)c([H])c7[H])c(C(=O)N([H])[H])c6N([H])[H])C5([H])[H])C([H])([H])C4([H])[H])C3([H])[H])c([H])c([H])c2C1([H])[H]

$$$$
64:0:0
     RDKit          3D

 91 99  0  0  1  0  0  0  0  0999 V2000
  -30.3130  -22.0880   22.3870 C   0  0  0  0  0  3  0  0  0  0  0  0
  -29.5730  -23.1880   21.9140 C   0  0  0  0  0  3  0  0  0  0  0  0
  -30.1640  -20.8150   21.7990 C   0  0  0  0  0  3  0  0  0  0  0  0
  -28.5430  -21.7470   20.2400 C   0  0  0  0  0  3  0  0  0  0  0  0
  -28.6710  -23.0350   20.8400 C   0  0  0  0  0  0  0  0  0  0  0  0
  -29.2800  -20.6200   20.7160 C   0  0  0  0  0  0  0  0  0  0  0  0
  -29.1520  -19.3500   20.1040 N   0  0  0  0  0  0  0  0  0  0  0  0
  -28.5540  -19.3170   19.2800 H   0  0  0  0  0  0  0  0  0  0  0  0
  -29.1910  -18.0940   20.8830 C   0  0  0  0  0  2  0  0  0  0  0  0
  -30.2730  -17.0700   20.4090 C   0  0  0  0  0  2  0  0  0  0  0  0
  -30.6800  -14.5890   20.2950 C   0  0  0  0  0  0  0  0  0  0  0  0
  -30.4010  -12.4050   19.1820 C   0  0  0  0  0  2  0  0  0  0  0  0
  -29.4470  -12.5930   17.9830 C   0  0  0  0  0  2  0  0  0  0  0  0
  -27.9780  -12.4460   18.4280 C   0  0  0  0  0  2  0  0  0  0  0  0
  -27.6460  -13.2860   19.6900 C   0  0  0  0  0  3  0  0  0  0  0  0
  -28.7140  -13.0880   20.7900 C   0  0  0  0  0  2  0  0  0  0  0  0
  -30.0270  -13.3980   20.2030 N   0  0  0  0  0  0  0  0  0  0  0  0
  -31.8260  -14.7510   19.8630 O   0  0  0  0  0  0  0  0  0  0  0  0
  -29.9310  -15.6510   20.6710 N   0  0  0  0  0  0  0  0  0  0  0  0
  -28.9980  -15.4510   20.9990 H   0  0  0  0  0  0  0  0  0  0  0  0
  -25.2510  -13.8820   20.4180 C   0  0  0  0  0  0  0  0  0  0  0  0
  -24.1930  -13.1040   20.8030 C   0  0  0  0  0  0  0  0  0  0  0  0
  -24.6630  -11.7560   20.7790 C   0  0  0  0  0  0  0  0  0  0  0  0
  -26.3010  -13.0060   20.1850 N   0  0  0  0  0  0  0  0  0  0  0  0
  -25.9510  -11.7230   20.4610 N   0  0  0  0  0  0  0  0  0  0  0  0
  -23.9480  -10.4900   20.9840 C   0  0  0  0  0  0  0  0  0  0  0  0
  -24.3950   -9.5310   21.9190 C   0  0  0  0  0  3  0  0  0  0  0  0
  -23.6800   -8.3310   22.1120 C   0  0  0  0  0  3  0  0  0  0  0  0
  -22.5010   -8.0800   21.3690 C   0  0  0  0  0  0  0  0  0  0  0  0
  -22.0720   -9.0270   20.4240 C   0  0  0  0  0  3  0  0  0  0  0  0
  -22.7890  -10.2190   20.2280 C   0  0  0  0  0  3  0  0  0  0  0  0
  -21.7550   -6.9310   21.4720 O   0  0  0  0  0  0  0  0  0  0  0  0
  -21.7250   -6.1930   22.6280 C   0  0  0  0  0  0  0  0  0  0  0  0
  -21.3050   -6.7490   23.8560 C   0  0  0  0  0  3  0  0  0  0  0  0
  -21.2220   -5.9360   25.0050 C   0  0  0  0  0  3  0  0  0  0  0  0
  -21.5500   -4.5690   24.9260 C   0  0  0  0  0  0  0  0  0  0  0  0
  -21.9630   -4.0130   23.7030 C   0  0  0  0  0  3  0  0  0  0  0  0
  -22.0470   -4.8220   22.5570 C   0  0  0  0  0  0  0  0  0  0  0  0
  -22.4250   -4.2760   21.3760 F   0  0  0  0  0  0  0  0  0  0  0  0
  -21.4620   -3.7870   26.0270 F   0  0  0  0  0  0  0  0  0  0  0  0
  -22.7940  -13.5750   21.0790 C   0  0  0  0  0  0  0  0  0  0  0  0
  -22.0750  -12.8800   21.9540 N   0  0  0  0  0  0  0  0  0  0  0  0
  -22.3450  -14.5930   20.5530 O   0  0  0  0  0  0  0  0  0  0  0  0
  -22.4510  -12.0580   22.4030 H   0  0  0  0  0  0  0  0  0  0  0  0
  -21.1370  -13.1780   22.1820 H   0  0  0  0  0  0  0  0  0  0  0  0
  -25.4050  -15.2520   20.2260 N   0  0  0  0  0  0  0  0  0  0  0  0
  -24.6310  -15.8980   20.3310 H   0  0  0  0  0  0  0  0  0  0  0  0
  -26.2370  -15.6900   19.8520 H   0  0  0  0  0  0  0  0  0  0  0  0
  -27.8010  -24.2440   20.4300 C   0  0  0  0  0  2  0  0  0  0  0  0
  -28.5110  -25.4030   19.6580 C   0  0  0  0  0  2  0  0  0  0  0  0
  -28.4100  -26.7310   20.2280 O   0  0  0  0  0  0  0  0  0  0  0  0
  -24.5820  -31.9250   23.2660 C   0  0  0  0  0  0  0  0  0  0  0  0
  -27.2280  -27.4560   20.1850 C   0  0  0  0  0  0  0  0  0  0  0  0
  -23.3780  -30.5220   21.6240 C   0  0  0  0  0  3  0  0  0  0  0  0
  -24.8330  -28.9850   20.1950 C   0  0  0  0  0  0  0  0  0  0  0  0
  -25.9070  -30.8750   21.4310 C   0  0  0  0  0  2  0  0  0  0  0  0
  -25.9910  -29.5030   20.7860 C   0  0  0  0  0  0  0  0  0  0  0  0
  -27.1880  -28.7450   20.7780 C   0  0  0  0  0  3  0  0  0  0  0  0
  -26.0470  -26.9610   19.5870 C   0  0  0  0  0  3  0  0  0  0  0  0
  -24.8570  -27.7160   19.5930 C   0  0  0  0  0  3  0  0  0  0  0  0
  -23.5900  -29.8450   20.2430 C   0  0  0  0  0  2  0  0  0  0  0  0
  -24.6400  -31.1240   22.1650 N   0  0  0  0  0  0  0  0  0  0  0  0
  -23.4990  -32.1960   23.8050 O   0  0  0  0  0  0  0  0  0  0  0  0
  -22.7280  -29.4990   22.5840 C   0  0  0  0  0  0  0  0  0  0  0  0
  -21.4050  -29.3100   22.4530 N   0  0  0  0  0  0  0  0  0  0  0  0
  -23.4130  -28.8790   23.4030 O   0  0  0  0  0  0  0  0  0  0  0  0
  -20.9150  -29.8600   21.7620 H   0  0  0  0  0  0  0  0  0  0  0  0
  -18.0360  -28.0980   22.9380 C   0  0  0  0  0  0  0  0  0  0  0  0
  -20.5910  -28.3690   23.2220 C   0  0  0  0  0  3  0  0  0  0  0  0
  -20.7030  -26.9380   22.6480 C   0  0  0  0  0  2  0  0  0  0  0  0
  -19.6070  -26.6090   21.6300 C   0  0  0  0  0  2  0  0  0  0  0  0
  -18.2220  -26.7490   22.2660 C   0  0  0  0  0  2  0  0  0  0  0  0
  -19.1490  -28.8660   23.3740 C   0  0  0  0  0  0  0  0  0  0  0  0
  -18.9210  -30.1300   23.9610 C   0  0  0  0  0  3  0  0  0  0  0  0
  -17.6130  -30.6260   24.1170 C   0  0  0  0  0  3  0  0  0  0  0  0
  -16.5140  -29.8550   23.7010 C   0  0  0  0  0  3  0  0  0  0  0  0
  -16.7270  -28.5930   23.1170 C   0  0  0  0  0  3  0  0  0  0  0  0
  -25.8660  -32.5580   23.8860 C   0  0  0  0  0  3  0  0  0  0  0  0
  -25.5590  -33.9590   24.2070 N   0  0  0  0  0  0  0  0  0  0  0  0
  -25.9000  -35.0060   23.4430 C   0  0  0  0  0  0  0  0  0  0  0  0
  -26.5770  -34.8940   22.4180 O   0  0  0  0  0  0  0  0  0  0  0  0
  -24.9600  -34.1210   25.0040 H   0  0  0  0  0  0  0  0  0  0  0  0
  -24.1840  -36.8030   23.0590 C   0  0  0  0  0  1  0  0  0  0  0  0
  -25.4120  -36.3980   23.8890 C   0  0  0  0  0  3  0  0  0  0  0  0
  -27.5390  -37.2780   24.7440 C   0  0  0  0  0  1  0  0  0  0  0  0
  -26.4510  -37.4460   23.7840 N   0  0  0  0  0  0  0  0  0  0  0  0
  -26.0470  -38.3680   23.9200 H   0  0  0  0  0  0  0  0  0  0  0  0
  -26.3800  -31.7940   25.1670 C   0  0  1  0  0  0  0  0  0  0  0  0
  -25.2850  -31.5620   26.2340 C   0  0  0  0  0  1  0  0  0  0  0  0
  -26.9630  -30.4150   24.7820 C   0  0  0  0  0  1  0  0  0  0  0  0
  -27.5300  -32.5900   25.8270 C   0  0  0  0  0  1  0  0  0  0  0  0
  2  1  1  0
  3  1  2  0
  4  6  2  0
  4  5  1  0
  5  2  2  0
  6  3  1  0
  7  6  1  0
  7  9  1  0
  8  7  1  0
 10 19  1  0
 10  9  1  0
 11 19  1  0
 12 17  1  0
 13 14  1  0
 13 12  1  0
 15 14  1  0
 15 24  1  0
 15 16  1  0
 17 11  1  0
 17 16  1  0
 18 11  2  0
 19 20  1  0
 21 22  2  0
 22 41  1  0
 23 22  1  0
 23 26  1  0
 24 21  1  0
 24 25  1  0
 25 23  2  0
 26 27  1  0
 27 28  2  0
 29 32  1  0
 29 28  1  0
 30 29  2  0
 31 30  1  0
 31 26  2  0
 32 33  1  0
 33 34  1  0
 34 35  2  0
 36 35  1  0
 36 40  1  0
 37 36  2  0
 38 33  2  0
 38 37  1  0
 39 38  1  0
 41 42  1  0
 42 45  1  0
 42 44  1  0
 43 41  2  0
 46 47  1  0
 46 21  1  0
 48 46  1  0
 49  5  1  0
 50 51  1  0
 50 49  1  0
 52 63  2  0
 53 51  1  0
 53 58  1  0
 54 62  1  0
 54 64  1  0
 55 61  1  0
 55 57  1  0
 56 62  1  0
 57 56  1  0
 58 57  2  0
 59 60  1  0
 59 53  2  0
 60 55  2  0
 61 54  1  0
 62 52  1  0
 64 66  2  0
 65 64  1  0
 67 65  1  0
 68 77  2  0
 68 73  1  0
 69 65  1  0
 69 73  1  0
 70 69  1  0
 71 72  1  0
 71 70  1  0
 72 68  1  0
 73 74  2  0
 74 75  1  0
 76 75  2  0
 77 76  1  0
 78 52  1  0
 78 79  1  0
 78 88  1  0
 79 82  1  0
 80 84  1  0
 80 79  1  0
 81 80  2  0
 84 83  1  0
 86 84  1  0
 86 87  1  0
 86 85  1  0
 88 91  1  1
 88 89  1  0
 90 88  1  0
M  ISO  4  11 100  19 100  50 101  51 101
M  END
>  <TORSDO>  (64) 
F 21

>  <SCORE>  (64) 
-13.552

>  <name>  (64) 
64

>  <ligand_id>  (64) 
64

>  <original_smiles>  (64) 
[H]c1c([H])c(N([H])C([H])([H])C([H])([H])N([H])C(=O)N2C([H])([H])C([H])([H])C([H])([H])C([H])(n3nc(-c4c([H])c([H])c(Oc5c([H])c([H])c(F)c([H])c5F)c([H])c4[H])c(C(=O)N([H])[H])c3N([H])[H])C2([H])[H])c([H])c(C([H])([H])C([H])([H])Oc2c([H])c([H])c3c(c2[H])C([H])([H])N(C(=O)C([H])(N([H])C(=O)C([H])(N([H])C([H])([H])[H])C([H])([H])[H])C(C([H])([H])[H])(C([H])([H])[H])C([H])([H])[H])C([H])(C(=O)N([H])C2([H])c4c([H])c([H])c([H])c([H])c4C([H])([H])C([H])([H])C2([H])[H])C3([H])[H])c1[H]

>  <smiles>  (64) 
[H]c1c([H])c(N([H])C([H])([H])C([H])([H])N([H])C(=O)N2C([H])([H])C([H])([H])C([H])([H])C([H])(n3nc(-c4c([H])c([H])c(Oc5c([H])c([H])c(F)c([H])c5F)c([H])c4[H])c(C(=O)N([H])[H])c3N([H])[H])C2([H])[H])c([H])c(C([H])([H])C([H])([H])Oc2c([H])c([H])c3c(c2[H])C([H])([H])N(C(=O)C([H])(N([H])C(=O)C([H])(N([H])C([H])([H])[H])C([H])([H])[H])C(C([H])([H])[H])(C([H])([H])[H])C([H])([H])[H])C([H])(C(=O)N([H])C2([H])c4c([H])c([H])c([H])c([H])c4C([H])([H])C([H])([H])C2([H])[H])C3([H])[H])c1[H]

$$$$
65:0:0
     RDKit          3D

 93101  0  0  1  0  0  0  0  0999 V2000
  -28.6730  -23.4330   20.4470 C   0  0  0  0  0  3  0  0  0  0  0  0
  -28.9990  -22.0790   19.5360 C   0  0  0  0  0  2  0  0  0  0  0  0
  -30.4410  -19.7910   19.4610 C   0  0  0  0  0  3  0  0  0  0  0  0
  -28.4100  -19.6690   20.6640 C   0  0  0  0  0  3  0  0  0  0  0  0
  -30.6300  -18.3570   19.5890 C   0  0  0  0  0  3  0  0  0  0  0  0
  -28.5950  -18.2390   20.7910 C   0  0  0  0  0  3  0  0  0  0  0  0
  -29.3160  -20.5300   19.9730 C   0  0  0  0  0  0  0  0  0  0  0  0
  -29.6970  -17.4950   20.2500 C   0  0  0  0  0  0  0  0  0  0  0  0
  -30.5280  -14.9010   19.9800 C   0  0  0  0  0  0  0  0  0  0  0  0
  -30.3360  -12.6060   18.9500 C   0  0  0  0  0  2  0  0  0  0  0  0
  -29.3270  -12.6660   17.7770 C   0  0  0  0  0  2  0  0  0  0  0  0
  -27.8850  -12.4660   18.2830 C   0  0  0  0  0  2  0  0  0  0  0  0
  -27.5720  -13.3340   19.5310 C   0  0  0  0  0  3  0  0  0  0  0  0
  -28.6910  -13.2390   20.5920 C   0  0  0  0  0  2  0  0  0  0  0  0
  -29.9490  -13.6390   19.9430 N   0  0  0  0  0  0  0  0  0  0  0  0
  -31.6830  -15.0370   19.5560 O   0  0  0  0  0  0  0  0  0  0  0  0
  -29.7210  -15.9810   20.3710 N   0  0  0  0  0  0  0  0  0  0  0  0
  -28.8760  -15.6220   20.7880 H   0  0  0  0  0  0  0  0  0  0  0  0
  -25.2280  -13.9130   20.3890 C   0  0  0  0  0  0  0  0  0  0  0  0
  -24.1820  -13.1350   20.8040 C   0  0  0  0  0  0  0  0  0  0  0  0
  -24.6410  -11.7840   20.7340 C   0  0  0  0  0  0  0  0  0  0  0  0
  -26.2570  -13.0370   20.0870 N   0  0  0  0  0  0  0  0  0  0  0  0
  -25.9140  -11.7510   20.3580 N   0  0  0  0  0  0  0  0  0  0  0  0
  -23.9220  -10.5210   20.9460 C   0  0  0  0  0  0  0  0  0  0  0  0
  -24.3890   -9.5500   21.8600 C   0  0  0  0  0  3  0  0  0  0  0  0
  -23.6720   -8.3530   22.0610 C   0  0  0  0  0  3  0  0  0  0  0  0
  -22.4720   -8.1170   21.3510 C   0  0  0  0  0  0  0  0  0  0  0  0
  -22.0220   -9.0750   20.4250 C   0  0  0  0  0  3  0  0  0  0  0  0
  -22.7400  -10.2640   20.2220 C   0  0  0  0  0  3  0  0  0  0  0  0
  -21.7210   -6.9720   21.4640 O   0  0  0  0  0  0  0  0  0  0  0  0
  -21.7010   -6.2320   22.6200 C   0  0  0  0  0  0  0  0  0  0  0  0
  -21.3180   -6.7940   23.8570 C   0  0  0  0  0  3  0  0  0  0  0  0
  -21.2480   -5.9830   25.0070 C   0  0  0  0  0  3  0  0  0  0  0  0
  -21.5500   -4.6100   24.9220 C   0  0  0  0  0  0  0  0  0  0  0  0
  -21.9250   -4.0480   23.6890 C   0  0  0  0  0  3  0  0  0  0  0  0
  -21.9980   -4.8560   22.5410 C   0  0  0  0  0  0  0  0  0  0  0  0
  -22.3410   -4.3040   21.3510 F   0  0  0  0  0  0  0  0  0  0  0  0
  -21.4740   -3.8290   26.0240 F   0  0  0  0  0  0  0  0  0  0  0  0
  -22.8000  -13.6120   21.1520 C   0  0  0  0  0  0  0  0  0  0  0  0
  -22.1170  -12.9080   22.0480 N   0  0  0  0  0  0  0  0  0  0  0  0
  -22.3380  -14.6420   20.6630 O   0  0  0  0  0  0  0  0  0  0  0  0
  -22.5040  -12.0750   22.4660 H   0  0  0  0  0  0  0  0  0  0  0  0
  -21.1920  -13.2070   22.3230 H   0  0  0  0  0  0  0  0  0  0  0  0
  -25.3830  -15.2860   20.2220 N   0  0  0  0  0  0  0  0  0  0  0  0
  -24.6210  -15.9340   20.3830 H   0  0  0  0  0  0  0  0  0  0  0  0
  -26.2070  -15.7330   19.8430 H   0  0  0  0  0  0  0  0  0  0  0  0
  -29.6240  -23.5400   21.6590 C   0  0  0  0  0  2  0  0  0  0  0  0
  -31.0280  -23.8140   21.3000 N   0  0  0  0  0  4  0  0  0  0  0  0
  -31.4010  -23.0990   20.7010 H   0  0  0  0  0  0  0  0  0  0  0  0
  -31.5860  -23.8370   22.1360 H   0  0  0  0  0  0  0  0  0  0  0  0
  -31.1230  -24.7050   20.8470 H   0  0  0  0  0  0  0  0  0  0  0  0
  -28.4430  -24.9050   19.6860 C   0  0  0  0  0  2  0  0  0  0  0  0
  -28.3220  -26.3100   20.3040 O   0  0  0  0  0  0  0  0  0  0  0  0
  -24.6160  -31.8770   23.2380 C   0  0  0  0  0  0  0  0  0  0  0  0
  -27.2160  -27.2150   20.1940 C   0  0  0  0  0  0  0  0  0  0  0  0
  -23.4120  -30.4750   21.6030 C   0  0  0  0  0  3  0  0  0  0  0  0
  -24.8600  -28.9080   20.1730 C   0  0  0  0  0  0  0  0  0  0  0  0
  -25.9570  -30.7670   21.4180 C   0  0  0  0  0  2  0  0  0  0  0  0
  -26.0350  -29.3770   20.7720 C   0  0  0  0  0  0  0  0  0  0  0  0
  -27.2090  -28.5450   20.7680 C   0  0  0  0  0  3  0  0  0  0  0  0
  -26.0100  -26.8310   19.5650 C   0  0  0  0  0  3  0  0  0  0  0  0
  -24.8570  -27.6460   19.5580 C   0  0  0  0  0  3  0  0  0  0  0  0
  -23.6250  -29.7920   20.2240 C   0  0  0  0  0  2  0  0  0  0  0  0
  -24.6820  -31.0610   22.1430 N   0  0  0  0  0  0  0  0  0  0  0  0
  -23.5340  -32.1560   23.7740 O   0  0  0  0  0  0  0  0  0  0  0  0
  -22.7440  -29.4680   22.5700 C   0  0  0  0  0  0  0  0  0  0  0  0
  -21.4160  -29.2920   22.4480 N   0  0  0  0  0  0  0  0  0  0  0  0
  -23.4210  -28.8470   23.3930 O   0  0  0  0  0  0  0  0  0  0  0  0
  -20.9280  -29.8470   21.7570 H   0  0  0  0  0  0  0  0  0  0  0  0
  -18.0430  -28.0780   22.9560 C   0  0  0  0  0  0  0  0  0  0  0  0
  -20.6000  -28.3550   23.2230 C   0  0  0  0  0  3  0  0  0  0  0  0
  -20.7080  -26.9200   22.6560 C   0  0  0  0  0  2  0  0  0  0  0  0
  -19.6090  -26.5860   21.6430 C   0  0  0  0  0  2  0  0  0  0  0  0
  -18.2270  -26.7280   22.2850 C   0  0  0  0  0  2  0  0  0  0  0  0
  -19.1580  -28.8490   23.3830 C   0  0  0  0  0  0  0  0  0  0  0  0
  -18.9310  -30.1120   23.9700 C   0  0  0  0  0  3  0  0  0  0  0  0
  -17.6230  -30.6040   24.1360 C   0  0  0  0  0  3  0  0  0  0  0  0
  -16.5220  -29.8320   23.7250 C   0  0  0  0  0  3  0  0  0  0  0  0
  -16.7340  -28.5690   23.1420 C   0  0  0  0  0  3  0  0  0  0  0  0
  -25.8980  -32.5150   23.8560 C   0  0  0  0  0  3  0  0  0  0  0  0
  -25.5840  -33.9130   24.1880 N   0  0  0  0  0  0  0  0  0  0  0  0
  -25.9110  -34.9700   23.4320 C   0  0  0  0  0  0  0  0  0  0  0  0
  -26.5790  -34.8710   22.3990 O   0  0  0  0  0  0  0  0  0  0  0  0
  -24.9910  -34.0660   24.9900 H   0  0  0  0  0  0  0  0  0  0  0  0
  -24.1730  -36.7630   23.1000 C   0  0  0  0  0  1  0  0  0  0  0  0
  -25.4240  -36.3580   23.8970 C   0  0  0  0  0  3  0  0  0  0  0  0
  -27.5650  -37.2520   24.7010 C   0  0  0  0  0  1  0  0  0  0  0  0
  -26.4490  -37.4180   23.7730 N   0  0  0  0  0  0  0  0  0  0  0  0
  -26.0400  -38.3350   23.9290 H   0  0  0  0  0  0  0  0  0  0  0  0
  -26.4170  -31.7500   25.1360 C   0  0  1  0  0  0  0  0  0  0  0  0
  -25.3260  -31.5170   26.2090 C   0  0  0  0  0  1  0  0  0  0  0  0
  -27.0020  -30.3710   24.7540 C   0  0  0  0  0  1  0  0  0  0  0  0
  -27.5680  -32.5490   25.7940 C   0  0  0  0  0  1  0  0  0  0  0  0
  1  2  1  0
  1 47  1  0
  2  7  1  0
  3  5  2  0
  3  7  1  0
  4  6  1  0
  5  8  1  0
  7  4  2  0
  8 17  1  0
  8  6  2  0
  9 17  1  0
 10 15  1  0
 11 12  1  0
 11 10  1  0
 13 12  1  0
 13 22  1  0
 13 14  1  0
 15  9  1  0
 15 14  1  0
 16  9  2  0
 17 18  1  0
 19 20  2  0
 20 39  1  0
 21 20  1  0
 21 24  1  0
 22 23  1  0
 22 19  1  0
 23 21  2  0
 24 25  1  0
 25 26  2  0
 27 30  1  0
 27 26  1  0
 28 27  2  0
 29 28  1  0
 29 24  2  0
 30 31  1  0
 31 32  1  0
 32 33  2  0
 34 33  1  0
 34 38  1  0
 35 34  2  0
 36 31  2  0
 36 35  1  0
 37 36  1  0
 39 40  1  0
 40 43  1  0
 40 42  1  0
 41 39  2  0
 44 45  1  0
 44 19  1  0
 46 44  1  0
 48 47  1  0
 48 50  1  0
 49 48  1  0
 51 48  1  0
 52 53  1  0
 52  1  1  0
 54 65  2  0
 55 53  1  0
 55 60  1  0
 56 64  1  0
 56 66  1  0
 57 63  1  0
 57 59  1  0
 58 64  1  0
 59 58  1  0
 60 59  2  0
 61 55  2  0
 62 61  1  0
 62 57  2  0
 63 56  1  0
 64 54  1  0
 66 68  2  0
 67 66  1  0
 69 67  1  0
 70 79  2  0
 70 75  1  0
 71 67  1  0
 71 75  1  0
 72 71  1  0
 73 74  1  0
 73 72  1  0
 74 70  1  0
 75 76  2  0
 76 77  1  0
 78 77  2  0
 79 78  1  0
 80 54  1  0
 80 81  1  0
 80 90  1  0
 81 84  1  0
 82 86  1  0
 82 81  1  0
 83 82  2  0
 86 85  1  0
 88 86  1  0
 88 89  1  0
 88 87  1  0
 90 93  1  1
 90 91  1  0
 92 90  1  0
M  ISO  4   9 100  17 100  52 101  53 101
M  END
>  <TORSDO>  (65) 
F 21

>  <SCORE>  (65) 
-13.502

>  <name>  (65) 
65

>  <ligand_id>  (65) 
65

>  <original_smiles>  (65) 
[H]c1c([H])c([H])c2c(c1[H])C([H])([H])C([H])([H])C([H])([H])C2([H])N([H])C(=O)C1([H])N(C(=O)C([H])(N([H])C(=O)C([H])(N([H])C([H])([H])[H])C([H])([H])[H])C(C([H])([H])[H])(C([H])([H])[H])C([H])([H])[H])C([H])([H])c2c([H])c(OC([H])([H])C([H])(C([H])([H])c3c([H])c([H])c(N([H])C(=O)N4C([H])([H])C([H])([H])C([H])([H])C([H])(n5nc(-c6c([H])c([H])c(Oc7c([H])c([H])c(F)c([H])c7F)c([H])c6[H])c(C(=O)N([H])[H])c5N([H])[H])C4([H])[H])c([H])c3[H])C([H])([H])[N+]([H])([H])[H])c([H])c([H])c2C1([H])[H]

>  <smiles>  (65) 
[H]c1c([H])c([H])c2c(c1[H])C([H])([H])C([H])([H])C([H])([H])C2([H])N([H])C(=O)C1([H])N(C(=O)C([H])(N([H])C(=O)C([H])(N([H])C([H])([H])[H])C([H])([H])[H])C(C([H])([H])[H])(C([H])([H])[H])C([H])([H])[H])C([H])([H])c2c([H])c(OC([H])([H])C([H])(C([H])([H])c3c([H])c([H])c(N([H])C(=O)N4C([H])([H])C([H])([H])C([H])([H])C([H])(n5nc(-c6c([H])c([H])c(Oc7c([H])c([H])c(F)c([H])c7F)c([H])c6[H])c(C(=O)N([H])[H])c5N([H])[H])C4([H])[H])c([H])c3[H])C([H])([H])[N+]([H])([H])[H])c([H])c([H])c2C1([H])[H]

$$$$
66:0:0
     RDKit          3D

 91 99  0  0  1  0  0  0  0  0999 V2000
  -29.8160  -21.0360   21.3830 C   0  0  0  0  0  3  0  0  0  0  0  0
  -28.9100  -20.2890   19.2970 C   0  0  0  0  0  3  0  0  0  0  0  0
  -30.2530  -19.7000   21.6590 C   0  0  0  0  0  0  0  0  0  0  0  0
  -29.3680  -18.9560   19.5380 C   0  0  0  0  0  0  0  0  0  0  0  0
  -30.0600  -18.6170   20.7340 C   0  0  0  0  0  0  0  0  0  0  0  0
  -29.1380  -21.3710   20.1870 C   0  0  0  0  0  0  0  0  0  0  0  0
  -30.9650  -19.4730   22.9840 C   0  0  0  0  0  1  0  0  0  0  0  0
  -29.1470  -17.9110   18.4560 C   0  0  0  0  0  1  0  0  0  0  0  0
  -30.7610  -17.2110   20.9590 C   0  0  0  0  0  2  0  0  0  0  0  0
  -30.7920  -14.7360   20.3460 C   0  0  0  0  0  0  0  0  0  0  0  0
  -30.4980  -12.4910   19.3190 C   0  0  0  0  0  2  0  0  0  0  0  0
  -29.5420  -12.5850   18.1120 C   0  0  0  0  0  2  0  0  0  0  0  0
  -28.0810  -12.4320   18.5720 C   0  0  0  0  0  2  0  0  0  0  0  0
  -27.7370  -13.3270   19.7930 C   0  0  0  0  0  3  0  0  0  0  0  0
  -28.8160  -13.2380   20.8940 C   0  0  0  0  0  2  0  0  0  0  0  0
  -30.1090  -13.5500   20.2740 N   0  0  0  0  0  0  0  0  0  0  0  0
  -31.9610  -14.8070   19.9580 O   0  0  0  0  0  0  0  0  0  0  0  0
  -30.1150  -15.8740   20.7020 N   0  0  0  0  0  0  0  0  0  0  0  0
  -29.1420  -15.7780   20.9470 H   0  0  0  0  0  0  0  0  0  0  0  0
  -25.3700  -13.9240   20.5830 C   0  0  0  0  0  0  0  0  0  0  0  0
  -24.3050  -13.1510   20.9620 C   0  0  0  0  0  0  0  0  0  0  0  0
  -24.7560  -11.7980   20.8950 C   0  0  0  0  0  0  0  0  0  0  0  0
  -26.4000  -13.0420   20.3080 N   0  0  0  0  0  0  0  0  0  0  0  0
  -26.0390  -11.7560   20.5560 N   0  0  0  0  0  0  0  0  0  0  0  0
  -24.0210  -10.5370   21.0740 C   0  0  0  0  0  0  0  0  0  0  0  0
  -24.4530   -9.5550   21.9920 C   0  0  0  0  0  3  0  0  0  0  0  0
  -23.7190   -8.3620   22.1610 C   0  0  0  0  0  3  0  0  0  0  0  0
  -22.5390   -8.1420   21.4140 C   0  0  0  0  0  0  0  0  0  0  0  0
  -22.1250   -9.1130   20.4840 C   0  0  0  0  0  3  0  0  0  0  0  0
  -22.8600  -10.2980   20.3120 C   0  0  0  0  0  3  0  0  0  0  0  0
  -21.7770   -7.0020   21.4930 O   0  0  0  0  0  0  0  0  0  0  0  0
  -21.7130   -6.2570   22.6430 C   0  0  0  0  0  0  0  0  0  0  0  0
  -21.2270   -6.7990   23.8530 C   0  0  0  0  0  3  0  0  0  0  0  0
  -21.1130   -5.9790   24.9940 C   0  0  0  0  0  3  0  0  0  0  0  0
  -21.4730   -4.6200   24.9260 C   0  0  0  0  0  0  0  0  0  0  0  0
  -21.9510   -4.0780   23.7180 C   0  0  0  0  0  3  0  0  0  0  0  0
  -22.0670   -4.8950   22.5800 C   0  0  0  0  0  0  0  0  0  0  0  0
  -22.5080   -4.3630   21.4150 F   0  0  0  0  0  0  0  0  0  0  0  0
  -21.3560   -3.8300   26.0180 F   0  0  0  0  0  0  0  0  0  0  0  0
  -22.9190  -13.6350   21.2730 C   0  0  0  0  0  0  0  0  0  0  0  0
  -22.2050  -12.9280   22.1420 N   0  0  0  0  0  0  0  0  0  0  0  0
  -22.4780  -14.6730   20.7820 O   0  0  0  0  0  0  0  0  0  0  0  0
  -22.5790  -12.0890   22.5610 H   0  0  0  0  0  0  0  0  0  0  0  0
  -21.2750  -13.2310   22.3930 H   0  0  0  0  0  0  0  0  0  0  0  0
  -25.5390  -15.2960   20.4270 N   0  0  0  0  0  0  0  0  0  0  0  0
  -24.7710  -15.9460   20.5490 H   0  0  0  0  0  0  0  0  0  0  0  0
  -26.3740  -15.7360   20.0620 H   0  0  0  0  0  0  0  0  0  0  0  0
  -28.6580  -22.6480   19.8260 O   0  0  0  0  0  0  0  0  0  0  0  0
  -28.9790  -23.9050   20.5150 C   0  0  0  0  0  2  0  0  0  0  0  0
  -28.0110  -25.0820   20.0520 C   0  0  0  0  0  2  0  0  0  0  0  0
  -28.2600  -26.5210   20.3340 O   0  0  0  0  0  0  0  0  0  0  0  0
  -24.5840  -31.9830   23.2890 C   0  0  0  0  0  0  0  0  0  0  0  0
  -27.1590  -27.3930   20.2520 C   0  0  0  0  0  0  0  0  0  0  0  0
  -23.3650  -30.5760   21.6690 C   0  0  0  0  0  3  0  0  0  0  0  0
  -24.8020  -29.0190   20.2410 C   0  0  0  0  0  0  0  0  0  0  0  0
  -25.9060  -30.8870   21.4680 C   0  0  0  0  0  2  0  0  0  0  0  0
  -25.9760  -29.5050   20.8300 C   0  0  0  0  0  0  0  0  0  0  0  0
  -27.1570  -28.7020   20.8290 C   0  0  0  0  0  3  0  0  0  0  0  0
  -25.9640  -26.9780   19.6170 C   0  0  0  0  0  3  0  0  0  0  0  0
  -24.7980  -27.7620   19.6240 C   0  0  0  0  0  3  0  0  0  0  0  0
  -23.5670  -29.8940   20.2920 C   0  0  0  0  0  2  0  0  0  0  0  0
  -24.6370  -31.1650   22.1980 N   0  0  0  0  0  0  0  0  0  0  0  0
  -23.5040  -32.2670   23.8280 O   0  0  0  0  0  0  0  0  0  0  0  0
  -22.7100  -29.5640   22.6400 C   0  0  0  0  0  0  0  0  0  0  0  0
  -21.3910  -29.3500   22.4890 N   0  0  0  0  0  0  0  0  0  0  0  0
  -23.3850  -28.9770   23.4910 O   0  0  0  0  0  0  0  0  0  0  0  0
  -20.9040  -29.8740   21.7750 H   0  0  0  0  0  0  0  0  0  0  0  0
  -18.0340  -28.0830   22.9490 C   0  0  0  0  0  0  0  0  0  0  0  0
  -20.5790  -28.4140   23.2690 C   0  0  0  0  0  3  0  0  0  0  0  0
  -20.7290  -26.9700   22.7360 C   0  0  0  0  0  2  0  0  0  0  0  0
  -19.6570  -26.5920   21.7070 C   0  0  0  0  0  2  0  0  0  0  0  0
  -18.2590  -26.7210   22.3160 C   0  0  0  0  0  2  0  0  0  0  0  0
  -19.1240  -28.8860   23.3820 C   0  0  0  0  0  0  0  0  0  0  0  0
  -18.8590  -30.1590   23.9310 C   0  0  0  0  0  3  0  0  0  0  0  0
  -17.5390  -30.6310   24.0540 C   0  0  0  0  0  3  0  0  0  0  0  0
  -16.4650  -29.8270   23.6370 C   0  0  0  0  0  3  0  0  0  0  0  0
  -16.7130  -28.5550   23.0910 C   0  0  0  0  0  3  0  0  0  0  0  0
  -25.8730  -32.6170   23.8960 C   0  0  0  0  0  3  0  0  0  0  0  0
  -26.3970  -31.8530   25.1750 C   0  0  1  0  0  0  0  0  0  0  0  0
  -25.3090  -31.6170   26.2460 C   0  0  0  0  0  1  0  0  0  0  0  0
  -26.9860  -30.4760   24.7880 C   0  0  0  0  0  1  0  0  0  0  0  0
  -27.5460  -32.6560   25.8290 C   0  0  0  0  0  1  0  0  0  0  0  0
  -25.5690  -34.0170   24.2180 N   0  0  0  0  0  0  0  0  0  0  0  0
  -25.8870  -35.0630   23.4450 C   0  0  0  0  0  0  0  0  0  0  0  0
  -26.5380  -34.9500   22.4020 O   0  0  0  0  0  0  0  0  0  0  0  0
  -24.9920  -34.1790   25.0310 H   0  0  0  0  0  0  0  0  0  0  0  0
  -24.1590  -36.8560   23.0950 C   0  0  0  0  0  1  0  0  0  0  0  0
  -25.4060  -36.4550   23.8980 C   0  0  0  0  0  3  0  0  0  0  0  0
  -27.5440  -37.3470   24.7130 C   0  0  0  0  0  1  0  0  0  0  0  0
  -26.4400  -37.5050   23.7690 N   0  0  0  0  0  0  0  0  0  0  0  0
  -26.0360  -38.4280   23.9060 H   0  0  0  0  0  0  0  0  0  0  0  0
  1  3  1  0
  2  4  2  0
  2  6  1  0
  3  7  1  0
  4  5  1  0
  5  9  1  0
  5  3  2  0
  6  1  2  0
  8  4  1  0
 10 18  1  0
 11 16  1  0
 12 13  1  0
 12 11  1  0
 14 13  1  0
 14 23  1  0
 14 15  1  0
 16 10  1  0
 16 15  1  0
 17 10  2  0
 18 19  1  0
 18  9  1  0
 20 21  2  0
 21 40  1  0
 22 21  1  0
 22 25  1  0
 23 24  1  0
 23 20  1  0
 24 22  2  0
 25 26  1  0
 26 27  2  0
 28 31  1  0
 28 27  1  0
 29 28  2  0
 30 29  1  0
 30 25  2  0
 31 32  1  0
 32 33  1  0
 33 34  2  0
 35 34  1  0
 35 39  1  0
 36 35  2  0
 37 32  2  0
 37 36  1  0
 38 37  1  0
 40 41  1  0
 41 44  1  0
 41 43  1  0
 42 40  2  0
 45 46  1  0
 45 20  1  0
 47 45  1  0
 48  6  1  0
 48 49  1  0
 50 51  1  0
 50 49  1  0
 52 63  2  0
 53 51  1  0
 53 58  1  0
 54 62  1  0
 54 64  1  0
 55 61  1  0
 55 57  1  0
 56 62  1  0
 57 56  1  0
 58 57  2  0
 59 60  1  0
 59 53  2  0
 60 55  2  0
 61 54  1  0
 62 52  1  0
 64 66  2  0
 65 64  1  0
 67 65  1  0
 68 77  2  0
 68 73  1  0
 69 65  1  0
 69 73  1  0
 70 69  1  0
 71 72  1  0
 71 70  1  0
 72 68  1  0
 73 74  2  0
 74 75  1  0
 76 75  2  0
 77 76  1  0
 78 52  1  0
 78 83  1  0
 78 79  1  0
 79 82  1  1
 79 80  1  0
 81 79  1  0
 83 86  1  0
 84 88  1  0
 84 83  1  0
 85 84  2  0
 88 87  1  0
 90 88  1  0
 90 91  1  0
 90 89  1  0
M  ISO  4  10 100  18 100  50 101  51 101
M  END
>  <TORSDO>  (66) 
F 20

>  <SCORE>  (66) 
-13.694

>  <name>  (66) 
66

>  <ligand_id>  (66) 
66

>  <original_smiles>  (66) 
[H]c1c([H])c([H])c2c(c1[H])C([H])([H])C([H])([H])C([H])([H])C2([H])N([H])C(=O)C1([H])N(C(=O)C([H])(N([H])C(=O)C([H])(N([H])C([H])([H])[H])C([H])([H])[H])C(C([H])([H])[H])(C([H])([H])[H])C([H])([H])[H])C([H])([H])c2c([H])c(OC([H])([H])C([H])([H])Oc3c([H])c(C([H])([H])[H])c(C([H])([H])N([H])C(=O)N4C([H])([H])C([H])([H])C([H])([H])C([H])(n5nc(-c6c([H])c([H])c(Oc7c([H])c([H])c(F)c([H])c7F)c([H])c6[H])c(C(=O)N([H])[H])c5N([H])[H])C4([H])[H])c(C([H])([H])[H])c3[H])c([H])c([H])c2C1([H])[H]

>  <smiles>  (66) 
[H]c1c([H])c([H])c2c(c1[H])C([H])([H])C([H])([H])C([H])([H])C2([H])N([H])C(=O)C1([H])N(C(=O)C([H])(N([H])C(=O)C([H])(N([H])C([H])([H])[H])C([H])([H])[H])C(C([H])([H])[H])(C([H])([H])[H])C([H])([H])[H])C([H])([H])c2c([H])c(OC([H])([H])C([H])([H])Oc3c([H])c(C([H])([H])[H])c(C([H])([H])N([H])C(=O)N4C([H])([H])C([H])([H])C([H])([H])C([H])(n5nc(-c6c([H])c([H])c(Oc7c([H])c([H])c(F)c([H])c7F)c([H])c6[H])c(C(=O)N([H])[H])c5N([H])[H])C4([H])[H])c(C([H])([H])[H])c3[H])c([H])c([H])c2C1([H])[H]

$$$$
67:0:0
     RDKit          3D

 88 96  0  0  1  0  0  0  0  0999 V2000
  -30.5810  -19.2010   20.7390 C   0  0  0  0  0  2  0  0  0  0  0  0
  -28.5630  -18.9160   19.4600 C   0  0  0  0  0  2  0  0  0  0  0  0
  -30.0840  -20.7350   21.1300 C   0  0  0  0  0  2  0  0  0  0  0  0
  -28.1050  -20.4830   19.7770 C   0  0  0  0  0  2  0  0  0  0  0  0
  -29.4620  -18.0610   20.5000 C   0  0  0  0  0  3  0  0  0  0  0  0
  -29.1430  -21.5440   20.2000 N   0  0  1  0  0  4  0  0  0  0  0  0
  -29.7000  -21.7290   19.3740 H   0  0  0  0  0  0  0  0  0  0  0  0
  -30.4360  -15.2140   20.2770 C   0  0  0  0  0  0  0  0  0  0  0  0
  -30.4010  -12.7930   19.3720 C   0  0  0  0  0  2  0  0  0  0  0  0
  -29.4660  -12.6360   18.1460 C   0  0  0  0  0  2  0  0  0  0  0  0
  -28.0210  -12.3660   18.6090 C   0  0  0  0  0  2  0  0  0  0  0  0
  -27.5830  -13.3360   19.7360 C   0  0  0  0  0  3  0  0  0  0  0  0
  -28.6410  -13.4250   20.8590 C   0  0  0  0  0  2  0  0  0  0  0  0
  -29.8800  -13.9150   20.2280 N   0  0  0  0  0  0  0  0  0  0  0  0
  -31.6460  -15.2680   20.0270 O   0  0  0  0  0  0  0  0  0  0  0  0
  -29.6000  -16.4080   20.4150 N   0  0  0  0  0  0  0  0  0  0  0  0
  -28.6760  -16.0330   20.5670 H   0  0  0  0  0  0  0  0  0  0  0  0
  -25.1970  -13.9060   20.4680 C   0  0  0  0  0  0  0  0  0  0  0  0
  -24.1370  -13.1320   20.8400 C   0  0  0  0  0  0  0  0  0  0  0  0
  -24.6030  -11.7780   20.8170 C   0  0  0  0  0  0  0  0  0  0  0  0
  -26.2470  -13.0310   20.2370 N   0  0  0  0  0  0  0  0  0  0  0  0
  -25.8990  -11.7460   20.5160 N   0  0  0  0  0  0  0  0  0  0  0  0
  -23.8790  -10.5160   21.0110 C   0  0  0  0  0  0  0  0  0  0  0  0
  -24.3130   -9.5540   21.9510 C   0  0  0  0  0  3  0  0  0  0  0  0
  -23.5890   -8.3560   22.1340 C   0  0  0  0  0  3  0  0  0  0  0  0
  -22.4200   -8.1100   21.3790 C   0  0  0  0  0  0  0  0  0  0  0  0
  -22.0020   -9.0600   20.4300 C   0  0  0  0  0  3  0  0  0  0  0  0
  -22.7250  -10.2500   20.2450 C   0  0  0  0  0  3  0  0  0  0  0  0
  -21.6710   -6.9600   21.4690 O   0  0  0  0  0  0  0  0  0  0  0  0
  -21.6260   -6.2210   22.6240 C   0  0  0  0  0  0  0  0  0  0  0  0
  -21.1950   -6.7780   23.8480 C   0  0  0  0  0  3  0  0  0  0  0  0
  -21.0980   -5.9660   24.9950 C   0  0  0  0  0  3  0  0  0  0  0  0
  -21.4210   -4.5970   24.9200 C   0  0  0  0  0  0  0  0  0  0  0  0
  -21.8440   -4.0390   23.6990 C   0  0  0  0  0  3  0  0  0  0  0  0
  -21.9420   -4.8490   22.5550 C   0  0  0  0  0  0  0  0  0  0  0  0
  -22.3310   -4.3030   21.3780 F   0  0  0  0  0  0  0  0  0  0  0  0
  -21.3200   -3.8150   26.0190 F   0  0  0  0  0  0  0  0  0  0  0  0
  -22.7350  -13.6010   21.1050 C   0  0  0  0  0  0  0  0  0  0  0  0
  -22.0090  -12.9080   21.9680 N   0  0  0  0  0  0  0  0  0  0  0  0
  -22.2960  -14.6240   20.5750 O   0  0  0  0  0  0  0  0  0  0  0  0
  -22.3780  -12.0790   22.4140 H   0  0  0  0  0  0  0  0  0  0  0  0
  -21.0720  -13.2090   22.1940 H   0  0  0  0  0  0  0  0  0  0  0  0
  -25.3590  -15.2770   20.2760 N   0  0  0  0  0  0  0  0  0  0  0  0
  -24.5800  -15.9260   20.3700 H   0  0  0  0  0  0  0  0  0  0  0  0
  -26.1730  -15.6910   19.8440 H   0  0  0  0  0  0  0  0  0  0  0  0
  -28.6640  -23.0240   20.7570 C   0  0  0  0  0  2  0  0  0  0  0  0
  -28.2830  -24.5010   19.9140 C   0  0  0  0  0  2  0  0  0  0  0  0
  -28.2590  -26.0460   20.3910 O   0  0  0  0  0  0  0  0  0  0  0  0
  -24.6190  -31.8780   23.2640 C   0  0  0  0  0  0  0  0  0  0  0  0
  -27.2130  -27.0730   20.2620 C   0  0  0  0  0  0  0  0  0  0  0  0
  -23.4290  -30.4760   21.6160 C   0  0  0  0  0  3  0  0  0  0  0  0
  -24.8930  -28.8870   20.2020 C   0  0  0  0  0  0  0  0  0  0  0  0
  -26.0050  -30.7060   21.4950 C   0  0  0  0  0  2  0  0  0  0  0  0
  -26.0740  -29.3200   20.8150 C   0  0  0  0  0  0  0  0  0  0  0  0
  -27.2340  -28.4380   20.8090 C   0  0  0  0  0  3  0  0  0  0  0  0
  -25.9950  -26.7590   19.6240 C   0  0  0  0  0  3  0  0  0  0  0  0
  -24.8750  -27.6260   19.5830 C   0  0  0  0  0  3  0  0  0  0  0  0
  -23.6620  -29.7830   20.2450 C   0  0  0  0  0  2  0  0  0  0  0  0
  -24.7020  -31.0520   22.1710 N   0  0  0  0  0  0  0  0  0  0  0  0
  -23.5300  -32.1690   23.7820 O   0  0  0  0  0  0  0  0  0  0  0  0
  -22.7430  -29.4810   22.5840 C   0  0  0  0  0  0  0  0  0  0  0  0
  -21.4160  -29.3080   22.4490 N   0  0  0  0  0  0  0  0  0  0  0  0
  -23.4070  -28.8660   23.4220 O   0  0  0  0  0  0  0  0  0  0  0  0
  -20.9500  -29.8460   21.7320 H   0  0  0  0  0  0  0  0  0  0  0  0
  -18.0170  -28.1240   22.9470 C   0  0  0  0  0  0  0  0  0  0  0  0
  -20.5780  -28.3780   23.2130 C   0  0  0  0  0  3  0  0  0  0  0  0
  -20.6650  -26.9440   22.6390 C   0  0  0  0  0  2  0  0  0  0  0  0
  -19.5670  -26.6350   21.6170 C   0  0  0  0  0  2  0  0  0  0  0  0
  -18.1860  -26.7770   22.2640 C   0  0  0  0  0  2  0  0  0  0  0  0
  -19.1390  -28.8880   23.3720 C   0  0  0  0  0  0  0  0  0  0  0  0
  -18.9210  -30.1480   23.9660 C   0  0  0  0  0  3  0  0  0  0  0  0
  -17.6150  -30.6500   24.1330 C   0  0  0  0  0  3  0  0  0  0  0  0
  -16.5100  -29.8830   23.7240 C   0  0  0  0  0  3  0  0  0  0  0  0
  -16.7120  -28.6190   23.1420 C   0  0  0  0  0  3  0  0  0  0  0  0
  -25.8920  -32.5100   23.9040 C   0  0  0  0  0  3  0  0  0  0  0  0
  -25.5790  -33.9160   24.2150 N   0  0  0  0  0  0  0  0  0  0  0  0
  -25.9130  -34.9660   23.4500 C   0  0  0  0  0  0  0  0  0  0  0  0
  -26.5890  -34.8540   22.4240 O   0  0  0  0  0  0  0  0  0  0  0  0
  -24.9700  -34.0740   25.0030 H   0  0  0  0  0  0  0  0  0  0  0  0
  -24.1830  -36.7540   23.0740 C   0  0  0  0  0  1  0  0  0  0  0  0
  -25.4220  -36.3590   23.8930 C   0  0  0  0  0  3  0  0  0  0  0  0
  -27.5550  -37.2570   24.7170 C   0  0  0  0  0  1  0  0  0  0  0  0
  -26.4530  -37.4150   23.7710 N   0  0  0  0  0  0  0  0  0  0  0  0
  -26.0420  -38.3350   23.9120 H   0  0  0  0  0  0  0  0  0  0  0  0
  -26.3880  -31.7550   25.2050 C   0  0  1  0  0  0  0  0  0  0  0  0
  -25.2980  -31.5220   26.2760 C   0  0  0  0  0  1  0  0  0  0  0  0
  -26.9740  -30.3620   24.8700 C   0  0  0  0  0  1  0  0  0  0  0  0
  -27.5340  -32.5600   25.8620 C   0  0  0  0  0  1  0  0  0  0  0  0
  1  3  1  0
  2  4  1  0
  2  5  1  0
  4  6  1  0
  5 16  1  0
  5  1  1  0
  6 46  1  0
  6  3  1  0
  6  7  1  6
  8 16  1  0
  9 14  1  0
 10 11  1  0
 10  9  1  0
 12 11  1  0
 12 21  1  0
 12 13  1  0
 14  8  1  0
 14 13  1  0
 15  8  2  0
 16 17  1  0
 18 19  2  0
 19 38  1  0
 20 19  1  0
 20 23  1  0
 21 18  1  0
 21 22  1  0
 22 20  2  0
 23 24  1  0
 24 25  2  0
 26 29  1  0
 26 25  1  0
 27 26  2  0
 28 27  1  0
 28 23  2  0
 29 30  1  0
 30 31  1  0
 31 32  2  0
 33 32  1  0
 33 37  1  0
 34 33  2  0
 35 30  2  0
 35 34  1  0
 36 35  1  0
 38 39  1  0
 39 42  1  0
 39 41  1  0
 40 38  2  0
 43 44  1  0
 43 18  1  0
 45 43  1  0
 47 48  1  0
 47 46  1  0
 49 60  2  0
 50 48  1  0
 50 55  1  0
 51 59  1  0
 51 61  1  0
 52 58  1  0
 52 54  1  0
 53 59  1  0
 54 53  1  0
 55 54  2  0
 56 50  2  0
 57 56  1  0
 57 52  2  0
 58 51  1  0
 59 49  1  0
 61 63  2  0
 62 61  1  0
 64 62  1  0
 65 74  2  0
 65 70  1  0
 66 62  1  0
 66 70  1  0
 67 66  1  0
 68 69  1  0
 68 67  1  0
 69 65  1  0
 70 71  2  0
 71 72  1  0
 73 72  2  0
 74 73  1  0
 75 49  1  0
 75 76  1  0
 75 85  1  0
 76 79  1  0
 77 81  1  0
 77 76  1  0
 78 77  2  0
 81 80  1  0
 83 81  1  0
 83 84  1  0
 83 82  1  0
 85 88  1  1
 85 86  1  0
 87 85  1  0
M  ISO  4   8 100  16 100  47 101  48 101
M  END
>  <TORSDO>  (67) 
F 18

>  <SCORE>  (67) 
-15.423

>  <name>  (67) 
67

>  <ligand_id>  (67) 
67

>  <original_smiles>  (67) 
[H]c1c([H])c([H])c2c(c1[H])C([H])([H])C([H])([H])C([H])([H])C2([H])N([H])C(=O)C1([H])N(C(=O)C([H])(N([H])C(=O)C([H])(N([H])C([H])([H])[H])C([H])([H])[H])C(C([H])([H])[H])(C([H])([H])[H])C([H])([H])[H])C([H])([H])c2c([H])c(OC([H])([H])C([H])([H])[N+]3([H])C([H])([H])C([H])([H])C([H])(N([H])C(=O)N4C([H])([H])C([H])([H])C([H])([H])C([H])(n5nc(-c6c([H])c([H])c(Oc7c([H])c([H])c(F)c([H])c7F)c([H])c6[H])c(C(=O)N([H])[H])c5N([H])[H])C4([H])[H])C([H])([H])C3([H])[H])c([H])c([H])c2C1([H])[H]

>  <smiles>  (67) 
[H]c1c([H])c([H])c2c(c1[H])C([H])([H])C([H])([H])C([H])([H])C2([H])N([H])C(=O)C1([H])N(C(=O)C([H])(N([H])C(=O)C([H])(N([H])C([H])([H])[H])C([H])([H])[H])C(C([H])([H])[H])(C([H])([H])[H])C([H])([H])[H])C([H])([H])c2c([H])c(OC([H])([H])C([H])([H])[N+]3([H])C([H])([H])C([H])([H])C([H])(N([H])C(=O)N4C([H])([H])C([H])([H])C([H])([H])C([H])(n5nc(-c6c([H])c([H])c(Oc7c([H])c([H])c(F)c([H])c7F)c([H])c6[H])c(C(=O)N([H])[H])c5N([H])[H])C4([H])[H])C([H])([H])C3([H])[H])c([H])c([H])c2C1([H])[H]

$$$$
68:0:0
     RDKit          3D

 96105  0  0  1  0  0  0  0  0999 V2000
  -31.7430  -20.1690   17.9290 C   0  0  0  0  0  2  0  0  0  0  0  0
  -32.9310  -20.7330   18.7070 C   0  0  0  0  0  2  0  0  0  0  0  0
  -30.4870  -20.8550   18.4930 C   0  0  0  0  0  2  0  0  0  0  0  0
  -32.3550  -21.5720   19.8680 C   0  0  0  0  0  2  0  0  0  0  0  0
  -30.7990  -21.4280   19.9100 C   0  0  1  0  0  0  0  0  0  0  0  0
  -28.5920  -22.8880   20.0610 C   0  0  0  0  0  2  0  0  0  0  0  0
  -30.5580  -23.7420   21.2660 C   0  0  0  0  0  2  0  0  0  0  0  0
  -28.0390  -24.3140   19.8180 C   0  0  0  0  0  2  0  0  0  0  0  0
  -30.1140  -25.2160   21.0510 C   0  0  0  0  0  2  0  0  0  0  0  0
  -30.1360  -22.8630   20.0570 C   0  0  0  0  0  3  0  0  0  0  0  0
  -28.6020  -25.4230   20.7520 C   0  0  0  0  0  3  0  0  0  0  0  0
  -28.4900  -26.7410   20.1650 O   0  0  0  0  0  0  0  0  0  0  0  0
  -24.6280  -31.8860   23.2330 C   0  0  0  0  0  0  0  0  0  0  0  0
  -27.2870  -27.4250   20.1930 C   0  0  0  0  0  0  0  0  0  0  0  0
  -23.4190  -30.4810   21.5910 C   0  0  0  0  0  3  0  0  0  0  0  0
  -24.8790  -28.9240   20.1880 C   0  0  0  0  0  0  0  0  0  0  0  0
  -25.9460  -30.8350   21.3910 C   0  0  0  0  0  2  0  0  0  0  0  0
  -26.0340  -29.4540   20.7730 C   0  0  0  0  0  0  0  0  0  0  0  0
  -27.2380  -28.7130   20.7760 C   0  0  0  0  0  3  0  0  0  0  0  0
  -26.1190  -26.9220   19.5750 C   0  0  0  0  0  3  0  0  0  0  0  0
  -24.9140  -27.6540   19.5880 C   0  0  0  0  0  3  0  0  0  0  0  0
  -23.6320  -29.7810   20.2220 C   0  0  0  0  0  2  0  0  0  0  0  0
  -24.6820  -31.0830   22.1300 N   0  0  0  0  0  0  0  0  0  0  0  0
  -23.5500  -32.1650   23.7730 O   0  0  0  0  0  0  0  0  0  0  0  0
  -22.7650  -29.4690   22.5560 C   0  0  0  0  0  0  0  0  0  0  0  0
  -21.4420  -29.2870   22.4300 N   0  0  0  0  0  0  0  0  0  0  0  0
  -23.4490  -28.8430   23.3720 O   0  0  0  0  0  0  0  0  0  0  0  0
  -20.9480  -29.8430   21.7460 H   0  0  0  0  0  0  0  0  0  0  0  0
  -18.0680  -28.0940   22.9330 C   0  0  0  0  0  0  0  0  0  0  0  0
  -20.6260  -28.3510   23.2040 C   0  0  0  0  0  3  0  0  0  0  0  0
  -20.7260  -26.9180   22.6310 C   0  0  0  0  0  2  0  0  0  0  0  0
  -19.6240  -26.5960   21.6170 C   0  0  0  0  0  2  0  0  0  0  0  0
  -18.2400  -26.7440   22.2560 C   0  0  0  0  0  2  0  0  0  0  0  0
  -19.1880  -28.8560   23.3600 C   0  0  0  0  0  0  0  0  0  0  0  0
  -18.9710  -30.1210   23.9490 C   0  0  0  0  0  3  0  0  0  0  0  0
  -17.6680  -30.6250   24.1160 C   0  0  0  0  0  3  0  0  0  0  0  0
  -16.5620  -29.8640   23.7010 C   0  0  0  0  0  3  0  0  0  0  0  0
  -16.7640  -28.5990   23.1180 C   0  0  0  0  0  3  0  0  0  0  0  0
  -25.9140  -32.5160   23.8510 C   0  0  0  0  0  3  0  0  0  0  0  0
  -25.6060  -33.9130   24.1830 N   0  0  0  0  0  0  0  0  0  0  0  0
  -25.9380  -34.9660   23.4240 C   0  0  0  0  0  0  0  0  0  0  0  0
  -26.6100  -34.8620   22.3950 O   0  0  0  0  0  0  0  0  0  0  0  0
  -25.0100  -34.0700   24.9820 H   0  0  0  0  0  0  0  0  0  0  0  0
  -24.2100  -36.7620   23.0770 C   0  0  0  0  0  1  0  0  0  0  0  0
  -25.4520  -36.3530   23.8850 C   0  0  0  0  0  3  0  0  0  0  0  0
  -27.5890  -37.2350   24.7120 C   0  0  0  0  0  1  0  0  0  0  0  0
  -26.4830  -37.4080   23.7740 N   0  0  0  0  0  0  0  0  0  0  0  0
  -26.0750  -38.3260   23.9310 H   0  0  0  0  0  0  0  0  0  0  0  0
  -26.4410  -31.7410   25.1210 C   0  0  1  0  0  0  0  0  0  0  0  0
  -25.3560  -31.4960   26.1950 C   0  0  0  0  0  1  0  0  0  0  0  0
  -27.0240  -30.3660   24.7200 C   0  0  0  0  0  1  0  0  0  0  0  0
  -27.5990  -32.5350   25.7740 C   0  0  0  0  0  1  0  0  0  0  0  0
  -30.2750  -20.4380   21.0180 C   0  0  0  0  0  2  0  0  0  0  0  0
  -30.9310  -19.1030   21.0450 N   0  0  0  0  0  4  0  0  0  0  0  0
  -31.4850  -19.0750   21.8890 H   0  0  0  0  0  0  0  0  0  0  0  0
  -31.5720  -19.0430   20.2690 H   0  0  0  0  0  0  0  0  0  0  0  0
  -30.0540  -17.8890   21.0350 C   0  0  0  0  0  2  0  0  0  0  0  0
  -30.8200  -16.6750   21.6420 C   0  0  0  0  0  2  0  0  0  0  0  0
  -30.7250  -14.4390   20.5420 C   0  0  0  0  0  0  0  0  0  0  0  0
  -30.3800  -12.3430   19.2890 C   0  0  0  0  0  2  0  0  0  0  0  0
  -29.4450  -12.6030   18.0900 C   0  0  0  0  0  2  0  0  0  0  0  0
  -27.9710  -12.4570   18.5110 C   0  0  0  0  0  2  0  0  0  0  0  0
  -27.6420  -13.2500   19.8040 C   0  0  0  0  0  3  0  0  0  0  0  0
  -28.6890  -12.9790   20.9100 C   0  0  0  0  0  2  0  0  0  0  0  0
  -30.0230  -13.2860   20.3640 N   0  0  0  0  0  0  0  0  0  0  0  0
  -31.7640  -14.6810   19.9240 O   0  0  0  0  0  0  0  0  0  0  0  0
  -30.2240  -15.3420   21.4040 N   0  0  0  0  0  0  0  0  0  0  0  0
  -29.4460  -15.0540   21.9820 H   0  0  0  0  0  0  0  0  0  0  0  0
  -25.2330  -13.8530   20.4800 C   0  0  0  0  0  0  0  0  0  0  0  0
  -24.1650  -13.0750   20.8460 C   0  0  0  0  0  0  0  0  0  0  0  0
  -24.6330  -11.7280   20.8260 C   0  0  0  0  0  0  0  0  0  0  0  0
  -26.2840  -12.9740   20.2670 N   0  0  0  0  0  0  0  0  0  0  0  0
  -25.9240  -11.6920   20.5260 N   0  0  0  0  0  0  0  0  0  0  0  0
  -23.9120  -10.4620   21.0200 C   0  0  0  0  0  0  0  0  0  0  0  0
  -24.3500   -9.4970   21.9530 C   0  0  0  0  0  3  0  0  0  0  0  0
  -23.6300   -8.2970   22.1330 C   0  0  0  0  0  3  0  0  0  0  0  0
  -22.4570   -8.0530   21.3800 C   0  0  0  0  0  0  0  0  0  0  0  0
  -22.0360   -9.0070   20.4370 C   0  0  0  0  0  3  0  0  0  0  0  0
  -22.7580  -10.2000   20.2550 C   0  0  0  0  0  3  0  0  0  0  0  0
  -21.7060   -6.9050   21.4700 O   0  0  0  0  0  0  0  0  0  0  0  0
  -21.6750   -6.1540   22.6170 C   0  0  0  0  0  0  0  0  0  0  0  0
  -21.2650   -6.6980   23.8530 C   0  0  0  0  0  3  0  0  0  0  0  0
  -21.1800   -5.8740   24.9930 C   0  0  0  0  0  3  0  0  0  0  0  0
  -21.4960   -4.5050   24.8980 C   0  0  0  0  0  0  0  0  0  0  0  0
  -21.9010   -3.9600   23.6660 C   0  0  0  0  0  3  0  0  0  0  0  0
  -21.9860   -4.7830   22.5290 C   0  0  0  0  0  0  0  0  0  0  0  0
  -22.3570   -4.2480   21.3400 F   0  0  0  0  0  0  0  0  0  0  0  0
  -21.4070   -3.7110   25.9900 F   0  0  0  0  0  0  0  0  0  0  0  0
  -22.7650  -13.5500   21.1080 C   0  0  0  0  0  0  0  0  0  0  0  0
  -22.0340  -12.8510   21.9710 N   0  0  0  0  0  0  0  0  0  0  0  0
  -22.3250  -14.5710   20.5830 O   0  0  0  0  0  0  0  0  0  0  0  0
  -22.4010  -12.0220   22.4150 H   0  0  0  0  0  0  0  0  0  0  0  0
  -21.0930  -13.1470   22.1880 H   0  0  0  0  0  0  0  0  0  0  0  0
  -25.3920  -15.2210   20.2960 N   0  0  0  0  0  0  0  0  0  0  0  0
  -24.6210  -15.8760   20.3820 H   0  0  0  0  0  0  0  0  0  0  0  0
  -26.2420  -15.6560   19.9600 H   0  0  0  0  0  0  0  0  0  0  0  0
  1  3  1  0
  1  2  1  0
  2  4  1  0
  3  5  1  0
  4  5  1  0
  5 53  1  1
  8  6  1  0
  8 11  1  0
  9  7  1  0
 10  5  1  0
 10  6  1  0
 10  7  1  0
 11 12  1  0
 11  9  1  0
 12 14  1  0
 13 24  2  0
 14 19  1  0
 15 23  1  0
 15 25  1  0
 16 22  1  0
 16 18  1  0
 17 23  1  0
 18 19  2  0
 18 17  1  0
 20 21  1  0
 20 14  2  0
 21 16  2  0
 22 15  1  0
 23 13  1  0
 25 27  2  0
 26 25  1  0
 28 26  1  0
 29 38  2  0
 29 34  1  0
 30 26  1  0
 30 34  1  0
 31 30  1  0
 32 33  1  0
 32 31  1  0
 33 29  1  0
 34 35  2  0
 35 36  1  0
 37 36  2  0
 38 37  1  0
 39 13  1  0
 39 40  1  0
 39 49  1  0
 40 43  1  0
 41 45  1  0
 41 40  1  0
 42 41  2  0
 45 44  1  0
 47 45  1  0
 47 48  1  0
 47 46  1  0
 49 52  1  1
 49 50  1  0
 51 49  1  0
 53 54  1  0
 54 55  1  0
 56 54  1  0
 57 54  1  0
 57 58  1  0
 59 67  1  0
 60 65  1  0
 61 62  1  0
 61 60  1  0
 63 62  1  0
 63 72  1  0
 63 64  1  0
 65 59  1  0
 65 64  1  0
 66 59  2  0
 67 58  1  0
 67 68  1  0
 69 70  2  0
 70 89  1  0
 71 70  1  0
 71 74  1  0
 72 69  1  0
 72 73  1  0
 73 71  2  0
 74 75  1  0
 75 76  2  0
 77 80  1  0
 77 76  1  0
 78 77  2  0
 79 78  1  0
 79 74  2  0
 80 81  1  0
 81 82  1  0
 82 83  2  0
 84 83  1  0
 84 88  1  0
 85 84  2  0
 86 81  2  0
 86 85  1  0
 87 86  1  0
 89 90  1  0
 90 93  1  0
 90 92  1  0
 91 89  2  0
 94 95  1  0
 94 69  1  0
 96 94  1  0
M  ISO  4  11 101  12 101  59 100  67 100
M  END
>  <TORSDO>  (68) 
F 21

>  <SCORE>  (68) 
-13.735

>  <name>  (68) 
68

>  <ligand_id>  (68) 
68

>  <original_smiles>  (68) 
[H]c1c([H])c([H])c2c(c1[H])C([H])([H])C([H])([H])C([H])([H])C2([H])N([H])C(=O)C1([H])N(C(=O)C([H])(N([H])C(=O)C([H])(N([H])C([H])([H])[H])C([H])([H])[H])C(C([H])([H])[H])(C([H])([H])[H])C([H])([H])[H])C([H])([H])c2c([H])c(OC3([H])C([H])([H])C([H])([H])C([H])(C4(C([H])([H])[N+]([H])([H])C([H])([H])C([H])([H])N([H])C(=O)N5C([H])([H])C([H])([H])C([H])([H])C([H])(n6nc(-c7c([H])c([H])c(Oc8c([H])c([H])c(F)c([H])c8F)c([H])c7[H])c(C(=O)N([H])[H])c6N([H])[H])C5([H])[H])C([H])([H])C([H])([H])C([H])([H])C4([H])[H])C([H])([H])C3([H])[H])c([H])c([H])c2C1([H])[H]

>  <smiles>  (68) 
[H]c1c([H])c([H])c2c(c1[H])C([H])([H])C([H])([H])C([H])([H])C2([H])N([H])C(=O)C1([H])N(C(=O)C([H])(N([H])C(=O)C([H])(N([H])C([H])([H])[H])C([H])([H])[H])C(C([H])([H])[H])(C([H])([H])[H])C([H])([H])[H])C([H])([H])c2c([H])c(OC3([H])C([H])([H])C([H])([H])C([H])(C4(C([H])([H])[N+]([H])([H])C([H])([H])C([H])([H])N([H])C(=O)N5C([H])([H])C([H])([H])C([H])([H])C([H])(n6nc(-c7c([H])c([H])c(Oc8c([H])c([H])c(F)c([H])c8F)c([H])c7[H])c(C(=O)N([H])[H])c6N([H])[H])C5([H])[H])C([H])([H])C([H])([H])C([H])([H])C4([H])[H])C([H])([H])C3([H])[H])c([H])c([H])c2C1([H])[H]

$$$$
69:0:0
     RDKit          3D

 93101  0  0  1  0  0  0  0  0999 V2000
  -28.9630  -24.2730   19.0580 C   0  0  0  0  0  3  0  0  0  0  0  0
  -28.2990  -24.8720   21.0780 C   0  0  0  0  0  3  0  0  0  0  0  0
  -28.5730  -25.4320   19.8570 C   0  0  0  0  0  0  0  0  0  0  0  0
  -28.8710  -23.0650   19.7670 C   0  0  0  0  0  0  0  0  0  0  0  0
  -28.4390  -23.4740   21.0340 N   0  0  0  0  0  0  0  0  0  0  0  0
  -26.9780  -23.0530   23.0060 C   0  0  0  0  0  1  0  0  0  0  0  0
  -29.4540  -22.4580   23.0310 C   0  0  0  0  0  1  0  0  0  0  0  0
  -28.1880  -22.5950   22.1760 C   0  0  0  0  0  3  0  0  0  0  0  0
  -28.5540  -26.8250   19.5240 O   0  0  0  0  0  0  0  0  0  0  0  0
  -24.7240  -31.8220   23.1990 C   0  0  0  0  0  0  0  0  0  0  0  0
  -27.4100  -27.6390   19.6610 C   0  0  0  0  0  0  0  0  0  0  0  0
  -23.5300  -30.5450   21.4560 C   0  0  0  0  0  3  0  0  0  0  0  0
  -24.9970  -29.1830   19.8570 C   0  0  0  0  0  0  0  0  0  0  0  0
  -26.0530  -30.9620   21.2510 C   0  0  0  0  0  2  0  0  0  0  0  0
  -26.1650  -29.6480   20.4770 C   0  0  0  0  0  0  0  0  0  0  0  0
  -27.3740  -28.8870   20.3710 C   0  0  0  0  0  3  0  0  0  0  0  0
  -26.2180  -27.2350   19.0260 C   0  0  0  0  0  3  0  0  0  0  0  0
  -25.0270  -27.9850   19.1230 C   0  0  0  0  0  3  0  0  0  0  0  0
  -23.7360  -30.0120   20.0130 C   0  0  0  0  0  2  0  0  0  0  0  0
  -24.7890  -31.1240   22.0270 N   0  0  0  0  0  0  0  0  0  0  0  0
  -23.6450  -32.0060   23.7810 O   0  0  0  0  0  0  0  0  0  0  0  0
  -22.9250  -29.4180   22.3290 C   0  0  0  0  0  0  0  0  0  0  0  0
  -21.6070  -29.1850   22.1900 N   0  0  0  0  0  0  0  0  0  0  0  0
  -23.6400  -28.7610   23.0900 O   0  0  0  0  0  0  0  0  0  0  0  0
  -21.0860  -29.7710   21.5540 H   0  0  0  0  0  0  0  0  0  0  0  0
  -18.3050  -27.7630   22.5850 C   0  0  0  0  0  0  0  0  0  0  0  0
  -20.8450  -28.1420   22.8810 C   0  0  0  0  0  3  0  0  0  0  0  0
  -21.0250  -26.7710   22.1900 C   0  0  0  0  0  2  0  0  0  0  0  0
  -19.9400  -26.4720   21.1500 C   0  0  0  0  0  2  0  0  0  0  0  0
  -18.5550  -26.4850   21.8000 C   0  0  0  0  0  2  0  0  0  0  0  0
  -19.3790  -28.5480   23.0800 C   0  0  0  0  0  0  0  0  0  0  0  0
  -19.0910  -29.7440   23.7730 C   0  0  0  0  0  3  0  0  0  0  0  0
  -17.7590  -30.1550   23.9780 C   0  0  0  0  0  3  0  0  0  0  0  0
  -16.7000  -29.3660   23.4980 C   0  0  0  0  0  3  0  0  0  0  0  0
  -16.9730  -28.1720   22.8080 C   0  0  0  0  0  3  0  0  0  0  0  0
  -25.9980  -32.4390   23.8530 C   0  0  0  0  0  3  0  0  0  0  0  0
  -25.6600  -33.8010   24.2870 N   0  0  0  0  0  0  0  0  0  0  0  0
  -25.9380  -34.9130   23.5950 C   0  0  0  0  0  0  0  0  0  0  0  0
  -26.5760  -34.9010   22.5380 O   0  0  0  0  0  0  0  0  0  0  0  0
  -25.0870  -33.8820   25.1150 H   0  0  0  0  0  0  0  0  0  0  0  0
  -24.1440  -36.6690   23.4320 C   0  0  0  0  0  1  0  0  0  0  0  0
  -25.4290  -36.2520   24.1640 C   0  0  0  0  0  3  0  0  0  0  0  0
  -27.5630  -37.1560   24.9740 C   0  0  0  0  0  1  0  0  0  0  0  0
  -26.4230  -37.3440   24.0820 N   0  0  0  0  0  0  0  0  0  0  0  0
  -25.9940  -38.2400   24.3000 H   0  0  0  0  0  0  0  0  0  0  0  0
  -26.5460  -31.5910   25.0660 C   0  0  1  0  0  0  0  0  0  0  0  0
  -25.4720  -31.2570   26.1270 C   0  0  0  0  0  1  0  0  0  0  0  0
  -27.1520  -30.2560   24.5730 C   0  0  0  0  0  1  0  0  0  0  0  0
  -27.6870  -32.3610   25.7710 C   0  0  0  0  0  1  0  0  0  0  0  0
  -28.9810  -21.5330   19.3290 C   0  0  0  0  0  2  0  0  0  0  0  0
  -29.8510  -20.4720   20.0280 N   0  0  0  0  0  4  0  0  0  0  0  0
  -30.7990  -20.6300   19.7290 H   0  0  0  0  0  0  0  0  0  0  0  0
  -29.8250  -20.6490   21.0170 H   0  0  0  0  0  0  0  0  0  0  0  0
  -29.5180  -18.9740   19.8200 C   0  0  0  0  0  3  0  0  0  0  0  0
  -30.5470  -17.8270   20.3540 C   0  0  0  0  0  3  0  0  0  0  0  0
  -30.9620  -15.2090   20.1440 C   0  0  0  0  0  0  0  0  0  0  0  0
  -30.7830  -12.8970   19.2050 C   0  0  0  0  0  2  0  0  0  0  0  0
  -29.8420  -12.9230   17.9790 C   0  0  0  0  0  2  0  0  0  0  0  0
  -28.3720  -12.7630   18.4130 C   0  0  0  0  0  2  0  0  0  0  0  0
  -27.9950  -13.6870   19.6020 C   0  0  0  0  0  3  0  0  0  0  0  0
  -29.0530  -13.6370   20.7240 C   0  0  0  0  0  2  0  0  0  0  0  0
  -30.3450  -13.9790   20.1140 N   0  0  0  0  0  0  0  0  0  0  0  0
  -32.1550  -15.3080   19.8460 O   0  0  0  0  0  0  0  0  0  0  0  0
  -30.1710  -16.3370   20.3040 N   0  0  0  0  0  0  0  0  0  0  0  0
  -29.1960  -16.1350   20.4710 H   0  0  0  0  0  0  0  0  0  0  0  0
  -25.6310  -14.3070   20.3850 C   0  0  0  0  0  0  0  0  0  0  0  0
  -24.5520  -13.5460   20.7410 C   0  0  0  0  0  0  0  0  0  0  0  0
  -24.9810  -12.1870   20.6550 C   0  0  0  0  0  0  0  0  0  0  0  0
  -26.6500  -13.4130   20.1010 N   0  0  0  0  0  0  0  0  0  0  0  0
  -26.2670  -12.1310   20.3290 N   0  0  0  0  0  0  0  0  0  0  0  0
  -24.2280  -10.9350   20.8040 C   0  0  0  0  0  0  0  0  0  0  0  0
  -24.6290   -9.9370   21.7190 C   0  0  0  0  0  3  0  0  0  0  0  0
  -23.8760   -8.7510   21.8600 C   0  0  0  0  0  3  0  0  0  0  0  0
  -22.7060   -8.5580   21.0890 C   0  0  0  0  0  0  0  0  0  0  0  0
  -22.3240   -9.5450   20.1640 C   0  0  0  0  0  3  0  0  0  0  0  0
  -23.0770  -10.7210   20.0190 C   0  0  0  0  0  3  0  0  0  0  0  0
  -21.9260   -7.4270   21.1430 O   0  0  0  0  0  0  0  0  0  0  0  0
  -21.8180   -6.6810   22.2880 C   0  0  0  0  0  0  0  0  0  0  0  0
  -21.3250   -7.2290   23.4940 C   0  0  0  0  0  3  0  0  0  0  0  0
  -21.1650   -6.4070   24.6270 C   0  0  0  0  0  3  0  0  0  0  0  0
  -21.4880   -5.0390   24.5560 C   0  0  0  0  0  0  0  0  0  0  0  0
  -21.9740   -4.4910   23.3560 C   0  0  0  0  0  3  0  0  0  0  0  0
  -22.1350   -5.3090   22.2240 C   0  0  0  0  0  0  0  0  0  0  0  0
  -22.5830   -4.7710   21.0630 F   0  0  0  0  0  0  0  0  0  0  0  0
  -21.3270   -4.2450   25.6420 F   0  0  0  0  0  0  0  0  0  0  0  0
  -23.1680  -14.0460   21.0430 C   0  0  0  0  0  0  0  0  0  0  0  0
  -22.4350  -13.3430   21.8980 N   0  0  0  0  0  0  0  0  0  0  0  0
  -22.7490  -15.0970   20.5580 O   0  0  0  0  0  0  0  0  0  0  0  0
  -22.7870  -12.4920   22.3110 H   0  0  0  0  0  0  0  0  0  0  0  0
  -21.5070  -13.6600   22.1410 H   0  0  0  0  0  0  0  0  0  0  0  0
  -25.8250  -15.6800   20.2550 N   0  0  0  0  0  0  0  0  0  0  0  0
  -25.0610  -16.3360   20.3860 H   0  0  0  0  0  0  0  0  0  0  0  0
  -26.6560  -16.1130   19.8780 H   0  0  0  0  0  0  0  0  0  0  0  0
  1  4  2  0
  1  3  1  0
  3  2  2  0
  4  5  1  0
  5  2  1  0
  5  8  1  0
  8  6  1  0
  8  7  1  0
  9 11  1  0
  9  3  1  0
 10 21  2  0
 11 16  1  0
 12 20  1  0
 12 22  1  0
 13 19  1  0
 13 15  1  0
 14 20  1  0
 15 14  1  0
 16 15  2  0
 17 18  1  0
 17 11  2  0
 18 13  2  0
 19 12  1  0
 20 10  1  0
 22 24  2  0
 23 22  1  0
 25 23  1  0
 26 35  2  0
 26 31  1  0
 27 23  1  0
 27 31  1  0
 28 27  1  0
 29 30  1  0
 29 28  1  0
 30 26  1  0
 31 32  2  0
 32 33  1  0
 34 33  2  0
 35 34  1  0
 36 10  1  0
 36 37  1  0
 36 46  1  0
 37 40  1  0
 38 42  1  0
 38 37  1  0
 39 38  2  0
 42 41  1  0
 44 42  1  0
 44 45  1  0
 44 43  1  0
 46 49  1  1
 46 47  1  0
 48 46  1  0
 50  4  1  0
 50 51  1  0
 51 53  1  0
 52 51  1  0
 54 51  1  0
 54 55  2  0
 56 64  1  0
 57 62  1  0
 58 59  1  0
 58 57  1  0
 60 59  1  0
 60 69  1  0
 60 61  1  0
 62 56  1  0
 62 61  1  0
 63 56  2  0
 64 55  1  0
 64 65  1  0
 66 67  2  0
 67 86  1  0
 68 67  1  0
 68 71  1  0
 69 70  1  0
 69 66  1  0
 70 68  2  0
 71 72  1  0
 72 73  2  0
 74 77  1  0
 74 73  1  0
 75 74  2  0
 76 75  1  0
 76 71  2  0
 77 78  1  0
 78 79  1  0
 79 80  2  0
 81 80  1  0
 81 85  1  0
 82 81  2  0
 83 78  2  0
 83 82  1  0
 84 83  1  0
 86 87  1  0
 87 90  1  0
 87 89  1  0
 88 86  2  0
 91 66  1  0
 91 92  1  0
 93 91  1  0
M  ISO  4   3 101   9 101  56 100  64 100
M  END
>  <TORSDO>  (69) 
F 21

>  <SCORE>  (69) 
-10.259

>  <name>  (69) 
69

>  <ligand_id>  (69) 
69

>  <original_smiles>  (69) 
[H]c1c([H])c([H])c2c(c1[H])C([H])([H])C([H])([H])C([H])([H])C2([H])N([H])C(=O)C1([H])N(C(=O)C([H])(N([H])C(=O)C([H])(N([H])C([H])([H])[H])C([H])([H])[H])C(C([H])([H])[H])(C([H])([H])[H])C([H])([H])[H])C([H])([H])c2c([H])c(Oc3c([H])c(C([H])([H])[N+]([H])([H])C([H])([H])C([H])([H])N([H])C(=O)N4C([H])([H])C([H])([H])C([H])([H])C([H])(n5nc(-c6c([H])c([H])c(Oc7c([H])c([H])c(F)c([H])c7F)c([H])c6[H])c(C(=O)N([H])[H])c5N([H])[H])C4([H])[H])n(C([H])(C([H])([H])[H])C([H])([H])[H])c3[H])c([H])c([H])c2C1([H])[H]

>  <smiles>  (69) 
[H]c1c([H])c([H])c2c(c1[H])C([H])([H])C([H])([H])C([H])([H])C2([H])N([H])C(=O)C1([H])N(C(=O)C([H])(N([H])C(=O)C([H])(N([H])C([H])([H])[H])C([H])([H])[H])C(C([H])([H])[H])(C([H])([H])[H])C([H])([H])[H])C([H])([H])c2c([H])c(Oc3c([H])c(C([H])([H])[N+]([H])([H])C([H])([H])C([H])([H])N([H])C(=O)N4C([H])([H])C([H])([H])C([H])([H])C([H])(n5nc(-c6c([H])c([H])c(Oc7c([H])c([H])c(F)c([H])c7F)c([H])c6[H])c(C(=O)N([H])[H])c5N([H])[H])C4([H])[H])n(C([H])(C([H])([H])[H])C([H])([H])[H])c3[H])c([H])c([H])c2C1([H])[H]

$$$$
70:0:0
     RDKit          3D

 93101  0  0  1  0  0  0  0  0999 V2000
  -28.7720  -21.8300   20.8830 C   0  0  0  0  0  3  0  0  0  0  0  0
  -31.2940  -21.0750   20.1320 C   0  0  0  0  0  3  0  0  0  0  0  0
  -29.0040  -20.4690   20.6120 C   0  0  0  0  0  0  0  0  0  0  0  0
  -30.3070  -20.0590   20.2410 C   0  0  0  0  0  0  0  0  0  0  0  0
  -29.8190  -22.7530   20.7480 C   0  0  0  0  0  0  0  0  0  0  0  0
  -27.8590  -19.4760   20.7290 C   0  0  0  0  0  1  0  0  0  0  0  0
  -31.0640  -22.3870   20.3750 N   0  0  0  0  0  0  0  0  0  0  0  0
  -30.5670  -18.6930   20.0010 N   0  0  0  0  0  0  0  0  0  0  0  0
  -29.8360  -18.0300   20.2360 H   0  0  0  0  0  0  0  0  0  0  0  0
  -31.9360  -18.1870   20.0550 C   0  0  0  0  0  2  0  0  0  0  0  0
  -32.0910  -17.0680   21.1050 C   0  0  0  0  0  2  0  0  0  0  0  0
  -31.8330  -14.8620   19.9660 C   0  0  0  0  0  0  0  0  0  0  0  0
  -31.4460  -12.5980   19.0530 C   0  0  0  0  0  2  0  0  0  0  0  0
  -30.4900  -12.6350   17.8460 C   0  0  0  0  0  2  0  0  0  0  0  0
  -29.0230  -12.5700   18.3120 C   0  0  0  0  0  2  0  0  0  0  0  0
  -28.7110  -13.5930   19.4360 C   0  0  0  0  0  3  0  0  0  0  0  0
  -29.7720  -13.5210   20.5560 C   0  0  0  0  0  2  0  0  0  0  0  0
  -31.1010  -13.7160   19.9450 N   0  0  0  0  0  0  0  0  0  0  0  0
  -32.8760  -15.0070   19.3220 O   0  0  0  0  0  0  0  0  0  0  0  0
  -31.3700  -15.8390   20.7590 N   0  0  0  0  0  0  0  0  0  0  0  0
  -30.5010  -15.6640   21.2410 H   0  0  0  0  0  0  0  0  0  0  0  0
  -26.3940  -14.3600   20.2570 C   0  0  0  0  0  0  0  0  0  0  0  0
  -25.2840  -13.6590   20.6480 C   0  0  0  0  0  0  0  0  0  0  0  0
  -25.6370  -12.2780   20.5600 C   0  0  0  0  0  0  0  0  0  0  0  0
  -27.3590  -13.4090   19.9600 N   0  0  0  0  0  0  0  0  0  0  0  0
  -26.9080  -12.1490   20.1970 N   0  0  0  0  0  0  0  0  0  0  0  0
  -24.8240  -11.0690   20.7430 C   0  0  0  0  0  0  0  0  0  0  0  0
  -25.1320  -10.1150   21.7390 C   0  0  0  0  0  3  0  0  0  0  0  0
  -24.3240   -8.9710   21.9080 C   0  0  0  0  0  3  0  0  0  0  0  0
  -23.1930   -8.7720   21.0810 C   0  0  0  0  0  0  0  0  0  0  0  0
  -22.9030   -9.7130   20.0780 C   0  0  0  0  0  3  0  0  0  0  0  0
  -23.7110  -10.8490   19.9070 C   0  0  0  0  0  3  0  0  0  0  0  0
  -22.3650   -7.6780   21.1570 O   0  0  0  0  0  0  0  0  0  0  0  0
  -22.0870   -7.0670   22.3530 C   0  0  0  0  0  0  0  0  0  0  0  0
  -21.4750   -7.7610   23.4200 C   0  0  0  0  0  3  0  0  0  0  0  0
  -21.1440   -7.0760   24.6060 C   0  0  0  0  0  3  0  0  0  0  0  0
  -21.4150   -5.7000   24.7250 C   0  0  0  0  0  0  0  0  0  0  0  0
  -22.0180   -5.0060   23.6630 C   0  0  0  0  0  3  0  0  0  0  0  0
  -22.3510   -5.6880   22.4780 C   0  0  0  0  0  0  0  0  0  0  0  0
  -22.9140   -5.0090   21.4490 F   0  0  0  0  0  0  0  0  0  0  0  0
  -21.0890   -5.0410   25.8620 F   0  0  0  0  0  0  0  0  0  0  0  0
  -23.9390  -14.2330   20.9920 C   0  0  0  0  0  0  0  0  0  0  0  0
  -23.1980  -13.5710   21.8750 N   0  0  0  0  0  0  0  0  0  0  0  0
  -23.5590  -15.3000   20.5150 O   0  0  0  0  0  0  0  0  0  0  0  0
  -23.5190  -12.7040   22.2810 H   0  0  0  0  0  0  0  0  0  0  0  0
  -22.2960  -13.9350   22.1460 H   0  0  0  0  0  0  0  0  0  0  0  0
  -26.6570  -15.7180   20.1090 N   0  0  0  0  0  0  0  0  0  0  0  0
  -25.9500  -16.4290   20.2590 H   0  0  0  0  0  0  0  0  0  0  0  0
  -27.5310  -16.0940   19.7620 H   0  0  0  0  0  0  0  0  0  0  0  0
  -29.5650  -24.0760   21.0440 O   0  0  0  0  0  0  0  0  0  0  0  0
  -30.3310  -25.1130   20.4220 C   0  0  0  0  0  2  0  0  0  0  0  0
  -29.3340  -26.0990   19.7870 C   0  0  0  0  0  2  0  0  0  0  0  0
  -29.0550  -27.2190   20.6430 O   0  0  0  0  0  0  0  0  0  0  0  0
  -24.7270  -32.0240   23.6250 C   0  0  0  0  0  0  0  0  0  0  0  0
  -27.8260  -27.8510   20.5630 C   0  0  0  0  0  0  0  0  0  0  0  0
  -23.7110  -30.6080   21.8730 C   0  0  0  0  0  3  0  0  0  0  0  0
  -25.3380  -29.2140   20.4920 C   0  0  0  0  0  0  0  0  0  0  0  0
  -26.2180  -31.1210   21.8430 C   0  0  0  0  0  2  0  0  0  0  0  0
  -26.4250  -29.7800   21.1690 C   0  0  0  0  0  0  0  0  0  0  0  0
  -27.6650  -29.1010   21.2100 C   0  0  0  0  0  3  0  0  0  0  0  0
  -26.7120  -27.3070   19.8760 C   0  0  0  0  0  3  0  0  0  0  0  0
  -25.4760  -27.9750   19.8500 C   0  0  0  0  0  3  0  0  0  0  0  0
  -24.0430  -29.9920   20.4890 C   0  0  0  0  0  2  0  0  0  0  0  0
  -24.9000  -31.2650   22.5070 N   0  0  0  0  0  0  0  0  0  0  0  0
  -23.6000  -32.2110   24.1050 O   0  0  0  0  0  0  0  0  0  0  0  0
  -23.0710  -29.5150   22.7590 C   0  0  0  0  0  0  0  0  0  0  0  0
  -21.7840  -29.2180   22.5090 N   0  0  0  0  0  0  0  0  0  0  0  0
  -23.7310  -28.9370   23.6270 O   0  0  0  0  0  0  0  0  0  0  0  0
  -21.3110  -29.7410   21.7850 H   0  0  0  0  0  0  0  0  0  0  0  0
  -18.4980  -27.7260   22.6840 C   0  0  0  0  0  0  0  0  0  0  0  0
  -20.9890  -28.2000   23.1920 C   0  0  0  0  0  3  0  0  0  0  0  0
  -21.2680  -26.7940   22.6140 C   0  0  0  0  0  2  0  0  0  0  0  0
  -20.2940  -26.3940   21.5010 C   0  0  0  0  0  2  0  0  0  0  0  0
  -18.8530  -26.4080   22.0160 C   0  0  0  0  0  2  0  0  0  0  0  0
  -19.5020  -28.5740   23.2220 C   0  0  0  0  0  0  0  0  0  0  0  0
  -19.1210  -29.8050   23.7990 C   0  0  0  0  0  3  0  0  0  0  0  0
  -17.7680  -30.1890   23.8490 C   0  0  0  0  0  3  0  0  0  0  0  0
  -16.7780  -29.3380   23.3270 C   0  0  0  0  0  3  0  0  0  0  0  0
  -17.1420  -28.1090   22.7510 C   0  0  0  0  0  3  0  0  0  0  0  0
  -25.9320  -32.7110   24.3410 C   0  0  0  0  0  3  0  0  0  0  0  0
  -25.5860  -34.1260   24.5280 N   0  0  0  0  0  0  0  0  0  0  0  0
  -26.0080  -35.1220   23.7380 C   0  0  0  0  0  0  0  0  0  0  0  0
  -26.7960  -34.9500   22.8060 O   0  0  0  0  0  0  0  0  0  0  0  0
  -24.8970  -34.3340   25.2370 H   0  0  0  0  0  0  0  0  0  0  0  0
  -24.3370  -36.8670   23.0410 C   0  0  0  0  0  1  0  0  0  0  0  0
  -25.4660  -36.5360   24.0280 C   0  0  0  0  0  3  0  0  0  0  0  0
  -27.4760  -37.5010   25.0580 C   0  0  0  0  0  1  0  0  0  0  0  0
  -26.5060  -37.5880   23.9680 N   0  0  0  0  0  0  0  0  0  0  0  0
  -26.0850  -38.5120   23.9930 H   0  0  0  0  0  0  0  0  0  0  0  0
  -26.3030  -32.0380   25.7190 C   0  0  1  0  0  0  0  0  0  0  0  0
  -25.0890  -31.8130   26.6500 C   0  0  0  0  0  1  0  0  0  0  0  0
  -26.9840  -30.6680   25.4920 C   0  0  0  0  0  1  0  0  0  0  0  0
  -27.3290  -32.9170   26.4730 C   0  0  0  0  0  1  0  0  0  0  0  0
  2  4  2  0
  2  7  1  0
  3  6  1  0
  3  1  2  0
  4  3  1  0
  5  1  1  0
  5 50  1  0
  7  5  2  0
  8 10  1  0
  8  9  1  0
  8  4  1  0
 10 11  1  0
 12 20  1  0
 13 18  1  0
 14 15  1  0
 14 13  1  0
 16 15  1  0
 16 25  1  0
 16 17  1  0
 18 12  1  0
 18 17  1  0
 19 12  2  0
 20 11  1  0
 20 21  1  0
 22 23  2  0
 23 42  1  0
 24 23  1  0
 24 27  1  0
 25 26  1  0
 25 22  1  0
 26 24  2  0
 27 28  1  0
 28 29  2  0
 30 33  1  0
 30 29  1  0
 31 30  2  0
 32 31  1  0
 32 27  2  0
 33 34  1  0
 34 39  2  0
 34 35  1  0
 35 36  2  0
 36 37  1  0
 37 41  1  0
 38 37  2  0
 39 38  1  0
 40 39  1  0
 42 43  1  0
 43 46  1  0
 43 45  1  0
 44 42  2  0
 47 22  1  0
 47 48  1  0
 49 47  1  0
 51 50  1  0
 52 51  1  0
 52 53  1  0
 54 65  2  0
 55 53  1  0
 55 60  1  0
 56 64  1  0
 56 66  1  0
 57 59  1  0
 58 64  1  0
 59 60  2  0
 59 58  1  0
 61 55  2  0
 62 61  1  0
 62 57  2  0
 63 57  1  0
 63 56  1  0
 64 54  1  0
 66 68  2  0
 67 66  1  0
 69 67  1  0
 70 79  2  0
 70 75  1  0
 71 67  1  0
 71 75  1  0
 72 71  1  0
 73 74  1  0
 73 72  1  0
 74 70  1  0
 75 76  2  0
 76 77  1  0
 78 77  2  0
 79 78  1  0
 80 54  1  0
 80 81  1  0
 80 90  1  0
 81 84  1  0
 82 86  1  0
 82 81  1  0
 83 82  2  0
 86 85  1  0
 88 89  1  0
 88 86  1  0
 88 87  1  0
 90 93  1  1
 90 91  1  0
 92 90  1  0
M  ISO  4  12 100  20 100  52 101  53 101
M  END
>  <TORSDO>  (70) 
F 22

>  <SCORE>  (70) 
-10.683

>  <name>  (70) 
70

>  <ligand_id>  (70) 
70

>  <original_smiles>  (70) 
[H]c1nc(OC([H])([H])C([H])([H])Oc2c([H])c([H])c3c(c2[H])C([H])([H])N(C(=O)C([H])(N([H])C(=O)C([H])(N([H])C([H])([H])[H])C([H])([H])[H])C(C([H])([H])[H])(C([H])([H])[H])C([H])([H])[H])C([H])(C(=O)N([H])C2([H])c4c([H])c([H])c([H])c([H])c4C([H])([H])C([H])([H])C2([H])[H])C3([H])[H])c([H])c(C([H])([H])[H])c1N([H])C([H])([H])C([H])([H])N([H])C(=O)N1C([H])([H])C([H])([H])C([H])([H])C([H])(n2nc(-c3c([H])c([H])c(Oc4c([H])c([H])c(F)c([H])c4F)c([H])c3[H])c(C(=O)N([H])[H])c2N([H])[H])C1([H])[H]

>  <smiles>  (70) 
[H]c1nc(OC([H])([H])C([H])([H])Oc2c([H])c([H])c3c(c2[H])C([H])([H])N(C(=O)C([H])(N([H])C(=O)C([H])(N([H])C([H])([H])[H])C([H])([H])[H])C(C([H])([H])[H])(C([H])([H])[H])C([H])([H])[H])C([H])(C(=O)N([H])C2([H])c4c([H])c([H])c([H])c([H])c4C([H])([H])C([H])([H])C2([H])[H])C3([H])[H])c([H])c(C([H])([H])[H])c1N([H])C([H])([H])C([H])([H])N([H])C(=O)N1C([H])([H])C([H])([H])C([H])([H])C([H])(n2nc(-c3c([H])c([H])c(Oc4c([H])c([H])c(F)c([H])c4F)c([H])c3[H])c(C(=O)N([H])[H])c2N([H])[H])C1([H])[H]

$$$$
71:0:0
     RDKit          3D

 88 97  0  0  1  0  0  0  0  0999 V2000
  -30.0460  -20.8270   20.9480 C   0  0  0  0  0  3  0  0  0  0  0  0
  -28.2190  -20.2140   19.6870 C   0  0  0  0  0  3  0  0  0  0  0  0
  -29.6210  -22.2560   20.9210 C   0  0  0  0  0  3  0  0  0  0  0  0
  -27.8040  -21.6340   19.6510 C   0  0  0  0  0  3  0  0  0  0  0  0
  -29.3950  -19.6670   20.3340 C   0  0  0  0  0  0  0  0  0  0  0  0
  -28.4600  -22.7980   20.2370 C   0  0  0  0  0  0  0  0  0  0  0  0
  -30.4520  -15.2230   20.3390 C   0  0  0  0  0  0  0  0  0  0  0  0
  -30.4070  -12.7990   19.4680 C   0  0  0  0  0  2  0  0  0  0  0  0
  -29.4990  -12.6150   18.2280 C   0  0  0  0  0  2  0  0  0  0  0  0
  -28.0450  -12.3540   18.6570 C   0  0  0  0  0  2  0  0  0  0  0  0
  -27.5830  -13.3200   19.7750 C   0  0  0  0  0  3  0  0  0  0  0  0
  -28.6190  -13.4660   20.9090 C   0  0  0  0  0  2  0  0  0  0  0  0
  -29.8630  -13.9370   20.2860 N   0  0  0  0  0  0  0  0  0  0  0  0
  -31.6840  -15.2100   20.2060 O   0  0  0  0  0  0  0  0  0  0  0  0
  -30.0640  -17.7450   18.6620 C   0  0  0  0  0  2  0  0  0  0  0  0
  -28.9780  -16.7250   19.0270 C   0  0  0  0  0  2  0  0  0  0  0  0
  -30.1080  -18.0960   20.1430 C   0  0  0  0  0  3  0  0  0  0  0  0
  -29.7030  -16.4980   20.2830 N   0  0  0  0  0  0  0  0  0  0  0  0
  -25.1950  -13.8690   20.4850 C   0  0  0  0  0  0  0  0  0  0  0  0
  -24.1350  -13.0860   20.8440 C   0  0  0  0  0  0  0  0  0  0  0  0
  -24.6180  -11.7410   20.8410 C   0  0  0  0  0  0  0  0  0  0  0  0
  -26.2510  -13.0010   20.2710 N   0  0  0  0  0  0  0  0  0  0  0  0
  -25.9150  -11.7170   20.5570 N   0  0  0  0  0  0  0  0  0  0  0  0
  -23.9030  -10.4720   21.0360 C   0  0  0  0  0  0  0  0  0  0  0  0
  -24.3350   -9.5170   21.9820 C   0  0  0  0  0  3  0  0  0  0  0  0
  -23.6160   -8.3150   22.1650 C   0  0  0  0  0  3  0  0  0  0  0  0
  -22.4530   -8.0590   21.4010 C   0  0  0  0  0  0  0  0  0  0  0  0
  -22.0410   -9.0030   20.4440 C   0  0  0  0  0  3  0  0  0  0  0  0
  -22.7600  -10.1960   20.2590 C   0  0  0  0  0  3  0  0  0  0  0  0
  -21.7080   -6.9100   21.4930 O   0  0  0  0  0  0  0  0  0  0  0  0
  -21.6600   -6.1730   22.6480 C   0  0  0  0  0  0  0  0  0  0  0  0
  -21.2290   -6.7310   23.8720 C   0  0  0  0  0  3  0  0  0  0  0  0
  -21.1300   -5.9220   25.0200 C   0  0  0  0  0  3  0  0  0  0  0  0
  -21.4510   -4.5530   24.9470 C   0  0  0  0  0  0  0  0  0  0  0  0
  -21.8750   -3.9930   23.7280 C   0  0  0  0  0  3  0  0  0  0  0  0
  -21.9760   -4.8010   22.5830 C   0  0  0  0  0  0  0  0  0  0  0  0
  -22.3650   -4.2520   21.4060 F   0  0  0  0  0  0  0  0  0  0  0  0
  -21.3470   -3.7710   26.0470 F   0  0  0  0  0  0  0  0  0  0  0  0
  -22.7270  -13.5500   21.0780 C   0  0  0  0  0  0  0  0  0  0  0  0
  -21.9920  -12.8620   21.9440 N   0  0  0  0  0  0  0  0  0  0  0  0
  -22.2880  -14.5590   20.5280 O   0  0  0  0  0  0  0  0  0  0  0  0
  -22.3590  -12.0460   22.4100 H   0  0  0  0  0  0  0  0  0  0  0  0
  -21.0470  -13.1580   22.1460 H   0  0  0  0  0  0  0  0  0  0  0  0
  -25.3480  -15.2400   20.2940 N   0  0  0  0  0  0  0  0  0  0  0  0
  -24.5800  -15.8940   20.4050 H   0  0  0  0  0  0  0  0  0  0  0  0
  -26.2160  -15.6880   20.0310 H   0  0  0  0  0  0  0  0  0  0  0  0
  -27.7390  -24.3710   20.1360 C   0  0  0  0  0  2  0  0  0  0  0  0
  -28.1680  -25.9240   20.3070 O   0  0  0  0  0  0  0  0  0  0  0  0
  -24.6580  -31.8950   23.2350 C   0  0  0  0  0  0  0  0  0  0  0  0
  -27.1790  -27.0270   20.2320 C   0  0  0  0  0  0  0  0  0  0  0  0
  -23.4520  -30.5010   21.6040 C   0  0  0  0  0  3  0  0  0  0  0  0
  -24.8880  -28.8950   20.1850 C   0  0  0  0  0  0  0  0  0  0  0  0
  -26.0180  -30.7060   21.4530 C   0  0  0  0  0  2  0  0  0  0  0  0
  -26.0790  -29.2990   20.8020 C   0  0  0  0  0  0  0  0  0  0  0  0
  -27.2220  -28.3860   20.8050 C   0  0  0  0  0  3  0  0  0  0  0  0
  -25.9600  -26.7710   19.5630 C   0  0  0  0  0  3  0  0  0  0  0  0
  -24.8500  -27.6480   19.5460 C   0  0  0  0  0  3  0  0  0  0  0  0
  -23.6740  -29.8170   20.2300 C   0  0  0  0  0  2  0  0  0  0  0  0
  -24.7300  -31.0600   22.1500 N   0  0  0  0  0  0  0  0  0  0  0  0
  -23.5720  -32.1920   23.7590 O   0  0  0  0  0  0  0  0  0  0  0  0
  -22.7570  -29.5080   22.5730 C   0  0  0  0  0  0  0  0  0  0  0  0
  -21.4260  -29.3500   22.4520 N   0  0  0  0  0  0  0  0  0  0  0  0
  -23.4210  -28.8820   23.4020 O   0  0  0  0  0  0  0  0  0  0  0  0
  -20.9430  -29.9070   21.7610 H   0  0  0  0  0  0  0  0  0  0  0  0
  -18.0380  -28.1570   22.9640 C   0  0  0  0  0  0  0  0  0  0  0  0
  -20.5990  -28.4220   23.2290 C   0  0  0  0  0  3  0  0  0  0  0  0
  -20.6980  -26.9830   22.6680 C   0  0  0  0  0  2  0  0  0  0  0  0
  -19.5960  -26.6530   21.6540 C   0  0  0  0  0  2  0  0  0  0  0  0
  -18.2150  -26.8030   22.2960 C   0  0  0  0  0  2  0  0  0  0  0  0
  -19.1580  -28.9230   23.3870 C   0  0  0  0  0  0  0  0  0  0  0  0
  -18.9370  -30.1880   23.9750 C   0  0  0  0  0  3  0  0  0  0  0  0
  -17.6320  -30.6870   24.1410 C   0  0  0  0  0  3  0  0  0  0  0  0
  -16.5270  -29.9200   23.7320 C   0  0  0  0  0  3  0  0  0  0  0  0
  -16.7320  -28.6560   23.1490 C   0  0  0  0  0  3  0  0  0  0  0  0
  -25.9360  -32.5310   23.8610 C   0  0  0  0  0  3  0  0  0  0  0  0
  -25.6240  -33.9300   24.2000 N   0  0  0  0  0  0  0  0  0  0  0  0
  -25.9350  -34.9910   23.4430 C   0  0  0  0  0  0  0  0  0  0  0  0
  -26.5790  -34.8950   22.3950 O   0  0  0  0  0  0  0  0  0  0  0  0
  -25.0480  -34.0770   25.0150 H   0  0  0  0  0  0  0  0  0  0  0  0
  -24.1850  -36.7800   23.1670 C   0  0  0  0  0  1  0  0  0  0  0  0
  -25.4590  -36.3770   23.9240 C   0  0  0  0  0  3  0  0  0  0  0  0
  -27.6210  -37.2770   24.6670 C   0  0  0  0  0  1  0  0  0  0  0  0
  -26.4810  -37.4380   23.7690 N   0  0  0  0  0  0  0  0  0  0  0  0
  -26.0740  -38.3540   23.9360 H   0  0  0  0  0  0  0  0  0  0  0  0
  -26.4470  -31.7620   25.1420 C   0  0  1  0  0  0  0  0  0  0  0  0
  -25.3510  -31.5350   26.2120 C   0  0  0  0  0  1  0  0  0  0  0  0
  -27.0240  -30.3790   24.7660 C   0  0  0  0  0  1  0  0  0  0  0  0
  -27.6010  -32.5540   25.8010 C   0  0  0  0  0  1  0  0  0  0  0  0
  2  5  1  0
  3  1  1  0
  4  2  2  0
  4  6  1  0
  5  1  2  0
  6  3  2  0
  8 13  1  0
  9 10  1  0
  9  8  1  0
 11 10  1  0
 11 22  1  0
 11 12  1  0
 13  7  1  0
 13 12  1  0
 14  7  2  0
 15 16  1  0
 15 17  1  0
 16 18  1  0
 17 18  1  0
 17  5  1  0
 18  7  1  0
 19 20  2  0
 20 39  1  0
 21 20  1  0
 21 24  1  0
 22 19  1  0
 22 23  1  0
 23 21  2  0
 24 25  1  0
 25 26  2  0
 27 30  1  0
 27 26  1  0
 28 27  2  0
 29 28  1  0
 29 24  2  0
 30 31  1  0
 31 32  1  0
 32 33  2  0
 34 33  1  0
 34 38  1  0
 35 34  2  0
 36 31  2  0
 36 35  1  0
 37 36  1  0
 39 40  1  0
 40 43  1  0
 40 42  1  0
 41 39  2  0
 44 45  1  0
 44 19  1  0
 46 44  1  0
 47  6  1  0
 47 48  1  0
 49 60  2  0
 50 48  1  0
 50 55  1  0
 51 59  1  0
 51 61  1  0
 52 58  1  0
 52 54  1  0
 53 59  1  0
 54 55  2  0
 54 53  1  0
 56 50  2  0
 57 56  1  0
 57 52  2  0
 58 51  1  0
 59 49  1  0
 61 63  2  0
 62 61  1  0
 64 62  1  0
 65 74  2  0
 65 70  1  0
 66 62  1  0
 66 70  1  0
 67 66  1  0
 68 69  1  0
 68 67  1  0
 69 65  1  0
 70 71  2  0
 71 72  1  0
 73 72  2  0
 74 73  1  0
 75 49  1  0
 75 76  1  0
 75 85  1  0
 76 79  1  0
 77 81  1  0
 77 76  1  0
 78 77  2  0
 81 80  1  0
 83 81  1  0
 83 84  1  0
 83 82  1  0
 85 88  1  1
 85 86  1  0
 87 85  1  0
M  ISO  4   7 100  18 100  47 101  48 101
M  END
>  <TORSDO>  (71) 
F 17

>  <SCORE>  (71) 
-16.202

>  <name>  (71) 
71

>  <ligand_id>  (71) 
71

>  <original_smiles>  (71) 
[H]c1c([H])c([H])c2c(c1[H])C([H])([H])C([H])([H])C([H])([H])C2([H])N([H])C(=O)C1([H])N(C(=O)C([H])(N([H])C(=O)C([H])(N([H])C([H])([H])[H])C([H])([H])[H])C(C([H])([H])[H])(C([H])([H])[H])C([H])([H])[H])C([H])([H])c2c([H])c(OC([H])([H])c3c([H])c([H])c(C4([H])N(C(=O)N5C([H])([H])C([H])([H])C([H])([H])C([H])(n6nc(-c7c([H])c([H])c(Oc8c([H])c([H])c(F)c([H])c8F)c([H])c7[H])c(C(=O)N([H])[H])c6N([H])[H])C5([H])[H])C([H])([H])C4([H])[H])c([H])c3[H])c([H])c([H])c2C1([H])[H]

>  <smiles>  (71) 
[H]c1c([H])c([H])c2c(c1[H])C([H])([H])C([H])([H])C([H])([H])C2([H])N([H])C(=O)C1([H])N(C(=O)C([H])(N([H])C(=O)C([H])(N([H])C([H])([H])[H])C([H])([H])[H])C(C([H])([H])[H])(C([H])([H])[H])C([H])([H])[H])C([H])([H])c2c([H])c(OC([H])([H])c3c([H])c([H])c(C4([H])N(C(=O)N5C([H])([H])C([H])([H])C([H])([H])C([H])(n6nc(-c7c([H])c([H])c(Oc8c([H])c([H])c(F)c([H])c8F)c([H])c7[H])c(C(=O)N([H])[H])c6N([H])[H])C5([H])[H])C([H])([H])C4([H])[H])c([H])c3[H])c([H])c([H])c2C1([H])[H]

$$$$
72:0:0
     RDKit          3D

 92100  0  0  1  0  0  0  0  0999 V2000
  -30.3910  -20.5180   20.1460 C   0  0  0  0  0  3  0  0  0  0  0  0
  -28.0380  -20.1440   20.6060 C   0  0  0  0  0  3  0  0  0  0  0  0
  -30.1300  -21.8890   19.9240 C   0  0  0  0  0  3  0  0  0  0  0  0
  -27.7780  -21.5100   20.3780 C   0  0  0  0  0  3  0  0  0  0  0  0
  -29.3470  -19.6300   20.4980 C   0  0  0  0  0  0  0  0  0  0  0  0
  -28.8140  -22.4040   20.0360 C   0  0  0  0  0  0  0  0  0  0  0  0
  -29.5530  -18.2610   20.7470 N   0  0  0  0  0  0  0  0  0  0  0  0
  -28.7800  -17.6990   21.0940 H   0  0  0  0  0  0  0  0  0  0  0  0
  -30.8940  -17.6890   20.8280 C   0  0  0  0  0  2  0  0  0  0  0  0
  -30.9500  -16.4710   21.7710 C   0  0  0  0  0  2  0  0  0  0  0  0
  -30.7400  -14.4680   20.2990 C   0  0  0  0  0  0  0  0  0  0  0  0
  -30.3270  -12.4130   18.9910 C   0  0  0  0  0  2  0  0  0  0  0  0
  -29.3290  -12.6790   17.8490 C   0  0  0  0  0  2  0  0  0  0  0  0
  -27.8780  -12.5270   18.3440 C   0  0  0  0  0  2  0  0  0  0  0  0
  -27.6100  -13.3120   19.6550 C   0  0  0  0  0  3  0  0  0  0  0  0
  -28.7080  -13.0200   20.7000 C   0  0  0  0  0  2  0  0  0  0  0  0
  -30.0150  -13.3360   20.0930 N   0  0  0  0  0  0  0  0  0  0  0  0
  -31.7710  -14.7340   19.6760 O   0  0  0  0  0  0  0  0  0  0  0  0
  -30.2650  -15.2920   21.2430 N   0  0  0  0  0  0  0  0  0  0  0  0
  -29.4100  -15.0110   21.7000 H   0  0  0  0  0  0  0  0  0  0  0  0
  -25.2400  -13.9080   20.4660 C   0  0  0  0  0  0  0  0  0  0  0  0
  -24.1870  -13.1290   20.8660 C   0  0  0  0  0  0  0  0  0  0  0  0
  -24.6480  -11.7780   20.7960 C   0  0  0  0  0  0  0  0  0  0  0  0
  -26.2750  -13.0310   20.1810 N   0  0  0  0  0  0  0  0  0  0  0  0
  -25.9250  -11.7440   20.4350 N   0  0  0  0  0  0  0  0  0  0  0  0
  -23.9320  -10.5120   20.9970 C   0  0  0  0  0  0  0  0  0  0  0  0
  -24.3830   -9.5460   21.9230 C   0  0  0  0  0  3  0  0  0  0  0  0
  -23.6680   -8.3440   22.1100 C   0  0  0  0  0  3  0  0  0  0  0  0
  -22.4850   -8.1000   21.3720 C   0  0  0  0  0  0  0  0  0  0  0  0
  -22.0530   -9.0550   20.4340 C   0  0  0  0  0  3  0  0  0  0  0  0
  -22.7700  -10.2470   20.2450 C   0  0  0  0  0  3  0  0  0  0  0  0
  -21.7390   -6.9500   21.4680 O   0  0  0  0  0  0  0  0  0  0  0  0
  -21.6940   -6.2170   22.6270 C   0  0  0  0  0  0  0  0  0  0  0  0
  -21.2440   -6.7740   23.8440 C   0  0  0  0  0  3  0  0  0  0  0  0
  -21.1480   -5.9660   24.9960 C   0  0  0  0  0  3  0  0  0  0  0  0
  -21.4920   -4.6030   24.9300 C   0  0  0  0  0  0  0  0  0  0  0  0
  -21.9350   -4.0460   23.7180 C   0  0  0  0  0  3  0  0  0  0  0  0
  -22.0330   -4.8510   22.5690 C   0  0  0  0  0  0  0  0  0  0  0  0
  -22.4400   -4.3030   21.3980 F   0  0  0  0  0  0  0  0  0  0  0  0
  -21.3920   -3.8250   26.0330 F   0  0  0  0  0  0  0  0  0  0  0  0
  -22.8020  -13.5990   21.2030 C   0  0  0  0  0  0  0  0  0  0  0  0
  -22.1080  -12.8830   22.0800 N   0  0  0  0  0  0  0  0  0  0  0  0
  -22.3450  -14.6360   20.7240 O   0  0  0  0  0  0  0  0  0  0  0  0
  -22.4910  -12.0430   22.4870 H   0  0  0  0  0  0  0  0  0  0  0  0
  -21.1800  -13.1790   22.3480 H   0  0  0  0  0  0  0  0  0  0  0  0
  -25.3960  -15.2800   20.3020 N   0  0  0  0  0  0  0  0  0  0  0  0
  -24.6340  -15.9330   20.4480 H   0  0  0  0  0  0  0  0  0  0  0  0
  -26.2370  -15.7240   19.9520 H   0  0  0  0  0  0  0  0  0  0  0  0
  -28.4630  -23.7250   19.8250 O   0  0  0  0  0  0  0  0  0  0  0  0
  -29.4870  -24.6650   19.4950 C   0  0  0  0  0  2  0  0  0  0  0  0
  -28.8820  -26.0150   19.0610 C   0  0  0  0  0  2  0  0  0  0  0  0
  -28.5140  -26.8250   20.1860 O   0  0  0  0  0  0  0  0  0  0  0  0
  -24.5910  -31.9060   23.2520 C   0  0  0  0  0  0  0  0  0  0  0  0
  -27.3160  -27.5090   20.1630 C   0  0  0  0  0  0  0  0  0  0  0  0
  -23.4140  -30.4990   21.5920 C   0  0  0  0  0  3  0  0  0  0  0  0
  -24.8960  -28.9800   20.1790 C   0  0  0  0  0  0  0  0  0  0  0  0
  -25.9370  -30.8810   21.4210 C   0  0  0  0  0  2  0  0  0  0  0  0
  -26.0410  -29.5140   20.7790 C   0  0  0  0  0  0  0  0  0  0  0  0
  -27.2500  -28.7800   20.7780 C   0  0  0  0  0  3  0  0  0  0  0  0
  -26.1400  -26.9740   19.5880 C   0  0  0  0  0  3  0  0  0  0  0  0
  -24.9380  -27.7050   19.5880 C   0  0  0  0  0  3  0  0  0  0  0  0
  -23.6440  -29.8250   20.2120 C   0  0  0  0  0  2  0  0  0  0  0  0
  -24.6650  -31.1100   22.1470 N   0  0  0  0  0  0  0  0  0  0  0  0
  -23.5010  -32.1680   23.7800 O   0  0  0  0  0  0  0  0  0  0  0  0
  -22.7630  -29.4690   22.5410 C   0  0  0  0  0  0  0  0  0  0  0  0
  -21.4380  -29.2900   22.4110 N   0  0  0  0  0  0  0  0  0  0  0  0
  -23.4450  -28.8320   23.3480 O   0  0  0  0  0  0  0  0  0  0  0  0
  -20.9470  -29.8570   21.7340 H   0  0  0  0  0  0  0  0  0  0  0  0
  -18.0570  -28.1200   22.9150 C   0  0  0  0  0  0  0  0  0  0  0  0
  -20.6190  -28.3460   23.1710 C   0  0  0  0  0  3  0  0  0  0  0  0
  -20.7020  -26.9250   22.5650 C   0  0  0  0  0  2  0  0  0  0  0  0
  -19.5890  -26.6350   21.5540 C   0  0  0  0  0  2  0  0  0  0  0  0
  -18.2130  -26.7820   22.2130 C   0  0  0  0  0  2  0  0  0  0  0  0
  -19.1870  -28.8620   23.3500 C   0  0  0  0  0  0  0  0  0  0  0  0
  -18.9880  -30.1170   23.9660 C   0  0  0  0  0  3  0  0  0  0  0  0
  -17.6900  -30.6300   24.1500 C   0  0  0  0  0  3  0  0  0  0  0  0
  -16.5750  -29.8860   23.7320 C   0  0  0  0  0  3  0  0  0  0  0  0
  -16.7580  -28.6320   23.1200 C   0  0  0  0  0  3  0  0  0  0  0  0
  -25.8650  -32.5440   23.8870 C   0  0  0  0  0  3  0  0  0  0  0  0
  -25.5480  -33.9450   24.1960 N   0  0  0  0  0  0  0  0  0  0  0  0
  -25.8980  -34.9900   23.4320 C   0  0  0  0  0  0  0  0  0  0  0  0
  -26.5910  -34.8760   22.4180 O   0  0  0  0  0  0  0  0  0  0  0  0
  -24.9320  -34.1080   24.9800 H   0  0  0  0  0  0  0  0  0  0  0  0
  -24.1830  -36.7810   23.0110 C   0  0  0  0  0  1  0  0  0  0  0  0
  -25.3980  -36.3820   23.8640 C   0  0  0  0  0  3  0  0  0  0  0  0
  -27.5050  -37.2720   24.7550 C   0  0  0  0  0  1  0  0  0  0  0  0
  -26.4350  -37.4330   23.7740 N   0  0  0  0  0  0  0  0  0  0  0  0
  -26.0270  -38.3540   23.8990 H   0  0  0  0  0  0  0  0  0  0  0  0
  -26.3630  -31.7850   25.1770 C   0  0  1  0  0  0  0  0  0  0  0  0
  -25.2530  -31.5480   26.2280 C   0  0  0  0  0  1  0  0  0  0  0  0
  -26.9610  -30.4080   24.8030 C   0  0  0  0  0  1  0  0  0  0  0  0
  -27.4980  -32.5900   25.8530 C   0  0  0  0  0  1  0  0  0  0  0  0
  1  5  1  0
  3  6  1  0
  3  1  2  0
  4  2  1  0
  5  2  2  0
  5  7  1  0
  6  4  2  0
  7  9  1  0
  7  8  1  0
  9 10  1  0
 11 19  1  0
 12 17  1  0
 13 14  1  0
 13 12  1  0
 15 14  1  0
 15 24  1  0
 15 16  1  0
 17 11  1  0
 17 16  1  0
 18 11  2  0
 19 20  1  0
 19 10  1  0
 21 22  2  0
 22 41  1  0
 23 22  1  0
 23 26  1  0
 24 25  1  0
 24 21  1  0
 25 23  2  0
 26 27  1  0
 27 28  2  0
 29 32  1  0
 29 28  1  0
 30 29  2  0
 31 30  1  0
 31 26  2  0
 32 33  1  0
 33 34  1  0
 34 35  2  0
 36 35  1  0
 36 40  1  0
 37 36  2  0
 38 33  2  0
 38 37  1  0
 39 38  1  0
 41 42  1  0
 42 45  1  0
 42 44  1  0
 43 41  2  0
 46 47  1  0
 46 21  1  0
 48 46  1  0
 49  6  1  0
 50 49  1  0
 51 50  1  0
 51 52  1  0
 53 64  2  0
 54 52  1  0
 54 59  1  0
 55 63  1  0
 55 65  1  0
 56 62  1  0
 56 58  1  0
 57 63  1  0
 58 57  1  0
 59 58  2  0
 60 54  2  0
 61 60  1  0
 61 56  2  0
 62 55  1  0
 63 53  1  0
 65 67  2  0
 66 65  1  0
 68 66  1  0
 69 78  2  0
 69 74  1  0
 70 66  1  0
 70 74  1  0
 71 70  1  0
 72 73  1  0
 72 71  1  0
 73 69  1  0
 74 75  2  0
 75 76  1  0
 77 76  2  0
 78 77  1  0
 79 53  1  0
 79 80  1  0
 79 89  1  0
 80 83  1  0
 81 85  1  0
 81 80  1  0
 82 81  2  0
 85 84  1  0
 87 85  1  0
 87 88  1  0
 87 86  1  0
 89 92  1  1
 89 90  1  0
 91 89  1  0
M  ISO  4  11 100  19 100  51 101  52 101
M  END
>  <TORSDO>  (72) 
F 22

>  <SCORE>  (72) 
-13.205

>  <name>  (72) 
72

>  <ligand_id>  (72) 
72

>  <original_smiles>  (72) 
[H]c1c([H])c([H])c2c(c1[H])C([H])([H])C([H])([H])C([H])([H])C2([H])N([H])C(=O)C1([H])N(C(=O)C([H])(N([H])C(=O)C([H])(N([H])C([H])([H])[H])C([H])([H])[H])C(C([H])([H])[H])(C([H])([H])[H])C([H])([H])[H])C([H])([H])c2c([H])c(OC([H])([H])C([H])([H])Oc3c([H])c([H])c(N([H])C([H])([H])C([H])([H])N([H])C(=O)N4C([H])([H])C([H])([H])C([H])([H])C([H])(n5nc(-c6c([H])c([H])c(Oc7c([H])c([H])c(F)c([H])c7F)c([H])c6[H])c(C(=O)N([H])[H])c5N([H])[H])C4([H])[H])c([H])c3[H])c([H])c([H])c2C1([H])[H]

>  <smiles>  (72) 
[H]c1c([H])c([H])c2c(c1[H])C([H])([H])C([H])([H])C([H])([H])C2([H])N([H])C(=O)C1([H])N(C(=O)C([H])(N([H])C(=O)C([H])(N([H])C([H])([H])[H])C([H])([H])[H])C(C([H])([H])[H])(C([H])([H])[H])C([H])([H])[H])C([H])([H])c2c([H])c(OC([H])([H])C([H])([H])Oc3c([H])c([H])c(N([H])C([H])([H])C([H])([H])N([H])C(=O)N4C([H])([H])C([H])([H])C([H])([H])C([H])(n5nc(-c6c([H])c([H])c(Oc7c([H])c([H])c(F)c([H])c7F)c([H])c6[H])c(C(=O)N([H])[H])c5N([H])[H])C4([H])[H])c([H])c3[H])c([H])c([H])c2C1([H])[H]

$$$$
73:0:0
     RDKit          3D

 99108  0  0  1  0  0  0  0  0999 V2000
  -31.6430  -14.7460   20.8620 C   0  0  0  0  0  0  0  0  0  0  0  0
  -31.5330  -12.1600   21.5320 C   0  0  0  0  0  2  0  0  0  0  0  0
  -30.9510  -11.1890   20.4630 C   0  0  0  0  0  2  0  0  0  0  0  0
  -29.4190  -11.1320   20.5460 C   0  0  0  0  0  2  0  0  0  0  0  0
  -28.8170  -12.5430   20.7380 C   0  0  0  0  0  3  0  0  0  0  0  0
  -29.5410  -13.3810   21.8190 C   0  0  0  0  0  2  0  0  0  0  0  0
  -30.9400  -13.5640   21.3660 N   0  0  0  0  0  0  0  0  0  0  0  0
  -32.8600  -14.5880   21.0840 O   0  0  0  0  0  0  0  0  0  0  0  0
  -30.6590  -18.6990   19.3390 C   0  0  0  0  0  3  0  0  0  0  0  0
  -30.6320  -19.9610   18.4760 C   0  0  0  0  0  0  0  0  0  0  0  0
  -31.1990  -20.2040   17.1170 C   0  0  0  0  0  0  0  0  0  0  0  0
  -31.8340  -18.8480   16.9750 C   0  0  0  0  0  0  0  0  0  0  0  0
  -31.2890  -17.3740   19.1230 C   0  0  0  0  0  0  0  0  0  0  0  0
  -32.5790  -18.6210   15.6790 C   0  0  0  0  0  1  0  0  0  0  0  0
  -31.8720  -17.6490   17.8420 N   0  0  0  0  0  0  0  0  0  0  0  0
  -31.0610  -15.9590   20.0790 N   0  0  0  0  0  0  0  0  0  0  0  0
  -30.0660  -15.8480   20.2020 H   0  0  0  0  0  0  0  0  0  0  0  0
  -26.5080  -13.5990   20.7800 C   0  0  0  0  0  0  0  0  0  0  0  0
  -25.2490  -13.0830   20.9110 C   0  0  0  0  0  0  0  0  0  0  0  0
  -25.4160  -11.6800   21.1240 C   0  0  0  0  0  0  0  0  0  0  0  0
  -27.3710  -12.5270   20.9020 N   0  0  0  0  0  0  0  0  0  0  0  0
  -26.7100  -11.3720   21.1790 N   0  0  0  0  0  0  0  0  0  0  0  0
  -24.4130  -10.6090   21.2140 C   0  0  0  0  0  0  0  0  0  0  0  0
  -24.6740   -9.4040   21.9060 C   0  0  0  0  0  3  0  0  0  0  0  0
  -23.6820   -8.4030   21.9970 C   0  0  0  0  0  3  0  0  0  0  0  0
  -22.4150   -8.6000   21.3980 C   0  0  0  0  0  0  0  0  0  0  0  0
  -22.1700   -9.7900   20.6900 C   0  0  0  0  0  3  0  0  0  0  0  0
  -23.1590  -10.7830   20.5950 C   0  0  0  0  0  3  0  0  0  0  0  0
  -21.4020   -7.6710   21.4140 O   0  0  0  0  0  0  0  0  0  0  0  0
  -21.6290   -6.3650   21.7690 C   0  0  0  0  0  0  0  0  0  0  0  0
  -21.8930   -5.9920   23.1060 C   0  0  0  0  0  3  0  0  0  0  0  0
  -22.0480   -4.6300   23.4390 C   0  0  0  0  0  3  0  0  0  0  0  0
  -21.9340   -3.6440   22.4420 C   0  0  0  0  0  0  0  0  0  0  0  0
  -21.6640   -4.0130   21.1120 C   0  0  0  0  0  3  0  0  0  0  0  0
  -21.5100   -5.3700   20.7790 C   0  0  0  0  0  0  0  0  0  0  0  0
  -21.2300   -5.7190   19.4990 F   0  0  0  0  0  0  0  0  0  0  0  0
  -22.0760   -2.3360   22.7620 F   0  0  0  0  0  0  0  0  0  0  0  0
  -23.9640  -13.8370   20.7410 C   0  0  0  0  0  0  0  0  0  0  0  0
  -22.9410  -13.4870   21.5110 N   0  0  0  0  0  0  0  0  0  0  0  0
  -23.8780  -14.7800   19.9540 O   0  0  0  0  0  0  0  0  0  0  0  0
  -23.0190  -12.7300   22.1740 H   0  0  0  0  0  0  0  0  0  0  0  0
  -22.0650  -13.9860   21.4390 H   0  0  0  0  0  0  0  0  0  0  0  0
  -26.9920  -14.8800   20.5330 N   0  0  0  0  0  0  0  0  0  0  0  0
  -26.3660  -15.6590   20.3580 H   0  0  0  0  0  0  0  0  0  0  0  0
  -27.9580  -15.0970   20.3290 H   0  0  0  0  0  0  0  0  0  0  0  0
  -29.8820  -21.1230   19.0900 C   0  0  0  0  0  2  0  0  0  0  0  0
  -28.7750  -21.5340   18.2150 N   0  0  0  0  0  4  0  0  0  0  0  0
  -29.1800  -21.8470   17.3500 H   0  0  0  0  0  0  0  0  0  0  0  0
  -28.2070  -20.7310   18.0070 H   0  0  0  0  0  0  0  0  0  0  0  0
  -26.4520  -22.2680   18.7570 C   0  0  0  0  0  2  0  0  0  0  0  0
  -25.7730  -23.5060   18.1660 C   0  0  0  0  0  2  0  0  0  0  0  0
  -27.9440  -22.6100   18.7850 C   0  0  0  0  0  3  0  0  0  0  0  0
  -28.0340  -23.9090   17.9720 C   0  0  0  0  0  3  0  0  0  0  0  0
  -26.7640  -24.5700   18.2500 N   0  0  0  0  0  0  0  0  0  0  0  0
  -26.7910  -24.8930   19.2150 H   0  0  0  0  0  0  0  0  0  0  0  0
  -29.4090  -26.0020   17.4220 C   0  0  0  0  0  1  0  0  0  0  0  0
  -29.2110  -24.8170   18.3740 C   0  0  0  0  0  2  0  0  0  0  0  0
  -30.8580  -21.5590   15.8490 C   0  0  0  0  0  2  0  0  0  0  0  0
  -31.5880  -22.6860   14.7180 O   0  0  0  0  0  0  0  0  0  0  0  0
  -29.8460  -30.0670   13.0290 C   0  0  0  0  0  0  0  0  0  0  0  0
  -30.9820  -23.8080   13.8200 C   0  0  0  0  0  0  0  0  0  0  0  0
  -28.3450  -28.2670   12.2890 C   0  0  0  0  0  3  0  0  0  0  0  0
  -29.3210  -25.8480   12.2830 C   0  0  0  0  0  0  0  0  0  0  0  0
  -30.8710  -27.7710   12.5110 C   0  0  0  0  0  2  0  0  0  0  0  0
  -30.5640  -26.2480   12.7860 C   0  0  0  0  0  0  0  0  0  0  0  0
  -31.3860  -25.2350   13.5120 C   0  0  0  0  0  3  0  0  0  0  0  0
  -29.7620  -23.5490   13.1460 C   0  0  0  0  0  3  0  0  0  0  0  0
  -28.9630  -24.4970   12.4370 C   0  0  0  0  0  3  0  0  0  0  0  0
  -28.4020  -26.8740   11.5990 C   0  0  0  0  0  2  0  0  0  0  0  0
  -29.7190  -28.7540   12.6380 N   0  0  0  0  0  0  0  0  0  0  0  0
  -28.8670  -30.8300   13.1060 O   0  0  0  0  0  0  0  0  0  0  0  0
  -27.3910  -28.2140   13.5130 C   0  0  0  0  0  0  0  0  0  0  0  0
  -26.1080  -27.8640   13.3010 N   0  0  0  0  0  0  0  0  0  0  0  0
  -27.8240  -28.4660   14.6400 O   0  0  0  0  0  0  0  0  0  0  0  0
  -25.8120  -27.6920   12.3500 H   0  0  0  0  0  0  0  0  0  0  0  0
  -22.9050  -26.3150   14.0680 C   0  0  0  0  0  0  0  0  0  0  0  0
  -25.0920  -27.6740   14.3450 C   0  0  0  0  0  3  0  0  0  0  0  0
  -25.5230  -26.5710   15.3400 C   0  0  0  0  0  2  0  0  0  0  0  0
  -24.9710  -25.1870   14.9900 C   0  0  0  0  0  2  0  0  0  0  0  0
  -23.4410  -25.2100   14.9650 C   0  0  0  0  0  2  0  0  0  0  0  0
  -23.6840  -27.4640   13.7670 C   0  0  0  0  0  0  0  0  0  0  0  0
  -23.1450  -28.4480   12.9110 C   0  0  0  0  0  3  0  0  0  0  0  0
  -21.8610  -28.2950   12.3560 C   0  0  0  0  0  3  0  0  0  0  0  0
  -21.0920  -27.1600   12.6640 C   0  0  0  0  0  3  0  0  0  0  0  0
  -21.6110  -26.1760   13.5230 C   0  0  0  0  0  3  0  0  0  0  0  0
  -31.2320  -30.6860   13.3870 C   0  0  0  0  0  3  0  0  0  0  0  0
  -32.0600  -29.8030   14.4010 C   0  0  1  0  0  0  0  0  0  0  0  0
  -31.2070  -29.2050   15.5460 C   0  0  0  0  0  1  0  0  0  0  0  0
  -32.7540  -28.6280   13.6770 C   0  0  0  0  0  1  0  0  0  0  0  0
  -33.1890  -30.6520   15.0320 C   0  0  0  0  0  1  0  0  0  0  0  0
  -31.0060  -32.0260   13.9620 N   0  0  0  0  0  0  0  0  0  0  0  0
  -31.7540  -33.1100   13.7130 C   0  0  0  0  0  0  0  0  0  0  0  0
  -32.7580  -33.0750   12.9980 O   0  0  0  0  0  0  0  0  0  0  0  0
  -30.1660  -32.1430   14.5110 H   0  0  0  0  0  0  0  0  0  0  0  0
  -30.9200  -35.4450   13.2660 C   0  0  0  0  0  1  0  0  0  0  0  0
  -31.3250  -34.4450   14.3600 C   0  0  0  0  0  3  0  0  0  0  0  0
  -32.6910  -34.2460   16.3920 C   0  0  0  0  0  1  0  0  0  0  0  0
  -32.3690  -35.0500   15.2170 N   0  0  0  0  0  0  0  0  0  0  0  0
  -32.0840  -35.9730   15.5310 H   0  0  0  0  0  0  0  0  0  0  0  0
  1  8  2  0
  1  7  1  0
  3  4  1  0
  3  2  1  0
  5  4  1  0
  5 21  1  0
  5  6  1  0
  7  2  1  0
  7  6  1  0
 10 46  1  0
 10  9  2  0
 11 10  1  0
 12 11  2  0
 12 15  1  0
 13  9  1  0
 13 16  1  0
 14 12  1  0
 15 13  2  0
 16 17  1  0
 16  1  1  0
 18 21  1  0
 18 19  2  0
 19 20  1  0
 20 22  2  0
 20 23  1  0
 21 22  1  0
 23 24  1  0
 24 25  2  0
 26 29  1  0
 26 25  1  0
 27 26  2  0
 28 27  1  0
 28 23  2  0
 29 30  1  0
 30 31  1  0
 31 32  2  0
 33 37  1  0
 33 32  1  0
 34 33  2  0
 35 34  1  0
 35 30  2  0
 36 35  1  0
 38 19  1  0
 38 39  1  0
 39 41  1  0
 40 38  2  0
 42 39  1  0
 43 18  1  0
 44 43  1  0
 45 43  1  0
 47 46  1  0
 48 47  1  0
 49 47  1  0
 50 52  1  0
 51 54  1  0
 51 50  1  0
 52 47  1  0
 53 54  1  0
 53 57  1  0
 53 52  1  0
 54 55  1  0
 56 57  1  0
 58 11  1  0
 59 58  1  0
 60 71  2  0
 61 59  1  0
 62 70  1  0
 62 72  1  0
 63 68  2  0
 63 65  1  0
 64 70  1  0
 64 65  1  0
 65 66  2  0
 66 61  1  0
 67 61  2  0
 68 67  1  0
 69 63  1  0
 69 62  1  0
 70 60  1  0
 72 74  2  0
 73 72  1  0
 75 73  1  0
 76 80  1  0
 77 73  1  0
 77 78  1  0
 79 78  1  0
 80 79  1  0
 81 76  1  0
 81 77  1  0
 82 81  2  0
 83 84  2  0
 83 82  1  0
 84 85  1  0
 85 76  2  0
 86 60  1  0
 86 91  1  0
 86 87  1  0
 87 90  1  1
 87 88  1  0
 89 87  1  0
 91 94  1  0
 92 91  1  0
 92 96  1  0
 93 92  2  0
 96 95  1  0
 96 98  1  0
 98 99  1  0
 98 97  1  0
M  ISO  4   1 100  16 100  58 101  59 101
M  END
>  <TORSDO>  (73) 
F 20

>  <SCORE>  (73) 
-8.675

>  <name>  (73) 
73

>  <ligand_id>  (73) 
73

>  <original_smiles>  (73) 
[H]c1c([H])c([H])c2c(c1[H])C([H])([H])C([H])([H])C([H])([H])C2([H])N([H])C(=O)C1([H])N(C(=O)C([H])(N([H])C(=O)C([H])(N([H])C([H])([H])[H])C([H])([H])[H])C(C([H])([H])[H])(C([H])([H])[H])C([H])([H])[H])C([H])([H])c2c([H])c(OC([H])([H])c3c(C([H])([H])[H])nc(N([H])C(=O)N4C([H])([H])C([H])([H])C([H])([H])C([H])(n5nc(-c6c([H])c([H])c(Oc7c([H])c([H])c(F)c([H])c7F)c([H])c6[H])c(C(=O)N([H])[H])c5N([H])[H])C4([H])[H])c([H])c3C([H])([H])[N+]([H])([H])C3([H])C([H])([H])C([H])([H])N([H])C3([H])C([H])([H])C([H])([H])[H])c([H])c([H])c2C1([H])[H]

>  <smiles>  (73) 
[H]c1c([H])c([H])c2c(c1[H])C([H])([H])C([H])([H])C([H])([H])C2([H])N([H])C(=O)C1([H])N(C(=O)C([H])(N([H])C(=O)C([H])(N([H])C([H])([H])[H])C([H])([H])[H])C(C([H])([H])[H])(C([H])([H])[H])C([H])([H])[H])C([H])([H])c2c([H])c(OC([H])([H])c3c(C([H])([H])[H])nc(N([H])C(=O)N4C([H])([H])C([H])([H])C([H])([H])C([H])(n5nc(-c6c([H])c([H])c(Oc7c([H])c([H])c(F)c([H])c7F)c([H])c6[H])c(C(=O)N([H])[H])c5N([H])[H])C4([H])[H])c([H])c3C([H])([H])[N+]([H])([H])C3([H])C([H])([H])C([H])([H])N([H])C3([H])C([H])([H])C([H])([H])[H])c([H])c([H])c2C1([H])[H]

$$$$
74:0:0
     RDKit          3D

 96105  0  0  1  0  0  0  0  0999 V2000
  -30.0710  -19.6400   22.0560 C   0  0  0  0  0  3  0  0  0  0  0  0
  -29.5790  -20.9520   21.9340 C   0  0  0  0  0  3  0  0  0  0  0  0
  -31.8400  -21.7520   21.5460 C   0  0  0  0  0  3  0  0  0  0  0  0
  -31.4490  -19.3620   21.9160 C   0  0  0  0  0  0  0  0  0  0  0  0
  -32.3420  -20.4380   21.6650 C   0  0  0  0  0  0  0  0  0  0  0  0
  -30.4630  -22.0220   21.6700 C   0  0  0  0  0  0  0  0  0  0  0  0
  -33.8410  -20.2220   21.5150 C   0  0  0  0  0  1  0  0  0  0  0  0
  -31.3000  -17.1330   23.1880 C   0  0  0  0  0  2  0  0  0  0  0  0
  -31.5300  -15.6630   22.8300 C   0  0  0  0  0  2  0  0  0  0  0  0
  -31.6150  -17.0560   20.7940 C   0  0  0  0  0  2  0  0  0  0  0  0
  -31.9260  -17.9120   22.0290 C   0  0  0  0  0  3  0  0  0  0  0  0
  -31.5730  -15.5990   21.2900 C   0  0  0  0  0  3  0  0  0  0  0  0
  -30.3500  -14.4110   19.4960 C   0  0  0  0  0  0  0  0  0  0  0  0
  -29.7280  -12.4130   18.2060 C   0  0  0  0  0  2  0  0  0  0  0  0
  -28.5770  -12.6340   17.2140 C   0  0  0  0  0  2  0  0  0  0  0  0
  -27.2230  -12.4220   17.9090 C   0  0  0  0  0  2  0  0  0  0  0  0
  -27.1020  -13.2330   19.2240 C   0  0  0  0  0  3  0  0  0  0  0  0
  -28.3410  -13.0280   20.1240 C   0  0  0  0  0  2  0  0  0  0  0  0
  -29.5550  -13.3260   19.3430 N   0  0  0  0  0  0  0  0  0  0  0  0
  -31.1080  -14.8340   18.6180 O   0  0  0  0  0  0  0  0  0  0  0  0
  -30.4370  -14.8460   20.7580 N   0  0  0  0  0  0  0  0  0  0  0  0
  -29.7960  -14.4360   21.4200 H   0  0  0  0  0  0  0  0  0  0  0  0
  -24.8850  -13.7610   20.4250 C   0  0  0  0  0  0  0  0  0  0  0  0
  -23.9020  -12.9500   20.9260 C   0  0  0  0  0  0  0  0  0  0  0  0
  -24.3400  -11.6100   20.6940 C   0  0  0  0  0  0  0  0  0  0  0  0
  -25.8620  -12.9120   19.9280 N   0  0  0  0  0  0  0  0  0  0  0  0
  -25.5460  -11.6090   20.1440 N   0  0  0  0  0  0  0  0  0  0  0  0
  -23.6550  -10.3300   20.9150 C   0  0  0  0  0  0  0  0  0  0  0  0
  -24.2020   -9.3360   21.7580 C   0  0  0  0  0  3  0  0  0  0  0  0
  -23.5160   -8.1200   21.9670 C   0  0  0  0  0  3  0  0  0  0  0  0
  -22.2720   -7.8890   21.3340 C   0  0  0  0  0  0  0  0  0  0  0  0
  -21.7440   -8.8720   20.4790 C   0  0  0  0  0  3  0  0  0  0  0  0
  -22.4290  -10.0790   20.2670 C   0  0  0  0  0  3  0  0  0  0  0  0
  -21.5470   -6.7290   21.4600 O   0  0  0  0  0  0  0  0  0  0  0  0
  -21.5760   -5.9810   22.6100 C   0  0  0  0  0  0  0  0  0  0  0  0
  -21.2010   -6.5210   23.8600 C   0  0  0  0  0  3  0  0  0  0  0  0
  -21.1800   -5.6990   25.0040 C   0  0  0  0  0  3  0  0  0  0  0  0
  -21.5240   -4.3380   24.9010 C   0  0  0  0  0  0  0  0  0  0  0  0
  -21.8930   -3.7970   23.6570 C   0  0  0  0  0  3  0  0  0  0  0  0
  -21.9170   -4.6170   22.5140 C   0  0  0  0  0  0  0  0  0  0  0  0
  -22.2520   -4.0860   21.3130 F   0  0  0  0  0  0  0  0  0  0  0  0
  -21.4970   -3.5460   25.9980 F   0  0  0  0  0  0  0  0  0  0  0  0
  -22.5860  -13.3890   21.5000 C   0  0  0  0  0  0  0  0  0  0  0  0
  -22.0510  -12.6320   22.4540 N   0  0  0  0  0  0  0  0  0  0  0  0
  -22.0470  -14.4360   21.1420 O   0  0  0  0  0  0  0  0  0  0  0  0
  -22.5020  -11.7820   22.7580 H   0  0  0  0  0  0  0  0  0  0  0  0
  -21.1790  -12.9060   22.8840 H   0  0  0  0  0  0  0  0  0  0  0  0
  -25.0220  -15.1430   20.3330 N   0  0  0  0  0  0  0  0  0  0  0  0
  -24.2980  -15.7830   20.6420 H   0  0  0  0  0  0  0  0  0  0  0  0
  -25.8090  -15.6130   19.9020 H   0  0  0  0  0  0  0  0  0  0  0  0
  -30.0220  -23.3450   21.5330 N   0  0  0  0  0  0  0  0  0  0  0  0
  -30.7410  -24.0660   21.5260 H   0  0  0  0  0  0  0  0  0  0  0  0
  -28.8320  -23.5950   20.7280 C   0  0  0  0  0  2  0  0  0  0  0  0
  -28.7380  -25.0620   20.2850 C   0  0  0  0  0  2  0  0  0  0  0  0
  -27.6220  -25.2830   19.2540 C   0  0  0  0  0  2  0  0  0  0  0  0
  -27.6020  -26.6680   18.9130 O   0  0  0  0  0  0  0  0  0  0  0  0
  -24.4150  -31.4630   23.0520 C   0  0  0  0  0  0  0  0  0  0  0  0
  -26.4430  -27.3630   19.1620 C   0  0  0  0  0  0  0  0  0  0  0  0
  -22.9360  -30.2650   21.4710 C   0  0  0  0  0  3  0  0  0  0  0  0
  -24.1160  -28.8740   19.6880 C   0  0  0  0  0  0  0  0  0  0  0  0
  -25.4140  -30.6120   20.9380 C   0  0  0  0  0  2  0  0  0  0  0  0
  -25.3610  -29.3200   20.1500 C   0  0  0  0  0  0  0  0  0  0  0  0
  -26.5280  -28.5740   19.8800 C   0  0  0  0  0  3  0  0  0  0  0  0
  -25.1820  -26.9230   18.6980 C   0  0  0  0  0  3  0  0  0  0  0  0
  -24.0200  -27.6740   18.9600 C   0  0  0  0  0  3  0  0  0  0  0  0
  -22.9170  -29.7350   20.0130 C   0  0  0  0  0  2  0  0  0  0  0  0
  -24.2810  -30.7870   21.8760 N   0  0  0  0  0  0  0  0  0  0  0  0
  -23.4340  -31.6890   23.7760 O   0  0  0  0  0  0  0  0  0  0  0  0
  -22.4070  -29.1520   22.4040 C   0  0  0  0  0  0  0  0  0  0  0  0
  -21.1090  -28.8320   22.2760 N   0  0  0  0  0  0  0  0  0  0  0  0
  -23.1610  -28.5800   23.1960 O   0  0  0  0  0  0  0  0  0  0  0  0
  -20.5590  -29.3540   21.6080 H   0  0  0  0  0  0  0  0  0  0  0  0
  -17.9440  -27.1200   22.5880 C   0  0  0  0  0  0  0  0  0  0  0  0
  -20.4010  -27.7920   23.0220 C   0  0  0  0  0  3  0  0  0  0  0  0
  -20.7720  -26.3840   22.5040 C   0  0  0  0  0  2  0  0  0  0  0  0
  -19.8120  -25.8650   21.4300 C   0  0  0  0  0  2  0  0  0  0  0  0
  -18.3810  -25.8010   21.9730 C   0  0  0  0  0  2  0  0  0  0  0  0
  -18.8920  -28.0620   23.0660 C   0  0  0  0  0  0  0  0  0  0  0  0
  -18.4350  -29.2870   23.5980 C   0  0  0  0  0  3  0  0  0  0  0  0
  -17.0590  -29.5800   23.6520 C   0  0  0  0  0  3  0  0  0  0  0  0
  -16.1230  -28.6360   23.1930 C   0  0  0  0  0  3  0  0  0  0  0  0
  -16.5650  -27.4080   22.6700 C   0  0  0  0  0  3  0  0  0  0  0  0
  -25.7980  -32.0020   23.5330 C   0  0  0  0  0  3  0  0  0  0  0  0
  -25.5880  -33.3630   24.0450 N   0  0  0  0  0  0  0  0  0  0  0  0
  -25.8750  -34.4830   23.3680 C   0  0  0  0  0  0  0  0  0  0  0  0
  -26.4190  -34.4760   22.2600 O   0  0  0  0  0  0  0  0  0  0  0  0
  -25.0960  -33.4430   24.9230 H   0  0  0  0  0  0  0  0  0  0  0  0
  -24.2020  -36.3570   23.3960 C   0  0  0  0  0  1  0  0  0  0  0  0
  -25.5000  -35.8250   24.0240 C   0  0  0  0  0  3  0  0  0  0  0  0
  -27.7440  -36.5360   24.7190 C   0  0  0  0  0  1  0  0  0  0  0  0
  -26.5630  -36.8490   23.9180 N   0  0  0  0  0  0  0  0  0  0  0  0
  -26.2180  -37.7570   24.2130 H   0  0  0  0  0  0  0  0  0  0  0  0
  -26.4770  -31.0920   24.6290 C   0  0  1  0  0  0  0  0  0  0  0  0
  -25.5340  -30.7160   25.7950 C   0  0  0  0  0  1  0  0  0  0  0  0
  -26.9970  -29.7800   23.9980 C   0  0  0  0  0  1  0  0  0  0  0  0
  -27.7080  -31.8170   25.2260 C   0  0  0  0  0  1  0  0  0  0  0  0
  2  1  1  0
  3  5  2  0
  3  6  1  0
  4  1  2  0
  5  4  1  0
  6  2  2  0
  7  5  1  0
  9  8  1  0
 10 12  1  0
 10 11  1  0
 11  4  1  0
 11  8  1  0
 12 21  1  0
 12  9  1  0
 13 21  1  0
 14 19  1  0
 15 16  1  0
 15 14  1  0
 17 16  1  0
 17 26  1  0
 17 18  1  0
 19 13  1  0
 19 18  1  0
 20 13  2  0
 21 22  1  0
 23 24  2  0
 24 43  1  0
 25 28  1  0
 25 24  1  0
 26 27  1  0
 26 23  1  0
 27 25  2  0
 28 29  1  0
 29 30  2  0
 31 34  1  0
 31 30  1  0
 32 31  2  0
 33 32  1  0
 33 28  2  0
 34 35  1  0
 35 36  1  0
 36 37  2  0
 38 37  1  0
 38 42  1  0
 39 38  2  0
 40 35  2  0
 40 39  1  0
 41 40  1  0
 43 44  1  0
 44 46  1  0
 44 47  1  0
 45 43  2  0
 48 23  1  0
 48 49  1  0
 50 48  1  0
 51  6  1  0
 52 51  1  0
 53 51  1  0
 54 53  1  0
 55 54  1  0
 56 58  1  0
 56 55  1  0
 57 68  2  0
 58 63  1  0
 59 67  1  0
 59 69  1  0
 60 66  1  0
 60 62  1  0
 61 67  1  0
 62 61  1  0
 63 62  2  0
 64 65  1  0
 64 58  2  0
 65 60  2  0
 66 59  1  0
 67 57  1  0
 69 71  2  0
 70 69  1  0
 72 70  1  0
 73 82  2  0
 73 78  1  0
 74 70  1  0
 74 78  1  0
 75 74  1  0
 76 77  1  0
 76 75  1  0
 77 73  1  0
 78 79  2  0
 79 80  1  0
 81 80  2  0
 82 81  1  0
 83 57  1  0
 83 84  1  0
 83 93  1  0
 84 87  1  0
 85 89  1  0
 85 84  1  0
 86 85  2  0
 89 88  1  0
 91 89  1  0
 91 92  1  0
 91 90  1  0
 93 96  1  1
 93 94  1  0
 95 93  1  0
M  ISO  4  13 100  21 100  55 101  56 101
M  END
>  <TORSDO>  (74) 
F 21

>  <SCORE>  (74) 
-8.043

>  <name>  (74) 
74

>  <ligand_id>  (74) 
74

>  <original_smiles>  (74) 
[H]c1c([H])c([H])c2c(c1[H])C([H])([H])C([H])([H])C([H])([H])C2([H])N([H])C(=O)C1([H])N(C(=O)C([H])(N([H])C(=O)C([H])(N([H])C([H])([H])[H])C([H])([H])[H])C(C([H])([H])[H])(C([H])([H])[H])C([H])([H])[H])C([H])([H])c2c([H])c(OC([H])([H])C([H])([H])C([H])([H])N([H])c3c([H])c([H])c(C4([H])C([H])([H])C([H])([H])C([H])(N([H])C(=O)N5C([H])([H])C([H])([H])C([H])([H])C([H])(n6nc(-c7c([H])c([H])c(Oc8c([H])c([H])c(F)c([H])c8F)c([H])c7[H])c(C(=O)N([H])[H])c6N([H])[H])C5([H])[H])C4([H])[H])c(C([H])([H])[H])c3[H])c([H])c([H])c2C1([H])[H]

>  <smiles>  (74) 
[H]c1c([H])c([H])c2c(c1[H])C([H])([H])C([H])([H])C([H])([H])C2([H])N([H])C(=O)C1([H])N(C(=O)C([H])(N([H])C(=O)C([H])(N([H])C([H])([H])[H])C([H])([H])[H])C(C([H])([H])[H])(C([H])([H])[H])C([H])([H])[H])C([H])([H])c2c([H])c(OC([H])([H])C([H])([H])C([H])([H])N([H])c3c([H])c([H])c(C4([H])C([H])([H])C([H])([H])C([H])(N([H])C(=O)N5C([H])([H])C([H])([H])C([H])([H])C([H])(n6nc(-c7c([H])c([H])c(Oc8c([H])c([H])c(F)c([H])c8F)c([H])c7[H])c(C(=O)N([H])[H])c6N([H])[H])C5([H])[H])C4([H])[H])c(C([H])([H])[H])c3[H])c([H])c([H])c2C1([H])[H]

$$$$
75:0:0
     RDKit          3D

 95104  0  0  1  0  0  0  0  0999 V2000
  -30.3960  -20.8830   18.3780 C   0  0  0  0  0  3  0  0  0  0  0  0
  -30.0240  -22.0390   19.0900 C   0  0  0  0  0  3  0  0  0  0  0  0
  -29.2330  -20.6300   20.9120 C   0  0  0  0  0  3  0  0  0  0  0  0
  -30.1800  -19.6000   18.9220 C   0  0  0  0  0  0  0  0  0  0  0  0
  -29.5830  -19.4570   20.1880 C   0  0  0  0  0  0  0  0  0  0  0  0
  -29.4420  -21.9310   20.3760 C   0  0  0  0  0  0  0  0  0  0  0  0
  -30.5410  -18.3630   18.1270 C   0  0  0  0  0  2  0  0  0  0  0  0
  -29.2660  -18.0430   20.7110 C   0  0  0  0  0  3  0  0  0  0  0  0
  -30.3950  -16.9960   20.4040 C   0  0  0  0  0  3  0  0  0  0  0  0
  -31.0440  -17.1840   18.9870 C   0  0  0  0  0  3  0  0  0  0  0  0
  -27.8940  -17.5960   20.1770 C   0  0  0  0  0  1  0  0  0  0  0  0
  -30.7030  -14.4840   20.3970 C   0  0  0  0  0  0  0  0  0  0  0  0
  -30.3800  -12.3270   19.2630 C   0  0  0  0  0  2  0  0  0  0  0  0
  -29.4410  -12.5300   18.0560 C   0  0  0  0  0  2  0  0  0  0  0  0
  -27.9710  -12.3760   18.4940 C   0  0  0  0  0  2  0  0  0  0  0  0
  -27.6260  -13.2270   19.7440 C   0  0  0  0  0  3  0  0  0  0  0  0
  -28.6850  -13.0380   20.8560 C   0  0  0  0  0  2  0  0  0  0  0  0
  -30.0070  -13.3210   20.2800 N   0  0  0  0  0  0  0  0  0  0  0  0
  -31.8810  -14.5930   20.0610 O   0  0  0  0  0  0  0  0  0  0  0  0
  -29.9620  -15.5890   20.6260 N   0  0  0  0  0  0  0  0  0  0  0  0
  -28.9910  -15.4400   20.8480 H   0  0  0  0  0  0  0  0  0  0  0  0
  -25.2240  -13.8310   20.4490 C   0  0  0  0  0  0  0  0  0  0  0  0
  -24.1590  -13.0600   20.8280 C   0  0  0  0  0  0  0  0  0  0  0  0
  -24.6230  -11.7110   20.8030 C   0  0  0  0  0  0  0  0  0  0  0  0
  -26.2740  -12.9540   20.2250 N   0  0  0  0  0  0  0  0  0  0  0  0
  -25.9140  -11.6730   20.4960 N   0  0  0  0  0  0  0  0  0  0  0  0
  -23.8950  -10.4500   20.9940 C   0  0  0  0  0  0  0  0  0  0  0  0
  -24.3180   -9.4920   21.9400 C   0  0  0  0  0  3  0  0  0  0  0  0
  -23.5930   -8.2940   22.1190 C   0  0  0  0  0  3  0  0  0  0  0  0
  -22.4300   -8.0460   21.3530 C   0  0  0  0  0  0  0  0  0  0  0  0
  -22.0250   -8.9930   20.3960 C   0  0  0  0  0  3  0  0  0  0  0  0
  -22.7510  -10.1830   20.2140 C   0  0  0  0  0  3  0  0  0  0  0  0
  -21.6790   -6.8980   21.4400 O   0  0  0  0  0  0  0  0  0  0  0  0
  -21.6130   -6.1700   22.5990 C   0  0  0  0  0  0  0  0  0  0  0  0
  -21.1370   -6.7310   23.8060 C   0  0  0  0  0  3  0  0  0  0  0  0
  -21.0170   -5.9260   24.9550 C   0  0  0  0  0  3  0  0  0  0  0  0
  -21.3630   -4.5620   24.9030 C   0  0  0  0  0  0  0  0  0  0  0  0
  -21.8330   -4.0030   23.7020 C   0  0  0  0  0  3  0  0  0  0  0  0
  -21.9540   -4.8020   22.5530 C   0  0  0  0  0  0  0  0  0  0  0  0
  -22.3860   -4.2530   21.3930 F   0  0  0  0  0  0  0  0  0  0  0  0
  -21.2400   -3.7880   26.0060 F   0  0  0  0  0  0  0  0  0  0  0  0
  -22.7620  -13.5400   21.0940 C   0  0  0  0  0  0  0  0  0  0  0  0
  -22.0300  -12.8440   21.9550 N   0  0  0  0  0  0  0  0  0  0  0  0
  -22.3270  -14.5680   20.5740 O   0  0  0  0  0  0  0  0  0  0  0  0
  -22.3960  -12.0150   22.4020 H   0  0  0  0  0  0  0  0  0  0  0  0
  -21.0910  -13.1450   22.1700 H   0  0  0  0  0  0  0  0  0  0  0  0
  -25.3700  -15.1980   20.2510 N   0  0  0  0  0  0  0  0  0  0  0  0
  -24.5730  -15.8230   20.3270 H   0  0  0  0  0  0  0  0  0  0  0  0
  -26.1610  -15.6260   19.7930 H   0  0  0  0  0  0  0  0  0  0  0  0
  -32.4440  -17.3090   19.1690 O   0  0  0  0  0  0  0  0  0  0  0  0
  -32.7160  -16.4980   19.5980 H   0  0  0  0  0  0  0  0  0  0  0  0
  -29.0470  -23.0230   21.1350 O   0  0  0  0  0  0  0  0  0  0  0  0
  -29.3980  -24.3740   20.7580 C   0  0  0  0  0  2  0  0  0  0  0  0
  -28.2320  -25.1640   20.1090 C   0  0  0  0  0  2  0  0  0  0  0  0
  -28.3810  -26.6010   20.2360 O   0  0  0  0  0  0  0  0  0  0  0  0
  -24.5910  -31.8640   23.2350 C   0  0  0  0  0  0  0  0  0  0  0  0
  -27.2270  -27.3700   20.1870 C   0  0  0  0  0  0  0  0  0  0  0  0
  -23.3960  -30.4640   21.5890 C   0  0  0  0  0  3  0  0  0  0  0  0
  -24.8500  -28.9210   20.1780 C   0  0  0  0  0  0  0  0  0  0  0  0
  -25.9280  -30.8050   21.4130 C   0  0  0  0  0  2  0  0  0  0  0  0
  -26.0130  -29.4330   20.7660 C   0  0  0  0  0  0  0  0  0  0  0  0
  -27.2060  -28.6670   20.7630 C   0  0  0  0  0  3  0  0  0  0  0  0
  -26.0380  -26.8840   19.5940 C   0  0  0  0  0  3  0  0  0  0  0  0
  -24.8570  -27.6440   19.5960 C   0  0  0  0  0  3  0  0  0  0  0  0
  -23.6180  -29.7960   20.2070 C   0  0  0  0  0  2  0  0  0  0  0  0
  -24.6570  -31.0600   22.1370 N   0  0  0  0  0  0  0  0  0  0  0  0
  -23.5060  -32.1400   23.7640 O   0  0  0  0  0  0  0  0  0  0  0  0
  -22.7360  -29.4400   22.5410 C   0  0  0  0  0  0  0  0  0  0  0  0
  -21.4110  -29.2630   22.4070 N   0  0  0  0  0  0  0  0  0  0  0  0
  -23.4130  -28.8110   23.3570 O   0  0  0  0  0  0  0  0  0  0  0  0
  -20.9240  -29.8240   21.7220 H   0  0  0  0  0  0  0  0  0  0  0  0
  -18.0280  -28.0970   22.9050 C   0  0  0  0  0  0  0  0  0  0  0  0
  -20.5880  -28.3280   23.1750 C   0  0  0  0  0  3  0  0  0  0  0  0
  -20.6770  -26.9010   22.5890 C   0  0  0  0  0  2  0  0  0  0  0  0
  -19.5710  -26.5940   21.5750 C   0  0  0  0  0  2  0  0  0  0  0  0
  -18.1910  -26.7510   22.2200 C   0  0  0  0  0  2  0  0  0  0  0  0
  -19.1550  -28.8450   23.3390 C   0  0  0  0  0  0  0  0  0  0  0  0
  -18.9500  -30.1060   23.9390 C   0  0  0  0  0  3  0  0  0  0  0  0
  -17.6520  -30.6170   24.1170 C   0  0  0  0  0  3  0  0  0  0  0  0
  -16.5390  -29.8670   23.7000 C   0  0  0  0  0  3  0  0  0  0  0  0
  -16.7290  -28.6090   23.0970 C   0  0  0  0  0  3  0  0  0  0  0  0
  -25.8750  -32.4960   23.8620 C   0  0  0  0  0  3  0  0  0  0  0  0
  -26.3840  -31.7290   25.1450 C   0  0  1  0  0  0  0  0  0  0  0  0
  -25.2830  -31.4980   26.2060 C   0  0  0  0  0  1  0  0  0  0  0  0
  -26.9730  -30.3510   24.7640 C   0  0  0  0  0  1  0  0  0  0  0  0
  -27.5240  -32.5290   25.8170 C   0  0  0  0  0  1  0  0  0  0  0  0
  -25.5630  -33.8950   24.1860 N   0  0  0  0  0  0  0  0  0  0  0  0
  -25.8950  -34.9440   23.4220 C   0  0  0  0  0  0  0  0  0  0  0  0
  -26.5680  -34.8370   22.3930 O   0  0  0  0  0  0  0  0  0  0  0  0
  -24.9780  -34.0550   24.9920 H   0  0  0  0  0  0  0  0  0  0  0  0
  -24.1750  -36.7370   23.0400 C   0  0  0  0  0  1  0  0  0  0  0  0
  -25.4030  -36.3320   23.8730 C   0  0  0  0  0  3  0  0  0  0  0  0
  -27.5240  -37.2150   24.7390 C   0  0  0  0  0  1  0  0  0  0  0  0
  -26.4390  -37.3830   23.7750 N   0  0  0  0  0  0  0  0  0  0  0  0
  -26.0310  -38.3040   23.9130 H   0  0  0  0  0  0  0  0  0  0  0  0
  1  4  2  0
  1  2  1  0
  2  6  2  0
  4  5  1  0
  5  8  1  0
  5  3  2  0
  6  3  1  0
  6 52  1  0
  7  4  1  0
  7 10  1  0
  8 11  1  0
  9 20  1  0
  9  8  1  0
 10 50  1  0
 10  9  1  0
 12 20  1  0
 13 18  1  0
 14 15  1  0
 14 13  1  0
 16 15  1  0
 16 25  1  0
 16 17  1  0
 18 12  1  0
 18 17  1  0
 19 12  2  0
 20 21  1  0
 22 23  2  0
 23 42  1  0
 24 23  1  0
 24 27  1  0
 25 22  1  0
 25 26  1  0
 26 24  2  0
 27 28  1  0
 28 29  2  0
 30 33  1  0
 30 29  1  0
 31 30  2  0
 32 31  1  0
 32 27  2  0
 33 34  1  0
 34 35  1  0
 35 36  2  0
 37 36  1  0
 37 41  1  0
 38 37  2  0
 39 34  2  0
 39 38  1  0
 40 39  1  0
 42 43  1  0
 43 46  1  0
 43 45  1  0
 44 42  2  0
 47 48  1  0
 47 22  1  0
 49 47  1  0
 50 51  1  0
 53 52  1  0
 54 55  1  0
 54 53  1  0
 56 67  2  0
 57 55  1  0
 57 62  1  0
 58 66  1  0
 58 68  1  0
 59 65  1  0
 59 61  1  0
 60 66  1  0
 61 60  1  0
 62 61  2  0
 63 64  1  0
 63 57  2  0
 64 59  2  0
 65 58  1  0
 66 56  1  0
 68 70  2  0
 69 68  1  0
 71 69  1  0
 72 81  2  0
 72 77  1  0
 73 69  1  0
 73 77  1  0
 74 73  1  0
 75 76  1  0
 75 74  1  0
 76 72  1  0
 77 78  2  0
 78 79  1  0
 80 79  2  0
 81 80  1  0
 82 56  1  0
 82 87  1  0
 82 83  1  0
 83 86  1  1
 83 84  1  0
 85 83  1  0
 87 90  1  0
 88 92  1  0
 88 87  1  0
 89 88  2  0
 92 91  1  0
 94 92  1  0
 94 95  1  0
 94 93  1  0
M  ISO  4  12 100  20 100  54 101  55 101
M  END
>  <TORSDO>  (75) 
F 20

>  <SCORE>  (75) 
-14.411

>  <name>  (75) 
75

>  <ligand_id>  (75) 
75

>  <original_smiles>  (75) 
[H]OC1([H])C([H])([H])c2c([H])c([H])c(OC([H])([H])C([H])([H])Oc3c([H])c([H])c4c(c3[H])C([H])([H])N(C(=O)C([H])(N([H])C(=O)C([H])(N([H])C([H])([H])[H])C([H])([H])[H])C(C([H])([H])[H])(C([H])([H])[H])C([H])([H])[H])C([H])(C(=O)N([H])C3([H])c5c([H])c([H])c([H])c([H])c5C([H])([H])C([H])([H])C3([H])[H])C4([H])[H])c([H])c2C([H])(C([H])([H])[H])C1([H])N([H])C(=O)N1C([H])([H])C([H])([H])C([H])([H])C([H])(n2nc(-c3c([H])c([H])c(Oc4c([H])c([H])c(F)c([H])c4F)c([H])c3[H])c(C(=O)N([H])[H])c2N([H])[H])C1([H])[H]

>  <smiles>  (75) 
[H]OC1([H])C([H])([H])c2c([H])c([H])c(OC([H])([H])C([H])([H])Oc3c([H])c([H])c4c(c3[H])C([H])([H])N(C(=O)C([H])(N([H])C(=O)C([H])(N([H])C([H])([H])[H])C([H])([H])[H])C(C([H])([H])[H])(C([H])([H])[H])C([H])([H])[H])C([H])(C(=O)N([H])C3([H])c5c([H])c([H])c([H])c([H])c5C([H])([H])C([H])([H])C3([H])[H])C4([H])[H])c([H])c2C([H])(C([H])([H])[H])C1([H])N([H])C(=O)N1C([H])([H])C([H])([H])C([H])([H])C([H])(n2nc(-c3c([H])c([H])c(Oc4c([H])c([H])c(F)c([H])c4F)c([H])c3[H])c(C(=O)N([H])[H])c2N([H])[H])C1([H])[H]

$$$$
76:0:0
     RDKit          3D

 99108  0  0  1  0  0  0  0  0999 V2000
  -28.0030  -22.0110   22.0840 C   0  0  0  0  0  3  0  0  0  0  0  0
  -28.4990  -20.8110   21.5220 C   0  0  0  0  0  3  0  0  0  0  0  0
  -28.0710  -23.2610   21.4240 C   0  0  0  0  0  3  0  0  0  0  0  0
  -29.1470  -20.7620   20.2680 C   0  0  0  0  0  0  0  0  0  0  0  0
  -28.6900  -23.4030   20.1680 C   0  0  0  0  0  0  0  0  0  0  0  0
  -29.2630  -22.1190   19.6310 C   0  0  0  0  0  0  0  0  0  0  0  0
  -29.4670  -19.2270   19.6720 C   0  0  0  0  0  2  0  0  0  0  0  0
  -30.2820  -17.9280   20.4120 C   0  0  0  0  0  2  0  0  0  0  0  0
  -30.8100  -15.1830   20.0550 C   0  0  0  0  0  0  0  0  0  0  0  0
  -30.6890  -12.7950   19.1690 C   0  0  0  0  0  2  0  0  0  0  0  0
  -29.7290  -12.7050   17.9590 C   0  0  0  0  0  2  0  0  0  0  0  0
  -28.2790  -12.4880   18.4310 C   0  0  0  0  0  2  0  0  0  0  0  0
  -27.8900  -13.4470   19.5850 C   0  0  0  0  0  3  0  0  0  0  0  0
  -28.9710  -13.5050   20.6850 C   0  0  0  0  0  2  0  0  0  0  0  0
  -30.2210  -13.9170   20.0330 N   0  0  0  0  0  0  0  0  0  0  0  0
  -32.0150  -15.2430   19.7860 O   0  0  0  0  0  0  0  0  0  0  0  0
  -30.0170  -16.3660   20.1930 N   0  0  0  0  0  0  0  0  0  0  0  0
  -29.0440  -16.1270   20.3150 H   0  0  0  0  0  0  0  0  0  0  0  0
  -25.5510  -14.0410   20.4230 C   0  0  0  0  0  0  0  0  0  0  0  0
  -24.4870  -13.2720   20.8130 C   0  0  0  0  0  0  0  0  0  0  0  0
  -24.9310  -11.9180   20.7380 C   0  0  0  0  0  0  0  0  0  0  0  0
  -26.5690  -13.1540   20.1270 N   0  0  0  0  0  0  0  0  0  0  0  0
  -26.2100  -11.8690   20.3830 N   0  0  0  0  0  0  0  0  0  0  0  0
  -24.1920  -10.6610   20.9240 C   0  0  0  0  0  0  0  0  0  0  0  0
  -24.5780   -9.7130   21.8970 C   0  0  0  0  0  3  0  0  0  0  0  0
  -23.8390   -8.5230   22.0700 C   0  0  0  0  0  3  0  0  0  0  0  0
  -22.7000   -8.2720   21.2690 C   0  0  0  0  0  0  0  0  0  0  0  0
  -22.3330   -9.2080   20.2850 C   0  0  0  0  0  3  0  0  0  0  0  0
  -23.0730  -10.3890   20.1120 C   0  0  0  0  0  3  0  0  0  0  0  0
  -21.9350   -7.1340   21.3480 O   0  0  0  0  0  0  0  0  0  0  0  0
  -21.7680   -6.4610   22.5320 C   0  0  0  0  0  0  0  0  0  0  0  0
  -21.1830   -7.0740   23.6610 C   0  0  0  0  0  3  0  0  0  0  0  0
  -20.9670   -6.3270   24.8360 C   0  0  0  0  0  3  0  0  0  0  0  0
  -21.3250   -4.9660   24.8810 C   0  0  0  0  0  0  0  0  0  0  0  0
  -21.9030   -4.3520   23.7560 C   0  0  0  0  0  3  0  0  0  0  0  0
  -22.1210   -5.0970   22.5840 C   0  0  0  0  0  0  0  0  0  0  0  0
  -22.6590   -4.4970   21.4950 F   0  0  0  0  0  0  0  0  0  0  0  0
  -21.1100   -4.2450   26.0050 F   0  0  0  0  0  0  0  0  0  0  0  0
  -23.1090  -13.7640   21.1400 C   0  0  0  0  0  0  0  0  0  0  0  0
  -22.4020  -13.0620   22.0190 N   0  0  0  0  0  0  0  0  0  0  0  0
  -22.6680  -14.8060   20.6540 O   0  0  0  0  0  0  0  0  0  0  0  0
  -22.7690  -12.2160   22.4270 H   0  0  0  0  0  0  0  0  0  0  0  0
  -21.4790  -13.3740   22.2870 H   0  0  0  0  0  0  0  0  0  0  0  0
  -25.7330  -15.4130   20.2700 N   0  0  0  0  0  0  0  0  0  0  0  0
  -24.9780  -16.0790   20.3970 H   0  0  0  0  0  0  0  0  0  0  0  0
  -26.5750  -15.8380   19.9020 H   0  0  0  0  0  0  0  0  0  0  0  0
  -30.1320  -22.2370   18.3920 C   0  0  0  0  0  2  0  0  0  0  0  0
  -31.5290  -22.1640   18.8170 N   0  0  0  0  0  0  0  0  0  0  0  0
  -31.4510  -22.1650   19.8300 H   0  0  0  0  0  0  0  0  0  0  0  0
  -32.1500  -20.8990   18.4100 C   0  0  0  0  0  2  0  0  0  0  0  0
  -34.0500  -20.2430   21.6270 C   0  0  0  0  0  2  0  0  0  0  0  0
  -32.8090  -20.0130   20.7650 C   0  0  0  0  0  2  0  0  0  0  0  0
  -34.7080  -21.4820   21.0030 C   0  0  0  0  0  2  0  0  0  0  0  0
  -33.2720  -20.4710   19.3750 C   0  0  0  0  0  3  0  0  0  0  0  0
  -34.2630  -21.5360   19.5930 N   0  0  0  0  0  4  0  0  0  0  0  0
  -35.0380  -21.4280   18.9600 H   0  0  0  0  0  0  0  0  0  0  0  0
  -33.8100  -22.4160   19.3970 H   0  0  0  0  0  0  0  0  0  0  0  0
  -28.5970  -24.8990   19.4360 C   0  0  0  0  0  2  0  0  0  0  0  0
  -28.4520  -26.3180   20.0890 O   0  0  0  0  0  0  0  0  0  0  0  0
  -24.6990  -31.8760   23.1190 C   0  0  0  0  0  0  0  0  0  0  0  0
  -27.3600  -27.2620   19.9820 C   0  0  0  0  0  0  0  0  0  0  0  0
  -23.5160  -30.4860   21.4600 C   0  0  0  0  0  3  0  0  0  0  0  0
  -24.9850  -28.9610   19.9950 C   0  0  0  0  0  0  0  0  0  0  0  0
  -26.0620  -30.8040   21.2830 C   0  0  0  0  0  2  0  0  0  0  0  0
  -26.1580  -29.4260   20.6030 C   0  0  0  0  0  0  0  0  0  0  0  0
  -27.3380  -28.5890   20.5830 C   0  0  0  0  0  3  0  0  0  0  0  0
  -26.1560  -26.8990   19.3410 C   0  0  0  0  0  3  0  0  0  0  0  0
  -24.9960  -27.7100   19.3550 C   0  0  0  0  0  3  0  0  0  0  0  0
  -23.7400  -29.8330   20.0680 C   0  0  0  0  0  2  0  0  0  0  0  0
  -24.7790  -31.0760   22.0090 N   0  0  0  0  0  0  0  0  0  0  0  0
  -23.6100  -32.1290   23.6570 O   0  0  0  0  0  0  0  0  0  0  0  0
  -22.8620  -29.4490   22.4100 C   0  0  0  0  0  0  0  0  0  0  0  0
  -21.5360  -29.2620   22.2940 N   0  0  0  0  0  0  0  0  0  0  0  0
  -23.5510  -28.8170   23.2160 O   0  0  0  0  0  0  0  0  0  0  0  0
  -21.0320  -29.8250   21.6230 H   0  0  0  0  0  0  0  0  0  0  0  0
  -18.1790  -27.9980   22.8110 C   0  0  0  0  0  0  0  0  0  0  0  0
  -20.7380  -28.2980   23.0560 C   0  0  0  0  0  3  0  0  0  0  0  0
  -20.8550  -26.8800   22.4540 C   0  0  0  0  0  2  0  0  0  0  0  0
  -19.7490  -26.5600   21.4440 C   0  0  0  0  0  2  0  0  0  0  0  0
  -18.3700  -26.6670   22.1030 C   0  0  0  0  0  2  0  0  0  0  0  0
  -19.2910  -28.7710   23.2440 C   0  0  0  0  0  0  0  0  0  0  0  0
  -19.0560  -30.0150   23.8690 C   0  0  0  0  0  3  0  0  0  0  0  0
  -17.7450  -30.4850   24.0680 C   0  0  0  0  0  3  0  0  0  0  0  0
  -16.6490  -29.7110   23.6510 C   0  0  0  0  0  3  0  0  0  0  0  0
  -16.8660  -28.4690   23.0260 C   0  0  0  0  0  3  0  0  0  0  0  0
  -25.9660  -32.5260   23.7550 C   0  0  0  0  0  3  0  0  0  0  0  0
  -25.6250  -33.9100   24.1240 N   0  0  0  0  0  0  0  0  0  0  0  0
  -25.9320  -34.9940   23.3990 C   0  0  0  0  0  0  0  0  0  0  0  0
  -26.5970  -34.9350   22.3630 O   0  0  0  0  0  0  0  0  0  0  0  0
  -25.0340  -34.0290   24.9340 H   0  0  0  0  0  0  0  0  0  0  0  0
  -24.1680  -36.7670   23.1130 C   0  0  0  0  0  1  0  0  0  0  0  0
  -25.4190  -36.3570   23.9060 C   0  0  0  0  0  3  0  0  0  0  0  0
  -27.5350  -37.2570   24.7700 C   0  0  0  0  0  1  0  0  0  0  0  0
  -26.4320  -37.4320   23.8280 N   0  0  0  0  0  0  0  0  0  0  0  0
  -26.0080  -38.3390   24.0060 H   0  0  0  0  0  0  0  0  0  0  0  0
  -26.5030  -31.7420   25.0150 C   0  0  1  0  0  0  0  0  0  0  0  0
  -25.4190  -31.4670   26.0820 C   0  0  0  0  0  1  0  0  0  0  0  0
  -27.1130  -30.3830   24.5970 C   0  0  0  0  0  1  0  0  0  0  0  0
  -27.6450  -32.5470   25.6840 C   0  0  0  0  0  1  0  0  0  0  0  0
  2  1  1  0
  3  1  2  0
  4  2  2  0
  5  3  1  0
  6  5  2  0
  6  4  1  0
  7  4  1  0
  7  8  1  0
  9 17  1  0
 10 15  1  0
 11 12  1  0
 11 10  1  0
 13 12  1  0
 13 22  1  0
 13 14  1  0
 15  9  1  0
 15 14  1  0
 16  9  2  0
 17 18  1  0
 17  8  1  0
 19 20  2  0
 20 39  1  0
 21 20  1  0
 21 24  1  0
 22 23  1  0
 22 19  1  0
 23 21  2  0
 24 25  1  0
 25 26  2  0
 27 30  1  0
 27 26  1  0
 28 27  2  0
 29 28  1  0
 29 24  2  0
 30 31  1  0
 31 36  2  0
 31 32  1  0
 32 33  2  0
 33 34  1  0
 34 38  1  0
 35 34  2  0
 36 35  1  0
 37 36  1  0
 39 40  1  0
 40 43  1  0
 40 42  1  0
 41 39  2  0
 44 45  1  0
 44 19  1  0
 46 44  1  0
 47 48  1  0
 47  6  1  0
 48 49  1  0
 50 48  1  0
 52 51  1  0
 53 51  1  0
 54 50  1  0
 54 55  1  0
 54 52  1  0
 55 53  1  0
 56 55  1  0
 57 55  1  0
 58 59  1  0
 58  5  1  0
 60 71  2  0
 61 59  1  0
 61 66  1  0
 62 70  1  0
 62 72  1  0
 63 69  1  0
 63 65  1  0
 64 70  1  0
 65 64  1  0
 66 65  2  0
 67 68  1  0
 67 61  2  0
 68 63  2  0
 69 62  1  0
 70 60  1  0
 72 74  2  0
 73 72  1  0
 75 73  1  0
 76 85  2  0
 76 81  1  0
 77 73  1  0
 77 81  1  0
 78 77  1  0
 79 80  1  0
 79 78  1  0
 80 76  1  0
 81 82  2  0
 82 83  1  0
 84 83  2  0
 85 84  1  0
 86 60  1  0
 86 87  1  0
 86 96  1  0
 87 90  1  0
 88 92  1  0
 88 87  1  0
 89 88  2  0
 92 91  1  0
 94 92  1  0
 94 95  1  0
 94 93  1  0
 96 99  1  1
 96 97  1  0
 98 96  1  0
M  ISO  4   9 100  17 100  58 101  59 101
M  END
>  <TORSDO>  (76) 
F 23

>  <SCORE>  (76) 
-12.940

>  <name>  (76) 
76

>  <ligand_id>  (76) 
76

>  <original_smiles>  (76) 
[H]c1c([H])c(C([H])([H])Oc2c([H])c([H])c3c(c2[H])C([H])([H])N(C(=O)C([H])(N([H])C(=O)C([H])(N([H])C([H])([H])[H])C([H])([H])[H])C(C([H])([H])[H])(C([H])([H])[H])C([H])([H])[H])C([H])(C(=O)N([H])C2([H])c4c([H])c([H])c([H])c([H])c4C([H])([H])C([H])([H])C2([H])[H])C3([H])[H])c(C([H])([H])N([H])C([H])([H])C2([H])C([H])([H])C([H])([H])C([H])([H])[N+]2([H])[H])c(C([H])([H])C([H])([H])N([H])C(=O)N2C([H])([H])C([H])([H])C([H])([H])C([H])(n3nc(-c4c([H])c([H])c(Oc5c([H])c([H])c(F)c([H])c5F)c([H])c4[H])c(C(=O)N([H])[H])c3N([H])[H])C2([H])[H])c1[H]

>  <smiles>  (76) 
[H]c1c([H])c(C([H])([H])Oc2c([H])c([H])c3c(c2[H])C([H])([H])N(C(=O)C([H])(N([H])C(=O)C([H])(N([H])C([H])([H])[H])C([H])([H])[H])C(C([H])([H])[H])(C([H])([H])[H])C([H])([H])[H])C([H])(C(=O)N([H])C2([H])c4c([H])c([H])c([H])c([H])c4C([H])([H])C([H])([H])C2([H])[H])C3([H])[H])c(C([H])([H])N([H])C([H])([H])C2([H])C([H])([H])C([H])([H])C([H])([H])[N+]2([H])[H])c(C([H])([H])C([H])([H])N([H])C(=O)N2C([H])([H])C([H])([H])C([H])([H])C([H])(n3nc(-c4c([H])c([H])c(Oc5c([H])c([H])c(F)c([H])c5F)c([H])c4[H])c(C(=O)N([H])[H])c3N([H])[H])C2([H])[H])c1[H]

$$$$
77:0:0
     RDKit          3D

 91 99  0  0  1  0  0  0  0  0999 V2000
  -28.2930  -22.2830   20.6770 C   0  0  0  0  0  2  0  0  0  0  0  0
  -30.4160  -22.0490   19.5920 C   0  0  0  0  0  2  0  0  0  0  0  0
  -29.1910  -21.1680   19.9880 C   0  0  0  0  0  3  0  0  0  0  0  0
  -28.6980  -23.6900   20.0620 C   0  0  0  0  0  3  0  0  0  0  0  0
  -30.1610  -23.4710   19.9900 N   0  0  0  0  0  4  0  0  0  0  0  0
  -30.6230  -24.1120   19.3630 H   0  0  0  0  0  0  0  0  0  0  0  0
  -30.5570  -23.5930   20.9100 H   0  0  0  0  0  0  0  0  0  0  0  0
  -29.5800  -19.9250   20.7690 N   0  0  0  0  0  0  0  0  0  0  0  0
  -29.1700  -19.9440   21.7000 H   0  0  0  0  0  0  0  0  0  0  0  0
  -29.4090  -18.5430   20.1700 C   0  0  0  0  0  3  0  0  0  0  0  0
  -30.1770  -17.3110   20.8830 C   0  0  0  0  0  3  0  0  0  0  0  0
  -30.5430  -14.7420   20.3770 C   0  0  0  0  0  0  0  0  0  0  0  0
  -30.3340  -12.4800   19.3350 C   0  0  0  0  0  2  0  0  0  0  0  0
  -29.3730  -12.5370   18.1260 C   0  0  0  0  0  2  0  0  0  0  0  0
  -27.9160  -12.3500   18.5860 C   0  0  0  0  0  2  0  0  0  0  0  0
  -27.5480  -13.2640   19.7840 C   0  0  0  0  0  3  0  0  0  0  0  0
  -28.6160  -13.1770   20.8960 C   0  0  0  0  0  2  0  0  0  0  0  0
  -29.9060  -13.5270   20.2890 N   0  0  0  0  0  0  0  0  0  0  0  0
  -31.7360  -14.8430   20.0800 O   0  0  0  0  0  0  0  0  0  0  0  0
  -29.7720  -15.8660   20.6110 N   0  0  0  0  0  0  0  0  0  0  0  0
  -28.7880  -15.6720   20.7280 H   0  0  0  0  0  0  0  0  0  0  0  0
  -25.1660  -13.8670   20.5280 C   0  0  0  0  0  0  0  0  0  0  0  0
  -24.0990  -13.0940   20.9010 C   0  0  0  0  0  0  0  0  0  0  0  0
  -24.5590  -11.7430   20.8680 C   0  0  0  0  0  0  0  0  0  0  0  0
  -26.2060  -12.9840   20.2870 N   0  0  0  0  0  0  0  0  0  0  0  0
  -25.8490  -11.7030   20.5560 N   0  0  0  0  0  0  0  0  0  0  0  0
  -23.8330  -10.4810   21.0580 C   0  0  0  0  0  0  0  0  0  0  0  0
  -24.2740   -9.5070   21.9800 C   0  0  0  0  0  3  0  0  0  0  0  0
  -23.5470   -8.3090   22.1590 C   0  0  0  0  0  3  0  0  0  0  0  0
  -22.3660   -8.0790   21.4130 C   0  0  0  0  0  0  0  0  0  0  0  0
  -21.9450   -9.0420   20.4800 C   0  0  0  0  0  3  0  0  0  0  0  0
  -22.6720  -10.2310   20.3010 C   0  0  0  0  0  3  0  0  0  0  0  0
  -21.6100   -6.9350   21.5020 O   0  0  0  0  0  0  0  0  0  0  0  0
  -21.5810   -6.1780   22.6450 C   0  0  0  0  0  0  0  0  0  0  0  0
  -21.1840   -6.7190   23.8870 C   0  0  0  0  0  3  0  0  0  0  0  0
  -21.1020   -5.8900   25.0240 C   0  0  0  0  0  3  0  0  0  0  0  0
  -21.4090   -4.5190   24.9190 C   0  0  0  0  0  0  0  0  0  0  0  0
  -21.8010   -3.9780   23.6820 C   0  0  0  0  0  3  0  0  0  0  0  0
  -21.8840   -4.8050   22.5480 C   0  0  0  0  0  0  0  0  0  0  0  0
  -22.2410   -4.2740   21.3540 F   0  0  0  0  0  0  0  0  0  0  0  0
  -21.3240   -3.7190   26.0080 F   0  0  0  0  0  0  0  0  0  0  0  0
  -22.7030  -13.5740   21.1730 C   0  0  0  0  0  0  0  0  0  0  0  0
  -21.9720  -12.8770   22.0370 N   0  0  0  0  0  0  0  0  0  0  0  0
  -22.2670  -14.6020   20.6570 O   0  0  0  0  0  0  0  0  0  0  0  0
  -22.3350  -12.0410   22.4730 H   0  0  0  0  0  0  0  0  0  0  0  0
  -21.0360  -13.1810   22.2640 H   0  0  0  0  0  0  0  0  0  0  0  0
  -25.3340  -15.2380   20.3490 N   0  0  0  0  0  0  0  0  0  0  0  0
  -24.5690  -15.8950   20.4670 H   0  0  0  0  0  0  0  0  0  0  0  0
  -26.1750  -15.6690   19.9890 H   0  0  0  0  0  0  0  0  0  0  0  0
  -28.2060  -25.0580   20.7920 C   0  0  0  0  0  2  0  0  0  0  0  0
  -28.3480  -26.4350   20.2100 O   0  0  0  0  0  0  0  0  0  0  0  0
  -24.5970  -31.8820   23.2430 C   0  0  0  0  0  0  0  0  0  0  0  0
  -27.2320  -27.2980   20.2100 C   0  0  0  0  0  0  0  0  0  0  0  0
  -23.4030  -30.4780   21.6010 C   0  0  0  0  0  3  0  0  0  0  0  0
  -24.8630  -28.9190   20.1880 C   0  0  0  0  0  0  0  0  0  0  0  0
  -25.9440  -30.7950   21.4250 C   0  0  0  0  0  2  0  0  0  0  0  0
  -26.0320  -29.4120   20.7840 C   0  0  0  0  0  0  0  0  0  0  0  0
  -27.2220  -28.6150   20.7750 C   0  0  0  0  0  3  0  0  0  0  0  0
  -26.0380  -26.8630   19.5950 C   0  0  0  0  0  3  0  0  0  0  0  0
  -24.8690  -27.6510   19.5860 C   0  0  0  0  0  3  0  0  0  0  0  0
  -23.6270  -29.7960   20.2270 C   0  0  0  0  0  2  0  0  0  0  0  0
  -24.6670  -31.0680   22.1480 N   0  0  0  0  0  0  0  0  0  0  0  0
  -23.5110  -32.1630   23.7700 O   0  0  0  0  0  0  0  0  0  0  0  0
  -22.7340  -29.4660   22.5610 C   0  0  0  0  0  0  0  0  0  0  0  0
  -21.4090  -29.2870   22.4280 N   0  0  0  0  0  0  0  0  0  0  0  0
  -23.4080  -28.8410   23.3840 O   0  0  0  0  0  0  0  0  0  0  0  0
  -20.9220  -29.8460   21.7400 H   0  0  0  0  0  0  0  0  0  0  0  0
  -18.0320  -28.0810   22.9120 C   0  0  0  0  0  0  0  0  0  0  0  0
  -20.5880  -28.3510   23.1970 C   0  0  0  0  0  3  0  0  0  0  0  0
  -20.6960  -26.9160   22.6270 C   0  0  0  0  0  2  0  0  0  0  0  0
  -19.6030  -26.5900   21.6040 C   0  0  0  0  0  2  0  0  0  0  0  0
  -18.2170  -26.7320   22.2400 C   0  0  0  0  0  2  0  0  0  0  0  0
  -19.1450  -28.8490   23.3450 C   0  0  0  0  0  0  0  0  0  0  0  0
  -18.9180  -30.1140   23.9300 C   0  0  0  0  0  3  0  0  0  0  0  0
  -17.6100  -30.6100   24.0890 C   0  0  0  0  0  3  0  0  0  0  0  0
  -16.5110  -29.8390   23.6700 C   0  0  0  0  0  3  0  0  0  0  0  0
  -16.7230  -28.5770   23.0870 C   0  0  0  0  0  3  0  0  0  0  0  0
  -25.8740  -32.5200   23.8710 C   0  0  0  0  0  3  0  0  0  0  0  0
  -26.3850  -31.7560   25.1560 C   0  0  1  0  0  0  0  0  0  0  0  0
  -25.2860  -31.5180   26.2190 C   0  0  0  0  0  1  0  0  0  0  0  0
  -26.9720  -30.3780   24.7730 C   0  0  0  0  0  1  0  0  0  0  0  0
  -27.5330  -32.5540   25.8190 C   0  0  0  0  0  1  0  0  0  0  0  0
  -25.5640  -33.9200   24.1900 N   0  0  0  0  0  0  0  0  0  0  0  0
  -25.9040  -34.9690   23.4300 C   0  0  0  0  0  0  0  0  0  0  0  0
  -26.5790  -34.8590   22.4030 O   0  0  0  0  0  0  0  0  0  0  0  0
  -24.9620  -34.0800   24.9860 H   0  0  0  0  0  0  0  0  0  0  0  0
  -24.1790  -36.7640   23.0630 C   0  0  0  0  0  1  0  0  0  0  0  0
  -25.4170  -36.3610   23.8800 C   0  0  0  0  0  3  0  0  0  0  0  0
  -27.5520  -37.2410   24.7110 C   0  0  0  0  0  1  0  0  0  0  0  0
  -26.4490  -37.4140   23.7700 N   0  0  0  0  0  0  0  0  0  0  0  0
  -26.0420  -38.3320   23.9310 H   0  0  0  0  0  0  0  0  0  0  0  0
  2  3  1  0
  2  5  1  0
  3  1  1  0
  3  8  1  0
  4  1  1  0
  4 50  1  0
  5  4  1  0
  5  7  1  0
  6  5  1  0
  8  9  1  0
 10  8  1  0
 10 11  2  0
 12 20  1  0
 13 18  1  0
 14 15  1  0
 14 13  1  0
 16 15  1  0
 16 25  1  0
 16 17  1  0
 18 12  1  0
 18 17  1  0
 19 12  2  0
 20 21  1  0
 20 11  1  0
 22 23  2  0
 23 42  1  0
 24 23  1  0
 24 27  1  0
 25 22  1  0
 25 26  1  0
 26 24  2  0
 27 28  1  0
 28 29  2  0
 30 33  1  0
 30 29  1  0
 31 30  2  0
 32 31  1  0
 32 27  2  0
 33 34  1  0
 34 35  1  0
 35 36  2  0
 37 36  1  0
 37 41  1  0
 38 37  2  0
 39 34  2  0
 39 38  1  0
 40 39  1  0
 42 43  1  0
 43 46  1  0
 43 45  1  0
 44 42  2  0
 47 48  1  0
 47 22  1  0
 49 47  1  0
 51 53  1  0
 51 50  1  0
 52 63  2  0
 53 58  1  0
 54 62  1  0
 54 64  1  0
 55 61  1  0
 55 57  1  0
 56 62  1  0
 57 56  1  0
 58 57  2  0
 59 53  2  0
 60 59  1  0
 60 55  2  0
 61 54  1  0
 62 52  1  0
 64 66  2  0
 65 64  1  0
 67 65  1  0
 68 77  2  0
 68 73  1  0
 69 65  1  0
 69 73  1  0
 70 69  1  0
 71 72  1  0
 71 70  1  0
 72 68  1  0
 73 74  2  0
 74 75  1  0
 76 75  2  0
 77 76  1  0
 78 52  1  0
 78 83  1  0
 78 79  1  0
 79 82  1  1
 79 80  1  0
 81 79  1  0
 83 86  1  0
 84 88  1  0
 84 83  1  0
 85 84  2  0
 88 87  1  0
 90 88  1  0
 90 91  1  0
 90 89  1  0
M  ISO  4  12 100  20 100  50 101  51 101
M  END
>  <TORSDO>  (77) 
F 20

>  <SCORE>  (77) 
-13.770

>  <name>  (77) 
77

>  <ligand_id>  (77) 
77

>  <original_smiles>  (77) 
[H]c1c([H])c([H])c2c(c1[H])C([H])([H])C([H])([H])C([H])([H])C2([H])N([H])C(=O)C1([H])N(C(=O)C([H])(N([H])C(=O)C([H])(N([H])C([H])([H])[H])C([H])([H])[H])C(C([H])([H])[H])(C([H])([H])[H])C([H])([H])[H])C([H])([H])c2c([H])c(OC([H])([H])C3([H])C([H])([H])C([H])(N([H])C([H])([H])C([H])([H])N([H])C(=O)N4C([H])([H])C([H])([H])C([H])([H])C([H])(n5nc(-c6c([H])c([H])c(Oc7c([H])c([H])c(F)c([H])c7F)c([H])c6[H])c(C(=O)N([H])[H])c5N([H])[H])C4([H])[H])C([H])([H])[N+]3([H])[H])c([H])c([H])c2C1([H])[H]

>  <smiles>  (77) 
[H]c1c([H])c([H])c2c(c1[H])C([H])([H])C([H])([H])C([H])([H])C2([H])N([H])C(=O)C1([H])N(C(=O)C([H])(N([H])C(=O)C([H])(N([H])C([H])([H])[H])C([H])([H])[H])C(C([H])([H])[H])(C([H])([H])[H])C([H])([H])[H])C([H])([H])c2c([H])c(OC([H])([H])C3([H])C([H])([H])C([H])(N([H])C([H])([H])C([H])([H])N([H])C(=O)N4C([H])([H])C([H])([H])C([H])([H])C([H])(n5nc(-c6c([H])c([H])c(Oc7c([H])c([H])c(F)c([H])c7F)c([H])c6[H])c(C(=O)N([H])[H])c5N([H])[H])C4([H])[H])C([H])([H])[N+]3([H])[H])c([H])c([H])c2C1([H])[H]

$$$$
78:0:0
     RDKit          3D

 94103  0  0  1  0  0  0  0  0999 V2000
  -28.6030  -23.2110   18.3430 C   0  0  0  0  0  2  0  0  0  0  0  0
  -29.1140  -21.7290   18.2770 C   0  0  0  0  0  2  0  0  0  0  0  0
  -29.3320  -22.4870   20.4820 C   0  0  0  0  0  2  0  0  0  0  0  0
  -29.0960  -23.8500   19.6600 C   0  0  0  0  0  3  0  0  0  0  0  0
  -29.8420  -21.4050   19.5330 N   0  0  1  0  0  4  0  0  0  0  0  0
  -30.7900  -21.6670   19.3130 H   0  0  0  0  0  0  0  0  0  0  0  0
  -29.9330  -19.8850   19.9180 C   0  0  0  0  0  2  0  0  0  0  0  0
  -32.3150  -20.1810   20.5370 C   0  0  0  0  0  3  0  0  0  0  0  0
  -33.6700  -19.8960   20.6970 C   0  0  0  0  0  3  0  0  0  0  0  0
  -31.3720  -19.2110   20.1020 C   0  0  0  0  0  0  0  0  0  0  0  0
  -34.0880  -18.5970   20.4600 C   0  0  0  0  0  0  0  0  0  0  0  0
  -31.8960  -17.8190   19.9140 C   0  0  0  0  0  0  0  0  0  0  0  0
  -35.5520  -18.2170   20.5580 C   0  0  0  0  0  1  0  0  0  0  0  0
  -33.2270  -17.6270   20.1250 N   0  0  0  0  0  0  0  0  0  0  0  0
  -31.8330  -15.2640   19.4780 C   0  0  0  0  0  0  0  0  0  0  0  0
  -31.5110  -12.8530   18.8520 C   0  0  0  0  0  2  0  0  0  0  0  0
  -30.5240  -12.6950   17.6780 C   0  0  0  0  0  2  0  0  0  0  0  0
  -29.0830  -12.5980   18.2060 C   0  0  0  0  0  2  0  0  0  0  0  0
  -28.7590  -13.6910   19.2600 C   0  0  0  0  0  3  0  0  0  0  0  0
  -29.8720  -13.8390   20.3220 C   0  0  0  0  0  2  0  0  0  0  0  0
  -31.1260  -14.0790   19.6020 N   0  0  0  0  0  0  0  0  0  0  0  0
  -32.9880  -15.1820   19.0450 O   0  0  0  0  0  0  0  0  0  0  0  0
  -31.2190  -16.5260   19.5890 N   0  0  0  0  0  0  0  0  0  0  0  0
  -30.2130  -16.5350   19.6390 H   0  0  0  0  0  0  0  0  0  0  0  0
  -26.5110  -14.4360   20.2340 C   0  0  0  0  0  0  0  0  0  0  0  0
  -25.4160  -13.7360   20.6600 C   0  0  0  0  0  0  0  0  0  0  0  0
  -25.7510  -12.3530   20.5260 C   0  0  0  0  0  0  0  0  0  0  0  0
  -27.4460  -13.4850   19.8620 N   0  0  0  0  0  0  0  0  0  0  0  0
  -27.0030  -12.2230   20.1020 N   0  0  0  0  0  0  0  0  0  0  0  0
  -24.9310  -11.1500   20.7170 C   0  0  0  0  0  0  0  0  0  0  0  0
  -25.2450  -10.1900   21.7040 C   0  0  0  0  0  3  0  0  0  0  0  0
  -24.4270   -9.0530   21.8820 C   0  0  0  0  0  3  0  0  0  0  0  0
  -23.2820   -8.8680   21.0720 C   0  0  0  0  0  0  0  0  0  0  0  0
  -22.9880   -9.8140   20.0740 C   0  0  0  0  0  3  0  0  0  0  0  0
  -23.8060  -10.9420   19.8950 C   0  0  0  0  0  3  0  0  0  0  0  0
  -22.4450   -7.7810   21.1560 O   0  0  0  0  0  0  0  0  0  0  0  0
  -22.1560   -7.1870   22.3590 C   0  0  0  0  0  0  0  0  0  0  0  0
  -21.5370   -7.8960   23.4120 C   0  0  0  0  0  3  0  0  0  0  0  0
  -21.1950   -7.2290   24.6050 C   0  0  0  0  0  3  0  0  0  0  0  0
  -21.4630   -5.8530   24.7460 C   0  0  0  0  0  0  0  0  0  0  0  0
  -22.0750   -5.1450   23.6960 C   0  0  0  0  0  3  0  0  0  0  0  0
  -22.4170   -5.8090   22.5050 C   0  0  0  0  0  0  0  0  0  0  0  0
  -22.9860   -5.1170   21.4900 F   0  0  0  0  0  0  0  0  0  0  0  0
  -21.1280   -5.2100   25.8890 F   0  0  0  0  0  0  0  0  0  0  0  0
  -24.0940  -14.3170   21.0730 C   0  0  0  0  0  0  0  0  0  0  0  0
  -23.3950  -13.6590   21.9910 N   0  0  0  0  0  0  0  0  0  0  0  0
  -23.6980  -15.3890   20.6190 O   0  0  0  0  0  0  0  0  0  0  0  0
  -23.7300  -12.7890   22.3790 H   0  0  0  0  0  0  0  0  0  0  0  0
  -22.5120  -14.0310   22.3110 H   0  0  0  0  0  0  0  0  0  0  0  0
  -26.7800  -15.7960   20.1040 N   0  0  0  0  0  0  0  0  0  0  0  0
  -26.0800  -16.5020   20.3010 H   0  0  0  0  0  0  0  0  0  0  0  0
  -27.6180  -16.1750   19.6820 H   0  0  0  0  0  0  0  0  0  0  0  0
  -28.1900  -25.0740   20.2700 C   0  0  0  0  0  2  0  0  0  0  0  0
  -28.4450  -26.5580   20.0640 O   0  0  0  0  0  0  0  0  0  0  0  0
  -24.5690  -31.8800   23.2100 C   0  0  0  0  0  0  0  0  0  0  0  0
  -27.3350  -27.4430   20.0490 C   0  0  0  0  0  0  0  0  0  0  0  0
  -23.4250  -30.4820   21.5330 C   0  0  0  0  0  3  0  0  0  0  0  0
  -24.9330  -29.0230   20.0610 C   0  0  0  0  0  0  0  0  0  0  0  0
  -25.9550  -30.8840   21.3680 C   0  0  0  0  0  2  0  0  0  0  0  0
  -26.0870  -29.5210   20.6830 C   0  0  0  0  0  0  0  0  0  0  0  0
  -27.2940  -28.7430   20.6660 C   0  0  0  0  0  3  0  0  0  0  0  0
  -26.1640  -27.0300   19.3820 C   0  0  0  0  0  3  0  0  0  0  0  0
  -24.9780  -27.7890   19.3960 C   0  0  0  0  0  3  0  0  0  0  0  0
  -23.6680  -29.8560   20.1320 C   0  0  0  0  0  2  0  0  0  0  0  0
  -24.6680  -31.1000   22.0940 N   0  0  0  0  0  0  0  0  0  0  0  0
  -23.4730  -32.1020   23.7490 O   0  0  0  0  0  0  0  0  0  0  0  0
  -22.7970  -29.4170   22.4640 C   0  0  0  0  0  0  0  0  0  0  0  0
  -21.4820  -29.1750   22.3160 N   0  0  0  0  0  0  0  0  0  0  0  0
  -23.4930  -28.8090   23.2830 O   0  0  0  0  0  0  0  0  0  0  0  0
  -20.9750  -29.7260   21.6370 H   0  0  0  0  0  0  0  0  0  0  0  0
  -18.1730  -27.7650   22.7160 C   0  0  0  0  0  0  0  0  0  0  0  0
  -20.7020  -28.1810   23.0570 C   0  0  0  0  0  3  0  0  0  0  0  0
  -20.9070  -26.7630   22.4760 C   0  0  0  0  0  2  0  0  0  0  0  0
  -19.8560  -26.3810   21.4300 C   0  0  0  0  0  2  0  0  0  0  0  0
  -18.4510  -26.4350   22.0360 C   0  0  0  0  0  2  0  0  0  0  0  0
  -19.2300  -28.5920   23.1800 C   0  0  0  0  0  0  0  0  0  0  0  0
  -18.9160  -29.8330   23.7750 C   0  0  0  0  0  3  0  0  0  0  0  0
  -17.5790  -30.2500   23.9090 C   0  0  0  0  0  3  0  0  0  0  0  0
  -16.5360  -29.4210   23.4600 C   0  0  0  0  0  3  0  0  0  0  0  0
  -16.8340  -28.1800   22.8690 C   0  0  0  0  0  3  0  0  0  0  0  0
  -25.8230  -32.5480   23.8530 C   0  0  0  0  0  3  0  0  0  0  0  0
  -26.3320  -31.7980   25.1450 C   0  0  1  0  0  0  0  0  0  0  0  0
  -25.2180  -31.5240   26.1850 C   0  0  0  0  0  1  0  0  0  0  0  0
  -26.9750  -30.4420   24.7730 C   0  0  0  0  0  1  0  0  0  0  0  0
  -27.4360  -32.6340   25.8330 C   0  0  0  0  0  1  0  0  0  0  0  0
  -25.4750  -33.9400   24.1700 N   0  0  0  0  0  0  0  0  0  0  0  0
  -25.8290  -35.0030   23.4350 C   0  0  0  0  0  0  0  0  0  0  0  0
  -26.5490  -34.9150   22.4370 O   0  0  0  0  0  0  0  0  0  0  0  0
  -24.8380  -34.0790   24.9410 H   0  0  0  0  0  0  0  0  0  0  0  0
  -24.0910  -36.7730   23.0070 C   0  0  0  0  0  1  0  0  0  0  0  0
  -25.2980  -36.3810   23.8750 C   0  0  0  0  0  3  0  0  0  0  0  0
  -27.3770  -37.2950   24.8070 C   0  0  0  0  0  1  0  0  0  0  0  0
  -26.3180  -37.4500   23.8130 N   0  0  0  0  0  0  0  0  0  0  0  0
  -25.8910  -38.3630   23.9470 H   0  0  0  0  0  0  0  0  0  0  0  0
  1  4  1  0
  2  1  1  0
  2  5  1  0
  4 53  1  0
  4  3  1  0
  5  7  1  0
  5  3  1  0
  5  6  1  6
  7 10  1  0
  8  9  1  0
 10  8  2  0
 11 13  1  0
 11  9  2  0
 12 10  1  0
 12 14  2  0
 14 11  1  0
 15 23  1  0
 15 21  1  0
 16 21  1  0
 17 18  1  0
 17 16  1  0
 19 18  1  0
 19 28  1  0
 19 20  1  0
 21 20  1  0
 22 15  2  0
 23 24  1  0
 23 12  1  0
 25 26  2  0
 26 45  1  0
 27 26  1  0
 27 30  1  0
 28 29  1  0
 28 25  1  0
 29 27  2  0
 30 31  1  0
 31 32  2  0
 33 36  1  0
 33 32  1  0
 34 33  2  0
 35 34  1  0
 35 30  2  0
 36 37  1  0
 37 42  2  0
 37 38  1  0
 38 39  2  0
 39 40  1  0
 40 44  1  0
 41 40  2  0
 42 41  1  0
 43 42  1  0
 45 46  1  0
 46 49  1  0
 46 48  1  0
 47 45  2  0
 50 25  1  0
 50 51  1  0
 52 50  1  0
 54 53  1  0
 55 66  2  0
 56 54  1  0
 56 61  1  0
 57 65  1  0
 57 67  1  0
 58 64  1  0
 58 60  1  0
 59 65  1  0
 60 59  1  0
 61 60  2  0
 62 63  1  0
 62 56  2  0
 63 58  2  0
 64 57  1  0
 65 55  1  0
 67 69  2  0
 68 67  1  0
 70 68  1  0
 71 80  2  0
 71 76  1  0
 72 68  1  0
 72 76  1  0
 73 72  1  0
 74 75  1  0
 74 73  1  0
 75 71  1  0
 76 77  2  0
 77 78  1  0
 79 78  2  0
 80 79  1  0
 81 55  1  0
 81 86  1  0
 81 82  1  0
 82 85  1  1
 82 83  1  0
 84 82  1  0
 86 89  1  0
 87 91  1  0
 87 86  1  0
 88 87  2  0
 91 90  1  0
 93 91  1  0
 93 94  1  0
 93 92  1  0
M  ISO  4  15 100  23 100  53 101  54 101
M  END
>  <TORSDO>  (78) 
F 19

>  <SCORE>  (78) 
-12.126

>  <name>  (78) 
78

>  <ligand_id>  (78) 
78

>  <original_smiles>  (78) 
[H]c1c(C([H])([H])[H])nc(N([H])C(=O)N2C([H])([H])C([H])([H])C([H])([H])C([H])(n3nc(-c4c([H])c([H])c(Oc5c([H])c([H])c(F)c([H])c5F)c([H])c4[H])c(C(=O)N([H])[H])c3N([H])[H])C2([H])[H])c(C([H])([H])[N+]2([H])C([H])([H])C([H])([H])C([H])(C([H])([H])Oc3c([H])c([H])c4c(c3[H])C([H])([H])N(C(=O)C([H])(N([H])C(=O)C([H])(N([H])C([H])([H])[H])C([H])([H])[H])C(C([H])([H])[H])(C([H])([H])[H])C([H])([H])[H])C([H])(C(=O)N([H])C3([H])c5c([H])c([H])c([H])c([H])c5C([H])([H])C([H])([H])C3([H])[H])C4([H])[H])C2([H])[H])c1[H]

>  <smiles>  (78) 
[H]c1c(C([H])([H])[H])nc(N([H])C(=O)N2C([H])([H])C([H])([H])C([H])([H])C([H])(n3nc(-c4c([H])c([H])c(Oc5c([H])c([H])c(F)c([H])c5F)c([H])c4[H])c(C(=O)N([H])[H])c3N([H])[H])C2([H])[H])c(C([H])([H])[N+]2([H])C([H])([H])C([H])([H])C([H])(C([H])([H])Oc3c([H])c([H])c4c(c3[H])C([H])([H])N(C(=O)C([H])(N([H])C(=O)C([H])(N([H])C([H])([H])[H])C([H])([H])[H])C(C([H])([H])[H])(C([H])([H])[H])C([H])([H])[H])C([H])(C(=O)N([H])C3([H])c5c([H])c([H])c([H])c([H])c5C([H])([H])C([H])([H])C3([H])[H])C4([H])[H])C2([H])[H])c1[H]

$$$$
79:0:0
     RDKit          3D

 92101  0  0  1  0  0  0  0  0999 V2000
  -29.4220  -24.1670   20.9630 C   0  0  0  0  0  2  0  0  0  0  0  0
  -28.6690  -22.9220   20.4150 C   0  0  0  0  0  3  0  0  0  0  0  0
  -28.1530  -24.9990   20.6190 C   0  0  0  0  0  3  0  0  0  0  0  0
  -28.0030  -23.9640   19.5570 N   0  0  0  0  0  4  0  0  0  0  0  0
  -27.0480  -23.7440   19.3300 H   0  0  0  0  0  0  0  0  0  0  0  0
  -28.5480  -24.1920   18.7430 H   0  0  0  0  0  0  0  0  0  0  0  0
  -28.3170  -26.4130   20.1300 O   0  0  0  0  0  0  0  0  0  0  0  0
  -24.6300  -31.8810   23.2110 C   0  0  0  0  0  0  0  0  0  0  0  0
  -27.2020  -27.2770   20.1440 C   0  0  0  0  0  0  0  0  0  0  0  0
  -23.4110  -30.4830   21.5810 C   0  0  0  0  0  3  0  0  0  0  0  0
  -24.8510  -28.9210   20.1480 C   0  0  0  0  0  0  0  0  0  0  0  0
  -25.9540  -30.7840   21.3850 C   0  0  0  0  0  2  0  0  0  0  0  0
  -26.0270  -29.4010   20.7400 C   0  0  0  0  0  0  0  0  0  0  0  0
  -27.2100  -28.5950   20.7140 C   0  0  0  0  0  3  0  0  0  0  0  0
  -26.0000  -26.8520   19.5460 C   0  0  0  0  0  3  0  0  0  0  0  0
  -24.8430  -27.6580   19.5390 C   0  0  0  0  0  3  0  0  0  0  0  0
  -23.6170  -29.7990   20.2040 C   0  0  0  0  0  2  0  0  0  0  0  0
  -24.6840  -31.0660   22.1150 N   0  0  0  0  0  0  0  0  0  0  0  0
  -23.5500  -32.1670   23.7480 O   0  0  0  0  0  0  0  0  0  0  0  0
  -22.7510  -29.4700   22.5500 C   0  0  0  0  0  0  0  0  0  0  0  0
  -21.4240  -29.2980   22.4300 N   0  0  0  0  0  0  0  0  0  0  0  0
  -23.4330  -28.8460   23.3680 O   0  0  0  0  0  0  0  0  0  0  0  0
  -20.9360  -29.8540   21.7420 H   0  0  0  0  0  0  0  0  0  0  0  0
  -18.0480  -28.0910   22.9290 C   0  0  0  0  0  0  0  0  0  0  0  0
  -20.6050  -28.3640   23.2050 C   0  0  0  0  0  3  0  0  0  0  0  0
  -20.7160  -26.9290   22.6380 C   0  0  0  0  0  2  0  0  0  0  0  0
  -19.6180  -26.5900   21.6250 C   0  0  0  0  0  2  0  0  0  0  0  0
  -18.2320  -26.7360   22.2640 C   0  0  0  0  0  2  0  0  0  0  0  0
  -19.1630  -28.8590   23.3560 C   0  0  0  0  0  0  0  0  0  0  0  0
  -18.9380  -30.1260   23.9370 C   0  0  0  0  0  3  0  0  0  0  0  0
  -17.6310  -30.6220   24.1000 C   0  0  0  0  0  3  0  0  0  0  0  0
  -16.5300  -29.8490   23.6930 C   0  0  0  0  0  3  0  0  0  0  0  0
  -16.7400  -28.5870   23.1100 C   0  0  0  0  0  3  0  0  0  0  0  0
  -25.9170  -32.5160   23.8240 C   0  0  0  0  0  3  0  0  0  0  0  0
  -25.6020  -33.9110   24.1670 N   0  0  0  0  0  0  0  0  0  0  0  0
  -25.9210  -34.9720   23.4140 C   0  0  0  0  0  0  0  0  0  0  0  0
  -26.5810  -34.8800   22.3750 O   0  0  0  0  0  0  0  0  0  0  0  0
  -25.0210  -34.0530   24.9790 H   0  0  0  0  0  0  0  0  0  0  0  0
  -24.1820  -36.7650   23.0990 C   0  0  0  0  0  1  0  0  0  0  0  0
  -25.4360  -36.3550   23.8900 C   0  0  0  0  0  3  0  0  0  0  0  0
  -27.5800  -37.2410   24.6990 C   0  0  0  0  0  1  0  0  0  0  0  0
  -26.4630  -37.4150   23.7730 N   0  0  0  0  0  0  0  0  0  0  0  0
  -26.0570  -38.3320   23.9390 H   0  0  0  0  0  0  0  0  0  0  0  0
  -26.4440  -31.7430   25.0940 C   0  0  1  0  0  0  0  0  0  0  0  0
  -25.3600  -31.5060   26.1710 C   0  0  0  0  0  1  0  0  0  0  0  0
  -27.0230  -30.3640   24.6970 C   0  0  0  0  0  1  0  0  0  0  0  0
  -27.6000  -32.5360   25.7480 C   0  0  0  0  0  1  0  0  0  0  0  0
  -29.3880  -21.6880   19.6860 C   0  0  0  0  0  2  0  0  0  0  0  0
  -28.3990  -17.8850   20.1080 C   0  0  0  0  0  2  0  0  0  0  0  0
  -30.7370  -18.1650   20.8040 C   0  0  0  0  0  2  0  0  0  0  0  0
  -28.4180  -19.3700   19.5720 C   0  0  0  0  0  2  0  0  0  0  0  0
  -30.6690  -19.6270   20.2170 C   0  0  0  0  0  2  0  0  0  0  0  0
  -29.7860  -17.1620   20.0890 C   0  0  0  0  0  3  0  0  0  0  0  0
  -29.3380  -20.2930   20.2870 N   0  0  0  0  0  0  0  0  0  0  0  0
  -30.5700  -14.6720   20.3830 C   0  0  0  0  0  0  0  0  0  0  0  0
  -30.3870  -12.4160   19.3700 C   0  0  0  0  0  2  0  0  0  0  0  0
  -29.4440  -12.5300   18.1480 C   0  0  0  0  0  2  0  0  0  0  0  0
  -27.9690  -12.3820   18.5770 C   0  0  0  0  0  2  0  0  0  0  0  0
  -27.6100  -13.2470   19.8120 C   0  0  0  0  0  3  0  0  0  0  0  0
  -28.6670  -13.1010   20.9320 C   0  0  0  0  0  2  0  0  0  0  0  0
  -29.9720  -13.4400   20.3500 N   0  0  0  0  0  0  0  0  0  0  0  0
  -31.7260  -14.8330   19.9940 O   0  0  0  0  0  0  0  0  0  0  0  0
  -29.7450  -15.7420   20.6290 N   0  0  0  0  0  0  0  0  0  0  0  0
  -28.8570  -15.4630   21.0160 H   0  0  0  0  0  0  0  0  0  0  0  0
  -25.2160  -13.8580   20.5260 C   0  0  0  0  0  0  0  0  0  0  0  0
  -24.1420  -13.0870   20.8880 C   0  0  0  0  0  0  0  0  0  0  0  0
  -24.6020  -11.7350   20.8620 C   0  0  0  0  0  0  0  0  0  0  0  0
  -26.2590  -12.9730   20.2960 N   0  0  0  0  0  0  0  0  0  0  0  0
  -25.8930  -11.6920   20.5560 N   0  0  0  0  0  0  0  0  0  0  0  0
  -23.8740  -10.4730   21.0550 C   0  0  0  0  0  0  0  0  0  0  0  0
  -24.3130   -9.5010   21.9790 C   0  0  0  0  0  3  0  0  0  0  0  0
  -23.5870   -8.3030   22.1580 C   0  0  0  0  0  3  0  0  0  0  0  0
  -22.4040   -8.0720   21.4170 C   0  0  0  0  0  0  0  0  0  0  0  0
  -21.9830   -9.0370   20.4850 C   0  0  0  0  0  3  0  0  0  0  0  0
  -22.7100  -10.2260   20.3040 C   0  0  0  0  0  3  0  0  0  0  0  0
  -21.6490   -6.9290   21.5090 O   0  0  0  0  0  0  0  0  0  0  0  0
  -21.6280   -6.1710   22.6520 C   0  0  0  0  0  0  0  0  0  0  0  0
  -21.2500   -6.7130   23.9000 C   0  0  0  0  0  3  0  0  0  0  0  0
  -21.1710   -5.8800   25.0340 C   0  0  0  0  0  3  0  0  0  0  0  0
  -21.4600   -4.5070   24.9220 C   0  0  0  0  0  0  0  0  0  0  0  0
  -21.8330   -3.9650   23.6800 C   0  0  0  0  0  3  0  0  0  0  0  0
  -21.9130   -4.7950   22.5460 C   0  0  0  0  0  0  0  0  0  0  0  0
  -22.2500   -4.2620   21.3470 F   0  0  0  0  0  0  0  0  0  0  0  0
  -21.3810   -3.7060   26.0100 F   0  0  0  0  0  0  0  0  0  0  0  0
  -22.7440  -13.5720   21.1510 C   0  0  0  0  0  0  0  0  0  0  0  0
  -22.0110  -12.8800   22.0190 N   0  0  0  0  0  0  0  0  0  0  0  0
  -22.3090  -14.5940   20.6250 O   0  0  0  0  0  0  0  0  0  0  0  0
  -22.3710  -12.0570   22.4780 H   0  0  0  0  0  0  0  0  0  0  0  0
  -21.0750  -13.1930   22.2380 H   0  0  0  0  0  0  0  0  0  0  0  0
  -25.3820  -15.2280   20.3450 N   0  0  0  0  0  0  0  0  0  0  0  0
  -24.6030  -15.8710   20.4420 H   0  0  0  0  0  0  0  0  0  0  0  0
  -26.2150  -15.6680   19.9750 H   0  0  0  0  0  0  0  0  0  0  0  0
  2 48  1  0
  2  1  1  0
  3  7  1  0
  3  1  1  0
  4  2  1  0
  4  3  1  0
  5  4  1  0
  6  4  1  0
  7  9  1  0
  8 19  2  0
  9 14  1  0
 10 18  1  0
 10 20  1  0
 11 17  1  0
 11 13  1  0
 12 18  1  0
 13 12  1  0
 14 13  2  0
 15  9  2  0
 16 15  1  0
 16 11  2  0
 17 10  1  0
 18  8  1  0
 20 22  2  0
 21 20  1  0
 23 21  1  0
 24 33  2  0
 24 29  1  0
 25 21  1  0
 25 29  1  0
 26 25  1  0
 27 28  1  0
 27 26  1  0
 28 24  1  0
 29 30  2  0
 30 31  1  0
 32 31  2  0
 33 32  1  0
 34  8  1  0
 34 35  1  0
 34 44  1  0
 35 38  1  0
 36 40  1  0
 36 35  1  0
 37 36  2  0
 40 39  1  0
 42 40  1  0
 42 43  1  0
 42 41  1  0
 44 47  1  1
 44 45  1  0
 46 44  1  0
 48 54  1  0
 51 49  1  0
 51 54  1  0
 52 54  1  0
 52 50  1  0
 53 49  1  0
 53 63  1  0
 53 50  1  0
 55 63  1  0
 56 61  1  0
 57 58  1  0
 57 56  1  0
 59 58  1  0
 59 68  1  0
 59 60  1  0
 61 55  1  0
 61 60  1  0
 62 55  2  0
 63 64  1  0
 65 66  2  0
 66 85  1  0
 67 66  1  0
 67 70  1  0
 68 65  1  0
 68 69  1  0
 69 67  2  0
 70 71  1  0
 71 72  2  0
 73 76  1  0
 73 72  1  0
 74 73  2  0
 75 74  1  0
 75 70  2  0
 76 77  1  0
 77 78  1  0
 78 79  2  0
 80 79  1  0
 80 84  1  0
 81 80  2  0
 82 77  2  0
 82 81  1  0
 83 82  1  0
 85 86  1  0
 86 89  1  0
 86 88  1  0
 87 85  2  0
 90 91  1  0
 90 65  1  0
 92 90  1  0
M  ISO  4   3 101   7 101  55 100  63 100
M  END
>  <TORSDO>  (79) 
F 18

>  <SCORE>  (79) 
-14.760

>  <name>  (79) 
79

>  <ligand_id>  (79) 
79

>  <original_smiles>  (79) 
[H]c1c([H])c([H])c2c(c1[H])C([H])([H])C([H])([H])C([H])([H])C2([H])N([H])C(=O)C1([H])N(C(=O)C([H])(N([H])C(=O)C([H])(N([H])C([H])([H])[H])C([H])([H])[H])C(C([H])([H])[H])(C([H])([H])[H])C([H])([H])[H])C([H])([H])c2c([H])c(OC3([H])C([H])([H])C([H])(C([H])([H])N4C([H])([H])C([H])([H])C([H])(N([H])C(=O)N5C([H])([H])C([H])([H])C([H])([H])C([H])(n6nc(-c7c([H])c([H])c(Oc8c([H])c([H])c(F)c([H])c8F)c([H])c7[H])c(C(=O)N([H])[H])c6N([H])[H])C5([H])[H])C([H])([H])C4([H])[H])[N+]3([H])[H])c([H])c([H])c2C1([H])[H]

>  <smiles>  (79) 
[H]c1c([H])c([H])c2c(c1[H])C([H])([H])C([H])([H])C([H])([H])C2([H])N([H])C(=O)C1([H])N(C(=O)C([H])(N([H])C(=O)C([H])(N([H])C([H])([H])[H])C([H])([H])[H])C(C([H])([H])[H])(C([H])([H])[H])C([H])([H])[H])C([H])([H])c2c([H])c(OC3([H])C([H])([H])C([H])(C([H])([H])N4C([H])([H])C([H])([H])C([H])(N([H])C(=O)N5C([H])([H])C([H])([H])C([H])([H])C([H])(n6nc(-c7c([H])c([H])c(Oc8c([H])c([H])c(F)c([H])c8F)c([H])c7[H])c(C(=O)N([H])[H])c6N([H])[H])C5([H])[H])C([H])([H])C4([H])[H])[N+]3([H])[H])c([H])c([H])c2C1([H])[H]

$$$$
80:0:0
     RDKit          3D

 94102  0  0  1  0  0  0  0  0999 V2000
  -28.9470  -24.0450   20.8560 C   0  0  0  0  0  3  0  0  0  0  0  0
  -28.9270  -22.6820   21.2190 C   0  0  0  0  0  3  0  0  0  0  0  0
  -28.5290  -24.4590   19.5720 C   0  0  0  0  0  0  0  0  0  0  0  0
  -28.0870  -23.4170   18.7010 C   0  0  0  0  0  0  0  0  0  0  0  0
  -28.5410  -21.7260   20.2660 C   0  0  0  0  0  0  0  0  0  0  0  0
  -27.4940  -23.6520   17.3240 C   0  0  0  0  0  1  0  0  0  0  0  0
  -28.1250  -22.0980   19.0410 N   0  0  0  0  0  0  0  0  0  0  0  0
  -28.4660  -20.3500   20.5620 N   0  0  0  0  0  0  0  0  0  0  0  0
  -27.9150  -20.2020   21.4010 H   0  0  0  0  0  0  0  0  0  0  0  0
  -28.4840  -26.5000   17.7960 C   0  0  0  0  0  1  0  0  0  0  0  0
  -28.7520  -25.9580   19.2180 C   0  0  0  0  0  3  0  0  0  0  0  0
  -28.3830  -26.8930   20.2500 O   0  0  0  0  0  0  0  0  0  0  0  0
  -24.5250  -32.0080   23.3400 C   0  0  0  0  0  0  0  0  0  0  0  0
  -27.1680  -27.5510   20.2660 C   0  0  0  0  0  0  0  0  0  0  0  0
  -23.3110  -30.5910   21.7140 C   0  0  0  0  0  3  0  0  0  0  0  0
  -24.7570  -29.0390   20.2960 C   0  0  0  0  0  0  0  0  0  0  0  0
  -25.8310  -30.9580   21.4920 C   0  0  0  0  0  2  0  0  0  0  0  0
  -25.9150  -29.5750   20.8710 C   0  0  0  0  0  0  0  0  0  0  0  0
  -27.1170  -28.8360   20.8570 C   0  0  0  0  0  3  0  0  0  0  0  0
  -25.9800  -27.0070   19.7290 C   0  0  0  0  0  3  0  0  0  0  0  0
  -24.7830  -27.7510   19.7290 C   0  0  0  0  0  3  0  0  0  0  0  0
  -23.5150  -29.8990   20.3370 C   0  0  0  0  0  2  0  0  0  0  0  0
  -24.5740  -31.2030   22.2410 N   0  0  0  0  0  0  0  0  0  0  0  0
  -23.4470  -32.2820   23.8850 O   0  0  0  0  0  0  0  0  0  0  0  0
  -22.6700  -29.5770   22.6870 C   0  0  0  0  0  0  0  0  0  0  0  0
  -21.3570  -29.3470   22.5300 N   0  0  0  0  0  0  0  0  0  0  0  0
  -23.3510  -29.0000   23.5390 O   0  0  0  0  0  0  0  0  0  0  0  0
  -20.8680  -29.8710   21.8160 H   0  0  0  0  0  0  0  0  0  0  0  0
  -18.0240  -28.0060   22.9210 C   0  0  0  0  0  0  0  0  0  0  0  0
  -20.5480  -28.4060   23.3040 C   0  0  0  0  0  3  0  0  0  0  0  0
  -20.7490  -26.9580   22.8020 C   0  0  0  0  0  2  0  0  0  0  0  0
  -19.7160  -26.5340   21.7510 C   0  0  0  0  0  2  0  0  0  0  0  0
  -18.2990  -26.6390   22.3190 C   0  0  0  0  0  2  0  0  0  0  0  0
  -19.0790  -28.8420   23.3710 C   0  0  0  0  0  0  0  0  0  0  0  0
  -18.7700  -30.1180   23.8920 C   0  0  0  0  0  3  0  0  0  0  0  0
  -17.4360  -30.5600   23.9680 C   0  0  0  0  0  3  0  0  0  0  0  0
  -16.3940  -29.7220   23.5320 C   0  0  0  0  0  3  0  0  0  0  0  0
  -16.6880  -28.4480   23.0160 C   0  0  0  0  0  3  0  0  0  0  0  0
  -25.8130  -32.6440   23.9520 C   0  0  0  0  0  3  0  0  0  0  0  0
  -26.3250  -31.8970   25.2440 C   0  0  1  0  0  0  0  0  0  0  0  0
  -25.2260  -31.6700   26.3070 C   0  0  0  0  0  1  0  0  0  0  0  0
  -26.9170  -30.5180   24.8740 C   0  0  0  0  0  1  0  0  0  0  0  0
  -27.4670  -32.7100   25.9010 C   0  0  0  0  0  1  0  0  0  0  0  0
  -25.5140  -34.0510   24.2480 N   0  0  0  0  0  0  0  0  0  0  0  0
  -25.8670  -35.0820   23.4710 C   0  0  0  0  0  0  0  0  0  0  0  0
  -26.5520  -34.9510   22.4510 O   0  0  0  0  0  0  0  0  0  0  0  0
  -24.9090  -34.2280   25.0360 H   0  0  0  0  0  0  0  0  0  0  0  0
  -24.1650  -36.8850   23.0420 C   0  0  0  0  0  1  0  0  0  0  0  0
  -25.3840  -36.4850   23.8900 C   0  0  0  0  0  3  0  0  0  0  0  0
  -27.5090  -37.3640   24.7530 C   0  0  0  0  0  1  0  0  0  0  0  0
  -26.4300  -37.5250   23.7800 N   0  0  0  0  0  0  0  0  0  0  0  0
  -26.0300  -38.4510   23.8990 H   0  0  0  0  0  0  0  0  0  0  0  0
  -30.4040  -19.8260   21.9950 C   0  0  0  0  0  1  0  0  0  0  0  0
  -29.6950  -19.5370   20.6510 C   0  0  0  0  0  3  0  0  0  0  0  0
  -29.3700  -18.0070   20.4980 C   0  0  0  0  0  2  0  0  0  0  0  0
  -30.5730  -17.0050   20.5490 C   0  0  0  0  0  2  0  0  0  0  0  0
  -30.8620  -14.5430   20.0660 C   0  0  0  0  0  0  0  0  0  0  0  0
  -30.5320  -12.3280   19.0230 C   0  0  0  0  0  2  0  0  0  0  0  0
  -29.5290  -12.4670   17.8580 C   0  0  0  0  0  2  0  0  0  0  0  0
  -28.0750  -12.3600   18.3660 C   0  0  0  0  0  2  0  0  0  0  0  0
  -27.7950  -13.2490   19.6070 C   0  0  0  0  0  3  0  0  0  0  0  0
  -28.9030  -13.0730   20.6680 C   0  0  0  0  0  2  0  0  0  0  0  0
  -30.1960  -13.3580   20.0210 N   0  0  0  0  0  0  0  0  0  0  0  0
  -31.9800  -14.7000   19.5680 O   0  0  0  0  0  0  0  0  0  0  0  0
  -30.1540  -15.5880   20.5370 N   0  0  0  0  0  0  0  0  0  0  0  0
  -29.2330  -15.3770   20.8900 H   0  0  0  0  0  0  0  0  0  0  0  0
  -25.4570  -13.8960   20.4670 C   0  0  0  0  0  0  0  0  0  0  0  0
  -24.3890  -13.1390   20.8720 C   0  0  0  0  0  0  0  0  0  0  0  0
  -24.8120  -11.7800   20.7820 C   0  0  0  0  0  0  0  0  0  0  0  0
  -26.4640  -12.9940   20.1570 N   0  0  0  0  0  0  0  0  0  0  0  0
  -26.0810  -11.7140   20.4000 N   0  0  0  0  0  0  0  0  0  0  0  0
  -24.0610  -10.5320   20.9770 C   0  0  0  0  0  0  0  0  0  0  0  0
  -24.4990   -9.5400   21.8830 C   0  0  0  0  0  3  0  0  0  0  0  0
  -23.7500   -8.3560   22.0670 C   0  0  0  0  0  3  0  0  0  0  0  0
  -22.5500   -8.1580   21.3440 C   0  0  0  0  0  0  0  0  0  0  0  0
  -22.1320   -9.1370   20.4250 C   0  0  0  0  0  3  0  0  0  0  0  0
  -22.8810  -10.3120   20.2390 C   0  0  0  0  0  3  0  0  0  0  0  0
  -21.7680   -7.0300   21.4420 O   0  0  0  0  0  0  0  0  0  0  0  0
  -21.7180   -6.2870   22.5950 C   0  0  0  0  0  0  0  0  0  0  0  0
  -21.2940   -6.8420   23.8220 C   0  0  0  0  0  3  0  0  0  0  0  0
  -21.1900   -6.0260   24.9650 C   0  0  0  0  0  3  0  0  0  0  0  0
  -21.4970   -4.6540   24.8840 C   0  0  0  0  0  0  0  0  0  0  0  0
  -21.9170   -4.0980   23.6620 C   0  0  0  0  0  3  0  0  0  0  0  0
  -22.0240   -4.9130   22.5210 C   0  0  0  0  0  0  0  0  0  0  0  0
  -22.4060   -4.3670   21.3400 F   0  0  0  0  0  0  0  0  0  0  0  0
  -21.3900   -3.8680   25.9800 F   0  0  0  0  0  0  0  0  0  0  0  0
  -23.0230  -13.6450   21.2320 C   0  0  0  0  0  0  0  0  0  0  0  0
  -22.3230  -12.9460   22.1220 N   0  0  0  0  0  0  0  0  0  0  0  0
  -22.5870  -14.6940   20.7620 O   0  0  0  0  0  0  0  0  0  0  0  0
  -22.6900  -12.1000   22.5300 H   0  0  0  0  0  0  0  0  0  0  0  0
  -21.4070  -13.2670   22.4000 H   0  0  0  0  0  0  0  0  0  0  0  0
  -25.6460  -15.2650   20.3200 N   0  0  0  0  0  0  0  0  0  0  0  0
  -24.9020  -15.9330   20.4840 H   0  0  0  0  0  0  0  0  0  0  0  0
  -26.4840  -15.6910   19.9440 H   0  0  0  0  0  0  0  0  0  0  0  0
  1  2  1  0
  3  1  2  0
  4  7  2  0
  4  3  1  0
  5  8  1  0
  5  2  2  0
  6  4  1  0
  7  5  1  0
  8 54  1  0
  8  9  1  0
 11 10  1  0
 11  3  1  0
 11 12  1  0
 12 14  1  0
 13 24  2  0
 14 19  1  0
 15 23  1  0
 15 25  1  0
 16 22  1  0
 16 18  1  0
 17 23  1  0
 18 17  1  0
 19 18  2  0
 20 14  2  0
 21 20  1  0
 21 16  2  0
 22 15  1  0
 23 13  1  0
 25 27  2  0
 26 25  1  0
 28 26  1  0
 29 38  2  0
 29 34  1  0
 30 26  1  0
 30 34  1  0
 31 30  1  0
 32 33  1  0
 32 31  1  0
 33 29  1  0
 34 35  2  0
 35 36  1  0
 37 36  2  0
 38 37  1  0
 39 13  1  0
 39 44  1  0
 39 40  1  0
 40 43  1  1
 40 41  1  0
 42 40  1  0
 44 47  1  0
 45 49  1  0
 45 44  1  0
 46 45  2  0
 49 48  1  0
 51 49  1  0
 51 52  1  0
 51 50  1  0
 54 53  1  0
 55 56  1  0
 55 54  1  0
 57 65  1  0
 58 63  1  0
 59 60  1  0
 59 58  1  0
 61 60  1  0
 61 70  1  0
 61 62  1  0
 63 57  1  0
 63 62  1  0
 64 57  2  0
 65 56  1  0
 65 66  1  0
 67 68  2  0
 68 87  1  0
 69 68  1  0
 69 72  1  0
 70 71  1  0
 70 67  1  0
 71 69  2  0
 72 73  1  0
 73 74  2  0
 75 78  1  0
 75 74  1  0
 76 75  2  0
 77 76  1  0
 77 72  2  0
 78 79  1  0
 79 80  1  0
 80 81  2  0
 82 81  1  0
 82 86  1  0
 83 82  2  0
 84 79  2  0
 84 83  1  0
 85 84  1  0
 87 88  1  0
 88 91  1  0
 88 90  1  0
 89 87  2  0
 92 67  1  0
 92 93  1  0
 94 92  1  0
M  ISO  4  11 101  12 101  57 100  65 100
M  END
>  <TORSDO>  (80) 
F 20

>  <SCORE>  (80) 
-13.513

>  <name>  (80) 
80

>  <ligand_id>  (80) 
80

>  <original_smiles>  (80) 
[H]c1c(N([H])C([H])(C([H])([H])[H])C([H])([H])C([H])([H])N([H])C(=O)N2C([H])([H])C([H])([H])C([H])([H])C([H])(n3nc(-c4c([H])c([H])c(Oc5c([H])c([H])c(F)c([H])c5F)c([H])c4[H])c(C(=O)N([H])[H])c3N([H])[H])C2([H])[H])nc(C([H])([H])[H])c(C([H])(Oc2c([H])c([H])c3c(c2[H])C([H])([H])N(C(=O)C([H])(N([H])C(=O)C([H])(N([H])C([H])([H])[H])C([H])([H])[H])C(C([H])([H])[H])(C([H])([H])[H])C([H])([H])[H])C([H])(C(=O)N([H])C2([H])c4c([H])c([H])c([H])c([H])c4C([H])([H])C([H])([H])C2([H])[H])C3([H])[H])C([H])([H])[H])c1[H]

>  <smiles>  (80) 
[H]c1c(N([H])C([H])(C([H])([H])[H])C([H])([H])C([H])([H])N([H])C(=O)N2C([H])([H])C([H])([H])C([H])([H])C([H])(n3nc(-c4c([H])c([H])c(Oc5c([H])c([H])c(F)c([H])c5F)c([H])c4[H])c(C(=O)N([H])[H])c3N([H])[H])C2([H])[H])nc(C([H])([H])[H])c(C([H])(Oc2c([H])c([H])c3c(c2[H])C([H])([H])N(C(=O)C([H])(N([H])C(=O)C([H])(N([H])C([H])([H])[H])C([H])([H])[H])C(C([H])([H])[H])(C([H])([H])[H])C([H])([H])[H])C([H])(C(=O)N([H])C2([H])c4c([H])c([H])c([H])c([H])c4C([H])([H])C([H])([H])C2([H])[H])C3([H])[H])C([H])([H])[H])c1[H]

$$$$
81:0:0
     RDKit          3D

 91100  0  0  1  0  0  0  0  0999 V2000
  -27.7590  -22.6750   21.4780 C   0  0  0  0  0  3  0  0  0  0  0  0
  -27.6340  -24.1070   21.2930 C   0  0  0  0  0  3  0  0  0  0  0  0
  -29.0740  -23.9430   19.4200 C   0  0  0  0  0  3  0  0  0  0  0  0
  -28.5530  -21.8080   20.6550 C   0  0  0  0  0  0  0  0  0  0  0  0
  -29.1950  -22.4880   19.5950 C   0  0  0  0  0  0  0  0  0  0  0  0
  -28.2950  -24.8420   20.2600 C   0  0  0  0  0  0  0  0  0  0  0  0
  -28.7240  -20.2160   20.9300 C   0  0  0  0  0  2  0  0  0  0  0  0
  -29.9960  -21.5770   18.6430 C   0  0  0  0  0  2  0  0  0  0  0  0
  -30.4880  -20.1760   19.2040 C   0  0  0  0  0  2  0  0  0  0  0  0
  -29.4630  -19.1870   19.8850 C   0  0  2  0  0  0  0  0  0  0  0  0
  -28.4310  -18.7220   18.8440 C   0  0  0  0  0  1  0  0  0  0  0  0
  -28.3180  -26.3130   20.1690 O   0  0  0  0  0  0  0  0  0  0  0  0
  -24.6050  -31.9380   23.2050 C   0  0  0  0  0  0  0  0  0  0  0  0
  -27.2140  -27.2340   20.1900 C   0  0  0  0  0  0  0  0  0  0  0  0
  -23.4110  -30.5250   21.5730 C   0  0  0  0  0  3  0  0  0  0  0  0
  -24.8680  -28.9490   20.1570 C   0  0  0  0  0  0  0  0  0  0  0  0
  -25.9600  -30.8100   21.4020 C   0  0  0  0  0  2  0  0  0  0  0  0
  -26.0430  -29.4130   20.7630 C   0  0  0  0  0  0  0  0  0  0  0  0
  -27.2150  -28.5700   20.7620 C   0  0  0  0  0  3  0  0  0  0  0  0
  -26.0130  -26.8630   19.5530 C   0  0  0  0  0  3  0  0  0  0  0  0
  -24.8650  -27.6870   19.5390 C   0  0  0  0  0  3  0  0  0  0  0  0
  -23.6340  -29.8390   20.1990 C   0  0  0  0  0  2  0  0  0  0  0  0
  -24.6780  -31.1140   22.1150 N   0  0  0  0  0  0  0  0  0  0  0  0
  -23.5180  -32.2180   23.7330 O   0  0  0  0  0  0  0  0  0  0  0  0
  -22.7420  -29.5180   22.5400 C   0  0  0  0  0  0  0  0  0  0  0  0
  -21.4150  -29.3390   22.4150 N   0  0  0  0  0  0  0  0  0  0  0  0
  -23.4200  -28.9000   23.3670 O   0  0  0  0  0  0  0  0  0  0  0  0
  -20.9250  -29.8880   21.7220 H   0  0  0  0  0  0  0  0  0  0  0  0
  -18.0400  -28.1380   22.9430 C   0  0  0  0  0  0  0  0  0  0  0  0
  -20.6000  -28.3990   23.1900 C   0  0  0  0  0  3  0  0  0  0  0  0
  -20.6960  -26.9690   22.6090 C   0  0  0  0  0  2  0  0  0  0  0  0
  -19.5860  -26.6500   21.6020 C   0  0  0  0  0  2  0  0  0  0  0  0
  -18.2110  -26.7920   22.2580 C   0  0  0  0  0  2  0  0  0  0  0  0
  -19.1610  -28.9000   23.3650 C   0  0  0  0  0  0  0  0  0  0  0  0
  -18.9460  -30.1600   23.9650 C   0  0  0  0  0  3  0  0  0  0  0  0
  -17.6420  -30.6580   24.1470 C   0  0  0  0  0  3  0  0  0  0  0  0
  -16.5340  -29.8930   23.7400 C   0  0  0  0  0  3  0  0  0  0  0  0
  -16.7340  -28.6350   23.1450 C   0  0  0  0  0  3  0  0  0  0  0  0
  -25.8810  -32.5840   23.8280 C   0  0  0  0  0  3  0  0  0  0  0  0
  -25.5610  -33.9830   24.1550 N   0  0  0  0  0  0  0  0  0  0  0  0
  -25.8960  -35.0380   23.4020 C   0  0  0  0  0  0  0  0  0  0  0  0
  -26.5740  -34.9370   22.3770 O   0  0  0  0  0  0  0  0  0  0  0  0
  -24.9660  -34.1340   24.9560 H   0  0  0  0  0  0  0  0  0  0  0  0
  -24.1810  -36.8390   23.0190 C   0  0  0  0  0  1  0  0  0  0  0  0
  -25.4030  -36.4250   23.8570 C   0  0  0  0  0  3  0  0  0  0  0  0
  -27.5150  -37.3080   24.7490 C   0  0  0  0  0  1  0  0  0  0  0  0
  -26.4410  -37.4770   23.7740 N   0  0  0  0  0  0  0  0  0  0  0  0
  -26.0320  -38.3980   23.9140 H   0  0  0  0  0  0  0  0  0  0  0  0
  -26.3930  -31.8260   25.1160 C   0  0  1  0  0  0  0  0  0  0  0  0
  -25.2950  -31.5890   26.1790 C   0  0  0  0  0  1  0  0  0  0  0  0
  -26.9910  -30.4500   24.7420 C   0  0  0  0  0  1  0  0  0  0  0  0
  -27.5320  -32.6350   25.7820 C   0  0  0  0  0  1  0  0  0  0  0  0
  -30.2730  -17.7870   20.4230 C   0  0  0  0  0  2  0  0  0  0  0  0
  -30.6130  -15.0700   20.1610 C   0  0  0  0  0  0  0  0  0  0  0  0
  -30.4680  -12.7190   19.2220 C   0  0  0  0  0  2  0  0  0  0  0  0
  -29.5090  -12.6690   18.0090 C   0  0  0  0  0  2  0  0  0  0  0  0
  -28.0560  -12.4600   18.4730 C   0  0  0  0  0  2  0  0  0  0  0  0
  -27.6710  -13.3890   19.6550 C   0  0  0  0  0  3  0  0  0  0  0  0
  -28.7490  -13.4090   20.7590 C   0  0  0  0  0  2  0  0  0  0  0  0
  -30.0050  -13.8160   20.1170 N   0  0  0  0  0  0  0  0  0  0  0  0
  -31.8170  -15.1190   19.8950 O   0  0  0  0  0  0  0  0  0  0  0  0
  -29.8510  -16.2660   20.2990 N   0  0  0  0  0  0  0  0  0  0  0  0
  -28.8640  -16.1010   20.4210 H   0  0  0  0  0  0  0  0  0  0  0  0
  -25.3140  -13.9710   20.4580 C   0  0  0  0  0  0  0  0  0  0  0  0
  -24.2560  -13.1950   20.8450 C   0  0  0  0  0  0  0  0  0  0  0  0
  -24.7130  -11.8440   20.7870 C   0  0  0  0  0  0  0  0  0  0  0  0
  -26.3460  -13.0910   20.1830 N   0  0  0  0  0  0  0  0  0  0  0  0
  -25.9970  -11.8050   20.4480 N   0  0  0  0  0  0  0  0  0  0  0  0
  -23.9840  -10.5820   20.9780 C   0  0  0  0  0  0  0  0  0  0  0  0
  -24.4060   -9.6200   21.9220 C   0  0  0  0  0  3  0  0  0  0  0  0
  -23.6770   -8.4240   22.1000 C   0  0  0  0  0  3  0  0  0  0  0  0
  -22.5110   -8.1830   21.3360 C   0  0  0  0  0  0  0  0  0  0  0  0
  -22.1080   -9.1340   20.3810 C   0  0  0  0  0  3  0  0  0  0  0  0
  -22.8370  -10.3210   20.2010 C   0  0  0  0  0  3  0  0  0  0  0  0
  -21.7530   -7.0400   21.4240 O   0  0  0  0  0  0  0  0  0  0  0  0
  -21.6610   -6.3260   22.5920 C   0  0  0  0  0  0  0  0  0  0  0  0
  -21.1570   -6.9030   23.7790 C   0  0  0  0  0  3  0  0  0  0  0  0
  -21.0130   -6.1140   24.9390 C   0  0  0  0  0  3  0  0  0  0  0  0
  -21.3620   -4.7500   24.9110 C   0  0  0  0  0  0  0  0  0  0  0  0
  -21.8590   -4.1740   23.7290 C   0  0  0  0  0  3  0  0  0  0  0  0
  -22.0050   -4.9600   22.5720 C   0  0  0  0  0  0  0  0  0  0  0  0
  -22.4630   -4.3940   21.4300 F   0  0  0  0  0  0  0  0  0  0  0  0
  -21.2170   -3.9910   26.0220 F   0  0  0  0  0  0  0  0  0  0  0  0
  -22.8650  -13.6760   21.1500 C   0  0  0  0  0  0  0  0  0  0  0  0
  -22.1500  -12.9690   22.0180 N   0  0  0  0  0  0  0  0  0  0  0  0
  -22.4260  -14.7120   20.6540 O   0  0  0  0  0  0  0  0  0  0  0  0
  -22.5220  -12.1330   22.4420 H   0  0  0  0  0  0  0  0  0  0  0  0
  -21.2170  -13.2700   22.2610 H   0  0  0  0  0  0  0  0  0  0  0  0
  -25.4780  -15.3430   20.2890 N   0  0  0  0  0  0  0  0  0  0  0  0
  -24.7100  -15.9920   20.4160 H   0  0  0  0  0  0  0  0  0  0  0  0
  -26.3050  -15.7770   19.9000 H   0  0  0  0  0  0  0  0  0  0  0  0
  2  1  1  0
  3  5  2  0
  3  6  1  0
  4  7  1  0
  4  1  2  0
  5  4  1  0
  6  2  2  0
  8  9  1  0
  8  5  1  0
  9 10  1  0
 10 11  1  6
 10 53  1  0
 10  7  1  0
 12 14  1  0
 12  6  1  0
 13 24  2  0
 14 19  1  0
 15 23  1  0
 15 25  1  0
 16 22  1  0
 16 18  1  0
 17 23  1  0
 18 17  1  0
 19 18  2  0
 20 14  2  0
 21 20  1  0
 21 16  2  0
 22 15  1  0
 23 13  1  0
 25 27  2  0
 26 25  1  0
 28 26  1  0
 29 38  2  0
 29 34  1  0
 30 26  1  0
 30 34  1  0
 31 30  1  0
 32 33  1  0
 32 31  1  0
 33 29  1  0
 34 35  2  0
 35 36  1  0
 37 36  2  0
 38 37  1  0
 39 13  1  0
 39 40  1  0
 39 49  1  0
 40 43  1  0
 41 45  1  0
 41 40  1  0
 42 41  2  0
 45 44  1  0
 47 45  1  0
 47 48  1  0
 47 46  1  0
 49 52  1  1
 49 50  1  0
 51 49  1  0
 54 62  1  0
 55 60  1  0
 56 57  1  0
 56 55  1  0
 58 57  1  0
 58 67  1  0
 58 59  1  0
 60 54  1  0
 60 59  1  0
 61 54  2  0
 62 63  1  0
 62 53  1  0
 64 65  2  0
 65 84  1  0
 66 65  1  0
 66 69  1  0
 67 68  1  0
 67 64  1  0
 68 66  2  0
 69 70  1  0
 70 71  2  0
 72 75  1  0
 72 71  1  0
 73 72  2  0
 74 73  1  0
 74 69  2  0
 75 76  1  0
 76 77  1  0
 77 78  2  0
 79 78  1  0
 79 83  1  0
 80 79  2  0
 81 76  2  0
 81 80  1  0
 82 81  1  0
 84 85  1  0
 85 88  1  0
 85 87  1  0
 86 84  2  0
 89 90  1  0
 89 64  1  0
 91 89  1  0
M  ISO  4   6 101  12 101  54 100  62 100
M  END
>  <TORSDO>  (81) 
F 17

>  <SCORE>  (81) 
-15.964

>  <name>  (81) 
81

>  <ligand_id>  (81) 
81

>  <original_smiles>  (81) 
[H]c1c([H])c([H])c2c(c1[H])C([H])([H])C([H])([H])C([H])([H])C2([H])N([H])C(=O)C1([H])N(C(=O)C([H])(N([H])C(=O)C([H])(N([H])C([H])([H])[H])C([H])([H])[H])C(C([H])([H])[H])(C([H])([H])[H])C([H])([H])[H])C([H])([H])c2c([H])c(Oc3c([H])c([H])c4c(c3[H])C([H])([H])C([H])([H])C(C([H])([H])[H])(C([H])([H])N([H])C(=O)N3C([H])([H])C([H])([H])C([H])([H])C([H])(n5nc(-c6c([H])c([H])c(Oc7c([H])c([H])c(F)c([H])c7F)c([H])c6[H])c(C(=O)N([H])[H])c5N([H])[H])C3([H])[H])C4([H])[H])c([H])c([H])c2C1([H])[H]

>  <smiles>  (81) 
[H]c1c([H])c([H])c2c(c1[H])C([H])([H])C([H])([H])C([H])([H])C2([H])N([H])C(=O)C1([H])N(C(=O)C([H])(N([H])C(=O)C([H])(N([H])C([H])([H])[H])C([H])([H])[H])C(C([H])([H])[H])(C([H])([H])[H])C([H])([H])[H])C([H])([H])c2c([H])c(Oc3c([H])c([H])c4c(c3[H])C([H])([H])C([H])([H])C(C([H])([H])[H])(C([H])([H])N([H])C(=O)N3C([H])([H])C([H])([H])C([H])([H])C([H])(n5nc(-c6c([H])c([H])c(Oc7c([H])c([H])c(F)c([H])c7F)c([H])c6[H])c(C(=O)N([H])[H])c5N([H])[H])C3([H])[H])C4([H])[H])c([H])c([H])c2C1([H])[H]

$$$$
82:0:0
     RDKit          3D

 95104  0  0  1  0  0  0  0  0999 V2000
  -28.0700  -22.0240   20.2880 C   0  0  0  0  0  3  0  0  0  0  0  0
  -30.2490  -23.0580   20.5920 C   0  0  0  0  0  3  0  0  0  0  0  0
  -27.6180  -23.1710   19.6010 C   0  0  0  0  0  3  0  0  0  0  0  0
  -29.7930  -24.2090   19.9120 C   0  0  0  0  0  3  0  0  0  0  0  0
  -29.3900  -21.9510   20.7870 C   0  0  0  0  0  0  0  0  0  0  0  0
  -28.4730  -24.2770   19.4120 C   0  0  0  0  0  0  0  0  0  0  0  0
  -31.0670  -19.8200   23.5520 C   0  0  0  0  0  2  0  0  0  0  0  0
  -30.7340  -21.0850   22.7580 C   0  0  0  0  0  2  0  0  0  0  0  0
  -31.8210  -18.8200   22.6590 C   0  0  0  0  0  2  0  0  0  0  0  0
  -30.5960  -19.6600   20.6750 C   0  0  0  0  0  2  0  0  0  0  0  0
  -29.8570  -20.7070   21.5550 C   0  0  0  0  0  3  0  0  0  0  0  0
  -31.0520  -18.4500   21.4350 N   0  0  1  0  0  4  0  0  0  0  0  0
  -30.2240  -17.9610   21.7380 H   0  0  0  0  0  0  0  0  0  0  0  0
  -31.8030  -17.5130   20.5470 C   0  0  0  0  0  2  0  0  0  0  0  0
  -32.0280  -16.0820   21.0980 C   0  0  0  0  0  2  0  0  0  0  0  0
  -31.2980  -14.2350   19.6030 C   0  0  0  0  0  0  0  0  0  0  0  0
  -30.7770  -12.0120   18.6620 C   0  0  0  0  0  2  0  0  0  0  0  0
  -29.7270  -12.0570   17.5370 C   0  0  0  0  0  2  0  0  0  0  0  0
  -28.3040  -12.0180   18.1180 C   0  0  0  0  0  2  0  0  0  0  0  0
  -28.0960  -13.0550   19.2510 C   0  0  0  0  0  3  0  0  0  0  0  0
  -29.2330  -12.9640   20.2910 C   0  0  0  0  0  2  0  0  0  0  0  0
  -30.5210  -13.1250   19.5920 N   0  0  0  0  0  0  0  0  0  0  0  0
  -32.2300  -14.4230   18.8160 O   0  0  0  0  0  0  0  0  0  0  0  0
  -31.0690  -15.0830   20.6180 N   0  0  0  0  0  0  0  0  0  0  0  0
  -30.2960  -14.8480   21.2220 H   0  0  0  0  0  0  0  0  0  0  0  0
  -25.8710  -13.8740   20.2550 C   0  0  0  0  0  0  0  0  0  0  0  0
  -24.7750  -13.1980   20.7200 C   0  0  0  0  0  0  0  0  0  0  0  0
  -25.0810  -11.8100   20.5880 C   0  0  0  0  0  0  0  0  0  0  0  0
  -26.7830  -12.9020   19.8740 N   0  0  0  0  0  0  0  0  0  0  0  0
  -26.3170  -11.6520   20.1300 N   0  0  0  0  0  0  0  0  0  0  0  0
  -24.2510  -10.6210   20.8190 C   0  0  0  0  0  0  0  0  0  0  0  0
  -24.6460   -9.6070   21.7200 C   0  0  0  0  0  3  0  0  0  0  0  0
  -23.8220   -8.4820   21.9380 C   0  0  0  0  0  3  0  0  0  0  0  0
  -22.5890   -8.3630   21.2560 C   0  0  0  0  0  0  0  0  0  0  0  0
  -22.2100   -9.3630   20.3430 C   0  0  0  0  0  3  0  0  0  0  0  0
  -23.0330  -10.4800   20.1230 C   0  0  0  0  0  3  0  0  0  0  0  0
  -21.7350   -7.2920   21.3850 O   0  0  0  0  0  0  0  0  0  0  0  0
  -21.6310   -6.5930   22.5600 C   0  0  0  0  0  0  0  0  0  0  0  0
  -21.2810   -7.2220   23.7750 C   0  0  0  0  0  3  0  0  0  0  0  0
  -21.1170   -6.4530   24.9440 C   0  0  0  0  0  3  0  0  0  0  0  0
  -21.2960   -5.0580   24.9010 C   0  0  0  0  0  0  0  0  0  0  0  0
  -21.6410   -4.4290   23.6930 C   0  0  0  0  0  3  0  0  0  0  0  0
  -21.8070   -5.1940   22.5260 C   0  0  0  0  0  0  0  0  0  0  0  0
  -22.1180   -4.5810   21.3590 F   0  0  0  0  0  0  0  0  0  0  0  0
  -21.1310   -4.3190   26.0230 F   0  0  0  0  0  0  0  0  0  0  0  0
  -23.4760  -13.8040   21.1710 C   0  0  0  0  0  0  0  0  0  0  0  0
  -22.7870  -13.1520   22.1030 N   0  0  0  0  0  0  0  0  0  0  0  0
  -23.0860  -14.8850   20.7330 O   0  0  0  0  0  0  0  0  0  0  0  0
  -23.1140  -12.2730   22.4750 H   0  0  0  0  0  0  0  0  0  0  0  0
  -21.9210  -13.5370   22.4480 H   0  0  0  0  0  0  0  0  0  0  0  0
  -26.1670  -15.2260   20.1040 N   0  0  0  0  0  0  0  0  0  0  0  0
  -25.5040  -15.9620   20.3200 H   0  0  0  0  0  0  0  0  0  0  0  0
  -27.0210  -15.5720   19.6840 H   0  0  0  0  0  0  0  0  0  0  0  0
  -28.0110  -25.4830   18.5970 C   0  0  0  0  0  2  0  0  0  0  0  0
  -27.9580  -26.7140   19.3320 O   0  0  0  0  0  0  0  0  0  0  0  0
  -24.5040  -31.6880   23.0680 C   0  0  0  0  0  0  0  0  0  0  0  0
  -26.7700  -27.4080   19.4750 C   0  0  0  0  0  0  0  0  0  0  0  0
  -23.1260  -30.4250   21.4470 C   0  0  0  0  0  3  0  0  0  0  0  0
  -24.4140  -28.9510   19.8120 C   0  0  0  0  0  0  0  0  0  0  0  0
  -25.6340  -30.7450   21.0520 C   0  0  0  0  0  2  0  0  0  0  0  0
  -25.6300  -29.4120   20.3280 C   0  0  0  0  0  0  0  0  0  0  0  0
  -26.8040  -28.6450   20.1640 C   0  0  0  0  0  3  0  0  0  0  0  0
  -25.5270  -26.9520   18.9750 C   0  0  0  0  0  3  0  0  0  0  0  0
  -24.3570  -27.7200   19.1370 C   0  0  0  0  0  3  0  0  0  0  0  0
  -23.2010  -29.8280   20.0150 C   0  0  0  0  0  2  0  0  0  0  0  0
  -24.4460  -30.9630   21.9140 N   0  0  0  0  0  0  0  0  0  0  0  0
  -23.4820  -31.9420   23.7200 O   0  0  0  0  0  0  0  0  0  0  0  0
  -22.5320  -29.3590   22.3960 C   0  0  0  0  0  0  0  0  0  0  0  0
  -21.2100  -29.1400   22.3010 N   0  0  0  0  0  0  0  0  0  0  0  0
  -23.2560  -28.7290   23.1710 O   0  0  0  0  0  0  0  0  0  0  0  0
  -20.6860  -29.6940   21.6380 H   0  0  0  0  0  0  0  0  0  0  0  0
  -17.9150  -27.7310   22.7510 C   0  0  0  0  0  0  0  0  0  0  0  0
  -20.4450  -28.1550   23.0660 C   0  0  0  0  0  3  0  0  0  0  0  0
  -20.6530  -26.7320   22.4960 C   0  0  0  0  0  2  0  0  0  0  0  0
  -19.5910  -26.3340   21.4670 C   0  0  0  0  0  2  0  0  0  0  0  0
  -18.1910  -26.3930   22.0850 C   0  0  0  0  0  2  0  0  0  0  0  0
  -18.9730  -28.5650   23.1980 C   0  0  0  0  0  0  0  0  0  0  0  0
  -18.6610  -29.8150   23.7770 C   0  0  0  0  0  3  0  0  0  0  0  0
  -17.3240  -30.2270   23.9240 C   0  0  0  0  0  3  0  0  0  0  0  0
  -16.2800  -29.3880   23.4970 C   0  0  0  0  0  3  0  0  0  0  0  0
  -16.5770  -28.1460   22.9090 C   0  0  0  0  0  3  0  0  0  0  0  0
  -25.8550  -32.2480   23.6130 C   0  0  0  0  0  3  0  0  0  0  0  0
  -26.4750  -31.3650   24.7630 C   0  0  1  0  0  0  0  0  0  0  0  0
  -25.4830  -31.0470   25.9070 C   0  0  0  0  0  1  0  0  0  0  0  0
  -26.9800  -30.0180   24.1980 C   0  0  0  0  0  1  0  0  0  0  0  0
  -27.7110  -32.0740   25.3640 C   0  0  0  0  0  1  0  0  0  0  0  0
  -25.6090  -33.6170   24.0850 N   0  0  0  0  0  0  0  0  0  0  0  0
  -25.9100  -34.7240   23.3920 C   0  0  0  0  0  0  0  0  0  0  0  0
  -26.4960  -34.6960   22.3060 O   0  0  0  0  0  0  0  0  0  0  0  0
  -25.0870  -33.7160   24.9420 H   0  0  0  0  0  0  0  0  0  0  0  0
  -24.2040  -36.5670   23.3250 C   0  0  0  0  0  1  0  0  0  0  0  0
  -25.4940  -36.0760   23.9990 C   0  0  0  0  0  3  0  0  0  0  0  0
  -27.7060  -36.8520   24.7240 C   0  0  0  0  0  1  0  0  0  0  0  0
  -26.5380  -37.1160   23.8890 N   0  0  0  0  0  0  0  0  0  0  0  0
  -26.1690  -38.0280   24.1450 H   0  0  0  0  0  0  0  0  0  0  0  0
  1  5  1  0
  2  5  2  0
  3  1  2  0
  4  2  1  0
  6  3  1  0
  6  4  2  0
  8  7  1  0
  9  7  1  0
 10 12  1  0
 10 11  1  0
 11  5  1  0
 11  8  1  0
 12 13  1  1
 12  9  1  0
 14 15  1  0
 14 12  1  0
 16 24  1  0
 17 22  1  0
 18 19  1  0
 18 17  1  0
 20 19  1  0
 20 29  1  0
 20 21  1  0
 22 16  1  0
 22 21  1  0
 23 16  2  0
 24 15  1  0
 24 25  1  0
 26 27  2  0
 27 46  1  0
 28 27  1  0
 28 31  1  0
 29 30  1  0
 29 26  1  0
 30 28  2  0
 31 32  1  0
 32 33  2  0
 34 37  1  0
 34 33  1  0
 35 34  2  0
 36 35  1  0
 36 31  2  0
 37 38  1  0
 38 39  1  0
 39 40  2  0
 41 40  1  0
 41 45  1  0
 42 41  2  0
 43 38  2  0
 43 42  1  0
 44 43  1  0
 46 47  1  0
 47 50  1  0
 47 49  1  0
 48 46  2  0
 51 26  1  0
 51 52  1  0
 53 51  1  0
 54 55  1  0
 54  6  1  0
 55 57  1  0
 56 67  2  0
 57 62  1  0
 58 66  1  0
 58 68  1  0
 59 65  1  0
 59 61  1  0
 60 66  1  0
 61 60  1  0
 62 61  2  0
 63 64  1  0
 63 57  2  0
 64 59  2  0
 65 58  1  0
 66 56  1  0
 68 70  2  0
 69 68  1  0
 71 69  1  0
 72 81  2  0
 72 77  1  0
 73 69  1  0
 73 77  1  0
 74 73  1  0
 75 76  1  0
 75 74  1  0
 76 72  1  0
 77 78  2  0
 78 79  1  0
 80 79  2  0
 81 80  1  0
 82 56  1  0
 82 87  1  0
 82 83  1  0
 83 86  1  1
 83 84  1  0
 85 83  1  0
 87 90  1  0
 88 92  1  0
 88 87  1  0
 89 88  2  0
 92 91  1  0
 94 92  1  0
 94 95  1  0
 94 93  1  0
M  ISO  4  16 100  24 100  54 101  55 101
M  END
>  <TORSDO>  (82) 
F 20

>  <SCORE>  (82) 
-12.458

>  <name>  (82) 
82

>  <ligand_id>  (82) 
82

>  <original_smiles>  (82) 
[H]c1c([H])c([H])c2c(c1[H])C([H])([H])C([H])([H])C([H])([H])C2([H])N([H])C(=O)C1([H])N(C(=O)C([H])(N([H])C(=O)C([H])(N([H])C([H])([H])[H])C([H])([H])[H])C(C([H])([H])[H])(C([H])([H])[H])C([H])([H])[H])C([H])([H])c2c([H])c(OC([H])([H])c3c([H])c([H])c(C4([H])C([H])([H])C([H])([H])C([H])([H])[N+]([H])(C([H])([H])C([H])([H])N([H])C(=O)N5C([H])([H])C([H])([H])C([H])([H])C([H])(n6nc(-c7c([H])c([H])c(Oc8c([H])c([H])c(F)c([H])c8F)c([H])c7[H])c(C(=O)N([H])[H])c6N([H])[H])C5([H])[H])C4([H])[H])c([H])c3[H])c([H])c([H])c2C1([H])[H]

>  <smiles>  (82) 
[H]c1c([H])c([H])c2c(c1[H])C([H])([H])C([H])([H])C([H])([H])C2([H])N([H])C(=O)C1([H])N(C(=O)C([H])(N([H])C(=O)C([H])(N([H])C([H])([H])[H])C([H])([H])[H])C(C([H])([H])[H])(C([H])([H])[H])C([H])([H])[H])C([H])([H])c2c([H])c(OC([H])([H])c3c([H])c([H])c(C4([H])C([H])([H])C([H])([H])C([H])([H])[N+]([H])(C([H])([H])C([H])([H])N([H])C(=O)N5C([H])([H])C([H])([H])C([H])([H])C([H])(n6nc(-c7c([H])c([H])c(Oc8c([H])c([H])c(F)c([H])c8F)c([H])c7[H])c(C(=O)N([H])[H])c6N([H])[H])C5([H])[H])C4([H])[H])c([H])c3[H])c([H])c([H])c2C1([H])[H]

$$$$
83:0:0
     RDKit          3D

 96104  0  0  1  0  0  0  0  0999 V2000
  -29.9920  -21.1250   20.6420 C   0  0  0  0  0  3  0  0  0  0  0  0
  -27.5970  -20.9890   20.8360 C   0  0  0  0  0  3  0  0  0  0  0  0
  -29.9280  -22.5400   20.7160 C   0  0  0  0  0  0  0  0  0  0  0  0
  -27.5040  -22.4000   20.8960 C   0  0  0  0  0  0  0  0  0  0  0  0
  -28.6740  -23.2160   20.8540 C   0  0  0  0  0  0  0  0  0  0  0  0
  -28.8320  -20.3250   20.7190 C   0  0  0  0  0  0  0  0  0  0  0  0
  -31.2610  -23.2760   20.6940 C   0  0  0  0  0  1  0  0  0  0  0  0
  -26.1100  -22.9960   21.0470 C   0  0  0  0  0  1  0  0  0  0  0  0
  -28.8350  -18.9100   20.7280 N   0  0  0  0  0  0  0  0  0  0  0  0
  -27.9310  -18.4550   20.8290 H   0  0  0  0  0  0  0  0  0  0  0  0
  -29.9130  -18.0690   20.1930 C   0  0  0  0  0  2  0  0  0  0  0  0
  -30.4250  -17.0270   21.2220 C   0  0  0  0  0  2  0  0  0  0  0  0
  -30.6210  -14.7030   20.2540 C   0  0  0  0  0  0  0  0  0  0  0  0
  -30.3180  -12.5490   19.0760 C   0  0  0  0  0  2  0  0  0  0  0  0
  -29.3330  -12.7430   17.9050 C   0  0  0  0  0  2  0  0  0  0  0  0
  -27.8760  -12.5830   18.3820 C   0  0  0  0  0  2  0  0  0  0  0  0
  -27.5730  -13.4090   19.6600 C   0  0  0  0  0  3  0  0  0  0  0  0
  -28.6640  -13.1860   20.7300 C   0  0  0  0  0  2  0  0  0  0  0  0
  -29.9640  -13.5190   20.1240 N   0  0  0  0  0  0  0  0  0  0  0  0
  -31.7030  -14.9320   19.7050 O   0  0  0  0  0  0  0  0  0  0  0  0
  -29.9700  -15.6550   20.9490 N   0  0  0  0  0  0  0  0  0  0  0  0
  -29.0800  -15.3880   21.3440 H   0  0  0  0  0  0  0  0  0  0  0  0
  -25.1970  -13.9950   20.4580 C   0  0  0  0  0  0  0  0  0  0  0  0
  -24.1460  -13.2110   20.8510 C   0  0  0  0  0  0  0  0  0  0  0  0
  -24.6110  -11.8630   20.7820 C   0  0  0  0  0  0  0  0  0  0  0  0
  -26.2370  -13.1220   20.1780 N   0  0  0  0  0  0  0  0  0  0  0  0
  -25.8890  -11.8340   20.4280 N   0  0  0  0  0  0  0  0  0  0  0  0
  -23.8970  -10.5940   20.9770 C   0  0  0  0  0  0  0  0  0  0  0  0
  -24.3620   -9.6170   21.8860 C   0  0  0  0  0  3  0  0  0  0  0  0
  -23.6490   -8.4140   22.0700 C   0  0  0  0  0  3  0  0  0  0  0  0
  -22.4550   -8.1780   21.3470 C   0  0  0  0  0  0  0  0  0  0  0  0
  -22.0080   -9.1440   20.4280 C   0  0  0  0  0  3  0  0  0  0  0  0
  -22.7230  -10.3390   20.2410 C   0  0  0  0  0  3  0  0  0  0  0  0
  -21.7110   -7.0280   21.4410 O   0  0  0  0  0  0  0  0  0  0  0  0
  -21.6980   -6.2710   22.5840 C   0  0  0  0  0  0  0  0  0  0  0  0
  -21.3080   -6.8100   23.8300 C   0  0  0  0  0  3  0  0  0  0  0  0
  -21.2420   -5.9790   24.9670 C   0  0  0  0  0  3  0  0  0  0  0  0
  -21.5570   -4.6110   24.8600 C   0  0  0  0  0  0  0  0  0  0  0  0
  -21.9410   -4.0720   23.6190 C   0  0  0  0  0  3  0  0  0  0  0  0
  -22.0080   -4.9000   22.4840 C   0  0  0  0  0  0  0  0  0  0  0  0
  -22.3590   -4.3710   21.2870 F   0  0  0  0  0  0  0  0  0  0  0  0
  -21.4870   -3.8110   25.9490 F   0  0  0  0  0  0  0  0  0  0  0  0
  -22.7580  -13.6780   21.1810 C   0  0  0  0  0  0  0  0  0  0  0  0
  -22.0670  -12.9660   22.0650 N   0  0  0  0  0  0  0  0  0  0  0  0
  -22.2950  -14.7080   20.6930 O   0  0  0  0  0  0  0  0  0  0  0  0
  -22.4550  -12.1320   22.4800 H   0  0  0  0  0  0  0  0  0  0  0  0
  -21.1380  -13.2620   22.3320 H   0  0  0  0  0  0  0  0  0  0  0  0
  -25.3490  -15.3690   20.2950 N   0  0  0  0  0  0  0  0  0  0  0  0
  -24.5800  -16.0150   20.4310 H   0  0  0  0  0  0  0  0  0  0  0  0
  -26.1830  -15.8140   19.9320 H   0  0  0  0  0  0  0  0  0  0  0  0
  -28.5580  -24.7660   21.0480 C   0  0  0  0  0  3  0  0  0  0  0  0
  -28.1260  -26.1910   23.1570 C   0  0  0  0  0  1  0  0  0  0  0  0
  -29.5840  -24.1900   23.4170 C   0  0  0  0  0  1  0  0  0  0  0  0
  -29.1310  -25.2800   22.4180 C   0  0  0  0  0  3  0  0  0  0  0  0
  -28.9800  -25.6290   19.8080 C   0  0  0  0  0  2  0  0  0  0  0  0
  -28.8130  -27.0510   19.9670 O   0  0  0  0  0  0  0  0  0  0  0  0
  -24.6130  -31.8380   23.1090 C   0  0  0  0  0  0  0  0  0  0  0  0
  -27.5680  -27.6530   19.9350 C   0  0  0  0  0  0  0  0  0  0  0  0
  -23.5140  -30.4110   21.4130 C   0  0  0  0  0  3  0  0  0  0  0  0
  -25.0750  -29.0020   19.9650 C   0  0  0  0  0  0  0  0  0  0  0  0
  -26.0130  -30.9320   21.2540 C   0  0  0  0  0  2  0  0  0  0  0  0
  -26.1910  -29.5880   20.5730 C   0  0  0  0  0  0  0  0  0  0  0  0
  -27.4380  -28.9240   20.5440 C   0  0  0  0  0  3  0  0  0  0  0  0
  -26.4290  -27.0740   19.3310 C   0  0  0  0  0  3  0  0  0  0  0  0
  -25.1900  -27.7460   19.3420 C   0  0  0  0  0  3  0  0  0  0  0  0
  -23.7770  -29.7770   20.0190 C   0  0  0  0  0  2  0  0  0  0  0  0
  -24.7300  -31.0750   21.9860 N   0  0  0  0  0  0  0  0  0  0  0  0
  -23.5120  -32.0270   23.6470 O   0  0  0  0  0  0  0  0  0  0  0  0
  -22.9160  -29.3260   22.3390 C   0  0  0  0  0  0  0  0  0  0  0  0
  -21.6020  -29.0830   22.2050 N   0  0  0  0  0  0  0  0  0  0  0  0
  -23.6330  -28.7070   23.1300 O   0  0  0  0  0  0  0  0  0  0  0  0
  -21.0860  -29.6410   21.5410 H   0  0  0  0  0  0  0  0  0  0  0  0
  -18.2870  -27.7290   22.6720 C   0  0  0  0  0  0  0  0  0  0  0  0
  -20.8340  -28.0770   22.9370 C   0  0  0  0  0  3  0  0  0  0  0  0
  -20.9890  -26.6790   22.2930 C   0  0  0  0  0  2  0  0  0  0  0  0
  -19.8920  -26.3600   21.2730 C   0  0  0  0  0  2  0  0  0  0  0  0
  -18.5120  -26.4180   21.9350 C   0  0  0  0  0  2  0  0  0  0  0  0
  -19.3780  -28.5150   23.1280 C   0  0  0  0  0  0  0  0  0  0  0  0
  -19.1140  -29.7410   23.7770 C   0  0  0  0  0  3  0  0  0  0  0  0
  -17.7940  -30.1820   23.9750 C   0  0  0  0  0  3  0  0  0  0  0  0
  -16.7170  -29.3910   23.5390 C   0  0  0  0  0  3  0  0  0  0  0  0
  -16.9640  -28.1660   22.8930 C   0  0  0  0  0  3  0  0  0  0  0  0
  -25.8510  -32.5290   23.7630 C   0  0  0  0  0  3  0  0  0  0  0  0
  -25.4590  -33.8980   24.1210 N   0  0  0  0  0  0  0  0  0  0  0  0
  -25.7330  -34.9840   23.3860 C   0  0  0  0  0  0  0  0  0  0  0  0
  -26.4150  -34.9430   22.3590 O   0  0  0  0  0  0  0  0  0  0  0  0
  -24.8480  -33.9990   24.9190 H   0  0  0  0  0  0  0  0  0  0  0  0
  -23.8930  -36.6670   23.0660 C   0  0  0  0  0  1  0  0  0  0  0  0
  -25.1590  -36.3300   23.8690 C   0  0  0  0  0  3  0  0  0  0  0  0
  -27.2360  -37.3340   24.7110 C   0  0  0  0  0  1  0  0  0  0  0  0
  -26.1230  -37.4480   23.7720 N   0  0  0  0  0  0  0  0  0  0  0  0
  -25.6610  -38.3380   23.9390 H   0  0  0  0  0  0  0  0  0  0  0  0
  -26.3970  -31.7590   25.0280 C   0  0  1  0  0  0  0  0  0  0  0  0
  -25.3080  -31.4300   26.0760 C   0  0  0  0  0  1  0  0  0  0  0  0
  -27.0640  -30.4290   24.6060 C   0  0  0  0  0  1  0  0  0  0  0  0
  -27.4930  -32.6010   25.7250 C   0  0  0  0  0  1  0  0  0  0  0  0
  1  3  2  0
  1  6  1  0
  2  4  1  0
  3  5  1  0
  4  8  1  0
  5  4  2  0
  5 51  1  0
  6  9  1  0
  6  2  2  0
  7  3  1  0
  9 10  1  0
 11  9  1  0
 11 12  1  0
 13 21  1  0
 14 19  1  0
 15 16  1  0
 15 14  1  0
 17 16  1  0
 17 26  1  0
 17 18  1  0
 19 13  1  0
 19 18  1  0
 20 13  2  0
 21 12  1  0
 21 22  1  0
 23 24  2  0
 24 43  1  0
 25 24  1  0
 25 28  1  0
 26 27  1  0
 26 23  1  0
 27 25  2  0
 28 29  1  0
 29 30  2  0
 31 34  1  0
 31 30  1  0
 32 31  2  0
 33 32  1  0
 33 28  2  0
 34 35  1  0
 35 36  1  0
 36 37  2  0
 38 37  1  0
 38 42  1  0
 39 38  2  0
 40 35  2  0
 40 39  1  0
 41 40  1  0
 43 44  1  0
 44 47  1  0
 44 46  1  0
 45 43  2  0
 48 49  1  0
 48 23  1  0
 50 48  1  0
 51 55  1  0
 51 54  1  0
 54 52  1  0
 54 53  1  0
 55 56  1  0
 57 68  2  0
 58 56  1  0
 58 63  1  0
 59 67  1  0
 59 69  1  0
 60 66  1  0
 60 62  1  0
 61 67  1  0
 62 61  1  0
 63 62  2  0
 64 65  1  0
 64 58  2  0
 65 60  2  0
 66 59  1  0
 67 57  1  0
 69 71  2  0
 70 69  1  0
 72 70  1  0
 73 82  2  0
 73 78  1  0
 74 70  1  0
 74 78  1  0
 75 74  1  0
 76 77  1  0
 76 75  1  0
 77 73  1  0
 78 79  2  0
 79 80  1  0
 81 80  2  0
 82 81  1  0
 83 57  1  0
 83 84  1  0
 83 93  1  0
 84 87  1  0
 85 89  1  0
 85 84  1  0
 86 85  2  0
 89 88  1  0
 91 89  1  0
 91 92  1  0
 91 90  1  0
 93 96  1  1
 93 94  1  0
 95 93  1  0
M  ISO  4  13 100  21 100  55 101  56 101
M  END
>  <TORSDO>  (83) 
F 22

>  <SCORE>  (83) 
-12.734

>  <name>  (83) 
83

>  <ligand_id>  (83) 
83

>  <original_smiles>  (83) 
[H]c1c([H])c([H])c2c(c1[H])C([H])([H])C([H])([H])C([H])([H])C2([H])N([H])C(=O)C1([H])N(C(=O)C([H])(N([H])C(=O)C([H])(N([H])C([H])([H])[H])C([H])([H])[H])C(C([H])([H])[H])(C([H])([H])[H])C([H])([H])[H])C([H])([H])c2c([H])c(OC([H])([H])C([H])(c3c(C([H])([H])[H])c([H])c(N([H])C([H])([H])C([H])([H])N([H])C(=O)N4C([H])([H])C([H])([H])C([H])([H])C([H])(n5nc(-c6c([H])c([H])c(Oc7c([H])c([H])c(F)c([H])c7F)c([H])c6[H])c(C(=O)N([H])[H])c5N([H])[H])C4([H])[H])c([H])c3C([H])([H])[H])C([H])(C([H])([H])[H])C([H])([H])[H])c([H])c([H])c2C1([H])[H]

>  <smiles>  (83) 
[H]c1c([H])c([H])c2c(c1[H])C([H])([H])C([H])([H])C([H])([H])C2([H])N([H])C(=O)C1([H])N(C(=O)C([H])(N([H])C(=O)C([H])(N([H])C([H])([H])[H])C([H])([H])[H])C(C([H])([H])[H])(C([H])([H])[H])C([H])([H])[H])C([H])([H])c2c([H])c(OC([H])([H])C([H])(c3c(C([H])([H])[H])c([H])c(N([H])C([H])([H])C([H])([H])N([H])C(=O)N4C([H])([H])C([H])([H])C([H])([H])C([H])(n5nc(-c6c([H])c([H])c(Oc7c([H])c([H])c(F)c([H])c7F)c([H])c6[H])c(C(=O)N([H])[H])c5N([H])[H])C4([H])[H])c([H])c3C([H])([H])[H])C([H])(C([H])([H])[H])C([H])([H])[H])c([H])c([H])c2C1([H])[H]

$$$$
84:0:0
     RDKit          3D

 92100  0  0  1  0  0  0  0  0999 V2000
  -29.8010  -20.8290   20.1320 C   0  0  0  0  0  2  0  0  0  0  0  0
  -27.8910  -19.1150   20.0200 C   0  0  0  0  0  3  0  0  0  0  0  0
  -28.1880  -16.7460   20.3730 C   0  0  0  0  0  3  0  0  0  0  0  0
  -27.3410  -17.8330   20.1200 C   0  0  0  0  0  0  0  0  0  0  0  0
  -29.2730  -19.3150   20.1960 C   0  0  0  0  0  0  0  0  0  0  0  0
  -29.5800  -16.9040   20.5260 C   0  0  0  0  0  0  0  0  0  0  0  0
  -25.8420  -17.6440   19.9880 C   0  0  0  0  0  1  0  0  0  0  0  0
  -30.1040  -18.2040   20.4410 N   0  0  0  0  0  0  0  0  0  0  0  0
  -30.8510  -14.5570   20.3600 C   0  0  0  0  0  0  0  0  0  0  0  0
  -30.7160  -12.1610   19.6180 C   0  0  0  0  0  2  0  0  0  0  0  0
  -29.8290  -12.0760   18.3530 C   0  0  0  0  0  2  0  0  0  0  0  0
  -28.3370  -11.9750   18.7250 C   0  0  0  0  0  2  0  0  0  0  0  0
  -27.9220  -13.0180   19.7960 C   0  0  0  0  0  3  0  0  0  0  0  0
  -28.9190  -13.0240   20.9770 C   0  0  0  0  0  2  0  0  0  0  0  0
  -30.2590  -13.3120   20.4340 N   0  0  0  0  0  0  0  0  0  0  0  0
  -31.9730  -14.6850   19.8570 O   0  0  0  0  0  0  0  0  0  0  0  0
  -30.1510  -15.5990   20.9310 N   0  0  0  0  0  0  0  0  0  0  0  0
  -29.5130  -15.1650   21.5750 H   0  0  0  0  0  0  0  0  0  0  0  0
  -25.5360  -13.7560   20.3990 C   0  0  0  0  0  0  0  0  0  0  0  0
  -24.4220  -13.0550   20.7710 C   0  0  0  0  0  0  0  0  0  0  0  0
  -24.8160  -11.6820   20.8050 C   0  0  0  0  0  0  0  0  0  0  0  0
  -26.5440  -12.8190   20.2410 N   0  0  0  0  0  0  0  0  0  0  0  0
  -26.1120  -11.5670   20.5410 N   0  0  0  0  0  0  0  0  0  0  0  0
  -24.0180  -10.4680   21.0170 C   0  0  0  0  0  0  0  0  0  0  0  0
  -24.4030   -9.4870   21.9570 C   0  0  0  0  0  3  0  0  0  0  0  0
  -23.6090   -8.3370   22.1560 C   0  0  0  0  0  3  0  0  0  0  0  0
  -22.4170   -8.1600   21.4140 C   0  0  0  0  0  0  0  0  0  0  0  0
  -22.0510   -9.1290   20.4640 C   0  0  0  0  0  3  0  0  0  0  0  0
  -22.8440  -10.2700   20.2640 C   0  0  0  0  0  3  0  0  0  0  0  0
  -21.5970   -7.0620   21.5230 O   0  0  0  0  0  0  0  0  0  0  0  0
  -21.5610   -6.3010   22.6630 C   0  0  0  0  0  0  0  0  0  0  0  0
  -21.2420   -6.8580   23.9210 C   0  0  0  0  0  3  0  0  0  0  0  0
  -21.1480   -6.0260   25.0540 C   0  0  0  0  0  3  0  0  0  0  0  0
  -21.3630   -4.6400   24.9320 C   0  0  0  0  0  0  0  0  0  0  0  0
  -21.6760   -4.0850   23.6790 C   0  0  0  0  0  3  0  0  0  0  0  0
  -21.7720   -4.9120   22.5480 C   0  0  0  0  0  0  0  0  0  0  0  0
  -22.0540   -4.3680   21.3400 F   0  0  0  0  0  0  0  0  0  0  0  0
  -21.2650   -3.8400   26.0190 F   0  0  0  0  0  0  0  0  0  0  0  0
  -23.0450  -13.6150   20.9820 C   0  0  0  0  0  0  0  0  0  0  0  0
  -22.2630  -13.0010   21.8630 N   0  0  0  0  0  0  0  0  0  0  0  0
  -22.6720  -14.6340   20.4030 O   0  0  0  0  0  0  0  0  0  0  0  0
  -22.5770  -12.1780   22.3550 H   0  0  0  0  0  0  0  0  0  0  0  0
  -21.3370  -13.3610   22.0480 H   0  0  0  0  0  0  0  0  0  0  0  0
  -25.7650  -15.1050   20.1590 N   0  0  0  0  0  0  0  0  0  0  0  0
  -25.0130  -15.7830   20.1940 H   0  0  0  0  0  0  0  0  0  0  0  0
  -26.6400  -15.4990   19.8380 H   0  0  0  0  0  0  0  0  0  0  0  0
  -28.7800  -22.0950   20.3680 C   0  0  0  0  0  3  0  0  0  0  0  0
  -28.3620  -22.0680   21.7260 O   0  0  0  0  0  0  0  0  0  0  0  0
  -27.9500  -21.2240   21.8920 H   0  0  0  0  0  0  0  0  0  0  0  0
  -29.1890  -23.6480   20.0980 C   0  0  0  0  0  3  0  0  0  0  0  0
  -28.0830  -24.8090   20.3520 C   0  0  0  0  0  3  0  0  0  0  0  0
  -28.3450  -26.2830   20.1770 O   0  0  0  0  0  0  0  0  0  0  0  0
  -24.5350  -31.7210   23.1400 C   0  0  0  0  0  0  0  0  0  0  0  0
  -27.2360  -27.1610   20.1290 C   0  0  0  0  0  0  0  0  0  0  0  0
  -23.3740  -30.3220   21.4700 C   0  0  0  0  0  3  0  0  0  0  0  0
  -24.8660  -28.7860   20.0660 C   0  0  0  0  0  0  0  0  0  0  0  0
  -25.9180  -30.6500   21.3410 C   0  0  0  0  0  2  0  0  0  0  0  0
  -26.0200  -29.2720   20.6910 C   0  0  0  0  0  0  0  0  0  0  0  0
  -27.2100  -28.4730   20.7100 C   0  0  0  0  0  3  0  0  0  0  0  0
  -26.0610  -26.7480   19.4620 C   0  0  0  0  0  3  0  0  0  0  0  0
  -24.8900  -27.5310   19.4390 C   0  0  0  0  0  3  0  0  0  0  0  0
  -23.6230  -29.6540   20.0920 C   0  0  0  0  0  2  0  0  0  0  0  0
  -24.6270  -30.9160   22.0400 N   0  0  0  0  0  0  0  0  0  0  0  0
  -23.4390  -31.9880   23.6540 O   0  0  0  0  0  0  0  0  0  0  0  0
  -22.6970  -29.2980   22.4120 C   0  0  0  0  0  0  0  0  0  0  0  0
  -21.3720  -29.1240   22.2680 N   0  0  0  0  0  0  0  0  0  0  0  0
  -23.3650  -28.6630   23.2340 O   0  0  0  0  0  0  0  0  0  0  0  0
  -20.8920  -29.6860   21.5810 H   0  0  0  0  0  0  0  0  0  0  0  0
  -17.9880  -27.9300   22.7270 C   0  0  0  0  0  0  0  0  0  0  0  0
  -20.5450  -28.1790   23.0210 C   0  0  0  0  0  3  0  0  0  0  0  0
  -20.6470  -26.7540   22.4320 C   0  0  0  0  0  2  0  0  0  0  0  0
  -19.5550  -26.4470   21.4030 C   0  0  0  0  0  2  0  0  0  0  0  0
  -18.1670  -26.5890   22.0360 C   0  0  0  0  0  2  0  0  0  0  0  0
  -19.1050  -28.6840   23.1760 C   0  0  0  0  0  0  0  0  0  0  0  0
  -18.8830  -29.9400   23.7810 C   0  0  0  0  0  3  0  0  0  0  0  0
  -17.5780  -30.4420   23.9420 C   0  0  0  0  0  3  0  0  0  0  0  0
  -16.4760  -29.6850   23.5080 C   0  0  0  0  0  3  0  0  0  0  0  0
  -16.6810  -28.4310   22.9070 C   0  0  0  0  0  3  0  0  0  0  0  0
  -25.7990  -32.3610   23.7900 C   0  0  0  0  0  3  0  0  0  0  0  0
  -25.4700  -33.7530   24.1290 N   0  0  0  0  0  0  0  0  0  0  0  0
  -25.8280  -34.8190   23.4010 C   0  0  0  0  0  0  0  0  0  0  0  0
  -26.5390  -34.7340   22.3960 O   0  0  0  0  0  0  0  0  0  0  0  0
  -24.8440  -33.8910   24.9090 H   0  0  0  0  0  0  0  0  0  0  0  0
  -24.1100  -36.6130   23.0080 C   0  0  0  0  0  1  0  0  0  0  0  0
  -25.3180  -36.1990   23.8620 C   0  0  0  0  0  3  0  0  0  0  0  0
  -27.4170  -37.0750   24.7890 C   0  0  0  0  0  1  0  0  0  0  0  0
  -26.3510  -37.2570   23.8060 N   0  0  0  0  0  0  0  0  0  0  0  0
  -25.9360  -38.1730   23.9540 H   0  0  0  0  0  0  0  0  0  0  0  0
  -26.2990  -31.5830   25.0700 C   0  0  1  0  0  0  0  0  0  0  0  0
  -25.1870  -31.3200   26.1110 C   0  0  0  0  0  1  0  0  0  0  0  0
  -26.9100  -30.2190   24.6780 C   0  0  0  0  0  1  0  0  0  0  0  0
  -27.4220  -32.3880   25.7660 C   0  0  0  0  0  1  0  0  0  0  0  0
  1  5  1  0
  1 47  1  0
  2  4  2  0
  2  5  1  0
  3  6  2  0
  4  3  1  0
  5  8  2  0
  6 17  1  0
  7  4  1  0
  8  6  1  0
  9 15  1  0
  9 17  1  0
 10 15  1  0
 11 12  1  0
 11 10  1  0
 13 12  1  0
 13 22  1  0
 13 14  1  0
 15 14  1  0
 16  9  2  0
 17 18  1  0
 19 20  2  0
 20 21  1  0
 20 39  1  0
 21 24  1  0
 22 19  1  0
 22 23  1  0
 23 21  2  0
 24 25  1  0
 25 26  2  0
 27 30  1  0
 27 26  1  0
 28 27  2  0
 29 28  1  0
 29 24  2  0
 30 31  1  0
 31 32  1  0
 32 33  2  0
 34 33  1  0
 34 38  1  0
 35 34  2  0
 36 31  2  0
 36 35  1  0
 37 36  1  0
 39 40  1  0
 40 43  1  0
 40 42  1  0
 41 39  2  0
 44 45  1  0
 44 19  1  0
 46 44  1  0
 47 50  1  0
 47 48  1  0
 48 49  1  0
 50 51  2  0
 52 51  1  0
 53 64  2  0
 54 52  1  0
 54 59  1  0
 55 63  1  0
 55 65  1  0
 56 62  1  0
 56 58  1  0
 57 63  1  0
 58 59  2  0
 58 57  1  0
 60 54  2  0
 61 60  1  0
 61 56  2  0
 62 55  1  0
 63 53  1  0
 65 67  2  0
 66 65  1  0
 68 66  1  0
 69 78  2  0
 69 74  1  0
 70 66  1  0
 70 74  1  0
 71 70  1  0
 72 73  1  0
 72 71  1  0
 73 69  1  0
 74 75  2  0
 75 76  1  0
 77 76  2  0
 78 77  1  0
 79 53  1  0
 79 80  1  0
 79 89  1  0
 80 83  1  0
 81 85  1  0
 81 80  1  0
 82 81  2  0
 85 84  1  0
 87 85  1  0
 87 88  1  0
 87 86  1  0
 89 92  1  1
 89 90  1  0
 91 89  1  0
M  ISO  4   9 100  17 100  51 101  52 101
M  END
>  <TORSDO>  (84) 
F 21

>  <SCORE>  (84) 
-13.652

>  <name>  (84) 
84

>  <ligand_id>  (84) 
84

>  <original_smiles>  (84) 
[H]OC([H])(C([H])([H])c1nc(N([H])C(=O)N2C([H])([H])C([H])([H])C([H])([H])C([H])(n3nc(-c4c([H])c([H])c(Oc5c([H])c([H])c(F)c([H])c5F)c([H])c4[H])c(C(=O)N([H])[H])c3N([H])[H])C2([H])[H])c([H])c(C([H])([H])[H])c1[H])C([H])([H])C([H])([H])Oc1c([H])c([H])c2c(c1[H])C([H])([H])N(C(=O)C([H])(N([H])C(=O)C([H])(N([H])C([H])([H])[H])C([H])([H])[H])C(C([H])([H])[H])(C([H])([H])[H])C([H])([H])[H])C([H])(C(=O)N([H])C1([H])c3c([H])c([H])c([H])c([H])c3C([H])([H])C([H])([H])C1([H])[H])C2([H])[H]

>  <smiles>  (84) 
[H]OC([H])(C([H])([H])c1nc(N([H])C(=O)N2C([H])([H])C([H])([H])C([H])([H])C([H])(n3nc(-c4c([H])c([H])c(Oc5c([H])c([H])c(F)c([H])c5F)c([H])c4[H])c(C(=O)N([H])[H])c3N([H])[H])C2([H])[H])c([H])c(C([H])([H])[H])c1[H])C([H])([H])C([H])([H])Oc1c([H])c([H])c2c(c1[H])C([H])([H])N(C(=O)C([H])(N([H])C(=O)C([H])(N([H])C([H])([H])[H])C([H])([H])[H])C(C([H])([H])[H])(C([H])([H])[H])C([H])([H])[H])C([H])(C(=O)N([H])C1([H])c3c([H])c([H])c([H])c([H])c3C([H])([H])C([H])([H])C1([H])[H])C2([H])[H]

$$$$
85:0:0
     RDKit          3D

 91 99  0  0  1  0  0  0  0  0999 V2000
  -28.9340  -22.9700   19.1760 C   0  0  0  0  0  3  0  0  0  0  0  0
  -28.9000  -24.3920   19.1230 C   0  0  0  0  0  3  0  0  0  0  0  0
  -27.9240  -23.1250   21.3330 C   0  0  0  0  0  3  0  0  0  0  0  0
  -28.4340  -22.2800   20.3090 C   0  0  0  0  0  0  0  0  0  0  0  0
  -28.3510  -25.1420   20.1870 C   0  0  0  0  0  0  0  0  0  0  0  0
  -27.8840  -24.4930   21.2860 N   0  0  0  0  0  0  0  0  0  0  0  0
  -28.3710  -26.5540   20.1870 O   0  0  0  0  0  0  0  0  0  0  0  0
  -24.6510  -31.9130   23.2570 C   0  0  0  0  0  0  0  0  0  0  0  0
  -27.2220  -27.3510   20.2000 C   0  0  0  0  0  0  0  0  0  0  0  0
  -23.4310  -30.5280   21.6150 C   0  0  0  0  0  3  0  0  0  0  0  0
  -24.8640  -28.9600   20.1910 C   0  0  0  0  0  0  0  0  0  0  0  0
  -25.9690  -30.8280   21.4260 C   0  0  0  0  0  2  0  0  0  0  0  0
  -26.0330  -29.4470   20.7880 C   0  0  0  0  0  0  0  0  0  0  0  0
  -27.2130  -28.6520   20.7860 C   0  0  0  0  0  3  0  0  0  0  0  0
  -26.0350  -26.9060   19.5820 C   0  0  0  0  0  3  0  0  0  0  0  0
  -24.8650  -27.6920   19.5820 C   0  0  0  0  0  3  0  0  0  0  0  0
  -23.6360  -29.8460   20.2350 C   0  0  0  0  0  2  0  0  0  0  0  0
  -24.7020  -31.1070   22.1570 N   0  0  0  0  0  0  0  0  0  0  0  0
  -23.5720  -32.2000   23.7950 O   0  0  0  0  0  0  0  0  0  0  0  0
  -22.7600  -29.5180   22.5750 C   0  0  0  0  0  0  0  0  0  0  0  0
  -21.4330  -29.3540   22.4480 N   0  0  0  0  0  0  0  0  0  0  0  0
  -23.4330  -28.8840   23.3930 O   0  0  0  0  0  0  0  0  0  0  0  0
  -20.9500  -29.9160   21.7610 H   0  0  0  0  0  0  0  0  0  0  0  0
  -18.0440  -28.2010   22.9520 C   0  0  0  0  0  0  0  0  0  0  0  0
  -20.6050  -28.4250   23.2180 C   0  0  0  0  0  3  0  0  0  0  0  0
  -20.6870  -26.9940   22.6390 C   0  0  0  0  0  2  0  0  0  0  0  0
  -19.5790  -26.6900   21.6260 C   0  0  0  0  0  2  0  0  0  0  0  0
  -18.2010  -26.8510   22.2730 C   0  0  0  0  0  2  0  0  0  0  0  0
  -19.1740  -28.9460   23.3830 C   0  0  0  0  0  0  0  0  0  0  0  0
  -18.9720  -30.2100   23.9780 C   0  0  0  0  0  3  0  0  0  0  0  0
  -17.6740  -30.7290   24.1480 C   0  0  0  0  0  3  0  0  0  0  0  0
  -16.5590  -29.9800   23.7340 C   0  0  0  0  0  3  0  0  0  0  0  0
  -16.7450  -28.7180   23.1420 C   0  0  0  0  0  3  0  0  0  0  0  0
  -25.9420  -32.5310   23.8780 C   0  0  0  0  0  3  0  0  0  0  0  0
  -26.4570  -31.7470   25.1480 C   0  0  1  0  0  0  0  0  0  0  0  0
  -25.3660  -31.5120   26.2180 C   0  0  0  0  0  1  0  0  0  0  0  0
  -27.0270  -30.3670   24.7440 C   0  0  0  0  0  1  0  0  0  0  0  0
  -27.6160  -32.5280   25.8130 C   0  0  0  0  0  1  0  0  0  0  0  0
  -25.6470  -33.9300   24.2190 N   0  0  0  0  0  0  0  0  0  0  0  0
  -25.9600  -34.9830   23.4540 C   0  0  0  0  0  0  0  0  0  0  0  0
  -26.6000  -34.8800   22.4040 O   0  0  0  0  0  0  0  0  0  0  0  0
  -25.0780  -34.0850   25.0390 H   0  0  0  0  0  0  0  0  0  0  0  0
  -24.2170  -36.7730   23.1660 C   0  0  0  0  0  1  0  0  0  0  0  0
  -25.4900  -36.3720   23.9280 C   0  0  0  0  0  3  0  0  0  0  0  0
  -27.6530  -37.2620   24.6750 C   0  0  0  0  0  1  0  0  0  0  0  0
  -26.5160  -37.4260   23.7730 N   0  0  0  0  0  0  0  0  0  0  0  0
  -26.1140  -38.3460   23.9320 H   0  0  0  0  0  0  0  0  0  0  0  0
  -28.2320  -20.7120   20.3360 C   0  0  0  0  0  2  0  0  0  0  0  0
  -29.3830  -19.7400   20.5230 N   0  0  0  0  0  4  0  0  0  0  0  0
  -29.8420  -19.9510   21.3950 H   0  0  0  0  0  0  0  0  0  0  0  0
  -30.0510  -19.8910   19.7850 H   0  0  0  0  0  0  0  0  0  0  0  0
  -29.0090  -18.2610   20.5310 C   0  0  0  0  0  3  0  0  0  0  0  0
  -30.1820  -17.1890   20.6710 C   0  0  0  0  0  3  0  0  0  0  0  0
  -30.5610  -14.6380   20.4210 C   0  0  0  0  0  0  0  0  0  0  0  0
  -30.3290  -12.4030   19.3630 C   0  0  0  0  0  2  0  0  0  0  0  0
  -29.3830  -12.5260   18.1500 C   0  0  0  0  0  2  0  0  0  0  0  0
  -27.9120  -12.3720   18.5850 C   0  0  0  0  0  2  0  0  0  0  0  0
  -27.5590  -13.2420   19.8210 C   0  0  0  0  0  3  0  0  0  0  0  0
  -28.6200  -13.0980   20.9340 C   0  0  0  0  0  2  0  0  0  0  0  0
  -29.9250  -13.4280   20.3460 N   0  0  0  0  0  0  0  0  0  0  0  0
  -31.7290  -14.7730   20.0470 O   0  0  0  0  0  0  0  0  0  0  0  0
  -29.7910  -15.7310   20.7240 N   0  0  0  0  0  0  0  0  0  0  0  0
  -28.8390  -15.5270   20.9890 H   0  0  0  0  0  0  0  0  0  0  0  0
  -25.1740  -13.8480   20.5550 C   0  0  0  0  0  0  0  0  0  0  0  0
  -24.1050  -13.0790   20.9260 C   0  0  0  0  0  0  0  0  0  0  0  0
  -24.5610  -11.7250   20.8860 C   0  0  0  0  0  0  0  0  0  0  0  0
  -26.2120  -12.9650   20.3120 N   0  0  0  0  0  0  0  0  0  0  0  0
  -25.8490  -11.6820   20.5710 N   0  0  0  0  0  0  0  0  0  0  0  0
  -23.8290  -10.4650   21.0720 C   0  0  0  0  0  0  0  0  0  0  0  0
  -24.2630   -9.4890   21.9950 C   0  0  0  0  0  3  0  0  0  0  0  0
  -23.5310   -8.2940   22.1690 C   0  0  0  0  0  3  0  0  0  0  0  0
  -22.3530   -8.0670   21.4190 C   0  0  0  0  0  0  0  0  0  0  0  0
  -21.9400   -9.0320   20.4830 C   0  0  0  0  0  3  0  0  0  0  0  0
  -22.6720  -10.2180   20.3070 C   0  0  0  0  0  3  0  0  0  0  0  0
  -21.5930   -6.9260   21.5020 O   0  0  0  0  0  0  0  0  0  0  0  0
  -21.5440   -6.1770   22.6500 C   0  0  0  0  0  0  0  0  0  0  0  0
  -21.1030   -6.7210   23.8760 C   0  0  0  0  0  3  0  0  0  0  0  0
  -21.0030   -5.8970   25.0160 C   0  0  0  0  0  3  0  0  0  0  0  0
  -21.3310   -4.5320   24.9300 C   0  0  0  0  0  0  0  0  0  0  0  0
  -21.7640   -3.9870   23.7080 C   0  0  0  0  0  3  0  0  0  0  0  0
  -21.8670   -4.8060   22.5710 C   0  0  0  0  0  0  0  0  0  0  0  0
  -22.2650   -4.2720   21.3910 F   0  0  0  0  0  0  0  0  0  0  0  0
  -21.2270   -3.7380   26.0220 F   0  0  0  0  0  0  0  0  0  0  0  0
  -22.7110  -13.5610   21.2050 C   0  0  0  0  0  0  0  0  0  0  0  0
  -21.9860  -12.8690   22.0770 N   0  0  0  0  0  0  0  0  0  0  0  0
  -22.2740  -14.5870   20.6860 O   0  0  0  0  0  0  0  0  0  0  0  0
  -22.3540  -12.0380   22.5180 H   0  0  0  0  0  0  0  0  0  0  0  0
  -21.0510  -13.1730   22.3080 H   0  0  0  0  0  0  0  0  0  0  0  0
  -25.3430  -15.2190   20.3800 N   0  0  0  0  0  0  0  0  0  0  0  0
  -24.5710  -15.8690   20.4800 H   0  0  0  0  0  0  0  0  0  0  0  0
  -26.1720  -15.6460   19.9890 H   0  0  0  0  0  0  0  0  0  0  0  0
  1  4  1  0
  2  1  2  0
  2  5  1  0
  4 48  1  0
  4  3  2  0
  5  6  2  0
  6  3  1  0
  7  5  1  0
  7  9  1  0
  8 19  2  0
  9 14  1  0
 10 18  1  0
 10 20  1  0
 11 17  1  0
 11 13  1  0
 12 18  1  0
 13 12  1  0
 14 13  2  0
 15  9  2  0
 16 15  1  0
 16 11  2  0
 17 10  1  0
 18  8  1  0
 20 22  2  0
 21 20  1  0
 23 21  1  0
 24 33  2  0
 24 29  1  0
 25 21  1  0
 25 29  1  0
 26 25  1  0
 27 28  1  0
 27 26  1  0
 28 24  1  0
 29 30  2  0
 30 31  1  0
 32 31  2  0
 33 32  1  0
 34  8  1  0
 34 39  1  0
 34 35  1  0
 35 38  1  1
 35 36  1  0
 37 35  1  0
 39 42  1  0
 40 44  1  0
 40 39  1  0
 41 40  2  0
 44 43  1  0
 46 44  1  0
 46 47  1  0
 46 45  1  0
 48 49  1  0
 49 52  1  0
 49 50  1  0
 51 49  1  0
 52 53  2  0
 53 62  1  0
 54 62  1  0
 55 60  1  0
 56 57  1  0
 56 55  1  0
 58 57  1  0
 58 67  1  0
 58 59  1  0
 60 54  1  0
 60 59  1  0
 61 54  2  0
 62 63  1  0
 64 65  2  0
 65 84  1  0
 66 65  1  0
 66 69  1  0
 67 64  1  0
 67 68  1  0
 68 66  2  0
 69 70  1  0
 70 71  2  0
 72 75  1  0
 72 71  1  0
 73 72  2  0
 74 73  1  0
 74 69  2  0
 75 76  1  0
 76 77  1  0
 77 78  2  0
 79 78  1  0
 79 83  1  0
 80 79  2  0
 81 76  2  0
 81 80  1  0
 82 81  1  0
 84 85  1  0
 85 88  1  0
 85 87  1  0
 86 84  2  0
 89 90  1  0
 89 64  1  0
 91 89  1  0
M  ISO  4   5 101   7 101  54 100  62 100
M  END
>  <TORSDO>  (85) 
F 20

>  <SCORE>  (85) 
-13.786

>  <name>  (85) 
85

>  <ligand_id>  (85) 
85

>  <original_smiles>  (85) 
[H]c1nc(Oc2c([H])c([H])c3c(c2[H])C([H])([H])N(C(=O)C([H])(N([H])C(=O)C([H])(N([H])C([H])([H])[H])C([H])([H])[H])C(C([H])([H])[H])(C([H])([H])[H])C([H])([H])[H])C([H])(C(=O)N([H])C2([H])c4c([H])c([H])c([H])c([H])c4C([H])([H])C([H])([H])C2([H])[H])C3([H])[H])c([H])c([H])c1C([H])([H])[N+]([H])([H])C([H])([H])C([H])([H])N([H])C(=O)N1C([H])([H])C([H])([H])C([H])([H])C([H])(n2nc(-c3c([H])c([H])c(Oc4c([H])c([H])c(F)c([H])c4F)c([H])c3[H])c(C(=O)N([H])[H])c2N([H])[H])C1([H])[H]

>  <smiles>  (85) 
[H]c1nc(Oc2c([H])c([H])c3c(c2[H])C([H])([H])N(C(=O)C([H])(N([H])C(=O)C([H])(N([H])C([H])([H])[H])C([H])([H])[H])C(C([H])([H])[H])(C([H])([H])[H])C([H])([H])[H])C([H])(C(=O)N([H])C2([H])c4c([H])c([H])c([H])c([H])c4C([H])([H])C([H])([H])C2([H])[H])C3([H])[H])c([H])c([H])c1C([H])([H])[N+]([H])([H])C([H])([H])C([H])([H])N([H])C(=O)N1C([H])([H])C([H])([H])C([H])([H])C([H])(n2nc(-c3c([H])c([H])c(Oc4c([H])c([H])c(F)c([H])c4F)c([H])c3[H])c(C(=O)N([H])[H])c2N([H])[H])C1([H])[H]

$$$$
86:0:0
     RDKit          3D

 91 99  0  0  1  0  0  0  0  0999 V2000
  -28.6760  -21.4970   19.9370 C   0  0  0  0  0  3  0  0  0  0  0  0
  -30.8610  -22.3690   20.4470 C   0  0  0  0  0  3  0  0  0  0  0  0
  -28.1350  -22.8070   20.1180 C   0  0  0  0  0  3  0  0  0  0  0  0
  -30.3230  -23.6730   20.6280 C   0  0  0  0  0  3  0  0  0  0  0  0
  -30.0570  -21.2350   20.1330 C   0  0  0  0  0  0  0  0  0  0  0  0
  -28.9380  -23.9200   20.4930 C   0  0  0  0  0  0  0  0  0  0  0  0
  -30.7360  -19.8630   19.9860 C   0  0  0  0  0  0  0  0  0  0  0  0
  -31.9610  -19.7870   20.1240 O   0  0  0  0  0  0  0  0  0  0  0  0
  -28.7760  -18.3300   20.6570 C   0  0  0  0  0  1  0  0  0  0  0  0
  -29.9730  -18.5040   19.7030 C   0  0  0  0  0  3  0  0  0  0  0  0
  -30.9320  -17.2290   19.7690 C   0  0  0  0  0  2  0  0  0  0  0  0
  -31.0460  -14.6990   19.6460 C   0  0  0  0  0  0  0  0  0  0  0  0
  -30.6880  -12.4210   18.7430 C   0  0  0  0  0  2  0  0  0  0  0  0
  -29.6630  -12.4880   17.5920 C   0  0  0  0  0  2  0  0  0  0  0  0
  -28.2290  -12.3650   18.1410 C   0  0  0  0  0  2  0  0  0  0  0  0
  -27.9640  -13.3120   19.3440 C   0  0  0  0  0  3  0  0  0  0  0  0
  -29.1030  -13.2470   20.3850 C   0  0  0  0  0  2  0  0  0  0  0  0
  -30.3660  -13.5120   19.6830 N   0  0  0  0  0  0  0  0  0  0  0  0
  -32.1850  -14.7680   19.1770 O   0  0  0  0  0  0  0  0  0  0  0  0
  -30.3670  -15.8450   19.9440 N   0  0  0  0  0  0  0  0  0  0  0  0
  -29.4210  -15.7510   20.2850 H   0  0  0  0  0  0  0  0  0  0  0  0
  -25.6810  -13.9710   20.3200 C   0  0  0  0  0  0  0  0  0  0  0  0
  -24.6200  -13.2240   20.7550 C   0  0  0  0  0  0  0  0  0  0  0  0
  -25.0160  -11.8590   20.6200 C   0  0  0  0  0  0  0  0  0  0  0  0
  -26.6570  -13.0620   19.9460 N   0  0  0  0  0  0  0  0  0  0  0  0
  -26.2690  -11.7830   20.1890 N   0  0  0  0  0  0  0  0  0  0  0  0
  -24.2550  -10.6190   20.8230 C   0  0  0  0  0  0  0  0  0  0  0  0
  -24.6590   -9.6500   21.7680 C   0  0  0  0  0  3  0  0  0  0  0  0
  -23.8990   -8.4760   21.9590 C   0  0  0  0  0  3  0  0  0  0  0  0
  -22.7200   -8.2630   21.2060 C   0  0  0  0  0  0  0  0  0  0  0  0
  -22.3350   -9.2190   20.2510 C   0  0  0  0  0  3  0  0  0  0  0  0
  -23.0960  -10.3850   20.0570 C   0  0  0  0  0  3  0  0  0  0  0  0
  -21.9340   -7.1400   21.3060 O   0  0  0  0  0  0  0  0  0  0  0  0
  -21.7900   -6.4660   22.4910 C   0  0  0  0  0  0  0  0  0  0  0  0
  -21.2100   -7.0720   23.6270 C   0  0  0  0  0  3  0  0  0  0  0  0
  -21.0160   -6.3210   24.8040 C   0  0  0  0  0  3  0  0  0  0  0  0
  -21.3920   -4.9650   24.8440 C   0  0  0  0  0  0  0  0  0  0  0  0
  -21.9650   -4.3580   23.7130 C   0  0  0  0  0  3  0  0  0  0  0  0
  -22.1590   -5.1070   22.5390 C   0  0  0  0  0  0  0  0  0  0  0  0
  -22.6920   -4.5120   21.4430 F   0  0  0  0  0  0  0  0  0  0  0  0
  -21.1980   -4.2420   25.9720 F   0  0  0  0  0  0  0  0  0  0  0  0
  -23.2780  -13.7440   21.1790 C   0  0  0  0  0  0  0  0  0  0  0  0
  -22.5990  -13.0350   22.0750 N   0  0  0  0  0  0  0  0  0  0  0  0
  -22.8440  -14.8140   20.7540 O   0  0  0  0  0  0  0  0  0  0  0  0
  -22.9650  -12.1670   22.4400 H   0  0  0  0  0  0  0  0  0  0  0  0
  -21.7000  -13.3630   22.4000 H   0  0  0  0  0  0  0  0  0  0  0  0
  -25.8900  -15.3410   20.1900 N   0  0  0  0  0  0  0  0  0  0  0  0
  -25.1740  -16.0210   20.4200 H   0  0  0  0  0  0  0  0  0  0  0  0
  -26.7300  -15.7640   19.8140 H   0  0  0  0  0  0  0  0  0  0  0  0
  -28.2920  -25.2590   20.9770 C   0  0  0  0  0  2  0  0  0  0  0  0
  -28.6100  -26.5500   20.3520 O   0  0  0  0  0  0  0  0  0  0  0  0
  -24.5950  -31.7530   23.2850 C   0  0  0  0  0  0  0  0  0  0  0  0
  -27.4990  -27.3880   20.2600 C   0  0  0  0  0  0  0  0  0  0  0  0
  -23.5090  -30.3340   21.5800 C   0  0  0  0  0  3  0  0  0  0  0  0
  -25.0720  -28.8740   20.1810 C   0  0  0  0  0  0  0  0  0  0  0  0
  -26.0330  -30.7680   21.4920 C   0  0  0  0  0  2  0  0  0  0  0  0
  -26.1950  -29.4080   20.8300 C   0  0  0  0  0  0  0  0  0  0  0  0
  -27.4160  -28.6750   20.8630 C   0  0  0  0  0  3  0  0  0  0  0  0
  -26.3650  -26.9040   19.5740 C   0  0  0  0  0  3  0  0  0  0  0  0
  -25.1580  -27.6270   19.5430 C   0  0  0  0  0  3  0  0  0  0  0  0
  -23.7980  -29.6910   20.1980 C   0  0  0  0  0  2  0  0  0  0  0  0
  -24.7290  -30.9680   22.1770 N   0  0  0  0  0  0  0  0  0  0  0  0
  -23.4830  -31.9770   23.7850 O   0  0  0  0  0  0  0  0  0  0  0  0
  -22.8540  -29.2740   22.4980 C   0  0  0  0  0  0  0  0  0  0  0  0
  -21.5430  -29.0450   22.3170 N   0  0  0  0  0  0  0  0  0  0  0  0
  -23.5270  -28.6630   23.3330 O   0  0  0  0  0  0  0  0  0  0  0  0
  -21.0580  -29.5940   21.6200 H   0  0  0  0  0  0  0  0  0  0  0  0
  -18.1980  -27.7190   22.6760 C   0  0  0  0  0  0  0  0  0  0  0  0
  -20.7340  -28.0640   23.0420 C   0  0  0  0  0  3  0  0  0  0  0  0
  -20.9080  -26.6480   22.4460 C   0  0  0  0  0  2  0  0  0  0  0  0
  -19.8540  -26.3040   21.3880 C   0  0  0  0  0  2  0  0  0  0  0  0
  -18.4470  -26.3880   21.9840 C   0  0  0  0  0  2  0  0  0  0  0  0
  -19.2730  -28.5120   23.1580 C   0  0  0  0  0  0  0  0  0  0  0  0
  -18.9860  -29.7560   23.7620 C   0  0  0  0  0  3  0  0  0  0  0  0
  -17.6590  -30.2070   23.8900 C   0  0  0  0  0  3  0  0  0  0  0  0
  -16.6000  -29.4110   23.4230 C   0  0  0  0  0  3  0  0  0  0  0  0
  -16.8690  -28.1670   22.8220 C   0  0  0  0  0  3  0  0  0  0  0  0
  -25.8290  -32.4230   23.9650 C   0  0  0  0  0  3  0  0  0  0  0  0
  -26.2870  -31.6890   25.2840 C   0  0  1  0  0  0  0  0  0  0  0  0
  -25.1360  -31.4340   26.2860 C   0  0  0  0  0  1  0  0  0  0  0  0
  -26.9350  -30.3240   24.9550 C   0  0  0  0  0  1  0  0  0  0  0  0
  -27.3680  -32.5290   26.0020 C   0  0  0  0  0  1  0  0  0  0  0  0
  -25.4750  -33.8210   24.2470 N   0  0  0  0  0  0  0  0  0  0  0  0
  -25.8260  -34.8640   23.4820 C   0  0  0  0  0  0  0  0  0  0  0  0
  -26.5510  -34.7510   22.4900 O   0  0  0  0  0  0  0  0  0  0  0  0
  -24.8370  -33.9800   25.0130 H   0  0  0  0  0  0  0  0  0  0  0  0
  -24.0870  -36.6140   22.9900 C   0  0  0  0  0  1  0  0  0  0  0  0
  -25.2860  -36.2510   23.8800 C   0  0  0  0  0  3  0  0  0  0  0  0
  -27.3440  -37.2020   24.8260 C   0  0  0  0  0  1  0  0  0  0  0  0
  -26.3040  -37.3210   23.8060 N   0  0  0  0  0  0  0  0  0  0  0  0
  -25.8720  -38.2360   23.9000 H   0  0  0  0  0  0  0  0  0  0  0  0
  1  3  2  0
  1  5  1  0
  2  4  1  0
  3  6  1  0
  5  2  2  0
  6  4  2  0
  6 50  1  0
  7  8  2  0
  7  5  1  0
 10 11  1  0
 10  7  1  0
 10  9  1  0
 11 20  1  0
 12 18  1  0
 12 20  1  0
 13 18  1  0
 14 15  1  0
 14 13  1  0
 16 15  1  0
 16 25  1  0
 16 17  1  0
 18 17  1  0
 19 12  2  0
 20 21  1  0
 22 23  2  0
 23 42  1  0
 24 23  1  0
 24 27  1  0
 25 26  1  0
 25 22  1  0
 26 24  2  0
 27 28  1  0
 28 29  2  0
 30 33  1  0
 30 29  1  0
 31 30  2  0
 32 31  1  0
 32 27  2  0
 33 34  1  0
 34 39  2  0
 34 35  1  0
 35 36  2  0
 36 37  1  0
 37 41  1  0
 38 37  2  0
 39 38  1  0
 40 39  1  0
 42 43  1  0
 43 46  1  0
 43 45  1  0
 44 42  2  0
 47 22  1  0
 47 48  1  0
 49 47  1  0
 51 50  1  0
 52 63  2  0
 53 51  1  0
 53 58  1  0
 54 62  1  0
 54 64  1  0
 55 61  1  0
 55 57  1  0
 56 62  1  0
 57 58  2  0
 57 56  1  0
 59 53  2  0
 60 59  1  0
 60 55  2  0
 61 54  1  0
 62 52  1  0
 64 66  2  0
 65 64  1  0
 67 65  1  0
 68 77  2  0
 68 73  1  0
 69 65  1  0
 69 73  1  0
 70 69  1  0
 71 72  1  0
 71 70  1  0
 72 68  1  0
 73 74  2  0
 74 75  1  0
 76 75  2  0
 77 76  1  0
 78 52  1  0
 78 83  1  0
 78 79  1  0
 79 82  1  1
 79 80  1  0
 81 79  1  0
 83 86  1  0
 84 88  1  0
 84 83  1  0
 85 84  2  0
 88 87  1  0
 90 88  1  0
 90 91  1  0
 90 89  1  0
M  ISO  4  12 100  20 100  50 101  51 101
M  END
>  <TORSDO>  (86) 
F 20

>  <SCORE>  (86) 
-13.236

>  <name>  (86) 
86

>  <ligand_id>  (86) 
86

>  <original_smiles>  (86) 
[H]c1c([H])c([H])c2c(c1[H])C([H])([H])C([H])([H])C([H])([H])C2([H])N([H])C(=O)C1([H])N(C(=O)C([H])(N([H])C(=O)C([H])(N([H])C([H])([H])[H])C([H])([H])[H])C(C([H])([H])[H])(C([H])([H])[H])C([H])([H])[H])C([H])([H])c2c([H])c(OC([H])([H])c3c([H])c([H])c(C(=O)C([H])(C([H])([H])[H])C([H])([H])N([H])C(=O)N4C([H])([H])C([H])([H])C([H])([H])C([H])(n5nc(-c6c([H])c([H])c(Oc7c([H])c([H])c(F)c([H])c7F)c([H])c6[H])c(C(=O)N([H])[H])c5N([H])[H])C4([H])[H])c([H])c3[H])c([H])c([H])c2C1([H])[H]

>  <smiles>  (86) 
[H]c1c([H])c([H])c2c(c1[H])C([H])([H])C([H])([H])C([H])([H])C2([H])N([H])C(=O)C1([H])N(C(=O)C([H])(N([H])C(=O)C([H])(N([H])C([H])([H])[H])C([H])([H])[H])C(C([H])([H])[H])(C([H])([H])[H])C([H])([H])[H])C([H])([H])c2c([H])c(OC([H])([H])c3c([H])c([H])c(C(=O)C([H])(C([H])([H])[H])C([H])([H])N([H])C(=O)N4C([H])([H])C([H])([H])C([H])([H])C([H])(n5nc(-c6c([H])c([H])c(Oc7c([H])c([H])c(F)c([H])c7F)c([H])c6[H])c(C(=O)N([H])[H])c5N([H])[H])C4([H])[H])c([H])c3[H])c([H])c([H])c2C1([H])[H]

$$$$
87:0:0
     RDKit          3D

 99109  0  0  1  0  0  0  0  0999 V2000
  -30.7490  -22.4200   22.5250 C   0  0  0  0  0  3  0  0  0  0  0  0
  -31.0740  -23.7620   22.2740 C   0  0  0  0  0  3  0  0  0  0  0  0
  -30.0210  -21.6980   21.5580 C   0  0  0  0  0  0  0  0  0  0  0  0
  -29.6260  -22.3790   20.3780 C   0  0  0  0  0  0  0  0  0  0  0  0
  -30.6510  -24.3530   21.0750 C   0  0  0  0  0  0  0  0  0  0  0  0
  -29.9320  -23.6780   20.1530 N   0  0  0  0  0  0  0  0  0  0  0  0
  -29.3460  -20.5970   18.4680 C   0  0  0  0  0  2  0  0  0  0  0  0
  -29.1340  -21.9420   17.8300 C   0  0  0  0  0  2  0  0  0  0  0  0
  -28.8000  -21.7450   19.2940 C   0  0  0  0  0  3  0  0  0  0  0  0
  -29.6390  -20.2440   21.8400 C   0  0  0  0  0  2  0  0  0  0  0  0
  -30.6170  -19.2750   21.2890 N   0  0  0  0  0  4  0  0  0  0  0  0
  -30.6810  -19.3780   20.2900 H   0  0  0  0  0  0  0  0  0  0  0  0
  -31.5190  -19.5090   21.6710 H   0  0  0  0  0  0  0  0  0  0  0  0
  -30.4050  -14.2640   19.7550 C   0  0  0  0  0  0  0  0  0  0  0  0
  -29.9310  -12.1890   18.4950 C   0  0  0  0  0  2  0  0  0  0  0  0
  -28.8170  -12.3920   17.4490 C   0  0  0  0  0  2  0  0  0  0  0  0
  -27.4270  -12.1890   18.0800 C   0  0  0  0  0  2  0  0  0  0  0  0
  -27.2560  -12.9890   19.3950 C   0  0  0  0  0  3  0  0  0  0  0  0
  -28.4580  -12.7430   20.3360 C   0  0  0  0  0  2  0  0  0  0  0  0
  -29.6910  -13.1110   19.6170 N   0  0  0  0  0  0  0  0  0  0  0  0
  -31.3410  -14.5530   18.9980 O   0  0  0  0  0  0  0  0  0  0  0  0
  -31.6060  -16.9780   21.3980 C   0  0  0  0  0  2  0  0  0  0  0  0
  -29.1800  -17.2660   20.8030 C   0  0  0  0  0  2  0  0  0  0  0  0
  -31.3150  -15.4890   21.6890 C   0  0  0  0  0  2  0  0  0  0  0  0
  -28.9660  -15.7730   21.1130 C   0  0  0  0  0  2  0  0  0  0  0  0
  -30.3530  -17.8520   21.6210 C   0  0  0  0  0  3  0  0  0  0  0  0
  -30.1910  -14.9860   20.8850 N   0  0  0  0  0  0  0  0  0  0  0  0
  -24.9760  -13.5450   20.4570 C   0  0  0  0  0  0  0  0  0  0  0  0
  -23.9800  -12.7460   20.9490 C   0  0  0  0  0  0  0  0  0  0  0  0
  -24.4470  -11.4030   20.8070 C   0  0  0  0  0  0  0  0  0  0  0  0
  -25.9860  -12.6870   20.0510 N   0  0  0  0  0  0  0  0  0  0  0  0
  -25.6790  -11.3920   20.3150 N   0  0  0  0  0  0  0  0  0  0  0  0
  -23.7710  -10.1230   21.0540 C   0  0  0  0  0  0  0  0  0  0  0  0
  -24.2840   -9.1850   21.9770 C   0  0  0  0  0  3  0  0  0  0  0  0
  -23.6070   -7.9690   22.2090 C   0  0  0  0  0  3  0  0  0  0  0  0
  -22.4040   -7.6830   21.5220 C   0  0  0  0  0  0  0  0  0  0  0  0
  -21.9120   -8.6110   20.5880 C   0  0  0  0  0  3  0  0  0  0  0  0
  -22.5890   -9.8180   20.3520 C   0  0  0  0  0  3  0  0  0  0  0  0
  -21.6930   -6.5160   21.6660 O   0  0  0  0  0  0  0  0  0  0  0  0
  -21.6760   -5.8250   22.8510 C   0  0  0  0  0  0  0  0  0  0  0  0
  -21.2220   -6.4160   24.0520 C   0  0  0  0  0  3  0  0  0  0  0  0
  -21.1550   -5.6490   25.2320 C   0  0  0  0  0  3  0  0  0  0  0  0
  -21.5310   -4.2930   25.2130 C   0  0  0  0  0  0  0  0  0  0  0  0
  -21.9780   -3.7020   24.0180 C   0  0  0  0  0  3  0  0  0  0  0  0
  -22.0470   -4.4660   22.8390 C   0  0  0  0  0  0  0  0  0  0  0  0
  -22.4580   -3.8870   21.6860 F   0  0  0  0  0  0  0  0  0  0  0  0
  -21.4600   -3.5540   26.3440 F   0  0  0  0  0  0  0  0  0  0  0  0
  -22.6310  -13.1900   21.4340 C   0  0  0  0  0  0  0  0  0  0  0  0
  -22.0470  -12.4600   22.3800 N   0  0  0  0  0  0  0  0  0  0  0  0
  -22.1040  -14.2190   21.0100 O   0  0  0  0  0  0  0  0  0  0  0  0
  -22.4870  -11.6270   22.7430 H   0  0  0  0  0  0  0  0  0  0  0  0
  -21.1480  -12.7390   22.7460 H   0  0  0  0  0  0  0  0  0  0  0  0
  -25.0970  -14.9240   20.3030 N   0  0  0  0  0  0  0  0  0  0  0  0
  -24.3430  -15.5590   20.5380 H   0  0  0  0  0  0  0  0  0  0  0  0
  -25.8780  -15.3850   19.8530 H   0  0  0  0  0  0  0  0  0  0  0  0
  -31.0170  -25.6570   20.8310 O   0  0  0  0  0  0  0  0  0  0  0  0
  -30.6220  -26.3120   19.6230 C   0  0  0  0  0  2  0  0  0  0  0  0
  -29.4390  -27.2620   19.8720 C   0  0  0  0  0  2  0  0  0  0  0  0
  -28.2010  -26.6520   19.5210 O   0  0  0  0  0  0  0  0  0  0  0  0
  -24.4330  -31.5920   23.0680 C   0  0  0  0  0  0  0  0  0  0  0  0
  -27.0520  -27.4010   19.6620 C   0  0  0  0  0  0  0  0  0  0  0  0
  -23.1880  -30.2670   21.3870 C   0  0  0  0  0  3  0  0  0  0  0  0
  -24.6160  -28.8300   19.8360 C   0  0  0  0  0  0  0  0  0  0  0  0
  -25.6940  -30.6850   21.1240 C   0  0  0  0  0  2  0  0  0  0  0  0
  -25.7780  -29.3520   20.4130 C   0  0  0  0  0  0  0  0  0  0  0  0
  -26.9950  -28.6470   20.3320 C   0  0  0  0  0  3  0  0  0  0  0  0
  -25.8690  -26.8800   19.0970 C   0  0  0  0  0  3  0  0  0  0  0  0
  -24.6520  -27.5880   19.1770 C   0  0  0  0  0  3  0  0  0  0  0  0
  -23.3600  -29.6610   19.9660 C   0  0  0  0  0  2  0  0  0  0  0  0
  -24.4580  -30.8590   21.9190 N   0  0  0  0  0  0  0  0  0  0  0  0
  -23.3690  -31.8190   23.6590 O   0  0  0  0  0  0  0  0  0  0  0  0
  -22.5810  -29.1870   22.3090 C   0  0  0  0  0  0  0  0  0  0  0  0
  -21.2610  -28.9760   22.1900 N   0  0  0  0  0  0  0  0  0  0  0  0
  -23.2930  -28.5450   23.0850 O   0  0  0  0  0  0  0  0  0  0  0  0
  -20.7460  -29.5490   21.5370 H   0  0  0  0  0  0  0  0  0  0  0  0
  -17.9250  -27.6840   22.6830 C   0  0  0  0  0  0  0  0  0  0  0  0
  -20.4810  -27.9820   22.9270 C   0  0  0  0  0  3  0  0  0  0  0  0
  -20.6030  -26.5850   22.2750 C   0  0  0  0  0  2  0  0  0  0  0  0
  -19.4910  -26.2900   21.2650 C   0  0  0  0  0  2  0  0  0  0  0  0
  -18.1170  -26.3730   21.9390 C   0  0  0  0  0  2  0  0  0  0  0  0
  -19.0350  -28.4470   23.1330 C   0  0  0  0  0  0  0  0  0  0  0  0
  -18.8010  -29.6760   23.7870 C   0  0  0  0  0  3  0  0  0  0  0  0
  -17.4900  -30.1420   23.9990 C   0  0  0  0  0  3  0  0  0  0  0  0
  -16.3950  -29.3740   23.5660 C   0  0  0  0  0  3  0  0  0  0  0  0
  -16.6120  -28.1470   22.9140 C   0  0  0  0  0  3  0  0  0  0  0  0
  -25.7350  -32.2000   23.6800 C   0  0  0  0  0  3  0  0  0  0  0  0
  -25.4450  -33.5940   24.0420 N   0  0  0  0  0  0  0  0  0  0  0  0
  -25.8030  -34.6580   23.3100 C   0  0  0  0  0  0  0  0  0  0  0  0
  -26.4850  -34.5680   22.2850 O   0  0  0  0  0  0  0  0  0  0  0  0
  -24.8440  -33.7410   24.8390 H   0  0  0  0  0  0  0  0  0  0  0  0
  -24.1220  -36.4940   22.9560 C   0  0  0  0  0  1  0  0  0  0  0  0
  -25.3280  -36.0420   23.7930 C   0  0  0  0  0  3  0  0  0  0  0  0
  -27.4520  -36.8580   24.7160 C   0  0  0  0  0  1  0  0  0  0  0  0
  -26.3860  -37.0760   23.7440 N   0  0  0  0  0  0  0  0  0  0  0  0
  -25.9930  -38.0010   23.9040 H   0  0  0  0  0  0  0  0  0  0  0  0
  -26.2700  -31.3980   24.9300 C   0  0  1  0  0  0  0  0  0  0  0  0
  -25.1880  -31.1220   26.0000 C   0  0  0  0  0  1  0  0  0  0  0  0
  -26.8590  -30.0370   24.4910 C   0  0  0  0  0  1  0  0  0  0  0  0
  -27.4210  -32.1810   25.6050 C   0  0  0  0  0  1  0  0  0  0  0  0
  2  1  2  0
  3 10  1  0
  3  1  1  0
  4  3  2  0
  5  2  1  0
  6  4  1  0
  6  5  2  0
  7  9  1  0
  8  7  1  0
  8  9  1  0
  9  4  1  0
 11 13  1  0
 11 10  1  0
 12 11  1  0
 14 27  1  0
 15 20  1  0
 16 17  1  0
 16 15  1  0
 18 17  1  0
 18 31  1  0
 18 19  1  0
 20 14  1  0
 20 19  1  0
 21 14  2  0
 22 26  1  0
 22 24  1  0
 23 25  1  0
 23 26  1  0
 26 11  1  0
 27 25  1  0
 27 24  1  0
 28 29  2  0
 29 48  1  0
 30 29  1  0
 30 33  1  0
 31 32  1  0
 31 28  1  0
 32 30  2  0
 33 34  1  0
 34 35  2  0
 36 39  1  0
 36 35  1  0
 37 36  2  0
 38 37  1  0
 38 33  2  0
 39 40  1  0
 40 41  1  0
 41 42  2  0
 43 42  1  0
 43 47  1  0
 44 43  2  0
 45 40  2  0
 45 44  1  0
 46 45  1  0
 48 49  1  0
 49 51  1  0
 49 52  1  0
 50 48  2  0
 53 28  1  0
 53 54  1  0
 55 53  1  0
 56  5  1  0
 57 58  1  0
 57 56  1  0
 59 61  1  0
 59 58  1  0
 60 71  2  0
 61 66  1  0
 62 70  1  0
 62 72  1  0
 63 69  1  0
 63 65  1  0
 64 70  1  0
 65 64  1  0
 66 65  2  0
 67 68  1  0
 67 61  2  0
 68 63  2  0
 69 62  1  0
 70 60  1  0
 72 74  2  0
 73 72  1  0
 75 73  1  0
 76 85  2  0
 76 81  1  0
 77 73  1  0
 77 81  1  0
 78 77  1  0
 79 80  1  0
 79 78  1  0
 80 76  1  0
 81 82  2  0
 82 83  1  0
 84 83  2  0
 85 84  1  0
 86 60  1  0
 86 87  1  0
 86 96  1  0
 87 90  1  0
 88 92  1  0
 88 87  1  0
 89 88  2  0
 92 91  1  0
 94 92  1  0
 94 95  1  0
 94 93  1  0
 96 99  1  1
 96 97  1  0
 98 96  1  0
M  ISO  4  14 100  27 100  58 101  59 101
M  END
>  <TORSDO>  (87) 
F 22

>  <SCORE>  (87) 
-10.877

>  <name>  (87) 
87

>  <ligand_id>  (87) 
87

>  <original_smiles>  (87) 
[H]c1c(OC([H])([H])C([H])([H])Oc2c([H])c([H])c3c(c2[H])C([H])([H])N(C(=O)C([H])(N([H])C(=O)C([H])(N([H])C([H])([H])[H])C([H])([H])[H])C(C([H])([H])[H])(C([H])([H])[H])C([H])([H])[H])C([H])(C(=O)N([H])C2([H])c4c([H])c([H])c([H])c([H])c4C([H])([H])C([H])([H])C2([H])[H])C3([H])[H])nc(C2([H])C([H])([H])C2([H])[H])c(C([H])([H])[N+]([H])([H])C2([H])C([H])([H])C([H])([H])N(C(=O)N3C([H])([H])C([H])([H])C([H])([H])C([H])(n4nc(-c5c([H])c([H])c(Oc6c([H])c([H])c(F)c([H])c6F)c([H])c5[H])c(C(=O)N([H])[H])c4N([H])[H])C3([H])[H])C([H])([H])C2([H])[H])c1[H]

>  <smiles>  (87) 
[H]c1c(OC([H])([H])C([H])([H])Oc2c([H])c([H])c3c(c2[H])C([H])([H])N(C(=O)C([H])(N([H])C(=O)C([H])(N([H])C([H])([H])[H])C([H])([H])[H])C(C([H])([H])[H])(C([H])([H])[H])C([H])([H])[H])C([H])(C(=O)N([H])C2([H])c4c([H])c([H])c([H])c([H])c4C([H])([H])C([H])([H])C2([H])[H])C3([H])[H])nc(C2([H])C([H])([H])C2([H])[H])c(C([H])([H])[N+]([H])([H])C2([H])C([H])([H])C([H])([H])N(C(=O)N3C([H])([H])C([H])([H])C([H])([H])C([H])(n4nc(-c5c([H])c([H])c(Oc6c([H])c([H])c(F)c([H])c6F)c([H])c5[H])c(C(=O)N([H])[H])c4N([H])[H])C3([H])[H])C([H])([H])C2([H])[H])c1[H]

$$$$
88:0:0
     RDKit          3D

 93101  0  0  1  0  0  0  0  0999 V2000
  -30.0890  -19.6510   19.2760 C   0  0  0  0  0  3  0  0  0  0  0  0
  -27.9150  -19.5600   20.3610 C   0  0  0  0  0  3  0  0  0  0  0  0
  -29.7750  -20.9190   18.7510 C   0  0  0  0  0  3  0  0  0  0  0  0
  -27.6060  -20.8320   19.8410 C   0  0  0  0  0  3  0  0  0  0  0  0
  -29.1670  -18.9700   20.1030 C   0  0  0  0  0  0  0  0  0  0  0  0
  -28.5380  -21.5360   19.0540 C   0  0  0  0  0  0  0  0  0  0  0  0
  -29.4640  -17.7300   20.6830 N   0  0  0  0  0  0  0  0  0  0  0  0
  -28.7890  -17.3740   21.3530 H   0  0  0  0  0  0  0  0  0  0  0  0
  -30.8620  -17.4710   21.0120 C   0  0  0  0  0  2  0  0  0  0  0  0
  -31.0150  -16.2640   21.9510 C   0  0  0  0  0  2  0  0  0  0  0  0
  -30.6990  -14.3760   20.3650 C   0  0  0  0  0  0  0  0  0  0  0  0
  -30.2480  -12.3820   18.9870 C   0  0  0  0  0  2  0  0  0  0  0  0
  -29.2610  -12.6930   17.8470 C   0  0  0  0  0  2  0  0  0  0  0  0
  -27.8060  -12.5450   18.3300 C   0  0  0  0  0  2  0  0  0  0  0  0
  -27.5400  -13.3070   19.6540 C   0  0  0  0  0  3  0  0  0  0  0  0
  -28.6260  -12.9790   20.7010 C   0  0  0  0  0  2  0  0  0  0  0  0
  -29.9470  -13.2750   20.1150 N   0  0  0  0  0  0  0  0  0  0  0  0
  -31.6910  -14.6880   19.6990 O   0  0  0  0  0  0  0  0  0  0  0  0
  -30.3290  -15.0830   21.4390 N   0  0  0  0  0  0  0  0  0  0  0  0
  -29.5190  -14.7560   21.9440 H   0  0  0  0  0  0  0  0  0  0  0  0
  -25.1580  -13.9110   20.4300 C   0  0  0  0  0  0  0  0  0  0  0  0
  -24.1010  -13.1340   20.8240 C   0  0  0  0  0  0  0  0  0  0  0  0
  -24.5630  -11.7840   20.7700 C   0  0  0  0  0  0  0  0  0  0  0  0
  -26.1980  -13.0320   20.1650 N   0  0  0  0  0  0  0  0  0  0  0  0
  -25.8430  -11.7470   20.4240 N   0  0  0  0  0  0  0  0  0  0  0  0
  -23.8430  -10.5180   20.9720 C   0  0  0  0  0  0  0  0  0  0  0  0
  -24.2880   -9.5580   21.9080 C   0  0  0  0  0  3  0  0  0  0  0  0
  -23.5700   -8.3580   22.0970 C   0  0  0  0  0  3  0  0  0  0  0  0
  -22.3940   -8.1090   21.3500 C   0  0  0  0  0  0  0  0  0  0  0  0
  -21.9690   -9.0580   20.4040 C   0  0  0  0  0  3  0  0  0  0  0  0
  -22.6880  -10.2500   20.2130 C   0  0  0  0  0  3  0  0  0  0  0  0
  -21.6470   -6.9600   21.4480 O   0  0  0  0  0  0  0  0  0  0  0  0
  -21.5960   -6.2310   22.6090 C   0  0  0  0  0  0  0  0  0  0  0  0
  -21.1460   -6.7940   23.8230 C   0  0  0  0  0  3  0  0  0  0  0  0
  -21.0440   -5.9900   24.9760 C   0  0  0  0  0  3  0  0  0  0  0  0
  -21.3820   -4.6250   24.9170 C   0  0  0  0  0  0  0  0  0  0  0  0
  -21.8260   -4.0620   23.7070 C   0  0  0  0  0  3  0  0  0  0  0  0
  -21.9290   -4.8620   22.5560 C   0  0  0  0  0  0  0  0  0  0  0  0
  -22.3370   -4.3100   21.3880 F   0  0  0  0  0  0  0  0  0  0  0  0
  -21.2770   -3.8510   26.0220 F   0  0  0  0  0  0  0  0  0  0  0  0
  -22.7120  -13.6070   21.1420 C   0  0  0  0  0  0  0  0  0  0  0  0
  -22.0080  -12.8980   22.0160 N   0  0  0  0  0  0  0  0  0  0  0  0
  -22.2610  -14.6410   20.6510 O   0  0  0  0  0  0  0  0  0  0  0  0
  -22.3860  -12.0610   22.4360 H   0  0  0  0  0  0  0  0  0  0  0  0
  -21.0770  -13.1960   22.2710 H   0  0  0  0  0  0  0  0  0  0  0  0
  -25.3170  -15.2820   20.2580 N   0  0  0  0  0  0  0  0  0  0  0  0
  -24.5570  -15.9390   20.3920 H   0  0  0  0  0  0  0  0  0  0  0  0
  -26.1650  -15.7200   19.9180 H   0  0  0  0  0  0  0  0  0  0  0  0
  -28.1800  -22.7960   18.6280 O   0  0  0  0  0  0  0  0  0  0  0  0
  -29.2170  -23.6760   18.2000 C   0  0  0  0  0  2  0  0  0  0  0  0
  -28.7710  -25.1270   18.4220 C   0  0  0  0  0  2  0  0  0  0  0  0
  -28.5130  -25.4240   19.9090 C   0  0  0  0  0  2  0  0  0  0  0  0
  -28.4580  -26.8220   20.1750 O   0  0  0  0  0  0  0  0  0  0  0  0
  -24.5520  -31.8740   23.2470 C   0  0  0  0  0  0  0  0  0  0  0  0
  -27.2440  -27.4720   20.1660 C   0  0  0  0  0  0  0  0  0  0  0  0
  -23.3620  -30.4730   21.5910 C   0  0  0  0  0  3  0  0  0  0  0  0
  -24.8310  -28.9430   20.1760 C   0  0  0  0  0  0  0  0  0  0  0  0
  -25.8840  -30.8480   21.4090 C   0  0  0  0  0  2  0  0  0  0  0  0
  -25.9790  -29.4800   20.7680 C   0  0  0  0  0  0  0  0  0  0  0  0
  -27.1870  -28.7520   20.7570 C   0  0  0  0  0  3  0  0  0  0  0  0
  -26.0710  -26.9350   19.5860 C   0  0  0  0  0  3  0  0  0  0  0  0
  -24.8700  -27.6680   19.5860 C   0  0  0  0  0  3  0  0  0  0  0  0
  -23.5820  -29.7950   20.2120 C   0  0  0  0  0  2  0  0  0  0  0  0
  -24.6170  -31.0790   22.1410 N   0  0  0  0  0  0  0  0  0  0  0  0
  -23.4670  -32.1410   23.7800 O   0  0  0  0  0  0  0  0  0  0  0  0
  -22.7090  -29.4460   22.5440 C   0  0  0  0  0  0  0  0  0  0  0  0
  -21.3850  -29.2710   22.4130 N   0  0  0  0  0  0  0  0  0  0  0  0
  -23.3900  -28.8120   23.3530 O   0  0  0  0  0  0  0  0  0  0  0  0
  -20.8980  -29.8340   21.7300 H   0  0  0  0  0  0  0  0  0  0  0  0
  -18.0010  -28.1060   22.9090 C   0  0  0  0  0  0  0  0  0  0  0  0
  -20.5630  -28.3300   23.1740 C   0  0  0  0  0  3  0  0  0  0  0  0
  -20.6480  -26.9070   22.5760 C   0  0  0  0  0  2  0  0  0  0  0  0
  -19.5370  -26.6120   21.5630 C   0  0  0  0  0  2  0  0  0  0  0  0
  -18.1600  -26.7630   22.2150 C   0  0  0  0  0  2  0  0  0  0  0  0
  -19.1300  -28.8490   23.3450 C   0  0  0  0  0  0  0  0  0  0  0  0
  -18.9290  -30.1080   23.9520 C   0  0  0  0  0  3  0  0  0  0  0  0
  -17.6320  -30.6230   24.1280 C   0  0  0  0  0  3  0  0  0  0  0  0
  -16.5170  -29.8760   23.7100 C   0  0  0  0  0  3  0  0  0  0  0  0
  -16.7030  -28.6190   23.1060 C   0  0  0  0  0  3  0  0  0  0  0  0
  -25.8330  -32.5050   23.8780 C   0  0  0  0  0  3  0  0  0  0  0  0
  -25.5250  -33.9070   24.1930 N   0  0  0  0  0  0  0  0  0  0  0  0
  -25.8720  -34.9510   23.4280 C   0  0  0  0  0  0  0  0  0  0  0  0
  -26.5560  -34.8360   22.4070 O   0  0  0  0  0  0  0  0  0  0  0  0
  -24.9210  -34.0710   24.9840 H   0  0  0  0  0  0  0  0  0  0  0  0
  -24.1610  -36.7480   23.0230 C   0  0  0  0  0  1  0  0  0  0  0  0
  -25.3820  -36.3440   23.8650 C   0  0  0  0  0  3  0  0  0  0  0  0
  -27.4990  -37.2260   24.7400 C   0  0  0  0  0  1  0  0  0  0  0  0
  -26.4220  -37.3910   23.7680 N   0  0  0  0  0  0  0  0  0  0  0  0
  -26.0160  -38.3150   23.8970 H   0  0  0  0  0  0  0  0  0  0  0  0
  -26.3340  -31.7410   25.1640 C   0  0  1  0  0  0  0  0  0  0  0  0
  -25.2300  -31.5080   26.2200 C   0  0  0  0  0  1  0  0  0  0  0  0
  -26.9220  -30.3620   24.7840 C   0  0  0  0  0  1  0  0  0  0  0  0
  -27.4780  -32.5390   25.8360 C   0  0  0  0  0  1  0  0  0  0  0  0
  1  5  1  0
  3  6  1  0
  3  1  2  0
  4  2  1  0
  5  2  2  0
  5  7  1  0
  6  4  2  0
  7  9  1  0
  7  8  1  0
  9 10  1  0
 11 19  1  0
 12 17  1  0
 13 14  1  0
 13 12  1  0
 15 14  1  0
 15 24  1  0
 15 16  1  0
 17 11  1  0
 17 16  1  0
 18 11  2  0
 19 20  1  0
 19 10  1  0
 21 22  2  0
 22 41  1  0
 23 22  1  0
 23 26  1  0
 24 25  1  0
 24 21  1  0
 25 23  2  0
 26 27  1  0
 27 28  2  0
 29 32  1  0
 29 28  1  0
 30 29  2  0
 31 30  1  0
 31 26  2  0
 32 33  1  0
 33 34  1  0
 34 35  2  0
 36 35  1  0
 36 40  1  0
 37 36  2  0
 38 33  2  0
 38 37  1  0
 39 38  1  0
 41 42  1  0
 42 45  1  0
 42 44  1  0
 43 41  2  0
 46 47  1  0
 46 21  1  0
 48 46  1  0
 49  6  1  0
 50 51  1  0
 50 49  1  0
 51 52  1  0
 52 53  1  0
 54 65  2  0
 55 53  1  0
 55 60  1  0
 56 64  1  0
 56 66  1  0
 57 63  1  0
 57 59  1  0
 58 64  1  0
 59 58  1  0
 60 59  2  0
 61 62  1  0
 61 55  2  0
 62 57  2  0
 63 56  1  0
 64 54  1  0
 66 68  2  0
 67 66  1  0
 69 67  1  0
 70 79  2  0
 70 75  1  0
 71 67  1  0
 71 75  1  0
 72 71  1  0
 73 74  1  0
 73 72  1  0
 74 70  1  0
 75 76  2  0
 76 77  1  0
 78 77  2  0
 79 78  1  0
 80 54  1  0
 80 81  1  0
 80 90  1  0
 81 84  1  0
 82 86  1  0
 82 81  1  0
 83 82  2  0
 86 85  1  0
 88 86  1  0
 88 89  1  0
 88 87  1  0
 90 93  1  1
 90 91  1  0
 92 90  1  0
M  ISO  4  11 100  19 100  52 101  53 101
M  END
>  <TORSDO>  (88) 
F 23

>  <SCORE>  (88) 
-12.721

>  <name>  (88) 
88

>  <ligand_id>  (88) 
88

>  <original_smiles>  (88) 
[H]c1c([H])c([H])c2c(c1[H])C([H])([H])C([H])([H])C([H])([H])C2([H])N([H])C(=O)C1([H])N(C(=O)C([H])(N([H])C(=O)C([H])(N([H])C([H])([H])[H])C([H])([H])[H])C(C([H])([H])[H])(C([H])([H])[H])C([H])([H])[H])C([H])([H])c2c([H])c(OC([H])([H])C([H])([H])C([H])([H])Oc3c([H])c([H])c(N([H])C([H])([H])C([H])([H])N([H])C(=O)N4C([H])([H])C([H])([H])C([H])([H])C([H])(n5nc(-c6c([H])c([H])c(Oc7c([H])c([H])c(F)c([H])c7F)c([H])c6[H])c(C(=O)N([H])[H])c5N([H])[H])C4([H])[H])c([H])c3[H])c([H])c([H])c2C1([H])[H]

>  <smiles>  (88) 
[H]c1c([H])c([H])c2c(c1[H])C([H])([H])C([H])([H])C([H])([H])C2([H])N([H])C(=O)C1([H])N(C(=O)C([H])(N([H])C(=O)C([H])(N([H])C([H])([H])[H])C([H])([H])[H])C(C([H])([H])[H])(C([H])([H])[H])C([H])([H])[H])C([H])([H])c2c([H])c(OC([H])([H])C([H])([H])C([H])([H])Oc3c([H])c([H])c(N([H])C([H])([H])C([H])([H])N([H])C(=O)N4C([H])([H])C([H])([H])C([H])([H])C([H])(n5nc(-c6c([H])c([H])c(Oc7c([H])c([H])c(F)c([H])c7F)c([H])c6[H])c(C(=O)N([H])[H])c5N([H])[H])C4([H])[H])c([H])c3[H])c([H])c([H])c2C1([H])[H]

$$$$
89:0:0
     RDKit          3D

 99107  0  0  1  0  0  0  0  0999 V2000
  -27.1060  -23.2610   20.0400 C   0  0  0  0  0  3  0  0  0  0  0  0
  -28.4240  -21.1870   19.4170 C   0  0  0  0  0  3  0  0  0  0  0  0
  -29.3970  -20.2050   19.6620 C   0  0  0  0  0  3  0  0  0  0  0  0
  -29.7400  -21.1090   21.8940 C   0  0  0  0  0  3  0  0  0  0  0  0
  -28.1060  -22.1550   20.3990 C   0  0  0  0  0  0  0  0  0  0  0  0
  -28.7500  -22.0880   21.6640 C   0  0  0  0  0  0  0  0  0  0  0  0
  -30.0720  -20.1700   20.8960 C   0  0  0  0  0  0  0  0  0  0  0  0
  -28.3890  -23.0300   22.8020 C   0  0  0  0  0  1  0  0  0  0  0  0
  -31.0550  -19.2070   21.1490 N   0  0  0  0  0  0  0  0  0  0  0  0
  -31.5420  -19.3300   22.0330 H   0  0  0  0  0  0  0  0  0  0  0  0
  -30.6640  -17.8350   20.8680 C   0  0  0  0  0  2  0  0  0  0  0  0
  -31.8550  -16.9720   20.4310 C   0  0  0  0  0  2  0  0  0  0  0  0
  -31.9080  -14.5740   19.7080 C   0  0  0  0  0  0  0  0  0  0  0  0
  -31.4210  -12.2720   18.9550 C   0  0  0  0  0  2  0  0  0  0  0  0
  -30.4360  -12.2870   17.7710 C   0  0  0  0  0  2  0  0  0  0  0  0
  -28.9770  -12.3480   18.2650 C   0  0  0  0  0  2  0  0  0  0  0  0
  -28.7530  -13.4550   19.3300 C   0  0  0  0  0  3  0  0  0  0  0  0
  -29.8270  -13.3580   20.4310 C   0  0  0  0  0  2  0  0  0  0  0  0
  -31.1540  -13.4500   19.7910 N   0  0  0  0  0  0  0  0  0  0  0  0
  -32.9150  -14.6790   19.0010 O   0  0  0  0  0  0  0  0  0  0  0  0
  -31.4440  -15.5820   20.4530 N   0  0  0  0  0  0  0  0  0  0  0  0
  -30.6320  -15.3650   21.0110 H   0  0  0  0  0  0  0  0  0  0  0  0
  -26.5350  -14.4240   20.2160 C   0  0  0  0  0  0  0  0  0  0  0  0
  -25.3780  -13.8250   20.6360 C   0  0  0  0  0  0  0  0  0  0  0  0
  -25.6030  -12.4170   20.5260 C   0  0  0  0  0  0  0  0  0  0  0  0
  -27.4040  -13.3930   19.8880 N   0  0  0  0  0  0  0  0  0  0  0  0
  -26.8430  -12.1780   20.1230 N   0  0  0  0  0  0  0  0  0  0  0  0
  -24.6900  -11.2860   20.7260 C   0  0  0  0  0  0  0  0  0  0  0  0
  -25.0100  -10.2280   21.6060 C   0  0  0  0  0  3  0  0  0  0  0  0
  -24.1090   -9.1580   21.7950 C   0  0  0  0  0  3  0  0  0  0  0  0
  -22.8750   -9.1390   21.1050 C   0  0  0  0  0  0  0  0  0  0  0  0
  -22.5710  -10.1820   20.2130 C   0  0  0  0  0  3  0  0  0  0  0  0
  -23.4700  -11.2450   20.0220 C   0  0  0  0  0  3  0  0  0  0  0  0
  -21.9500   -8.1270   21.2050 O   0  0  0  0  0  0  0  0  0  0  0  0
  -21.8150   -7.3870   22.3530 C   0  0  0  0  0  0  0  0  0  0  0  0
  -21.5250   -7.9880   23.5970 C   0  0  0  0  0  3  0  0  0  0  0  0
  -21.3260   -7.1850   24.7390 C   0  0  0  0  0  3  0  0  0  0  0  0
  -21.4050   -5.7830   24.6360 C   0  0  0  0  0  0  0  0  0  0  0  0
  -21.6870   -5.1830   23.3970 C   0  0  0  0  0  3  0  0  0  0  0  0
  -21.8880   -5.9830   22.2590 C   0  0  0  0  0  0  0  0  0  0  0  0
  -22.1400   -5.3980   21.0620 F   0  0  0  0  0  0  0  0  0  0  0  0
  -21.2060   -5.0110   25.7290 F   0  0  0  0  0  0  0  0  0  0  0  0
  -24.1030  -14.5120   21.0280 C   0  0  0  0  0  0  0  0  0  0  0  0
  -23.3420  -13.9140   21.9400 N   0  0  0  0  0  0  0  0  0  0  0  0
  -23.7970  -15.6100   20.5630 O   0  0  0  0  0  0  0  0  0  0  0  0
  -23.6060  -13.0250   22.3380 H   0  0  0  0  0  0  0  0  0  0  0  0
  -22.4870  -14.3530   22.2460 H   0  0  0  0  0  0  0  0  0  0  0  0
  -26.9180  -15.7560   20.0740 N   0  0  0  0  0  0  0  0  0  0  0  0
  -26.2840  -16.5260   20.2560 H   0  0  0  0  0  0  0  0  0  0  0  0
  -27.8120  -16.0540   19.7030 H   0  0  0  0  0  0  0  0  0  0  0  0
  -27.7240  -24.1860   19.0580 N   0  0  0  0  0  4  0  0  0  0  0  0
  -28.0220  -23.6150   18.2840 H   0  0  0  0  0  0  0  0  0  0  0  0
  -27.0370  -24.8330   18.7040 H   0  0  0  0  0  0  0  0  0  0  0  0
  -28.9110  -24.9490   19.5240 C   0  0  0  0  0  2  0  0  0  0  0  0
  -28.5570  -26.2740   20.2110 C   0  0  0  0  0  2  0  0  0  0  0  0
  -28.2610  -27.2350   19.2020 O   0  0  0  0  0  0  0  0  0  0  0  0
  -24.5900  -31.8340   23.1880 C   0  0  0  0  0  0  0  0  0  0  0  0
  -27.0870  -27.9070   19.4070 C   0  0  0  0  0  0  0  0  0  0  0  0
  -23.2890  -30.5990   21.4830 C   0  0  0  0  0  3  0  0  0  0  0  0
  -24.6650  -29.2890   19.7850 C   0  0  0  0  0  0  0  0  0  0  0  0
  -25.7800  -31.0740   21.1360 C   0  0  0  0  0  2  0  0  0  0  0  0
  -25.8500  -29.7900   20.3400 C   0  0  0  0  0  0  0  0  0  0  0  0
  -27.0700  -29.1060   20.1490 C   0  0  0  0  0  3  0  0  0  0  0  0
  -25.8890  -27.4090   18.8530 C   0  0  0  0  0  3  0  0  0  0  0  0
  -24.6760  -28.0970   19.0410 C   0  0  0  0  0  3  0  0  0  0  0  0
  -23.4060  -30.0890   20.0230 C   0  0  0  0  0  2  0  0  0  0  0  0
  -24.5760  -31.1760   21.9940 N   0  0  0  0  0  0  0  0  0  0  0  0
  -23.5510  -32.0030   23.8370 O   0  0  0  0  0  0  0  0  0  0  0  0
  -22.7410  -29.4500   22.3590 C   0  0  0  0  0  0  0  0  0  0  0  0
  -21.4290  -29.1940   22.2470 N   0  0  0  0  0  0  0  0  0  0  0  0
  -23.4920  -28.8000   23.0890 O   0  0  0  0  0  0  0  0  0  0  0  0
  -20.8840  -29.7710   21.6230 H   0  0  0  0  0  0  0  0  0  0  0  0
  -18.1820  -27.6550   22.6100 C   0  0  0  0  0  0  0  0  0  0  0  0
  -20.6990  -28.1350   22.9450 C   0  0  0  0  0  3  0  0  0  0  0  0
  -20.9480  -26.7590   22.2840 C   0  0  0  0  0  2  0  0  0  0  0  0
  -19.8940  -26.3950   21.2340 C   0  0  0  0  0  2  0  0  0  0  0  0
  -18.4960  -26.3700   21.8610 C   0  0  0  0  0  2  0  0  0  0  0  0
  -19.2180  -28.4890   23.1080 C   0  0  0  0  0  0  0  0  0  0  0  0
  -18.8730  -29.6900   23.7660 C   0  0  0  0  0  3  0  0  0  0  0  0
  -17.5250  -30.0530   23.9410 C   0  0  0  0  0  3  0  0  0  0  0  0
  -16.5030  -29.2130   23.4640 C   0  0  0  0  0  3  0  0  0  0  0  0
  -16.8330  -28.0150   22.8060 C   0  0  0  0  0  3  0  0  0  0  0  0
  -25.9060  -32.4250   23.7810 C   0  0  0  0  0  3  0  0  0  0  0  0
  -26.4980  -31.5610   24.9630 C   0  0  1  0  0  0  0  0  0  0  0  0
  -25.4700  -31.2430   26.0730 C   0  0  0  0  0  1  0  0  0  0  0  0
  -27.0540  -30.2200   24.4290 C   0  0  0  0  0  1  0  0  0  0  0  0
  -27.6870  -32.3080   25.6130 C   0  0  0  0  0  1  0  0  0  0  0  0
  -25.6120  -33.7910   24.2310 N   0  0  0  0  0  0  0  0  0  0  0  0
  -25.9170  -34.9000   23.5430 C   0  0  0  0  0  0  0  0  0  0  0  0
  -26.5450  -34.8780   22.4820 O   0  0  0  0  0  0  0  0  0  0  0  0
  -25.0450  -33.8810   25.0610 H   0  0  0  0  0  0  0  0  0  0  0  0
  -24.1730  -36.7070   23.3940 C   0  0  0  0  0  1  0  0  0  0  0  0
  -25.4460  -36.2470   24.1230 C   0  0  0  0  0  3  0  0  0  0  0  0
  -27.6110  -37.0720   24.9320 C   0  0  0  0  0  1  0  0  0  0  0  0
  -26.4710  -37.3090   24.0520 N   0  0  0  0  0  0  0  0  0  0  0  0
  -26.0710  -38.2130   24.2870 H   0  0  0  0  0  0  0  0  0  0  0  0
  -25.7760  -22.6710   19.5100 C   0  0  0  0  0  2  0  0  0  0  0  0
  -25.0050  -22.1070   20.5610 O   0  0  0  0  0  0  0  0  0  0  0  0
  -25.4990  -21.3750   20.9170 H   0  0  0  0  0  0  0  0  0  0  0  0
  1 97  1  0
  1  5  1  0
  2  3  2  0
  2  5  1  0
  3  7  1  0
  5  6  2  0
  6  4  1  0
  6  8  1  0
  7  9  1  0
  7  4  2  0
  9 10  1  0
 11  9  1  0
 12 21  1  0
 12 11  1  0
 13 19  1  0
 13 21  1  0
 14 19  1  0
 15 16  1  0
 15 14  1  0
 17 16  1  0
 17 26  1  0
 17 18  1  0
 19 18  1  0
 20 13  2  0
 21 22  1  0
 23 24  2  0
 24 43  1  0
 25 24  1  0
 25 28  1  0
 26 27  1  0
 26 23  1  0
 27 25  2  0
 28 29  1  0
 29 30  2  0
 31 34  1  0
 31 30  1  0
 32 31  2  0
 33 32  1  0
 33 28  2  0
 34 35  1  0
 35 36  1  0
 36 37  2  0
 38 37  1  0
 38 42  1  0
 39 38  2  0
 40 35  2  0
 40 39  1  0
 41 40  1  0
 43 44  1  0
 44 47  1  0
 44 46  1  0
 45 43  2  0
 48 23  1  0
 48 49  1  0
 50 48  1  0
 51 54  1  0
 51  1  1  0
 52 51  1  0
 53 51  1  0
 54 55  1  0
 56 58  1  0
 56 55  1  0
 57 68  2  0
 58 63  1  0
 59 67  1  0
 59 69  1  0
 60 66  1  0
 60 62  1  0
 61 67  1  0
 62 61  1  0
 63 62  2  0
 64 65  1  0
 64 58  2  0
 65 60  2  0
 66 59  1  0
 67 57  1  0
 69 71  2  0
 70 69  1  0
 72 70  1  0
 73 82  2  0
 73 78  1  0
 74 70  1  0
 74 78  1  0
 75 74  1  0
 76 77  1  0
 76 75  1  0
 77 73  1  0
 78 79  2  0
 79 80  1  0
 81 80  2  0
 82 81  1  0
 83 57  1  0
 83 88  1  0
 83 84  1  0
 84 87  1  1
 84 85  1  0
 86 84  1  0
 88 91  1  0
 89 93  1  0
 89 88  1  0
 90 89  2  0
 93 92  1  0
 95 93  1  0
 95 96  1  0
 95 94  1  0
 97 98  1  0
 98 99  1  0
M  ISO  4  13 100  21 100  55 101  56 101
M  END
>  <TORSDO>  (89) 
F 25

>  <SCORE>  (89) 
-9.632

>  <name>  (89) 
89

>  <ligand_id>  (89) 
89

>  <original_smiles>  (89) 
[H]OC([H])([H])C([H])(c1c([H])c([H])c(N([H])C([H])([H])C([H])([H])N([H])C(=O)N2C([H])([H])C([H])([H])C([H])([H])C([H])(n3nc(-c4c([H])c([H])c(Oc5c([H])c([H])c(F)c([H])c5F)c([H])c4[H])c(C(=O)N([H])[H])c3N([H])[H])C2([H])[H])c([H])c1C([H])([H])[H])[N+]([H])([H])C([H])([H])C([H])([H])Oc1c([H])c([H])c2c(c1[H])C([H])([H])N(C(=O)C([H])(N([H])C(=O)C([H])(N([H])C([H])([H])[H])C([H])([H])[H])C(C([H])([H])[H])(C([H])([H])[H])C([H])([H])[H])C([H])(C(=O)N([H])C1([H])c3c([H])c([H])c([H])c([H])c3C([H])([H])C([H])([H])C1([H])[H])C2([H])[H]

>  <smiles>  (89) 
[H]OC([H])([H])C([H])(c1c([H])c([H])c(N([H])C([H])([H])C([H])([H])N([H])C(=O)N2C([H])([H])C([H])([H])C([H])([H])C([H])(n3nc(-c4c([H])c([H])c(Oc5c([H])c([H])c(F)c([H])c5F)c([H])c4[H])c(C(=O)N([H])[H])c3N([H])[H])C2([H])[H])c([H])c1C([H])([H])[H])[N+]([H])([H])C([H])([H])C([H])([H])Oc1c([H])c([H])c2c(c1[H])C([H])([H])N(C(=O)C([H])(N([H])C(=O)C([H])(N([H])C([H])([H])[H])C([H])([H])[H])C(C([H])([H])[H])(C([H])([H])[H])C([H])([H])[H])C([H])(C(=O)N([H])C1([H])c3c([H])c([H])c([H])c([H])c3C([H])([H])C([H])([H])C1([H])[H])C2([H])[H]

$$$$
90:0:0
     RDKit          3D

 95104  0  0  1  0  0  0  0  0999 V2000
  -30.8190  -22.8270   22.1080 C   0  0  0  0  0  3  0  0  0  0  0  0
  -30.6090  -21.5610   21.5260 C   0  0  0  0  0  3  0  0  0  0  0  0
  -28.7060  -22.4760   20.3270 C   0  0  0  0  0  3  0  0  0  0  0  0
  -28.9100  -23.8000   20.9020 C   0  0  0  0  0  0  0  0  0  0  0  0
  -29.9520  -23.9090   21.8580 C   0  0  0  0  0  0  0  0  0  0  0  0
  -29.5230  -21.3170   20.6580 C   0  0  0  0  0  0  0  0  0  0  0  0
  -28.8140  -25.7350   23.0660 C   0  0  0  0  0  2  0  0  0  0  0  0
  -27.8640  -25.0040   20.8580 C   0  0  0  0  0  3  0  0  0  0  0  0
  -27.5500  -25.1750   22.3730 C   0  0  0  0  0  3  0  0  0  0  0  0
  -26.2560  -25.9070   22.7730 C   0  0  0  0  0  1  0  0  0  0  0  0
  -30.0530  -25.0390   22.6900 N   0  0  0  0  0  0  0  0  0  0  0  0
  -30.7670  -25.0010   23.4150 H   0  0  0  0  0  0  0  0  0  0  0  0
  -29.3180  -19.9680   20.1630 N   0  0  0  0  0  0  0  0  0  0  0  0
  -28.5950  -19.8780   19.4510 H   0  0  0  0  0  0  0  0  0  0  0  0
  -29.5360  -18.7060   20.9790 C   0  0  0  0  0  2  0  0  0  0  0  0
  -30.1420  -17.3620   20.2810 C   0  0  0  0  0  2  0  0  0  0  0  0
  -30.5700  -14.7580   20.2560 C   0  0  0  0  0  0  0  0  0  0  0  0
  -30.3470  -12.4960   19.2290 C   0  0  0  0  0  2  0  0  0  0  0  0
  -29.3870  -12.5810   18.0210 C   0  0  0  0  0  2  0  0  0  0  0  0
  -27.9240  -12.4070   18.4740 C   0  0  0  0  0  2  0  0  0  0  0  0
  -27.5720  -13.2860   19.7030 C   0  0  0  0  0  3  0  0  0  0  0  0
  -28.6480  -13.1840   20.8070 C   0  0  0  0  0  2  0  0  0  0  0  0
  -29.9380  -13.5380   20.1990 N   0  0  0  0  0  0  0  0  0  0  0  0
  -31.7380  -14.8690   19.8750 O   0  0  0  0  0  0  0  0  0  0  0  0
  -29.8140  -15.8870   20.5340 N   0  0  0  0  0  0  0  0  0  0  0  0
  -28.8680  -15.6940   20.8270 H   0  0  0  0  0  0  0  0  0  0  0  0
  -25.1920  -13.8710   20.4600 C   0  0  0  0  0  0  0  0  0  0  0  0
  -24.1330  -13.0940   20.8460 C   0  0  0  0  0  0  0  0  0  0  0  0
  -24.6000  -11.7430   20.8120 C   0  0  0  0  0  0  0  0  0  0  0  0
  -26.2350  -12.9950   20.2120 N   0  0  0  0  0  0  0  0  0  0  0  0
  -25.8870  -11.7100   20.4860 N   0  0  0  0  0  0  0  0  0  0  0  0
  -23.8810  -10.4790   21.0130 C   0  0  0  0  0  0  0  0  0  0  0  0
  -24.3310   -9.5120   21.9380 C   0  0  0  0  0  3  0  0  0  0  0  0
  -23.6100   -8.3130   22.1260 C   0  0  0  0  0  3  0  0  0  0  0  0
  -22.4260   -8.0720   21.3910 C   0  0  0  0  0  0  0  0  0  0  0  0
  -21.9950   -9.0280   20.4540 C   0  0  0  0  0  3  0  0  0  0  0  0
  -22.7150  -10.2180   20.2640 C   0  0  0  0  0  3  0  0  0  0  0  0
  -21.6760   -6.9250   21.4910 O   0  0  0  0  0  0  0  0  0  0  0  0
  -21.6510   -6.1790   22.6410 C   0  0  0  0  0  0  0  0  0  0  0  0
  -21.2470   -6.7290   23.8780 C   0  0  0  0  0  3  0  0  0  0  0  0
  -21.1700   -5.9090   25.0220 C   0  0  0  0  0  3  0  0  0  0  0  0
  -21.4840   -4.5410   24.9310 C   0  0  0  0  0  0  0  0  0  0  0  0
  -21.8810   -3.9900   23.6990 C   0  0  0  0  0  3  0  0  0  0  0  0
  -21.9610   -4.8070   22.5570 C   0  0  0  0  0  0  0  0  0  0  0  0
  -22.3230   -4.2650   21.3690 F   0  0  0  0  0  0  0  0  0  0  0  0
  -21.4020   -3.7510   26.0270 F   0  0  0  0  0  0  0  0  0  0  0  0
  -22.7380  -13.5670   21.1330 C   0  0  0  0  0  0  0  0  0  0  0  0
  -22.0210  -12.8700   22.0080 N   0  0  0  0  0  0  0  0  0  0  0  0
  -22.2910  -14.5900   20.6180 O   0  0  0  0  0  0  0  0  0  0  0  0
  -22.3940  -12.0430   22.4480 H   0  0  0  0  0  0  0  0  0  0  0  0
  -21.0850  -13.1700   22.2420 H   0  0  0  0  0  0  0  0  0  0  0  0
  -25.3490  -15.2410   20.2760 N   0  0  0  0  0  0  0  0  0  0  0  0
  -24.5760  -15.8910   20.3790 H   0  0  0  0  0  0  0  0  0  0  0  0
  -26.1800  -15.6760   19.8950 H   0  0  0  0  0  0  0  0  0  0  0  0
  -28.2350  -26.3690   20.3120 O   0  0  0  0  0  0  0  0  0  0  0  0
  -24.5950  -31.8980   23.2160 C   0  0  0  0  0  0  0  0  0  0  0  0
  -27.1890  -27.3090   20.1790 C   0  0  0  0  0  0  0  0  0  0  0  0
  -23.3920  -30.5020   21.5750 C   0  0  0  0  0  3  0  0  0  0  0  0
  -24.8440  -28.9560   20.1390 C   0  0  0  0  0  0  0  0  0  0  0  0
  -25.9330  -30.8140   21.3940 C   0  0  0  0  0  2  0  0  0  0  0  0
  -26.0150  -29.4380   20.7370 C   0  0  0  0  0  0  0  0  0  0  0  0
  -27.1990  -28.6310   20.7370 C   0  0  0  0  0  3  0  0  0  0  0  0
  -26.0050  -26.9050   19.5250 C   0  0  0  0  0  3  0  0  0  0  0  0
  -24.8450  -27.7000   19.5130 C   0  0  0  0  0  3  0  0  0  0  0  0
  -23.6070  -29.8310   20.1930 C   0  0  0  0  0  2  0  0  0  0  0  0
  -24.6590  -31.0880   22.1180 N   0  0  0  0  0  0  0  0  0  0  0  0
  -23.5110  -32.1790   23.7490 O   0  0  0  0  0  0  0  0  0  0  0  0
  -22.7230  -29.4880   22.5330 C   0  0  0  0  0  0  0  0  0  0  0  0
  -21.3950  -29.3230   22.4110 N   0  0  0  0  0  0  0  0  0  0  0  0
  -23.3990  -28.8550   23.3490 O   0  0  0  0  0  0  0  0  0  0  0  0
  -20.9090  -29.8840   21.7270 H   0  0  0  0  0  0  0  0  0  0  0  0
  -18.0080  -28.1520   22.9230 C   0  0  0  0  0  0  0  0  0  0  0  0
  -20.5700  -28.3890   23.1820 C   0  0  0  0  0  3  0  0  0  0  0  0
  -20.6570  -26.9590   22.6000 C   0  0  0  0  0  2  0  0  0  0  0  0
  -19.5480  -26.6500   21.5890 C   0  0  0  0  0  2  0  0  0  0  0  0
  -18.1700  -26.8040   22.2410 C   0  0  0  0  0  2  0  0  0  0  0  0
  -19.1360  -28.9020   23.3510 C   0  0  0  0  0  0  0  0  0  0  0  0
  -18.9300  -30.1640   23.9490 C   0  0  0  0  0  3  0  0  0  0  0  0
  -17.6300  -30.6760   24.1240 C   0  0  0  0  0  3  0  0  0  0  0  0
  -16.5170  -29.9210   23.7120 C   0  0  0  0  0  3  0  0  0  0  0  0
  -16.7070  -28.6610   23.1170 C   0  0  0  0  0  3  0  0  0  0  0  0
  -25.8780  -32.5280   23.8400 C   0  0  0  0  0  3  0  0  0  0  0  0
  -26.3910  -31.7530   25.1150 C   0  0  1  0  0  0  0  0  0  0  0  0
  -25.2970  -31.5170   26.1830 C   0  0  0  0  0  1  0  0  0  0  0  0
  -26.9690  -30.3730   24.7230 C   0  0  0  0  0  1  0  0  0  0  0  0
  -27.5430  -32.5430   25.7790 C   0  0  0  0  0  1  0  0  0  0  0  0
  -25.5710  -33.9270   24.1740 N   0  0  0  0  0  0  0  0  0  0  0  0
  -25.9080  -34.9830   23.4220 C   0  0  0  0  0  0  0  0  0  0  0  0
  -26.5840  -34.8810   22.3930 O   0  0  0  0  0  0  0  0  0  0  0  0
  -24.9720  -34.0780   24.9720 H   0  0  0  0  0  0  0  0  0  0  0  0
  -24.1930  -36.7870   23.0620 C   0  0  0  0  0  1  0  0  0  0  0  0
  -25.4240  -36.3710   23.8830 C   0  0  0  0  0  3  0  0  0  0  0  0
  -27.5550  -37.2420   24.7380 C   0  0  0  0  0  1  0  0  0  0  0  0
  -26.4630  -37.4200   23.7850 N   0  0  0  0  0  0  0  0  0  0  0  0
  -26.0610  -38.3420   23.9330 H   0  0  0  0  0  0  0  0  0  0  0  0
  2  1  2  0
  3  6  2  0
  3  4  1  0
  4  5  2  0
  5  1  1  0
  5 11  1  0
  6  2  1  0
  8 55  1  0
  8  4  1  0
  8  9  1  0
  9 10  1  0
  9  7  1  0
 11  7  1  0
 11 12  1  0
 13  6  1  0
 13 15  1  0
 14 13  1  0
 16 25  1  0
 16 15  1  0
 17 25  1  0
 18 23  1  0
 19 20  1  0
 19 18  1  0
 21 20  1  0
 21 30  1  0
 21 22  1  0
 23 17  1  0
 23 22  1  0
 24 17  2  0
 25 26  1  0
 27 28  2  0
 28 47  1  0
 29 28  1  0
 29 32  1  0
 30 27  1  0
 30 31  1  0
 31 29  2  0
 32 33  1  0
 33 34  2  0
 35 38  1  0
 35 34  1  0
 36 35  2  0
 37 36  1  0
 37 32  2  0
 38 39  1  0
 39 40  1  0
 40 41  2  0
 42 41  1  0
 42 46  1  0
 43 42  2  0
 44 39  2  0
 44 43  1  0
 45 44  1  0
 47 48  1  0
 48 51  1  0
 48 50  1  0
 49 47  2  0
 52 53  1  0
 52 27  1  0
 54 52  1  0
 56 67  2  0
 57 55  1  0
 57 62  1  0
 58 66  1  0
 58 68  1  0
 59 65  1  0
 59 61  1  0
 60 66  1  0
 61 62  2  0
 61 60  1  0
 63 57  2  0
 64 63  1  0
 64 59  2  0
 65 58  1  0
 66 56  1  0
 68 70  2  0
 69 68  1  0
 71 69  1  0
 72 81  2  0
 72 77  1  0
 73 69  1  0
 73 77  1  0
 74 73  1  0
 75 76  1  0
 75 74  1  0
 76 72  1  0
 77 78  2  0
 78 79  1  0
 80 79  2  0
 81 80  1  0
 82 56  1  0
 82 87  1  0
 82 83  1  0
 83 86  1  1
 83 84  1  0
 85 83  1  0
 87 90  1  0
 88 92  1  0
 88 87  1  0
 89 88  2  0
 92 91  1  0
 94 92  1  0
 94 95  1  0
 94 93  1  0
M  ISO  4   8 101  17 100  25 100  55 101
M  END
>  <TORSDO>  (90) 
F 19

>  <SCORE>  (90) 
-14.512

>  <name>  (90) 
90

>  <ligand_id>  (90) 
90

>  <original_smiles>  (90) 
[H]c1c([H])c([H])c2c(c1[H])C([H])([H])C([H])([H])C([H])([H])C2([H])N([H])C(=O)C1([H])N(C(=O)C([H])(N([H])C(=O)C([H])(N([H])C([H])([H])[H])C([H])([H])[H])C(C([H])([H])[H])(C([H])([H])[H])C([H])([H])[H])C([H])([H])c2c([H])c(OC3([H])c4c([H])c(N([H])C([H])([H])C([H])([H])N([H])C(=O)N5C([H])([H])C([H])([H])C([H])([H])C([H])(n6nc(-c7c([H])c([H])c(Oc8c([H])c([H])c(F)c([H])c8F)c([H])c7[H])c(C(=O)N([H])[H])c6N([H])[H])C5([H])[H])c([H])c([H])c4N([H])C([H])([H])C3([H])C([H])([H])[H])c([H])c([H])c2C1([H])[H]

>  <smiles>  (90) 
[H]c1c([H])c([H])c2c(c1[H])C([H])([H])C([H])([H])C([H])([H])C2([H])N([H])C(=O)C1([H])N(C(=O)C([H])(N([H])C(=O)C([H])(N([H])C([H])([H])[H])C([H])([H])[H])C(C([H])([H])[H])(C([H])([H])[H])C([H])([H])[H])C([H])([H])c2c([H])c(OC3([H])c4c([H])c(N([H])C([H])([H])C([H])([H])N([H])C(=O)N5C([H])([H])C([H])([H])C([H])([H])C([H])(n6nc(-c7c([H])c([H])c(Oc8c([H])c([H])c(F)c([H])c8F)c([H])c7[H])c(C(=O)N([H])[H])c6N([H])[H])C5([H])[H])c([H])c([H])c4N([H])C([H])([H])C3([H])C([H])([H])[H])c([H])c([H])c2C1([H])[H]

$$$$
91:0:0
     RDKit          3D

 97104  0  0  1  0  0  0  0  0999 V2000
  -29.7540  -17.2970   20.7820 C   0  0  0  0  0  3  0  0  0  0  0  0
  -29.0380  -18.4290   20.3640 C   0  0  0  0  0  3  0  0  0  0  0  0
  -28.0090  -17.0330   18.7110 C   0  0  0  0  0  3  0  0  0  0  0  0
  -29.7260  -15.9700   20.2380 C   0  0  0  0  0  0  0  0  0  0  0  0
  -28.1390  -18.4010   19.3020 C   0  0  0  0  0  0  0  0  0  0  0  0
  -28.6880  -15.7310   19.0790 C   0  0  0  0  0  0  0  0  0  0  0  0
  -30.9570  -15.1770   21.0040 C   0  0  0  0  0  0  0  0  0  0  0  0
  -31.6940  -12.8450   21.2940 C   0  0  0  0  0  2  0  0  0  0  0  0
  -31.0540  -12.2140   20.0390 C   0  0  0  0  0  2  0  0  0  0  0  0
  -29.6000  -11.9200   20.3930 C   0  0  0  0  0  2  0  0  0  0  0  0
  -29.0000  -13.1770   21.0910 C   0  0  0  0  0  3  0  0  0  0  0  0
  -29.6660  -13.6370   22.3040 C   0  0  0  0  0  2  0  0  0  0  0  0
  -30.8690  -14.0120   21.6880 N   0  0  0  0  0  0  0  0  0  0  0  0
  -32.1290  -15.5960   20.9830 O   0  0  0  0  0  0  0  0  0  0  0  0
  -26.1560  -14.4640   21.4170 C   0  0  0  0  0  2  0  0  0  0  0  0
  -24.8230  -13.5040   20.8740 C   0  0  0  0  0  3  0  0  0  0  0  0
  -25.3660  -11.8340   20.5430 C   0  0  0  0  0  3  0  0  0  0  0  0
  -27.6860  -13.2450   21.3980 N   0  0  0  0  0  2  0  0  0  0  0  0
  -27.0330  -11.6790   20.8300 N   0  0  0  0  0  2  0  0  0  0  0  0
  -24.6410  -10.6110   20.9410 C   0  0  0  0  0  0  0  0  0  0  0  0
  -24.9790   -9.7840   22.0590 C   0  0  0  0  0  3  0  0  0  0  0  0
  -24.2480   -8.5940   22.3230 C   0  0  0  0  0  3  0  0  0  0  0  0
  -23.1750   -8.2410   21.4680 C   0  0  0  0  0  0  0  0  0  0  0  0
  -22.8370   -9.0950   20.4070 C   0  0  0  0  0  3  0  0  0  0  0  0
  -23.5510  -10.2680   20.1550 C   0  0  0  0  0  3  0  0  0  0  0  0
  -22.4410   -7.0810   21.5220 O   0  0  0  0  0  0  0  0  0  0  0  0
  -22.2440   -6.3750   22.6780 C   0  0  0  0  0  0  0  0  0  0  0  0
  -21.6650   -6.9570   23.8240 C   0  0  0  0  0  3  0  0  0  0  0  0
  -21.4000   -6.1620   24.9570 C   0  0  0  0  0  3  0  0  0  0  0  0
  -21.7050   -4.7860   24.9400 C   0  0  0  0  0  0  0  0  0  0  0  0
  -22.2700   -4.2030   23.7920 C   0  0  0  0  0  3  0  0  0  0  0  0
  -22.5350   -4.9960   22.6630 C   0  0  0  0  0  0  0  0  0  0  0  0
  -23.0550   -4.4250   21.5490 F   0  0  0  0  0  0  0  0  0  0  0  0
  -21.4490   -4.0230   26.0260 F   0  0  0  0  0  0  0  0  0  0  0  0
  -23.4190  -13.8740   20.7520 C   0  0  0  0  0  0  0  0  0  0  0  0
  -22.5690  -13.1610   21.4800 N   0  0  0  0  0  0  0  0  0  0  0  0
  -23.0960  -14.7640   19.9840 O   0  0  0  0  0  0  0  0  0  0  0  0
  -22.9060  -12.4380   22.0990 H   0  0  0  0  0  0  0  0  0  0  0  0
  -21.5790  -13.3540   21.4330 H   0  0  0  0  0  0  0  0  0  0  0  0
  -26.2070  -15.8200   21.3960 N   0  0  0  0  0  0  0  0  0  0  0  0
  -25.3960  -16.4140   21.2760 H   0  0  0  0  0  0  0  0  0  0  0  0
  -27.0800  -16.3320   21.3810 H   0  0  0  0  0  0  0  0  0  0  0  0
  -27.2480  -19.7980   19.0970 C   0  0  0  0  0  2  0  0  0  0  0  0
  -27.7410  -21.3000   18.8570 N   0  0  0  0  0  4  0  0  0  0  0  0
  -28.7140  -21.2470   18.5960 H   0  0  0  0  0  0  0  0  0  0  0  0
  -27.2700  -21.5670   18.0070 H   0  0  0  0  0  0  0  0  0  0  0  0
  -27.5890  -22.5440   19.8660 C   0  0  0  0  0  2  0  0  0  0  0  0
  -27.2820  -24.1510   19.3940 C   0  0  0  0  0  2  0  0  0  0  0  0
  -27.7020  -25.5650   20.0010 O   0  0  0  0  0  0  0  0  0  0  0  0
  -24.5210  -31.5720   23.0250 C   0  0  0  0  0  0  0  0  0  0  0  0
  -26.8190  -26.7120   19.9310 C   0  0  0  0  0  0  0  0  0  0  0  0
  -23.2730  -30.2350   21.3860 C   0  0  0  0  0  3  0  0  0  0  0  0
  -24.6440  -28.6300   19.9380 C   0  0  0  0  0  0  0  0  0  0  0  0
  -25.8440  -30.3650   21.2440 C   0  0  0  0  0  2  0  0  0  0  0  0
  -25.8450  -28.9780   20.5700 C   0  0  0  0  0  0  0  0  0  0  0  0
  -26.9410  -28.0250   20.5660 C   0  0  0  0  0  3  0  0  0  0  0  0
  -25.6290  -26.5330   19.2020 C   0  0  0  0  0  3  0  0  0  0  0  0
  -24.5540  -27.4280   19.2370 C   0  0  0  0  0  3  0  0  0  0  0  0
  -23.4660  -29.5850   19.9970 C   0  0  0  0  0  2  0  0  0  0  0  0
  -24.5690  -30.7450   21.9370 N   0  0  0  0  0  0  0  0  0  0  0  0
  -23.4410  -31.9020   23.5420 O   0  0  0  0  0  0  0  0  0  0  0  0
  -22.5610  -29.2330   22.3300 C   0  0  0  0  0  0  0  0  0  0  0  0
  -21.2210  -29.1540   22.2410 N   0  0  0  0  0  0  0  0  0  0  0  0
  -23.2140  -28.5340   23.1100 O   0  0  0  0  0  0  0  0  0  0  0  0
  -20.7530  -29.7630   21.5850 H   0  0  0  0  0  0  0  0  0  0  0  0
  -17.7820  -28.1960   22.8570 C   0  0  0  0  0  0  0  0  0  0  0  0
  -20.3620  -28.2540   23.0160 C   0  0  0  0  0  3  0  0  0  0  0  0
  -20.3290  -26.8400   22.3910 C   0  0  0  0  0  2  0  0  0  0  0  0
  -19.1630  -26.6390   21.4180 C   0  0  0  0  0  2  0  0  0  0  0  0
  -17.8250  -26.8640   22.1280 C   0  0  0  0  0  2  0  0  0  0  0  0
  -18.9740  -28.8550   23.2610 C   0  0  0  0  0  0  0  0  0  0  0  0
  -18.8770  -30.1070   23.9090 C   0  0  0  0  0  3  0  0  0  0  0  0
  -17.6230  -30.6970   24.1540 C   0  0  0  0  0  3  0  0  0  0  0  0
  -16.4460  -30.0330   23.7650 C   0  0  0  0  0  3  0  0  0  0  0  0
  -16.5270  -28.7850   23.1230 C   0  0  0  0  0  3  0  0  0  0  0  0
  -25.8160  -32.1620   23.6540 C   0  0  0  0  0  3  0  0  0  0  0  0
  -26.3250  -31.3440   24.9060 C   0  0  1  0  0  0  0  0  0  0  0  0
  -25.2370  -31.1140   25.9810 C   0  0  0  0  0  1  0  0  0  0  0  0
  -26.8630  -29.9590   24.4830 C   0  0  0  0  0  1  0  0  0  0  0  0
  -27.5050  -32.0900   25.5710 C   0  0  0  0  0  1  0  0  0  0  0  0
  -25.5310  -33.5550   24.0360 N   0  0  0  0  0  0  0  0  0  0  0  0
  -25.9080  -34.6330   23.3360 C   0  0  0  0  0  0  0  0  0  0  0  0
  -26.6010  -34.5590   22.3170 O   0  0  0  0  0  0  0  0  0  0  0  0
  -24.9170  -33.6920   24.8250 H   0  0  0  0  0  0  0  0  0  0  0  0
  -24.2470  -36.4970   23.0170 C   0  0  0  0  0  1  0  0  0  0  0  0
  -25.4470  -36.0130   23.8460 C   0  0  0  0  0  3  0  0  0  0  0  0
  -27.5720  -36.7940   24.7960 C   0  0  0  0  0  1  0  0  0  0  0  0
  -26.5130  -37.0380   23.8210 N   0  0  0  0  0  0  0  0  0  0  0  0
  -26.1270  -37.9620   23.9940 H   0  0  0  0  0  0  0  0  0  0  0  0
  -28.2960  -14.5220   18.1390 O   0  0  0  0  0  0  0  0  0  0  0  0
  -27.1910  -13.2170   17.8500 C   0  0  0  0  0  2  0  0  0  0  0  0
  -28.2240  -11.9990   17.6990 C   0  0  0  0  0  2  0  0  0  0  0  0
  -27.9060  -10.4920   17.9630 C   0  0  0  0  0  2  0  0  0  0  0  0
  -28.8460   -9.0940   19.9300 C   0  0  0  0  0  1  0  0  0  0  0  0
  -29.0250   -9.8070   18.6450 N   0  0  0  0  0  4  0  0  0  0  0  0
  -28.5020   -8.9840   18.3880 H   0  0  0  0  0  0  0  0  0  0  0  0
  -28.9240  -10.5500   19.3170 H   0  0  0  0  0  0  0  0  0  0  0  0
  2  1  1  0
  3  6  2  0
  3  5  1  0
  4  1  2  0
  4  7  1  0
  5  2  2  0
  6  4  1  0
  7 13  1  0
  8 13  1  0
  9 10  1  0
  9  8  1  0
 10 11  1  0
 11 18  1  0
 11 12  1  0
 13 12  1  0
 14  7  2  0
 16 15  1  0
 17 19  1  0
 17 16  1  0
 17 20  1  0
 19 18  1  0
 20 21  1  0
 21 22  2  0
 23 26  1  0
 23 22  1  0
 24 23  2  0
 25 24  1  0
 25 20  2  0
 26 27  1  0
 27 28  1  0
 28 29  2  0
 30 29  1  0
 30 34  1  0
 31 30  2  0
 32 27  2  0
 32 31  1  0
 33 32  1  0
 35 16  1  0
 35 36  1  0
 36 38  1  0
 37 35  2  0
 39 36  1  0
 40 15  1  0
 41 40  1  0
 42 40  1  0
 43  5  1  0
 44 43  1  0
 44 47  1  0
 45 44  1  0
 46 44  1  0
 48 47  1  0
 48 49  1  0
 50 61  2  0
 51 49  1  0
 51 56  1  0
 52 60  1  0
 52 62  1  0
 53 59  1  0
 53 55  1  0
 54 60  1  0
 55 54  1  0
 56 55  2  0
 57 58  1  0
 57 51  2  0
 58 53  2  0
 59 52  1  0
 60 50  1  0
 62 64  2  0
 63 62  1  0
 65 63  1  0
 66 75  2  0
 66 71  1  0
 67 63  1  0
 67 71  1  0
 68 67  1  0
 69 70  1  0
 69 68  1  0
 70 66  1  0
 71 72  2  0
 72 73  1  0
 74 73  2  0
 75 74  1  0
 76 50  1  0
 76 81  1  0
 76 77  1  0
 77 80  1  1
 77 78  1  0
 79 77  1  0
 81 84  1  0
 82 86  1  0
 82 81  1  0
 83 82  2  0
 86 85  1  0
 88 86  1  0
 88 89  1  0
 88 87  1  0
 90  6  1  0
 91 90  1  0
 92 91  1  0
 92 93  1  0
 93 95  1  0
 95 97  1  0
 95 94  1  0
 96 95  1  0
M  ISO  4   4 100   7 100  48 101  49 101
M  END
>  <TORSDO>  (91) 
F 25

>  <SCORE>  (91) 
-8.654

>  <name>  (91) 
91

>  <ligand_id>  (91) 
91

>  <original_smiles>  (91) 
[H]c1c([H])c([H])c2c(c1[H])C([H])([H])C([H])([H])C([H])([H])C2([H])N([H])C(=O)C1([H])N(C(=O)C([H])(N([H])C(=O)C([H])(N([H])C([H])([H])[H])C([H])([H])[H])C(C([H])([H])[H])(C([H])([H])[H])C([H])([H])[H])C([H])([H])c2c([H])c(OC([H])([H])C([H])([H])[N+]([H])([H])C([H])([H])c3c([H])c([H])c(C(=O)N4C([H])([H])C([H])([H])C([H])([H])C([H])(n5nc(-c6c([H])c([H])c(Oc7c([H])c([H])c(F)c([H])c7F)c([H])c6[H])c(C(=O)N([H])[H])c5N([H])[H])C4([H])[H])c(OC([H])([H])C([H])([H])C([H])([H])[N+]([H])([H])C([H])([H])[H])c3[H])c([H])c([H])c2C1([H])[H]

>  <smiles>  (91) 
[H]c1c([H])c([H])c2c(c1[H])C([H])([H])C([H])([H])C([H])([H])C2([H])N([H])C(=O)C1([H])N(C(=O)C([H])(N([H])C(=O)C([H])(N([H])C([H])([H])[H])C([H])([H])[H])C(C([H])([H])[H])(C([H])([H])[H])C([H])([H])[H])C([H])([H])c2c([H])c(OC([H])([H])C([H])([H])[N+]([H])([H])C([H])([H])c3c([H])c([H])c(C(=O)N4C([H])([H])C([H])([H])C([H])([H])C([H])(n5nc(-c6c([H])c([H])c(Oc7c([H])c([H])c(F)c([H])c7F)c([H])c6[H])c(C(=O)N([H])[H])c5N([H])[H])C4([H])[H])c(OC([H])([H])C([H])([H])C([H])([H])[N+]([H])([H])C([H])([H])[H])c3[H])c([H])c([H])c2C1([H])[H]

$$$$
92:0:0
     RDKit          3D

 94103  0  0  1  0  0  0  0  0999 V2000
  -30.5840  -14.6740   20.4800 C   0  0  0  0  0  0  0  0  0  0  0  0
  -30.4520  -12.4100   19.4370 C   0  0  0  0  0  2  0  0  0  0  0  0
  -29.5020  -12.4940   18.2180 C   0  0  0  0  0  2  0  0  0  0  0  0
  -28.0280  -12.3250   18.6420 C   0  0  0  0  0  2  0  0  0  0  0  0
  -27.6530  -13.2070   19.8620 C   0  0  0  0  0  3  0  0  0  0  0  0
  -28.7040  -13.0540   20.9850 C   0  0  0  0  0  2  0  0  0  0  0  0
  -30.0150  -13.4230   20.4190 N   0  0  0  0  0  0  0  0  0  0  0  0
  -31.7460  -14.8650   20.1030 O   0  0  0  0  0  0  0  0  0  0  0  0
  -28.5530  -17.6570   21.5360 C   0  0  0  0  0  3  0  0  0  0  0  0
  -30.1070  -19.3870   20.1460 C   0  0  0  0  0  3  0  0  0  0  0  0
  -28.2660  -19.0450   21.6140 C   0  0  0  0  0  0  0  0  0  0  0  0
  -29.0330  -19.9870   20.8720 C   0  0  0  0  0  0  0  0  0  0  0  0
  -29.6310  -17.1320   20.7950 C   0  0  0  0  0  0  0  0  0  0  0  0
  -30.3960  -18.0340   20.1070 N   0  0  0  0  0  0  0  0  0  0  0  0
  -29.7180  -15.6680   20.8600 N   0  0  0  0  0  0  0  0  0  0  0  0
  -28.8730  -15.2560   21.2210 H   0  0  0  0  0  0  0  0  0  0  0  0
  -25.2580  -13.8150   20.5700 C   0  0  0  0  0  0  0  0  0  0  0  0
  -24.1820  -13.0440   20.9200 C   0  0  0  0  0  0  0  0  0  0  0  0
  -24.6390  -11.6900   20.8770 C   0  0  0  0  0  0  0  0  0  0  0  0
  -26.2990  -12.9300   20.3330 N   0  0  0  0  0  0  0  0  0  0  0  0
  -25.9310  -11.6470   20.5790 N   0  0  0  0  0  0  0  0  0  0  0  0
  -23.9050  -10.4280   21.0420 C   0  0  0  0  0  0  0  0  0  0  0  0
  -24.3600   -9.4200   21.9200 C   0  0  0  0  0  3  0  0  0  0  0  0
  -23.6280   -8.2240   22.0760 C   0  0  0  0  0  3  0  0  0  0  0  0
  -22.4270   -8.0280   21.3550 C   0  0  0  0  0  0  0  0  0  0  0  0
  -21.9910   -9.0250   20.4650 C   0  0  0  0  0  3  0  0  0  0  0  0
  -22.7230  -10.2120   20.3060 C   0  0  0  0  0  3  0  0  0  0  0  0
  -21.6630   -6.8870   21.4240 O   0  0  0  0  0  0  0  0  0  0  0  0
  -21.6850   -6.0740   22.5270 C   0  0  0  0  0  0  0  0  0  0  0  0
  -21.4000   -6.5650   23.8210 C   0  0  0  0  0  3  0  0  0  0  0  0
  -21.3660   -5.6800   24.9180 C   0  0  0  0  0  3  0  0  0  0  0  0
  -21.6040   -4.3060   24.7220 C   0  0  0  0  0  0  0  0  0  0  0  0
  -21.8820   -3.8150   23.4350 C   0  0  0  0  0  3  0  0  0  0  0  0
  -21.9190   -4.6960   22.3400 C   0  0  0  0  0  0  0  0  0  0  0  0
  -22.1660   -4.2150   21.0980 F   0  0  0  0  0  0  0  0  0  0  0  0
  -21.5630   -3.4530   25.7740 F   0  0  0  0  0  0  0  0  0  0  0  0
  -22.7850  -13.5230   21.1850 C   0  0  0  0  0  0  0  0  0  0  0  0
  -22.0480  -12.8220   22.0410 N   0  0  0  0  0  0  0  0  0  0  0  0
  -22.3550  -14.5550   20.6720 O   0  0  0  0  0  0  0  0  0  0  0  0
  -22.4040  -11.9830   22.4730 H   0  0  0  0  0  0  0  0  0  0  0  0
  -21.1130  -13.1300   22.2660 H   0  0  0  0  0  0  0  0  0  0  0  0
  -25.4330  -15.1880   20.4130 N   0  0  0  0  0  0  0  0  0  0  0  0
  -24.6680  -15.8420   20.5330 H   0  0  0  0  0  0  0  0  0  0  0  0
  -26.2730  -15.6260   20.0590 H   0  0  0  0  0  0  0  0  0  0  0  0
  -27.3810  -20.3130   23.7580 C   0  0  0  0  0  2  0  0  0  0  0  0
  -27.0760  -18.8450   23.9220 C   0  0  0  0  0  2  0  0  0  0  0  0
  -27.1520  -19.4500   22.5360 C   0  0  0  0  0  3  0  0  0  0  0  0
  -28.6660  -21.5420   20.9730 C   0  0  0  0  0  2  0  0  0  0  0  0
  -29.1300  -22.5960   19.9830 N   0  0  0  0  0  4  0  0  0  0  0  0
  -29.1580  -22.1330   19.0880 H   0  0  0  0  0  0  0  0  0  0  0  0
  -30.0830  -22.8620   20.1890 H   0  0  0  0  0  0  0  0  0  0  0  0
  -28.2910  -23.8600   19.7230 C   0  0  0  0  0  2  0  0  0  0  0  0
  -28.3630  -25.1330   20.6890 C   0  0  0  0  0  2  0  0  0  0  0  0
  -28.3860  -26.5060   20.1200 O   0  0  0  0  0  0  0  0  0  0  0  0
  -24.6260  -31.8560   23.1950 C   0  0  0  0  0  0  0  0  0  0  0  0
  -27.2400  -27.3110   20.1390 C   0  0  0  0  0  0  0  0  0  0  0  0
  -23.4230  -30.4780   21.5340 C   0  0  0  0  0  3  0  0  0  0  0  0
  -24.8750  -28.9160   20.1180 C   0  0  0  0  0  0  0  0  0  0  0  0
  -25.9630  -30.7880   21.3630 C   0  0  0  0  0  2  0  0  0  0  0  0
  -26.0410  -29.4100   20.7150 C   0  0  0  0  0  0  0  0  0  0  0  0
  -27.2300  -28.6230   20.7050 C   0  0  0  0  0  3  0  0  0  0  0  0
  -26.0520  -26.8580   19.5300 C   0  0  0  0  0  3  0  0  0  0  0  0
  -24.8800  -27.6450   19.5170 C   0  0  0  0  0  3  0  0  0  0  0  0
  -23.6450  -29.8020   20.1540 C   0  0  0  0  0  2  0  0  0  0  0  0
  -24.6910  -31.0600   22.0890 N   0  0  0  0  0  0  0  0  0  0  0  0
  -23.5420  -32.1340   23.7270 O   0  0  0  0  0  0  0  0  0  0  0  0
  -22.7490  -29.4630   22.4870 C   0  0  0  0  0  0  0  0  0  0  0  0
  -21.4200  -29.3060   22.3620 N   0  0  0  0  0  0  0  0  0  0  0  0
  -23.4220  -28.8160   23.2960 O   0  0  0  0  0  0  0  0  0  0  0  0
  -20.9400  -29.8760   21.6800 H   0  0  0  0  0  0  0  0  0  0  0  0
  -18.0290  -28.1450   22.8480 C   0  0  0  0  0  0  0  0  0  0  0  0
  -20.5900  -28.3740   23.1260 C   0  0  0  0  0  3  0  0  0  0  0  0
  -20.6800  -26.9460   22.5400 C   0  0  0  0  0  2  0  0  0  0  0  0
  -19.5780  -26.6410   21.5220 C   0  0  0  0  0  2  0  0  0  0  0  0
  -18.1950  -26.7990   22.1610 C   0  0  0  0  0  2  0  0  0  0  0  0
  -19.1550  -28.8900   23.2870 C   0  0  0  0  0  0  0  0  0  0  0  0
  -18.9490  -30.1500   23.8870 C   0  0  0  0  0  3  0  0  0  0  0  0
  -17.6500  -30.6630   24.0600 C   0  0  0  0  0  3  0  0  0  0  0  0
  -16.5370  -29.9140   23.6360 C   0  0  0  0  0  3  0  0  0  0  0  0
  -16.7270  -28.6590   23.0320 C   0  0  0  0  0  3  0  0  0  0  0  0
  -25.9100  -32.4760   23.8300 C   0  0  0  0  0  3  0  0  0  0  0  0
  -26.4510  -31.6580   25.0670 C   0  0  1  0  0  0  0  0  0  0  0  0
  -25.3740  -31.3730   26.1400 C   0  0  0  0  0  1  0  0  0  0  0  0
  -27.0360  -30.2990   24.6110 C   0  0  0  0  0  1  0  0  0  0  0  0
  -27.6020  -32.4330   25.7460 C   0  0  0  0  0  1  0  0  0  0  0  0
  -25.5910  -33.8560   24.2240 N   0  0  0  0  0  0  0  0  0  0  0  0
  -25.9030  -34.9440   23.5080 C   0  0  0  0  0  0  0  0  0  0  0  0
  -26.5610  -34.8940   22.4650 O   0  0  0  0  0  0  0  0  0  0  0  0
  -25.0150  -33.9710   25.0460 H   0  0  0  0  0  0  0  0  0  0  0  0
  -24.1480  -36.7260   23.2640 C   0  0  0  0  0  1  0  0  0  0  0  0
  -25.4100  -36.3060   24.0340 C   0  0  0  0  0  3  0  0  0  0  0  0
  -27.5580  -37.1770   24.8470 C   0  0  0  0  0  1  0  0  0  0  0  0
  -26.4270  -37.3770   23.9440 N   0  0  0  0  0  0  0  0  0  0  0  0
  -26.0130  -38.2800   24.1510 H   0  0  0  0  0  0  0  0  0  0  0  0
  1 15  1  0
  2  7  1  0
  3  4  1  0
  3  2  1  0
  5  4  1  0
  5 20  1  0
  5  6  1  0
  7  1  1  0
  7  6  1  0
  8  1  2  0
  9 11  1  0
 10 12  1  0
 11 47  1  0
 12 48  1  0
 12 11  2  0
 13 15  1  0
 13  9  2  0
 14 10  2  0
 14 13  1  0
 15 16  1  0
 17 18  2  0
 18 37  1  0
 19 18  1  0
 19 22  1  0
 20 17  1  0
 20 21  1  0
 21 19  2  0
 22 23  1  0
 23 24  2  0
 25 28  1  0
 25 24  1  0
 26 25  2  0
 27 26  1  0
 27 22  2  0
 28 29  1  0
 29 30  1  0
 30 31  2  0
 32 31  1  0
 32 36  1  0
 33 32  2  0
 34 29  2  0
 34 33  1  0
 35 34  1  0
 37 38  1  0
 38 41  1  0
 38 40  1  0
 39 37  2  0
 42 43  1  0
 42 17  1  0
 44 42  1  0
 45 46  1  0
 47 45  1  0
 47 46  1  0
 49 51  1  0
 49 48  1  0
 50 49  1  0
 52 49  1  0
 52 53  1  0
 54 56  1  0
 54 53  1  0
 55 66  2  0
 56 61  1  0
 57 65  1  0
 57 67  1  0
 58 64  1  0
 58 60  1  0
 59 65  1  0
 60 59  1  0
 61 60  2  0
 62 56  2  0
 63 62  1  0
 63 58  2  0
 64 57  1  0
 65 55  1  0
 67 69  2  0
 68 67  1  0
 70 68  1  0
 71 80  2  0
 71 76  1  0
 72 68  1  0
 72 76  1  0
 73 72  1  0
 74 75  1  0
 74 73  1  0
 75 71  1  0
 76 77  2  0
 77 78  1  0
 79 78  2  0
 80 79  1  0
 81 55  1  0
 81 86  1  0
 81 82  1  0
 82 85  1  1
 82 83  1  0
 84 82  1  0
 86 89  1  0
 87 91  1  0
 87 86  1  0
 88 87  2  0
 91 90  1  0
 93 91  1  0
 93 94  1  0
 93 92  1  0
M  ISO  4   1 100  15 100  53 101  54 101
M  END
>  <TORSDO>  (92) 
F 20

>  <SCORE>  (92) 
19.095

>  <name>  (92) 
92

>  <ligand_id>  (92) 
92

>  <original_smiles>  (92) 
[H]c1nc(N([H])C(=O)N2C([H])([H])C([H])([H])C([H])([H])C([H])(n3nc(-c4c([H])c([H])c(Oc5c([H])c([H])c(F)c([H])c5F)c([H])c4[H])c(C(=O)N([H])[H])c3N([H])[H])C2([H])[H])c([H])c(C2([H])C([H])([H])C2([H])[H])c1C([H])([H])[N+]([H])([H])C([H])([H])C([H])([H])Oc1c([H])c([H])c2c(c1[H])C([H])([H])N(C(=O)C([H])(N([H])C(=O)C([H])(N([H])C([H])([H])[H])C([H])([H])[H])C(C([H])([H])[H])(C([H])([H])[H])C([H])([H])[H])C([H])(C(=O)N([H])C1([H])c3c([H])c([H])c([H])c([H])c3C([H])([H])C([H])([H])C1([H])[H])C2([H])[H]

>  <smiles>  (92) 
[H]c1nc(N([H])C(=O)N2C([H])([H])C([H])([H])C([H])([H])C([H])(n3nc(-c4c([H])c([H])c(Oc5c([H])c([H])c(F)c([H])c5F)c([H])c4[H])c(C(=O)N([H])[H])c3N([H])[H])C2([H])[H])c([H])c(C2([H])C([H])([H])C2([H])[H])c1C([H])([H])[N+]([H])([H])C([H])([H])C([H])([H])Oc1c([H])c([H])c2c(c1[H])C([H])([H])N(C(=O)C([H])(N([H])C(=O)C([H])(N([H])C([H])([H])[H])C([H])([H])[H])C(C([H])([H])[H])(C([H])([H])[H])C([H])([H])[H])C([H])(C(=O)N([H])C1([H])c3c([H])c([H])c([H])c([H])c3C([H])([H])C([H])([H])C1([H])[H])C2([H])[H]

$$$$
93:0:0
     RDKit          3D

 98108  0  0  1  0  0  0  0  0999 V2000
  -30.2640  -19.6810   22.6400 C   0  0  0  0  0  1  0  0  0  0  0  0
  -30.2720  -19.7030   21.0970 C   0  0  0  0  0  3  0  0  0  0  0  0
  -30.9960  -14.6130   21.1490 C   0  0  0  0  0  0  0  0  0  0  0  0
  -30.8790  -12.2790   20.3380 C   0  0  0  0  0  2  0  0  0  0  0  0
  -30.1020  -12.2360   19.0060 C   0  0  0  0  0  2  0  0  0  0  0  0
  -28.5850  -12.1300   19.2600 C   0  0  0  0  0  2  0  0  0  0  0  0
  -28.0680  -13.1260   20.3340 C   0  0  0  0  0  3  0  0  0  0  0  0
  -28.9780  -13.1520   21.5790 C   0  0  0  0  0  2  0  0  0  0  0  0
  -30.3440  -13.4110   21.1140 N   0  0  0  0  0  0  0  0  0  0  0  0
  -32.2280  -14.6690   21.1820 O   0  0  0  0  0  0  0  0  0  0  0  0
  -30.6130  -15.8220   19.1410 C   0  0  0  0  0  2  0  0  0  0  0  0
  -30.1980  -17.0170   21.2890 C   0  0  0  0  0  2  0  0  0  0  0  0
  -30.9390  -17.2500   18.6820 C   0  0  0  0  0  2  0  0  0  0  0  0
  -29.6640  -18.3270   20.4980 C   0  0  0  0  0  3  0  0  0  0  0  0
  -30.3250  -15.6820   20.5880 N   0  0  0  0  0  0  0  0  0  0  0  0
  -29.7870  -18.1150   19.0120 N   0  0  1  0  0  4  0  0  0  0  0  0
  -29.0130  -17.5030   18.8040 H   0  0  0  0  0  0  0  0  0  0  0  0
  -25.6170  -13.7650   20.7500 C   0  0  0  0  0  0  0  0  0  0  0  0
  -24.5040  -13.0110   21.0120 C   0  0  0  0  0  0  0  0  0  0  0  0
  -24.9540  -11.6580   21.0890 C   0  0  0  0  0  0  0  0  0  0  0  0
  -26.6720  -12.8700   20.6780 N   0  0  0  0  0  0  0  0  0  0  0  0
  -26.2720  -11.6010   20.9480 N   0  0  0  0  0  0  0  0  0  0  0  0
  -24.1970  -10.4070   21.2330 C   0  0  0  0  0  0  0  0  0  0  0  0
  -24.5420   -9.4440   22.2060 C   0  0  0  0  0  3  0  0  0  0  0  0
  -23.7870   -8.2580   22.3390 C   0  0  0  0  0  3  0  0  0  0  0  0
  -22.6730   -8.0280   21.4970 C   0  0  0  0  0  0  0  0  0  0  0  0
  -22.3480   -8.9790   20.5150 C   0  0  0  0  0  3  0  0  0  0  0  0
  -23.1030  -10.1570   20.3810 C   0  0  0  0  0  3  0  0  0  0  0  0
  -21.8980   -6.8940   21.5370 O   0  0  0  0  0  0  0  0  0  0  0  0
  -21.7810   -6.1410   22.6770 C   0  0  0  0  0  0  0  0  0  0  0  0
  -21.2720   -6.6820   23.8780 C   0  0  0  0  0  3  0  0  0  0  0  0
  -21.1040   -5.8560   25.0070 C   0  0  0  0  0  3  0  0  0  0  0  0
  -21.4330   -4.4900   24.9360 C   0  0  0  0  0  0  0  0  0  0  0  0
  -21.9350   -3.9480   23.7410 C   0  0  0  0  0  3  0  0  0  0  0  0
  -22.1060   -4.7710   22.6140 C   0  0  0  0  0  0  0  0  0  0  0  0
  -22.5700   -4.2400   21.4570 F   0  0  0  0  0  0  0  0  0  0  0  0
  -21.2650   -3.6940   26.0190 F   0  0  0  0  0  0  0  0  0  0  0  0
  -23.0900  -13.5070   21.0880 C   0  0  0  0  0  0  0  0  0  0  0  0
  -22.2560  -12.8580   21.8950 N   0  0  0  0  0  0  0  0  0  0  0  0
  -22.7280  -14.5060   20.4680 O   0  0  0  0  0  0  0  0  0  0  0  0
  -22.5590  -12.0520   22.4200 H   0  0  0  0  0  0  0  0  0  0  0  0
  -21.3030  -13.1760   21.9890 H   0  0  0  0  0  0  0  0  0  0  0  0
  -25.8170  -15.1270   20.5470 N   0  0  0  0  0  0  0  0  0  0  0  0
  -25.0500  -15.7910   20.5450 H   0  0  0  0  0  0  0  0  0  0  0  0
  -26.7120  -15.5500   20.3420 H   0  0  0  0  0  0  0  0  0  0  0  0
  -27.9790  -20.5980   16.7900 C   0  0  0  0  0  2  0  0  0  0  0  0
  -29.0770  -20.1150   15.8330 C   0  0  0  0  0  2  0  0  0  0  0  0
  -28.0530  -19.6570   17.9950 C   0  0  0  0  0  2  0  0  0  0  0  0
  -29.8500  -19.0260   16.5920 C   0  0  0  0  0  2  0  0  0  0  0  0
  -29.5370  -19.2630   18.0840 C   0  0  0  0  0  3  0  0  0  0  0  0
  -30.3020  -23.3400   19.6420 C   0  0  0  0  0  3  0  0  0  0  0  0
  -28.1410  -23.0250   20.6520 C   0  0  0  0  0  3  0  0  0  0  0  0
  -30.6690  -22.0170   20.0050 C   0  0  0  0  0  3  0  0  0  0  0  0
  -28.5160  -21.6970   21.0300 C   0  0  0  0  0  3  0  0  0  0  0  0
  -29.0240  -23.8730   19.9360 C   0  0  0  0  0  0  0  0  0  0  0  0
  -29.7760  -21.1400   20.6750 C   0  0  0  0  0  0  0  0  0  0  0  0
  -28.5920  -25.2400   19.3050 C   0  0  0  0  0  2  0  0  0  0  0  0
  -28.4190  -26.4280   20.1440 O   0  0  0  0  0  0  0  0  0  0  0  0
  -24.5870  -31.7450   23.0790 C   0  0  0  0  0  0  0  0  0  0  0  0
  -27.2730  -27.2270   20.0520 C   0  0  0  0  0  0  0  0  0  0  0  0
  -23.4170  -30.3530   21.4100 C   0  0  0  0  0  3  0  0  0  0  0  0
  -24.8960  -28.8140   20.0090 C   0  0  0  0  0  0  0  0  0  0  0  0
  -25.9560  -30.6830   21.2760 C   0  0  0  0  0  2  0  0  0  0  0  0
  -26.0500  -29.3090   20.6290 C   0  0  0  0  0  0  0  0  0  0  0  0
  -27.2370  -28.5230   20.6470 C   0  0  0  0  0  3  0  0  0  0  0  0
  -26.0820  -26.7670   19.4390 C   0  0  0  0  0  3  0  0  0  0  0  0
  -24.9120  -27.5480   19.4090 C   0  0  0  0  0  3  0  0  0  0  0  0
  -23.6580  -29.6840   20.0310 C   0  0  0  0  0  2  0  0  0  0  0  0
  -24.6710  -30.9430   21.9800 N   0  0  0  0  0  0  0  0  0  0  0  0
  -23.4940  -32.0210   23.5930 O   0  0  0  0  0  0  0  0  0  0  0  0
  -22.7380  -29.3310   22.3510 C   0  0  0  0  0  0  0  0  0  0  0  0
  -21.4050  -29.1990   22.2400 N   0  0  0  0  0  0  0  0  0  0  0  0
  -23.4080  -28.6600   23.1410 O   0  0  0  0  0  0  0  0  0  0  0  0
  -20.9260  -29.7910   21.5750 H   0  0  0  0  0  0  0  0  0  0  0  0
  -17.9890  -28.1680   22.8230 C   0  0  0  0  0  0  0  0  0  0  0  0
  -20.5660  -28.2700   22.9970 C   0  0  0  0  0  3  0  0  0  0  0  0
  -20.5630  -26.8660   22.3490 C   0  0  0  0  0  2  0  0  0  0  0  0
  -19.4050  -26.6580   21.3680 C   0  0  0  0  0  2  0  0  0  0  0  0
  -18.0600  -26.8480   22.0750 C   0  0  0  0  0  2  0  0  0  0  0  0
  -19.1660  -28.8440   23.2420 C   0  0  0  0  0  0  0  0  0  0  0  0
  -19.0440  -30.0850   23.9040 C   0  0  0  0  0  3  0  0  0  0  0  0
  -17.7800  -30.6500   24.1500 C   0  0  0  0  0  3  0  0  0  0  0  0
  -16.6170  -29.9700   23.7460 C   0  0  0  0  0  3  0  0  0  0  0  0
  -16.7220  -28.7320   23.0880 C   0  0  0  0  0  3  0  0  0  0  0  0
  -25.8580  -32.3740   23.7310 C   0  0  0  0  0  3  0  0  0  0  0  0
  -26.3820  -31.5630   24.9790 C   0  0  1  0  0  0  0  0  0  0  0  0
  -25.2890  -31.2760   26.0350 C   0  0  0  0  0  1  0  0  0  0  0  0
  -26.9810  -30.2070   24.5400 C   0  0  0  0  0  1  0  0  0  0  0  0
  -27.5220  -32.3480   25.6700 C   0  0  0  0  0  1  0  0  0  0  0  0
  -25.5250  -33.7530   24.1110 N   0  0  0  0  0  0  0  0  0  0  0  0
  -25.8410  -34.8390   23.3920 C   0  0  0  0  0  0  0  0  0  0  0  0
  -26.5160  -34.7840   22.3600 O   0  0  0  0  0  0  0  0  0  0  0  0
  -24.9250  -33.8690   24.9150 H   0  0  0  0  0  0  0  0  0  0  0  0
  -24.1060  -36.6320   23.0760 C   0  0  0  0  0  1  0  0  0  0  0  0
  -25.3300  -36.2010   23.8990 C   0  0  0  0  0  3  0  0  0  0  0  0
  -27.4290  -37.0710   24.8310 C   0  0  0  0  0  1  0  0  0  0  0  0
  -26.3550  -37.2660   23.8600 N   0  0  0  0  0  0  0  0  0  0  0  0
  -25.9350  -38.1750   24.0290 H   0  0  0  0  0  0  0  0  0  0  0  0
  2  1  1  0
  3 10  2  0
  4  9  1  0
  5  6  1  0
  5  4  1  0
  7  6  1  0
  7 21  1  0
  7  8  1  0
  9  3  1  0
  9  8  1  0
 11 15  1  0
 13 16  1  0
 13 11  1  0
 14  2  1  0
 14 12  1  0
 15  3  1  0
 15 12  1  0
 16 17  1  6
 16 14  1  0
 18 19  2  0
 19 38  1  0
 19 20  1  0
 20 23  1  0
 21 18  1  0
 21 22  1  0
 22 20  2  0
 23 24  1  0
 24 25  2  0
 26 29  1  0
 26 25  1  0
 27 26  2  0
 28 27  1  0
 28 23  2  0
 29 30  1  0
 30 31  1  0
 31 32  2  0
 33 32  1  0
 33 37  1  0
 34 33  2  0
 35 30  2  0
 35 34  1  0
 36 35  1  0
 38 39  1  0
 39 42  1  0
 39 41  1  0
 40 38  2  0
 43 18  1  0
 44 43  1  0
 45 43  1  0
 46 48  1  0
 47 49  1  0
 47 46  1  0
 48 50  1  0
 49 50  1  0
 50 16  1  0
 51 55  2  0
 51 53  1  0
 52 54  2  0
 53 56  2  0
 55 52  1  0
 56 54  1  0
 56  2  1  0
 57 55  1  0
 57 58  1  0
 59 70  2  0
 60 58  1  0
 60 65  1  0
 61 69  1  0
 61 71  1  0
 62 68  1  0
 62 64  1  0
 63 69  1  0
 64 65  2  0
 64 63  1  0
 66 60  2  0
 67 66  1  0
 67 62  2  0
 68 61  1  0
 69 59  1  0
 71 73  2  0
 72 71  1  0
 74 72  1  0
 75 84  2  0
 75 80  1  0
 76 72  1  0
 76 80  1  0
 77 76  1  0
 78 79  1  0
 78 77  1  0
 79 75  1  0
 80 81  2  0
 81 82  1  0
 83 82  2  0
 84 83  1  0
 85 59  1  0
 85 90  1  0
 85 86  1  0
 86 89  1  1
 86 87  1  0
 88 86  1  0
 90 93  1  0
 91 95  1  0
 91 90  1  0
 92 91  2  0
 95 94  1  0
 97 95  1  0
 97 98  1  0
 97 96  1  0
M  ISO  4   3 100  15 100  57 101  58 101
M  END
>  <TORSDO>  (93) 
F 19

>  <SCORE>  (93) 
-13.346

>  <name>  (93) 
93

>  <ligand_id>  (93) 
93

>  <original_smiles>  (93) 
[H]c1c([H])c([H])c2c(c1[H])C([H])([H])C([H])([H])C([H])([H])C2([H])N([H])C(=O)C1([H])N(C(=O)C([H])(N([H])C(=O)C([H])(N([H])C([H])([H])[H])C([H])([H])[H])C(C([H])([H])[H])(C([H])([H])[H])C([H])([H])[H])C([H])([H])c2c([H])c(OC([H])([H])c3c([H])c([H])c(C([H])(C([H])([H])[H])C4([H])C([H])([H])N(C(=O)N5C([H])([H])C([H])([H])C([H])([H])C([H])(n6nc(-c7c([H])c([H])c(Oc8c([H])c([H])c(F)c([H])c8F)c([H])c7[H])c(C(=O)N([H])[H])c6N([H])[H])C5([H])[H])C([H])([H])C([H])([H])[N+]4([H])C4([H])C([H])([H])C([H])([H])C([H])([H])C4([H])[H])c([H])c3[H])c([H])c([H])c2C1([H])[H]

>  <smiles>  (93) 
[H]c1c([H])c([H])c2c(c1[H])C([H])([H])C([H])([H])C([H])([H])C2([H])N([H])C(=O)C1([H])N(C(=O)C([H])(N([H])C(=O)C([H])(N([H])C([H])([H])[H])C([H])([H])[H])C(C([H])([H])[H])(C([H])([H])[H])C([H])([H])[H])C([H])([H])c2c([H])c(OC([H])([H])c3c([H])c([H])c(C([H])(C([H])([H])[H])C4([H])C([H])([H])N(C(=O)N5C([H])([H])C([H])([H])C([H])([H])C([H])(n6nc(-c7c([H])c([H])c(Oc8c([H])c([H])c(F)c([H])c8F)c([H])c7[H])c(C(=O)N([H])[H])c6N([H])[H])C5([H])[H])C([H])([H])C([H])([H])[N+]4([H])C4([H])C([H])([H])C([H])([H])C([H])([H])C4([H])[H])c([H])c3[H])c([H])c([H])c2C1([H])[H]

$$$$
94:0:0
     RDKit          3D

 95104  0  0  1  0  0  0  0  0999 V2000
  -31.6270  -23.6140   20.4140 C   0  0  0  0  0  3  0  0  0  0  0  0
  -30.5610  -24.5400   20.4200 C   0  0  0  0  0  3  0  0  0  0  0  0
  -28.9960  -22.6920   20.1440 C   0  0  0  0  0  3  0  0  0  0  0  0
  -31.3840  -22.2310   20.2550 C   0  0  0  0  0  0  0  0  0  0  0  0
  -30.0590  -21.7410   20.1760 C   0  0  0  0  0  0  0  0  0  0  0  0
  -29.2370  -24.0990   20.2270 C   0  0  0  0  0  0  0  0  0  0  0  0
  -32.5360  -21.2510   20.0760 C   0  0  0  0  0  2  0  0  0  0  0  0
  -32.2730  -20.2030   18.9620 C   0  0  0  0  0  2  0  0  0  0  0  0
  -30.7760  -19.9870   18.6150 C   0  0  0  0  0  2  0  0  0  0  0  0
  -29.8470  -20.2410   19.8170 C   0  0  0  0  0  3  0  0  0  0  0  0
  -29.7520  -17.8840   20.7060 C   0  0  0  0  0  0  0  0  0  0  0  0
  -30.1270  -19.1860   20.8300 N   0  0  0  0  0  0  0  0  0  0  0  0
  -28.9320  -17.5200   19.8580 O   0  0  0  0  0  0  0  0  0  0  0  0
  -30.7350  -19.4280   21.5980 H   0  0  0  0  0  0  0  0  0  0  0  0
  -30.3660  -16.8150   21.6460 C   0  0  0  0  0  2  0  0  0  0  0  0
  -30.6370  -14.5030   20.5760 C   0  0  0  0  0  0  0  0  0  0  0  0
  -30.3790  -12.3540   19.3520 C   0  0  0  0  0  2  0  0  0  0  0  0
  -29.4320  -12.5390   18.1470 C   0  0  0  0  0  2  0  0  0  0  0  0
  -27.9570  -12.3910   18.5730 C   0  0  0  0  0  2  0  0  0  0  0  0
  -27.6180  -13.2280   19.8370 C   0  0  0  0  0  3  0  0  0  0  0  0
  -28.6620  -12.9720   20.9440 C   0  0  0  0  0  2  0  0  0  0  0  0
  -29.9860  -13.3180   20.3960 N   0  0  0  0  0  0  0  0  0  0  0  0
  -31.7260  -14.7510   20.0480 O   0  0  0  0  0  0  0  0  0  0  0  0
  -29.9830  -15.4170   21.3260 N   0  0  0  0  0  0  0  0  0  0  0  0
  -29.0870  -15.1270   21.6840 H   0  0  0  0  0  0  0  0  0  0  0  0
  -25.2190  -13.8580   20.5200 C   0  0  0  0  0  0  0  0  0  0  0  0
  -24.1420  -13.0950   20.8920 C   0  0  0  0  0  0  0  0  0  0  0  0
  -24.5950  -11.7420   20.8750 C   0  0  0  0  0  0  0  0  0  0  0  0
  -26.2590  -12.9680   20.3040 N   0  0  0  0  0  0  0  0  0  0  0  0
  -25.8850  -11.6910   20.5700 N   0  0  0  0  0  0  0  0  0  0  0  0
  -23.8610  -10.4840   21.0720 C   0  0  0  0  0  0  0  0  0  0  0  0
  -24.3020   -9.5060   21.9910 C   0  0  0  0  0  3  0  0  0  0  0  0
  -23.5660   -8.3170   22.1760 C   0  0  0  0  0  3  0  0  0  0  0  0
  -22.3770   -8.0960   21.4410 C   0  0  0  0  0  0  0  0  0  0  0  0
  -21.9560   -9.0630   20.5100 C   0  0  0  0  0  3  0  0  0  0  0  0
  -22.6930  -10.2450   20.3240 C   0  0  0  0  0  3  0  0  0  0  0  0
  -21.6140   -6.9570   21.5350 O   0  0  0  0  0  0  0  0  0  0  0  0
  -21.5950   -6.1920   22.6740 C   0  0  0  0  0  0  0  0  0  0  0  0
  -21.2430   -6.7340   23.9300 C   0  0  0  0  0  3  0  0  0  0  0  0
  -21.1730   -5.8970   25.0620 C   0  0  0  0  0  3  0  0  0  0  0  0
  -21.4470   -4.5220   24.9380 C   0  0  0  0  0  0  0  0  0  0  0  0
  -21.7940   -3.9810   23.6880 C   0  0  0  0  0  3  0  0  0  0  0  0
  -21.8660   -4.8140   22.5590 C   0  0  0  0  0  0  0  0  0  0  0  0
  -22.1810   -4.2850   21.3510 F   0  0  0  0  0  0  0  0  0  0  0  0
  -21.3700   -3.7160   26.0230 F   0  0  0  0  0  0  0  0  0  0  0  0
  -22.7490  -13.5880   21.1530 C   0  0  0  0  0  0  0  0  0  0  0  0
  -22.0150  -12.9050   22.0250 N   0  0  0  0  0  0  0  0  0  0  0  0
  -22.3190  -14.6100   20.6190 O   0  0  0  0  0  0  0  0  0  0  0  0
  -22.3790  -12.0800   22.4770 H   0  0  0  0  0  0  0  0  0  0  0  0
  -21.0800  -13.2160   22.2420 H   0  0  0  0  0  0  0  0  0  0  0  0
  -25.3940  -15.2230   20.3280 N   0  0  0  0  0  0  0  0  0  0  0  0
  -24.6220  -15.8770   20.3860 H   0  0  0  0  0  0  0  0  0  0  0  0
  -26.2460  -15.6500   19.9780 H   0  0  0  0  0  0  0  0  0  0  0  0
  -28.0860  -25.1040   19.9860 C   0  0  0  0  0  2  0  0  0  0  0  0
  -28.3250  -26.5390   20.1820 O   0  0  0  0  0  0  0  0  0  0  0  0
  -24.6290  -31.8790   23.2230 C   0  0  0  0  0  0  0  0  0  0  0  0
  -27.1930  -27.3580   20.1340 C   0  0  0  0  0  0  0  0  0  0  0  0
  -23.4000  -30.4890   21.5950 C   0  0  0  0  0  3  0  0  0  0  0  0
  -24.8260  -28.9440   20.1540 C   0  0  0  0  0  0  0  0  0  0  0  0
  -25.9330  -30.8110   21.3770 C   0  0  0  0  0  2  0  0  0  0  0  0
  -26.0000  -29.4380   20.7320 C   0  0  0  0  0  0  0  0  0  0  0  0
  -27.1870  -28.6570   20.7160 C   0  0  0  0  0  3  0  0  0  0  0  0
  -25.9900  -26.9060   19.5340 C   0  0  0  0  0  3  0  0  0  0  0  0
  -24.8210  -27.6830   19.5440 C   0  0  0  0  0  3  0  0  0  0  0  0
  -23.5940  -29.8160   20.2120 C   0  0  0  0  0  2  0  0  0  0  0  0
  -24.6740  -31.0740   22.1230 N   0  0  0  0  0  0  0  0  0  0  0  0
  -23.5530  -32.1590   23.7700 O   0  0  0  0  0  0  0  0  0  0  0  0
  -22.7440  -29.4710   22.5610 C   0  0  0  0  0  0  0  0  0  0  0  0
  -21.4180  -29.2980   22.4460 N   0  0  0  0  0  0  0  0  0  0  0  0
  -23.4280  -28.8420   23.3730 O   0  0  0  0  0  0  0  0  0  0  0  0
  -20.9230  -29.8570   21.7640 H   0  0  0  0  0  0  0  0  0  0  0  0
  -18.0430  -28.1110   22.9660 C   0  0  0  0  0  0  0  0  0  0  0  0
  -20.6030  -28.3660   23.2250 C   0  0  0  0  0  3  0  0  0  0  0  0
  -20.7010  -26.9310   22.6560 C   0  0  0  0  0  2  0  0  0  0  0  0
  -19.5950  -26.6060   21.6490 C   0  0  0  0  0  2  0  0  0  0  0  0
  -18.2160  -26.7580   22.2960 C   0  0  0  0  0  2  0  0  0  0  0  0
  -19.1660  -28.8730   23.3880 C   0  0  0  0  0  0  0  0  0  0  0  0
  -18.9510  -30.1410   23.9720 C   0  0  0  0  0  3  0  0  0  0  0  0
  -17.6480  -30.6450   24.1400 C   0  0  0  0  0  3  0  0  0  0  0  0
  -16.5400  -29.8810   23.7330 C   0  0  0  0  0  3  0  0  0  0  0  0
  -16.7390  -28.6160   23.1510 C   0  0  0  0  0  3  0  0  0  0  0  0
  -25.9220  -32.5050   23.8290 C   0  0  0  0  0  3  0  0  0  0  0  0
  -26.4600  -31.7180   25.0860 C   0  0  1  0  0  0  0  0  0  0  0  0
  -25.3850  -31.4720   26.1710 C   0  0  0  0  0  1  0  0  0  0  0  0
  -27.0330  -30.3430   24.6670 C   0  0  0  0  0  1  0  0  0  0  0  0
  -27.6210  -32.5030   25.7430 C   0  0  0  0  0  1  0  0  0  0  0  0
  -25.6150  -33.8980   24.1800 N   0  0  0  0  0  0  0  0  0  0  0  0
  -25.9230  -34.9600   23.4240 C   0  0  0  0  0  0  0  0  0  0  0  0
  -26.5680  -34.8710   22.3760 O   0  0  0  0  0  0  0  0  0  0  0  0
  -25.0400  -34.0420   24.9970 H   0  0  0  0  0  0  0  0  0  0  0  0
  -24.1740  -36.7460   23.1400 C   0  0  0  0  0  1  0  0  0  0  0  0
  -25.4420  -36.3410   23.9080 C   0  0  0  0  0  3  0  0  0  0  0  0
  -27.5960  -37.2330   24.6770 C   0  0  0  0  0  1  0  0  0  0  0  0
  -26.4630  -37.4020   23.7720 N   0  0  0  0  0  0  0  0  0  0  0  0
  -26.0530  -38.3170   23.9440 H   0  0  0  0  0  0  0  0  0  0  0  0
  1  2  1  0
  3  5  2  0
  3  6  1  0
  4  1  2  0
  5  4  1  0
  6  2  2  0
  7  4  1  0
  8  7  1  0
  9  8  1  0
  9 10  1  0
 10  5  1  0
 10 12  1  0
 11 12  1  0
 11 15  1  0
 12 14  1  0
 13 11  2  0
 16 24  1  0
 17 22  1  0
 18 19  1  0
 18 17  1  0
 20 19  1  0
 20 29  1  0
 20 21  1  0
 22 16  1  0
 22 21  1  0
 23 16  2  0
 24 15  1  0
 24 25  1  0
 26 27  2  0
 27 46  1  0
 28 27  1  0
 28 31  1  0
 29 26  1  0
 29 30  1  0
 30 28  2  0
 31 32  1  0
 32 33  2  0
 34 37  1  0
 34 33  1  0
 35 34  2  0
 36 35  1  0
 36 31  2  0
 37 38  1  0
 38 39  1  0
 39 40  2  0
 41 40  1  0
 41 45  1  0
 42 41  2  0
 43 38  2  0
 43 42  1  0
 44 43  1  0
 46 47  1  0
 47 50  1  0
 47 49  1  0
 48 46  2  0
 51 52  1  0
 51 26  1  0
 53 51  1  0
 54 55  1  0
 54  6  1  0
 56 67  2  0
 57 55  1  0
 57 62  1  0
 58 66  1  0
 58 68  1  0
 59 65  1  0
 59 61  1  0
 60 66  1  0
 61 60  1  0
 62 61  2  0
 63 64  1  0
 63 57  2  0
 64 59  2  0
 65 58  1  0
 66 56  1  0
 68 70  2  0
 69 68  1  0
 71 69  1  0
 72 81  2  0
 72 77  1  0
 73 69  1  0
 73 77  1  0
 74 73  1  0
 75 76  1  0
 75 74  1  0
 76 72  1  0
 77 78  2  0
 78 79  1  0
 80 79  2  0
 81 80  1  0
 82 56  1  0
 82 87  1  0
 82 83  1  0
 83 86  1  1
 83 84  1  0
 85 83  1  0
 87 90  1  0
 88 92  1  0
 88 87  1  0
 89 88  2  0
 92 91  1  0
 94 92  1  0
 94 95  1  0
 94 93  1  0
M  ISO  4  16 100  24 100  54 101  55 101
M  END
>  <TORSDO>  (94) 
F 19

>  <SCORE>  (94) 
-14.511

>  <name>  (94) 
94

>  <ligand_id>  (94) 
94

>  <original_smiles>  (94) 
[H]c1c([H])c([H])c2c(c1[H])C([H])([H])C([H])([H])C([H])([H])C2([H])N([H])C(=O)C1([H])N(C(=O)C([H])(N([H])C(=O)C([H])(N([H])C([H])([H])[H])C([H])([H])[H])C(C([H])([H])[H])(C([H])([H])[H])C([H])([H])[H])C([H])([H])c2c([H])c(OC([H])([H])c3c([H])c([H])c4c(c3[H])C([H])(N([H])C(=O)C([H])([H])N([H])C(=O)N3C([H])([H])C([H])([H])C([H])([H])C([H])(n5nc(-c6c([H])c([H])c(Oc7c([H])c([H])c(F)c([H])c7F)c([H])c6[H])c(C(=O)N([H])[H])c5N([H])[H])C3([H])[H])C([H])([H])C([H])([H])C4([H])[H])c([H])c([H])c2C1([H])[H]

>  <smiles>  (94) 
[H]c1c([H])c([H])c2c(c1[H])C([H])([H])C([H])([H])C([H])([H])C2([H])N([H])C(=O)C1([H])N(C(=O)C([H])(N([H])C(=O)C([H])(N([H])C([H])([H])[H])C([H])([H])[H])C(C([H])([H])[H])(C([H])([H])[H])C([H])([H])[H])C([H])([H])c2c([H])c(OC([H])([H])c3c([H])c([H])c4c(c3[H])C([H])(N([H])C(=O)C([H])([H])N([H])C(=O)N3C([H])([H])C([H])([H])C([H])([H])C([H])(n5nc(-c6c([H])c([H])c(Oc7c([H])c([H])c(F)c([H])c7F)c([H])c6[H])c(C(=O)N([H])[H])c5N([H])[H])C3([H])[H])C([H])([H])C([H])([H])C4([H])[H])c([H])c([H])c2C1([H])[H]

$$$$
95:0:0
     RDKit          3D

 95104  0  0  1  0  0  0  0  0999 V2000
  -30.4730  -22.7890   22.2830 C   0  0  0  0  0  2  0  0  0  0  0  0
  -29.6480  -23.7160   23.1930 C   0  0  0  0  0  2  0  0  0  0  0  0
  -29.8740  -22.9530   20.8780 C   0  0  0  0  0  3  0  0  0  0  0  0
  -29.3550  -24.4380   21.0160 C   0  0  0  0  0  3  0  0  0  0  0  0
  -28.6920  -24.3830   22.3120 N   0  0  0  0  0  0  0  0  0  0  0  0
  -28.4930  -25.3240   22.6440 H   0  0  0  0  0  0  0  0  0  0  0  0
  -28.8190  -21.9390   20.5500 N   0  0  0  0  0  4  0  0  0  0  0  0
  -28.7200  -21.8930   19.5490 H   0  0  0  0  0  0  0  0  0  0  0  0
  -27.9780  -22.3620   20.9120 H   0  0  0  0  0  0  0  0  0  0  0  0
  -28.8250  -20.5370   21.1160 C   0  0  0  0  0  2  0  0  0  0  0  0
  -29.8400  -19.0690   19.1540 C   0  0  0  0  0  2  0  0  0  0  0  0
  -30.2810  -17.5870   19.0920 C   0  0  0  0  0  2  0  0  0  0  0  0
  -29.8540  -18.1160   21.4000 C   0  0  0  0  0  2  0  0  0  0  0  0
  -29.9140  -19.4940   20.6400 C   0  0  0  0  0  3  0  0  0  0  0  0
  -29.6420  -16.9900   20.3480 C   0  0  0  0  0  3  0  0  0  0  0  0
  -30.6770  -14.5850   20.1620 C   0  0  0  0  0  0  0  0  0  0  0  0
  -30.4040  -12.3810   19.0490 C   0  0  0  0  0  2  0  0  0  0  0  0
  -29.4280  -12.5890   17.8690 C   0  0  0  0  0  2  0  0  0  0  0  0
  -27.9620  -12.4580   18.3330 C   0  0  0  0  0  2  0  0  0  0  0  0
  -27.6700  -13.2720   19.6230 C   0  0  0  0  0  3  0  0  0  0  0  0
  -28.7580  -13.0280   20.6940 C   0  0  0  0  0  2  0  0  0  0  0  0
  -30.0640  -13.3620   20.0970 N   0  0  0  0  0  0  0  0  0  0  0  0
  -31.7600  -14.8050   19.6070 O   0  0  0  0  0  0  0  0  0  0  0  0
  -29.9320  -15.5710   20.7330 N   0  0  0  0  0  0  0  0  0  0  0  0
  -29.1960  -15.1760   21.2990 H   0  0  0  0  0  0  0  0  0  0  0  0
  -25.2990  -13.8920   20.4080 C   0  0  0  0  0  0  0  0  0  0  0  0
  -24.2370  -13.1270   20.8080 C   0  0  0  0  0  0  0  0  0  0  0  0
  -24.6850  -11.7710   20.7510 C   0  0  0  0  0  0  0  0  0  0  0  0
  -26.3290  -13.0030   20.1370 N   0  0  0  0  0  0  0  0  0  0  0  0
  -25.9630  -11.7220   20.4000 N   0  0  0  0  0  0  0  0  0  0  0  0
  -23.9550  -10.5150   20.9590 C   0  0  0  0  0  0  0  0  0  0  0  0
  -24.4000   -9.5430   21.8840 C   0  0  0  0  0  3  0  0  0  0  0  0
  -23.6700   -8.3520   22.0790 C   0  0  0  0  0  3  0  0  0  0  0  0
  -22.4780   -8.1220   21.3520 C   0  0  0  0  0  0  0  0  0  0  0  0
  -22.0510   -9.0810   20.4150 C   0  0  0  0  0  3  0  0  0  0  0  0
  -22.7830  -10.2640   20.2170 C   0  0  0  0  0  3  0  0  0  0  0  0
  -21.7180   -6.9830   21.4570 O   0  0  0  0  0  0  0  0  0  0  0  0
  -21.6770   -6.2500   22.6160 C   0  0  0  0  0  0  0  0  0  0  0  0
  -21.2790   -6.8190   23.8450 C   0  0  0  0  0  3  0  0  0  0  0  0
  -21.1860   -6.0130   24.9970 C   0  0  0  0  0  3  0  0  0  0  0  0
  -21.4770   -4.6380   24.9190 C   0  0  0  0  0  0  0  0  0  0  0  0
  -21.8680   -4.0680   23.6960 C   0  0  0  0  0  3  0  0  0  0  0  0
  -21.9640   -4.8720   22.5460 C   0  0  0  0  0  0  0  0  0  0  0  0
  -22.3200   -4.3130   21.3640 F   0  0  0  0  0  0  0  0  0  0  0  0
  -21.3790   -3.8610   26.0240 F   0  0  0  0  0  0  0  0  0  0  0  0
  -22.8550  -13.6150   21.1340 C   0  0  0  0  0  0  0  0  0  0  0  0
  -22.1530  -12.9210   22.0210 N   0  0  0  0  0  0  0  0  0  0  0  0
  -22.4090  -14.6480   20.6350 O   0  0  0  0  0  0  0  0  0  0  0  0
  -22.5270  -12.0850   22.4470 H   0  0  0  0  0  0  0  0  0  0  0  0
  -21.2290  -13.2320   22.2840 H   0  0  0  0  0  0  0  0  0  0  0  0
  -25.4730  -15.2610   20.2340 N   0  0  0  0  0  0  0  0  0  0  0  0
  -24.7240  -15.9290   20.3790 H   0  0  0  0  0  0  0  0  0  0  0  0
  -26.3160  -15.6890   19.8730 H   0  0  0  0  0  0  0  0  0  0  0  0
  -28.4800  -25.1900   19.9480 C   0  0  0  0  0  2  0  0  0  0  0  0
  -28.4810  -26.6410   20.1570 O   0  0  0  0  0  0  0  0  0  0  0  0
  -24.5320  -31.7900   23.1540 C   0  0  0  0  0  0  0  0  0  0  0  0
  -27.3040  -27.3840   20.0810 C   0  0  0  0  0  0  0  0  0  0  0  0
  -23.3800  -30.3880   21.4760 C   0  0  0  0  0  3  0  0  0  0  0  0
  -24.8850  -28.8950   20.0460 C   0  0  0  0  0  0  0  0  0  0  0  0
  -25.9040  -30.7890   21.3180 C   0  0  0  0  0  2  0  0  0  0  0  0
  -26.0260  -29.4210   20.6640 C   0  0  0  0  0  0  0  0  0  0  0  0
  -27.2350  -28.6760   20.6730 C   0  0  0  0  0  3  0  0  0  0  0  0
  -26.1440  -26.8980   19.4320 C   0  0  0  0  0  3  0  0  0  0  0  0
  -24.9450  -27.6380   19.4200 C   0  0  0  0  0  3  0  0  0  0  0  0
  -23.6220  -29.7310   20.0890 C   0  0  0  0  0  2  0  0  0  0  0  0
  -24.6240  -31.0050   22.0420 N   0  0  0  0  0  0  0  0  0  0  0  0
  -23.4380  -32.0320   23.6830 O   0  0  0  0  0  0  0  0  0  0  0  0
  -22.7300  -29.3460   22.4150 C   0  0  0  0  0  0  0  0  0  0  0  0
  -21.4100  -29.1480   22.2710 N   0  0  0  0  0  0  0  0  0  0  0  0
  -23.4130  -28.7210   23.2310 O   0  0  0  0  0  0  0  0  0  0  0  0
  -20.9200  -29.7030   21.5830 H   0  0  0  0  0  0  0  0  0  0  0  0
  -18.0470  -27.8950   22.7130 C   0  0  0  0  0  0  0  0  0  0  0  0
  -20.5990  -28.1860   23.0170 C   0  0  0  0  0  3  0  0  0  0  0  0
  -20.7310  -26.7670   22.4170 C   0  0  0  0  0  2  0  0  0  0  0  0
  -19.6440  -26.4450   21.3880 C   0  0  0  0  0  2  0  0  0  0  0  0
  -18.2530  -26.5600   22.0160 C   0  0  0  0  0  2  0  0  0  0  0  0
  -19.1500  -28.6650   23.1690 C   0  0  0  0  0  0  0  0  0  0  0  0
  -18.9050  -29.9160   23.7770 C   0  0  0  0  0  3  0  0  0  0  0  0
  -17.5910  -30.3940   23.9390 C   0  0  0  0  0  3  0  0  0  0  0  0
  -16.5030  -29.6200   23.4990 C   0  0  0  0  0  3  0  0  0  0  0  0
  -16.7320  -28.3740   22.8920 C   0  0  0  0  0  3  0  0  0  0  0  0
  -25.7950  -32.4400   23.8040 C   0  0  0  0  0  3  0  0  0  0  0  0
  -26.3080  -31.6600   25.0760 C   0  0  1  0  0  0  0  0  0  0  0  0
  -25.2080  -31.3860   26.1280 C   0  0  0  0  0  1  0  0  0  0  0  0
  -26.9170  -30.2990   24.6670 C   0  0  0  0  0  1  0  0  0  0  0  0
  -27.4370  -32.4630   25.7660 C   0  0  0  0  0  1  0  0  0  0  0  0
  -25.4550  -33.8280   24.1510 N   0  0  0  0  0  0  0  0  0  0  0  0
  -25.7710  -34.8940   23.4050 C   0  0  0  0  0  0  0  0  0  0  0  0
  -26.4490  -34.8150   22.3770 O   0  0  0  0  0  0  0  0  0  0  0  0
  -24.8570  -33.9610   24.9530 H   0  0  0  0  0  0  0  0  0  0  0  0
  -24.0020  -36.6490   23.0630 C   0  0  0  0  0  1  0  0  0  0  0  0
  -25.2520  -36.2670   23.8730 C   0  0  0  0  0  3  0  0  0  0  0  0
  -27.3650  -37.1910   24.7130 C   0  0  0  0  0  1  0  0  0  0  0  0
  -26.2590  -37.3440   23.7710 N   0  0  0  0  0  0  0  0  0  0  0  0
  -25.8320  -38.2530   23.9290 H   0  0  0  0  0  0  0  0  0  0  0  0
  1  2  1  0
  3  7  1  0
  3  4  1  0
  3  1  1  0
  4 54  1  0
  4  5  1  0
  5  6  1  0
  5  2  1  0
  7  9  1  0
  7 10  1  0
  8  7  1  0
 11 14  1  0
 12 11  1  0
 12 15  1  0
 14 10  1  0
 14 13  1  0
 15 24  1  0
 15 13  1  0
 16 24  1  0
 17 22  1  0
 18 19  1  0
 18 17  1  0
 20 19  1  0
 20 29  1  0
 20 21  1  0
 22 16  1  0
 22 21  1  0
 23 16  2  0
 24 25  1  0
 26 27  2  0
 27 46  1  0
 28 27  1  0
 28 31  1  0
 29 30  1  0
 29 26  1  0
 30 28  2  0
 31 32  1  0
 32 33  2  0
 34 37  1  0
 34 33  1  0
 35 34  2  0
 36 35  1  0
 36 31  2  0
 37 38  1  0
 38 39  1  0
 39 40  2  0
 41 40  1  0
 41 45  1  0
 42 41  2  0
 43 38  2  0
 43 42  1  0
 44 43  1  0
 46 47  1  0
 47 50  1  0
 47 49  1  0
 48 46  2  0
 51 52  1  0
 51 26  1  0
 53 51  1  0
 54 55  1  0
 56 67  2  0
 57 55  1  0
 57 62  1  0
 58 66  1  0
 58 68  1  0
 59 65  1  0
 59 61  1  0
 60 66  1  0
 61 62  2  0
 61 60  1  0
 63 57  2  0
 64 63  1  0
 64 59  2  0
 65 58  1  0
 66 56  1  0
 68 70  2  0
 69 68  1  0
 71 69  1  0
 72 81  2  0
 72 77  1  0
 73 69  1  0
 73 77  1  0
 74 73  1  0
 75 76  1  0
 75 74  1  0
 76 72  1  0
 77 78  2  0
 78 79  1  0
 80 79  2  0
 81 80  1  0
 82 56  1  0
 82 87  1  0
 82 83  1  0
 83 86  1  1
 83 84  1  0
 85 83  1  0
 87 90  1  0
 88 92  1  0
 88 87  1  0
 89 88  2  0
 92 91  1  0
 94 92  1  0
 94 95  1  0
 94 93  1  0
M  ISO  4  16 100  24 100  54 101  55 101
M  END
>  <TORSDO>  (95) 
F 20

>  <SCORE>  (95) 
-13.823

>  <name>  (95) 
95

>  <ligand_id>  (95) 
95

>  <original_smiles>  (95) 
[H]c1c([H])c([H])c2c(c1[H])C([H])([H])C([H])([H])C([H])([H])C2([H])N([H])C(=O)C1([H])N(C(=O)C([H])(N([H])C(=O)C([H])(N([H])C([H])([H])[H])C([H])([H])[H])C(C([H])([H])[H])(C([H])([H])[H])C([H])([H])[H])C([H])([H])c2c([H])c(OC([H])([H])C3([H])N([H])C([H])([H])C([H])([H])C3([H])[N+]([H])([H])C([H])([H])C3([H])C([H])([H])C([H])([H])C([H])(N([H])C(=O)N4C([H])([H])C([H])([H])C([H])([H])C([H])(n5nc(-c6c([H])c([H])c(Oc7c([H])c([H])c(F)c([H])c7F)c([H])c6[H])c(C(=O)N([H])[H])c5N([H])[H])C4([H])[H])C3([H])[H])c([H])c([H])c2C1([H])[H]

>  <smiles>  (95) 
[H]c1c([H])c([H])c2c(c1[H])C([H])([H])C([H])([H])C([H])([H])C2([H])N([H])C(=O)C1([H])N(C(=O)C([H])(N([H])C(=O)C([H])(N([H])C([H])([H])[H])C([H])([H])[H])C(C([H])([H])[H])(C([H])([H])[H])C([H])([H])[H])C([H])([H])c2c([H])c(OC([H])([H])C3([H])N([H])C([H])([H])C([H])([H])C3([H])[N+]([H])([H])C([H])([H])C3([H])C([H])([H])C([H])([H])C([H])(N([H])C(=O)N4C([H])([H])C([H])([H])C([H])([H])C([H])(n5nc(-c6c([H])c([H])c(Oc7c([H])c([H])c(F)c([H])c7F)c([H])c6[H])c(C(=O)N([H])[H])c5N([H])[H])C4([H])[H])C3([H])[H])c([H])c([H])c2C1([H])[H]

$$$$
96:0:0
     RDKit          3D

 93102  0  0  1  0  0  0  0  0999 V2000
  -28.0370  -22.7360   19.2540 C   0  0  0  0  0  2  0  0  0  0  0  0
  -29.2320  -22.9420   21.4320 C   0  0  0  0  0  2  0  0  0  0  0  0
  -28.2260  -24.2710   19.0180 C   0  0  0  0  0  2  0  0  0  0  0  0
  -29.3410  -24.4890   21.2010 C   0  0  0  0  0  2  0  0  0  0  0  0
  -29.1290  -22.0610   20.1460 C   0  0  0  0  0  3  0  0  0  0  0  0
  -28.2000  -25.0890   20.3350 C   0  0  0  0  0  3  0  0  0  0  0  0
  -28.0810  -19.7080   19.4020 C   0  0  0  0  0  2  0  0  0  0  0  0
  -28.3300  -18.2420   19.8040 C   0  0  0  0  0  2  0  0  0  0  0  0
  -28.8620  -20.5110   20.4570 C   0  0  0  0  0  3  0  0  0  0  0  0
  -29.8040  -18.2360   20.2260 C   0  0  0  0  0  3  0  0  0  0  0  0
  -30.0540  -19.6350   20.7300 N   0  0  0  0  0  4  0  0  0  0  0  0
  -30.2430  -19.6290   21.7200 H   0  0  0  0  0  0  0  0  0  0  0  0
  -30.8690  -20.0010   20.2640 H   0  0  0  0  0  0  0  0  0  0  0  0
  -30.2610  -17.0620   21.1890 C   0  0  0  0  0  2  0  0  0  0  0  0
  -30.6290  -14.6010   20.4690 C   0  0  0  0  0  0  0  0  0  0  0  0
  -30.3990  -12.3890   19.3660 C   0  0  0  0  0  2  0  0  0  0  0  0
  -29.4590  -12.5280   18.1490 C   0  0  0  0  0  2  0  0  0  0  0  0
  -27.9850  -12.3730   18.5730 C   0  0  0  0  0  2  0  0  0  0  0  0
  -27.6240  -13.2360   19.8110 C   0  0  0  0  0  3  0  0  0  0  0  0
  -28.6750  -13.0680   20.9300 C   0  0  0  0  0  2  0  0  0  0  0  0
  -29.9890  -13.3990   20.3560 N   0  0  0  0  0  0  0  0  0  0  0  0
  -31.7960  -14.7590   20.0990 O   0  0  0  0  0  0  0  0  0  0  0  0
  -29.8620  -15.6580   20.8540 N   0  0  0  0  0  0  0  0  0  0  0  0
  -28.9030  -15.4210   21.0610 H   0  0  0  0  0  0  0  0  0  0  0  0
  -25.2250  -13.8410   20.5080 C   0  0  0  0  0  0  0  0  0  0  0  0
  -24.1560  -13.0690   20.8750 C   0  0  0  0  0  0  0  0  0  0  0  0
  -24.6180  -11.7190   20.8550 C   0  0  0  0  0  0  0  0  0  0  0  0
  -26.2710  -12.9590   20.2870 N   0  0  0  0  0  0  0  0  0  0  0  0
  -25.9110  -11.6790   20.5570 N   0  0  0  0  0  0  0  0  0  0  0  0
  -23.8900  -10.4570   21.0470 C   0  0  0  0  0  0  0  0  0  0  0  0
  -24.3240   -9.4900   21.9800 C   0  0  0  0  0  3  0  0  0  0  0  0
  -23.5980   -8.2920   22.1590 C   0  0  0  0  0  3  0  0  0  0  0  0
  -22.4240   -8.0550   21.4050 C   0  0  0  0  0  0  0  0  0  0  0  0
  -22.0110   -9.0110   20.4600 C   0  0  0  0  0  3  0  0  0  0  0  0
  -22.7380  -10.1990   20.2800 C   0  0  0  0  0  3  0  0  0  0  0  0
  -21.6700   -6.9100   21.4930 O   0  0  0  0  0  0  0  0  0  0  0  0
  -21.6270   -6.1640   22.6430 C   0  0  0  0  0  0  0  0  0  0  0  0
  -21.2140   -6.7160   23.8760 C   0  0  0  0  0  3  0  0  0  0  0  0
  -21.1180   -5.8960   25.0170 C   0  0  0  0  0  3  0  0  0  0  0  0
  -21.4250   -4.5240   24.9280 C   0  0  0  0  0  0  0  0  0  0  0  0
  -21.8300   -3.9720   23.7000 C   0  0  0  0  0  3  0  0  0  0  0  0
  -21.9280   -4.7890   22.5610 C   0  0  0  0  0  0  0  0  0  0  0  0
  -22.2990   -4.2470   21.3760 F   0  0  0  0  0  0  0  0  0  0  0  0
  -21.3240   -3.7350   26.0230 F   0  0  0  0  0  0  0  0  0  0  0  0
  -22.7550  -13.5480   21.1310 C   0  0  0  0  0  0  0  0  0  0  0  0
  -22.0200  -12.8550   21.9930 N   0  0  0  0  0  0  0  0  0  0  0  0
  -22.3220  -14.5700   20.6020 O   0  0  0  0  0  0  0  0  0  0  0  0
  -22.3820  -12.0290   22.4450 H   0  0  0  0  0  0  0  0  0  0  0  0
  -21.0790  -13.1570   22.2080 H   0  0  0  0  0  0  0  0  0  0  0  0
  -25.3890  -15.2100   20.3220 N   0  0  0  0  0  0  0  0  0  0  0  0
  -24.6150  -15.8580   20.4150 H   0  0  0  0  0  0  0  0  0  0  0  0
  -26.2260  -15.6450   19.9560 H   0  0  0  0  0  0  0  0  0  0  0  0
  -28.3410  -26.5480   20.1860 O   0  0  0  0  0  0  0  0  0  0  0  0
  -24.6020  -31.8900   23.2340 C   0  0  0  0  0  0  0  0  0  0  0  0
  -27.1930  -27.3470   20.1710 C   0  0  0  0  0  0  0  0  0  0  0  0
  -23.3830  -30.4900   21.6060 C   0  0  0  0  0  3  0  0  0  0  0  0
  -24.8200  -28.9340   20.1780 C   0  0  0  0  0  0  0  0  0  0  0  0
  -25.9190  -30.8130   21.3990 C   0  0  0  0  0  2  0  0  0  0  0  0
  -25.9930  -29.4350   20.7580 C   0  0  0  0  0  0  0  0  0  0  0  0
  -27.1840  -28.6550   20.7380 C   0  0  0  0  0  3  0  0  0  0  0  0
  -25.9920  -26.8820   19.5890 C   0  0  0  0  0  3  0  0  0  0  0  0
  -24.8190  -27.6610   19.5870 C   0  0  0  0  0  3  0  0  0  0  0  0
  -23.5860  -29.8080   20.2270 C   0  0  0  0  0  2  0  0  0  0  0  0
  -24.6540  -31.0810   22.1380 N   0  0  0  0  0  0  0  0  0  0  0  0
  -23.5230  -32.1710   23.7760 O   0  0  0  0  0  0  0  0  0  0  0  0
  -22.7260  -29.4760   22.5720 C   0  0  0  0  0  0  0  0  0  0  0  0
  -21.4000  -29.3020   22.4520 N   0  0  0  0  0  0  0  0  0  0  0  0
  -23.4090  -28.8510   23.3890 O   0  0  0  0  0  0  0  0  0  0  0  0
  -20.9100  -29.8590   21.7660 H   0  0  0  0  0  0  0  0  0  0  0  0
  -18.0210  -28.1180   22.9670 C   0  0  0  0  0  0  0  0  0  0  0  0
  -20.5810  -28.3700   23.2290 C   0  0  0  0  0  3  0  0  0  0  0  0
  -20.6770  -26.9360   22.6600 C   0  0  0  0  0  2  0  0  0  0  0  0
  -19.5710  -26.6130   21.6510 C   0  0  0  0  0  2  0  0  0  0  0  0
  -18.1920  -26.7650   22.2970 C   0  0  0  0  0  2  0  0  0  0  0  0
  -19.1440  -28.8790   23.3900 C   0  0  0  0  0  0  0  0  0  0  0  0
  -18.9300  -30.1460   23.9760 C   0  0  0  0  0  3  0  0  0  0  0  0
  -17.6270  -30.6520   24.1420 C   0  0  0  0  0  3  0  0  0  0  0  0
  -16.5200  -29.8880   23.7350 C   0  0  0  0  0  3  0  0  0  0  0  0
  -16.7170  -28.6230   23.1530 C   0  0  0  0  0  3  0  0  0  0  0  0
  -25.8920  -32.5190   23.8480 C   0  0  0  0  0  3  0  0  0  0  0  0
  -25.5860  -33.9160   24.1860 N   0  0  0  0  0  0  0  0  0  0  0  0
  -25.9110  -34.9710   23.4280 C   0  0  0  0  0  0  0  0  0  0  0  0
  -26.5700  -34.8700   22.3900 O   0  0  0  0  0  0  0  0  0  0  0  0
  -25.0010  -34.0670   24.9950 H   0  0  0  0  0  0  0  0  0  0  0  0
  -24.1810  -36.7670   23.0950 C   0  0  0  0  0  1  0  0  0  0  0  0
  -25.4280  -36.3580   23.8950 C   0  0  0  0  0  3  0  0  0  0  0  0
  -27.5710  -37.2360   24.7110 C   0  0  0  0  0  1  0  0  0  0  0  0
  -26.4610  -37.4100   23.7780 N   0  0  0  0  0  0  0  0  0  0  0  0
  -26.0580  -38.3300   23.9330 H   0  0  0  0  0  0  0  0  0  0  0  0
  -26.4180  -31.7410   25.1160 C   0  0  1  0  0  0  0  0  0  0  0  0
  -25.3350  -31.5010   26.1940 C   0  0  0  0  0  1  0  0  0  0  0  0
  -26.9950  -30.3650   24.7130 C   0  0  0  0  0  1  0  0  0  0  0  0
  -27.5770  -32.5310   25.7710 C   0  0  0  0  0  1  0  0  0  0  0  0
  3  1  1  0
  3  6  1  0
  4  2  1  0
  5  1  1  0
  5  9  1  0
  5  2  1  0
  6 53  1  0
  6  4  1  0
  7  8  1  0
  8 10  1  0
  9  7  1  0
  9 11  1  0
 10 11  1  0
 10 14  1  0
 11 12  1  0
 13 11  1  0
 15 23  1  0
 16 21  1  0
 17 18  1  0
 17 16  1  0
 19 18  1  0
 19 28  1  0
 19 20  1  0
 21 15  1  0
 21 20  1  0
 22 15  2  0
 23 24  1  0
 23 14  1  0
 25 26  2  0
 26 45  1  0
 27 26  1  0
 27 30  1  0
 28 25  1  0
 28 29  1  0
 29 27  2  0
 30 31  1  0
 31 32  2  0
 33 36  1  0
 33 32  1  0
 34 33  2  0
 35 34  1  0
 35 30  2  0
 36 37  1  0
 37 38  1  0
 38 39  2  0
 40 39  1  0
 40 44  1  0
 41 40  2  0
 42 37  2  0
 42 41  1  0
 43 42  1  0
 45 46  1  0
 46 49  1  0
 46 48  1  0
 47 45  2  0
 50 51  1  0
 50 25  1  0
 52 50  1  0
 54 65  2  0
 55 53  1  0
 55 60  1  0
 56 64  1  0
 56 66  1  0
 57 63  1  0
 57 59  1  0
 58 64  1  0
 59 58  1  0
 60 59  2  0
 61 55  2  0
 62 61  1  0
 62 57  2  0
 63 56  1  0
 64 54  1  0
 66 68  2  0
 67 66  1  0
 69 67  1  0
 70 79  2  0
 70 75  1  0
 71 67  1  0
 71 75  1  0
 72 71  1  0
 73 74  1  0
 73 72  1  0
 74 70  1  0
 75 76  2  0
 76 77  1  0
 78 77  2  0
 79 78  1  0
 80 54  1  0
 80 81  1  0
 80 90  1  0
 81 84  1  0
 82 86  1  0
 82 81  1  0
 83 82  2  0
 86 85  1  0
 88 86  1  0
 88 89  1  0
 88 87  1  0
 90 93  1  1
 90 91  1  0
 92 90  1  0
M  ISO  4   6 101  15 100  23 100  53 101
M  END
>  <TORSDO>  (96) 
F 18

>  <SCORE>  (96) 
-14.902

>  <name>  (96) 
96

>  <ligand_id>  (96) 
96

>  <original_smiles>  (96) 
[H]c1c([H])c([H])c2c(c1[H])C([H])([H])C([H])([H])C([H])([H])C2([H])N([H])C(=O)C1([H])N(C(=O)C([H])(N([H])C(=O)C([H])(N([H])C([H])([H])[H])C([H])([H])[H])C(C([H])([H])[H])(C([H])([H])[H])C([H])([H])[H])C([H])([H])c2c([H])c(OC3([H])C([H])([H])C([H])([H])C([H])(C4([H])C([H])([H])C([H])([H])C([H])(C([H])([H])N([H])C(=O)N5C([H])([H])C([H])([H])C([H])([H])C([H])(n6nc(-c7c([H])c([H])c(Oc8c([H])c([H])c(F)c([H])c8F)c([H])c7[H])c(C(=O)N([H])[H])c6N([H])[H])C5([H])[H])[N+]4([H])[H])C([H])([H])C3([H])[H])c([H])c([H])c2C1([H])[H]

>  <smiles>  (96) 
[H]c1c([H])c([H])c2c(c1[H])C([H])([H])C([H])([H])C([H])([H])C2([H])N([H])C(=O)C1([H])N(C(=O)C([H])(N([H])C(=O)C([H])(N([H])C([H])([H])[H])C([H])([H])[H])C(C([H])([H])[H])(C([H])([H])[H])C([H])([H])[H])C([H])([H])c2c([H])c(OC3([H])C([H])([H])C([H])([H])C([H])(C4([H])C([H])([H])C([H])([H])C([H])(C([H])([H])N([H])C(=O)N5C([H])([H])C([H])([H])C([H])([H])C([H])(n6nc(-c7c([H])c([H])c(Oc8c([H])c([H])c(F)c([H])c8F)c([H])c7[H])c(C(=O)N([H])[H])c6N([H])[H])C5([H])[H])[N+]4([H])[H])C([H])([H])C3([H])[H])c([H])c([H])c2C1([H])[H]

$$$$
97:0:0
     RDKit          3D

 93102  0  0  1  0  0  0  0  0999 V2000
  -29.4530  -23.3060   21.4940 C   0  0  0  0  0  3  0  0  0  0  0  0
  -29.2170  -24.0860   19.2190 C   0  0  0  0  0  3  0  0  0  0  0  0
  -29.5220  -21.9640   21.0410 C   0  0  0  0  0  3  0  0  0  0  0  0
  -29.2780  -22.7380   18.7660 C   0  0  0  0  0  3  0  0  0  0  0  0
  -29.2610  -24.3930   20.6020 C   0  0  0  0  0  0  0  0  0  0  0  0
  -29.3850  -21.6480   19.6720 C   0  0  0  0  0  0  0  0  0  0  0  0
  -28.9660  -25.8010   21.1960 C   0  0  0  0  0  2  0  0  0  0  0  0
  -28.9680  -26.9660   20.3330 O   0  0  0  0  0  0  0  0  0  0  0  0
  -24.6510  -31.9020   23.2930 C   0  0  0  0  0  0  0  0  0  0  0  0
  -27.7900  -27.6950   20.3100 C   0  0  0  0  0  0  0  0  0  0  0  0
  -23.6580  -30.4640   21.5430 C   0  0  0  0  0  3  0  0  0  0  0  0
  -25.3110  -29.0680   20.1850 C   0  0  0  0  0  0  0  0  0  0  0  0
  -26.1640  -30.9940   21.5240 C   0  0  0  0  0  2  0  0  0  0  0  0
  -26.3900  -29.6440   20.8680 C   0  0  0  0  0  0  0  0  0  0  0  0
  -27.6370  -28.9640   20.9270 C   0  0  0  0  0  3  0  0  0  0  0  0
  -26.6930  -27.1490   19.6160 C   0  0  0  0  0  3  0  0  0  0  0  0
  -25.4590  -27.8210   19.5550 C   0  0  0  0  0  3  0  0  0  0  0  0
  -24.0070  -29.8380   20.1650 C   0  0  0  0  0  2  0  0  0  0  0  0
  -24.8380  -31.1370   22.1790 N   0  0  0  0  0  0  0  0  0  0  0  0
  -23.5200  -32.0820   23.7660 O   0  0  0  0  0  0  0  0  0  0  0  0
  -23.0210  -29.3750   22.4370 C   0  0  0  0  0  0  0  0  0  0  0  0
  -21.7130  -29.1270   22.2470 N   0  0  0  0  0  0  0  0  0  0  0  0
  -23.7010  -28.7560   23.2610 O   0  0  0  0  0  0  0  0  0  0  0  0
  -21.2220  -29.6850   21.5630 H   0  0  0  0  0  0  0  0  0  0  0  0
  -18.3830  -27.7690   22.5940 C   0  0  0  0  0  0  0  0  0  0  0  0
  -20.9210  -28.1150   22.9470 C   0  0  0  0  0  3  0  0  0  0  0  0
  -21.0960  -26.7210   22.3020 C   0  0  0  0  0  2  0  0  0  0  0  0
  -20.0350  -26.4080   21.2420 C   0  0  0  0  0  2  0  0  0  0  0  0
  -18.6300  -26.4650   21.8520 C   0  0  0  0  0  2  0  0  0  0  0  0
  -19.4580  -28.5500   23.0950 C   0  0  0  0  0  0  0  0  0  0  0  0
  -19.1740  -29.7720   23.7430 C   0  0  0  0  0  3  0  0  0  0  0  0
  -17.8450  -30.2130   23.9000 C   0  0  0  0  0  3  0  0  0  0  0  0
  -16.7840  -29.4260   23.4180 C   0  0  0  0  0  3  0  0  0  0  0  0
  -17.0530  -28.2070   22.7700 C   0  0  0  0  0  3  0  0  0  0  0  0
  -25.8450  -32.6080   24.0070 C   0  0  0  0  0  3  0  0  0  0  0  0
  -26.2840  -31.8900   25.3410 C   0  0  1  0  0  0  0  0  0  0  0  0
  -25.1090  -31.5940   26.3020 C   0  0  0  0  0  1  0  0  0  0  0  0
  -26.9910  -30.5490   25.0340 C   0  0  0  0  0  1  0  0  0  0  0  0
  -27.3090  -32.7660   26.0960 C   0  0  0  0  0  1  0  0  0  0  0  0
  -25.4420  -33.9960   24.2740 N   0  0  0  0  0  0  0  0  0  0  0  0
  -25.7780  -35.0450   23.5120 C   0  0  0  0  0  0  0  0  0  0  0  0
  -26.5300  -34.9520   22.5390 O   0  0  0  0  0  0  0  0  0  0  0  0
  -24.7890  -34.1430   25.0290 H   0  0  0  0  0  0  0  0  0  0  0  0
  -23.9920  -36.7340   22.9780 C   0  0  0  0  0  1  0  0  0  0  0  0
  -25.1870  -36.4160   23.8910 C   0  0  0  0  0  3  0  0  0  0  0  0
  -27.2110  -37.4310   24.8420 C   0  0  0  0  0  1  0  0  0  0  0  0
  -26.1670  -37.5200   23.8260 N   0  0  0  0  0  0  0  0  0  0  0  0
  -25.7020  -38.4180   23.9250 H   0  0  0  0  0  0  0  0  0  0  0  0
  -29.1230  -20.1820   19.2050 C   0  0  0  0  0  3  0  0  0  0  0  0
  -31.8970  -15.0290   20.2020 C   0  0  0  0  0  0  0  0  0  0  0  0
  -31.6250  -12.6310   19.6750 C   0  0  0  0  0  2  0  0  0  0  0  0
  -30.7880  -12.5060   18.3850 C   0  0  0  0  0  2  0  0  0  0  0  0
  -29.2840  -12.4870   18.7230 C   0  0  0  0  0  2  0  0  0  0  0  0
  -28.8700  -13.6290   19.6910 C   0  0  0  0  0  3  0  0  0  0  0  0
  -29.8380  -13.7380   20.8870 C   0  0  0  0  0  2  0  0  0  0  0  0
  -31.1970  -13.8690   20.3510 N   0  0  0  0  0  0  0  0  0  0  0  0
  -33.1010  -15.0190   19.9160 O   0  0  0  0  0  0  0  0  0  0  0  0
  -30.3100  -17.9910   18.4260 C   0  0  0  0  0  2  0  0  0  0  0  0
  -30.0610  -18.2870   20.8550 C   0  0  0  0  0  2  0  0  0  0  0  0
  -31.3450  -16.8650   18.7090 C   0  0  0  0  0  2  0  0  0  0  0  0
  -31.1360  -17.1840   21.0830 C   0  0  0  0  0  2  0  0  0  0  0  0
  -30.2320  -19.0810   19.5230 C   0  0  0  0  0  3  0  0  0  0  0  0
  -31.1660  -16.1730   20.0080 N   0  0  0  0  0  0  0  0  0  0  0  0
  -26.5330  -14.4690   20.3450 C   0  0  0  0  0  0  0  0  0  0  0  0
  -25.3770  -13.8090   20.6620 C   0  0  0  0  0  0  0  0  0  0  0  0
  -25.6930  -12.4150   20.6200 C   0  0  0  0  0  0  0  0  0  0  0  0
  -27.4850  -13.4860   20.1290 N   0  0  0  0  0  0  0  0  0  0  0  0
  -26.9820  -12.2440   20.3550 N   0  0  0  0  0  0  0  0  0  0  0  0
  -24.8300  -11.2340   20.7610 C   0  0  0  0  0  0  0  0  0  0  0  0
  -25.1200  -10.2130   21.6930 C   0  0  0  0  0  3  0  0  0  0  0  0
  -24.2620   -9.0980   21.8210 C   0  0  0  0  0  3  0  0  0  0  0  0
  -23.1030   -8.9980   21.0170 C   0  0  0  0  0  0  0  0  0  0  0  0
  -22.8310  -10.0070   20.0760 C   0  0  0  0  0  3  0  0  0  0  0  0
  -23.6870  -11.1130   19.9470 C   0  0  0  0  0  3  0  0  0  0  0  0
  -22.2250   -7.9420   21.0570 O   0  0  0  0  0  0  0  0  0  0  0  0
  -22.0040   -7.2350   22.2110 C   0  0  0  0  0  0  0  0  0  0  0  0
  -21.5580   -7.8600   23.3950 C   0  0  0  0  0  3  0  0  0  0  0  0
  -21.2740   -7.0860   24.5380 C   0  0  0  0  0  3  0  0  0  0  0  0
  -21.4270   -5.6860   24.4960 C   0  0  0  0  0  0  0  0  0  0  0  0
  -21.8640   -5.0620   23.3150 C   0  0  0  0  0  3  0  0  0  0  0  0
  -22.1470   -5.8350   22.1750 C   0  0  0  0  0  0  0  0  0  0  0  0
  -22.5490   -5.2250   21.0330 F   0  0  0  0  0  0  0  0  0  0  0  0
  -21.1510   -4.9410   25.5910 F   0  0  0  0  0  0  0  0  0  0  0  0
  -24.0300  -14.4280   20.9010 C   0  0  0  0  0  0  0  0  0  0  0  0
  -23.2080  -13.8080   21.7430 N   0  0  0  0  0  0  0  0  0  0  0  0
  -23.7150  -15.4950   20.3750 O   0  0  0  0  0  0  0  0  0  0  0  0
  -23.4700  -12.9390   22.1860 H   0  0  0  0  0  0  0  0  0  0  0  0
  -22.3020  -14.2030   21.9450 H   0  0  0  0  0  0  0  0  0  0  0  0
  -26.8530  -15.8160   20.2040 N   0  0  0  0  0  0  0  0  0  0  0  0
  -26.1680  -16.5570   20.3040 H   0  0  0  0  0  0  0  0  0  0  0  0
  -27.7750  -16.1560   19.9540 H   0  0  0  0  0  0  0  0  0  0  0  0
  -26.5840  -20.8000   19.3020 C   0  0  0  0  0  1  0  0  0  0  0  0
  -27.6820  -19.7710   19.6310 C   0  0  0  0  0  2  0  0  0  0  0  0
  2  5  1  0
  3  1  1  0
  4  2  2  0
  4  6  1  0
  5  7  1  0
  5  1  2  0
  6  3  2  0
  8  7  1  0
  9 20  2  0
 10  8  1  0
 10 15  1  0
 11 19  1  0
 11 21  1  0
 12 14  1  0
 13 19  1  0
 14 15  2  0
 14 13  1  0
 16 10  2  0
 17 16  1  0
 17 12  2  0
 18 12  1  0
 18 11  1  0
 19  9  1  0
 21 23  2  0
 22 21  1  0
 24 22  1  0
 25 34  2  0
 25 30  1  0
 26 22  1  0
 26 30  1  0
 27 26  1  0
 28 29  1  0
 28 27  1  0
 29 25  1  0
 30 31  2  0
 31 32  1  0
 33 32  2  0
 34 33  1  0
 35  9  1  0
 35 40  1  0
 35 36  1  0
 36 39  1  1
 36 37  1  0
 38 36  1  0
 40 43  1  0
 41 45  1  0
 41 40  1  0
 42 41  2  0
 45 44  1  0
 47 45  1  0
 47 48  1  0
 47 46  1  0
 49 93  1  0
 49  6  1  0
 50 56  1  0
 51 56  1  0
 52 53  1  0
 52 51  1  0
 54 53  1  0
 54 67  1  0
 54 55  1  0
 56 55  1  0
 57 50  2  0
 58 60  1  0
 58 62  1  0
 59 61  1  0
 60 63  1  0
 62 49  1  0
 62 59  1  0
 63 50  1  0
 63 61  1  0
 64 65  2  0
 65 84  1  0
 66 65  1  0
 66 69  1  0
 67 64  1  0
 67 68  1  0
 68 66  2  0
 69 70  1  0
 70 71  2  0
 72 75  1  0
 72 71  1  0
 73 72  2  0
 74 73  1  0
 74 69  2  0
 75 76  1  0
 76 77  1  0
 77 78  2  0
 79 78  1  0
 79 83  1  0
 80 79  2  0
 81 76  2  0
 81 80  1  0
 82 81  1  0
 84 85  1  0
 85 88  1  0
 85 87  1  0
 86 84  2  0
 89 90  1  0
 89 64  1  0
 91 89  1  0
 92 93  1  0
M  ISO  4   7 101   8 101  50 100  63 100
M  END
>  <TORSDO>  (97) 
F 19

>  <SCORE>  (97) 
-12.257

>  <name>  (97) 
97

>  <ligand_id>  (97) 
97

>  <original_smiles>  (97) 
[H]c1c([H])c([H])c2c(c1[H])C([H])([H])C([H])([H])C([H])([H])C2([H])N([H])C(=O)C1([H])N(C(=O)C([H])(N([H])C(=O)C([H])(N([H])C([H])([H])[H])C([H])([H])[H])C(C([H])([H])[H])(C([H])([H])[H])C([H])([H])[H])C([H])([H])c2c([H])c(OC([H])([H])c3c([H])c([H])c(C([H])(C([H])([H])C([H])([H])[H])C4([H])C([H])([H])C([H])([H])N(C(=O)N5C([H])([H])C([H])([H])C([H])([H])C([H])(n6nc(-c7c([H])c([H])c(Oc8c([H])c([H])c(F)c([H])c8F)c([H])c7[H])c(C(=O)N([H])[H])c6N([H])[H])C5([H])[H])C([H])([H])C4([H])[H])c([H])c3[H])c([H])c([H])c2C1([H])[H]

>  <smiles>  (97) 
[H]c1c([H])c([H])c2c(c1[H])C([H])([H])C([H])([H])C([H])([H])C2([H])N([H])C(=O)C1([H])N(C(=O)C([H])(N([H])C(=O)C([H])(N([H])C([H])([H])[H])C([H])([H])[H])C(C([H])([H])[H])(C([H])([H])[H])C([H])([H])[H])C([H])([H])c2c([H])c(OC([H])([H])c3c([H])c([H])c(C([H])(C([H])([H])C([H])([H])[H])C4([H])C([H])([H])C([H])([H])N(C(=O)N5C([H])([H])C([H])([H])C([H])([H])C([H])(n6nc(-c7c([H])c([H])c(Oc8c([H])c([H])c(F)c([H])c8F)c([H])c7[H])c(C(=O)N([H])[H])c6N([H])[H])C5([H])[H])C([H])([H])C4([H])[H])c([H])c3[H])c([H])c([H])c2C1([H])[H]

$$$$
98:0:0
     RDKit          3D

 92100  0  0  1  0  0  0  0  0999 V2000
  -30.5280  -19.4890   21.3860 C   0  0  0  0  0  3  0  0  0  0  0  0
  -30.2170  -20.8520   21.6280 C   0  0  0  0  0  3  0  0  0  0  0  0
  -28.7650  -20.8740   19.7170 C   0  0  0  0  0  3  0  0  0  0  0  0
  -29.9710  -18.7680   20.3020 C   0  0  0  0  0  0  0  0  0  0  0  0
  -29.0380  -19.4840   19.4820 C   0  0  0  0  0  0  0  0  0  0  0  0
  -29.3530  -21.5930   20.7880 C   0  0  0  0  0  0  0  0  0  0  0  0
  -28.8950  -19.2850   16.9650 C   0  0  0  0  0  1  0  0  0  0  0  0
  -26.8030  -18.9680   18.3740 C   0  0  0  0  0  1  0  0  0  0  0  0
  -28.3310  -18.8010   18.3080 C   0  0  0  0  0  3  0  0  0  0  0  0
  -30.5460  -17.3420   19.9590 C   0  0  0  0  0  2  0  0  0  0  0  0
  -30.4040  -16.1980   22.2660 C   0  0  0  0  0  1  0  0  0  0  0  0
  -30.1310  -16.0300   20.7610 C   0  0  0  0  0  3  0  0  0  0  0  0
  -30.8370  -14.7130   20.2260 C   0  0  0  0  0  0  0  0  0  0  0  0
  -30.5440  -12.5320   19.0690 C   0  0  0  0  0  2  0  0  0  0  0  0
  -29.5770  -12.7290   17.8810 C   0  0  0  0  0  2  0  0  0  0  0  0
  -28.1150  -12.5640   18.3390 C   0  0  0  0  0  2  0  0  0  0  0  0
  -27.7950  -13.3830   19.6170 C   0  0  0  0  0  3  0  0  0  0  0  0
  -28.8780  -13.1880   20.6990 C   0  0  0  0  0  2  0  0  0  0  0  0
  -30.1790  -13.5190   20.1050 N   0  0  0  0  0  0  0  0  0  0  0  0
  -31.9840  -14.8290   19.7850 O   0  0  0  0  0  0  0  0  0  0  0  0
  -25.4140  -13.9640   20.3840 C   0  0  0  0  0  0  0  0  0  0  0  0
  -24.3590  -13.1810   20.7710 C   0  0  0  0  0  0  0  0  0  0  0  0
  -24.8310  -11.8340   20.7300 C   0  0  0  0  0  0  0  0  0  0  0  0
  -26.4580  -13.0910   20.1280 N   0  0  0  0  0  0  0  0  0  0  0  0
  -26.1150  -11.8050   20.3980 N   0  0  0  0  0  0  0  0  0  0  0  0
  -24.1170  -10.5660   20.9310 C   0  0  0  0  0  0  0  0  0  0  0  0
  -24.5380   -9.6250   21.8980 C   0  0  0  0  0  3  0  0  0  0  0  0
  -23.8240   -8.4220   22.0860 C   0  0  0  0  0  3  0  0  0  0  0  0
  -22.6760   -8.1490   21.3060 C   0  0  0  0  0  0  0  0  0  0  0  0
  -22.2730   -9.0790   20.3290 C   0  0  0  0  0  3  0  0  0  0  0  0
  -22.9880  -10.2720   20.1400 C   0  0  0  0  0  3  0  0  0  0  0  0
  -21.9350   -6.9960   21.4000 O   0  0  0  0  0  0  0  0  0  0  0  0
  -21.8180   -6.3100   22.5820 C   0  0  0  0  0  0  0  0  0  0  0  0
  -21.2910   -6.9120   23.7450 C   0  0  0  0  0  3  0  0  0  0  0  0
  -21.1250   -6.1510   24.9200 C   0  0  0  0  0  3  0  0  0  0  0  0
  -21.4760   -4.7880   24.9310 C   0  0  0  0  0  0  0  0  0  0  0  0
  -21.9960   -4.1850   23.7720 C   0  0  0  0  0  3  0  0  0  0  0  0
  -22.1640   -4.9440   22.6000 C   0  0  0  0  0  0  0  0  0  0  0  0
  -22.6460   -4.3520   21.4800 F   0  0  0  0  0  0  0  0  0  0  0  0
  -21.3100   -4.0540   26.0560 F   0  0  0  0  0  0  0  0  0  0  0  0
  -22.9630  -13.6470   21.0690 C   0  0  0  0  0  0  0  0  0  0  0  0
  -22.2580  -12.9490   21.9530 N   0  0  0  0  0  0  0  0  0  0  0  0
  -22.5060  -14.6660   20.5530 O   0  0  0  0  0  0  0  0  0  0  0  0
  -22.6420  -12.1240   22.3910 H   0  0  0  0  0  0  0  0  0  0  0  0
  -21.3230  -13.2450   22.1950 H   0  0  0  0  0  0  0  0  0  0  0  0
  -25.5650  -15.3360   20.2080 N   0  0  0  0  0  0  0  0  0  0  0  0
  -24.7970  -15.9840   20.3400 H   0  0  0  0  0  0  0  0  0  0  0  0
  -26.4100  -15.7840   19.8800 H   0  0  0  0  0  0  0  0  0  0  0  0
  -29.1310  -22.9400   21.1220 O   0  0  0  0  0  0  0  0  0  0  0  0
  -28.6480  -23.9560   20.1930 C   0  0  0  0  0  2  0  0  0  0  0  0
  -28.3130  -25.3150   20.9420 C   0  0  0  0  0  2  0  0  0  0  0  0
  -28.4460  -26.6110   20.2630 O   0  0  0  0  0  0  0  0  0  0  0  0
  -24.6210  -31.9280   23.2470 C   0  0  0  0  0  0  0  0  0  0  0  0
  -27.3120  -27.4180   20.2440 C   0  0  0  0  0  0  0  0  0  0  0  0
  -23.4430  -30.5030   21.6080 C   0  0  0  0  0  3  0  0  0  0  0  0
  -24.9230  -28.9610   20.2050 C   0  0  0  0  0  0  0  0  0  0  0  0
  -25.9750  -30.8660   21.4320 C   0  0  0  0  0  2  0  0  0  0  0  0
  -26.0780  -29.4860   20.7990 C   0  0  0  0  0  0  0  0  0  0  0  0
  -27.2810  -28.7250   20.8060 C   0  0  0  0  0  3  0  0  0  0  0  0
  -26.1390  -26.9280   19.6360 C   0  0  0  0  0  3  0  0  0  0  0  0
  -24.9530  -27.6860   19.6140 C   0  0  0  0  0  3  0  0  0  0  0  0
  -23.6720  -29.8160   20.2360 C   0  0  0  0  0  2  0  0  0  0  0  0
  -24.6980  -31.1160   22.1540 N   0  0  0  0  0  0  0  0  0  0  0  0
  -23.5320  -32.1950   23.7740 O   0  0  0  0  0  0  0  0  0  0  0  0
  -22.7900  -29.4850   22.5730 C   0  0  0  0  0  0  0  0  0  0  0  0
  -21.4680  -29.2900   22.4350 N   0  0  0  0  0  0  0  0  0  0  0  0
  -23.4700  -28.8740   23.4000 O   0  0  0  0  0  0  0  0  0  0  0  0
  -20.9780  -29.8340   21.7390 H   0  0  0  0  0  0  0  0  0  0  0  0
  -18.0990  -28.0680   22.9240 C   0  0  0  0  0  0  0  0  0  0  0  0
  -20.6530  -28.3490   23.2070 C   0  0  0  0  0  3  0  0  0  0  0  0
  -20.7700  -26.9160   22.6370 C   0  0  0  0  0  2  0  0  0  0  0  0
  -19.6760  -26.5800   21.6190 C   0  0  0  0  0  2  0  0  0  0  0  0
  -18.2900  -26.7160   22.2550 C   0  0  0  0  0  2  0  0  0  0  0  0
  -19.2100  -28.8410   23.3560 C   0  0  0  0  0  0  0  0  0  0  0  0
  -18.9770  -30.1050   23.9390 C   0  0  0  0  0  3  0  0  0  0  0  0
  -17.6670  -30.5970   24.0970 C   0  0  0  0  0  3  0  0  0  0  0  0
  -16.5710  -29.8210   23.6800 C   0  0  0  0  0  3  0  0  0  0  0  0
  -16.7880  -28.5580   23.1010 C   0  0  0  0  0  3  0  0  0  0  0  0
  -25.8940  -32.5780   23.8730 C   0  0  0  0  0  3  0  0  0  0  0  0
  -25.5660  -33.9750   24.1930 N   0  0  0  0  0  0  0  0  0  0  0  0
  -25.8980  -35.0270   23.4330 C   0  0  0  0  0  0  0  0  0  0  0  0
  -26.5810  -34.9250   22.4110 O   0  0  0  0  0  0  0  0  0  0  0  0
  -24.9600  -34.1270   24.9850 H   0  0  0  0  0  0  0  0  0  0  0  0
  -24.1610  -36.8040   23.0460 C   0  0  0  0  0  1  0  0  0  0  0  0
  -25.3910  -36.4130   23.8790 C   0  0  0  0  0  3  0  0  0  0  0  0
  -27.5040  -37.3190   24.7430 C   0  0  0  0  0  1  0  0  0  0  0  0
  -26.4170  -37.4740   23.7790 N   0  0  0  0  0  0  0  0  0  0  0  0
  -26.0010  -38.3920   23.9150 H   0  0  0  0  0  0  0  0  0  0  0  0
  -26.4120  -31.8200   25.1570 C   0  0  1  0  0  0  0  0  0  0  0  0
  -25.3110  -31.5630   26.2140 C   0  0  0  0  0  1  0  0  0  0  0  0
  -27.0270  -30.4540   24.7740 C   0  0  0  0  0  1  0  0  0  0  0  0
  -27.5390  -32.6390   25.8290 C   0  0  0  0  0  1  0  0  0  0  0  0
  1  2  1  0
  3  6  1  0
  4  1  2  0
  5  3  2  0
  5  4  1  0
  6 49  1  0
  6  2  2  0
  7  9  1  0
  9  8  1  0
  9  5  1  0
 10  4  1  0
 10 12  1  0
 12 11  1  0
 13 12  1  0
 14 19  1  0
 15 16  1  0
 15 14  1  0
 17 16  1  0
 17 24  1  0
 17 18  1  0
 19 13  1  0
 19 18  1  0
 20 13  2  0
 21 22  2  0
 22 41  1  0
 23 22  1  0
 23 26  1  0
 24 21  1  0
 24 25  1  0
 25 23  2  0
 26 27  1  0
 27 28  2  0
 29 32  1  0
 29 28  1  0
 30 29  2  0
 31 30  1  0
 31 26  2  0
 32 33  1  0
 33 38  2  0
 33 34  1  0
 34 35  2  0
 35 36  1  0
 36 40  1  0
 37 36  2  0
 38 37  1  0
 39 38  1  0
 41 42  1  0
 42 45  1  0
 42 44  1  0
 43 41  2  0
 46 47  1  0
 46 21  1  0
 48 46  1  0
 50 51  1  0
 50 49  1  0
 52 51  1  0
 53 64  2  0
 54 52  1  0
 54 59  1  0
 55 63  1  0
 55 65  1  0
 56 62  1  0
 56 58  1  0
 57 63  1  0
 58 59  2  0
 58 57  1  0
 60 54  2  0
 61 60  1  0
 61 56  2  0
 62 55  1  0
 63 53  1  0
 65 67  2  0
 66 65  1  0
 68 66  1  0
 69 78  2  0
 69 74  1  0
 70 66  1  0
 70 74  1  0
 71 70  1  0
 72 73  1  0
 72 71  1  0
 73 69  1  0
 74 75  2  0
 75 76  1  0
 77 76  2  0
 78 77  1  0
 79 53  1  0
 79 80  1  0
 79 89  1  0
 80 83  1  0
 81 85  1  0
 81 80  1  0
 82 81  2  0
 85 84  1  0
 87 85  1  0
 87 88  1  0
 87 86  1  0
 89 92  1  1
 89 90  1  0
 91 89  1  0
M  ISO  4  12 100  13 100  51 101  52 101
M  END
>  <TORSDO>  (98) 
F 22

>  <SCORE>  (98) 
-13.057

>  <name>  (98) 
98

>  <ligand_id>  (98) 
98

>  <original_smiles>  (98) 
[H]c1c([H])c([H])c2c(c1[H])C([H])([H])C([H])([H])C([H])([H])C2([H])N([H])C(=O)C1([H])N(C(=O)C([H])(N([H])C(=O)C([H])(N([H])C([H])([H])[H])C([H])([H])[H])C(C([H])([H])[H])(C([H])([H])[H])C([H])([H])[H])C([H])([H])c2c([H])c(OC([H])([H])C([H])([H])Oc3c([H])c([H])c(C([H])([H])C([H])(C(=O)N4C([H])([H])C([H])([H])C([H])([H])C([H])(n5nc(-c6c([H])c([H])c(Oc7c([H])c([H])c(F)c([H])c7F)c([H])c6[H])c(C(=O)N([H])[H])c5N([H])[H])C4([H])[H])C([H])([H])[H])c(C([H])(C([H])([H])[H])C([H])([H])[H])c3[H])c([H])c([H])c2C1([H])[H]

>  <smiles>  (98) 
[H]c1c([H])c([H])c2c(c1[H])C([H])([H])C([H])([H])C([H])([H])C2([H])N([H])C(=O)C1([H])N(C(=O)C([H])(N([H])C(=O)C([H])(N([H])C([H])([H])[H])C([H])([H])[H])C(C([H])([H])[H])(C([H])([H])[H])C([H])([H])[H])C([H])([H])c2c([H])c(OC([H])([H])C([H])([H])Oc3c([H])c([H])c(C([H])([H])C([H])(C(=O)N4C([H])([H])C([H])([H])C([H])([H])C([H])(n5nc(-c6c([H])c([H])c(Oc7c([H])c([H])c(F)c([H])c7F)c([H])c6[H])c(C(=O)N([H])[H])c5N([H])[H])C4([H])[H])C([H])([H])[H])c(C([H])(C([H])([H])[H])C([H])([H])[H])c3[H])c([H])c([H])c2C1([H])[H]

$$$$
