0:0:0
     RDKit          3D

 93 97  0  0  1  0  0  0  0  0999 V2000
  -29.1930  -18.4760   20.8960 C   0  0  0  0  0  1  0  0  0  0  0  0
  -30.2050  -20.4880   22.2370 C   0  0  0  0  0  1  0  0  0  0  0  0
  -29.3960  -20.2770   21.0200 N   0  0  2  0  0  4  0  0  0  0  0  0
  -30.0610  -20.4220   20.2730 H   0  0  0  0  0  0  0  0  0  0  0  0
  -28.3930  -21.7800   20.8620 C   0  0  0  0  0  1  0  0  0  0  0  0
  -28.3580  -23.6700   20.1760 C   0  0  0  0  0  1  0  0  0  0  0  0
  -28.1990  -25.4700   20.3840 O   0  0  0  0  0  0  0  0  0  0  0  0
  -24.6280  -31.7610   23.0350 C   0  0  0  0  0  0  0  0  0  0  0  0
  -27.2360  -26.6940   20.1300 C   0  0  0  0  0  0  0  0  0  0  0  0
  -23.4630  -30.3310   21.4040 C   0  0  0  0  0  3  0  0  0  0  0  0
  -24.9490  -28.7290   19.9660 C   0  0  0  0  0  0  0  0  0  0  0  0
  -26.0310  -30.5460   21.2560 C   0  0  0  0  0  2  0  0  0  0  0  0
  -26.1280  -29.1070   20.6160 C   0  0  0  0  0  0  0  0  0  0  0  0
  -27.2490  -28.1180   20.6620 C   0  0  0  0  0  3  0  0  0  0  0  0
  -26.0480  -26.5580   19.3560 C   0  0  0  0  0  3  0  0  0  0  0  0
  -24.9580  -27.4900   19.2950 C   0  0  0  0  0  3  0  0  0  0  0  0
  -23.7130  -29.6460   20.0240 C   0  0  0  0  0  2  0  0  0  0  0  0
  -24.7310  -30.9170   21.9510 N   0  0  0  0  0  0  0  0  0  0  0  0
  -23.5330  -32.0220   23.5630 O   0  0  0  0  0  0  0  0  0  0  0  0
  -22.7940  -29.3270   22.3810 C   0  0  0  0  0  0  0  0  0  0  0  0
  -21.4630  -29.1380   22.2880 N   0  0  0  0  0  0  0  0  0  0  0  0
  -23.4850  -28.7140   23.1970 O   0  0  0  0  0  0  0  0  0  0  0  0
  -20.9500  -29.6870   21.6110 H   0  0  0  0  0  0  0  0  0  0  0  0
  -18.1260  -27.8190   22.8720 C   0  0  0  0  0  0  0  0  0  0  0  0
  -20.6840  -28.1720   23.0740 C   0  0  0  0  0  3  0  0  0  0  0  0
  -20.8170  -26.7460   22.4890 C   0  0  0  0  0  2  0  0  0  0  0  0
  -19.7030  -26.3950   21.4970 C   0  0  0  0  0  2  0  0  0  0  0  0
  -18.3320  -26.4850   22.1730 C   0  0  0  0  0  2  0  0  0  0  0  0
  -19.2280  -28.6170   23.2820 C   0  0  0  0  0  0  0  0  0  0  0  0
  -18.9780  -29.8590   23.9030 C   0  0  0  0  0  3  0  0  0  0  0  0
  -17.6600  -30.3070   24.1160 C   0  0  0  0  0  3  0  0  0  0  0  0
  -16.5740  -29.5070   23.7200 C   0  0  0  0  0  3  0  0  0  0  0  0
  -16.8080  -28.2650   23.1040 C   0  0  0  0  0  3  0  0  0  0  0  0
  -25.8770  -32.4550   23.6600 C   0  0  0  0  0  3  0  0  0  0  0  0
  -26.4320  -31.7020   24.9330 C   0  0  1  0  0  0  0  0  0  0  0  0
  -25.3580  -31.4230   26.0110 C   0  0  0  0  0  1  0  0  0  0  0  0
  -27.0650  -30.3480   24.5460 C   0  0  0  0  0  1  0  0  0  0  0  0
  -27.5580  -32.5380   25.5900 C   0  0  0  0  0  1  0  0  0  0  0  0
  -25.5080  -33.8380   24.0230 N   0  0  0  0  0  0  0  0  0  0  0  0
  -25.7760  -34.9290   23.2920 C   0  0  0  0  0  0  0  0  0  0  0  0
  -26.4170  -34.8800   22.2410 O   0  0  0  0  0  0  0  0  0  0  0  0
  -24.9330  -33.9500   24.8450 H   0  0  0  0  0  0  0  0  0  0  0  0
  -23.9670  -36.6690   23.0610 C   0  0  0  0  0  1  0  0  0  0  0  0
  -25.2560  -36.2890   23.8070 C   0  0  0  0  0  3  0  0  0  0  0  0
  -27.3840  -37.2500   24.5770 C   0  0  0  0  0  1  0  0  0  0  0  0
  -26.2410  -37.3880   23.6790 N   0  0  0  0  0  0  0  0  0  0  0  0
  -25.8040  -38.2880   23.8570 H   0  0  0  0  0  0  0  0  0  0  0  0
  -29.9180  -16.8060   21.7230 C   0  0  0  0  0  1  0  0  0  0  0  0
  -31.1400  -15.7300   18.4110 C   0  0  0  0  0  3  0  0  0  0  0  0
  -31.0660  -12.5500   20.3660 C   0  0  0  0  0  1  0  0  0  0  0  0
  -29.7170  -11.3130   19.7810 C   0  0  0  0  0  2  0  0  0  0  0  0
  -28.2380  -11.7860   18.8710 C   0  0  0  0  0  2  0  0  0  0  0  0
  -27.5840  -13.4190   18.8360 C   0  0  0  0  0  3  0  0  0  0  0  0
  -28.5790  -15.0290   18.7850 C   0  0  0  0  0  2  0  0  0  0  0  0
  -30.3060  -15.1840   19.2600 N   0  0  0  0  0  2  0  0  0  0  0  0
  -31.9760  -16.5140   18.7950 O   0  0  0  0  0  1  0  0  0  0  0  0
  -30.1340  -13.1930   18.5070 C   0  0  0  0  0  1  0  0  0  0  0  0
  -31.8460  -14.7900   21.0970 C   0  0  0  0  0  3  0  0  0  0  0  0
  -29.2880  -13.7660   20.6010 C   0  0  0  0  0  2  0  0  0  0  0  0
  -30.2620  -14.9160   21.5110 C   0  0  0  0  0  3  0  0  0  0  0  0
  -31.7590  -13.7130   18.4580 C   0  0  0  0  0  3  0  0  0  0  0  0
  -28.3900  -13.0950   21.6650 C   0  0  0  0  0  1  0  0  0  0  0  0
  -32.5530  -14.2420   19.7800 N   0  0  0  0  0  0  0  0  0  0  0  0
  -31.6180  -14.7820   17.6100 N   0  0  0  0  0  0  0  0  0  0  0  0
  -32.4170  -15.0300   17.0500 H   0  0  0  0  0  0  0  0  0  0  0  0
  -25.4710  -14.1440   20.2660 C   0  0  0  0  0  0  0  0  0  0  0  0
  -24.4510  -13.3740   20.7840 C   0  0  0  0  0  0  0  0  0  0  0  0
  -24.8440  -12.0150   20.6730 C   0  0  0  0  0  0  0  0  0  0  0  0
  -26.4020  -13.2640   19.7600 N   0  0  0  0  0  0  0  0  0  0  0  0
  -26.0130  -11.9950   20.1200 N   0  0  0  0  0  0  0  0  0  0  0  0
  -24.1480  -10.7330   20.8940 C   0  0  0  0  0  0  0  0  0  0  0  0
  -24.6030   -9.7650   21.8210 C   0  0  0  0  0  3  0  0  0  0  0  0
  -23.8860   -8.5600   22.0110 C   0  0  0  0  0  3  0  0  0  0  0  0
  -22.7060   -8.3130   21.2680 C   0  0  0  0  0  0  0  0  0  0  0  0
  -22.2860   -9.2600   20.3170 C   0  0  0  0  0  3  0  0  0  0  0  0
  -23.0020  -10.4530   20.1290 C   0  0  0  0  0  3  0  0  0  0  0  0
  -21.9500   -7.1680   21.3670 O   0  0  0  0  0  0  0  0  0  0  0  0
  -21.7940   -6.4990   22.5540 C   0  0  0  0  0  0  0  0  0  0  0  0
  -21.2680   -7.1270   23.7040 C   0  0  0  0  0  3  0  0  0  0  0  0
  -21.0630   -6.3820   24.8820 C   0  0  0  0  0  3  0  0  0  0  0  0
  -21.3750   -5.0090   24.9100 C   0  0  0  0  0  0  0  0  0  0  0  0
  -21.8910   -4.3810   23.7630 C   0  0  0  0  0  3  0  0  0  0  0  0
  -22.0950   -5.1230   22.5880 C   0  0  0  0  0  0  0  0  0  0  0  0
  -22.5720   -4.5070   21.4790 F   0  0  0  0  0  0  0  0  0  0  0  0
  -21.1760   -4.2910   26.0390 F   0  0  0  0  0  0  0  0  0  0  0  0
  -23.1050  -13.8550   21.2070 C   0  0  0  0  0  0  0  0  0  0  0  0
  -22.4550  -13.1360   22.1160 N   0  0  0  0  0  0  0  0  0  0  0  0
  -22.6330  -14.8890   20.7410 O   0  0  0  0  0  0  0  0  0  0  0  0
  -22.8550  -12.2940   22.5020 H   0  0  0  0  0  0  0  0  0  0  0  0
  -21.5450  -13.4320   22.4380 H   0  0  0  0  0  0  0  0  0  0  0  0
  -25.6570  -15.5100   20.1320 N   0  0  0  0  0  0  0  0  0  0  0  0
  -24.9500  -16.1820   20.4060 H   0  0  0  0  0  0  0  0  0  0  0  0
  -26.4160  -15.9200   19.6070 H   0  0  0  0  0  0  0  0  0  0  0  0
  1  3  1  0
  3  2  1  0
  3  4  1  6
  5  3  1  0
  6  7  1  0
  8 19  2  0
  9  7  1  0
  9 14  1  0
 10 18  1  0
 10 20  1  0
 11 17  1  0
 11 13  1  0
 12 18  1  0
 13 14  2  0
 13 12  1  0
 15  9  2  0
 16 15  1  0
 16 11  2  0
 17 10  1  0
 18  8  1  0
 20 22  2  0
 21 20  1  0
 23 21  1  0
 24 33  2  0
 24 29  1  0
 25 21  1  0
 25 29  1  0
 26 25  1  0
 27 28  1  0
 27 26  1  0
 28 24  1  0
 29 30  2  0
 30 31  1  0
 32 31  2  0
 33 32  1  0
 34  8  1  0
 34 39  1  0
 34 35  1  0
 35 38  1  1
 35 36  1  0
 37 35  1  0
 39 42  1  0
 40 44  1  0
 40 39  1  0
 41 40  2  0
 44 43  1  0
 46 44  1  0
 46 47  1  0
 46 45  1  0
 49 56  1  0
 49 55  1  0
 51 50  1  0
 52 51  1  0
 53 54  1  0
 53 52  1  0
 53 69  1  0
 54 55  1  0
 58 60  1  0
 59 60  1  0
 59 62  1  0
 60 48  1  0
 61 57  1  0
 61 63  1  0
 63 58  2  0
 64 49  1  0
 64 61  1  0
 65 64  1  0
 66 67  2  0
 67 86  1  0
 68 67  1  0
 68 71  1  0
 69 70  1  0
 69 66  1  0
 70 68  2  0
 71 72  1  0
 72 73  2  0
 74 77  1  0
 74 73  1  0
 75 74  2  0
 76 75  1  0
 76 71  2  0
 77 78  1  0
 78 83  2  0
 78 79  1  0
 79 80  2  0
 80 81  1  0
 81 85  1  0
 82 81  2  0
 83 82  1  0
 84 83  1  0
 86 87  1  0
 87 90  1  0
 87 89  1  0
 88 86  2  0
 91 66  1  0
 91 92  1  0
 93 91  1  0
M  ISO  4   6 101   7 101  49 100  64 100
M  END
>  <TORSDO>  (1) 
F 20

>  <SCORE>  (1) 
-16.425

>  <name>  (1) 
0

>  <ligand_id>  (1) 
0

>  <original_smiles>  (1) 
[H]c1nc(N([H])C(=O)N2C([H])([H])C([H])([H])C([H])([H])C([H])(n3nc(-c4c([H])c([H])c(Oc5c([H])c([H])c(F)c([H])c5F)c([H])c4[H])c(C(=O)N([H])[H])c3N([H])[H])C2([H])[H])c([H])c(C([H])([H])[H])c1C([H])([H])C([H])([H])[N+]([H])(C([H])([H])[H])C([H])([H])C([H])([H])Oc1c([H])c([H])c2c(c1[H])C([H])([H])N(C(=O)C([H])(N([H])C(=O)C([H])(N([H])C([H])([H])[H])C([H])([H])[H])C(C([H])([H])[H])(C([H])([H])[H])C([H])([H])[H])C([H])(C(=O)N([H])C1([H])c3c([H])c([H])c([H])c([H])c3C([H])([H])C([H])([H])C1([H])[H])C2([H])[H]

>  <smiles>  (1) 
[H]c1nc(N([H])C(=O)N2C([H])([H])C([H])([H])C([H])([H])C([H])(n3nc(-c4c([H])c([H])c(Oc5c([H])c([H])c(F)c([H])c5F)c([H])c4[H])c(C(=O)N([H])[H])c3N([H])[H])C2([H])[H])c([H])c(C([H])([H])[H])c1C([H])([H])C([H])([H])[N+]([H])(C([H])([H])[H])C([H])([H])C([H])([H])Oc1c([H])c([H])c2c(c1[H])C([H])([H])N(C(=O)C([H])(N([H])C(=O)C([H])(N([H])C([H])([H])[H])C([H])([H])[H])C(C([H])([H])[H])(C([H])([H])[H])C([H])([H])[H])C([H])(C(=O)N([H])C1([H])c3c([H])c([H])c([H])c([H])c3C([H])([H])C([H])([H])C1([H])[H])C2([H])[H]

$$$$
1:0:0
     RDKit          3D

 90 98  0  0  1  0  0  0  0  0999 V2000
  -29.3250  -22.6340   21.3880 C   0  0  0  0  0  2  0  0  0  0  0  0
  -28.5640  -22.3750   19.0520 C   0  0  0  0  0  2  0  0  0  0  0  0
  -28.5050  -24.0060   21.5390 C   0  0  0  0  0  2  0  0  0  0  0  0
  -28.6880  -23.9790   19.0630 C   0  0  0  0  0  2  0  0  0  0  0  0
  -28.7900  -21.5390   20.3840 C   0  0  0  0  0  3  0  0  0  0  0  0
  -28.0420  -24.7880   20.2460 C   0  0  0  0  0  3  0  0  0  0  0  0
  -29.6680  -20.2470   20.2500 N   0  0  0  0  0  4  0  0  0  0  0  0
  -30.4370  -20.3780   20.8890 H   0  0  0  0  0  0  0  0  0  0  0  0
  -30.0760  -20.2670   19.3300 H   0  0  0  0  0  0  0  0  0  0  0  0
  -29.1610  -18.7890   20.4860 C   0  0  0  0  0  3  0  0  0  0  0  0
  -30.2070  -17.5140   20.3080 C   0  0  0  0  0  3  0  0  0  0  0  0
  -30.5580  -14.8630   20.3180 C   0  0  0  0  0  0  0  0  0  0  0  0
  -30.3800  -12.5580   19.3350 C   0  0  0  0  0  2  0  0  0  0  0  0
  -29.4350  -12.5800   18.1120 C   0  0  0  0  0  2  0  0  0  0  0  0
  -27.9740  -12.3820   18.5570 C   0  0  0  0  0  2  0  0  0  0  0  0
  -27.5900  -13.2890   19.7570 C   0  0  0  0  0  3  0  0  0  0  0  0
  -28.6550  -13.2470   20.8740 C   0  0  0  0  0  2  0  0  0  0  0  0
  -29.9370  -13.6280   20.2660 N   0  0  0  0  0  0  0  0  0  0  0  0
  -31.7450  -14.9470   19.9930 O   0  0  0  0  0  0  0  0  0  0  0  0
  -29.8020  -16.0260   20.5130 N   0  0  0  0  0  0  0  0  0  0  0  0
  -28.8370  -15.8690   20.7600 H   0  0  0  0  0  0  0  0  0  0  0  0
  -25.2100  -13.8620   20.5140 C   0  0  0  0  0  0  0  0  0  0  0  0
  -24.1510  -13.0830   20.8920 C   0  0  0  0  0  0  0  0  0  0  0  0
  -24.6200  -11.7340   20.8520 C   0  0  0  0  0  0  0  0  0  0  0  0
  -26.2540  -12.9890   20.2640 N   0  0  0  0  0  0  0  0  0  0  0  0
  -25.9080  -11.7030   20.5330 N   0  0  0  0  0  0  0  0  0  0  0  0
  -23.9000  -10.4670   21.0430 C   0  0  0  0  0  0  0  0  0  0  0  0
  -24.3440   -9.4970   21.9680 C   0  0  0  0  0  3  0  0  0  0  0  0
  -23.6260   -8.2960   22.1480 C   0  0  0  0  0  3  0  0  0  0  0  0
  -22.4460   -8.0560   21.4020 C   0  0  0  0  0  0  0  0  0  0  0  0
  -22.0220   -9.0140   20.4650 C   0  0  0  0  0  3  0  0  0  0  0  0
  -22.7420  -10.2070   20.2840 C   0  0  0  0  0  3  0  0  0  0  0  0
  -21.6970   -6.9080   21.4910 O   0  0  0  0  0  0  0  0  0  0  0  0
  -21.6600   -6.1610   22.6420 C   0  0  0  0  0  0  0  0  0  0  0  0
  -21.2390   -6.7080   23.8730 C   0  0  0  0  0  3  0  0  0  0  0  0
  -21.1480   -5.8860   25.0140 C   0  0  0  0  0  3  0  0  0  0  0  0
  -21.4690   -4.5190   24.9250 C   0  0  0  0  0  0  0  0  0  0  0  0
  -21.8830   -3.9710   23.6980 C   0  0  0  0  0  3  0  0  0  0  0  0
  -21.9760   -4.7900   22.5590 C   0  0  0  0  0  0  0  0  0  0  0  0
  -22.3550   -4.2530   21.3750 F   0  0  0  0  0  0  0  0  0  0  0  0
  -21.3750   -3.7270   26.0190 F   0  0  0  0  0  0  0  0  0  0  0  0
  -22.7530  -13.5530   21.1700 C   0  0  0  0  0  0  0  0  0  0  0  0
  -22.0310  -12.8550   22.0390 N   0  0  0  0  0  0  0  0  0  0  0  0
  -22.3110  -14.5780   20.6520 O   0  0  0  0  0  0  0  0  0  0  0  0
  -22.4010  -12.0310   22.4880 H   0  0  0  0  0  0  0  0  0  0  0  0
  -21.0910  -13.1540   22.2610 H   0  0  0  0  0  0  0  0  0  0  0  0
  -25.3660  -15.2330   20.3360 N   0  0  0  0  0  0  0  0  0  0  0  0
  -24.5910  -15.8780   20.4360 H   0  0  0  0  0  0  0  0  0  0  0  0
  -26.1870  -15.6620   19.9290 H   0  0  0  0  0  0  0  0  0  0  0  0
  -28.2490  -26.3100   20.2510 O   0  0  0  0  0  0  0  0  0  0  0  0
  -24.6370  -31.9160   23.2330 C   0  0  0  0  0  0  0  0  0  0  0  0
  -27.1710  -27.2410   20.1920 C   0  0  0  0  0  0  0  0  0  0  0  0
  -23.4170  -30.5240   21.6040 C   0  0  0  0  0  3  0  0  0  0  0  0
  -24.8460  -28.9520   20.1690 C   0  0  0  0  0  0  0  0  0  0  0  0
  -25.9650  -30.7960   21.4150 C   0  0  0  0  0  2  0  0  0  0  0  0
  -26.0260  -29.4060   20.7710 C   0  0  0  0  0  0  0  0  0  0  0  0
  -27.1900  -28.5650   20.7680 C   0  0  0  0  0  3  0  0  0  0  0  0
  -25.9750  -26.8790   19.5360 C   0  0  0  0  0  3  0  0  0  0  0  0
  -24.8300  -27.6990   19.5360 C   0  0  0  0  0  3  0  0  0  0  0  0
  -23.6240  -29.8500   20.2210 C   0  0  0  0  0  2  0  0  0  0  0  0
  -24.6930  -31.0990   22.1390 N   0  0  0  0  0  0  0  0  0  0  0  0
  -23.5570  -32.2050   23.7690 O   0  0  0  0  0  0  0  0  0  0  0  0
  -22.7460  -29.5140   22.5680 C   0  0  0  0  0  0  0  0  0  0  0  0
  -21.4170  -29.3490   22.4520 N   0  0  0  0  0  0  0  0  0  0  0  0
  -23.4220  -28.8860   23.3870 O   0  0  0  0  0  0  0  0  0  0  0  0
  -20.9290  -29.9140   21.7700 H   0  0  0  0  0  0  0  0  0  0  0  0
  -18.0340  -28.1670   22.9690 C   0  0  0  0  0  0  0  0  0  0  0  0
  -20.5950  -28.4180   23.2290 C   0  0  0  0  0  3  0  0  0  0  0  0
  -20.6870  -26.9840   22.6600 C   0  0  0  0  0  2  0  0  0  0  0  0
  -19.5800  -26.6610   21.6510 C   0  0  0  0  0  2  0  0  0  0  0  0
  -18.2020  -26.8140   22.2980 C   0  0  0  0  0  2  0  0  0  0  0  0
  -19.1570  -28.9270   23.3910 C   0  0  0  0  0  0  0  0  0  0  0  0
  -18.9440  -30.1930   23.9800 C   0  0  0  0  0  3  0  0  0  0  0  0
  -17.6420  -30.7010   24.1460 C   0  0  0  0  0  3  0  0  0  0  0  0
  -16.5340  -29.9380   23.7380 C   0  0  0  0  0  3  0  0  0  0  0  0
  -16.7310  -28.6720   23.1570 C   0  0  0  0  0  3  0  0  0  0  0  0
  -25.9250  -32.5450   23.8480 C   0  0  0  0  0  3  0  0  0  0  0  0
  -26.4470  -31.7680   25.1190 C   0  0  1  0  0  0  0  0  0  0  0  0
  -25.3620  -31.5330   26.1950 C   0  0  0  0  0  1  0  0  0  0  0  0
  -27.0200  -30.3890   24.7190 C   0  0  0  0  0  1  0  0  0  0  0  0
  -27.6050  -32.5560   25.7760 C   0  0  0  0  0  1  0  0  0  0  0  0
  -25.6210  -33.9420   24.1900 N   0  0  0  0  0  0  0  0  0  0  0  0
  -25.9330  -35.0000   23.4290 C   0  0  0  0  0  0  0  0  0  0  0  0
  -26.5760  -34.9000   22.3800 O   0  0  0  0  0  0  0  0  0  0  0  0
  -25.0490  -34.0940   25.0080 H   0  0  0  0  0  0  0  0  0  0  0  0
  -24.1890  -36.7890   23.1350 C   0  0  0  0  0  1  0  0  0  0  0  0
  -25.4570  -36.3860   23.9040 C   0  0  0  0  0  3  0  0  0  0  0  0
  -27.6160  -37.2740   24.6680 C   0  0  0  0  0  1  0  0  0  0  0  0
  -26.4830  -37.4420   23.7610 N   0  0  0  0  0  0  0  0  0  0  0  0
  -26.0800  -38.3610   23.9250 H   0  0  0  0  0  0  0  0  0  0  0  0
  1  3  1  0
  2  4  1  0
  2  5  1  0
  4  6  1  0
  5  7  1  0
  5  1  1  0
  6 50  1  0
  6  3  1  0
  7 10  1  0
  7  8  1  0
  9  7  1  0
 11 10  2  0
 11 20  1  0
 12 20  1  0
 13 18  1  0
 14 15  1  0
 14 13  1  0
 16 15  1  0
 16 25  1  0
 16 17  1  0
 18 12  1  0
 18 17  1  0
 19 12  2  0
 20 21  1  0
 22 23  2  0
 23 42  1  0
 24 23  1  0
 24 27  1  0
 25 22  1  0
 25 26  1  0
 26 24  2  0
 27 28  1  0
 28 29  2  0
 30 33  1  0
 30 29  1  0
 31 30  2  0
 32 31  1  0
 32 27  2  0
 33 34  1  0
 34 35  1  0
 35 36  2  0
 37 36  1  0
 37 41  1  0
 38 37  2  0
 39 34  2  0
 39 38  1  0
 40 39  1  0
 42 43  1  0
 43 46  1  0
 43 45  1  0
 44 42  2  0
 47 48  1  0
 47 22  1  0
 49 47  1  0
 51 62  2  0
 52 50  1  0
 52 57  1  0
 53 61  1  0
 53 63  1  0
 54 60  1  0
 54 56  1  0
 55 61  1  0
 56 55  1  0
 57 56  2  0
 58 59  1  0
 58 52  2  0
 59 54  2  0
 60 53  1  0
 61 51  1  0
 63 65  2  0
 64 63  1  0
 66 64  1  0
 67 76  2  0
 67 72  1  0
 68 64  1  0
 68 72  1  0
 69 68  1  0
 70 71  1  0
 70 69  1  0
 71 67  1  0
 72 73  2  0
 73 74  1  0
 75 74  2  0
 76 75  1  0
 77 51  1  0
 77 82  1  0
 77 78  1  0
 78 81  1  1
 78 79  1  0
 80 78  1  0
 82 85  1  0
 83 87  1  0
 83 82  1  0
 84 83  2  0
 87 86  1  0
 89 87  1  0
 89 90  1  0
 89 88  1  0
M  ISO  4   6 101  12 100  20 100  50 101
M  END
>  <TORSDO>  (2) 
F 19

>  <SCORE>  (2) 
-14.098

>  <name>  (2) 
1

>  <ligand_id>  (2) 
1

>  <original_smiles>  (2) 
[H]c1c([H])c([H])c2c(c1[H])C([H])([H])C([H])([H])C([H])([H])C2([H])N([H])C(=O)C1([H])N(C(=O)C([H])(N([H])C(=O)C([H])(N([H])C([H])([H])[H])C([H])([H])[H])C(C([H])([H])[H])(C([H])([H])[H])C([H])([H])[H])C([H])([H])c2c([H])c(OC3([H])C([H])([H])C([H])([H])C([H])([N+]([H])([H])C([H])([H])C([H])([H])N([H])C(=O)N4C([H])([H])C([H])([H])C([H])([H])C([H])(n5nc(-c6c([H])c([H])c(Oc7c([H])c([H])c(F)c([H])c7F)c([H])c6[H])c(C(=O)N([H])[H])c5N([H])[H])C4([H])[H])C([H])([H])C3([H])[H])c([H])c([H])c2C1([H])[H]

>  <smiles>  (2) 
[H]c1c([H])c([H])c2c(c1[H])C([H])([H])C([H])([H])C([H])([H])C2([H])N([H])C(=O)C1([H])N(C(=O)C([H])(N([H])C(=O)C([H])(N([H])C([H])([H])[H])C([H])([H])[H])C(C([H])([H])[H])(C([H])([H])[H])C([H])([H])[H])C([H])([H])c2c([H])c(OC3([H])C([H])([H])C([H])([H])C([H])([N+]([H])([H])C([H])([H])C([H])([H])N([H])C(=O)N4C([H])([H])C([H])([H])C([H])([H])C([H])(n5nc(-c6c([H])c([H])c(Oc7c([H])c([H])c(F)c([H])c7F)c([H])c6[H])c(C(=O)N([H])[H])c5N([H])[H])C4([H])[H])C([H])([H])C3([H])[H])c([H])c([H])c2C1([H])[H]

$$$$
2:0:0
     RDKit          3D

 97106  0  0  1  0  0  0  0  0999 V2000
  -28.9820  -21.6930   20.3350 C   0  0  0  0  0  3  0  0  0  0  0  0
  -28.8920  -23.1130   19.8540 C   0  0  0  0  0  0  0  0  0  0  0  0
  -29.7250  -20.7710   19.5320 C   0  0  0  0  0  0  0  0  0  0  0  0
  -29.5460  -22.9730   18.6560 C   0  0  0  0  0  0  0  0  0  0  0  0
  -29.6390  -24.0690   17.6370 C   0  0  0  0  0  1  0  0  0  0  0  0
  -30.1070  -21.6640   18.4880 N   0  0  0  0  0  0  0  0  0  0  0  0
  -31.7930  -19.3140   20.0490 C   0  0  0  0  0  2  0  0  0  0  0  0
  -31.8290  -19.6930   21.5530 C   0  0  0  0  0  2  0  0  0  0  0  0
  -30.1130  -17.9530   21.9120 C   0  0  0  0  0  2  0  0  0  0  0  0
  -30.3410  -19.1810   19.5590 C   0  0  0  0  0  3  0  0  0  0  0  0
  -29.8620  -17.7770   20.3860 C   0  0  0  0  0  3  0  0  0  0  0  0
  -30.5870  -19.3070   22.2640 N   0  0  0  0  0  4  0  0  0  0  0  0
  -29.8660  -19.9680   22.0230 H   0  0  0  0  0  0  0  0  0  0  0  0
  -30.7330  -19.3710   23.2590 H   0  0  0  0  0  0  0  0  0  0  0  0
  -30.9430  -15.0720   19.9270 C   0  0  0  0  0  0  0  0  0  0  0  0
  -30.8040  -12.7070   18.9610 C   0  0  0  0  0  2  0  0  0  0  0  0
  -29.8160  -12.6940   17.7700 C   0  0  0  0  0  2  0  0  0  0  0  0
  -28.3610  -12.5210   18.2550 C   0  0  0  0  0  2  0  0  0  0  0  0
  -28.0290  -13.4380   19.4610 C   0  0  0  0  0  3  0  0  0  0  0  0
  -29.1270  -13.3790   20.5420 C   0  0  0  0  0  2  0  0  0  0  0  0
  -30.3760  -13.7940   19.8890 N   0  0  0  0  0  0  0  0  0  0  0  0
  -32.1400  -15.1620   19.6320 O   0  0  0  0  0  0  0  0  0  0  0  0
  -30.0690  -16.1940   20.1080 N   0  0  0  0  0  0  0  0  0  0  0  0
  -29.1600  -15.7700   20.2180 H   0  0  0  0  0  0  0  0  0  0  0  0
  -25.7120  -14.1170   20.3090 C   0  0  0  0  0  0  0  0  0  0  0  0
  -24.6280  -13.3890   20.7140 C   0  0  0  0  0  0  0  0  0  0  0  0
  -25.0260  -12.0160   20.6400 C   0  0  0  0  0  0  0  0  0  0  0  0
  -26.6990  -13.1930   20.0080 N   0  0  0  0  0  0  0  0  0  0  0  0
  -26.2990  -11.9250   20.2740 N   0  0  0  0  0  0  0  0  0  0  0  0
  -24.2490  -10.7860   20.8370 C   0  0  0  0  0  0  0  0  0  0  0  0
  -24.6150   -9.8310   21.8130 C   0  0  0  0  0  3  0  0  0  0  0  0
  -23.8390   -8.6650   21.9990 C   0  0  0  0  0  3  0  0  0  0  0  0
  -22.6870   -8.4440   21.2050 C   0  0  0  0  0  0  0  0  0  0  0  0
  -22.3410   -9.3870   20.2180 C   0  0  0  0  0  3  0  0  0  0  0  0
  -23.1170  -10.5440   20.0330 C   0  0  0  0  0  3  0  0  0  0  0  0
  -21.8930   -7.3260   21.2920 O   0  0  0  0  0  0  0  0  0  0  0  0
  -21.6770   -6.6890   22.4870 C   0  0  0  0  0  0  0  0  0  0  0  0
  -21.1060   -7.3550   23.5940 C   0  0  0  0  0  3  0  0  0  0  0  0
  -20.8390   -6.6460   24.7810 C   0  0  0  0  0  3  0  0  0  0  0  0
  -21.1310   -5.2710   24.8620 C   0  0  0  0  0  0  0  0  0  0  0  0
  -21.6940   -4.6040   23.7600 C   0  0  0  0  0  3  0  0  0  0  0  0
  -21.9630   -5.3120   22.5740 C   0  0  0  0  0  0  0  0  0  0  0  0
  -22.4830   -4.6600   21.5070 F   0  0  0  0  0  0  0  0  0  0  0  0
  -20.8680   -4.5870   26.0000 F   0  0  0  0  0  0  0  0  0  0  0  0
  -23.2650  -13.9270   21.0440 C   0  0  0  0  0  0  0  0  0  0  0  0
  -22.5500  -13.2790   21.9570 N   0  0  0  0  0  0  0  0  0  0  0  0
  -22.8460  -14.9590   20.5250 O   0  0  0  0  0  0  0  0  0  0  0  0
  -22.9020  -12.4500   22.4100 H   0  0  0  0  0  0  0  0  0  0  0  0
  -21.6350  -13.6270   22.2070 H   0  0  0  0  0  0  0  0  0  0  0  0
  -25.9310  -15.4800   20.1380 N   0  0  0  0  0  0  0  0  0  0  0  0
  -25.1790  -16.1500   20.2470 H   0  0  0  0  0  0  0  0  0  0  0  0
  -26.6990  -15.8450   19.5900 H   0  0  0  0  0  0  0  0  0  0  0  0
  -32.0060  -22.2610   16.8740 C   0  0  0  0  0  1  0  0  0  0  0  0
  -30.1070  -20.7020   16.1730 C   0  0  0  0  0  1  0  0  0  0  0  0
  -30.9500  -21.2410   17.3410 C   0  0  0  0  0  3  0  0  0  0  0  0
  -28.1040  -24.4920   20.4390 C   0  0  0  0  0  2  0  0  0  0  0  0
  -28.4400  -26.0330   20.2670 O   0  0  0  0  0  0  0  0  0  0  0  0
  -24.6150  -31.7610   23.1170 C   0  0  0  0  0  0  0  0  0  0  0  0
  -27.3870  -27.0410   20.2050 C   0  0  0  0  0  0  0  0  0  0  0  0
  -23.5010  -30.3180   21.4640 C   0  0  0  0  0  3  0  0  0  0  0  0
  -25.0240  -28.7600   20.1000 C   0  0  0  0  0  0  0  0  0  0  0  0
  -26.0570  -30.6310   21.3720 C   0  0  0  0  0  2  0  0  0  0  0  0
  -26.1820  -29.2310   20.7330 C   0  0  0  0  0  0  0  0  0  0  0  0
  -27.3680  -28.3920   20.7620 C   0  0  0  0  0  3  0  0  0  0  0  0
  -26.2050  -26.6930   19.5190 C   0  0  0  0  0  3  0  0  0  0  0  0
  -25.0520  -27.5070   19.4750 C   0  0  0  0  0  3  0  0  0  0  0  0
  -23.7750  -29.6300   20.1030 C   0  0  0  0  0  2  0  0  0  0  0  0
  -24.7420  -30.9300   22.0350 N   0  0  0  0  0  0  0  0  0  0  0  0
  -23.5070  -32.0200   23.6120 O   0  0  0  0  0  0  0  0  0  0  0  0
  -22.8190  -29.3030   22.4200 C   0  0  0  0  0  0  0  0  0  0  0  0
  -21.4970  -29.1060   22.2660 N   0  0  0  0  0  0  0  0  0  0  0  0
  -23.4850  -28.6940   23.2590 O   0  0  0  0  0  0  0  0  0  0  0  0
  -21.0170  -29.6470   21.5600 H   0  0  0  0  0  0  0  0  0  0  0  0
  -18.1270  -27.8470   22.7160 C   0  0  0  0  0  0  0  0  0  0  0  0
  -20.6780  -28.1570   23.0240 C   0  0  0  0  0  3  0  0  0  0  0  0
  -20.8130  -26.7240   22.4570 C   0  0  0  0  0  2  0  0  0  0  0  0
  -19.7330  -26.3800   21.4260 C   0  0  0  0  0  2  0  0  0  0  0  0
  -18.3380  -26.5010   22.0440 C   0  0  0  0  0  2  0  0  0  0  0  0
  -19.2250  -28.6320   23.1600 C   0  0  0  0  0  0  0  0  0  0  0  0
  -18.9720  -29.8910   23.7460 C   0  0  0  0  0  3  0  0  0  0  0  0
  -17.6550  -30.3650   23.8960 C   0  0  0  0  0  3  0  0  0  0  0  0
  -16.5720  -29.5780   23.4680 C   0  0  0  0  0  3  0  0  0  0  0  0
  -16.8100  -28.3220   22.8830 C   0  0  0  0  0  3  0  0  0  0  0  0
  -25.8540  -32.4390   23.7740 C   0  0  0  0  0  3  0  0  0  0  0  0
  -26.3620  -31.6840   25.0660 C   0  0  1  0  0  0  0  0  0  0  0  0
  -25.2460  -31.3870   26.0950 C   0  0  0  0  0  1  0  0  0  0  0  0
  -27.0270  -30.3380   24.6980 C   0  0  0  0  0  1  0  0  0  0  0  0
  -27.4480  -32.5300   25.7720 C   0  0  0  0  0  1  0  0  0  0  0  0
  -25.4830  -33.8250   24.1060 N   0  0  0  0  0  0  0  0  0  0  0  0
  -25.8040  -34.9010   23.3730 C   0  0  0  0  0  0  0  0  0  0  0  0
  -26.5070  -34.8320   22.3620 O   0  0  0  0  0  0  0  0  0  0  0  0
  -24.8600  -33.9480   24.8900 H   0  0  0  0  0  0  0  0  0  0  0  0
  -24.0310  -36.6480   22.9870 C   0  0  0  0  0  1  0  0  0  0  0  0
  -25.2590  -36.2700   23.8320 C   0  0  0  0  0  3  0  0  0  0  0  0
  -27.3390  -37.2100   24.7400 C   0  0  0  0  0  1  0  0  0  0  0  0
  -26.2620  -37.3560   23.7640 N   0  0  0  0  0  0  0  0  0  0  0  0
  -25.8250  -38.2630   23.9030 H   0  0  0  0  0  0  0  0  0  0  0  0
  2  1  1  0
  2 56  1  0
  3  1  2  0
  4  2  2  0
  5  4  1  0
  6  4  1  0
  6  3  1  0
  7  8  1  0
  8 12  1  0
  9 12  1  0
 10  3  1  0
 10  7  1  0
 10 11  1  0
 11 23  1  0
 11  9  1  0
 12 14  1  0
 13 12  1  0
 15 23  1  0
 16 21  1  0
 17 18  1  0
 17 16  1  0
 19 18  1  0
 19 28  1  0
 19 20  1  0
 21 15  1  0
 21 20  1  0
 22 15  2  0
 23 24  1  0
 25 26  2  0
 26 45  1  0
 27 26  1  0
 27 30  1  0
 28 29  1  0
 28 25  1  0
 29 27  2  0
 30 31  1  0
 31 32  2  0
 33 36  1  0
 33 32  1  0
 34 33  2  0
 35 34  1  0
 35 30  2  0
 36 37  1  0
 37 42  2  0
 37 38  1  0
 38 39  2  0
 39 40  1  0
 40 44  1  0
 41 40  2  0
 42 41  1  0
 43 42  1  0
 45 46  1  0
 46 49  1  0
 46 48  1  0
 47 45  2  0
 50 51  1  0
 50 25  1  0
 52 50  1  0
 53 55  1  0
 54 55  1  0
 55  6  1  0
 57 56  1  0
 58 69  2  0
 59 57  1  0
 59 64  1  0
 60 68  1  0
 60 70  1  0
 61 67  1  0
 61 63  1  0
 62 68  1  0
 63 64  2  0
 63 62  1  0
 65 59  2  0
 66 65  1  0
 66 61  2  0
 67 60  1  0
 68 58  1  0
 70 72  2  0
 71 70  1  0
 73 71  1  0
 74 83  2  0
 74 79  1  0
 75 71  1  0
 75 79  1  0
 76 75  1  0
 77 78  1  0
 77 76  1  0
 78 74  1  0
 79 80  2  0
 80 81  1  0
 82 81  2  0
 83 82  1  0
 84 58  1  0
 84 89  1  0
 84 85  1  0
 85 88  1  1
 85 86  1  0
 87 85  1  0
 89 92  1  0
 90 94  1  0
 90 89  1  0
 91 90  2  0
 94 93  1  0
 96 94  1  0
 96 97  1  0
 96 95  1  0
M  ISO  4  15 100  23 100  56 101  57 101
M  END
>  <TORSDO>  (3) 
F 19

>  <SCORE>  (3) 
-14.113

>  <name>  (3) 
2

>  <ligand_id>  (3) 
2

>  <original_smiles>  (3) 
[H]c1c([H])c([H])c2c(c1[H])C([H])([H])C([H])([H])C([H])([H])C2([H])N([H])C(=O)C1([H])N(C(=O)C([H])(N([H])C(=O)C([H])(N([H])C([H])([H])[H])C([H])([H])[H])C(C([H])([H])[H])(C([H])([H])[H])C([H])([H])[H])C([H])([H])c2c([H])c(OC([H])([H])c3c([H])c(C4([H])C([H])([H])C([H])([H])[N+]([H])([H])C([H])([H])C4([H])N([H])C(=O)N4C([H])([H])C([H])([H])C([H])([H])C([H])(n5nc(-c6c([H])c([H])c(Oc7c([H])c([H])c(F)c([H])c7F)c([H])c6[H])c(C(=O)N([H])[H])c5N([H])[H])C4([H])[H])n(C([H])(C([H])([H])[H])C([H])([H])[H])c3C([H])([H])[H])c([H])c([H])c2C1([H])[H]

>  <smiles>  (3) 
[H]c1c([H])c([H])c2c(c1[H])C([H])([H])C([H])([H])C([H])([H])C2([H])N([H])C(=O)C1([H])N(C(=O)C([H])(N([H])C(=O)C([H])(N([H])C([H])([H])[H])C([H])([H])[H])C(C([H])([H])[H])(C([H])([H])[H])C([H])([H])[H])C([H])([H])c2c([H])c(OC([H])([H])c3c([H])c(C4([H])C([H])([H])C([H])([H])[N+]([H])([H])C([H])([H])C4([H])N([H])C(=O)N4C([H])([H])C([H])([H])C([H])([H])C([H])(n5nc(-c6c([H])c([H])c(Oc7c([H])c([H])c(F)c([H])c7F)c([H])c6[H])c(C(=O)N([H])[H])c5N([H])[H])C4([H])[H])n(C([H])(C([H])([H])[H])C([H])([H])[H])c3C([H])([H])[H])c([H])c([H])c2C1([H])[H]

$$$$
3:0:0
     RDKit          3D

 93102  0  0  1  0  0  0  0  0999 V2000
  -29.9260  -21.3620   20.7800 C   0  0  0  0  0  3  0  0  0  0  0  0
  -29.6710  -22.7790   20.9690 C   0  0  0  0  0  3  0  0  0  0  0  0
  -27.6600  -22.5820   19.7520 C   0  0  0  0  0  3  0  0  0  0  0  0
  -29.0580  -20.4680   20.0630 C   0  0  0  0  0  0  0  0  0  0  0  0
  -28.5250  -23.4720   20.4550 C   0  0  0  0  0  0  0  0  0  0  0  0
  -27.8970  -21.1650   19.5630 C   0  0  0  0  0  0  0  0  0  0  0  0
  -26.8280  -20.4010   18.7970 C   0  0  0  0  0  1  0  0  0  0  0  0
  -30.9010  -17.7150   18.7250 C   0  0  0  0  0  2  0  0  0  0  0  0
  -29.3970  -18.9050   19.6580 C   0  0  0  0  0  3  0  0  0  0  0  0
  -30.3200  -17.6060   20.1380 C   0  0  0  0  0  3  0  0  0  0  0  0
  -30.4720  -19.0980   18.6770 N   0  0  0  0  0  4  0  0  0  0  0  0
  -30.1490  -19.3910   17.7700 H   0  0  0  0  0  0  0  0  0  0  0  0
  -31.1800  -19.7200   19.0240 H   0  0  0  0  0  0  0  0  0  0  0  0
  -30.5950  -14.9280   20.1530 C   0  0  0  0  0  0  0  0  0  0  0  0
  -30.3730  -12.6420   19.1300 C   0  0  0  0  0  2  0  0  0  0  0  0
  -29.3980  -12.6870   17.9330 C   0  0  0  0  0  2  0  0  0  0  0  0
  -27.9460  -12.4940   18.4110 C   0  0  0  0  0  2  0  0  0  0  0  0
  -27.6010  -13.3710   19.6440 C   0  0  0  0  0  3  0  0  0  0  0  0
  -28.6970  -13.3100   20.7290 C   0  0  0  0  0  2  0  0  0  0  0  0
  -29.9580  -13.7000   20.0880 N   0  0  0  0  0  0  0  0  0  0  0  0
  -31.7850  -14.9830   19.8310 O   0  0  0  0  0  0  0  0  0  0  0  0
  -29.8620  -16.1200   20.3340 N   0  0  0  0  0  0  0  0  0  0  0  0
  -28.8900  -15.9920   20.5700 H   0  0  0  0  0  0  0  0  0  0  0  0
  -25.2380  -13.9360   20.4510 C   0  0  0  0  0  0  0  0  0  0  0  0
  -24.1880  -13.1530   20.8450 C   0  0  0  0  0  0  0  0  0  0  0  0
  -24.6580  -11.8040   20.7930 C   0  0  0  0  0  0  0  0  0  0  0  0
  -26.2790  -13.0650   20.1780 N   0  0  0  0  0  0  0  0  0  0  0  0
  -25.9410  -11.7770   20.4470 N   0  0  0  0  0  0  0  0  0  0  0  0
  -23.9440  -10.5370   20.9910 C   0  0  0  0  0  0  0  0  0  0  0  0
  -24.3930   -9.5710   21.9180 C   0  0  0  0  0  3  0  0  0  0  0  0
  -23.6760   -8.3700   22.1070 C   0  0  0  0  0  3  0  0  0  0  0  0
  -22.4940   -8.1270   21.3680 C   0  0  0  0  0  0  0  0  0  0  0  0
  -22.0630   -9.0800   20.4290 C   0  0  0  0  0  3  0  0  0  0  0  0
  -22.7810  -10.2730   20.2390 C   0  0  0  0  0  3  0  0  0  0  0  0
  -21.7470   -6.9770   21.4650 O   0  0  0  0  0  0  0  0  0  0  0  0
  -21.7050   -6.2420   22.6230 C   0  0  0  0  0  0  0  0  0  0  0  0
  -21.2580   -6.7960   23.8420 C   0  0  0  0  0  3  0  0  0  0  0  0
  -21.1650   -5.9870   24.9910 C   0  0  0  0  0  3  0  0  0  0  0  0
  -21.5110   -4.6230   24.9230 C   0  0  0  0  0  0  0  0  0  0  0  0
  -21.9530   -4.0690   23.7080 C   0  0  0  0  0  3  0  0  0  0  0  0
  -22.0460   -4.8760   22.5610 C   0  0  0  0  0  0  0  0  0  0  0  0
  -22.4520   -4.3320   21.3880 F   0  0  0  0  0  0  0  0  0  0  0  0
  -21.4160   -3.8430   26.0240 F   0  0  0  0  0  0  0  0  0  0  0  0
  -22.7970  -13.6210   21.1550 C   0  0  0  0  0  0  0  0  0  0  0  0
  -22.0930  -12.9150   22.0330 N   0  0  0  0  0  0  0  0  0  0  0  0
  -22.3410  -14.6480   20.6540 O   0  0  0  0  0  0  0  0  0  0  0  0
  -22.4750  -12.0830   22.4600 H   0  0  0  0  0  0  0  0  0  0  0  0
  -21.1610  -13.2120   22.2840 H   0  0  0  0  0  0  0  0  0  0  0  0
  -25.3880  -15.3090   20.2750 N   0  0  0  0  0  0  0  0  0  0  0  0
  -24.6160  -15.9530   20.4040 H   0  0  0  0  0  0  0  0  0  0  0  0
  -26.2080  -15.7500   19.8790 H   0  0  0  0  0  0  0  0  0  0  0  0
  -28.0460  -24.9660   20.9060 C   0  0  0  0  0  2  0  0  0  0  0  0
  -28.3210  -26.3120   20.2370 O   0  0  0  0  0  0  0  0  0  0  0  0
  -24.6320  -31.9060   23.2280 C   0  0  0  0  0  0  0  0  0  0  0  0
  -27.2620  -27.2670   20.2120 C   0  0  0  0  0  0  0  0  0  0  0  0
  -23.4460  -30.4970   21.5880 C   0  0  0  0  0  3  0  0  0  0  0  0
  -24.9110  -28.9430   20.1680 C   0  0  0  0  0  0  0  0  0  0  0  0
  -25.9920  -30.8050   21.4200 C   0  0  0  0  0  2  0  0  0  0  0  0
  -26.0830  -29.4180   20.7730 C   0  0  0  0  0  0  0  0  0  0  0  0
  -27.2640  -28.5950   20.7780 C   0  0  0  0  0  3  0  0  0  0  0  0
  -26.0680  -26.8760   19.5700 C   0  0  0  0  0  3  0  0  0  0  0  0
  -24.9130  -27.6820   19.5510 C   0  0  0  0  0  3  0  0  0  0  0  0
  -23.6730  -29.8220   20.2100 C   0  0  0  0  0  2  0  0  0  0  0  0
  -24.7090  -31.0920   22.1330 N   0  0  0  0  0  0  0  0  0  0  0  0
  -23.5450  -32.1780   23.7580 O   0  0  0  0  0  0  0  0  0  0  0  0
  -22.7810  -29.4820   22.5490 C   0  0  0  0  0  0  0  0  0  0  0  0
  -21.4540  -29.3000   22.4230 N   0  0  0  0  0  0  0  0  0  0  0  0
  -23.4580  -28.8580   23.3690 O   0  0  0  0  0  0  0  0  0  0  0  0
  -20.9630  -29.8560   21.7380 H   0  0  0  0  0  0  0  0  0  0  0  0
  -18.0770  -28.0930   22.9350 C   0  0  0  0  0  0  0  0  0  0  0  0
  -20.6380  -28.3560   23.1930 C   0  0  0  0  0  3  0  0  0  0  0  0
  -20.7380  -26.9270   22.6120 C   0  0  0  0  0  2  0  0  0  0  0  0
  -19.6320  -26.6080   21.6010 C   0  0  0  0  0  2  0  0  0  0  0  0
  -18.2520  -26.7480   22.2520 C   0  0  0  0  0  2  0  0  0  0  0  0
  -19.1970  -28.8560   23.3630 C   0  0  0  0  0  0  0  0  0  0  0  0
  -18.9800  -30.1140   23.9640 C   0  0  0  0  0  3  0  0  0  0  0  0
  -17.6740  -30.6110   24.1420 C   0  0  0  0  0  3  0  0  0  0  0  0
  -16.5690  -29.8460   23.7320 C   0  0  0  0  0  3  0  0  0  0  0  0
  -16.7720  -28.5890   23.1340 C   0  0  0  0  0  3  0  0  0  0  0  0
  -25.9060  -32.5520   23.8560 C   0  0  0  0  0  3  0  0  0  0  0  0
  -25.5870  -33.9520   24.1720 N   0  0  0  0  0  0  0  0  0  0  0  0
  -25.9170  -35.0010   23.4090 C   0  0  0  0  0  0  0  0  0  0  0  0
  -26.5890  -34.8930   22.3800 O   0  0  0  0  0  0  0  0  0  0  0  0
  -24.9900  -34.1070   24.9720 H   0  0  0  0  0  0  0  0  0  0  0  0
  -24.1870  -36.7900   23.0370 C   0  0  0  0  0  1  0  0  0  0  0  0
  -25.4240  -36.3920   23.8570 C   0  0  0  0  0  3  0  0  0  0  0  0
  -27.5500  -37.2910   24.6950 C   0  0  0  0  0  1  0  0  0  0  0  0
  -26.4550  -37.4460   23.7430 N   0  0  0  0  0  0  0  0  0  0  0  0
  -26.0450  -38.3680   23.8770 H   0  0  0  0  0  0  0  0  0  0  0  0
  -26.4120  -31.7950   25.1460 C   0  0  1  0  0  0  0  0  0  0  0  0
  -25.3100  -31.5650   26.2070 C   0  0  0  0  0  1  0  0  0  0  0  0
  -27.0050  -30.4160   24.7770 C   0  0  0  0  0  1  0  0  0  0  0  0
  -27.5530  -32.6030   25.8090 C   0  0  0  0  0  1  0  0  0  0  0  0
  1  2  1  0
  3  5  1  0
  4  1  2  0
  5 52  1  0
  5  2  2  0
  6  3  2  0
  6  4  1  0
  7  6  1  0
  8 10  1  0
  9  4  1  0
  9 10  1  0
 10 22  1  0
 11  8  1  0
 11 13  1  0
 11  9  1  0
 12 11  1  0
 14 22  1  0
 15 20  1  0
 16 17  1  0
 16 15  1  0
 18 17  1  0
 18 27  1  0
 18 19  1  0
 20 14  1  0
 20 19  1  0
 21 14  2  0
 22 23  1  0
 24 25  2  0
 25 44  1  0
 26 25  1  0
 26 29  1  0
 27 28  1  0
 27 24  1  0
 28 26  2  0
 29 30  1  0
 30 31  2  0
 32 35  1  0
 32 31  1  0
 33 32  2  0
 34 33  1  0
 34 29  2  0
 35 36  1  0
 36 37  1  0
 37 38  2  0
 39 38  1  0
 39 43  1  0
 40 39  2  0
 41 36  2  0
 41 40  1  0
 42 41  1  0
 44 45  1  0
 45 48  1  0
 45 47  1  0
 46 44  2  0
 49 50  1  0
 49 24  1  0
 51 49  1  0
 53 52  1  0
 54 65  2  0
 55 53  1  0
 55 60  1  0
 56 64  1  0
 56 66  1  0
 57 63  1  0
 57 59  1  0
 58 64  1  0
 59 60  2  0
 59 58  1  0
 61 55  2  0
 62 61  1  0
 62 57  2  0
 63 56  1  0
 64 54  1  0
 66 68  2  0
 67 66  1  0
 69 67  1  0
 70 79  2  0
 70 75  1  0
 71 67  1  0
 71 75  1  0
 72 71  1  0
 73 74  1  0
 73 72  1  0
 74 70  1  0
 75 76  2  0
 76 77  1  0
 78 77  2  0
 79 78  1  0
 80 54  1  0
 80 81  1  0
 80 90  1  0
 81 84  1  0
 82 86  1  0
 82 81  1  0
 83 82  2  0
 86 85  1  0
 88 86  1  0
 88 89  1  0
 88 87  1  0
 90 93  1  1
 90 91  1  0
 92 90  1  0
M  ISO  4  14 100  22 100  52 101  53 101
M  END
>  <TORSDO>  (4) 
F 18

>  <SCORE>  (4) 
-14.707

>  <name>  (4) 
3

>  <ligand_id>  (4) 
3

>  <original_smiles>  (4) 
[H]c1c([H])c([H])c2c(c1[H])C([H])([H])C([H])([H])C([H])([H])C2([H])N([H])C(=O)C1([H])N(C(=O)C([H])(N([H])C(=O)C([H])(N([H])C([H])([H])[H])C([H])([H])[H])C(C([H])([H])[H])(C([H])([H])[H])C([H])([H])[H])C([H])([H])c2c([H])c(OC([H])([H])c3c([H])c([H])c(C4([H])C([H])(N([H])C(=O)N5C([H])([H])C([H])([H])C([H])([H])C([H])(n6nc(-c7c([H])c([H])c(Oc8c([H])c([H])c(F)c([H])c8F)c([H])c7[H])c(C(=O)N([H])[H])c6N([H])[H])C5([H])[H])C([H])([H])[N+]4([H])[H])c(C([H])([H])[H])c3[H])c([H])c([H])c2C1([H])[H]

>  <smiles>  (4) 
[H]c1c([H])c([H])c2c(c1[H])C([H])([H])C([H])([H])C([H])([H])C2([H])N([H])C(=O)C1([H])N(C(=O)C([H])(N([H])C(=O)C([H])(N([H])C([H])([H])[H])C([H])([H])[H])C(C([H])([H])[H])(C([H])([H])[H])C([H])([H])[H])C([H])([H])c2c([H])c(OC([H])([H])c3c([H])c([H])c(C4([H])C([H])(N([H])C(=O)N5C([H])([H])C([H])([H])C([H])([H])C([H])(n6nc(-c7c([H])c([H])c(Oc8c([H])c([H])c(F)c([H])c8F)c([H])c7[H])c(C(=O)N([H])[H])c6N([H])[H])C5([H])[H])C([H])([H])[N+]4([H])[H])c(C([H])([H])[H])c3[H])c([H])c([H])c2C1([H])[H]

$$$$
4:0:0
     RDKit          3D

 94102  0  0  1  0  0  0  0  0999 V2000
  -30.8480  -20.4670   21.1780 C   0  0  0  0  0  3  0  0  0  0  0  0
  -30.6940  -21.7570   20.6340 C   0  0  0  0  0  3  0  0  0  0  0  0
  -28.7120  -19.7800   20.2050 C   0  0  0  0  0  0  0  0  0  0  0  0
  -28.5730  -21.0760   19.6340 C   0  0  0  0  0  0  0  0  0  0  0  0
  -29.8700  -19.4710   20.9660 C   0  0  0  0  0  0  0  0  0  0  0  0
  -29.5640  -22.0640   19.8500 C   0  0  0  0  0  0  0  0  0  0  0  0
  -27.6190  -18.7340   19.9730 C   0  0  0  0  0  1  0  0  0  0  0  0
  -27.3620  -21.4180   18.7710 C   0  0  0  0  0  1  0  0  0  0  0  0
  -30.0320  -18.1870   21.5080 N   0  0  0  0  0  0  0  0  0  0  0  0
  -29.1940  -17.6160   21.4850 H   0  0  0  0  0  0  0  0  0  0  0  0
  -31.2320  -17.4520   21.1260 C   0  0  0  0  0  2  0  0  0  0  0  0
  -31.3160  -16.1050   21.8650 C   0  0  0  0  0  2  0  0  0  0  0  0
  -30.7850  -14.3270   20.2030 C   0  0  0  0  0  0  0  0  0  0  0  0
  -30.3070  -12.2590   18.9390 C   0  0  0  0  0  2  0  0  0  0  0  0
  -29.3090  -12.4980   17.7920 C   0  0  0  0  0  2  0  0  0  0  0  0
  -27.8600  -12.3720   18.2980 C   0  0  0  0  0  2  0  0  0  0  0  0
  -27.6060  -13.2080   19.5800 C   0  0  0  0  0  3  0  0  0  0  0  0
  -28.7060  -12.9560   20.6350 C   0  0  0  0  0  2  0  0  0  0  0  0
  -30.0190  -13.2200   20.0150 N   0  0  0  0  0  0  0  0  0  0  0  0
  -31.7620  -14.6000   19.5010 O   0  0  0  0  0  0  0  0  0  0  0  0
  -30.4700  -15.0690   21.2730 N   0  0  0  0  0  0  0  0  0  0  0  0
  -29.6560  -14.7850   21.7970 H   0  0  0  0  0  0  0  0  0  0  0  0
  -25.2570  -13.8600   20.4120 C   0  0  0  0  0  0  0  0  0  0  0  0
  -24.1920  -13.1070   20.8260 C   0  0  0  0  0  0  0  0  0  0  0  0
  -24.6200  -11.7460   20.7570 C   0  0  0  0  0  0  0  0  0  0  0  0
  -26.2700  -12.9590   20.1200 N   0  0  0  0  0  0  0  0  0  0  0  0
  -25.8910  -11.6820   20.3810 N   0  0  0  0  0  0  0  0  0  0  0  0
  -23.8770  -10.4980   20.9700 C   0  0  0  0  0  0  0  0  0  0  0  0
  -24.3280   -9.5160   21.8800 C   0  0  0  0  0  3  0  0  0  0  0  0
  -23.5850   -8.3330   22.0820 C   0  0  0  0  0  3  0  0  0  0  0  0
  -22.3780   -8.1220   21.3760 C   0  0  0  0  0  0  0  0  0  0  0  0
  -21.9440   -9.0930   20.4560 C   0  0  0  0  0  3  0  0  0  0  0  0
  -22.6860  -10.2680   20.2520 C   0  0  0  0  0  3  0  0  0  0  0  0
  -21.6050   -6.9910   21.4870 O   0  0  0  0  0  0  0  0  0  0  0  0
  -21.5840   -6.2440   22.6370 C   0  0  0  0  0  0  0  0  0  0  0  0
  -21.2280   -6.8040   23.8840 C   0  0  0  0  0  3  0  0  0  0  0  0
  -21.1520   -5.9860   25.0280 C   0  0  0  0  0  3  0  0  0  0  0  0
  -21.4230   -4.6080   24.9300 C   0  0  0  0  0  0  0  0  0  0  0  0
  -21.7730   -4.0470   23.6890 C   0  0  0  0  0  3  0  0  0  0  0  0
  -21.8510   -4.8630   22.5460 C   0  0  0  0  0  0  0  0  0  0  0  0
  -22.1690   -4.3130   21.3480 F   0  0  0  0  0  0  0  0  0  0  0  0
  -21.3430   -3.8210   26.0280 F   0  0  0  0  0  0  0  0  0  0  0  0
  -22.8220  -13.6110   21.1750 C   0  0  0  0  0  0  0  0  0  0  0  0
  -22.1250  -12.9220   22.0710 N   0  0  0  0  0  0  0  0  0  0  0  0
  -22.3790  -14.6500   20.6880 O   0  0  0  0  0  0  0  0  0  0  0  0
  -22.4960  -12.0790   22.4850 H   0  0  0  0  0  0  0  0  0  0  0  0
  -21.2080  -13.2390   22.3470 H   0  0  0  0  0  0  0  0  0  0  0  0
  -25.4440  -15.2290   20.2420 N   0  0  0  0  0  0  0  0  0  0  0  0
  -24.6970  -15.8990   20.3910 H   0  0  0  0  0  0  0  0  0  0  0  0
  -26.2910  -15.6510   19.8810 H   0  0  0  0  0  0  0  0  0  0  0  0
  -29.4390  -23.2790   19.2170 O   0  0  0  0  0  0  0  0  0  0  0  0
  -29.7350  -24.4750   19.9460 C   0  0  0  0  0  2  0  0  0  0  0  0
  -28.5240  -25.3810   19.6760 C   0  0  0  0  0  2  0  0  0  0  0  0
  -28.6070  -26.7450   20.1210 O   0  0  0  0  0  0  0  0  0  0  0  0
  -24.5700  -31.7730   23.1760 C   0  0  0  0  0  0  0  0  0  0  0  0
  -27.4170  -27.4560   20.0840 C   0  0  0  0  0  0  0  0  0  0  0  0
  -23.4490  -30.3700   21.4800 C   0  0  0  0  0  3  0  0  0  0  0  0
  -24.9810  -28.9110   20.0660 C   0  0  0  0  0  0  0  0  0  0  0  0
  -25.9720  -30.8010   21.3590 C   0  0  0  0  0  2  0  0  0  0  0  0
  -26.1120  -29.4470   20.6930 C   0  0  0  0  0  0  0  0  0  0  0  0
  -27.3330  -28.7290   20.6990 C   0  0  0  0  0  3  0  0  0  0  0  0
  -26.2550  -26.9440   19.4520 C   0  0  0  0  0  3  0  0  0  0  0  0
  -25.0470  -27.6580   19.4440 C   0  0  0  0  0  3  0  0  0  0  0  0
  -23.7120  -29.7300   20.0930 C   0  0  0  0  0  2  0  0  0  0  0  0
  -24.6810  -30.9960   22.0630 N   0  0  0  0  0  0  0  0  0  0  0  0
  -23.4660  -32.0040   23.6910 O   0  0  0  0  0  0  0  0  0  0  0  0
  -22.8030  -29.3090   22.4010 C   0  0  0  0  0  0  0  0  0  0  0  0
  -21.4830  -29.1080   22.2490 N   0  0  0  0  0  0  0  0  0  0  0  0
  -23.4860  -28.6740   23.2080 O   0  0  0  0  0  0  0  0  0  0  0  0
  -20.9920  -29.6770   21.5740 H   0  0  0  0  0  0  0  0  0  0  0  0
  -18.1200  -27.8620   22.6840 C   0  0  0  0  0  0  0  0  0  0  0  0
  -20.6730  -28.1350   22.9810 C   0  0  0  0  0  3  0  0  0  0  0  0
  -20.7940  -26.7250   22.3580 C   0  0  0  0  0  2  0  0  0  0  0  0
  -19.7010  -26.4250   21.3260 C   0  0  0  0  0  2  0  0  0  0  0  0
  -18.3130  -26.5380   21.9640 C   0  0  0  0  0  2  0  0  0  0  0  0
  -19.2280  -28.6210   23.1450 C   0  0  0  0  0  0  0  0  0  0  0  0
  -18.9930  -29.8630   23.7730 C   0  0  0  0  0  3  0  0  0  0  0  0
  -17.6830  -30.3460   23.9450 C   0  0  0  0  0  3  0  0  0  0  0  0
  -16.5900  -29.5840   23.5000 C   0  0  0  0  0  3  0  0  0  0  0  0
  -16.8080  -28.3430   22.8760 C   0  0  0  0  0  3  0  0  0  0  0  0
  -25.8200  -32.4310   23.8420 C   0  0  0  0  0  3  0  0  0  0  0  0
  -25.4690  -33.8190   24.1660 N   0  0  0  0  0  0  0  0  0  0  0  0
  -25.8010  -34.8810   23.4200 C   0  0  0  0  0  0  0  0  0  0  0  0
  -26.5050  -34.7970   22.4100 O   0  0  0  0  0  0  0  0  0  0  0  0
  -24.8520  -33.9570   24.9530 H   0  0  0  0  0  0  0  0  0  0  0  0
  -24.0370  -36.6280   23.0150 C   0  0  0  0  0  1  0  0  0  0  0  0
  -25.2630  -36.2560   23.8640 C   0  0  0  0  0  3  0  0  0  0  0  0
  -27.3500  -37.1900   24.7600 C   0  0  0  0  0  1  0  0  0  0  0  0
  -26.2710  -37.3360   23.7860 N   0  0  0  0  0  0  0  0  0  0  0  0
  -25.8380  -38.2450   23.9300 H   0  0  0  0  0  0  0  0  0  0  0  0
  -26.3130  -31.6630   25.1300 C   0  0  1  0  0  0  0  0  0  0  0  0
  -25.1940  -31.3850   26.1590 C   0  0  0  0  0  1  0  0  0  0  0  0
  -26.9450  -30.3060   24.7460 C   0  0  0  0  0  1  0  0  0  0  0  0
  -27.4190  -32.4820   25.8350 C   0  0  0  0  0  1  0  0  0  0  0  0
  2  1  2  0
  3  5  2  0
  4  6  2  0
  4  3  1  0
  5  1  1  0
  5  9  1  0
  6  2  1  0
  7  3  1  0
  8  4  1  0
 10  9  1  0
 11  9  1  0
 11 12  1  0
 13 21  1  0
 14 19  1  0
 15 16  1  0
 15 14  1  0
 17 16  1  0
 17 26  1  0
 17 18  1  0
 19 13  1  0
 19 18  1  0
 20 13  2  0
 21 22  1  0
 21 12  1  0
 23 24  2  0
 24 43  1  0
 25 24  1  0
 25 28  1  0
 26 27  1  0
 26 23  1  0
 27 25  2  0
 28 29  1  0
 29 30  2  0
 31 34  1  0
 31 30  1  0
 32 31  2  0
 33 32  1  0
 33 28  2  0
 34 35  1  0
 35 36  1  0
 36 37  2  0
 38 37  1  0
 38 42  1  0
 39 38  2  0
 40 35  2  0
 40 39  1  0
 41 40  1  0
 43 44  1  0
 44 47  1  0
 44 46  1  0
 45 43  2  0
 48 49  1  0
 48 23  1  0
 50 48  1  0
 51  6  1  0
 51 52  1  0
 53 52  1  0
 53 54  1  0
 55 66  2  0
 56 54  1  0
 56 61  1  0
 57 65  1  0
 57 67  1  0
 58 64  1  0
 58 60  1  0
 59 65  1  0
 60 61  2  0
 60 59  1  0
 62 56  2  0
 63 62  1  0
 63 58  2  0
 64 57  1  0
 65 55  1  0
 67 69  2  0
 68 67  1  0
 70 68  1  0
 71 80  2  0
 71 76  1  0
 72 68  1  0
 72 76  1  0
 73 72  1  0
 74 75  1  0
 74 73  1  0
 75 71  1  0
 76 77  2  0
 77 78  1  0
 79 78  2  0
 80 79  1  0
 81 55  1  0
 81 82  1  0
 81 91  1  0
 82 85  1  0
 83 87  1  0
 83 82  1  0
 84 83  2  0
 87 86  1  0
 89 87  1  0
 89 90  1  0
 89 88  1  0
 91 94  1  1
 91 92  1  0
 93 91  1  0
M  ISO  4  13 100  21 100  53 101  54 101
M  END
>  <TORSDO>  (5) 
F 22

>  <SCORE>  (5) 
-13.296

>  <name>  (5) 
4

>  <ligand_id>  (5) 
4

>  <original_smiles>  (5) 
[H]c1c([H])c([H])c2c(c1[H])C([H])([H])C([H])([H])C([H])([H])C2([H])N([H])C(=O)C1([H])N(C(=O)C([H])(N([H])C(=O)C([H])(N([H])C([H])([H])[H])C([H])([H])[H])C(C([H])([H])[H])(C([H])([H])[H])C([H])([H])[H])C([H])([H])c2c([H])c(OC([H])([H])C([H])([H])Oc3c([H])c([H])c(N([H])C([H])([H])C([H])([H])N([H])C(=O)N4C([H])([H])C([H])([H])C([H])([H])C([H])(n5nc(-c6c([H])c([H])c(Oc7c([H])c([H])c(F)c([H])c7F)c([H])c6[H])c(C(=O)N([H])[H])c5N([H])[H])C4([H])[H])c(C([H])([H])[H])c3C([H])([H])[H])c([H])c([H])c2C1([H])[H]

>  <smiles>  (5) 
[H]c1c([H])c([H])c2c(c1[H])C([H])([H])C([H])([H])C([H])([H])C2([H])N([H])C(=O)C1([H])N(C(=O)C([H])(N([H])C(=O)C([H])(N([H])C([H])([H])[H])C([H])([H])[H])C(C([H])([H])[H])(C([H])([H])[H])C([H])([H])[H])C([H])([H])c2c([H])c(OC([H])([H])C([H])([H])Oc3c([H])c([H])c(N([H])C([H])([H])C([H])([H])N([H])C(=O)N4C([H])([H])C([H])([H])C([H])([H])C([H])(n5nc(-c6c([H])c([H])c(Oc7c([H])c([H])c(F)c([H])c7F)c([H])c6[H])c(C(=O)N([H])[H])c5N([H])[H])C4([H])[H])c(C([H])([H])[H])c3C([H])([H])[H])c([H])c([H])c2C1([H])[H]

$$$$
5:0:0
     RDKit          3D

 90 98  0  0  1  0  0  0  0  0999 V2000
  -30.1210  -23.5040   17.3550 C   0  0  0  0  0  3  0  0  0  0  0  0
  -30.4410  -22.1520   17.4100 C   0  0  0  0  0  3  0  0  0  0  0  0
  -29.3940  -24.0840   18.3980 C   0  0  0  0  0  3  0  0  0  0  0  0
  -30.0210  -21.3810   18.4990 C   0  0  0  0  0  3  0  0  0  0  0  0
  -28.9350  -23.3900   19.5480 C   0  0  0  0  0  0  0  0  0  0  0  0
  -29.2620  -21.8720   19.5980 C   0  0  0  0  0  0  0  0  0  0  0  0
  -29.0560  -20.7040   20.5120 N   0  0  0  0  0  0  0  0  0  0  0  0
  -28.6370  -20.9510   21.4080 H   0  0  0  0  0  0  0  0  0  0  0  0
  -28.9350  -19.1440   20.1720 C   0  0  0  0  0  3  0  0  0  0  0  0
  -30.0220  -17.8560   20.5150 C   0  0  0  0  0  3  0  0  0  0  0  0
  -30.4800  -15.0730   20.3170 C   0  0  0  0  0  0  0  0  0  0  0  0
  -30.3890  -12.7010   19.3710 C   0  0  0  0  0  2  0  0  0  0  0  0
  -29.4450  -12.6170   18.1490 C   0  0  0  0  0  2  0  0  0  0  0  0
  -27.9920  -12.3790   18.5990 C   0  0  0  0  0  2  0  0  0  0  0  0
  -27.5810  -13.3020   19.7750 C   0  0  0  0  0  3  0  0  0  0  0  0
  -28.6490  -13.3490   20.8890 C   0  0  0  0  0  2  0  0  0  0  0  0
  -29.8960  -13.8000   20.2590 N   0  0  0  0  0  0  0  0  0  0  0  0
  -31.6890  -15.1240   20.0600 O   0  0  0  0  0  0  0  0  0  0  0  0
  -29.7010  -16.2780   20.4590 N   0  0  0  0  0  0  0  0  0  0  0  0
  -28.7220  -16.0750   20.5930 H   0  0  0  0  0  0  0  0  0  0  0  0
  -25.2090  -13.8570   20.5470 C   0  0  0  0  0  0  0  0  0  0  0  0
  -24.1550  -13.0720   20.9260 C   0  0  0  0  0  0  0  0  0  0  0  0
  -24.6300  -11.7250   20.8850 C   0  0  0  0  0  0  0  0  0  0  0  0
  -26.2550  -12.9880   20.2900 N   0  0  0  0  0  0  0  0  0  0  0  0
  -25.9180  -11.6990   20.5610 N   0  0  0  0  0  0  0  0  0  0  0  0
  -23.9130  -10.4580   21.0760 C   0  0  0  0  0  0  0  0  0  0  0  0
  -24.3640   -9.4840   21.9940 C   0  0  0  0  0  3  0  0  0  0  0  0
  -23.6450   -8.2820   22.1740 C   0  0  0  0  0  3  0  0  0  0  0  0
  -22.4600   -8.0460   21.4360 C   0  0  0  0  0  0  0  0  0  0  0  0
  -22.0280   -9.0090   20.5080 C   0  0  0  0  0  3  0  0  0  0  0  0
  -22.7480  -10.2010   20.3260 C   0  0  0  0  0  3  0  0  0  0  0  0
  -21.7110   -6.8980   21.5270 O   0  0  0  0  0  0  0  0  0  0  0  0
  -21.6940   -6.1380   22.6700 C   0  0  0  0  0  0  0  0  0  0  0  0
  -21.2990   -6.6740   23.9150 C   0  0  0  0  0  3  0  0  0  0  0  0
  -21.2280   -5.8410   25.0490 C   0  0  0  0  0  3  0  0  0  0  0  0
  -21.5440   -4.4740   24.9400 C   0  0  0  0  0  0  0  0  0  0  0  0
  -21.9320   -3.9370   23.7000 C   0  0  0  0  0  3  0  0  0  0  0  0
  -22.0040   -4.7670   22.5680 C   0  0  0  0  0  0  0  0  0  0  0  0
  -22.3590   -4.2410   21.3710 F   0  0  0  0  0  0  0  0  0  0  0  0
  -21.4690   -3.6710   26.0270 F   0  0  0  0  0  0  0  0  0  0  0  0
  -22.7570  -13.5400   21.2070 C   0  0  0  0  0  0  0  0  0  0  0  0
  -22.0390  -12.8370   22.0750 N   0  0  0  0  0  0  0  0  0  0  0  0
  -22.3110  -14.5640   20.6920 O   0  0  0  0  0  0  0  0  0  0  0  0
  -22.4140  -12.0090   22.5140 H   0  0  0  0  0  0  0  0  0  0  0  0
  -21.1010  -13.1320   22.3070 H   0  0  0  0  0  0  0  0  0  0  0  0
  -25.3590  -15.2290   20.3700 N   0  0  0  0  0  0  0  0  0  0  0  0
  -24.5800  -15.8700   20.4790 H   0  0  0  0  0  0  0  0  0  0  0  0
  -26.1830  -15.6720   19.9850 H   0  0  0  0  0  0  0  0  0  0  0  0
  -28.1110  -24.5380   20.4270 C   0  0  0  0  0  2  0  0  0  0  0  0
  -28.2710  -26.1090   20.1960 O   0  0  0  0  0  0  0  0  0  0  0  0
  -24.6200  -31.8570   23.1940 C   0  0  0  0  0  0  0  0  0  0  0  0
  -27.1990  -27.0930   20.1850 C   0  0  0  0  0  0  0  0  0  0  0  0
  -23.4200  -30.4460   21.5690 C   0  0  0  0  0  3  0  0  0  0  0  0
  -24.8680  -28.8590   20.1480 C   0  0  0  0  0  0  0  0  0  0  0  0
  -25.9750  -30.7110   21.3900 C   0  0  0  0  0  2  0  0  0  0  0  0
  -26.0510  -29.3090   20.7480 C   0  0  0  0  0  0  0  0  0  0  0  0
  -27.2180  -28.4450   20.7390 C   0  0  0  0  0  3  0  0  0  0  0  0
  -25.9860  -26.7550   19.5490 C   0  0  0  0  0  3  0  0  0  0  0  0
  -24.8510  -27.5990   19.5310 C   0  0  0  0  0  3  0  0  0  0  0  0
  -23.6390  -29.7580   20.1940 C   0  0  0  0  0  2  0  0  0  0  0  0
  -24.6920  -31.0280   22.1060 N   0  0  0  0  0  0  0  0  0  0  0  0
  -23.5350  -32.1390   23.7250 O   0  0  0  0  0  0  0  0  0  0  0  0
  -22.7470  -29.4440   22.5420 C   0  0  0  0  0  0  0  0  0  0  0  0
  -21.4190  -29.2690   22.4240 N   0  0  0  0  0  0  0  0  0  0  0  0
  -23.4250  -28.8250   23.3660 O   0  0  0  0  0  0  0  0  0  0  0  0
  -20.9270  -29.8190   21.7330 H   0  0  0  0  0  0  0  0  0  0  0  0
  -18.0460  -28.0500   22.9510 C   0  0  0  0  0  0  0  0  0  0  0  0
  -20.6050  -28.3330   23.2050 C   0  0  0  0  0  3  0  0  0  0  0  0
  -20.7130  -26.8970   22.6400 C   0  0  0  0  0  2  0  0  0  0  0  0
  -19.6090  -26.5600   21.6320 C   0  0  0  0  0  2  0  0  0  0  0  0
  -18.2300  -26.6990   22.2810 C   0  0  0  0  0  2  0  0  0  0  0  0
  -19.1610  -28.8240   23.3700 C   0  0  0  0  0  0  0  0  0  0  0  0
  -18.9340  -30.0870   23.9590 C   0  0  0  0  0  3  0  0  0  0  0  0
  -17.6250  -30.5780   24.1310 C   0  0  0  0  0  3  0  0  0  0  0  0
  -16.5260  -29.8020   23.7260 C   0  0  0  0  0  3  0  0  0  0  0  0
  -16.7370  -28.5400   23.1420 C   0  0  0  0  0  3  0  0  0  0  0  0
  -25.8960  -32.5040   23.8130 C   0  0  0  0  0  3  0  0  0  0  0  0
  -26.4210  -31.7380   25.0910 C   0  0  1  0  0  0  0  0  0  0  0  0
  -25.3350  -31.4990   26.1650 C   0  0  0  0  0  1  0  0  0  0  0  0
  -27.0100  -30.3620   24.7040 C   0  0  0  0  0  1  0  0  0  0  0  0
  -27.5720  -32.5410   25.7440 C   0  0  0  0  0  1  0  0  0  0  0  0
  -25.5730  -33.9000   24.1520 N   0  0  0  0  0  0  0  0  0  0  0  0
  -25.8940  -34.9640   23.4030 C   0  0  0  0  0  0  0  0  0  0  0  0
  -26.5580  -34.8740   22.3680 O   0  0  0  0  0  0  0  0  0  0  0  0
  -24.9800  -34.0420   24.9570 H   0  0  0  0  0  0  0  0  0  0  0  0
  -24.1540  -36.7540   23.0780 C   0  0  0  0  0  1  0  0  0  0  0  0
  -25.4030  -36.3460   23.8780 C   0  0  0  0  0  3  0  0  0  0  0  0
  -27.5370  -37.2380   24.7030 C   0  0  0  0  0  1  0  0  0  0  0  0
  -26.4290  -37.4060   23.7680 N   0  0  0  0  0  0  0  0  0  0  0  0
  -26.0190  -38.3240   23.9250 H   0  0  0  0  0  0  0  0  0  0  0  0
  1  2  2  0
  1  3  1  0
  2  4  1  0
  3  5  2  0
  4  6  2  0
  5  6  1  0
  5 49  1  0
  6  7  1  0
  7  8  1  0
  9  7  1  0
  9 10  2  0
 11 19  1  0
 12 17  1  0
 13 14  1  0
 13 12  1  0
 15 14  1  0
 15 24  1  0
 15 16  1  0
 17 11  1  0
 17 16  1  0
 18 11  2  0
 19 10  1  0
 19 20  1  0
 21 22  2  0
 22 41  1  0
 23 22  1  0
 23 26  1  0
 24 21  1  0
 24 25  1  0
 25 23  2  0
 26 27  1  0
 27 28  2  0
 29 32  1  0
 29 28  1  0
 30 29  2  0
 31 30  1  0
 31 26  2  0
 32 33  1  0
 33 34  1  0
 34 35  2  0
 36 35  1  0
 36 40  1  0
 37 36  2  0
 38 33  2  0
 38 37  1  0
 39 38  1  0
 41 42  1  0
 42 45  1  0
 42 44  1  0
 43 41  2  0
 46 47  1  0
 46 21  1  0
 48 46  1  0
 50 49  1  0
 51 62  2  0
 52 50  1  0
 52 57  1  0
 53 61  1  0
 53 63  1  0
 54 60  1  0
 54 56  1  0
 55 61  1  0
 56 55  1  0
 57 56  2  0
 58 52  2  0
 59 58  1  0
 59 54  2  0
 60 53  1  0
 61 51  1  0
 63 65  2  0
 64 63  1  0
 66 64  1  0
 67 76  2  0
 67 72  1  0
 68 64  1  0
 68 72  1  0
 69 68  1  0
 70 71  1  0
 70 69  1  0
 71 67  1  0
 72 73  2  0
 73 74  1  0
 75 74  2  0
 76 75  1  0
 77 51  1  0
 77 82  1  0
 77 78  1  0
 78 81  1  1
 78 79  1  0
 80 78  1  0
 82 85  1  0
 83 87  1  0
 83 82  1  0
 84 83  2  0
 87 86  1  0
 89 87  1  0
 89 90  1  0
 89 88  1  0
M  ISO  4  11 100  19 100  49 101  50 101
M  END
>  <TORSDO>  (6) 
F 20

>  <SCORE>  (6) 
-14.430

>  <name>  (6) 
5

>  <ligand_id>  (6) 
5

>  <original_smiles>  (6) 
[H]c1c([H])c([H])c(C([H])([H])Oc2c([H])c([H])c3c(c2[H])C([H])([H])N(C(=O)C([H])(N([H])C(=O)C([H])(N([H])C([H])([H])[H])C([H])([H])[H])C(C([H])([H])[H])(C([H])([H])[H])C([H])([H])[H])C([H])(C(=O)N([H])C2([H])c4c([H])c([H])c([H])c([H])c4C([H])([H])C([H])([H])C2([H])[H])C3([H])[H])c(N([H])C([H])([H])C([H])([H])N([H])C(=O)N2C([H])([H])C([H])([H])C([H])([H])C([H])(n3nc(-c4c([H])c([H])c(Oc5c([H])c([H])c(F)c([H])c5F)c([H])c4[H])c(C(=O)N([H])[H])c3N([H])[H])C2([H])[H])c1[H]

>  <smiles>  (6) 
[H]c1c([H])c([H])c(C([H])([H])Oc2c([H])c([H])c3c(c2[H])C([H])([H])N(C(=O)C([H])(N([H])C(=O)C([H])(N([H])C([H])([H])[H])C([H])([H])[H])C(C([H])([H])[H])(C([H])([H])[H])C([H])([H])[H])C([H])(C(=O)N([H])C2([H])c4c([H])c([H])c([H])c([H])c4C([H])([H])C([H])([H])C2([H])[H])C3([H])[H])c(N([H])C([H])([H])C([H])([H])N([H])C(=O)N2C([H])([H])C([H])([H])C([H])([H])C([H])(n3nc(-c4c([H])c([H])c(Oc5c([H])c([H])c(F)c([H])c5F)c([H])c4[H])c(C(=O)N([H])[H])c3N([H])[H])C2([H])[H])c1[H]

$$$$
6:0:0
     RDKit          3D

 91 99  0  0  1  0  0  0  0  0999 V2000
  -28.7780  -20.9010   20.6040 N   0  0  0  0  0  0  0  0  0  0  0  0
  -28.1230  -20.6580   21.3390 H   0  0  0  0  0  0  0  0  0  0  0  0
  -30.6060  -14.7890   20.3470 C   0  0  0  0  0  0  0  0  0  0  0  0
  -30.3940  -12.5040   19.3590 C   0  0  0  0  0  2  0  0  0  0  0  0
  -29.4650  -12.5850   18.1280 C   0  0  0  0  0  2  0  0  0  0  0  0
  -27.9930  -12.4050   18.5490 C   0  0  0  0  0  2  0  0  0  0  0  0
  -27.6120  -13.2850   19.7700 C   0  0  0  0  0  3  0  0  0  0  0  0
  -28.6690  -13.2190   20.8930 C   0  0  0  0  0  2  0  0  0  0  0  0
  -29.9680  -13.5650   20.3050 N   0  0  0  0  0  0  0  0  0  0  0  0
  -31.8000  -14.8440   20.0390 O   0  0  0  0  0  0  0  0  0  0  0  0
  -30.8460  -17.5600   18.9840 C   0  0  0  0  0  3  0  0  0  0  0  0
  -30.3750  -19.9450   19.0050 C   0  0  0  0  0  3  0  0  0  0  0  0
  -31.0180  -18.8400   18.4200 C   0  0  0  0  0  0  0  0  0  0  0  0
  -30.0310  -17.3520   20.1200 C   0  0  0  0  0  0  0  0  0  0  0  0
  -29.5380  -19.7690   20.1130 C   0  0  0  0  0  0  0  0  0  0  0  0
  -31.8450  -19.0200   17.1620 C   0  0  0  0  0  1  0  0  0  0  0  0
  -29.3770  -18.4830   20.6410 N   0  0  0  0  0  0  0  0  0  0  0  0
  -29.8500  -15.9420   20.5790 N   0  0  0  0  0  0  0  0  0  0  0  0
  -28.9540  -15.7600   20.9980 H   0  0  0  0  0  0  0  0  0  0  0  0
  -25.2250  -13.8560   20.5050 C   0  0  0  0  0  0  0  0  0  0  0  0
  -24.1630  -13.0770   20.8790 C   0  0  0  0  0  0  0  0  0  0  0  0
  -24.6350  -11.7290   20.8500 C   0  0  0  0  0  0  0  0  0  0  0  0
  -26.2730  -12.9830   20.2650 N   0  0  0  0  0  0  0  0  0  0  0  0
  -25.9240  -11.6970   20.5350 N   0  0  0  0  0  0  0  0  0  0  0  0
  -23.9140  -10.4630   21.0410 C   0  0  0  0  0  0  0  0  0  0  0  0
  -24.3560   -9.4930   21.9690 C   0  0  0  0  0  3  0  0  0  0  0  0
  -23.6360   -8.2920   22.1490 C   0  0  0  0  0  3  0  0  0  0  0  0
  -22.4570   -8.0540   21.4050 C   0  0  0  0  0  0  0  0  0  0  0  0
  -22.0340   -9.0110   20.4650 C   0  0  0  0  0  3  0  0  0  0  0  0
  -22.7550  -10.2020   20.2820 C   0  0  0  0  0  3  0  0  0  0  0  0
  -21.7040   -6.9070   21.4950 O   0  0  0  0  0  0  0  0  0  0  0  0
  -21.6730   -6.1560   22.6420 C   0  0  0  0  0  0  0  0  0  0  0  0
  -21.2650   -6.7020   23.8800 C   0  0  0  0  0  3  0  0  0  0  0  0
  -21.1800   -5.8760   25.0190 C   0  0  0  0  0  3  0  0  0  0  0  0
  -21.4910   -4.5060   24.9220 C   0  0  0  0  0  0  0  0  0  0  0  0
  -21.8930   -3.9610   23.6900 C   0  0  0  0  0  3  0  0  0  0  0  0
  -21.9800   -4.7830   22.5530 C   0  0  0  0  0  0  0  0  0  0  0  0
  -22.3440   -4.2470   21.3640 F   0  0  0  0  0  0  0  0  0  0  0  0
  -21.4060   -3.7120   26.0150 F   0  0  0  0  0  0  0  0  0  0  0  0
  -22.7630  -13.5470   21.1520 C   0  0  0  0  0  0  0  0  0  0  0  0
  -22.0350  -12.8470   22.0170 N   0  0  0  0  0  0  0  0  0  0  0  0
  -22.3190  -14.5670   20.6290 O   0  0  0  0  0  0  0  0  0  0  0  0
  -22.4040  -12.0220   22.4650 H   0  0  0  0  0  0  0  0  0  0  0  0
  -21.0940  -13.1430   22.2360 H   0  0  0  0  0  0  0  0  0  0  0  0
  -25.3830  -15.2260   20.3270 N   0  0  0  0  0  0  0  0  0  0  0  0
  -24.6180  -15.8850   20.4290 H   0  0  0  0  0  0  0  0  0  0  0  0
  -26.2280  -15.6590   19.9730 H   0  0  0  0  0  0  0  0  0  0  0  0
  -29.2200  -22.3640   20.6560 C   0  0  0  0  0  2  0  0  0  0  0  0
  -28.2490  -23.5840   20.1630 C   0  0  0  0  0  2  0  0  0  0  0  0
  -28.3050  -25.0540   20.8790 C   0  0  0  0  0  2  0  0  0  0  0  0
  -28.3330  -26.4010   20.2030 O   0  0  0  0  0  0  0  0  0  0  0  0
  -24.6070  -31.8830   23.2440 C   0  0  0  0  0  0  0  0  0  0  0  0
  -27.2180  -27.2640   20.2320 C   0  0  0  0  0  0  0  0  0  0  0  0
  -23.4110  -30.4780   21.6040 C   0  0  0  0  0  3  0  0  0  0  0  0
  -24.8650  -28.9100   20.1940 C   0  0  0  0  0  0  0  0  0  0  0  0
  -25.9540  -30.7820   21.4280 C   0  0  0  0  0  2  0  0  0  0  0  0
  -26.0350  -29.3920   20.7960 C   0  0  0  0  0  0  0  0  0  0  0  0
  -27.2150  -28.5810   20.8040 C   0  0  0  0  0  3  0  0  0  0  0  0
  -26.0270  -26.8390   19.6100 C   0  0  0  0  0  3  0  0  0  0  0  0
  -24.8660  -27.6390   19.5930 C   0  0  0  0  0  3  0  0  0  0  0  0
  -23.6320  -29.7940   20.2300 C   0  0  0  0  0  2  0  0  0  0  0  0
  -24.6780  -31.0670   22.1490 N   0  0  0  0  0  0  0  0  0  0  0  0
  -23.5200  -32.1600   23.7720 O   0  0  0  0  0  0  0  0  0  0  0  0
  -22.7440  -29.4650   22.5650 C   0  0  0  0  0  0  0  0  0  0  0  0
  -21.4160  -29.2920   22.4380 N   0  0  0  0  0  0  0  0  0  0  0  0
  -23.4190  -28.8390   23.3860 O   0  0  0  0  0  0  0  0  0  0  0  0
  -20.9280  -29.8520   21.7540 H   0  0  0  0  0  0  0  0  0  0  0  0
  -18.0380  -28.0980   22.9310 C   0  0  0  0  0  0  0  0  0  0  0  0
  -20.5960  -28.3530   23.2060 C   0  0  0  0  0  3  0  0  0  0  0  0
  -20.6970  -26.9220   22.6270 C   0  0  0  0  0  2  0  0  0  0  0  0
  -19.5960  -26.6040   21.6110 C   0  0  0  0  0  2  0  0  0  0  0  0
  -18.2130  -26.7500   22.2530 C   0  0  0  0  0  2  0  0  0  0  0  0
  -19.1570  -28.8580   23.3630 C   0  0  0  0  0  0  0  0  0  0  0  0
  -18.9370  -30.1210   23.9560 C   0  0  0  0  0  3  0  0  0  0  0  0
  -17.6320  -30.6220   24.1220 C   0  0  0  0  0  3  0  0  0  0  0  0
  -16.5280  -29.8580   23.7060 C   0  0  0  0  0  3  0  0  0  0  0  0
  -16.7320  -28.5980   23.1150 C   0  0  0  0  0  3  0  0  0  0  0  0
  -25.8840  -32.5180   23.8730 C   0  0  0  0  0  3  0  0  0  0  0  0
  -26.3930  -31.7480   25.1530 C   0  0  1  0  0  0  0  0  0  0  0  0
  -25.2960  -31.5110   26.2180 C   0  0  0  0  0  1  0  0  0  0  0  0
  -26.9750  -30.3710   24.7620 C   0  0  0  0  0  1  0  0  0  0  0  0
  -27.5430  -32.5420   25.8180 C   0  0  0  0  0  1  0  0  0  0  0  0
  -25.5720  -33.9170   24.2020 N   0  0  0  0  0  0  0  0  0  0  0  0
  -25.9010  -34.9710   23.4430 C   0  0  0  0  0  0  0  0  0  0  0  0
  -26.5700  -34.8680   22.4100 O   0  0  0  0  0  0  0  0  0  0  0  0
  -24.9790  -34.0690   25.0060 H   0  0  0  0  0  0  0  0  0  0  0  0
  -24.1700  -36.7630   23.0920 C   0  0  0  0  0  1  0  0  0  0  0  0
  -25.4140  -36.3600   23.9000 C   0  0  0  0  0  3  0  0  0  0  0  0
  -27.5510  -37.2500   24.7240 C   0  0  0  0  0  1  0  0  0  0  0  0
  -26.4470  -37.4150   23.7820 N   0  0  0  0  0  0  0  0  0  0  0  0
  -26.0400  -38.3350   23.9300 H   0  0  0  0  0  0  0  0  0  0  0  0
  1 48  1  0
  1  2  1  0
  3 18  1  0
  4  9  1  0
  5  6  1  0
  5  4  1  0
  7  6  1  0
  7 23  1  0
  7  8  1  0
  9  3  1  0
  9  8  1  0
 10  3  2  0
 11 14  1  0
 12 15  2  0
 13 11  2  0
 13 12  1  0
 14 18  1  0
 14 17  2  0
 15  1  1  0
 15 17  1  0
 16 13  1  0
 18 19  1  0
 20 21  2  0
 21 40  1  0
 22 21  1  0
 22 25  1  0
 23 20  1  0
 23 24  1  0
 24 22  2  0
 25 26  1  0
 26 27  2  0
 28 31  1  0
 28 27  1  0
 29 28  2  0
 30 29  1  0
 30 25  2  0
 31 32  1  0
 32 33  1  0
 33 34  2  0
 35 34  1  0
 35 39  1  0
 36 35  2  0
 37 32  2  0
 37 36  1  0
 38 37  1  0
 40 41  1  0
 41 44  1  0
 41 43  1  0
 42 40  2  0
 45 46  1  0
 45 20  1  0
 47 45  1  0
 49 48  1  0
 49 50  1  0
 51 53  1  0
 51 50  1  0
 52 63  2  0
 53 58  1  0
 54 62  1  0
 54 64  1  0
 55 61  1  0
 55 57  1  0
 56 62  1  0
 57 58  2  0
 57 56  1  0
 59 53  2  0
 60 59  1  0
 60 55  2  0
 61 54  1  0
 62 52  1  0
 64 66  2  0
 65 64  1  0
 67 65  1  0
 68 77  2  0
 68 73  1  0
 69 65  1  0
 69 73  1  0
 70 69  1  0
 71 72  1  0
 71 70  1  0
 72 68  1  0
 73 74  2  0
 74 75  1  0
 76 75  2  0
 77 76  1  0
 78 52  1  0
 78 83  1  0
 78 79  1  0
 79 82  1  1
 79 80  1  0
 81 79  1  0
 83 86  1  0
 84 88  1  0
 84 83  1  0
 85 84  2  0
 88 87  1  0
 90 88  1  0
 90 91  1  0
 90 89  1  0
M  ISO  4   3 100  18 100  50 101  51 101
M  END
>  <TORSDO>  (7) 
F 19

>  <SCORE>  (7) 
-14.286

>  <name>  (7) 
6

>  <ligand_id>  (7) 
6

>  <original_smiles>  (7) 
[H]c1c([H])c([H])c2c(c1[H])C([H])([H])C([H])([H])C([H])([H])C2([H])N([H])C(=O)C1([H])N(C(=O)C([H])(N([H])C(=O)C([H])(N([H])C([H])([H])[H])C([H])([H])[H])C(C([H])([H])[H])(C([H])([H])[H])C([H])([H])[H])C([H])([H])c2c([H])c(OC([H])([H])C([H])([H])C([H])([H])N([H])c3nc(N([H])C(=O)N4C([H])([H])C([H])([H])C([H])([H])C([H])(n5nc(-c6c([H])c([H])c(Oc7c([H])c([H])c(F)c([H])c7F)c([H])c6[H])c(C(=O)N([H])[H])c5N([H])[H])C4([H])[H])c([H])c(C([H])([H])[H])c3[H])c([H])c([H])c2C1([H])[H]

>  <smiles>  (7) 
[H]c1c([H])c([H])c2c(c1[H])C([H])([H])C([H])([H])C([H])([H])C2([H])N([H])C(=O)C1([H])N(C(=O)C([H])(N([H])C(=O)C([H])(N([H])C([H])([H])[H])C([H])([H])[H])C(C([H])([H])[H])(C([H])([H])[H])C([H])([H])[H])C([H])([H])c2c([H])c(OC([H])([H])C([H])([H])C([H])([H])N([H])c3nc(N([H])C(=O)N4C([H])([H])C([H])([H])C([H])([H])C([H])(n5nc(-c6c([H])c([H])c(Oc7c([H])c([H])c(F)c([H])c7F)c([H])c6[H])c(C(=O)N([H])[H])c5N([H])[H])C4([H])[H])c([H])c(C([H])([H])[H])c3[H])c([H])c([H])c2C1([H])[H]

$$$$
7:0:0
     RDKit          3D

 98106  0  0  1  0  0  0  0  0999 V2000
  -27.1990  -21.8750   18.7820 C   0  0  0  0  0  1  0  0  0  0  0  0
  -28.5270  -22.0490   19.5470 C   0  0  0  0  0  3  0  0  0  0  0  0
  -31.2860  -19.4360   20.4020 C   0  0  0  0  0  3  0  0  0  0  0  0
  -29.1610  -18.2820   20.4020 C   0  0  0  0  0  3  0  0  0  0  0  0
  -30.5580  -18.2430   20.5840 C   0  0  0  0  0  0  0  0  0  0  0  0
  -30.6450  -20.6500   20.0640 C   0  0  0  0  0  0  0  0  0  0  0  0
  -29.2310  -20.7030   19.8970 C   0  0  0  0  0  0  0  0  0  0  0  0
  -28.4890  -19.4960   20.0840 C   0  0  0  0  0  0  0  0  0  0  0  0
  -31.5170  -21.8890   19.9150 C   0  0  0  0  0  1  0  0  0  0  0  0
  -26.3870  -18.3860   19.6820 C   0  0  0  0  0  1  0  0  0  0  0  0
  -27.1160  -19.5660   19.9940 O   0  0  0  0  0  0  0  0  0  0  0  0
  -31.2670  -16.9840   21.1100 C   0  0  0  0  0  2  0  0  0  0  0  0
  -31.2690  -14.6220   20.2770 C   0  0  0  0  0  0  0  0  0  0  0  0
  -30.9320  -12.3800   19.2910 C   0  0  0  0  0  2  0  0  0  0  0  0
  -30.0070  -12.4890   18.0640 C   0  0  0  0  0  2  0  0  0  0  0  0
  -28.5280  -12.4030   18.4890 C   0  0  0  0  0  2  0  0  0  0  0  0
  -28.1880  -13.3530   19.6690 C   0  0  0  0  0  3  0  0  0  0  0  0
  -29.2300  -13.2270   20.8040 C   0  0  0  0  0  2  0  0  0  0  0  0
  -30.5610  -13.4590   20.2230 N   0  0  0  0  0  0  0  0  0  0  0  0
  -32.3920  -14.7350   19.7800 O   0  0  0  0  0  0  0  0  0  0  0  0
  -30.6440  -15.6780   20.8310 N   0  0  0  0  0  0  0  0  0  0  0  0
  -29.7140  -15.5220   21.1870 H   0  0  0  0  0  0  0  0  0  0  0  0
  -25.8240  -14.0620   20.3930 C   0  0  0  0  0  0  0  0  0  0  0  0
  -24.7230  -13.3370   20.7620 C   0  0  0  0  0  0  0  0  0  0  0  0
  -25.1230  -11.9660   20.7220 C   0  0  0  0  0  0  0  0  0  0  0  0
  -26.8270  -13.1360   20.1530 N   0  0  0  0  0  0  0  0  0  0  0  0
  -26.4090  -11.8700   20.4090 N   0  0  0  0  0  0  0  0  0  0  0  0
  -24.3410  -10.7370   20.9080 C   0  0  0  0  0  0  0  0  0  0  0  0
  -24.6970   -9.7730   21.8770 C   0  0  0  0  0  3  0  0  0  0  0  0
  -23.9180   -8.6090   22.0480 C   0  0  0  0  0  3  0  0  0  0  0  0
  -22.7690   -8.3990   21.2500 C   0  0  0  0  0  0  0  0  0  0  0  0
  -22.4320   -9.3500   20.2700 C   0  0  0  0  0  3  0  0  0  0  0  0
  -23.2110  -10.5060   20.0970 C   0  0  0  0  0  3  0  0  0  0  0  0
  -21.9670   -7.2860   21.3290 O   0  0  0  0  0  0  0  0  0  0  0  0
  -21.7920   -6.6070   22.5070 C   0  0  0  0  0  0  0  0  0  0  0  0
  -21.2850   -7.2410   23.6640 C   0  0  0  0  0  3  0  0  0  0  0  0
  -21.0550   -6.4900   24.8340 C   0  0  0  0  0  3  0  0  0  0  0  0
  -21.3210   -5.1080   24.8490 C   0  0  0  0  0  0  0  0  0  0  0  0
  -21.8210   -4.4750   23.6970 C   0  0  0  0  0  3  0  0  0  0  0  0
  -22.0520   -5.2220   22.5300 C   0  0  0  0  0  0  0  0  0  0  0  0
  -22.5140   -4.6040   21.4170 F   0  0  0  0  0  0  0  0  0  0  0  0
  -21.0940   -4.3850   25.9700 F   0  0  0  0  0  0  0  0  0  0  0  0
  -23.3500  -13.8750   21.0420 C   0  0  0  0  0  0  0  0  0  0  0  0
  -22.5990  -13.2170   21.9170 N   0  0  0  0  0  0  0  0  0  0  0  0
  -22.9540  -14.9160   20.5190 O   0  0  0  0  0  0  0  0  0  0  0  0
  -22.9310  -12.3720   22.3590 H   0  0  0  0  0  0  0  0  0  0  0  0
  -21.6780  -13.5620   22.1470 H   0  0  0  0  0  0  0  0  0  0  0  0
  -26.0490  -15.4240   20.2170 N   0  0  0  0  0  0  0  0  0  0  0  0
  -25.2990  -16.1010   20.2990 H   0  0  0  0  0  0  0  0  0  0  0  0
  -26.9040  -15.8160   19.8460 H   0  0  0  0  0  0  0  0  0  0  0  0
  -28.4050  -22.9690   20.7950 C   0  0  0  0  0  2  0  0  0  0  0  0
  -27.7870  -24.4020   20.6320 C   0  0  0  0  0  3  0  0  0  0  0  0
  -26.5990  -24.6890   22.8280 C   0  0  0  0  0  1  0  0  0  0  0  0
  -27.7270  -25.0810   21.9550 N   0  0  0  0  0  4  0  0  0  0  0  0
  -28.5950  -24.9590   22.4510 H   0  0  0  0  0  0  0  0  0  0  0  0
  -27.6360  -26.0700   21.7700 H   0  0  0  0  0  0  0  0  0  0  0  0
  -28.5140  -25.3340   19.6120 C   0  0  0  0  0  2  0  0  0  0  0  0
  -28.4610  -26.7460   19.9370 O   0  0  0  0  0  0  0  0  0  0  0  0
  -24.5290  -31.7670   23.0860 C   0  0  0  0  0  0  0  0  0  0  0  0
  -27.2710  -27.4490   19.8950 C   0  0  0  0  0  0  0  0  0  0  0  0
  -23.3630  -30.4000   21.3860 C   0  0  0  0  0  3  0  0  0  0  0  0
  -24.8550  -28.9290   19.9320 C   0  0  0  0  0  0  0  0  0  0  0  0
  -25.8860  -30.8020   21.2280 C   0  0  0  0  0  2  0  0  0  0  0  0
  -25.9990  -29.4500   20.5470 C   0  0  0  0  0  0  0  0  0  0  0  0
  -27.2090  -28.7190   20.5230 C   0  0  0  0  0  3  0  0  0  0  0  0
  -26.1060  -26.9480   19.2710 C   0  0  0  0  0  3  0  0  0  0  0  0
  -24.9040  -27.6790   19.2920 C   0  0  0  0  0  3  0  0  0  0  0  0
  -23.6010  -29.7700   19.9870 C   0  0  0  0  0  2  0  0  0  0  0  0
  -24.6110  -31.0020   21.9600 N   0  0  0  0  0  0  0  0  0  0  0  0
  -23.4380  -32.0050   23.6220 O   0  0  0  0  0  0  0  0  0  0  0  0
  -22.7190  -29.3370   22.3050 C   0  0  0  0  0  0  0  0  0  0  0  0
  -21.3930  -29.1640   22.1840 N   0  0  0  0  0  0  0  0  0  0  0  0
  -23.4110  -28.6720   23.0820 O   0  0  0  0  0  0  0  0  0  0  0  0
  -20.9000  -29.7600   21.5330 H   0  0  0  0  0  0  0  0  0  0  0  0
  -18.0130  -27.9890   22.6880 C   0  0  0  0  0  0  0  0  0  0  0  0
  -20.5790  -28.1950   22.9170 C   0  0  0  0  0  3  0  0  0  0  0  0
  -20.6470  -26.7990   22.2570 C   0  0  0  0  0  2  0  0  0  0  0  0
  -19.5180  -26.5500   21.2510 C   0  0  0  0  0  2  0  0  0  0  0  0
  -18.1540  -26.6770   21.9340 C   0  0  0  0  0  2  0  0  0  0  0  0
  -19.1520  -28.7080   23.1350 C   0  0  0  0  0  0  0  0  0  0  0  0
  -18.9680  -29.9400   23.8000 C   0  0  0  0  0  3  0  0  0  0  0  0
  -17.6750  -30.4510   24.0230 C   0  0  0  0  0  3  0  0  0  0  0  0
  -16.5500  -29.7260   23.5920 C   0  0  0  0  0  3  0  0  0  0  0  0
  -16.7190  -28.4970   22.9300 C   0  0  0  0  0  3  0  0  0  0  0  0
  -25.7970  -32.3970   23.7430 C   0  0  0  0  0  3  0  0  0  0  0  0
  -25.4550  -33.7710   24.1310 N   0  0  0  0  0  0  0  0  0  0  0  0
  -25.7640  -34.8630   23.4180 C   0  0  0  0  0  0  0  0  0  0  0  0
  -26.4400  -34.8170   22.3860 O   0  0  0  0  0  0  0  0  0  0  0  0
  -24.8510  -33.8780   24.9350 H   0  0  0  0  0  0  0  0  0  0  0  0
  -23.9880  -36.6210   23.1400 C   0  0  0  0  0  1  0  0  0  0  0  0
  -25.2420  -36.2190   23.9310 C   0  0  0  0  0  3  0  0  0  0  0  0
  -27.3570  -37.1250   24.7880 C   0  0  0  0  0  1  0  0  0  0  0  0
  -26.2450  -37.3030   23.8580 N   0  0  0  0  0  0  0  0  0  0  0  0
  -25.8150  -38.2050   24.0470 H   0  0  0  0  0  0  0  0  0  0  0  0
  -26.3260  -31.5780   24.9850 C   0  0  1  0  0  0  0  0  0  0  0  0
  -25.2360  -31.2640   26.0350 C   0  0  0  0  0  1  0  0  0  0  0  0
  -26.9410  -30.2330   24.5280 C   0  0  0  0  0  1  0  0  0  0  0  0
  -27.4600  -32.3630   25.6840 C   0  0  0  0  0  1  0  0  0  0  0  0
  2  1  1  0
  2  7  1  0
  2 51  1  0
  3  5  1  0
  4  5  2  0
  5 12  1  0
  6  3  2  0
  7  6  1  0
  7  8  2  0
  8  4  1  0
  9  6  1  0
 10 11  1  0
 11  8  1  0
 13 21  1  0
 14 19  1  0
 15 16  1  0
 15 14  1  0
 17 16  1  0
 17 26  1  0
 17 18  1  0
 19 13  1  0
 19 18  1  0
 20 13  2  0
 21 12  1  0
 21 22  1  0
 23 24  2  0
 24 43  1  0
 25 24  1  0
 25 28  1  0
 26 23  1  0
 26 27  1  0
 27 25  2  0
 28 29  1  0
 29 30  2  0
 31 34  1  0
 31 30  1  0
 32 31  2  0
 33 32  1  0
 33 28  2  0
 34 35  1  0
 35 40  2  0
 35 36  1  0
 36 37  2  0
 37 38  1  0
 38 42  1  0
 39 38  2  0
 40 39  1  0
 41 40  1  0
 43 44  1  0
 44 47  1  0
 44 46  1  0
 45 43  2  0
 48 49  1  0
 48 23  1  0
 50 48  1  0
 52 57  1  0
 52 51  1  0
 52 54  1  0
 54 55  1  0
 54 53  1  0
 56 54  1  0
 57 58  1  0
 59 70  2  0
 60 58  1  0
 60 65  1  0
 61 69  1  0
 61 71  1  0
 62 68  1  0
 62 64  1  0
 63 69  1  0
 64 63  1  0
 65 64  2  0
 66 67  1  0
 66 60  2  0
 67 62  2  0
 68 61  1  0
 69 59  1  0
 71 73  2  0
 72 71  1  0
 74 72  1  0
 75 84  2  0
 75 80  1  0
 76 72  1  0
 76 80  1  0
 77 76  1  0
 78 79  1  0
 78 77  1  0
 79 75  1  0
 80 81  2  0
 81 82  1  0
 83 82  2  0
 84 83  1  0
 85 59  1  0
 85 86  1  0
 85 95  1  0
 86 89  1  0
 87 91  1  0
 87 86  1  0
 88 87  2  0
 91 90  1  0
 93 91  1  0
 93 94  1  0
 93 92  1  0
 95 98  1  1
 95 96  1  0
 97 95  1  0
M  ISO  4  13 100  21 100  57 101  58 101
M  END
>  <TORSDO>  (8) 
F 23

>  <SCORE>  (8) 
-12.013

>  <name>  (8) 
7

>  <ligand_id>  (8) 
7

>  <original_smiles>  (8) 
[H]c1c([H])c([H])c2c(c1[H])C([H])([H])C([H])([H])C([H])([H])C2([H])N([H])C(=O)C1([H])N(C(=O)C([H])(N([H])C(=O)C([H])(N([H])C([H])([H])[H])C([H])([H])[H])C(C([H])([H])[H])(C([H])([H])[H])C([H])([H])[H])C([H])([H])c2c([H])c(OC([H])([H])C([H])(C([H])([H])C([H])(c3c(OC([H])([H])[H])c([H])c(C([H])([H])N([H])C(=O)N4C([H])([H])C([H])([H])C([H])([H])C([H])(n5nc(-c6c([H])c([H])c(Oc7c([H])c([H])c(F)c([H])c7F)c([H])c6[H])c(C(=O)N([H])[H])c5N([H])[H])C4([H])[H])c([H])c3C([H])([H])[H])C([H])([H])[H])[N+]([H])([H])C([H])([H])[H])c([H])c([H])c2C1([H])[H]

>  <smiles>  (8) 
[H]c1c([H])c([H])c2c(c1[H])C([H])([H])C([H])([H])C([H])([H])C2([H])N([H])C(=O)C1([H])N(C(=O)C([H])(N([H])C(=O)C([H])(N([H])C([H])([H])[H])C([H])([H])[H])C(C([H])([H])[H])(C([H])([H])[H])C([H])([H])[H])C([H])([H])c2c([H])c(OC([H])([H])C([H])(C([H])([H])C([H])(c3c(OC([H])([H])[H])c([H])c(C([H])([H])N([H])C(=O)N4C([H])([H])C([H])([H])C([H])([H])C([H])(n5nc(-c6c([H])c([H])c(Oc7c([H])c([H])c(F)c([H])c7F)c([H])c6[H])c(C(=O)N([H])[H])c5N([H])[H])C4([H])[H])c([H])c3C([H])([H])[H])C([H])([H])[H])[N+]([H])([H])C([H])([H])[H])c([H])c([H])c2C1([H])[H]

$$$$
8:0:0
     RDKit          3D

 90 99  0  0  1  0  0  0  0  0999 V2000
  -29.6710  -20.3300   21.9430 C   0  0  0  0  0  2  0  0  0  0  0  0
  -30.4160  -22.3780   20.8160 C   0  0  0  0  0  2  0  0  0  0  0  0
  -28.8750  -20.3020   20.6210 C   0  0  0  0  0  3  0  0  0  0  0  0
  -28.9270  -22.2260   20.5270 C   0  0  0  0  0  3  0  0  0  0  0  0
  -30.7820  -21.3200   21.8050 N   0  0  2  0  0  4  0  0  0  0  0  0
  -30.8400  -21.7780   22.7010 H   0  0  0  0  0  0  0  0  0  0  0  0
  -33.2840  -21.6050   21.3560 C   0  0  0  0  0  2  0  0  0  0  0  0
  -33.0970  -20.9070   22.6820 C   0  0  0  0  0  2  0  0  0  0  0  0
  -32.1030  -20.6770   21.5660 C   0  0  0  0  0  3  0  0  0  0  0  0
  -29.5680  -18.6510   19.9310 C   0  0  0  0  0  2  0  0  0  0  0  0
  -30.2680  -15.5840   20.1450 C   0  0  0  0  0  0  0  0  0  0  0  0
  -30.3140  -13.0530   19.3410 C   0  0  0  0  0  2  0  0  0  0  0  0
  -29.3950  -12.7190   18.1330 C   0  0  0  0  0  2  0  0  0  0  0  0
  -27.9810  -12.3680   18.6180 C   0  0  0  0  0  2  0  0  0  0  0  0
  -27.5030  -13.3700   19.6950 C   0  0  0  0  0  3  0  0  0  0  0  0
  -28.5540  -13.6420   20.7970 C   0  0  0  0  0  2  0  0  0  0  0  0
  -29.7390  -14.2270   20.1350 N   0  0  0  0  0  0  0  0  0  0  0  0
  -31.4750  -15.5430   19.8440 O   0  0  0  0  0  0  0  0  0  0  0  0
  -29.5160  -16.9250   20.3040 N   0  0  0  0  0  0  0  0  0  0  0  0
  -28.5910  -16.6960   20.6360 H   0  0  0  0  0  0  0  0  0  0  0  0
  -25.1640  -13.9160   20.5190 C   0  0  0  0  0  0  0  0  0  0  0  0
  -24.1080  -13.1360   20.9070 C   0  0  0  0  0  0  0  0  0  0  0  0
  -24.5700  -11.7860   20.8490 C   0  0  0  0  0  0  0  0  0  0  0  0
  -26.1940  -13.0380   20.2390 N   0  0  0  0  0  0  0  0  0  0  0  0
  -25.8550  -11.7500   20.5060 N   0  0  0  0  0  0  0  0  0  0  0  0
  -23.8420  -10.5250   21.0420 C   0  0  0  0  0  0  0  0  0  0  0  0
  -24.2830   -9.5480   21.9620 C   0  0  0  0  0  3  0  0  0  0  0  0
  -23.5530   -8.3540   22.1440 C   0  0  0  0  0  3  0  0  0  0  0  0
  -22.3660   -8.1280   21.4080 C   0  0  0  0  0  0  0  0  0  0  0  0
  -21.9440   -9.0920   20.4760 C   0  0  0  0  0  3  0  0  0  0  0  0
  -22.6760  -10.2770   20.2910 C   0  0  0  0  0  3  0  0  0  0  0  0
  -21.6060   -6.9860   21.5020 O   0  0  0  0  0  0  0  0  0  0  0  0
  -21.5730   -6.2350   22.6490 C   0  0  0  0  0  0  0  0  0  0  0  0
  -21.1540   -6.7770   23.8840 C   0  0  0  0  0  3  0  0  0  0  0  0
  -21.0690   -5.9520   25.0220 C   0  0  0  0  0  3  0  0  0  0  0  0
  -21.3920   -4.5850   24.9280 C   0  0  0  0  0  0  0  0  0  0  0  0
  -21.8020   -4.0420   23.6980 C   0  0  0  0  0  3  0  0  0  0  0  0
  -21.8900   -4.8650   22.5620 C   0  0  0  0  0  0  0  0  0  0  0  0
  -22.2670   -4.3300   21.3750 F   0  0  0  0  0  0  0  0  0  0  0  0
  -21.3020   -3.7900   26.0210 F   0  0  0  0  0  0  0  0  0  0  0  0
  -22.7200  -13.6170   21.2080 C   0  0  0  0  0  0  0  0  0  0  0  0
  -22.0040  -12.9180   22.0810 N   0  0  0  0  0  0  0  0  0  0  0  0
  -22.2800  -14.6520   20.7090 O   0  0  0  0  0  0  0  0  0  0  0  0
  -22.3710  -12.0810   22.5090 H   0  0  0  0  0  0  0  0  0  0  0  0
  -21.0730  -13.2270   22.3270 H   0  0  0  0  0  0  0  0  0  0  0  0
  -25.3330  -15.2850   20.3480 N   0  0  0  0  0  0  0  0  0  0  0  0
  -24.5780  -15.9540   20.4570 H   0  0  0  0  0  0  0  0  0  0  0  0
  -26.1790  -15.7030   19.9830 H   0  0  0  0  0  0  0  0  0  0  0  0
  -28.1060  -23.8890   20.0090 C   0  0  0  0  0  2  0  0  0  0  0  0
  -28.1790  -25.5990   20.3640 O   0  0  0  0  0  0  0  0  0  0  0  0
  -24.6680  -31.8430   23.2350 C   0  0  0  0  0  0  0  0  0  0  0  0
  -27.2010  -26.7900   20.2620 C   0  0  0  0  0  0  0  0  0  0  0  0
  -23.4800  -30.4460   21.5960 C   0  0  0  0  0  3  0  0  0  0  0  0
  -24.9290  -28.7980   20.1890 C   0  0  0  0  0  0  0  0  0  0  0  0
  -26.0580  -30.5910   21.4810 C   0  0  0  0  0  2  0  0  0  0  0  0
  -26.1210  -29.1620   20.8270 C   0  0  0  0  0  0  0  0  0  0  0  0
  -27.2410  -28.1860   20.8310 C   0  0  0  0  0  3  0  0  0  0  0  0
  -25.9800  -26.6240   19.5630 C   0  0  0  0  0  3  0  0  0  0  0  0
  -24.8950  -27.5530   19.5340 C   0  0  0  0  0  3  0  0  0  0  0  0
  -23.7200  -29.7470   20.2280 C   0  0  0  0  0  2  0  0  0  0  0  0
  -24.7590  -30.9920   22.1560 N   0  0  0  0  0  0  0  0  0  0  0  0
  -23.5740  -32.1460   23.7410 O   0  0  0  0  0  0  0  0  0  0  0  0
  -22.7610  -29.4690   22.5670 C   0  0  0  0  0  0  0  0  0  0  0  0
  -21.4300  -29.3160   22.4370 N   0  0  0  0  0  0  0  0  0  0  0  0
  -23.4140  -28.8450   23.4080 O   0  0  0  0  0  0  0  0  0  0  0  0
  -20.9560  -29.8690   21.7380 H   0  0  0  0  0  0  0  0  0  0  0  0
  -18.0370  -28.1140   22.9380 C   0  0  0  0  0  0  0  0  0  0  0  0
  -20.5970  -28.3840   23.2090 C   0  0  0  0  0  3  0  0  0  0  0  0
  -20.7000  -26.9480   22.6420 C   0  0  0  0  0  2  0  0  0  0  0  0
  -19.6020  -26.6230   21.6240 C   0  0  0  0  0  2  0  0  0  0  0  0
  -18.2180  -26.7670   22.2610 C   0  0  0  0  0  2  0  0  0  0  0  0
  -19.1540  -28.8810   23.3690 C   0  0  0  0  0  0  0  0  0  0  0  0
  -18.9260  -30.1390   23.9660 C   0  0  0  0  0  3  0  0  0  0  0  0
  -17.6170  -30.6320   24.1340 C   0  0  0  0  0  3  0  0  0  0  0  0
  -16.5180  -29.8650   23.7120 C   0  0  0  0  0  3  0  0  0  0  0  0
  -16.7280  -28.6070   23.1220 C   0  0  0  0  0  3  0  0  0  0  0  0
  -25.9320  -32.4870   23.8800 C   0  0  0  0  0  3  0  0  0  0  0  0
  -26.4170  -31.7280   25.1780 C   0  0  1  0  0  0  0  0  0  0  0  0
  -25.2970  -31.5200   26.2260 C   0  0  0  0  0  1  0  0  0  0  0  0
  -26.9950  -30.3390   24.8280 C   0  0  0  0  0  1  0  0  0  0  0  0
  -27.5650  -32.5190   25.8460 C   0  0  0  0  0  1  0  0  0  0  0  0
  -25.6150  -33.8890   24.2120 N   0  0  0  0  0  0  0  0  0  0  0  0
  -25.9280  -34.9500   23.4570 C   0  0  0  0  0  0  0  0  0  0  0  0
  -26.5730  -34.8510   22.4110 O   0  0  0  0  0  0  0  0  0  0  0  0
  -25.0390  -34.0410   25.0270 H   0  0  0  0  0  0  0  0  0  0  0  0
  -24.1730  -36.7370   23.1810 C   0  0  0  0  0  1  0  0  0  0  0  0
  -25.4540  -36.3390   23.9340 C   0  0  0  0  0  3  0  0  0  0  0  0
  -27.6150  -37.2510   24.6660 C   0  0  0  0  0  1  0  0  0  0  0  0
  -26.4730  -37.4000   23.7690 N   0  0  0  0  0  0  0  0  0  0  0  0
  -26.0660  -38.3210   23.9200 H   0  0  0  0  0  0  0  0  0  0  0  0
  2  5  1  0
  3 10  1  0
  3  1  1  0
  4 49  1  0
  4  3  1  0
  4  2  1  0
  5  1  1  0
  5  6  1  1
  7  9  1  0
  7  8  1  0
  9  5  1  0
  9  8  1  0
 10 19  1  0
 11 19  1  0
 12 17  1  0
 13 14  1  0
 13 12  1  0
 15 14  1  0
 15 24  1  0
 15 16  1  0
 17 11  1  0
 17 16  1  0
 18 11  2  0
 19 20  1  0
 21 22  2  0
 22 41  1  0
 23 22  1  0
 23 26  1  0
 24 25  1  0
 24 21  1  0
 25 23  2  0
 26 27  1  0
 27 28  2  0
 29 32  1  0
 29 28  1  0
 30 29  2  0
 31 30  1  0
 31 26  2  0
 32 33  1  0
 33 34  1  0
 34 35  2  0
 36 35  1  0
 36 40  1  0
 37 36  2  0
 38 33  2  0
 38 37  1  0
 39 38  1  0
 41 42  1  0
 42 45  1  0
 42 44  1  0
 43 41  2  0
 46 47  1  0
 46 21  1  0
 48 46  1  0
 49 50  1  0
 51 62  2  0
 52 50  1  0
 52 57  1  0
 53 61  1  0
 53 63  1  0
 54 60  1  0
 54 56  1  0
 55 61  1  0
 56 57  2  0
 56 55  1  0
 58 52  2  0
 59 58  1  0
 59 54  2  0
 60 53  1  0
 61 51  1  0
 63 65  2  0
 64 63  1  0
 66 64  1  0
 67 76  2  0
 67 72  1  0
 68 64  1  0
 68 72  1  0
 69 68  1  0
 70 71  1  0
 70 69  1  0
 71 67  1  0
 72 73  2  0
 73 74  1  0
 75 74  2  0
 76 75  1  0
 77 51  1  0
 77 82  1  0
 77 78  1  0
 78 81  1  1
 78 79  1  0
 80 78  1  0
 82 85  1  0
 83 87  1  0
 83 82  1  0
 84 83  2  0
 87 86  1  0
 89 90  1  0
 89 87  1  0
 89 88  1  0
M  ISO  4  11 100  19 100  49 101  50 101
M  END
>  <TORSDO>  (9) 
F 19

>  <SCORE>  (9) 
-15.610

>  <name>  (9) 
8

>  <ligand_id>  (9) 
8

>  <original_smiles>  (9) 
[H]c1c([H])c([H])c2c(c1[H])C([H])([H])C([H])([H])C([H])([H])C2([H])N([H])C(=O)C1([H])N(C(=O)C([H])(N([H])C(=O)C([H])(N([H])C([H])([H])[H])C([H])([H])[H])C(C([H])([H])[H])(C([H])([H])[H])C([H])([H])[H])C([H])([H])c2c([H])c(OC([H])([H])C3([H])C([H])(C([H])([H])N([H])C(=O)N4C([H])([H])C([H])([H])C([H])([H])C([H])(n5nc(-c6c([H])c([H])c(Oc7c([H])c([H])c(F)c([H])c7F)c([H])c6[H])c(C(=O)N([H])[H])c5N([H])[H])C4([H])[H])C([H])([H])[N+]([H])(C4([H])C([H])([H])C4([H])[H])C3([H])[H])c([H])c([H])c2C1([H])[H]

>  <smiles>  (9) 
[H]c1c([H])c([H])c2c(c1[H])C([H])([H])C([H])([H])C([H])([H])C2([H])N([H])C(=O)C1([H])N(C(=O)C([H])(N([H])C(=O)C([H])(N([H])C([H])([H])[H])C([H])([H])[H])C(C([H])([H])[H])(C([H])([H])[H])C([H])([H])[H])C([H])([H])c2c([H])c(OC([H])([H])C3([H])C([H])(C([H])([H])N([H])C(=O)N4C([H])([H])C([H])([H])C([H])([H])C([H])(n5nc(-c6c([H])c([H])c(Oc7c([H])c([H])c(F)c([H])c7F)c([H])c6[H])c(C(=O)N([H])[H])c5N([H])[H])C4([H])[H])C([H])([H])[N+]([H])(C4([H])C([H])([H])C4([H])[H])C3([H])[H])c([H])c([H])c2C1([H])[H]

$$$$
9:0:0
     RDKit          3D

 93101  0  0  1  0  0  0  0  0999 V2000
  -26.7800  -22.8720   21.8300 C   0  0  0  0  0  3  0  0  0  0  0  0
  -27.5530  -21.8190   21.3110 C   0  0  0  0  0  3  0  0  0  0  0  0
  -27.2340  -24.1990   21.7420 C   0  0  0  0  0  3  0  0  0  0  0  0
  -28.7940  -22.0600   20.6800 C   0  0  0  0  0  0  0  0  0  0  0  0
  -28.4650  -24.5070   21.1280 C   0  0  0  0  0  0  0  0  0  0  0  0
  -29.2480  -23.4270   20.5810 C   0  0  0  0  0  0  0  0  0  0  0  0
  -30.5620  -23.7330   19.8720 C   0  0  0  0  0  1  0  0  0  0  0  0
  -29.5090  -20.8220   20.0500 C   0  0  0  0  0  2  0  0  0  0  0  0
  -29.8760  -19.7060   20.9840 N   0  0  0  0  0  4  0  0  0  0  0  0
  -29.2740  -19.7590   21.7880 H   0  0  0  0  0  0  0  0  0  0  0  0
  -30.8170  -19.8740   21.3020 H   0  0  0  0  0  0  0  0  0  0  0  0
  -29.7840  -18.3080   20.4270 C   0  0  0  0  0  3  0  0  0  0  0  0
  -30.4510  -17.1910   21.3130 C   0  0  0  0  0  3  0  0  0  0  0  0
  -30.8460  -14.7600   20.5260 C   0  0  0  0  0  0  0  0  0  0  0  0
  -30.6250  -12.5690   19.3780 C   0  0  0  0  0  2  0  0  0  0  0  0
  -29.7060  -12.7370   18.1490 C   0  0  0  0  0  2  0  0  0  0  0  0
  -28.2230  -12.5840   18.5460 C   0  0  0  0  0  2  0  0  0  0  0  0
  -27.8490  -13.4290   19.7960 C   0  0  0  0  0  3  0  0  0  0  0  0
  -28.8800  -13.2270   20.9260 C   0  0  0  0  0  2  0  0  0  0  0  0
  -30.2060  -13.5630   20.3810 N   0  0  0  0  0  0  0  0  0  0  0  0
  -32.0010  -14.9470   20.1370 O   0  0  0  0  0  0  0  0  0  0  0  0
  -30.0790  -15.7820   20.9860 N   0  0  0  0  0  0  0  0  0  0  0  0
  -29.1360  -15.5160   21.2240 H   0  0  0  0  0  0  0  0  0  0  0  0
  -25.4280  -14.0250   20.4280 C   0  0  0  0  0  0  0  0  0  0  0  0
  -24.3580  -13.2510   20.7850 C   0  0  0  0  0  0  0  0  0  0  0  0
  -24.8320  -11.9030   20.7970 C   0  0  0  0  0  0  0  0  0  0  0  0
  -26.4870  -13.1500   20.2440 N   0  0  0  0  0  0  0  0  0  0  0  0
  -26.1320  -11.8700   20.5240 N   0  0  0  0  0  0  0  0  0  0  0  0
  -24.1130  -10.6380   20.9930 C   0  0  0  0  0  0  0  0  0  0  0  0
  -24.5080   -9.7110   21.9820 C   0  0  0  0  0  3  0  0  0  0  0  0
  -23.7900   -8.5110   22.1650 C   0  0  0  0  0  3  0  0  0  0  0  0
  -22.6630   -8.2290   21.3570 C   0  0  0  0  0  0  0  0  0  0  0  0
  -22.2880   -9.1440   20.3590 C   0  0  0  0  0  3  0  0  0  0  0  0
  -23.0060  -10.3370   20.1740 C   0  0  0  0  0  3  0  0  0  0  0  0
  -21.9190   -7.0770   21.4460 O   0  0  0  0  0  0  0  0  0  0  0  0
  -21.7960   -6.3900   22.6260 C   0  0  0  0  0  0  0  0  0  0  0  0
  -21.2490   -6.9890   23.7820 C   0  0  0  0  0  3  0  0  0  0  0  0
  -21.0730   -6.2270   24.9540 C   0  0  0  0  0  3  0  0  0  0  0  0
  -21.4360   -4.8660   24.9710 C   0  0  0  0  0  0  0  0  0  0  0  0
  -21.9770   -4.2670   23.8200 C   0  0  0  0  0  3  0  0  0  0  0  0
  -22.1530   -5.0270   22.6500 C   0  0  0  0  0  0  0  0  0  0  0  0
  -22.6550   -4.4400   21.5360 F   0  0  0  0  0  0  0  0  0  0  0  0
  -21.2620   -4.1320   26.0940 F   0  0  0  0  0  0  0  0  0  0  0  0
  -22.9500  -13.7220   21.0050 C   0  0  0  0  0  0  0  0  0  0  0  0
  -22.2030  -13.0400   21.8650 N   0  0  0  0  0  0  0  0  0  0  0  0
  -22.5180  -14.7300   20.4470 O   0  0  0  0  0  0  0  0  0  0  0  0
  -22.5630  -12.2260   22.3390 H   0  0  0  0  0  0  0  0  0  0  0  0
  -21.2570  -13.3410   22.0560 H   0  0  0  0  0  0  0  0  0  0  0  0
  -25.5870  -15.3930   20.2230 N   0  0  0  0  0  0  0  0  0  0  0  0
  -24.8060  -16.0380   20.2860 H   0  0  0  0  0  0  0  0  0  0  0  0
  -26.4250  -15.8210   19.8530 H   0  0  0  0  0  0  0  0  0  0  0  0
  -28.9110  -25.9940   21.1920 C   0  0  0  0  0  2  0  0  0  0  0  0
  -28.5520  -26.8430   20.0800 O   0  0  0  0  0  0  0  0  0  0  0  0
  -24.5950  -31.9580   23.2300 C   0  0  0  0  0  0  0  0  0  0  0  0
  -27.3810  -27.5740   20.1630 C   0  0  0  0  0  0  0  0  0  0  0  0
  -23.4470  -30.5580   21.5460 C   0  0  0  0  0  3  0  0  0  0  0  0
  -24.9590  -29.0560   20.1360 C   0  0  0  0  0  0  0  0  0  0  0  0
  -25.9710  -30.9530   21.4080 C   0  0  0  0  0  2  0  0  0  0  0  0
  -26.0960  -29.5850   20.7630 C   0  0  0  0  0  0  0  0  0  0  0  0
  -27.3100  -28.8500   20.7790 C   0  0  0  0  0  3  0  0  0  0  0  0
  -26.2330  -27.0700   19.5240 C   0  0  0  0  0  3  0  0  0  0  0  0
  -25.0240  -27.7950   19.5140 C   0  0  0  0  0  3  0  0  0  0  0  0
  -23.7010  -29.8980   20.1630 C   0  0  0  0  0  2  0  0  0  0  0  0
  -24.6880  -31.1730   22.1200 N   0  0  0  0  0  0  0  0  0  0  0  0
  -23.4990  -32.2040   23.7520 O   0  0  0  0  0  0  0  0  0  0  0  0
  -22.7930  -29.5150   22.4810 C   0  0  0  0  0  0  0  0  0  0  0  0
  -21.4760  -29.3070   22.3210 N   0  0  0  0  0  0  0  0  0  0  0  0
  -23.4700  -28.8950   23.3060 O   0  0  0  0  0  0  0  0  0  0  0  0
  -20.9920  -29.8590   21.6280 H   0  0  0  0  0  0  0  0  0  0  0  0
  -18.1130  -28.0530   22.7480 C   0  0  0  0  0  0  0  0  0  0  0  0
  -20.6630  -28.3410   23.0600 C   0  0  0  0  0  3  0  0  0  0  0  0
  -20.7940  -26.9250   22.4550 C   0  0  0  0  0  2  0  0  0  0  0  0
  -19.7110  -26.6090   21.4190 C   0  0  0  0  0  2  0  0  0  0  0  0
  -18.3190  -26.7210   22.0480 C   0  0  0  0  0  2  0  0  0  0  0  0
  -19.2150  -28.8210   23.2100 C   0  0  0  0  0  0  0  0  0  0  0  0
  -18.9720  -30.0690   23.8240 C   0  0  0  0  0  3  0  0  0  0  0  0
  -17.6580  -30.5490   23.9830 C   0  0  0  0  0  3  0  0  0  0  0  0
  -16.5700  -29.7780   23.5390 C   0  0  0  0  0  3  0  0  0  0  0  0
  -16.7990  -28.5320   22.9280 C   0  0  0  0  0  3  0  0  0  0  0  0
  -25.8560  -32.6020   23.8840 C   0  0  0  0  0  3  0  0  0  0  0  0
  -25.5310  -34.0030   24.1900 N   0  0  0  0  0  0  0  0  0  0  0  0
  -25.8930  -35.0500   23.4370 C   0  0  0  0  0  0  0  0  0  0  0  0
  -26.6080  -34.9380   22.4370 O   0  0  0  0  0  0  0  0  0  0  0  0
  -24.9020  -34.1620   24.9640 H   0  0  0  0  0  0  0  0  0  0  0  0
  -24.1890  -36.8390   22.9780 C   0  0  0  0  0  1  0  0  0  0  0  0
  -25.3830  -36.4400   23.8600 C   0  0  0  0  0  3  0  0  0  0  0  0
  -27.4680  -37.3300   24.8030 C   0  0  0  0  0  1  0  0  0  0  0  0
  -26.4220  -37.4910   23.7970 N   0  0  0  0  0  0  0  0  0  0  0  0
  -26.0100  -38.4140   23.9130 H   0  0  0  0  0  0  0  0  0  0  0  0
  -26.3390  -31.8470   25.1840 C   0  0  1  0  0  0  0  0  0  0  0  0
  -25.2130  -31.6050   26.2170 C   0  0  0  0  0  1  0  0  0  0  0  0
  -26.9480  -30.4730   24.8200 C   0  0  0  0  0  1  0  0  0  0  0  0
  -27.4590  -32.6570   25.8770 C   0  0  0  0  0  1  0  0  0  0  0  0
  2  1  2  0
  3  1  1  0
  4  2  1  0
  5 52  1  0
  5  3  2  0
  6  4  2  0
  6  5  1  0
  7  6  1  0
  8  4  1  0
  8  9  1  0
  9 11  1  0
  9 10  1  0
 12  9  1  0
 12 13  2  0
 14 22  1  0
 15 20  1  0
 16 17  1  0
 16 15  1  0
 18 17  1  0
 18 27  1  0
 18 19  1  0
 20 14  1  0
 20 19  1  0
 21 14  2  0
 22 23  1  0
 22 13  1  0
 24 25  2  0
 25 26  1  0
 25 44  1  0
 26 29  1  0
 27 24  1  0
 27 28  1  0
 28 26  2  0
 29 30  1  0
 30 31  2  0
 32 35  1  0
 32 31  1  0
 33 32  2  0
 34 33  1  0
 34 29  2  0
 35 36  1  0
 36 41  2  0
 36 37  1  0
 37 38  2  0
 38 39  1  0
 39 43  1  0
 40 39  2  0
 41 40  1  0
 42 41  1  0
 44 45  1  0
 45 48  1  0
 45 47  1  0
 46 44  2  0
 49 50  1  0
 49 24  1  0
 51 49  1  0
 53 55  1  0
 53 52  1  0
 54 65  2  0
 55 60  1  0
 56 64  1  0
 56 66  1  0
 57 63  1  0
 57 59  1  0
 58 64  1  0
 59 60  2  0
 59 58  1  0
 61 55  2  0
 62 61  1  0
 62 57  2  0
 63 56  1  0
 64 54  1  0
 66 68  2  0
 67 66  1  0
 69 67  1  0
 70 79  2  0
 70 75  1  0
 71 67  1  0
 71 75  1  0
 72 71  1  0
 73 74  1  0
 73 72  1  0
 74 70  1  0
 75 76  2  0
 76 77  1  0
 78 77  2  0
 79 78  1  0
 80 54  1  0
 80 81  1  0
 80 90  1  0
 81 84  1  0
 82 86  1  0
 82 81  1  0
 83 82  2  0
 86 85  1  0
 88 86  1  0
 88 89  1  0
 88 87  1  0
 90 93  1  1
 90 91  1  0
 92 90  1  0
M  ISO  4  14 100  22 100  52 101  53 101
M  END
>  <TORSDO>  (10) 
F 21

>  <SCORE>  (10) 
-13.170

>  <name>  (10) 
9

>  <ligand_id>  (10) 
9

>  <original_smiles>  (10) 
[H]c1c([H])c([H])c2c(c1[H])C([H])([H])C([H])([H])C([H])([H])C2([H])N([H])C(=O)C1([H])N(C(=O)C([H])(N([H])C(=O)C([H])(N([H])C([H])([H])[H])C([H])([H])[H])C(C([H])([H])[H])(C([H])([H])[H])C([H])([H])[H])C([H])([H])c2c([H])c(OC([H])([H])c3c([H])c([H])c([H])c(C([H])([H])[N+]([H])([H])C([H])([H])C([H])([H])N([H])C(=O)N4C([H])([H])C([H])([H])C([H])([H])C([H])(n5nc(-c6c([H])c([H])c(Oc7c([H])c([H])c(F)c([H])c7F)c([H])c6[H])c(C(=O)N([H])[H])c5N([H])[H])C4([H])[H])c3C([H])([H])[H])c([H])c([H])c2C1([H])[H]

>  <smiles>  (10) 
[H]c1c([H])c([H])c2c(c1[H])C([H])([H])C([H])([H])C([H])([H])C2([H])N([H])C(=O)C1([H])N(C(=O)C([H])(N([H])C(=O)C([H])(N([H])C([H])([H])[H])C([H])([H])[H])C(C([H])([H])[H])(C([H])([H])[H])C([H])([H])[H])C([H])([H])c2c([H])c(OC([H])([H])c3c([H])c([H])c([H])c(C([H])([H])[N+]([H])([H])C([H])([H])C([H])([H])N([H])C(=O)N4C([H])([H])C([H])([H])C([H])([H])C([H])(n5nc(-c6c([H])c([H])c(Oc7c([H])c([H])c(F)c([H])c7F)c([H])c6[H])c(C(=O)N([H])[H])c5N([H])[H])C4([H])[H])c3C([H])([H])[H])c([H])c([H])c2C1([H])[H]

$$$$
10:0:0
     RDKit          3D

100109  0  0  1  0  0  0  0  0999 V2000
  -27.5230  -18.9680   19.9820 C   0  0  0  0  0  3  0  0  0  0  0  0
  -28.4120  -17.9150   20.2340 C   0  0  0  0  0  3  0  0  0  0  0  0
  -27.9450  -20.2990   20.1050 C   0  0  0  0  0  3  0  0  0  0  0  0
  -30.1570  -19.5350   20.8550 C   0  0  0  0  0  0  0  0  0  0  0  0
  -29.7340  -18.1590   20.6640 C   0  0  0  0  0  0  0  0  0  0  0  0
  -29.2590  -20.6240   20.5120 C   0  0  0  0  0  0  0  0  0  0  0  0
  -31.3720  -20.4610   22.9300 C   0  0  0  0  0  2  0  0  0  0  0  0
  -32.6460  -20.4580   20.7140 C   0  0  0  0  0  2  0  0  0  0  0  0
  -32.7100  -20.5120   23.6900 C   0  0  0  0  0  2  0  0  0  0  0  0
  -33.9760  -20.4250   21.4850 C   0  0  0  0  0  2  0  0  0  0  0  0
  -31.5250  -19.7890   21.5460 C   0  0  0  0  0  3  0  0  0  0  0  0
  -33.8210  -21.1500   22.8370 C   0  0  0  0  0  3  0  0  0  0  0  0
  -35.0420  -21.1080   23.5430 O   0  0  0  0  0  0  0  0  0  0  0  0
  -35.2680  -20.1950   23.6940 H   0  0  0  0  0  0  0  0  0  0  0  0
  -30.6500  -16.9150   20.9180 C   0  0  0  0  0  2  0  0  0  0  0  0
  -30.7410  -14.5100   20.0410 C   0  0  0  0  0  0  0  0  0  0  0  0
  -30.3800  -12.3100   18.9430 C   0  0  0  0  0  2  0  0  0  0  0  0
  -29.3670  -12.4490   17.7860 C   0  0  0  0  0  2  0  0  0  0  0  0
  -27.9190  -12.3280   18.3050 C   0  0  0  0  0  2  0  0  0  0  0  0
  -27.6550  -13.2030   19.5590 C   0  0  0  0  0  3  0  0  0  0  0  0
  -28.7720  -13.0230   20.6110 C   0  0  0  0  0  2  0  0  0  0  0  0
  -30.0540  -13.3320   19.9590 N   0  0  0  0  0  0  0  0  0  0  0  0
  -31.8340  -14.6660   19.4900 O   0  0  0  0  0  0  0  0  0  0  0  0
  -30.1160  -15.5410   20.6690 N   0  0  0  0  0  0  0  0  0  0  0  0
  -29.2240  -15.3220   21.0860 H   0  0  0  0  0  0  0  0  0  0  0  0
  -25.3310  -13.8530   20.4510 C   0  0  0  0  0  0  0  0  0  0  0  0
  -24.2680  -13.1000   20.8710 C   0  0  0  0  0  0  0  0  0  0  0  0
  -24.6830  -11.7380   20.7690 C   0  0  0  0  0  0  0  0  0  0  0  0
  -26.3300  -12.9490   20.1240 N   0  0  0  0  0  0  0  0  0  0  0  0
  -25.9480  -11.6700   20.3730 N   0  0  0  0  0  0  0  0  0  0  0  0
  -23.9320  -10.4900   20.9760 C   0  0  0  0  0  0  0  0  0  0  0  0
  -24.3790   -9.5010   21.8790 C   0  0  0  0  0  3  0  0  0  0  0  0
  -23.6310   -8.3200   22.0740 C   0  0  0  0  0  3  0  0  0  0  0  0
  -22.4220   -8.1200   21.3650 C   0  0  0  0  0  0  0  0  0  0  0  0
  -21.9910   -9.0980   20.4510 C   0  0  0  0  0  3  0  0  0  0  0  0
  -22.7400  -10.2720   20.2540 C   0  0  0  0  0  3  0  0  0  0  0  0
  -21.6440   -6.9910   21.4680 O   0  0  0  0  0  0  0  0  0  0  0  0
  -21.5960   -6.2530   22.6220 C   0  0  0  0  0  0  0  0  0  0  0  0
  -21.1900   -6.8170   23.8510 C   0  0  0  0  0  3  0  0  0  0  0  0
  -21.0920   -6.0080   25.0010 C   0  0  0  0  0  3  0  0  0  0  0  0
  -21.3850   -4.6330   24.9210 C   0  0  0  0  0  0  0  0  0  0  0  0
  -21.7830   -4.0670   23.6960 C   0  0  0  0  0  3  0  0  0  0  0  0
  -21.8850   -4.8750   22.5500 C   0  0  0  0  0  0  0  0  0  0  0  0
  -22.2490   -4.3210   21.3690 F   0  0  0  0  0  0  0  0  0  0  0  0
  -21.2830   -3.8530   26.0220 F   0  0  0  0  0  0  0  0  0  0  0  0
  -22.9080  -13.6100   21.2510 C   0  0  0  0  0  0  0  0  0  0  0  0
  -22.2200  -12.9140   22.1500 N   0  0  0  0  0  0  0  0  0  0  0  0
  -22.4620  -14.6560   20.7830 O   0  0  0  0  0  0  0  0  0  0  0  0
  -22.5940  -12.0660   22.5510 H   0  0  0  0  0  0  0  0  0  0  0  0
  -21.3080  -13.2340   22.4420 H   0  0  0  0  0  0  0  0  0  0  0  0
  -25.5230  -15.2230   20.2980 N   0  0  0  0  0  0  0  0  0  0  0  0
  -24.7840  -15.8940   20.4710 H   0  0  0  0  0  0  0  0  0  0  0  0
  -26.3520  -15.6400   19.8920 H   0  0  0  0  0  0  0  0  0  0  0  0
  -29.6280  -22.1440   20.5760 C   0  0  0  0  0  2  0  0  0  0  0  0
  -28.7860  -23.1030   19.7880 N   0  0  0  0  0  4  0  0  0  0  0  0
  -28.2390  -22.5370   19.1620 H   0  0  0  0  0  0  0  0  0  0  0  0
  -29.3990  -23.6520   19.2040 H   0  0  0  0  0  0  0  0  0  0  0  0
  -27.8670  -24.0340   20.5250 C   0  0  0  0  0  2  0  0  0  0  0  0
  -28.4440  -25.4370   20.9320 C   0  0  0  0  0  2  0  0  0  0  0  0
  -28.3650  -26.5180   19.9620 O   0  0  0  0  0  0  0  0  0  0  0  0
  -24.5170  -31.6530   23.1520 C   0  0  0  0  0  0  0  0  0  0  0  0
  -27.2170  -27.2910   19.9860 C   0  0  0  0  0  0  0  0  0  0  0  0
  -23.3410  -30.2980   21.4510 C   0  0  0  0  0  3  0  0  0  0  0  0
  -24.8230  -28.8120   19.9960 C   0  0  0  0  0  0  0  0  0  0  0  0
  -25.8680  -30.6710   21.2960 C   0  0  0  0  0  2  0  0  0  0  0  0
  -25.9720  -29.3170   20.6190 C   0  0  0  0  0  0  0  0  0  0  0  0
  -27.1740  -28.5650   20.6090 C   0  0  0  0  0  3  0  0  0  0  0  0
  -26.0580  -26.8180   19.3390 C   0  0  0  0  0  3  0  0  0  0  0  0
  -24.8630  -27.5660   19.3490 C   0  0  0  0  0  3  0  0  0  0  0  0
  -23.5730  -29.6660   20.0530 C   0  0  0  0  0  2  0  0  0  0  0  0
  -24.5930  -30.8890   22.0250 N   0  0  0  0  0  0  0  0  0  0  0  0
  -23.4280  -31.9000   23.6890 O   0  0  0  0  0  0  0  0  0  0  0  0
  -22.6860  -29.2410   22.3720 C   0  0  0  0  0  0  0  0  0  0  0  0
  -21.3610  -29.0650   22.2350 N   0  0  0  0  0  0  0  0  0  0  0  0
  -23.3680  -28.5830   23.1610 O   0  0  0  0  0  0  0  0  0  0  0  0
  -20.8700  -29.6500   21.5730 H   0  0  0  0  0  0  0  0  0  0  0  0
  -17.9860  -27.8540   22.6840 C   0  0  0  0  0  0  0  0  0  0  0  0
  -20.5430  -28.0980   22.9680 C   0  0  0  0  0  3  0  0  0  0  0  0
  -20.6460  -26.6910   22.3340 C   0  0  0  0  0  2  0  0  0  0  0  0
  -19.5440  -26.4100   21.3070 C   0  0  0  0  0  2  0  0  0  0  0  0
  -18.1620  -26.5320   21.9550 C   0  0  0  0  0  2  0  0  0  0  0  0
  -19.1050  -28.5960   23.1450 C   0  0  0  0  0  0  0  0  0  0  0  0
  -18.8880  -29.8350   23.7860 C   0  0  0  0  0  3  0  0  0  0  0  0
  -17.5850  -30.3330   23.9680 C   0  0  0  0  0  3  0  0  0  0  0  0
  -16.4800  -29.5870   23.5220 C   0  0  0  0  0  3  0  0  0  0  0  0
  -16.6810  -28.3480   22.8870 C   0  0  0  0  0  3  0  0  0  0  0  0
  -25.7890  -32.2740   23.8070 C   0  0  0  0  0  3  0  0  0  0  0  0
  -25.4780  -33.6690   24.1460 N   0  0  0  0  0  0  0  0  0  0  0  0
  -25.8140  -34.7260   23.3940 C   0  0  0  0  0  0  0  0  0  0  0  0
  -26.4890  -34.6290   22.3660 O   0  0  0  0  0  0  0  0  0  0  0  0
  -24.8780  -33.8190   24.9440 H   0  0  0  0  0  0  0  0  0  0  0  0
  -24.0760  -36.5100   23.0510 C   0  0  0  0  0  1  0  0  0  0  0  0
  -25.3230  -36.1120   23.8570 C   0  0  0  0  0  3  0  0  0  0  0  0
  -27.4580  -37.0050   24.6800 C   0  0  0  0  0  1  0  0  0  0  0  0
  -26.3520  -37.1680   23.7400 N   0  0  0  0  0  0  0  0  0  0  0  0
  -25.9440  -38.0880   23.8850 H   0  0  0  0  0  0  0  0  0  0  0  0
  -26.2770  -31.4860   25.0850 C   0  0  1  0  0  0  0  0  0  0  0  0
  -25.1660  -31.2570   26.1360 C   0  0  0  0  0  1  0  0  0  0  0  0
  -26.8440  -30.1040   24.6880 C   0  0  0  0  0  1  0  0  0  0  0  0
  -27.4280  -32.2600   25.7690 C   0  0  0  0  0  1  0  0  0  0  0  0
  1  3  2  0
  1  2  1  0
  2  5  2  0
  3  6  1  0
  5  4  1  0
  5 15  1  0
  6 54  1  0
  6  4  2  0
  7  9  1  0
  8 10  1  0
  8 11  1  0
 10 12  1  0
 11  4  1  0
 11  7  1  0
 12 13  1  0
 12  9  1  0
 13 14  1  0
 16 24  1  0
 17 22  1  0
 18 19  1  0
 18 17  1  0
 20 19  1  0
 20 29  1  0
 20 21  1  0
 22 16  1  0
 22 21  1  0
 23 16  2  0
 24 15  1  0
 24 25  1  0
 26 27  2  0
 27 46  1  0
 28 27  1  0
 28 31  1  0
 29 30  1  0
 29 26  1  0
 30 28  2  0
 31 32  1  0
 32 33  2  0
 34 37  1  0
 34 33  1  0
 35 34  2  0
 36 35  1  0
 36 31  2  0
 37 38  1  0
 38 39  1  0
 39 40  2  0
 41 40  1  0
 41 45  1  0
 42 41  2  0
 43 38  2  0
 43 42  1  0
 44 43  1  0
 46 47  1  0
 47 50  1  0
 47 49  1  0
 48 46  2  0
 51 26  1  0
 51 52  1  0
 53 51  1  0
 55 58  1  0
 55 54  1  0
 56 55  1  0
 57 55  1  0
 58 59  1  0
 60 62  1  0
 60 59  1  0
 61 72  2  0
 62 67  1  0
 63 71  1  0
 63 73  1  0
 64 70  1  0
 64 66  1  0
 65 71  1  0
 66 65  1  0
 67 66  2  0
 68 69  1  0
 68 62  2  0
 69 64  2  0
 70 63  1  0
 71 61  1  0
 73 75  2  0
 74 73  1  0
 76 74  1  0
 77 86  2  0
 77 82  1  0
 78 74  1  0
 78 82  1  0
 79 78  1  0
 80 81  1  0
 80 79  1  0
 81 77  1  0
 82 83  2  0
 83 84  1  0
 85 84  2  0
 86 85  1  0
 87 61  1  0
 87 88  1  0
 87 97  1  0
 88 91  1  0
 89 93  1  0
 89 88  1  0
 90 89  2  0
 93 92  1  0
 95 93  1  0
 95 96  1  0
 95 94  1  0
 97100  1  1
 97 98  1  0
 99 97  1  0
M  ISO  4  16 100  24 100  59 101  60 101
M  END
>  <TORSDO>  (11) 
F 23

>  <SCORE>  (11) 
-13.201

>  <name>  (11) 
10

>  <ligand_id>  (11) 
10

>  <original_smiles>  (11) 
[H]OC1([H])C([H])([H])C([H])([H])C([H])(c2c(C([H])([H])N([H])C(=O)N3C([H])([H])C([H])([H])C([H])([H])C([H])(n4nc(-c5c([H])c([H])c(Oc6c([H])c([H])c(F)c([H])c6F)c([H])c5[H])c(C(=O)N([H])[H])c4N([H])[H])C3([H])[H])c([H])c([H])c([H])c2C([H])([H])[N+]([H])([H])C([H])([H])C([H])([H])Oc2c([H])c([H])c3c(c2[H])C([H])([H])N(C(=O)C([H])(N([H])C(=O)C([H])(N([H])C([H])([H])[H])C([H])([H])[H])C(C([H])([H])[H])(C([H])([H])[H])C([H])([H])[H])C([H])(C(=O)N([H])C2([H])c4c([H])c([H])c([H])c([H])c4C([H])([H])C([H])([H])C2([H])[H])C3([H])[H])C([H])([H])C1([H])[H]

>  <smiles>  (11) 
[H]OC1([H])C([H])([H])C([H])([H])C([H])(c2c(C([H])([H])N([H])C(=O)N3C([H])([H])C([H])([H])C([H])([H])C([H])(n4nc(-c5c([H])c([H])c(Oc6c([H])c([H])c(F)c([H])c6F)c([H])c5[H])c(C(=O)N([H])[H])c4N([H])[H])C3([H])[H])c([H])c([H])c([H])c2C([H])([H])[N+]([H])([H])C([H])([H])C([H])([H])Oc2c([H])c([H])c3c(c2[H])C([H])([H])N(C(=O)C([H])(N([H])C(=O)C([H])(N([H])C([H])([H])[H])C([H])([H])[H])C(C([H])([H])[H])(C([H])([H])[H])C([H])([H])[H])C([H])(C(=O)N([H])C2([H])c4c([H])c([H])c([H])c([H])c4C([H])([H])C([H])([H])C2([H])[H])C3([H])[H])C([H])([H])C1([H])[H]

$$$$
11:0:0
     RDKit          3D

 96105  0  0  1  0  0  0  0  0999 V2000
  -29.1930  -21.9890   20.1250 C   0  0  0  0  0  2  0  0  0  0  0  0
  -30.9910  -21.8640   21.8290 C   0  0  0  0  0  2  0  0  0  0  0  0
  -29.4300  -23.5150   19.9820 C   0  0  0  0  0  2  0  0  0  0  0  0
  -31.2400  -23.3770   21.6750 C   0  0  0  0  0  2  0  0  0  0  0  0
  -30.4980  -21.2660   20.5040 C   0  0  0  0  0  3  0  0  0  0  0  0
  -30.0440  -24.1340   21.1970 N   0  0  1  0  0  4  0  0  0  0  0  0
  -29.3600  -24.0780   21.9380 H   0  0  0  0  0  0  0  0  0  0  0  0
  -29.5450  -19.0880   21.4560 C   0  0  0  0  0  3  0  0  0  0  0  0
  -29.4660  -17.6810   21.5170 C   0  0  0  0  0  3  0  0  0  0  0  0
  -31.0840  -17.5210   19.7200 C   0  0  0  0  0  3  0  0  0  0  0  0
  -30.4000  -19.7300   20.5310 C   0  0  0  0  0  0  0  0  0  0  0  0
  -30.2420  -16.8750   20.6570 C   0  0  0  0  0  0  0  0  0  0  0  0
  -31.1770  -18.9370   19.6480 C   0  0  0  0  0  0  0  0  0  0  0  0
  -30.7540  -14.4700   20.1050 C   0  0  0  0  0  0  0  0  0  0  0  0
  -30.3940  -12.3450   18.9150 C   0  0  0  0  0  2  0  0  0  0  0  0
  -29.3860  -12.5940   17.7730 C   0  0  0  0  0  2  0  0  0  0  0  0
  -27.9380  -12.4390   18.2800 C   0  0  0  0  0  2  0  0  0  0  0  0
  -27.6750  -13.2330   19.5890 C   0  0  0  0  0  3  0  0  0  0  0  0
  -28.7900  -12.9730   20.6260 C   0  0  0  0  0  2  0  0  0  0  0  0
  -30.0830  -13.2930   19.9960 N   0  0  0  0  0  0  0  0  0  0  0  0
  -31.8510  -14.6530   19.5690 O   0  0  0  0  0  0  0  0  0  0  0  0
  -30.0920  -15.4490   20.7530 N   0  0  0  0  0  0  0  0  0  0  0  0
  -29.2800  -15.1310   21.2600 H   0  0  0  0  0  0  0  0  0  0  0  0
  -25.3160  -13.8080   20.4430 C   0  0  0  0  0  0  0  0  0  0  0  0
  -24.2730  -13.0210   20.8530 C   0  0  0  0  0  0  0  0  0  0  0  0
  -24.7390  -11.6730   20.7620 C   0  0  0  0  0  0  0  0  0  0  0  0
  -26.3510  -12.9400   20.1340 N   0  0  0  0  0  0  0  0  0  0  0  0
  -26.0100  -11.6490   20.3810 N   0  0  0  0  0  0  0  0  0  0  0  0
  -24.0310  -10.4010   20.9610 C   0  0  0  0  0  0  0  0  0  0  0  0
  -24.4770   -9.4470   21.9010 C   0  0  0  0  0  3  0  0  0  0  0  0
  -23.7700   -8.2400   22.0880 C   0  0  0  0  0  3  0  0  0  0  0  0
  -22.6010   -7.9790   21.3340 C   0  0  0  0  0  0  0  0  0  0  0  0
  -22.1730   -8.9220   20.3830 C   0  0  0  0  0  3  0  0  0  0  0  0
  -22.8820  -10.1210   20.1940 C   0  0  0  0  0  3  0  0  0  0  0  0
  -21.8640   -6.8230   21.4280 O   0  0  0  0  0  0  0  0  0  0  0  0
  -21.7610   -6.1300   22.6070 C   0  0  0  0  0  0  0  0  0  0  0  0
  -21.2390   -6.7230   23.7770 C   0  0  0  0  0  3  0  0  0  0  0  0
  -21.0870   -5.9540   24.9490 C   0  0  0  0  0  3  0  0  0  0  0  0
  -21.4470   -4.5930   24.9490 C   0  0  0  0  0  0  0  0  0  0  0  0
  -21.9610   -3.9990   23.7830 C   0  0  0  0  0  3  0  0  0  0  0  0
  -22.1150   -4.7660   22.6150 C   0  0  0  0  0  0  0  0  0  0  0  0
  -22.5920   -4.1840   21.4880 F   0  0  0  0  0  0  0  0  0  0  0  0
  -21.2930   -3.8520   26.0720 F   0  0  0  0  0  0  0  0  0  0  0  0
  -22.8920  -13.4820   21.2160 C   0  0  0  0  0  0  0  0  0  0  0  0
  -22.2190  -12.7610   22.1080 N   0  0  0  0  0  0  0  0  0  0  0  0
  -22.4180  -14.5160   20.7480 O   0  0  0  0  0  0  0  0  0  0  0  0
  -22.6160  -11.9230   22.5070 H   0  0  0  0  0  0  0  0  0  0  0  0
  -21.2950  -13.0500   22.3940 H   0  0  0  0  0  0  0  0  0  0  0  0
  -25.4640  -15.1840   20.2910 N   0  0  0  0  0  0  0  0  0  0  0  0
  -24.7030  -15.8330   20.4610 H   0  0  0  0  0  0  0  0  0  0  0  0
  -26.2960  -15.6350   19.9310 H   0  0  0  0  0  0  0  0  0  0  0  0
  -32.7550  -18.8160   17.8220 C   0  0  0  0  0  1  0  0  0  0  0  0
  -31.9970  -19.5870   18.7470 O   0  0  0  0  0  0  0  0  0  0  0  0
  -30.3770  -25.5800   21.0040 C   0  0  0  0  0  2  0  0  0  0  0  0
  -29.1980  -26.5640   21.1620 C   0  0  0  0  0  2  0  0  0  0  0  0
  -28.4330  -26.6470   19.9610 O   0  0  0  0  0  0  0  0  0  0  0  0
  -24.5780  -31.7840   23.1240 C   0  0  0  0  0  0  0  0  0  0  0  0
  -27.2930  -27.4200   20.0110 C   0  0  0  0  0  0  0  0  0  0  0  0
  -23.3950  -30.3970   21.4480 C   0  0  0  0  0  3  0  0  0  0  0  0
  -24.8760  -28.8900   20.0160 C   0  0  0  0  0  0  0  0  0  0  0  0
  -25.9150  -30.7840   21.2760 C   0  0  0  0  0  2  0  0  0  0  0  0
  -26.0190  -29.4190   20.6280 C   0  0  0  0  0  0  0  0  0  0  0  0
  -27.2280  -28.6910   20.6330 C   0  0  0  0  0  3  0  0  0  0  0  0
  -26.1380  -26.9100   19.3820 C   0  0  0  0  0  3  0  0  0  0  0  0
  -24.9290  -27.6320   19.3920 C   0  0  0  0  0  3  0  0  0  0  0  0
  -23.6220  -29.7340   20.0610 C   0  0  0  0  0  2  0  0  0  0  0  0
  -24.6470  -31.0020   22.0090 N   0  0  0  0  0  0  0  0  0  0  0  0
  -23.4910  -32.0390   23.6600 O   0  0  0  0  0  0  0  0  0  0  0  0
  -22.7440  -29.3580   22.3890 C   0  0  0  0  0  0  0  0  0  0  0  0
  -21.4210  -29.1760   22.2530 N   0  0  0  0  0  0  0  0  0  0  0  0
  -23.4260  -28.7180   23.1930 O   0  0  0  0  0  0  0  0  0  0  0  0
  -20.9320  -29.7440   21.5750 H   0  0  0  0  0  0  0  0  0  0  0  0
  -18.0460  -27.9710   22.7130 C   0  0  0  0  0  0  0  0  0  0  0  0
  -20.6030  -28.2230   23.0030 C   0  0  0  0  0  3  0  0  0  0  0  0
  -20.7080  -26.8040   22.3990 C   0  0  0  0  0  2  0  0  0  0  0  0
  -19.6110  -26.5010   21.3740 C   0  0  0  0  0  2  0  0  0  0  0  0
  -18.2260  -26.6350   22.0140 C   0  0  0  0  0  2  0  0  0  0  0  0
  -19.1630  -28.7250   23.1640 C   0  0  0  0  0  0  0  0  0  0  0  0
  -18.9420  -29.9770   23.7760 C   0  0  0  0  0  3  0  0  0  0  0  0
  -17.6370  -30.4770   23.9440 C   0  0  0  0  0  3  0  0  0  0  0  0
  -16.5340  -29.7200   23.5120 C   0  0  0  0  0  3  0  0  0  0  0  0
  -16.7400  -28.4690   22.9020 C   0  0  0  0  0  3  0  0  0  0  0  0
  -25.8560  -32.4110   23.7630 C   0  0  0  0  0  3  0  0  0  0  0  0
  -26.3830  -31.6110   25.0170 C   0  0  1  0  0  0  0  0  0  0  0  0
  -25.2930  -31.3310   26.0770 C   0  0  0  0  0  1  0  0  0  0  0  0
  -26.9820  -30.2520   24.5840 C   0  0  0  0  0  1  0  0  0  0  0  0
  -27.5240  -32.3990   25.7020 C   0  0  0  0  0  1  0  0  0  0  0  0
  -25.5330  -33.7970   24.1280 N   0  0  0  0  0  0  0  0  0  0  0  0
  -25.8460  -34.8690   23.3890 C   0  0  0  0  0  0  0  0  0  0  0  0
  -26.5090  -34.7970   22.3500 O   0  0  0  0  0  0  0  0  0  0  0  0
  -24.9430  -33.9260   24.9360 H   0  0  0  0  0  0  0  0  0  0  0  0
  -24.0880  -36.6410   23.0860 C   0  0  0  0  0  1  0  0  0  0  0  0
  -25.3430  -36.2400   23.8780 C   0  0  0  0  0  3  0  0  0  0  0  0
  -27.4720  -37.1410   24.7070 C   0  0  0  0  0  1  0  0  0  0  0  0
  -26.3580  -37.3110   23.7770 N   0  0  0  0  0  0  0  0  0  0  0  0
  -25.9390  -38.2210   23.9490 H   0  0  0  0  0  0  0  0  0  0  0  0
  1  5  1  0
  3  1  1  0
  3  6  1  0
  4  2  1  0
  5 11  1  0
  5  2  1  0
  6  4  1  0
  6  7  1  1
  8  9  1  0
 10 12  1  0
 11  8  2  0
 12 22  1  0
 12  9  2  0
 13 10  2  0
 13 11  1  0
 14 22  1  0
 15 20  1  0
 16 17  1  0
 16 15  1  0
 18 17  1  0
 18 27  1  0
 18 19  1  0
 20 14  1  0
 20 19  1  0
 21 14  2  0
 22 23  1  0
 24 25  2  0
 25 44  1  0
 26 25  1  0
 26 29  1  0
 27 28  1  0
 27 24  1  0
 28 26  2  0
 29 30  1  0
 30 31  2  0
 32 35  1  0
 32 31  1  0
 33 32  2  0
 34 33  1  0
 34 29  2  0
 35 36  1  0
 36 41  2  0
 36 37  1  0
 37 38  2  0
 39 38  1  0
 39 43  1  0
 40 39  2  0
 41 40  1  0
 42 41  1  0
 44 45  1  0
 45 48  1  0
 45 47  1  0
 46 44  2  0
 49 24  1  0
 49 50  1  0
 51 49  1  0
 52 53  1  0
 53 13  1  0
 54 55  1  0
 54  6  1  0
 56 58  1  0
 56 55  1  0
 57 68  2  0
 58 63  1  0
 59 67  1  0
 59 69  1  0
 60 66  1  0
 60 62  1  0
 61 67  1  0
 62 63  2  0
 62 61  1  0
 64 65  1  0
 64 58  2  0
 65 60  2  0
 66 59  1  0
 67 57  1  0
 69 71  2  0
 70 69  1  0
 72 70  1  0
 73 82  2  0
 73 78  1  0
 74 70  1  0
 74 78  1  0
 75 74  1  0
 76 77  1  0
 76 75  1  0
 77 73  1  0
 78 79  2  0
 79 80  1  0
 81 80  2  0
 82 81  1  0
 83 57  1  0
 83 88  1  0
 83 84  1  0
 84 87  1  1
 84 85  1  0
 86 84  1  0
 88 91  1  0
 89 93  1  0
 89 88  1  0
 90 89  2  0
 93 92  1  0
 95 93  1  0
 95 96  1  0
 95 94  1  0
M  ISO  4  14 100  22 100  55 101  56 101
M  END
>  <TORSDO>  (12) 
F 20

>  <SCORE>  (12) 
-12.873

>  <name>  (12) 
11

>  <ligand_id>  (12) 
11

>  <original_smiles>  (12) 
[H]c1c([H])c([H])c2c(c1[H])C([H])([H])C([H])([H])C([H])([H])C2([H])N([H])C(=O)C1([H])N(C(=O)C([H])(N([H])C(=O)C([H])(N([H])C([H])([H])[H])C([H])([H])[H])C(C([H])([H])[H])(C([H])([H])[H])C([H])([H])[H])C([H])([H])c2c([H])c(OC([H])([H])C([H])([H])[N+]3([H])C([H])([H])C([H])([H])C([H])(c4c([H])c([H])c(N([H])C(=O)N5C([H])([H])C([H])([H])C([H])([H])C([H])(n6nc(-c7c([H])c([H])c(Oc8c([H])c([H])c(F)c([H])c8F)c([H])c7[H])c(C(=O)N([H])[H])c6N([H])[H])C5([H])[H])c([H])c4OC([H])([H])[H])C([H])([H])C3([H])[H])c([H])c([H])c2C1([H])[H]

>  <smiles>  (12) 
[H]c1c([H])c([H])c2c(c1[H])C([H])([H])C([H])([H])C([H])([H])C2([H])N([H])C(=O)C1([H])N(C(=O)C([H])(N([H])C(=O)C([H])(N([H])C([H])([H])[H])C([H])([H])[H])C(C([H])([H])[H])(C([H])([H])[H])C([H])([H])[H])C([H])([H])c2c([H])c(OC([H])([H])C([H])([H])[N+]3([H])C([H])([H])C([H])([H])C([H])(c4c([H])c([H])c(N([H])C(=O)N5C([H])([H])C([H])([H])C([H])([H])C([H])(n6nc(-c7c([H])c([H])c(Oc8c([H])c([H])c(F)c([H])c8F)c([H])c7[H])c(C(=O)N([H])[H])c6N([H])[H])C5([H])[H])c([H])c4OC([H])([H])[H])C([H])([H])C3([H])[H])c([H])c([H])c2C1([H])[H]

$$$$
12:0:0
     RDKit          3D

 97106  0  0  1  0  0  0  0  0999 V2000
  -28.7210  -23.5750   18.7480 C   0  0  0  0  0  3  0  0  0  0  0  0
  -28.6450  -22.1780   18.5880 C   0  0  0  0  0  3  0  0  0  0  0  0
  -31.1230  -23.3970   19.0520 C   0  0  0  0  0  3  0  0  0  0  0  0
  -29.9670  -24.2000   18.9740 C   0  0  0  0  0  0  0  0  0  0  0  0
  -29.8030  -21.3720   18.6560 C   0  0  0  0  0  0  0  0  0  0  0  0
  -31.0570  -21.9960   18.8910 C   0  0  0  0  0  0  0  0  0  0  0  0
  -32.3520  -21.1980   18.9430 C   0  0  0  0  0  1  0  0  0  0  0  0
  -30.1260  -25.7180   19.0740 C   0  0  0  0  0  2  0  0  0  0  0  0
  -28.8460  -26.5720   19.0010 C   0  0  0  0  0  2  0  0  0  0  0  0
  -28.1910  -26.6130   20.2650 O   0  0  0  0  0  0  0  0  0  0  0  0
  -24.5070  -31.8790   23.3220 C   0  0  0  0  0  0  0  0  0  0  0  0
  -27.0390  -27.3580   20.2790 C   0  0  0  0  0  0  0  0  0  0  0  0
  -23.2620  -30.4890   21.6960 C   0  0  0  0  0  3  0  0  0  0  0  0
  -24.6750  -28.8960   20.2910 C   0  0  0  0  0  0  0  0  0  0  0  0
  -25.7930  -30.7830   21.4940 C   0  0  0  0  0  2  0  0  0  0  0  0
  -25.8430  -29.4020   20.8780 C   0  0  0  0  0  0  0  0  0  0  0  0
  -27.0260  -28.6320   20.8830 C   0  0  0  0  0  3  0  0  0  0  0  0
  -25.8550  -26.8530   19.7020 C   0  0  0  0  0  3  0  0  0  0  0  0
  -24.6730  -27.6170   19.7070 C   0  0  0  0  0  3  0  0  0  0  0  0
  -23.4520  -29.7830   20.3260 C   0  0  0  0  0  2  0  0  0  0  0  0
  -24.5390  -31.0660   22.2280 N   0  0  0  0  0  0  0  0  0  0  0  0
  -23.4350  -32.1860   23.8610 O   0  0  0  0  0  0  0  0  0  0  0  0
  -22.5860  -29.4970   22.6690 C   0  0  0  0  0  0  0  0  0  0  0  0
  -21.2620  -29.3310   22.5270 N   0  0  0  0  0  0  0  0  0  0  0  0
  -23.2510  -28.8770   23.5040 O   0  0  0  0  0  0  0  0  0  0  0  0
  -20.7900  -29.8820   21.8230 H   0  0  0  0  0  0  0  0  0  0  0  0
  -17.8700  -28.1660   22.9660 C   0  0  0  0  0  0  0  0  0  0  0  0
  -20.4200  -28.4220   23.3020 C   0  0  0  0  0  3  0  0  0  0  0  0
  -20.5320  -26.9720   22.7750 C   0  0  0  0  0  2  0  0  0  0  0  0
  -19.4580  -26.6220   21.7410 C   0  0  0  0  0  2  0  0  0  0  0  0
  -18.0580  -26.7950   22.3390 C   0  0  0  0  0  2  0  0  0  0  0  0
  -18.9790  -28.9370   23.4030 C   0  0  0  0  0  0  0  0  0  0  0  0
  -18.7510  -30.2210   23.9430 C   0  0  0  0  0  3  0  0  0  0  0  0
  -17.4460  -30.7340   24.0540 C   0  0  0  0  0  3  0  0  0  0  0  0
  -16.3500  -29.9600   23.6360 C   0  0  0  0  0  3  0  0  0  0  0  0
  -16.5630  -28.6780   23.0980 C   0  0  0  0  0  3  0  0  0  0  0  0
  -25.8130  -32.4790   23.9340 C   0  0  0  0  0  3  0  0  0  0  0  0
  -25.5470  -33.8900   24.2440 N   0  0  0  0  0  0  0  0  0  0  0  0
  -25.9080  -34.9200   23.4690 C   0  0  0  0  0  0  0  0  0  0  0  0
  -26.5720  -34.7830   22.4380 O   0  0  0  0  0  0  0  0  0  0  0  0
  -24.9630  -34.0750   25.0480 H   0  0  0  0  0  0  0  0  0  0  0  0
  -24.2270  -36.7510   23.0910 C   0  0  0  0  0  1  0  0  0  0  0  0
  -25.4600  -36.3280   23.9050 C   0  0  0  0  0  3  0  0  0  0  0  0
  -27.6230  -37.1640   24.7090 C   0  0  0  0  0  1  0  0  0  0  0  0
  -26.5190  -37.3510   23.7710 N   0  0  0  0  0  0  0  0  0  0  0  0
  -26.1410  -38.2830   23.9100 H   0  0  0  0  0  0  0  0  0  0  0  0
  -26.3120  -31.7080   25.2180 C   0  0  1  0  0  0  0  0  0  0  0  0
  -25.2120  -31.5100   26.2890 C   0  0  0  0  0  1  0  0  0  0  0  0
  -26.8590  -30.3130   24.8370 C   0  0  0  0  0  1  0  0  0  0  0  0
  -27.4840  -32.4800   25.8690 C   0  0  0  0  0  1  0  0  0  0  0  0
  -29.6740  -19.8600   18.4530 C   0  0  0  0  0  2  0  0  0  0  0  0
  -27.4130  -17.8080   20.3820 C   0  0  0  0  0  2  0  0  0  0  0  0
  -28.7040  -17.0830   20.7350 C   0  0  0  0  0  2  0  0  0  0  0  0
  -27.8720  -19.2350   20.0690 C   0  0  0  0  0  2  0  0  0  0  0  0
  -29.7300  -17.7360   19.8000 C   0  0  0  0  0  3  0  0  0  0  0  0
  -29.3120  -19.1620   19.7130 N   0  0  1  0  0  4  0  0  0  0  0  0
  -29.7970  -19.6520   20.4500 H   0  0  0  0  0  0  0  0  0  0  0  0
  -31.2000  -17.5760   20.2600 C   0  0  0  0  0  2  0  0  0  0  0  0
  -31.5280  -16.3420   21.1330 C   0  0  0  0  0  2  0  0  0  0  0  0
  -31.2570  -14.1690   19.9170 C   0  0  0  0  0  0  0  0  0  0  0  0
  -30.8220  -11.9190   19.0000 C   0  0  0  0  0  2  0  0  0  0  0  0
  -29.8530  -11.9790   17.8050 C   0  0  0  0  0  2  0  0  0  0  0  0
  -28.3900  -11.9440   18.2880 C   0  0  0  0  0  2  0  0  0  0  0  0
  -28.1110  -12.9740   19.4130 C   0  0  0  0  0  3  0  0  0  0  0  0
  -29.1800  -12.8710   20.5220 C   0  0  0  0  0  2  0  0  0  0  0  0
  -30.5090  -13.0360   19.9020 N   0  0  0  0  0  0  0  0  0  0  0  0
  -32.2760  -14.3270   19.2380 O   0  0  0  0  0  0  0  0  0  0  0  0
  -30.8240  -15.1140   20.7600 N   0  0  0  0  0  0  0  0  0  0  0  0
  -30.0000  -14.8770   21.2910 H   0  0  0  0  0  0  0  0  0  0  0  0
  -25.8050  -13.7900   20.2210 C   0  0  0  0  0  0  0  0  0  0  0  0
  -24.6920  -13.1140   20.6440 C   0  0  0  0  0  0  0  0  0  0  0  0
  -25.0340  -11.7270   20.6010 C   0  0  0  0  0  0  0  0  0  0  0  0
  -26.7590  -12.8210   19.9510 N   0  0  0  0  0  0  0  0  0  0  0  0
  -26.3000  -11.5760   20.2340 N   0  0  0  0  0  0  0  0  0  0  0  0
  -24.2130  -10.5330   20.8330 C   0  0  0  0  0  0  0  0  0  0  0  0
  -24.5920   -9.5470   21.7700 C   0  0  0  0  0  3  0  0  0  0  0  0
  -23.7760   -8.4150   21.9880 C   0  0  0  0  0  3  0  0  0  0  0  0
  -22.5670   -8.2630   21.2690 C   0  0  0  0  0  0  0  0  0  0  0  0
  -22.2050   -9.2360   20.3220 C   0  0  0  0  0  3  0  0  0  0  0  0
  -23.0210  -10.3590   20.1010 C   0  0  0  0  0  3  0  0  0  0  0  0
  -21.7240   -7.1850   21.3970 O   0  0  0  0  0  0  0  0  0  0  0  0
  -21.6350   -6.4750   22.5680 C   0  0  0  0  0  0  0  0  0  0  0  0
  -21.2870   -7.0940   23.7880 C   0  0  0  0  0  3  0  0  0  0  0  0
  -21.1390   -6.3150   24.9540 C   0  0  0  0  0  3  0  0  0  0  0  0
  -21.3280   -4.9210   24.9000 C   0  0  0  0  0  0  0  0  0  0  0  0
  -21.6700   -4.3040   23.6840 C   0  0  0  0  0  3  0  0  0  0  0  0
  -21.8200   -5.0790   22.5210 C   0  0  0  0  0  0  0  0  0  0  0  0
  -22.1280   -4.4770   21.3470 F   0  0  0  0  0  0  0  0  0  0  0  0
  -21.1780   -4.1730   26.0180 F   0  0  0  0  0  0  0  0  0  0  0  0
  -23.3550  -13.7100   20.9780 C   0  0  0  0  0  0  0  0  0  0  0  0
  -22.6200  -13.0910   21.8940 N   0  0  0  0  0  0  0  0  0  0  0  0
  -22.9750  -14.7600   20.4590 O   0  0  0  0  0  0  0  0  0  0  0  0
  -22.9400  -12.2410   22.3340 H   0  0  0  0  0  0  0  0  0  0  0  0
  -21.7230  -13.4720   22.1600 H   0  0  0  0  0  0  0  0  0  0  0  0
  -26.0790  -15.1410   20.0250 N   0  0  0  0  0  0  0  0  0  0  0  0
  -25.3710  -15.8560   20.1480 H   0  0  0  0  0  0  0  0  0  0  0  0
  -26.9380  -15.4950   19.6250 H   0  0  0  0  0  0  0  0  0  0  0  0
  1  4  1  0
  2  5  1  0
  2  1  2  0
  4  3  2  0
  4  8  1  0
  5  6  2  0
  6  7  1  0
  6  3  1  0
  9  8  1  0
  9 10  1  0
 10 12  1  0
 11 22  2  0
 12 17  1  0
 13 21  1  0
 13 23  1  0
 14 20  1  0
 14 16  1  0
 15 21  1  0
 16 17  2  0
 16 15  1  0
 18 19  1  0
 18 12  2  0
 19 14  2  0
 20 13  1  0
 21 11  1  0
 23 25  2  0
 24 23  1  0
 26 24  1  0
 27 36  2  0
 27 32  1  0
 28 24  1  0
 28 32  1  0
 29 28  1  0
 30 31  1  0
 30 29  1  0
 31 27  1  0
 32 33  2  0
 33 34  1  0
 35 34  2  0
 36 35  1  0
 37 11  1  0
 37 38  1  0
 37 47  1  0
 38 41  1  0
 39 43  1  0
 39 38  1  0
 40 39  2  0
 43 42  1  0
 45 43  1  0
 45 46  1  0
 45 44  1  0
 47 50  1  1
 47 48  1  0
 49 47  1  0
 51  5  1  0
 51 56  1  0
 52 53  1  0
 54 52  1  0
 55 58  1  0
 55 53  1  0
 56 55  1  0
 56 54  1  0
 56 57  1  1
 58 59  1  0
 60 68  1  0
 61 66  1  0
 62 63  1  0
 62 61  1  0
 64 63  1  0
 64 73  1  0
 64 65  1  0
 66 60  1  0
 66 65  1  0
 67 60  2  0
 68 59  1  0
 68 69  1  0
 70 71  2  0
 71 90  1  0
 72 71  1  0
 72 75  1  0
 73 70  1  0
 73 74  1  0
 74 72  2  0
 75 76  1  0
 76 77  2  0
 78 81  1  0
 78 77  1  0
 79 78  2  0
 80 79  1  0
 80 75  2  0
 81 82  1  0
 82 83  1  0
 83 84  2  0
 85 84  1  0
 85 89  1  0
 86 85  2  0
 87 82  2  0
 87 86  1  0
 88 87  1  0
 90 91  1  0
 91 94  1  0
 91 93  1  0
 92 90  2  0
 95 96  1  0
 95 70  1  0
 97 95  1  0
M  ISO  4   9 101  10 101  60 100  68 100
M  END
>  <TORSDO>  (13) 
F 22

>  <SCORE>  (13) 
-12.936

>  <name>  (13) 
12

>  <ligand_id>  (13) 
12

>  <original_smiles>  (13) 
[H]c1c([H])c([H])c2c(c1[H])C([H])([H])C([H])([H])C([H])([H])C2([H])N([H])C(=O)C1([H])N(C(=O)C([H])(N([H])C(=O)C([H])(N([H])C([H])([H])[H])C([H])([H])[H])C(C([H])([H])[H])(C([H])([H])[H])C([H])([H])[H])C([H])([H])c2c([H])c(OC([H])([H])C([H])([H])c3c([H])c([H])c(C([H])([H])[N+]4([H])C([H])([H])C([H])([H])C([H])([H])C4([H])C([H])([H])C([H])([H])N([H])C(=O)N4C([H])([H])C([H])([H])C([H])([H])C([H])(n5nc(-c6c([H])c([H])c(Oc7c([H])c([H])c(F)c([H])c7F)c([H])c6[H])c(C(=O)N([H])[H])c5N([H])[H])C4([H])[H])c(C([H])([H])[H])c3[H])c([H])c([H])c2C1([H])[H]

>  <smiles>  (13) 
[H]c1c([H])c([H])c2c(c1[H])C([H])([H])C([H])([H])C([H])([H])C2([H])N([H])C(=O)C1([H])N(C(=O)C([H])(N([H])C(=O)C([H])(N([H])C([H])([H])[H])C([H])([H])[H])C(C([H])([H])[H])(C([H])([H])[H])C([H])([H])[H])C([H])([H])c2c([H])c(OC([H])([H])C([H])([H])c3c([H])c([H])c(C([H])([H])[N+]4([H])C([H])([H])C([H])([H])C([H])([H])C4([H])C([H])([H])C([H])([H])N([H])C(=O)N4C([H])([H])C([H])([H])C([H])([H])C([H])(n5nc(-c6c([H])c([H])c(Oc7c([H])c([H])c(F)c([H])c7F)c([H])c6[H])c(C(=O)N([H])[H])c5N([H])[H])C4([H])[H])c(C([H])([H])[H])c3[H])c([H])c([H])c2C1([H])[H]

$$$$
13:0:0
     RDKit          3D

 99108  0  0  1  0  0  0  0  0999 V2000
  -27.4070  -22.1540   17.8140 C   0  0  0  0  0  2  0  0  0  0  0  0
  -26.1250  -21.3520   18.0790 C   0  0  0  0  0  2  0  0  0  0  0  0
  -28.2290  -22.0140   19.1020 C   0  0  0  0  0  3  0  0  0  0  0  0
  -27.7930  -20.6360   19.6680 C   0  0  0  0  0  3  0  0  0  0  0  0
  -26.4220  -20.3970   19.1740 N   0  0  0  0  0  4  0  0  0  0  0  0
  -26.3750  -19.4470   18.8410 H   0  0  0  0  0  0  0  0  0  0  0  0
  -25.7680  -20.5110   19.9310 H   0  0  0  0  0  0  0  0  0  0  0  0
  -28.6970  -19.4650   19.2400 C   0  0  0  0  0  0  0  0  0  0  0  0
  -29.2610  -18.7110   20.1980 N   0  0  0  0  0  0  0  0  0  0  0  0
  -28.8530  -19.2170   18.0420 O   0  0  0  0  0  0  0  0  0  0  0  0
  -29.0860  -18.9500   21.1650 H   0  0  0  0  0  0  0  0  0  0  0  0
  -30.0420  -17.5050   19.9280 C   0  0  0  0  0  2  0  0  0  0  0  0
  -30.4450  -16.7590   21.2240 C   0  0  0  0  0  2  0  0  0  0  0  0
  -30.7330  -14.4050   20.4540 C   0  0  0  0  0  0  0  0  0  0  0  0
  -30.3890  -12.2990   19.2220 C   0  0  0  0  0  2  0  0  0  0  0  0
  -29.4410  -12.5510   18.0320 C   0  0  0  0  0  2  0  0  0  0  0  0
  -27.9660  -12.4350   18.4650 C   0  0  0  0  0  2  0  0  0  0  0  0
  -27.6550  -13.2480   19.7500 C   0  0  0  0  0  3  0  0  0  0  0  0
  -28.7070  -12.9590   20.8440 C   0  0  0  0  0  2  0  0  0  0  0  0
  -30.0410  -13.2490   20.2880 N   0  0  0  0  0  0  0  0  0  0  0  0
  -31.8150  -14.6390   19.9130 O   0  0  0  0  0  0  0  0  0  0  0  0
  -30.0890  -15.3430   21.1600 N   0  0  0  0  0  0  0  0  0  0  0  0
  -29.2160  -15.0640   21.5820 H   0  0  0  0  0  0  0  0  0  0  0  0
  -25.2570  -13.8880   20.4410 C   0  0  0  0  0  0  0  0  0  0  0  0
  -24.1790  -13.1280   20.8140 C   0  0  0  0  0  0  0  0  0  0  0  0
  -24.6290  -11.7720   20.7940 C   0  0  0  0  0  0  0  0  0  0  0  0
  -26.2950  -12.9940   20.2240 N   0  0  0  0  0  0  0  0  0  0  0  0
  -25.9180  -11.7180   20.4910 N   0  0  0  0  0  0  0  0  0  0  0  0
  -23.8920  -10.5170   20.9930 C   0  0  0  0  0  0  0  0  0  0  0  0
  -24.3210   -9.5500   21.9310 C   0  0  0  0  0  3  0  0  0  0  0  0
  -23.5880   -8.3590   22.1180 C   0  0  0  0  0  3  0  0  0  0  0  0
  -22.4100   -8.1270   21.3680 C   0  0  0  0  0  0  0  0  0  0  0  0
  -22.0000   -9.0810   20.4200 C   0  0  0  0  0  3  0  0  0  0  0  0
  -22.7340  -10.2640   20.2320 C   0  0  0  0  0  3  0  0  0  0  0  0
  -21.6480   -6.9860   21.4630 O   0  0  0  0  0  0  0  0  0  0  0  0
  -21.6020   -6.2460   22.6170 C   0  0  0  0  0  0  0  0  0  0  0  0
  -21.1930   -6.8090   23.8460 C   0  0  0  0  0  3  0  0  0  0  0  0
  -21.0920   -5.9970   24.9930 C   0  0  0  0  0  3  0  0  0  0  0  0
  -21.3900   -4.6240   24.9120 C   0  0  0  0  0  0  0  0  0  0  0  0
  -21.7900   -4.0600   23.6880 C   0  0  0  0  0  3  0  0  0  0  0  0
  -21.8930   -4.8700   22.5440 C   0  0  0  0  0  0  0  0  0  0  0  0
  -22.2590   -4.3170   21.3620 F   0  0  0  0  0  0  0  0  0  0  0  0
  -21.2850   -3.8430   26.0120 F   0  0  0  0  0  0  0  0  0  0  0  0
  -22.7850  -13.6160   21.0840 C   0  0  0  0  0  0  0  0  0  0  0  0
  -22.0540  -12.9280   21.9540 N   0  0  0  0  0  0  0  0  0  0  0  0
  -22.3540  -14.6400   20.5540 O   0  0  0  0  0  0  0  0  0  0  0  0
  -22.4180  -12.0970   22.3990 H   0  0  0  0  0  0  0  0  0  0  0  0
  -21.1180  -13.2320   22.1770 H   0  0  0  0  0  0  0  0  0  0  0  0
  -25.4400  -15.2550   20.2500 N   0  0  0  0  0  0  0  0  0  0  0  0
  -24.6900  -15.9260   20.3580 H   0  0  0  0  0  0  0  0  0  0  0  0
  -26.3060  -15.6720   19.9350 H   0  0  0  0  0  0  0  0  0  0  0  0
  -27.9180  -23.1600   20.0760 C   0  0  0  0  0  0  0  0  0  0  0  0
  -26.8910  -23.1190   20.7640 O   0  0  0  0  0  0  0  0  0  0  0  0
  -30.1380  -24.5330   22.2260 C   0  0  0  0  0  2  0  0  0  0  0  0
  -30.2330  -23.9700   20.8080 C   0  0  0  0  0  2  0  0  0  0  0  0
  -29.3970  -25.8530   22.0400 C   0  0  0  0  0  2  0  0  0  0  0  0
  -28.9000  -24.3500   20.1310 C   0  0  0  0  0  3  0  0  0  0  0  0
  -28.3800  -25.5820   20.9240 C   0  0  0  0  0  3  0  0  0  0  0  0
  -28.3170  -26.7390   20.0950 O   0  0  0  0  0  0  0  0  0  0  0  0
  -24.5390  -31.8900   23.2400 C   0  0  0  0  0  0  0  0  0  0  0  0
  -27.1440  -27.4440   20.1600 C   0  0  0  0  0  0  0  0  0  0  0  0
  -23.3150  -30.4930   21.6010 C   0  0  0  0  0  3  0  0  0  0  0  0
  -24.7520  -28.9290   20.1890 C   0  0  0  0  0  0  0  0  0  0  0  0
  -25.8410  -30.8360   21.3950 C   0  0  0  0  0  2  0  0  0  0  0  0
  -25.9140  -29.4610   20.7650 C   0  0  0  0  0  0  0  0  0  0  0  0
  -27.1150  -28.7260   20.7480 C   0  0  0  0  0  3  0  0  0  0  0  0
  -25.9680  -26.9090   19.5960 C   0  0  0  0  0  3  0  0  0  0  0  0
  -24.7730  -27.6490   19.6050 C   0  0  0  0  0  3  0  0  0  0  0  0
  -23.5150  -29.7960   20.2270 C   0  0  0  0  0  2  0  0  0  0  0  0
  -24.5820  -31.0890   22.1350 N   0  0  0  0  0  0  0  0  0  0  0  0
  -23.4620  -32.1690   23.7830 O   0  0  0  0  0  0  0  0  0  0  0  0
  -22.6570  -29.4840   22.5680 C   0  0  0  0  0  0  0  0  0  0  0  0
  -21.3290  -29.3190   22.4480 N   0  0  0  0  0  0  0  0  0  0  0  0
  -23.3380  -28.8500   23.3780 O   0  0  0  0  0  0  0  0  0  0  0  0
  -20.8420  -29.8830   21.7640 H   0  0  0  0  0  0  0  0  0  0  0  0
  -17.9420  -28.1750   22.9600 C   0  0  0  0  0  0  0  0  0  0  0  0
  -20.5040  -28.3920   23.2200 C   0  0  0  0  0  3  0  0  0  0  0  0
  -20.5810  -26.9600   22.6410 C   0  0  0  0  0  2  0  0  0  0  0  0
  -19.4700  -26.6550   21.6320 C   0  0  0  0  0  2  0  0  0  0  0  0
  -18.0940  -26.8230   22.2820 C   0  0  0  0  0  2  0  0  0  0  0  0
  -19.0740  -28.9190   23.3850 C   0  0  0  0  0  0  0  0  0  0  0  0
  -18.8800  -30.1870   23.9730 C   0  0  0  0  0  3  0  0  0  0  0  0
  -17.5840  -30.7100   24.1460 C   0  0  0  0  0  3  0  0  0  0  0  0
  -16.4660  -29.9610   23.7380 C   0  0  0  0  0  3  0  0  0  0  0  0
  -16.6450  -28.6960   23.1510 C   0  0  0  0  0  3  0  0  0  0  0  0
  -25.8340  -32.5090   23.8550 C   0  0  0  0  0  3  0  0  0  0  0  0
  -25.5410  -33.9110   24.1800 N   0  0  0  0  0  0  0  0  0  0  0  0
  -25.8850  -34.9570   23.4200 C   0  0  0  0  0  0  0  0  0  0  0  0
  -26.5550  -34.8460   22.3890 O   0  0  0  0  0  0  0  0  0  0  0  0
  -24.9580  -34.0740   24.9890 H   0  0  0  0  0  0  0  0  0  0  0  0
  -24.1810  -36.7680   23.0450 C   0  0  0  0  0  1  0  0  0  0  0  0
  -25.4090  -36.3510   23.8710 C   0  0  0  0  0  3  0  0  0  0  0  0
  -27.5460  -37.2090   24.7230 C   0  0  0  0  0  1  0  0  0  0  0  0
  -26.4530  -37.3930   23.7700 N   0  0  0  0  0  0  0  0  0  0  0  0
  -26.0560  -38.3170   23.9170 H   0  0  0  0  0  0  0  0  0  0  0  0
  -26.3500  -31.7350   25.1300 C   0  0  1  0  0  0  0  0  0  0  0  0
  -25.2610  -31.5100   26.2040 C   0  0  0  0  0  1  0  0  0  0  0  0
  -26.9170  -30.3530   24.7340 C   0  0  0  0  0  1  0  0  0  0  0  0
  -27.5060  -32.5230   25.7900 C   0  0  0  0  0  1  0  0  0  0  0  0
  1  2  1  0
  1  3  1  0
  2  5  1  0
  3  4  1  0
  3 52  1  0
  4  8  1  0
  5  4  1  0
  5  7  1  0
  6  5  1  0
  8  9  1  0
  9 11  1  0
 10  8  2  0
 12  9  1  0
 12 13  1  0
 14 22  1  0
 15 20  1  0
 16 17  1  0
 16 15  1  0
 18 17  1  0
 18 27  1  0
 18 19  1  0
 20 14  1  0
 20 19  1  0
 21 14  2  0
 22 13  1  0
 22 23  1  0
 24 25  2  0
 25 44  1  0
 26 25  1  0
 26 29  1  0
 27 24  1  0
 27 28  1  0
 28 26  2  0
 29 30  1  0
 30 31  2  0
 32 35  1  0
 32 31  1  0
 33 32  2  0
 34 33  1  0
 34 29  2  0
 35 36  1  0
 36 37  1  0
 37 38  2  0
 39 38  1  0
 39 43  1  0
 40 39  2  0
 41 36  2  0
 41 40  1  0
 42 41  1  0
 44 45  1  0
 45 48  1  0
 45 47  1  0
 46 44  2  0
 49 50  1  0
 49 24  1  0
 51 49  1  0
 52 53  2  0
 55 54  1  0
 56 54  1  0
 57 52  1  0
 57 55  1  0
 57 58  1  0
 58 59  1  0
 58 56  1  0
 59 61  1  0
 60 71  2  0
 61 66  1  0
 62 70  1  0
 62 72  1  0
 63 69  1  0
 63 65  1  0
 64 70  1  0
 65 64  1  0
 66 65  2  0
 67 68  1  0
 67 61  2  0
 68 63  2  0
 69 62  1  0
 70 60  1  0
 72 74  2  0
 73 72  1  0
 75 73  1  0
 76 85  2  0
 76 81  1  0
 77 73  1  0
 77 81  1  0
 78 77  1  0
 79 80  1  0
 79 78  1  0
 80 76  1  0
 81 82  2  0
 82 83  1  0
 84 83  2  0
 85 84  1  0
 86 60  1  0
 86 87  1  0
 86 96  1  0
 87 90  1  0
 88 92  1  0
 88 87  1  0
 89 88  2  0
 92 91  1  0
 94 92  1  0
 94 95  1  0
 94 93  1  0
 96 99  1  1
 96 97  1  0
 98 96  1  0
M  ISO  4  14 100  22 100  58 101  59 101
M  END
>  <TORSDO>  (14) 
F 21

>  <SCORE>  (14) 
-13.726

>  <name>  (14) 
13

>  <ligand_id>  (14) 
13

>  <original_smiles>  (14) 
[H]c1c([H])c([H])c2c(c1[H])C([H])([H])C([H])([H])C([H])([H])C2([H])N([H])C(=O)C1([H])N(C(=O)C([H])(N([H])C(=O)C([H])(N([H])C([H])([H])[H])C([H])([H])[H])C(C([H])([H])[H])(C([H])([H])[H])C([H])([H])[H])C([H])([H])c2c([H])c(OC3([H])C([H])([H])C([H])([H])C([H])([H])C3([H])C(=O)C3([H])C([H])([H])C([H])([H])[N+]([H])([H])C3([H])C(=O)N([H])C([H])([H])C([H])([H])N([H])C(=O)N3C([H])([H])C([H])([H])C([H])([H])C([H])(n4nc(-c5c([H])c([H])c(Oc6c([H])c([H])c(F)c([H])c6F)c([H])c5[H])c(C(=O)N([H])[H])c4N([H])[H])C3([H])[H])c([H])c([H])c2C1([H])[H]

>  <smiles>  (14) 
[H]c1c([H])c([H])c2c(c1[H])C([H])([H])C([H])([H])C([H])([H])C2([H])N([H])C(=O)C1([H])N(C(=O)C([H])(N([H])C(=O)C([H])(N([H])C([H])([H])[H])C([H])([H])[H])C(C([H])([H])[H])(C([H])([H])[H])C([H])([H])[H])C([H])([H])c2c([H])c(OC3([H])C([H])([H])C([H])([H])C([H])([H])C3([H])C(=O)C3([H])C([H])([H])C([H])([H])[N+]([H])([H])C3([H])C(=O)N([H])C([H])([H])C([H])([H])N([H])C(=O)N3C([H])([H])C([H])([H])C([H])([H])C([H])(n4nc(-c5c([H])c([H])c(Oc6c([H])c([H])c(F)c([H])c6F)c([H])c5[H])c(C(=O)N([H])[H])c4N([H])[H])C3([H])[H])c([H])c([H])c2C1([H])[H]

$$$$
14:0:0
     RDKit          3D

 94103  0  0  1  0  0  0  0  0999 V2000
  -29.9230  -23.5890   18.1330 C   0  0  0  0  0  3  0  0  0  0  0  0
  -29.8180  -22.3010   18.7420 C   0  0  0  0  0  3  0  0  0  0  0  0
  -28.4050  -24.5090   19.7330 C   0  0  0  0  0  3  0  0  0  0  0  0
  -28.2870  -23.2210   20.3590 C   0  0  0  0  0  0  0  0  0  0  0  0
  -29.2310  -24.7350   18.6100 C   0  0  0  0  0  0  0  0  0  0  0  0
  -29.0210  -22.0750   19.8960 C   0  0  0  0  0  0  0  0  0  0  0  0
  -25.3400  -23.3450   22.3320 C   0  0  0  0  0  2  0  0  0  0  0  0
  -26.4490  -24.3190   21.9410 C   0  0  0  0  0  2  0  0  0  0  0  0
  -26.0090  -22.3190   21.4120 C   0  0  0  0  0  2  0  0  0  0  0  0
  -27.3220  -23.1120   21.5370 C   0  0  0  0  0  3  0  0  0  0  0  0
  -28.9960  -20.8230   20.6170 N   0  0  0  0  0  0  0  0  0  0  0  0
  -28.4790  -20.8880   21.4880 H   0  0  0  0  0  0  0  0  0  0  0  0
  -29.0710  -19.4160   20.0930 C   0  0  0  0  0  2  0  0  0  0  0  0
  -29.7990  -18.3420   21.0490 C   0  0  0  0  0  2  0  0  0  0  0  0
  -30.4020  -15.8130   20.6710 C   0  0  0  0  0  0  0  0  0  0  0  0
  -30.4790  -13.4870   19.7570 C   0  0  0  0  0  2  0  0  0  0  0  0
  -29.6280  -13.4100   18.4710 C   0  0  0  0  0  2  0  0  0  0  0  0
  -28.1530  -13.1220   18.8130 C   0  0  0  0  0  2  0  0  0  0  0  0
  -27.6130  -14.0390   19.9440 C   0  0  0  0  0  3  0  0  0  0  0  0
  -28.5910  -14.0970   21.1390 C   0  0  0  0  0  2  0  0  0  0  0  0
  -29.8920  -14.5380   20.6190 N   0  0  0  0  0  0  0  0  0  0  0  0
  -31.5800  -16.0280   20.3730 O   0  0  0  0  0  0  0  0  0  0  0  0
  -29.5250  -16.8550   20.8940 N   0  0  0  0  0  0  0  0  0  0  0  0
  -28.5810  -16.5700   21.1030 H   0  0  0  0  0  0  0  0  0  0  0  0
  -25.1660  -14.4560   20.5900 C   0  0  0  0  0  0  0  0  0  0  0  0
  -24.1320  -13.6060   20.8710 C   0  0  0  0  0  0  0  0  0  0  0  0
  -24.6730  -12.2850   20.7890 C   0  0  0  0  0  0  0  0  0  0  0  0
  -26.2690  -13.6520   20.3560 N   0  0  0  0  0  0  0  0  0  0  0  0
  -25.9750  -12.3380   20.5370 N   0  0  0  0  0  0  0  0  0  0  0  0
  -24.0140  -10.9750   20.8800 C   0  0  0  0  0  0  0  0  0  0  0  0
  -24.4570   -9.9850   21.7850 C   0  0  0  0  0  3  0  0  0  0  0  0
  -23.7940   -8.7420   21.8660 C   0  0  0  0  0  3  0  0  0  0  0  0
  -22.6750   -8.4770   21.0420 C   0  0  0  0  0  0  0  0  0  0  0  0
  -22.2530   -9.4570   20.1260 C   0  0  0  0  0  3  0  0  0  0  0  0
  -22.9160  -10.6920   20.0420 C   0  0  0  0  0  3  0  0  0  0  0  0
  -21.9860   -7.2880   21.0330 O   0  0  0  0  0  0  0  0  0  0  0  0
  -21.9050   -6.4970   22.1510 C   0  0  0  0  0  0  0  0  0  0  0  0
  -21.3590   -6.9740   23.3630 C   0  0  0  0  0  3  0  0  0  0  0  0
  -21.2300   -6.1070   24.4650 C   0  0  0  0  0  3  0  0  0  0  0  0
  -21.6370   -4.7630   24.3580 C   0  0  0  0  0  0  0  0  0  0  0  0
  -22.1740   -4.2850   23.1500 C   0  0  0  0  0  3  0  0  0  0  0  0
  -22.3050   -5.1490   22.0490 C   0  0  0  0  0  0  0  0  0  0  0  0
  -22.8050   -4.6780   20.8820 F   0  0  0  0  0  0  0  0  0  0  0  0
  -21.5060   -3.9270   25.4150 F   0  0  0  0  0  0  0  0  0  0  0  0
  -22.6990  -13.9860   21.1090 C   0  0  0  0  0  0  0  0  0  0  0  0
  -21.9830  -13.2040   21.9080 N   0  0  0  0  0  0  0  0  0  0  0  0
  -22.2210  -15.0120   20.6250 O   0  0  0  0  0  0  0  0  0  0  0  0
  -22.3840  -12.3700   22.3150 H   0  0  0  0  0  0  0  0  0  0  0  0
  -21.0230  -13.4370   22.1190 H   0  0  0  0  0  0  0  0  0  0  0  0
  -25.2600  -15.8420   20.4870 N   0  0  0  0  0  0  0  0  0  0  0  0
  -24.4550  -16.4520   20.5720 H   0  0  0  0  0  0  0  0  0  0  0  0
  -26.0930  -16.3330   20.1870 H   0  0  0  0  0  0  0  0  0  0  0  0
  -29.3410  -26.1070   17.8370 C   0  0  0  0  0  2  0  0  0  0  0  0
  -29.0970  -27.4020   18.4930 O   0  0  0  0  0  0  0  0  0  0  0  0
  -24.6610  -31.3280   22.5720 C   0  0  0  0  0  0  0  0  0  0  0  0
  -27.8170  -27.9710   18.6110 C   0  0  0  0  0  0  0  0  0  0  0  0
  -23.5970  -29.9920   20.7820 C   0  0  0  0  0  3  0  0  0  0  0  0
  -25.1850  -29.0250   19.0190 C   0  0  0  0  0  0  0  0  0  0  0  0
  -25.9930  -30.8590   20.5070 C   0  0  0  0  0  2  0  0  0  0  0  0
  -26.2810  -29.6450   19.6310 C   0  0  0  0  0  0  0  0  0  0  0  0
  -27.5910  -29.1210   19.4290 C   0  0  0  0  0  3  0  0  0  0  0  0
  -26.6820  -27.3890   18.0010 C   0  0  0  0  0  3  0  0  0  0  0  0
  -25.3860  -27.9070   18.1960 C   0  0  0  0  0  3  0  0  0  0  0  0
  -23.8080  -29.5910   19.2960 C   0  0  0  0  0  2  0  0  0  0  0  0
  -24.7710  -30.7370   21.3480 N   0  0  0  0  0  0  0  0  0  0  0  0
  -23.5990  -31.2900   23.2110 O   0  0  0  0  0  0  0  0  0  0  0  0
  -23.2310  -28.7260   21.5930 C   0  0  0  0  0  0  0  0  0  0  0  0
  -21.9600  -28.2990   21.5020 N   0  0  0  0  0  0  0  0  0  0  0  0
  -24.0840  -28.1360   22.2610 O   0  0  0  0  0  0  0  0  0  0  0  0
  -21.3180  -28.8450   20.9470 H   0  0  0  0  0  0  0  0  0  0  0  0
  -18.9300  -26.3770   21.9590 C   0  0  0  0  0  0  0  0  0  0  0  0
  -21.4060  -27.1010   22.1350 C   0  0  0  0  0  3  0  0  0  0  0  0
  -21.7300  -25.8340   21.3110 C   0  0  0  0  0  2  0  0  0  0  0  0
  -20.6240  -25.4580   20.3190 C   0  0  0  0  0  2  0  0  0  0  0  0
  -19.3000  -25.2180   21.0500 C   0  0  0  0  0  2  0  0  0  0  0  0
  -19.9160  -27.2710   22.4570 C   0  0  0  0  0  0  0  0  0  0  0  0
  -19.5120  -28.3510   23.2700 C   0  0  0  0  0  3  0  0  0  0  0  0
  -18.1570  -28.5420   23.5940 C   0  0  0  0  0  3  0  0  0  0  0  0
  -17.1870  -27.6440   23.1150 C   0  0  0  0  0  3  0  0  0  0  0  0
  -17.5740  -26.5640   22.3010 C   0  0  0  0  0  3  0  0  0  0  0  0
  -25.8540  -32.0960   23.2240 C   0  0  0  0  0  3  0  0  0  0  0  0
  -25.3180  -33.3150   23.8410 N   0  0  0  0  0  0  0  0  0  0  0  0
  -25.4270  -34.5430   23.3220 C   0  0  0  0  0  0  0  0  0  0  0  0
  -26.0580  -34.7790   22.2870 O   0  0  0  0  0  0  0  0  0  0  0  0
  -24.7530  -33.1940   24.6710 H   0  0  0  0  0  0  0  0  0  0  0  0
  -23.4050  -36.0330   23.3550 C   0  0  0  0  0  1  0  0  0  0  0  0
  -24.7230  -35.6940   24.0650 C   0  0  0  0  0  3  0  0  0  0  0  0
  -26.7040  -36.7410   25.0670 C   0  0  0  0  0  1  0  0  0  0  0  0
  -25.5530  -36.9120   24.1850 N   0  0  0  0  0  0  0  0  0  0  0  0
  -25.0010  -37.6900   24.5340 H   0  0  0  0  0  0  0  0  0  0  0  0
  -26.6400  -31.2360   24.2890 C   0  0  1  0  0  0  0  0  0  0  0  0
  -25.7280  -30.5990   25.3650 C   0  0  0  0  0  1  0  0  0  0  0  0
  -27.4330  -30.1020   23.5980 C   0  0  0  0  0  1  0  0  0  0  0  0
  -27.6800  -32.1240   25.0130 C   0  0  0  0  0  1  0  0  0  0  0  0
  1  5  2  0
  1  2  1  0
  2  6  2  0
  3  4  2  0
  4 10  1  0
  5  3  1  0
  6  4  1  0
  6 11  1  0
  8  7  1  0
  9 10  1  0
  9  7  1  0
 10  8  1  0
 11 12  1  0
 13 11  1  0
 13 14  1  0
 15 23  1  0
 16 21  1  0
 17 18  1  0
 17 16  1  0
 19 18  1  0
 19 28  1  0
 19 20  1  0
 21 15  1  0
 21 20  1  0
 22 15  2  0
 23 14  1  0
 23 24  1  0
 25 26  2  0
 26 45  1  0
 27 26  1  0
 27 30  1  0
 28 29  1  0
 28 25  1  0
 29 27  2  0
 30 31  1  0
 31 32  2  0
 33 32  1  0
 34 33  2  0
 35 34  1  0
 35 30  2  0
 36 33  1  0
 36 37  1  0
 37 38  1  0
 38 39  2  0
 40 39  1  0
 40 44  1  0
 41 40  2  0
 42 37  2  0
 42 41  1  0
 43 42  1  0
 45 46  1  0
 46 49  1  0
 46 48  1  0
 47 45  2  0
 50 51  1  0
 50 25  1  0
 52 50  1  0
 53 54  1  0
 53  5  1  0
 54 56  1  0
 55 66  2  0
 56 61  1  0
 57 65  1  0
 57 67  1  0
 58 64  1  0
 58 60  1  0
 59 65  1  0
 60 59  1  0
 61 60  2  0
 62 63  1  0
 62 56  2  0
 63 58  2  0
 64 57  1  0
 65 55  1  0
 67 69  2  0
 68 67  1  0
 70 68  1  0
 71 80  2  0
 71 76  1  0
 72 68  1  0
 72 76  1  0
 73 72  1  0
 74 75  1  0
 74 73  1  0
 75 71  1  0
 76 77  2  0
 77 78  1  0
 79 78  2  0
 80 79  1  0
 81 55  1  0
 81 82  1  0
 81 91  1  0
 82 85  1  0
 83 82  1  0
 83 87  1  0
 84 83  2  0
 87 86  1  0
 87 89  1  0
 89 90  1  0
 89 88  1  0
 91 94  1  1
 91 92  1  0
 93 91  1  0
M  ISO  4  15 100  23 100  53 101  54 101
M  END
>  <TORSDO>  (15) 
F 21

>  <SCORE>  (15) 
-6.937

>  <name>  (15) 
14

>  <ligand_id>  (15) 
14

>  <original_smiles>  (15) 
[H]c1c([H])c([H])c2c(c1[H])C([H])([H])C([H])([H])C([H])([H])C2([H])N([H])C(=O)C1([H])N(C(=O)C([H])(N([H])C(=O)C([H])(N([H])C([H])([H])[H])C([H])([H])[H])C(C([H])([H])[H])(C([H])([H])[H])C([H])([H])[H])C([H])([H])c2c([H])c(OC([H])([H])c3c([H])c([H])c(N([H])C([H])([H])C([H])([H])N([H])C(=O)N4C([H])([H])C([H])([H])C([H])([H])C([H])(n5nc(-c6c([H])c([H])c(Oc7c([H])c([H])c(F)c([H])c7F)c([H])c6[H])c(C(=O)N([H])[H])c5N([H])[H])C4([H])[H])c(C4([H])C([H])([H])C([H])([H])C4([H])[H])c3[H])c([H])c([H])c2C1([H])[H]

>  <smiles>  (15) 
[H]c1c([H])c([H])c2c(c1[H])C([H])([H])C([H])([H])C([H])([H])C2([H])N([H])C(=O)C1([H])N(C(=O)C([H])(N([H])C(=O)C([H])(N([H])C([H])([H])[H])C([H])([H])[H])C(C([H])([H])[H])(C([H])([H])[H])C([H])([H])[H])C([H])([H])c2c([H])c(OC([H])([H])c3c([H])c([H])c(N([H])C([H])([H])C([H])([H])N([H])C(=O)N4C([H])([H])C([H])([H])C([H])([H])C([H])(n5nc(-c6c([H])c([H])c(Oc7c([H])c([H])c(F)c([H])c7F)c([H])c6[H])c(C(=O)N([H])[H])c5N([H])[H])C4([H])[H])c(C4([H])C([H])([H])C([H])([H])C4([H])[H])c3[H])c([H])c([H])c2C1([H])[H]

$$$$
15:0:0
     RDKit          3D

 91 99  0  0  1  0  0  0  0  0999 V2000
  -29.9680  -22.8330   21.1680 C   0  0  0  0  0  3  0  0  0  0  0  0
  -27.9040  -21.8930   20.3000 C   0  0  0  0  0  3  0  0  0  0  0  0
  -30.5440  -21.5460   21.1860 C   0  0  0  0  0  3  0  0  0  0  0  0
  -28.4830  -20.6000   20.3190 C   0  0  0  0  0  3  0  0  0  0  0  0
  -28.6390  -23.0210   20.7350 C   0  0  0  0  0  0  0  0  0  0  0  0
  -29.8070  -20.4130   20.7800 C   0  0  0  0  0  0  0  0  0  0  0  0
  -30.4390  -19.1580   20.8630 N   0  0  0  0  0  0  0  0  0  0  0  0
  -31.3880  -19.1310   21.2300 H   0  0  0  0  0  0  0  0  0  0  0  0
  -29.7500  -17.8760   20.7260 C   0  0  0  0  0  2  0  0  0  0  0  0
  -30.5200  -16.7550   21.4670 C   0  0  0  0  0  2  0  0  0  0  0  0
  -30.6480  -14.4680   20.4340 C   0  0  0  0  0  0  0  0  0  0  0  0
  -30.3150  -12.3540   19.2040 C   0  0  0  0  0  2  0  0  0  0  0  0
  -29.3540  -12.5850   18.0210 C   0  0  0  0  0  2  0  0  0  0  0  0
  -27.8870  -12.4400   18.4710 C   0  0  0  0  0  2  0  0  0  0  0  0
  -27.5730  -13.2580   19.7530 C   0  0  0  0  0  3  0  0  0  0  0  0
  -28.6390  -12.9960   20.8400 C   0  0  0  0  0  2  0  0  0  0  0  0
  -29.9600  -13.3080   20.2670 N   0  0  0  0  0  0  0  0  0  0  0  0
  -31.7390  -14.6840   19.8960 O   0  0  0  0  0  0  0  0  0  0  0  0
  -30.0230  -15.4080   21.1630 N   0  0  0  0  0  0  0  0  0  0  0  0
  -29.1300  -15.1490   21.5580 H   0  0  0  0  0  0  0  0  0  0  0  0
  -25.1820  -13.8710   20.4870 C   0  0  0  0  0  0  0  0  0  0  0  0
  -24.1160  -13.0990   20.8630 C   0  0  0  0  0  0  0  0  0  0  0  0
  -24.5750  -11.7470   20.8250 C   0  0  0  0  0  0  0  0  0  0  0  0
  -26.2230  -12.9880   20.2430 N   0  0  0  0  0  0  0  0  0  0  0  0
  -25.8610  -11.7050   20.5030 N   0  0  0  0  0  0  0  0  0  0  0  0
  -23.8490  -10.4850   21.0190 C   0  0  0  0  0  0  0  0  0  0  0  0
  -24.2970   -9.5100   21.9370 C   0  0  0  0  0  3  0  0  0  0  0  0
  -23.5720   -8.3130   22.1200 C   0  0  0  0  0  3  0  0  0  0  0  0
  -22.3860   -8.0820   21.3840 C   0  0  0  0  0  0  0  0  0  0  0  0
  -21.9570   -9.0460   20.4540 C   0  0  0  0  0  3  0  0  0  0  0  0
  -22.6830  -10.2340   20.2690 C   0  0  0  0  0  3  0  0  0  0  0  0
  -21.6340   -6.9360   21.4740 O   0  0  0  0  0  0  0  0  0  0  0  0
  -21.6120   -6.1780   22.6170 C   0  0  0  0  0  0  0  0  0  0  0  0
  -21.2210   -6.7170   23.8620 C   0  0  0  0  0  3  0  0  0  0  0  0
  -21.1470   -5.8860   24.9980 C   0  0  0  0  0  3  0  0  0  0  0  0
  -21.4540   -4.5160   24.8890 C   0  0  0  0  0  0  0  0  0  0  0  0
  -21.8380   -3.9750   23.6490 C   0  0  0  0  0  3  0  0  0  0  0  0
  -21.9140   -4.8050   22.5160 C   0  0  0  0  0  0  0  0  0  0  0  0
  -22.2640   -4.2750   21.3180 F   0  0  0  0  0  0  0  0  0  0  0  0
  -21.3750   -3.7150   25.9770 F   0  0  0  0  0  0  0  0  0  0  0  0
  -22.7220  -13.5780   21.1530 C   0  0  0  0  0  0  0  0  0  0  0  0
  -22.0040  -12.8810   22.0260 N   0  0  0  0  0  0  0  0  0  0  0  0
  -22.2810  -14.6060   20.6410 O   0  0  0  0  0  0  0  0  0  0  0  0
  -22.3750  -12.0510   22.4620 H   0  0  0  0  0  0  0  0  0  0  0  0
  -21.0700  -13.1860   22.2630 H   0  0  0  0  0  0  0  0  0  0  0  0
  -25.3500  -15.2430   20.3170 N   0  0  0  0  0  0  0  0  0  0  0  0
  -24.5920  -15.9020   20.4550 H   0  0  0  0  0  0  0  0  0  0  0  0
  -26.2040  -15.6830   20.0000 H   0  0  0  0  0  0  0  0  0  0  0  0
  -28.0130  -24.4170   20.8070 C   0  0  0  0  0  2  0  0  0  0  0  0
  -28.5360  -25.4180   19.7480 C   0  0  0  0  0  2  0  0  0  0  0  0
  -28.4360  -26.7870   20.1730 O   0  0  0  0  0  0  0  0  0  0  0  0
  -24.5740  -31.8930   23.2580 C   0  0  0  0  0  0  0  0  0  0  0  0
  -27.2290  -27.4580   20.1670 C   0  0  0  0  0  0  0  0  0  0  0  0
  -23.3690  -30.4900   21.6150 C   0  0  0  0  0  3  0  0  0  0  0  0
  -24.8230  -28.9530   20.1910 C   0  0  0  0  0  0  0  0  0  0  0  0
  -25.8920  -30.8550   21.4120 C   0  0  0  0  0  2  0  0  0  0  0  0
  -25.9790  -29.4840   20.7750 C   0  0  0  0  0  0  0  0  0  0  0  0
  -27.1820  -28.7440   20.7570 C   0  0  0  0  0  3  0  0  0  0  0  0
  -26.0480  -26.9320   19.5950 C   0  0  0  0  0  3  0  0  0  0  0  0
  -24.8510  -27.6760   19.6030 C   0  0  0  0  0  3  0  0  0  0  0  0
  -23.5790  -29.8110   20.2350 C   0  0  0  0  0  2  0  0  0  0  0  0
  -24.6300  -31.0960   22.1550 N   0  0  0  0  0  0  0  0  0  0  0  0
  -23.4930  -32.1630   23.8000 O   0  0  0  0  0  0  0  0  0  0  0  0
  -22.7210  -29.4680   22.5760 C   0  0  0  0  0  0  0  0  0  0  0  0
  -21.3970  -29.2810   22.4470 N   0  0  0  0  0  0  0  0  0  0  0  0
  -23.4050  -28.8450   23.3920 O   0  0  0  0  0  0  0  0  0  0  0  0
  -20.9050  -29.8370   21.7610 H   0  0  0  0  0  0  0  0  0  0  0  0
  -18.0270  -28.0730   22.9360 C   0  0  0  0  0  0  0  0  0  0  0  0
  -20.5830  -28.3390   23.2150 C   0  0  0  0  0  3  0  0  0  0  0  0
  -20.6900  -26.9090   22.6390 C   0  0  0  0  0  2  0  0  0  0  0  0
  -19.5930  -26.5830   21.6200 C   0  0  0  0  0  2  0  0  0  0  0  0
  -18.2090  -26.7240   22.2610 C   0  0  0  0  0  2  0  0  0  0  0  0
  -19.1420  -28.8380   23.3700 C   0  0  0  0  0  0  0  0  0  0  0  0
  -18.9180  -30.1000   23.9610 C   0  0  0  0  0  3  0  0  0  0  0  0
  -17.6120  -30.5990   24.1200 C   0  0  0  0  0  3  0  0  0  0  0  0
  -16.5110  -29.8310   23.7020 C   0  0  0  0  0  3  0  0  0  0  0  0
  -16.7190  -28.5690   23.1190 C   0  0  0  0  0  3  0  0  0  0  0  0
  -25.8600  -32.5260   23.8790 C   0  0  0  0  0  3  0  0  0  0  0  0
  -25.5520  -33.9260   24.2010 N   0  0  0  0  0  0  0  0  0  0  0  0
  -25.8930  -34.9730   23.4380 C   0  0  0  0  0  0  0  0  0  0  0  0
  -26.5710  -34.8620   22.4120 O   0  0  0  0  0  0  0  0  0  0  0  0
  -24.9520  -34.0860   24.9960 H   0  0  0  0  0  0  0  0  0  0  0  0
  -24.1780  -36.7710   23.0490 C   0  0  0  0  0  1  0  0  0  0  0  0
  -25.4050  -36.3650   23.8810 C   0  0  0  0  0  3  0  0  0  0  0  0
  -27.5330  -37.2450   24.7340 C   0  0  0  0  0  1  0  0  0  0  0  0
  -26.4430  -37.4140   23.7760 N   0  0  0  0  0  0  0  0  0  0  0  0
  -26.0390  -38.3360   23.9110 H   0  0  0  0  0  0  0  0  0  0  0  0
  -26.3750  -31.7590   25.1590 C   0  0  1  0  0  0  0  0  0  0  0  0
  -25.2840  -31.5270   26.2280 C   0  0  0  0  0  1  0  0  0  0  0  0
  -26.9570  -30.3790   24.7680 C   0  0  0  0  0  1  0  0  0  0  0  0
  -27.5250  -32.5550   25.8180 C   0  0  0  0  0  1  0  0  0  0  0  0
  1  3  1  0
  2  4  2  0
  2  5  1  0
  4  6  1  0
  5 49  1  0
  5  1  2  0
  6  7  1  0
  6  3  2  0
  7  8  1  0
  9  7  1  0
  9 10  1  0
 11 19  1  0
 12 17  1  0
 13 14  1  0
 13 12  1  0
 15 14  1  0
 15 24  1  0
 15 16  1  0
 17 11  1  0
 17 16  1  0
 18 11  2  0
 19 10  1  0
 19 20  1  0
 21 22  2  0
 22 41  1  0
 23 22  1  0
 23 26  1  0
 24 21  1  0
 24 25  1  0
 25 23  2  0
 26 27  1  0
 27 28  2  0
 29 32  1  0
 29 28  1  0
 30 29  2  0
 31 30  1  0
 31 26  2  0
 32 33  1  0
 33 34  1  0
 34 35  2  0
 36 35  1  0
 36 40  1  0
 37 36  2  0
 38 33  2  0
 38 37  1  0
 39 38  1  0
 41 42  1  0
 42 45  1  0
 42 44  1  0
 43 41  2  0
 46 47  1  0
 46 21  1  0
 48 46  1  0
 50 51  1  0
 50 49  1  0
 52 63  2  0
 53 51  1  0
 53 58  1  0
 54 62  1  0
 54 64  1  0
 55 61  1  0
 55 57  1  0
 56 62  1  0
 57 56  1  0
 58 57  2  0
 59 60  1  0
 59 53  2  0
 60 55  2  0
 61 54  1  0
 62 52  1  0
 64 66  2  0
 65 64  1  0
 67 65  1  0
 68 77  2  0
 68 73  1  0
 69 65  1  0
 69 73  1  0
 70 69  1  0
 71 72  1  0
 71 70  1  0
 72 68  1  0
 73 74  2  0
 74 75  1  0
 76 75  2  0
 77 76  1  0
 78 52  1  0
 78 79  1  0
 78 88  1  0
 79 82  1  0
 80 84  1  0
 80 79  1  0
 81 80  2  0
 84 83  1  0
 86 84  1  0
 86 87  1  0
 86 85  1  0
 88 91  1  1
 88 89  1  0
 90 88  1  0
M  ISO  4  11 100  19 100  50 101  51 101
M  END
>  <TORSDO>  (16) 
F 21

>  <SCORE>  (16) 
-13.668

>  <name>  (16) 
15

>  <ligand_id>  (16) 
15

>  <original_smiles>  (16) 
[H]c1c([H])c([H])c2c(c1[H])C([H])([H])C([H])([H])C([H])([H])C2([H])N([H])C(=O)C1([H])N(C(=O)C([H])(N([H])C(=O)C([H])(N([H])C([H])([H])[H])C([H])([H])[H])C(C([H])([H])[H])(C([H])([H])[H])C([H])([H])[H])C([H])([H])c2c([H])c(OC([H])([H])C([H])([H])c3c([H])c([H])c(N([H])C([H])([H])C([H])([H])N([H])C(=O)N4C([H])([H])C([H])([H])C([H])([H])C([H])(n5nc(-c6c([H])c([H])c(Oc7c([H])c([H])c(F)c([H])c7F)c([H])c6[H])c(C(=O)N([H])[H])c5N([H])[H])C4([H])[H])c([H])c3[H])c([H])c([H])c2C1([H])[H]

>  <smiles>  (16) 
[H]c1c([H])c([H])c2c(c1[H])C([H])([H])C([H])([H])C([H])([H])C2([H])N([H])C(=O)C1([H])N(C(=O)C([H])(N([H])C(=O)C([H])(N([H])C([H])([H])[H])C([H])([H])[H])C(C([H])([H])[H])(C([H])([H])[H])C([H])([H])[H])C([H])([H])c2c([H])c(OC([H])([H])C([H])([H])c3c([H])c([H])c(N([H])C([H])([H])C([H])([H])N([H])C(=O)N4C([H])([H])C([H])([H])C([H])([H])C([H])(n5nc(-c6c([H])c([H])c(Oc7c([H])c([H])c(F)c([H])c7F)c([H])c6[H])c(C(=O)N([H])[H])c5N([H])[H])C4([H])[H])c([H])c3[H])c([H])c([H])c2C1([H])[H]

$$$$
16:0:0
     RDKit          3D

 97106  0  0  1  0  0  0  0  0999 V2000
  -27.9260  -20.6190   20.7770 C   0  0  0  0  0  3  0  0  0  0  0  0
  -28.6710  -19.4490   20.5860 C   0  0  0  0  0  3  0  0  0  0  0  0
  -29.9800  -20.6340   18.9330 C   0  0  0  0  0  3  0  0  0  0  0  0
  -28.2060  -21.8530   20.1300 C   0  0  0  0  0  0  0  0  0  0  0  0
  -29.7460  -19.4130   19.6940 C   0  0  0  0  0  0  0  0  0  0  0  0
  -29.2340  -21.8790   19.1060 C   0  0  0  0  0  0  0  0  0  0  0  0
  -27.1370  -25.5040   20.6670 C   0  0  0  0  0  2  0  0  0  0  0  0
  -28.2180  -24.4430   20.7030 C   0  0  0  0  0  2  0  0  0  0  0  0
  -26.1150  -24.8190   19.7800 C   0  0  0  0  0  2  0  0  0  0  0  0
  -27.4870  -23.0940   20.7530 C   0  0  0  0  0  3  0  0  0  0  0  0
  -26.1260  -23.3900   20.1880 N   0  0  1  0  0  4  0  0  0  0  0  0
  -26.0350  -22.8520   19.3380 H   0  0  0  0  0  0  0  0  0  0  0  0
  -23.6660  -23.7520   20.8030 C   0  0  0  0  0  1  0  0  0  0  0  0
  -24.9850  -22.9890   21.0760 C   0  0  0  0  0  2  0  0  0  0  0  0
  -29.7530  -23.2390   18.4180 C   0  0  0  0  0  2  0  0  0  0  0  0
  -28.8590  -24.4300   17.7550 C   0  0  0  0  0  3  0  0  0  0  0  0
  -28.9840  -25.9200   18.3950 C   0  0  0  0  0  3  0  0  0  0  0  0
  -28.4340  -27.1690   17.7910 O   0  0  0  0  0  0  0  0  0  0  0  0
  -25.1950  -30.2490   23.5220 C   0  0  0  0  0  0  0  0  0  0  0  0
  -27.3360  -27.8270   18.3730 C   0  0  0  0  0  0  0  0  0  0  0  0
  -23.7790  -29.8100   21.5460 C   0  0  0  0  0  3  0  0  0  0  0  0
  -25.0300  -29.1750   19.4000 C   0  0  0  0  0  0  0  0  0  0  0  0
  -26.2920  -30.2410   21.2650 C   0  0  0  0  0  2  0  0  0  0  0  0
  -26.2670  -29.3480   20.0290 C   0  0  0  0  0  0  0  0  0  0  0  0
  -27.4270  -28.6950   19.5060 C   0  0  0  0  0  3  0  0  0  0  0  0
  -26.0750  -27.7010   17.7580 C   0  0  0  0  0  3  0  0  0  0  0  0
  -24.9350  -28.3650   18.2540 C   0  0  0  0  0  3  0  0  0  0  0  0
  -23.8340  -29.8890   19.9960 C   0  0  0  0  0  2  0  0  0  0  0  0
  -25.1140  -30.0900   22.1680 N   0  0  0  0  0  0  0  0  0  0  0  0
  -24.1840  -30.1910   24.2370 O   0  0  0  0  0  0  0  0  0  0  0  0
  -23.1890  -28.4400   21.9610 C   0  0  0  0  0  0  0  0  0  0  0  0
  -21.8770  -28.2490   21.7360 N   0  0  0  0  0  0  0  0  0  0  0  0
  -23.9120  -27.5680   22.4540 O   0  0  0  0  0  0  0  0  0  0  0  0
  -21.3370  -29.0150   21.3520 H   0  0  0  0  0  0  0  0  0  0  0  0
  -18.6580  -26.6330   21.3660 C   0  0  0  0  0  0  0  0  0  0  0  0
  -21.1330  -27.0180   22.0070 C   0  0  0  0  0  3  0  0  0  0  0  0
  -21.4580  -25.9180   20.9700 C   0  0  0  0  0  2  0  0  0  0  0  0
  -20.4850  -25.8950   19.7840 C   0  0  0  0  0  2  0  0  0  0  0  0
  -19.0520  -25.6620   20.2720 C   0  0  0  0  0  2  0  0  0  0  0  0
  -19.6330  -27.2800   22.1760 C   0  0  0  0  0  0  0  0  0  0  0  0
  -19.2030  -28.1850   23.1710 C   0  0  0  0  0  3  0  0  0  0  0  0
  -17.8330  -28.4430   23.3690 C   0  0  0  0  0  3  0  0  0  0  0  0
  -16.8740  -27.7890   22.5760 C   0  0  0  0  0  3  0  0  0  0  0  0
  -17.2870  -26.8890   21.5780 C   0  0  0  0  0  3  0  0  0  0  0  0
  -26.5530  -30.5340   24.2320 C   0  0  0  0  0  3  0  0  0  0  0  0
  -26.3470  -31.6770   25.1330 N   0  0  0  0  0  0  0  0  0  0  0  0
  -26.8040  -32.9130   24.9130 C   0  0  0  0  0  0  0  0  0  0  0  0
  -27.5020  -33.2010   23.9360 O   0  0  0  0  0  0  0  0  0  0  0  0
  -25.7280  -31.5230   25.9160 H   0  0  0  0  0  0  0  0  0  0  0  0
  -25.2970  -34.8820   25.3690 C   0  0  0  0  0  1  0  0  0  0  0  0
  -26.4280  -34.0090   25.9350 C   0  0  0  0  0  3  0  0  0  0  0  0
  -28.5780  -34.1820   27.1160 C   0  0  0  0  0  1  0  0  0  0  0  0
  -27.5630  -34.8740   26.3250 N   0  0  0  0  0  0  0  0  0  0  0  0
  -27.2360  -35.6780   26.8570 H   0  0  0  0  0  0  0  0  0  0  0  0
  -27.1240  -29.2910   25.0240 C   0  0  1  0  0  0  0  0  0  0  0  0
  -26.1090  -28.6510   26.0090 C   0  0  0  0  0  1  0  0  0  0  0  0
  -27.5850  -28.1890   24.0490 C   0  0  0  0  0  1  0  0  0  0  0  0
  -28.3760  -29.7210   25.8230 C   0  0  0  0  0  1  0  0  0  0  0  0
  -30.6130  -18.0880   19.6350 C   0  0  0  0  0  2  0  0  0  0  0  0
  -30.9670  -15.7750   20.7980 C   0  0  0  0  0  0  0  0  0  0  0  0
  -30.9840  -13.2850   20.7320 C   0  0  0  0  0  2  0  0  0  0  0  0
  -30.3750  -12.8280   19.3860 C   0  0  0  0  0  2  0  0  0  0  0  0
  -28.8420  -12.7120   19.4930 C   0  0  0  0  0  2  0  0  0  0  0  0
  -28.1930  -13.9600   20.1520 C   0  0  0  0  0  3  0  0  0  0  0  0
  -28.9420  -14.3790   21.4360 C   0  0  0  0  0  2  0  0  0  0  0  0
  -30.3550  -14.5780   21.0830 N   0  0  0  0  0  0  0  0  0  0  0  0
  -32.2000  -15.8410   20.7140 O   0  0  0  0  0  0  0  0  0  0  0  0
  -30.1820  -16.8240   20.3760 N   0  0  0  0  0  0  0  0  0  0  0  0
  -29.1900  -16.6680   20.4460 H   0  0  0  0  0  0  0  0  0  0  0  0
  -25.7420  -14.7110   20.3390 C   0  0  0  0  0  0  0  0  0  0  0  0
  -24.5830  -14.0150   20.5440 C   0  0  0  0  0  0  0  0  0  0  0  0
  -24.9620  -12.6480   20.7050 C   0  0  0  0  0  0  0  0  0  0  0  0
  -26.7610  -13.7720   20.3840 N   0  0  0  0  0  0  0  0  0  0  0  0
  -26.2860  -12.5310   20.6650 N   0  0  0  0  0  0  0  0  0  0  0  0
  -24.1390  -11.4380   20.8430 C   0  0  0  0  0  0  0  0  0  0  0  0
  -24.4330  -10.4500   21.8080 C   0  0  0  0  0  3  0  0  0  0  0  0
  -23.6160   -9.3050   21.9330 C   0  0  0  0  0  3  0  0  0  0  0  0
  -22.4910   -9.1420   21.0890 C   0  0  0  0  0  0  0  0  0  0  0  0
  -22.2180  -10.1160   20.1140 C   0  0  0  0  0  3  0  0  0  0  0  0
  -23.0340  -11.2510   19.9880 C   0  0  0  0  0  3  0  0  0  0  0  0
  -21.6580   -8.0500   21.1190 O   0  0  0  0  0  0  0  0  0  0  0  0
  -21.6240   -7.2010   22.1970 C   0  0  0  0  0  0  0  0  0  0  0  0
  -21.3400   -7.6630   23.5010 C   0  0  0  0  0  3  0  0  0  0  0  0
  -21.2470   -6.7470   24.5670 C   0  0  0  0  0  3  0  0  0  0  0  0
  -21.4250   -5.3710   24.3330 C   0  0  0  0  0  0  0  0  0  0  0  0
  -21.7010   -4.9070   23.0340 C   0  0  0  0  0  3  0  0  0  0  0  0
  -21.7960   -5.8210   21.9690 C   0  0  0  0  0  0  0  0  0  0  0  0
  -22.0420   -5.3700   20.7150 F   0  0  0  0  0  0  0  0  0  0  0  0
  -21.3270   -4.4890   25.3540 F   0  0  0  0  0  0  0  0  0  0  0  0
  -23.1890  -14.5720   20.4950 C   0  0  0  0  0  0  0  0  0  0  0  0
  -22.2710  -13.9970   21.2630 N   0  0  0  0  0  0  0  0  0  0  0  0
  -22.9180  -15.5520   19.8030 O   0  0  0  0  0  0  0  0  0  0  0  0
  -22.5010  -13.2080   21.8490 H   0  0  0  0  0  0  0  0  0  0  0  0
  -21.3240  -14.3550   21.2670 H   0  0  0  0  0  0  0  0  0  0  0  0
  -26.0040  -16.0560   20.0960 N   0  0  0  0  0  0  0  0  0  0  0  0
  -25.2390  -16.7110   19.9720 H   0  0  0  0  0  0  0  0  0  0  0  0
  -26.9040  -16.4390   19.8410 H   0  0  0  0  0  0  0  0  0  0  0  0
  2  1  1  0
  3  6  2  0
  3  5  1  0
  4  1  2  0
  5  2  2  0
  6  4  1  0
  7  8  1  0
  8 10  1  0
  9 11  1  0
  9  7  1  0
 10  4  1  0
 11 10  1  0
 11 14  1  0
 11 12  1  6
 13 14  1  0
 15  6  1  0
 16 17  2  0
 16 15  1  0
 18 20  1  0
 18 17  1  0
 19 30  2  0
 20 25  1  0
 21 31  1  0
 21 29  1  0
 22 28  1  0
 22 24  1  0
 23 29  1  0
 24 23  1  0
 25 24  2  0
 26 27  1  0
 26 20  2  0
 27 22  2  0
 28 21  1  0
 29 19  1  0
 31 33  2  0
 32 31  1  0
 34 32  1  0
 35 44  2  0
 35 40  1  0
 36 32  1  0
 36 40  1  0
 37 36  1  0
 38 39  1  0
 38 37  1  0
 39 35  1  0
 40 41  2  0
 41 42  1  0
 43 42  2  0
 44 43  1  0
 45 19  1  0
 45 55  1  0
 45 46  1  0
 46 49  1  0
 47 46  1  0
 47 51  1  0
 48 47  2  0
 51 50  1  0
 51 53  1  0
 53 54  1  0
 53 52  1  0
 55 58  1  1
 55 56  1  0
 57 55  1  0
 59  5  1  0
 59 68  1  0
 60 66  1  0
 61 66  1  0
 62 63  1  0
 62 61  1  0
 64 63  1  0
 64 73  1  0
 64 65  1  0
 66 65  1  0
 67 60  2  0
 68 69  1  0
 68 60  1  0
 70 73  1  0
 70 71  2  0
 71 72  1  0
 72 75  1  0
 73 74  1  0
 74 72  2  0
 75 76  1  0
 76 77  2  0
 78 81  1  0
 78 77  1  0
 79 78  2  0
 80 79  1  0
 80 75  2  0
 81 82  1  0
 82 83  1  0
 83 84  2  0
 85 84  1  0
 85 89  1  0
 86 85  2  0
 87 82  2  0
 87 86  1  0
 88 87  1  0
 90 71  1  0
 90 91  1  0
 91 94  1  0
 91 93  1  0
 92 90  2  0
 95 70  1  0
 96 95  1  0
 97 95  1  0
M  ISO  4  17 101  18 101  60 100  68 100
M  END
>  <TORSDO>  (17) 
F 22

>  <SCORE>  (17) 
-7.126

>  <name>  (17) 
16

>  <ligand_id>  (17) 
16

>  <original_smiles>  (17) 
[H]c1c([H])c([H])c2c(c1[H])C([H])([H])C([H])([H])C([H])([H])C2([H])N([H])C(=O)C1([H])N(C(=O)C([H])(N([H])C(=O)C([H])(N([H])C([H])([H])[H])C([H])([H])[H])C(C([H])([H])[H])(C([H])([H])[H])C([H])([H])[H])C([H])([H])c2c([H])c(OC([H])([H])C([H])([H])C([H])([H])c3c([H])c(C([H])([H])N([H])C(=O)N4C([H])([H])C([H])([H])C([H])([H])C([H])(n5nc(-c6c([H])c([H])c(Oc7c([H])c([H])c(F)c([H])c7F)c([H])c6[H])c(C(=O)N([H])[H])c5N([H])[H])C4([H])[H])c([H])c([H])c3C3([H])C([H])([H])C([H])([H])C([H])([H])[N+]3([H])C([H])([H])C([H])([H])[H])c([H])c([H])c2C1([H])[H]

>  <smiles>  (17) 
[H]c1c([H])c([H])c2c(c1[H])C([H])([H])C([H])([H])C([H])([H])C2([H])N([H])C(=O)C1([H])N(C(=O)C([H])(N([H])C(=O)C([H])(N([H])C([H])([H])[H])C([H])([H])[H])C(C([H])([H])[H])(C([H])([H])[H])C([H])([H])[H])C([H])([H])c2c([H])c(OC([H])([H])C([H])([H])C([H])([H])c3c([H])c(C([H])([H])N([H])C(=O)N4C([H])([H])C([H])([H])C([H])([H])C([H])(n5nc(-c6c([H])c([H])c(Oc7c([H])c([H])c(F)c([H])c7F)c([H])c6[H])c(C(=O)N([H])[H])c5N([H])[H])C4([H])[H])c([H])c([H])c3C3([H])C([H])([H])C([H])([H])C([H])([H])[N+]3([H])C([H])([H])C([H])([H])[H])c([H])c([H])c2C1([H])[H]

$$$$
17:0:0
     RDKit          3D

 97105  0  0  1  0  0  0  0  0999 V2000
  -29.0160  -24.9730   18.3460 C   0  0  0  0  0  3  0  0  0  0  0  0
  -28.8290  -23.5890   18.1710 C   0  0  0  0  0  3  0  0  0  0  0  0
  -29.7430  -24.5940   20.6330 C   0  0  0  0  0  3  0  0  0  0  0  0
  -29.4520  -25.4850   19.5850 C   0  0  0  0  0  0  0  0  0  0  0  0
  -29.5760  -23.2060   20.4610 C   0  0  0  0  0  0  0  0  0  0  0  0
  -29.1040  -22.6890   19.2320 C   0  0  0  0  0  0  0  0  0  0  0  0
  -29.9360  -22.2800   21.6100 C   0  0  0  0  0  2  0  0  0  0  0  0
  -29.2180  -21.2270   23.8070 C   0  0  0  0  0  1  0  0  0  0  0  0
  -28.8140  -22.1490   22.6500 C   0  0  0  0  0  2  0  0  0  0  0  0
  -29.6400  -26.9760   19.8040 C   0  0  0  0  0  2  0  0  0  0  0  0
  -29.0350  -27.7630   18.7880 O   0  0  0  0  0  0  0  0  0  0  0  0
  -24.7740  -31.4920   23.0810 C   0  0  0  0  0  0  0  0  0  0  0  0
  -27.7670  -28.1960   19.0670 C   0  0  0  0  0  0  0  0  0  0  0  0
  -23.6380  -30.2080   21.2940 C   0  0  0  0  0  3  0  0  0  0  0  0
  -25.1720  -29.1960   19.5250 C   0  0  0  0  0  0  0  0  0  0  0  0
  -26.0400  -31.0250   20.9940 C   0  0  0  0  0  2  0  0  0  0  0  0
  -26.2780  -29.8170   20.1190 C   0  0  0  0  0  0  0  0  0  0  0  0
  -27.5770  -29.3220   19.8930 C   0  0  0  0  0  3  0  0  0  0  0  0
  -26.6500  -27.5690   18.4780 C   0  0  0  0  0  3  0  0  0  0  0  0
  -25.3510  -28.0640   18.7070 C   0  0  0  0  0  3  0  0  0  0  0  0
  -23.8170  -29.8090   19.8040 C   0  0  0  0  0  2  0  0  0  0  0  0
  -24.8380  -30.9140   21.8480 N   0  0  0  0  0  0  0  0  0  0  0  0
  -23.7240  -31.4820   23.7380 O   0  0  0  0  0  0  0  0  0  0  0  0
  -23.2510  -28.9430   22.0930 C   0  0  0  0  0  0  0  0  0  0  0  0
  -21.9970  -28.4960   21.9310 N   0  0  0  0  0  0  0  0  0  0  0  0
  -24.0760  -28.3720   22.8130 O   0  0  0  0  0  0  0  0  0  0  0  0
  -21.3800  -29.0230   21.3280 H   0  0  0  0  0  0  0  0  0  0  0  0
  -18.9970  -26.5000   22.1620 C   0  0  0  0  0  0  0  0  0  0  0  0
  -21.4230  -27.3030   22.5530 C   0  0  0  0  0  3  0  0  0  0  0  0
  -21.8590  -26.0200   21.8090 C   0  0  0  0  0  2  0  0  0  0  0  0
  -20.8700  -25.5840   20.7250 C   0  0  0  0  0  2  0  0  0  0  0  0
  -19.4880  -25.3230   21.3330 C   0  0  0  0  0  2  0  0  0  0  0  0
  -19.9050  -27.4380   22.7230 C   0  0  0  0  0  0  0  0  0  0  0  0
  -19.3950  -28.5310   23.4550 C   0  0  0  0  0  3  0  0  0  0  0  0
  -18.0100  -28.6950   23.6330 C   0  0  0  0  0  3  0  0  0  0  0  0
  -17.1170  -27.7540   23.0910 C   0  0  0  0  0  3  0  0  0  0  0  0
  -17.6110  -26.6590   22.3610 C   0  0  0  0  0  3  0  0  0  0  0  0
  -26.0070  -32.2130   23.7120 C   0  0  0  0  0  3  0  0  0  0  0  0
  -26.6730  -31.3960   24.8850 C   0  0  1  0  0  0  0  0  0  0  0  0
  -25.6670  -30.9260   25.9610 C   0  0  0  0  0  1  0  0  0  0  0  0
  -27.3980  -30.1440   24.3370 C   0  0  0  0  0  1  0  0  0  0  0  0
  -27.7480  -32.2610   25.5860 C   0  0  0  0  0  1  0  0  0  0  0  0
  -25.5540  -33.5270   24.1830 N   0  0  0  0  0  0  0  0  0  0  0  0
  -25.7870  -34.6850   23.5490 C   0  0  0  0  0  0  0  0  0  0  0  0
  -26.4780  -34.7640   22.5290 O   0  0  0  0  0  0  0  0  0  0  0  0
  -24.9390  -33.5330   24.9840 H   0  0  0  0  0  0  0  0  0  0  0  0
  -23.9080  -36.3410   23.3210 C   0  0  0  0  0  1  0  0  0  0  0  0
  -25.1510  -35.9550   24.1400 C   0  0  0  0  0  3  0  0  0  0  0  0
  -27.1440  -36.9320   25.1880 C   0  0  0  0  0  1  0  0  0  0  0  0
  -26.0800  -37.1040   24.2040 N   0  0  0  0  0  0  0  0  0  0  0  0
  -25.5790  -37.9600   24.4260 H   0  0  0  0  0  0  0  0  0  0  0  0
  -28.9000  -21.3270   19.1670 O   0  0  0  0  0  0  0  0  0  0  0  0
  -29.2500  -20.6080   17.9860 C   0  0  0  0  0  2  0  0  0  0  0  0
  -30.7160  -20.1520   18.0840 C   0  0  0  0  0  2  0  0  0  0  0  0
  -30.9740  -19.4810   19.3820 N   0  0  0  0  0  4  0  0  0  0  0  0
  -31.1360  -20.1980   20.0730 H   0  0  0  0  0  0  0  0  0  0  0  0
  -30.1390  -18.9820   19.6510 H   0  0  0  0  0  0  0  0  0  0  0  0
  -32.1040  -18.5280   19.3860 C   0  0  0  0  0  2  0  0  0  0  0  0
  -32.2990  -17.8450   20.7670 C   0  0  0  0  0  2  0  0  0  0  0  0
  -32.4940  -15.4090   20.2400 C   0  0  0  0  0  0  0  0  0  0  0  0
  -32.1040  -13.2030   19.2190 C   0  0  0  0  0  2  0  0  0  0  0  0
  -31.2170  -13.3780   17.9650 C   0  0  0  0  0  2  0  0  0  0  0  0
  -29.7190  -13.3830   18.3380 C   0  0  0  0  0  2  0  0  0  0  0  0
  -29.3940  -14.3150   19.5370 C   0  0  0  0  0  3  0  0  0  0  0  0
  -30.3960  -14.0960   20.6940 C   0  0  0  0  0  2  0  0  0  0  0  0
  -31.7580  -14.2730   20.1620 N   0  0  0  0  0  0  0  0  0  0  0  0
  -33.6160  -15.5410   19.7420 O   0  0  0  0  0  0  0  0  0  0  0  0
  -31.8490  -16.4520   20.7770 N   0  0  0  0  0  0  0  0  0  0  0  0
  -30.9320  -16.2580   21.1500 H   0  0  0  0  0  0  0  0  0  0  0  0
  -27.0340  -15.1240   20.1880 C   0  0  0  0  0  0  0  0  0  0  0  0
  -25.8960  -14.4450   20.5310 C   0  0  0  0  0  0  0  0  0  0  0  0
  -26.2360  -13.0590   20.4880 C   0  0  0  0  0  0  0  0  0  0  0  0
  -28.0080  -14.1580   19.9750 N   0  0  0  0  0  0  0  0  0  0  0  0
  -27.5250  -12.9090   20.2040 N   0  0  0  0  0  0  0  0  0  0  0  0
  -25.3970  -11.8640   20.6430 C   0  0  0  0  0  0  0  0  0  0  0  0
  -25.6120  -10.9430   21.6930 C   0  0  0  0  0  3  0  0  0  0  0  0
  -24.7830   -9.8090   21.8280 C   0  0  0  0  0  3  0  0  0  0  0  0
  -23.7240   -9.5920   20.9150 C   0  0  0  0  0  0  0  0  0  0  0  0
  -23.5290  -10.5020   19.8600 C   0  0  0  0  0  3  0  0  0  0  0  0
  -24.3570  -11.6260   19.7240 C   0  0  0  0  0  3  0  0  0  0  0  0
  -22.8880   -8.5030   20.9490 O   0  0  0  0  0  0  0  0  0  0  0  0
  -22.4530   -7.9690   22.1370 C   0  0  0  0  0  0  0  0  0  0  0  0
  -21.6630   -8.7110   23.0430 C   0  0  0  0  0  3  0  0  0  0  0  0
  -21.1860   -8.1040   24.2210 C   0  0  0  0  0  3  0  0  0  0  0  0
  -21.4860   -6.7550   24.4890 C   0  0  0  0  0  0  0  0  0  0  0  0
  -22.2650   -6.0110   23.5840 C   0  0  0  0  0  3  0  0  0  0  0  0
  -22.7460   -6.6180   22.4110 C   0  0  0  0  0  0  0  0  0  0  0  0
  -23.4810   -5.8930   21.5310 F   0  0  0  0  0  0  0  0  0  0  0  0
  -21.0200   -6.1650   25.6150 F   0  0  0  0  0  0  0  0  0  0  0  0
  -24.5410  -15.0390   20.7830 C   0  0  0  0  0  0  0  0  0  0  0  0
  -23.7390  -14.4000   21.6280 N   0  0  0  0  0  0  0  0  0  0  0  0
  -24.2010  -16.1000   20.2610 O   0  0  0  0  0  0  0  0  0  0  0  0
  -24.0220  -13.5380   22.0730 H   0  0  0  0  0  0  0  0  0  0  0  0
  -22.8300  -14.7820   21.8420 H   0  0  0  0  0  0  0  0  0  0  0  0
  -27.3170  -16.4760   20.0150 N   0  0  0  0  0  0  0  0  0  0  0  0
  -26.5630  -17.1560   20.0010 H   0  0  0  0  0  0  0  0  0  0  0  0
  -28.1300  -16.7880   19.5020 H   0  0  0  0  0  0  0  0  0  0  0  0
  1  4  1  0
  2  1  2  0
  2  6  1  0
  4 10  1  0
  4  3  2  0
  5  3  1  0
  5  7  1  0
  6  5  2  0
  7  9  1  0
  9  8  1  0
 11 13  1  0
 11 10  1  0
 12 23  2  0
 13 18  1  0
 14 22  1  0
 14 24  1  0
 15 21  1  0
 15 17  1  0
 16 22  1  0
 17 16  1  0
 18 17  2  0
 19 20  1  0
 19 13  2  0
 20 15  2  0
 21 14  1  0
 22 12  1  0
 24 26  2  0
 25 24  1  0
 27 25  1  0
 28 37  2  0
 28 33  1  0
 29 25  1  0
 29 33  1  0
 30 29  1  0
 31 32  1  0
 31 30  1  0
 32 28  1  0
 33 34  2  0
 34 35  1  0
 36 35  2  0
 37 36  1  0
 38 12  1  0
 38 43  1  0
 38 39  1  0
 39 42  1  1
 39 40  1  0
 41 39  1  0
 43 46  1  0
 44 48  1  0
 44 43  1  0
 45 44  2  0
 48 47  1  0
 48 50  1  0
 50 51  1  0
 50 49  1  0
 52  6  1  0
 53 54  1  0
 53 52  1  0
 54 55  1  0
 55 58  1  0
 55 57  1  0
 55 56  1  0
 58 59  1  0
 59 68  1  0
 60 68  1  0
 61 66  1  0
 62 63  1  0
 62 61  1  0
 64 63  1  0
 64 73  1  0
 64 65  1  0
 66 60  1  0
 66 65  1  0
 67 60  2  0
 68 69  1  0
 70 71  2  0
 71 90  1  0
 72 71  1  0
 72 75  1  0
 73 70  1  0
 73 74  1  0
 74 72  2  0
 75 76  1  0
 76 77  2  0
 78 81  1  0
 78 77  1  0
 79 78  2  0
 80 79  1  0
 80 75  2  0
 81 82  1  0
 82 87  2  0
 82 83  1  0
 83 84  2  0
 84 85  1  0
 85 89  1  0
 86 85  2  0
 87 86  1  0
 88 87  1  0
 90 91  1  0
 91 94  1  0
 91 93  1  0
 92 90  2  0
 95 70  1  0
 96 95  1  0
 97 95  1  0
M  ISO  4  10 101  11 101  60 100  68 100
M  END
>  <TORSDO>  (18) 
F 25

>  <SCORE>  (18) 
-4.851

>  <name>  (18) 
17

>  <ligand_id>  (18) 
17

>  <original_smiles>  (18) 
[H]c1c([H])c([H])c2c(c1[H])C([H])([H])C([H])([H])C([H])([H])C2([H])N([H])C(=O)C1([H])N(C(=O)C([H])(N([H])C(=O)C([H])(N([H])C([H])([H])[H])C([H])([H])[H])C(C([H])([H])[H])(C([H])([H])[H])C([H])([H])[H])C([H])([H])c2c([H])c(OC([H])([H])c3c([H])c([H])c(OC([H])([H])C([H])([H])[N+]([H])([H])C([H])([H])C([H])([H])N([H])C(=O)N4C([H])([H])C([H])([H])C([H])([H])C([H])(n5nc(-c6c([H])c([H])c(Oc7c([H])c([H])c(F)c([H])c7F)c([H])c6[H])c(C(=O)N([H])[H])c5N([H])[H])C4([H])[H])c(C([H])([H])C([H])([H])C([H])([H])[H])c3[H])c([H])c([H])c2C1([H])[H]

>  <smiles>  (18) 
[H]c1c([H])c([H])c2c(c1[H])C([H])([H])C([H])([H])C([H])([H])C2([H])N([H])C(=O)C1([H])N(C(=O)C([H])(N([H])C(=O)C([H])(N([H])C([H])([H])[H])C([H])([H])[H])C(C([H])([H])[H])(C([H])([H])[H])C([H])([H])[H])C([H])([H])c2c([H])c(OC([H])([H])c3c([H])c([H])c(OC([H])([H])C([H])([H])[N+]([H])([H])C([H])([H])C([H])([H])N([H])C(=O)N4C([H])([H])C([H])([H])C([H])([H])C([H])(n5nc(-c6c([H])c([H])c(Oc7c([H])c([H])c(F)c([H])c7F)c([H])c6[H])c(C(=O)N([H])[H])c5N([H])[H])C4([H])[H])c(C([H])([H])C([H])([H])C([H])([H])[H])c3[H])c([H])c([H])c2C1([H])[H]

$$$$
18:0:0
     RDKit          3D

 98106  0  0  1  0  0  0  0  0999 V2000
  -32.0760  -21.9650   19.8500 C   0  0  0  0  0  3  0  0  0  0  0  0
  -31.7930  -23.3270   20.0410 C   0  0  0  0  0  3  0  0  0  0  0  0
  -30.6210  -21.3880   21.7010 C   0  0  0  0  0  3  0  0  0  0  0  0
  -31.5050  -20.9700   20.6710 C   0  0  0  0  0  0  0  0  0  0  0  0
  -30.3090  -22.7560   21.8810 C   0  0  0  0  0  0  0  0  0  0  0  0
  -30.8820  -23.7370   21.0440 C   0  0  0  0  0  0  0  0  0  0  0  0
  -28.1620  -22.5140   23.0470 C   0  0  0  0  0  1  0  0  0  0  0  0
  -29.4370  -23.2010   22.8840 N   0  0  0  0  0  0  0  0  0  0  0  0
  -29.3900  -24.2190   22.9140 H   0  0  0  0  0  0  0  0  0  0  0  0
  -33.3030  -19.2230   20.0720 C   0  0  0  0  0  1  0  0  0  0  0  0
  -31.8170  -19.4890   20.3800 C   0  0  0  0  0  3  0  0  0  0  0  0
  -31.3910  -18.5570   21.4490 N   0  0  0  0  0  4  0  0  0  0  0  0
  -31.9940  -17.7500   21.4140 H   0  0  0  0  0  0  0  0  0  0  0  0
  -31.5430  -18.9890   22.3450 H   0  0  0  0  0  0  0  0  0  0  0  0
  -30.0050  -18.0590   21.3330 C   0  0  0  0  0  2  0  0  0  0  0  0
  -29.8740  -16.9890   20.2320 C   0  0  0  0  0  2  0  0  0  0  0  0
  -30.7230  -14.6520   20.3230 C   0  0  0  0  0  0  0  0  0  0  0  0
  -30.4610  -12.5040   19.1660 C   0  0  0  0  0  2  0  0  0  0  0  0
  -29.4780  -12.7430   17.9990 C   0  0  0  0  0  2  0  0  0  0  0  0
  -28.0110  -12.6050   18.4600 C   0  0  0  0  0  2  0  0  0  0  0  0
  -27.7140  -13.4050   19.7580 C   0  0  0  0  0  3  0  0  0  0  0  0
  -28.7990  -13.1220   20.8270 C   0  0  0  0  0  2  0  0  0  0  0  0
  -30.1110  -13.4450   20.2380 N   0  0  0  0  0  0  0  0  0  0  0  0
  -31.8250  -14.9120   19.8320 O   0  0  0  0  0  0  0  0  0  0  0  0
  -29.9040  -15.6220   20.7570 N   0  0  0  0  0  0  0  0  0  0  0  0
  -29.0510  -15.2870   21.1800 H   0  0  0  0  0  0  0  0  0  0  0  0
  -25.3420  -14.0120   20.5580 C   0  0  0  0  0  0  0  0  0  0  0  0
  -24.2800  -13.2350   20.9370 C   0  0  0  0  0  0  0  0  0  0  0  0
  -24.7340  -11.8830   20.8460 C   0  0  0  0  0  0  0  0  0  0  0  0
  -26.3740  -13.1330   20.2690 N   0  0  0  0  0  0  0  0  0  0  0  0
  -26.0110  -11.8430   20.4940 N   0  0  0  0  0  0  0  0  0  0  0  0
  -24.0070  -10.6180   21.0210 C   0  0  0  0  0  0  0  0  0  0  0  0
  -24.4450   -9.6400   21.9420 C   0  0  0  0  0  3  0  0  0  0  0  0
  -23.7230   -8.4370   22.1030 C   0  0  0  0  0  3  0  0  0  0  0  0
  -22.5500   -8.2070   21.3460 C   0  0  0  0  0  0  0  0  0  0  0  0
  -22.1310   -9.1770   20.4180 C   0  0  0  0  0  3  0  0  0  0  0  0
  -22.8520  -10.3710   20.2520 C   0  0  0  0  0  3  0  0  0  0  0  0
  -21.7970   -7.0600   21.4200 O   0  0  0  0  0  0  0  0  0  0  0  0
  -21.7290   -6.3150   22.5720 C   0  0  0  0  0  0  0  0  0  0  0  0
  -21.2340   -6.8560   23.7790 C   0  0  0  0  0  3  0  0  0  0  0  0
  -21.1130   -6.0370   24.9190 C   0  0  0  0  0  3  0  0  0  0  0  0
  -21.4760   -4.6760   24.8540 C   0  0  0  0  0  0  0  0  0  0  0  0
  -21.9620   -4.1360   23.6500 C   0  0  0  0  0  3  0  0  0  0  0  0
  -22.0850   -4.9530   22.5120 C   0  0  0  0  0  0  0  0  0  0  0  0
  -22.5300   -4.4180   21.3490 F   0  0  0  0  0  0  0  0  0  0  0  0
  -21.3560   -3.8890   25.9470 F   0  0  0  0  0  0  0  0  0  0  0  0
  -22.8950  -13.7080   21.2720 C   0  0  0  0  0  0  0  0  0  0  0  0
  -22.1930  -12.9810   22.1350 N   0  0  0  0  0  0  0  0  0  0  0  0
  -22.4440  -14.7530   20.8060 O   0  0  0  0  0  0  0  0  0  0  0  0
  -22.5740  -12.1340   22.5300 H   0  0  0  0  0  0  0  0  0  0  0  0
  -21.2640  -13.2730   22.4020 H   0  0  0  0  0  0  0  0  0  0  0  0
  -25.5140  -15.3890   20.4080 N   0  0  0  0  0  0  0  0  0  0  0  0
  -24.7530  -16.0460   20.5260 H   0  0  0  0  0  0  0  0  0  0  0  0
  -26.3440  -15.8170   20.0140 H   0  0  0  0  0  0  0  0  0  0  0  0
  -30.4910  -25.0460   21.2510 O   0  0  0  0  0  0  0  0  0  0  0  0
  -30.8470  -26.0380   20.2910 C   0  0  0  0  0  2  0  0  0  0  0  0
  -29.8120  -27.1670   20.3420 C   0  0  0  0  0  2  0  0  0  0  0  0
  -28.6840  -26.7650   19.5700 O   0  0  0  0  0  0  0  0  0  0  0  0
  -24.7330  -31.6300   23.0140 C   0  0  0  0  0  0  0  0  0  0  0  0
  -27.5190  -27.4870   19.6880 C   0  0  0  0  0  0  0  0  0  0  0  0
  -23.5540  -30.2520   21.3290 C   0  0  0  0  0  3  0  0  0  0  0  0
  -25.0460  -28.8450   19.8130 C   0  0  0  0  0  0  0  0  0  0  0  0
  -26.0480  -30.7420   21.0970 C   0  0  0  0  0  2  0  0  0  0  0  0
  -26.1840  -29.4050   20.4070 C   0  0  0  0  0  0  0  0  0  0  0  0
  -27.4200  -28.7320   20.3540 C   0  0  0  0  0  3  0  0  0  0  0  0
  -26.3670  -26.9370   19.0890 C   0  0  0  0  0  3  0  0  0  0  0  0
  -25.1290  -27.6040   19.1570 C   0  0  0  0  0  3  0  0  0  0  0  0
  -23.7660  -29.6420   19.9170 C   0  0  0  0  0  2  0  0  0  0  0  0
  -24.7970  -30.8890   21.8730 N   0  0  0  0  0  0  0  0  0  0  0  0
  -23.6540  -31.8280   23.5880 O   0  0  0  0  0  0  0  0  0  0  0  0
  -22.9690  -29.1600   22.2530 C   0  0  0  0  0  0  0  0  0  0  0  0
  -21.6500  -28.9350   22.1490 N   0  0  0  0  0  0  0  0  0  0  0  0
  -23.6980  -28.5210   23.0170 O   0  0  0  0  0  0  0  0  0  0  0  0
  -21.1220  -29.5090   21.5060 H   0  0  0  0  0  0  0  0  0  0  0  0
  -18.3310  -27.6040   22.6670 C   0  0  0  0  0  0  0  0  0  0  0  0
  -20.8860  -27.9300   22.8890 C   0  0  0  0  0  3  0  0  0  0  0  0
  -21.0160  -26.5370   22.2320 C   0  0  0  0  0  2  0  0  0  0  0  0
  -19.8980  -26.2320   21.2300 C   0  0  0  0  0  2  0  0  0  0  0  0
  -18.5300  -26.2980   21.9160 C   0  0  0  0  0  2  0  0  0  0  0  0
  -19.4370  -28.3780   23.1090 C   0  0  0  0  0  0  0  0  0  0  0  0
  -19.1940  -29.6020   23.7700 C   0  0  0  0  0  3  0  0  0  0  0  0
  -17.8810  -30.0530   23.9940 C   0  0  0  0  0  3  0  0  0  0  0  0
  -16.7910  -29.2750   23.5700 C   0  0  0  0  0  3  0  0  0  0  0  0
  -17.0160  -28.0530   22.9120 C   0  0  0  0  0  3  0  0  0  0  0  0
  -26.0060  -32.2840   23.6380 C   0  0  0  0  0  3  0  0  0  0  0  0
  -25.6520  -33.6520   24.0360 N   0  0  0  0  0  0  0  0  0  0  0  0
  -25.9340  -34.7490   23.3180 C   0  0  0  0  0  0  0  0  0  0  0  0
  -26.5900  -34.7170   22.2740 O   0  0  0  0  0  0  0  0  0  0  0  0
  -25.0640  -33.7480   24.8500 H   0  0  0  0  0  0  0  0  0  0  0  0
  -24.1420  -36.4930   23.0520 C   0  0  0  0  0  1  0  0  0  0  0  0
  -25.3980  -36.0940   23.8430 C   0  0  0  0  0  3  0  0  0  0  0  0
  -27.4970  -37.0160   24.7240 C   0  0  0  0  0  1  0  0  0  0  0  0
  -26.3930  -37.1880   23.7830 N   0  0  0  0  0  0  0  0  0  0  0  0
  -25.9530  -38.0860   23.9690 H   0  0  0  0  0  0  0  0  0  0  0  0
  -26.5840  -31.4770   24.8650 C   0  0  1  0  0  0  0  0  0  0  0  0
  -25.5280  -31.1500   25.9470 C   0  0  0  0  0  1  0  0  0  0  0  0
  -27.2060  -30.1420   24.3910 C   0  0  0  0  0  1  0  0  0  0  0  0
  -27.7190  -32.2860   25.5370 C   0  0  0  0  0  1  0  0  0  0  0  0
  1  2  2  0
  1  4  1  0
  2  6  1  0
  3  5  1  0
  4  3  2  0
  5  8  1  0
  6 55  1  0
  6  5  2  0
  8  9  1  0
  8  7  1  0
 11 10  1  0
 11  4  1  0
 11 12  1  0
 12 14  1  0
 13 12  1  0
 15 12  1  0
 16 25  1  0
 16 15  1  0
 17 25  1  0
 18 23  1  0
 19 20  1  0
 19 18  1  0
 21 20  1  0
 21 30  1  0
 21 22  1  0
 23 17  1  0
 23 22  1  0
 24 17  2  0
 25 26  1  0
 27 28  2  0
 28 47  1  0
 29 28  1  0
 29 32  1  0
 30 31  1  0
 30 27  1  0
 31 29  2  0
 32 33  1  0
 33 34  2  0
 35 38  1  0
 35 34  1  0
 36 35  2  0
 37 36  1  0
 37 32  2  0
 38 39  1  0
 39 40  1  0
 40 41  2  0
 42 41  1  0
 42 46  1  0
 43 42  2  0
 44 39  2  0
 44 43  1  0
 45 44  1  0
 47 48  1  0
 48 51  1  0
 48 50  1  0
 49 47  2  0
 52 53  1  0
 52 27  1  0
 54 52  1  0
 56 57  1  0
 56 55  1  0
 58 60  1  0
 58 57  1  0
 59 70  2  0
 60 65  1  0
 61 69  1  0
 61 71  1  0
 62 68  1  0
 62 64  1  0
 63 69  1  0
 64 63  1  0
 65 64  2  0
 66 67  1  0
 66 60  2  0
 67 62  2  0
 68 61  1  0
 69 59  1  0
 71 73  2  0
 72 71  1  0
 74 72  1  0
 75 84  2  0
 75 80  1  0
 76 72  1  0
 76 80  1  0
 77 76  1  0
 78 79  1  0
 78 77  1  0
 79 75  1  0
 80 81  2  0
 81 82  1  0
 83 82  2  0
 84 83  1  0
 85 59  1  0
 85 86  1  0
 85 95  1  0
 86 89  1  0
 87 91  1  0
 87 86  1  0
 88 87  2  0
 91 90  1  0
 93 91  1  0
 93 94  1  0
 93 92  1  0
 95 98  1  1
 95 96  1  0
 97 95  1  0
M  ISO  4  17 100  25 100  57 101  58 101
M  END
>  <TORSDO>  (19) 
F 24

>  <SCORE>  (19) 
-10.976

>  <name>  (19) 
18

>  <ligand_id>  (19) 
18

>  <original_smiles>  (19) 
[H]c1c([H])c([H])c2c(c1[H])C([H])([H])C([H])([H])C([H])([H])C2([H])N([H])C(=O)C1([H])N(C(=O)C([H])(N([H])C(=O)C([H])(N([H])C([H])([H])[H])C([H])([H])[H])C(C([H])([H])[H])(C([H])([H])[H])C([H])([H])[H])C([H])([H])c2c([H])c(OC([H])([H])C([H])([H])Oc3c([H])c([H])c(C([H])(C([H])([H])[H])[N+]([H])([H])C([H])([H])C([H])([H])N([H])C(=O)N4C([H])([H])C([H])([H])C([H])([H])C([H])(n5nc(-c6c([H])c([H])c(Oc7c([H])c([H])c(F)c([H])c7F)c([H])c6[H])c(C(=O)N([H])[H])c5N([H])[H])C4([H])[H])c([H])c3N([H])C([H])([H])[H])c([H])c([H])c2C1([H])[H]

>  <smiles>  (19) 
[H]c1c([H])c([H])c2c(c1[H])C([H])([H])C([H])([H])C([H])([H])C2([H])N([H])C(=O)C1([H])N(C(=O)C([H])(N([H])C(=O)C([H])(N([H])C([H])([H])[H])C([H])([H])[H])C(C([H])([H])[H])(C([H])([H])[H])C([H])([H])[H])C([H])([H])c2c([H])c(OC([H])([H])C([H])([H])Oc3c([H])c([H])c(C([H])(C([H])([H])[H])[N+]([H])([H])C([H])([H])C([H])([H])N([H])C(=O)N4C([H])([H])C([H])([H])C([H])([H])C([H])(n5nc(-c6c([H])c([H])c(Oc7c([H])c([H])c(F)c([H])c7F)c([H])c6[H])c(C(=O)N([H])[H])c5N([H])[H])C4([H])[H])c([H])c3N([H])C([H])([H])[H])c([H])c([H])c2C1([H])[H]

$$$$
19:0:0
     RDKit          3D

 97105  0  0  1  0  0  0  0  0999 V2000
  -28.5620  -20.0920   21.0150 C   0  0  0  0  0  3  0  0  0  0  0  0
  -29.3990  -20.6580   18.7960 C   0  0  0  0  0  3  0  0  0  0  0  0
  -28.3950  -21.4610   21.2960 C   0  0  0  0  0  3  0  0  0  0  0  0
  -29.2390  -22.0280   19.0840 C   0  0  0  0  0  3  0  0  0  0  0  0
  -29.0670  -19.6790   19.7600 C   0  0  0  0  0  0  0  0  0  0  0  0
  -28.7400  -22.4370   20.3380 C   0  0  0  0  0  0  0  0  0  0  0  0
  -29.2060  -18.2090   19.3820 C   0  0  0  0  0  2  0  0  0  0  0  0
  -29.6930  -17.3320   20.4700 N   0  0  0  0  0  4  0  0  0  0  0  0
  -30.0310  -17.9090   21.2220 H   0  0  0  0  0  0  0  0  0  0  0  0
  -28.8890  -16.8240   20.8020 H   0  0  0  0  0  0  0  0  0  0  0  0
  -30.7210  -16.3460   20.0590 C   0  0  0  0  0  2  0  0  0  0  0  0
  -31.1920  -15.4520   21.2340 C   0  0  0  0  0  2  0  0  0  0  0  0
  -32.3240  -13.4380   20.0770 C   0  0  0  0  0  0  0  0  0  0  0  0
  -31.8730  -11.0080   19.9200 C   0  0  0  0  0  2  0  0  0  0  0  0
  -30.9110  -10.6250   18.7770 C   0  0  0  0  0  2  0  0  0  0  0  0
  -29.4400  -10.7640   19.2020 C   0  0  0  0  0  2  0  0  0  0  0  0
  -29.1640  -12.1250   19.8750 C   0  0  0  0  0  3  0  0  0  0  0  0
  -30.1970  -12.3810   20.9890 C   0  0  0  0  0  2  0  0  0  0  0  0
  -31.5470  -12.3670   20.4040 N   0  0  0  0  0  0  0  0  0  0  0  0
  -33.2750  -13.3540   19.2980 O   0  0  0  0  0  0  0  0  0  0  0  0
  -32.2750  -14.5120   20.8940 N   0  0  0  0  0  0  0  0  0  0  0  0
  -33.1620  -14.9920   20.8710 H   0  0  0  0  0  0  0  0  0  0  0  0
  -27.0790  -13.3120   20.8090 C   0  0  0  0  0  0  0  0  0  0  0  0
  -25.8330  -12.8450   21.1320 C   0  0  0  0  0  0  0  0  0  0  0  0
  -25.8610  -11.4400   20.8810 C   0  0  0  0  0  0  0  0  0  0  0  0
  -27.7990  -12.2050   20.3890 N   0  0  0  0  0  0  0  0  0  0  0  0
  -27.0690  -11.0660   20.4860 N   0  0  0  0  0  0  0  0  0  0  0  0
  -24.7910  -10.4360   20.9300 C   0  0  0  0  0  0  0  0  0  0  0  0
  -24.9360   -9.2420   21.6700 C   0  0  0  0  0  3  0  0  0  0  0  0
  -23.8880   -8.2970   21.7100 C   0  0  0  0  0  3  0  0  0  0  0  0
  -22.6820   -8.5460   21.0140 C   0  0  0  0  0  0  0  0  0  0  0  0
  -22.5540   -9.7240   20.2590 C   0  0  0  0  0  3  0  0  0  0  0  0
  -23.5980  -10.6620   20.2140 C   0  0  0  0  0  3  0  0  0  0  0  0
  -21.6170   -7.6770   20.9810 O   0  0  0  0  0  0  0  0  0  0  0  0
  -21.2930   -6.8980   22.0630 C   0  0  0  0  0  0  0  0  0  0  0  0
  -20.9740   -7.4620   23.3190 C   0  0  0  0  0  3  0  0  0  0  0  0
  -20.5820   -6.6300   24.3870 C   0  0  0  0  0  3  0  0  0  0  0  0
  -20.4900   -5.2380   24.1980 C   0  0  0  0  0  0  0  0  0  0  0  0
  -20.8000   -4.6730   22.9490 C   0  0  0  0  0  3  0  0  0  0  0  0
  -21.1960   -5.5030   21.8830 C   0  0  0  0  0  0  0  0  0  0  0  0
  -21.4720   -4.9570   20.6750 F   0  0  0  0  0  0  0  0  0  0  0  0
  -20.1040   -4.4390   25.2210 F   0  0  0  0  0  0  0  0  0  0  0  0
  -24.6480  -13.6670   21.5470 C   0  0  0  0  0  0  0  0  0  0  0  0
  -23.7950  -13.1140   22.4020 N   0  0  0  0  0  0  0  0  0  0  0  0
  -24.5030  -14.8240   21.1530 O   0  0  0  0  0  0  0  0  0  0  0  0
  -23.9300  -12.1710   22.7350 H   0  0  0  0  0  0  0  0  0  0  0  0
  -22.9920  -13.6350   22.7210 H   0  0  0  0  0  0  0  0  0  0  0  0
  -27.6510  -14.5820   20.8080 N   0  0  0  0  0  0  0  0  0  0  0  0
  -26.9790  -15.3420   20.8300 H   0  0  0  0  0  0  0  0  0  0  0  0
  -28.3450  -14.7290   20.0870 H   0  0  0  0  0  0  0  0  0  0  0  0
  -28.5900  -23.9170   20.6580 C   0  0  0  0  0  2  0  0  0  0  0  0
  -29.1540  -24.7240   19.5620 N   0  0  0  0  0  4  0  0  0  0  0  0
  -29.4180  -24.0740   18.8400 H   0  0  0  0  0  0  0  0  0  0  0  0
  -30.0020  -25.1560   19.8940 H   0  0  0  0  0  0  0  0  0  0  0  0
  -28.2470  -25.7510   19.0020 C   0  0  0  0  0  2  0  0  0  0  0  0
  -28.8580  -26.4400   17.7590 C   0  0  0  0  0  2  0  0  0  0  0  0
  -28.0990  -27.4870   17.1410 O   0  0  0  0  0  0  0  0  0  0  0  0
  -24.5710  -29.5020   23.0010 C   0  0  0  0  0  0  0  0  0  0  0  0
  -26.9140  -27.8380   17.7310 C   0  0  0  0  0  0  0  0  0  0  0  0
  -23.1820  -28.8630   21.0560 C   0  0  0  0  0  3  0  0  0  0  0  0
  -24.4360  -28.5660   18.8550 C   0  0  0  0  0  0  0  0  0  0  0  0
  -25.5370  -29.8040   20.7260 C   0  0  0  0  0  2  0  0  0  0  0  0
  -25.6300  -28.9700   19.4680 C   0  0  0  0  0  0  0  0  0  0  0  0
  -26.8770  -28.6060   18.9150 C   0  0  0  0  0  3  0  0  0  0  0  0
  -25.7090  -27.4570   17.1090 C   0  0  0  0  0  3  0  0  0  0  0  0
  -24.4700  -27.8020   17.6740 C   0  0  0  0  0  3  0  0  0  0  0  0
  -23.1440  -29.0040   19.5110 C   0  0  0  0  0  2  0  0  0  0  0  0
  -24.4600  -29.3760   21.6490 N   0  0  0  0  0  0  0  0  0  0  0  0
  -23.6180  -29.2390   23.7490 O   0  0  0  0  0  0  0  0  0  0  0  0
  -22.8870  -27.3900   21.4180 C   0  0  0  0  0  0  0  0  0  0  0  0
  -21.6340  -26.9600   21.2030 N   0  0  0  0  0  0  0  0  0  0  0  0
  -23.7750  -26.6550   21.8520 O   0  0  0  0  0  0  0  0  0  0  0  0
  -20.9620  -27.6230   20.8430 H   0  0  0  0  0  0  0  0  0  0  0  0
  -18.7690  -24.8000   20.7910 C   0  0  0  0  0  0  0  0  0  0  0  0
  -21.1420  -25.6040   21.4320 C   0  0  0  0  0  3  0  0  0  0  0  0
  -21.6540  -24.6310   20.3470 C   0  0  0  0  0  2  0  0  0  0  0  0
  -20.6820  -24.4770   19.1730 C   0  0  0  0  0  2  0  0  0  0  0  0
  -19.3310  -23.9520   19.6630 C   0  0  0  0  0  2  0  0  0  0  0  0
  -19.6210  -25.5850   21.6110 C   0  0  0  0  0  0  0  0  0  0  0  0
  -19.0450  -26.3830   22.6230 C   0  0  0  0  0  3  0  0  0  0  0  0
  -17.6530  -26.4040   22.8210 C   0  0  0  0  0  3  0  0  0  0  0  0
  -16.8170  -25.6130   22.0120 C   0  0  0  0  0  3  0  0  0  0  0  0
  -17.3760  -24.8080   21.0060 C   0  0  0  0  0  3  0  0  0  0  0  0
  -25.8870  -30.0030   23.6700 C   0  0  0  0  0  3  0  0  0  0  0  0
  -25.6180  -31.3340   24.2280 N   0  0  0  0  0  0  0  0  0  0  0  0
  -26.0240  -32.4850   23.6740 C   0  0  0  0  0  0  0  0  0  0  0  0
  -26.7350  -32.5280   22.6670 O   0  0  0  0  0  0  0  0  0  0  0  0
  -24.9890  -31.3770   25.0170 H   0  0  0  0  0  0  0  0  0  0  0  0
  -24.3980  -34.3990   23.5610 C   0  0  0  0  0  1  0  0  0  0  0  0
  -25.5690  -33.7910   24.3490 C   0  0  0  0  0  3  0  0  0  0  0  0
  -27.7060  -34.3830   25.4020 C   0  0  0  0  0  1  0  0  0  0  0  0
  -26.6500  -34.7910   24.4800 N   0  0  0  0  0  0  0  0  0  0  0  0
  -26.2800  -35.6820   24.7970 H   0  0  0  0  0  0  0  0  0  0  0  0
  -26.4280  -29.0260   24.7860 C   0  0  1  0  0  0  0  0  0  0  0  0
  -25.3630  -28.6250   25.8310 C   0  0  0  0  0  1  0  0  0  0  0  0
  -26.9810  -27.7260   24.1530 C   0  0  0  0  0  1  0  0  0  0  0  0
  -27.6060  -29.6900   25.5390 C   0  0  0  0  0  1  0  0  0  0  0  0
  1  3  1  0
  2  4  2  0
  2  5  1  0
  4  6  1  0
  5  1  2  0
  6 51  1  0
  6  3  2  0
  7  5  1  0
  7  8  1  0
  8 10  1  0
  8  9  1  0
 11  8  1  0
 11 12  1  0
 13 19  1  0
 13 21  1  0
 14 19  1  0
 15 16  1  0
 15 14  1  0
 17 16  1  0
 17 26  1  0
 17 18  1  0
 19 18  1  0
 20 13  2  0
 21 12  1  0
 22 21  1  0
 23 24  2  0
 24 43  1  0
 25 28  1  0
 25 24  1  0
 26 27  1  0
 26 23  1  0
 27 25  2  0
 28 29  1  0
 29 30  2  0
 31 30  1  0
 32 31  2  0
 33 32  1  0
 33 28  2  0
 34 31  1  0
 34 35  1  0
 35 36  1  0
 36 37  2  0
 38 37  1  0
 38 42  1  0
 39 38  2  0
 40 35  2  0
 40 39  1  0
 41 40  1  0
 43 44  1  0
 44 47  1  0
 44 46  1  0
 45 43  2  0
 48 23  1  0
 48 49  1  0
 50 48  1  0
 52 54  1  0
 52 51  1  0
 53 52  1  0
 55 52  1  0
 56 55  1  0
 57 59  1  0
 57 56  1  0
 58 69  2  0
 59 64  1  0
 60 70  1  0
 60 68  1  0
 61 63  1  0
 61 67  1  0
 62 68  1  0
 63 62  1  0
 64 63  2  0
 65 66  1  0
 65 59  2  0
 66 61  2  0
 67 60  1  0
 68 58  1  0
 70 72  2  0
 71 70  1  0
 73 71  1  0
 74 83  2  0
 74 79  1  0
 75 71  1  0
 75 79  1  0
 76 75  1  0
 77 78  1  0
 77 76  1  0
 78 74  1  0
 79 80  2  0
 80 81  1  0
 82 81  2  0
 83 82  1  0
 84 58  1  0
 84 85  1  0
 84 94  1  0
 85 88  1  0
 86 85  1  0
 86 90  1  0
 87 86  2  0
 90 89  1  0
 90 92  1  0
 92 93  1  0
 92 91  1  0
 94 97  1  1
 94 95  1  0
 96 94  1  0
M  ISO  4  13 100  21 100  56 101  57 101
M  END
>  <TORSDO>  (20) 
F 24

>  <SCORE>  (20) 
-7.747

>  <name>  (20) 
19

>  <ligand_id>  (20) 
19

>  <original_smiles>  (20) 
[H]c1c([H])c([H])c2c(c1[H])C([H])([H])C([H])([H])C([H])([H])C2([H])N([H])C(=O)C1([H])N(C(=O)C([H])(N([H])C(=O)C([H])(N([H])C([H])([H])[H])C([H])([H])[H])C(C([H])([H])[H])(C([H])([H])[H])C([H])([H])[H])C([H])([H])c2c([H])c(OC([H])([H])C([H])([H])[N+]([H])([H])C([H])([H])c3c([H])c([H])c(C([H])([H])[N+]([H])([H])C([H])([H])C([H])([H])N([H])C(=O)N4C([H])([H])C([H])([H])C([H])([H])C([H])(n5nc(-c6c([H])c([H])c(Oc7c([H])c([H])c(F)c([H])c7F)c([H])c6[H])c(C(=O)N([H])[H])c5N([H])[H])C4([H])[H])c([H])c3[H])c([H])c([H])c2C1([H])[H]

>  <smiles>  (20) 
[H]c1c([H])c([H])c2c(c1[H])C([H])([H])C([H])([H])C([H])([H])C2([H])N([H])C(=O)C1([H])N(C(=O)C([H])(N([H])C(=O)C([H])(N([H])C([H])([H])[H])C([H])([H])[H])C(C([H])([H])[H])(C([H])([H])[H])C([H])([H])[H])C([H])([H])c2c([H])c(OC([H])([H])C([H])([H])[N+]([H])([H])C([H])([H])c3c([H])c([H])c(C([H])([H])[N+]([H])([H])C([H])([H])C([H])([H])N([H])C(=O)N4C([H])([H])C([H])([H])C([H])([H])C([H])(n5nc(-c6c([H])c([H])c(Oc7c([H])c([H])c(F)c([H])c7F)c([H])c6[H])c(C(=O)N([H])[H])c5N([H])[H])C4([H])[H])c([H])c3[H])c([H])c([H])c2C1([H])[H]

$$$$
20:0:0
     RDKit          3D

 95104  0  0  1  0  0  0  0  0999 V2000
  -28.0330  -21.9990   20.0140 C   0  0  0  0  0  3  0  0  0  0  0  0
  -29.9940  -22.1450   18.6130 C   0  0  0  0  0  3  0  0  0  0  0  0
  -28.0480  -23.4150   20.1890 C   0  0  0  0  0  3  0  0  0  0  0  0
  -30.0050  -23.5490   18.7820 C   0  0  0  0  0  3  0  0  0  0  0  0
  -28.9870  -21.3410   19.1880 C   0  0  0  0  0  0  0  0  0  0  0  0
  -29.0200  -24.2210   19.5440 C   0  0  0  0  0  0  0  0  0  0  0  0
  -28.8030  -19.8910   18.6580 C   0  0  0  0  0  2  0  0  0  0  0  0
  -27.8040  -16.9930   20.9630 C   0  0  0  0  0  3  0  0  0  0  0  0
  -27.8720  -18.2500   20.3360 C   0  0  0  0  0  3  0  0  0  0  0  0
  -28.8290  -16.0520   20.7780 C   0  0  0  0  0  3  0  0  0  0  0  0
  -28.9660  -18.6020   19.5150 C   0  0  0  0  0  0  0  0  0  0  0  0
  -30.0460  -17.6570   19.3730 C   0  0  0  0  0  0  0  0  0  0  0  0
  -29.9500  -16.3510   19.9790 C   0  0  0  0  0  0  0  0  0  0  0  0
  -31.2880  -14.2810   19.3170 C   0  0  0  0  0  0  0  0  0  0  0  0
  -30.8120  -11.9700   18.5710 C   0  0  0  0  0  2  0  0  0  0  0  0
  -29.7670  -11.9380   17.4410 C   0  0  0  0  0  2  0  0  0  0  0  0
  -28.3490  -11.8720   18.0370 C   0  0  0  0  0  2  0  0  0  0  0  0
  -28.1220  -12.9330   19.1480 C   0  0  0  0  0  3  0  0  0  0  0  0
  -29.2850  -12.9600   20.1650 C   0  0  0  0  0  2  0  0  0  0  0  0
  -30.5340  -13.1470   19.4220 N   0  0  0  0  0  0  0  0  0  0  0  0
  -32.2880  -14.3110   18.6030 O   0  0  0  0  0  0  0  0  0  0  0  0
  -31.0190  -15.3900   20.0460 N   0  0  0  0  0  0  0  0  0  0  0  0
  -31.8960  -15.8850   20.1250 H   0  0  0  0  0  0  0  0  0  0  0  0
  -25.9020  -13.6950   20.1910 C   0  0  0  0  0  0  0  0  0  0  0  0
  -24.8340  -12.9980   20.6850 C   0  0  0  0  0  0  0  0  0  0  0  0
  -25.1710  -11.6170   20.5640 C   0  0  0  0  0  0  0  0  0  0  0  0
  -26.8310  -12.7450   19.8040 N   0  0  0  0  0  0  0  0  0  0  0  0
  -26.4020  -11.4860   20.0830 N   0  0  0  0  0  0  0  0  0  0  0  0
  -24.3720  -10.4130   20.8280 C   0  0  0  0  0  0  0  0  0  0  0  0
  -24.7470   -9.4790   21.8180 C   0  0  0  0  0  3  0  0  0  0  0  0
  -23.9520   -8.3390   22.0630 C   0  0  0  0  0  3  0  0  0  0  0  0
  -22.7670   -8.1240   21.3190 C   0  0  0  0  0  0  0  0  0  0  0  0
  -22.4100   -9.0470   20.3190 C   0  0  0  0  0  3  0  0  0  0  0  0
  -23.2060  -10.1790   20.0720 C   0  0  0  0  0  3  0  0  0  0  0  0
  -21.9460   -7.0330   21.4770 O   0  0  0  0  0  0  0  0  0  0  0  0
  -21.7680   -6.4320   22.6990 C   0  0  0  0  0  0  0  0  0  0  0  0
  -21.2450   -7.1370   23.8050 C   0  0  0  0  0  3  0  0  0  0  0  0
  -21.0130   -6.4640   25.0220 C   0  0  0  0  0  3  0  0  0  0  0  0
  -21.2890   -5.0890   25.1310 C   0  0  0  0  0  0  0  0  0  0  0  0
  -21.8010   -4.3830   24.0300 C   0  0  0  0  0  3  0  0  0  0  0  0
  -22.0360   -5.0530   22.8150 C   0  0  0  0  0  0  0  0  0  0  0  0
  -22.5100   -4.3640   21.7490 F   0  0  0  0  0  0  0  0  0  0  0  0
  -21.0600   -4.4400   26.2970 F   0  0  0  0  0  0  0  0  0  0  0  0
  -23.5310  -13.5780   21.1580 C   0  0  0  0  0  0  0  0  0  0  0  0
  -22.8980  -12.9440   22.1390 N   0  0  0  0  0  0  0  0  0  0  0  0
  -23.0930  -14.6300   20.6930 O   0  0  0  0  0  0  0  0  0  0  0  0
  -23.2650  -12.0920   22.5390 H   0  0  0  0  0  0  0  0  0  0  0  0
  -22.0260  -13.3120   22.4950 H   0  0  0  0  0  0  0  0  0  0  0  0
  -26.1590  -15.0530   20.0250 N   0  0  0  0  0  0  0  0  0  0  0  0
  -25.4980  -15.7700   20.2950 H   0  0  0  0  0  0  0  0  0  0  0  0
  -27.0410  -15.4380   19.7110 H   0  0  0  0  0  0  0  0  0  0  0  0
  -32.2880  -18.8540   19.5030 C   0  0  0  0  0  1  0  0  0  0  0  0
  -31.3130  -18.0590   18.6190 C   0  0  0  0  0  2  0  0  0  0  0  0
  -29.0330  -25.7770   19.5100 C   0  0  0  0  0  2  0  0  0  0  0  0
  -28.5290  -26.5380   20.6340 O   0  0  0  0  0  0  0  0  0  0  0  0
  -24.6720  -31.9290   23.3110 C   0  0  0  0  0  0  0  0  0  0  0  0
  -27.3760  -27.3030   20.5100 C   0  0  0  0  0  0  0  0  0  0  0  0
  -23.5090  -30.4600   21.6970 C   0  0  0  0  0  3  0  0  0  0  0  0
  -24.9990  -28.8560   20.3780 C   0  0  0  0  0  0  0  0  0  0  0  0
  -26.0480  -30.7880   21.5660 C   0  0  0  0  0  2  0  0  0  0  0  0
  -26.1430  -29.3890   20.9840 C   0  0  0  0  0  0  0  0  0  0  0  0
  -27.3310  -28.6160   21.0530 C   0  0  0  0  0  3  0  0  0  0  0  0
  -26.2070  -26.7950   19.9020 C   0  0  0  0  0  3  0  0  0  0  0  0
  -25.0260  -27.5590   19.8380 C   0  0  0  0  0  3  0  0  0  0  0  0
  -23.7600  -29.7250   20.3540 C   0  0  0  0  0  2  0  0  0  0  0  0
  -24.7590  -31.0780   22.2480 N   0  0  0  0  0  0  0  0  0  0  0  0
  -23.5760  -32.2290   23.8030 O   0  0  0  0  0  0  0  0  0  0  0  0
  -22.8270  -29.4830   22.6830 C   0  0  0  0  0  0  0  0  0  0  0  0
  -21.5120  -29.2720   22.5030 N   0  0  0  0  0  0  0  0  0  0  0  0
  -23.4800  -28.9170   23.5640 O   0  0  0  0  0  0  0  0  0  0  0  0
  -21.0480  -29.7840   21.7680 H   0  0  0  0  0  0  0  0  0  0  0  0
  -18.1410  -28.0400   22.8950 C   0  0  0  0  0  0  0  0  0  0  0  0
  -20.6730  -28.3640   23.2850 C   0  0  0  0  0  3  0  0  0  0  0  0
  -20.8320  -26.9060   22.7930 C   0  0  0  0  0  2  0  0  0  0  0  0
  -19.7890  -26.5110   21.7420 C   0  0  0  0  0  2  0  0  0  0  0  0
  -18.3770  -26.6570   22.3120 C   0  0  0  0  0  2  0  0  0  0  0  0
  -19.2200  -28.8490   23.3370 C   0  0  0  0  0  0  0  0  0  0  0  0
  -18.9490  -30.1410   23.8390 C   0  0  0  0  0  3  0  0  0  0  0  0
  -17.6290  -30.6230   23.9070 C   0  0  0  0  0  3  0  0  0  0  0  0
  -16.5620  -29.8110   23.4860 C   0  0  0  0  0  3  0  0  0  0  0  0
  -16.8180  -28.5220   22.9870 C   0  0  0  0  0  3  0  0  0  0  0  0
  -25.9400  -32.5830   23.9450 C   0  0  0  0  0  3  0  0  0  0  0  0
  -26.4370  -31.8460   25.2480 C   0  0  1  0  0  0  0  0  0  0  0  0
  -25.3110  -31.5670   26.2720 C   0  0  0  0  0  1  0  0  0  0  0  0
  -27.0970  -30.4950   24.8930 C   0  0  0  0  0  1  0  0  0  0  0  0
  -27.5200  -32.6990   25.9510 C   0  0  0  0  0  1  0  0  0  0  0  0
  -25.6150  -33.9850   24.2320 N   0  0  0  0  0  0  0  0  0  0  0  0
  -25.9590  -35.0210   23.4580 C   0  0  0  0  0  0  0  0  0  0  0  0
  -26.6530  -34.8990   22.4450 O   0  0  0  0  0  0  0  0  0  0  0  0
  -25.0020  -34.1560   25.0160 H   0  0  0  0  0  0  0  0  0  0  0  0
  -24.2370  -36.8010   23.0170 C   0  0  0  0  0  1  0  0  0  0  0  0
  -25.4530  -36.4170   23.8740 C   0  0  0  0  0  3  0  0  0  0  0  0
  -27.5600  -37.3240   24.7500 C   0  0  0  0  0  1  0  0  0  0  0  0
  -26.4860  -37.4700   23.7720 N   0  0  0  0  0  0  0  0  0  0  0  0
  -26.0720  -38.3920   23.8890 H   0  0  0  0  0  0  0  0  0  0  0  0
  1  3  1  0
  2  4  2  0
  2  5  1  0
  4  6  1  0
  5  1  2  0
  6  3  2  0
  7  5  1  0
  7 11  1  0
  9  8  2  0
 10  8  1  0
 11  9  1  0
 12 11  2  0
 12 13  1  0
 13 22  1  0
 13 10  2  0
 14 20  1  0
 14 22  1  0
 15 20  1  0
 16 17  1  0
 16 15  1  0
 18 17  1  0
 18 27  1  0
 18 19  1  0
 20 19  1  0
 21 14  2  0
 22 23  1  0
 24 25  2  0
 25 44  1  0
 26 25  1  0
 26 29  1  0
 27 28  1  0
 27 24  1  0
 28 26  2  0
 29 30  1  0
 30 31  2  0
 32 35  1  0
 32 31  1  0
 33 32  2  0
 34 33  1  0
 34 29  2  0
 35 36  1  0
 36 41  2  0
 36 37  1  0
 37 38  2  0
 38 39  1  0
 39 43  1  0
 40 39  2  0
 41 40  1  0
 42 41  1  0
 44 45  1  0
 45 48  1  0
 45 47  1  0
 46 44  2  0
 49 24  1  0
 49 50  1  0
 51 49  1  0
 53 12  1  0
 53 52  1  0
 54  6  1  0
 54 55  1  0
 56 67  2  0
 57 55  1  0
 57 62  1  0
 58 66  1  0
 58 68  1  0
 59 61  1  0
 60 66  1  0
 61 62  2  0
 61 60  1  0
 63 57  2  0
 64 63  1  0
 64 59  2  0
 65 59  1  0
 65 58  1  0
 66 56  1  0
 68 70  2  0
 69 68  1  0
 71 69  1  0
 72 81  2  0
 72 77  1  0
 73 69  1  0
 73 77  1  0
 74 73  1  0
 75 76  1  0
 75 74  1  0
 76 72  1  0
 77 78  2  0
 78 79  1  0
 80 79  2  0
 81 80  1  0
 82 56  1  0
 82 87  1  0
 82 83  1  0
 83 86  1  1
 83 84  1  0
 85 83  1  0
 87 90  1  0
 88 92  1  0
 88 87  1  0
 89 88  2  0
 92 91  1  0
 94 92  1  0
 94 95  1  0
 94 93  1  0
M  ISO  4  14 100  22 100  54 101  55 101
M  END
>  <TORSDO>  (21) 
F 20

>  <SCORE>  (21) 
-12.355

>  <name>  (21) 
20

>  <ligand_id>  (21) 
20

>  <original_smiles>  (21) 
[H]c1c([H])c(N([H])C(=O)N2C([H])([H])C([H])([H])C([H])([H])C([H])(n3nc(-c4c([H])c([H])c(Oc5c([H])c([H])c(F)c([H])c5F)c([H])c4[H])c(C(=O)N([H])[H])c3N([H])[H])C2([H])[H])c(C([H])([H])C([H])([H])[H])c(C([H])([H])c2c([H])c([H])c(C([H])([H])Oc3c([H])c([H])c4c(c3[H])C([H])([H])N(C(=O)C([H])(N([H])C(=O)C([H])(N([H])C([H])([H])[H])C([H])([H])[H])C(C([H])([H])[H])(C([H])([H])[H])C([H])([H])[H])C([H])(C(=O)N([H])C3([H])c5c([H])c([H])c([H])c([H])c5C([H])([H])C([H])([H])C3([H])[H])C4([H])[H])c([H])c2[H])c1[H]

>  <smiles>  (21) 
[H]c1c([H])c(N([H])C(=O)N2C([H])([H])C([H])([H])C([H])([H])C([H])(n3nc(-c4c([H])c([H])c(Oc5c([H])c([H])c(F)c([H])c5F)c([H])c4[H])c(C(=O)N([H])[H])c3N([H])[H])C2([H])[H])c(C([H])([H])C([H])([H])[H])c(C([H])([H])c2c([H])c([H])c(C([H])([H])Oc3c([H])c([H])c4c(c3[H])C([H])([H])N(C(=O)C([H])(N([H])C(=O)C([H])(N([H])C([H])([H])[H])C([H])([H])[H])C(C([H])([H])[H])(C([H])([H])[H])C([H])([H])[H])C([H])(C(=O)N([H])C3([H])c5c([H])c([H])c([H])c([H])c5C([H])([H])C([H])([H])C3([H])[H])C4([H])[H])c([H])c2[H])c1[H]

$$$$
21:0:0
     RDKit          3D

101111  0  0  1  0  0  0  0  0999 V2000
  -32.4880  -20.9940   21.2450 C   0  0  0  0  0  3  0  0  0  0  0  0
  -32.8040  -19.6360   21.5190 C   0  0  0  0  0  3  0  0  0  0  0  0
  -31.5210  -21.0210   20.2780 C   0  0  0  0  0  0  0  0  0  0  0  0
  -32.0240  -18.8470   20.7240 C   0  0  0  0  0  0  0  0  0  0  0  0
  -31.2760  -19.6970   19.9060 N   0  0  0  0  0  0  0  0  0  0  0  0
  -31.5360  -23.1680   18.8270 C   0  0  0  0  0  2  0  0  0  0  0  0
  -30.0860  -22.9790   20.8820 C   0  0  0  0  0  2  0  0  0  0  0  0
  -30.6070  -24.2860   18.2860 C   0  0  0  0  0  2  0  0  0  0  0  0
  -29.1410  -24.0520   20.3410 C   0  0  0  0  0  2  0  0  0  0  0  0
  -30.7480  -22.2000   19.7360 C   0  0  0  0  0  3  0  0  0  0  0  0
  -29.8790  -25.0430   19.4240 C   0  0  0  0  0  3  0  0  0  0  0  0
  -28.8940  -26.1240   18.9370 C   0  0  0  0  0  2  0  0  0  0  0  0
  -28.4670  -26.8430   20.0990 O   0  0  0  0  0  0  0  0  0  0  0  0
  -24.5960  -31.8880   23.2540 C   0  0  0  0  0  0  0  0  0  0  0  0
  -27.2560  -27.4980   20.1000 C   0  0  0  0  0  0  0  0  0  0  0  0
  -23.3810  -30.4880   21.6150 C   0  0  0  0  0  3  0  0  0  0  0  0
  -24.8300  -28.9490   20.1830 C   0  0  0  0  0  0  0  0  0  0  0  0
  -25.9040  -30.8550   21.4040 C   0  0  0  0  0  2  0  0  0  0  0  0
  -25.9880  -29.4850   20.7620 C   0  0  0  0  0  0  0  0  0  0  0  0
  -27.1980  -28.7600   20.7290 C   0  0  0  0  0  3  0  0  0  0  0  0
  -26.0770  -26.9530   19.5430 C   0  0  0  0  0  3  0  0  0  0  0  0
  -24.8670  -27.6760   19.5830 C   0  0  0  0  0  3  0  0  0  0  0  0
  -23.5850  -29.8080   20.2340 C   0  0  0  0  0  2  0  0  0  0  0  0
  -24.6460  -31.0900   22.1510 N   0  0  0  0  0  0  0  0  0  0  0  0
  -23.5190  -32.1590   23.8000 O   0  0  0  0  0  0  0  0  0  0  0  0
  -22.7370  -29.4660   22.5760 C   0  0  0  0  0  0  0  0  0  0  0  0
  -21.4130  -29.2810   22.4560 N   0  0  0  0  0  0  0  0  0  0  0  0
  -23.4260  -28.8400   23.3870 O   0  0  0  0  0  0  0  0  0  0  0  0
  -20.9160  -29.8440   21.7790 H   0  0  0  0  0  0  0  0  0  0  0  0
  -18.0460  -28.0740   22.9580 C   0  0  0  0  0  0  0  0  0  0  0  0
  -20.6020  -28.3410   23.2300 C   0  0  0  0  0  3  0  0  0  0  0  0
  -20.7080  -26.9090   22.6570 C   0  0  0  0  0  2  0  0  0  0  0  0
  -19.6080  -26.5800   21.6430 C   0  0  0  0  0  2  0  0  0  0  0  0
  -18.2260  -26.7230   22.2870 C   0  0  0  0  0  2  0  0  0  0  0  0
  -19.1610  -28.8400   23.3860 C   0  0  0  0  0  0  0  0  0  0  0  0
  -18.9390  -30.1050   23.9730 C   0  0  0  0  0  3  0  0  0  0  0  0
  -17.6320  -30.6030   24.1360 C   0  0  0  0  0  3  0  0  0  0  0  0
  -16.5310  -29.8350   23.7210 C   0  0  0  0  0  3  0  0  0  0  0  0
  -16.7390  -28.5720   23.1390 C   0  0  0  0  0  3  0  0  0  0  0  0
  -25.8850  -32.5200   23.8650 C   0  0  0  0  0  3  0  0  0  0  0  0
  -25.5760  -33.9190   24.1900 N   0  0  0  0  0  0  0  0  0  0  0  0
  -25.9130  -34.9700   23.4300 C   0  0  0  0  0  0  0  0  0  0  0  0
  -26.5860  -34.8640   22.4010 O   0  0  0  0  0  0  0  0  0  0  0  0
  -24.9650  -34.0780   24.9780 H   0  0  0  0  0  0  0  0  0  0  0  0
  -24.1860  -36.7640   23.0730 C   0  0  0  0  0  1  0  0  0  0  0  0
  -25.4280  -36.3600   23.8830 C   0  0  0  0  0  3  0  0  0  0  0  0
  -27.5660  -37.2410   24.7080 C   0  0  0  0  0  1  0  0  0  0  0  0
  -26.4620  -37.4110   23.7680 N   0  0  0  0  0  0  0  0  0  0  0  0
  -26.0590  -38.3320   23.9180 H   0  0  0  0  0  0  0  0  0  0  0  0
  -26.4130  -31.7510   25.1390 C   0  0  1  0  0  0  0  0  0  0  0  0
  -25.3270  -31.5070   26.2140 C   0  0  0  0  0  1  0  0  0  0  0  0
  -26.9960  -30.3750   24.7440 C   0  0  0  0  0  1  0  0  0  0  0  0
  -27.5680  -32.5460   25.7900 C   0  0  0  0  0  1  0  0  0  0  0  0
  -31.9010  -17.3450   20.6760 C   0  0  0  0  0  2  0  0  0  0  0  0
  -30.7050  -16.8000   21.5090 C   0  0  0  0  0  2  0  0  0  0  0  0
  -30.7620  -14.4470   20.5090 C   0  0  0  0  0  0  0  0  0  0  0  0
  -30.3460  -12.3530   19.2860 C   0  0  0  0  0  2  0  0  0  0  0  0
  -29.3980  -12.5860   18.0960 C   0  0  0  0  0  2  0  0  0  0  0  0
  -27.9340  -12.4360   18.5450 C   0  0  0  0  0  2  0  0  0  0  0  0
  -27.6120  -13.2710   19.8120 C   0  0  0  0  0  3  0  0  0  0  0  0
  -28.6780  -13.0590   20.9120 C   0  0  0  0  0  2  0  0  0  0  0  0
  -30.0070  -13.3300   20.3340 N   0  0  0  0  0  0  0  0  0  0  0  0
  -31.8540  -14.5950   19.9640 O   0  0  0  0  0  0  0  0  0  0  0  0
  -30.2110  -15.4350   21.2300 N   0  0  0  0  0  0  0  0  0  0  0  0
  -29.2960  -15.2230   21.6020 H   0  0  0  0  0  0  0  0  0  0  0  0
  -25.2100  -13.8720   20.5190 C   0  0  0  0  0  0  0  0  0  0  0  0
  -24.1430  -13.0980   20.8870 C   0  0  0  0  0  0  0  0  0  0  0  0
  -24.6080  -11.7470   20.8630 C   0  0  0  0  0  0  0  0  0  0  0  0
  -26.2600  -12.9950   20.2960 N   0  0  0  0  0  0  0  0  0  0  0  0
  -25.9000  -11.7120   20.5610 N   0  0  0  0  0  0  0  0  0  0  0  0
  -23.8850  -10.4840   21.0560 C   0  0  0  0  0  0  0  0  0  0  0  0
  -24.3270   -9.5130   21.9830 C   0  0  0  0  0  3  0  0  0  0  0  0
  -23.6040   -8.3140   22.1620 C   0  0  0  0  0  3  0  0  0  0  0  0
  -22.4260   -8.0760   21.4140 C   0  0  0  0  0  0  0  0  0  0  0  0
  -22.0040   -9.0360   20.4760 C   0  0  0  0  0  3  0  0  0  0  0  0
  -22.7260  -10.2260   20.2960 C   0  0  0  0  0  3  0  0  0  0  0  0
  -21.6720   -6.9310   21.5020 O   0  0  0  0  0  0  0  0  0  0  0  0
  -21.6430   -6.1780   22.6480 C   0  0  0  0  0  0  0  0  0  0  0  0
  -21.2490   -6.7250   23.8900 C   0  0  0  0  0  3  0  0  0  0  0  0
  -21.1640   -5.8980   25.0280 C   0  0  0  0  0  3  0  0  0  0  0  0
  -21.4650   -4.5260   24.9270 C   0  0  0  0  0  0  0  0  0  0  0  0
  -21.8530   -3.9800   23.6910 C   0  0  0  0  0  3  0  0  0  0  0  0
  -21.9390   -4.8040   22.5540 C   0  0  0  0  0  0  0  0  0  0  0  0
  -22.2930   -4.2670   21.3610 F   0  0  0  0  0  0  0  0  0  0  0  0
  -21.3780   -3.7300   26.0190 F   0  0  0  0  0  0  0  0  0  0  0  0
  -22.7440  -13.5720   21.1570 C   0  0  0  0  0  0  0  0  0  0  0  0
  -22.0150  -12.8770   22.0220 N   0  0  0  0  0  0  0  0  0  0  0  0
  -22.3060  -14.5970   20.6360 O   0  0  0  0  0  0  0  0  0  0  0  0
  -22.3810  -12.0480   22.4660 H   0  0  0  0  0  0  0  0  0  0  0  0
  -21.0770  -13.1810   22.2440 H   0  0  0  0  0  0  0  0  0  0  0  0
  -25.3710  -15.2430   20.3320 N   0  0  0  0  0  0  0  0  0  0  0  0
  -24.6020  -15.8960   20.4330 H   0  0  0  0  0  0  0  0  0  0  0  0
  -26.2240  -15.6770   20.0010 H   0  0  0  0  0  0  0  0  0  0  0  0
  -30.3700  -19.2580   18.8410 C   0  0  0  0  0  2  0  0  0  0  0  0
  -30.9790  -19.4910   17.4460 C   0  0  0  0  0  2  0  0  0  0  0  0
  -32.3870  -19.0480   17.3580 N   0  0  0  0  0  4  0  0  0  0  0  0
  -32.8450  -19.3080   18.2190 H   0  0  0  0  0  0  0  0  0  0  0  0
  -32.4120  -18.0430   17.2880 H   0  0  0  0  0  0  0  0  0  0  0  0
  -33.8550  -20.9120   16.5690 C   0  0  0  0  0  2  0  0  0  0  0  0
  -34.6170  -19.6290   16.3050 C   0  0  0  0  0  2  0  0  0  0  0  0
  -33.1060  -19.6460   16.2130 C   0  0  0  0  0  3  0  0  0  0  0  0
  1  2  1  0
  3  1  2  0
  4  2  2  0
  5  3  1  0
  5  4  1  0
  6 10  1  0
  8  6  1  0
  8 11  1  0
  9  7  1  0
 10  3  1  0
 10  7  1  0
 11 12  1  0
 11  9  1  0
 12 13  1  0
 13 15  1  0
 14 25  2  0
 15 20  1  0
 16 24  1  0
 16 26  1  0
 17 23  1  0
 17 19  1  0
 18 24  1  0
 19 18  1  0
 20 19  2  0
 21 22  1  0
 21 15  2  0
 22 17  2  0
 23 16  1  0
 24 14  1  0
 26 28  2  0
 27 26  1  0
 29 27  1  0
 30 39  2  0
 30 35  1  0
 31 27  1  0
 31 35  1  0
 32 31  1  0
 33 34  1  0
 33 32  1  0
 34 30  1  0
 35 36  2  0
 36 37  1  0
 38 37  2  0
 39 38  1  0
 40 14  1  0
 40 41  1  0
 40 50  1  0
 41 44  1  0
 42 46  1  0
 42 41  1  0
 43 42  2  0
 46 45  1  0
 48 46  1  0
 48 49  1  0
 48 47  1  0
 50 53  1  1
 50 51  1  0
 52 50  1  0
 54  4  1  0
 54 55  1  0
 56 64  1  0
 57 62  1  0
 58 59  1  0
 58 57  1  0
 60 59  1  0
 60 69  1  0
 60 61  1  0
 62 56  1  0
 62 61  1  0
 63 56  2  0
 64 55  1  0
 64 65  1  0
 66 67  2  0
 67 86  1  0
 68 67  1  0
 68 71  1  0
 69 66  1  0
 69 70  1  0
 70 68  2  0
 71 72  1  0
 72 73  2  0
 74 77  1  0
 74 73  1  0
 75 74  2  0
 76 75  1  0
 76 71  2  0
 77 78  1  0
 78 79  1  0
 79 80  2  0
 81 80  1  0
 81 85  1  0
 82 81  2  0
 83 78  2  0
 83 82  1  0
 84 83  1  0
 86 87  1  0
 87 90  1  0
 87 89  1  0
 88 86  2  0
 91 92  1  0
 91 66  1  0
 93 91  1  0
 94  5  1  0
 95 94  1  0
 96 95  1  0
 96 97  1  0
 98 96  1  0
100 99  1  0
101100  1  0
101 99  1  0
101 96  1  0
M  ISO  4  12 101  13 101  56 100  64 100
M  END
>  <TORSDO>  (22) 
F 24

>  <SCORE>  (22) 
-12.859

>  <name>  (22) 
21

>  <ligand_id>  (22) 
21

>  <original_smiles>  (22) 
[H]c1c([H])c([H])c2c(c1[H])C([H])([H])C([H])([H])C([H])([H])C2([H])N([H])C(=O)C1([H])N(C(=O)C([H])(N([H])C(=O)C([H])(N([H])C([H])([H])[H])C([H])([H])[H])C(C([H])([H])[H])(C([H])([H])[H])C([H])([H])[H])C([H])([H])c2c([H])c(OC([H])([H])C3([H])C([H])([H])C([H])([H])C([H])(c4c([H])c([H])c(C([H])([H])C([H])([H])N([H])C(=O)N5C([H])([H])C([H])([H])C([H])([H])C([H])(n6nc(-c7c([H])c([H])c(Oc8c([H])c([H])c(F)c([H])c8F)c([H])c7[H])c(C(=O)N([H])[H])c6N([H])[H])C5([H])[H])n4C([H])([H])C([H])([H])[N+]([H])([H])C4([H])C([H])([H])C4([H])[H])C([H])([H])C3([H])[H])c([H])c([H])c2C1([H])[H]

>  <smiles>  (22) 
[H]c1c([H])c([H])c2c(c1[H])C([H])([H])C([H])([H])C([H])([H])C2([H])N([H])C(=O)C1([H])N(C(=O)C([H])(N([H])C(=O)C([H])(N([H])C([H])([H])[H])C([H])([H])[H])C(C([H])([H])[H])(C([H])([H])[H])C([H])([H])[H])C([H])([H])c2c([H])c(OC([H])([H])C3([H])C([H])([H])C([H])([H])C([H])(c4c([H])c([H])c(C([H])([H])C([H])([H])N([H])C(=O)N5C([H])([H])C([H])([H])C([H])([H])C([H])(n6nc(-c7c([H])c([H])c(Oc8c([H])c([H])c(F)c([H])c8F)c([H])c7[H])c(C(=O)N([H])[H])c6N([H])[H])C5([H])[H])n4C([H])([H])C([H])([H])[N+]([H])([H])C4([H])C([H])([H])C4([H])[H])C([H])([H])C3([H])[H])c([H])c([H])c2C1([H])[H]

$$$$
22:0:0
     RDKit          3D

 96104  0  0  1  0  0  0  0  0999 V2000
  -29.6170  -21.5970   17.0030 C   0  0  0  0  0  3  0  0  0  0  0  0
  -28.6940  -22.6340   17.2110 C   0  0  0  0  0  3  0  0  0  0  0  0
  -30.4000  -23.9050   18.4000 C   0  0  0  0  0  3  0  0  0  0  0  0
  -30.8980  -21.6590   17.6000 C   0  0  0  0  0  0  0  0  0  0  0  0
  -31.3290  -22.8640   18.2080 C   0  0  0  0  0  0  0  0  0  0  0  0
  -29.0630  -23.7420   17.9910 C   0  0  0  0  0  0  0  0  0  0  0  0
  -32.7410  -23.0400   18.7400 C   0  0  0  0  0  1  0  0  0  0  0  0
  -31.6770  -20.3650   17.7770 C   0  0  0  0  0  2  0  0  0  0  0  0
  -30.7370  -19.3070   18.3940 C   0  0  0  0  0  2  0  0  0  0  0  0
  -31.3820  -18.3980   19.3570 N   0  0  0  0  0  4  0  0  0  0  0  0
  -31.5810  -18.9150   20.1990 H   0  0  0  0  0  0  0  0  0  0  0  0
  -32.2510  -18.0540   18.9830 H   0  0  0  0  0  0  0  0  0  0  0  0
  -30.5190  -17.2510   19.6920 C   0  0  0  0  0  2  0  0  0  0  0  0
  -30.7820  -16.6830   21.1050 C   0  0  0  0  0  2  0  0  0  0  0  0
  -30.7720  -14.3150   20.5590 C   0  0  0  0  0  0  0  0  0  0  0  0
  -30.3530  -12.2250   19.3560 C   0  0  0  0  0  2  0  0  0  0  0  0
  -29.4400  -12.4940   18.1460 C   0  0  0  0  0  2  0  0  0  0  0  0
  -27.9620  -12.3830   18.5600 C   0  0  0  0  0  2  0  0  0  0  0  0
  -27.6320  -13.2180   19.8270 C   0  0  0  0  0  3  0  0  0  0  0  0
  -28.6680  -12.9720   20.9500 C   0  0  0  0  0  2  0  0  0  0  0  0
  -30.0150  -13.2020   20.4000 N   0  0  0  0  0  0  0  0  0  0  0  0
  -31.8640  -14.4730   20.0110 O   0  0  0  0  0  0  0  0  0  0  0  0
  -30.2140  -15.3380   21.2160 N   0  0  0  0  0  0  0  0  0  0  0  0
  -29.3150  -15.2090   21.6570 H   0  0  0  0  0  0  0  0  0  0  0  0
  -25.2210  -13.8470   20.4770 C   0  0  0  0  0  0  0  0  0  0  0  0
  -24.1430  -13.0850   20.8390 C   0  0  0  0  0  0  0  0  0  0  0  0
  -24.5980  -11.7310   20.8370 C   0  0  0  0  0  0  0  0  0  0  0  0
  -26.2670  -12.9590   20.2830 N   0  0  0  0  0  0  0  0  0  0  0  0
  -25.8930  -11.6810   20.5540 N   0  0  0  0  0  0  0  0  0  0  0  0
  -23.8620  -10.4750   21.0340 C   0  0  0  0  0  0  0  0  0  0  0  0
  -24.2870   -9.5110   21.9750 C   0  0  0  0  0  3  0  0  0  0  0  0
  -23.5540   -8.3190   22.1580 C   0  0  0  0  0  3  0  0  0  0  0  0
  -22.3820   -8.0830   21.4020 C   0  0  0  0  0  0  0  0  0  0  0  0
  -21.9770   -9.0360   20.4500 C   0  0  0  0  0  3  0  0  0  0  0  0
  -22.7100  -10.2190   20.2650 C   0  0  0  0  0  3  0  0  0  0  0  0
  -21.6200   -6.9440   21.4940 O   0  0  0  0  0  0  0  0  0  0  0  0
  -21.5770   -6.1980   22.6450 C   0  0  0  0  0  0  0  0  0  0  0  0
  -21.1790   -6.7560   23.8790 C   0  0  0  0  0  3  0  0  0  0  0  0
  -21.0810   -5.9400   25.0230 C   0  0  0  0  0  3  0  0  0  0  0  0
  -21.3700   -4.5650   24.9330 C   0  0  0  0  0  0  0  0  0  0  0  0
  -21.7610   -4.0060   23.7050 C   0  0  0  0  0  3  0  0  0  0  0  0
  -21.8610   -4.8200   22.5630 C   0  0  0  0  0  0  0  0  0  0  0  0
  -22.2170   -4.2720   21.3760 F   0  0  0  0  0  0  0  0  0  0  0  0
  -21.2700   -3.7770   26.0310 F   0  0  0  0  0  0  0  0  0  0  0  0
  -22.7430  -13.5720   21.0810 C   0  0  0  0  0  0  0  0  0  0  0  0
  -22.0000  -12.8910   21.9460 N   0  0  0  0  0  0  0  0  0  0  0  0
  -22.3160  -14.5910   20.5390 O   0  0  0  0  0  0  0  0  0  0  0  0
  -22.3580  -12.0660   22.4040 H   0  0  0  0  0  0  0  0  0  0  0  0
  -21.0600  -13.1980   22.1540 H   0  0  0  0  0  0  0  0  0  0  0  0
  -25.3960  -15.2140   20.2810 N   0  0  0  0  0  0  0  0  0  0  0  0
  -24.6310  -15.8760   20.3620 H   0  0  0  0  0  0  0  0  0  0  0  0
  -26.2570  -15.6420   19.9660 H   0  0  0  0  0  0  0  0  0  0  0  0
  -28.0890  -24.5830   18.4400 O   0  0  0  0  0  0  0  0  0  0  0  0
  -27.7930  -24.3770   19.8260 C   0  0  0  0  0  2  0  0  0  0  0  0
  -28.4080  -25.4860   20.7000 C   0  0  0  0  0  2  0  0  0  0  0  0
  -28.4090  -26.7770   20.0920 O   0  0  0  0  0  0  0  0  0  0  0  0
  -24.5860  -31.8760   23.2320 C   0  0  0  0  0  0  0  0  0  0  0  0
  -27.2240  -27.4670   20.1270 C   0  0  0  0  0  0  0  0  0  0  0  0
  -23.3760  -30.4750   21.5910 C   0  0  0  0  0  3  0  0  0  0  0  0
  -24.8260  -28.9480   20.1600 C   0  0  0  0  0  0  0  0  0  0  0  0
  -25.8990  -30.8420   21.3880 C   0  0  0  0  0  2  0  0  0  0  0  0
  -25.9820  -29.4730   20.7520 C   0  0  0  0  0  0  0  0  0  0  0  0
  -27.1840  -28.7350   20.7420 C   0  0  0  0  0  3  0  0  0  0  0  0
  -26.0580  -26.9670   19.5060 C   0  0  0  0  0  3  0  0  0  0  0  0
  -24.8570  -27.6920   19.5370 C   0  0  0  0  0  3  0  0  0  0  0  0
  -23.5810  -29.8010   20.2080 C   0  0  0  0  0  2  0  0  0  0  0  0
  -24.6380  -31.0780   22.1290 N   0  0  0  0  0  0  0  0  0  0  0  0
  -23.5070  -32.1470   23.7750 O   0  0  0  0  0  0  0  0  0  0  0  0
  -22.7320  -29.4490   22.5490 C   0  0  0  0  0  0  0  0  0  0  0  0
  -21.4060  -29.2700   22.4280 N   0  0  0  0  0  0  0  0  0  0  0  0
  -23.4190  -28.8170   23.3550 O   0  0  0  0  0  0  0  0  0  0  0  0
  -20.9140  -29.8330   21.7490 H   0  0  0  0  0  0  0  0  0  0  0  0
  -18.0320  -28.0890   22.9360 C   0  0  0  0  0  0  0  0  0  0  0  0
  -20.5910  -28.3320   23.1990 C   0  0  0  0  0  3  0  0  0  0  0  0
  -20.6850  -26.9030   22.6160 C   0  0  0  0  0  2  0  0  0  0  0  0
  -19.5770  -26.5890   21.6060 C   0  0  0  0  0  2  0  0  0  0  0  0
  -18.1990  -26.7400   22.2580 C   0  0  0  0  0  2  0  0  0  0  0  0
  -19.1570  -28.8430   23.3640 C   0  0  0  0  0  0  0  0  0  0  0  0
  -18.9480  -30.1070   23.9570 C   0  0  0  0  0  3  0  0  0  0  0  0
  -17.6470  -30.6160   24.1300 C   0  0  0  0  0  3  0  0  0  0  0  0
  -16.5360  -29.8570   23.7190 C   0  0  0  0  0  3  0  0  0  0  0  0
  -16.7300  -28.5960   23.1280 C   0  0  0  0  0  3  0  0  0  0  0  0
  -25.8760  -32.5050   23.8470 C   0  0  0  0  0  3  0  0  0  0  0  0
  -25.5690  -33.9000   24.1830 N   0  0  0  0  0  0  0  0  0  0  0  0
  -25.8950  -34.9540   23.4220 C   0  0  0  0  0  0  0  0  0  0  0  0
  -26.5600  -34.8540   22.3880 O   0  0  0  0  0  0  0  0  0  0  0  0
  -24.9780  -34.0540   24.9870 H   0  0  0  0  0  0  0  0  0  0  0  0
  -24.1620  -36.7410   23.0740 C   0  0  0  0  0  1  0  0  0  0  0  0
  -25.4060  -36.3390   23.8820 C   0  0  0  0  0  3  0  0  0  0  0  0
  -27.5440  -37.2250   24.7030 C   0  0  0  0  0  1  0  0  0  0  0  0
  -26.4360  -37.3940   23.7670 N   0  0  0  0  0  0  0  0  0  0  0  0
  -26.0300  -38.3130   23.9190 H   0  0  0  0  0  0  0  0  0  0  0  0
  -26.4030  -31.7250   25.1140 C   0  0  1  0  0  0  0  0  0  0  0  0
  -25.3190  -31.4790   26.1880 C   0  0  0  0  0  1  0  0  0  0  0  0
  -26.9860  -30.3510   24.7070 C   0  0  0  0  0  1  0  0  0  0  0  0
  -27.5580  -32.5170   25.7740 C   0  0  0  0  0  1  0  0  0  0  0  0
  1  2  2  0
  1  4  1  0
  2  6  1  0
  4  8  1  0
  4  5  2  0
  5  3  1  0
  5  7  1  0
  6  3  2  0
  6 53  1  0
  8  9  1  0
  9 10  1  0
 10 13  1  0
 10 11  1  0
 12 10  1  0
 13 14  1  0
 14 23  1  0
 15 23  1  0
 16 21  1  0
 17 18  1  0
 17 16  1  0
 19 18  1  0
 19 28  1  0
 19 20  1  0
 21 15  1  0
 21 20  1  0
 22 15  2  0
 23 24  1  0
 25 26  2  0
 26 45  1  0
 27 26  1  0
 27 30  1  0
 28 25  1  0
 28 29  1  0
 29 27  2  0
 30 31  1  0
 31 32  2  0
 33 36  1  0
 33 32  1  0
 34 33  2  0
 35 34  1  0
 35 30  2  0
 36 37  1  0
 37 38  1  0
 38 39  2  0
 40 39  1  0
 40 44  1  0
 41 40  2  0
 42 37  2  0
 42 41  1  0
 43 42  1  0
 45 46  1  0
 46 49  1  0
 46 48  1  0
 47 45  2  0
 50 51  1  0
 50 25  1  0
 52 50  1  0
 53 54  1  0
 54 55  1  0
 56 58  1  0
 56 55  1  0
 57 68  2  0
 58 63  1  0
 59 67  1  0
 59 69  1  0
 60 66  1  0
 60 62  1  0
 61 67  1  0
 62 61  1  0
 63 62  2  0
 64 65  1  0
 64 58  2  0
 65 60  2  0
 66 59  1  0
 67 57  1  0
 69 71  2  0
 70 69  1  0
 72 70  1  0
 73 82  2  0
 73 78  1  0
 74 70  1  0
 74 78  1  0
 75 74  1  0
 76 77  1  0
 76 75  1  0
 77 73  1  0
 78 79  2  0
 79 80  1  0
 81 80  2  0
 82 81  1  0
 83 57  1  0
 83 84  1  0
 83 93  1  0
 84 87  1  0
 85 89  1  0
 85 84  1  0
 86 85  2  0
 89 88  1  0
 91 89  1  0
 91 92  1  0
 91 90  1  0
 93 96  1  1
 93 94  1  0
 95 93  1  0
M  ISO  4  15 100  23 100  55 101  56 101
M  END
>  <TORSDO>  (23) 
F 24

>  <SCORE>  (23) 
-12.278

>  <name>  (23) 
22

>  <ligand_id>  (23) 
22

>  <original_smiles>  (23) 
[H]c1c([H])c([H])c2c(c1[H])C([H])([H])C([H])([H])C([H])([H])C2([H])N([H])C(=O)C1([H])N(C(=O)C([H])(N([H])C(=O)C([H])(N([H])C([H])([H])[H])C([H])([H])[H])C(C([H])([H])[H])(C([H])([H])[H])C([H])([H])[H])C([H])([H])c2c([H])c(OC([H])([H])C([H])([H])Oc3c([H])c([H])c(C([H])([H])C([H])([H])[N+]([H])([H])C([H])([H])C([H])([H])N([H])C(=O)N4C([H])([H])C([H])([H])C([H])([H])C([H])(n5nc(-c6c([H])c([H])c(Oc7c([H])c([H])c(F)c([H])c7F)c([H])c6[H])c(C(=O)N([H])[H])c5N([H])[H])C4([H])[H])c(C([H])([H])[H])c3[H])c([H])c([H])c2C1([H])[H]

>  <smiles>  (23) 
[H]c1c([H])c([H])c2c(c1[H])C([H])([H])C([H])([H])C([H])([H])C2([H])N([H])C(=O)C1([H])N(C(=O)C([H])(N([H])C(=O)C([H])(N([H])C([H])([H])[H])C([H])([H])[H])C(C([H])([H])[H])(C([H])([H])[H])C([H])([H])[H])C([H])([H])c2c([H])c(OC([H])([H])C([H])([H])Oc3c([H])c([H])c(C([H])([H])C([H])([H])[N+]([H])([H])C([H])([H])C([H])([H])N([H])C(=O)N4C([H])([H])C([H])([H])C([H])([H])C([H])(n5nc(-c6c([H])c([H])c(Oc7c([H])c([H])c(F)c([H])c7F)c([H])c6[H])c(C(=O)N([H])[H])c5N([H])[H])C4([H])[H])c(C([H])([H])[H])c3[H])c([H])c([H])c2C1([H])[H]

$$$$
23:0:0
     RDKit          3D

 99109  0  0  1  0  0  0  0  0999 V2000
  -28.8780  -22.2300   22.7080 C   0  0  0  0  0  2  0  0  0  0  0  0
  -30.4220  -23.4050   24.2930 C   0  0  0  0  0  2  0  0  0  0  0  0
  -30.0540  -21.3400   22.2550 C   0  0  0  0  0  2  0  0  0  0  0  0
  -31.5670  -22.4810   23.8300 C   0  0  0  0  0  2  0  0  0  0  0  0
  -29.3250  -23.6190   23.2220 C   0  0  0  0  0  3  0  0  0  0  0  0
  -31.0710  -21.1710   23.3310 N   0  0  2  0  0  4  0  0  0  0  0  0
  -30.6050  -20.7170   24.1040 H   0  0  0  0  0  0  0  0  0  0  0  0
  -29.6860  -26.8700   21.4330 C   0  0  0  0  0  2  0  0  0  0  0  0
  -30.1560  -25.9080   22.5230 C   0  0  0  0  0  2  0  0  0  0  0  0
  -28.5860  -24.7790   21.1300 C   0  0  0  0  0  2  0  0  0  0  0  0
  -28.3280  -26.2850   21.0960 C   0  0  0  0  0  3  0  0  0  0  0  0
  -29.6860  -24.5570   22.1100 N   0  0  2  0  0  4  0  0  0  0  0  0
  -30.4480  -24.1600   21.5790 H   0  0  0  0  0  0  0  0  0  0  0  0
  -27.8270  -26.6970   19.8250 O   0  0  0  0  0  0  0  0  0  0  0  0
  -24.4430  -31.9520   23.2150 C   0  0  0  0  0  0  0  0  0  0  0  0
  -26.7110  -27.4860   19.9150 C   0  0  0  0  0  0  0  0  0  0  0  0
  -23.0780  -30.6270   21.6290 C   0  0  0  0  0  3  0  0  0  0  0  0
  -24.3770  -29.0530   20.0980 C   0  0  0  0  0  0  0  0  0  0  0  0
  -25.5960  -30.8930   21.2810 C   0  0  0  0  0  2  0  0  0  0  0  0
  -25.5850  -29.5300   20.6230 C   0  0  0  0  0  0  0  0  0  0  0  0
  -26.7550  -28.7510   20.5360 C   0  0  0  0  0  3  0  0  0  0  0  0
  -25.4960  -27.0140   19.3820 C   0  0  0  0  0  3  0  0  0  0  0  0
  -24.3240  -27.7900   19.4780 C   0  0  0  0  0  3  0  0  0  0  0  0
  -23.1720  -29.9550   20.2320 C   0  0  0  0  0  2  0  0  0  0  0  0
  -24.3940  -31.1690   22.1000 N   0  0  0  0  0  0  0  0  0  0  0  0
  -23.4100  -32.2610   23.8250 O   0  0  0  0  0  0  0  0  0  0  0  0
  -22.4440  -29.6190   22.6150 C   0  0  0  0  0  0  0  0  0  0  0  0
  -21.1190  -29.4380   22.5110 N   0  0  0  0  0  0  0  0  0  0  0  0
  -23.1420  -29.0040   23.4250 O   0  0  0  0  0  0  0  0  0  0  0  0
  -20.6180  -29.9900   21.8280 H   0  0  0  0  0  0  0  0  0  0  0  0
  -17.7690  -28.1800   22.9940 C   0  0  0  0  0  0  0  0  0  0  0  0
  -20.3120  -28.5120   23.3060 C   0  0  0  0  0  3  0  0  0  0  0  0
  -20.4620  -27.0610   22.7940 C   0  0  0  0  0  2  0  0  0  0  0  0
  -19.3890  -26.6670   21.7720 C   0  0  0  0  0  2  0  0  0  0  0  0
  -17.9920  -26.8070   22.3810 C   0  0  0  0  0  2  0  0  0  0  0  0
  -18.8580  -28.9870   23.4130 C   0  0  0  0  0  0  0  0  0  0  0  0
  -18.5970  -30.2710   23.9400 C   0  0  0  0  0  3  0  0  0  0  0  0
  -17.2770  -30.7460   24.0570 C   0  0  0  0  0  3  0  0  0  0  0  0
  -16.2020  -29.9350   23.6570 C   0  0  0  0  0  3  0  0  0  0  0  0
  -16.4470  -28.6550   23.1310 C   0  0  0  0  0  3  0  0  0  0  0  0
  -25.7930  -32.5130   23.7630 C   0  0  0  0  0  3  0  0  0  0  0  0
  -26.3660  -31.6820   24.9760 C   0  0  1  0  0  0  0  0  0  0  0  0
  -25.3390  -31.4510   26.1080 C   0  0  0  0  0  1  0  0  0  0  0  0
  -26.8670  -30.2970   24.5000 C   0  0  0  0  0  1  0  0  0  0  0  0
  -27.5860  -32.4120   25.5820 C   0  0  0  0  0  1  0  0  0  0  0  0
  -25.5660  -33.9100   24.1510 N   0  0  0  0  0  0  0  0  0  0  0  0
  -25.9100  -34.9710   23.4080 C   0  0  0  0  0  0  0  0  0  0  0  0
  -26.5250  -34.8720   22.3430 O   0  0  0  0  0  0  0  0  0  0  0  0
  -25.0150  -34.0640   24.9830 H   0  0  0  0  0  0  0  0  0  0  0  0
  -24.2580  -36.8510   23.1750 C   0  0  0  0  0  1  0  0  0  0  0  0
  -25.5050  -36.3610   23.9290 C   0  0  0  0  0  3  0  0  0  0  0  0
  -27.7060  -37.1190   24.7120 C   0  0  0  0  0  1  0  0  0  0  0  0
  -26.5820  -37.3690   23.8130 N   0  0  0  0  0  0  0  0  0  0  0  0
  -26.2250  -38.3020   24.0040 H   0  0  0  0  0  0  0  0  0  0  0  0
  -32.1970  -20.2660   22.9750 C   0  0  0  0  0  2  0  0  0  0  0  0
  -31.1340  -17.9740   23.3320 C   0  0  0  0  0  3  0  0  0  0  0  0
  -31.9230  -18.5680   21.1060 C   0  0  0  0  0  3  0  0  0  0  0  0
  -30.6920  -16.7300   22.8410 C   0  0  0  0  0  3  0  0  0  0  0  0
  -31.4850  -17.3250   20.6170 C   0  0  0  0  0  3  0  0  0  0  0  0
  -31.7490  -18.9020   22.4650 C   0  0  0  0  0  0  0  0  0  0  0  0
  -30.8700  -16.3880   21.4830 C   0  0  0  0  0  0  0  0  0  0  0  0
  -30.7020  -14.4020   19.9710 C   0  0  0  0  0  0  0  0  0  0  0  0
  -30.2620  -12.3130   18.7300 C   0  0  0  0  0  2  0  0  0  0  0  0
  -29.2320  -12.5290   17.6070 C   0  0  0  0  0  2  0  0  0  0  0  0
  -27.7990  -12.3670   18.1470 C   0  0  0  0  0  2  0  0  0  0  0  0
  -27.5520  -13.2000   19.4310 C   0  0  0  0  0  3  0  0  0  0  0  0
  -28.6800  -12.9700   20.4590 C   0  0  0  0  0  2  0  0  0  0  0  0
  -29.9760  -13.2660   19.8150 N   0  0  0  0  0  0  0  0  0  0  0  0
  -31.6380  -14.7020   19.2230 O   0  0  0  0  0  0  0  0  0  0  0  0
  -30.3790  -15.1240   21.0560 N   0  0  0  0  0  0  0  0  0  0  0  0
  -29.6920  -14.6880   21.6530 H   0  0  0  0  0  0  0  0  0  0  0  0
  -25.1970  -13.7840   20.3020 C   0  0  0  0  0  0  0  0  0  0  0  0
  -24.1680  -13.0000   20.7510 C   0  0  0  0  0  0  0  0  0  0  0  0
  -24.6440  -11.6540   20.6920 C   0  0  0  0  0  0  0  0  0  0  0  0
  -26.2370  -12.9150   20.0030 N   0  0  0  0  0  0  0  0  0  0  0  0
  -25.9080  -11.6290   20.2900 N   0  0  0  0  0  0  0  0  0  0  0  0
  -23.9500  -10.3840   20.9400 C   0  0  0  0  0  0  0  0  0  0  0  0
  -24.4150   -9.4640   21.9070 C   0  0  0  0  0  3  0  0  0  0  0  0
  -23.7210   -8.2580   22.1400 C   0  0  0  0  0  3  0  0  0  0  0  0
  -22.5490   -7.9600   21.4050 C   0  0  0  0  0  0  0  0  0  0  0  0
  -22.1040   -8.8670   20.4280 C   0  0  0  0  0  3  0  0  0  0  0  0
  -22.7980  -10.0660   20.1940 C   0  0  0  0  0  3  0  0  0  0  0  0
  -21.8240   -6.8020   21.5450 O   0  0  0  0  0  0  0  0  0  0  0  0
  -21.7590   -6.1340   22.7420 C   0  0  0  0  0  0  0  0  0  0  0  0
  -21.2750   -6.7520   23.9150 C   0  0  0  0  0  3  0  0  0  0  0  0
  -21.1590   -6.0080   25.1070 C   0  0  0  0  0  3  0  0  0  0  0  0
  -21.5180   -4.6470   25.1260 C   0  0  0  0  0  0  0  0  0  0  0  0
  -21.9960   -4.0290   23.9570 C   0  0  0  0  0  3  0  0  0  0  0  0
  -22.1130   -4.7690   22.7680 C   0  0  0  0  0  0  0  0  0  0  0  0
  -22.5530   -4.1630   21.6390 F   0  0  0  0  0  0  0  0  0  0  0  0
  -21.4000   -3.9300   26.2680 F   0  0  0  0  0  0  0  0  0  0  0  0
  -22.7890  -13.4600   21.1230 C   0  0  0  0  0  0  0  0  0  0  0  0
  -22.1440  -12.7670   22.0560 N   0  0  0  0  0  0  0  0  0  0  0  0
  -22.2930  -14.4670   20.6220 O   0  0  0  0  0  0  0  0  0  0  0  0
  -22.5580  -11.9510   22.4820 H   0  0  0  0  0  0  0  0  0  0  0  0
  -21.2210  -13.0560   22.3470 H   0  0  0  0  0  0  0  0  0  0  0  0
  -25.3320  -15.1550   20.1070 N   0  0  0  0  0  0  0  0  0  0  0  0
  -24.5690  -15.8050   20.2680 H   0  0  0  0  0  0  0  0  0  0  0  0
  -26.1600  -15.6010   19.7310 H   0  0  0  0  0  0  0  0  0  0  0  0
  3  1  1  0
  3  6  1  0
  4  2  1  0
  5  1  1  0
  5  2  1  0
  6  4  1  0
  6  7  1  1
  8  9  1  0
 10 12  1  0
 11 14  1  0
 11 10  1  0
 11  8  1  0
 12 13  1  6
 12  9  1  0
 12  5  1  0
 14 16  1  0
 15 26  2  0
 16 21  1  0
 17 25  1  0
 17 27  1  0
 18 24  1  0
 18 20  1  0
 19 25  1  0
 20 19  1  0
 21 20  2  0
 22 23  1  0
 22 16  2  0
 23 18  2  0
 24 17  1  0
 25 15  1  0
 27 29  2  0
 28 27  1  0
 30 28  1  0
 31 40  2  0
 31 36  1  0
 32 28  1  0
 32 36  1  0
 33 32  1  0
 34 35  1  0
 34 33  1  0
 35 31  1  0
 36 37  2  0
 37 38  1  0
 39 38  2  0
 40 39  1  0
 41 15  1  0
 41 46  1  0
 41 42  1  0
 42 45  1  1
 42 43  1  0
 44 42  1  0
 46 49  1  0
 47 51  1  0
 47 46  1  0
 48 47  2  0
 51 50  1  0
 53 51  1  0
 53 54  1  0
 53 52  1  0
 55  6  1  0
 57 60  1  0
 58 56  1  0
 59 57  2  0
 59 61  1  0
 60 55  1  0
 60 56  2  0
 61 58  2  0
 62 70  1  0
 63 68  1  0
 64 65  1  0
 64 63  1  0
 66 65  1  0
 66 75  1  0
 66 67  1  0
 68 62  1  0
 68 67  1  0
 69 62  2  0
 70 61  1  0
 70 71  1  0
 72 73  2  0
 73 92  1  0
 74 73  1  0
 74 77  1  0
 75 76  1  0
 75 72  1  0
 76 74  2  0
 77 78  1  0
 78 79  2  0
 80 83  1  0
 80 79  1  0
 81 80  2  0
 82 81  1  0
 82 77  2  0
 83 84  1  0
 84 89  2  0
 84 85  1  0
 85 86  2  0
 86 87  1  0
 87 91  1  0
 88 87  2  0
 89 88  1  0
 90 89  1  0
 92 93  1  0
 93 96  1  0
 93 95  1  0
 94 92  2  0
 97 98  1  0
 97 72  1  0
 99 97  1  0
M  ISO  4  11 101  14 101  62 100  70 100
M  END
>  <TORSDO>  (24) 
F 19

>  <SCORE>  (24) 
-11.079

>  <name>  (24) 
23

>  <ligand_id>  (24) 
23

>  <original_smiles>  (24) 
[H]c1c([H])c([H])c2c(c1[H])C([H])([H])C([H])([H])C([H])([H])C2([H])N([H])C(=O)C1([H])N(C(=O)C([H])(N([H])C(=O)C([H])(N([H])C([H])([H])[H])C([H])([H])[H])C(C([H])([H])[H])(C([H])([H])[H])C([H])([H])[H])C([H])([H])c2c([H])c(OC3([H])C([H])([H])C([H])([H])[N+]([H])(C4([H])C([H])([H])C([H])([H])[N+]([H])(C([H])([H])c5c([H])c([H])c(N([H])C(=O)N6C([H])([H])C([H])([H])C([H])([H])C([H])(n7nc(-c8c([H])c([H])c(Oc9c([H])c([H])c(F)c([H])c9F)c([H])c8[H])c(C(=O)N([H])[H])c7N([H])[H])C6([H])[H])c([H])c5[H])C([H])([H])C4([H])[H])C3([H])[H])c([H])c([H])c2C1([H])[H]

>  <smiles>  (24) 
[H]c1c([H])c([H])c2c(c1[H])C([H])([H])C([H])([H])C([H])([H])C2([H])N([H])C(=O)C1([H])N(C(=O)C([H])(N([H])C(=O)C([H])(N([H])C([H])([H])[H])C([H])([H])[H])C(C([H])([H])[H])(C([H])([H])[H])C([H])([H])[H])C([H])([H])c2c([H])c(OC3([H])C([H])([H])C([H])([H])[N+]([H])(C4([H])C([H])([H])C([H])([H])[N+]([H])(C([H])([H])c5c([H])c([H])c(N([H])C(=O)N6C([H])([H])C([H])([H])C([H])([H])C([H])(n7nc(-c8c([H])c([H])c(Oc9c([H])c([H])c(F)c([H])c9F)c([H])c8[H])c(C(=O)N([H])[H])c7N([H])[H])C6([H])[H])c([H])c5[H])C([H])([H])C4([H])[H])C3([H])[H])c([H])c([H])c2C1([H])[H]

$$$$
24:0:0
     RDKit          3D

 95103  0  0  1  0  0  0  0  0999 V2000
  -30.1410  -20.2580   19.3110 C   0  0  0  0  0  2  0  0  0  0  0  0
  -27.6420  -17.5680   19.5450 C   0  0  0  0  0  3  0  0  0  0  0  0
  -27.7060  -19.7200   19.0130 C   0  0  0  0  0  3  0  0  0  0  0  0
  -26.8380  -18.6970   19.2010 C   0  0  0  0  0  0  0  0  0  0  0  0
  -28.9660  -17.9300   19.6150 C   0  0  0  0  0  0  0  0  0  0  0  0
  -28.9990  -19.3190   19.3090 N   0  0  0  0  0  0  0  0  0  0  0  0
  -24.6200  -18.7310   20.4020 C   0  0  0  0  0  1  0  0  0  0  0  0
  -24.7720  -17.7900   18.0560 C   0  0  0  0  0  1  0  0  0  0  0  0
  -25.3320  -18.8090   19.0420 C   0  0  0  0  0  3  0  0  0  0  0  0
  -30.1800  -17.0420   19.9630 C   0  0  0  0  0  2  0  0  0  0  0  0
  -30.7130  -14.5790   20.4490 C   0  0  0  0  0  0  0  0  0  0  0  0
  -30.5560  -12.2420   19.6820 C   0  0  0  0  0  2  0  0  0  0  0  0
  -29.6580  -12.2390   18.4290 C   0  0  0  0  0  2  0  0  0  0  0  0
  -28.1670  -12.1270   18.8190 C   0  0  0  0  0  2  0  0  0  0  0  0
  -27.7580  -13.1230   19.9350 C   0  0  0  0  0  3  0  0  0  0  0  0
  -28.7760  -13.0960   21.0970 C   0  0  0  0  0  2  0  0  0  0  0  0
  -30.1060  -13.3580   20.5280 N   0  0  0  0  0  0  0  0  0  0  0  0
  -31.9130  -14.7020   20.1860 O   0  0  0  0  0  0  0  0  0  0  0  0
  -29.8670  -15.6450   20.3900 N   0  0  0  0  0  0  0  0  0  0  0  0
  -28.8900  -15.4330   20.4940 H   0  0  0  0  0  0  0  0  0  0  0  0
  -25.3840  -13.7970   20.6380 C   0  0  0  0  0  0  0  0  0  0  0  0
  -24.2860  -13.0730   21.0080 C   0  0  0  0  0  0  0  0  0  0  0  0
  -24.6970  -11.7040   20.9670 C   0  0  0  0  0  0  0  0  0  0  0  0
  -26.3970  -12.8850   20.4070 N   0  0  0  0  0  0  0  0  0  0  0  0
  -25.9890  -11.6160   20.6670 N   0  0  0  0  0  0  0  0  0  0  0  0
  -23.9190  -10.4710   21.1240 C   0  0  0  0  0  0  0  0  0  0  0  0
  -24.3350   -9.4400   21.9960 C   0  0  0  0  0  3  0  0  0  0  0  0
  -23.5580   -8.2720   22.1410 C   0  0  0  0  0  3  0  0  0  0  0  0
  -22.3530   -8.1260   21.4150 C   0  0  0  0  0  0  0  0  0  0  0  0
  -21.9580   -9.1440   20.5310 C   0  0  0  0  0  3  0  0  0  0  0  0
  -22.7340  -10.3030   20.3800 C   0  0  0  0  0  3  0  0  0  0  0  0
  -21.5470   -7.0140   21.4770 O   0  0  0  0  0  0  0  0  0  0  0  0
  -21.5220   -6.2040   22.5850 C   0  0  0  0  0  0  0  0  0  0  0  0
  -21.2040   -6.7040   23.8660 C   0  0  0  0  0  3  0  0  0  0  0  0
  -21.1200   -5.8260   24.9650 C   0  0  0  0  0  3  0  0  0  0  0  0
  -21.3470   -4.4490   24.7850 C   0  0  0  0  0  0  0  0  0  0  0  0
  -21.6610   -3.9470   23.5110 C   0  0  0  0  0  3  0  0  0  0  0  0
  -21.7460   -4.8220   22.4130 C   0  0  0  0  0  0  0  0  0  0  0  0
  -22.0260   -4.3300   21.1820 F   0  0  0  0  0  0  0  0  0  0  0  0
  -21.2600   -3.6050   25.8390 F   0  0  0  0  0  0  0  0  0  0  0  0
  -22.9050  -13.6030   21.2740 C   0  0  0  0  0  0  0  0  0  0  0  0
  -22.1400  -12.9340   22.1290 N   0  0  0  0  0  0  0  0  0  0  0  0
  -22.5130  -14.6490   20.7560 O   0  0  0  0  0  0  0  0  0  0  0  0
  -22.4660  -12.0840   22.5630 H   0  0  0  0  0  0  0  0  0  0  0  0
  -21.2160  -13.2770   22.3520 H   0  0  0  0  0  0  0  0  0  0  0  0
  -25.6050  -15.1510   20.4400 N   0  0  0  0  0  0  0  0  0  0  0  0
  -24.8390  -15.8140   20.4930 H   0  0  0  0  0  0  0  0  0  0  0  0
  -26.4240  -15.5420   19.9940 H   0  0  0  0  0  0  0  0  0  0  0  0
  -29.8640  -21.7610   18.8850 C   0  0  0  0  0  2  0  0  0  0  0  0
  -29.1680  -22.6770   19.8640 N   0  0  0  0  0  4  0  0  0  0  0  0
  -29.6910  -22.6650   20.7250 H   0  0  0  0  0  0  0  0  0  0  0  0
  -28.2650  -22.2810   20.0690 H   0  0  0  0  0  0  0  0  0  0  0  0
  -29.0010  -24.1190   19.4250 C   0  0  0  0  0  3  0  0  0  0  0  0
  -28.2930  -25.0770   20.4560 C   0  0  0  0  0  3  0  0  0  0  0  0
  -28.3740  -26.5070   20.1630 O   0  0  0  0  0  0  0  0  0  0  0  0
  -24.5870  -31.7840   23.2390 C   0  0  0  0  0  0  0  0  0  0  0  0
  -27.2080  -27.2630   20.1880 C   0  0  0  0  0  0  0  0  0  0  0  0
  -23.3790  -30.3940   21.5920 C   0  0  0  0  0  3  0  0  0  0  0  0
  -24.8280  -28.8240   20.1890 C   0  0  0  0  0  0  0  0  0  0  0  0
  -25.9160  -30.7040   21.4180 C   0  0  0  0  0  2  0  0  0  0  0  0
  -25.9920  -29.3280   20.7820 C   0  0  0  0  0  0  0  0  0  0  0  0
  -27.1880  -28.5620   20.7650 C   0  0  0  0  0  3  0  0  0  0  0  0
  -26.0250  -26.7810   19.5870 C   0  0  0  0  0  3  0  0  0  0  0  0
  -24.8460  -27.5550   19.5820 C   0  0  0  0  0  3  0  0  0  0  0  0
  -23.5950  -29.7050   20.2190 C   0  0  0  0  0  2  0  0  0  0  0  0
  -24.6460  -30.9760   22.1420 N   0  0  0  0  0  0  0  0  0  0  0  0
  -23.5030  -32.0750   23.7650 O   0  0  0  0  0  0  0  0  0  0  0  0
  -22.7010  -29.3850   22.5500 C   0  0  0  0  0  0  0  0  0  0  0  0
  -21.3700  -29.2410   22.4350 N   0  0  0  0  0  0  0  0  0  0  0  0
  -23.3740  -28.7330   23.3540 O   0  0  0  0  0  0  0  0  0  0  0  0
  -20.8820  -29.8350   21.7780 H   0  0  0  0  0  0  0  0  0  0  0  0
  -17.9720  -28.1150   22.9040 C   0  0  0  0  0  0  0  0  0  0  0  0
  -20.5340  -28.3060   23.1930 C   0  0  0  0  0  3  0  0  0  0  0  0
  -20.6060  -26.8750   22.6000 C   0  0  0  0  0  2  0  0  0  0  0  0
  -19.4960  -26.5960   21.5800 C   0  0  0  0  0  2  0  0  0  0  0  0
  -18.1180  -26.7650   22.2240 C   0  0  0  0  0  2  0  0  0  0  0  0
  -19.1040  -28.8390   23.3590 C   0  0  0  0  0  0  0  0  0  0  0  0
  -18.9180  -30.0940   23.9780 C   0  0  0  0  0  3  0  0  0  0  0  0
  -17.6260  -30.6350   24.1320 C   0  0  0  0  0  3  0  0  0  0  0  0
  -16.5080  -29.9180   23.6710 C   0  0  0  0  0  3  0  0  0  0  0  0
  -16.6800  -28.6580   23.0690 C   0  0  0  0  0  3  0  0  0  0  0  0
  -25.8750  -32.4020   23.8700 C   0  0  0  0  0  3  0  0  0  0  0  0
  -25.5770  -33.7980   24.2140 N   0  0  0  0  0  0  0  0  0  0  0  0
  -25.9080  -34.8540   23.4580 C   0  0  0  0  0  0  0  0  0  0  0  0
  -26.5680  -34.7530   22.4210 O   0  0  0  0  0  0  0  0  0  0  0  0
  -24.9960  -33.9530   25.0250 H   0  0  0  0  0  0  0  0  0  0  0  0
  -24.1750  -36.6480   23.1380 C   0  0  0  0  0  1  0  0  0  0  0  0
  -25.4300  -36.2420   23.9270 C   0  0  0  0  0  3  0  0  0  0  0  0
  -27.5810  -37.1210   24.7210 C   0  0  0  0  0  1  0  0  0  0  0  0
  -26.4620  -37.2940   23.7990 N   0  0  0  0  0  0  0  0  0  0  0  0
  -26.0600  -38.2140   23.9550 H   0  0  0  0  0  0  0  0  0  0  0  0
  -26.3810  -31.6120   25.1380 C   0  0  1  0  0  0  0  0  0  0  0  0
  -25.2820  -31.3750   26.2000 C   0  0  0  0  0  1  0  0  0  0  0  0
  -26.9560  -30.2320   24.7350 C   0  0  0  0  0  1  0  0  0  0  0  0
  -27.5360  -32.3920   25.8110 C   0  0  0  0  0  1  0  0  0  0  0  0
  2  5  2  0
  3  4  2  0
  3  6  1  0
  4  2  1  0
  5 10  1  0
  6  1  1  0
  6  5  1  0
  8  9  1  0
  9  4  1  0
  9  7  1  0
 10 19  1  0
 11 17  1  0
 12 17  1  0
 13 14  1  0
 13 12  1  0
 15 14  1  0
 15 24  1  0
 15 16  1  0
 17 16  1  0
 18 11  2  0
 19 11  1  0
 19 20  1  0
 21 22  2  0
 22 41  1  0
 23 22  1  0
 23 26  1  0
 24 21  1  0
 24 25  1  0
 25 23  2  0
 26 27  1  0
 27 28  2  0
 29 32  1  0
 29 28  1  0
 30 29  2  0
 31 30  1  0
 31 26  2  0
 32 33  1  0
 33 34  1  0
 34 35  2  0
 36 35  1  0
 36 40  1  0
 37 36  2  0
 38 33  2  0
 38 37  1  0
 39 38  1  0
 41 42  1  0
 42 45  1  0
 42 44  1  0
 43 41  2  0
 46 47  1  0
 46 21  1  0
 48 46  1  0
 49  1  1  0
 49 50  1  0
 50 52  1  0
 50 51  1  0
 53 50  1  0
 53 54  2  0
 55 57  1  0
 55 54  1  0
 56 67  2  0
 57 62  1  0
 58 66  1  0
 58 68  1  0
 59 65  1  0
 59 61  1  0
 60 66  1  0
 61 60  1  0
 62 61  2  0
 63 57  2  0
 64 63  1  0
 64 59  2  0
 65 58  1  0
 66 56  1  0
 68 70  2  0
 69 68  1  0
 71 69  1  0
 72 81  2  0
 72 77  1  0
 73 69  1  0
 73 77  1  0
 74 73  1  0
 75 76  1  0
 75 74  1  0
 76 72  1  0
 77 78  2  0
 78 79  1  0
 80 79  2  0
 81 80  1  0
 82 56  1  0
 82 83  1  0
 82 92  1  0
 83 86  1  0
 84 88  1  0
 84 83  1  0
 85 84  2  0
 88 87  1  0
 90 88  1  0
 90 91  1  0
 90 89  1  0
 92 95  1  1
 92 93  1  0
 94 92  1  0
M  ISO  4  11 100  19 100  54 101  55 101
M  END
>  <TORSDO>  (25) 
F 23

>  <SCORE>  (25) 
-6.612

>  <name>  (25) 
24

>  <ligand_id>  (25) 
24

>  <original_smiles>  (25) 
[H]c1c([H])c([H])c2c(c1[H])C([H])([H])C([H])([H])C([H])([H])C2([H])N([H])C(=O)C1([H])N(C(=O)C([H])(N([H])C(=O)C([H])(N([H])C([H])([H])[H])C([H])([H])[H])C(C([H])([H])[H])(C([H])([H])[H])C([H])([H])[H])C([H])([H])c2c([H])c(OC([H])([H])C([H])([H])[N+]([H])([H])C([H])([H])C([H])([H])n3c([H])c(C([H])(C([H])([H])[H])C([H])([H])[H])c([H])c3C([H])([H])N([H])C(=O)N3C([H])([H])C([H])([H])C([H])([H])C([H])(n4nc(-c5c([H])c([H])c(Oc6c([H])c([H])c(F)c([H])c6F)c([H])c5[H])c(C(=O)N([H])[H])c4N([H])[H])C3([H])[H])c([H])c([H])c2C1([H])[H]

>  <smiles>  (25) 
[H]c1c([H])c([H])c2c(c1[H])C([H])([H])C([H])([H])C([H])([H])C2([H])N([H])C(=O)C1([H])N(C(=O)C([H])(N([H])C(=O)C([H])(N([H])C([H])([H])[H])C([H])([H])[H])C(C([H])([H])[H])(C([H])([H])[H])C([H])([H])[H])C([H])([H])c2c([H])c(OC([H])([H])C([H])([H])[N+]([H])([H])C([H])([H])C([H])([H])n3c([H])c(C([H])(C([H])([H])[H])C([H])([H])[H])c([H])c3C([H])([H])N([H])C(=O)N3C([H])([H])C([H])([H])C([H])([H])C([H])(n4nc(-c5c([H])c([H])c(Oc6c([H])c([H])c(F)c([H])c6F)c([H])c5[H])c(C(=O)N([H])[H])c4N([H])[H])C3([H])[H])c([H])c([H])c2C1([H])[H]

$$$$
25:0:0
     RDKit          3D

100104  0  0  1  0  0  0  0  0999 V2000
  -24.6620  -15.0130   22.9430 C   0  0  0  0  0  3  0  0  0  0  0  0
  -23.4300  -13.9590   22.9020 C   0  0  0  0  0  2  0  0  0  0  0  0
  -23.5340  -12.3590   23.2910 C   0  0  0  0  0  2  0  0  0  0  0  0
  -21.3210  -10.4740   21.7760 C   0  0  0  0  0  1  0  0  0  0  0  0
  -21.0780   -8.3180   19.7940 C   0  0  0  0  0 15  0  0  0  0  0  0
  -24.8470   -7.9620   20.7120 C   0  0  0  0  0  1  0  0  0  0  0  0
  -25.0680   -9.9040   22.3910 C   0  0  0  0  0  1  0  0  0  0  0  0
  -23.2280  -11.0110   22.6210 N   0  0  0  0  0  1  0  0  0  0  0  0
  -23.0330   -7.3780   19.7350 N   0  0  0  0  0  2  0  0  0  0  0  0
  -23.2860   -7.4350   18.7640 H   0  0  0  0  0  0  0  0  0  0  0  0
  -22.8990   -6.3840   19.8860 H   0  0  0  0  0  0  0  0  0  0  0  0
  -26.5410  -10.8060   22.7340 C   0  0  0  0  0  3  0  0  0  0  0  0
  -28.1920  -10.5130   22.4210 C   0  0  0  0  0  3  0  0  0  0  0  0
  -30.3310  -12.1670   21.5940 C   0  0  0  0  0  0  0  0  0  0  0  0
  -30.2990  -10.9490   19.5550 C   0  0  0  0  0  2  0  0  0  0  0  0
  -29.5650  -10.9600   18.2180 C   0  0  0  0  0  2  0  0  0  0  0  0
  -28.0850  -10.9540   18.5560 C   0  0  0  0  0  2  0  0  0  0  0  0
  -27.6990  -12.3010   19.2130 C   0  0  0  0  0  3  0  0  0  0  0  0
  -28.5670  -12.7540   20.3420 C   0  0  0  0  0  2  0  0  0  0  0  0
  -29.7900  -11.9800   20.4570 N   0  0  0  0  0  0  0  0  0  0  0  0
  -31.4260  -12.7980   21.5610 O   0  0  0  0  0  0  0  0  0  0  0  0
  -29.4720  -11.5070   22.5670 N   0  0  0  0  0  0  0  0  0  0  0  0
  -29.8180  -11.4590   23.5160 H   0  0  0  0  0  0  0  0  0  0  0  0
  -25.4090  -13.3750   19.6540 C   0  0  0  0  0  0  0  0  0  0  0  0
  -24.2220  -12.8250   20.0280 C   0  0  0  0  0  0  0  0  0  0  0  0
  -24.5000  -11.4580   20.3530 C   0  0  0  0  0  0  0  0  0  0  0  0
  -26.3250  -12.3470   19.6420 N   0  0  0  0  0  0  0  0  0  0  0  0
  -25.7580  -11.2040   20.0200 N   0  0  0  0  0  0  0  0  0  0  0  0
  -23.5870  -10.1420   20.6510 C   0  0  0  0  0  3  0  0  0  0  0  0
  -23.6150   -8.5640   21.8900 C   0  0  0  0  0  3  0  0  0  0  0  0
  -23.3990   -7.2790   21.8380 C   0  0  0  0  0  2  0  0  0  0  0  0
  -22.5600   -8.2930   21.7250 C   0  0  0  0  0  3  0  0  0  0  0  0
  -22.5790   -9.9820   20.5800 C   0  0  0  0  0  3  0  0  0  0  0  0
  -23.0110  -10.3510   19.4230 C   0  0  0  0  0  2  0  0  0  0  0  0
  -21.3440   -7.6910   22.3320 O   0  0  0  0  0  0  0  0  0  0  0  0
  -21.1170   -6.6470   23.1960 C   0  0  0  0  0  0  0  0  0  0  0  0
  -20.9530   -7.1310   24.4920 C   0  0  0  0  0  3  0  0  0  0  0  0
  -20.8190   -6.2550   25.5640 C   0  0  0  0  0  3  0  0  0  0  0  0
  -20.8100   -4.8780   25.3310 C   0  0  0  0  0  0  0  0  0  0  0  0
  -20.8490   -4.3660   24.0200 C   0  0  0  0  0  3  0  0  0  0  0  0
  -20.9860   -5.2460   22.9230 C   0  0  0  0  0  0  0  0  0  0  0  0
  -20.9700   -4.7190   21.6690 F   0  0  0  0  0  0  0  0  0  0  0  0
  -20.7680   -4.0620   26.4010 F   0  0  0  0  0  0  0  0  0  0  0  0
  -22.8730  -13.4330   19.8420 C   0  0  0  0  0  0  0  0  0  0  0  0
  -21.8780  -13.0060   20.5890 N   0  0  0  0  0  0  0  0  0  0  0  0
  -22.6840  -14.3020   18.9960 O   0  0  0  0  0  0  0  0  0  0  0  0
  -22.0590  -12.4300   21.4080 H   0  0  0  0  0  0  0  0  0  0  0  0
  -20.9240  -13.2060   20.3170 H   0  0  0  0  0  0  0  0  0  0  0  0
  -25.7780  -14.6390   19.2430 N   0  0  0  0  0  0  0  0  0  0  0  0
  -25.1090  -15.3930   19.3900 H   0  0  0  0  0  0  0  0  0  0  0  0
  -26.6650  -14.8690   18.8030 H   0  0  0  0  0  0  0  0  0  0  0  0
  -25.1520  -15.7680   21.5940 C   0  0  0  0  0  3  0  0  0  0  0  0
  -26.1370  -17.0600   21.6400 C   0  0  0  0  0  3  0  0  0  0  0  0
  -26.7340  -17.6820   20.2670 C   0  0  0  0  0  3  0  0  0  0  0  0
  -27.5850  -19.0580   20.1720 C   0  0  0  0  0  3  0  0  0  0  0  0
  -27.7690  -19.6840   18.6980 C   0  0  0  0  0  3  0  0  0  0  0  0
  -28.3740  -21.1540   18.4250 C   0  0  0  0  0  3  0  0  0  0  0  0
  -28.1540  -21.8510   16.9710 C   0  0  0  0  0  3  0  0  0  0  0  0
  -28.8550  -23.2840   16.6210 C   0  0  0  0  0  2  0  0  0  0  0  0
  -28.4070  -24.3670   15.6310 O   0  0  0  0  0  0  0  0  0  0  0  0
  -25.7940  -27.0770   21.6230 C   0  0  0  0  0  0  0  0  0  0  0  0
  -27.5970  -25.3690   16.1560 C   0  0  0  0  0  0  0  0  0  0  0  0
  -24.3360  -27.0590   19.6310 C   0  0  0  0  0  3  0  0  0  0  0  0
  -25.5080  -26.8300   17.3740 C   0  0  0  0  0  0  0  0  0  0  0  0
  -26.8630  -27.4170   19.3860 C   0  0  0  0  0  2  0  0  0  0  0  0
  -26.7600  -26.7760   18.0070 C   0  0  0  0  0  0  0  0  0  0  0  0
  -27.8260  -26.0580   17.3880 C   0  0  0  0  0  3  0  0  0  0  0  0
  -26.3770  -25.5620   15.4940 C   0  0  0  0  0  3  0  0  0  0  0  0
  -25.3290  -26.2710   16.0990 C   0  0  0  0  0  3  0  0  0  0  0  0
  -24.3630  -27.4630   18.1320 C   0  0  0  0  0  2  0  0  0  0  0  0
  -25.6880  -27.1690   20.2670 N   0  0  0  0  0  0  0  0  0  0  0  0
  -24.7910  -26.9340   22.3360 O   0  0  0  0  0  0  0  0  0  0  0  0
  -23.7070  -25.6510   19.7800 C   0  0  0  0  0  0  0  0  0  0  0  0
  -22.3710  -25.5660   19.6600 N   0  0  0  0  0  0  0  0  0  0  0  0
  -24.4190  -24.6620   19.9820 O   0  0  0  0  0  0  0  0  0  0  0  0
  -21.8560  -26.4230   19.5090 H   0  0  0  0  0  0  0  0  0  0  0  0
  -19.0180  -24.2360   19.3610 C   0  0  0  0  0  0  0  0  0  0  0  0
  -21.5750  -24.3370   19.7320 C   0  0  0  0  0  3  0  0  0  0  0  0
  -21.6920  -23.5190   18.4250 C   0  0  0  0  0  2  0  0  0  0  0  0
  -20.5840  -23.8340   17.4140 C   0  0  0  0  0  2  0  0  0  0  0  0
  -19.2080  -23.5480   18.0200 C   0  0  0  0  0  2  0  0  0  0  0  0
  -20.1290  -24.6210   20.1580 C   0  0  0  0  0  0  0  0  0  0  0  0
  -19.8960  -25.2880   21.3800 C   0  0  0  0  0  3  0  0  0  0  0  0
  -18.5840  -25.5690   21.8080 C   0  0  0  0  0  3  0  0  0  0  0  0
  -17.4880  -25.1750   21.0210 C   0  0  0  0  0  3  0  0  0  0  0  0
  -17.7070  -24.5050   19.8040 C   0  0  0  0  0  3  0  0  0  0  0  0
  -27.1740  -27.1760   22.3430 C   0  0  0  0  0  3  0  0  0  0  0  0
  -26.9290  -27.7010   23.6940 N   0  0  0  0  0  0  0  0  0  0  0  0
  -27.1730  -28.9610   24.0800 C   0  0  0  0  0  0  0  0  0  0  0  0
  -27.6950  -29.7970   23.3400 O   0  0  0  0  0  0  0  0  0  0  0  0
  -26.4510  -27.0860   24.3360 H   0  0  0  0  0  0  0  0  0  0  0  0
  -25.4390  -30.1220   25.4870 C   0  0  0  0  0  1  0  0  0  0  0  0
  -26.7710  -29.3550   25.5150 C   0  0  0  0  0  3  0  0  0  0  0  0
  -29.0050  -29.4100   26.5310 C   0  0  0  0  0  1  0  0  0  0  0  0
  -27.7950  -30.1630   26.2140 N   0  0  0  0  0  0  0  0  0  0  0  0
  -27.4220  -30.5430   27.0800 H   0  0  0  0  0  0  0  0  0  0  0  0
  -27.9390  -25.7980   22.4130 C   0  0  1  0  0  0  0  0  0  0  0  0
  -27.0860  -24.6410   22.9840 C   0  0  0  0  0  1  0  0  0  0  0  0
  -28.4290  -25.3690   21.0110 C   0  0  0  0  0  1  0  0  0  0  0  0
  -29.2000  -25.9490   23.2950 C   0  0  0  0  0  1  0  0  0  0  0  0
  2  1  1  0
  2  3  1  0
  7 12  1  0
  8  3  1  0
  9 11  1  0
 10  9  1  0
 13 22  1  0
 13 12  2  0
 14 22  1  0
 15 20  1  0
 16 17  1  0
 16 15  1  0
 18 17  1  0
 18 27  1  0
 18 19  1  0
 19 20  1  0
 20 14  1  0
 21 14  2  0
 22 23  1  0
 24 25  2  0
 25 26  1  0
 27 24  1  0
 27 28  1  0
 28 26  2  0
 29 26  1  0
 30  6  1  0
 31 30  1  0
 32 31  1  0
 32 30  1  0
 32 35  1  0
 33 29  1  0
 33  4  1  0
 34 33  1  0
 34 29  1  0
 35 36  1  0
 36 37  1  0
 37 38  2  0
 39 38  1  0
 39 43  1  0
 40 39  2  0
 41 36  2  0
 41 40  1  0
 42 41  1  0
 44 25  1  0
 44 45  1  0
 45 47  1  0
 46 44  2  0
 48 45  1  0
 49 50  1  0
 49 24  1  0
 51 49  1  0
 52 53  1  0
 52  1  2  0
 54 53  2  0
 55 54  1  0
 56 55  2  0
 57 56  1  0
 58 57  2  0
 59 58  1  0
 60 62  1  0
 60 59  1  0
 61 72  2  0
 62 67  1  0
 63 73  1  0
 63 71  1  0
 64 66  1  0
 64 70  1  0
 65 71  1  0
 66 65  1  0
 67 66  2  0
 68 69  1  0
 68 62  2  0
 69 64  2  0
 70 63  1  0
 71 61  1  0
 73 75  2  0
 74 73  1  0
 76 74  1  0
 77 86  2  0
 77 82  1  0
 78 74  1  0
 78 82  1  0
 79 78  1  0
 80 81  1  0
 80 79  1  0
 81 77  1  0
 82 83  2  0
 83 84  1  0
 85 84  2  0
 86 85  1  0
 87 61  1  0
 87 97  1  0
 87 88  1  0
 88 89  1  0
 88 91  1  0
 89 93  1  0
 90 89  2  0
 93 92  1  0
 93 95  1  0
 95 94  1  0
 95 96  1  0
 97 98  1  1
 97100  1  0
 99 97  1  0
M  ISO  4  14 100  22 100  59 101  60 101
M  END
>  <TORSDO>  (26) 
F 29

>  <SCORE>  (26) 
8.004

>  <name>  (26) 
25

>  <ligand_id>  (26) 
25

>  <original_smiles>  (26) 
[H]c1c([H])c([H])c2c(c1[H])C([H])([H])C([H])([H])C([H])([H])C2([H])N([H])C(=O)C1([H])N(C(=O)C([H])(N([H])C(=O)C([H])(N([H])C([H])([H])[H])C([H])([H])[H])C(C([H])([H])[H])(C([H])([H])[H])C([H])([H])[H])C([H])([H])c2c([H])c(OC([H])([H])C([H])([H])C([H])([H])C([H])([H])C([H])([H])C([H])([H])C([H])([H])C([H])([H])C([H])([H])C([H])([H])C([H])([H])N3C([H])([H])C([H])([H])[N+]([H])([H])C([H])([H])C3([H])C([H])([H])C([H])([H])N([H])C(=O)N3C([H])([H])C([H])([H])C([H])([H])C([H])(n4nc(-c5c([H])c([H])c(Oc6c([H])c([H])c(F)c([H])c6F)c([H])c5[H])c(C(=O)N([H])[H])c4N([H])[H])C3([H])[H])c([H])c([H])c2C1([H])[H]

>  <smiles>  (26) 
[H]c1c([H])c([H])c2c(c1[H])C([H])([H])C([H])([H])C([H])([H])C2([H])N([H])C(=O)C1([H])N(C(=O)C([H])(N([H])C(=O)C([H])(N([H])C([H])([H])[H])C([H])([H])[H])C(C([H])([H])[H])(C([H])([H])[H])C([H])([H])[H])C([H])([H])c2c([H])c(OC([H])([H])C([H])([H])C([H])([H])C([H])([H])C([H])([H])C([H])([H])C([H])([H])C([H])([H])C([H])([H])C([H])([H])C([H])([H])N3C([H])([H])C([H])([H])[N+]([H])([H])C([H])([H])C3([H])C([H])([H])C([H])([H])N([H])C(=O)N3C([H])([H])C([H])([H])C([H])([H])C([H])(n4nc(-c5c([H])c([H])c(Oc6c([H])c([H])c(F)c([H])c6F)c([H])c5[H])c(C(=O)N([H])[H])c4N([H])[H])C3([H])[H])c([H])c([H])c2C1([H])[H]

$$$$
26:0:0
     RDKit          3D

 93101  0  0  1  0  0  0  0  0999 V2000
  -29.3490  -22.5280   20.3150 C   0  0  0  0  0  3  0  0  0  0  0  0
  -27.6030  -23.4970   18.9890 C   0  0  0  0  0  3  0  0  0  0  0  0
  -28.5290  -23.6950   20.0200 C   0  0  0  0  0  0  0  0  0  0  0  0
  -29.1880  -21.2210   19.6710 C   0  0  0  0  0  0  0  0  0  0  0  0
  -28.0720  -21.1950   18.7720 C   0  0  0  0  0  0  0  0  0  0  0  0
  -27.3910  -22.3060   18.3930 N   0  0  0  0  0  0  0  0  0  0  0  0
  -27.7470  -19.5790   16.8130 C   0  0  0  0  0  1  0  0  0  0  0  0
  -25.8510  -19.9640   18.4650 C   0  0  0  0  0  1  0  0  0  0  0  0
  -27.3850  -19.9150   18.2700 C   0  0  0  0  0  3  0  0  0  0  0  0
  -30.0150  -20.0580   20.0180 N   0  0  0  0  0  0  0  0  0  0  0  0
  -30.8260  -20.2790   20.5940 H   0  0  0  0  0  0  0  0  0  0  0  0
  -30.1390  -18.6850   19.3480 C   0  0  0  0  0  2  0  0  0  0  0  0
  -31.0570  -17.5340   20.0490 C   0  0  0  0  0  2  0  0  0  0  0  0
  -31.3780  -14.8910   19.8350 C   0  0  0  0  0  0  0  0  0  0  0  0
  -31.0910  -12.5480   18.9840 C   0  0  0  0  0  2  0  0  0  0  0  0
  -30.1170  -12.5370   17.7840 C   0  0  0  0  0  2  0  0  0  0  0  0
  -28.6520  -12.4700   18.2570 C   0  0  0  0  0  2  0  0  0  0  0  0
  -28.3510  -13.4690   19.4060 C   0  0  0  0  0  3  0  0  0  0  0  0
  -29.4280  -13.4120   20.5070 C   0  0  0  0  0  2  0  0  0  0  0  0
  -30.7160  -13.6820   19.8620 N   0  0  0  0  0  0  0  0  0  0  0  0
  -32.5610  -14.9310   19.4810 O   0  0  0  0  0  0  0  0  0  0  0  0
  -30.6360  -16.0560   20.0280 N   0  0  0  0  0  0  0  0  0  0  0  0
  -29.6640  -15.8930   20.2450 H   0  0  0  0  0  0  0  0  0  0  0  0
  -26.0680  -14.2640   20.2570 C   0  0  0  0  0  0  0  0  0  0  0  0
  -24.9490  -13.5810   20.6530 C   0  0  0  0  0  0  0  0  0  0  0  0
  -25.2780  -12.1930   20.5600 C   0  0  0  0  0  0  0  0  0  0  0  0
  -27.0090  -13.2950   19.9460 N   0  0  0  0  0  0  0  0  0  0  0  0
  -26.5450  -12.0430   20.1910 N   0  0  0  0  0  0  0  0  0  0  0  0
  -24.4440  -10.9980   20.7430 C   0  0  0  0  0  0  0  0  0  0  0  0
  -24.8240   -9.9600   21.6210 C   0  0  0  0  0  3  0  0  0  0  0  0
  -23.9930   -8.8320   21.7950 C   0  0  0  0  0  3  0  0  0  0  0  0
  -22.7720   -8.7340   21.0870 C   0  0  0  0  0  0  0  0  0  0  0  0
  -22.4110   -9.7600   20.1970 C   0  0  0  0  0  3  0  0  0  0  0  0
  -23.2400  -10.8800   20.0210 C   0  0  0  0  0  3  0  0  0  0  0  0
  -21.9140   -7.6640   21.1730 O   0  0  0  0  0  0  0  0  0  0  0  0
  -21.8330   -6.8960   22.3060 C   0  0  0  0  0  0  0  0  0  0  0  0
  -21.5060   -7.4540   23.5610 C   0  0  0  0  0  3  0  0  0  0  0  0
  -21.3630   -6.6190   24.6870 C   0  0  0  0  0  3  0  0  0  0  0  0
  -21.5390   -5.2270   24.5600 C   0  0  0  0  0  0  0  0  0  0  0  0
  -21.8600   -4.6700   23.3100 C   0  0  0  0  0  3  0  0  0  0  0  0
  -22.0020   -5.5020   22.1850 C   0  0  0  0  0  0  0  0  0  0  0  0
  -22.2910   -4.9560   20.9780 F   0  0  0  0  0  0  0  0  0  0  0  0
  -21.3960   -4.4230   25.6400 F   0  0  0  0  0  0  0  0  0  0  0  0
  -23.6160  -14.1770   21.0040 C   0  0  0  0  0  0  0  0  0  0  0  0
  -22.8720  -13.5270   21.8910 N   0  0  0  0  0  0  0  0  0  0  0  0
  -23.2490  -15.2490   20.5260 O   0  0  0  0  0  0  0  0  0  0  0  0
  -23.1870  -12.6580   22.2990 H   0  0  0  0  0  0  0  0  0  0  0  0
  -21.9760  -13.9000   22.1690 H   0  0  0  0  0  0  0  0  0  0  0  0
  -26.3560  -15.6190   20.1130 N   0  0  0  0  0  0  0  0  0  0  0  0
  -25.6590  -16.3380   20.2730 H   0  0  0  0  0  0  0  0  0  0  0  0
  -27.2110  -15.9800   19.7110 H   0  0  0  0  0  0  0  0  0  0  0  0
  -28.4070  -25.0150   20.9190 C   0  0  0  0  0  2  0  0  0  0  0  0
  -28.4180  -26.4330   20.4200 O   0  0  0  0  0  0  0  0  0  0  0  0
  -24.5880  -31.8800   23.4210 C   0  0  0  0  0  0  0  0  0  0  0  0
  -27.3060  -27.2990   20.4710 C   0  0  0  0  0  0  0  0  0  0  0  0
  -23.4680  -30.5230   21.6910 C   0  0  0  0  0  3  0  0  0  0  0  0
  -24.9810  -28.9710   20.3330 C   0  0  0  0  0  0  0  0  0  0  0  0
  -26.0190  -30.8070   21.6590 C   0  0  0  0  0  2  0  0  0  0  0  0
  -26.1170  -29.4270   21.0110 C   0  0  0  0  0  0  0  0  0  0  0  0
  -27.2870  -28.6010   21.0720 C   0  0  0  0  0  3  0  0  0  0  0  0
  -26.1570  -26.9070   19.7620 C   0  0  0  0  0  3  0  0  0  0  0  0
  -25.0020  -27.7160   19.7000 C   0  0  0  0  0  3  0  0  0  0  0  0
  -23.7610  -29.8710   20.3150 C   0  0  0  0  0  2  0  0  0  0  0  0
  -24.7080  -31.0910   22.3120 N   0  0  0  0  0  0  0  0  0  0  0  0
  -23.4780  -32.1560   23.9020 O   0  0  0  0  0  0  0  0  0  0  0  0
  -22.7410  -29.4980   22.5970 C   0  0  0  0  0  0  0  0  0  0  0  0
  -21.4160  -29.3610   22.4270 N   0  0  0  0  0  0  0  0  0  0  0  0
  -23.3750  -28.8290   23.4170 O   0  0  0  0  0  0  0  0  0  0  0  0
  -20.9610  -29.9530   21.7450 H   0  0  0  0  0  0  0  0  0  0  0  0
  -17.9810  -28.3030   22.8380 C   0  0  0  0  0  0  0  0  0  0  0  0
  -20.5450  -28.4250   23.1410 C   0  0  0  0  0  3  0  0  0  0  0  0
  -20.5870  -27.0220   22.4890 C   0  0  0  0  0  2  0  0  0  0  0  0
  -19.4810  -26.8070   21.4530 C   0  0  0  0  0  2  0  0  0  0  0  0
  -18.1020  -26.9860   22.0900 C   0  0  0  0  0  2  0  0  0  0  0  0
  -19.1300  -28.9860   23.3170 C   0  0  0  0  0  0  0  0  0  0  0  0
  -18.9610  -30.2250   23.9710 C   0  0  0  0  0  3  0  0  0  0  0  0
  -17.6800  -30.7740   24.1610 C   0  0  0  0  0  3  0  0  0  0  0  0
  -16.5460  -30.0860   23.6970 C   0  0  0  0  0  3  0  0  0  0  0  0
  -16.6960  -28.8530   23.0390 C   0  0  0  0  0  3  0  0  0  0  0  0
  -25.8400  -32.4940   24.1240 C   0  0  0  0  0  3  0  0  0  0  0  0
  -25.5690  -33.9230   24.3520 N   0  0  0  0  0  0  0  0  0  0  0  0
  -26.0050  -34.9150   23.5650 C   0  0  0  0  0  0  0  0  0  0  0  0
  -26.7450  -34.7230   22.5960 O   0  0  0  0  0  0  0  0  0  0  0  0
  -24.9310  -34.1500   25.1010 H   0  0  0  0  0  0  0  0  0  0  0  0
  -24.3760  -36.7440   23.0040 C   0  0  0  0  0  1  0  0  0  0  0  0
  -25.5530  -36.3460   23.9100 C   0  0  0  0  0  3  0  0  0  0  0  0
  -27.6770  -37.1940   24.8020 C   0  0  0  0  0  1  0  0  0  0  0  0
  -26.6330  -37.3510   23.7940 N   0  0  0  0  0  0  0  0  0  0  0  0
  -26.2560  -38.2920   23.8720 H   0  0  0  0  0  0  0  0  0  0  0  0
  -26.2010  -31.7800   25.4840 C   0  0  1  0  0  0  0  0  0  0  0  0
  -25.0030  -31.6430   26.4510 C   0  0  0  0  0  1  0  0  0  0  0  0
  -26.7630  -30.3650   25.2230 C   0  0  0  0  0  1  0  0  0  0  0  0
  -27.3160  -32.5670   26.2090 C   0  0  0  0  0  1  0  0  0  0  0  0
  2  3  2  0
  3  1  1  0
  3 52  1  0
  4 10  1  0
  4  1  2  0
  5  4  1  0
  6  5  2  0
  6  2  1  0
  7  9  1  0
  9  8  1  0
  9  5  1  0
 10 11  1  0
 12 10  1  0
 12 13  1  0
 14 20  1  0
 14 22  1  0
 15 20  1  0
 16 17  1  0
 16 15  1  0
 18 17  1  0
 18 27  1  0
 18 19  1  0
 20 19  1  0
 21 14  2  0
 22 13  1  0
 22 23  1  0
 24 25  2  0
 25 44  1  0
 26 25  1  0
 26 29  1  0
 27 28  1  0
 27 24  1  0
 28 26  2  0
 29 30  1  0
 30 31  2  0
 32 35  1  0
 32 31  1  0
 33 32  2  0
 34 33  1  0
 34 29  2  0
 35 36  1  0
 36 37  1  0
 37 38  2  0
 39 38  1  0
 39 43  1  0
 40 39  2  0
 41 36  2  0
 41 40  1  0
 42 41  1  0
 44 45  1  0
 45 48  1  0
 45 47  1  0
 46 44  2  0
 49 24  1  0
 49 50  1  0
 51 49  1  0
 53 55  1  0
 53 52  1  0
 54 65  2  0
 55 60  1  0
 56 64  1  0
 56 66  1  0
 57 59  1  0
 58 64  1  0
 59 60  2  0
 59 58  1  0
 61 55  2  0
 62 61  1  0
 62 57  2  0
 63 57  1  0
 63 56  1  0
 64 54  1  0
 66 68  2  0
 67 66  1  0
 69 67  1  0
 70 79  2  0
 70 75  1  0
 71 67  1  0
 71 75  1  0
 72 71  1  0
 73 74  1  0
 73 72  1  0
 74 70  1  0
 75 76  2  0
 76 77  1  0
 78 77  2  0
 79 78  1  0
 80 54  1  0
 80 81  1  0
 80 90  1  0
 81 84  1  0
 82 86  1  0
 82 81  1  0
 83 82  2  0
 86 85  1  0
 88 89  1  0
 88 86  1  0
 88 87  1  0
 90 93  1  1
 90 91  1  0
 92 90  1  0
M  ISO  4  14 100  22 100  52 101  53 101
M  END
>  <TORSDO>  (27) 
F 21

>  <SCORE>  (27) 
-12.493

>  <name>  (27) 
26

>  <ligand_id>  (27) 
26

>  <original_smiles>  (27) 
[H]c1nc(C([H])(C([H])([H])[H])C([H])([H])[H])c(N([H])C([H])([H])C([H])([H])N([H])C(=O)N2C([H])([H])C([H])([H])C([H])([H])C([H])(n3nc(-c4c([H])c([H])c(Oc5c([H])c([H])c(F)c([H])c5F)c([H])c4[H])c(C(=O)N([H])[H])c3N([H])[H])C2([H])[H])c([H])c1C([H])([H])Oc1c([H])c([H])c2c(c1[H])C([H])([H])N(C(=O)C([H])(N([H])C(=O)C([H])(N([H])C([H])([H])[H])C([H])([H])[H])C(C([H])([H])[H])(C([H])([H])[H])C([H])([H])[H])C([H])(C(=O)N([H])C1([H])c3c([H])c([H])c([H])c([H])c3C([H])([H])C([H])([H])C1([H])[H])C2([H])[H]

>  <smiles>  (27) 
[H]c1nc(C([H])(C([H])([H])[H])C([H])([H])[H])c(N([H])C([H])([H])C([H])([H])N([H])C(=O)N2C([H])([H])C([H])([H])C([H])([H])C([H])(n3nc(-c4c([H])c([H])c(Oc5c([H])c([H])c(F)c([H])c5F)c([H])c4[H])c(C(=O)N([H])[H])c3N([H])[H])C2([H])[H])c([H])c1C([H])([H])Oc1c([H])c([H])c2c(c1[H])C([H])([H])N(C(=O)C([H])(N([H])C(=O)C([H])(N([H])C([H])([H])[H])C([H])([H])[H])C(C([H])([H])[H])(C([H])([H])[H])C([H])([H])[H])C([H])(C(=O)N([H])C1([H])c3c([H])c([H])c([H])c([H])c3C([H])([H])C([H])([H])C1([H])[H])C2([H])[H]

$$$$
27:0:0
     RDKit          3D

 98107  0  0  1  0  0  0  0  0999 V2000
  -30.0290  -22.5900   20.5350 C   0  0  0  0  0  3  0  0  0  0  0  0
  -30.3730  -21.2780   20.9220 C   0  0  0  0  0  3  0  0  0  0  0  0
  -28.7440  -22.8420   20.0090 C   0  0  0  0  0  0  0  0  0  0  0  0
  -27.8310  -21.7550   19.9790 C   0  0  0  0  0  0  0  0  0  0  0  0
  -29.4350  -20.2430   20.7610 C   0  0  0  0  0  0  0  0  0  0  0  0
  -26.4020  -21.9080   19.4910 C   0  0  0  0  0  1  0  0  0  0  0  0
  -28.1770  -20.4930   20.3370 N   0  0  0  0  0  0  0  0  0  0  0  0
  -29.8370  -18.8950   20.8520 N   0  0  0  0  0  0  0  0  0  0  0  0
  -30.6500  -18.7570   21.4390 H   0  0  0  0  0  0  0  0  0  0  0  0
  -30.3870  -19.0530   18.4050 C   0  0  0  0  0  2  0  0  0  0  0  0
  -30.5480  -18.3220   17.0730 C   0  0  0  0  0  2  0  0  0  0  0  0
  -31.0950  -16.2610   18.2510 C   0  0  0  0  0  2  0  0  0  0  0  0
  -29.9160  -18.1380   19.5820 C   0  0  0  0  0  3  0  0  0  0  0  0
  -30.8740  -16.8850   19.6690 C   0  0  0  0  0  3  0  0  0  0  0  0
  -31.5200  -17.2320   17.2290 N   0  0  0  0  0  4  0  0  0  0  0  0
  -32.4230  -17.6100   17.4680 H   0  0  0  0  0  0  0  0  0  0  0  0
  -31.6240  -16.7580   16.3440 H   0  0  0  0  0  0  0  0  0  0  0  0
  -31.1390  -14.6530   20.7310 C   0  0  0  0  0  0  0  0  0  0  0  0
  -30.8570  -12.4440   19.7070 C   0  0  0  0  0  2  0  0  0  0  0  0
  -30.0080  -12.6150   18.4300 C   0  0  0  0  0  2  0  0  0  0  0  0
  -28.5020  -12.5500   18.7550 C   0  0  0  0  0  2  0  0  0  0  0  0
  -28.0990  -13.4290   19.9720 C   0  0  0  0  0  3  0  0  0  0  0  0
  -29.0810  -13.2610   21.1550 C   0  0  0  0  0  2  0  0  0  0  0  0
  -30.4400  -13.4900   20.6550 N   0  0  0  0  0  0  0  0  0  0  0  0
  -32.3570  -14.7000   20.5480 O   0  0  0  0  0  0  0  0  0  0  0  0
  -30.4090  -15.7810   20.5520 N   0  0  0  0  0  0  0  0  0  0  0  0
  -29.4150  -15.7170   20.7080 H   0  0  0  0  0  0  0  0  0  0  0  0
  -25.6810  -14.0990   20.5250 C   0  0  0  0  0  0  0  0  0  0  0  0
  -24.5750  -13.3590   20.8400 C   0  0  0  0  0  0  0  0  0  0  0  0
  -25.0080  -11.9980   20.8730 C   0  0  0  0  0  0  0  0  0  0  0  0
  -26.7170  -13.1920   20.3790 N   0  0  0  0  0  0  0  0  0  0  0  0
  -26.3130  -11.9240   20.6540 N   0  0  0  0  0  0  0  0  0  0  0  0
  -24.2420  -10.7560   21.0410 C   0  0  0  0  0  0  0  0  0  0  0  0
  -24.5950   -9.8000   22.0200 C   0  0  0  0  0  3  0  0  0  0  0  0
  -23.8310   -8.6210   22.1760 C   0  0  0  0  0  3  0  0  0  0  0  0
  -22.7020   -8.3920   21.3550 C   0  0  0  0  0  0  0  0  0  0  0  0
  -22.3700   -9.3380   20.3680 C   0  0  0  0  0  3  0  0  0  0  0  0
  -23.1330  -10.5070   20.2100 C   0  0  0  0  0  3  0  0  0  0  0  0
  -21.9160   -7.2680   21.4180 O   0  0  0  0  0  0  0  0  0  0  0  0
  -21.7780   -6.5520   22.5800 C   0  0  0  0  0  0  0  0  0  0  0  0
  -21.2990   -7.1470   23.7680 C   0  0  0  0  0  3  0  0  0  0  0  0
  -21.1060   -6.3570   24.9200 C   0  0  0  0  0  3  0  0  0  0  0  0
  -21.3810   -4.9770   24.8830 C   0  0  0  0  0  0  0  0  0  0  0  0
  -21.8530   -4.3840   23.6980 C   0  0  0  0  0  3  0  0  0  0  0  0
  -22.0470   -5.1690   22.5500 C   0  0  0  0  0  0  0  0  0  0  0  0
  -22.4820   -4.5900   21.4040 F   0  0  0  0  0  0  0  0  0  0  0  0
  -21.1870   -4.2160   25.9860 F   0  0  0  0  0  0  0  0  0  0  0  0
  -23.1750  -13.8720   21.0000 C   0  0  0  0  0  0  0  0  0  0  0  0
  -22.3760  -13.2220   21.8380 N   0  0  0  0  0  0  0  0  0  0  0  0
  -22.7970  -14.8860   20.4140 O   0  0  0  0  0  0  0  0  0  0  0  0
  -22.6910  -12.4020   22.3350 H   0  0  0  0  0  0  0  0  0  0  0  0
  -21.4310  -13.5490   21.9810 H   0  0  0  0  0  0  0  0  0  0  0  0
  -25.8830  -15.4620   20.3260 N   0  0  0  0  0  0  0  0  0  0  0  0
  -25.1140  -16.1210   20.3610 H   0  0  0  0  0  0  0  0  0  0  0  0
  -26.7510  -15.8910   20.0390 H   0  0  0  0  0  0  0  0  0  0  0  0
  -28.4420  -24.2300   19.4130 C   0  0  0  0  0  2  0  0  0  0  0  0
  -28.2680  -25.3730   20.4430 C   0  0  0  0  0  2  0  0  0  0  0  0
  -28.3390  -26.6880   19.8560 O   0  0  0  0  0  0  0  0  0  0  0  0
  -24.5840  -31.8030   23.0780 C   0  0  0  0  0  0  0  0  0  0  0  0
  -27.1760  -27.4270   19.8760 C   0  0  0  0  0  0  0  0  0  0  0  0
  -23.3560  -30.4400   21.4190 C   0  0  0  0  0  3  0  0  0  0  0  0
  -24.7850  -28.9360   19.9400 C   0  0  0  0  0  0  0  0  0  0  0  0
  -25.8770  -30.8060   21.1940 C   0  0  0  0  0  2  0  0  0  0  0  0
  -25.9500  -29.4470   20.5270 C   0  0  0  0  0  0  0  0  0  0  0  0
  -27.1530  -28.7040   20.4810 C   0  0  0  0  0  3  0  0  0  0  0  0
  -25.9940  -26.9290   19.2850 C   0  0  0  0  0  3  0  0  0  0  0  0
  -24.8020  -27.6800   19.3110 C   0  0  0  0  0  3  0  0  0  0  0  0
  -23.5390  -29.7870   20.0240 C   0  0  0  0  0  2  0  0  0  0  0  0
  -24.6250  -31.0300   21.9550 N   0  0  0  0  0  0  0  0  0  0  0  0
  -23.5110  -32.0600   23.6410 O   0  0  0  0  0  0  0  0  0  0  0  0
  -22.7180  -29.4020   22.3700 C   0  0  0  0  0  0  0  0  0  0  0  0
  -21.3870  -29.2360   22.2710 N   0  0  0  0  0  0  0  0  0  0  0  0
  -23.4130  -28.7480   23.1520 O   0  0  0  0  0  0  0  0  0  0  0  0
  -20.8860  -29.8010   21.5990 H   0  0  0  0  0  0  0  0  0  0  0  0
  -18.0150  -28.0790   22.8490 C   0  0  0  0  0  0  0  0  0  0  0  0
  -20.5850  -28.2860   23.0410 C   0  0  0  0  0  3  0  0  0  0  0  0
  -20.6470  -26.8770   22.4090 C   0  0  0  0  0  2  0  0  0  0  0  0
  -19.5030  -26.6080   21.4250 C   0  0  0  0  0  2  0  0  0  0  0  0
  -18.1470  -26.7530   22.1190 C   0  0  0  0  0  2  0  0  0  0  0  0
  -19.1610  -28.8050   23.2700 C   0  0  0  0  0  0  0  0  0  0  0  0
  -18.9860  -30.0480   23.9170 C   0  0  0  0  0  3  0  0  0  0  0  0
  -17.6970  -30.5620   24.1510 C   0  0  0  0  0  3  0  0  0  0  0  0
  -16.5660  -29.8340   23.7460 C   0  0  0  0  0  3  0  0  0  0  0  0
  -16.7250  -28.5960   23.0980 C   0  0  0  0  0  3  0  0  0  0  0  0
  -25.8790  -32.4190   23.6970 C   0  0  0  0  0  3  0  0  0  0  0  0
  -26.4280  -31.6070   24.9350 C   0  0  1  0  0  0  0  0  0  0  0  0
  -25.3570  -31.3290   26.0140 C   0  0  0  0  0  1  0  0  0  0  0  0
  -27.0120  -30.2460   24.4880 C   0  0  0  0  0  1  0  0  0  0  0  0
  -27.5920  -32.3850   25.5930 C   0  0  0  0  0  1  0  0  0  0  0  0
  -25.5660  -33.8030   24.0780 N   0  0  0  0  0  0  0  0  0  0  0  0
  -25.8940  -34.8860   23.3600 C   0  0  0  0  0  0  0  0  0  0  0  0
  -26.5690  -34.8260   22.3290 O   0  0  0  0  0  0  0  0  0  0  0  0
  -24.9660  -33.9240   24.8830 H   0  0  0  0  0  0  0  0  0  0  0  0
  -24.1680  -36.6910   23.0630 C   0  0  0  0  0  1  0  0  0  0  0  0
  -25.4020  -36.2550   23.8670 C   0  0  0  0  0  3  0  0  0  0  0  0
  -27.5300  -37.1060   24.7490 C   0  0  0  0  0  1  0  0  0  0  0  0
  -26.4350  -37.3110   23.8040 N   0  0  0  0  0  0  0  0  0  0  0  0
  -26.0280  -38.2240   23.9830 H   0  0  0  0  0  0  0  0  0  0  0  0
  1  2  1  0
  3  1  2  0
  4  3  1  0
  4  7  2  0
  5  8  1  0
  5  2  2  0
  6  4  1  0
  7  5  1  0
  8  9  1  0
 10 13  1  0
 11 15  1  0
 11 10  1  0
 12 14  1  0
 13 14  1  0
 13  8  1  0
 14 26  1  0
 15 16  1  0
 15 12  1  0
 17 15  1  0
 19 24  1  0
 20 21  1  0
 20 19  1  0
 22 21  1  0
 22 31  1  0
 22 23  1  0
 24 18  1  0
 24 23  1  0
 25 18  2  0
 26 27  1  0
 26 18  1  0
 28 29  2  0
 29 30  1  0
 29 48  1  0
 30 33  1  0
 31 28  1  0
 31 32  1  0
 32 30  2  0
 33 34  1  0
 34 35  2  0
 36 39  1  0
 36 35  1  0
 37 36  2  0
 38 37  1  0
 38 33  2  0
 39 40  1  0
 40 41  1  0
 41 42  2  0
 43 42  1  0
 43 47  1  0
 44 43  2  0
 45 40  2  0
 45 44  1  0
 46 45  1  0
 48 49  1  0
 49 52  1  0
 49 51  1  0
 50 48  2  0
 53 54  1  0
 53 28  1  0
 55 53  1  0
 56  3  1  0
 56 57  1  0
 58 60  1  0
 58 57  1  0
 59 70  2  0
 60 65  1  0
 61 69  1  0
 61 71  1  0
 62 68  1  0
 62 64  1  0
 63 69  1  0
 64 63  1  0
 65 64  2  0
 66 67  1  0
 66 60  2  0
 67 62  2  0
 68 61  1  0
 69 59  1  0
 71 73  2  0
 72 71  1  0
 74 72  1  0
 75 84  2  0
 75 80  1  0
 76 72  1  0
 76 80  1  0
 77 76  1  0
 78 79  1  0
 78 77  1  0
 79 75  1  0
 80 81  2  0
 81 82  1  0
 83 82  2  0
 84 83  1  0
 85 59  1  0
 85 90  1  0
 85 86  1  0
 86 89  1  1
 86 87  1  0
 88 86  1  0
 90 93  1  0
 91 95  1  0
 91 90  1  0
 92 91  2  0
 95 94  1  0
 97 95  1  0
 97 98  1  0
 97 96  1  0
M  ISO  4  18 100  26 100  57 101  58 101
M  END
>  <TORSDO>  (28) 
F 19

>  <SCORE>  (28) 
-13.922

>  <name>  (28) 
27

>  <ligand_id>  (28) 
27

>  <original_smiles>  (28) 
[H]c1c(N([H])C2([H])C([H])([H])C([H])([H])[N+]([H])([H])C([H])([H])C2([H])N([H])C(=O)N2C([H])([H])C([H])([H])C([H])([H])C([H])(n3nc(-c4c([H])c([H])c(Oc5c([H])c([H])c(F)c([H])c5F)c([H])c4[H])c(C(=O)N([H])[H])c3N([H])[H])C2([H])[H])nc(C([H])([H])[H])c(C([H])([H])C([H])([H])Oc2c([H])c([H])c3c(c2[H])C([H])([H])N(C(=O)C([H])(N([H])C(=O)C([H])(N([H])C([H])([H])[H])C([H])([H])[H])C(C([H])([H])[H])(C([H])([H])[H])C([H])([H])[H])C([H])(C(=O)N([H])C2([H])c4c([H])c([H])c([H])c([H])c4C([H])([H])C([H])([H])C2([H])[H])C3([H])[H])c1[H]

>  <smiles>  (28) 
[H]c1c(N([H])C2([H])C([H])([H])C([H])([H])[N+]([H])([H])C([H])([H])C2([H])N([H])C(=O)N2C([H])([H])C([H])([H])C([H])([H])C([H])(n3nc(-c4c([H])c([H])c(Oc5c([H])c([H])c(F)c([H])c5F)c([H])c4[H])c(C(=O)N([H])[H])c3N([H])[H])C2([H])[H])nc(C([H])([H])[H])c(C([H])([H])C([H])([H])Oc2c([H])c([H])c3c(c2[H])C([H])([H])N(C(=O)C([H])(N([H])C(=O)C([H])(N([H])C([H])([H])[H])C([H])([H])[H])C(C([H])([H])[H])(C([H])([H])[H])C([H])([H])[H])C([H])(C(=O)N([H])C2([H])c4c([H])c([H])c([H])c([H])c4C([H])([H])C([H])([H])C2([H])[H])C3([H])[H])c1[H]

$$$$
28:0:0
     RDKit          3D

 98106  0  0  1  0  0  0  0  0999 V2000
  -27.7850  -22.7620   21.4230 C   0  0  0  0  0  2  0  0  0  0  0  0
  -27.6070  -24.3030   21.5620 C   0  0  0  0  0  2  0  0  0  0  0  0
  -29.1560  -22.5520   20.7460 C   0  0  0  0  0  3  0  0  0  0  0  0
  -29.1880  -23.8590   19.7990 C   0  0  0  0  0  3  0  0  0  0  0  0
  -28.0610  -24.9050   20.2230 C   0  0  0  0  0  3  0  0  0  0  0  0
  -30.5040  -24.5420   19.7440 N   0  0  0  0  0  4  0  0  0  0  0  0
  -31.0120  -24.3950   20.6020 H   0  0  0  0  0  0  0  0  0  0  0  0
  -30.3410  -25.5390   19.6940 H   0  0  0  0  0  0  0  0  0  0  0  0
  -30.7860  -24.6350   17.2430 C   0  0  0  0  0  1  0  0  0  0  0  0
  -31.3850  -24.2030   18.6010 C   0  0  0  0  0  3  0  0  0  0  0  0
  -32.7650  -24.8430   18.8340 C   0  0  0  0  0  2  0  0  0  0  0  0
  -32.6400  -26.2510   18.9680 O   0  0  0  0  0  0  0  0  0  0  0  0
  -32.4860  -26.6140   18.1010 H   0  0  0  0  0  0  0  0  0  0  0  0
  -28.2840  -26.4010   20.2180 O   0  0  0  0  0  0  0  0  0  0  0  0
  -24.6040  -31.9000   23.2430 C   0  0  0  0  0  0  0  0  0  0  0  0
  -27.1780  -27.2900   20.1750 C   0  0  0  0  0  0  0  0  0  0  0  0
  -23.3870  -30.5060   21.6120 C   0  0  0  0  0  3  0  0  0  0  0  0
  -24.8260  -28.9550   20.1720 C   0  0  0  0  0  0  0  0  0  0  0  0
  -25.9320  -30.8070   21.4150 C   0  0  0  0  0  2  0  0  0  0  0  0
  -26.0040  -29.4240   20.7670 C   0  0  0  0  0  0  0  0  0  0  0  0
  -27.1820  -28.6060   20.7580 C   0  0  0  0  0  3  0  0  0  0  0  0
  -25.9750  -26.9020   19.5360 C   0  0  0  0  0  3  0  0  0  0  0  0
  -24.8180  -27.7040   19.5450 C   0  0  0  0  0  3  0  0  0  0  0  0
  -23.5930  -29.8360   20.2290 C   0  0  0  0  0  2  0  0  0  0  0  0
  -24.6620  -31.0870   22.1470 N   0  0  0  0  0  0  0  0  0  0  0  0
  -23.5230  -32.1800   23.7830 O   0  0  0  0  0  0  0  0  0  0  0  0
  -22.7270  -29.4880   22.5740 C   0  0  0  0  0  0  0  0  0  0  0  0
  -21.4000  -29.3070   22.4540 N   0  0  0  0  0  0  0  0  0  0  0  0
  -23.4080  -28.8650   23.3920 O   0  0  0  0  0  0  0  0  0  0  0  0
  -20.9080  -29.8650   21.7700 H   0  0  0  0  0  0  0  0  0  0  0  0
  -18.0300  -28.0910   22.9700 C   0  0  0  0  0  0  0  0  0  0  0  0
  -20.5880  -28.3690   23.2330 C   0  0  0  0  0  3  0  0  0  0  0  0
  -20.6970  -26.9330   22.6690 C   0  0  0  0  0  2  0  0  0  0  0  0
  -19.5960  -26.5960   21.6580 C   0  0  0  0  0  2  0  0  0  0  0  0
  -18.2130  -26.7380   22.3020 C   0  0  0  0  0  2  0  0  0  0  0  0
  -19.1440  -28.8620   23.3930 C   0  0  0  0  0  0  0  0  0  0  0  0
  -18.9170  -30.1280   23.9790 C   0  0  0  0  0  3  0  0  0  0  0  0
  -17.6100  -30.6220   24.1400 C   0  0  0  0  0  3  0  0  0  0  0  0
  -16.5100  -29.8480   23.7300 C   0  0  0  0  0  3  0  0  0  0  0  0
  -16.7220  -28.5830   23.1540 C   0  0  0  0  0  3  0  0  0  0  0  0
  -25.8900  -32.5340   23.8550 C   0  0  0  0  0  3  0  0  0  0  0  0
  -25.5820  -33.9320   24.1870 N   0  0  0  0  0  0  0  0  0  0  0  0
  -25.9080  -34.9840   23.4230 C   0  0  0  0  0  0  0  0  0  0  0  0
  -26.5670  -34.8780   22.3860 O   0  0  0  0  0  0  0  0  0  0  0  0
  -24.9960  -34.0880   24.9930 H   0  0  0  0  0  0  0  0  0  0  0  0
  -24.1790  -36.7800   23.0800 C   0  0  0  0  0  1  0  0  0  0  0  0
  -25.4250  -36.3750   23.8820 C   0  0  0  0  0  3  0  0  0  0  0  0
  -27.5700  -37.2560   24.6930 C   0  0  0  0  0  1  0  0  0  0  0  0
  -26.4600  -37.4250   23.7580 N   0  0  0  0  0  0  0  0  0  0  0  0
  -26.0590  -38.3480   23.9060 H   0  0  0  0  0  0  0  0  0  0  0  0
  -26.4120  -31.7640   25.1290 C   0  0  1  0  0  0  0  0  0  0  0  0
  -25.3250  -31.5330   26.2030 C   0  0  0  0  0  1  0  0  0  0  0  0
  -26.9910  -30.3840   24.7390 C   0  0  0  0  0  1  0  0  0  0  0  0
  -27.5710  -32.5560   25.7790 C   0  0  0  0  0  1  0  0  0  0  0  0
  -29.4920  -21.0610   20.1570 C   0  0  0  0  0  2  0  0  0  0  0  0
  -29.1320  -19.8310   20.9960 N   0  0  0  0  0  4  0  0  0  0  0  0
  -28.1690  -19.5930   20.8190 H   0  0  0  0  0  0  0  0  0  0  0  0
  -29.1490  -20.1760   21.9420 H   0  0  0  0  0  0  0  0  0  0  0  0
  -29.9560  -18.5280   21.0990 C   0  0  0  0  0  2  0  0  0  0  0  0
  -29.6900  -17.2790   20.1140 C   0  0  0  0  0  2  0  0  0  0  0  0
  -30.5600  -14.7560   20.2480 C   0  0  0  0  0  0  0  0  0  0  0  0
  -30.3380  -12.4890   19.2140 C   0  0  0  0  0  2  0  0  0  0  0  0
  -29.3780  -12.6040   18.0060 C   0  0  0  0  0  2  0  0  0  0  0  0
  -27.9140  -12.4380   18.4600 C   0  0  0  0  0  2  0  0  0  0  0  0
  -27.5760  -13.3090   19.6970 C   0  0  0  0  0  3  0  0  0  0  0  0
  -28.6540  -13.1770   20.8000 C   0  0  0  0  0  2  0  0  0  0  0  0
  -29.9520  -13.5210   20.2030 N   0  0  0  0  0  0  0  0  0  0  0  0
  -31.6960  -14.9120   19.7950 O   0  0  0  0  0  0  0  0  0  0  0  0
  -29.7760  -15.8310   20.6180 N   0  0  0  0  0  0  0  0  0  0  0  0
  -28.9230  -15.5210   21.0590 H   0  0  0  0  0  0  0  0  0  0  0  0
  -25.2010  -13.9120   20.4610 C   0  0  0  0  0  0  0  0  0  0  0  0
  -24.1370  -13.1420   20.8510 C   0  0  0  0  0  0  0  0  0  0  0  0
  -24.5960  -11.7890   20.8140 C   0  0  0  0  0  0  0  0  0  0  0  0
  -26.2370  -13.0290   20.2060 N   0  0  0  0  0  0  0  0  0  0  0  0
  -25.8800  -11.7480   20.4800 N   0  0  0  0  0  0  0  0  0  0  0  0
  -23.8680  -10.5300   21.0150 C   0  0  0  0  0  0  0  0  0  0  0  0
  -24.3170   -9.5550   21.9330 C   0  0  0  0  0  3  0  0  0  0  0  0
  -23.5860   -8.3620   22.1210 C   0  0  0  0  0  3  0  0  0  0  0  0
  -22.3930   -8.1370   21.3960 C   0  0  0  0  0  0  0  0  0  0  0  0
  -21.9650   -9.1000   20.4660 C   0  0  0  0  0  3  0  0  0  0  0  0
  -22.6960  -10.2850   20.2730 C   0  0  0  0  0  3  0  0  0  0  0  0
  -21.6300   -6.9990   21.4980 O   0  0  0  0  0  0  0  0  0  0  0  0
  -21.6140   -6.2430   22.6430 C   0  0  0  0  0  0  0  0  0  0  0  0
  -21.2370   -6.7890   23.8900 C   0  0  0  0  0  3  0  0  0  0  0  0
  -21.1660   -5.9630   25.0280 C   0  0  0  0  0  3  0  0  0  0  0  0
  -21.4610   -4.5900   24.9220 C   0  0  0  0  0  0  0  0  0  0  0  0
  -21.8320   -4.0440   23.6800 C   0  0  0  0  0  3  0  0  0  0  0  0
  -21.9050   -4.8680   22.5450 C   0  0  0  0  0  0  0  0  0  0  0  0
  -22.2440   -4.3310   21.3480 F   0  0  0  0  0  0  0  0  0  0  0  0
  -21.3840   -3.7940   26.0140 F   0  0  0  0  0  0  0  0  0  0  0  0
  -22.7490  -13.6280   21.1460 C   0  0  0  0  0  0  0  0  0  0  0  0
  -22.0300  -12.9360   22.0250 N   0  0  0  0  0  0  0  0  0  0  0  0
  -22.3080  -14.6540   20.6320 O   0  0  0  0  0  0  0  0  0  0  0  0
  -22.3990  -12.1050   22.4620 H   0  0  0  0  0  0  0  0  0  0  0  0
  -21.1000  -13.2490   22.2660 H   0  0  0  0  0  0  0  0  0  0  0  0
  -25.3600  -15.2820   20.2820 N   0  0  0  0  0  0  0  0  0  0  0  0
  -24.5800  -15.9230   20.3880 H   0  0  0  0  0  0  0  0  0  0  0  0
  -26.1870  -15.7260   19.9020 H   0  0  0  0  0  0  0  0  0  0  0  0
  1  2  1  0
  3 55  1  0
  3  1  1  0
  4  6  1  0
  4  5  1  0
  4  3  1  0
  5 14  1  0
  5  2  1  0
  6  7  1  0
  8  6  1  0
 10  9  1  0
 10 11  1  0
 10  6  1  0
 11 12  1  0
 13 12  1  0
 15 26  2  0
 16 14  1  0
 16 21  1  0
 17 25  1  0
 17 27  1  0
 18 24  1  0
 18 20  1  0
 19 25  1  0
 20 19  1  0
 21 20  2  0
 22 23  1  0
 22 16  2  0
 23 18  2  0
 24 17  1  0
 25 15  1  0
 27 29  2  0
 28 27  1  0
 30 28  1  0
 31 40  2  0
 31 36  1  0
 32 28  1  0
 32 36  1  0
 33 32  1  0
 34 35  1  0
 34 33  1  0
 35 31  1  0
 36 37  2  0
 37 38  1  0
 39 38  2  0
 40 39  1  0
 41 15  1  0
 41 42  1  0
 41 51  1  0
 42 45  1  0
 43 47  1  0
 43 42  1  0
 44 43  2  0
 47 46  1  0
 49 47  1  0
 49 50  1  0
 49 48  1  0
 51 54  1  1
 51 52  1  0
 53 51  1  0
 55 56  1  0
 56 59  1  0
 56 58  1  0
 57 56  1  0
 60 69  1  0
 60 59  1  0
 61 69  1  0
 62 67  1  0
 63 64  1  0
 63 62  1  0
 65 64  1  0
 65 74  1  0
 65 66  1  0
 67 61  1  0
 67 66  1  0
 68 61  2  0
 69 70  1  0
 71 72  2  0
 72 91  1  0
 73 72  1  0
 73 76  1  0
 74 71  1  0
 74 75  1  0
 75 73  2  0
 76 77  1  0
 77 78  2  0
 79 82  1  0
 79 78  1  0
 80 79  2  0
 81 80  1  0
 81 76  2  0
 82 83  1  0
 83 84  1  0
 84 85  2  0
 86 85  1  0
 86 90  1  0
 87 86  2  0
 88 83  2  0
 88 87  1  0
 89 88  1  0
 91 92  1  0
 92 95  1  0
 92 94  1  0
 93 91  2  0
 96 97  1  0
 96 71  1  0
 98 96  1  0
M  ISO  4   5 101  14 101  61 100  69 100
M  END
>  <TORSDO>  (29) 
F 24

>  <SCORE>  (29) 
-12.746

>  <name>  (29) 
28

>  <ligand_id>  (29) 
28

>  <original_smiles>  (29) 
[H]OC([H])([H])C([H])(C([H])([H])[H])[N+]([H])([H])C1([H])C([H])(Oc2c([H])c([H])c3c(c2[H])C([H])([H])N(C(=O)C([H])(N([H])C(=O)C([H])(N([H])C([H])([H])[H])C([H])([H])[H])C(C([H])([H])[H])(C([H])([H])[H])C([H])([H])[H])C([H])(C(=O)N([H])C2([H])c4c([H])c([H])c([H])c([H])c4C([H])([H])C([H])([H])C2([H])[H])C3([H])[H])C([H])([H])C([H])([H])C1([H])C([H])([H])[N+]([H])([H])C([H])([H])C([H])([H])N([H])C(=O)N1C([H])([H])C([H])([H])C([H])([H])C([H])(n2nc(-c3c([H])c([H])c(Oc4c([H])c([H])c(F)c([H])c4F)c([H])c3[H])c(C(=O)N([H])[H])c2N([H])[H])C1([H])[H]

>  <smiles>  (29) 
[H]OC([H])([H])C([H])(C([H])([H])[H])[N+]([H])([H])C1([H])C([H])(Oc2c([H])c([H])c3c(c2[H])C([H])([H])N(C(=O)C([H])(N([H])C(=O)C([H])(N([H])C([H])([H])[H])C([H])([H])[H])C(C([H])([H])[H])(C([H])([H])[H])C([H])([H])[H])C([H])(C(=O)N([H])C2([H])c4c([H])c([H])c([H])c([H])c4C([H])([H])C([H])([H])C2([H])[H])C3([H])[H])C([H])([H])C([H])([H])C1([H])C([H])([H])[N+]([H])([H])C([H])([H])C([H])([H])N([H])C(=O)N1C([H])([H])C([H])([H])C([H])([H])C([H])(n2nc(-c3c([H])c([H])c(Oc4c([H])c([H])c(F)c([H])c4F)c([H])c3[H])c(C(=O)N([H])[H])c2N([H])[H])C1([H])[H]

$$$$
29:0:0
     RDKit          3D

 96105  0  0  1  0  0  0  0  0999 V2000
  -29.5780  -22.6770   21.9880 C   0  0  0  0  0  2  0  0  0  0  0  0
  -30.1380  -22.0760   19.6130 C   0  0  0  0  0  2  0  0  0  0  0  0
  -28.5440  -23.7150   21.4860 C   0  0  0  0  0  2  0  0  0  0  0  0
  -29.0840  -23.1080   19.1310 C   0  0  0  0  0  2  0  0  0  0  0  0
  -29.8270  -21.4860   21.0140 C   0  0  0  0  0  3  0  0  0  0  0  0
  -28.8980  -24.3060   20.1010 C   0  0  0  0  0  3  0  0  0  0  0  0
  -32.0740  -18.3390   21.5600 C   0  0  0  0  0  2  0  0  0  0  0  0
  -33.4430  -19.0280   21.5900 C   0  0  0  0  0  2  0  0  0  0  0  0
  -32.3090  -21.1570   21.6510 C   0  0  0  0  0  2  0  0  0  0  0  0
  -30.9050  -20.4690   21.5800 C   0  0  0  0  0  3  0  0  0  0  0  0
  -31.0440  -19.1520   20.8730 N   0  0  0  0  0  0  0  0  0  0  0  0
  -33.3180  -20.3050   22.3000 N   0  0  0  0  0  4  0  0  0  0  0  0
  -34.2080  -20.7750   22.3020 H   0  0  0  0  0  0  0  0  0  0  0  0
  -33.0500  -20.1330   23.2550 H   0  0  0  0  0  0  0  0  0  0  0  0
  -29.8500  -18.2800   20.8480 C   0  0  0  0  0  2  0  0  0  0  0  0
  -30.0560  -17.0320   19.9250 C   0  0  0  0  0  2  0  0  0  0  0  0
  -30.6510  -14.6290   20.3050 C   0  0  0  0  0  0  0  0  0  0  0  0
  -30.4350  -12.3590   19.3740 C   0  0  0  0  0  2  0  0  0  0  0  0
  -29.4900  -12.4330   18.1550 C   0  0  0  0  0  2  0  0  0  0  0  0
  -28.0220  -12.2770   18.5960 C   0  0  0  0  0  2  0  0  0  0  0  0
  -27.6520  -13.1970   19.7910 C   0  0  0  0  0  3  0  0  0  0  0  0
  -28.7170  -13.1210   20.9110 C   0  0  0  0  0  2  0  0  0  0  0  0
  -30.0280  -13.4170   20.3140 N   0  0  0  0  0  0  0  0  0  0  0  0
  -31.7940  -14.7790   19.8660 O   0  0  0  0  0  0  0  0  0  0  0  0
  -29.8660  -15.7020   20.5530 N   0  0  0  0  0  0  0  0  0  0  0  0
  -28.9480  -15.5010   20.9240 H   0  0  0  0  0  0  0  0  0  0  0  0
  -25.2790  -13.7880   20.5850 C   0  0  0  0  0  0  0  0  0  0  0  0
  -24.2140  -13.0070   20.9510 C   0  0  0  0  0  0  0  0  0  0  0  0
  -24.6650  -11.6550   20.8550 C   0  0  0  0  0  0  0  0  0  0  0  0
  -26.3110  -12.9100   20.2940 N   0  0  0  0  0  0  0  0  0  0  0  0
  -25.9470  -11.6200   20.5140 N   0  0  0  0  0  0  0  0  0  0  0  0
  -23.9350  -10.3900   21.0130 C   0  0  0  0  0  0  0  0  0  0  0  0
  -24.3340   -9.4210   21.9580 C   0  0  0  0  0  3  0  0  0  0  0  0
  -23.6050   -8.2200   22.1040 C   0  0  0  0  0  3  0  0  0  0  0  0
  -22.4620   -7.9830   21.3040 C   0  0  0  0  0  0  0  0  0  0  0  0
  -22.0830   -8.9420   20.3490 C   0  0  0  0  0  3  0  0  0  0  0  0
  -22.8120  -10.1330   20.2000 C   0  0  0  0  0  3  0  0  0  0  0  0
  -21.7080   -6.8360   21.3590 O   0  0  0  0  0  0  0  0  0  0  0  0
  -21.5560   -6.1300   22.5250 C   0  0  0  0  0  0  0  0  0  0  0  0
  -20.9650   -6.7020   23.6720 C   0  0  0  0  0  3  0  0  0  0  0  0
  -20.7660   -5.9190   24.8260 C   0  0  0  0  0  3  0  0  0  0  0  0
  -21.1470   -4.5630   24.8340 C   0  0  0  0  0  0  0  0  0  0  0  0
  -21.7290   -3.9900   23.6900 C   0  0  0  0  0  3  0  0  0  0  0  0
  -21.9310   -4.7700   22.5380 C   0  0  0  0  0  0  0  0  0  0  0  0
  -22.4740   -4.2070   21.4320 F   0  0  0  0  0  0  0  0  0  0  0  0
  -20.9480   -3.8090   25.9390 F   0  0  0  0  0  0  0  0  0  0  0  0
  -22.8270  -13.4820   21.2770 C   0  0  0  0  0  0  0  0  0  0  0  0
  -22.1120  -12.7480   22.1210 N   0  0  0  0  0  0  0  0  0  0  0  0
  -22.3890  -14.5370   20.8200 O   0  0  0  0  0  0  0  0  0  0  0  0
  -22.4800  -11.8940   22.5120 H   0  0  0  0  0  0  0  0  0  0  0  0
  -21.1810  -13.0460   22.3810 H   0  0  0  0  0  0  0  0  0  0  0  0
  -25.4480  -15.1630   20.4550 N   0  0  0  0  0  0  0  0  0  0  0  0
  -24.6860  -15.8150   20.6030 H   0  0  0  0  0  0  0  0  0  0  0  0
  -26.2850  -15.6070   20.1000 H   0  0  0  0  0  0  0  0  0  0  0  0
  -27.8080  -25.3010   19.5860 C   0  0  0  0  0  2  0  0  0  0  0  0
  -27.9280  -26.6830   20.0180 O   0  0  0  0  0  0  0  0  0  0  0  0
  -24.4740  -31.9900   23.3410 C   0  0  0  0  0  0  0  0  0  0  0  0
  -26.7900  -27.4880   20.0360 C   0  0  0  0  0  0  0  0  0  0  0  0
  -23.1340  -30.6540   21.7530 C   0  0  0  0  0  3  0  0  0  0  0  0
  -24.4550  -29.1080   20.2130 C   0  0  0  0  0  0  0  0  0  0  0  0
  -25.6600  -30.9290   21.4180 C   0  0  0  0  0  2  0  0  0  0  0  0
  -25.6640  -29.5660   20.7490 C   0  0  0  0  0  0  0  0  0  0  0  0
  -26.8300  -28.7630   20.6630 C   0  0  0  0  0  3  0  0  0  0  0  0
  -25.5600  -27.0790   19.4650 C   0  0  0  0  0  3  0  0  0  0  0  0
  -24.4000  -27.8660   19.5680 C   0  0  0  0  0  3  0  0  0  0  0  0
  -23.2430  -30.0020   20.3510 C   0  0  0  0  0  2  0  0  0  0  0  0
  -24.4450  -31.2050   22.2270 N   0  0  0  0  0  0  0  0  0  0  0  0
  -23.4330  -32.2840   23.9470 O   0  0  0  0  0  0  0  0  0  0  0  0
  -22.5120  -29.6310   22.7320 C   0  0  0  0  0  0  0  0  0  0  0  0
  -21.2010  -29.3780   22.5840 N   0  0  0  0  0  0  0  0  0  0  0  0
  -23.2060  -29.0670   23.5820 O   0  0  0  0  0  0  0  0  0  0  0  0
  -20.6990  -29.8870   21.8700 H   0  0  0  0  0  0  0  0  0  0  0  0
  -17.9080  -27.9380   22.9650 C   0  0  0  0  0  0  0  0  0  0  0  0
  -20.4130  -28.4270   23.3690 C   0  0  0  0  0  3  0  0  0  0  0  0
  -20.6680  -26.9750   22.9010 C   0  0  0  0  0  2  0  0  0  0  0  0
  -19.6630  -26.4950   21.8490 C   0  0  0  0  0  2  0  0  0  0  0  0
  -18.2340  -26.5660   22.3980 C   0  0  0  0  0  2  0  0  0  0  0  0
  -18.9320  -28.8170   23.4060 C   0  0  0  0  0  0  0  0  0  0  0  0
  -18.5750  -30.0940   23.8920 C   0  0  0  0  0  3  0  0  0  0  0  0
  -17.2260  -30.4940   23.9430 C   0  0  0  0  0  3  0  0  0  0  0  0
  -16.2160  -29.6130   23.5210 C   0  0  0  0  0  3  0  0  0  0  0  0
  -16.5570  -28.3380   23.0370 C   0  0  0  0  0  3  0  0  0  0  0  0
  -25.8100  -32.5770   23.8920 C   0  0  0  0  0  3  0  0  0  0  0  0
  -26.3580  -31.7980   25.1500 C   0  0  1  0  0  0  0  0  0  0  0  0
  -25.2940  -31.5580   26.2450 C   0  0  0  0  0  1  0  0  0  0  0  0
  -26.9260  -30.4200   24.7360 C   0  0  0  0  0  1  0  0  0  0  0  0
  -27.5290  -32.5850   25.7850 C   0  0  0  0  0  1  0  0  0  0  0  0
  -25.5730  -33.9890   24.2180 N   0  0  0  0  0  0  0  0  0  0  0  0
  -25.9010  -35.0190   23.4270 C   0  0  0  0  0  0  0  0  0  0  0  0
  -26.5100  -34.8770   22.3620 O   0  0  0  0  0  0  0  0  0  0  0  0
  -25.0290  -34.1750   25.0480 H   0  0  0  0  0  0  0  0  0  0  0  0
  -24.2180  -36.8660   23.1470 C   0  0  0  0  0  1  0  0  0  0  0  0
  -25.4910  -36.4290   23.8900 C   0  0  0  0  0  3  0  0  0  0  0  0
  -27.6930  -37.2590   24.5900 C   0  0  0  0  0  1  0  0  0  0  0  0
  -26.5500  -37.4430   23.6990 N   0  0  0  0  0  0  0  0  0  0  0  0
  -26.1830  -38.3800   23.8450 H   0  0  0  0  0  0  0  0  0  0  0  0
  3  1  1  0
  4  2  1  0
  4  6  1  0
  5  2  1  0
  5 10  1  0
  5  1  1  0
  6 55  1  0
  6  3  1  0
  7  8  1  0
  8 12  1  0
  9 12  1  0
 10  9  1  0
 11  7  1  0
 11 10  1  0
 12 13  1  0
 12 14  1  0
 15 11  1  0
 16 25  1  0
 16 15  1  0
 17 23  1  0
 17 25  1  0
 18 23  1  0
 19 20  1  0
 19 18  1  0
 21 20  1  0
 21 30  1  0
 21 22  1  0
 23 22  1  0
 24 17  2  0
 25 26  1  0
 27 28  2  0
 28 47  1  0
 29 28  1  0
 29 32  1  0
 30 31  1  0
 30 27  1  0
 31 29  2  0
 32 33  1  0
 33 34  2  0
 35 38  1  0
 35 34  1  0
 36 35  2  0
 37 36  1  0
 37 32  2  0
 38 39  1  0
 39 44  2  0
 39 40  1  0
 40 41  2  0
 41 42  1  0
 42 46  1  0
 43 42  2  0
 44 43  1  0
 45 44  1  0
 47 48  1  0
 48 51  1  0
 48 50  1  0
 49 47  2  0
 52 27  1  0
 52 53  1  0
 54 52  1  0
 55 56  1  0
 56 58  1  0
 57 68  2  0
 58 63  1  0
 59 67  1  0
 59 69  1  0
 60 66  1  0
 60 62  1  0
 61 67  1  0
 62 61  1  0
 63 62  2  0
 64 65  1  0
 64 58  2  0
 65 60  2  0
 66 59  1  0
 67 57  1  0
 69 71  2  0
 70 69  1  0
 72 70  1  0
 73 82  2  0
 73 78  1  0
 74 70  1  0
 74 78  1  0
 75 74  1  0
 76 77  1  0
 76 75  1  0
 77 73  1  0
 78 79  2  0
 79 80  1  0
 81 80  2  0
 82 81  1  0
 83 57  1  0
 83 88  1  0
 83 84  1  0
 84 87  1  1
 84 85  1  0
 86 84  1  0
 88 91  1  0
 89 93  1  0
 89 88  1  0
 90 89  2  0
 93 92  1  0
 95 96  1  0
 95 93  1  0
 95 94  1  0
M  ISO  4  17 100  25 100  55 101  56 101
M  END
>  <TORSDO>  (30) 
F 20

>  <SCORE>  (30) 
-13.376

>  <name>  (30) 
29

>  <ligand_id>  (30) 
29

>  <original_smiles>  (30) 
[H]c1c([H])c([H])c2c(c1[H])C([H])([H])C([H])([H])C([H])([H])C2([H])N([H])C(=O)C1([H])N(C(=O)C([H])(N([H])C(=O)C([H])(N([H])C([H])([H])[H])C([H])([H])[H])C(C([H])([H])[H])(C([H])([H])[H])C([H])([H])[H])C([H])([H])c2c([H])c(OC([H])([H])C3([H])C([H])([H])C([H])([H])C([H])(C4([H])N(C([H])([H])C([H])([H])N([H])C(=O)N5C([H])([H])C([H])([H])C([H])([H])C([H])(n6nc(-c7c([H])c([H])c(Oc8c([H])c([H])c(F)c([H])c8F)c([H])c7[H])c(C(=O)N([H])[H])c6N([H])[H])C5([H])[H])C([H])([H])C([H])([H])[N+]([H])([H])C4([H])[H])C([H])([H])C3([H])[H])c([H])c([H])c2C1([H])[H]

>  <smiles>  (30) 
[H]c1c([H])c([H])c2c(c1[H])C([H])([H])C([H])([H])C([H])([H])C2([H])N([H])C(=O)C1([H])N(C(=O)C([H])(N([H])C(=O)C([H])(N([H])C([H])([H])[H])C([H])([H])[H])C(C([H])([H])[H])(C([H])([H])[H])C([H])([H])[H])C([H])([H])c2c([H])c(OC([H])([H])C3([H])C([H])([H])C([H])([H])C([H])(C4([H])N(C([H])([H])C([H])([H])N([H])C(=O)N5C([H])([H])C([H])([H])C([H])([H])C([H])(n6nc(-c7c([H])c([H])c(Oc8c([H])c([H])c(F)c([H])c8F)c([H])c7[H])c(C(=O)N([H])[H])c6N([H])[H])C5([H])[H])C([H])([H])C([H])([H])[N+]([H])([H])C4([H])[H])C([H])([H])C3([H])[H])c([H])c([H])c2C1([H])[H]

$$$$
30:0:0
     RDKit          3D

 90 98  0  0  1  0  0  0  0  0999 V2000
  -28.3650  -22.7530   21.6100 C   0  0  0  0  0  3  0  0  0  0  0  0
  -28.7040  -21.3900   21.3570 C   0  0  0  0  0  3  0  0  0  0  0  0
  -29.3010  -22.0070   19.1170 C   0  0  0  0  0  3  0  0  0  0  0  0
  -28.4840  -23.7920   20.6390 C   0  0  0  0  0  0  0  0  0  0  0  0
  -28.9480  -23.3740   19.3610 C   0  0  0  0  0  0  0  0  0  0  0  0
  -29.1990  -20.9750   20.0960 C   0  0  0  0  0  0  0  0  0  0  0  0
  -29.0730  -24.3750   18.2290 C   0  0  0  0  0  1  0  0  0  0  0  0
  -28.0330  -25.2510   21.0540 C   0  0  0  0  0  2  0  0  0  0  0  0
  -28.2950  -26.4660   20.2500 O   0  0  0  0  0  0  0  0  0  0  0  0
  -24.5960  -31.8890   23.2420 C   0  0  0  0  0  0  0  0  0  0  0  0
  -27.2160  -27.3530   20.1960 C   0  0  0  0  0  0  0  0  0  0  0  0
  -23.3970  -30.4890   21.6000 C   0  0  0  0  0  3  0  0  0  0  0  0
  -24.8540  -28.9450   20.1730 C   0  0  0  0  0  0  0  0  0  0  0  0
  -25.9330  -30.8230   21.4120 C   0  0  0  0  0  2  0  0  0  0  0  0
  -26.0190  -29.4450   20.7680 C   0  0  0  0  0  0  0  0  0  0  0  0
  -27.2110  -28.6610   20.7680 C   0  0  0  0  0  3  0  0  0  0  0  0
  -26.0360  -26.9050   19.5710 C   0  0  0  0  0  3  0  0  0  0  0  0
  -24.8620  -27.6800   19.5640 C   0  0  0  0  0  3  0  0  0  0  0  0
  -23.6130  -29.8130   20.2210 C   0  0  0  0  0  2  0  0  0  0  0  0
  -24.6610  -31.0830   22.1430 N   0  0  0  0  0  0  0  0  0  0  0  0
  -23.5120  -32.1620   23.7780 O   0  0  0  0  0  0  0  0  0  0  0  0
  -22.7390  -29.4680   22.5590 C   0  0  0  0  0  0  0  0  0  0  0  0
  -21.4140  -29.2830   22.4280 N   0  0  0  0  0  0  0  0  0  0  0  0
  -23.4180  -28.8470   23.3810 O   0  0  0  0  0  0  0  0  0  0  0  0
  -20.9250  -29.8360   21.7380 H   0  0  0  0  0  0  0  0  0  0  0  0
  -18.0420  -28.0720   22.9140 C   0  0  0  0  0  0  0  0  0  0  0  0
  -20.5970  -28.3440   23.1970 C   0  0  0  0  0  3  0  0  0  0  0  0
  -20.7080  -26.9110   22.6240 C   0  0  0  0  0  2  0  0  0  0  0  0
  -19.6130  -26.5830   21.6040 C   0  0  0  0  0  2  0  0  0  0  0  0
  -18.2270  -26.7220   22.2420 C   0  0  0  0  0  2  0  0  0  0  0  0
  -19.1540  -28.8390   23.3490 C   0  0  0  0  0  0  0  0  0  0  0  0
  -18.9260  -30.1030   23.9360 C   0  0  0  0  0  3  0  0  0  0  0  0
  -17.6170  -30.5980   24.0950 C   0  0  0  0  0  3  0  0  0  0  0  0
  -16.5190  -29.8250   23.6780 C   0  0  0  0  0  3  0  0  0  0  0  0
  -16.7330  -28.5650   23.0930 C   0  0  0  0  0  3  0  0  0  0  0  0
  -25.8770  -32.5250   23.8670 C   0  0  0  0  0  3  0  0  0  0  0  0
  -26.3850  -31.7600   25.1510 C   0  0  1  0  0  0  0  0  0  0  0  0
  -25.2850  -31.5330   26.2160 C   0  0  0  0  0  1  0  0  0  0  0  0
  -26.9630  -30.3790   24.7680 C   0  0  0  0  0  1  0  0  0  0  0  0
  -27.5360  -32.5540   25.8130 C   0  0  0  0  0  1  0  0  0  0  0  0
  -25.5680  -33.9240   24.1880 N   0  0  0  0  0  0  0  0  0  0  0  0
  -25.9090  -34.9720   23.4260 C   0  0  0  0  0  0  0  0  0  0  0  0
  -26.5860  -34.8630   22.4010 O   0  0  0  0  0  0  0  0  0  0  0  0
  -24.9690  -34.0820   24.9850 H   0  0  0  0  0  0  0  0  0  0  0  0
  -24.1900  -36.7660   23.0470 C   0  0  0  0  0  1  0  0  0  0  0  0
  -25.4200  -36.3630   23.8750 C   0  0  0  0  0  3  0  0  0  0  0  0
  -27.5480  -37.2440   24.7240 C   0  0  0  0  0  1  0  0  0  0  0  0
  -26.4560  -37.4140   23.7690 N   0  0  0  0  0  0  0  0  0  0  0  0
  -26.0520  -38.3370   23.9110 H   0  0  0  0  0  0  0  0  0  0  0  0
  -29.5990  -19.6660   19.7470 O   0  0  0  0  0  0  0  0  0  0  0  0
  -29.4390  -18.4760   20.5950 C   0  0  0  0  0  2  0  0  0  0  0  0
  -30.1390  -17.1810   19.9680 C   0  0  0  0  0  2  0  0  0  0  0  0
  -30.6030  -14.6780   20.2620 C   0  0  0  0  0  0  0  0  0  0  0  0
  -30.3550  -12.4380   19.2330 C   0  0  0  0  0  2  0  0  0  0  0  0
  -29.4030  -12.5660   18.0240 C   0  0  0  0  0  2  0  0  0  0  0  0
  -27.9360  -12.4120   18.4730 C   0  0  0  0  0  2  0  0  0  0  0  0
  -27.5920  -13.2780   19.7160 C   0  0  0  0  0  3  0  0  0  0  0  0
  -28.6640  -13.1450   20.8210 C   0  0  0  0  0  2  0  0  0  0  0  0
  -29.9640  -13.4680   20.2190 N   0  0  0  0  0  0  0  0  0  0  0  0
  -31.7660  -14.7950   19.8640 O   0  0  0  0  0  0  0  0  0  0  0  0
  -29.8440  -15.7970   20.5010 N   0  0  0  0  0  0  0  0  0  0  0  0
  -28.9070  -15.6320   20.8400 H   0  0  0  0  0  0  0  0  0  0  0  0
  -25.2090  -13.8710   20.4640 C   0  0  0  0  0  0  0  0  0  0  0  0
  -24.1490  -13.0960   20.8500 C   0  0  0  0  0  0  0  0  0  0  0  0
  -24.6130  -11.7450   20.8130 C   0  0  0  0  0  0  0  0  0  0  0  0
  -26.2520  -12.9920   20.2180 N   0  0  0  0  0  0  0  0  0  0  0  0
  -25.9000  -11.7080   20.4890 N   0  0  0  0  0  0  0  0  0  0  0  0
  -23.8900  -10.4830   21.0140 C   0  0  0  0  0  0  0  0  0  0  0  0
  -24.3440   -9.5090   21.9310 C   0  0  0  0  0  3  0  0  0  0  0  0
  -23.6240   -8.3100   22.1180 C   0  0  0  0  0  3  0  0  0  0  0  0
  -22.4340   -8.0750   21.3880 C   0  0  0  0  0  0  0  0  0  0  0  0
  -21.9990   -9.0370   20.4590 C   0  0  0  0  0  3  0  0  0  0  0  0
  -22.7210  -10.2270   20.2700 C   0  0  0  0  0  3  0  0  0  0  0  0
  -21.6840   -6.9290   21.4860 O   0  0  0  0  0  0  0  0  0  0  0  0
  -21.6720   -6.1710   22.6290 C   0  0  0  0  0  0  0  0  0  0  0  0
  -21.2900   -6.7100   23.8760 C   0  0  0  0  0  3  0  0  0  0  0  0
  -21.2260   -5.8790   25.0130 C   0  0  0  0  0  3  0  0  0  0  0  0
  -21.5330   -4.5090   24.9030 C   0  0  0  0  0  0  0  0  0  0  0  0
  -21.9070   -3.9690   23.6610 C   0  0  0  0  0  3  0  0  0  0  0  0
  -21.9740   -4.7970   22.5270 C   0  0  0  0  0  0  0  0  0  0  0  0
  -22.3150   -4.2670   21.3270 F   0  0  0  0  0  0  0  0  0  0  0  0
  -21.4640   -3.7090   25.9930 F   0  0  0  0  0  0  0  0  0  0  0  0
  -22.7550  -13.5720   21.1390 C   0  0  0  0  0  0  0  0  0  0  0  0
  -22.0380  -12.8720   22.0120 N   0  0  0  0  0  0  0  0  0  0  0  0
  -22.3090  -14.5970   20.6250 O   0  0  0  0  0  0  0  0  0  0  0  0
  -22.4140  -12.0450   22.4500 H   0  0  0  0  0  0  0  0  0  0  0  0
  -21.1010  -13.1690   22.2470 H   0  0  0  0  0  0  0  0  0  0  0  0
  -25.3680  -15.2420   20.2800 N   0  0  0  0  0  0  0  0  0  0  0  0
  -24.5940  -15.8900   20.3810 H   0  0  0  0  0  0  0  0  0  0  0  0
  -26.1980  -15.6740   19.8930 H   0  0  0  0  0  0  0  0  0  0  0  0
  2  1  1  0
  3  5  2  0
  3  6  1  0
  4  8  1  0
  4  1  2  0
  5  4  1  0
  6  2  2  0
  7  5  1  0
  9  8  1  0
 10 21  2  0
 11  9  1  0
 11 16  1  0
 12 20  1  0
 12 22  1  0
 13 19  1  0
 13 15  1  0
 14 20  1  0
 15 14  1  0
 16 15  2  0
 17 11  2  0
 18 17  1  0
 18 13  2  0
 19 12  1  0
 20 10  1  0
 22 24  2  0
 23 22  1  0
 25 23  1  0
 26 35  2  0
 26 31  1  0
 27 23  1  0
 27 31  1  0
 28 27  1  0
 29 30  1  0
 29 28  1  0
 30 26  1  0
 31 32  2  0
 32 33  1  0
 34 33  2  0
 35 34  1  0
 36 10  1  0
 36 41  1  0
 36 37  1  0
 37 40  1  1
 37 38  1  0
 39 37  1  0
 41 44  1  0
 42 46  1  0
 42 41  1  0
 43 42  2  0
 46 45  1  0
 48 46  1  0
 48 49  1  0
 48 47  1  0
 50  6  1  0
 50 51  1  0
 52 61  1  0
 52 51  1  0
 53 61  1  0
 54 59  1  0
 55 56  1  0
 55 54  1  0
 57 56  1  0
 57 66  1  0
 57 58  1  0
 59 53  1  0
 59 58  1  0
 60 53  2  0
 61 62  1  0
 63 64  2  0
 64 83  1  0
 65 64  1  0
 65 68  1  0
 66 63  1  0
 66 67  1  0
 67 65  2  0
 68 69  1  0
 69 70  2  0
 71 74  1  0
 71 70  1  0
 72 71  2  0
 73 72  1  0
 73 68  2  0
 74 75  1  0
 75 76  1  0
 76 77  2  0
 78 77  1  0
 78 82  1  0
 79 78  2  0
 80 75  2  0
 80 79  1  0
 81 80  1  0
 83 84  1  0
 84 87  1  0
 84 86  1  0
 85 83  2  0
 88 89  1  0
 88 63  1  0
 90 88  1  0
M  ISO  4   8 101   9 101  53 100  61 100
M  END
>  <TORSDO>  (31) 
F 20

>  <SCORE>  (31) 
-13.880

>  <name>  (31) 
30

>  <ligand_id>  (31) 
30

>  <original_smiles>  (31) 
[H]c1c([H])c([H])c2c(c1[H])C([H])([H])C([H])([H])C([H])([H])C2([H])N([H])C(=O)C1([H])N(C(=O)C([H])(N([H])C(=O)C([H])(N([H])C([H])([H])[H])C([H])([H])[H])C(C([H])([H])[H])(C([H])([H])[H])C([H])([H])[H])C([H])([H])c2c([H])c(OC([H])([H])c3c([H])c([H])c(OC([H])([H])C([H])([H])N([H])C(=O)N4C([H])([H])C([H])([H])C([H])([H])C([H])(n5nc(-c6c([H])c([H])c(Oc7c([H])c([H])c(F)c([H])c7F)c([H])c6[H])c(C(=O)N([H])[H])c5N([H])[H])C4([H])[H])c([H])c3C([H])([H])[H])c([H])c([H])c2C1([H])[H]

>  <smiles>  (31) 
[H]c1c([H])c([H])c2c(c1[H])C([H])([H])C([H])([H])C([H])([H])C2([H])N([H])C(=O)C1([H])N(C(=O)C([H])(N([H])C(=O)C([H])(N([H])C([H])([H])[H])C([H])([H])[H])C(C([H])([H])[H])(C([H])([H])[H])C([H])([H])[H])C([H])([H])c2c([H])c(OC([H])([H])c3c([H])c([H])c(OC([H])([H])C([H])([H])N([H])C(=O)N4C([H])([H])C([H])([H])C([H])([H])C([H])(n5nc(-c6c([H])c([H])c(Oc7c([H])c([H])c(F)c([H])c7F)c([H])c6[H])c(C(=O)N([H])[H])c5N([H])[H])C4([H])[H])c([H])c3C([H])([H])[H])c([H])c([H])c2C1([H])[H]

$$$$
31:0:0
     RDKit          3D

 97107  0  0  1  0  0  0  0  0999 V2000
  -31.0460  -23.4070   20.8520 C   0  0  0  0  0  2  0  0  0  0  0  0
  -28.2160  -21.7360   19.9140 C   0  0  0  0  0  2  0  0  0  0  0  0
  -30.2730  -24.7350   20.7400 C   0  0  0  0  0  2  0  0  0  0  0  0
  -28.4380  -20.3220   20.4900 C   0  0  0  0  0  2  0  0  0  0  0  0
  -29.1740  -19.4580   18.0780 C   0  0  0  0  0  2  0  0  0  0  0  0
  -30.6640  -19.8020   17.8780 C   0  0  0  0  0  2  0  0  0  0  0  0
  -28.8800  -23.9300   18.8230 C   0  0  0  0  0  2  0  0  0  0  0  0
  -31.5150  -21.0550   20.0510 C   0  0  0  0  0  2  0  0  0  0  0  0
  -29.3450  -22.4740   19.1450 C   0  0  0  0  0  3  0  0  0  0  0  0
  -30.8140  -22.4100   19.6900 C   0  0  0  0  0  3  0  0  0  0  0  0
  -29.8270  -25.0480   19.2970 C   0  0  0  0  0  3  0  0  0  0  0  0
  -29.0060  -19.1930   19.5890 C   0  0  0  0  0  3  0  0  0  0  0  0
  -31.2800  -19.7180   19.2810 C   0  0  0  0  0  3  0  0  0  0  0  0
  -30.3640  -18.8610   20.0630 N   0  0  2  0  0  4  0  0  0  0  0  0
  -30.4560  -19.1350   21.0310 H   0  0  0  0  0  0  0  0  0  0  0  0
  -29.1930  -26.4530   19.1280 C   0  0  0  0  0  2  0  0  0  0  0  0
  -28.4120  -26.7500   20.2730 O   0  0  0  0  0  0  0  0  0  0  0  0
  -24.6080  -31.8940   23.2330 C   0  0  0  0  0  0  0  0  0  0  0  0
  -27.2690  -27.4930   20.1370 C   0  0  0  0  0  0  0  0  0  0  0  0
  -23.3930  -30.4810   21.5990 C   0  0  0  0  0  3  0  0  0  0  0  0
  -24.8510  -28.9510   20.1530 C   0  0  0  0  0  0  0  0  0  0  0  0
  -25.9120  -30.8540   21.3890 C   0  0  0  0  0  2  0  0  0  0  0  0
  -26.0000  -29.4910   20.7430 C   0  0  0  0  0  0  0  0  0  0  0  0
  -27.2050  -28.7610   20.7470 C   0  0  0  0  0  3  0  0  0  0  0  0
  -26.1120  -26.9570   19.5300 C   0  0  0  0  0  3  0  0  0  0  0  0
  -24.9000  -27.6820   19.5430 C   0  0  0  0  0  3  0  0  0  0  0  0
  -23.5900  -29.7840   20.2220 C   0  0  0  0  0  2  0  0  0  0  0  0
  -24.6540  -31.0940   22.1300 N   0  0  0  0  0  0  0  0  0  0  0  0
  -23.5300  -32.1670   23.7830 O   0  0  0  0  0  0  0  0  0  0  0  0
  -22.7540  -29.4660   22.5720 C   0  0  0  0  0  0  0  0  0  0  0  0
  -21.4300  -29.2760   22.4480 N   0  0  0  0  0  0  0  0  0  0  0  0
  -23.4440  -28.8470   23.3870 O   0  0  0  0  0  0  0  0  0  0  0  0
  -20.9390  -29.8220   21.7550 H   0  0  0  0  0  0  0  0  0  0  0  0
  -18.0640  -28.0660   22.9540 C   0  0  0  0  0  0  0  0  0  0  0  0
  -20.6190  -28.3400   23.2250 C   0  0  0  0  0  3  0  0  0  0  0  0
  -20.7300  -26.9070   22.6540 C   0  0  0  0  0  2  0  0  0  0  0  0
  -19.6300  -26.5750   21.6420 C   0  0  0  0  0  2  0  0  0  0  0  0
  -18.2460  -26.7160   22.2840 C   0  0  0  0  0  2  0  0  0  0  0  0
  -19.1780  -28.8380   23.3800 C   0  0  0  0  0  0  0  0  0  0  0  0
  -18.9540  -30.1040   23.9630 C   0  0  0  0  0  3  0  0  0  0  0  0
  -17.6460  -30.5980   24.1290 C   0  0  0  0  0  3  0  0  0  0  0  0
  -16.5460  -29.8230   23.7210 C   0  0  0  0  0  3  0  0  0  0  0  0
  -16.7550  -28.5600   23.1390 C   0  0  0  0  0  3  0  0  0  0  0  0
  -25.8990  -32.5250   23.8420 C   0  0  0  0  0  3  0  0  0  0  0  0
  -26.4370  -31.7500   25.1090 C   0  0  1  0  0  0  0  0  0  0  0  0
  -25.3570  -31.5080   26.1880 C   0  0  0  0  0  1  0  0  0  0  0  0
  -27.0180  -30.3740   24.7090 C   0  0  0  0  0  1  0  0  0  0  0  0
  -27.5940  -32.5460   25.7580 C   0  0  0  0  0  1  0  0  0  0  0  0
  -25.5920  -33.9210   24.1790 N   0  0  0  0  0  0  0  0  0  0  0  0
  -25.9200  -34.9770   23.4230 C   0  0  0  0  0  0  0  0  0  0  0  0
  -26.5860  -34.8800   22.3870 O   0  0  0  0  0  0  0  0  0  0  0  0
  -24.9960  -34.0720   24.9800 H   0  0  0  0  0  0  0  0  0  0  0  0
  -24.1860  -36.7650   23.0810 C   0  0  0  0  0  1  0  0  0  0  0  0
  -25.4320  -36.3630   23.8860 C   0  0  0  0  0  3  0  0  0  0  0  0
  -27.5710  -37.2460   24.7080 C   0  0  0  0  0  1  0  0  0  0  0  0
  -26.4610  -37.4190   23.7720 N   0  0  0  0  0  0  0  0  0  0  0  0
  -26.0550  -38.3390   23.9280 H   0  0  0  0  0  0  0  0  0  0  0  0
  -30.6430  -17.4040   20.0350 C   0  0  0  0  0  2  0  0  0  0  0  0
  -30.1930  -16.7330   21.3570 C   0  0  0  0  0  2  0  0  0  0  0  0
  -30.6900  -14.3910   20.5430 C   0  0  0  0  0  0  0  0  0  0  0  0
  -30.3680  -12.3140   19.2630 C   0  0  0  0  0  2  0  0  0  0  0  0
  -29.4130  -12.5890   18.0820 C   0  0  0  0  0  2  0  0  0  0  0  0
  -27.9350  -12.4630   18.5080 C   0  0  0  0  0  2  0  0  0  0  0  0
  -27.6240  -13.2440   19.8110 C   0  0  0  0  0  3  0  0  0  0  0  0
  -28.6780  -12.9200   20.8940 C   0  0  0  0  0  2  0  0  0  0  0  0
  -30.0130  -13.2310   20.3510 N   0  0  0  0  0  0  0  0  0  0  0  0
  -31.7610  -14.6620   19.9960 O   0  0  0  0  0  0  0  0  0  0  0  0
  -30.0180  -15.2850   21.2760 N   0  0  0  0  0  0  0  0  0  0  0  0
  -29.1810  -14.9220   21.7080 H   0  0  0  0  0  0  0  0  0  0  0  0
  -25.2230  -13.8720   20.4980 C   0  0  0  0  0  0  0  0  0  0  0  0
  -24.1520  -13.1070   20.8710 C   0  0  0  0  0  0  0  0  0  0  0  0
  -24.6060  -11.7510   20.8500 C   0  0  0  0  0  0  0  0  0  0  0  0
  -26.2660  -12.9830   20.2820 N   0  0  0  0  0  0  0  0  0  0  0  0
  -25.8970  -11.7040   20.5470 N   0  0  0  0  0  0  0  0  0  0  0  0
  -23.8770  -10.4930   21.0480 C   0  0  0  0  0  0  0  0  0  0  0  0
  -24.3220   -9.5220   21.9720 C   0  0  0  0  0  3  0  0  0  0  0  0
  -23.5960   -8.3250   22.1570 C   0  0  0  0  0  3  0  0  0  0  0  0
  -22.4100   -8.0940   21.4180 C   0  0  0  0  0  0  0  0  0  0  0  0
  -21.9860   -9.0530   20.4810 C   0  0  0  0  0  3  0  0  0  0  0  0
  -22.7130  -10.2400   20.2940 C   0  0  0  0  0  3  0  0  0  0  0  0
  -21.6530   -6.9520   21.5140 O   0  0  0  0  0  0  0  0  0  0  0  0
  -21.6310   -6.1960   22.6590 C   0  0  0  0  0  0  0  0  0  0  0  0
  -21.2560   -6.7420   23.9060 C   0  0  0  0  0  3  0  0  0  0  0  0
  -21.1810   -5.9120   25.0420 C   0  0  0  0  0  3  0  0  0  0  0  0
  -21.4720   -4.5390   24.9330 C   0  0  0  0  0  0  0  0  0  0  0  0
  -21.8400   -3.9930   23.6920 C   0  0  0  0  0  3  0  0  0  0  0  0
  -21.9160   -4.8190   22.5560 C   0  0  0  0  0  0  0  0  0  0  0  0
  -22.2500   -4.2840   21.3570 F   0  0  0  0  0  0  0  0  0  0  0  0
  -21.3900   -3.7410   26.0230 F   0  0  0  0  0  0  0  0  0  0  0  0
  -22.7540  -13.5880   21.1380 C   0  0  0  0  0  0  0  0  0  0  0  0
  -22.0240  -12.9010   22.0090 N   0  0  0  0  0  0  0  0  0  0  0  0
  -22.3160  -14.6070   20.6050 O   0  0  0  0  0  0  0  0  0  0  0  0
  -22.3850  -12.0770   22.4650 H   0  0  0  0  0  0  0  0  0  0  0  0
  -21.0850  -13.2080   22.2280 H   0  0  0  0  0  0  0  0  0  0  0  0
  -25.3960  -15.2410   20.3050 N   0  0  0  0  0  0  0  0  0  0  0  0
  -24.6380  -15.9080   20.4010 H   0  0  0  0  0  0  0  0  0  0  0  0
  -26.2530  -15.6620   19.9710 H   0  0  0  0  0  0  0  0  0  0  0  0
  2  4  1  0
  3  1  1  0
  6  5  1  0
  7 11  1  0
  9  7  1  0
  9 10  1  0
  9  2  1  0
 10  8  1  0
 10  1  1  0
 11 16  1  0
 11  3  1  0
 12  5  1  0
 12 14  1  0
 12  4  1  0
 13  6  1  0
 13  8  1  0
 13 14  1  0
 14 15  1  1
 16 17  1  0
 18 29  2  0
 19 17  1  0
 19 24  1  0
 20 28  1  0
 20 30  1  0
 21 27  1  0
 21 23  1  0
 22 28  1  0
 23 24  2  0
 23 22  1  0
 25 26  1  0
 25 19  2  0
 26 21  2  0
 27 20  1  0
 28 18  1  0
 30 32  2  0
 31 30  1  0
 33 31  1  0
 34 43  2  0
 34 39  1  0
 35 31  1  0
 35 39  1  0
 36 35  1  0
 37 38  1  0
 37 36  1  0
 38 34  1  0
 39 40  2  0
 40 41  1  0
 42 41  2  0
 43 42  1  0
 44 18  1  0
 44 49  1  0
 44 45  1  0
 45 48  1  1
 45 46  1  0
 47 45  1  0
 49 52  1  0
 50 54  1  0
 50 49  1  0
 51 50  2  0
 54 53  1  0
 56 54  1  0
 56 57  1  0
 56 55  1  0
 58 14  1  0
 58 59  1  0
 60 68  1  0
 61 66  1  0
 62 63  1  0
 62 61  1  0
 64 63  1  0
 64 73  1  0
 64 65  1  0
 66 60  1  0
 66 65  1  0
 67 60  2  0
 68 59  1  0
 68 69  1  0
 70 71  2  0
 71 90  1  0
 72 71  1  0
 72 75  1  0
 73 70  1  0
 73 74  1  0
 74 72  2  0
 75 76  1  0
 76 77  2  0
 78 81  1  0
 78 77  1  0
 79 78  2  0
 80 79  1  0
 80 75  2  0
 81 82  1  0
 82 83  1  0
 83 84  2  0
 85 84  1  0
 85 89  1  0
 86 85  2  0
 87 82  2  0
 87 86  1  0
 88 87  1  0
 90 91  1  0
 91 94  1  0
 91 93  1  0
 92 90  2  0
 95 96  1  0
 95 70  1  0
 97 95  1  0
M  ISO  4  16 101  17 101  60 100  68 100
M  END
>  <TORSDO>  (32) 
F 19

>  <SCORE>  (32) 
-14.659

>  <name>  (32) 
31

>  <ligand_id>  (32) 
31

>  <original_smiles>  (32) 
[H]c1c([H])c([H])c2c(c1[H])C([H])([H])C([H])([H])C([H])([H])C2([H])N([H])C(=O)C1([H])N(C(=O)C([H])(N([H])C(=O)C([H])(N([H])C([H])([H])[H])C([H])([H])[H])C(C([H])([H])[H])(C([H])([H])[H])C([H])([H])[H])C([H])([H])c2c([H])c(OC([H])([H])C3([H])C([H])([H])C([H])([H])C4([H])C([H])([H])C5([H])C([H])([H])C([H])([H])C([H])(C([H])([H])C([H])([H])C4([H])C3([H])[H])[N+]5([H])C([H])([H])C([H])([H])N([H])C(=O)N3C([H])([H])C([H])([H])C([H])([H])C([H])(n4nc(-c5c([H])c([H])c(Oc6c([H])c([H])c(F)c([H])c6F)c([H])c5[H])c(C(=O)N([H])[H])c4N([H])[H])C3([H])[H])c([H])c([H])c2C1([H])[H]

>  <smiles>  (32) 
[H]c1c([H])c([H])c2c(c1[H])C([H])([H])C([H])([H])C([H])([H])C2([H])N([H])C(=O)C1([H])N(C(=O)C([H])(N([H])C(=O)C([H])(N([H])C([H])([H])[H])C([H])([H])[H])C(C([H])([H])[H])(C([H])([H])[H])C([H])([H])[H])C([H])([H])c2c([H])c(OC([H])([H])C3([H])C([H])([H])C([H])([H])C4([H])C([H])([H])C5([H])C([H])([H])C([H])([H])C([H])(C([H])([H])C([H])([H])C4([H])C3([H])[H])[N+]5([H])C([H])([H])C([H])([H])N([H])C(=O)N3C([H])([H])C([H])([H])C([H])([H])C([H])(n4nc(-c5c([H])c([H])c(Oc6c([H])c([H])c(F)c([H])c6F)c([H])c5[H])c(C(=O)N([H])[H])c4N([H])[H])C3([H])[H])c([H])c([H])c2C1([H])[H]

$$$$
32:0:0
     RDKit          3D

 89 97  0  0  1  0  0  0  0  0999 V2000
  -29.1840  -22.4490   20.6220 N   0  0  0  0  0  4  0  0  0  0  0  0
  -30.1190  -22.6070   20.9630 H   0  0  0  0  0  0  0  0  0  0  0  0
  -28.6020  -22.4550   21.4460 H   0  0  0  0  0  0  0  0  0  0  0  0
  -28.8490  -18.4300   20.9610 C   0  0  0  0  0  2  0  0  0  0  0  0
  -30.3270  -18.7850   19.0520 C   0  0  0  0  0  2  0  0  0  0  0  0
  -28.8780  -19.9710   21.3010 C   0  0  0  0  0  2  0  0  0  0  0  0
  -30.3450  -20.3580   19.3800 C   0  0  0  0  0  2  0  0  0  0  0  0
  -30.0880  -17.7820   20.2480 C   0  0  0  0  0  3  0  0  0  0  0  0
  -29.0900  -20.9780   20.1180 C   0  0  0  0  0  3  0  0  0  0  0  0
  -29.7690  -16.1960   19.9580 C   0  0  0  0  0  2  0  0  0  0  0  0
  -30.7550  -14.9260   19.7700 C   0  0  0  0  0  0  0  0  0  0  0  0
  -30.6520  -12.5630   18.9240 C   0  0  0  0  0  2  0  0  0  0  0  0
  -29.6340  -12.5250   17.7570 C   0  0  0  0  0  2  0  0  0  0  0  0
  -28.1920  -12.3430   18.2770 C   0  0  0  0  0  2  0  0  0  0  0  0
  -27.8610  -13.2940   19.4550 C   0  0  0  0  0  3  0  0  0  0  0  0
  -28.9850  -13.2670   20.5140 C   0  0  0  0  0  2  0  0  0  0  0  0
  -30.2410  -13.6440   19.8470 N   0  0  0  0  0  0  0  0  0  0  0  0
  -31.9130  -15.0880   19.3730 O   0  0  0  0  0  0  0  0  0  0  0  0
  -25.5480  -13.9170   20.3850 C   0  0  0  0  0  0  0  0  0  0  0  0
  -24.4930  -13.1540   20.8000 C   0  0  0  0  0  0  0  0  0  0  0  0
  -24.9180  -11.7950   20.6810 C   0  0  0  0  0  0  0  0  0  0  0  0
  -26.5500  -13.0220   20.0340 N   0  0  0  0  0  0  0  0  0  0  0  0
  -26.1800  -11.7400   20.2750 N   0  0  0  0  0  0  0  0  0  0  0  0
  -24.1770  -10.5440   20.8730 C   0  0  0  0  0  0  0  0  0  0  0  0
  -24.5750   -9.5890   21.8340 C   0  0  0  0  0  3  0  0  0  0  0  0
  -23.8350   -8.4010   22.0120 C   0  0  0  0  0  3  0  0  0  0  0  0
  -22.6840   -8.1600   21.2260 C   0  0  0  0  0  0  0  0  0  0  0  0
  -22.3050   -9.1010   20.2530 C   0  0  0  0  0  3  0  0  0  0  0  0
  -23.0460  -10.2810   20.0740 C   0  0  0  0  0  3  0  0  0  0  0  0
  -21.9180   -7.0220   21.3140 O   0  0  0  0  0  0  0  0  0  0  0  0
  -21.7230   -6.3750   22.5080 C   0  0  0  0  0  0  0  0  0  0  0  0
  -21.1060   -7.0100   23.6070 C   0  0  0  0  0  3  0  0  0  0  0  0
  -20.8630   -6.2880   24.7910 C   0  0  0  0  0  3  0  0  0  0  0  0
  -21.2280   -4.9310   24.8770 C   0  0  0  0  0  0  0  0  0  0  0  0
  -21.8380   -4.2940   23.7820 C   0  0  0  0  0  3  0  0  0  0  0  0
  -22.0830   -5.0150   22.5990 C   0  0  0  0  0  0  0  0  0  0  0  0
  -22.6540   -4.3910   21.5390 F   0  0  0  0  0  0  0  0  0  0  0  0
  -20.9880   -4.2340   26.0120 F   0  0  0  0  0  0  0  0  0  0  0  0
  -23.1330  -13.6510   21.1980 C   0  0  0  0  0  0  0  0  0  0  0  0
  -22.4530  -12.9320   22.0820 N   0  0  0  0  0  0  0  0  0  0  0  0
  -22.6850  -14.7100   20.7590 O   0  0  0  0  0  0  0  0  0  0  0  0
  -22.8330  -12.0760   22.4560 H   0  0  0  0  0  0  0  0  0  0  0  0
  -21.5410  -13.2430   22.3880 H   0  0  0  0  0  0  0  0  0  0  0  0
  -25.7380  -15.2890   20.2550 N   0  0  0  0  0  0  0  0  0  0  0  0
  -25.0100  -15.9650   20.4700 H   0  0  0  0  0  0  0  0  0  0  0  0
  -26.5790  -15.7160   19.8930 H   0  0  0  0  0  0  0  0  0  0  0  0
  -28.7420  -23.7090   19.8260 C   0  0  0  0  0  2  0  0  0  0  0  0
  -28.3570  -25.0720   20.6610 C   0  0  0  0  0  2  0  0  0  0  0  0
  -28.4700  -26.4900   20.1380 O   0  0  0  0  0  0  0  0  0  0  0  0
  -24.6680  -31.8890   23.2380 C   0  0  0  0  0  0  0  0  0  0  0  0
  -27.3500  -27.3550   20.1500 C   0  0  0  0  0  0  0  0  0  0  0  0
  -23.4910  -30.4800   21.5890 C   0  0  0  0  0  3  0  0  0  0  0  0
  -24.9670  -28.9660   20.1440 C   0  0  0  0  0  0  0  0  0  0  0  0
  -26.0320  -30.8320   21.4160 C   0  0  0  0  0  2  0  0  0  0  0  0
  -26.1320  -29.4620   20.7430 C   0  0  0  0  0  0  0  0  0  0  0  0
  -27.3290  -28.6730   20.7240 C   0  0  0  0  0  3  0  0  0  0  0  0
  -26.1600  -26.9200   19.5310 C   0  0  0  0  0  3  0  0  0  0  0  0
  -24.9860  -27.7050   19.5240 C   0  0  0  0  0  3  0  0  0  0  0  0
  -23.7200  -29.8280   20.2000 C   0  0  0  0  0  2  0  0  0  0  0  0
  -24.7480  -31.0890   22.1340 N   0  0  0  0  0  0  0  0  0  0  0  0
  -23.5790  -32.1400   23.7780 O   0  0  0  0  0  0  0  0  0  0  0  0
  -22.8500  -29.4420   22.5420 C   0  0  0  0  0  0  0  0  0  0  0  0
  -21.5300  -29.2230   22.4110 N   0  0  0  0  0  0  0  0  0  0  0  0
  -23.5420  -28.8360   23.3650 O   0  0  0  0  0  0  0  0  0  0  0  0
  -21.0290  -29.7600   21.7150 H   0  0  0  0  0  0  0  0  0  0  0  0
  -18.1860  -27.9240   22.9060 C   0  0  0  0  0  0  0  0  0  0  0  0
  -20.7360  -28.2590   23.1770 C   0  0  0  0  0  3  0  0  0  0  0  0
  -20.8820  -26.8340   22.5960 C   0  0  0  0  0  2  0  0  0  0  0  0
  -19.7900  -26.4820   21.5820 C   0  0  0  0  0  2  0  0  0  0  0  0
  -18.4040  -26.5840   22.2230 C   0  0  0  0  0  2  0  0  0  0  0  0
  -19.2820  -28.7180   23.3400 C   0  0  0  0  0  0  0  0  0  0  0  0
  -19.0220  -29.9700   23.9370 C   0  0  0  0  0  3  0  0  0  0  0  0
  -17.7030  -30.4310   24.1040 C   0  0  0  0  0  3  0  0  0  0  0  0
  -16.6230  -29.6340   23.6860 C   0  0  0  0  0  3  0  0  0  0  0  0
  -16.8660  -28.3810   23.0950 C   0  0  0  0  0  3  0  0  0  0  0  0
  -25.9370  -32.5470   23.8610 C   0  0  0  0  0  3  0  0  0  0  0  0
  -26.4610  -31.7940   25.1450 C   0  0  1  0  0  0  0  0  0  0  0  0
  -25.3640  -31.5300   26.2050 C   0  0  0  0  0  1  0  0  0  0  0  0
  -27.0820  -30.4290   24.7710 C   0  0  0  0  0  1  0  0  0  0  0  0
  -27.5840  -32.6210   25.8130 C   0  0  0  0  0  1  0  0  0  0  0  0
  -25.6000  -33.9410   24.1860 N   0  0  0  0  0  0  0  0  0  0  0  0
  -25.9190  -35.0010   23.4290 C   0  0  0  0  0  0  0  0  0  0  0  0
  -26.5930  -34.9070   22.4000 O   0  0  0  0  0  0  0  0  0  0  0  0
  -24.9980  -34.0860   24.9830 H   0  0  0  0  0  0  0  0  0  0  0  0
  -24.1690  -36.7710   23.0650 C   0  0  0  0  0  1  0  0  0  0  0  0
  -25.4080  -36.3820   23.8860 C   0  0  0  0  0  3  0  0  0  0  0  0
  -27.5150  -37.3000   24.7490 C   0  0  0  0  0  1  0  0  0  0  0  0
  -26.4270  -37.4500   23.7870 N   0  0  0  0  0  0  0  0  0  0  0  0
  -26.0060  -38.3650   23.9250 H   0  0  0  0  0  0  0  0  0  0  0  0
  1  2  1  0
  1  3  1  0
  4  6  1  0
  5  7  1  0
  5  8  1  0
  7  9  1  0
  8 10  1  0
  8  4  1  0
  9  1  1  0
  9  6  1  0
 11 17  1  0
 11 10  1  0
 12 17  1  0
 13 14  1  0
 13 12  1  0
 15 14  1  0
 15 22  1  0
 15 16  1  0
 17 16  1  0
 18 11  2  0
 19 20  2  0
 20 39  1  0
 21 20  1  0
 21 24  1  0
 22 23  1  0
 22 19  1  0
 23 21  2  0
 24 25  1  0
 25 26  2  0
 27 30  1  0
 27 26  1  0
 28 27  2  0
 29 28  1  0
 29 24  2  0
 30 31  1  0
 31 36  2  0
 31 32  1  0
 32 33  2  0
 33 34  1  0
 34 38  1  0
 35 34  2  0
 36 35  1  0
 37 36  1  0
 39 40  1  0
 40 43  1  0
 40 42  1  0
 41 39  2  0
 44 19  1  0
 44 45  1  0
 46 44  1  0
 47  1  1  0
 47 48  1  0
 49 51  1  0
 49 48  1  0
 50 61  2  0
 51 56  1  0
 52 60  1  0
 52 62  1  0
 53 59  1  0
 53 55  1  0
 54 60  1  0
 55 54  1  0
 56 55  2  0
 57 51  2  0
 58 57  1  0
 58 53  2  0
 59 52  1  0
 60 50  1  0
 62 64  2  0
 63 62  1  0
 65 63  1  0
 66 75  2  0
 66 71  1  0
 67 63  1  0
 67 71  1  0
 68 67  1  0
 69 70  1  0
 69 68  1  0
 70 66  1  0
 71 72  2  0
 72 73  1  0
 74 73  2  0
 75 74  1  0
 76 50  1  0
 76 81  1  0
 76 77  1  0
 77 80  1  1
 77 78  1  0
 79 77  1  0
 81 84  1  0
 82 86  1  0
 82 81  1  0
 83 82  2  0
 86 85  1  0
 88 86  1  0
 88 89  1  0
 88 87  1  0
M  ISO  4  10 100  11 100  48 101  49 101
M  END
>  <TORSDO>  (33) 
F 20

>  <SCORE>  (33) 
-12.726

>  <name>  (33) 
32

>  <ligand_id>  (33) 
32

>  <original_smiles>  (33) 
[H]c1c([H])c([H])c2c(c1[H])C([H])([H])C([H])([H])C([H])([H])C2([H])N([H])C(=O)C1([H])N(C(=O)C([H])(N([H])C(=O)C([H])(N([H])C([H])([H])[H])C([H])([H])[H])C(C([H])([H])[H])(C([H])([H])[H])C([H])([H])[H])C([H])([H])c2c([H])c(OC([H])([H])C([H])([H])[N+]([H])([H])C3([H])C([H])([H])C([H])([H])C([H])(C([H])([H])C(=O)N4C([H])([H])C([H])([H])C([H])([H])C([H])(n5nc(-c6c([H])c([H])c(Oc7c([H])c([H])c(F)c([H])c7F)c([H])c6[H])c(C(=O)N([H])[H])c5N([H])[H])C4([H])[H])C([H])([H])C3([H])[H])c([H])c([H])c2C1([H])[H]

>  <smiles>  (33) 
[H]c1c([H])c([H])c2c(c1[H])C([H])([H])C([H])([H])C([H])([H])C2([H])N([H])C(=O)C1([H])N(C(=O)C([H])(N([H])C(=O)C([H])(N([H])C([H])([H])[H])C([H])([H])[H])C(C([H])([H])[H])(C([H])([H])[H])C([H])([H])[H])C([H])([H])c2c([H])c(OC([H])([H])C([H])([H])[N+]([H])([H])C3([H])C([H])([H])C([H])([H])C([H])(C([H])([H])C(=O)N4C([H])([H])C([H])([H])C([H])([H])C([H])(n5nc(-c6c([H])c([H])c(Oc7c([H])c([H])c(F)c([H])c7F)c([H])c6[H])c(C(=O)N([H])[H])c5N([H])[H])C4([H])[H])C([H])([H])C3([H])[H])c([H])c([H])c2C1([H])[H]

$$$$
33:0:0
     RDKit          3D

101110  0  0  1  0  0  0  0  0999 V2000
  -32.7490  -21.7730   18.6340 C   0  0  0  0  0  3  0  0  0  0  0  0
  -30.9520  -21.9960   20.2520 C   0  0  0  0  0  3  0  0  0  0  0  0
  -32.6920  -23.1590   18.3540 C   0  0  0  0  0  0  0  0  0  0  0  0
  -31.7500  -23.9690   19.0310 C   0  0  0  0  0  0  0  0  0  0  0  0
  -31.8940  -21.1780   19.5880 C   0  0  0  0  0  0  0  0  0  0  0  0
  -30.8940  -23.3800   19.9830 C   0  0  0  0  0  0  0  0  0  0  0  0
  -33.6880  -23.7640   17.3680 C   0  0  0  0  0  2  0  0  0  0  0  0
  -31.6250  -25.4660   18.7410 C   0  0  0  0  0  2  0  0  0  0  0  0
  -33.3270  -25.1800   16.8900 C   0  0  0  0  0  2  0  0  0  0  0  0
  -32.8520  -26.0660   18.0450 C   0  0  0  0  0  2  0  0  0  0  0  0
  -32.0430  -19.8060   19.8700 N   0  0  0  0  0  0  0  0  0  0  0  0
  -32.7300  -19.3540   19.2700 H   0  0  0  0  0  0  0  0  0  0  0  0
  -30.8420  -19.0060   20.1500 C   0  0  0  0  0  2  0  0  0  0  0  0
  -31.1660  -17.5350   20.5060 C   0  0  0  0  0  3  0  0  0  0  0  0
  -32.1260  -17.4840   21.6190 N   0  0  0  0  0  4  0  0  0  0  0  0
  -31.6980  -17.7910   22.4740 H   0  0  0  0  0  0  0  0  0  0  0  0
  -32.8790  -18.1160   21.4030 H   0  0  0  0  0  0  0  0  0  0  0  0
  -32.4970  -16.5580   21.7400 H   0  0  0  0  0  0  0  0  0  0  0  0
  -29.8710  -16.7370   20.8210 C   0  0  0  0  0  2  0  0  0  0  0  0
  -30.6350  -14.3800   20.4640 C   0  0  0  0  0  0  0  0  0  0  0  0
  -30.3170  -12.2630   19.2510 C   0  0  0  0  0  2  0  0  0  0  0  0
  -29.3840  -12.5320   18.0510 C   0  0  0  0  0  2  0  0  0  0  0  0
  -27.9040  -12.4070   18.4700 C   0  0  0  0  0  2  0  0  0  0  0  0
  -27.5750  -13.2150   19.7540 C   0  0  0  0  0  3  0  0  0  0  0  0
  -28.6150  -12.9180   20.8580 C   0  0  0  0  0  2  0  0  0  0  0  0
  -29.9570  -13.2080   20.3200 N   0  0  0  0  0  0  0  0  0  0  0  0
  -31.6990  -14.6280   19.8960 O   0  0  0  0  0  0  0  0  0  0  0  0
  -29.9900  -15.3130   21.1760 N   0  0  0  0  0  0  0  0  0  0  0  0
  -29.2010  -14.9460   21.6900 H   0  0  0  0  0  0  0  0  0  0  0  0
  -25.1590  -13.8440   20.3950 C   0  0  0  0  0  0  0  0  0  0  0  0
  -24.0830  -13.0810   20.7640 C   0  0  0  0  0  0  0  0  0  0  0  0
  -24.5420  -11.7280   20.7670 C   0  0  0  0  0  0  0  0  0  0  0  0
  -26.2100  -12.9560   20.2070 N   0  0  0  0  0  0  0  0  0  0  0  0
  -25.8360  -11.6790   20.4790 N   0  0  0  0  0  0  0  0  0  0  0  0
  -23.8110  -10.4720   20.9750 C   0  0  0  0  0  0  0  0  0  0  0  0
  -24.2390   -9.5160   21.9230 C   0  0  0  0  0  3  0  0  0  0  0  0
  -23.5100   -8.3220   22.1170 C   0  0  0  0  0  3  0  0  0  0  0  0
  -22.3370   -8.0780   21.3630 C   0  0  0  0  0  0  0  0  0  0  0  0
  -21.9270   -9.0230   20.4070 C   0  0  0  0  0  3  0  0  0  0  0  0
  -22.6560  -10.2080   20.2120 C   0  0  0  0  0  3  0  0  0  0  0  0
  -21.5770   -6.9370   21.4650 O   0  0  0  0  0  0  0  0  0  0  0  0
  -21.5410   -6.1970   22.6190 C   0  0  0  0  0  0  0  0  0  0  0  0
  -21.1530   -6.7610   23.8530 C   0  0  0  0  0  3  0  0  0  0  0  0
  -21.0690   -5.9510   25.0020 C   0  0  0  0  0  3  0  0  0  0  0  0
  -21.3550   -4.5760   24.9180 C   0  0  0  0  0  0  0  0  0  0  0  0
  -21.7360   -4.0110   23.6880 C   0  0  0  0  0  3  0  0  0  0  0  0
  -21.8260   -4.8190   22.5410 C   0  0  0  0  0  0  0  0  0  0  0  0
  -22.1730   -4.2650   21.3550 F   0  0  0  0  0  0  0  0  0  0  0  0
  -21.2650   -3.7960   26.0190 F   0  0  0  0  0  0  0  0  0  0  0  0
  -22.6830  -13.5650   21.0110 C   0  0  0  0  0  0  0  0  0  0  0  0
  -21.9420  -12.8860   21.8800 N   0  0  0  0  0  0  0  0  0  0  0  0
  -22.2530  -14.5830   20.4680 O   0  0  0  0  0  0  0  0  0  0  0  0
  -22.2970  -12.0600   22.3380 H   0  0  0  0  0  0  0  0  0  0  0  0
  -21.0020  -13.1920   22.0870 H   0  0  0  0  0  0  0  0  0  0  0  0
  -25.3280  -15.2110   20.1930 N   0  0  0  0  0  0  0  0  0  0  0  0
  -24.5600  -15.8670   20.2870 H   0  0  0  0  0  0  0  0  0  0  0  0
  -26.1880  -15.6490   19.8930 H   0  0  0  0  0  0  0  0  0  0  0  0
  -30.0440  -24.1790   20.6900 O   0  0  0  0  0  0  0  0  0  0  0  0
  -28.7180  -24.1710   20.2020 C   0  0  0  0  0  2  0  0  0  0  0  0
  -27.9930  -25.3380   20.8710 C   0  0  0  0  0  2  0  0  0  0  0  0
  -28.2800  -26.6020   20.2380 O   0  0  0  0  0  0  0  0  0  0  0  0
  -24.5960  -31.8820   23.2450 C   0  0  0  0  0  0  0  0  0  0  0  0
  -27.1770  -27.4160   20.1690 C   0  0  0  0  0  0  0  0  0  0  0  0
  -23.3800  -30.4830   21.6130 C   0  0  0  0  0  3  0  0  0  0  0  0
  -24.8150  -28.9560   20.1660 C   0  0  0  0  0  0  0  0  0  0  0  0
  -25.9030  -30.8340   21.3970 C   0  0  0  0  0  2  0  0  0  0  0  0
  -25.9810  -29.4640   20.7560 C   0  0  0  0  0  0  0  0  0  0  0  0
  -27.1730  -28.6990   20.7590 C   0  0  0  0  0  3  0  0  0  0  0  0
  -26.0080  -26.9420   19.5390 C   0  0  0  0  0  3  0  0  0  0  0  0
  -24.8250  -27.6980   19.5480 C   0  0  0  0  0  3  0  0  0  0  0  0
  -23.5720  -29.8160   20.2290 C   0  0  0  0  0  2  0  0  0  0  0  0
  -24.6450  -31.0800   22.1440 N   0  0  0  0  0  0  0  0  0  0  0  0
  -23.5190  -32.1580   23.7900 O   0  0  0  0  0  0  0  0  0  0  0  0
  -22.7320  -29.4580   22.5740 C   0  0  0  0  0  0  0  0  0  0  0  0
  -21.4080  -29.2720   22.4450 N   0  0  0  0  0  0  0  0  0  0  0  0
  -23.4160  -28.8360   23.3910 O   0  0  0  0  0  0  0  0  0  0  0  0
  -20.9210  -29.8250   21.7520 H   0  0  0  0  0  0  0  0  0  0  0  0
  -18.0350  -28.0680   22.9370 C   0  0  0  0  0  0  0  0  0  0  0  0
  -20.5900  -28.3370   23.2190 C   0  0  0  0  0  3  0  0  0  0  0  0
  -20.7000  -26.9030   22.6520 C   0  0  0  0  0  2  0  0  0  0  0  0
  -19.6040  -26.5710   21.6350 C   0  0  0  0  0  2  0  0  0  0  0  0
  -18.2180  -26.7150   22.2700 C   0  0  0  0  0  2  0  0  0  0  0  0
  -19.1490  -28.8350   23.3670 C   0  0  0  0  0  0  0  0  0  0  0  0
  -18.9260  -30.1010   23.9490 C   0  0  0  0  0  3  0  0  0  0  0  0
  -17.6210  -30.6040   24.1030 C   0  0  0  0  0  3  0  0  0  0  0  0
  -16.5200  -29.8340   23.6950 C   0  0  0  0  0  3  0  0  0  0  0  0
  -16.7280  -28.5670   23.1190 C   0  0  0  0  0  3  0  0  0  0  0  0
  -25.8860  -32.5090   23.8580 C   0  0  0  0  0  3  0  0  0  0  0  0
  -25.5780  -33.9060   24.1910 N   0  0  0  0  0  0  0  0  0  0  0  0
  -25.9060  -34.9580   23.4310 C   0  0  0  0  0  0  0  0  0  0  0  0
  -26.5720  -34.8550   22.3970 O   0  0  0  0  0  0  0  0  0  0  0  0
  -24.9860  -34.0610   24.9950 H   0  0  0  0  0  0  0  0  0  0  0  0
  -24.1730  -36.7490   23.0850 C   0  0  0  0  0  1  0  0  0  0  0  0
  -25.4170  -36.3450   23.8910 C   0  0  0  0  0  3  0  0  0  0  0  0
  -27.5540  -37.2280   24.7120 C   0  0  0  0  0  1  0  0  0  0  0  0
  -26.4460  -37.4000   23.7770 N   0  0  0  0  0  0  0  0  0  0  0  0
  -26.0390  -38.3180   23.9350 H   0  0  0  0  0  0  0  0  0  0  0  0
  -26.4130  -31.7340   25.1270 C   0  0  1  0  0  0  0  0  0  0  0  0
  -25.3290  -31.4850   26.2050 C   0  0  0  0  0  1  0  0  0  0  0  0
  -26.9960  -30.3590   24.7190 C   0  0  0  0  0  1  0  0  0  0  0  0
  -27.5740  -32.5240   25.7780 C   0  0  0  0  0  1  0  0  0  0  0  0
  1  5  1  0
  3  1  2  0
  3  4  1  0
  4  6  2  0
  5 11  1  0
  5  2  2  0
  6  2  1  0
  6 58  1  0
  7  3  1  0
  8  4  1  0
  9  7  1  0
  9 10  1  0
 10  8  1  0
 11 13  1  0
 12 11  1  0
 14 13  1  0
 14 19  1  0
 14 15  1  0
 15 18  1  0
 15 16  1  0
 17 15  1  0
 19 28  1  0
 20 28  1  0
 21 26  1  0
 22 23  1  0
 22 21  1  0
 24 23  1  0
 24 33  1  0
 24 25  1  0
 26 20  1  0
 26 25  1  0
 27 20  2  0
 28 29  1  0
 30 31  2  0
 31 32  1  0
 31 50  1  0
 32 35  1  0
 33 30  1  0
 33 34  1  0
 34 32  2  0
 35 36  1  0
 36 37  2  0
 38 41  1  0
 38 37  1  0
 39 38  2  0
 40 39  1  0
 40 35  2  0
 41 42  1  0
 42 43  1  0
 43 44  2  0
 45 44  1  0
 45 49  1  0
 46 45  2  0
 47 42  2  0
 47 46  1  0
 48 47  1  0
 50 51  1  0
 51 54  1  0
 51 53  1  0
 52 50  2  0
 55 56  1  0
 55 30  1  0
 57 55  1  0
 59 58  1  0
 59 60  1  0
 61 60  1  0
 62 73  2  0
 63 61  1  0
 63 68  1  0
 64 72  1  0
 64 74  1  0
 65 71  1  0
 65 67  1  0
 66 72  1  0
 67 68  2  0
 67 66  1  0
 69 70  1  0
 69 63  2  0
 70 65  2  0
 71 64  1  0
 72 62  1  0
 74 76  2  0
 75 74  1  0
 77 75  1  0
 78 87  2  0
 78 83  1  0
 79 75  1  0
 79 83  1  0
 80 79  1  0
 81 82  1  0
 81 80  1  0
 82 78  1  0
 83 84  2  0
 84 85  1  0
 86 85  2  0
 87 86  1  0
 88 62  1  0
 88 89  1  0
 88 98  1  0
 89 92  1  0
 90 94  1  0
 90 89  1  0
 91 90  2  0
 94 93  1  0
 96 94  1  0
 96 97  1  0
 96 95  1  0
 98101  1  1
 98 99  1  0
100 98  1  0
M  ISO  4  20 100  28 100  60 101  61 101
M  END
>  <TORSDO>  (34) 
F 24

>  <SCORE>  (34) 
-12.150

>  <name>  (34) 
33

>  <ligand_id>  (34) 
33

>  <original_smiles>  (34) 
[H]c1c([H])c([H])c2c(c1[H])C([H])([H])C([H])([H])C([H])([H])C2([H])N([H])C(=O)C1([H])N(C(=O)C([H])(N([H])C(=O)C([H])(N([H])C([H])([H])[H])C([H])([H])[H])C(C([H])([H])[H])(C([H])([H])[H])C([H])([H])[H])C([H])([H])c2c([H])c(OC([H])([H])C([H])([H])Oc3c([H])c(N([H])C([H])([H])C([H])(C([H])([H])N([H])C(=O)N4C([H])([H])C([H])([H])C([H])([H])C([H])(n5nc(-c6c([H])c([H])c(Oc7c([H])c([H])c(F)c([H])c7F)c([H])c6[H])c(C(=O)N([H])[H])c5N([H])[H])C4([H])[H])[N+]([H])([H])[H])c([H])c4c3C([H])([H])C([H])([H])C([H])([H])C4([H])[H])c([H])c([H])c2C1([H])[H]

>  <smiles>  (34) 
[H]c1c([H])c([H])c2c(c1[H])C([H])([H])C([H])([H])C([H])([H])C2([H])N([H])C(=O)C1([H])N(C(=O)C([H])(N([H])C(=O)C([H])(N([H])C([H])([H])[H])C([H])([H])[H])C(C([H])([H])[H])(C([H])([H])[H])C([H])([H])[H])C([H])([H])c2c([H])c(OC([H])([H])C([H])([H])Oc3c([H])c(N([H])C([H])([H])C([H])(C([H])([H])N([H])C(=O)N4C([H])([H])C([H])([H])C([H])([H])C([H])(n5nc(-c6c([H])c([H])c(Oc7c([H])c([H])c(F)c([H])c7F)c([H])c6[H])c(C(=O)N([H])[H])c5N([H])[H])C4([H])[H])[N+]([H])([H])[H])c([H])c4c3C([H])([H])C([H])([H])C([H])([H])C4([H])[H])c([H])c([H])c2C1([H])[H]

$$$$
34:0:0
     RDKit          3D

 95 91  0  0  1  0  0  0  0  0999 V2000
  -26.3260  -15.0940   21.9130 C   0  0  0  0  0 15  0  0  0  0  0  0
  -27.3270  -14.9680   18.3760 C   0  0  0  0  0 15  0  0  0  0  0  0
  -26.9140  -12.9940   22.2250 C   0  0  0  0  0  1  0  0  0  0  0  0
  -27.9870  -12.8880   18.4910 C   0  0  0  0  0  1  0  0  0  0  0  0
  -27.8040  -11.7430   20.6640 C   0  0  0  0  0  1  0  0  0  0  0  0
  -26.6410  -16.1730   20.0270 C   0  0  0  0  0  1  0  0  0  0  0  0
  -26.8870  -12.2680   23.5370 C   0  0  0  0  0  2  0  0  0  0  0  0
  -28.1100  -11.3110   23.6080 C   0  0  0  0  0  2  0  0  0  0  0  0
  -28.3670  -10.1880   22.5330 C   0  0  0  0  0  2  0  0  0  0  0  0
  -28.1550  -10.4500   21.0950 N   0  0  0  0  0  0  0  0  0  0  0  0
  -28.6030   -9.8320   20.4250 H   0  0  0  0  0  0  0  0  0  0  0  0
  -29.3440  -13.1610   17.5520 C   0  0  0  0  0  2  0  0  0  0  0  0
  -30.8080  -13.9830   18.0180 C   0  0  0  0  0  2  0  0  0  0  0  0
  -32.3080  -13.2960   20.4060 C   0  0  0  0  0  0  0  0  0  0  0  0
  -31.9960  -10.9860   20.1100 C   0  0  0  0  0  2  0  0  0  0  0  0
  -31.1830  -10.9890   18.8140 C   0  0  0  0  0  2  0  0  0  0  0  0
  -29.8020  -11.3090   19.3120 C   0  0  0  0  0  2  0  0  0  0  0  0
  -29.6250  -12.6740   20.3180 C   0  0  0  0  0  2  0  0  0  0  0  0
  -30.3790  -12.2920   21.5180 C   0  0  0  0  0  2  0  0  0  0  0  0
  -31.6770  -12.2000   20.8660 N   0  0  0  0  0  0  0  0  0  0  0  0
  -33.2990  -13.6630   21.0220 O   0  0  0  0  0  0  0  0  0  0  0  0
  -32.0210  -13.7320   19.0710 N   0  0  0  0  0  0  0  0  0  0  0  0
  -32.8050  -14.3030   18.7850 H   0  0  0  0  0  0  0  0  0  0  0  0
  -26.4360  -13.9950   20.3920 C   0  0  0  0  0  1  0  0  0  0  0  0
  -25.1280  -13.2450   20.4580 C   0  0  0  0  0  0  0  0  0  0  0  0
  -25.3680  -11.9960   20.0980 C   0  0  0  0  0  2  0  0  0  0  0  0
  -27.9860  -13.8350   20.5690 N   0  0  0  0  0  1  0  0  0  0  0  0
  -26.1360  -13.3030   20.2900 N   0  0  0  0  0  2  0  0  0  0  0  0
  -24.6720  -10.6560   20.7130 C   0  0  0  0  0  3  0  0  0  0  0  0
  -24.9180   -9.7430   21.8240 C   0  0  0  0  0  3  0  0  0  0  0  0
  -24.1440   -8.5490   22.1040 C   0  0  0  0  0  3  0  0  0  0  0  0
  -23.0000   -8.2340   21.3270 C   0  0  0  0  0  0  0  0  0  0  0  0
  -22.7350   -9.1070   20.2590 C   0  0  0  0  0  3  0  0  0  0  0  0
  -23.5490  -10.2300   19.9620 C   0  0  0  0  0  3  0  0  0  0  0  0
  -22.1390   -7.1460   21.4650 O   0  0  0  0  0  0  0  0  0  0  0  0
  -21.9370   -6.4220   22.6270 C   0  0  0  0  0  0  0  0  0  0  0  0
  -21.5920   -7.0370   23.8510 C   0  0  0  0  0  3  0  0  0  0  0  0
  -21.3360   -6.2510   24.9970 C   0  0  0  0  0  3  0  0  0  0  0  0
  -21.4200   -4.8470   24.9300 C   0  0  0  0  0  0  0  0  0  0  0  0
  -21.7310   -4.2260   23.7100 C   0  0  0  0  0  3  0  0  0  0  0  0
  -21.9780   -5.0070   22.5630 C   0  0  0  0  0  0  0  0  0  0  0  0
  -22.2440   -4.3850   21.3870 F   0  0  0  0  0  0  0  0  0  0  0  0
  -21.1930   -4.0950   26.0330 F   0  0  0  0  0  0  0  0  0  0  0  0
  -23.6970  -13.7260   20.5870 C   0  0  0  0  0  0  0  0  0  0  0  0
  -22.9010  -13.0590   21.4160 N   0  0  0  0  0  0  0  0  0  0  0  0
  -23.3570  -14.6740   19.9010 O   0  0  0  0  0  0  0  0  0  0  0  0
  -23.2390  -12.2670   21.9380 H   0  0  0  0  0  0  0  0  0  0  0  0
  -21.9350  -13.3290   21.5140 H   0  0  0  0  0  0  0  0  0  0  0  0
  -28.1790  -14.2650   20.6620 N   0  0  0  0  0  0  0  0  0  0  0  0
  -28.3820  -15.2520   20.6260 H   0  0  0  0  0  0  0  0  0  0  0  0
  -28.2660  -13.9650   21.6330 H   0  0  0  0  0  0  0  0  0  0  0  0
  -26.5580  -17.9680   19.9520 O   0  0  0  0  0  1  0  0  0  0  0  0
  -27.2970  -19.8150   19.6530 C   0  0  0  0  0 15  0  0  0  0  0  0
  -27.1200  -22.0570   19.5830 C   0  0  0  0  0 15  0  0  0  0  0  0
  -27.8260  -23.9450   19.5700 O   0  0  0  0  0  1  0  0  0  0  0  0
  -24.9910  -30.8730   22.5820 C   0  0  0  0  0  0  0  0  0  0  0  0
  -27.3040  -25.5220   19.5180 C   0  0  0  0  0  0  0  0  0  0  0  0
  -23.9340  -29.5630   20.8120 C   0  0  0  0  0  3  0  0  0  0  0  0
  -25.4290  -27.9890   19.3520 C   0  0  0  0  0  0  0  0  0  0  0  0
  -26.5170  -29.5720   20.8960 C   0  0  0  0  0  2  0  0  0  0  0  0
  -26.5610  -28.1390   20.1540 C   0  0  0  0  0  0  0  0  0  0  0  0
  -27.5070  -26.9340   20.1990 C   0  0  0  0  0  3  0  0  0  0  0  0
  -26.2930  -25.7700   18.5710 C   0  0  0  0  0  3  0  0  0  0  0  0
  -25.3850  -26.8670   18.5160 C   0  0  0  0  0  3  0  0  0  0  0  0
  -24.2680  -28.9960   19.4000 C   0  0  0  0  0  2  0  0  0  0  0  0
  -25.1790  -30.0520   21.4820 N   0  0  0  0  0  0  0  0  0  0  0  0
  -23.8570  -31.1280   23.0280 O   0  0  0  0  0  0  0  0  0  0  0  0
  -23.1940  -28.5010   21.6700 C   0  0  0  0  0  0  0  0  0  0  0  0
  -21.8540  -28.4110   21.5630 N   0  0  0  0  0  0  0  0  0  0  0  0
  -23.8380  -27.7640   22.4210 O   0  0  0  0  0  0  0  0  0  0  0  0
  -21.3820  -29.0570   20.9470 H   0  0  0  0  0  0  0  0  0  0  0  0
  -18.4300  -27.3350   22.1370 C   0  0  0  0  0  0  0  0  0  0  0  0
  -21.0150  -27.4170   22.2430 C   0  0  0  0  0  3  0  0  0  0  0  0
  -20.9820  -26.0870   21.4540 C   0  0  0  0  0  2  0  0  0  0  0  0
  -19.7990  -25.9930   20.4850 C   0  0  0  0  0  2  0  0  0  0  0  0
  -18.4730  -26.1070   21.2440 C   0  0  0  0  0  2  0  0  0  0  0  0
  -19.6230  -27.9590   22.5940 C   0  0  0  0  0  0  0  0  0  0  0  0
  -19.5210  -29.1120   23.4010 C   0  0  0  0  0  3  0  0  0  0  0  0
  -18.2640  -29.6420   23.7490 C   0  0  0  0  0  3  0  0  0  0  0  0
  -17.0890  -29.0120   23.3040 C   0  0  0  0  0  3  0  0  0  0  0  0
  -17.1730  -27.8600   22.5030 C   0  0  0  0  0  3  0  0  0  0  0  0
  -26.1770  -31.5450   23.3370 C   0  0  0  0  0  3  0  0  0  0  0  0
  -25.7370  -32.8770   23.8130 N   0  0  0  0  0  0  0  0  0  0  0  0
  -26.0560  -34.0540   23.2590 C   0  0  0  0  0  0  0  0  0  0  0  0
  -26.8040  -34.1400   22.2830 O   0  0  0  0  0  0  0  0  0  0  0  0
  -25.0700  -32.8780   24.5710 H   0  0  0  0  0  0  0  0  0  0  0  0
  -24.2500  -35.8070   23.0450 C   0  0  0  0  0  1  0  0  0  0  0  0
  -25.4560  -35.3380   23.8760 C   0  0  0  0  0  3  0  0  0  0  0  0
  -27.4640  -36.2100   24.9950 C   0  0  0  0  0  1  0  0  0  0  0  0
  -26.4260  -36.4490   23.9970 N   0  0  0  0  0  0  0  0  0  0  0  0
  -25.9520  -37.3170   24.2350 H   0  0  0  0  0  0  0  0  0  0  0  0
  -26.6800  -30.6960   24.5720 C   0  0  1  0  0  0  0  0  0  0  0  0
  -25.5570  -30.3020   25.5610 C   0  0  0  0  0  1  0  0  0  0  0  0
  -27.3660  -29.3910   24.1120 C   0  0  0  0  0  1  0  0  0  0  0  0
  -27.7500  -31.4930   25.3560 C   0  0  0  0  0  1  0  0  0  0  0  0
  3  7  1  0
  5 10  1  0
  7  8  1  0
  9  8  1  0
 10  9  1  0
 11 10  1  0
 12 13  1  0
 12  4  1  0
 13 22  1  0
 14 20  1  0
 14 21  2  0
 15 20  1  0
 16 17  1  0
 16 15  1  0
 17 18  1  0
 18 19  1  0
 20 19  1  0
 22 14  1  0
 23 22  1  0
 25 44  1  0
 26 25  2  0
 27 49  1  0
 28 24  1  0
 28 25  1  0
 29 30  1  0
 30 31  2  0
 32 35  1  0
 32 31  1  0
 33 32  2  0
 34 33  1  0
 34 29  2  0
 35 36  1  0
 36 37  1  0
 37 38  2  0
 39 38  1  0
 39 43  1  0
 40 39  2  0
 41 36  2  0
 41 40  1  0
 42 41  1  0
 44 45  1  0
 45 48  1  0
 45 47  1  0
 46 44  2  0
 49 51  1  0
 50 49  1  0
 52  6  1  0
 56 67  2  0
 57 55  1  0
 57 62  1  0
 58 66  1  0
 58 68  1  0
 59 65  1  0
 59 61  1  0
 60 66  1  0
 61 62  2  0
 61 60  1  0
 63 57  2  0
 64 63  1  0
 64 59  2  0
 65 58  1  0
 66 56  1  0
 68 70  2  0
 69 68  1  0
 71 69  1  0
 72 81  2  0
 72 77  1  0
 73 69  1  0
 73 77  1  0
 74 73  1  0
 75 76  1  0
 75 74  1  0
 76 72  1  0
 77 78  2  0
 78 79  1  0
 80 79  2  0
 81 80  1  0
 82 56  1  0
 82 83  1  0
 82 92  1  0
 83 86  1  0
 84 83  1  0
 84 88  1  0
 85 84  2  0
 88 87  1  0
 88 90  1  0
 90 91  1  0
 90 89  1  0
 92 95  1  1
 92 93  1  0
 94 92  1  0
M  ISO  4  14 100  22 100  54 101  55 101
M  END
>  <TORSDO>  (35) 
F 21

>  <SCORE>  (35) 
-4.008

>  <name>  (35) 
34

>  <ligand_id>  (35) 
34

>  <original_smiles>  (35) 
[H]c1c([H])c([H])c2c(c1[H])C([H])([H])C([H])([H])C([H])([H])C2([H])N([H])C(=O)C1([H])N(C(=O)C([H])(N([H])C(=O)C([H])(N([H])C([H])([H])[H])C([H])([H])[H])C(C([H])([H])[H])(C([H])([H])[H])C([H])([H])[H])C([H])([H])c2c([H])c(OC([H])([H])C([H])([H])Oc3c([H])c(C([H])([H])C([H])([H])N([H])C(=O)N4C([H])([H])C([H])([H])C([H])([H])C([H])(n5nc(-c6c([H])c([H])c(Oc7c([H])c([H])c(F)c([H])c7F)c([H])c6[H])c(C(=O)N([H])[H])c5N([H])[H])C4([H])[H])c4c(c3[H])C([H])([H])C([H])([H])C([H])([H])N4[H])c([H])c([H])c2C1([H])[H]

>  <smiles>  (35) 
[H]c1c([H])c([H])c2c(c1[H])C([H])([H])C([H])([H])C([H])([H])C2([H])N([H])C(=O)C1([H])N(C(=O)C([H])(N([H])C(=O)C([H])(N([H])C([H])([H])[H])C([H])([H])[H])C(C([H])([H])[H])(C([H])([H])[H])C([H])([H])[H])C([H])([H])c2c([H])c(OC([H])([H])C([H])([H])Oc3c([H])c(C([H])([H])C([H])([H])N([H])C(=O)N4C([H])([H])C([H])([H])C([H])([H])C([H])(n5nc(-c6c([H])c([H])c(Oc7c([H])c([H])c(F)c([H])c7F)c([H])c6[H])c(C(=O)N([H])[H])c5N([H])[H])C4([H])[H])c4c(c3[H])C([H])([H])C([H])([H])C([H])([H])N4[H])c([H])c([H])c2C1([H])[H]

$$$$
35:0:0
     RDKit          3D

 94103  0  0  1  0  0  0  0  0999 V2000
  -30.6860  -22.2310   19.8500 C   0  0  0  0  0  3  0  0  0  0  0  0
  -30.6710  -20.8390   20.0950 C   0  0  0  0  0  3  0  0  0  0  0  0
  -28.5530  -21.0800   21.2510 C   0  0  0  0  0  3  0  0  0  0  0  0
  -29.6350  -23.0610   20.3010 C   0  0  0  0  0  0  0  0  0  0  0  0
  -28.5550  -22.4740   21.0040 C   0  0  0  0  0  0  0  0  0  0  0  0
  -29.6050  -20.2430   20.8090 C   0  0  0  0  0  0  0  0  0  0  0  0
  -29.6770  -24.5730   20.0390 C   0  0  0  0  0  2  0  0  0  0  0  0
  -27.6140  -24.7090   21.4570 C   0  0  0  0  0  2  0  0  0  0  0  0
  -28.2900  -25.2400   20.1720 C   0  0  0  0  0  3  0  0  0  0  0  0
  -27.4770  -23.2550   21.4530 N   0  0  0  0  0  0  0  0  0  0  0  0
  -26.7750  -22.8350   22.0590 H   0  0  0  0  0  0  0  0  0  0  0  0
  -29.5380  -18.8660   21.1220 N   0  0  0  0  0  0  0  0  0  0  0  0
  -28.7140  -18.5360   21.6190 H   0  0  0  0  0  0  0  0  0  0  0  0
  -30.4040  -17.8300   20.5490 C   0  0  0  0  0  2  0  0  0  0  0  0
  -30.6800  -16.6870   21.5610 C   0  0  0  0  0  2  0  0  0  0  0  0
  -30.7190  -14.4520   20.4110 C   0  0  0  0  0  0  0  0  0  0  0  0
  -30.3670  -12.3390   19.1780 C   0  0  0  0  0  2  0  0  0  0  0  0
  -29.4110  -12.5730   17.9910 C   0  0  0  0  0  2  0  0  0  0  0  0
  -27.9410  -12.4390   18.4390 C   0  0  0  0  0  2  0  0  0  0  0  0
  -27.6300  -13.2590   19.7190 C   0  0  0  0  0  3  0  0  0  0  0  0
  -28.6920  -12.9990   20.8100 C   0  0  0  0  0  2  0  0  0  0  0  0
  -30.0150  -13.3000   20.2350 N   0  0  0  0  0  0  0  0  0  0  0  0
  -31.8080  -14.6650   19.8720 O   0  0  0  0  0  0  0  0  0  0  0  0
  -30.1200  -15.3890   21.1640 N   0  0  0  0  0  0  0  0  0  0  0  0
  -29.2140  -15.1510   21.5380 H   0  0  0  0  0  0  0  0  0  0  0  0
  -25.2350  -13.8830   20.4320 C   0  0  0  0  0  0  0  0  0  0  0  0
  -24.1660  -13.1200   20.8120 C   0  0  0  0  0  0  0  0  0  0  0  0
  -24.6220  -11.7650   20.7910 C   0  0  0  0  0  0  0  0  0  0  0  0
  -26.2770  -12.9960   20.2050 N   0  0  0  0  0  0  0  0  0  0  0  0
  -25.9090  -11.7180   20.4770 N   0  0  0  0  0  0  0  0  0  0  0  0
  -23.8910  -10.5080   20.9960 C   0  0  0  0  0  0  0  0  0  0  0  0
  -24.3300   -9.5430   21.9300 C   0  0  0  0  0  3  0  0  0  0  0  0
  -23.6020   -8.3490   22.1220 C   0  0  0  0  0  3  0  0  0  0  0  0
  -22.4200   -8.1130   21.3800 C   0  0  0  0  0  0  0  0  0  0  0  0
  -22.0000   -9.0660   20.4350 C   0  0  0  0  0  3  0  0  0  0  0  0
  -22.7300  -10.2510   20.2420 C   0  0  0  0  0  3  0  0  0  0  0  0
  -21.6620   -6.9700   21.4820 O   0  0  0  0  0  0  0  0  0  0  0  0
  -21.6270   -6.2300   22.6360 C   0  0  0  0  0  0  0  0  0  0  0  0
  -21.2270   -6.7910   23.8680 C   0  0  0  0  0  3  0  0  0  0  0  0
  -21.1380   -5.9770   25.0150 C   0  0  0  0  0  3  0  0  0  0  0  0
  -21.4400   -4.6040   24.9320 C   0  0  0  0  0  0  0  0  0  0  0  0
  -21.8320   -4.0430   23.7040 C   0  0  0  0  0  3  0  0  0  0  0  0
  -21.9230   -4.8540   22.5580 C   0  0  0  0  0  0  0  0  0  0  0  0
  -22.2820   -4.3050   21.3730 F   0  0  0  0  0  0  0  0  0  0  0  0
  -21.3460   -3.8210   26.0310 F   0  0  0  0  0  0  0  0  0  0  0  0
  -22.7720  -13.6040   21.0890 C   0  0  0  0  0  0  0  0  0  0  0  0
  -22.0470  -12.9180   21.9650 N   0  0  0  0  0  0  0  0  0  0  0  0
  -22.3350  -14.6270   20.5640 O   0  0  0  0  0  0  0  0  0  0  0  0
  -22.4130  -12.0900   22.4120 H   0  0  0  0  0  0  0  0  0  0  0  0
  -21.1120  -13.2250   22.1940 H   0  0  0  0  0  0  0  0  0  0  0  0
  -25.4060  -15.2520   20.2400 N   0  0  0  0  0  0  0  0  0  0  0  0
  -24.6430  -15.9130   20.3450 H   0  0  0  0  0  0  0  0  0  0  0  0
  -26.2600  -15.6820   19.9100 H   0  0  0  0  0  0  0  0  0  0  0  0
  -28.3920  -26.6820   20.1900 O   0  0  0  0  0  0  0  0  0  0  0  0
  -24.5890  -31.8870   23.2410 C   0  0  0  0  0  0  0  0  0  0  0  0
  -27.2210  -27.4220   20.1600 C   0  0  0  0  0  0  0  0  0  0  0  0
  -23.3820  -30.4920   21.5980 C   0  0  0  0  0  3  0  0  0  0  0  0
  -24.8310  -28.9540   20.1730 C   0  0  0  0  0  0  0  0  0  0  0  0
  -25.9130  -30.8370   21.4060 C   0  0  0  0  0  2  0  0  0  0  0  0
  -25.9940  -29.4670   20.7610 C   0  0  0  0  0  0  0  0  0  0  0  0
  -27.1900  -28.7100   20.7490 C   0  0  0  0  0  3  0  0  0  0  0  0
  -26.0350  -26.9350   19.5600 C   0  0  0  0  0  3  0  0  0  0  0  0
  -24.8490  -27.6870   19.5690 C   0  0  0  0  0  3  0  0  0  0  0  0
  -23.5910  -29.8160   20.2170 C   0  0  0  0  0  2  0  0  0  0  0  0
  -24.6460  -31.0870   22.1400 N   0  0  0  0  0  0  0  0  0  0  0  0
  -23.5080  -32.1630   23.7790 O   0  0  0  0  0  0  0  0  0  0  0  0
  -22.7260  -29.4690   22.5540 C   0  0  0  0  0  0  0  0  0  0  0  0
  -21.4000  -29.2960   22.4270 N   0  0  0  0  0  0  0  0  0  0  0  0
  -23.4060  -28.8370   23.3650 O   0  0  0  0  0  0  0  0  0  0  0  0
  -20.9130  -29.8580   21.7430 H   0  0  0  0  0  0  0  0  0  0  0  0
  -18.0160  -28.1340   22.9340 C   0  0  0  0  0  0  0  0  0  0  0  0
  -20.5780  -28.3630   23.1960 C   0  0  0  0  0  3  0  0  0  0  0  0
  -20.6620  -26.9350   22.6100 C   0  0  0  0  0  2  0  0  0  0  0  0
  -19.5520  -26.6300   21.6000 C   0  0  0  0  0  2  0  0  0  0  0  0
  -18.1750  -26.7870   22.2500 C   0  0  0  0  0  2  0  0  0  0  0  0
  -19.1440  -28.8810   23.3630 C   0  0  0  0  0  0  0  0  0  0  0  0
  -18.9420  -30.1440   23.9620 C   0  0  0  0  0  3  0  0  0  0  0  0
  -17.6440  -30.6590   24.1360 C   0  0  0  0  0  3  0  0  0  0  0  0
  -16.5290  -29.9080   23.7230 C   0  0  0  0  0  3  0  0  0  0  0  0
  -16.7160  -28.6470   23.1270 C   0  0  0  0  0  3  0  0  0  0  0  0
  -25.8760  -32.5130   23.8630 C   0  0  0  0  0  3  0  0  0  0  0  0
  -26.3930  -31.7370   25.1370 C   0  0  1  0  0  0  0  0  0  0  0  0
  -25.2990  -31.4960   26.2040 C   0  0  0  0  0  1  0  0  0  0  0  0
  -26.9740  -30.3600   24.7390 C   0  0  0  0  0  1  0  0  0  0  0  0
  -27.5440  -32.5280   25.8010 C   0  0  0  0  0  1  0  0  0  0  0  0
  -25.5710  -33.9110   24.1950 N   0  0  0  0  0  0  0  0  0  0  0  0
  -25.9070  -34.9620   23.4360 C   0  0  0  0  0  0  0  0  0  0  0  0
  -26.5760  -34.8590   22.4050 O   0  0  0  0  0  0  0  0  0  0  0  0
  -24.9770  -34.0660   24.9970 H   0  0  0  0  0  0  0  0  0  0  0  0
  -24.1800  -36.7570   23.0810 C   0  0  0  0  0  1  0  0  0  0  0  0
  -25.4210  -36.3520   23.8940 C   0  0  0  0  0  3  0  0  0  0  0  0
  -27.5570  -37.2310   24.7260 C   0  0  0  0  0  1  0  0  0  0  0  0
  -26.4550  -37.4020   23.7820 N   0  0  0  0  0  0  0  0  0  0  0  0
  -26.0520  -38.3240   23.9310 H   0  0  0  0  0  0  0  0  0  0  0  0
  1  2  2  0
  1  4  1  0
  2  6  1  0
  4  5  2  0
  5  3  1  0
  5 10  1  0
  6 12  1  0
  6  3  2  0
  7  9  1  0
  7  4  1  0
  9 54  1  0
  9  8  1  0
 10  8  1  0
 10 11  1  0
 12 13  1  0
 14 12  1  0
 14 15  1  0
 16 24  1  0
 17 22  1  0
 18 19  1  0
 18 17  1  0
 20 19  1  0
 20 29  1  0
 20 21  1  0
 22 16  1  0
 22 21  1  0
 23 16  2  0
 24 25  1  0
 24 15  1  0
 26 27  2  0
 27 46  1  0
 28 27  1  0
 28 31  1  0
 29 26  1  0
 29 30  1  0
 30 28  2  0
 31 32  1  0
 32 33  2  0
 34 37  1  0
 34 33  1  0
 35 34  2  0
 36 35  1  0
 36 31  2  0
 37 38  1  0
 38 39  1  0
 39 40  2  0
 41 40  1  0
 41 45  1  0
 42 41  2  0
 43 38  2  0
 43 42  1  0
 44 43  1  0
 46 47  1  0
 47 50  1  0
 47 49  1  0
 48 46  2  0
 51 52  1  0
 51 26  1  0
 53 51  1  0
 55 66  2  0
 56 54  1  0
 56 61  1  0
 57 65  1  0
 57 67  1  0
 58 64  1  0
 58 60  1  0
 59 65  1  0
 60 59  1  0
 61 60  2  0
 62 63  1  0
 62 56  2  0
 63 58  2  0
 64 57  1  0
 65 55  1  0
 67 69  2  0
 68 67  1  0
 70 68  1  0
 71 80  2  0
 71 76  1  0
 72 68  1  0
 72 76  1  0
 73 72  1  0
 74 75  1  0
 74 73  1  0
 75 71  1  0
 76 77  2  0
 77 78  1  0
 79 78  2  0
 80 79  1  0
 81 55  1  0
 81 86  1  0
 81 82  1  0
 82 85  1  1
 82 83  1  0
 84 82  1  0
 86 89  1  0
 87 91  1  0
 87 86  1  0
 88 87  2  0
 91 90  1  0
 93 91  1  0
 93 94  1  0
 93 92  1  0
M  ISO  4   9 101  16 100  24 100  54 101
M  END
>  <TORSDO>  (36) 
F 19

>  <SCORE>  (36) 
-14.756

>  <name>  (36) 
35

>  <ligand_id>  (36) 
35

>  <original_smiles>  (36) 
[H]c1c([H])c([H])c2c(c1[H])C([H])([H])C([H])([H])C([H])([H])C2([H])N([H])C(=O)C1([H])N(C(=O)C([H])(N([H])C(=O)C([H])(N([H])C([H])([H])[H])C([H])([H])[H])C(C([H])([H])[H])(C([H])([H])[H])C([H])([H])[H])C([H])([H])c2c([H])c(OC3([H])C([H])([H])c4c([H])c([H])c(N([H])C([H])([H])C([H])([H])N([H])C(=O)N5C([H])([H])C([H])([H])C([H])([H])C([H])(n6nc(-c7c([H])c([H])c(Oc8c([H])c([H])c(F)c([H])c8F)c([H])c7[H])c(C(=O)N([H])[H])c6N([H])[H])C5([H])[H])c([H])c4N([H])C3([H])[H])c([H])c([H])c2C1([H])[H]

>  <smiles>  (36) 
[H]c1c([H])c([H])c2c(c1[H])C([H])([H])C([H])([H])C([H])([H])C2([H])N([H])C(=O)C1([H])N(C(=O)C([H])(N([H])C(=O)C([H])(N([H])C([H])([H])[H])C([H])([H])[H])C(C([H])([H])[H])(C([H])([H])[H])C([H])([H])[H])C([H])([H])c2c([H])c(OC3([H])C([H])([H])c4c([H])c([H])c(N([H])C([H])([H])C([H])([H])N([H])C(=O)N5C([H])([H])C([H])([H])C([H])([H])C([H])(n6nc(-c7c([H])c([H])c(Oc8c([H])c([H])c(F)c([H])c8F)c([H])c7[H])c(C(=O)N([H])[H])c6N([H])[H])C5([H])[H])c([H])c4N([H])C3([H])[H])c([H])c([H])c2C1([H])[H]

$$$$
36:0:0
     RDKit          3D

 94103  0  0  1  0  0  0  0  0999 V2000
  -30.3470  -23.6310   19.7910 C   0  0  0  0  0  3  0  0  0  0  0  0
  -30.7160  -22.2770   20.0270 C   0  0  0  0  0  3  0  0  0  0  0  0
  -28.4090  -21.6420   20.1020 C   0  0  0  0  0  3  0  0  0  0  0  0
  -28.0220  -23.0110   19.8970 C   0  0  0  0  0  0  0  0  0  0  0  0
  -28.9940  -24.0430   19.6860 C   0  0  0  0  0  0  0  0  0  0  0  0
  -29.7650  -21.2330   20.1580 C   0  0  0  0  0  0  0  0  0  0  0  0
  -24.5010  -22.7770   19.5780 C   0  0  0  0  0  2  0  0  0  0  0  0
  -25.7100  -22.8870   18.6420 C   0  0  0  0  0  2  0  0  0  0  0  0
  -25.4920  -22.6610   20.7440 C   0  0  0  0  0  2  0  0  0  0  0  0
  -26.5380  -23.3480   19.8460 C   0  0  0  0  0  3  0  0  0  0  0  0
  -30.2340  -19.8880   20.3400 N   0  0  0  0  0  0  0  0  0  0  0  0
  -31.2400  -19.7930   20.4560 H   0  0  0  0  0  0  0  0  0  0  0  0
  -29.4920  -18.5890   20.3380 C   0  0  0  0  0  2  0  0  0  0  0  0
  -30.4610  -17.3160   20.3170 C   0  0  0  0  0  2  0  0  0  0  0  0
  -30.6210  -14.7730   20.2290 C   0  0  0  0  0  0  0  0  0  0  0  0
  -30.3290  -12.5390   19.1910 C   0  0  0  0  0  2  0  0  0  0  0  0
  -29.3800  -12.6770   17.9810 C   0  0  0  0  0  2  0  0  0  0  0  0
  -27.9160  -12.5230   18.4280 C   0  0  0  0  0  2  0  0  0  0  0  0
  -27.5750  -13.3950   19.6670 C   0  0  0  0  0  3  0  0  0  0  0  0
  -28.6460  -13.2680   20.7730 C   0  0  0  0  0  2  0  0  0  0  0  0
  -29.9470  -13.5810   20.1670 N   0  0  0  0  0  0  0  0  0  0  0  0
  -31.7930  -14.8520   19.8510 O   0  0  0  0  0  0  0  0  0  0  0  0
  -29.9200  -15.9210   20.4990 N   0  0  0  0  0  0  0  0  0  0  0  0
  -28.9620  -15.8220   20.8050 H   0  0  0  0  0  0  0  0  0  0  0  0
  -25.1870  -13.9950   20.3920 C   0  0  0  0  0  0  0  0  0  0  0  0
  -24.1250  -13.2240   20.7770 C   0  0  0  0  0  0  0  0  0  0  0  0
  -24.5880  -11.8730   20.7610 C   0  0  0  0  0  0  0  0  0  0  0  0
  -26.2320  -13.1140   20.1660 N   0  0  0  0  0  0  0  0  0  0  0  0
  -25.8780  -11.8350   20.4470 N   0  0  0  0  0  0  0  0  0  0  0  0
  -23.8640  -10.6130   20.9690 C   0  0  0  0  0  0  0  0  0  0  0  0
  -24.3080   -9.6510   21.9020 C   0  0  0  0  0  3  0  0  0  0  0  0
  -23.5820   -8.4550   22.0980 C   0  0  0  0  0  3  0  0  0  0  0  0
  -22.3980   -8.2150   21.3610 C   0  0  0  0  0  0  0  0  0  0  0  0
  -21.9740   -9.1650   20.4160 C   0  0  0  0  0  3  0  0  0  0  0  0
  -22.7000  -10.3520   20.2190 C   0  0  0  0  0  3  0  0  0  0  0  0
  -21.6430   -7.0710   21.4670 O   0  0  0  0  0  0  0  0  0  0  0  0
  -21.6230   -6.3260   22.6170 C   0  0  0  0  0  0  0  0  0  0  0  0
  -21.2430   -6.8820   23.8580 C   0  0  0  0  0  3  0  0  0  0  0  0
  -21.1700   -6.0640   25.0040 C   0  0  0  0  0  3  0  0  0  0  0  0
  -21.4650   -4.6910   24.9090 C   0  0  0  0  0  0  0  0  0  0  0  0
  -21.8390   -4.1340   23.6730 C   0  0  0  0  0  3  0  0  0  0  0  0
  -21.9140   -4.9490   22.5300 C   0  0  0  0  0  0  0  0  0  0  0  0
  -22.2530   -4.4040   21.3370 F   0  0  0  0  0  0  0  0  0  0  0  0
  -21.3880   -3.9020   26.0060 F   0  0  0  0  0  0  0  0  0  0  0  0
  -22.7300  -13.7060   21.0500 C   0  0  0  0  0  0  0  0  0  0  0  0
  -22.0080  -13.0180   21.9280 N   0  0  0  0  0  0  0  0  0  0  0  0
  -22.2890  -14.7250   20.5220 O   0  0  0  0  0  0  0  0  0  0  0  0
  -22.3770  -12.1930   22.3760 H   0  0  0  0  0  0  0  0  0  0  0  0
  -21.0730  -13.3240   22.1590 H   0  0  0  0  0  0  0  0  0  0  0  0
  -25.3470  -15.3630   20.1920 N   0  0  0  0  0  0  0  0  0  0  0  0
  -24.5720  -16.0110   20.2710 H   0  0  0  0  0  0  0  0  0  0  0  0
  -26.1880  -15.7960   19.8290 H   0  0  0  0  0  0  0  0  0  0  0  0
  -28.6610  -25.4820   19.1210 C   0  0  0  0  0  2  0  0  0  0  0  0
  -28.4740  -26.6500   20.0070 O   0  0  0  0  0  0  0  0  0  0  0  0
  -24.6200  -31.9150   23.0870 C   0  0  0  0  0  0  0  0  0  0  0  0
  -27.3220  -27.4550   19.9470 C   0  0  0  0  0  0  0  0  0  0  0  0
  -23.4410  -30.5120   21.4360 C   0  0  0  0  0  3  0  0  0  0  0  0
  -24.9200  -29.0180   19.9800 C   0  0  0  0  0  0  0  0  0  0  0  0
  -25.9740  -30.8840   21.2510 C   0  0  0  0  0  2  0  0  0  0  0  0
  -26.0800  -29.5180   20.5850 C   0  0  0  0  0  0  0  0  0  0  0  0
  -27.2790  -28.7430   20.5690 C   0  0  0  0  0  3  0  0  0  0  0  0
  -26.1270  -27.0060   19.3350 C   0  0  0  0  0  3  0  0  0  0  0  0
  -24.9460  -27.7690   19.3490 C   0  0  0  0  0  3  0  0  0  0  0  0
  -23.6640  -29.8640   20.0450 C   0  0  0  0  0  2  0  0  0  0  0  0
  -24.6980  -31.1180   21.9810 N   0  0  0  0  0  0  0  0  0  0  0  0
  -23.5310  -32.1650   23.6240 O   0  0  0  0  0  0  0  0  0  0  0  0
  -22.8020  -29.4660   22.3810 C   0  0  0  0  0  0  0  0  0  0  0  0
  -21.4710  -29.2950   22.2820 N   0  0  0  0  0  0  0  0  0  0  0  0
  -23.5000  -28.8160   23.1630 O   0  0  0  0  0  0  0  0  0  0  0  0
  -20.9680  -29.8740   21.6250 H   0  0  0  0  0  0  0  0  0  0  0  0
  -18.0970  -28.1290   22.8580 C   0  0  0  0  0  0  0  0  0  0  0  0
  -20.6680  -28.3410   23.0470 C   0  0  0  0  0  3  0  0  0  0  0  0
  -20.7270  -26.9300   22.4150 C   0  0  0  0  0  2  0  0  0  0  0  0
  -19.5840  -26.6620   21.4310 C   0  0  0  0  0  2  0  0  0  0  0  0
  -18.2280  -26.8040   22.1290 C   0  0  0  0  0  2  0  0  0  0  0  0
  -19.2420  -28.8600   23.2750 C   0  0  0  0  0  0  0  0  0  0  0  0
  -19.0620  -30.1040   23.9160 C   0  0  0  0  0  3  0  0  0  0  0  0
  -17.7710  -30.6160   24.1470 C   0  0  0  0  0  3  0  0  0  0  0  0
  -16.6420  -29.8810   23.7480 C   0  0  0  0  0  3  0  0  0  0  0  0
  -16.8060  -28.6400   23.1070 C   0  0  0  0  0  3  0  0  0  0  0  0
  -25.8900  -32.5630   23.7150 C   0  0  0  0  0  3  0  0  0  0  0  0
  -25.5470  -33.9440   24.0830 N   0  0  0  0  0  0  0  0  0  0  0  0
  -25.8580  -35.0250   23.3530 C   0  0  0  0  0  0  0  0  0  0  0  0
  -26.5310  -34.9640   22.3210 O   0  0  0  0  0  0  0  0  0  0  0  0
  -24.9440  -34.0630   24.8830 H   0  0  0  0  0  0  0  0  0  0  0  0
  -24.0900  -36.7860   23.0470 C   0  0  0  0  0  1  0  0  0  0  0  0
  -25.3400  -36.3890   23.8470 C   0  0  0  0  0  3  0  0  0  0  0  0
  -27.4560  -37.2930   24.7040 C   0  0  0  0  0  1  0  0  0  0  0  0
  -26.3490  -37.4680   23.7650 N   0  0  0  0  0  0  0  0  0  0  0  0
  -25.9240  -38.3730   23.9450 H   0  0  0  0  0  0  0  0  0  0  0  0
  -26.4360  -31.7730   24.9680 C   0  0  1  0  0  0  0  0  0  0  0  0
  -25.3570  -31.4800   26.0360 C   0  0  0  0  0  1  0  0  0  0  0  0
  -27.0490  -30.4210   24.5370 C   0  0  0  0  0  1  0  0  0  0  0  0
  -27.5730  -32.5790   25.6390 C   0  0  0  0  0  1  0  0  0  0  0  0
  1  2  1  0
  2  6  2  0
  3  6  1  0
  4  3  2  0
  5  1  2  0
  5  4  1  0
  6 11  1  0
  7  9  1  0
  8  7  1  0
  8 10  1  0
 10  4  1  0
 10  9  1  0
 11 12  1  0
 13 11  1  0
 14 13  1  0
 14 23  1  0
 15 23  1  0
 16 21  1  0
 17 18  1  0
 17 16  1  0
 19 18  1  0
 19 28  1  0
 19 20  1  0
 21 15  1  0
 21 20  1  0
 22 15  2  0
 23 24  1  0
 25 26  2  0
 26 45  1  0
 27 26  1  0
 27 30  1  0
 28 25  1  0
 28 29  1  0
 29 27  2  0
 30 31  1  0
 31 32  2  0
 33 36  1  0
 33 32  1  0
 34 33  2  0
 35 34  1  0
 35 30  2  0
 36 37  1  0
 37 38  1  0
 38 39  2  0
 40 39  1  0
 40 44  1  0
 41 40  2  0
 42 37  2  0
 42 41  1  0
 43 42  1  0
 45 46  1  0
 46 49  1  0
 46 48  1  0
 47 45  2  0
 50 51  1  0
 50 25  1  0
 52 50  1  0
 53  5  1  0
 53 54  1  0
 55 66  2  0
 56 54  1  0
 56 61  1  0
 57 65  1  0
 57 67  1  0
 58 64  1  0
 58 60  1  0
 59 65  1  0
 60 59  1  0
 61 60  2  0
 62 63  1  0
 62 56  2  0
 63 58  2  0
 64 57  1  0
 65 55  1  0
 67 69  2  0
 68 67  1  0
 70 68  1  0
 71 80  2  0
 71 76  1  0
 72 68  1  0
 72 76  1  0
 73 72  1  0
 74 75  1  0
 74 73  1  0
 75 71  1  0
 76 77  2  0
 77 78  1  0
 79 78  2  0
 80 79  1  0
 81 55  1  0
 81 82  1  0
 81 91  1  0
 82 85  1  0
 83 87  1  0
 83 82  1  0
 84 83  2  0
 87 86  1  0
 89 87  1  0
 89 90  1  0
 89 88  1  0
 91 94  1  1
 91 92  1  0
 93 91  1  0
M  ISO  4  15 100  23 100  53 101  54 101
M  END
>  <TORSDO>  (37) 
F 21

>  <SCORE>  (37) 
-13.033

>  <name>  (37) 
36

>  <ligand_id>  (37) 
36

>  <original_smiles>  (37) 
[H]c1c([H])c([H])c2c(c1[H])C([H])([H])C([H])([H])C([H])([H])C2([H])N([H])C(=O)C1([H])N(C(=O)C([H])(N([H])C(=O)C([H])(N([H])C([H])([H])[H])C([H])([H])[H])C(C([H])([H])[H])(C([H])([H])[H])C([H])([H])[H])C([H])([H])c2c([H])c(OC([H])([H])c3c([H])c([H])c(N([H])C([H])([H])C([H])([H])N([H])C(=O)N4C([H])([H])C([H])([H])C([H])([H])C([H])(n5nc(-c6c([H])c([H])c(Oc7c([H])c([H])c(F)c([H])c7F)c([H])c6[H])c(C(=O)N([H])[H])c5N([H])[H])C4([H])[H])c([H])c3C3([H])C([H])([H])C([H])([H])C3([H])[H])c([H])c([H])c2C1([H])[H]

>  <smiles>  (37) 
[H]c1c([H])c([H])c2c(c1[H])C([H])([H])C([H])([H])C([H])([H])C2([H])N([H])C(=O)C1([H])N(C(=O)C([H])(N([H])C(=O)C([H])(N([H])C([H])([H])[H])C([H])([H])[H])C(C([H])([H])[H])(C([H])([H])[H])C([H])([H])[H])C([H])([H])c2c([H])c(OC([H])([H])c3c([H])c([H])c(N([H])C([H])([H])C([H])([H])N([H])C(=O)N4C([H])([H])C([H])([H])C([H])([H])C([H])(n5nc(-c6c([H])c([H])c(Oc7c([H])c([H])c(F)c([H])c7F)c([H])c6[H])c(C(=O)N([H])[H])c5N([H])[H])C4([H])[H])c([H])c3C3([H])C([H])([H])C([H])([H])C3([H])[H])c([H])c([H])c2C1([H])[H]

$$$$
37:0:0
     RDKit          3D

 95104  0  0  1  0  0  0  0  0999 V2000
  -28.4890  -22.9260   19.4960 C   0  0  0  0  0  3  0  0  0  0  0  0
  -29.0040  -21.6040   19.6520 C   0  0  0  0  0  3  0  0  0  0  0  0
  -28.8350  -23.9800   20.3800 C   0  0  0  0  0  0  0  0  0  0  0  0
  -29.7660  -23.6720   21.4030 C   0  0  0  0  0  0  0  0  0  0  0  0
  -30.3040  -22.3480   21.5610 C   0  0  0  0  0  0  0  0  0  0  0  0
  -29.9120  -21.2760   20.6950 C   0  0  0  0  0  0  0  0  0  0  0  0
  -30.0970  -24.8090   22.3640 C   0  0  0  0  0  2  0  0  0  0  0  0
  -27.6270  -25.5190   21.9780 C   0  0  0  0  0  2  0  0  0  0  0  0
  -27.9720  -25.2850   20.4850 C   0  0  0  0  0  3  0  0  0  0  0  0
  -28.8450  -25.5110   22.9360 C   0  0  0  0  0  3  0  0  0  0  0  0
  -31.2690  -22.0840   22.7170 C   0  0  0  0  0  1  0  0  0  0  0  0
  -28.4420  -24.9130   24.3020 C   0  0  0  0  0  1  0  0  0  0  0  0
  -30.4550  -19.9640   20.8920 N   0  0  0  0  0  0  0  0  0  0  0  0
  -31.1170  -19.8920   21.6590 H   0  0  0  0  0  0  0  0  0  0  0  0
  -29.9110  -18.6470   20.4610 C   0  0  0  0  0  2  0  0  0  0  0  0
  -30.7750  -17.4240   21.0110 C   0  0  0  0  0  2  0  0  0  0  0  0
  -30.9410  -14.8780   20.7920 C   0  0  0  0  0  0  0  0  0  0  0  0
  -30.7460  -12.5860   19.8560 C   0  0  0  0  0  2  0  0  0  0  0  0
  -29.8940  -12.5950   18.5680 C   0  0  0  0  0  2  0  0  0  0  0  0
  -28.4120  -12.4110   18.9330 C   0  0  0  0  0  2  0  0  0  0  0  0
  -27.9500  -13.3880   20.0440 C   0  0  0  0  0  3  0  0  0  0  0  0
  -28.9270  -13.4040   21.2410 C   0  0  0  0  0  2  0  0  0  0  0  0
  -30.2680  -13.6860   20.7170 N   0  0  0  0  0  0  0  0  0  0  0  0
  -32.1430  -14.9450   20.5350 O   0  0  0  0  0  0  0  0  0  0  0  0
  -30.2190  -16.0280   20.9530 N   0  0  0  0  0  0  0  0  0  0  0  0
  -29.2270  -15.9290   21.0990 H   0  0  0  0  0  0  0  0  0  0  0  0
  -25.5190  -13.9980   20.5980 C   0  0  0  0  0  0  0  0  0  0  0  0
  -24.4300  -13.2310   20.9040 C   0  0  0  0  0  0  0  0  0  0  0  0
  -24.8910  -11.8790   20.9320 C   0  0  0  0  0  0  0  0  0  0  0  0
  -26.5780  -13.1130   20.4550 N   0  0  0  0  0  0  0  0  0  0  0  0
  -26.2010  -11.8360   20.7170 N   0  0  0  0  0  0  0  0  0  0  0  0
  -24.1540  -10.6200   21.0910 C   0  0  0  0  0  0  0  0  0  0  0  0
  -24.5300   -9.6630   22.0590 C   0  0  0  0  0  3  0  0  0  0  0  0
  -23.7930   -8.4670   22.2100 C   0  0  0  0  0  3  0  0  0  0  0  0
  -22.6690   -8.2180   21.3850 C   0  0  0  0  0  0  0  0  0  0  0  0
  -22.3110   -9.1660   20.4120 C   0  0  0  0  0  3  0  0  0  0  0  0
  -23.0460  -10.3530   20.2620 C   0  0  0  0  0  3  0  0  0  0  0  0
  -21.9110   -7.0750   21.4400 O   0  0  0  0  0  0  0  0  0  0  0  0
  -21.7940   -6.3440   22.5960 C   0  0  0  0  0  0  0  0  0  0  0  0
  -21.2940   -6.9110   23.7870 C   0  0  0  0  0  3  0  0  0  0  0  0
  -21.1270   -6.1090   24.9330 C   0  0  0  0  0  3  0  0  0  0  0  0
  -21.4460   -4.7390   24.8880 C   0  0  0  0  0  0  0  0  0  0  0  0
  -21.9370   -4.1700   23.6990 C   0  0  0  0  0  3  0  0  0  0  0  0
  -22.1080   -4.9700   22.5550 C   0  0  0  0  0  0  0  0  0  0  0  0
  -22.5630   -4.4120   21.4070 F   0  0  0  0  0  0  0  0  0  0  0  0
  -21.2770   -3.9680   25.9870 F   0  0  0  0  0  0  0  0  0  0  0  0
  -23.0190  -13.7120   21.0660 C   0  0  0  0  0  0  0  0  0  0  0  0
  -22.2350  -13.0330   21.8970 N   0  0  0  0  0  0  0  0  0  0  0  0
  -22.6180  -14.7240   20.4950 O   0  0  0  0  0  0  0  0  0  0  0  0
  -22.5760  -12.2120   22.3770 H   0  0  0  0  0  0  0  0  0  0  0  0
  -21.2870  -13.3370   22.0550 H   0  0  0  0  0  0  0  0  0  0  0  0
  -25.6940  -15.3650   20.4000 N   0  0  0  0  0  0  0  0  0  0  0  0
  -24.9070  -16.0050   20.4000 H   0  0  0  0  0  0  0  0  0  0  0  0
  -26.5500  -15.7930   20.0770 H   0  0  0  0  0  0  0  0  0  0  0  0
  -28.3420  -26.5710   19.8280 O   0  0  0  0  0  0  0  0  0  0  0  0
  -24.7070  -31.8410   23.1280 C   0  0  0  0  0  0  0  0  0  0  0  0
  -27.2760  -27.4880   19.7700 C   0  0  0  0  0  0  0  0  0  0  0  0
  -23.4710  -30.5060   21.4590 C   0  0  0  0  0  3  0  0  0  0  0  0
  -24.9010  -29.0610   19.9140 C   0  0  0  0  0  0  0  0  0  0  0  0
  -26.0030  -30.8700   21.2190 C   0  0  0  0  0  2  0  0  0  0  0  0
  -26.0810  -29.5290   20.5050 C   0  0  0  0  0  0  0  0  0  0  0  0
  -27.2770  -28.7520   20.4320 C   0  0  0  0  0  3  0  0  0  0  0  0
  -26.0840  -27.1090   19.1090 C   0  0  0  0  0  3  0  0  0  0  0  0
  -24.9030  -27.8580   19.2060 C   0  0  0  0  0  3  0  0  0  0  0  0
  -23.6440  -29.8960   20.0440 C   0  0  0  0  0  2  0  0  0  0  0  0
  -24.7480  -31.0880   21.9900 N   0  0  0  0  0  0  0  0  0  0  0  0
  -23.6360  -32.0860   23.6980 O   0  0  0  0  0  0  0  0  0  0  0  0
  -22.8520  -29.4380   22.3860 C   0  0  0  0  0  0  0  0  0  0  0  0
  -21.5260  -29.2440   22.2820 N   0  0  0  0  0  0  0  0  0  0  0  0
  -23.5590  -28.7830   23.1560 O   0  0  0  0  0  0  0  0  0  0  0  0
  -21.0130  -29.8390   21.6470 H   0  0  0  0  0  0  0  0  0  0  0  0
  -18.1780  -27.9730   22.7900 C   0  0  0  0  0  0  0  0  0  0  0  0
  -20.7360  -28.2580   23.0170 C   0  0  0  0  0  3  0  0  0  0  0  0
  -20.8450  -26.8560   22.3700 C   0  0  0  0  0  2  0  0  0  0  0  0
  -19.7220  -26.5630   21.3680 C   0  0  0  0  0  2  0  0  0  0  0  0
  -18.3530  -26.6590   22.0480 C   0  0  0  0  0  2  0  0  0  0  0  0
  -19.2940  -28.7340   23.2270 C   0  0  0  0  0  0  0  0  0  0  0  0
  -19.0720  -29.9650   23.8780 C   0  0  0  0  0  3  0  0  0  0  0  0
  -17.7650  -30.4400   24.0980 C   0  0  0  0  0  3  0  0  0  0  0  0
  -16.6620  -29.6760   23.6760 C   0  0  0  0  0  3  0  0  0  0  0  0
  -16.8700  -28.4430   23.0320 C   0  0  0  0  0  3  0  0  0  0  0  0
  -25.9980  -32.4550   23.7490 C   0  0  0  0  0  3  0  0  0  0  0  0
  -26.5870  -31.6070   24.9420 C   0  0  1  0  0  0  0  0  0  0  0  0
  -25.5440  -31.2480   26.0280 C   0  0  0  0  0  1  0  0  0  0  0  0
  -27.2040  -30.2890   24.4220 C   0  0  0  0  0  1  0  0  0  0  0  0
  -27.7330  -32.3920   25.6220 C   0  0  0  0  0  1  0  0  0  0  0  0
  -25.6660  -33.8160   24.1990 N   0  0  0  0  0  0  0  0  0  0  0  0
  -25.9370  -34.9330   23.5140 C   0  0  0  0  0  0  0  0  0  0  0  0
  -26.5590  -34.9310   22.4500 O   0  0  0  0  0  0  0  0  0  0  0  0
  -25.1170  -33.8910   25.0440 H   0  0  0  0  0  0  0  0  0  0  0  0
  -24.1400  -36.6930   23.3930 C   0  0  0  0  0  1  0  0  0  0  0  0
  -25.4330  -36.2630   24.1070 C   0  0  0  0  0  3  0  0  0  0  0  0
  -27.5790  -37.1540   24.9000 C   0  0  0  0  0  1  0  0  0  0  0  0
  -26.4270  -37.3540   24.0260 N   0  0  0  0  0  0  0  0  0  0  0  0
  -26.0010  -38.2460   24.2620 H   0  0  0  0  0  0  0  0  0  0  0  0
  1  2  2  0
  1  3  1  0
  2  6  1  0
  3  9  1  0
  3  4  2  0
  4  5  1  0
  4  7  1  0
  5 11  1  0
  6 13  1  0
  6  5  2  0
  7 10  1  0
  8 10  1  0
  9 55  1  0
  9  8  1  0
 10 12  1  0
 13 14  1  0
 15 13  1  0
 15 16  1  0
 17 25  1  0
 18 23  1  0
 19 20  1  0
 19 18  1  0
 21 20  1  0
 21 30  1  0
 21 22  1  0
 23 17  1  0
 23 22  1  0
 24 17  2  0
 25 16  1  0
 25 26  1  0
 27 28  2  0
 28 29  1  0
 28 47  1  0
 29 32  1  0
 30 27  1  0
 30 31  1  0
 31 29  2  0
 32 33  1  0
 33 34  2  0
 35 38  1  0
 35 34  1  0
 36 35  2  0
 37 36  1  0
 37 32  2  0
 38 39  1  0
 39 40  1  0
 40 41  2  0
 42 41  1  0
 42 46  1  0
 43 42  2  0
 44 39  2  0
 44 43  1  0
 45 44  1  0
 47 48  1  0
 48 51  1  0
 48 50  1  0
 49 47  2  0
 52 27  1  0
 53 52  1  0
 54 52  1  0
 56 67  2  0
 57 55  1  0
 57 62  1  0
 58 66  1  0
 58 68  1  0
 59 65  1  0
 59 61  1  0
 60 66  1  0
 61 60  1  0
 62 61  2  0
 63 64  1  0
 63 57  2  0
 64 59  2  0
 65 58  1  0
 66 56  1  0
 68 70  2  0
 69 68  1  0
 71 69  1  0
 72 81  2  0
 72 77  1  0
 73 69  1  0
 73 77  1  0
 74 73  1  0
 75 76  1  0
 75 74  1  0
 76 72  1  0
 77 78  2  0
 78 79  1  0
 80 79  2  0
 81 80  1  0
 82 56  1  0
 82 87  1  0
 82 83  1  0
 83 86  1  1
 83 84  1  0
 85 83  1  0
 87 90  1  0
 88 92  1  0
 88 87  1  0
 89 88  2  0
 92 91  1  0
 94 92  1  0
 94 95  1  0
 94 93  1  0
M  ISO  4   9 101  17 100  25 100  55 101
M  END
>  <TORSDO>  (38) 
F 19

>  <SCORE>  (38) 
-13.175

>  <name>  (38) 
37

>  <ligand_id>  (38) 
37

>  <original_smiles>  (38) 
[H]c1c([H])c([H])c2c(c1[H])C([H])([H])C([H])([H])C([H])([H])C2([H])N([H])C(=O)C1([H])N(C(=O)C([H])(N([H])C(=O)C([H])(N([H])C([H])([H])[H])C([H])([H])[H])C(C([H])([H])[H])(C([H])([H])[H])C([H])([H])[H])C([H])([H])c2c([H])c(OC3([H])c4c([H])c([H])c(N([H])C([H])([H])C([H])([H])N([H])C(=O)N5C([H])([H])C([H])([H])C([H])([H])C([H])(n6nc(-c7c([H])c([H])c(Oc8c([H])c([H])c(F)c([H])c8F)c([H])c7[H])c(C(=O)N([H])[H])c6N([H])[H])C5([H])[H])c(C([H])([H])[H])c4C([H])([H])C([H])(C([H])([H])[H])C3([H])[H])c([H])c([H])c2C1([H])[H]

>  <smiles>  (38) 
[H]c1c([H])c([H])c2c(c1[H])C([H])([H])C([H])([H])C([H])([H])C2([H])N([H])C(=O)C1([H])N(C(=O)C([H])(N([H])C(=O)C([H])(N([H])C([H])([H])[H])C([H])([H])[H])C(C([H])([H])[H])(C([H])([H])[H])C([H])([H])[H])C([H])([H])c2c([H])c(OC3([H])c4c([H])c([H])c(N([H])C([H])([H])C([H])([H])N([H])C(=O)N5C([H])([H])C([H])([H])C([H])([H])C([H])(n6nc(-c7c([H])c([H])c(Oc8c([H])c([H])c(F)c([H])c8F)c([H])c7[H])c(C(=O)N([H])[H])c6N([H])[H])C5([H])[H])c(C([H])([H])[H])c4C([H])([H])C([H])(C([H])([H])[H])C3([H])[H])c([H])c([H])c2C1([H])[H]

$$$$
38:0:0
     RDKit          3D

102111  0  0  1  0  0  0  0  0999 V2000
  -28.5960  -18.7920   20.3840 C   0  0  0  0  0  3  0  0  0  0  0  0
  -29.5020  -17.7210   20.4760 C   0  0  0  0  0  3  0  0  0  0  0  0
  -30.0160  -20.0840   21.8730 C   0  0  0  0  0  3  0  0  0  0  0  0
  -28.8550  -19.9890   21.0790 C   0  0  0  0  0  0  0  0  0  0  0  0
  -30.6870  -17.8090   21.2440 C   0  0  0  0  0  0  0  0  0  0  0  0
  -30.9490  -19.0240   21.9510 C   0  0  0  0  0  0  0  0  0  0  0  0
  -27.9260  -21.1860   20.9400 C   0  0  0  0  0  2  0  0  0  0  0  0
  -28.6850  -22.4240   20.4120 C   0  0  0  0  0  2  0  0  0  0  0  0
  -27.9610  -25.1290   22.3070 C   0  0  0  0  0  2  0  0  0  0  0  0
  -29.0240  -25.6010   21.3170 C   0  0  0  0  0  2  0  0  0  0  0  0
  -27.1560  -24.0470   21.5800 C   0  0  0  0  0  2  0  0  0  0  0  0
  -28.7540  -24.8490   19.9920 C   0  0  0  0  0  3  0  0  0  0  0  0
  -27.8960  -23.6840   20.3430 N   0  0  1  0  0  4  0  0  0  0  0  0
  -27.2120  -23.5590   19.6080 H   0  0  0  0  0  0  0  0  0  0  0  0
  -28.1750  -25.6660   18.8050 C   0  0  0  0  0  2  0  0  0  0  0  0
  -28.0660  -27.0570   19.0920 O   0  0  0  0  0  0  0  0  0  0  0  0
  -24.5230  -31.6770   23.1230 C   0  0  0  0  0  0  0  0  0  0  0  0
  -26.8460  -27.6610   19.3120 C   0  0  0  0  0  0  0  0  0  0  0  0
  -23.1520  -30.4740   21.4450 C   0  0  0  0  0  3  0  0  0  0  0  0
  -24.4540  -29.1120   19.7360 C   0  0  0  0  0  0  0  0  0  0  0  0
  -25.6430  -30.8790   21.0430 C   0  0  0  0  0  2  0  0  0  0  0  0
  -25.6620  -29.5890   20.2520 C   0  0  0  0  0  0  0  0  0  0  0  0
  -26.8570  -28.8730   20.0350 C   0  0  0  0  0  3  0  0  0  0  0  0
  -25.6090  -27.1720   18.8260 C   0  0  0  0  0  3  0  0  0  0  0  0
  -24.4200  -27.8980   19.0330 C   0  0  0  0  0  3  0  0  0  0  0  0
  -23.2210  -29.9490   19.9890 C   0  0  0  0  0  2  0  0  0  0  0  0
  -24.4630  -31.0160   21.9300 N   0  0  0  0  0  0  0  0  0  0  0  0
  -23.5020  -31.8830   23.7950 O   0  0  0  0  0  0  0  0  0  0  0  0
  -22.5840  -29.3520   22.3410 C   0  0  0  0  0  0  0  0  0  0  0  0
  -21.2630  -29.1250   22.2570 N   0  0  0  0  0  0  0  0  0  0  0  0
  -23.3290  -28.6830   23.0640 O   0  0  0  0  0  0  0  0  0  0  0  0
  -20.7130  -29.7220   21.6590 H   0  0  0  0  0  0  0  0  0  0  0  0
  -18.0020  -27.6340   22.6730 C   0  0  0  0  0  0  0  0  0  0  0  0
  -20.5240  -28.0880   22.9770 C   0  0  0  0  0  3  0  0  0  0  0  0
  -20.7470  -26.6910   22.3530 C   0  0  0  0  0  2  0  0  0  0  0  0
  -19.6840  -26.3190   21.3140 C   0  0  0  0  0  2  0  0  0  0  0  0
  -18.2910  -26.3300   21.9490 C   0  0  0  0  0  2  0  0  0  0  0  0
  -19.0520  -28.4670   23.1430 C   0  0  0  0  0  0  0  0  0  0  0  0
  -18.7310  -29.6840   23.7790 C   0  0  0  0  0  3  0  0  0  0  0  0
  -17.3910  -30.0710   23.9550 C   0  0  0  0  0  3  0  0  0  0  0  0
  -16.3560  -29.2350   23.5030 C   0  0  0  0  0  3  0  0  0  0  0  0
  -16.6600  -28.0200   22.8690 C   0  0  0  0  0  3  0  0  0  0  0  0
  -25.8710  -32.2300   23.6820 C   0  0  0  0  0  3  0  0  0  0  0  0
  -26.4640  -31.3550   24.8540 C   0  0  1  0  0  0  0  0  0  0  0  0
  -25.4520  -31.0710   25.9870 C   0  0  0  0  0  1  0  0  0  0  0  0
  -26.9660  -29.9920   24.3200 C   0  0  0  0  0  1  0  0  0  0  0  0
  -27.6890  -32.0700   25.4760 C   0  0  0  0  0  1  0  0  0  0  0  0
  -25.6260  -33.6080   24.1290 N   0  0  0  0  0  0  0  0  0  0  0  0
  -25.9960  -34.7020   23.4490 C   0  0  0  0  0  0  0  0  0  0  0  0
  -26.6490  -34.6560   22.4030 O   0  0  0  0  0  0  0  0  0  0  0  0
  -25.0460  -33.7270   24.9440 H   0  0  0  0  0  0  0  0  0  0  0  0
  -24.3740  -36.6120   23.2280 C   0  0  0  0  0  1  0  0  0  0  0  0
  -25.5710  -36.0670   24.0230 C   0  0  0  0  0  3  0  0  0  0  0  0
  -27.7310  -36.7500   24.9720 C   0  0  0  0  0  1  0  0  0  0  0  0
  -26.6620  -37.0670   24.0300 N   0  0  0  0  0  0  0  0  0  0  0  0
  -26.3000  -37.9910   24.2540 H   0  0  0  0  0  0  0  0  0  0  0  0
  -32.2150  -19.2870   22.7680 C   0  0  0  0  0  2  0  0  0  0  0  0
  -33.0550  -20.4370   22.1730 C   0  0  0  0  0  2  0  0  0  0  0  0
  -34.5540  -20.3740   22.5160 C   0  0  0  0  0  2  0  0  0  0  0  0
  -35.3020  -21.4810   21.8950 N   0  0  0  0  0  4  0  0  0  0  0  0
  -35.1690  -21.4820   20.8990 H   0  0  0  0  0  0  0  0  0  0  0  0
  -36.2860  -21.3840   22.0740 H   0  0  0  0  0  0  0  0  0  0  0  0
  -34.9980  -22.3660   22.2600 H   0  0  0  0  0  0  0  0  0  0  0  0
  -31.6450  -16.6070   21.2250 C   0  0  0  0  0  2  0  0  0  0  0  0
  -31.3300  -14.5590   19.7700 C   0  0  0  0  0  0  0  0  0  0  0  0
  -30.8120  -12.3720   18.7290 C   0  0  0  0  0  2  0  0  0  0  0  0
  -29.8040  -12.4860   17.5690 C   0  0  0  0  0  2  0  0  0  0  0  0
  -28.3540  -12.4750   18.0910 C   0  0  0  0  0  2  0  0  0  0  0  0
  -28.1370  -13.4770   19.2570 C   0  0  0  0  0  3  0  0  0  0  0  0
  -29.2270  -13.2930   20.3310 C   0  0  0  0  0  2  0  0  0  0  0  0
  -30.5490  -13.4500   19.6930 N   0  0  0  0  0  0  0  0  0  0  0  0
  -32.2870  -14.7770   19.0160 O   0  0  0  0  0  0  0  0  0  0  0  0
  -31.0100  -15.3630   20.7930 N   0  0  0  0  0  0  0  0  0  0  0  0
  -30.2380  -15.0470   21.3590 H   0  0  0  0  0  0  0  0  0  0  0  0
  -25.8880  -14.3380   20.1720 C   0  0  0  0  0  0  0  0  0  0  0  0
  -24.7670  -13.6800   20.6090 C   0  0  0  0  0  0  0  0  0  0  0  0
  -25.0620  -12.2880   20.5050 C   0  0  0  0  0  0  0  0  0  0  0  0
  -26.7980  -13.3500   19.8290 N   0  0  0  0  0  0  0  0  0  0  0  0
  -26.3070  -12.1100   20.0830 N   0  0  0  0  0  0  0  0  0  0  0  0
  -24.2110  -11.1100   20.7250 C   0  0  0  0  0  0  0  0  0  0  0  0
  -24.6120  -10.0590   21.5770 C   0  0  0  0  0  3  0  0  0  0  0  0
  -23.7680   -8.9470   21.7850 C   0  0  0  0  0  3  0  0  0  0  0  0
  -22.5090   -8.8790   21.1420 C   0  0  0  0  0  0  0  0  0  0  0  0
  -22.1270   -9.9180   20.2770 C   0  0  0  0  0  3  0  0  0  0  0  0
  -22.9690  -11.0220   20.0660 C   0  0  0  0  0  3  0  0  0  0  0  0
  -21.6350   -7.8260   21.2650 O   0  0  0  0  0  0  0  0  0  0  0  0
  -21.5910   -7.0560   22.3990 C   0  0  0  0  0  0  0  0  0  0  0  0
  -21.3660   -7.6200   23.6740 C   0  0  0  0  0  3  0  0  0  0  0  0
  -21.2550   -6.7840   24.8050 C   0  0  0  0  0  3  0  0  0  0  0  0
  -21.3630   -5.3880   24.6630 C   0  0  0  0  0  0  0  0  0  0  0  0
  -21.5820   -4.8240   23.3930 C   0  0  0  0  0  3  0  0  0  0  0  0
  -21.6930   -5.6560   22.2650 C   0  0  0  0  0  0  0  0  0  0  0  0
  -21.8810   -5.1060   21.0410 F   0  0  0  0  0  0  0  0  0  0  0  0
  -21.2530   -4.5850   25.7460 F   0  0  0  0  0  0  0  0  0  0  0  0
  -23.4610  -14.3050   21.0110 C   0  0  0  0  0  0  0  0  0  0  0  0
  -22.7460  -13.6840   21.9450 N   0  0  0  0  0  0  0  0  0  0  0  0
  -23.0910  -15.3780   20.5350 O   0  0  0  0  0  0  0  0  0  0  0  0
  -23.0600  -12.8150   22.3480 H   0  0  0  0  0  0  0  0  0  0  0  0
  -21.8730  -14.0860   22.2560 H   0  0  0  0  0  0  0  0  0  0  0  0
  -26.2030  -15.6840   20.0260 N   0  0  0  0  0  0  0  0  0  0  0  0
  -25.5490  -16.4260   20.2470 H   0  0  0  0  0  0  0  0  0  0  0  0
  -27.0910  -16.0320   19.6860 H   0  0  0  0  0  0  0  0  0  0  0  0
  1  2  2  0
  1  4  1  0
  2  5  1  0
  3  6  1  0
  4  3  2  0
  5  6  2  0
  6 57  1  0
  7  4  1  0
  8  7  1  0
 10  9  1  0
 11  9  1  0
 12 15  1  0
 12 13  1  0
 12 10  1  0
 13  8  1  0
 13 11  1  0
 13 14  1  6
 15 16  1  0
 16 18  1  0
 17 28  2  0
 18 23  1  0
 19 27  1  0
 19 29  1  0
 20 26  1  0
 20 22  1  0
 21 27  1  0
 22 21  1  0
 23 22  2  0
 24 25  1  0
 24 18  2  0
 25 20  2  0
 26 19  1  0
 27 17  1  0
 29 31  2  0
 30 29  1  0
 32 30  1  0
 33 42  2  0
 33 38  1  0
 34 30  1  0
 34 38  1  0
 35 34  1  0
 36 37  1  0
 36 35  1  0
 37 33  1  0
 38 39  2  0
 39 40  1  0
 41 40  2  0
 42 41  1  0
 43 17  1  0
 43 48  1  0
 43 44  1  0
 44 47  1  1
 44 45  1  0
 46 44  1  0
 48 51  1  0
 49 53  1  0
 49 48  1  0
 50 49  2  0
 53 52  1  0
 53 55  1  0
 55 56  1  0
 55 54  1  0
 58 59  1  0
 58 57  1  0
 60 62  1  0
 60 63  1  0
 60 59  1  0
 61 60  1  0
 64  5  1  0
 65 73  1  0
 66 71  1  0
 67 68  1  0
 67 66  1  0
 69 68  1  0
 69 78  1  0
 69 70  1  0
 71 65  1  0
 71 70  1  0
 72 65  2  0
 73 64  1  0
 73 74  1  0
 75 76  2  0
 76 95  1  0
 77 76  1  0
 77 80  1  0
 78 79  1  0
 78 75  1  0
 79 77  2  0
 80 81  1  0
 81 82  2  0
 83 86  1  0
 83 82  1  0
 84 83  2  0
 85 84  1  0
 85 80  2  0
 86 87  1  0
 87 88  1  0
 88 89  2  0
 90 89  1  0
 90 94  1  0
 91 90  2  0
 92 87  2  0
 92 91  1  0
 93 92  1  0
 95 96  1  0
 96 99  1  0
 96 98  1  0
 97 95  2  0
100 75  1  0
100101  1  0
102100  1  0
M  ISO  4  15 101  16 101  65 100  73 100
M  END
>  <TORSDO>  (39) 
F 25

>  <SCORE>  (39) 
-10.895

>  <name>  (39) 
38

>  <ligand_id>  (39) 
38

>  <original_smiles>  (39) 
[H]c1c([H])c([H])c2c(c1[H])C([H])([H])C([H])([H])C([H])([H])C2([H])N([H])C(=O)C1([H])N(C(=O)C([H])(N([H])C(=O)C([H])(N([H])C([H])([H])[H])C([H])([H])[H])C(C([H])([H])[H])(C([H])([H])[H])C([H])([H])[H])C([H])([H])c2c([H])c(OC([H])([H])C3([H])C([H])([H])C([H])([H])C([H])([H])[N+]3([H])C([H])([H])C([H])([H])c3c([H])c([H])c(C([H])([H])N([H])C(=O)N4C([H])([H])C([H])([H])C([H])([H])C([H])(n5nc(-c6c([H])c([H])c(Oc7c([H])c([H])c(F)c([H])c7F)c([H])c6[H])c(C(=O)N([H])[H])c5N([H])[H])C4([H])[H])c(C([H])([H])C([H])([H])C([H])([H])[N+]([H])([H])[H])c3[H])c([H])c([H])c2C1([H])[H]

>  <smiles>  (39) 
[H]c1c([H])c([H])c2c(c1[H])C([H])([H])C([H])([H])C([H])([H])C2([H])N([H])C(=O)C1([H])N(C(=O)C([H])(N([H])C(=O)C([H])(N([H])C([H])([H])[H])C([H])([H])[H])C(C([H])([H])[H])(C([H])([H])[H])C([H])([H])[H])C([H])([H])c2c([H])c(OC([H])([H])C3([H])C([H])([H])C([H])([H])C([H])([H])[N+]3([H])C([H])([H])C([H])([H])c3c([H])c([H])c(C([H])([H])N([H])C(=O)N4C([H])([H])C([H])([H])C([H])([H])C([H])(n5nc(-c6c([H])c([H])c(Oc7c([H])c([H])c(F)c([H])c7F)c([H])c6[H])c(C(=O)N([H])[H])c5N([H])[H])C4([H])[H])c(C([H])([H])C([H])([H])C([H])([H])[N+]([H])([H])[H])c3[H])c([H])c([H])c2C1([H])[H]

$$$$
39:0:0
     RDKit          3D

 93102  0  0  1  0  0  0  0  0999 V2000
  -30.8720  -15.3630   20.2720 C   0  0  0  0  0  0  0  0  0  0  0  0
  -28.3970  -15.0120   20.8740 C   0  0  0  0  0  2  0  0  0  0  0  0
  -27.4140  -15.2280   19.7030 C   0  0  0  0  0  2  0  0  0  0  0  0
  -27.0180  -16.7110   19.6070 C   0  0  0  0  0  2  0  0  0  0  0  0
  -28.2420  -17.6560   19.7400 C   0  0  0  0  0  3  0  0  0  0  0  0
  -29.1950  -17.2630   20.8890 C   0  0  0  0  0  2  0  0  0  0  0  0
  -29.6070  -15.8760   20.6320 N   0  0  0  0  0  0  0  0  0  0  0  0
  -31.0360  -14.1950   20.6550 O   0  0  0  0  0  0  0  0  0  0  0  0
  -34.7620  -17.0630   16.9590 C   0  0  0  0  0  0  0  0  0  0  0  0
  -34.3980  -15.8150   16.4310 C   0  0  0  0  0  0  0  0  0  0  0  0
  -35.9500  -17.7300   16.3210 C   0  0  0  0  0  0  0  0  0  0  0  0
  -35.2320  -15.3200   15.3620 C   0  0  0  0  0  0  0  0  0  0  0  0
  -36.7560  -17.1870   15.1790 C   0  0  0  0  0  0  0  0  0  0  0  0
  -33.6860  -17.6770   18.0190 C   0  0  0  0  0  2  0  0  0  0  0  0
  -33.0120  -15.1610   16.8690 C   0  0  0  0  0  2  0  0  0  0  0  0
  -32.8760  -16.9500   19.3000 C   0  0  0  0  0  2  0  0  0  0  0  0
  -32.5690  -14.8680   18.3920 C   0  0  0  0  0  2  0  0  0  0  0  0
  -34.8980  -13.9970   14.6970 C   0  0  0  0  0  1  0  0  0  0  0  0
  -36.3190  -15.9570   14.7850 N   0  0  0  0  0  0  0  0  0  0  0  0
  -31.7710  -15.8720   19.2160 N   0  0  0  0  0  0  0  0  0  0  0  0
  -28.4150  -20.0690   20.5460 C   0  0  0  0  0  0  0  0  0  0  0  0
  -27.7900  -21.2210   20.1570 C   0  0  0  0  0  0  0  0  0  0  0  0
  -26.8460  -20.8420   19.1540 C   0  0  0  0  0  0  0  0  0  0  0  0
  -27.8560  -19.0600   19.7830 N   0  0  0  0  0  0  0  0  0  0  0  0
  -26.8550  -19.5240   18.9870 N   0  0  0  0  0  0  0  0  0  0  0  0
  -25.9780  -21.6690   18.3030 C   0  0  0  0  0  0  0  0  0  0  0  0
  -24.6560  -21.2780   17.9950 C   0  0  0  0  0  3  0  0  0  0  0  0
  -23.8340  -22.1010   17.1920 C   0  0  0  0  0  3  0  0  0  0  0  0
  -24.3320  -23.3270   16.6940 C   0  0  0  0  0  0  0  0  0  0  0  0
  -25.6550  -23.7010   16.9840 C   0  0  0  0  0  3  0  0  0  0  0  0
  -26.4730  -22.8800   17.7790 C   0  0  0  0  0  3  0  0  0  0  0  0
  -23.6150  -24.1800   15.8880 O   0  0  0  0  0  0  0  0  0  0  0  0
  -22.2510  -24.0890   15.7770 C   0  0  0  0  0  0  0  0  0  0  0  0
  -21.4530  -23.5520   16.8100 C   0  0  0  0  0  3  0  0  0  0  0  0
  -20.0490  -23.5410   16.6820 C   0  0  0  0  0  3  0  0  0  0  0  0
  -19.4420  -24.0730   15.5280 C   0  0  0  0  0  0  0  0  0  0  0  0
  -20.2360  -24.6140   14.5000 C   0  0  0  0  0  3  0  0  0  0  0  0
  -21.6360  -24.6240   14.6260 C   0  0  0  0  0  0  0  0  0  0  0  0
  -22.3950  -25.1650   13.6430 F   0  0  0  0  0  0  0  0  0  0  0  0
  -18.0950  -24.0710   15.4080 F   0  0  0  0  0  0  0  0  0  0  0  0
  -28.1230  -22.6080   20.6200 C   0  0  0  0  0  0  0  0  0  0  0  0
  -27.1110  -23.4240   20.8910 N   0  0  0  0  0  0  0  0  0  0  0  0
  -29.2890  -22.9610   20.7940 O   0  0  0  0  0  0  0  0  0  0  0  0
  -26.1540  -23.1280   20.7670 H   0  0  0  0  0  0  0  0  0  0  0  0
  -27.2940  -24.3610   21.2220 H   0  0  0  0  0  0  0  0  0  0  0  0
  -29.4300  -19.7950   21.4570 N   0  0  0  0  0  0  0  0  0  0  0  0
  -29.8960  -20.5260   21.9840 H   0  0  0  0  0  0  0  0  0  0  0  0
  -29.8280  -18.8790   21.6170 H   0  0  0  0  0  0  0  0  0  0  0  0
  -36.3520  -19.0910   16.8690 C   0  0  0  0  0  2  0  0  0  0  0  0
  -36.1280  -21.6180   16.6620 C   0  0  0  0  0  1  0  0  0  0  0  0
  -35.7260  -20.2550   16.0880 C   0  0  0  0  0  2  0  0  0  0  0  0
  -37.9290  -18.0120   14.2250 C   0  0  0  0  0  2  0  0  0  0  0  0
  -39.3840  -17.6370   13.6390 O   0  0  0  0  0  0  0  0  0  0  0  0
  -38.5340  -18.4720    6.2330 C   0  0  0  0  0  0  0  0  0  0  0  0
  -39.5910  -17.2190   12.2410 C   0  0  0  0  0  0  0  0  0  0  0  0
  -38.8760  -16.2040    7.1310 C   0  0  0  0  0  3  0  0  0  0  0  0
  -39.7670  -16.0530    9.5440 C   0  0  0  0  0  0  0  0  0  0  0  0
  -39.9040  -18.2280    8.3520 C   0  0  0  0  0  2  0  0  0  0  0  0
  -39.8180  -17.4460    9.6850 C   0  0  0  0  0  0  0  0  0  0  0  0
  -39.7590  -18.0260   11.0240 C   0  0  0  0  0  3  0  0  0  0  0  0
  -39.6450  -15.8300   11.9880 C   0  0  0  0  0  3  0  0  0  0  0  0
  -39.7130  -15.2570   10.6980 C   0  0  0  0  0  3  0  0  0  0  0  0
  -39.7760  -15.4490    8.1440 C   0  0  0  0  0  2  0  0  0  0  0  0
  -39.0790  -17.6870    7.2160 N   0  0  0  0  0  0  0  0  0  0  0  0
  -37.8950  -17.9830    5.2890 O   0  0  0  0  0  0  0  0  0  0  0  0
  -37.3990  -15.7770    7.3300 C   0  0  0  0  0  0  0  0  0  0  0  0
  -37.0390  -14.5630    6.8720 N   0  0  0  0  0  0  0  0  0  0  0  0
  -36.6080  -16.5260    7.9070 O   0  0  0  0  0  0  0  0  0  0  0  0
  -37.7360  -14.0080    6.3960 H   0  0  0  0  0  0  0  0  0  0  0  0
  -35.0930  -11.5790    6.1950 C   0  0  0  0  0  0  0  0  0  0  0  0
  -35.7110  -13.9550    7.0110 C   0  0  0  0  0  3  0  0  0  0  0  0
  -35.4990  -13.4040    8.4410 C   0  0  0  0  0  2  0  0  0  0  0  0
  -35.8710  -11.9240    8.5790 C   0  0  0  0  0  2  0  0  0  0  0  0
  -35.0320  -11.0680    7.6260 C   0  0  0  0  0  2  0  0  0  0  0  0
  -35.4280  -12.9290    5.9060 C   0  0  0  0  0  0  0  0  0  0  0  0
  -35.5010  -13.3420    4.5590 C   0  0  0  0  0  3  0  0  0  0  0  0
  -35.2480  -12.4340    3.5130 C   0  0  0  0  0  3  0  0  0  0  0  0
  -34.9040  -11.1030    3.8040 C   0  0  0  0  0  3  0  0  0  0  0  0
  -34.8230  -10.6800    5.1430 C   0  0  0  0  0  3  0  0  0  0  0  0
  -38.7040  -20.0210    6.2410 C   0  0  0  0  0  3  0  0  0  0  0  0
  -38.8440  -20.4670    4.8450 N   0  0  0  0  0  0  0  0  0  0  0  0
  -40.0100  -20.7220    4.2350 C   0  0  0  0  0  0  0  0  0  0  0  0
  -41.0940  -20.6650    4.8200 O   0  0  0  0  0  0  0  0  0  0  0  0
  -38.0020  -20.4830    4.2900 H   0  0  0  0  0  0  0  0  0  0  0  0
  -40.5430  -19.9540    1.8970 C   0  0  0  0  0  1  0  0  0  0  0  0
  -39.9680  -21.1040    2.7410 C   0  0  0  0  0  3  0  0  0  0  0  0
  -40.0780  -23.5410    3.0210 C   0  0  0  0  0  1  0  0  0  0  0  0
  -40.6920  -22.3550    2.4290 N   0  0  0  0  0  0  0  0  0  0  0  0
  -40.7490  -22.4980    1.4240 H   0  0  0  0  0  0  0  0  0  0  0  0
  -37.5000  -20.7720    6.9330 C   0  0  1  0  0  0  0  0  0  0  0  0
  -36.1130  -20.3730    6.3760 C   0  0  0  0  0  1  0  0  0  0  0  0
  -37.4840  -20.5070    8.4560 C   0  0  0  0  0  1  0  0  0  0  0  0
  -37.6640  -22.3000    6.7550 C   0  0  0  0  0  1  0  0  0  0  0  0
  1  7  1  0
  1  8  2  0
  3  2  1  0
  4  3  1  0
  5  4  1  0
  5 24  1  0
  5  6  1  0
  7  2  1  0
  7  6  1  0
  9 14  1  0
 10 15  1  0
 10  9  1  0
 11 49  1  0
 11  9  2  0
 12 10  2  0
 13 11  1  0
 14 16  1  0
 15 17  1  0
 17 20  1  0
 18 12  1  0
 19 13  2  0
 19 12  1  0
 20 16  1  0
 20  1  1  0
 21 46  1  0
 22 21  2  0
 22 41  1  0
 23 22  1  0
 24 21  1  0
 25 23  2  0
 25 24  1  0
 26 23  1  0
 27 26  1  0
 28 27  2  0
 29 30  2  0
 29 28  1  0
 30 31  1  0
 31 26  2  0
 32 29  1  0
 33 32  1  0
 33 34  1  0
 35 34  2  0
 36 35  1  0
 37 38  1  0
 37 36  2  0
 38 33  2  0
 39 38  1  0
 40 36  1  0
 41 43  2  0
 41 42  1  0
 42 45  1  0
 44 42  1  0
 46 48  1  0
 46 47  1  0
 51 50  1  0
 51 49  1  0
 52 13  1  0
 53 52  1  0
 54 64  1  0
 55 53  1  0
 56 64  1  0
 56 66  1  0
 56 63  1  0
 57 59  2  0
 57 62  1  0
 58 59  1  0
 59 60  1  0
 60 55  2  0
 61 55  1  0
 62 61  2  0
 63 57  1  0
 64 58  1  0
 65 54  2  0
 66 68  2  0
 67 66  1  0
 69 67  1  0
 70 74  1  0
 71 67  1  0
 71 72  1  0
 72 73  1  0
 74 73  1  0
 75 70  1  0
 75 71  1  0
 76 75  2  0
 77 78  2  0
 77 76  1  0
 78 79  1  0
 79 70  2  0
 80 54  1  0
 80 90  1  0
 81 80  1  0
 82 83  2  0
 82 81  1  0
 84 81  1  0
 86 85  1  0
 86 82  1  0
 88 86  1  0
 88 87  1  0
 89 88  1  0
 90 92  1  1
 91 90  1  0
 93 90  1  0
M  ISO  4   1 100  20 100  52 101  53 101
M  END
>  <TORSDO>  (40) 
F 18

>  <SCORE>  (40) 
-3.096

>  <name>  (40) 
39

>  <ligand_id>  (40) 
39

>  <original_smiles>  (40) 
[H]c1c([H])c([H])c2c(c1[H])C([H])([H])C([H])([H])C([H])([H])C2([H])N([H])C(=O)C1([H])N(C(=O)C([H])(N([H])C(=O)C([H])(N([H])C([H])([H])[H])C([H])([H])[H])C(C([H])([H])[H])(C([H])([H])[H])C([H])([H])[H])C([H])([H])c2c([H])c(OC([H])([H])c3nc(C([H])([H])[H])c4c(c3C([H])([H])C([H])([H])C([H])([H])[H])C([H])([H])C([H])([H])N(C(=O)N3C([H])([H])C([H])([H])C([H])([H])C([H])(n5nc(-c6c([H])c([H])c(Oc7c([H])c([H])c(F)c([H])c7F)c([H])c6[H])c(C(=O)N([H])[H])c5N([H])[H])C3([H])[H])C([H])([H])C4([H])[H])c([H])c([H])c2C1([H])[H]

>  <smiles>  (40) 
[H]c1c([H])c([H])c2c(c1[H])C([H])([H])C([H])([H])C([H])([H])C2([H])N([H])C(=O)C1([H])N(C(=O)C([H])(N([H])C(=O)C([H])(N([H])C([H])([H])[H])C([H])([H])[H])C(C([H])([H])[H])(C([H])([H])[H])C([H])([H])[H])C([H])([H])c2c([H])c(OC([H])([H])c3nc(C([H])([H])[H])c4c(c3C([H])([H])C([H])([H])C([H])([H])[H])C([H])([H])C([H])([H])N(C(=O)N3C([H])([H])C([H])([H])C([H])([H])C([H])(n5nc(-c6c([H])c([H])c(Oc7c([H])c([H])c(F)c([H])c7F)c([H])c6[H])c(C(=O)N([H])[H])c5N([H])[H])C3([H])[H])C([H])([H])C4([H])[H])c([H])c([H])c2C1([H])[H]

$$$$
40:0:0
     RDKit          3D

 98107  0  0  1  0  0  0  0  0999 V2000
  -28.4050  -20.7350   19.2070 C   0  0  0  0  0  2  0  0  0  0  0  0
  -27.6440  -23.1340   18.6120 C   0  0  0  0  0  2  0  0  0  0  0  0
  -28.0380  -22.5400   21.0090 C   0  0  0  0  0  2  0  0  0  0  0  0
  -28.1070  -24.5710   18.8500 C   0  0  0  0  0  2  0  0  0  0  0  0
  -28.4680  -23.9740   21.3470 C   0  0  0  0  0  2  0  0  0  0  0  0
  -28.4410  -22.2320   19.5580 C   0  0  0  0  0  3  0  0  0  0  0  0
  -27.9080  -24.9930   20.3300 C   0  0  0  0  0  3  0  0  0  0  0  0
  -28.5180  -26.3790   20.5690 C   0  0  0  0  0  2  0  0  0  0  0  0
  -28.1230  -27.2160   19.4970 O   0  0  0  0  0  0  0  0  0  0  0  0
  -24.5050  -31.9830   23.2720 C   0  0  0  0  0  0  0  0  0  0  0  0
  -26.9320  -27.8480   19.6920 C   0  0  0  0  0  0  0  0  0  0  0  0
  -23.1750  -30.6650   21.6480 C   0  0  0  0  0  3  0  0  0  0  0  0
  -24.5200  -29.2540   20.0080 C   0  0  0  0  0  0  0  0  0  0  0  0
  -25.6580  -31.1010   21.2570 C   0  0  0  0  0  2  0  0  0  0  0  0
  -25.7080  -29.7670   20.5450 C   0  0  0  0  0  0  0  0  0  0  0  0
  -26.9130  -29.0640   20.4000 C   0  0  0  0  0  3  0  0  0  0  0  0
  -25.7370  -27.3340   19.1440 C   0  0  0  0  0  3  0  0  0  0  0  0
  -24.5270  -28.0310   19.3090 C   0  0  0  0  0  3  0  0  0  0  0  0
  -23.2710  -30.0710   20.2150 C   0  0  0  0  0  2  0  0  0  0  0  0
  -24.4700  -31.2560   22.1200 N   0  0  0  0  0  0  0  0  0  0  0  0
  -23.4690  -32.2040   23.9170 O   0  0  0  0  0  0  0  0  0  0  0  0
  -22.6190  -29.5790   22.5940 C   0  0  0  0  0  0  0  0  0  0  0  0
  -21.3030  -29.3280   22.5020 N   0  0  0  0  0  0  0  0  0  0  0  0
  -23.3630  -28.9620   23.3600 O   0  0  0  0  0  0  0  0  0  0  0  0
  -20.7640  -29.8780   21.8470 H   0  0  0  0  0  0  0  0  0  0  0  0
  -18.0310  -27.8810   22.9730 C   0  0  0  0  0  0  0  0  0  0  0  0
  -20.5600  -28.3250   23.2600 C   0  0  0  0  0  3  0  0  0  0  0  0
  -20.7750  -26.9170   22.6580 C   0  0  0  0  0  2  0  0  0  0  0  0
  -19.7010  -26.5250   21.6380 C   0  0  0  0  0  2  0  0  0  0  0  0
  -18.3130  -26.5560   22.2830 C   0  0  0  0  0  2  0  0  0  0  0  0
  -19.0880  -28.7190   23.4170 C   0  0  0  0  0  0  0  0  0  0  0  0
  -18.7720  -29.9550   24.0210 C   0  0  0  0  0  3  0  0  0  0  0  0
  -17.4330  -30.3540   24.1920 C   0  0  0  0  0  3  0  0  0  0  0  0
  -16.3910  -29.5110   23.7700 C   0  0  0  0  0  3  0  0  0  0  0  0
  -16.6910  -28.2780   23.1640 C   0  0  0  0  0  3  0  0  0  0  0  0
  -25.8350  -32.5860   23.8240 C   0  0  0  0  0  3  0  0  0  0  0  0
  -25.5710  -33.9780   24.2020 N   0  0  0  0  0  0  0  0  0  0  0  0
  -25.9000  -35.0420   23.4560 C   0  0  0  0  0  0  0  0  0  0  0  0
  -26.5270  -34.9480   22.3950 O   0  0  0  0  0  0  0  0  0  0  0  0
  -25.0120  -34.1300   25.0290 H   0  0  0  0  0  0  0  0  0  0  0  0
  -24.1940  -36.8670   23.2070 C   0  0  0  0  0  1  0  0  0  0  0  0
  -25.4600  -36.4260   23.9620 C   0  0  0  0  0  3  0  0  0  0  0  0
  -27.6400  -37.2500   24.7330 C   0  0  0  0  0  1  0  0  0  0  0  0
  -26.5090  -37.4610   23.8330 N   0  0  0  0  0  0  0  0  0  0  0  0
  -26.1280  -38.3850   24.0130 H   0  0  0  0  0  0  0  0  0  0  0  0
  -26.4290  -31.7740   25.0390 C   0  0  1  0  0  0  0  0  0  0  0  0
  -25.4030  -31.5090   26.1660 C   0  0  0  0  0  1  0  0  0  0  0  0
  -26.9680  -30.4070   24.5630 C   0  0  0  0  0  1  0  0  0  0  0  0
  -27.6350  -32.5330   25.6400 C   0  0  0  0  0  1  0  0  0  0  0  0
  -29.7400  -20.2380   18.6010 C   0  0  0  0  0  2  0  0  0  0  0  0
  -30.9170  -20.8170   19.3040 N   0  0  0  0  0  4  0  0  0  0  0  0
  -31.3480  -21.4770   18.6740 H   0  0  0  0  0  0  0  0  0  0  0  0
  -30.6070  -21.3370   20.1090 H   0  0  0  0  0  0  0  0  0  0  0  0
  -31.9790  -19.8890   19.7310 C   0  0  0  0  0  2  0  0  0  0  0  0
  -31.2770  -18.6610   23.3210 C   0  0  0  0  0  3  0  0  0  0  0  0
  -31.6980  -19.4770   22.2490 C   0  0  0  0  0  3  0  0  0  0  0  0
  -30.6850  -17.4090   23.0740 C   0  0  0  0  0  3  0  0  0  0  0  0
  -30.9030  -17.8060   20.6810 C   0  0  0  0  0  3  0  0  0  0  0  0
  -31.5180  -19.0460   20.9150 C   0  0  0  0  0  0  0  0  0  0  0  0
  -30.5020  -16.9710   21.7480 C   0  0  0  0  0  0  0  0  0  0  0  0
  -30.1180  -15.0250   20.3380 C   0  0  0  0  0  0  0  0  0  0  0  0
  -29.8890  -12.8710   19.1840 C   0  0  0  0  0  2  0  0  0  0  0  0
  -28.8690  -12.9050   18.0340 C   0  0  0  0  0  2  0  0  0  0  0  0
  -27.4650  -12.5890   18.5670 C   0  0  0  0  0  2  0  0  0  0  0  0
  -27.0850  -13.4640   19.7880 C   0  0  0  0  0  3  0  0  0  0  0  0
  -28.2080  -13.4660   20.8580 C   0  0  0  0  0  2  0  0  0  0  0  0
  -29.4860  -13.8320   20.2230 N   0  0  0  0  0  0  0  0  0  0  0  0
  -30.9450  -15.4160   19.5070 O   0  0  0  0  0  0  0  0  0  0  0  0
  -29.9320  -15.6960   21.4800 N   0  0  0  0  0  0  0  0  0  0  0  0
  -29.4150  -15.2380   22.2180 H   0  0  0  0  0  0  0  0  0  0  0  0
  -24.7060  -13.8040   20.7110 C   0  0  0  0  0  0  0  0  0  0  0  0
  -23.7390  -12.9170   21.1000 C   0  0  0  0  0  0  0  0  0  0  0  0
  -24.3120  -11.6180   20.9410 C   0  0  0  0  0  0  0  0  0  0  0  0
  -25.8030  -13.0410   20.3510 N   0  0  0  0  0  0  0  0  0  0  0  0
  -25.5740  -11.7160   20.5440 N   0  0  0  0  0  0  0  0  0  0  0  0
  -23.7170  -10.2860   21.0950 C   0  0  0  0  0  0  0  0  0  0  0  0
  -24.2690   -9.3270   21.9760 C   0  0  0  0  0  3  0  0  0  0  0  0
  -23.6710   -8.0580   22.1190 C   0  0  0  0  0  3  0  0  0  0  0  0
  -22.5050   -7.7360   21.3840 C   0  0  0  0  0  0  0  0  0  0  0  0
  -21.9740   -8.6830   20.4910 C   0  0  0  0  0  3  0  0  0  0  0  0
  -22.5720   -9.9460   20.3450 C   0  0  0  0  0  3  0  0  0  0  0  0
  -21.8720   -6.5200   21.4410 O   0  0  0  0  0  0  0  0  0  0  0  0
  -21.8820   -5.7520   22.5800 C   0  0  0  0  0  0  0  0  0  0  0  0
  -21.3830   -6.2350   23.8080 C   0  0  0  0  0  3  0  0  0  0  0  0
  -21.3530   -5.3900   24.9360 C   0  0  0  0  0  3  0  0  0  0  0  0
  -21.8100   -4.0620   24.8340 C   0  0  0  0  0  0  0  0  0  0  0  0
  -22.3010   -3.5780   23.6080 C   0  0  0  0  0  3  0  0  0  0  0  0
  -22.3350   -4.4200   22.4840 C   0  0  0  0  0  0  0  0  0  0  0  0
  -22.7890   -3.9430   21.2990 F   0  0  0  0  0  0  0  0  0  0  0  0
  -21.7730   -3.2470   25.9120 F   0  0  0  0  0  0  0  0  0  0  0  0
  -22.3330  -13.2440   21.5090 C   0  0  0  0  0  0  0  0  0  0  0  0
  -21.7510  -12.4430   22.3960 N   0  0  0  0  0  0  0  0  0  0  0  0
  -21.7560  -14.2420   21.0780 O   0  0  0  0  0  0  0  0  0  0  0  0
  -22.2320  -11.6330   22.7590 H   0  0  0  0  0  0  0  0  0  0  0  0
  -20.8140  -12.6400   22.7150 H   0  0  0  0  0  0  0  0  0  0  0  0
  -24.7400  -15.1930   20.6070 N   0  0  0  0  0  0  0  0  0  0  0  0
  -23.9360  -15.7750   20.8110 H   0  0  0  0  0  0  0  0  0  0  0  0
  -25.5330  -15.7170   20.2580 H   0  0  0  0  0  0  0  0  0  0  0  0
  2  4  1  0
  2  6  1  0
  3  5  1  0
  4  7  1  0
  6  1  1  0
  6  3  1  0
  7  8  1  0
  7  5  1  0
  9 11  1  0
  9  8  1  0
 10 21  2  0
 11 16  1  0
 12 20  1  0
 12 22  1  0
 13 19  1  0
 13 15  1  0
 14 20  1  0
 15 14  1  0
 16 15  2  0
 17 18  1  0
 17 11  2  0
 18 13  2  0
 19 12  1  0
 20 10  1  0
 22 24  2  0
 23 22  1  0
 25 23  1  0
 26 35  2  0
 26 31  1  0
 27 23  1  0
 27 31  1  0
 28 27  1  0
 29 30  1  0
 29 28  1  0
 30 26  1  0
 31 32  2  0
 32 33  1  0
 34 33  2  0
 35 34  1  0
 36 10  1  0
 36 37  1  0
 36 46  1  0
 37 40  1  0
 38 42  1  0
 38 37  1  0
 39 38  2  0
 42 41  1  0
 44 42  1  0
 44 45  1  0
 44 43  1  0
 46 49  1  1
 46 47  1  0
 48 46  1  0
 50  1  1  0
 50 51  1  0
 51 54  1  0
 51 53  1  0
 52 51  1  0
 54 59  1  0
 56 55  2  0
 57 55  1  0
 58 59  2  0
 58 60  1  0
 59 56  1  0
 60 57  2  0
 61 69  1  0
 62 67  1  0
 63 64  1  0
 63 62  1  0
 65 64  1  0
 65 74  1  0
 65 66  1  0
 67 61  1  0
 67 66  1  0
 68 61  2  0
 69 60  1  0
 69 70  1  0
 71 72  2  0
 72 91  1  0
 73 76  1  0
 73 72  1  0
 74 75  1  0
 74 71  1  0
 75 73  2  0
 76 77  1  0
 77 78  2  0
 79 82  1  0
 79 78  1  0
 80 79  2  0
 81 80  1  0
 81 76  2  0
 82 83  1  0
 83 84  1  0
 84 85  2  0
 86 85  1  0
 86 90  1  0
 87 86  2  0
 88 83  2  0
 88 87  1  0
 89 88  1  0
 91 92  1  0
 92 95  1  0
 92 94  1  0
 93 91  2  0
 96 71  1  0
 96 97  1  0
 98 96  1  0
M  ISO  4   8 101   9 101  61 100  69 100
M  END
>  <TORSDO>  (41) 
F 22

>  <SCORE>  (41) 
-12.172

>  <name>  (41) 
40

>  <ligand_id>  (41) 
40

>  <original_smiles>  (41) 
[H]c1c([H])c([H])c2c(c1[H])C([H])([H])C([H])([H])C([H])([H])C2([H])N([H])C(=O)C1([H])N(C(=O)C([H])(N([H])C(=O)C([H])(N([H])C([H])([H])[H])C([H])([H])[H])C(C([H])([H])[H])(C([H])([H])[H])C([H])([H])[H])C([H])([H])c2c([H])c(OC([H])([H])C3([H])C([H])([H])C([H])([H])C([H])(C([H])([H])C([H])([H])[N+]([H])([H])C([H])([H])c4c([H])c([H])c([H])c(N([H])C(=O)N5C([H])([H])C([H])([H])C([H])([H])C([H])(n6nc(-c7c([H])c([H])c(Oc8c([H])c([H])c(F)c([H])c8F)c([H])c7[H])c(C(=O)N([H])[H])c6N([H])[H])C5([H])[H])c4[H])C([H])([H])C3([H])[H])c([H])c([H])c2C1([H])[H]

>  <smiles>  (41) 
[H]c1c([H])c([H])c2c(c1[H])C([H])([H])C([H])([H])C([H])([H])C2([H])N([H])C(=O)C1([H])N(C(=O)C([H])(N([H])C(=O)C([H])(N([H])C([H])([H])[H])C([H])([H])[H])C(C([H])([H])[H])(C([H])([H])[H])C([H])([H])[H])C([H])([H])c2c([H])c(OC([H])([H])C3([H])C([H])([H])C([H])([H])C([H])(C([H])([H])C([H])([H])[N+]([H])([H])C([H])([H])c4c([H])c([H])c([H])c(N([H])C(=O)N5C([H])([H])C([H])([H])C([H])([H])C([H])(n6nc(-c7c([H])c([H])c(Oc8c([H])c([H])c(F)c([H])c8F)c([H])c7[H])c(C(=O)N([H])[H])c6N([H])[H])C5([H])[H])c4[H])C([H])([H])C3([H])[H])c([H])c([H])c2C1([H])[H]

$$$$
41:0:0
     RDKit          3D

 98106  0  0  1  0  0  0  0  0999 V2000
  -29.7450  -22.0670   20.6870 C   0  0  0  0  0  3  0  0  0  0  0  0
  -29.9590  -20.6810   20.5820 C   0  0  0  0  0  3  0  0  0  0  0  0
  -31.0990  -22.1130   22.7090 C   0  0  0  0  0  3  0  0  0  0  0  0
  -30.3200  -22.7920   21.7500 C   0  0  0  0  0  0  0  0  0  0  0  0
  -30.7530  -19.9960   21.5290 C   0  0  0  0  0  0  0  0  0  0  0  0
  -31.3230  -20.7210   22.6060 C   0  0  0  0  0  0  0  0  0  0  0  0
  -32.1010  -20.0930   23.5880 N   0  0  0  0  0  0  0  0  0  0  0  0
  -31.6730  -19.2110   23.8590 H   0  0  0  0  0  0  0  0  0  0  0  0
  -34.1110  -20.6970   22.1510 C   0  0  0  0  0  1  0  0  0  0  0  0
  -33.5210  -19.8700   23.3040 C   0  0  0  0  0  2  0  0  0  0  0  0
  -31.0150  -18.5080   21.3190 C   0  0  0  0  0  2  0  0  0  0  0  0
  -31.7760  -18.2510   20.0050 C   0  0  0  0  0  2  0  0  0  0  0  0
  -31.0330  -17.3210   19.0370 C   0  0  0  0  0  2  0  0  0  0  0  0
  -31.5640  -14.9410   19.4580 C   0  0  0  0  0  0  0  0  0  0  0  0
  -31.3940  -12.5310   19.0250 C   0  0  0  0  0  2  0  0  0  0  0  0
  -30.4220  -12.3270   17.8460 C   0  0  0  0  0  2  0  0  0  0  0  0
  -28.9650  -12.2390   18.3470 C   0  0  0  0  0  2  0  0  0  0  0  0
  -28.5920  -13.3910   19.3220 C   0  0  0  0  0  3  0  0  0  0  0  0
  -29.6810  -13.5620   20.4050 C   0  0  0  0  0  2  0  0  0  0  0  0
  -30.9750  -13.7490   19.7280 N   0  0  0  0  0  0  0  0  0  0  0  0
  -32.6670  -15.0470   18.9220 O   0  0  0  0  0  0  0  0  0  0  0  0
  -30.7740  -16.0090   19.6300 N   0  0  0  0  0  0  0  0  0  0  0  0
  -29.8720  -15.8410   20.0530 H   0  0  0  0  0  0  0  0  0  0  0  0
  -26.3070  -14.1160   20.2670 C   0  0  0  0  0  0  0  0  0  0  0  0
  -25.2300  -13.3960   20.7090 C   0  0  0  0  0  0  0  0  0  0  0  0
  -25.6010  -12.0200   20.5940 C   0  0  0  0  0  0  0  0  0  0  0  0
  -27.2710  -13.1830   19.9140 N   0  0  0  0  0  0  0  0  0  0  0  0
  -26.8540  -11.9160   20.1690 N   0  0  0  0  0  0  0  0  0  0  0  0
  -24.8170  -10.7970   20.8100 C   0  0  0  0  0  0  0  0  0  0  0  0
  -25.1500   -9.8780   21.8310 C   0  0  0  0  0  3  0  0  0  0  0  0
  -24.3730   -8.7170   22.0290 C   0  0  0  0  0  3  0  0  0  0  0  0
  -23.2480   -8.4670   21.2080 C   0  0  0  0  0  0  0  0  0  0  0  0
  -22.9360   -9.3720   20.1800 C   0  0  0  0  0  3  0  0  0  0  0  0
  -23.7140  -10.5240   19.9790 C   0  0  0  0  0  3  0  0  0  0  0  0
  -22.4490   -7.3520   21.3120 O   0  0  0  0  0  0  0  0  0  0  0  0
  -22.1000   -6.8290   22.5310 C   0  0  0  0  0  0  0  0  0  0  0  0
  -21.3920   -7.5840   23.4910 C   0  0  0  0  0  3  0  0  0  0  0  0
  -20.9930   -6.9850   24.7030 C   0  0  0  0  0  3  0  0  0  0  0  0
  -21.2910   -5.6320   24.9520 C   0  0  0  0  0  0  0  0  0  0  0  0
  -21.9910   -4.8770   23.9940 C   0  0  0  0  0  3  0  0  0  0  0  0
  -22.3920   -5.4740   22.7870 C   0  0  0  0  0  0  0  0  0  0  0  0
  -23.0480   -4.7360   21.8570 F   0  0  0  0  0  0  0  0  0  0  0  0
  -20.9010   -5.0530   26.1120 F   0  0  0  0  0  0  0  0  0  0  0  0
  -23.8930  -13.9440   21.1190 C   0  0  0  0  0  0  0  0  0  0  0  0
  -23.2080  -13.2700   22.0360 N   0  0  0  0  0  0  0  0  0  0  0  0
  -23.4710  -15.0040   20.6620 O   0  0  0  0  0  0  0  0  0  0  0  0
  -23.5640  -12.4130   22.4300 H   0  0  0  0  0  0  0  0  0  0  0  0
  -22.3120  -13.6190   22.3460 H   0  0  0  0  0  0  0  0  0  0  0  0
  -26.5400  -15.4800   20.1140 N   0  0  0  0  0  0  0  0  0  0  0  0
  -25.8220  -16.1710   20.3010 H   0  0  0  0  0  0  0  0  0  0  0  0
  -27.3730  -15.8780   19.7000 H   0  0  0  0  0  0  0  0  0  0  0  0
  -30.1160  -24.2960   21.8290 C   0  0  0  0  0  2  0  0  0  0  0  0
  -28.7050  -24.6350   22.1010 N   0  0  0  0  0  4  0  0  0  0  0  0
  -28.6040  -24.6840   23.1020 H   0  0  0  0  0  0  0  0  0  0  0  0
  -28.1180  -23.8780   21.7870 H   0  0  0  0  0  0  0  0  0  0  0  0
  -28.2420  -25.9090   21.5050 C   0  0  0  0  0  2  0  0  0  0  0  0
  -27.8730  -25.7450   20.0190 C   0  0  0  0  0  2  0  0  0  0  0  0
  -27.8210  -27.0170   19.3800 O   0  0  0  0  0  0  0  0  0  0  0  0
  -24.4810  -31.8970   23.3020 C   0  0  0  0  0  0  0  0  0  0  0  0
  -26.6700  -27.7330   19.5850 C   0  0  0  0  0  0  0  0  0  0  0  0
  -23.0730  -30.7030   21.6510 C   0  0  0  0  0  3  0  0  0  0  0  0
  -24.3350  -29.2670   19.9610 C   0  0  0  0  0  0  0  0  0  0  0  0
  -25.5810  -31.0110   21.2540 C   0  0  0  0  0  2  0  0  0  0  0  0
  -25.5560  -29.7080   20.4850 C   0  0  0  0  0  0  0  0  0  0  0  0
  -26.7280  -28.9490   20.2950 C   0  0  0  0  0  3  0  0  0  0  0  0
  -25.4350  -27.2940   19.0570 C   0  0  0  0  0  3  0  0  0  0  0  0
  -24.2650  -28.0550   19.2480 C   0  0  0  0  0  3  0  0  0  0  0  0
  -23.1310  -30.1510   20.2010 C   0  0  0  0  0  2  0  0  0  0  0  0
  -24.4020  -31.2100   22.1280 N   0  0  0  0  0  0  0  0  0  0  0  0
  -23.4640  -32.1500   23.9640 O   0  0  0  0  0  0  0  0  0  0  0  0
  -22.4710  -29.6130   22.5660 C   0  0  0  0  0  0  0  0  0  0  0  0
  -21.1480  -29.4080   22.4570 N   0  0  0  0  0  0  0  0  0  0  0  0
  -23.1870  -28.9580   23.3260 O   0  0  0  0  0  0  0  0  0  0  0  0
  -20.6270  -29.9930   21.8190 H   0  0  0  0  0  0  0  0  0  0  0  0
  -17.8330  -28.0400   22.8700 C   0  0  0  0  0  0  0  0  0  0  0  0
  -20.3720  -28.4090   23.1880 C   0  0  0  0  0  3  0  0  0  0  0  0
  -20.5530  -27.0010   22.5730 C   0  0  0  0  0  2  0  0  0  0  0  0
  -19.4830  -26.6580   21.5330 C   0  0  0  0  0  2  0  0  0  0  0  0
  -18.0860  -26.7200   22.1590 C   0  0  0  0  0  2  0  0  0  0  0  0
  -18.9080  -28.8400   23.3400 C   0  0  0  0  0  0  0  0  0  0  0  0
  -18.6210  -30.0770   23.9560 C   0  0  0  0  0  3  0  0  0  0  0  0
  -17.2920  -30.5140   24.1120 C   0  0  0  0  0  3  0  0  0  0  0  0
  -16.2320  -29.7070   23.6640 C   0  0  0  0  0  3  0  0  0  0  0  0
  -16.5030  -28.4730   23.0470 C   0  0  0  0  0  3  0  0  0  0  0  0
  -25.8420  -32.4230   23.8550 C   0  0  0  0  0  3  0  0  0  0  0  0
  -26.4160  -31.5430   25.0320 C   0  0  1  0  0  0  0  0  0  0  0  0
  -25.3980  -31.2810   26.1660 C   0  0  0  0  0  1  0  0  0  0  0  0
  -26.8990  -30.1720   24.5020 C   0  0  0  0  0  1  0  0  0  0  0  0
  -27.6510  -32.2380   25.6510 C   0  0  0  0  0  1  0  0  0  0  0  0
  -25.6360  -33.8100   24.2920 N   0  0  0  0  0  0  0  0  0  0  0  0
  -25.9960  -34.8900   23.5870 C   0  0  0  0  0  0  0  0  0  0  0  0
  -26.6080  -34.8190   22.5170 O   0  0  0  0  0  0  0  0  0  0  0  0
  -25.0970  -33.9450   25.1340 H   0  0  0  0  0  0  0  0  0  0  0  0
  -24.3700  -36.7990   23.4350 C   0  0  0  0  0  1  0  0  0  0  0  0
  -25.6180  -36.2700   24.1590 C   0  0  0  0  0  3  0  0  0  0  0  0
  -27.8340  -36.9700   24.9530 C   0  0  0  0  0  1  0  0  0  0  0  0
  -26.7100  -37.2640   24.0670 N   0  0  0  0  0  0  0  0  0  0  0  0
  -26.3690  -38.1960   24.2860 H   0  0  0  0  0  0  0  0  0  0  0  0
  1  4  1  0
  2  1  2  0
  2  5  1  0
  4 52  1  0
  4  3  2  0
  5  6  2  0
  6  3  1  0
  6  7  1  0
  7  8  1  0
  9 10  1  0
 10  7  1  0
 11  5  1  0
 12 11  1  0
 13 22  1  0
 13 12  1  0
 14 22  1  0
 14 20  1  0
 15 20  1  0
 16 17  1  0
 16 15  1  0
 18 17  1  0
 18 27  1  0
 18 19  1  0
 20 19  1  0
 21 14  2  0
 22 23  1  0
 24 25  2  0
 25 44  1  0
 26 25  1  0
 26 29  1  0
 27 28  1  0
 27 24  1  0
 28 26  2  0
 29 30  1  0
 30 31  2  0
 32 35  1  0
 32 31  1  0
 33 32  2  0
 34 33  1  0
 34 29  2  0
 35 36  1  0
 36 41  2  0
 36 37  1  0
 37 38  2  0
 38 39  1  0
 39 43  1  0
 40 39  2  0
 41 40  1  0
 42 41  1  0
 44 45  1  0
 45 48  1  0
 45 47  1  0
 46 44  2  0
 49 24  1  0
 49 50  1  0
 51 49  1  0
 52 53  1  0
 53 54  1  0
 55 53  1  0
 56 53  1  0
 57 56  1  0
 58 60  1  0
 58 57  1  0
 59 70  2  0
 60 65  1  0
 61 69  1  0
 61 71  1  0
 62 68  1  0
 62 64  1  0
 63 69  1  0
 64 63  1  0
 65 64  2  0
 66 67  1  0
 66 60  2  0
 67 62  2  0
 68 61  1  0
 69 59  1  0
 71 73  2  0
 72 71  1  0
 74 72  1  0
 75 84  2  0
 75 80  1  0
 76 72  1  0
 76 80  1  0
 77 76  1  0
 78 79  1  0
 78 77  1  0
 79 75  1  0
 80 81  2  0
 81 82  1  0
 83 82  2  0
 84 83  1  0
 85 59  1  0
 85 90  1  0
 85 86  1  0
 86 89  1  1
 86 87  1  0
 88 86  1  0
 90 93  1  0
 91 95  1  0
 91 90  1  0
 92 91  2  0
 95 94  1  0
 97 95  1  0
 97 98  1  0
 97 96  1  0
M  ISO  4  14 100  22 100  57 101  58 101
M  END
>  <TORSDO>  (42) 
F 25

>  <SCORE>  (42) 
-10.373

>  <name>  (42) 
41

>  <ligand_id>  (42) 
41

>  <original_smiles>  (42) 
[H]c1c([H])c([H])c2c(c1[H])C([H])([H])C([H])([H])C([H])([H])C2([H])N([H])C(=O)C1([H])N(C(=O)C([H])(N([H])C(=O)C([H])(N([H])C([H])([H])[H])C([H])([H])[H])C(C([H])([H])[H])(C([H])([H])[H])C([H])([H])[H])C([H])([H])c2c([H])c(OC([H])([H])C([H])([H])[N+]([H])([H])C([H])([H])c3c([H])c([H])c(C([H])([H])C([H])([H])C([H])([H])N([H])C(=O)N4C([H])([H])C([H])([H])C([H])([H])C([H])(n5nc(-c6c([H])c([H])c(Oc7c([H])c([H])c(F)c([H])c7F)c([H])c6[H])c(C(=O)N([H])[H])c5N([H])[H])C4([H])[H])c(N([H])C([H])([H])C([H])([H])[H])c3[H])c([H])c([H])c2C1([H])[H]

>  <smiles>  (42) 
[H]c1c([H])c([H])c2c(c1[H])C([H])([H])C([H])([H])C([H])([H])C2([H])N([H])C(=O)C1([H])N(C(=O)C([H])(N([H])C(=O)C([H])(N([H])C([H])([H])[H])C([H])([H])[H])C(C([H])([H])[H])(C([H])([H])[H])C([H])([H])[H])C([H])([H])c2c([H])c(OC([H])([H])C([H])([H])[N+]([H])([H])C([H])([H])c3c([H])c([H])c(C([H])([H])C([H])([H])C([H])([H])N([H])C(=O)N4C([H])([H])C([H])([H])C([H])([H])C([H])(n5nc(-c6c([H])c([H])c(Oc7c([H])c([H])c(F)c([H])c7F)c([H])c6[H])c(C(=O)N([H])[H])c5N([H])[H])C4([H])[H])c(N([H])C([H])([H])C([H])([H])[H])c3[H])c([H])c([H])c2C1([H])[H]

$$$$
42:0:0
     RDKit          3D

 94102  0  0  1  0  0  0  0  0999 V2000
  -29.7320  -22.3960   19.4790 C   0  0  0  0  0  2  0  0  0  0  0  0
  -29.4840  -22.0180   21.9660 C   0  0  0  0  0  2  0  0  0  0  0  0
  -29.7550  -23.8840   19.9180 C   0  0  0  0  0  2  0  0  0  0  0  0
  -28.6940  -23.3340   22.1570 C   0  0  0  0  0  2  0  0  0  0  0  0
  -29.2460  -21.4040   20.5720 C   0  0  0  0  0  3  0  0  0  0  0  0
  -28.6280  -24.2490   20.9050 C   0  0  0  0  0  3  0  0  0  0  0  0
  -29.8520  -19.9830   20.3700 C   0  0  0  0  0  2  0  0  0  0  0  0
  -29.7950  -19.0550   21.6080 C   0  0  0  0  0  2  0  0  0  0  0  0
  -31.0860  -14.3820   20.1420 C   0  0  0  0  0  0  0  0  0  0  0  0
  -30.7060  -12.2630   18.9340 C   0  0  0  0  0  2  0  0  0  0  0  0
  -29.7280  -12.5310   17.7700 C   0  0  0  0  0  2  0  0  0  0  0  0
  -28.2630  -12.4320   18.2450 C   0  0  0  0  0  2  0  0  0  0  0  0
  -27.9960  -13.2530   19.5330 C   0  0  0  0  0  3  0  0  0  0  0  0
  -29.0740  -12.9500   20.6010 C   0  0  0  0  0  2  0  0  0  0  0  0
  -30.3930  -13.2190   20.0040 N   0  0  0  0  0  0  0  0  0  0  0  0
  -32.2040  -14.5900   19.6500 O   0  0  0  0  0  0  0  0  0  0  0  0
  -30.6630  -16.7650   20.8500 C   0  0  0  0  0  0  0  0  0  0  0  0
  -31.8710  -17.2640   20.5490 N   0  0  0  0  0  4  0  0  0  0  0  0
  -30.3300  -15.4580   20.7270 N   0  0  0  0  0  0  0  0  0  0  0  0
  -29.7100  -17.6110   21.3010 N   0  0  0  0  0  0  0  0  0  0  0  0
  -32.1050  -18.2380   20.6630 H   0  0  0  0  0  0  0  0  0  0  0  0
  -32.5800  -16.6460   20.1680 H   0  0  0  0  0  0  0  0  0  0  0  0
  -29.4160  -15.2460   21.0800 H   0  0  0  0  0  0  0  0  0  0  0  0
  -28.7910  -17.2310   21.4890 H   0  0  0  0  0  0  0  0  0  0  0  0
  -25.6380  -13.9370   20.3140 C   0  0  0  0  0  0  0  0  0  0  0  0
  -24.5590  -13.1960   20.7150 C   0  0  0  0  0  0  0  0  0  0  0  0
  -24.9780  -11.8310   20.6620 C   0  0  0  0  0  0  0  0  0  0  0  0
  -26.6480  -13.0250   20.0490 N   0  0  0  0  0  0  0  0  0  0  0  0
  -26.2560  -11.7550   20.3150 N   0  0  0  0  0  0  0  0  0  0  0  0
  -24.2210  -10.5900   20.8680 C   0  0  0  0  0  0  0  0  0  0  0  0
  -24.6110   -9.6410   21.8390 C   0  0  0  0  0  3  0  0  0  0  0  0
  -23.8580   -8.4610   22.0300 C   0  0  0  0  0  3  0  0  0  0  0  0
  -22.7020   -8.2240   21.2480 C   0  0  0  0  0  0  0  0  0  0  0  0
  -22.3330   -9.1610   20.2660 C   0  0  0  0  0  3  0  0  0  0  0  0
  -23.0850  -10.3310   20.0750 C   0  0  0  0  0  3  0  0  0  0  0  0
  -21.9250   -7.0950   21.3440 O   0  0  0  0  0  0  0  0  0  0  0  0
  -21.7750   -6.4240   22.5310 C   0  0  0  0  0  0  0  0  0  0  0  0
  -21.2320   -7.0490   23.6750 C   0  0  0  0  0  3  0  0  0  0  0  0
  -21.0300   -6.3040   24.8540 C   0  0  0  0  0  3  0  0  0  0  0  0
  -21.3610   -4.9360   24.8880 C   0  0  0  0  0  0  0  0  0  0  0  0
  -21.8980   -4.3120   23.7480 C   0  0  0  0  0  3  0  0  0  0  0  0
  -22.1010   -5.0540   22.5720 C   0  0  0  0  0  0  0  0  0  0  0  0
  -22.5980   -4.4450   21.4680 F   0  0  0  0  0  0  0  0  0  0  0  0
  -21.1590   -4.2170   26.0160 F   0  0  0  0  0  0  0  0  0  0  0  0
  -23.1850  -13.7110   21.0340 C   0  0  0  0  0  0  0  0  0  0  0  0
  -22.4650  -13.0280   21.9170 N   0  0  0  0  0  0  0  0  0  0  0  0
  -22.7620  -14.7530   20.5350 O   0  0  0  0  0  0  0  0  0  0  0  0
  -22.8220  -12.1850   22.3390 H   0  0  0  0  0  0  0  0  0  0  0  0
  -21.5450  -13.3560   22.1760 H   0  0  0  0  0  0  0  0  0  0  0  0
  -25.8390  -15.3020   20.1310 N   0  0  0  0  0  0  0  0  0  0  0  0
  -25.0640  -15.9530   20.1960 H   0  0  0  0  0  0  0  0  0  0  0  0
  -26.6280  -15.6890   19.6300 H   0  0  0  0  0  0  0  0  0  0  0  0
  -28.6390  -25.7470   21.3090 C   0  0  0  0  0  2  0  0  0  0  0  0
  -28.5270  -26.6330   20.1860 O   0  0  0  0  0  0  0  0  0  0  0  0
  -24.6350  -31.7880   23.1840 C   0  0  0  0  0  0  0  0  0  0  0  0
  -27.3680  -27.3700   20.1680 C   0  0  0  0  0  0  0  0  0  0  0  0
  -23.4670  -30.3760   21.5210 C   0  0  0  0  0  3  0  0  0  0  0  0
  -24.9580  -28.8420   20.1290 C   0  0  0  0  0  0  0  0  0  0  0  0
  -25.9910  -30.7560   21.3660 C   0  0  0  0  0  2  0  0  0  0  0  0
  -26.0990  -29.3820   20.7360 C   0  0  0  0  0  0  0  0  0  0  0  0
  -27.3070  -28.6520   20.7580 C   0  0  0  0  0  3  0  0  0  0  0  0
  -26.2180  -26.8380   19.5550 C   0  0  0  0  0  3  0  0  0  0  0  0
  -25.0120  -27.5670   19.5360 C   0  0  0  0  0  3  0  0  0  0  0  0
  -23.7050  -29.6900   20.1470 C   0  0  0  0  0  2  0  0  0  0  0  0
  -24.7140  -30.9890   22.0820 N   0  0  0  0  0  0  0  0  0  0  0  0
  -23.5440  -32.0530   23.7090 O   0  0  0  0  0  0  0  0  0  0  0  0
  -22.8060  -29.3540   22.4750 C   0  0  0  0  0  0  0  0  0  0  0  0
  -21.4840  -29.1700   22.3300 N   0  0  0  0  0  0  0  0  0  0  0  0
  -23.4830  -28.7320   23.3000 O   0  0  0  0  0  0  0  0  0  0  0  0
  -21.0020  -29.7190   21.6310 H   0  0  0  0  0  0  0  0  0  0  0  0
  -18.1060  -27.9720   22.7910 C   0  0  0  0  0  0  0  0  0  0  0  0
  -20.6610  -28.2290   23.0900 C   0  0  0  0  0  3  0  0  0  0  0  0
  -20.7690  -26.7990   22.5100 C   0  0  0  0  0  2  0  0  0  0  0  0
  -19.6770  -26.4780   21.4840 C   0  0  0  0  0  2  0  0  0  0  0  0
  -18.2880  -26.6240   22.1140 C   0  0  0  0  0  2  0  0  0  0  0  0
  -19.2200  -28.7320   23.2360 C   0  0  0  0  0  0  0  0  0  0  0  0
  -18.9950  -29.9940   23.8300 C   0  0  0  0  0  3  0  0  0  0  0  0
  -17.6880  -30.4940   23.9840 C   0  0  0  0  0  3  0  0  0  0  0  0
  -16.5880  -29.7310   23.5550 C   0  0  0  0  0  3  0  0  0  0  0  0
  -16.7980  -28.4730   22.9640 C   0  0  0  0  0  3  0  0  0  0  0  0
  -25.9070  -32.4290   23.8240 C   0  0  0  0  0  3  0  0  0  0  0  0
  -26.4140  -31.6580   25.1040 C   0  0  1  0  0  0  0  0  0  0  0  0
  -25.3100  -31.4020   26.1570 C   0  0  0  0  0  1  0  0  0  0  0  0
  -27.0200  -30.2890   24.7140 C   0  0  0  0  0  1  0  0  0  0  0  0
  -27.5450  -32.4630   25.7870 C   0  0  0  0  0  1  0  0  0  0  0  0
  -25.5820  -33.8220   24.1540 N   0  0  0  0  0  0  0  0  0  0  0  0
  -25.9130  -34.8790   23.4000 C   0  0  0  0  0  0  0  0  0  0  0  0
  -26.5970  -34.7820   22.3770 O   0  0  0  0  0  0  0  0  0  0  0  0
  -24.9740  -33.9690   24.9460 H   0  0  0  0  0  0  0  0  0  0  0  0
  -24.1740  -36.6570   23.0250 C   0  0  0  0  0  1  0  0  0  0  0  0
  -25.4070  -36.2610   23.8520 C   0  0  0  0  0  3  0  0  0  0  0  0
  -27.5160  -37.1700   24.7190 C   0  0  0  0  0  1  0  0  0  0  0  0
  -26.4300  -37.3230   23.7540 N   0  0  0  0  0  0  0  0  0  0  0  0
  -26.0150  -38.2420   23.8860 H   0  0  0  0  0  0  0  0  0  0  0  0
  1  3  1  0
  1  5  1  0
  2  4  1  0
  3  6  1  0
  5  7  1  0
  5  2  1  0
  6 53  1  0
  6  4  1  0
  7  8  1  0
  9 19  1  0
 10 15  1  0
 11 12  1  0
 11 10  1  0
 13 12  1  0
 13 28  1  0
 13 14  1  0
 15  9  1  0
 15 14  1  0
 16  9  2  0
 17 20  1  0
 18 21  1  0
 18 17  2  0
 19 17  1  0
 19 23  1  0
 20 24  1  0
 20  8  1  0
 22 18  1  0
 25 26  2  0
 26 45  1  0
 27 26  1  0
 27 30  1  0
 28 25  1  0
 28 29  1  0
 29 27  2  0
 30 31  1  0
 31 32  2  0
 33 36  1  0
 33 32  1  0
 34 33  2  0
 35 34  1  0
 35 30  2  0
 36 37  1  0
 37 42  2  0
 37 38  1  0
 38 39  2  0
 39 40  1  0
 40 44  1  0
 41 40  2  0
 42 41  1  0
 43 42  1  0
 45 46  1  0
 46 49  1  0
 46 48  1  0
 47 45  2  0
 50 51  1  0
 50 25  1  0
 52 50  1  0
 54 53  1  0
 55 66  2  0
 56 54  1  0
 56 61  1  0
 57 65  1  0
 57 67  1  0
 58 64  1  0
 58 60  1  0
 59 65  1  0
 60 61  2  0
 60 59  1  0
 62 56  2  0
 63 62  1  0
 63 58  2  0
 64 57  1  0
 65 55  1  0
 67 69  2  0
 68 67  1  0
 70 68  1  0
 71 80  2  0
 71 76  1  0
 72 68  1  0
 72 76  1  0
 73 72  1  0
 74 75  1  0
 74 73  1  0
 75 71  1  0
 76 77  2  0
 77 78  1  0
 79 78  2  0
 80 79  1  0
 81 55  1  0
 81 86  1  0
 81 82  1  0
 82 85  1  1
 82 83  1  0
 84 82  1  0
 86 89  1  0
 87 91  1  0
 87 86  1  0
 88 87  2  0
 91 90  1  0
 93 91  1  0
 93 94  1  0
 93 92  1  0
M  ISO  4   9 100  19 100  53 101  54 101
M  END
>  <TORSDO>  (43) 
F 19

>  <SCORE>  (43) 
-13.800

>  <name>  (43) 
42

>  <ligand_id>  (43) 
42

>  <original_smiles>  (43) 
[H]c1c([H])c([H])c2c(c1[H])C([H])([H])C([H])([H])C([H])([H])C2([H])N([H])C(=O)C1([H])N(C(=O)C([H])(N([H])C(=O)C([H])(N([H])C([H])([H])[H])C([H])([H])[H])C(C([H])([H])[H])(C([H])([H])[H])C([H])([H])[H])C([H])([H])c2c([H])c(OC([H])([H])C3([H])C([H])([H])C([H])([H])C([H])(C([H])([H])C([H])([H])[N+]([H])=C(N([H])[H])N([H])C(=O)N4C([H])([H])C([H])([H])C([H])([H])C([H])(n5nc(-c6c([H])c([H])c(Oc7c([H])c([H])c(F)c([H])c7F)c([H])c6[H])c(C(=O)N([H])[H])c5N([H])[H])C4([H])[H])C([H])([H])C3([H])[H])c([H])c([H])c2C1([H])[H]

>  <smiles>  (43) 
[H]c1c([H])c([H])c2c(c1[H])C([H])([H])C([H])([H])C([H])([H])C2([H])N([H])C(=O)C1([H])N(C(=O)C([H])(N([H])C(=O)C([H])(N([H])C([H])([H])[H])C([H])([H])[H])C(C([H])([H])[H])(C([H])([H])[H])C([H])([H])[H])C([H])([H])c2c([H])c(OC([H])([H])C3([H])C([H])([H])C([H])([H])C([H])(C([H])([H])C([H])([H])[N+]([H])=C(N([H])[H])N([H])C(=O)N4C([H])([H])C([H])([H])C([H])([H])C([H])(n5nc(-c6c([H])c([H])c(Oc7c([H])c([H])c(F)c([H])c7F)c([H])c6[H])c(C(=O)N([H])[H])c5N([H])[H])C4([H])[H])C([H])([H])C3([H])[H])c([H])c([H])c2C1([H])[H]

$$$$
43:0:0
     RDKit          3D

 89 97  0  0  1  0  0  0  0  0999 V2000
  -30.0330  -21.2940   18.1280 C   0  0  0  0  0  2  0  0  0  0  0  0
  -28.5910  -21.6480   18.5190 C   0  0  0  0  0  2  0  0  0  0  0  0
  -30.7030  -20.7800   19.4160 C   0  0  0  0  0  2  0  0  0  0  0  0
  -28.6310  -21.7620   20.0470 C   0  0  0  0  0  3  0  0  0  0  0  0
  -29.6150  -20.5680   20.3940 N   0  0  1  0  0  4  0  0  0  0  0  0
  -29.9850  -20.7330   21.3190 H   0  0  0  0  0  0  0  0  0  0  0  0
  -28.9600  -23.3840   20.4230 C   0  0  0  0  0  3  0  0  0  0  0  0
  -27.9880  -24.7070   20.0220 C   0  0  0  0  0  3  0  0  0  0  0  0
  -28.2530  -26.2250   20.2550 O   0  0  0  0  0  0  0  0  0  0  0  0
  -24.6260  -31.9040   23.2270 C   0  0  0  0  0  0  0  0  0  0  0  0
  -27.2000  -27.2070   20.1740 C   0  0  0  0  0  0  0  0  0  0  0  0
  -23.4250  -30.5110   21.5870 C   0  0  0  0  0  3  0  0  0  0  0  0
  -24.8710  -28.9450   20.1520 C   0  0  0  0  0  0  0  0  0  0  0  0
  -25.9790  -30.7800   21.4190 C   0  0  0  0  0  2  0  0  0  0  0  0
  -26.0510  -29.3920   20.7590 C   0  0  0  0  0  0  0  0  0  0  0  0
  -27.2160  -28.5400   20.7530 C   0  0  0  0  0  3  0  0  0  0  0  0
  -25.9970  -26.8650   19.5190 C   0  0  0  0  0  3  0  0  0  0  0  0
  -24.8560  -27.6950   19.5140 C   0  0  0  0  0  3  0  0  0  0  0  0
  -23.6430  -29.8400   20.2050 C   0  0  0  0  0  2  0  0  0  0  0  0
  -24.6970  -31.0870   22.1310 N   0  0  0  0  0  0  0  0  0  0  0  0
  -23.5410  -32.1870   23.7570 O   0  0  0  0  0  0  0  0  0  0  0  0
  -22.7490  -29.5010   22.5490 C   0  0  0  0  0  0  0  0  0  0  0  0
  -21.4210  -29.3260   22.4190 N   0  0  0  0  0  0  0  0  0  0  0  0
  -23.4200  -28.8780   23.3740 O   0  0  0  0  0  0  0  0  0  0  0  0
  -20.9360  -29.8790   21.7270 H   0  0  0  0  0  0  0  0  0  0  0  0
  -18.0420  -28.1180   22.9200 C   0  0  0  0  0  0  0  0  0  0  0  0
  -20.6000  -28.3870   23.1900 C   0  0  0  0  0  3  0  0  0  0  0  0
  -20.7060  -26.9550   22.6170 C   0  0  0  0  0  2  0  0  0  0  0  0
  -19.6050  -26.6290   21.6020 C   0  0  0  0  0  2  0  0  0  0  0  0
  -18.2220  -26.7700   22.2440 C   0  0  0  0  0  2  0  0  0  0  0  0
  -19.1570  -28.8850   23.3500 C   0  0  0  0  0  0  0  0  0  0  0  0
  -18.9320  -30.1460   23.9430 C   0  0  0  0  0  3  0  0  0  0  0  0
  -17.6250  -30.6400   24.1120 C   0  0  0  0  0  3  0  0  0  0  0  0
  -16.5240  -29.8710   23.6950 C   0  0  0  0  0  3  0  0  0  0  0  0
  -16.7340  -28.6130   23.1050 C   0  0  0  0  0  3  0  0  0  0  0  0
  -25.9060  -32.5380   23.8550 C   0  0  0  0  0  3  0  0  0  0  0  0
  -26.4120  -31.7690   25.1380 C   0  0  1  0  0  0  0  0  0  0  0  0
  -25.3120  -31.5370   26.2010 C   0  0  0  0  0  1  0  0  0  0  0  0
  -26.9940  -30.3880   24.7570 C   0  0  0  0  0  1  0  0  0  0  0  0
  -27.5620  -32.5630   25.8010 C   0  0  0  0  0  1  0  0  0  0  0  0
  -25.5950  -33.9370   24.1860 N   0  0  0  0  0  0  0  0  0  0  0  0
  -25.9190  -34.9920   23.4260 C   0  0  0  0  0  0  0  0  0  0  0  0
  -26.5750  -34.8890   22.3860 O   0  0  0  0  0  0  0  0  0  0  0  0
  -25.0100  -34.0920   24.9940 H   0  0  0  0  0  0  0  0  0  0  0  0
  -24.1860  -36.7870   23.0970 C   0  0  0  0  0  1  0  0  0  0  0  0
  -25.4390  -36.3810   23.8900 C   0  0  0  0  0  3  0  0  0  0  0  0
  -27.5820  -37.2690   24.6930 C   0  0  0  0  0  1  0  0  0  0  0  0
  -26.4690  -37.4340   23.7620 N   0  0  0  0  0  0  0  0  0  0  0  0
  -26.0660  -38.3560   23.9090 H   0  0  0  0  0  0  0  0  0  0  0  0
  -29.1430  -19.0430   20.3970 C   0  0  0  0  0  3  0  0  0  0  0  0
  -30.1950  -17.7210   20.5340 C   0  0  0  0  0  3  0  0  0  0  0  0
  -30.5420  -15.0050   20.3650 C   0  0  0  0  0  0  0  0  0  0  0  0
  -30.4080  -12.6800   19.3770 C   0  0  0  0  0  2  0  0  0  0  0  0
  -29.4680  -12.6670   18.1510 C   0  0  0  0  0  2  0  0  0  0  0  0
  -28.0040  -12.4550   18.5860 C   0  0  0  0  0  2  0  0  0  0  0  0
  -27.6080  -13.3430   19.7940 C   0  0  0  0  0  3  0  0  0  0  0  0
  -28.6730  -13.3310   20.9110 C   0  0  0  0  0  2  0  0  0  0  0  0
  -29.9360  -13.7530   20.2960 N   0  0  0  0  0  0  0  0  0  0  0  0
  -31.7400  -15.0730   20.0730 O   0  0  0  0  0  0  0  0  0  0  0  0
  -29.7840  -16.1910   20.5540 N   0  0  0  0  0  0  0  0  0  0  0  0
  -28.8070  -16.0210   20.7470 H   0  0  0  0  0  0  0  0  0  0  0  0
  -25.2230  -13.8900   20.5390 C   0  0  0  0  0  0  0  0  0  0  0  0
  -24.1670  -13.1020   20.9060 C   0  0  0  0  0  0  0  0  0  0  0  0
  -24.6440  -11.7560   20.8640 C   0  0  0  0  0  0  0  0  0  0  0  0
  -26.2750  -13.0250   20.2930 N   0  0  0  0  0  0  0  0  0  0  0  0
  -25.9370  -11.7350   20.5530 N   0  0  0  0  0  0  0  0  0  0  0  0
  -23.9300  -10.4860   21.0470 C   0  0  0  0  0  0  0  0  0  0  0  0
  -24.3740   -9.5170   21.9740 C   0  0  0  0  0  3  0  0  0  0  0  0
  -23.6600   -8.3110   22.1460 C   0  0  0  0  0  3  0  0  0  0  0  0
  -22.4860   -8.0670   21.3930 C   0  0  0  0  0  0  0  0  0  0  0  0
  -22.0610   -9.0250   20.4570 C   0  0  0  0  0  3  0  0  0  0  0  0
  -22.7750  -10.2220   20.2820 C   0  0  0  0  0  3  0  0  0  0  0  0
  -21.7410   -6.9160   21.4770 O   0  0  0  0  0  0  0  0  0  0  0  0
  -21.7000   -6.1680   22.6260 C   0  0  0  0  0  0  0  0  0  0  0  0
  -21.2570   -6.7080   23.8530 C   0  0  0  0  0  3  0  0  0  0  0  0
  -21.1650   -5.8850   24.9930 C   0  0  0  0  0  3  0  0  0  0  0  0
  -21.5050   -4.5200   24.9070 C   0  0  0  0  0  0  0  0  0  0  0  0
  -21.9400   -3.9790   23.6840 C   0  0  0  0  0  3  0  0  0  0  0  0
  -22.0350   -4.8000   22.5470 C   0  0  0  0  0  0  0  0  0  0  0  0
  -22.4340   -4.2690   21.3670 F   0  0  0  0  0  0  0  0  0  0  0  0
  -21.4090   -3.7260   25.9990 F   0  0  0  0  0  0  0  0  0  0  0  0
  -22.7660  -13.5630   21.1830 C   0  0  0  0  0  0  0  0  0  0  0  0
  -22.0490  -12.8500   22.0440 N   0  0  0  0  0  0  0  0  0  0  0  0
  -22.3180  -14.5890   20.6740 O   0  0  0  0  0  0  0  0  0  0  0  0
  -22.4290  -12.0220   22.4790 H   0  0  0  0  0  0  0  0  0  0  0  0
  -21.1070  -13.1360   22.2750 H   0  0  0  0  0  0  0  0  0  0  0  0
  -25.3690  -15.2640   20.3680 N   0  0  0  0  0  0  0  0  0  0  0  0
  -24.5850  -15.8990   20.4730 H   0  0  0  0  0  0  0  0  0  0  0  0
  -26.1940  -15.7110   19.9920 H   0  0  0  0  0  0  0  0  0  0  0  0
  1  2  1  0
  1  3  1  0
  2  4  1  0
  3  5  1  0
  4  5  1  0
  4  7  1  0
  5 50  1  0
  5  6  1  1
  8  9  1  0
  8  7  2  0
 10 21  2  0
 11  9  1  0
 11 16  1  0
 12 20  1  0
 12 22  1  0
 13 19  1  0
 13 15  1  0
 14 20  1  0
 15 14  1  0
 16 15  2  0
 17 11  2  0
 18 17  1  0
 18 13  2  0
 19 12  1  0
 20 10  1  0
 22 24  2  0
 23 22  1  0
 25 23  1  0
 26 35  2  0
 26 31  1  0
 27 23  1  0
 27 31  1  0
 28 27  1  0
 29 30  1  0
 29 28  1  0
 30 26  1  0
 31 32  2  0
 32 33  1  0
 34 33  2  0
 35 34  1  0
 36 10  1  0
 36 41  1  0
 36 37  1  0
 37 40  1  1
 37 38  1  0
 39 37  1  0
 41 44  1  0
 42 46  1  0
 42 41  1  0
 43 42  2  0
 46 45  1  0
 48 46  1  0
 48 49  1  0
 48 47  1  0
 50 51  2  0
 51 60  1  0
 52 60  1  0
 53 58  1  0
 54 55  1  0
 54 53  1  0
 56 55  1  0
 56 65  1  0
 56 57  1  0
 58 52  1  0
 58 57  1  0
 59 52  2  0
 60 61  1  0
 62 63  2  0
 63 82  1  0
 64 63  1  0
 64 67  1  0
 65 62  1  0
 65 66  1  0
 66 64  2  0
 67 68  1  0
 68 69  2  0
 70 73  1  0
 70 69  1  0
 71 70  2  0
 72 71  1  0
 72 67  2  0
 73 74  1  0
 74 75  1  0
 75 76  2  0
 77 76  1  0
 77 81  1  0
 78 77  2  0
 79 74  2  0
 79 78  1  0
 80 79  1  0
 82 83  1  0
 83 86  1  0
 83 85  1  0
 84 82  2  0
 87 88  1  0
 87 62  1  0
 89 87  1  0
M  ISO  4   8 101   9 101  52 100  60 100
M  END
>  <TORSDO>  (44) 
F 20

>  <SCORE>  (44) 
-15.211

>  <name>  (44) 
43

>  <ligand_id>  (44) 
43

>  <original_smiles>  (44) 
[H]c1c([H])c([H])c2c(c1[H])C([H])([H])C([H])([H])C([H])([H])C2([H])N([H])C(=O)C1([H])N(C(=O)C([H])(N([H])C(=O)C([H])(N([H])C([H])([H])[H])C([H])([H])[H])C(C([H])([H])[H])(C([H])([H])[H])C([H])([H])[H])C([H])([H])c2c([H])c(OC([H])([H])C([H])([H])C3([H])C([H])([H])C([H])([H])C([H])([H])[N+]3([H])C([H])([H])C([H])([H])N([H])C(=O)N3C([H])([H])C([H])([H])C([H])([H])C([H])(n4nc(-c5c([H])c([H])c(Oc6c([H])c([H])c(F)c([H])c6F)c([H])c5[H])c(C(=O)N([H])[H])c4N([H])[H])C3([H])[H])c([H])c([H])c2C1([H])[H]

>  <smiles>  (44) 
[H]c1c([H])c([H])c2c(c1[H])C([H])([H])C([H])([H])C([H])([H])C2([H])N([H])C(=O)C1([H])N(C(=O)C([H])(N([H])C(=O)C([H])(N([H])C([H])([H])[H])C([H])([H])[H])C(C([H])([H])[H])(C([H])([H])[H])C([H])([H])[H])C([H])([H])c2c([H])c(OC([H])([H])C([H])([H])C3([H])C([H])([H])C([H])([H])C([H])([H])[N+]3([H])C([H])([H])C([H])([H])N([H])C(=O)N3C([H])([H])C([H])([H])C([H])([H])C([H])(n4nc(-c5c([H])c([H])c(Oc6c([H])c([H])c(F)c([H])c6F)c([H])c5[H])c(C(=O)N([H])[H])c4N([H])[H])C3([H])[H])c([H])c([H])c2C1([H])[H]

$$$$
44:0:0
     RDKit          3D

 90 98  0  0  1  0  0  0  0  0999 V2000
  -31.4070  -22.9540   20.4320 C   0  0  0  0  0  3  0  0  0  0  0  0
  -30.4790  -24.0250   20.3470 C   0  0  0  0  0  3  0  0  0  0  0  0
  -31.0040  -21.5960   20.4120 C   0  0  0  0  0  3  0  0  0  0  0  0
  -28.7200  -22.3590   20.1820 C   0  0  0  0  0  3  0  0  0  0  0  0
  -29.0960  -23.7610   20.2280 C   0  0  0  0  0  0  0  0  0  0  0  0
  -29.6430  -21.2460   20.2760 C   0  0  0  0  0  0  0  0  0  0  0  0
  -29.2290  -19.8600   20.1800 N   0  0  0  0  0  0  0  0  0  0  0  0
  -28.2230  -19.7480   20.0800 H   0  0  0  0  0  0  0  0  0  0  0  0
  -29.9170  -18.6280   20.7450 C   0  0  0  0  0  2  0  0  0  0  0  0
  -29.9630  -17.2790   19.8560 C   0  0  0  0  0  2  0  0  0  0  0  0
  -30.5810  -14.7530   20.3020 C   0  0  0  0  0  0  0  0  0  0  0  0
  -30.3660  -12.4690   19.3220 C   0  0  0  0  0  2  0  0  0  0  0  0
  -29.4240  -12.5290   18.0970 C   0  0  0  0  0  2  0  0  0  0  0  0
  -27.9520  -12.3760   18.5290 C   0  0  0  0  0  2  0  0  0  0  0  0
  -27.5870  -13.2710   19.7450 C   0  0  0  0  0  3  0  0  0  0  0  0
  -28.6460  -13.1910   20.8650 C   0  0  0  0  0  2  0  0  0  0  0  0
  -29.9490  -13.5270   20.2710 N   0  0  0  0  0  0  0  0  0  0  0  0
  -31.7560  -14.8480   19.9390 O   0  0  0  0  0  0  0  0  0  0  0  0
  -29.8080  -15.8900   20.4810 N   0  0  0  0  0  0  0  0  0  0  0  0
  -28.8780  -15.6990   20.8220 H   0  0  0  0  0  0  0  0  0  0  0  0
  -25.2060  -13.8790   20.4860 C   0  0  0  0  0  0  0  0  0  0  0  0
  -24.1360  -13.1120   20.8640 C   0  0  0  0  0  0  0  0  0  0  0  0
  -24.5940  -11.7590   20.8400 C   0  0  0  0  0  0  0  0  0  0  0  0
  -26.2420  -12.9940   20.2420 N   0  0  0  0  0  0  0  0  0  0  0  0
  -25.8820  -11.7130   20.5190 N   0  0  0  0  0  0  0  0  0  0  0  0
  -23.8610  -10.5020   21.0410 C   0  0  0  0  0  0  0  0  0  0  0  0
  -24.3040   -9.5240   21.9580 C   0  0  0  0  0  3  0  0  0  0  0  0
  -23.5670   -8.3340   22.1480 C   0  0  0  0  0  3  0  0  0  0  0  0
  -22.3730   -8.1150   21.4200 C   0  0  0  0  0  0  0  0  0  0  0  0
  -21.9510   -9.0810   20.4880 C   0  0  0  0  0  3  0  0  0  0  0  0
  -22.6900  -10.2620   20.2960 C   0  0  0  0  0  3  0  0  0  0  0  0
  -21.6070   -6.9800   21.5200 O   0  0  0  0  0  0  0  0  0  0  0  0
  -21.5950   -6.2170   22.6610 C   0  0  0  0  0  0  0  0  0  0  0  0
  -21.2460   -6.7590   23.9170 C   0  0  0  0  0  3  0  0  0  0  0  0
  -21.1780   -5.9250   25.0500 C   0  0  0  0  0  3  0  0  0  0  0  0
  -21.4510   -4.5490   24.9290 C   0  0  0  0  0  0  0  0  0  0  0  0
  -21.7940   -4.0070   23.6780 C   0  0  0  0  0  3  0  0  0  0  0  0
  -21.8640   -4.8390   22.5480 C   0  0  0  0  0  0  0  0  0  0  0  0
  -22.1730   -4.3060   21.3410 F   0  0  0  0  0  0  0  0  0  0  0  0
  -21.3790   -3.7440   26.0160 F   0  0  0  0  0  0  0  0  0  0  0  0
  -22.7410  -13.6020   21.1290 C   0  0  0  0  0  0  0  0  0  0  0  0
  -22.0080  -12.9200   22.0030 N   0  0  0  0  0  0  0  0  0  0  0  0
  -22.3090  -14.6220   20.5960 O   0  0  0  0  0  0  0  0  0  0  0  0
  -22.3730  -12.1010   22.4640 H   0  0  0  0  0  0  0  0  0  0  0  0
  -21.0680  -13.2250   22.2150 H   0  0  0  0  0  0  0  0  0  0  0  0
  -25.3730  -15.2480   20.3050 N   0  0  0  0  0  0  0  0  0  0  0  0
  -24.6080  -15.9000   20.4480 H   0  0  0  0  0  0  0  0  0  0  0  0
  -26.2140  -15.6910   19.9570 H   0  0  0  0  0  0  0  0  0  0  0  0
  -28.0120  -24.9140   20.1020 C   0  0  0  0  0  2  0  0  0  0  0  0
  -28.3080  -26.3850   20.1760 O   0  0  0  0  0  0  0  0  0  0  0  0
  -24.5950  -31.8560   23.2180 C   0  0  0  0  0  0  0  0  0  0  0  0
  -27.1990  -27.2710   20.1360 C   0  0  0  0  0  0  0  0  0  0  0  0
  -23.3830  -30.4580   21.5890 C   0  0  0  0  0  3  0  0  0  0  0  0
  -24.8290  -28.9070   20.1530 C   0  0  0  0  0  0  0  0  0  0  0  0
  -25.9290  -30.7630   21.3940 C   0  0  0  0  0  2  0  0  0  0  0  0
  -26.0080  -29.3870   20.7390 C   0  0  0  0  0  0  0  0  0  0  0  0
  -27.1940  -28.5860   20.7150 C   0  0  0  0  0  3  0  0  0  0  0  0
  -25.9890  -26.8590   19.5240 C   0  0  0  0  0  3  0  0  0  0  0  0
  -24.8250  -27.6510   19.5340 C   0  0  0  0  0  3  0  0  0  0  0  0
  -23.5920  -29.7840   20.2100 C   0  0  0  0  0  2  0  0  0  0  0  0
  -24.6570  -31.0420   22.1240 N   0  0  0  0  0  0  0  0  0  0  0  0
  -23.5150  -32.1390   23.7550 O   0  0  0  0  0  0  0  0  0  0  0  0
  -22.7210  -29.4430   22.5520 C   0  0  0  0  0  0  0  0  0  0  0  0
  -21.3920  -29.2740   22.4360 N   0  0  0  0  0  0  0  0  0  0  0  0
  -23.4020  -28.8130   23.3650 O   0  0  0  0  0  0  0  0  0  0  0  0
  -20.9040  -29.8270   21.7450 H   0  0  0  0  0  0  0  0  0  0  0  0
  -18.0130  -28.0930   22.9590 C   0  0  0  0  0  0  0  0  0  0  0  0
  -20.5740  -28.3410   23.2130 C   0  0  0  0  0  3  0  0  0  0  0  0
  -20.6660  -26.9090   22.6390 C   0  0  0  0  0  2  0  0  0  0  0  0
  -19.5550  -26.5890   21.6350 C   0  0  0  0  0  2  0  0  0  0  0  0
  -18.1780  -26.7410   22.2860 C   0  0  0  0  0  2  0  0  0  0  0  0
  -19.1370  -28.8520   23.3810 C   0  0  0  0  0  0  0  0  0  0  0  0
  -18.9240  -30.1150   23.9730 C   0  0  0  0  0  3  0  0  0  0  0  0
  -17.6220  -30.6190   24.1470 C   0  0  0  0  0  3  0  0  0  0  0  0
  -16.5130  -29.8590   23.7390 C   0  0  0  0  0  3  0  0  0  0  0  0
  -16.7090  -28.5970   23.1480 C   0  0  0  0  0  3  0  0  0  0  0  0
  -25.8800  -32.4860   23.8360 C   0  0  0  0  0  3  0  0  0  0  0  0
  -26.4060  -31.7050   25.1030 C   0  0  1  0  0  0  0  0  0  0  0  0
  -25.3210  -31.4620   26.1780 C   0  0  0  0  0  1  0  0  0  0  0  0
  -26.9840  -30.3290   24.6980 C   0  0  0  0  0  1  0  0  0  0  0  0
  -27.5630  -32.4970   25.7590 C   0  0  0  0  0  1  0  0  0  0  0  0
  -25.5680  -33.8800   24.1810 N   0  0  0  0  0  0  0  0  0  0  0  0
  -25.8830  -34.9410   23.4260 C   0  0  0  0  0  0  0  0  0  0  0  0
  -26.5380  -34.8470   22.3840 O   0  0  0  0  0  0  0  0  0  0  0  0
  -24.9860  -34.0280   24.9910 H   0  0  0  0  0  0  0  0  0  0  0  0
  -24.1350  -36.7240   23.1210 C   0  0  0  0  0  1  0  0  0  0  0  0
  -25.3970  -36.3220   23.9030 C   0  0  0  0  0  3  0  0  0  0  0  0
  -27.5440  -37.2130   24.6930 C   0  0  0  0  0  1  0  0  0  0  0  0
  -26.4190  -37.3820   23.7770 N   0  0  0  0  0  0  0  0  0  0  0  0
  -26.0100  -38.2990   23.9390 H   0  0  0  0  0  0  0  0  0  0  0  0
  2  1  2  0
  3  1  1  0
  4  5  2  0
  4  6  1  0
  5  2  1  0
  6  3  2  0
  7  6  1  0
  7  9  1  0
  8  7  1  0
 10 19  1  0
 10  9  1  0
 11 19  1  0
 12 17  1  0
 13 14  1  0
 13 12  1  0
 15 14  1  0
 15 24  1  0
 15 16  1  0
 17 11  1  0
 17 16  1  0
 18 11  2  0
 19 20  1  0
 21 22  2  0
 22 41  1  0
 23 22  1  0
 23 26  1  0
 24 21  1  0
 24 25  1  0
 25 23  2  0
 26 27  1  0
 27 28  2  0
 29 32  1  0
 29 28  1  0
 30 29  2  0
 31 30  1  0
 31 26  2  0
 32 33  1  0
 33 34  1  0
 34 35  2  0
 36 35  1  0
 36 40  1  0
 37 36  2  0
 38 33  2  0
 38 37  1  0
 39 38  1  0
 41 42  1  0
 42 45  1  0
 42 44  1  0
 43 41  2  0
 46 47  1  0
 46 21  1  0
 48 46  1  0
 49 50  1  0
 49  5  1  0
 51 62  2  0
 52 50  1  0
 52 57  1  0
 53 61  1  0
 53 63  1  0
 54 60  1  0
 54 56  1  0
 55 61  1  0
 56 55  1  0
 57 56  2  0
 58 59  1  0
 58 52  2  0
 59 54  2  0
 60 53  1  0
 61 51  1  0
 63 65  2  0
 64 63  1  0
 66 64  1  0
 67 76  2  0
 67 72  1  0
 68 64  1  0
 68 72  1  0
 69 68  1  0
 70 71  1  0
 70 69  1  0
 71 67  1  0
 72 73  2  0
 73 74  1  0
 75 74  2  0
 76 75  1  0
 77 51  1  0
 77 82  1  0
 77 78  1  0
 78 81  1  1
 78 79  1  0
 80 78  1  0
 82 85  1  0
 83 87  1  0
 83 82  1  0
 84 83  2  0
 87 86  1  0
 89 87  1  0
 89 90  1  0
 89 88  1  0
M  ISO  4  11 100  19 100  49 101  50 101
M  END
>  <TORSDO>  (45) 
F 20

>  <SCORE>  (45) 
-13.704

>  <name>  (45) 
44

>  <ligand_id>  (45) 
44

>  <original_smiles>  (45) 
[H]c1c([H])c(N([H])C([H])([H])C([H])([H])N([H])C(=O)N2C([H])([H])C([H])([H])C([H])([H])C([H])(n3nc(-c4c([H])c([H])c(Oc5c([H])c([H])c(F)c([H])c5F)c([H])c4[H])c(C(=O)N([H])[H])c3N([H])[H])C2([H])[H])c([H])c(C([H])([H])Oc2c([H])c([H])c3c(c2[H])C([H])([H])N(C(=O)C([H])(N([H])C(=O)C([H])(N([H])C([H])([H])[H])C([H])([H])[H])C(C([H])([H])[H])(C([H])([H])[H])C([H])([H])[H])C([H])(C(=O)N([H])C2([H])c4c([H])c([H])c([H])c([H])c4C([H])([H])C([H])([H])C2([H])[H])C3([H])[H])c1[H]

>  <smiles>  (45) 
[H]c1c([H])c(N([H])C([H])([H])C([H])([H])N([H])C(=O)N2C([H])([H])C([H])([H])C([H])([H])C([H])(n3nc(-c4c([H])c([H])c(Oc5c([H])c([H])c(F)c([H])c5F)c([H])c4[H])c(C(=O)N([H])[H])c3N([H])[H])C2([H])[H])c([H])c(C([H])([H])Oc2c([H])c([H])c3c(c2[H])C([H])([H])N(C(=O)C([H])(N([H])C(=O)C([H])(N([H])C([H])([H])[H])C([H])([H])[H])C(C([H])([H])[H])(C([H])([H])[H])C([H])([H])[H])C([H])(C(=O)N([H])C2([H])c4c([H])c([H])c([H])c([H])c4C([H])([H])C([H])([H])C2([H])[H])C3([H])[H])c1[H]

$$$$
45:0:0
     RDKit          3D

 87 95  0  0  1  0  0  0  0  0999 V2000
  -28.3430  -20.3520   20.7730 C   0  0  0  0  0  3  0  0  0  0  0  0
  -30.2020  -20.9310   19.5460 C   0  0  0  0  0  3  0  0  0  0  0  0
  -27.9200  -21.7790   20.7390 C   0  0  0  0  0  3  0  0  0  0  0  0
  -29.7780  -22.3530   19.5100 C   0  0  0  0  0  3  0  0  0  0  0  0
  -29.5340  -19.7860   20.1610 C   0  0  0  0  0  0  0  0  0  0  0  0
  -28.5900  -22.9230   20.1160 C   0  0  0  0  0  0  0  0  0  0  0  0
  -30.2450  -18.2000   20.1870 C   0  0  0  0  0  2  0  0  0  0  0  0
  -30.5290  -15.3550   20.1680 C   0  0  0  0  0  0  0  0  0  0  0  0
  -30.4510  -12.9400   19.2640 C   0  0  0  0  0  2  0  0  0  0  0  0
  -29.5010  -12.7760   18.0520 C   0  0  0  0  0  2  0  0  0  0  0  0
  -28.0610  -12.5130   18.5250 C   0  0  0  0  0  2  0  0  0  0  0  0
  -27.6440  -13.4600   19.6780 C   0  0  0  0  0  3  0  0  0  0  0  0
  -28.7200  -13.5800   20.7780 C   0  0  0  0  0  2  0  0  0  0  0  0
  -29.9420  -14.0670   20.1200 N   0  0  0  0  0  0  0  0  0  0  0  0
  -31.7390  -15.3570   19.9040 O   0  0  0  0  0  0  0  0  0  0  0  0
  -29.7970  -16.6240   20.3000 N   0  0  0  0  0  0  0  0  0  0  0  0
  -28.8100  -16.4950   20.4660 H   0  0  0  0  0  0  0  0  0  0  0  0
  -25.2930  -14.0040   20.5030 C   0  0  0  0  0  0  0  0  0  0  0  0
  -24.2410  -13.2200   20.8860 C   0  0  0  0  0  0  0  0  0  0  0  0
  -24.7090  -11.8700   20.8170 C   0  0  0  0  0  0  0  0  0  0  0  0
  -26.3300  -13.1360   20.2160 N   0  0  0  0  0  0  0  0  0  0  0  0
  -25.9930  -11.8450   20.4720 N   0  0  0  0  0  0  0  0  0  0  0  0
  -23.9870  -10.6030   21.0000 C   0  0  0  0  0  0  0  0  0  0  0  0
  -24.4180   -9.6360   21.9340 C   0  0  0  0  0  3  0  0  0  0  0  0
  -23.6950   -8.4360   22.1060 C   0  0  0  0  0  3  0  0  0  0  0  0
  -22.5270   -8.1960   21.3440 C   0  0  0  0  0  0  0  0  0  0  0  0
  -22.1150   -9.1520   20.3990 C   0  0  0  0  0  3  0  0  0  0  0  0
  -22.8400  -10.3430   20.2250 C   0  0  0  0  0  3  0  0  0  0  0  0
  -21.7730   -7.0490   21.4270 O   0  0  0  0  0  0  0  0  0  0  0  0
  -21.6850   -6.3290   22.5910 C   0  0  0  0  0  0  0  0  0  0  0  0
  -21.1370   -6.8810   23.7690 C   0  0  0  0  0  3  0  0  0  0  0  0
  -21.0010   -6.0840   24.9240 C   0  0  0  0  0  3  0  0  0  0  0  0
  -21.4010   -4.7350   24.9000 C   0  0  0  0  0  0  0  0  0  0  0  0
  -21.9410   -4.1810   23.7260 C   0  0  0  0  0  3  0  0  0  0  0  0
  -22.0800   -4.9760   22.5730 C   0  0  0  0  0  0  0  0  0  0  0  0
  -22.5810   -4.4310   21.4390 F   0  0  0  0  0  0  0  0  0  0  0  0
  -21.2630   -3.9660   26.0050 F   0  0  0  0  0  0  0  0  0  0  0  0
  -22.8510  -13.6890   21.1970 C   0  0  0  0  0  0  0  0  0  0  0  0
  -22.1460  -12.9780   22.0690 N   0  0  0  0  0  0  0  0  0  0  0  0
  -22.4010  -14.7220   20.7020 O   0  0  0  0  0  0  0  0  0  0  0  0
  -22.5260  -12.1440   22.4900 H   0  0  0  0  0  0  0  0  0  0  0  0
  -21.2140  -13.2750   22.3220 H   0  0  0  0  0  0  0  0  0  0  0  0
  -25.4470  -15.3790   20.3460 N   0  0  0  0  0  0  0  0  0  0  0  0
  -24.6770  -16.0250   20.4830 H   0  0  0  0  0  0  0  0  0  0  0  0
  -26.2740  -15.8250   19.9720 H   0  0  0  0  0  0  0  0  0  0  0  0
  -27.8620  -24.4830   19.8860 C   0  0  0  0  0  2  0  0  0  0  0  0
  -28.2330  -26.0370   20.1780 O   0  0  0  0  0  0  0  0  0  0  0  0
  -24.6920  -31.9260   23.2300 C   0  0  0  0  0  0  0  0  0  0  0  0
  -27.2340  -27.1330   20.1210 C   0  0  0  0  0  0  0  0  0  0  0  0
  -23.4840  -30.5440   21.5900 C   0  0  0  0  0  3  0  0  0  0  0  0
  -24.9230  -28.9780   20.1270 C   0  0  0  0  0  0  0  0  0  0  0  0
  -26.0450  -30.7820   21.4120 C   0  0  0  0  0  2  0  0  0  0  0  0
  -26.1150  -29.3860   20.7380 C   0  0  0  0  0  0  0  0  0  0  0  0
  -27.2660  -28.4830   20.7160 C   0  0  0  0  0  3  0  0  0  0  0  0
  -26.0130  -26.8730   19.4600 C   0  0  0  0  0  3  0  0  0  0  0  0
  -24.8940  -27.7400   19.4670 C   0  0  0  0  0  3  0  0  0  0  0  0
  -23.6980  -29.8840   20.2010 C   0  0  0  0  0  2  0  0  0  0  0  0
  -24.7610  -31.1090   22.1310 N   0  0  0  0  0  0  0  0  0  0  0  0
  -23.6080  -32.2010   23.7700 O   0  0  0  0  0  0  0  0  0  0  0  0
  -22.8100  -29.5280   22.5500 C   0  0  0  0  0  0  0  0  0  0  0  0
  -21.4850  -29.3350   22.4190 N   0  0  0  0  0  0  0  0  0  0  0  0
  -23.4870  -28.9170   23.3810 O   0  0  0  0  0  0  0  0  0  0  0  0
  -20.9910  -29.8800   21.7270 H   0  0  0  0  0  0  0  0  0  0  0  0
  -18.1240  -28.0690   22.9290 C   0  0  0  0  0  0  0  0  0  0  0  0
  -20.6790  -28.3800   23.1880 C   0  0  0  0  0  3  0  0  0  0  0  0
  -20.8050  -26.9520   22.6080 C   0  0  0  0  0  2  0  0  0  0  0  0
  -19.7070  -26.6140   21.5940 C   0  0  0  0  0  2  0  0  0  0  0  0
  -18.3240  -26.7280   22.2430 C   0  0  0  0  0  2  0  0  0  0  0  0
  -19.2290  -28.8510   23.3590 C   0  0  0  0  0  0  0  0  0  0  0  0
  -18.9860  -30.1030   23.9630 C   0  0  0  0  0  3  0  0  0  0  0  0
  -17.6710  -30.5750   24.1380 C   0  0  0  0  0  3  0  0  0  0  0  0
  -16.5810  -29.7910   23.7240 C   0  0  0  0  0  3  0  0  0  0  0  0
  -16.8080  -28.5400   23.1250 C   0  0  0  0  0  3  0  0  0  0  0  0
  -25.9680  -32.5680   23.8520 C   0  0  0  0  0  3  0  0  0  0  0  0
  -25.6500  -33.9640   24.1980 N   0  0  0  0  0  0  0  0  0  0  0  0
  -25.9410  -35.0280   23.4380 C   0  0  0  0  0  0  0  0  0  0  0  0
  -26.5700  -34.9390   22.3810 O   0  0  0  0  0  0  0  0  0  0  0  0
  -25.0870  -34.1050   25.0250 H   0  0  0  0  0  0  0  0  0  0  0  0
  -24.1820  -36.8090   23.1780 C   0  0  0  0  0  1  0  0  0  0  0  0
  -25.4620  -36.4100   23.9280 C   0  0  0  0  0  3  0  0  0  0  0  0
  -27.6120  -37.3250   24.6820 C   0  0  0  0  0  1  0  0  0  0  0  0
  -26.4770  -37.4760   23.7750 N   0  0  0  0  0  0  0  0  0  0  0  0
  -26.0640  -38.3910   23.9330 H   0  0  0  0  0  0  0  0  0  0  0  0
  -26.4890  -31.7970   25.1280 C   0  0  1  0  0  0  0  0  0  0  0  0
  -25.3970  -31.5480   26.1950 C   0  0  0  0  0  1  0  0  0  0  0  0
  -27.0830  -30.4240   24.7400 C   0  0  0  0  0  1  0  0  0  0  0  0
  -27.6310  -32.5980   25.7940 C   0  0  0  0  0  1  0  0  0  0  0  0
  2  5  1  0
  3  1  1  0
  4  2  2  0
  4  6  1  0
  5  7  1  0
  5  1  2  0
  6  3  2  0
  7 16  1  0
  8 16  1  0
  9 14  1  0
 10 11  1  0
 10  9  1  0
 12 11  1  0
 12 21  1  0
 12 13  1  0
 14  8  1  0
 14 13  1  0
 15  8  2  0
 16 17  1  0
 18 19  2  0
 19 38  1  0
 20 19  1  0
 20 23  1  0
 21 22  1  0
 21 18  1  0
 22 20  2  0
 23 24  1  0
 24 25  2  0
 26 29  1  0
 26 25  1  0
 27 26  2  0
 28 27  1  0
 28 23  2  0
 29 30  1  0
 30 31  1  0
 31 32  2  0
 33 32  1  0
 33 37  1  0
 34 33  2  0
 35 30  2  0
 35 34  1  0
 36 35  1  0
 38 39  1  0
 39 42  1  0
 39 41  1  0
 40 38  2  0
 43 44  1  0
 43 18  1  0
 45 43  1  0
 46  6  1  0
 46 47  1  0
 48 59  2  0
 49 47  1  0
 49 54  1  0
 50 58  1  0
 50 60  1  0
 51 57  1  0
 51 53  1  0
 52 58  1  0
 53 52  1  0
 54 53  2  0
 55 56  1  0
 55 49  2  0
 56 51  2  0
 57 50  1  0
 58 48  1  0
 60 62  2  0
 61 60  1  0
 63 61  1  0
 64 73  2  0
 64 69  1  0
 65 61  1  0
 65 69  1  0
 66 65  1  0
 67 68  1  0
 67 66  1  0
 68 64  1  0
 69 70  2  0
 70 71  1  0
 72 71  2  0
 73 72  1  0
 74 48  1  0
 74 75  1  0
 74 84  1  0
 75 78  1  0
 76 80  1  0
 76 75  1  0
 77 76  2  0
 80 79  1  0
 82 80  1  0
 82 83  1  0
 82 81  1  0
 84 87  1  1
 84 85  1  0
 86 84  1  0
M  ISO  4   8 100  16 100  46 101  47 101
M  END
>  <TORSDO>  (46) 
F 18

>  <SCORE>  (46) 
-15.768

>  <name>  (46) 
45

>  <ligand_id>  (46) 
45

>  <original_smiles>  (46) 
[H]c1c([H])c([H])c2c(c1[H])C([H])([H])C([H])([H])C([H])([H])C2([H])N([H])C(=O)C1([H])N(C(=O)C([H])(N([H])C(=O)C([H])(N([H])C([H])([H])[H])C([H])([H])[H])C(C([H])([H])[H])(C([H])([H])[H])C([H])([H])[H])C([H])([H])c2c([H])c(OC([H])([H])c3c([H])c([H])c(C([H])([H])N([H])C(=O)N4C([H])([H])C([H])([H])C([H])([H])C([H])(n5nc(-c6c([H])c([H])c(Oc7c([H])c([H])c(F)c([H])c7F)c([H])c6[H])c(C(=O)N([H])[H])c5N([H])[H])C4([H])[H])c([H])c3[H])c([H])c([H])c2C1([H])[H]

>  <smiles>  (46) 
[H]c1c([H])c([H])c2c(c1[H])C([H])([H])C([H])([H])C([H])([H])C2([H])N([H])C(=O)C1([H])N(C(=O)C([H])(N([H])C(=O)C([H])(N([H])C([H])([H])[H])C([H])([H])[H])C(C([H])([H])[H])(C([H])([H])[H])C([H])([H])[H])C([H])([H])c2c([H])c(OC([H])([H])c3c([H])c([H])c(C([H])([H])N([H])C(=O)N4C([H])([H])C([H])([H])C([H])([H])C([H])(n5nc(-c6c([H])c([H])c(Oc7c([H])c([H])c(F)c([H])c7F)c([H])c6[H])c(C(=O)N([H])[H])c5N([H])[H])C4([H])[H])c([H])c3[H])c([H])c([H])c2C1([H])[H]

$$$$
46:0:0
     RDKit          3D

 97107  0  0  1  0  0  0  0  0999 V2000
  -31.0710  -21.3410   19.7820 C   0  0  0  0  0  3  0  0  0  0  0  0
  -29.9740  -22.5460   22.0480 C   0  0  0  0  0  3  0  0  0  0  0  0
  -30.6890  -22.7310   19.7570 C   0  0  0  0  0  0  0  0  0  0  0  0
  -30.0960  -23.3380   20.8800 C   0  0  0  0  0  0  0  0  0  0  0  0
  -30.9430  -20.5250   20.9580 C   0  0  0  0  0  0  0  0  0  0  0  0
  -30.4280  -21.1950   22.1050 C   0  0  0  0  0  0  0  0  0  0  0  0
  -30.9260  -23.6650   18.5670 C   0  0  0  0  0  2  0  0  0  0  0  0
  -29.6000  -24.8200   20.8030 C   0  0  0  0  0  2  0  0  0  0  0  0
  -31.4130  -25.0880   19.0140 C   0  0  0  0  0  2  0  0  0  0  0  0
  -30.5600  -25.8500   20.0830 C   0  0  0  0  0  3  0  0  0  0  0  0
  -30.4560  -20.5580   23.3530 N   0  0  0  0  0  0  0  0  0  0  0  0
  -30.4370  -19.5450   23.3040 H   0  0  0  0  0  0  0  0  0  0  0  0
  -31.5380  -21.0660   24.1910 C   0  0  0  0  0  2  0  0  0  0  0  0
  -33.6230  -21.2900   22.5740 C   0  0  0  0  0  2  0  0  0  0  0  0
  -34.1070  -21.4780   23.9910 C   0  0  0  0  0  2  0  0  0  0  0  0
  -32.9020  -20.6040   23.7140 C   0  0  0  0  0  3  0  0  0  0  0  0
  -30.0580  -27.1160   19.4870 O   0  0  0  0  0  0  0  0  0  0  0  0
  -26.7760  -30.5620   24.9640 C   0  0  0  0  0  0  0  0  0  0  0  0
  -28.9560  -27.8210   19.9940 C   0  0  0  0  0  0  0  0  0  0  0  0
  -25.4210  -30.1540   22.9390 C   0  0  0  0  0  3  0  0  0  0  0  0
  -26.7100  -29.3630   20.8710 C   0  0  0  0  0  0  0  0  0  0  0  0
  -27.9730  -30.3810   22.7720 C   0  0  0  0  0  2  0  0  0  0  0  0
  -27.9260  -29.4600   21.5580 C   0  0  0  0  0  0  0  0  0  0  0  0
  -29.0540  -28.7070   21.1110 C   0  0  0  0  0  3  0  0  0  0  0  0
  -27.7180  -27.7650   19.3200 C   0  0  0  0  0  3  0  0  0  0  0  0
  -26.6050  -28.5230   19.7490 C   0  0  0  0  0  3  0  0  0  0  0  0
  -25.5450  -30.1840   21.3920 C   0  0  0  0  0  2  0  0  0  0  0  0
  -26.7440  -30.3550   23.6140 N   0  0  0  0  0  0  0  0  0  0  0  0
  -25.7320  -30.6180   25.6320 O   0  0  0  0  0  0  0  0  0  0  0  0
  -24.7150  -28.8450   23.3590 C   0  0  0  0  0  0  0  0  0  0  0  0
  -23.4470  -28.6840   22.9430 N   0  0  0  0  0  0  0  0  0  0  0  0
  -25.3110  -27.9900   24.0190 O   0  0  0  0  0  0  0  0  0  0  0  0
  -23.0310  -29.4270   22.4000 H   0  0  0  0  0  0  0  0  0  0  0  0
  -20.3220  -27.1030   22.0410 C   0  0  0  0  0  0  0  0  0  0  0  0
  -22.6040  -27.5130   23.1850 C   0  0  0  0  0  3  0  0  0  0  0  0
  -23.1130  -26.2930   22.3830 C   0  0  0  0  0  2  0  0  0  0  0  0
  -22.4320  -26.1420   21.0200 C   0  0  0  0  0  2  0  0  0  0  0  0
  -20.9170  -25.9940   21.1860 C   0  0  0  0  0  2  0  0  0  0  0  0
  -21.1200  -27.8280   22.9650 C   0  0  0  0  0  0  0  0  0  0  0  0
  -20.5250  -28.8720   23.7080 C   0  0  0  0  0  3  0  0  0  0  0  0
  -19.1660  -29.1910   23.5390 C   0  0  0  0  0  3  0  0  0  0  0  0
  -18.3780  -28.4600   22.6340 C   0  0  0  0  0  3  0  0  0  0  0  0
  -18.9560  -27.4150   21.8900 C   0  0  0  0  0  3  0  0  0  0  0  0
  -28.1210  -30.7600   25.7280 C   0  0  0  0  0  3  0  0  0  0  0  0
  -27.9520  -31.9040   26.6370 N   0  0  0  0  0  0  0  0  0  0  0  0
  -28.4980  -33.1120   26.4520 C   0  0  0  0  0  0  0  0  0  0  0  0
  -29.2670  -33.3620   25.5180 O   0  0  0  0  0  0  0  0  0  0  0  0
  -27.2920  -31.7880   27.3930 H   0  0  0  0  0  0  0  0  0  0  0  0
  -27.1370  -35.1930   26.8230 C   0  0  0  0  0  1  0  0  0  0  0  0
  -28.1390  -34.2180   27.4630 C   0  0  0  0  0  3  0  0  0  0  0  0
  -30.1870  -34.1650   28.8150 C   0  0  0  0  0  1  0  0  0  0  0  0
  -29.3130  -34.9670   27.9620 N   0  0  0  0  0  0  0  0  0  0  0  0
  -29.0210  -35.7860   28.4880 H   0  0  0  0  0  0  0  0  0  0  0  0
  -28.5710  -29.4790   26.5340 C   0  0  1  0  0  0  0  0  0  0  0  0
  -27.4710  -28.9140   27.4640 C   0  0  0  0  0  1  0  0  0  0  0  0
  -29.0050  -28.3500   25.5730 C   0  0  0  0  0  1  0  0  0  0  0  0
  -29.8050  -29.8180   27.4040 C   0  0  0  0  0  1  0  0  0  0  0  0
  -31.5250  -19.0490   21.0610 C   0  0  0  0  0  2  0  0  0  0  0  0
  -30.9560  -17.8710   20.1420 C   0  0  0  0  0  2  0  0  0  0  0  0
  -31.5520  -15.3330   20.3150 C   0  0  0  0  0  0  0  0  0  0  0  0
  -31.2230  -13.0890   19.2880 C   0  0  0  0  0  2  0  0  0  0  0  0
  -30.3240  -13.2530   18.0390 C   0  0  0  0  0  2  0  0  0  0  0  0
  -28.8310  -13.1930   18.4270 C   0  0  0  0  0  2  0  0  0  0  0  0
  -28.4910  -14.0550   19.6760 C   0  0  0  0  0  3  0  0  0  0  0  0
  -29.5250  -13.8750   20.8110 C   0  0  0  0  0  2  0  0  0  0  0  0
  -30.8620  -14.1440   20.2580 N   0  0  0  0  0  0  0  0  0  0  0  0
  -32.6940  -15.4240   19.8620 O   0  0  0  0  0  0  0  0  0  0  0  0
  -30.8570  -16.4590   20.6970 N   0  0  0  0  0  0  0  0  0  0  0  0
  -29.9890  -16.2540   21.1630 H   0  0  0  0  0  0  0  0  0  0  0  0
  -26.1400  -14.7650   20.4320 C   0  0  0  0  0  0  0  0  0  0  0  0
  -25.0190  -14.0470   20.7520 C   0  0  0  0  0  0  0  0  0  0  0  0
  -25.3840  -12.6710   20.6270 C   0  0  0  0  0  0  0  0  0  0  0  0
  -27.1210  -13.8320   20.1360 N   0  0  0  0  0  0  0  0  0  0  0  0
  -26.6700  -12.5610   20.3090 N   0  0  0  0  0  0  0  0  0  0  0  0
  -24.5680  -11.4530   20.7350 C   0  0  0  0  0  0  0  0  0  0  0  0
  -24.9370  -10.3850   21.5840 C   0  0  0  0  0  3  0  0  0  0  0  0
  -24.1240   -9.2370   21.6840 C   0  0  0  0  0  3  0  0  0  0  0  0
  -22.9270   -9.1440   20.9360 C   0  0  0  0  0  0  0  0  0  0  0  0
  -22.5750  -10.2000   20.0760 C   0  0  0  0  0  3  0  0  0  0  0  0
  -23.3880  -11.3410   19.9720 C   0  0  0  0  0  3  0  0  0  0  0  0
  -22.0940   -8.0530   20.9450 O   0  0  0  0  0  0  0  0  0  0  0  0
  -21.9620   -7.2570   22.0560 C   0  0  0  0  0  0  0  0  0  0  0  0
  -21.5730   -7.7830   23.3070 C   0  0  0  0  0  3  0  0  0  0  0  0
  -21.3820   -6.9220   24.4040 C   0  0  0  0  0  3  0  0  0  0  0  0
  -21.5710   -5.5350   24.2540 C   0  0  0  0  0  0  0  0  0  0  0  0
  -21.9530   -5.0080   23.0060 C   0  0  0  0  0  3  0  0  0  0  0  0
  -22.1430   -5.8680   21.9100 C   0  0  0  0  0  0  0  0  0  0  0  0
  -22.4920   -5.3540   20.7050 F   0  0  0  0  0  0  0  0  0  0  0  0
  -21.3800   -4.7060   25.3070 F   0  0  0  0  0  0  0  0  0  0  0  0
  -23.6590  -14.6050   21.0590 C   0  0  0  0  0  0  0  0  0  0  0  0
  -22.8890  -13.9240   21.9020 N   0  0  0  0  0  0  0  0  0  0  0  0
  -23.2850  -15.6780   20.5880 O   0  0  0  0  0  0  0  0  0  0  0  0
  -23.2040  -13.0590   22.3170 H   0  0  0  0  0  0  0  0  0  0  0  0
  -21.9720  -14.2740   22.1370 H   0  0  0  0  0  0  0  0  0  0  0  0
  -26.4090  -16.1290   20.3510 N   0  0  0  0  0  0  0  0  0  0  0  0
  -25.7080  -16.8420   20.5200 H   0  0  0  0  0  0  0  0  0  0  0  0
  -27.3000  -16.5180   20.0660 H   0  0  0  0  0  0  0  0  0  0  0  0
  1  5  1  0
  2  6  1  0
  3  1  2  0
  3  4  1  0
  4  2  2  0
  5 58  1  0
  5  6  2  0
  6 11  1  0
  7  9  1  0
  7  3  1  0
  8  4  1  0
  9 10  1  0
 10 17  1  0
 10  8  1  0
 11 13  1  0
 12 11  1  0
 14 16  1  0
 14 15  1  0
 16 15  1  0
 16 13  1  0
 17 19  1  0
 18 29  2  0
 19 24  1  0
 20 30  1  0
 20 28  1  0
 21 27  1  0
 21 23  1  0
 22 28  1  0
 23 22  1  0
 24 23  2  0
 25 26  1  0
 25 19  2  0
 26 21  2  0
 27 20  1  0
 28 18  1  0
 30 32  2  0
 31 30  1  0
 33 31  1  0
 34 39  1  0
 35 31  1  0
 36 35  1  0
 37 38  1  0
 37 36  1  0
 38 34  1  0
 39 35  1  0
 39 40  2  0
 41 40  1  0
 42 41  2  0
 43 34  2  0
 43 42  1  0
 44 18  1  0
 44 54  1  0
 44 45  1  0
 45 48  1  0
 46 45  1  0
 46 50  1  0
 47 46  2  0
 50 49  1  0
 50 52  1  0
 52 53  1  0
 52 51  1  0
 54 57  1  1
 54 55  1  0
 56 54  1  0
 59 68  1  0
 59 58  1  0
 60 68  1  0
 61 66  1  0
 62 63  1  0
 62 61  1  0
 64 63  1  0
 64 73  1  0
 64 65  1  0
 66 60  1  0
 66 65  1  0
 67 60  2  0
 68 69  1  0
 70 71  2  0
 71 90  1  0
 72 75  1  0
 72 71  1  0
 73 74  1  0
 73 70  1  0
 74 72  2  0
 75 76  1  0
 76 77  2  0
 78 81  1  0
 78 77  1  0
 79 78  2  0
 80 79  1  0
 80 75  2  0
 81 82  1  0
 82 83  1  0
 83 84  2  0
 85 84  1  0
 85 89  1  0
 86 85  2  0
 87 82  2  0
 87 86  1  0
 88 87  1  0
 90 91  1  0
 91 94  1  0
 91 93  1  0
 92 90  2  0
 95 70  1  0
 95 96  1  0
 97 95  1  0
M  ISO  4  10 101  17 101  60 100  68 100
M  END
>  <TORSDO>  (47) 
F 21

>  <SCORE>  (47) 
-7.175

>  <name>  (47) 
46

>  <ligand_id>  (47) 
46

>  <original_smiles>  (47) 
[H]c1c([H])c([H])c2c(c1[H])C([H])([H])C([H])([H])C([H])([H])C2([H])N([H])C(=O)C1([H])N(C(=O)C([H])(N([H])C(=O)C([H])(N([H])C([H])([H])[H])C([H])([H])[H])C(C([H])([H])[H])(C([H])([H])[H])C([H])([H])[H])C([H])([H])c2c([H])c(OC3([H])C([H])([H])c4c([H])c(N([H])C([H])([H])C5([H])C([H])([H])C5([H])[H])c(C([H])([H])C([H])([H])N([H])C(=O)N5C([H])([H])C([H])([H])C([H])([H])C([H])(n6nc(-c7c([H])c([H])c(Oc8c([H])c([H])c(F)c([H])c8F)c([H])c7[H])c(C(=O)N([H])[H])c6N([H])[H])C5([H])[H])c([H])c4C([H])([H])C3([H])[H])c([H])c([H])c2C1([H])[H]

>  <smiles>  (47) 
[H]c1c([H])c([H])c2c(c1[H])C([H])([H])C([H])([H])C([H])([H])C2([H])N([H])C(=O)C1([H])N(C(=O)C([H])(N([H])C(=O)C([H])(N([H])C([H])([H])[H])C([H])([H])[H])C(C([H])([H])[H])(C([H])([H])[H])C([H])([H])[H])C([H])([H])c2c([H])c(OC3([H])C([H])([H])c4c([H])c(N([H])C([H])([H])C5([H])C([H])([H])C5([H])[H])c(C([H])([H])C([H])([H])N([H])C(=O)N5C([H])([H])C([H])([H])C([H])([H])C([H])(n6nc(-c7c([H])c([H])c(Oc8c([H])c([H])c(F)c([H])c8F)c([H])c7[H])c(C(=O)N([H])[H])c6N([H])[H])C5([H])[H])c([H])c4C([H])([H])C3([H])[H])c([H])c([H])c2C1([H])[H]

$$$$
47:0:0
     RDKit          3D

 91 99  0  0  1  0  0  0  0  0999 V2000
  -30.0020  -22.9210   19.6890 C   0  0  0  0  0  3  0  0  0  0  0  0
  -30.3170  -21.5050   19.4840 C   0  0  0  0  0  3  0  0  0  0  0  0
  -27.7770  -22.5020   19.0530 C   0  0  0  0  0  3  0  0  0  0  0  0
  -28.6990  -23.4990   19.4870 C   0  0  0  0  0  0  0  0  0  0  0  0
  -29.3620  -20.5080   19.0710 C   0  0  0  0  0  0  0  0  0  0  0  0
  -28.0640  -21.1010   18.8420 C   0  0  0  0  0  0  0  0  0  0  0  0
  -26.0520  -20.7970   17.2560 C   0  0  0  0  0  1  0  0  0  0  0  0
  -25.9910  -19.9170   19.6390 C   0  0  0  0  0  1  0  0  0  0  0  0
  -26.8770  -20.2220   18.4220 C   0  0  0  0  0  3  0  0  0  0  0  0
  -29.5830  -18.8900   18.8060 C   0  0  0  0  0  2  0  0  0  0  0  0
  -30.8410  -17.8470   19.0690 C   0  0  0  0  0  2  0  0  0  0  0  0
  -31.3190  -15.1910   19.5180 C   0  0  0  0  0  0  0  0  0  0  0  0
  -31.1470  -12.7250   19.0080 C   0  0  0  0  0  2  0  0  0  0  0  0
  -30.1740  -12.4950   17.8290 C   0  0  0  0  0  2  0  0  0  0  0  0
  -28.7250  -12.3820   18.3360 C   0  0  0  0  0  2  0  0  0  0  0  0
  -28.3610  -13.5030   19.3440 C   0  0  0  0  0  3  0  0  0  0  0  0
  -29.4510  -13.6900   20.4210 C   0  0  0  0  0  2  0  0  0  0  0  0
  -30.7130  -13.9580   19.7180 N   0  0  0  0  0  0  0  0  0  0  0  0
  -32.5030  -15.2120   19.1700 O   0  0  0  0  0  0  0  0  0  0  0  0
  -30.5440  -16.3680   19.5030 N   0  0  0  0  0  0  0  0  0  0  0  0
  -29.5890  -16.2100   19.7880 H   0  0  0  0  0  0  0  0  0  0  0  0
  -26.0990  -14.2600   20.2840 C   0  0  0  0  0  0  0  0  0  0  0  0
  -24.9970  -13.5650   20.6960 C   0  0  0  0  0  0  0  0  0  0  0  0
  -25.3290  -12.1810   20.5700 C   0  0  0  0  0  0  0  0  0  0  0  0
  -27.0370  -13.3060   19.9270 N   0  0  0  0  0  0  0  0  0  0  0  0
  -26.5870  -12.0460   20.1650 N   0  0  0  0  0  0  0  0  0  0  0  0
  -24.5030  -10.9810   20.7520 C   0  0  0  0  0  0  0  0  0  0  0  0
  -24.8680   -9.9620   21.6590 C   0  0  0  0  0  3  0  0  0  0  0  0
  -24.0460   -8.8290   21.8360 C   0  0  0  0  0  3  0  0  0  0  0  0
  -22.8410   -8.7050   21.1040 C   0  0  0  0  0  0  0  0  0  0  0  0
  -22.4920   -9.7120   20.1860 C   0  0  0  0  0  3  0  0  0  0  0  0
  -23.3150  -10.8380   20.0090 C   0  0  0  0  0  3  0  0  0  0  0  0
  -21.9920   -7.6280   21.1890 O   0  0  0  0  0  0  0  0  0  0  0  0
  -21.8430   -6.9180   22.3540 C   0  0  0  0  0  0  0  0  0  0  0  0
  -21.4230   -7.5360   23.5510 C   0  0  0  0  0  3  0  0  0  0  0  0
  -21.2140   -6.7610   24.7090 C   0  0  0  0  0  3  0  0  0  0  0  0
  -21.4190   -5.3690   24.6690 C   0  0  0  0  0  0  0  0  0  0  0  0
  -21.8320   -4.7500   23.4760 C   0  0  0  0  0  3  0  0  0  0  0  0
  -22.0420   -5.5230   22.3210 C   0  0  0  0  0  0  0  0  0  0  0  0
  -22.4210   -4.9200   21.1680 F   0  0  0  0  0  0  0  0  0  0  0  0
  -21.2110   -4.6210   25.7780 F   0  0  0  0  0  0  0  0  0  0  0  0
  -23.6710  -14.1490   21.0920 C   0  0  0  0  0  0  0  0  0  0  0  0
  -22.9520  -13.4900   21.9930 N   0  0  0  0  0  0  0  0  0  0  0  0
  -23.2900  -15.2270   20.6400 O   0  0  0  0  0  0  0  0  0  0  0  0
  -23.2770  -12.6200   22.3890 H   0  0  0  0  0  0  0  0  0  0  0  0
  -22.0690  -13.8700   22.3060 H   0  0  0  0  0  0  0  0  0  0  0  0
  -26.3760  -15.6180   20.1590 N   0  0  0  0  0  0  0  0  0  0  0  0
  -25.6690  -16.3240   20.3370 H   0  0  0  0  0  0  0  0  0  0  0  0
  -27.2120  -15.9980   19.7350 H   0  0  0  0  0  0  0  0  0  0  0  0
  -28.1040  -24.9580   19.9580 C   0  0  0  0  0  2  0  0  0  0  0  0
  -28.2100  -26.3400   19.3200 O   0  0  0  0  0  0  0  0  0  0  0  0
  -24.5170  -31.5890   22.9360 C   0  0  0  0  0  0  0  0  0  0  0  0
  -27.1260  -27.2600   19.4570 C   0  0  0  0  0  0  0  0  0  0  0  0
  -23.3040  -30.3120   21.2110 C   0  0  0  0  0  3  0  0  0  0  0  0
  -24.7490  -28.8990   19.6290 C   0  0  0  0  0  0  0  0  0  0  0  0
  -25.8420  -30.6670   21.0020 C   0  0  0  0  0  2  0  0  0  0  0  0
  -25.9330  -29.3380   20.2400 C   0  0  0  0  0  0  0  0  0  0  0  0
  -27.1250  -28.5380   20.1370 C   0  0  0  0  0  3  0  0  0  0  0  0
  -25.9160  -26.9020   18.8310 C   0  0  0  0  0  3  0  0  0  0  0  0
  -24.7490  -27.6910   18.9130 C   0  0  0  0  0  3  0  0  0  0  0  0
  -23.5030  -29.7550   19.7760 C   0  0  0  0  0  2  0  0  0  0  0  0
  -24.5760  -30.8710   21.7750 N   0  0  0  0  0  0  0  0  0  0  0  0
  -23.4390  -31.8010   23.5120 O   0  0  0  0  0  0  0  0  0  0  0  0
  -22.6730  -29.2100   22.0990 C   0  0  0  0  0  0  0  0  0  0  0  0
  -21.3410  -29.0470   22.0140 N   0  0  0  0  0  0  0  0  0  0  0  0
  -23.3810  -28.5100   22.8270 O   0  0  0  0  0  0  0  0  0  0  0  0
  -20.8240  -29.6670   21.4060 H   0  0  0  0  0  0  0  0  0  0  0  0
  -17.9760  -27.8410   22.6030 C   0  0  0  0  0  0  0  0  0  0  0  0
  -20.5530  -28.0350   22.7240 C   0  0  0  0  0  3  0  0  0  0  0  0
  -20.5860  -26.6810   21.9780 C   0  0  0  0  0  2  0  0  0  0  0  0
  -19.4110  -26.4950   21.0120 C   0  0  0  0  0  2  0  0  0  0  0  0
  -18.0790  -26.5790   21.7630 C   0  0  0  0  0  2  0  0  0  0  0  0
  -19.1380  -28.5330   23.0410 C   0  0  0  0  0  0  0  0  0  0  0  0
  -18.9840  -29.7170   23.7930 C   0  0  0  0  0  3  0  0  0  0  0  0
  -17.7030  -30.2100   24.1090 C   0  0  0  0  0  3  0  0  0  0  0  0
  -16.5590  -29.5130   23.6840 C   0  0  0  0  0  3  0  0  0  0  0  0
  -16.6970  -28.3300   22.9370 C   0  0  0  0  0  3  0  0  0  0  0  0
  -25.7970  -32.1950   23.5880 C   0  0  0  0  0  3  0  0  0  0  0  0
  -26.3310  -31.3500   24.8100 C   0  0  1  0  0  0  0  0  0  0  0  0
  -25.2520  -31.0460   25.8750 C   0  0  0  0  0  1  0  0  0  0  0  0
  -26.9120  -30.0000   24.3290 C   0  0  0  0  0  1  0  0  0  0  0  0
  -27.4890  -32.1070   25.5010 C   0  0  0  0  0  1  0  0  0  0  0  0
  -25.4780  -33.5670   24.0100 N   0  0  0  0  0  0  0  0  0  0  0  0
  -25.8110  -34.6730   23.3290 C   0  0  0  0  0  0  0  0  0  0  0  0
  -26.4850  -34.6430   22.2960 O   0  0  0  0  0  0  0  0  0  0  0  0
  -24.8760  -33.6650   24.8140 H   0  0  0  0  0  0  0  0  0  0  0  0
  -24.0770  -36.4830   23.1020 C   0  0  0  0  0  1  0  0  0  0  0  0
  -25.3210  -36.0270   23.8810 C   0  0  0  0  0  3  0  0  0  0  0  0
  -27.4540  -36.8630   24.7660 C   0  0  0  0  0  1  0  0  0  0  0  0
  -26.3500  -37.0880   23.8360 N   0  0  0  0  0  0  0  0  0  0  0  0
  -25.9420  -37.9950   24.0400 H   0  0  0  0  0  0  0  0  0  0  0  0
  2  1  2  0
  3  4  2  0
  4  1  1  0
  4 50  1  0
  5  2  1  0
  6  3  1  0
  6  5  2  0
  7  9  1  0
  9  6  1  0
  9  8  1  0
 10 11  1  0
 10  5  1  0
 11 20  1  0
 12 18  1  0
 13 18  1  0
 14 15  1  0
 14 13  1  0
 16 15  1  0
 16 25  1  0
 16 17  1  0
 18 17  1  0
 19 12  2  0
 20 12  1  0
 20 21  1  0
 22 23  2  0
 23 42  1  0
 24 23  1  0
 24 27  1  0
 25 26  1  0
 25 22  1  0
 26 24  2  0
 27 28  1  0
 28 29  2  0
 30 33  1  0
 30 29  1  0
 31 30  2  0
 32 31  1  0
 32 27  2  0
 33 34  1  0
 34 35  1  0
 35 36  2  0
 37 36  1  0
 37 41  1  0
 38 37  2  0
 39 34  2  0
 39 38  1  0
 40 39  1  0
 42 43  1  0
 43 46  1  0
 43 45  1  0
 44 42  2  0
 47 22  1  0
 47 48  1  0
 49 47  1  0
 51 53  1  0
 51 50  1  0
 52 63  2  0
 53 58  1  0
 54 62  1  0
 54 64  1  0
 55 61  1  0
 55 57  1  0
 56 62  1  0
 57 56  1  0
 58 57  2  0
 59 60  1  0
 59 53  2  0
 60 55  2  0
 61 54  1  0
 62 52  1  0
 64 66  2  0
 65 64  1  0
 67 65  1  0
 68 77  2  0
 68 73  1  0
 69 65  1  0
 69 73  1  0
 70 69  1  0
 71 72  1  0
 71 70  1  0
 72 68  1  0
 73 74  2  0
 74 75  1  0
 76 75  2  0
 77 76  1  0
 78 52  1  0
 78 83  1  0
 78 79  1  0
 79 82  1  1
 79 80  1  0
 81 79  1  0
 83 86  1  0
 84 88  1  0
 84 83  1  0
 85 84  2  0
 88 87  1  0
 90 88  1  0
 90 91  1  0
 90 89  1  0
M  ISO  4  12 100  20 100  50 101  51 101
M  END
>  <TORSDO>  (48) 
F 20

>  <SCORE>  (48) 
-11.263

>  <name>  (48) 
47

>  <ligand_id>  (48) 
47

>  <original_smiles>  (48) 
[H]c1c([H])c([H])c2c(c1[H])C([H])([H])C([H])([H])C([H])([H])C2([H])N([H])C(=O)C1([H])N(C(=O)C([H])(N([H])C(=O)C([H])(N([H])C([H])([H])[H])C([H])([H])[H])C(C([H])([H])[H])(C([H])([H])[H])C([H])([H])[H])C([H])([H])c2c([H])c(OC([H])([H])c3c([H])c([H])c(C([H])([H])C([H])([H])N([H])C(=O)N4C([H])([H])C([H])([H])C([H])([H])C([H])(n5nc(-c6c([H])c([H])c(Oc7c([H])c([H])c(F)c([H])c7F)c([H])c6[H])c(C(=O)N([H])[H])c5N([H])[H])C4([H])[H])c(C([H])(C([H])([H])[H])C([H])([H])[H])c3[H])c([H])c([H])c2C1([H])[H]

>  <smiles>  (48) 
[H]c1c([H])c([H])c2c(c1[H])C([H])([H])C([H])([H])C([H])([H])C2([H])N([H])C(=O)C1([H])N(C(=O)C([H])(N([H])C(=O)C([H])(N([H])C([H])([H])[H])C([H])([H])[H])C(C([H])([H])[H])(C([H])([H])[H])C([H])([H])[H])C([H])([H])c2c([H])c(OC([H])([H])c3c([H])c([H])c(C([H])([H])C([H])([H])N([H])C(=O)N4C([H])([H])C([H])([H])C([H])([H])C([H])(n5nc(-c6c([H])c([H])c(Oc7c([H])c([H])c(F)c([H])c7F)c([H])c6[H])c(C(=O)N([H])[H])c5N([H])[H])C4([H])[H])c(C([H])(C([H])([H])[H])C([H])([H])[H])c3[H])c([H])c([H])c2C1([H])[H]

$$$$
48:0:0
     RDKit          3D

 96105  0  0  1  0  0  0  0  0999 V2000
  -30.9910  -22.8380   19.5140 C   0  0  0  0  0  3  0  0  0  0  0  0
  -28.7460  -22.2980   20.2810 C   0  0  0  0  0  3  0  0  0  0  0  0
  -30.5710  -24.1470   19.2000 C   0  0  0  0  0  3  0  0  0  0  0  0
  -28.3250  -23.6100   19.9640 C   0  0  0  0  0  3  0  0  0  0  0  0
  -30.0860  -21.9000   20.0600 C   0  0  0  0  0  0  0  0  0  0  0  0
  -29.2360  -24.5430   19.4240 C   0  0  0  0  0  0  0  0  0  0  0  0
  -30.2960  -20.0800   21.8730 C   0  0  0  0  0  2  0  0  0  0  0  0
  -30.5520  -18.1150   19.8060 C   0  0  0  0  0  2  0  0  0  0  0  0
  -30.5800  -20.4910   20.4110 C   0  0  0  0  0  3  0  0  0  0  0  0
  -30.3110  -17.7360   21.2930 C   0  0  0  0  0  3  0  0  0  0  0  0
  -30.8890  -18.7690   22.1560 N   0  0  0  0  0  0  0  0  0  0  0  0
  -30.0270  -19.4680   19.5000 N   0  0  0  0  0  4  0  0  0  0  0  0
  -30.7020  -18.5320   23.1280 H   0  0  0  0  0  0  0  0  0  0  0  0
  -29.0250  -19.4610   19.5850 H   0  0  0  0  0  0  0  0  0  0  0  0
  -30.2620  -19.7100   18.5540 H   0  0  0  0  0  0  0  0  0  0  0  0
  -30.9720  -16.3970   21.7090 C   0  0  0  0  0  2  0  0  0  0  0  0
  -30.7610  -14.3790   20.2430 C   0  0  0  0  0  0  0  0  0  0  0  0
  -30.3260  -12.3150   18.9600 C   0  0  0  0  0  2  0  0  0  0  0  0
  -29.3290  -12.5750   17.8150 C   0  0  0  0  0  2  0  0  0  0  0  0
  -27.8750  -12.4490   18.3120 C   0  0  0  0  0  2  0  0  0  0  0  0
  -27.6180  -13.2530   19.6140 C   0  0  0  0  0  3  0  0  0  0  0  0
  -28.7150  -12.9600   20.6620 C   0  0  0  0  0  2  0  0  0  0  0  0
  -30.0250  -13.2530   20.0510 N   0  0  0  0  0  0  0  0  0  0  0  0
  -31.7850  -14.6390   19.6070 O   0  0  0  0  0  0  0  0  0  0  0  0
  -30.2940  -15.2140   21.1820 N   0  0  0  0  0  0  0  0  0  0  0  0
  -29.4420  -14.9300   21.6440 H   0  0  0  0  0  0  0  0  0  0  0  0
  -25.2600  -13.8910   20.4300 C   0  0  0  0  0  0  0  0  0  0  0  0
  -24.1960  -13.1320   20.8350 C   0  0  0  0  0  0  0  0  0  0  0  0
  -24.6330  -11.7730   20.7660 C   0  0  0  0  0  0  0  0  0  0  0  0
  -26.2810  -12.9970   20.1440 N   0  0  0  0  0  0  0  0  0  0  0  0
  -25.9070  -11.7170   20.4010 N   0  0  0  0  0  0  0  0  0  0  0  0
  -23.8950  -10.5200   20.9720 C   0  0  0  0  0  0  0  0  0  0  0  0
  -24.3400   -9.5430   21.8910 C   0  0  0  0  0  3  0  0  0  0  0  0
  -23.6050   -8.3540   22.0830 C   0  0  0  0  0  3  0  0  0  0  0  0
  -22.4110   -8.1340   21.3580 C   0  0  0  0  0  0  0  0  0  0  0  0
  -21.9840   -9.0970   20.4280 C   0  0  0  0  0  3  0  0  0  0  0  0
  -22.7190  -10.2790   20.2340 C   0  0  0  0  0  3  0  0  0  0  0  0
  -21.6440   -6.9970   21.4620 O   0  0  0  0  0  0  0  0  0  0  0  0
  -21.6030   -6.2600   22.6170 C   0  0  0  0  0  0  0  0  0  0  0  0
  -21.1760   -6.8180   23.8420 C   0  0  0  0  0  3  0  0  0  0  0  0
  -21.0820   -6.0060   24.9900 C   0  0  0  0  0  3  0  0  0  0  0  0
  -21.4040   -4.6390   24.9150 C   0  0  0  0  0  0  0  0  0  0  0  0
  -21.8240   -4.0800   23.6950 C   0  0  0  0  0  3  0  0  0  0  0  0
  -21.9200   -4.8880   22.5490 C   0  0  0  0  0  0  0  0  0  0  0  0
  -22.3040   -4.3410   21.3710 F   0  0  0  0  0  0  0  0  0  0  0  0
  -21.3070   -3.8570   26.0160 F   0  0  0  0  0  0  0  0  0  0  0  0
  -22.8200  -13.6270   21.1770 C   0  0  0  0  0  0  0  0  0  0  0  0
  -22.1180  -12.9280   22.0610 N   0  0  0  0  0  0  0  0  0  0  0  0
  -22.3780  -14.6700   20.6960 O   0  0  0  0  0  0  0  0  0  0  0  0
  -22.4880  -12.0840   22.4710 H   0  0  0  0  0  0  0  0  0  0  0  0
  -21.1960  -13.2400   22.3310 H   0  0  0  0  0  0  0  0  0  0  0  0
  -25.4400  -15.2610   20.2640 N   0  0  0  0  0  0  0  0  0  0  0  0
  -24.6890  -15.9260   20.4120 H   0  0  0  0  0  0  0  0  0  0  0  0
  -26.2840  -15.6890   19.9040 H   0  0  0  0  0  0  0  0  0  0  0  0
  -28.7800  -25.9480   19.0500 C   0  0  0  0  0  2  0  0  0  0  0  0
  -28.4130  -26.7360   20.1890 O   0  0  0  0  0  0  0  0  0  0  0  0
  -24.5760  -31.8750   23.2640 C   0  0  0  0  0  0  0  0  0  0  0  0
  -27.2230  -27.4340   20.1740 C   0  0  0  0  0  0  0  0  0  0  0  0
  -23.3710  -30.4810   21.6150 C   0  0  0  0  0  3  0  0  0  0  0  0
  -24.8230  -28.9370   20.1980 C   0  0  0  0  0  0  0  0  0  0  0  0
  -25.8990  -30.8270   21.4320 C   0  0  0  0  0  2  0  0  0  0  0  0
  -25.9800  -29.4560   20.7920 C   0  0  0  0  0  0  0  0  0  0  0  0
  -27.1780  -28.7070   20.7850 C   0  0  0  0  0  3  0  0  0  0  0  0
  -26.0360  -26.9120   19.6070 C   0  0  0  0  0  3  0  0  0  0  0  0
  -24.8450  -27.6600   19.6110 C   0  0  0  0  0  3  0  0  0  0  0  0
  -23.5840  -29.8000   20.2360 C   0  0  0  0  0  2  0  0  0  0  0  0
  -24.6330  -31.0750   22.1620 N   0  0  0  0  0  0  0  0  0  0  0  0
  -23.4930  -32.1530   23.7980 O   0  0  0  0  0  0  0  0  0  0  0  0
  -22.7100  -29.4610   22.5710 C   0  0  0  0  0  0  0  0  0  0  0  0
  -21.3880  -29.2760   22.4260 N   0  0  0  0  0  0  0  0  0  0  0  0
  -23.3840  -28.8410   23.3970 O   0  0  0  0  0  0  0  0  0  0  0  0
  -20.9080  -29.8290   21.7300 H   0  0  0  0  0  0  0  0  0  0  0  0
  -18.0090  -28.0780   22.8720 C   0  0  0  0  0  0  0  0  0  0  0  0
  -20.5620  -28.3420   23.1880 C   0  0  0  0  0  3  0  0  0  0  0  0
  -20.6770  -26.9070   22.6210 C   0  0  0  0  0  2  0  0  0  0  0  0
  -19.5930  -26.5780   21.5890 C   0  0  0  0  0  2  0  0  0  0  0  0
  -18.1990  -26.7260   22.2070 C   0  0  0  0  0  2  0  0  0  0  0  0
  -19.1200  -28.8450   23.3170 C   0  0  0  0  0  0  0  0  0  0  0  0
  -18.8900  -30.1110   23.8960 C   0  0  0  0  0  3  0  0  0  0  0  0
  -17.5810  -30.6120   24.0350 C   0  0  0  0  0  3  0  0  0  0  0  0
  -16.4850  -29.8430   23.6090 C   0  0  0  0  0  3  0  0  0  0  0  0
  -16.7000  -28.5780   23.0320 C   0  0  0  0  0  3  0  0  0  0  0  0
  -25.8620  -32.4970   23.8920 C   0  0  0  0  0  3  0  0  0  0  0  0
  -26.3640  -31.7280   25.1750 C   0  0  1  0  0  0  0  0  0  0  0  0
  -25.2600  -31.5000   26.2330 C   0  0  0  0  0  1  0  0  0  0  0  0
  -26.9400  -30.3450   24.7900 C   0  0  0  0  0  1  0  0  0  0  0  0
  -27.5140  -32.5160   25.8430 C   0  0  0  0  0  1  0  0  0  0  0  0
  -25.5640  -33.9010   24.2100 N   0  0  0  0  0  0  0  0  0  0  0  0
  -25.9040  -34.9440   23.4430 C   0  0  0  0  0  0  0  0  0  0  0  0
  -26.5750  -34.8280   22.4140 O   0  0  0  0  0  0  0  0  0  0  0  0
  -24.9720  -34.0660   25.0120 H   0  0  0  0  0  0  0  0  0  0  0  0
  -24.1840  -36.7400   23.0700 C   0  0  0  0  0  1  0  0  0  0  0  0
  -25.4230  -36.3380   23.8870 C   0  0  0  0  0  3  0  0  0  0  0  0
  -27.5610  -37.2180   24.7130 C   0  0  0  0  0  1  0  0  0  0  0  0
  -26.4600  -37.3870   23.7680 N   0  0  0  0  0  0  0  0  0  0  0  0
  -26.0570  -38.3090   23.9130 H   0  0  0  0  0  0  0  0  0  0  0  0
  1  5  1  0
  3  6  1  0
  3  1  2  0
  4  2  1  0
  5  2  2  0
  6  4  2  0
  7 11  1  0
  8 10  1  0
  9  5  1  0
  9  7  1  0
 10 16  1  0
 10 11  1  0
 11 13  1  0
 12 14  1  0
 12  8  1  0
 12  9  1  0
 15 12  1  0
 17 25  1  0
 18 23  1  0
 19 20  1  0
 19 18  1  0
 21 20  1  0
 21 30  1  0
 21 22  1  0
 23 17  1  0
 23 22  1  0
 24 17  2  0
 25 26  1  0
 25 16  1  0
 27 28  2  0
 28 47  1  0
 29 28  1  0
 29 32  1  0
 30 31  1  0
 30 27  1  0
 31 29  2  0
 32 33  1  0
 33 34  2  0
 35 38  1  0
 35 34  1  0
 36 35  2  0
 37 36  1  0
 37 32  2  0
 38 39  1  0
 39 40  1  0
 40 41  2  0
 42 41  1  0
 42 46  1  0
 43 42  2  0
 44 39  2  0
 44 43  1  0
 45 44  1  0
 47 48  1  0
 48 51  1  0
 48 50  1  0
 49 47  2  0
 52 53  1  0
 52 27  1  0
 54 52  1  0
 55  6  1  0
 55 56  1  0
 57 68  2  0
 58 56  1  0
 58 63  1  0
 59 67  1  0
 59 69  1  0
 60 66  1  0
 60 62  1  0
 61 67  1  0
 62 61  1  0
 63 62  2  0
 64 65  1  0
 64 58  2  0
 65 60  2  0
 66 59  1  0
 67 57  1  0
 69 71  2  0
 70 69  1  0
 72 70  1  0
 73 82  2  0
 73 78  1  0
 74 70  1  0
 74 78  1  0
 75 74  1  0
 76 77  1  0
 76 75  1  0
 77 73  1  0
 78 79  2  0
 79 80  1  0
 81 80  2  0
 82 81  1  0
 83 57  1  0
 83 88  1  0
 83 84  1  0
 84 87  1  1
 84 85  1  0
 86 84  1  0
 88 91  1  0
 89 93  1  0
 89 88  1  0
 90 89  2  0
 93 92  1  0
 95 93  1  0
 95 96  1  0
 95 94  1  0
M  ISO  4  17 100  25 100  55 101  56 101
M  END
>  <TORSDO>  (49) 
F 19

>  <SCORE>  (49) 
-14.425

>  <name>  (49) 
48

>  <ligand_id>  (49) 
48

>  <original_smiles>  (49) 
[H]c1c([H])c([H])c2c(c1[H])C([H])([H])C([H])([H])C([H])([H])C2([H])N([H])C(=O)C1([H])N(C(=O)C([H])(N([H])C(=O)C([H])(N([H])C([H])([H])[H])C([H])([H])[H])C(C([H])([H])[H])(C([H])([H])[H])C([H])([H])[H])C([H])([H])c2c([H])c(OC([H])([H])c3c([H])c([H])c(C4([H])C([H])([H])N([H])C([H])(C([H])([H])N([H])C(=O)N5C([H])([H])C([H])([H])C([H])([H])C([H])(n6nc(-c7c([H])c([H])c(Oc8c([H])c([H])c(F)c([H])c8F)c([H])c7[H])c(C(=O)N([H])[H])c6N([H])[H])C5([H])[H])C([H])([H])[N+]4([H])[H])c([H])c3[H])c([H])c([H])c2C1([H])[H]

>  <smiles>  (49) 
[H]c1c([H])c([H])c2c(c1[H])C([H])([H])C([H])([H])C([H])([H])C2([H])N([H])C(=O)C1([H])N(C(=O)C([H])(N([H])C(=O)C([H])(N([H])C([H])([H])[H])C([H])([H])[H])C(C([H])([H])[H])(C([H])([H])[H])C([H])([H])[H])C([H])([H])c2c([H])c(OC([H])([H])c3c([H])c([H])c(C4([H])C([H])([H])N([H])C([H])(C([H])([H])N([H])C(=O)N5C([H])([H])C([H])([H])C([H])([H])C([H])(n6nc(-c7c([H])c([H])c(Oc8c([H])c([H])c(F)c([H])c8F)c([H])c7[H])c(C(=O)N([H])[H])c6N([H])[H])C5([H])[H])C([H])([H])[N+]4([H])[H])c([H])c3[H])c([H])c([H])c2C1([H])[H]

$$$$
49:0:0
     RDKit          3D

 92100  0  0  1  0  0  0  0  0999 V2000
  -30.1270  -19.8290   18.1480 C   0  0  0  0  0  3  0  0  0  0  0  0
  -30.1490  -18.6460   18.9120 C   0  0  0  0  0  3  0  0  0  0  0  0
  -29.7080  -21.0640   18.7050 C   0  0  0  0  0  0  0  0  0  0  0  0
  -29.7700  -18.6790   20.2590 C   0  0  0  0  0  0  0  0  0  0  0  0
  -29.3200  -21.0930   20.0730 C   0  0  0  0  0  0  0  0  0  0  0  0
  -29.3520  -19.8990   20.8050 N   0  0  0  0  0  0  0  0  0  0  0  0
  -29.6540  -22.3160   17.8210 C   0  0  0  0  0  2  0  0  0  0  0  0
  -29.9200  -23.4560   15.5510 C   0  0  0  0  0  1  0  0  0  0  0  0
  -29.8370  -22.1190   16.3030 C   0  0  0  0  0  2  0  0  0  0  0  0
  -29.9800  -17.3550   21.1350 C   0  0  0  0  0  2  0  0  0  0  0  0
  -30.4780  -14.8280   20.3790 C   0  0  0  0  0  0  0  0  0  0  0  0
  -30.3070  -12.5800   19.2720 C   0  0  0  0  0  2  0  0  0  0  0  0
  -29.3280  -12.6460   18.0780 C   0  0  0  0  0  2  0  0  0  0  0  0
  -27.8730  -12.4390   18.5420 C   0  0  0  0  0  2  0  0  0  0  0  0
  -27.5180  -13.2980   19.7850 C   0  0  0  0  0  3  0  0  0  0  0  0
  -28.6040  -13.1930   20.8770 C   0  0  0  0  0  2  0  0  0  0  0  0
  -29.8730  -13.5970   20.2580 N   0  0  0  0  0  0  0  0  0  0  0  0
  -31.6700  -14.9580   20.0810 O   0  0  0  0  0  0  0  0  0  0  0  0
  -29.6730  -15.9280   20.6590 N   0  0  0  0  0  0  0  0  0  0  0  0
  -28.6960  -15.6930   20.7370 H   0  0  0  0  0  0  0  0  0  0  0  0
  -25.1420  -13.8520   20.5770 C   0  0  0  0  0  0  0  0  0  0  0  0
  -24.0930  -13.0600   20.9540 C   0  0  0  0  0  0  0  0  0  0  0  0
  -24.5680  -11.7140   20.8880 C   0  0  0  0  0  0  0  0  0  0  0  0
  -26.1890  -12.9870   20.3010 N   0  0  0  0  0  0  0  0  0  0  0  0
  -25.8530  -11.6960   20.5520 N   0  0  0  0  0  0  0  0  0  0  0  0
  -23.8580  -10.4420   21.0670 C   0  0  0  0  0  0  0  0  0  0  0  0
  -24.2970   -9.4750   21.9970 C   0  0  0  0  0  3  0  0  0  0  0  0
  -23.5860   -8.2670   22.1650 C   0  0  0  0  0  3  0  0  0  0  0  0
  -22.4200   -8.0190   21.4020 C   0  0  0  0  0  0  0  0  0  0  0  0
  -21.9990   -8.9740   20.4600 C   0  0  0  0  0  3  0  0  0  0  0  0
  -22.7120  -10.1730   20.2900 C   0  0  0  0  0  3  0  0  0  0  0  0
  -21.6810   -6.8630   21.4790 O   0  0  0  0  0  0  0  0  0  0  0  0
  -21.6270   -6.1190   22.6290 C   0  0  0  0  0  0  0  0  0  0  0  0
  -21.1430   -6.6570   23.8420 C   0  0  0  0  0  3  0  0  0  0  0  0
  -21.0390   -5.8380   24.9840 C   0  0  0  0  0  3  0  0  0  0  0  0
  -21.4090   -4.4810   24.9140 C   0  0  0  0  0  0  0  0  0  0  0  0
  -21.8840   -3.9430   23.7050 C   0  0  0  0  0  3  0  0  0  0  0  0
  -21.9900   -4.7590   22.5650 C   0  0  0  0  0  0  0  0  0  0  0  0
  -22.4290   -4.2300   21.3980 F   0  0  0  0  0  0  0  0  0  0  0  0
  -21.3010   -3.6910   26.0070 F   0  0  0  0  0  0  0  0  0  0  0  0
  -22.6960  -13.5170   21.2630 C   0  0  0  0  0  0  0  0  0  0  0  0
  -21.9920  -12.7920   22.1250 N   0  0  0  0  0  0  0  0  0  0  0  0
  -22.2410  -14.5510   20.7770 O   0  0  0  0  0  0  0  0  0  0  0  0
  -22.3760  -11.9540   22.5370 H   0  0  0  0  0  0  0  0  0  0  0  0
  -21.0570  -13.0780   22.3790 H   0  0  0  0  0  0  0  0  0  0  0  0
  -25.2830  -15.2280   20.4210 N   0  0  0  0  0  0  0  0  0  0  0  0
  -24.4960  -15.8560   20.5490 H   0  0  0  0  0  0  0  0  0  0  0  0
  -26.0960  -15.6870   20.0320 H   0  0  0  0  0  0  0  0  0  0  0  0
  -28.7640  -22.2530   20.7140 O   0  0  0  0  0  0  0  0  0  0  0  0
  -29.1760  -23.6980   20.5390 C   0  0  0  0  0  3  0  0  0  0  0  0
  -28.0950  -24.8690   20.1690 C   0  0  0  0  0  3  0  0  0  0  0  0
  -28.3520  -26.3610   20.3020 O   0  0  0  0  0  0  0  0  0  0  0  0
  -24.6050  -31.8820   23.2230 C   0  0  0  0  0  0  0  0  0  0  0  0
  -27.2630  -27.2720   20.2120 C   0  0  0  0  0  0  0  0  0  0  0  0
  -23.4320  -30.4890   21.5610 C   0  0  0  0  0  3  0  0  0  0  0  0
  -24.9090  -28.9400   20.1510 C   0  0  0  0  0  0  0  0  0  0  0  0
  -25.9800  -30.7940   21.4220 C   0  0  0  0  0  2  0  0  0  0  0  0
  -26.0730  -29.4120   20.7720 C   0  0  0  0  0  0  0  0  0  0  0  0
  -27.2510  -28.5930   20.7880 C   0  0  0  0  0  3  0  0  0  0  0  0
  -26.0750  -26.8800   19.5510 C   0  0  0  0  0  3  0  0  0  0  0  0
  -24.9180  -27.6840   19.5280 C   0  0  0  0  0  3  0  0  0  0  0  0
  -23.6740  -29.8210   20.1810 C   0  0  0  0  0  2  0  0  0  0  0  0
  -24.6910  -31.0750   22.1250 N   0  0  0  0  0  0  0  0  0  0  0  0
  -23.5130  -32.1580   23.7410 O   0  0  0  0  0  0  0  0  0  0  0  0
  -22.7530  -29.4710   22.5100 C   0  0  0  0  0  0  0  0  0  0  0  0
  -21.4270  -29.2990   22.3680 N   0  0  0  0  0  0  0  0  0  0  0  0
  -23.4200  -28.8400   23.3330 O   0  0  0  0  0  0  0  0  0  0  0  0
  -20.9480  -29.8620   21.6810 H   0  0  0  0  0  0  0  0  0  0  0  0
  -18.0350  -28.1350   22.8640 C   0  0  0  0  0  0  0  0  0  0  0  0
  -20.5980  -28.3630   23.1310 C   0  0  0  0  0  3  0  0  0  0  0  0
  -20.6840  -26.9380   22.5370 C   0  0  0  0  0  2  0  0  0  0  0  0
  -19.5750  -26.6420   21.5210 C   0  0  0  0  0  2  0  0  0  0  0  0
  -18.1950  -26.7930   22.1680 C   0  0  0  0  0  2  0  0  0  0  0  0
  -19.1630  -28.8790   23.3020 C   0  0  0  0  0  0  0  0  0  0  0  0
  -18.9590  -30.1350   23.9120 C   0  0  0  0  0  3  0  0  0  0  0  0
  -17.6600  -30.6450   24.0930 C   0  0  0  0  0  3  0  0  0  0  0  0
  -16.5480  -29.8990   23.6670 C   0  0  0  0  0  3  0  0  0  0  0  0
  -16.7350  -28.6470   23.0570 C   0  0  0  0  0  3  0  0  0  0  0  0
  -25.8760  -32.5190   23.8650 C   0  0  0  0  0  3  0  0  0  0  0  0
  -25.5570  -33.9170   24.1930 N   0  0  0  0  0  0  0  0  0  0  0  0
  -25.8870  -34.9740   23.4390 C   0  0  0  0  0  0  0  0  0  0  0  0
  -26.5630  -34.8740   22.4100 O   0  0  0  0  0  0  0  0  0  0  0  0
  -24.9550  -34.0670   24.9890 H   0  0  0  0  0  0  0  0  0  0  0  0
  -24.1590  -36.7700   23.0750 C   0  0  0  0  0  1  0  0  0  0  0  0
  -25.3920  -36.3610   23.8960 C   0  0  0  0  0  3  0  0  0  0  0  0
  -27.5130  -37.2570   24.7540 C   0  0  0  0  0  1  0  0  0  0  0  0
  -26.4240  -37.4150   23.7940 N   0  0  0  0  0  0  0  0  0  0  0  0
  -26.0120  -38.3340   23.9340 H   0  0  0  0  0  0  0  0  0  0  0  0
  -26.3730  -31.7490   25.1510 C   0  0  1  0  0  0  0  0  0  0  0  0
  -25.2650  -31.5080   26.2010 C   0  0  0  0  0  1  0  0  0  0  0  0
  -26.9650  -30.3720   24.7700 C   0  0  0  0  0  1  0  0  0  0  0  0
  -27.5050  -32.5510   25.8320 C   0  0  0  0  0  1  0  0  0  0  0  0
  1  3  2  0
  1  2  1  0
  2  4  2  0
  3  5  1  0
  4  6  1  0
  4 10  1  0
  5 49  1  0
  5  6  2  0
  7  3  1  0
  8  9  1  0
  9  7  1  0
 11 19  1  0
 12 17  1  0
 13 14  1  0
 13 12  1  0
 15 14  1  0
 15 24  1  0
 15 16  1  0
 17 11  1  0
 17 16  1  0
 18 11  2  0
 19 20  1  0
 19 10  1  0
 21 22  2  0
 22 41  1  0
 23 22  1  0
 23 26  1  0
 24 25  1  0
 24 21  1  0
 25 23  2  0
 26 27  1  0
 27 28  2  0
 29 32  1  0
 29 28  1  0
 30 29  2  0
 31 30  1  0
 31 26  2  0
 32 33  1  0
 33 34  1  0
 34 35  2  0
 36 35  1  0
 36 40  1  0
 37 36  2  0
 38 33  2  0
 38 37  1  0
 39 38  1  0
 41 42  1  0
 42 45  1  0
 42 44  1  0
 43 41  2  0
 46 47  1  0
 46 21  1  0
 48 46  1  0
 50 49  1  0
 51 52  1  0
 51 50  2  0
 53 64  2  0
 54 52  1  0
 54 59  1  0
 55 63  1  0
 55 65  1  0
 56 62  1  0
 56 58  1  0
 57 63  1  0
 58 59  2  0
 58 57  1  0
 60 54  2  0
 61 60  1  0
 61 56  2  0
 62 55  1  0
 63 53  1  0
 65 67  2  0
 66 65  1  0
 68 66  1  0
 69 78  2  0
 69 74  1  0
 70 66  1  0
 70 74  1  0
 71 70  1  0
 72 73  1  0
 72 71  1  0
 73 69  1  0
 74 75  2  0
 75 76  1  0
 77 76  2  0
 78 77  1  0
 79 53  1  0
 79 80  1  0
 79 89  1  0
 80 83  1  0
 81 85  1  0
 81 80  1  0
 82 81  2  0
 85 84  1  0
 87 85  1  0
 87 88  1  0
 87 86  1  0
 89 92  1  1
 89 90  1  0
 91 89  1  0
M  ISO  4  11 100  19 100  51 101  52 101
M  END
>  <TORSDO>  (50) 
F 22

>  <SCORE>  (50) 
-13.231

>  <name>  (50) 
49

>  <ligand_id>  (50) 
49

>  <original_smiles>  (50) 
[H]c1c(C([H])([H])N([H])C(=O)N2C([H])([H])C([H])([H])C([H])([H])C([H])(n3nc(-c4c([H])c([H])c(Oc5c([H])c([H])c(F)c([H])c5F)c([H])c4[H])c(C(=O)N([H])[H])c3N([H])[H])C2([H])[H])nc(OC([H])([H])C([H])([H])Oc2c([H])c([H])c3c(c2[H])C([H])([H])N(C(=O)C([H])(N([H])C(=O)C([H])(N([H])C([H])([H])[H])C([H])([H])[H])C(C([H])([H])[H])(C([H])([H])[H])C([H])([H])[H])C([H])(C(=O)N([H])C2([H])c4c([H])c([H])c([H])c([H])c4C([H])([H])C([H])([H])C2([H])[H])C3([H])[H])c(C([H])([H])C([H])([H])C([H])([H])[H])c1[H]

>  <smiles>  (50) 
[H]c1c(C([H])([H])N([H])C(=O)N2C([H])([H])C([H])([H])C([H])([H])C([H])(n3nc(-c4c([H])c([H])c(Oc5c([H])c([H])c(F)c([H])c5F)c([H])c4[H])c(C(=O)N([H])[H])c3N([H])[H])C2([H])[H])nc(OC([H])([H])C([H])([H])Oc2c([H])c([H])c3c(c2[H])C([H])([H])N(C(=O)C([H])(N([H])C(=O)C([H])(N([H])C([H])([H])[H])C([H])([H])[H])C(C([H])([H])[H])(C([H])([H])[H])C([H])([H])[H])C([H])(C(=O)N([H])C2([H])c4c([H])c([H])c([H])c([H])c4C([H])([H])C([H])([H])C2([H])[H])C3([H])[H])c(C([H])([H])C([H])([H])C([H])([H])[H])c1[H]

$$$$
50:0:0
     RDKit          3D

 94103  0  0  1  0  0  0  0  0999 V2000
  -30.8730  -22.4770   19.7360 C   0  0  0  0  0  3  0  0  0  0  0  0
  -28.5840  -22.0000   20.2310 C   0  0  0  0  0  0  0  0  0  0  0  0
  -28.3030  -23.3810   19.9210 C   0  0  0  0  0  0  0  0  0  0  0  0
  -29.9160  -21.4920   20.1090 C   0  0  0  0  0  0  0  0  0  0  0  0
  -29.3430  -24.2610   19.4960 C   0  0  0  0  0  0  0  0  0  0  0  0
  -27.4660  -21.0650   20.6860 C   0  0  0  0  0  2  0  0  0  0  0  0
  -26.8850  -23.9340   20.0350 C   0  0  0  0  0  2  0  0  0  0  0  0
  -26.1450  -21.7520   21.0520 C   0  0  0  0  0  2  0  0  0  0  0  0
  -25.8010  -22.8540   20.0540 C   0  0  0  0  0  2  0  0  0  0  0  0
  -30.6090  -23.7790   19.4350 N   0  0  0  0  0  0  0  0  0  0  0  0
  -30.3880  -20.1470   20.3610 N   0  0  0  0  0  0  0  0  0  0  0  0
  -31.4040  -20.0700   20.4040 H   0  0  0  0  0  0  0  0  0  0  0  0
  -29.7030  -18.8180   20.2300 C   0  0  0  0  0  2  0  0  0  0  0  0
  -30.6970  -17.5640   20.2030 C   0  0  0  0  0  2  0  0  0  0  0  0
  -30.8530  -15.0140   20.0270 C   0  0  0  0  0  0  0  0  0  0  0  0
  -30.5670  -12.7600   19.0160 C   0  0  0  0  0  2  0  0  0  0  0  0
  -29.6190  -12.8690   17.8030 C   0  0  0  0  0  2  0  0  0  0  0  0
  -28.1550  -12.7160   18.2530 C   0  0  0  0  0  2  0  0  0  0  0  0
  -27.8110  -13.6160   19.4690 C   0  0  0  0  0  3  0  0  0  0  0  0
  -28.8810  -13.5120   20.5790 C   0  0  0  0  0  2  0  0  0  0  0  0
  -30.1800  -13.8220   19.9710 N   0  0  0  0  0  0  0  0  0  0  0  0
  -32.0200  -15.0970   19.6360 O   0  0  0  0  0  0  0  0  0  0  0  0
  -30.1560  -16.1590   20.3280 N   0  0  0  0  0  0  0  0  0  0  0  0
  -29.1890  -16.0520   20.6030 H   0  0  0  0  0  0  0  0  0  0  0  0
  -25.4400  -14.2390   20.2300 C   0  0  0  0  0  0  0  0  0  0  0  0
  -24.3670  -13.4770   20.6040 C   0  0  0  0  0  0  0  0  0  0  0  0
  -24.8060  -12.1190   20.5430 C   0  0  0  0  0  0  0  0  0  0  0  0
  -26.4670  -13.3470   19.9710 N   0  0  0  0  0  0  0  0  0  0  0  0
  -26.0910  -12.0660   20.2150 N   0  0  0  0  0  0  0  0  0  0  0  0
  -24.0600  -10.8670   20.7170 C   0  0  0  0  0  0  0  0  0  0  0  0
  -24.4870   -9.8740   21.6260 C   0  0  0  0  0  3  0  0  0  0  0  0
  -23.7420   -8.6860   21.7910 C   0  0  0  0  0  3  0  0  0  0  0  0
  -22.5560   -8.4820   21.0470 C   0  0  0  0  0  0  0  0  0  0  0  0
  -22.1470   -9.4630   20.1260 C   0  0  0  0  0  3  0  0  0  0  0  0
  -22.8940  -10.6430   19.9590 C   0  0  0  0  0  3  0  0  0  0  0  0
  -21.7830   -7.3480   21.1230 O   0  0  0  0  0  0  0  0  0  0  0  0
  -21.7490   -6.5750   22.2570 C   0  0  0  0  0  0  0  0  0  0  0  0
  -21.3680   -7.1040   23.5090 C   0  0  0  0  0  3  0  0  0  0  0  0
  -21.2820   -6.2590   24.6330 C   0  0  0  0  0  3  0  0  0  0  0  0
  -21.5620   -4.8850   24.5050 C   0  0  0  0  0  0  0  0  0  0  0  0
  -21.9360   -4.3560   23.2580 C   0  0  0  0  0  3  0  0  0  0  0  0
  -22.0260   -5.1980   22.1360 C   0  0  0  0  0  0  0  0  0  0  0  0
  -22.3660   -4.6780   20.9320 F   0  0  0  0  0  0  0  0  0  0  0  0
  -21.4710   -4.0720   25.5840 F   0  0  0  0  0  0  0  0  0  0  0  0
  -22.9830  -13.9740   20.9050 C   0  0  0  0  0  0  0  0  0  0  0  0
  -22.2570  -13.2790   21.7750 N   0  0  0  0  0  0  0  0  0  0  0  0
  -22.5530  -15.0140   20.4050 O   0  0  0  0  0  0  0  0  0  0  0  0
  -22.6140  -12.4350   22.1980 H   0  0  0  0  0  0  0  0  0  0  0  0
  -21.3320  -13.5980   22.0260 H   0  0  0  0  0  0  0  0  0  0  0  0
  -25.6230  -15.6090   20.0690 N   0  0  0  0  0  0  0  0  0  0  0  0
  -24.8580  -16.2680   20.1660 H   0  0  0  0  0  0  0  0  0  0  0  0
  -26.4610  -16.0320   19.6920 H   0  0  0  0  0  0  0  0  0  0  0  0
  -29.1130  -25.6930   18.8560 C   0  0  0  0  0  2  0  0  0  0  0  0
  -28.9180  -26.9040   19.6860 O   0  0  0  0  0  0  0  0  0  0  0  0
  -24.8530  -31.8410   23.0200 C   0  0  0  0  0  0  0  0  0  0  0  0
  -27.7360  -27.6680   19.6490 C   0  0  0  0  0  0  0  0  0  0  0  0
  -23.7310  -30.4780   21.2950 C   0  0  0  0  0  3  0  0  0  0  0  0
  -25.2690  -29.1290   19.7640 C   0  0  0  0  0  0  0  0  0  0  0  0
  -26.2460  -30.9630   21.1370 C   0  0  0  0  0  2  0  0  0  0  0  0
  -26.4050  -29.6380   20.4020 C   0  0  0  0  0  0  0  0  0  0  0  0
  -27.6340  -28.9130   20.3480 C   0  0  0  0  0  3  0  0  0  0  0  0
  -26.5690  -27.2250   18.9780 C   0  0  0  0  0  3  0  0  0  0  0  0
  -25.3540  -27.9320   19.0400 C   0  0  0  0  0  3  0  0  0  0  0  0
  -23.9780  -29.9150   19.8710 C   0  0  0  0  0  2  0  0  0  0  0  0
  -24.9590  -31.1110   21.8730 N   0  0  0  0  0  0  0  0  0  0  0  0
  -23.7570  -32.0150   23.5740 O   0  0  0  0  0  0  0  0  0  0  0  0
  -23.1420  -29.3580   22.1860 C   0  0  0  0  0  0  0  0  0  0  0  0
  -21.8180  -29.1460   22.0940 N   0  0  0  0  0  0  0  0  0  0  0  0
  -23.8730  -28.6890   22.9230 O   0  0  0  0  0  0  0  0  0  0  0  0
  -21.2850  -29.7450   21.4780 H   0  0  0  0  0  0  0  0  0  0  0  0
  -18.4940  -27.8300   22.6450 C   0  0  0  0  0  0  0  0  0  0  0  0
  -21.0580  -28.1200   22.8100 C   0  0  0  0  0  3  0  0  0  0  0  0
  -21.1560  -26.7530   22.0940 C   0  0  0  0  0  2  0  0  0  0  0  0
  -20.0080  -26.5060   21.1090 C   0  0  0  0  0  2  0  0  0  0  0  0
  -18.6590  -26.5580   21.8320 C   0  0  0  0  0  2  0  0  0  0  0  0
  -19.6200  -28.5740   23.0900 C   0  0  0  0  0  0  0  0  0  0  0  0
  -19.4090  -29.7690   23.8110 C   0  0  0  0  0  3  0  0  0  0  0  0
  -18.1060  -30.2220   24.0920 C   0  0  0  0  0  3  0  0  0  0  0  0
  -16.9960  -29.4740   23.6630 C   0  0  0  0  0  3  0  0  0  0  0  0
  -17.1910  -28.2800   22.9450 C   0  0  0  0  0  3  0  0  0  0  0  0
  -26.0960  -32.5120   23.6810 C   0  0  0  0  0  3  0  0  0  0  0  0
  -26.6480  -31.7120   24.9240 C   0  0  1  0  0  0  0  0  0  0  0  0
  -25.5640  -31.3710   25.9760 C   0  0  0  0  0  1  0  0  0  0  0  0
  -27.3020  -30.3830   24.4770 C   0  0  0  0  0  1  0  0  0  0  0  0
  -27.7580  -32.5320   25.6260 C   0  0  0  0  0  1  0  0  0  0  0  0
  -25.7100  -33.8750   24.0740 N   0  0  0  0  0  0  0  0  0  0  0  0
  -26.0020  -34.9820   23.3760 C   0  0  0  0  0  0  0  0  0  0  0  0
  -26.6930  -34.9630   22.3540 O   0  0  0  0  0  0  0  0  0  0  0  0
  -25.1000  -33.9600   24.8750 H   0  0  0  0  0  0  0  0  0  0  0  0
  -24.1840  -36.6970   23.0900 C   0  0  0  0  0  1  0  0  0  0  0  0
  -25.4380  -36.3180   23.8940 C   0  0  0  0  0  3  0  0  0  0  0  0
  -27.5160  -37.2730   24.7890 C   0  0  0  0  0  1  0  0  0  0  0  0
  -26.4150  -37.4290   23.8450 N   0  0  0  0  0  0  0  0  0  0  0  0
  -25.9570  -38.3170   24.0330 H   0  0  0  0  0  0  0  0  0  0  0  0
  1  4  1  0
  2  6  1  0
  3  7  1  0
  3  2  1  0
  4  2  2  0
  4 11  1  0
  5  3  2  0
  6  8  1  0
  7  9  1  0
  9  8  1  0
 10  5  1  0
 10  1  2  0
 11 12  1  0
 13 11  1  0
 14 13  1  0
 14 23  1  0
 15 23  1  0
 16 21  1  0
 17 18  1  0
 17 16  1  0
 19 18  1  0
 19 28  1  0
 19 20  1  0
 21 15  1  0
 21 20  1  0
 22 15  2  0
 23 24  1  0
 25 26  2  0
 26 45  1  0
 27 26  1  0
 27 30  1  0
 28 29  1  0
 28 25  1  0
 29 27  2  0
 30 31  1  0
 31 32  2  0
 33 36  1  0
 33 32  1  0
 34 33  2  0
 35 34  1  0
 35 30  2  0
 36 37  1  0
 37 38  1  0
 38 39  2  0
 40 39  1  0
 40 44  1  0
 41 40  2  0
 42 37  2  0
 42 41  1  0
 43 42  1  0
 45 46  1  0
 46 49  1  0
 46 48  1  0
 47 45  2  0
 50 51  1  0
 50 25  1  0
 52 50  1  0
 53  5  1  0
 53 54  1  0
 55 66  2  0
 56 54  1  0
 56 61  1  0
 57 65  1  0
 57 67  1  0
 58 64  1  0
 58 60  1  0
 59 65  1  0
 60 59  1  0
 61 60  2  0
 62 63  1  0
 62 56  2  0
 63 58  2  0
 64 57  1  0
 65 55  1  0
 67 69  2  0
 68 67  1  0
 70 68  1  0
 71 80  2  0
 71 76  1  0
 72 68  1  0
 72 76  1  0
 73 72  1  0
 74 75  1  0
 74 73  1  0
 75 71  1  0
 76 77  2  0
 77 78  1  0
 79 78  2  0
 80 79  1  0
 81 55  1  0
 81 86  1  0
 81 82  1  0
 82 85  1  1
 82 83  1  0
 84 82  1  0
 86 89  1  0
 87 91  1  0
 87 86  1  0
 88 87  2  0
 91 90  1  0
 93 91  1  0
 93 94  1  0
 93 92  1  0
M  ISO  4  15 100  23 100  53 101  54 101
M  END
>  <TORSDO>  (51) 
F 20

>  <SCORE>  (51) 
-10.050

>  <name>  (51) 
50

>  <ligand_id>  (51) 
50

>  <original_smiles>  (51) 
[H]c1nc(C([H])([H])Oc2c([H])c([H])c3c(c2[H])C([H])([H])N(C(=O)C([H])(N([H])C(=O)C([H])(N([H])C([H])([H])[H])C([H])([H])[H])C(C([H])([H])[H])(C([H])([H])[H])C([H])([H])[H])C([H])(C(=O)N([H])C2([H])c4c([H])c([H])c([H])c([H])c4C([H])([H])C([H])([H])C2([H])[H])C3([H])[H])c2c(c1N([H])C([H])([H])C([H])([H])N([H])C(=O)N1C([H])([H])C([H])([H])C([H])([H])C([H])(n3nc(-c4c([H])c([H])c(Oc5c([H])c([H])c(F)c([H])c5F)c([H])c4[H])c(C(=O)N([H])[H])c3N([H])[H])C1([H])[H])C([H])([H])C([H])([H])C([H])([H])C2([H])[H]

>  <smiles>  (51) 
[H]c1nc(C([H])([H])Oc2c([H])c([H])c3c(c2[H])C([H])([H])N(C(=O)C([H])(N([H])C(=O)C([H])(N([H])C([H])([H])[H])C([H])([H])[H])C(C([H])([H])[H])(C([H])([H])[H])C([H])([H])[H])C([H])(C(=O)N([H])C2([H])c4c([H])c([H])c([H])c([H])c4C([H])([H])C([H])([H])C2([H])[H])C3([H])[H])c2c(c1N([H])C([H])([H])C([H])([H])N([H])C(=O)N1C([H])([H])C([H])([H])C([H])([H])C([H])(n3nc(-c4c([H])c([H])c(Oc5c([H])c([H])c(F)c([H])c5F)c([H])c4[H])c(C(=O)N([H])[H])c3N([H])[H])C1([H])[H])C([H])([H])C([H])([H])C([H])([H])C2([H])[H]

$$$$
51:0:0
     RDKit          3D

100108  0  0  1  0  0  0  0  0999 V2000
  -27.6540  -21.0840   20.6040 C   0  0  0  0  0  2  0  0  0  0  0  0
  -29.1520  -21.3580   20.8630 C   0  0  0  0  0  3  0  0  0  0  0  0
  -28.6250  -23.6860   21.3600 C   0  0  0  0  0  3  0  0  0  0  0  0
  -27.0890  -23.4100   21.2120 C   0  0  0  0  0  3  0  0  0  0  0  0
  -29.4270  -22.7650   20.5340 N   0  0  0  0  0  0  0  0  0  0  0  0
  -26.8230  -21.9690   21.4440 N   0  0  0  0  0  4  0  0  0  0  0  0
  -29.2220  -22.9190   19.5510 H   0  0  0  0  0  0  0  0  0  0  0  0
  -27.0070  -21.7540   22.4110 H   0  0  0  0  0  0  0  0  0  0  0  0
  -25.8540  -21.7690   21.2610 H   0  0  0  0  0  0  0  0  0  0  0  0
  -29.0580  -25.1470   21.0500 C   0  0  0  0  0  2  0  0  0  0  0  0
  -28.7880  -25.6620   19.6180 C   0  0  0  0  0  2  0  0  0  0  0  0
  -28.6780  -27.0920   19.6000 O   0  0  0  0  0  0  0  0  0  0  0  0
  -24.5040  -31.7200   23.0260 C   0  0  0  0  0  0  0  0  0  0  0  0
  -27.4330  -27.6850   19.6550 C   0  0  0  0  0  0  0  0  0  0  0  0
  -23.3900  -30.3590   21.2860 C   0  0  0  0  0  3  0  0  0  0  0  0
  -24.9390  -29.0240   19.7660 C   0  0  0  0  0  0  0  0  0  0  0  0
  -25.8860  -30.8940   21.1250 C   0  0  0  0  0  2  0  0  0  0  0  0
  -26.0610  -29.5790   20.3950 C   0  0  0  0  0  0  0  0  0  0  0  0
  -27.3070  -28.9170   20.3370 C   0  0  0  0  0  3  0  0  0  0  0  0
  -26.2900  -27.1470   19.0160 C   0  0  0  0  0  3  0  0  0  0  0  0
  -25.0490  -27.8080   19.0750 C   0  0  0  0  0  3  0  0  0  0  0  0
  -23.6430  -29.7950   19.8640 C   0  0  0  0  0  2  0  0  0  0  0  0
  -24.6110  -31.0030   21.8720 N   0  0  0  0  0  0  0  0  0  0  0  0
  -23.4070  -31.8850   23.5770 O   0  0  0  0  0  0  0  0  0  0  0  0
  -22.8100  -29.2310   22.1690 C   0  0  0  0  0  0  0  0  0  0  0  0
  -21.4900  -29.0090   22.0600 N   0  0  0  0  0  0  0  0  0  0  0  0
  -23.5410  -28.5660   22.9070 O   0  0  0  0  0  0  0  0  0  0  0  0
  -20.9590  -29.6040   21.4400 H   0  0  0  0  0  0  0  0  0  0  0  0
  -18.1730  -27.6730   22.5700 C   0  0  0  0  0  0  0  0  0  0  0  0
  -20.7310  -27.9760   22.7650 C   0  0  0  0  0  3  0  0  0  0  0  0
  -20.8470  -26.6120   22.0470 C   0  0  0  0  0  2  0  0  0  0  0  0
  -19.7130  -26.3580   21.0500 C   0  0  0  0  0  2  0  0  0  0  0  0
  -18.3550  -26.4010   21.7580 C   0  0  0  0  0  2  0  0  0  0  0  0
  -19.2890  -28.4210   23.0290 C   0  0  0  0  0  0  0  0  0  0  0  0
  -19.0630  -29.6150   23.7490 C   0  0  0  0  0  3  0  0  0  0  0  0
  -17.7550  -30.0630   24.0110 C   0  0  0  0  0  3  0  0  0  0  0  0
  -16.6550  -29.3100   23.5680 C   0  0  0  0  0  3  0  0  0  0  0  0
  -16.8640  -28.1160   22.8540 C   0  0  0  0  0  3  0  0  0  0  0  0
  -25.7480  -32.3870   23.6920 C   0  0  0  0  0  3  0  0  0  0  0  0
  -25.3640  -33.7520   24.0770 N   0  0  0  0  0  0  0  0  0  0  0  0
  -25.6370  -34.8490   23.3590 C   0  0  0  0  0  0  0  0  0  0  0  0
  -26.3110  -34.8210   22.3260 O   0  0  0  0  0  0  0  0  0  0  0  0
  -24.7610  -33.8410   24.8830 H   0  0  0  0  0  0  0  0  0  0  0  0
  -23.8040  -36.5470   23.0790 C   0  0  0  0  0  1  0  0  0  0  0  0
  -25.0730  -36.1890   23.8680 C   0  0  0  0  0  3  0  0  0  0  0  0
  -27.1560  -37.1710   24.7210 C   0  0  0  0  0  1  0  0  0  0  0  0
  -26.0420  -37.3030   23.7840 N   0  0  0  0  0  0  0  0  0  0  0  0
  -25.5840  -38.1920   23.9640 H   0  0  0  0  0  0  0  0  0  0  0  0
  -26.2890  -31.5860   24.9400 C   0  0  1  0  0  0  0  0  0  0  0  0
  -25.2000  -31.2540   25.9870 C   0  0  0  0  0  1  0  0  0  0  0  0
  -26.9360  -30.2540   24.4930 C   0  0  0  0  0  1  0  0  0  0  0  0
  -27.3990  -32.4020   25.6460 C   0  0  0  0  0  1  0  0  0  0  0  0
  -30.0890  -20.4170   20.0490 C   0  0  0  0  0  2  0  0  0  0  0  0
  -30.7080  -19.3460   20.8700 N   0  0  0  0  0  4  0  0  0  0  0  0
  -30.6670  -19.6060   21.8420 H   0  0  0  0  0  0  0  0  0  0  0  0
  -31.6820  -19.3160   20.6180 H   0  0  0  0  0  0  0  0  0  0  0  0
  -30.1520  -17.9860   20.6600 C   0  0  0  0  0  2  0  0  0  0  0  0
  -30.8800  -16.8990   21.4870 C   0  0  0  0  0  2  0  0  0  0  0  0
  -30.8650  -14.6920   20.2960 C   0  0  0  0  0  0  0  0  0  0  0  0
  -30.4750  -12.6040   19.0370 C   0  0  0  0  0  2  0  0  0  0  0  0
  -29.4840  -12.8370   17.8810 C   0  0  0  0  0  2  0  0  0  0  0  0
  -28.0300  -12.6850   18.3690 C   0  0  0  0  0  2  0  0  0  0  0  0
  -27.7470  -13.5030   19.6570 C   0  0  0  0  0  3  0  0  0  0  0  0
  -28.8390  -13.2470   20.7200 C   0  0  0  0  0  2  0  0  0  0  0  0
  -30.1530  -13.5460   20.1200 N   0  0  0  0  0  0  0  0  0  0  0  0
  -31.8810  -14.9610   19.6520 O   0  0  0  0  0  0  0  0  0  0  0  0
  -30.3700  -15.5510   21.2020 N   0  0  0  0  0  0  0  0  0  0  0  0
  -29.5600  -15.2410   21.7180 H   0  0  0  0  0  0  0  0  0  0  0  0
  -25.3850  -14.1120   20.4810 C   0  0  0  0  0  0  0  0  0  0  0  0
  -24.3240  -13.3380   20.8680 C   0  0  0  0  0  0  0  0  0  0  0  0
  -24.7670  -11.9840   20.7710 C   0  0  0  0  0  0  0  0  0  0  0  0
  -26.4100  -13.2290   20.1780 N   0  0  0  0  0  0  0  0  0  0  0  0
  -26.0430  -11.9420   20.4080 N   0  0  0  0  0  0  0  0  0  0  0  0
  -24.0350  -10.7220   20.9480 C   0  0  0  0  0  0  0  0  0  0  0  0
  -24.4770   -9.7320   21.8530 C   0  0  0  0  0  3  0  0  0  0  0  0
  -23.7460   -8.5360   22.0190 C   0  0  0  0  0  3  0  0  0  0  0  0
  -22.5590   -8.3210   21.2780 C   0  0  0  0  0  0  0  0  0  0  0  0
  -22.1360   -9.3010   20.3620 C   0  0  0  0  0  3  0  0  0  0  0  0
  -22.8680  -10.4890   20.1950 C   0  0  0  0  0  3  0  0  0  0  0  0
  -21.7990   -7.1800   21.3540 O   0  0  0  0  0  0  0  0  0  0  0  0
  -21.7430   -6.4270   22.4990 C   0  0  0  0  0  0  0  0  0  0  0  0
  -21.2920   -6.9640   23.7240 C   0  0  0  0  0  3  0  0  0  0  0  0
  -21.1850   -6.1370   24.8600 C   0  0  0  0  0  3  0  0  0  0  0  0
  -21.5200   -4.7720   24.7720 C   0  0  0  0  0  0  0  0  0  0  0  0
  -21.9650   -4.2340   23.5520 C   0  0  0  0  0  3  0  0  0  0  0  0
  -22.0740   -5.0580   22.4180 C   0  0  0  0  0  0  0  0  0  0  0  0
  -22.4830   -4.5300   21.2400 F   0  0  0  0  0  0  0  0  0  0  0  0
  -21.4100   -3.9760   25.8600 F   0  0  0  0  0  0  0  0  0  0  0  0
  -22.9450  -13.8200   21.2170 C   0  0  0  0  0  0  0  0  0  0  0  0
  -22.2470  -13.1010   22.0900 N   0  0  0  0  0  0  0  0  0  0  0  0
  -22.4970  -14.8660   20.7510 O   0  0  0  0  0  0  0  0  0  0  0  0
  -22.6230  -12.2530   22.4890 H   0  0  0  0  0  0  0  0  0  0  0  0
  -21.3230  -13.4060   22.3660 H   0  0  0  0  0  0  0  0  0  0  0  0
  -25.5580  -15.4860   20.3430 N   0  0  0  0  0  0  0  0  0  0  0  0
  -24.7990  -16.1420   20.4900 H   0  0  0  0  0  0  0  0  0  0  0  0
  -26.3960  -15.9210   19.9780 H   0  0  0  0  0  0  0  0  0  0  0  0
  -26.2330  -24.2570   22.1960 C   0  0  0  0  0  2  0  0  0  0  0  0
  -23.9580  -24.7030   23.2340 C   0  0  0  0  0  1  0  0  0  0  0  0
  -24.2360  -24.9270   20.7470 C   0  0  0  0  0  1  0  0  0  0  0  0
  -24.7000  -24.1670   22.0000 C   0  0  0  0  0  3  0  0  0  0  0  0
  1  2  1  0
  1  6  1  0
  2 53  1  0
  3 10  1  0
  4  3  1  0
  4  6  1  0
  4 97  1  0
  5  2  1  0
  5  3  1  0
  6  8  1  0
  7  5  1  0
  9  6  1  0
 11 10  1  0
 12 11  1  0
 12 14  1  0
 13 24  2  0
 14 19  1  0
 15 23  1  0
 15 25  1  0
 16 22  1  0
 16 18  1  0
 17 23  1  0
 18 17  1  0
 19 18  2  0
 20 21  1  0
 20 14  2  0
 21 16  2  0
 22 15  1  0
 23 13  1  0
 25 27  2  0
 26 25  1  0
 28 26  1  0
 29 38  2  0
 29 34  1  0
 30 26  1  0
 30 34  1  0
 31 30  1  0
 32 33  1  0
 32 31  1  0
 33 29  1  0
 34 35  2  0
 35 36  1  0
 37 36  2  0
 38 37  1  0
 39 13  1  0
 39 40  1  0
 39 49  1  0
 40 43  1  0
 41 45  1  0
 41 40  1  0
 42 41  2  0
 45 44  1  0
 47 45  1  0
 47 48  1  0
 47 46  1  0
 49 52  1  1
 49 50  1  0
 51 49  1  0
 53 54  1  0
 54 55  1  0
 56 54  1  0
 57 54  1  0
 57 58  1  0
 59 67  1  0
 60 65  1  0
 61 62  1  0
 61 60  1  0
 63 62  1  0
 63 72  1  0
 63 64  1  0
 65 59  1  0
 65 64  1  0
 66 59  2  0
 67 58  1  0
 67 68  1  0
 69 70  2  0
 70 89  1  0
 71 70  1  0
 71 74  1  0
 72 73  1  0
 72 69  1  0
 73 71  2  0
 74 75  1  0
 75 76  2  0
 77 80  1  0
 77 76  1  0
 78 77  2  0
 79 78  1  0
 79 74  2  0
 80 81  1  0
 81 82  1  0
 82 83  2  0
 84 83  1  0
 84 88  1  0
 85 84  2  0
 86 81  2  0
 86 85  1  0
 87 86  1  0
 89 90  1  0
 90 93  1  0
 90 92  1  0
 91 89  2  0
 94 69  1  0
 94 95  1  0
 96 94  1  0
 99100  1  0
100 97  1  0
100 98  1  0
M  ISO  4  11 101  12 101  59 100  67 100
M  END
>  <TORSDO>  (52) 
F 24

>  <SCORE>  (52) 
-11.852

>  <name>  (52) 
51

>  <ligand_id>  (52) 
51

>  <original_smiles>  (52) 
[H]c1c([H])c([H])c2c(c1[H])C([H])([H])C([H])([H])C([H])([H])C2([H])N([H])C(=O)C1([H])N(C(=O)C([H])(N([H])C(=O)C([H])(N([H])C([H])([H])[H])C([H])([H])[H])C(C([H])([H])[H])(C([H])([H])[H])C([H])([H])[H])C([H])([H])c2c([H])c(OC([H])([H])C([H])([H])C3([H])N([H])C([H])(C([H])([H])[N+]([H])([H])C([H])([H])C([H])([H])N([H])C(=O)N4C([H])([H])C([H])([H])C([H])([H])C([H])(n5nc(-c6c([H])c([H])c(Oc7c([H])c([H])c(F)c([H])c7F)c([H])c6[H])c(C(=O)N([H])[H])c5N([H])[H])C4([H])[H])C([H])([H])[N+]([H])([H])C3([H])C([H])([H])C([H])(C([H])([H])[H])C([H])([H])[H])c([H])c([H])c2C1([H])[H]

>  <smiles>  (52) 
[H]c1c([H])c([H])c2c(c1[H])C([H])([H])C([H])([H])C([H])([H])C2([H])N([H])C(=O)C1([H])N(C(=O)C([H])(N([H])C(=O)C([H])(N([H])C([H])([H])[H])C([H])([H])[H])C(C([H])([H])[H])(C([H])([H])[H])C([H])([H])[H])C([H])([H])c2c([H])c(OC([H])([H])C([H])([H])C3([H])N([H])C([H])(C([H])([H])[N+]([H])([H])C([H])([H])C([H])([H])N([H])C(=O)N4C([H])([H])C([H])([H])C([H])([H])C([H])(n5nc(-c6c([H])c([H])c(Oc7c([H])c([H])c(F)c([H])c7F)c([H])c6[H])c(C(=O)N([H])[H])c5N([H])[H])C4([H])[H])C([H])([H])[N+]([H])([H])C3([H])C([H])([H])C([H])(C([H])([H])[H])C([H])([H])[H])c([H])c([H])c2C1([H])[H]

$$$$
52:0:0
     RDKit          3D

 97106  0  0  1  0  0  0  0  0999 V2000
  -24.9840  -21.9730   20.3120 C   0  0  0  0  0  3  0  0  0  0  0  0
  -24.9950  -23.3650   20.5010 C   0  0  0  0  0  3  0  0  0  0  0  0
  -26.1940  -21.2900   20.0910 C   0  0  0  0  0  3  0  0  0  0  0  0
  -26.2110  -24.0700   20.4710 C   0  0  0  0  0  3  0  0  0  0  0  0
  -27.4230  -21.9870   20.0600 C   0  0  0  0  0  0  0  0  0  0  0  0
  -27.4400  -23.3930   20.2540 C   0  0  0  0  0  0  0  0  0  0  0  0
  -29.1760  -20.4710   21.1060 C   0  0  0  0  0  2  0  0  0  0  0  0
  -28.6320  -20.1840   18.6880 C   0  0  0  0  0  2  0  0  0  0  0  0
  -30.5220  -19.7560   20.8740 C   0  0  0  0  0  2  0  0  0  0  0  0
  -29.9880  -19.4800   18.4810 C   0  0  0  0  0  2  0  0  0  0  0  0
  -28.7200  -21.2040   19.8360 C   0  0  0  0  0  3  0  0  0  0  0  0
  -30.4700  -18.8100   19.7220 N   0  0  1  0  0  4  0  0  0  0  0  0
  -29.7990  -18.0900   19.9420 H   0  0  0  0  0  0  0  0  0  0  0  0
  -31.7650  -18.1110   19.5050 C   0  0  0  0  0  2  0  0  0  0  0  0
  -32.0250  -16.9610   20.5060 C   0  0  0  0  0  2  0  0  0  0  0  0
  -31.6410  -14.7220   19.4890 C   0  0  0  0  0  0  0  0  0  0  0  0
  -31.3040  -12.3400   18.9310 C   0  0  0  0  0  2  0  0  0  0  0  0
  -30.2990  -12.1450   17.7810 C   0  0  0  0  0  2  0  0  0  0  0  0
  -28.8570  -12.1020   18.3200 C   0  0  0  0  0  2  0  0  0  0  0  0
  -28.5440  -13.2860   19.2700 C   0  0  0  0  0  3  0  0  0  0  0  0
  -29.6460  -13.4340   20.3420 C   0  0  0  0  0  2  0  0  0  0  0  0
  -30.9460  -13.5680   19.6580 N   0  0  0  0  0  0  0  0  0  0  0  0
  -32.6180  -14.8240   18.7420 O   0  0  0  0  0  0  0  0  0  0  0  0
  -31.2390  -15.7510   20.2490 N   0  0  0  0  0  0  0  0  0  0  0  0
  -30.4400  -15.5770   20.8440 H   0  0  0  0  0  0  0  0  0  0  0  0
  -26.3370  -14.1290   20.2960 C   0  0  0  0  0  0  0  0  0  0  0  0
  -25.2170  -13.4680   20.7220 C   0  0  0  0  0  0  0  0  0  0  0  0
  -25.4820  -12.0770   20.5300 C   0  0  0  0  0  0  0  0  0  0  0  0
  -27.2210  -13.1470   19.8760 N   0  0  0  0  0  0  0  0  0  0  0  0
  -26.7140  -11.9030   20.0720 N   0  0  0  0  0  0  0  0  0  0  0  0
  -24.6140  -10.9060   20.7020 C   0  0  0  0  0  0  0  0  0  0  0  0
  -24.9420   -9.8690   21.6030 C   0  0  0  0  0  3  0  0  0  0  0  0
  -24.0820   -8.7610   21.7630 C   0  0  0  0  0  3  0  0  0  0  0  0
  -22.8800   -8.6830   21.0210 C   0  0  0  0  0  0  0  0  0  0  0  0
  -22.5690   -9.7070   20.1090 C   0  0  0  0  0  3  0  0  0  0  0  0
  -23.4280  -10.8060   19.9470 C   0  0  0  0  0  3  0  0  0  0  0  0
  -21.9960   -7.6320   21.0930 O   0  0  0  0  0  0  0  0  0  0  0  0
  -21.7820   -6.9510   22.2640 C   0  0  0  0  0  0  0  0  0  0  0  0
  -21.3170   -7.6000   23.4280 C   0  0  0  0  0  3  0  0  0  0  0  0
  -21.0420   -6.8500   24.5900 C   0  0  0  0  0  3  0  0  0  0  0  0
  -21.2230   -5.4540   24.5870 C   0  0  0  0  0  0  0  0  0  0  0  0
  -21.6810   -4.8060   23.4260 C   0  0  0  0  0  3  0  0  0  0  0  0
  -21.9560   -5.5530   22.2670 C   0  0  0  0  0  0  0  0  0  0  0  0
  -22.3770   -4.9210   21.1450 F   0  0  0  0  0  0  0  0  0  0  0  0
  -20.9520   -4.7330   25.6990 F   0  0  0  0  0  0  0  0  0  0  0  0
  -23.9340  -14.0910   21.1920 C   0  0  0  0  0  0  0  0  0  0  0  0
  -23.2170  -13.4190   22.0860 N   0  0  0  0  0  0  0  0  0  0  0  0
  -23.5850  -15.2050   20.8030 O   0  0  0  0  0  0  0  0  0  0  0  0
  -23.5140  -12.5130   22.4190 H   0  0  0  0  0  0  0  0  0  0  0  0
  -22.3570  -13.8150   22.4410 H   0  0  0  0  0  0  0  0  0  0  0  0
  -26.6710  -15.4770   20.2110 N   0  0  0  0  0  0  0  0  0  0  0  0
  -26.0190  -16.2130   20.4600 H   0  0  0  0  0  0  0  0  0  0  0  0
  -27.5320  -15.8280   19.8110 H   0  0  0  0  0  0  0  0  0  0  0  0
  -28.6650  -24.0290   20.2450 O   0  0  0  0  0  0  0  0  0  0  0  0
  -28.7310  -25.4500   20.3090 C   0  0  0  0  0  2  0  0  0  0  0  0
  -28.5350  -26.0740   18.9150 C   0  0  0  0  0  2  0  0  0  0  0  0
  -28.4450  -27.4910   19.0270 O   0  0  0  0  0  0  0  0  0  0  0  0
  -24.6870  -31.8270   23.2090 C   0  0  0  0  0  0  0  0  0  0  0  0
  -27.2190  -28.0750   19.2540 C   0  0  0  0  0  0  0  0  0  0  0  0
  -23.3970  -30.6680   21.4440 C   0  0  0  0  0  3  0  0  0  0  0  0
  -24.7810  -29.4360   19.6940 C   0  0  0  0  0  0  0  0  0  0  0  0
  -25.8870  -31.1570   21.1320 C   0  0  0  0  0  2  0  0  0  0  0  0
  -25.9620  -29.9110   20.2760 C   0  0  0  0  0  0  0  0  0  0  0  0
  -27.1810  -29.2380   20.0520 C   0  0  0  0  0  3  0  0  0  0  0  0
  -26.0150  -27.6020   18.6800 C   0  0  0  0  0  3  0  0  0  0  0  0
  -24.8000  -28.2780   18.8990 C   0  0  0  0  0  3  0  0  0  0  0  0
  -23.5210  -30.2270   19.9620 C   0  0  0  0  0  2  0  0  0  0  0  0
  -24.6800  -31.2230   21.9870 N   0  0  0  0  0  0  0  0  0  0  0  0
  -23.6440  -31.9670   23.8610 O   0  0  0  0  0  0  0  0  0  0  0  0
  -22.8480  -29.4800   22.2650 C   0  0  0  0  0  0  0  0  0  0  0  0
  -21.5290  -29.2490   22.1700 N   0  0  0  0  0  0  0  0  0  0  0  0
  -23.6020  -28.7740   22.9390 O   0  0  0  0  0  0  0  0  0  0  0  0
  -20.9780  -29.8780   21.6020 H   0  0  0  0  0  0  0  0  0  0  0  0
  -18.2570  -27.7680   22.5520 C   0  0  0  0  0  0  0  0  0  0  0  0
  -20.7970  -28.1650   22.8210 C   0  0  0  0  0  3  0  0  0  0  0  0
  -20.9830  -26.8320   22.0590 C   0  0  0  0  0  2  0  0  0  0  0  0
  -19.8820  -26.5680   21.0270 C   0  0  0  0  0  2  0  0  0  0  0  0
  -18.5090  -26.5320   21.7030 C   0  0  0  0  0  2  0  0  0  0  0  0
  -19.3310  -28.5430   23.0620 C   0  0  0  0  0  0  0  0  0  0  0  0
  -19.0420  -29.7020   23.8140 C   0  0  0  0  0  3  0  0  0  0  0  0
  -17.7110  -30.0870   24.0600 C   0  0  0  0  0  3  0  0  0  0  0  0
  -16.6510  -29.3070   23.5640 C   0  0  0  0  0  3  0  0  0  0  0  0
  -16.9250  -28.1480   22.8160 C   0  0  0  0  0  3  0  0  0  0  0  0
  -26.0020  -32.3920   23.8340 C   0  0  0  0  0  3  0  0  0  0  0  0
  -25.7020  -33.7350   24.3500 N   0  0  0  0  0  0  0  0  0  0  0  0
  -26.0090  -34.8760   23.7190 C   0  0  0  0  0  0  0  0  0  0  0  0
  -26.6450  -34.9080   22.6620 O   0  0  0  0  0  0  0  0  0  0  0  0
  -25.1370  -33.7830   25.1850 H   0  0  0  0  0  0  0  0  0  0  0  0
  -24.2710  -36.6900   23.6400 C   0  0  0  0  0  1  0  0  0  0  0  0
  -25.5330  -36.1920   24.3620 C   0  0  0  0  0  3  0  0  0  0  0  0
  -27.6880  -36.9700   25.2440 C   0  0  0  0  0  1  0  0  0  0  0  0
  -26.5610  -37.2550   24.3600 N   0  0  0  0  0  0  0  0  0  0  0  0
  -26.1590  -38.1480   24.6360 H   0  0  0  0  0  0  0  0  0  0  0  0
  -26.5960  -31.4740   24.9720 C   0  0  1  0  0  0  0  0  0  0  0  0
  -25.5690  -31.1000   26.0670 C   0  0  0  0  0  1  0  0  0  0  0  0
  -27.1520  -30.1600   24.3770 C   0  0  0  0  0  1  0  0  0  0  0  0
  -27.7860  -32.1890   25.6560 C   0  0  0  0  0  1  0  0  0  0  0  0
  1  2  1  0
  3  1  2  0
  4  2  2  0
  5  3  1  0
  5  6  2  0
  6  4  1  0
  8 11  1  0
  9  7  1  0
 10  8  1  0
 10 12  1  0
 11  5  1  0
 11  7  1  0
 12 13  1  1
 12  9  1  0
 14 12  1  0
 14 15  1  0
 16 22  1  0
 16 24  1  0
 17 22  1  0
 18 19  1  0
 18 17  1  0
 20 19  1  0
 20 29  1  0
 20 21  1  0
 22 21  1  0
 23 16  2  0
 24 15  1  0
 24 25  1  0
 26 27  2  0
 27 46  1  0
 28 31  1  0
 28 27  1  0
 29 30  1  0
 29 26  1  0
 30 28  2  0
 31 32  1  0
 32 33  2  0
 34 37  1  0
 34 33  1  0
 35 34  2  0
 36 35  1  0
 36 31  2  0
 37 38  1  0
 38 43  2  0
 38 39  1  0
 39 40  2  0
 41 40  1  0
 41 45  1  0
 42 41  2  0
 43 42  1  0
 44 43  1  0
 46 47  1  0
 47 49  1  0
 47 50  1  0
 48 46  2  0
 51 26  1  0
 51 52  1  0
 53 51  1  0
 54  6  1  0
 54 55  1  0
 56 57  1  0
 56 55  1  0
 57 59  1  0
 58 69  2  0
 59 64  1  0
 60 68  1  0
 60 70  1  0
 61 67  1  0
 61 63  1  0
 62 68  1  0
 63 62  1  0
 64 63  2  0
 65 66  1  0
 65 59  2  0
 66 61  2  0
 67 60  1  0
 68 58  1  0
 70 72  2  0
 71 70  1  0
 73 71  1  0
 74 83  2  0
 74 79  1  0
 75 71  1  0
 75 79  1  0
 76 75  1  0
 77 78  1  0
 77 76  1  0
 78 74  1  0
 79 80  2  0
 80 81  1  0
 82 81  2  0
 83 82  1  0
 84 58  1  0
 84 85  1  0
 84 94  1  0
 85 88  1  0
 86 85  1  0
 86 90  1  0
 87 86  2  0
 90 89  1  0
 92 90  1  0
 92 93  1  0
 92 91  1  0
 94 97  1  1
 94 95  1  0
 96 94  1  0
M  ISO  4  16 100  24 100  56 101  57 101
M  END
>  <TORSDO>  (53) 
F 22

>  <SCORE>  (53) 
-8.532

>  <name>  (53) 
52

>  <ligand_id>  (53) 
52

>  <original_smiles>  (53) 
[H]c1c([H])c([H])c(C2([H])C([H])([H])C([H])([H])[N+]([H])(C([H])([H])C([H])([H])N([H])C(=O)N3C([H])([H])C([H])([H])C([H])([H])C([H])(n4nc(-c5c([H])c([H])c(Oc6c([H])c([H])c(F)c([H])c6F)c([H])c5[H])c(C(=O)N([H])[H])c4N([H])[H])C3([H])[H])C([H])([H])C2([H])[H])c(OC([H])([H])C([H])([H])Oc2c([H])c([H])c3c(c2[H])C([H])([H])N(C(=O)C([H])(N([H])C(=O)C([H])(N([H])C([H])([H])[H])C([H])([H])[H])C(C([H])([H])[H])(C([H])([H])[H])C([H])([H])[H])C([H])(C(=O)N([H])C2([H])c4c([H])c([H])c([H])c([H])c4C([H])([H])C([H])([H])C2([H])[H])C3([H])[H])c1[H]

>  <smiles>  (53) 
[H]c1c([H])c([H])c(C2([H])C([H])([H])C([H])([H])[N+]([H])(C([H])([H])C([H])([H])N([H])C(=O)N3C([H])([H])C([H])([H])C([H])([H])C([H])(n4nc(-c5c([H])c([H])c(Oc6c([H])c([H])c(F)c([H])c6F)c([H])c5[H])c(C(=O)N([H])[H])c4N([H])[H])C3([H])[H])C([H])([H])C2([H])[H])c(OC([H])([H])C([H])([H])Oc2c([H])c([H])c3c(c2[H])C([H])([H])N(C(=O)C([H])(N([H])C(=O)C([H])(N([H])C([H])([H])[H])C([H])([H])[H])C(C([H])([H])[H])(C([H])([H])[H])C([H])([H])[H])C([H])(C(=O)N([H])C2([H])c4c([H])c([H])c([H])c([H])c4C([H])([H])C([H])([H])C2([H])[H])C3([H])[H])c1[H]

$$$$
53:0:0
     RDKit          3D

 91 99  0  0  1  0  0  0  0  0999 V2000
  -29.3420  -22.8600   18.8770 C   0  0  0  0  0  3  0  0  0  0  0  0
  -29.5470  -21.4830   19.2060 C   0  0  0  0  0  3  0  0  0  0  0  0
  -28.5780  -21.9030   21.3540 C   0  0  0  0  0  3  0  0  0  0  0  0
  -28.7470  -23.8120   19.7620 C   0  0  0  0  0  0  0  0  0  0  0  0
  -28.3380  -23.2770   21.0180 C   0  0  0  0  0  0  0  0  0  0  0  0
  -29.1750  -20.9600   20.4690 C   0  0  0  0  0  0  0  0  0  0  0  0
  -27.6050  -24.1460   22.0240 C   0  0  0  0  0  1  0  0  0  0  0  0
  -29.3630  -19.6010   20.9060 N   0  0  0  0  0  0  0  0  0  0  0  0
  -29.0430  -19.3990   21.8500 H   0  0  0  0  0  0  0  0  0  0  0  0
  -29.7400  -18.3780   20.1280 C   0  0  0  0  0  2  0  0  0  0  0  0
  -30.2680  -17.1700   21.0300 C   0  0  0  0  0  2  0  0  0  0  0  0
  -30.6190  -14.6540   20.4830 C   0  0  0  0  0  0  0  0  0  0  0  0
  -30.3850  -12.4090   19.4380 C   0  0  0  0  0  2  0  0  0  0  0  0
  -29.4560  -12.5350   18.2110 C   0  0  0  0  0  2  0  0  0  0  0  0
  -27.9840  -12.3670   18.6360 C   0  0  0  0  0  2  0  0  0  0  0  0
  -27.6120  -13.2460   19.8620 C   0  0  0  0  0  3  0  0  0  0  0  0
  -28.6640  -13.1240   20.9880 C   0  0  0  0  0  2  0  0  0  0  0  0
  -29.9730  -13.4470   20.4010 N   0  0  0  0  0  0  0  0  0  0  0  0
  -31.8060  -14.7690   20.1760 O   0  0  0  0  0  0  0  0  0  0  0  0
  -29.8470  -15.7570   20.7300 N   0  0  0  0  0  0  0  0  0  0  0  0
  -28.8660  -15.5600   20.8670 H   0  0  0  0  0  0  0  0  0  0  0  0
  -25.2100  -13.8450   20.5420 C   0  0  0  0  0  0  0  0  0  0  0  0
  -24.1390  -13.0710   20.9020 C   0  0  0  0  0  0  0  0  0  0  0  0
  -24.6050  -11.7220   20.8910 C   0  0  0  0  0  0  0  0  0  0  0  0
  -26.2600  -12.9660   20.3350 N   0  0  0  0  0  0  0  0  0  0  0  0
  -25.9010  -11.6850   20.6040 N   0  0  0  0  0  0  0  0  0  0  0  0
  -23.8780  -10.4600   21.0790 C   0  0  0  0  0  0  0  0  0  0  0  0
  -24.3150   -9.4880   22.0060 C   0  0  0  0  0  3  0  0  0  0  0  0
  -23.5880   -8.2910   22.1840 C   0  0  0  0  0  3  0  0  0  0  0  0
  -22.4100   -8.0590   21.4340 C   0  0  0  0  0  0  0  0  0  0  0  0
  -21.9930   -9.0180   20.4970 C   0  0  0  0  0  3  0  0  0  0  0  0
  -22.7210  -10.2080   20.3180 C   0  0  0  0  0  3  0  0  0  0  0  0
  -21.6540   -6.9140   21.5210 O   0  0  0  0  0  0  0  0  0  0  0  0
  -21.6280   -6.1520   22.6610 C   0  0  0  0  0  0  0  0  0  0  0  0
  -21.2490   -6.6940   23.9090 C   0  0  0  0  0  3  0  0  0  0  0  0
  -21.1710   -5.8630   25.0430 C   0  0  0  0  0  3  0  0  0  0  0  0
  -21.4580   -4.4880   24.9320 C   0  0  0  0  0  0  0  0  0  0  0  0
  -21.8300   -3.9460   23.6890 C   0  0  0  0  0  3  0  0  0  0  0  0
  -21.9120   -4.7760   22.5560 C   0  0  0  0  0  0  0  0  0  0  0  0
  -22.2500   -4.2450   21.3570 F   0  0  0  0  0  0  0  0  0  0  0  0
  -21.3740   -3.6870   26.0190 F   0  0  0  0  0  0  0  0  0  0  0  0
  -22.7380  -13.5480   21.1490 C   0  0  0  0  0  0  0  0  0  0  0  0
  -22.0030  -12.8560   22.0120 N   0  0  0  0  0  0  0  0  0  0  0  0
  -22.3040  -14.5690   20.6150 O   0  0  0  0  0  0  0  0  0  0  0  0
  -22.3690  -12.0290   22.4610 H   0  0  0  0  0  0  0  0  0  0  0  0
  -21.0630  -13.1560   22.2290 H   0  0  0  0  0  0  0  0  0  0  0  0
  -25.3640  -15.2150   20.3530 N   0  0  0  0  0  0  0  0  0  0  0  0
  -24.5760  -15.8490   20.4210 H   0  0  0  0  0  0  0  0  0  0  0  0
  -26.2020  -15.6660   20.0100 H   0  0  0  0  0  0  0  0  0  0  0  0
  -28.5080  -25.2930   19.2380 C   0  0  0  0  0  2  0  0  0  0  0  0
  -28.3580  -26.4730   20.1290 O   0  0  0  0  0  0  0  0  0  0  0  0
  -24.6440  -31.8720   23.2040 C   0  0  0  0  0  0  0  0  0  0  0  0
  -27.2270  -27.3140   20.0810 C   0  0  0  0  0  0  0  0  0  0  0  0
  -23.4220  -30.4750   21.5770 C   0  0  0  0  0  3  0  0  0  0  0  0
  -24.8570  -28.9330   20.1240 C   0  0  0  0  0  0  0  0  0  0  0  0
  -25.9580  -30.7930   21.3610 C   0  0  0  0  0  2  0  0  0  0  0  0
  -26.0340  -29.4150   20.7100 C   0  0  0  0  0  0  0  0  0  0  0  0
  -27.2180  -28.6150   20.6840 C   0  0  0  0  0  3  0  0  0  0  0  0
  -26.0160  -26.8810   19.4960 C   0  0  0  0  0  3  0  0  0  0  0  0
  -24.8530  -27.6740   19.5100 C   0  0  0  0  0  3  0  0  0  0  0  0
  -23.6150  -29.7990   20.1950 C   0  0  0  0  0  2  0  0  0  0  0  0
  -24.6960  -31.0630   22.1050 N   0  0  0  0  0  0  0  0  0  0  0  0
  -23.5680  -32.1500   23.7500 O   0  0  0  0  0  0  0  0  0  0  0  0
  -22.7710  -29.4560   22.5440 C   0  0  0  0  0  0  0  0  0  0  0  0
  -21.4430  -29.2800   22.4350 N   0  0  0  0  0  0  0  0  0  0  0  0
  -23.4590  -28.8270   23.3520 O   0  0  0  0  0  0  0  0  0  0  0  0
  -20.9440  -29.8470   21.7630 H   0  0  0  0  0  0  0  0  0  0  0  0
  -18.0750  -28.0740   22.9620 C   0  0  0  0  0  0  0  0  0  0  0  0
  -20.6350  -28.3420   23.2140 C   0  0  0  0  0  3  0  0  0  0  0  0
  -20.7380  -26.9080   22.6420 C   0  0  0  0  0  2  0  0  0  0  0  0
  -19.6290  -26.5800   21.6380 C   0  0  0  0  0  2  0  0  0  0  0  0
  -18.2500  -26.7230   22.2900 C   0  0  0  0  0  2  0  0  0  0  0  0
  -19.1940  -28.8410   23.3810 C   0  0  0  0  0  0  0  0  0  0  0  0
  -18.9750  -30.1080   23.9650 C   0  0  0  0  0  3  0  0  0  0  0  0
  -17.6700  -30.6020   24.1440 C   0  0  0  0  0  3  0  0  0  0  0  0
  -16.5650  -29.8310   23.7430 C   0  0  0  0  0  3  0  0  0  0  0  0
  -16.7680  -28.5710   23.1520 C   0  0  0  0  0  3  0  0  0  0  0  0
  -25.9350  -32.5030   23.8120 C   0  0  0  0  0  3  0  0  0  0  0  0
  -26.4780  -31.7230   25.0720 C   0  0  1  0  0  0  0  0  0  0  0  0
  -25.4060  -31.4670   26.1560 C   0  0  0  0  0  1  0  0  0  0  0  0
  -27.0600  -30.3520   24.6540 C   0  0  0  0  0  1  0  0  0  0  0  0
  -27.6370  -32.5160   25.7220 C   0  0  0  0  0  1  0  0  0  0  0  0
  -25.6250  -33.8970   24.1620 N   0  0  0  0  0  0  0  0  0  0  0  0
  -25.9360  -34.9600   23.4090 C   0  0  0  0  0  0  0  0  0  0  0  0
  -26.5860  -34.8740   22.3640 O   0  0  0  0  0  0  0  0  0  0  0  0
  -25.0500  -34.0400   24.9810 H   0  0  0  0  0  0  0  0  0  0  0  0
  -24.1900  -36.7500   23.1120 C   0  0  0  0  0  1  0  0  0  0  0  0
  -25.4490  -36.3410   23.8940 C   0  0  0  0  0  3  0  0  0  0  0  0
  -27.5970  -37.2260   24.6870 C   0  0  0  0  0  1  0  0  0  0  0  0
  -26.4690  -37.4060   23.7770 N   0  0  0  0  0  0  0  0  0  0  0  0
  -26.0570  -38.3160   23.9670 H   0  0  0  0  0  0  0  0  0  0  0  0
  1  2  2  0
  1  4  1  0
  2  6  1  0
  4  5  2  0
  5  3  1  0
  5  7  1  0
  6  8  1  0
  6  3  2  0
  8  9  1  0
 10  8  1  0
 10 11  1  0
 12 20  1  0
 13 18  1  0
 14 15  1  0
 14 13  1  0
 16 15  1  0
 16 25  1  0
 16 17  1  0
 18 12  1  0
 18 17  1  0
 19 12  2  0
 20 21  1  0
 20 11  1  0
 22 23  2  0
 23 42  1  0
 24 23  1  0
 24 27  1  0
 25 22  1  0
 25 26  1  0
 26 24  2  0
 27 28  1  0
 28 29  2  0
 30 33  1  0
 30 29  1  0
 31 30  2  0
 32 31  1  0
 32 27  2  0
 33 34  1  0
 34 35  1  0
 35 36  2  0
 37 36  1  0
 37 41  1  0
 38 37  2  0
 39 34  2  0
 39 38  1  0
 40 39  1  0
 42 43  1  0
 43 46  1  0
 43 45  1  0
 44 42  2  0
 47 48  1  0
 47 22  1  0
 49 47  1  0
 50  4  1  0
 50 51  1  0
 52 63  2  0
 53 51  1  0
 53 58  1  0
 54 62  1  0
 54 64  1  0
 55 61  1  0
 55 57  1  0
 56 62  1  0
 57 56  1  0
 58 57  2  0
 59 60  1  0
 59 53  2  0
 60 55  2  0
 61 54  1  0
 62 52  1  0
 64 66  2  0
 65 64  1  0
 67 65  1  0
 68 77  2  0
 68 73  1  0
 69 65  1  0
 69 73  1  0
 70 69  1  0
 71 72  1  0
 71 70  1  0
 72 68  1  0
 73 74  2  0
 74 75  1  0
 76 75  2  0
 77 76  1  0
 78 52  1  0
 78 83  1  0
 78 79  1  0
 79 82  1  1
 79 80  1  0
 81 79  1  0
 83 86  1  0
 84 88  1  0
 84 83  1  0
 85 84  2  0
 88 87  1  0
 90 88  1  0
 90 91  1  0
 90 89  1  0
M  ISO  4  12 100  20 100  50 101  51 101
M  END
>  <TORSDO>  (54) 
F 20

>  <SCORE>  (54) 
-13.878

>  <name>  (54) 
53

>  <ligand_id>  (54) 
53

>  <original_smiles>  (54) 
[H]c1c([H])c([H])c2c(c1[H])C([H])([H])C([H])([H])C([H])([H])C2([H])N([H])C(=O)C1([H])N(C(=O)C([H])(N([H])C(=O)C([H])(N([H])C([H])([H])[H])C([H])([H])[H])C(C([H])([H])[H])(C([H])([H])[H])C([H])([H])[H])C([H])([H])c2c([H])c(OC([H])([H])c3c([H])c([H])c(N([H])C([H])([H])C([H])([H])N([H])C(=O)N4C([H])([H])C([H])([H])C([H])([H])C([H])(n5nc(-c6c([H])c([H])c(Oc7c([H])c([H])c(F)c([H])c7F)c([H])c6[H])c(C(=O)N([H])[H])c5N([H])[H])C4([H])[H])c([H])c3C([H])([H])[H])c([H])c([H])c2C1([H])[H]

>  <smiles>  (54) 
[H]c1c([H])c([H])c2c(c1[H])C([H])([H])C([H])([H])C([H])([H])C2([H])N([H])C(=O)C1([H])N(C(=O)C([H])(N([H])C(=O)C([H])(N([H])C([H])([H])[H])C([H])([H])[H])C(C([H])([H])[H])(C([H])([H])[H])C([H])([H])[H])C([H])([H])c2c([H])c(OC([H])([H])c3c([H])c([H])c(N([H])C([H])([H])C([H])([H])N([H])C(=O)N4C([H])([H])C([H])([H])C([H])([H])C([H])(n5nc(-c6c([H])c([H])c(Oc7c([H])c([H])c(F)c([H])c7F)c([H])c6[H])c(C(=O)N([H])[H])c5N([H])[H])C4([H])[H])c([H])c3C([H])([H])[H])c([H])c([H])c2C1([H])[H]

$$$$
54:0:0
     RDKit          3D

 97106  0  0  1  0  0  0  0  0999 V2000
  -28.2560  -19.7070   20.7640 C   0  0  0  0  0  3  0  0  0  0  0  0
  -28.9480  -20.8750   21.1110 C   0  0  0  0  0  3  0  0  0  0  0  0
  -28.9230  -18.5030   20.4180 C   0  0  0  0  0  0  0  0  0  0  0  0
  -30.3570  -18.4820   20.4780 C   0  0  0  0  0  0  0  0  0  0  0  0
  -30.3430  -20.8650   21.1180 C   0  0  0  0  0  0  0  0  0  0  0  0
  -31.0120  -19.6790   20.8050 N   0  0  0  0  0  0  0  0  0  0  0  0
  -26.6570  -17.3580   20.7380 C   0  0  0  0  0  2  0  0  0  0  0  0
  -27.7920  -17.2070   18.4950 C   0  0  0  0  0  2  0  0  0  0  0  0
  -25.7450  -16.1830   20.3190 C   0  0  0  0  0  3  0  0  0  0  0  0
  -26.9080  -15.9930   18.1480 C   0  0  0  0  0  2  0  0  0  0  0  0
  -28.0230  -17.3180   20.0220 C   0  0  0  0  0  3  0  0  0  0  0  0
  -25.6090  -16.0810   18.8480 N   0  0  0  0  0  4  0  0  0  0  0  0
  -25.0930  -16.8750   18.5030 H   0  0  0  0  0  0  0  0  0  0  0  0
  -25.0640  -15.2630   18.6250 H   0  0  0  0  0  0  0  0  0  0  0  0
  -31.2620  -17.1540   20.2770 C   0  0  0  0  0  2  0  0  0  0  0  0
  -31.7750  -14.6360   20.9280 C   0  0  0  0  0  0  0  0  0  0  0  0
  -31.8170  -12.1720   20.4710 C   0  0  0  0  0  2  0  0  0  0  0  0
  -31.0750  -11.8850   19.1470 C   0  0  0  0  0  2  0  0  0  0  0  0
  -29.5650  -11.7120   19.3950 C   0  0  0  0  0  2  0  0  0  0  0  0
  -28.9780  -12.8260   20.3040 C   0  0  0  0  0  3  0  0  0  0  0  0
  -29.8560  -13.0810   21.5490 C   0  0  0  0  0  2  0  0  0  0  0  0
  -31.2120  -13.3840   21.0720 N   0  0  0  0  0  0  0  0  0  0  0  0
  -32.9890  -14.7350   20.7380 O   0  0  0  0  0  0  0  0  0  0  0  0
  -30.9410  -15.7370   20.7790 N   0  0  0  0  0  0  0  0  0  0  0  0
  -29.9600  -15.5550   20.9050 H   0  0  0  0  0  0  0  0  0  0  0  0
  -26.5400  -13.4540   20.7770 C   0  0  0  0  0  0  0  0  0  0  0  0
  -25.4350  -12.7030   21.0650 C   0  0  0  0  0  0  0  0  0  0  0  0
  -25.8800  -11.3460   21.1110 C   0  0  0  0  0  0  0  0  0  0  0  0
  -27.5900  -12.5590   20.6660 N   0  0  0  0  0  0  0  0  0  0  0  0
  -27.1940  -11.2870   20.9310 N   0  0  0  0  0  0  0  0  0  0  0  0
  -25.1220  -10.0980   21.2520 C   0  0  0  0  0  0  0  0  0  0  0  0
  -25.3430   -9.2150   22.3300 C   0  0  0  0  0  3  0  0  0  0  0  0
  -24.5850   -8.0310   22.4540 C   0  0  0  0  0  3  0  0  0  0  0  0
  -23.5920   -7.7200   21.4930 C   0  0  0  0  0  0  0  0  0  0  0  0
  -23.3960   -8.5900   20.4070 C   0  0  0  0  0  3  0  0  0  0  0  0
  -24.1540   -9.7660   20.2840 C   0  0  0  0  0  3  0  0  0  0  0  0
  -22.8240   -6.5820   21.5170 O   0  0  0  0  0  0  0  0  0  0  0  0
  -22.3400   -6.0640   22.6920 C   0  0  0  0  0  0  0  0  0  0  0  0
  -21.5360   -6.8260   23.5670 C   0  0  0  0  0  3  0  0  0  0  0  0
  -21.0040   -6.2340   24.7300 C   0  0  0  0  0  3  0  0  0  0  0  0
  -21.2650   -4.8800   25.0140 C   0  0  0  0  0  0  0  0  0  0  0  0
  -22.0620   -4.1180   24.1420 C   0  0  0  0  0  3  0  0  0  0  0  0
  -22.5970   -4.7090   22.9830 C   0  0  0  0  0  0  0  0  0  0  0  0
  -23.3450   -3.9650   22.1340 F   0  0  0  0  0  0  0  0  0  0  0  0
  -20.7480   -4.3080   26.1260 F   0  0  0  0  0  0  0  0  0  0  0  0
  -24.0280  -13.2070   21.1910 C   0  0  0  0  0  0  0  0  0  0  0  0
  -23.2350  -12.5880   22.0570 N   0  0  0  0  0  0  0  0  0  0  0  0
  -23.6430  -14.1910   20.5610 O   0  0  0  0  0  0  0  0  0  0  0  0
  -23.5710  -11.8110   22.6050 H   0  0  0  0  0  0  0  0  0  0  0  0
  -22.2940  -12.9250   22.2030 H   0  0  0  0  0  0  0  0  0  0  0  0
  -26.7380  -14.8150   20.5760 N   0  0  0  0  0  2  0  0  0  0  0  0
  -25.9390  -15.4340   20.4810 H   0  0  0  0  0  0  0  0  0  0  0  0
  -27.5800  -15.2000   20.1750 H   0  0  0  0  0  0  0  0  0  0  0  0
  -31.0740  -22.0640   21.3630 O   0  0  0  0  0  0  0  0  0  0  0  0
  -30.4860  -23.3110   21.9750 C   0  0  0  0  0  2  0  0  0  0  0  0
  -29.9030  -24.5490   21.0920 C   0  0  0  0  0  2  0  0  0  0  0  0
  -29.9060  -25.9930   21.5550 O   0  0  0  0  0  0  0  0  0  0  0  0
  -25.4270  -31.2540   23.8310 C   0  0  0  0  0  0  0  0  0  0  0  0
  -28.7930  -26.8370   21.2830 C   0  0  0  0  0  0  0  0  0  0  0  0
  -24.6210  -29.8210   21.9890 C   0  0  0  0  0  3  0  0  0  0  0  0
  -26.3900  -28.3650   20.8430 C   0  0  0  0  0  0  0  0  0  0  0  0
  -27.1340  -30.2630   22.2770 C   0  0  0  0  0  2  0  0  0  0  0  0
  -27.4080  -28.8960   21.6460 C   0  0  0  0  0  0  0  0  0  0  0  0
  -28.6120  -28.1460   21.8520 C   0  0  0  0  0  3  0  0  0  0  0  0
  -27.7560  -26.3830   20.4360 C   0  0  0  0  0  3  0  0  0  0  0  0
  -26.5730  -27.1180   20.2260 C   0  0  0  0  0  3  0  0  0  0  0  0
  -25.1230  -29.1790   20.6690 C   0  0  0  0  0  2  0  0  0  0  0  0
  -25.7340  -30.4670   22.7580 N   0  0  0  0  0  0  0  0  0  0  0  0
  -24.2500  -31.4650   24.1610 O   0  0  0  0  0  0  0  0  0  0  0  0
  -23.8460  -28.7600   22.8080 C   0  0  0  0  0  0  0  0  0  0  0  0
  -22.5980  -28.4670   22.4000 N   0  0  0  0  0  0  0  0  0  0  0  0
  -24.3750  -28.2020   23.7720 O   0  0  0  0  0  0  0  0  0  0  0  0
  -22.2240  -28.9800   21.6140 H   0  0  0  0  0  0  0  0  0  0  0  0
  -19.2810  -27.0280   22.2310 C   0  0  0  0  0  0  0  0  0  0  0  0
  -21.7120  -27.4650   22.9970 C   0  0  0  0  0  3  0  0  0  0  0  0
  -22.0260  -26.0500   22.4550 C   0  0  0  0  0  2  0  0  0  0  0  0
  -21.1710  -25.6630   21.2440 C   0  0  0  0  0  2  0  0  0  0  0  0
  -19.6840  -25.7030   21.6040 C   0  0  0  0  0  2  0  0  0  0  0  0
  -20.2360  -27.8630   22.8700 C   0  0  0  0  0  0  0  0  0  0  0  0
  -19.8150  -29.0980   23.4060 C   0  0  0  0  0  3  0  0  0  0  0  0
  -18.4710  -29.5040   23.3110 C   0  0  0  0  0  3  0  0  0  0  0  0
  -17.5270  -28.6690   22.6890 C   0  0  0  0  0  3  0  0  0  0  0  0
  -17.9320  -27.4320   22.1570 C   0  0  0  0  0  3  0  0  0  0  0  0
  -26.5360  -31.9460   24.6840 C   0  0  0  0  0  3  0  0  0  0  0  0
  -26.1580  -33.3570   24.8510 N   0  0  0  0  0  0  0  0  0  0  0  0
  -26.6510  -34.3700   24.1270 C   0  0  0  0  0  0  0  0  0  0  0  0
  -27.5350  -34.2170   23.2790 O   0  0  0  0  0  0  0  0  0  0  0  0
  -25.4030  -33.5480   25.4930 H   0  0  0  0  0  0  0  0  0  0  0  0
  -25.0540  -36.1200   23.2840 C   0  0  0  0  0  1  0  0  0  0  0  0
  -26.0740  -35.7750   24.3810 C   0  0  0  0  0  3  0  0  0  0  0  0
  -27.9550  -36.7370   25.6340 C   0  0  0  0  0  1  0  0  0  0  0  0
  -27.1050  -36.8340   24.4500 N   0  0  0  0  0  0  0  0  0  0  0  0
  -26.6760  -37.7560   24.4400 H   0  0  0  0  0  0  0  0  0  0  0  0
  -26.7570  -31.2610   26.0880 C   0  0  1  0  0  0  0  0  0  0  0  0
  -25.4530  -31.0410   26.8890 C   0  0  0  0  0  1  0  0  0  0  0  0
  -27.4420  -29.8840   25.9230 C   0  0  0  0  0  1  0  0  0  0  0  0
  -27.7040  -32.1270   26.9510 C   0  0  0  0  0  1  0  0  0  0  0  0
  1  2  2  0
  2  5  1  0
  3  4  2  0
  3  1  1  0
  4  6  1  0
  5 54  1  0
  6  5  2  0
  8 11  1  0
  9 52  1  0
  9  7  1  0
 10  8  1  0
 10 12  1  0
 11  3  1  0
 11  7  1  0
 12  9  1  0
 13 12  1  0
 14 12  1  0
 15  4  1  0
 15 24  1  0
 16 22  1  0
 17 22  1  0
 18 19  1  0
 18 17  1  0
 20 19  1  0
 20 29  1  0
 20 21  1  0
 22 21  1  0
 23 16  2  0
 24 25  1  0
 24 16  1  0
 26 27  2  0
 27 28  1  0
 27 46  1  0
 28 31  1  0
 29 26  1  0
 29 30  1  0
 30 28  2  0
 31 32  1  0
 32 33  2  0
 34 37  1  0
 34 33  1  0
 35 34  2  0
 36 35  1  0
 36 31  2  0
 37 38  1  0
 38 43  2  0
 38 39  1  0
 39 40  2  0
 40 41  1  0
 41 45  1  0
 42 41  2  0
 43 42  1  0
 44 43  1  0
 46 47  1  0
 47 50  1  0
 47 49  1  0
 48 46  2  0
 51 26  1  0
 53 51  1  0
 54 55  1  0
 56 57  1  0
 56 55  1  0
 58 69  2  0
 59 57  1  0
 59 64  1  0
 60 68  1  0
 60 70  1  0
 61 63  1  0
 62 68  1  0
 63 64  2  0
 63 62  1  0
 65 59  2  0
 66 65  1  0
 66 61  2  0
 67 61  1  0
 67 60  1  0
 68 58  1  0
 70 72  2  0
 71 70  1  0
 73 71  1  0
 74 79  1  0
 75 71  1  0
 76 75  1  0
 77 78  1  0
 77 76  1  0
 78 74  1  0
 79 75  1  0
 79 80  2  0
 81 80  1  0
 82 81  2  0
 83 74  2  0
 83 82  1  0
 84 58  1  0
 84 85  1  0
 84 94  1  0
 85 88  1  0
 86 90  1  0
 86 85  1  0
 87 86  2  0
 90 89  1  0
 90 92  1  0
 92 91  1  0
 93 92  1  0
 94 95  1  1
 94 97  1  0
 96 94  1  0
M  ISO  4  16 100  24 100  56 101  57 101
M  END
>  <TORSDO>  (55) 
F 21

>  <SCORE>  (55) 
-4.998

>  <name>  (55) 
54

>  <ligand_id>  (55) 
54

>  <original_smiles>  (55) 
[H]c1c(OC([H])([H])C([H])([H])Oc2c([H])c([H])c3c(c2[H])C([H])([H])N(C(=O)C([H])(N([H])C(=O)C([H])(N([H])C([H])([H])[H])C([H])([H])[H])C(C([H])([H])[H])(C([H])([H])[H])C([H])([H])[H])C([H])(C(=O)N([H])C2([H])c4c([H])c([H])c([H])c([H])c4C([H])([H])C([H])([H])C2([H])[H])C3([H])[H])nc(C([H])([H])N([H])C(=O)N2C([H])([H])C([H])([H])C([H])([H])C([H])(n3nc(-c4c([H])c([H])c(Oc5c([H])c([H])c(F)c([H])c5F)c([H])c4[H])c(C(=O)N([H])[H])c3N([H])[H])C2([H])[H])c(C2([H])C([H])([H])C([H])([H])[N+]([H])([H])C([H])([H])C2([H])[H])c1[H]

>  <smiles>  (55) 
[H]c1c(OC([H])([H])C([H])([H])Oc2c([H])c([H])c3c(c2[H])C([H])([H])N(C(=O)C([H])(N([H])C(=O)C([H])(N([H])C([H])([H])[H])C([H])([H])[H])C(C([H])([H])[H])(C([H])([H])[H])C([H])([H])[H])C([H])(C(=O)N([H])C2([H])c4c([H])c([H])c([H])c([H])c4C([H])([H])C([H])([H])C2([H])[H])C3([H])[H])nc(C([H])([H])N([H])C(=O)N2C([H])([H])C([H])([H])C([H])([H])C([H])(n3nc(-c4c([H])c([H])c(Oc5c([H])c([H])c(F)c([H])c5F)c([H])c4[H])c(C(=O)N([H])[H])c3N([H])[H])C2([H])[H])c(C2([H])C([H])([H])C([H])([H])[N+]([H])([H])C([H])([H])C2([H])[H])c1[H]

$$$$
55:0:0
     RDKit          3D

 95103  0  0  1  0  0  0  0  0999 V2000
  -31.1750  -22.8560   20.9650 C   0  0  0  0  0  2  0  0  0  0  0  0
  -30.5460  -24.2690   20.9640 C   0  0  0  0  0  2  0  0  0  0  0  0
  -30.0210  -21.8670   20.6870 C   0  0  0  0  0  3  0  0  0  0  0  0
  -29.0430  -24.0010   20.8900 C   0  0  0  0  0  3  0  0  0  0  0  0
  -29.0450  -22.7790   20.0460 N   0  0  0  0  0  0  0  0  0  0  0  0
  -30.4100  -20.5560   19.8880 C   0  0  0  0  0  2  0  0  0  0  0  0
  -30.7820  -19.3920   20.7610 N   0  0  0  0  0  4  0  0  0  0  0  0
  -30.3640  -19.5340   21.6640 H   0  0  0  0  0  0  0  0  0  0  0  0
  -31.7820  -19.4130   20.8900 H   0  0  0  0  0  0  0  0  0  0  0  0
  -30.4010  -18.0090   20.3110 C   0  0  0  0  0  2  0  0  0  0  0  0
  -30.5340  -16.9400   21.4540 C   0  0  0  0  0  2  0  0  0  0  0  0
  -30.6640  -14.5400   20.5820 C   0  0  0  0  0  0  0  0  0  0  0  0
  -30.3680  -12.3730   19.4270 C   0  0  0  0  0  2  0  0  0  0  0  0
  -29.4340  -12.5330   18.2080 C   0  0  0  0  0  2  0  0  0  0  0  0
  -27.9630  -12.3690   18.6320 C   0  0  0  0  0  2  0  0  0  0  0  0
  -27.5980  -13.2380   19.8650 C   0  0  0  0  0  3  0  0  0  0  0  0
  -28.6430  -13.0680   20.9960 C   0  0  0  0  0  2  0  0  0  0  0  0
  -29.9740  -13.3720   20.4390 N   0  0  0  0  0  0  0  0  0  0  0  0
  -31.7870  -14.7130   20.1030 O   0  0  0  0  0  0  0  0  0  0  0  0
  -30.0200  -15.5670   21.1840 N   0  0  0  0  0  0  0  0  0  0  0  0
  -29.1230  -15.3340   21.5890 H   0  0  0  0  0  0  0  0  0  0  0  0
  -25.1780  -13.8390   20.5020 C   0  0  0  0  0  0  0  0  0  0  0  0
  -24.1070  -13.0660   20.8660 C   0  0  0  0  0  0  0  0  0  0  0  0
  -24.5740  -11.7150   20.8640 C   0  0  0  0  0  0  0  0  0  0  0  0
  -26.2330  -12.9620   20.3190 N   0  0  0  0  0  0  0  0  0  0  0  0
  -25.8720  -11.6800   20.5910 N   0  0  0  0  0  0  0  0  0  0  0  0
  -23.8490  -10.4510   21.0540 C   0  0  0  0  0  0  0  0  0  0  0  0
  -24.2760   -9.4930   21.9980 C   0  0  0  0  0  3  0  0  0  0  0  0
  -23.5540   -8.2920   22.1760 C   0  0  0  0  0  3  0  0  0  0  0  0
  -22.3900   -8.0440   21.4120 C   0  0  0  0  0  0  0  0  0  0  0  0
  -21.9800   -8.9930   20.4600 C   0  0  0  0  0  3  0  0  0  0  0  0
  -22.7040  -10.1840   20.2790 C   0  0  0  0  0  3  0  0  0  0  0  0
  -21.6380   -6.8990   21.5010 O   0  0  0  0  0  0  0  0  0  0  0  0
  -21.5910   -6.1550   22.6540 C   0  0  0  0  0  0  0  0  0  0  0  0
  -21.1770   -6.7110   23.8840 C   0  0  0  0  0  3  0  0  0  0  0  0
  -21.0810   -5.8960   25.0310 C   0  0  0  0  0  3  0  0  0  0  0  0
  -21.3850   -4.5240   24.9490 C   0  0  0  0  0  0  0  0  0  0  0  0
  -21.7950   -3.9660   23.7240 C   0  0  0  0  0  3  0  0  0  0  0  0
  -21.8940   -4.7790   22.5780 C   0  0  0  0  0  0  0  0  0  0  0  0
  -22.2670   -4.2300   21.3970 F   0  0  0  0  0  0  0  0  0  0  0  0
  -21.2860   -3.7390   26.0470 F   0  0  0  0  0  0  0  0  0  0  0  0
  -22.7010  -13.5360   21.1040 C   0  0  0  0  0  0  0  0  0  0  0  0
  -21.9630  -12.8450   21.9660 N   0  0  0  0  0  0  0  0  0  0  0  0
  -22.2660  -14.5510   20.5610 O   0  0  0  0  0  0  0  0  0  0  0  0
  -22.3220  -12.0170   22.4180 H   0  0  0  0  0  0  0  0  0  0  0  0
  -21.0180  -13.1440   22.1770 H   0  0  0  0  0  0  0  0  0  0  0  0
  -25.3410  -15.2080   20.2930 N   0  0  0  0  0  0  0  0  0  0  0  0
  -24.5680  -15.8660   20.3310 H   0  0  0  0  0  0  0  0  0  0  0  0
  -26.1960  -15.6230   19.9400 H   0  0  0  0  0  0  0  0  0  0  0  0
  -28.0160  -25.1350   20.4690 C   0  0  0  0  0  2  0  0  0  0  0  0
  -28.3180  -26.5630   20.4230 O   0  0  0  0  0  0  0  0  0  0  0  0
  -24.5310  -31.9010   23.2710 C   0  0  0  0  0  0  0  0  0  0  0  0
  -27.1960  -27.3810   20.2830 C   0  0  0  0  0  0  0  0  0  0  0  0
  -23.3450  -30.4790   21.6360 C   0  0  0  0  0  3  0  0  0  0  0  0
  -24.8140  -28.9500   20.2190 C   0  0  0  0  0  0  0  0  0  0  0  0
  -25.8780  -30.8330   21.4580 C   0  0  0  0  0  2  0  0  0  0  0  0
  -25.9750  -29.4570   20.8190 C   0  0  0  0  0  0  0  0  0  0  0  0
  -27.1680  -28.6900   20.8380 C   0  0  0  0  0  3  0  0  0  0  0  0
  -26.0160  -26.9220   19.6430 C   0  0  0  0  0  3  0  0  0  0  0  0
  -24.8370  -27.6850   19.6200 C   0  0  0  0  0  3  0  0  0  0  0  0
  -23.5680  -29.8080   20.2590 C   0  0  0  0  0  2  0  0  0  0  0  0
  -24.6040  -31.0810   22.1800 N   0  0  0  0  0  0  0  0  0  0  0  0
  -23.4430  -32.1830   23.7910 O   0  0  0  0  0  0  0  0  0  0  0  0
  -22.6840  -29.4650   22.5980 C   0  0  0  0  0  0  0  0  0  0  0  0
  -21.3640  -29.2770   22.4520 N   0  0  0  0  0  0  0  0  0  0  0  0
  -23.3570  -28.8460   23.4290 O   0  0  0  0  0  0  0  0  0  0  0  0
  -20.8890  -29.8350   21.7570 H   0  0  0  0  0  0  0  0  0  0  0  0
  -17.9840  -28.0680   22.8990 C   0  0  0  0  0  0  0  0  0  0  0  0
  -20.5320  -28.3470   23.2190 C   0  0  0  0  0  3  0  0  0  0  0  0
  -20.6550  -26.9060   22.6700 C   0  0  0  0  0  2  0  0  0  0  0  0
  -19.5790  -26.5640   21.6360 C   0  0  0  0  0  2  0  0  0  0  0  0
  -18.1810  -26.7080   22.2500 C   0  0  0  0  0  2  0  0  0  0  0  0
  -19.0880  -28.8440   23.3360 C   0  0  0  0  0  0  0  0  0  0  0  0
  -18.8530  -30.1150   23.9020 C   0  0  0  0  0  3  0  0  0  0  0  0
  -17.5440  -30.6150   24.0290 C   0  0  0  0  0  3  0  0  0  0  0  0
  -16.4510  -29.8360   23.6090 C   0  0  0  0  0  3  0  0  0  0  0  0
  -16.6720  -28.5630   23.0500 C   0  0  0  0  0  3  0  0  0  0  0  0
  -25.8090  -32.5380   23.8960 C   0  0  0  0  0  3  0  0  0  0  0  0
  -25.4960  -33.9390   24.2050 N   0  0  0  0  0  0  0  0  0  0  0  0
  -25.8440  -34.9850   23.4430 C   0  0  0  0  0  0  0  0  0  0  0  0
  -26.5320  -34.8710   22.4260 O   0  0  0  0  0  0  0  0  0  0  0  0
  -24.8640  -34.0940   24.9750 H   0  0  0  0  0  0  0  0  0  0  0  0
  -24.1250  -36.7770   23.0490 C   0  0  0  0  0  1  0  0  0  0  0  0
  -25.3550  -36.3780   23.8770 C   0  0  0  0  0  3  0  0  0  0  0  0
  -27.4870  -37.2610   24.7220 C   0  0  0  0  0  1  0  0  0  0  0  0
  -26.3980  -37.4250   23.7630 N   0  0  0  0  0  0  0  0  0  0  0  0
  -25.9990  -38.3520   23.8960 H   0  0  0  0  0  0  0  0  0  0  0  0
  -26.3160  -31.7780   25.1810 C   0  0  1  0  0  0  0  0  0  0  0  0
  -25.2160  -31.5430   26.2450 C   0  0  0  0  0  1  0  0  0  0  0  0
  -26.9070  -30.4020   24.7950 C   0  0  0  0  0  1  0  0  0  0  0  0
  -27.4600  -32.5780   25.8470 C   0  0  0  0  0  1  0  0  0  0  0  0
  -27.7160  -22.2060   19.8210 C   0  0  0  0  0  2  0  0  0  0  0  0
  -28.0680  -21.4430   17.3850 C   0  0  0  0  0  1  0  0  0  0  0  0
  -25.7860  -22.3520   18.2080 C   0  0  0  0  0  1  0  0  0  0  0  0
  -27.3220  -22.4010   18.3360 C   0  0  0  0  0  3  0  0  0  0  0  0
  2  1  1  0
  3  6  1  0
  3  1  1  0
  4 50  1  0
  4  2  1  0
  5  3  1  0
  5  4  1  0
  6  7  1  0
  7  9  1  0
  7  8  1  0
 10  7  1  0
 10 11  1  0
 12 20  1  0
 13 18  1  0
 14 15  1  0
 14 13  1  0
 16 15  1  0
 16 25  1  0
 16 17  1  0
 18 12  1  0
 18 17  1  0
 19 12  2  0
 20 11  1  0
 20 21  1  0
 22 23  2  0
 23 42  1  0
 24 23  1  0
 24 27  1  0
 25 22  1  0
 25 26  1  0
 26 24  2  0
 27 28  1  0
 28 29  2  0
 30 33  1  0
 30 29  1  0
 31 30  2  0
 32 31  1  0
 32 27  2  0
 33 34  1  0
 34 35  1  0
 35 36  2  0
 37 36  1  0
 37 41  1  0
 38 37  2  0
 39 34  2  0
 39 38  1  0
 40 39  1  0
 42 43  1  0
 43 46  1  0
 43 45  1  0
 44 42  2  0
 47 48  1  0
 47 22  1  0
 49 47  1  0
 51 50  1  0
 52 63  2  0
 53 51  1  0
 53 58  1  0
 54 62  1  0
 54 64  1  0
 55 61  1  0
 55 57  1  0
 56 62  1  0
 57 58  2  0
 57 56  1  0
 59 53  2  0
 60 59  1  0
 60 55  2  0
 61 54  1  0
 62 52  1  0
 64 66  2  0
 65 64  1  0
 67 65  1  0
 68 77  2  0
 68 73  1  0
 69 65  1  0
 69 73  1  0
 70 69  1  0
 71 72  1  0
 71 70  1  0
 72 68  1  0
 73 74  2  0
 74 75  1  0
 76 75  2  0
 77 76  1  0
 78 52  1  0
 78 79  1  0
 78 88  1  0
 79 82  1  0
 80 84  1  0
 80 79  1  0
 81 80  2  0
 84 83  1  0
 86 84  1  0
 86 87  1  0
 86 85  1  0
 88 91  1  1
 88 89  1  0
 90 88  1  0
 92  5  1  0
 93 95  1  0
 94 95  1  0
 95 92  1  0
M  ISO  4  12 100  20 100  50 101  51 101
M  END
>  <TORSDO>  (56) 
F 23

>  <SCORE>  (56) 
-12.930

>  <name>  (56) 
55

>  <ligand_id>  (56) 
55

>  <original_smiles>  (56) 
[H]c1c([H])c([H])c2c(c1[H])C([H])([H])C([H])([H])C([H])([H])C2([H])N([H])C(=O)C1([H])N(C(=O)C([H])(N([H])C(=O)C([H])(N([H])C([H])([H])[H])C([H])([H])[H])C(C([H])([H])[H])(C([H])([H])[H])C([H])([H])[H])C([H])([H])c2c([H])c(OC([H])([H])C3([H])N(C([H])([H])C([H])(C([H])([H])[H])C([H])([H])[H])C([H])(C([H])([H])[N+]([H])([H])C([H])([H])C([H])([H])N([H])C(=O)N4C([H])([H])C([H])([H])C([H])([H])C([H])(n5nc(-c6c([H])c([H])c(Oc7c([H])c([H])c(F)c([H])c7F)c([H])c6[H])c(C(=O)N([H])[H])c5N([H])[H])C4([H])[H])C([H])([H])C3([H])[H])c([H])c([H])c2C1([H])[H]

>  <smiles>  (56) 
[H]c1c([H])c([H])c2c(c1[H])C([H])([H])C([H])([H])C([H])([H])C2([H])N([H])C(=O)C1([H])N(C(=O)C([H])(N([H])C(=O)C([H])(N([H])C([H])([H])[H])C([H])([H])[H])C(C([H])([H])[H])(C([H])([H])[H])C([H])([H])[H])C([H])([H])c2c([H])c(OC([H])([H])C3([H])N(C([H])([H])C([H])(C([H])([H])[H])C([H])([H])[H])C([H])(C([H])([H])[N+]([H])([H])C([H])([H])C([H])([H])N([H])C(=O)N4C([H])([H])C([H])([H])C([H])([H])C([H])(n5nc(-c6c([H])c([H])c(Oc7c([H])c([H])c(F)c([H])c7F)c([H])c6[H])c(C(=O)N([H])[H])c5N([H])[H])C4([H])[H])C([H])([H])C3([H])[H])c([H])c([H])c2C1([H])[H]

$$$$
56:0:0
     RDKit          3D

 87 95  0  0  1  0  0  0  0  0999 V2000
  -30.1450  -20.5220   19.4660 C   0  0  0  0  0  3  0  0  0  0  0  0
  -28.2500  -20.3140   20.7540 C   0  0  0  0  0  3  0  0  0  0  0  0
  -30.3540  -19.0480   19.4910 C   0  0  0  0  0  3  0  0  0  0  0  0
  -28.4500  -18.8430   20.7680 C   0  0  0  0  0  3  0  0  0  0  0  0
  -29.0780  -21.3060   20.0880 C   0  0  0  0  0  0  0  0  0  0  0  0
  -29.5210  -18.0610   20.1570 C   0  0  0  0  0  0  0  0  0  0  0  0
  -30.4010  -15.2820   19.8810 C   0  0  0  0  0  0  0  0  0  0  0  0
  -30.3280  -12.8670   18.9610 C   0  0  0  0  0  2  0  0  0  0  0  0
  -29.3220  -12.7380   17.7870 C   0  0  0  0  0  2  0  0  0  0  0  0
  -27.8970  -12.4820   18.3100 C   0  0  0  0  0  2  0  0  0  0  0  0
  -27.5420  -13.4090   19.5010 C   0  0  0  0  0  3  0  0  0  0  0  0
  -28.6630  -13.4760   20.5600 C   0  0  0  0  0  2  0  0  0  0  0  0
  -29.8680  -13.9700   19.8740 N   0  0  0  0  0  0  0  0  0  0  0  0
  -31.5720  -15.3550   19.4830 O   0  0  0  0  0  0  0  0  0  0  0  0
  -29.5840  -16.4570   20.2070 N   0  0  0  0  0  0  0  0  0  0  0  0
  -28.7340  -16.0980   20.6130 H   0  0  0  0  0  0  0  0  0  0  0  0
  -25.2340  -13.9690   20.4290 C   0  0  0  0  0  0  0  0  0  0  0  0
  -24.1940  -13.1910   20.8530 C   0  0  0  0  0  0  0  0  0  0  0  0
  -24.6440  -11.8380   20.7500 C   0  0  0  0  0  0  0  0  0  0  0  0
  -26.2480  -13.0930   20.0870 N   0  0  0  0  0  0  0  0  0  0  0  0
  -25.9100  -11.8020   20.3450 N   0  0  0  0  0  0  0  0  0  0  0  0
  -23.9210  -10.5760   20.9570 C   0  0  0  0  0  0  0  0  0  0  0  0
  -24.3890   -9.5930   21.8570 C   0  0  0  0  0  3  0  0  0  0  0  0
  -23.6630   -8.3980   22.0530 C   0  0  0  0  0  3  0  0  0  0  0  0
  -22.4540   -8.1780   21.3500 C   0  0  0  0  0  0  0  0  0  0  0  0
  -22.0060   -9.1500   20.4380 C   0  0  0  0  0  3  0  0  0  0  0  0
  -22.7330  -10.3360   20.2400 C   0  0  0  0  0  3  0  0  0  0  0  0
  -21.6960   -7.0380   21.4580 O   0  0  0  0  0  0  0  0  0  0  0  0
  -21.6720   -6.2950   22.6110 C   0  0  0  0  0  0  0  0  0  0  0  0
  -21.2440   -6.8410   23.8410 C   0  0  0  0  0  3  0  0  0  0  0  0
  -21.1710   -6.0230   24.9860 C   0  0  0  0  0  3  0  0  0  0  0  0
  -21.5130   -4.6610   24.9030 C   0  0  0  0  0  0  0  0  0  0  0  0
  -21.9320   -4.1130   23.6780 C   0  0  0  0  0  3  0  0  0  0  0  0
  -22.0090   -4.9280   22.5350 C   0  0  0  0  0  0  0  0  0  0  0  0
  -22.3940   -4.3900   21.3530 F   0  0  0  0  0  0  0  0  0  0  0  0
  -21.4350   -3.8730   26.0020 F   0  0  0  0  0  0  0  0  0  0  0  0
  -22.8240  -13.6690   21.2360 C   0  0  0  0  0  0  0  0  0  0  0  0
  -22.1570  -12.9580   22.1370 N   0  0  0  0  0  0  0  0  0  0  0  0
  -22.3600  -14.7110   20.7730 O   0  0  0  0  0  0  0  0  0  0  0  0
  -22.5500  -12.1150   22.5320 H   0  0  0  0  0  0  0  0  0  0  0  0
  -21.2410  -13.2590   22.4400 H   0  0  0  0  0  0  0  0  0  0  0  0
  -25.3970  -15.3440   20.2780 N   0  0  0  0  0  0  0  0  0  0  0  0
  -24.6420  -15.9990   20.4520 H   0  0  0  0  0  0  0  0  0  0  0  0
  -26.2130  -15.7820   19.8750 H   0  0  0  0  0  0  0  0  0  0  0  0
  -29.0670  -23.0380   20.2600 C   0  0  0  0  0  3  0  0  0  0  0  0
  -28.0290  -24.4150   19.8500 C   0  0  0  0  0  3  0  0  0  0  0  0
  -28.2340  -26.0170   20.0780 O   0  0  0  0  0  0  0  0  0  0  0  0
  -24.6030  -31.8040   23.1570 C   0  0  0  0  0  0  0  0  0  0  0  0
  -27.2040  -27.0750   20.0200 C   0  0  0  0  0  0  0  0  0  0  0  0
  -23.4220  -30.4460   21.4770 C   0  0  0  0  0  3  0  0  0  0  0  0
  -24.8860  -28.9030   20.0100 C   0  0  0  0  0  0  0  0  0  0  0  0
  -25.9820  -30.6970   21.3390 C   0  0  0  0  0  2  0  0  0  0  0  0
  -26.0650  -29.3110   20.6460 C   0  0  0  0  0  0  0  0  0  0  0  0
  -27.2200  -28.4170   20.6290 C   0  0  0  0  0  3  0  0  0  0  0  0
  -26.0000  -26.8070   19.3340 C   0  0  0  0  0  3  0  0  0  0  0  0
  -24.8760  -27.6730   19.3330 C   0  0  0  0  0  3  0  0  0  0  0  0
  -23.6590  -29.8090   20.0800 C   0  0  0  0  0  2  0  0  0  0  0  0
  -24.6900  -31.0080   22.0450 N   0  0  0  0  0  0  0  0  0  0  0  0
  -23.5110  -32.0670   23.6870 O   0  0  0  0  0  0  0  0  0  0  0  0
  -22.7370  -29.4140   22.4120 C   0  0  0  0  0  0  0  0  0  0  0  0
  -21.4060  -29.2590   22.2980 N   0  0  0  0  0  0  0  0  0  0  0  0
  -23.4110  -28.7540   23.2070 O   0  0  0  0  0  0  0  0  0  0  0  0
  -20.9130  -29.8520   21.6430 H   0  0  0  0  0  0  0  0  0  0  0  0
  -18.0240  -28.0570   22.8340 C   0  0  0  0  0  0  0  0  0  0  0  0
  -20.5910  -28.2900   23.0390 C   0  0  0  0  0  3  0  0  0  0  0  0
  -20.6650  -26.8880   22.3900 C   0  0  0  0  0  2  0  0  0  0  0  0
  -19.5270  -26.6190   21.3990 C   0  0  0  0  0  2  0  0  0  0  0  0
  -18.1710  -26.7360   22.0990 C   0  0  0  0  0  2  0  0  0  0  0  0
  -19.1590  -28.7950   23.2640 C   0  0  0  0  0  0  0  0  0  0  0  0
  -18.9640  -30.0290   23.9200 C   0  0  0  0  0  3  0  0  0  0  0  0
  -17.6680  -30.5300   24.1420 C   0  0  0  0  0  3  0  0  0  0  0  0
  -16.5470  -29.7920   23.7240 C   0  0  0  0  0  3  0  0  0  0  0  0
  -16.7260  -28.5550   23.0780 C   0  0  0  0  0  3  0  0  0  0  0  0
  -25.8680  -32.4380   23.8100 C   0  0  0  0  0  3  0  0  0  0  0  0
  -25.5480  -33.8360   24.1520 N   0  0  0  0  0  0  0  0  0  0  0  0
  -25.8710  -34.9000   23.4070 C   0  0  0  0  0  0  0  0  0  0  0  0
  -26.5320  -34.8090   22.3670 O   0  0  0  0  0  0  0  0  0  0  0  0
  -24.9600  -33.9780   24.9600 H   0  0  0  0  0  0  0  0  0  0  0  0
  -24.1270  -36.6900   23.1080 C   0  0  0  0  0  1  0  0  0  0  0  0
  -25.3890  -36.2850   23.8860 C   0  0  0  0  0  3  0  0  0  0  0  0
  -27.5330  -37.1870   24.6800 C   0  0  0  0  0  1  0  0  0  0  0  0
  -26.4130  -37.3450   23.7530 N   0  0  0  0  0  0  0  0  0  0  0  0
  -26.0050  -38.2630   23.9060 H   0  0  0  0  0  0  0  0  0  0  0  0
  -26.3600  -31.6610   25.0940 C   0  0  1  0  0  0  0  0  0  0  0  0
  -25.2470  -31.4190   26.1400 C   0  0  0  0  0  1  0  0  0  0  0  0
  -26.9490  -30.2830   24.7150 C   0  0  0  0  0  1  0  0  0  0  0  0
  -27.5000  -32.4500   25.7790 C   0  0  0  0  0  1  0  0  0  0  0  0
  1  3  2  0
  1  5  1  0
  2  4  1  0
  3  6  1  0
  5 45  1  0
  5  2  2  0
  6 15  1  0
  6  4  2  0
  7 15  1  0
  8 13  1  0
  9 10  1  0
  9  8  1  0
 11 10  1  0
 11 20  1  0
 11 12  1  0
 13  7  1  0
 13 12  1  0
 14  7  2  0
 15 16  1  0
 17 18  2  0
 18 37  1  0
 19 18  1  0
 19 22  1  0
 20 21  1  0
 20 17  1  0
 21 19  2  0
 22 23  1  0
 23 24  2  0
 25 28  1  0
 25 24  1  0
 26 25  2  0
 27 26  1  0
 27 22  2  0
 28 29  1  0
 29 30  1  0
 30 31  2  0
 32 31  1  0
 32 36  1  0
 33 32  2  0
 34 29  2  0
 34 33  1  0
 35 34  1  0
 37 38  1  0
 38 41  1  0
 38 40  1  0
 39 37  2  0
 42 17  1  0
 42 43  1  0
 44 42  1  0
 46 47  1  0
 46 45  2  0
 48 59  2  0
 49 47  1  0
 49 54  1  0
 50 58  1  0
 50 60  1  0
 51 57  1  0
 51 53  1  0
 52 58  1  0
 53 52  1  0
 54 53  2  0
 55 49  2  0
 56 55  1  0
 56 51  2  0
 57 50  1  0
 58 48  1  0
 60 62  2  0
 61 60  1  0
 63 61  1  0
 64 73  2  0
 64 69  1  0
 65 61  1  0
 65 69  1  0
 66 65  1  0
 67 68  1  0
 67 66  1  0
 68 64  1  0
 69 70  2  0
 70 71  1  0
 72 71  2  0
 73 72  1  0
 74 48  1  0
 74 75  1  0
 74 84  1  0
 75 78  1  0
 76 80  1  0
 76 75  1  0
 77 76  2  0
 80 79  1  0
 82 80  1  0
 82 83  1  0
 82 81  1  0
 84 87  1  1
 84 85  1  0
 86 84  1  0
M  ISO  4   7 100  15 100  46 101  47 101
M  END
>  <TORSDO>  (57) 
F 18

>  <SCORE>  (57) 
-15.173

>  <name>  (57) 
56

>  <ligand_id>  (57) 
56

>  <original_smiles>  (57) 
[H]c1c([H])c([H])c2c(c1[H])C([H])([H])C([H])([H])C([H])([H])C2([H])N([H])C(=O)C1([H])N(C(=O)C([H])(N([H])C(=O)C([H])(N([H])C([H])([H])[H])C([H])([H])[H])C(C([H])([H])[H])(C([H])([H])[H])C([H])([H])[H])C([H])([H])c2c([H])c(OC([H])([H])C([H])([H])c3c([H])c([H])c(N([H])C(=O)N4C([H])([H])C([H])([H])C([H])([H])C([H])(n5nc(-c6c([H])c([H])c(Oc7c([H])c([H])c(F)c([H])c7F)c([H])c6[H])c(C(=O)N([H])[H])c5N([H])[H])C4([H])[H])c([H])c3[H])c([H])c([H])c2C1([H])[H]

>  <smiles>  (57) 
[H]c1c([H])c([H])c2c(c1[H])C([H])([H])C([H])([H])C([H])([H])C2([H])N([H])C(=O)C1([H])N(C(=O)C([H])(N([H])C(=O)C([H])(N([H])C([H])([H])[H])C([H])([H])[H])C(C([H])([H])[H])(C([H])([H])[H])C([H])([H])[H])C([H])([H])c2c([H])c(OC([H])([H])C([H])([H])c3c([H])c([H])c(N([H])C(=O)N4C([H])([H])C([H])([H])C([H])([H])C([H])(n5nc(-c6c([H])c([H])c(Oc7c([H])c([H])c(F)c([H])c7F)c([H])c6[H])c(C(=O)N([H])[H])c5N([H])[H])C4([H])[H])c([H])c3[H])c([H])c([H])c2C1([H])[H]

$$$$
57:0:0
     RDKit          3D

 93102  0  0  1  0  0  0  0  0999 V2000
  -30.3790  -21.1590   18.8150 C   0  0  0  0  0  3  0  0  0  0  0  0
  -30.1790  -22.5490   18.4710 C   0  0  0  0  0  3  0  0  0  0  0  0
  -27.9430  -22.3970   19.2240 C   0  0  0  0  0  3  0  0  0  0  0  0
  -29.3630  -20.2860   19.3320 C   0  0  0  0  0  0  0  0  0  0  0  0
  -28.9320  -23.2330   18.6180 C   0  0  0  0  0  0  0  0  0  0  0  0
  -28.1320  -20.9980   19.5580 C   0  0  0  0  0  0  0  0  0  0  0  0
  -30.6650  -18.0050   18.7000 C   0  0  0  0  0  2  0  0  0  0  0  0
  -29.4860  -18.6620   19.3800 C   0  0  0  0  0  3  0  0  0  0  0  0
  -30.4110  -17.5270   20.1080 C   0  0  0  0  0  3  0  0  0  0  0  0
  -30.9200  -14.9100   20.1410 C   0  0  0  0  0  0  0  0  0  0  0  0
  -30.7990  -12.5620   19.2600 C   0  0  0  0  0  2  0  0  0  0  0  0
  -29.8210  -12.5060   18.0640 C   0  0  0  0  0  2  0  0  0  0  0  0
  -28.3760  -12.2890   18.5500 C   0  0  0  0  0  2  0  0  0  0  0  0
  -27.9950  -13.2230   19.7300 C   0  0  0  0  0  3  0  0  0  0  0  0
  -29.0920  -13.2600   20.8160 C   0  0  0  0  0  2  0  0  0  0  0  0
  -30.3440  -13.6530   20.1560 N   0  0  0  0  0  0  0  0  0  0  0  0
  -32.1040  -15.0230   19.8160 O   0  0  0  0  0  0  0  0  0  0  0  0
  -30.0990  -16.0400   20.2550 N   0  0  0  0  0  0  0  0  0  0  0  0
  -29.1380  -15.8270   20.4730 H   0  0  0  0  0  0  0  0  0  0  0  0
  -25.6520  -13.7640   20.6160 C   0  0  0  0  0  0  0  0  0  0  0  0
  -24.6090  -12.9700   21.0050 C   0  0  0  0  0  0  0  0  0  0  0  0
  -25.0720  -11.6230   20.8870 C   0  0  0  0  0  0  0  0  0  0  0  0
  -26.6830  -12.9020   20.2820 N   0  0  0  0  0  0  0  0  0  0  0  0
  -26.3450  -11.6060   20.5100 N   0  0  0  0  0  0  0  0  0  0  0  0
  -24.3580  -10.3500   21.0550 C   0  0  0  0  0  0  0  0  0  0  0  0
  -24.7620   -9.3970   22.0160 C   0  0  0  0  0  3  0  0  0  0  0  0
  -24.0460   -8.1900   22.1710 C   0  0  0  0  0  3  0  0  0  0  0  0
  -22.9130   -7.9280   21.3640 C   0  0  0  0  0  0  0  0  0  0  0  0
  -22.5290   -8.8700   20.3940 C   0  0  0  0  0  3  0  0  0  0  0  0
  -23.2460  -10.0680   20.2370 C   0  0  0  0  0  3  0  0  0  0  0  0
  -22.1730   -6.7710   21.4270 O   0  0  0  0  0  0  0  0  0  0  0  0
  -21.9370   -6.1320   22.6180 C   0  0  0  0  0  0  0  0  0  0  0  0
  -21.2690   -6.7690   23.6860 C   0  0  0  0  0  3  0  0  0  0  0  0
  -20.9840   -6.0530   24.8660 C   0  0  0  0  0  3  0  0  0  0  0  0
  -21.3580   -4.7000   24.9770 C   0  0  0  0  0  0  0  0  0  0  0  0
  -22.0180   -4.0620   23.9120 C   0  0  0  0  0  3  0  0  0  0  0  0
  -22.3030   -4.7760   22.7350 C   0  0  0  0  0  0  0  0  0  0  0  0
  -22.9210   -4.1500   21.7030 F   0  0  0  0  0  0  0  0  0  0  0  0
  -21.0770   -4.0100   26.1070 F   0  0  0  0  0  0  0  0  0  0  0  0
  -23.2260  -13.4290   21.3680 C   0  0  0  0  0  0  0  0  0  0  0  0
  -22.5620  -12.7180   22.2730 N   0  0  0  0  0  0  0  0  0  0  0  0
  -22.7460  -14.4520   20.8830 O   0  0  0  0  0  0  0  0  0  0  0  0
  -22.9640  -11.8910   22.6890 H   0  0  0  0  0  0  0  0  0  0  0  0
  -21.6370  -13.0110   22.5570 H   0  0  0  0  0  0  0  0  0  0  0  0
  -25.8020  -15.1430   20.4920 N   0  0  0  0  0  0  0  0  0  0  0  0
  -25.0370  -15.7830   20.6690 H   0  0  0  0  0  0  0  0  0  0  0  0
  -26.6140  -15.5990   20.0970 H   0  0  0  0  0  0  0  0  0  0  0  0
  -26.9190  -20.2440   20.0990 C   0  0  0  0  0  2  0  0  0  0  0  0
  -27.2620  -18.5780   18.1530 C   0  0  0  0  0  1  0  0  0  0  0  0
  -25.3910  -18.2380   19.8140 C   0  0  0  0  0  1  0  0  0  0  0  0
  -26.2580  -19.2770   19.0860 C   0  0  0  0  0  3  0  0  0  0  0  0
  -28.5340  -24.5730   17.7880 C   0  0  0  0  0  2  0  0  0  0  0  0
  -28.8680  -26.0520   18.0220 O   0  0  0  0  0  0  0  0  0  0  0  0
  -25.1730  -30.6640   22.3730 C   0  0  0  0  0  0  0  0  0  0  0  0
  -27.7620  -26.9480   18.2210 C   0  0  0  0  0  0  0  0  0  0  0  0
  -23.9210  -29.5360   20.5760 C   0  0  0  0  0  3  0  0  0  0  0  0
  -25.3290  -28.4340   18.7420 C   0  0  0  0  0  0  0  0  0  0  0  0
  -26.4230  -30.0550   20.2760 C   0  0  0  0  0  2  0  0  0  0  0  0
  -26.5280  -28.8440   19.3420 C   0  0  0  0  0  0  0  0  0  0  0  0
  -27.7430  -28.1140   19.0780 C   0  0  0  0  0  3  0  0  0  0  0  0
  -26.5270  -26.6580   17.5880 C   0  0  0  0  0  3  0  0  0  0  0  0
  -25.3370  -27.3550   17.8550 C   0  0  0  0  0  3  0  0  0  0  0  0
  -24.0540  -29.1870   19.0730 C   0  0  0  0  0  2  0  0  0  0  0  0
  -25.1960  -30.0940   21.1310 N   0  0  0  0  0  0  0  0  0  0  0  0
  -24.1240  -30.7400   23.0310 O   0  0  0  0  0  0  0  0  0  0  0  0
  -23.4100  -28.2920   21.3490 C   0  0  0  0  0  0  0  0  0  0  0  0
  -22.0890  -28.0440   21.3010 N   0  0  0  0  0  0  0  0  0  0  0  0
  -24.1990  -27.5650   21.9560 O   0  0  0  0  0  0  0  0  0  0  0  0
  -21.5040  -28.6920   20.7920 H   0  0  0  0  0  0  0  0  0  0  0  0
  -18.8570  -26.4870   21.7960 C   0  0  0  0  0  0  0  0  0  0  0  0
  -21.4060  -26.9070   21.9210 C   0  0  0  0  0  3  0  0  0  0  0  0
  -21.5520  -25.6310   21.0600 C   0  0  0  0  0  2  0  0  0  0  0  0
  -20.3880  -25.4220   20.0850 C   0  0  0  0  0  2  0  0  0  0  0  0
  -19.0640  -25.3190   20.8470 C   0  0  0  0  0  2  0  0  0  0  0  0
  -19.9550  -27.2420   22.2880 C   0  0  0  0  0  0  0  0  0  0  0  0
  -19.7030  -28.3370   23.1420 C   0  0  0  0  0  3  0  0  0  0  0  0
  -18.3880  -28.6800   23.5050 C   0  0  0  0  0  3  0  0  0  0  0  0
  -17.3060  -27.9220   23.0250 C   0  0  0  0  0  3  0  0  0  0  0  0
  -17.5420  -26.8250   22.1770 C   0  0  0  0  0  3  0  0  0  0  0  0
  -26.4590  -31.2640   23.0150 C   0  0  0  0  0  3  0  0  0  0  0  0
  -27.1950  -30.2570   23.9830 C   0  0  1  0  0  0  0  0  0  0  0  0
  -26.2700  -29.6400   25.0580 C   0  0  0  0  0  1  0  0  0  0  0  0
  -27.8320  -29.0940   23.1890 C   0  0  0  0  0  1  0  0  0  0  0  0
  -28.3530  -30.9820   24.7080 C   0  0  0  0  0  1  0  0  0  0  0  0
  -26.0680  -32.4820   23.7400 N   0  0  0  0  0  0  0  0  0  0  0  0
  -26.3680  -33.7300   23.3560 C   0  0  0  0  0  0  0  0  0  0  0  0
  -27.0700  -33.9740   22.3710 O   0  0  0  0  0  0  0  0  0  0  0  0
  -25.4430  -32.3600   24.5240 H   0  0  0  0  0  0  0  0  0  0  0  0
  -24.5920  -35.5090   23.4720 C   0  0  0  0  0  1  0  0  0  0  0  0
  -25.8000  -34.8920   24.1940 C   0  0  0  0  0  3  0  0  0  0  0  0
  -27.8410  -35.5130   25.4100 C   0  0  0  0  0  1  0  0  0  0  0  0
  -26.7940  -35.9470   24.4890 N   0  0  0  0  0  0  0  0  0  0  0  0
  -26.3440  -36.7680   24.8840 H   0  0  0  0  0  0  0  0  0  0  0  0
  1  4  1  0
  2  5  1  0
  2  1  2  0
  3  6  1  0
  4  6  2  0
  5  3  2  0
  6 48  1  0
  7  8  1  0
  7  9  1  0
  8  4  1  0
  8  9  1  0
  9 18  1  0
 10 16  1  0
 10 18  1  0
 11 16  1  0
 12 13  1  0
 12 11  1  0
 14 13  1  0
 14 23  1  0
 14 15  1  0
 16 15  1  0
 17 10  2  0
 18 19  1  0
 20 21  2  0
 21 40  1  0
 22 21  1  0
 22 25  1  0
 23 24  1  0
 23 20  1  0
 24 22  2  0
 25 26  1  0
 26 27  2  0
 28 31  1  0
 28 27  1  0
 29 28  2  0
 30 29  1  0
 30 25  2  0
 31 32  1  0
 32 37  2  0
 32 33  1  0
 33 34  2  0
 34 35  1  0
 35 39  1  0
 36 35  2  0
 37 36  1  0
 38 37  1  0
 40 41  1  0
 41 44  1  0
 41 43  1  0
 42 40  2  0
 45 20  1  0
 45 46  1  0
 47 45  1  0
 49 51  1  0
 51 50  1  0
 51 48  1  0
 52 53  1  0
 52  5  1  0
 53 55  1  0
 54 65  2  0
 55 60  1  0
 56 64  1  0
 56 66  1  0
 57 63  1  0
 57 59  1  0
 58 64  1  0
 59 58  1  0
 60 59  2  0
 61 62  1  0
 61 55  2  0
 62 57  2  0
 63 56  1  0
 64 54  1  0
 66 68  2  0
 67 66  1  0
 69 67  1  0
 70 79  2  0
 70 75  1  0
 71 67  1  0
 71 75  1  0
 72 71  1  0
 73 74  1  0
 73 72  1  0
 74 70  1  0
 75 76  2  0
 76 77  1  0
 78 77  2  0
 79 78  1  0
 80 54  1  0
 80 85  1  0
 80 81  1  0
 81 84  1  1
 81 82  1  0
 83 81  1  0
 85 88  1  0
 86 85  1  0
 86 90  1  0
 87 86  2  0
 90 89  1  0
 90 92  1  0
 92 93  1  0
 92 91  1  0
M  ISO  4  10 100  18 100  52 101  53 101
M  END
>  <TORSDO>  (58) 
F 20

>  <SCORE>  (58) 
-7.719

>  <name>  (58) 
57

>  <ligand_id>  (58) 
57

>  <original_smiles>  (58) 
[H]c1c([H])c([H])c2c(c1[H])C([H])([H])C([H])([H])C([H])([H])C2([H])N([H])C(=O)C1([H])N(C(=O)C([H])(N([H])C(=O)C([H])(N([H])C([H])([H])[H])C([H])([H])[H])C(C([H])([H])[H])(C([H])([H])[H])C([H])([H])[H])C([H])([H])c2c([H])c(OC([H])([H])c3c([H])c([H])c(C4([H])C([H])([H])C4([H])N([H])C(=O)N4C([H])([H])C([H])([H])C([H])([H])C([H])(n5nc(-c6c([H])c([H])c(Oc7c([H])c([H])c(F)c([H])c7F)c([H])c6[H])c(C(=O)N([H])[H])c5N([H])[H])C4([H])[H])c(C([H])([H])C([H])(C([H])([H])[H])C([H])([H])[H])c3[H])c([H])c([H])c2C1([H])[H]

>  <smiles>  (58) 
[H]c1c([H])c([H])c2c(c1[H])C([H])([H])C([H])([H])C([H])([H])C2([H])N([H])C(=O)C1([H])N(C(=O)C([H])(N([H])C(=O)C([H])(N([H])C([H])([H])[H])C([H])([H])[H])C(C([H])([H])[H])(C([H])([H])[H])C([H])([H])[H])C([H])([H])c2c([H])c(OC([H])([H])c3c([H])c([H])c(C4([H])C([H])([H])C4([H])N([H])C(=O)N4C([H])([H])C([H])([H])C([H])([H])C([H])(n5nc(-c6c([H])c([H])c(Oc7c([H])c([H])c(F)c([H])c7F)c([H])c6[H])c(C(=O)N([H])[H])c5N([H])[H])C4([H])[H])c(C([H])([H])C([H])(C([H])([H])[H])C([H])([H])[H])c3[H])c([H])c([H])c2C1([H])[H]

$$$$
58:0:0
     RDKit          3D

 90 98  0  0  1  0  0  0  0  0999 V2000
  -29.2890  -20.9290   17.6200 C   0  0  0  0  0  3  0  0  0  0  0  0
  -29.6340  -19.6320   18.0370 C   0  0  0  0  0  3  0  0  0  0  0  0
  -29.1730  -21.9710   18.5510 C   0  0  0  0  0  3  0  0  0  0  0  0
  -29.7390  -20.3990   20.3400 C   0  0  0  0  0  3  0  0  0  0  0  0
  -29.8700  -19.3240   19.3940 C   0  0  0  0  0  0  0  0  0  0  0  0
  -29.3980  -21.7390   19.9260 C   0  0  0  0  0  0  0  0  0  0  0  0
  -30.3170  -17.8450   19.6570 C   0  0  0  0  0  2  0  0  0  0  0  0
  -30.0050  -17.0820   20.9870 C   0  0  0  0  0  2  0  0  0  0  0  0
  -30.6010  -14.5710   20.4640 C   0  0  0  0  0  0  0  0  0  0  0  0
  -30.3650  -12.3630   19.3470 C   0  0  0  0  0  2  0  0  0  0  0  0
  -29.4210  -12.5300   18.1360 C   0  0  0  0  0  2  0  0  0  0  0  0
  -27.9450  -12.3870   18.5610 C   0  0  0  0  0  2  0  0  0  0  0  0
  -27.5990  -13.2330   19.8140 C   0  0  0  0  0  3  0  0  0  0  0  0
  -28.6530  -13.0300   20.9270 C   0  0  0  0  0  2  0  0  0  0  0  0
  -29.9690  -13.3610   20.3570 N   0  0  0  0  0  0  0  0  0  0  0  0
  -31.7530  -14.7510   20.0610 O   0  0  0  0  0  0  0  0  0  0  0  0
  -29.8070  -15.5990   20.8700 N   0  0  0  0  0  0  0  0  0  0  0  0
  -28.8830  -15.2900   21.1340 H   0  0  0  0  0  0  0  0  0  0  0  0
  -25.2040  -13.8570   20.5090 C   0  0  0  0  0  0  0  0  0  0  0  0
  -24.1280  -13.0940   20.8800 C   0  0  0  0  0  0  0  0  0  0  0  0
  -24.5830  -11.7390   20.8620 C   0  0  0  0  0  0  0  0  0  0  0  0
  -26.2440  -12.9680   20.2900 N   0  0  0  0  0  0  0  0  0  0  0  0
  -25.8740  -11.6900   20.5600 N   0  0  0  0  0  0  0  0  0  0  0  0
  -23.8480  -10.4820   21.0560 C   0  0  0  0  0  0  0  0  0  0  0  0
  -24.2820   -9.5090   21.9820 C   0  0  0  0  0  3  0  0  0  0  0  0
  -23.5470   -8.3180   22.1640 C   0  0  0  0  0  3  0  0  0  0  0  0
  -22.3660   -8.0910   21.4200 C   0  0  0  0  0  0  0  0  0  0  0  0
  -21.9500   -9.0550   20.4830 C   0  0  0  0  0  3  0  0  0  0  0  0
  -22.6860  -10.2370   20.2990 C   0  0  0  0  0  3  0  0  0  0  0  0
  -21.6020   -6.9530   21.5120 O   0  0  0  0  0  0  0  0  0  0  0  0
  -21.5720   -6.1960   22.6570 C   0  0  0  0  0  0  0  0  0  0  0  0
  -21.1970   -6.7440   23.9020 C   0  0  0  0  0  3  0  0  0  0  0  0
  -21.1130   -5.9160   25.0400 C   0  0  0  0  0  3  0  0  0  0  0  0
  -21.3950   -4.5410   24.9320 C   0  0  0  0  0  0  0  0  0  0  0  0
  -21.7620   -3.9920   23.6910 C   0  0  0  0  0  3  0  0  0  0  0  0
  -21.8490   -4.8180   22.5560 C   0  0  0  0  0  0  0  0  0  0  0  0
  -22.1820   -4.2790   21.3590 F   0  0  0  0  0  0  0  0  0  0  0  0
  -21.3060   -3.7440   26.0220 F   0  0  0  0  0  0  0  0  0  0  0  0
  -22.7330  -13.5820   21.1410 C   0  0  0  0  0  0  0  0  0  0  0  0
  -21.9970  -12.8970   22.0090 N   0  0  0  0  0  0  0  0  0  0  0  0
  -22.3020  -14.6030   20.6070 O   0  0  0  0  0  0  0  0  0  0  0  0
  -22.3580  -12.0700   22.4630 H   0  0  0  0  0  0  0  0  0  0  0  0
  -21.0580  -13.2040   22.2240 H   0  0  0  0  0  0  0  0  0  0  0  0
  -25.3780  -15.2260   20.3200 N   0  0  0  0  0  0  0  0  0  0  0  0
  -24.6150  -15.8860   20.4230 H   0  0  0  0  0  0  0  0  0  0  0  0
  -26.2260  -15.6530   19.9720 H   0  0  0  0  0  0  0  0  0  0  0  0
  -29.2660  -22.7880   20.8430 O   0  0  0  0  0  0  0  0  0  0  0  0
  -29.4570  -24.1860   20.4360 C   0  0  0  0  0  2  0  0  0  0  0  0
  -28.1810  -25.0670   20.1510 C   0  0  0  0  0  2  0  0  0  0  0  0
  -28.3570  -26.5260   20.2030 O   0  0  0  0  0  0  0  0  0  0  0  0
  -24.6140  -31.8550   23.2410 C   0  0  0  0  0  0  0  0  0  0  0  0
  -27.2110  -27.3280   20.1680 C   0  0  0  0  0  0  0  0  0  0  0  0
  -23.3950  -30.4560   21.6100 C   0  0  0  0  0  3  0  0  0  0  0  0
  -24.8330  -28.9070   20.1790 C   0  0  0  0  0  0  0  0  0  0  0  0
  -25.9280  -30.7860   21.4010 C   0  0  0  0  0  2  0  0  0  0  0  0
  -26.0040  -29.4090   20.7590 C   0  0  0  0  0  0  0  0  0  0  0  0
  -27.1960  -28.6330   20.7410 C   0  0  0  0  0  3  0  0  0  0  0  0
  -26.0130  -26.8650   19.5740 C   0  0  0  0  0  3  0  0  0  0  0  0
  -24.8370  -27.6380   19.5790 C   0  0  0  0  0  3  0  0  0  0  0  0
  -23.5950  -29.7750   20.2300 C   0  0  0  0  0  2  0  0  0  0  0  0
  -24.6640  -31.0500   22.1410 N   0  0  0  0  0  0  0  0  0  0  0  0
  -23.5370  -32.1320   23.7880 O   0  0  0  0  0  0  0  0  0  0  0  0
  -22.7400  -29.4420   22.5770 C   0  0  0  0  0  0  0  0  0  0  0  0
  -21.4140  -29.2650   22.4600 N   0  0  0  0  0  0  0  0  0  0  0  0
  -23.4250  -28.8150   23.3900 O   0  0  0  0  0  0  0  0  0  0  0  0
  -20.9210  -29.8220   21.7770 H   0  0  0  0  0  0  0  0  0  0  0  0
  -18.0400  -28.0690   22.9750 C   0  0  0  0  0  0  0  0  0  0  0  0
  -20.5990  -28.3310   23.2380 C   0  0  0  0  0  3  0  0  0  0  0  0
  -20.7000  -26.8960   22.6720 C   0  0  0  0  0  2  0  0  0  0  0  0
  -19.5960  -26.5670   21.6620 C   0  0  0  0  0  2  0  0  0  0  0  0
  -18.2160  -26.7150   22.3070 C   0  0  0  0  0  2  0  0  0  0  0  0
  -19.1590  -28.8340   23.3970 C   0  0  0  0  0  0  0  0  0  0  0  0
  -18.9400  -30.1000   23.9820 C   0  0  0  0  0  3  0  0  0  0  0  0
  -17.6350  -30.6030   24.1470 C   0  0  0  0  0  3  0  0  0  0  0  0
  -16.5300  -29.8340   23.7390 C   0  0  0  0  0  3  0  0  0  0  0  0
  -16.7340  -28.5690   23.1590 C   0  0  0  0  0  3  0  0  0  0  0  0
  -25.9050  -32.4860   23.8510 C   0  0  0  0  0  3  0  0  0  0  0  0
  -25.5990  -33.8830   24.1870 N   0  0  0  0  0  0  0  0  0  0  0  0
  -25.9250  -34.9380   23.4280 C   0  0  0  0  0  0  0  0  0  0  0  0
  -26.5840  -34.8360   22.3890 O   0  0  0  0  0  0  0  0  0  0  0  0
  -25.0140  -34.0350   24.9960 H   0  0  0  0  0  0  0  0  0  0  0  0
  -24.1920  -36.7310   23.0970 C   0  0  0  0  0  1  0  0  0  0  0  0
  -25.4420  -36.3250   23.8940 C   0  0  0  0  0  3  0  0  0  0  0  0
  -27.5890  -37.2060   24.6980 C   0  0  0  0  0  1  0  0  0  0  0  0
  -26.4750  -37.3790   23.7710 N   0  0  0  0  0  0  0  0  0  0  0  0
  -26.0710  -38.2980   23.9280 H   0  0  0  0  0  0  0  0  0  0  0  0
  -26.4330  -31.7110   25.1200 C   0  0  1  0  0  0  0  0  0  0  0  0
  -25.3510  -31.4740   26.1990 C   0  0  0  0  0  1  0  0  0  0  0  0
  -27.0090  -30.3320   24.7190 C   0  0  0  0  0  1  0  0  0  0  0  0
  -27.5930  -32.5010   25.7710 C   0  0  0  0  0  1  0  0  0  0  0  0
  1  2  2  0
  1  3  1  0
  2  5  1  0
  3  6  2  0
  5  7  1  0
  5  4  2  0
  6  4  1  0
  6 47  1  0
  7  8  1  0
  9 17  1  0
 10 15  1  0
 11 12  1  0
 11 10  1  0
 13 12  1  0
 13 22  1  0
 13 14  1  0
 15  9  1  0
 15 14  1  0
 16  9  2  0
 17  8  1  0
 17 18  1  0
 19 20  2  0
 20 39  1  0
 21 20  1  0
 21 24  1  0
 22 19  1  0
 22 23  1  0
 23 21  2  0
 24 25  1  0
 25 26  2  0
 27 30  1  0
 27 26  1  0
 28 27  2  0
 29 28  1  0
 29 24  2  0
 30 31  1  0
 31 32  1  0
 32 33  2  0
 34 33  1  0
 34 38  1  0
 35 34  2  0
 36 31  2  0
 36 35  1  0
 37 36  1  0
 39 40  1  0
 40 43  1  0
 40 42  1  0
 41 39  2  0
 44 45  1  0
 44 19  1  0
 46 44  1  0
 48 47  1  0
 49 50  1  0
 49 48  1  0
 51 62  2  0
 52 50  1  0
 52 57  1  0
 53 61  1  0
 53 63  1  0
 54 60  1  0
 54 56  1  0
 55 61  1  0
 56 55  1  0
 57 56  2  0
 58 59  1  0
 58 52  2  0
 59 54  2  0
 60 53  1  0
 61 51  1  0
 63 65  2  0
 64 63  1  0
 66 64  1  0
 67 76  2  0
 67 72  1  0
 68 64  1  0
 68 72  1  0
 69 68  1  0
 70 71  1  0
 70 69  1  0
 71 67  1  0
 72 73  2  0
 73 74  1  0
 75 74  2  0
 76 75  1  0
 77 51  1  0
 77 78  1  0
 77 87  1  0
 78 81  1  0
 79 83  1  0
 79 78  1  0
 80 79  2  0
 83 82  1  0
 85 83  1  0
 85 86  1  0
 85 84  1  0
 87 90  1  1
 87 88  1  0
 89 87  1  0
M  ISO  4   9 100  17 100  49 101  50 101
M  END
>  <TORSDO>  (59) 
F 21

>  <SCORE>  (59) 
-13.401

>  <name>  (59) 
58

>  <ligand_id>  (59) 
58

>  <original_smiles>  (59) 
[H]c1c([H])c(OC([H])([H])C([H])([H])Oc2c([H])c([H])c3c(c2[H])C([H])([H])N(C(=O)C([H])(N([H])C(=O)C([H])(N([H])C([H])([H])[H])C([H])([H])[H])C(C([H])([H])[H])(C([H])([H])[H])C([H])([H])[H])C([H])(C(=O)N([H])C2([H])c4c([H])c([H])c([H])c([H])c4C([H])([H])C([H])([H])C2([H])[H])C3([H])[H])c([H])c(C([H])([H])C([H])([H])N([H])C(=O)N2C([H])([H])C([H])([H])C([H])([H])C([H])(n3nc(-c4c([H])c([H])c(Oc5c([H])c([H])c(F)c([H])c5F)c([H])c4[H])c(C(=O)N([H])[H])c3N([H])[H])C2([H])[H])c1[H]

>  <smiles>  (59) 
[H]c1c([H])c(OC([H])([H])C([H])([H])Oc2c([H])c([H])c3c(c2[H])C([H])([H])N(C(=O)C([H])(N([H])C(=O)C([H])(N([H])C([H])([H])[H])C([H])([H])[H])C(C([H])([H])[H])(C([H])([H])[H])C([H])([H])[H])C([H])(C(=O)N([H])C2([H])c4c([H])c([H])c([H])c([H])c4C([H])([H])C([H])([H])C2([H])[H])C3([H])[H])c([H])c(C([H])([H])C([H])([H])N([H])C(=O)N2C([H])([H])C([H])([H])C([H])([H])C([H])(n3nc(-c4c([H])c([H])c(Oc5c([H])c([H])c(F)c([H])c5F)c([H])c4[H])c(C(=O)N([H])[H])c3N([H])[H])C2([H])[H])c1[H]

$$$$
59:0:0
     RDKit          3D

 98107  0  0  1  0  0  0  0  0999 V2000
  -29.4720  -24.6260   17.4560 C   0  0  0  0  0  3  0  0  0  0  0  0
  -30.5430  -25.0180   19.6080 C   0  0  0  0  0  3  0  0  0  0  0  0
  -29.6690  -25.4360   18.5870 C   0  0  0  0  0  0  0  0  0  0  0  0
  -30.1040  -23.3720   17.3600 C   0  0  0  0  0  0  0  0  0  0  0  0
  -31.1850  -23.7670   19.5320 C   0  0  0  0  0  0  0  0  0  0  0  0
  -30.9500  -22.9260   18.4120 C   0  0  0  0  0  0  0  0  0  0  0  0
  -29.8430  -22.5340   16.1160 C   0  0  0  0  0  1  0  0  0  0  0  0
  -32.1090  -23.3660   20.6740 C   0  0  0  0  0  1  0  0  0  0  0  0
  -31.5590  -21.5340   18.3560 C   0  0  0  0  0  2  0  0  0  0  0  0
  -30.5960  -20.5510   18.8920 N   0  0  0  0  0  4  0  0  0  0  0  0
  -30.4680  -20.7620   19.8680 H   0  0  0  0  0  0  0  0  0  0  0  0
  -29.7050  -20.6770   18.4400 H   0  0  0  0  0  0  0  0  0  0  0  0
  -31.5190  -17.2600   17.1520 C   0  0  0  0  0  2  0  0  0  0  0  0
  -30.9380  -16.2730   18.1730 C   0  0  0  0  0  2  0  0  0  0  0  0
  -30.9050  -18.6550   17.2950 C   0  0  0  0  0  2  0  0  0  0  0  0
  -30.3040  -18.1880   19.7070 C   0  0  0  0  0  2  0  0  0  0  0  0
  -30.9920  -16.8010   19.6320 C   0  0  0  0  0  3  0  0  0  0  0  0
  -31.0440  -19.1530   18.7490 C   0  0  0  0  0  3  0  0  0  0  0  0
  -31.2200  -14.5690   20.5630 C   0  0  0  0  0  0  0  0  0  0  0  0
  -30.8050  -12.4680   19.3610 C   0  0  0  0  0  2  0  0  0  0  0  0
  -29.8910  -12.6830   18.1370 C   0  0  0  0  0  2  0  0  0  0  0  0
  -28.4080  -12.6270   18.5400 C   0  0  0  0  0  2  0  0  0  0  0  0
  -28.0800  -13.4790   19.7950 C   0  0  0  0  0  3  0  0  0  0  0  0
  -29.1030  -13.2240   20.9210 C   0  0  0  0  0  2  0  0  0  0  0  0
  -30.4440  -13.4690   20.3740 N   0  0  0  0  0  0  0  0  0  0  0  0
  -32.4170  -14.5780   20.2620 O   0  0  0  0  0  0  0  0  0  0  0  0
  -30.1270  -16.2400   21.9220 C   0  0  0  0  0  1  0  0  0  0  0  0
  -30.5600  -15.7550   20.6070 N   0  0  0  0  0  0  0  0  0  0  0  0
  -25.6850  -14.1520   20.4470 C   0  0  0  0  0  0  0  0  0  0  0  0
  -24.5860  -13.4070   20.7790 C   0  0  0  0  0  0  0  0  0  0  0  0
  -25.0130  -12.0440   20.7620 C   0  0  0  0  0  0  0  0  0  0  0  0
  -26.7110  -13.2440   20.2450 N   0  0  0  0  0  0  0  0  0  0  0  0
  -26.3100  -11.9710   20.4990 N   0  0  0  0  0  0  0  0  0  0  0  0
  -24.2500  -10.7980   20.9210 C   0  0  0  0  0  0  0  0  0  0  0  0
  -24.6260   -9.8160   21.8640 C   0  0  0  0  0  3  0  0  0  0  0  0
  -23.8660   -8.6360   22.0100 C   0  0  0  0  0  3  0  0  0  0  0  0
  -22.7150   -8.4290   21.2130 C   0  0  0  0  0  0  0  0  0  0  0  0
  -22.3580   -9.3990   20.2590 C   0  0  0  0  0  3  0  0  0  0  0  0
  -23.1200  -10.5710   20.1100 C   0  0  0  0  0  3  0  0  0  0  0  0
  -21.9300   -7.3030   21.2690 O   0  0  0  0  0  0  0  0  0  0  0  0
  -21.7920   -6.5790   22.4260 C   0  0  0  0  0  0  0  0  0  0  0  0
  -21.3150   -7.1650   23.6200 C   0  0  0  0  0  3  0  0  0  0  0  0
  -21.1230   -6.3690   24.7670 C   0  0  0  0  0  3  0  0  0  0  0  0
  -21.4000   -4.9900   24.7210 C   0  0  0  0  0  0  0  0  0  0  0  0
  -21.8720   -4.4040   23.5330 C   0  0  0  0  0  3  0  0  0  0  0  0
  -22.0640   -5.1970   22.3880 C   0  0  0  0  0  0  0  0  0  0  0  0
  -22.4980   -4.6240   21.2400 F   0  0  0  0  0  0  0  0  0  0  0  0
  -21.2090   -4.2230   25.8200 F   0  0  0  0  0  0  0  0  0  0  0  0
  -23.1930  -13.9180   21.0070 C   0  0  0  0  0  0  0  0  0  0  0  0
  -22.4280  -13.2470   21.8610 N   0  0  0  0  0  0  0  0  0  0  0  0
  -22.7930  -14.9460   20.4640 O   0  0  0  0  0  0  0  0  0  0  0  0
  -22.7670  -12.4150   22.3210 H   0  0  0  0  0  0  0  0  0  0  0  0
  -21.4930  -13.5710   22.0610 H   0  0  0  0  0  0  0  0  0  0  0  0
  -25.8960  -15.5170   20.2760 N   0  0  0  0  0  0  0  0  0  0  0  0
  -25.1530  -16.2010   20.3580 H   0  0  0  0  0  0  0  0  0  0  0  0
  -26.7810  -15.9220   19.9940 H   0  0  0  0  0  0  0  0  0  0  0  0
  -28.9260  -26.7430   18.7250 C   0  0  0  0  0  2  0  0  0  0  0  0
  -28.3470  -26.8400   20.0190 O   0  0  0  0  0  0  0  0  0  0  0  0
  -24.5530  -31.8930   23.2240 C   0  0  0  0  0  0  0  0  0  0  0  0
  -27.1690  -27.5310   20.0600 C   0  0  0  0  0  0  0  0  0  0  0  0
  -23.3240  -30.5010   21.5860 C   0  0  0  0  0  3  0  0  0  0  0  0
  -24.7620  -28.9790   20.1290 C   0  0  0  0  0  0  0  0  0  0  0  0
  -25.8400  -30.8800   21.3510 C   0  0  0  0  0  2  0  0  0  0  0  0
  -25.9200  -29.5150   20.7080 C   0  0  0  0  0  0  0  0  0  0  0  0
  -27.1270  -28.7900   20.6840 C   0  0  0  0  0  3  0  0  0  0  0  0
  -25.9990  -26.9870   19.4890 C   0  0  0  0  0  3  0  0  0  0  0  0
  -24.7920  -27.7090   19.5230 C   0  0  0  0  0  3  0  0  0  0  0  0
  -23.5140  -29.8310   20.1980 C   0  0  0  0  0  2  0  0  0  0  0  0
  -24.5900  -31.1060   22.1120 N   0  0  0  0  0  0  0  0  0  0  0  0
  -23.4800  -32.1570   23.7840 O   0  0  0  0  0  0  0  0  0  0  0  0
  -22.6910  -29.4710   22.5460 C   0  0  0  0  0  0  0  0  0  0  0  0
  -21.3660  -29.2860   22.4320 N   0  0  0  0  0  0  0  0  0  0  0  0
  -23.3870  -28.8420   23.3480 O   0  0  0  0  0  0  0  0  0  0  0  0
  -20.8670  -29.8470   21.7560 H   0  0  0  0  0  0  0  0  0  0  0  0
  -18.0030  -28.0770   22.9430 C   0  0  0  0  0  0  0  0  0  0  0  0
  -20.5590  -28.3430   23.2050 C   0  0  0  0  0  3  0  0  0  0  0  0
  -20.6650  -26.9140   22.6240 C   0  0  0  0  0  2  0  0  0  0  0  0
  -19.5600  -26.5910   21.6130 C   0  0  0  0  0  2  0  0  0  0  0  0
  -18.1800  -26.7320   22.2600 C   0  0  0  0  0  2  0  0  0  0  0  0
  -19.1190  -28.8410   23.3710 C   0  0  0  0  0  0  0  0  0  0  0  0
  -18.8990  -30.1030   23.9630 C   0  0  0  0  0  3  0  0  0  0  0  0
  -17.5930  -30.5990   24.1370 C   0  0  0  0  0  3  0  0  0  0  0  0
  -16.4900  -29.8300   23.7270 C   0  0  0  0  0  3  0  0  0  0  0  0
  -16.6960  -28.5720   23.1340 C   0  0  0  0  0  3  0  0  0  0  0  0
  -25.8490  -32.5170   23.8300 C   0  0  0  0  0  3  0  0  0  0  0  0
  -26.3830  -31.7400   25.0950 C   0  0  1  0  0  0  0  0  0  0  0  0
  -25.3030  -31.4940   26.1750 C   0  0  0  0  0  1  0  0  0  0  0  0
  -26.9590  -30.3650   24.6860 C   0  0  0  0  0  1  0  0  0  0  0  0
  -27.5410  -32.5320   25.7470 C   0  0  0  0  0  1  0  0  0  0  0  0
  -25.5530  -33.9150   24.1650 N   0  0  0  0  0  0  0  0  0  0  0  0
  -25.8980  -34.9660   23.4090 C   0  0  0  0  0  0  0  0  0  0  0  0
  -26.5720  -34.8610   22.3810 O   0  0  0  0  0  0  0  0  0  0  0  0
  -24.9570  -34.0730   24.9650 H   0  0  0  0  0  0  0  0  0  0  0  0
  -24.1920  -36.7760   23.0400 C   0  0  0  0  0  1  0  0  0  0  0  0
  -25.4180  -36.3560   23.8670 C   0  0  0  0  0  3  0  0  0  0  0  0
  -27.5500  -37.2130   24.7320 C   0  0  0  0  0  1  0  0  0  0  0  0
  -26.4620  -37.3990   23.7740 N   0  0  0  0  0  0  0  0  0  0  0  0
  -26.0660  -38.3230   23.9210 H   0  0  0  0  0  0  0  0  0  0  0  0
  1  3  1  0
  3 57  1  0
  3  2  2  0
  4  1  2  0
  4  6  1  0
  5  2  1  0
  5  8  1  0
  6  5  2  0
  7  4  1  0
  9  6  1  0
  9 10  1  0
 10 11  1  0
 12 10  1  0
 13 15  1  0
 13 14  1  0
 14 17  1  0
 15 18  1  0
 17 16  1  0
 17 28  1  0
 18 10  1  0
 18 16  1  0
 19 28  1  0
 20 25  1  0
 21 22  1  0
 21 20  1  0
 23 22  1  0
 23 32  1  0
 23 24  1  0
 25 19  1  0
 25 24  1  0
 26 19  2  0
 28 27  1  0
 29 30  2  0
 30 49  1  0
 31 30  1  0
 31 34  1  0
 32 29  1  0
 32 33  1  0
 33 31  2  0
 34 35  1  0
 35 36  2  0
 37 40  1  0
 37 36  1  0
 38 37  2  0
 39 38  1  0
 39 34  2  0
 40 41  1  0
 41 42  1  0
 42 43  2  0
 44 43  1  0
 44 48  1  0
 45 44  2  0
 46 41  2  0
 46 45  1  0
 47 46  1  0
 49 50  1  0
 50 53  1  0
 50 52  1  0
 51 49  2  0
 54 55  1  0
 54 29  1  0
 56 54  1  0
 57 58  1  0
 58 60  1  0
 59 70  2  0
 60 65  1  0
 61 69  1  0
 61 71  1  0
 62 68  1  0
 62 64  1  0
 63 69  1  0
 64 63  1  0
 65 64  2  0
 66 67  1  0
 66 60  2  0
 67 62  2  0
 68 61  1  0
 69 59  1  0
 71 73  2  0
 72 71  1  0
 74 72  1  0
 75 84  2  0
 75 80  1  0
 76 72  1  0
 76 80  1  0
 77 76  1  0
 78 79  1  0
 78 77  1  0
 79 75  1  0
 80 81  2  0
 81 82  1  0
 83 82  2  0
 84 83  1  0
 85 59  1  0
 85 90  1  0
 85 86  1  0
 86 89  1  1
 86 87  1  0
 88 86  1  0
 90 93  1  0
 91 95  1  0
 91 90  1  0
 92 91  2  0
 95 94  1  0
 97 95  1  0
 97 98  1  0
 97 96  1  0
M  ISO  4  19 100  28 100  57 101  58 101
M  END
>  <TORSDO>  (60) 
F 20

>  <SCORE>  (60) 
-13.002

>  <name>  (60) 
59

>  <ligand_id>  (60) 
59

>  <original_smiles>  (60) 
[H]c1c([H])c([H])c2c(c1[H])C([H])([H])C([H])([H])C([H])([H])C2([H])N([H])C(=O)C1([H])N(C(=O)C([H])(N([H])C(=O)C([H])(N([H])C([H])([H])[H])C([H])([H])[H])C(C([H])([H])[H])(C([H])([H])[H])C([H])([H])[H])C([H])([H])c2c([H])c(OC([H])([H])c3c([H])c(C([H])([H])[H])c(C([H])([H])[N+]([H])([H])C4([H])C([H])([H])C([H])([H])C([H])([H])C([H])(N(C(=O)N5C([H])([H])C([H])([H])C([H])([H])C([H])(n6nc(-c7c([H])c([H])c(Oc8c([H])c([H])c(F)c([H])c8F)c([H])c7[H])c(C(=O)N([H])[H])c6N([H])[H])C5([H])[H])C([H])([H])[H])C4([H])[H])c(C([H])([H])[H])c3[H])c([H])c([H])c2C1([H])[H]

>  <smiles>  (60) 
[H]c1c([H])c([H])c2c(c1[H])C([H])([H])C([H])([H])C([H])([H])C2([H])N([H])C(=O)C1([H])N(C(=O)C([H])(N([H])C(=O)C([H])(N([H])C([H])([H])[H])C([H])([H])[H])C(C([H])([H])[H])(C([H])([H])[H])C([H])([H])[H])C([H])([H])c2c([H])c(OC([H])([H])c3c([H])c(C([H])([H])[H])c(C([H])([H])[N+]([H])([H])C4([H])C([H])([H])C([H])([H])C([H])([H])C([H])(N(C(=O)N5C([H])([H])C([H])([H])C([H])([H])C([H])(n6nc(-c7c([H])c([H])c(Oc8c([H])c([H])c(F)c([H])c8F)c([H])c7[H])c(C(=O)N([H])[H])c6N([H])[H])C5([H])[H])C([H])([H])[H])C4([H])[H])c(C([H])([H])[H])c3[H])c([H])c([H])c2C1([H])[H]

$$$$
60:0:0
     RDKit          3D

 89 97  0  0  1  0  0  0  0  0999 V2000
  -27.6430  -23.7590   19.1630 C   0  0  0  0  0  3  0  0  0  0  0  0
  -28.6160  -24.0560   21.4350 C   0  0  0  0  0  2  0  0  0  0  0  0
  -27.6600  -22.2040   19.6140 C   0  0  0  0  0  2  0  0  0  0  0  0
  -29.4170  -22.6810   21.2900 C   0  0  0  0  0  2  0  0  0  0  0  0
  -28.3810  -24.8210   20.0930 C   0  0  0  0  0  0  0  0  0  0  0  0
  -28.9100  -21.6510   20.2810 N   0  0  1  0  0  4  0  0  0  0  0  0
  -29.6130  -21.6540   19.5540 H   0  0  0  0  0  0  0  0  0  0  0  0
  -28.2900  -26.3610   20.1110 O   0  0  0  0  0  0  0  0  0  0  0  0
  -24.6100  -31.8810   23.2010 C   0  0  0  0  0  0  0  0  0  0  0  0
  -27.1620  -27.2220   20.1320 C   0  0  0  0  0  0  0  0  0  0  0  0
  -23.4000  -30.4840   21.5750 C   0  0  0  0  0  3  0  0  0  0  0  0
  -24.8270  -28.9180   20.1400 C   0  0  0  0  0  0  0  0  0  0  0  0
  -25.9430  -30.7750   21.3750 C   0  0  0  0  0  2  0  0  0  0  0  0
  -26.0090  -29.3870   20.7230 C   0  0  0  0  0  0  0  0  0  0  0  0
  -27.1780  -28.5490   20.7010 C   0  0  0  0  0  3  0  0  0  0  0  0
  -25.9500  -26.8330   19.5320 C   0  0  0  0  0  3  0  0  0  0  0  0
  -24.8030  -27.6540   19.5370 C   0  0  0  0  0  3  0  0  0  0  0  0
  -23.6060  -29.8180   20.1890 C   0  0  0  0  0  2  0  0  0  0  0  0
  -24.6710  -31.0630   22.1070 N   0  0  0  0  0  0  0  0  0  0  0  0
  -23.5300  -32.1570   23.7430 O   0  0  0  0  0  0  0  0  0  0  0  0
  -22.7380  -29.4630   22.5330 C   0  0  0  0  0  0  0  0  0  0  0  0
  -21.4100  -29.2880   22.4120 N   0  0  0  0  0  0  0  0  0  0  0  0
  -23.4150  -28.8360   23.3510 O   0  0  0  0  0  0  0  0  0  0  0  0
  -20.9140  -29.8580   21.7390 H   0  0  0  0  0  0  0  0  0  0  0  0
  -18.0300  -28.0950   22.9270 C   0  0  0  0  0  0  0  0  0  0  0  0
  -20.5960  -28.3490   23.1860 C   0  0  0  0  0  3  0  0  0  0  0  0
  -20.6910  -26.9190   22.6080 C   0  0  0  0  0  2  0  0  0  0  0  0
  -19.5840  -26.6030   21.5980 C   0  0  0  0  0  2  0  0  0  0  0  0
  -18.2040  -26.7450   22.2490 C   0  0  0  0  0  2  0  0  0  0  0  0
  -19.1550  -28.8520   23.3530 C   0  0  0  0  0  0  0  0  0  0  0  0
  -18.9410  -30.1120   23.9480 C   0  0  0  0  0  3  0  0  0  0  0  0
  -17.6400  -30.6170   24.1260 C   0  0  0  0  0  3  0  0  0  0  0  0
  -16.5310  -29.8530   23.7240 C   0  0  0  0  0  3  0  0  0  0  0  0
  -16.7270  -28.5960   23.1240 C   0  0  0  0  0  3  0  0  0  0  0  0
  -25.8920  -32.5140   23.8200 C   0  0  0  0  0  3  0  0  0  0  0  0
  -26.4170  -31.7370   25.0900 C   0  0  1  0  0  0  0  0  0  0  0  0
  -25.3340  -31.4910   26.1660 C   0  0  0  0  0  1  0  0  0  0  0  0
  -27.0030  -30.3670   24.6780 C   0  0  0  0  0  1  0  0  0  0  0  0
  -27.5690  -32.5310   25.7490 C   0  0  0  0  0  1  0  0  0  0  0  0
  -25.5830  -33.9100   24.1680 N   0  0  0  0  0  0  0  0  0  0  0  0
  -25.9000  -34.9710   23.4150 C   0  0  0  0  0  0  0  0  0  0  0  0
  -26.5550  -34.8800   22.3730 O   0  0  0  0  0  0  0  0  0  0  0  0
  -25.0120  -34.0560   24.9870 H   0  0  0  0  0  0  0  0  0  0  0  0
  -24.1600  -36.7570   23.0960 C   0  0  0  0  0  1  0  0  0  0  0  0
  -25.4110  -36.3540   23.8920 C   0  0  0  0  0  3  0  0  0  0  0  0
  -27.5490  -37.2380   24.7020 C   0  0  0  0  0  1  0  0  0  0  0  0
  -26.4380  -37.4130   23.7720 N   0  0  0  0  0  0  0  0  0  0  0  0
  -26.0310  -38.3290   23.9400 H   0  0  0  0  0  0  0  0  0  0  0  0
  -28.8930  -20.1800   20.8370 C   0  0  0  0  0  2  0  0  0  0  0  0
  -29.1820  -18.7940   19.9730 C   0  0  0  0  0  2  0  0  0  0  0  0
  -29.9090  -17.5000   20.7160 C   0  0  0  0  0  2  0  0  0  0  0  0
  -30.5150  -14.8790   20.3200 C   0  0  0  0  0  0  0  0  0  0  0  0
  -30.4070  -12.5540   19.3620 C   0  0  0  0  0  2  0  0  0  0  0  0
  -29.4590  -12.5320   18.1410 C   0  0  0  0  0  2  0  0  0  0  0  0
  -27.9940  -12.3440   18.5860 C   0  0  0  0  0  2  0  0  0  0  0  0
  -27.6040  -13.2800   19.7570 C   0  0  0  0  0  3  0  0  0  0  0  0
  -28.6580  -13.2530   20.8780 C   0  0  0  0  0  2  0  0  0  0  0  0
  -29.9350  -13.6280   20.2660 N   0  0  0  0  0  0  0  0  0  0  0  0
  -31.7310  -14.9840   20.1250 O   0  0  0  0  0  0  0  0  0  0  0  0
  -29.6720  -16.0010   20.3910 N   0  0  0  0  0  0  0  0  0  0  0  0
  -28.6970  -15.7410   20.4060 H   0  0  0  0  0  0  0  0  0  0  0  0
  -25.2270  -13.8890   20.4850 C   0  0  0  0  0  0  0  0  0  0  0  0
  -24.1560  -13.1190   20.8580 C   0  0  0  0  0  0  0  0  0  0  0  0
  -24.6190  -11.7660   20.8420 C   0  0  0  0  0  0  0  0  0  0  0  0
  -26.2660  -13.0020   20.2590 N   0  0  0  0  0  0  0  0  0  0  0  0
  -25.9090  -11.7240   20.5390 N   0  0  0  0  0  0  0  0  0  0  0  0
  -23.8870  -10.5080   21.0360 C   0  0  0  0  0  0  0  0  0  0  0  0
  -24.3210   -9.5420   21.9710 C   0  0  0  0  0  3  0  0  0  0  0  0
  -23.5920   -8.3460   22.1530 C   0  0  0  0  0  3  0  0  0  0  0  0
  -22.4160   -8.1100   21.4000 C   0  0  0  0  0  0  0  0  0  0  0  0
  -22.0050   -9.0650   20.4540 C   0  0  0  0  0  3  0  0  0  0  0  0
  -22.7330  -10.2510   20.2720 C   0  0  0  0  0  3  0  0  0  0  0  0
  -21.6600   -6.9670   21.4920 O   0  0  0  0  0  0  0  0  0  0  0  0
  -21.6210   -6.2210   22.6430 C   0  0  0  0  0  0  0  0  0  0  0  0
  -21.2170   -6.7740   23.8770 C   0  0  0  0  0  3  0  0  0  0  0  0
  -21.1260   -5.9550   25.0200 C   0  0  0  0  0  3  0  0  0  0  0  0
  -21.4290   -4.5840   24.9300 C   0  0  0  0  0  0  0  0  0  0  0  0
  -21.8250   -4.0290   23.7000 C   0  0  0  0  0  3  0  0  0  0  0  0
  -21.9190   -4.8470   22.5590 C   0  0  0  0  0  0  0  0  0  0  0  0
  -22.2830   -4.3040   21.3720 F   0  0  0  0  0  0  0  0  0  0  0  0
  -21.3340   -3.7940   26.0240 F   0  0  0  0  0  0  0  0  0  0  0  0
  -22.7610  -13.6010   21.1170 C   0  0  0  0  0  0  0  0  0  0  0  0
  -22.0280  -12.9110   21.9850 N   0  0  0  0  0  0  0  0  0  0  0  0
  -22.3260  -14.6230   20.5860 O   0  0  0  0  0  0  0  0  0  0  0  0
  -22.3900  -12.0760   22.4250 H   0  0  0  0  0  0  0  0  0  0  0  0
  -21.0930  -13.2170   22.2130 H   0  0  0  0  0  0  0  0  0  0  0  0
  -25.3990  -15.2560   20.2930 N   0  0  0  0  0  0  0  0  0  0  0  0
  -24.6310  -15.9160   20.3670 H   0  0  0  0  0  0  0  0  0  0  0  0
  -26.2330  -15.6700   19.8980 H   0  0  0  0  0  0  0  0  0  0  0  0
  1  3  1  0
  1  5  2  0
  3  6  1  0
  4  2  1  0
  5  8  1  0
  5  2  1  0
  6 49  1  0
  6  4  1  0
  6  7  1  6
  8 10  1  0
  9 20  2  0
 10 15  1  0
 11 19  1  0
 11 21  1  0
 12 18  1  0
 12 14  1  0
 13 19  1  0
 14 13  1  0
 15 14  2  0
 16 17  1  0
 16 10  2  0
 17 12  2  0
 18 11  1  0
 19  9  1  0
 21 23  2  0
 22 21  1  0
 24 22  1  0
 25 34  2  0
 25 30  1  0
 26 22  1  0
 26 30  1  0
 27 26  1  0
 28 29  1  0
 28 27  1  0
 29 25  1  0
 30 31  2  0
 31 32  1  0
 33 32  2  0
 34 33  1  0
 35  9  1  0
 35 40  1  0
 35 36  1  0
 36 39  1  1
 36 37  1  0
 38 36  1  0
 40 43  1  0
 41 45  1  0
 41 40  1  0
 42 41  2  0
 45 44  1  0
 47 45  1  0
 47 48  1  0
 47 46  1  0
 50 51  1  0
 50 49  1  0
 52 60  1  0
 53 58  1  0
 54 55  1  0
 54 53  1  0
 56 55  1  0
 56 65  1  0
 56 57  1  0
 58 52  1  0
 58 57  1  0
 59 52  2  0
 60 61  1  0
 60 51  1  0
 62 63  2  0
 63 82  1  0
 64 63  1  0
 64 67  1  0
 65 62  1  0
 65 66  1  0
 66 64  2  0
 67 68  1  0
 68 69  2  0
 70 73  1  0
 70 69  1  0
 71 70  2  0
 72 71  1  0
 72 67  2  0
 73 74  1  0
 74 75  1  0
 75 76  2  0
 77 76  1  0
 77 81  1  0
 78 77  2  0
 79 74  2  0
 79 78  1  0
 80 79  1  0
 82 83  1  0
 83 86  1  0
 83 85  1  0
 84 82  2  0
 87 88  1  0
 87 62  1  0
 89 87  1  0
M  ISO  4   5 101   8 101  52 100  60 100
M  END
>  <TORSDO>  (61) 
F 19

>  <SCORE>  (61) 
-14.091

>  <name>  (61) 
60

>  <ligand_id>  (61) 
60

>  <original_smiles>  (61) 
[H]c1c([H])c([H])c2c(c1[H])C([H])([H])C([H])([H])C([H])([H])C2([H])N([H])C(=O)C1([H])N(C(=O)C([H])(N([H])C(=O)C([H])(N([H])C([H])([H])[H])C([H])([H])[H])C(C([H])([H])[H])(C([H])([H])[H])C([H])([H])[H])C([H])([H])c2c([H])c(OC3([H])C([H])([H])C([H])([H])[N+]([H])(C([H])([H])C([H])([H])C([H])([H])N([H])C(=O)N4C([H])([H])C([H])([H])C([H])([H])C([H])(n5nc(-c6c([H])c([H])c(Oc7c([H])c([H])c(F)c([H])c7F)c([H])c6[H])c(C(=O)N([H])[H])c5N([H])[H])C4([H])[H])C([H])([H])C3([H])[H])c([H])c([H])c2C1([H])[H]

>  <smiles>  (61) 
[H]c1c([H])c([H])c2c(c1[H])C([H])([H])C([H])([H])C([H])([H])C2([H])N([H])C(=O)C1([H])N(C(=O)C([H])(N([H])C(=O)C([H])(N([H])C([H])([H])[H])C([H])([H])[H])C(C([H])([H])[H])(C([H])([H])[H])C([H])([H])[H])C([H])([H])c2c([H])c(OC3([H])C([H])([H])C([H])([H])[N+]([H])(C([H])([H])C([H])([H])C([H])([H])N([H])C(=O)N4C([H])([H])C([H])([H])C([H])([H])C([H])(n5nc(-c6c([H])c([H])c(Oc7c([H])c([H])c(F)c([H])c7F)c([H])c6[H])c(C(=O)N([H])[H])c5N([H])[H])C4([H])[H])C([H])([H])C3([H])[H])c([H])c([H])c2C1([H])[H]

$$$$
61:0:0
     RDKit          3D

101110  0  0  1  0  0  0  0  0999 V2000
  -25.4950  -20.8190   18.8770 C   0  0  0  0  0  2  0  0  0  0  0  0
  -26.3830  -21.3110   19.9580 N   0  0  0  0  0  4  0  0  0  0  0  0
  -26.7730  -22.2010   19.7190 H   0  0  0  0  0  0  0  0  0  0  0  0
  -25.7880  -21.4620   20.7590 H   0  0  0  0  0  0  0  0  0  0  0  0
  -27.4750  -20.4270   20.4370 C   0  0  0  0  0  2  0  0  0  0  0  0
  -30.5810  -21.5110   18.3420 C   0  0  0  0  0  3  0  0  0  0  0  0
  -29.3180  -21.5360   18.9860 C   0  0  0  0  0  3  0  0  0  0  0  0
  -30.8140  -19.1640   18.9040 C   0  0  0  0  0  3  0  0  0  0  0  0
  -31.3510  -20.3240   18.3200 C   0  0  0  0  0  0  0  0  0  0  0  0
  -28.7840  -20.3730   19.6030 C   0  0  0  0  0  0  0  0  0  0  0  0
  -29.5440  -19.1720   19.5280 C   0  0  0  0  0  0  0  0  0  0  0  0
  -29.0750  -17.8730   20.1550 C   0  0  0  0  0  1  0  0  0  0  0  0
  -32.7580  -20.2920   17.7220 C   0  0  0  0  0  2  0  0  0  0  0  0
  -33.9370  -19.4960   15.7000 C   0  0  0  0  0  0  0  0  0  0  0  0
  -35.0790  -17.5970   14.6270 C   0  0  0  0  0  2  0  0  0  0  0  0
  -33.9940  -16.5790   14.2150 C   0  0  0  0  0  2  0  0  0  0  0  0
  -33.6430  -15.6360   15.3840 C   0  0  0  0  0  2  0  0  0  0  0  0
  -33.3850  -16.3860   16.7140 C   0  0  0  0  0  3  0  0  0  0  0  0
  -34.5100  -17.4110   16.9750 C   0  0  0  0  0  2  0  0  0  0  0  0
  -34.5760  -18.3020   15.8110 N   0  0  0  0  0  0  0  0  0  0  0  0
  -34.0860  -20.2490   14.7360 O   0  0  0  0  0  0  0  0  0  0  0  0
  -32.8230  -19.5930   16.4400 N   0  0  0  0  0  0  0  0  0  0  0  0
  -32.0340  -19.8420   15.8620 H   0  0  0  0  0  0  0  0  0  0  0  0
  -32.0970  -15.1470   18.5620 C   0  0  0  0  0  0  0  0  0  0  0  0
  -32.4730  -14.1810   19.4580 C   0  0  0  0  0  0  0  0  0  0  0  0
  -33.8500  -13.9240   19.1920 C   0  0  0  0  0  0  0  0  0  0  0  0
  -33.2330  -15.4590   17.8320 N   0  0  0  0  0  0  0  0  0  0  0  0
  -34.3050  -14.7430   18.2520 N   0  0  0  0  0  0  0  0  0  0  0  0
  -34.7480  -12.9050   19.7400 C   0  0  0  0  0  0  0  0  0  0  0  0
  -36.0360  -13.2330   20.2160 C   0  0  0  0  0  3  0  0  0  0  0  0
  -36.8790  -12.2330   20.7500 C   0  0  0  0  0  3  0  0  0  0  0  0
  -36.4340  -10.8920   20.8170 C   0  0  0  0  0  0  0  0  0  0  0  0
  -35.1580  -10.5680   20.3220 C   0  0  0  0  0  3  0  0  0  0  0  0
  -34.3240  -11.5640   19.7850 C   0  0  0  0  0  3  0  0  0  0  0  0
  -37.1960   -9.8530   21.2960 O   0  0  0  0  0  0  0  0  0  0  0  0
  -38.2130  -10.0620   22.1930 C   0  0  0  0  0  0  0  0  0  0  0  0
  -38.0550  -10.9000   23.3200 C   0  0  0  0  0  3  0  0  0  0  0  0
  -39.1030  -11.0290   24.2530 C   0  0  0  0  0  3  0  0  0  0  0  0
  -40.3050  -10.3200   24.0670 C   0  0  0  0  0  0  0  0  0  0  0  0
  -40.4620   -9.4820   22.9500 C   0  0  0  0  0  3  0  0  0  0  0  0
  -39.4180   -9.3530   22.0160 C   0  0  0  0  0  0  0  0  0  0  0  0
  -39.5670   -8.5250   20.9540 F   0  0  0  0  0  0  0  0  0  0  0  0
  -41.3090  -10.4410   24.9660 F   0  0  0  0  0  0  0  0  0  0  0  0
  -31.5740  -13.4700   20.4290 C   0  0  0  0  0  0  0  0  0  0  0  0
  -32.1220  -13.0370   21.5620 N   0  0  0  0  0  0  0  0  0  0  0  0
  -30.3720  -13.3320   20.2110 O   0  0  0  0  0  0  0  0  0  0  0  0
  -33.1020  -13.1740   21.7480 H   0  0  0  0  0  0  0  0  0  0  0  0
  -31.5540  -12.5650   22.2530 H   0  0  0  0  0  0  0  0  0  0  0  0
  -30.8810  -15.7500   18.2920 N   0  0  0  0  0  0  0  0  0  0  0  0
  -30.0300  -15.4850   18.7740 H   0  0  0  0  0  0  0  0  0  0  0  0
  -30.7490  -16.4630   17.5840 H   0  0  0  0  0  0  0  0  0  0  0  0
  -25.6820  -21.5710   17.5320 C   0  0  0  0  0  2  0  0  0  0  0  0
  -25.3570  -23.0930   17.5060 C   0  0  0  0  0  2  0  0  0  0  0  0
  -27.5160  -26.3100   17.0540 C   0  0  0  0  0  2  0  0  0  0  0  0
  -28.3980  -24.9310   19.0090 C   0  0  0  0  0  2  0  0  0  0  0  0
  -26.3740  -25.2680   16.8550 C   0  0  0  0  0  2  0  0  0  0  0  0
  -27.1280  -24.0760   18.9310 C   0  0  0  0  0  2  0  0  0  0  0  0
  -28.2240  -26.3330   18.4280 C   0  0  0  0  0  3  0  0  0  0  0  0
  -26.5780  -23.9570   17.5500 N   0  0  1  0  0  4  0  0  0  0  0  0
  -27.2710  -23.4860   16.9860 H   0  0  0  0  0  0  0  0  0  0  0  0
  -28.0010  -27.4030   19.3740 O   0  0  0  0  0  0  0  0  0  0  0  0
  -24.5150  -31.9750   23.5900 C   0  0  0  0  0  0  0  0  0  0  0  0
  -26.7960  -28.0320   19.6320 C   0  0  0  0  0  0  0  0  0  0  0  0
  -23.1340  -30.8190   21.8990 C   0  0  0  0  0  3  0  0  0  0  0  0
  -24.4190  -29.4940   20.1460 C   0  0  0  0  0  0  0  0  0  0  0  0
  -25.6350  -31.2100   21.4910 C   0  0  0  0  0  2  0  0  0  0  0  0
  -25.6400  -29.9410   20.6600 C   0  0  0  0  0  0  0  0  0  0  0  0
  -26.8270  -29.2160   20.4000 C   0  0  0  0  0  3  0  0  0  0  0  0
  -25.5440  -27.5750   19.1700 C   0  0  0  0  0  3  0  0  0  0  0  0
  -24.3610  -28.2970   19.4180 C   0  0  0  0  0  3  0  0  0  0  0  0
  -23.1980  -30.3430   20.4250 C   0  0  0  0  0  2  0  0  0  0  0  0
  -24.4540  -31.3410   22.3870 N   0  0  0  0  0  0  0  0  0  0  0  0
  -23.4940  -32.1610   24.2670 O   0  0  0  0  0  0  0  0  0  0  0  0
  -22.5750  -29.6610   22.7590 C   0  0  0  0  0  0  0  0  0  0  0  0
  -21.2720  -29.3790   22.6050 N   0  0  0  0  0  0  0  0  0  0  0  0
  -23.3080  -29.0250   23.5200 O   0  0  0  0  0  0  0  0  0  0  0  0
  -20.7220  -30.0030   22.0330 H   0  0  0  0  0  0  0  0  0  0  0  0
  -18.1230  -27.6060   22.6670 C   0  0  0  0  0  0  0  0  0  0  0  0
  -20.5440  -28.2880   23.2590 C   0  0  0  0  0  3  0  0  0  0  0  0
  -20.9630  -26.9040   22.7040 C   0  0  0  0  0  2  0  0  0  0  0  0
  -20.0650  -26.3710   21.5840 C   0  0  0  0  0  2  0  0  0  0  0  0
  -18.5960  -26.3160   22.0160 C   0  0  0  0  0  2  0  0  0  0  0  0
  -19.0330  -28.5350   23.2320 C   0  0  0  0  0  0  0  0  0  0  0  0
  -18.5350  -29.7300   23.7900 C   0  0  0  0  0  3  0  0  0  0  0  0
  -17.1560  -30.0130   23.7840 C   0  0  0  0  0  3  0  0  0  0  0  0
  -16.2600  -29.0830   23.2310 C   0  0  0  0  0  3  0  0  0  0  0  0
  -16.7440  -27.8830   22.6820 C   0  0  0  0  0  3  0  0  0  0  0  0
  -25.8590  -32.5200   24.1640 C   0  0  0  0  0  3  0  0  0  0  0  0
  -25.6870  -33.9600   24.3990 N   0  0  0  0  0  0  0  0  0  0  0  0
  -26.1530  -34.9260   23.5970 C   0  0  0  0  0  0  0  0  0  0  0  0
  -26.8460  -34.6930   22.6030 O   0  0  0  0  0  0  0  0  0  0  0  0
  -25.0860  -34.2210   25.1690 H   0  0  0  0  0  0  0  0  0  0  0  0
  -24.6740  -36.8810   23.0310 C   0  0  0  0  0  1  0  0  0  0  0  0
  -25.7950  -36.3820   23.9550 C   0  0  0  0  0  3  0  0  0  0  0  0
  -27.9460  -37.0710   24.9180 C   0  0  0  0  0  1  0  0  0  0  0  0
  -26.9460  -37.3070   23.8790 N   0  0  0  0  0  0  0  0  0  0  0  0
  -26.6380  -38.2730   23.9520 H   0  0  0  0  0  0  0  0  0  0  0  0
  -26.3130  -31.7900   25.4860 C   0  0  1  0  0  0  0  0  0  0  0  0
  -25.2260  -31.7530   26.5840 C   0  0  0  0  0  1  0  0  0  0  0  0
  -26.7320  -30.3340   25.1810 C   0  0  0  0  0  1  0  0  0  0  0  0
  -27.5550  -32.4980   26.0760 C   0  0  0  0  0  1  0  0  0  0  0  0
  1  2  1  0
  2  5  1  0
  2  4  1  0
  3  2  1  0
  6  7  1  0
  7 10  2  0
  8 11  2  0
  9  6  2  0
  9  8  1  0
 10  5  1  0
 11 10  1  0
 11 12  1  0
 13  9  1  0
 14 20  1  0
 14 22  1  0
 15 20  1  0
 16 15  1  0
 16 17  1  0
 18 17  1  0
 18 19  1  0
 18 27  1  0
 20 19  1  0
 21 14  2  0
 22 13  1  0
 23 22  1  0
 24 25  2  0
 25 44  1  0
 26 25  1  0
 26 29  1  0
 27 28  1  0
 27 24  1  0
 28 26  2  0
 29 34  2  0
 29 30  1  0
 30 31  2  0
 31 32  1  0
 32 35  1  0
 33 32  2  0
 34 33  1  0
 35 36  1  0
 36 37  1  0
 37 38  2  0
 39 38  1  0
 39 43  1  0
 40 39  2  0
 41 36  2  0
 41 40  1  0
 42 41  1  0
 44 45  1  0
 45 47  1  0
 45 48  1  0
 46 44  2  0
 49 24  1  0
 49 50  1  0
 51 49  1  0
 52  1  1  0
 53 52  1  0
 53 59  1  0
 54 58  1  0
 56 54  1  0
 56 59  1  0
 57 55  1  0
 58 55  1  0
 58 61  1  0
 59 57  1  0
 59 60  1  6
 61 63  1  0
 62 73  2  0
 63 68  1  0
 64 72  1  0
 64 74  1  0
 65 71  1  0
 65 67  1  0
 66 72  1  0
 67 66  1  0
 68 67  2  0
 69 70  1  0
 69 63  2  0
 70 65  2  0
 71 64  1  0
 72 62  1  0
 74 76  2  0
 75 74  1  0
 77 75  1  0
 78 87  2  0
 78 83  1  0
 79 75  1  0
 80 79  1  0
 81 82  1  0
 81 80  1  0
 82 78  1  0
 83 79  1  0
 83 84  2  0
 85 84  1  0
 86 85  2  0
 87 86  1  0
 88 62  1  0
 88 89  1  0
 88 98  1  0
 89 92  1  0
 90 94  1  0
 90 89  1  0
 91 90  2  0
 94 93  1  0
 96 97  1  0
 96 94  1  0
 96 95  1  0
 98101  1  1
 98 99  1  0
100 98  1  0
M  ISO  4  14 100  22 100  58 101  61 101
M  END
>  <TORSDO>  (62) 
F 23

>  <SCORE>  (62) 
-6.209

>  <name>  (62) 
61

>  <ligand_id>  (62) 
61

>  <original_smiles>  (62) 
[H]c1c([H])c([H])c2c(c1[H])C([H])([H])C([H])([H])C([H])([H])C2([H])N([H])C(=O)C1([H])N(C(=O)C([H])(N([H])C(=O)C([H])(N([H])C([H])([H])[H])C([H])([H])[H])C(C([H])([H])[H])(C([H])([H])[H])C([H])([H])[H])C([H])([H])c2c([H])c(OC3([H])C([H])([H])C([H])([H])[N+]([H])(C([H])([H])C([H])([H])C([H])([H])[N+]([H])([H])C([H])([H])c4c([H])c([H])c(C([H])([H])N([H])C(=O)N5C([H])([H])C([H])([H])C([H])([H])C([H])(n6nc(-c7c([H])c([H])c(Oc8c([H])c([H])c(F)c([H])c8F)c([H])c7[H])c(C(=O)N([H])[H])c6N([H])[H])C5([H])[H])c([H])c4C([H])([H])[H])C([H])([H])C3([H])[H])c([H])c([H])c2C1([H])[H]

>  <smiles>  (62) 
[H]c1c([H])c([H])c2c(c1[H])C([H])([H])C([H])([H])C([H])([H])C2([H])N([H])C(=O)C1([H])N(C(=O)C([H])(N([H])C(=O)C([H])(N([H])C([H])([H])[H])C([H])([H])[H])C(C([H])([H])[H])(C([H])([H])[H])C([H])([H])[H])C([H])([H])c2c([H])c(OC3([H])C([H])([H])C([H])([H])[N+]([H])(C([H])([H])C([H])([H])C([H])([H])[N+]([H])([H])C([H])([H])c4c([H])c([H])c(C([H])([H])N([H])C(=O)N5C([H])([H])C([H])([H])C([H])([H])C([H])(n6nc(-c7c([H])c([H])c(Oc8c([H])c([H])c(F)c([H])c8F)c([H])c7[H])c(C(=O)N([H])[H])c6N([H])[H])C5([H])[H])c([H])c4C([H])([H])[H])C([H])([H])C3([H])[H])c([H])c([H])c2C1([H])[H]

$$$$
62:0:0
     RDKit          3D

 97106  0  0  1  0  0  0  0  0999 V2000
  -30.2790  -24.3260   20.9090 C   0  0  0  0  0  2  0  0  0  0  0  0
  -30.5650  -25.2190   22.1470 C   0  0  0  0  0  2  0  0  0  0  0  0
  -28.1390  -25.3800   22.7360 C   0  0  0  0  0  2  0  0  0  0  0  0
  -28.7940  -23.9270   20.7320 C   0  0  0  0  0  3  0  0  0  0  0  0
  -27.9390  -25.1720   21.1950 C   0  0  0  0  0  3  0  0  0  0  0  0
  -29.5310  -25.1030   23.2020 N   0  0  0  0  0  4  0  0  0  0  0  0
  -29.7590  -25.7320   23.9600 H   0  0  0  0  0  0  0  0  0  0  0  0
  -29.5880  -24.1810   23.6140 H   0  0  0  0  0  0  0  0  0  0  0  0
  -28.4560  -22.5220   21.3900 C   0  0  0  0  0  0  0  0  0  0  0  0
  -29.2240  -21.4350   21.0890 N   0  0  0  0  0  0  0  0  0  0  0  0
  -27.4870  -22.4110   22.1390 O   0  0  0  0  0  0  0  0  0  0  0  0
  -30.0210  -21.6220   20.5000 H   0  0  0  0  0  0  0  0  0  0  0  0
  -29.8790  -19.2770   22.3290 C   0  0  0  0  0  2  0  0  0  0  0  0
  -29.0820  -19.2720   19.9390 C   0  0  0  0  0  2  0  0  0  0  0  0
  -29.8080  -17.7110   22.3250 C   0  0  0  0  0  2  0  0  0  0  0  0
  -29.0360  -17.7180   19.9540 C   0  0  0  0  0  2  0  0  0  0  0  0
  -28.9340  -19.9810   21.3040 C   0  0  0  0  0  3  0  0  0  0  0  0
  -30.0250  -17.0490   20.9410 C   0  0  0  0  0  3  0  0  0  0  0  0
  -30.6250  -14.5560   20.5550 C   0  0  0  0  0  0  0  0  0  0  0  0
  -30.4270  -12.3490   19.4310 C   0  0  0  0  0  2  0  0  0  0  0  0
  -29.5060  -12.5100   18.2020 C   0  0  0  0  0  2  0  0  0  0  0  0
  -28.0260  -12.3630   18.6080 C   0  0  0  0  0  2  0  0  0  0  0  0
  -27.6540  -13.2090   19.8570 C   0  0  0  0  0  3  0  0  0  0  0  0
  -28.6890  -13.0070   20.9850 C   0  0  0  0  0  2  0  0  0  0  0  0
  -30.0160  -13.3430   20.4390 N   0  0  0  0  0  0  0  0  0  0  0  0
  -31.7690  -14.7590   20.1330 O   0  0  0  0  0  0  0  0  0  0  0  0
  -29.8250  -15.5720   20.9790 N   0  0  0  0  0  0  0  0  0  0  0  0
  -28.8990  -15.2720   21.2530 H   0  0  0  0  0  0  0  0  0  0  0  0
  -25.2640  -13.8190   20.5600 C   0  0  0  0  0  0  0  0  0  0  0  0
  -24.1890  -13.0460   20.9140 C   0  0  0  0  0  0  0  0  0  0  0  0
  -24.6410  -11.6940   20.8700 C   0  0  0  0  0  0  0  0  0  0  0  0
  -26.3020  -12.9320   20.3220 N   0  0  0  0  0  0  0  0  0  0  0  0
  -25.9340  -11.6480   20.5660 N   0  0  0  0  0  0  0  0  0  0  0  0
  -23.9060  -10.4320   21.0320 C   0  0  0  0  0  0  0  0  0  0  0  0
  -24.3650   -9.4270   21.9090 C   0  0  0  0  0  3  0  0  0  0  0  0
  -23.6350   -8.2300   22.0700 C   0  0  0  0  0  3  0  0  0  0  0  0
  -22.4320   -8.0290   21.3510 C   0  0  0  0  0  0  0  0  0  0  0  0
  -21.9940   -9.0240   20.4600 C   0  0  0  0  0  3  0  0  0  0  0  0
  -22.7250  -10.2130   20.2980 C   0  0  0  0  0  3  0  0  0  0  0  0
  -21.6700   -6.8900   21.4250 O   0  0  0  0  0  0  0  0  0  0  0  0
  -21.6900   -6.0740   22.5280 C   0  0  0  0  0  0  0  0  0  0  0  0
  -21.4020   -6.5630   23.8200 C   0  0  0  0  0  3  0  0  0  0  0  0
  -21.3670   -5.6770   24.9150 C   0  0  0  0  0  3  0  0  0  0  0  0
  -21.6050   -4.3030   24.7210 C   0  0  0  0  0  0  0  0  0  0  0  0
  -21.8840   -3.8140   23.4320 C   0  0  0  0  0  3  0  0  0  0  0  0
  -21.9210   -4.6960   22.3360 C   0  0  0  0  0  0  0  0  0  0  0  0
  -22.1680   -4.2150   21.0920 F   0  0  0  0  0  0  0  0  0  0  0  0
  -21.5620   -3.4500   25.7700 F   0  0  0  0  0  0  0  0  0  0  0  0
  -22.7930  -13.5250   21.1800 C   0  0  0  0  0  0  0  0  0  0  0  0
  -22.0560  -12.8250   22.0350 N   0  0  0  0  0  0  0  0  0  0  0  0
  -22.3580  -14.5510   20.6640 O   0  0  0  0  0  0  0  0  0  0  0  0
  -22.4200  -12.0000   22.4850 H   0  0  0  0  0  0  0  0  0  0  0  0
  -21.1110  -13.1210   22.2450 H   0  0  0  0  0  0  0  0  0  0  0  0
  -25.4360  -15.1920   20.4070 N   0  0  0  0  0  0  0  0  0  0  0  0
  -24.6700  -15.8480   20.5200 H   0  0  0  0  0  0  0  0  0  0  0  0
  -26.2840  -15.6320   20.0780 H   0  0  0  0  0  0  0  0  0  0  0  0
  -28.2510  -26.4250   20.4350 O   0  0  0  0  0  0  0  0  0  0  0  0
  -24.6220  -31.8600   23.2030 C   0  0  0  0  0  0  0  0  0  0  0  0
  -27.2010  -27.3200   20.2520 C   0  0  0  0  0  0  0  0  0  0  0  0
  -23.4190  -30.4890   21.5330 C   0  0  0  0  0  3  0  0  0  0  0  0
  -24.8750  -28.9490   20.1040 C   0  0  0  0  0  0  0  0  0  0  0  0
  -25.9470  -30.8220   21.3540 C   0  0  0  0  0  2  0  0  0  0  0  0
  -26.0330  -29.4420   20.7220 C   0  0  0  0  0  0  0  0  0  0  0  0
  -27.2090  -28.6450   20.7720 C   0  0  0  0  0  3  0  0  0  0  0  0
  -26.0470  -26.8840   19.5700 C   0  0  0  0  0  3  0  0  0  0  0  0
  -24.8910  -27.6800   19.5000 C   0  0  0  0  0  3  0  0  0  0  0  0
  -23.6370  -29.8230   20.1450 C   0  0  0  0  0  2  0  0  0  0  0  0
  -24.6810  -31.0750   22.0900 N   0  0  0  0  0  0  0  0  0  0  0  0
  -23.5380  -32.1350   23.7380 O   0  0  0  0  0  0  0  0  0  0  0  0
  -22.7430  -29.4710   22.4840 C   0  0  0  0  0  0  0  0  0  0  0  0
  -21.4160  -29.3060   22.3590 N   0  0  0  0  0  0  0  0  0  0  0  0
  -23.4170  -28.8200   23.2890 O   0  0  0  0  0  0  0  0  0  0  0  0
  -20.9270  -29.8810   21.6860 H   0  0  0  0  0  0  0  0  0  0  0  0
  -18.0290  -28.1380   22.8510 C   0  0  0  0  0  0  0  0  0  0  0  0
  -20.5900  -28.3700   23.1250 C   0  0  0  0  0  3  0  0  0  0  0  0
  -20.6770  -26.9420   22.5420 C   0  0  0  0  0  2  0  0  0  0  0  0
  -19.5750  -26.6380   21.5200 C   0  0  0  0  0  2  0  0  0  0  0  0
  -18.1910  -26.7920   22.1610 C   0  0  0  0  0  2  0  0  0  0  0  0
  -19.1550  -28.8830   23.2900 C   0  0  0  0  0  0  0  0  0  0  0  0
  -18.9480  -30.1420   23.8930 C   0  0  0  0  0  3  0  0  0  0  0  0
  -17.6470  -30.6590   24.0560 C   0  0  0  0  0  3  0  0  0  0  0  0
  -16.5350  -29.9130   23.6310 C   0  0  0  0  0  3  0  0  0  0  0  0
  -16.7260  -28.6530   23.0350 C   0  0  0  0  0  3  0  0  0  0  0  0
  -25.9050  -32.4790   23.8370 C   0  0  0  0  0  3  0  0  0  0  0  0
  -25.5850  -33.8600   24.2260 N   0  0  0  0  0  0  0  0  0  0  0  0
  -25.9030  -34.9470   23.5110 C   0  0  0  0  0  0  0  0  0  0  0  0
  -26.5640  -34.8930   22.4700 O   0  0  0  0  0  0  0  0  0  0  0  0
  -24.9860  -33.9720   25.0310 H   0  0  0  0  0  0  0  0  0  0  0  0
  -24.1490  -36.7340   23.2660 C   0  0  0  0  0  1  0  0  0  0  0  0
  -25.4090  -36.3090   24.0340 C   0  0  0  0  0  3  0  0  0  0  0  0
  -27.5570  -37.1810   24.8440 C   0  0  0  0  0  1  0  0  0  0  0  0
  -26.4250  -37.3780   23.9410 N   0  0  0  0  0  0  0  0  0  0  0  0
  -26.0180  -38.2870   24.1440 H   0  0  0  0  0  0  0  0  0  0  0  0
  -26.4460  -31.6580   25.0700 C   0  0  1  0  0  0  0  0  0  0  0  0
  -25.3730  -31.3660   26.1430 C   0  0  0  0  0  1  0  0  0  0  0  0
  -27.0280  -30.3030   24.6060 C   0  0  0  0  0  1  0  0  0  0  0  0
  -27.6030  -32.4290   25.7440 C   0  0  0  0  0  1  0  0  0  0  0  0
  1  2  1  0
  2  6  1  0
  3  6  1  0
  4  1  1  0
  4  5  1  0
  4  9  1  0
  5 57  1  0
  5  3  1  0
  6  8  1  0
  6  7  1  0
  9 11  2  0
 10  9  1  0
 12 10  1  0
 14 16  1  0
 14 17  1  0
 15 13  1  0
 16 18  1  0
 17 10  1  0
 17 13  1  0
 18 27  1  0
 18 15  1  0
 19 27  1  0
 20 25  1  0
 21 22  1  0
 21 20  1  0
 23 22  1  0
 23 32  1  0
 23 24  1  0
 25 19  1  0
 25 24  1  0
 26 19  2  0
 27 28  1  0
 29 30  2  0
 30 49  1  0
 31 30  1  0
 31 34  1  0
 32 29  1  0
 32 33  1  0
 33 31  2  0
 34 35  1  0
 35 36  2  0
 37 40  1  0
 37 36  1  0
 38 37  2  0
 39 38  1  0
 39 34  2  0
 40 41  1  0
 41 42  1  0
 42 43  2  0
 44 43  1  0
 44 48  1  0
 45 44  2  0
 46 41  2  0
 46 45  1  0
 47 46  1  0
 49 50  1  0
 50 53  1  0
 50 52  1  0
 51 49  2  0
 54 55  1  0
 54 29  1  0
 56 54  1  0
 58 69  2  0
 59 57  1  0
 59 64  1  0
 60 68  1  0
 60 70  1  0
 61 67  1  0
 61 63  1  0
 62 68  1  0
 63 64  2  0
 63 62  1  0
 65 59  2  0
 66 65  1  0
 66 61  2  0
 67 60  1  0
 68 58  1  0
 70 72  2  0
 71 70  1  0
 73 71  1  0
 74 83  2  0
 74 79  1  0
 75 71  1  0
 75 79  1  0
 76 75  1  0
 77 78  1  0
 77 76  1  0
 78 74  1  0
 79 80  2  0
 80 81  1  0
 82 81  2  0
 83 82  1  0
 84 58  1  0
 84 85  1  0
 84 94  1  0
 85 88  1  0
 86 90  1  0
 86 85  1  0
 87 86  2  0
 90 89  1  0
 92 90  1  0
 92 93  1  0
 92 91  1  0
 94 97  1  1
 94 95  1  0
 96 94  1  0
M  ISO  4   5 101  19 100  27 100  57 101
M  END
>  <TORSDO>  (63) 
F 18

>  <SCORE>  (63) 
-12.697

>  <name>  (63) 
62

>  <ligand_id>  (63) 
62

>  <original_smiles>  (63) 
[H]c1c([H])c([H])c2c(c1[H])C([H])([H])C([H])([H])C([H])([H])C2([H])N([H])C(=O)C1([H])N(C(=O)C([H])(N([H])C(=O)C([H])(N([H])C([H])([H])[H])C([H])([H])[H])C(C([H])([H])[H])(C([H])([H])[H])C([H])([H])[H])C([H])([H])c2c([H])c(OC3([H])C([H])(C(=O)N([H])C4([H])C([H])([H])C([H])([H])C([H])(N([H])C(=O)N5C([H])([H])C([H])([H])C([H])([H])C([H])(n6nc(-c7c([H])c([H])c(Oc8c([H])c([H])c(F)c([H])c8F)c([H])c7[H])c(C(=O)N([H])[H])c6N([H])[H])C5([H])[H])C([H])([H])C4([H])[H])C([H])([H])C([H])([H])[N+]([H])([H])C3([H])[H])c([H])c([H])c2C1([H])[H]

>  <smiles>  (63) 
[H]c1c([H])c([H])c2c(c1[H])C([H])([H])C([H])([H])C([H])([H])C2([H])N([H])C(=O)C1([H])N(C(=O)C([H])(N([H])C(=O)C([H])(N([H])C([H])([H])[H])C([H])([H])[H])C(C([H])([H])[H])(C([H])([H])[H])C([H])([H])[H])C([H])([H])c2c([H])c(OC3([H])C([H])(C(=O)N([H])C4([H])C([H])([H])C([H])([H])C([H])(N([H])C(=O)N5C([H])([H])C([H])([H])C([H])([H])C([H])(n6nc(-c7c([H])c([H])c(Oc8c([H])c([H])c(F)c([H])c8F)c([H])c7[H])c(C(=O)N([H])[H])c6N([H])[H])C5([H])[H])C([H])([H])C4([H])[H])C([H])([H])C([H])([H])[N+]([H])([H])C3([H])[H])c([H])c([H])c2C1([H])[H]

$$$$
63:0:0
     RDKit          3D

 96105  0  0  1  0  0  0  0  0999 V2000
  -30.0820  -24.8930   22.3030 C   0  0  0  0  0  3  0  0  0  0  0  0
  -30.7260  -23.6410   22.3540 C   0  0  0  0  0  3  0  0  0  0  0  0
  -30.3490  -24.9280   19.8850 C   0  0  0  0  0  3  0  0  0  0  0  0
  -29.8730  -25.5340   21.0650 C   0  0  0  0  0  0  0  0  0  0  0  0
  -30.9890  -23.6720   19.9290 C   0  0  0  0  0  0  0  0  0  0  0  0
  -31.1690  -23.0090   21.1680 C   0  0  0  0  0  0  0  0  0  0  0  0
  -31.4510  -23.0380   18.6270 C   0  0  0  0  0  1  0  0  0  0  0  0
  -31.7740  -21.7430   21.1800 N   0  0  0  0  0  0  0  0  0  0  0  0
  -31.8600  -21.2760   20.2840 H   0  0  0  0  0  0  0  0  0  0  0  0
  -31.5930  -20.8570   22.3240 C   0  0  0  0  0  2  0  0  0  0  0  0
  -29.9980  -18.9080   22.0480 C   0  0  0  0  0  3  0  0  0  0  0  0
  -32.3300  -18.5880   21.4210 C   0  0  0  0  0  3  0  0  0  0  0  0
  -29.7240  -17.5680   21.7160 C   0  0  0  0  0  3  0  0  0  0  0  0
  -32.0550  -17.2460   21.0830 C   0  0  0  0  0  3  0  0  0  0  0  0
  -31.3040  -19.4230   21.9160 C   0  0  0  0  0  0  0  0  0  0  0  0
  -30.7450  -16.7270   21.2280 C   0  0  0  0  0  0  0  0  0  0  0  0
  -30.9160  -14.5140   20.0710 C   0  0  0  0  0  0  0  0  0  0  0  0
  -30.5000  -12.4090   18.8420 C   0  0  0  0  0  2  0  0  0  0  0  0
  -29.5280  -12.6520   17.6710 C   0  0  0  0  0  2  0  0  0  0  0  0
  -28.0660  -12.5250   18.1420 C   0  0  0  0  0  2  0  0  0  0  0  0
  -27.7830  -13.3660   19.4160 C   0  0  0  0  0  3  0  0  0  0  0  0
  -28.8600  -13.1070   20.4940 C   0  0  0  0  0  2  0  0  0  0  0  0
  -30.1870  -13.3780   19.9020 N   0  0  0  0  0  0  0  0  0  0  0  0
  -31.9540  -14.7430   19.4400 O   0  0  0  0  0  0  0  0  0  0  0  0
  -30.3980  -15.3740   20.9630 N   0  0  0  0  0  0  0  0  0  0  0  0
  -29.5320  -15.0570   21.3730 H   0  0  0  0  0  0  0  0  0  0  0  0
  -25.4170  -14.0220   20.1930 C   0  0  0  0  0  0  0  0  0  0  0  0
  -24.3470  -13.2710   20.6010 C   0  0  0  0  0  0  0  0  0  0  0  0
  -24.7820  -11.9100   20.5600 C   0  0  0  0  0  0  0  0  0  0  0  0
  -26.4380  -13.1200   19.9340 N   0  0  0  0  0  0  0  0  0  0  0  0
  -26.0600  -11.8460   20.2090 N   0  0  0  0  0  0  0  0  0  0  0  0
  -24.0390  -10.6630   20.7780 C   0  0  0  0  0  0  0  0  0  0  0  0
  -24.4360   -9.7300   21.7610 C   0  0  0  0  0  3  0  0  0  0  0  0
  -23.6970   -8.5450   21.9640 C   0  0  0  0  0  3  0  0  0  0  0  0
  -22.5450   -8.2860   21.1850 C   0  0  0  0  0  0  0  0  0  0  0  0
  -22.1660   -9.2060   20.1920 C   0  0  0  0  0  3  0  0  0  0  0  0
  -22.9070  -10.3820   19.9870 C   0  0  0  0  0  3  0  0  0  0  0  0
  -21.7790   -7.1500   21.2930 O   0  0  0  0  0  0  0  0  0  0  0  0
  -21.6400   -6.4870   22.4860 C   0  0  0  0  0  0  0  0  0  0  0  0
  -21.1220   -7.1210   23.6350 C   0  0  0  0  0  3  0  0  0  0  0  0
  -20.9300   -6.3830   24.8210 C   0  0  0  0  0  3  0  0  0  0  0  0
  -21.2480   -5.0120   24.8570 C   0  0  0  0  0  0  0  0  0  0  0  0
  -21.7600   -4.3780   23.7110 C   0  0  0  0  0  3  0  0  0  0  0  0
  -21.9530   -5.1140   22.5290 C   0  0  0  0  0  0  0  0  0  0  0  0
  -22.4260   -4.4920   21.4220 F   0  0  0  0  0  0  0  0  0  0  0  0
  -21.0570   -4.3010   25.9920 F   0  0  0  0  0  0  0  0  0  0  0  0
  -22.9680  -13.7740   20.9150 C   0  0  0  0  0  0  0  0  0  0  0  0
  -22.2660  -13.1090   21.8260 N   0  0  0  0  0  0  0  0  0  0  0  0
  -22.5220  -14.7910   20.3860 O   0  0  0  0  0  0  0  0  0  0  0  0
  -22.6420  -12.2860   22.2740 H   0  0  0  0  0  0  0  0  0  0  0  0
  -21.3400  -13.4240   22.0780 H   0  0  0  0  0  0  0  0  0  0  0  0
  -25.5990  -15.3870   19.9990 N   0  0  0  0  0  0  0  0  0  0  0  0
  -24.8360  -16.0490   20.0870 H   0  0  0  0  0  0  0  0  0  0  0  0
  -26.4380  -15.8010   19.6110 H   0  0  0  0  0  0  0  0  0  0  0  0
  -29.1120  -26.8460   20.9880 C   0  0  0  0  0  2  0  0  0  0  0  0
  -28.1420  -26.7770   19.9470 O   0  0  0  0  0  0  0  0  0  0  0  0
  -24.3870  -31.8970   23.2350 C   0  0  0  0  0  0  0  0  0  0  0  0
  -27.0100  -27.5480   20.0440 C   0  0  0  0  0  0  0  0  0  0  0  0
  -23.1540  -30.5130   21.5930 C   0  0  0  0  0  3  0  0  0  0  0  0
  -24.5940  -29.0050   20.1230 C   0  0  0  0  0  0  0  0  0  0  0  0
  -25.6690  -30.9000   21.3500 C   0  0  0  0  0  2  0  0  0  0  0  0
  -25.7540  -29.5370   20.7010 C   0  0  0  0  0  0  0  0  0  0  0  0
  -26.9630  -28.8140   20.6700 C   0  0  0  0  0  3  0  0  0  0  0  0
  -25.8370  -27.0280   19.4550 C   0  0  0  0  0  3  0  0  0  0  0  0
  -24.6280  -27.7440   19.5020 C   0  0  0  0  0  3  0  0  0  0  0  0
  -23.3420  -29.8490   20.2010 C   0  0  0  0  0  2  0  0  0  0  0  0
  -24.4220  -31.1160   22.1180 N   0  0  0  0  0  0  0  0  0  0  0  0
  -23.3170  -32.1560   23.8010 O   0  0  0  0  0  0  0  0  0  0  0  0
  -22.5260  -29.4760   22.5500 C   0  0  0  0  0  0  0  0  0  0  0  0
  -21.2090  -29.2520   22.4090 N   0  0  0  0  0  0  0  0  0  0  0  0
  -23.2220  -28.8730   23.3710 O   0  0  0  0  0  0  0  0  0  0  0  0
  -20.7060  -29.7990   21.7230 H   0  0  0  0  0  0  0  0  0  0  0  0
  -17.8800  -27.9150   22.8150 C   0  0  0  0  0  0  0  0  0  0  0  0
  -20.4120  -28.2890   23.1670 C   0  0  0  0  0  3  0  0  0  0  0  0
  -20.5970  -26.8540   22.6180 C   0  0  0  0  0  2  0  0  0  0  0  0
  -19.5440  -26.4670   21.5740 C   0  0  0  0  0  2  0  0  0  0  0  0
  -18.1370  -26.5610   22.1720 C   0  0  0  0  0  2  0  0  0  0  0  0
  -18.9500  -28.7310   23.2670 C   0  0  0  0  0  0  0  0  0  0  0  0
  -18.6570  -29.9960   23.8240 C   0  0  0  0  0  3  0  0  0  0  0  0
  -17.3270  -30.4450   23.9350 C   0  0  0  0  0  3  0  0  0  0  0  0
  -16.2720  -29.6240   23.5020 C   0  0  0  0  0  3  0  0  0  0  0  0
  -16.5480  -28.3620   22.9470 C   0  0  0  0  0  3  0  0  0  0  0  0
  -25.6840  -32.5190   23.8410 C   0  0  0  0  0  3  0  0  0  0  0  0
  -26.2100  -31.7450   25.1130 C   0  0  1  0  0  0  0  0  0  0  0  0
  -25.1290  -31.5140   26.1940 C   0  0  0  0  0  1  0  0  0  0  0  0
  -26.7790  -30.3640   24.7100 C   0  0  0  0  0  1  0  0  0  0  0  0
  -27.3730  -32.5330   25.7590 C   0  0  0  0  0  1  0  0  0  0  0  0
  -25.3880  -33.9210   24.1670 N   0  0  0  0  0  0  0  0  0  0  0  0
  -25.7260  -34.9660   23.3990 C   0  0  0  0  0  0  0  0  0  0  0  0
  -26.3880  -34.8500   22.3630 O   0  0  0  0  0  0  0  0  0  0  0  0
  -24.7900  -34.0830   24.9640 H   0  0  0  0  0  0  0  0  0  0  0  0
  -24.0080  -36.7690   23.0420 C   0  0  0  0  0  1  0  0  0  0  0  0
  -25.2510  -36.3610   23.8490 C   0  0  0  0  0  3  0  0  0  0  0  0
  -27.4000  -37.2310   24.6570 C   0  0  0  0  0  1  0  0  0  0  0  0
  -26.2880  -37.4080   23.7270 N   0  0  0  0  0  0  0  0  0  0  0  0
  -25.8880  -38.3300   23.8820 H   0  0  0  0  0  0  0  0  0  0  0  0
  1  2  1  0
  3  5  2  0
  3  4  1  0
  4  1  2  0
  5  6  1  0
  6  8  1  0
  6  2  2  0
  7  5  1  0
  8 10  1  0
  9  8  1  0
 12 15  2  0
 13 11  2  0
 14 16  2  0
 14 12  1  0
 15 11  1  0
 15 10  1  0
 16 13  1  0
 17 25  1  0
 18 23  1  0
 19 20  1  0
 19 18  1  0
 21 20  1  0
 21 30  1  0
 21 22  1  0
 23 17  1  0
 23 22  1  0
 24 17  2  0
 25 16  1  0
 25 26  1  0
 27 28  2  0
 28 47  1  0
 29 28  1  0
 29 32  1  0
 30 27  1  0
 30 31  1  0
 31 29  2  0
 32 33  1  0
 33 34  2  0
 35 38  1  0
 35 34  1  0
 36 35  2  0
 37 36  1  0
 37 32  2  0
 38 39  1  0
 39 44  2  0
 39 40  1  0
 40 41  2  0
 41 42  1  0
 42 46  1  0
 43 42  2  0
 44 43  1  0
 45 44  1  0
 47 48  1  0
 48 51  1  0
 48 50  1  0
 49 47  2  0
 52 53  1  0
 52 27  1  0
 54 52  1  0
 55  4  1  0
 56 58  1  0
 56 55  1  0
 57 68  2  0
 58 63  1  0
 59 67  1  0
 59 69  1  0
 60 66  1  0
 60 62  1  0
 61 67  1  0
 62 61  1  0
 63 62  2  0
 64 65  1  0
 64 58  2  0
 65 60  2  0
 66 59  1  0
 67 57  1  0
 69 71  2  0
 70 69  1  0
 72 70  1  0
 73 82  2  0
 73 78  1  0
 74 70  1  0
 74 78  1  0
 75 74  1  0
 76 77  1  0
 76 75  1  0
 77 73  1  0
 78 79  2  0
 79 80  1  0
 81 80  2  0
 82 81  1  0
 83 57  1  0
 83 88  1  0
 83 84  1  0
 84 87  1  1
 84 85  1  0
 86 84  1  0
 88 91  1  0
 89 93  1  0
 89 88  1  0
 90 89  2  0
 93 92  1  0
 95 93  1  0
 95 96  1  0
 95 94  1  0
M  ISO  4  17 100  25 100  55 101  56 101
M  END
>  <TORSDO>  (64) 
F 20

>  <SCORE>  (64) 
-12.141

>  <name>  (64) 
63

>  <ligand_id>  (64) 
63

>  <original_smiles>  (64) 
[H]c1c([H])c([H])c2c(c1[H])C([H])([H])C([H])([H])C([H])([H])C2([H])N([H])C(=O)C1([H])N(C(=O)C([H])(N([H])C(=O)C([H])(N([H])C([H])([H])[H])C([H])([H])[H])C(C([H])([H])[H])(C([H])([H])[H])C([H])([H])[H])C([H])([H])c2c([H])c(OC([H])([H])c3c([H])c([H])c(N([H])C([H])([H])c4c([H])c([H])c(N([H])C(=O)N5C([H])([H])C([H])([H])C([H])([H])C([H])(n6nc(-c7c([H])c([H])c(Oc8c([H])c([H])c(F)c([H])c8F)c([H])c7[H])c(C(=O)N([H])[H])c6N([H])[H])C5([H])[H])c([H])c4[H])c(C([H])([H])[H])c3[H])c([H])c([H])c2C1([H])[H]

>  <smiles>  (64) 
[H]c1c([H])c([H])c2c(c1[H])C([H])([H])C([H])([H])C([H])([H])C2([H])N([H])C(=O)C1([H])N(C(=O)C([H])(N([H])C(=O)C([H])(N([H])C([H])([H])[H])C([H])([H])[H])C(C([H])([H])[H])(C([H])([H])[H])C([H])([H])[H])C([H])([H])c2c([H])c(OC([H])([H])c3c([H])c([H])c(N([H])C([H])([H])c4c([H])c([H])c(N([H])C(=O)N5C([H])([H])C([H])([H])C([H])([H])C([H])(n6nc(-c7c([H])c([H])c(Oc8c([H])c([H])c(F)c([H])c8F)c([H])c7[H])c(C(=O)N([H])[H])c6N([H])[H])C5([H])[H])c([H])c4[H])c(C([H])([H])[H])c3[H])c([H])c([H])c2C1([H])[H]

$$$$
64:0:0
     RDKit          3D

103112  0  0  1  0  0  0  0  0999 V2000
  -28.3500  -18.4910   18.4930 C   0  0  0  0  0  3  0  0  0  0  0  0
  -30.4080  -21.3320   20.0500 C   0  0  0  0  0  3  0  0  0  0  0  0
  -29.9860  -20.0350   19.6940 C   0  0  0  0  0  3  0  0  0  0  0  0
  -27.8360  -20.9310   18.9750 C   0  0  0  0  0  3  0  0  0  0  0  0
  -29.5640  -22.4420   19.8320 C   0  0  0  0  0  0  0  0  0  0  0  0
  -28.2690  -22.2290   19.3180 C   0  0  0  0  0  0  0  0  0  0  0  0
  -28.7110  -19.8330   19.1200 C   0  0  0  0  0  0  0  0  0  0  0  0
  -27.4020  -23.4330   19.0420 C   0  0  0  0  0  2  0  0  0  0  0  0
  -28.2720  -24.5510   18.4560 C   0  0  0  0  0  2  0  0  0  0  0  0
  -30.0760  -23.8620   20.1170 C   0  0  0  0  0  3  0  0  0  0  0  0
  -29.3680  -24.9670   19.3820 N   0  0  1  0  0  4  0  0  0  0  0  0
  -28.8860  -25.4450   20.1280 H   0  0  0  0  0  0  0  0  0  0  0  0
  -30.5100  -27.1920   19.7650 C   0  0  0  0  0  1  0  0  0  0  0  0
  -29.8910  -26.5000   17.4080 C   0  0  0  0  0  1  0  0  0  0  0  0
  -30.2970  -26.0000   18.8130 C   0  0  0  0  0  3  0  0  0  0  0  0
  -28.8400  -24.6920   22.2580 C   0  0  0  0  0  1  0  0  0  0  0  0
  -30.1410  -24.1570   21.6340 C   0  0  0  0  0  2  0  0  0  0  0  0
  -28.9190  -18.4810   17.0010 N   0  0  0  0  0  4  0  0  0  0  0  0
  -28.9960  -17.5190   16.7140 H   0  0  0  0  0  0  0  0  0  0  0  0
  -28.1310  -18.8320   16.4820 H   0  0  0  0  0  0  0  0  0  0  0  0
  -30.1610  -19.2740   16.3820 C   0  0  0  0  0  2  0  0  0  0  0  0
  -30.0700  -20.6980   15.4560 C   0  0  0  0  0  2  0  0  0  0  0  0
  -30.1970  -20.8310   13.7740 C   0  0  0  0  0  2  0  0  0  0  0  0
  -30.8350  -21.9210   12.8580 O   0  0  0  0  0  0  0  0  0  0  0  0
  -33.0010  -28.5700   10.5960 C   0  0  0  0  0  0  0  0  0  0  0  0
  -30.5950  -23.3400   12.8310 C   0  0  0  0  0  0  0  0  0  0  0  0
  -31.5370  -28.4680   12.5770 C   0  0  0  0  0  3  0  0  0  0  0  0
  -30.3310  -26.2320   12.9900 C   0  0  0  0  0  0  0  0  0  0  0  0
  -31.3730  -26.6500   10.7630 C   0  0  0  0  0  2  0  0  0  0  0  0
  -30.8960  -25.6620   11.8420 C   0  0  0  0  0  0  0  0  0  0  0  0
  -31.0110  -24.2250   11.7570 C   0  0  0  0  0  3  0  0  0  0  0  0
  -29.9830  -23.9850   13.9250 C   0  0  0  0  0  3  0  0  0  0  0  0
  -29.8600  -25.3920   14.0120 C   0  0  0  0  0  3  0  0  0  0  0  0
  -30.2560  -27.7490   13.0790 C   0  0  0  0  0  2  0  0  0  0  0  0
  -32.0220  -27.9000   11.2770 N   0  0  0  0  0  0  0  0  0  0  0  0
  -33.4760  -29.6340   11.0240 O   0  0  0  0  0  0  0  0  0  0  0  0
  -32.6090  -28.4400   13.6950 C   0  0  0  0  0  0  0  0  0  0  0  0
  -32.6110  -29.4620   14.5690 N   0  0  0  0  0  0  0  0  0  0  0  0
  -33.4030  -27.5000   13.7750 O   0  0  0  0  0  0  0  0  0  0  0  0
  -31.9390  -30.2040   14.4310 H   0  0  0  0  0  0  0  0  0  0  0  0
  -33.5950  -31.6770   17.2640 C   0  0  0  0  0  0  0  0  0  0  0  0
  -33.5020  -29.6010   15.7250 C   0  0  0  0  0  3  0  0  0  0  0  0
  -32.9450  -28.8450   16.9540 C   0  0  0  0  0  2  0  0  0  0  0  0
  -32.0960  -29.7310   17.8730 C   0  0  0  0  0  2  0  0  0  0  0  0
  -32.9220  -30.9140   18.3900 C   0  0  0  0  0  2  0  0  0  0  0  0
  -33.8520  -31.0680   16.0070 C   0  0  0  0  0  0  0  0  0  0  0  0
  -34.4500  -31.8330   14.9840 C   0  0  0  0  0  3  0  0  0  0  0  0
  -34.7870  -33.1840   15.1990 C   0  0  0  0  0  3  0  0  0  0  0  0
  -34.5420  -33.7800   16.4480 C   0  0  0  0  0  3  0  0  0  0  0  0
  -33.9530  -33.0250   17.4780 C   0  0  0  0  0  3  0  0  0  0  0  0
  -33.5590  -28.0430    9.2380 C   0  0  0  0  0  3  0  0  0  0  0  0
  -33.6620  -29.1930    8.3250 N   0  0  0  0  0  0  0  0  0  0  0  0
  -32.6780  -29.6260    7.5250 C   0  0  0  0  0  0  0  0  0  0  0  0
  -31.5910  -29.0500    7.4380 O   0  0  0  0  0  0  0  0  0  0  0  0
  -34.5010  -29.7520    8.3980 H   0  0  0  0  0  0  0  0  0  0  0  0
  -32.2750  -32.1070    7.3670 C   0  0  0  0  0  1  0  0  0  0  0  0
  -32.9380  -30.8960    6.6900 C   0  0  0  0  0  3  0  0  0  0  0  0
  -33.3260  -29.9550    4.4530 C   0  0  0  0  0  1  0  0  0  0  0  0
  -32.4670  -30.7890    5.2910 N   0  0  0  0  0  0  0  0  0  0  0  0
  -32.4030  -31.7080    4.8620 H   0  0  0  0  0  0  0  0  0  0  0  0
  -34.9600  -27.3270    9.3770 C   0  0  1  0  0  0  0  0  0  0  0  0
  -36.1670  -28.2830    9.2210 C   0  0  0  0  0  1  0  0  0  0  0  0
  -35.0900  -26.6310   10.7520 C   0  0  0  0  0  1  0  0  0  0  0  0
  -35.0860  -26.2130    8.3110 C   0  0  0  0  0  1  0  0  0  0  0  0
  -28.4550  -17.1930   19.5830 C   0  0  0  0  0  2  0  0  0  0  0  0
  -29.1100  -14.5220   20.0240 C   0  0  0  0  0  0  0  0  0  0  0  0
  -30.9580  -12.9060   20.6620 C   0  0  0  0  0  2  0  0  0  0  0  0
  -32.2900  -13.6790   20.8130 C   0  0  0  0  0  2  0  0  0  0  0  0
  -33.0040  -13.8050   19.4540 C   0  0  0  0  0  2  0  0  0  0  0  0
  -32.0390  -14.2410   18.3210 C   0  0  0  0  0  3  0  0  0  0  0  0
  -30.7150  -13.4440   18.3330 C   0  0  0  0  0  2  0  0  0  0  0  0
  -30.1140  -13.6240   19.6600 N   0  0  0  0  0  0  0  0  0  0  0  0
  -28.5880  -14.3630   21.1340 O   0  0  0  0  0  0  0  0  0  0  0  0
  -28.8540  -15.6890   19.2490 N   0  0  0  0  0  0  0  0  0  0  0  0
  -29.2570  -15.6070   18.3270 H   0  0  0  0  0  0  0  0  0  0  0  0
  -32.7190  -15.2130   16.0550 C   0  0  0  0  0  0  0  0  0  0  0  0
  -33.5200  -14.7380   15.0520 C   0  0  0  0  0  0  0  0  0  0  0  0
  -33.9420  -13.4370   15.4640 C   0  0  0  0  0  0  0  0  0  0  0  0
  -32.6830  -14.2160   17.0140 N   0  0  0  0  0  0  0  0  0  0  0  0
  -33.3750  -13.1140   16.6210 N   0  0  0  0  0  0  0  0  0  0  0  0
  -34.8970  -12.5050   14.8500 C   0  0  0  0  0  0  0  0  0  0  0  0
  -34.5100  -11.6240   13.8170 C   0  0  0  0  0  3  0  0  0  0  0  0
  -35.4520  -10.7540   13.2270 C   0  0  0  0  0  3  0  0  0  0  0  0
  -36.7980  -10.7610   13.6660 C   0  0  0  0  0  0  0  0  0  0  0  0
  -37.1730  -11.6260   14.7100 C   0  0  0  0  0  3  0  0  0  0  0  0
  -36.2330  -12.4870   15.2990 C   0  0  0  0  0  3  0  0  0  0  0  0
  -37.7750   -9.9320   13.1730 O   0  0  0  0  0  0  0  0  0  0  0  0
  -37.9570   -9.7580   11.8240 C   0  0  0  0  0  0  0  0  0  0  0  0
  -38.4900  -10.7780   11.0070 C   0  0  0  0  0  3  0  0  0  0  0  0
  -38.7250  -10.5330    9.6390 C   0  0  0  0  0  3  0  0  0  0  0  0
  -38.4360   -9.2700    9.0890 C   0  0  0  0  0  0  0  0  0  0  0  0
  -37.9110   -8.2510    9.9030 C   0  0  0  0  0  3  0  0  0  0  0  0
  -37.6750   -8.4940   11.2670 C   0  0  0  0  0  0  0  0  0  0  0  0
  -37.1880   -7.5030   12.0520 F   0  0  0  0  0  0  0  0  0  0  0  0
  -38.6690   -9.0310    7.7770 F   0  0  0  0  0  0  0  0  0  0  0  0
  -33.9520  -15.4900   13.8280 C   0  0  0  0  0  0  0  0  0  0  0  0
  -33.6920  -14.9380   12.6490 N   0  0  0  0  0  0  0  0  0  0  0  0
  -34.4830  -16.5970   13.9130 O   0  0  0  0  0  0  0  0  0  0  0  0
  -33.2390  -14.0390   12.5830 H   0  0  0  0  0  0  0  0  0  0  0  0
  -33.9480  -15.4230   11.7990 H   0  0  0  0  0  0  0  0  0  0  0  0
  -32.0420  -16.4140   16.2440 N   0  0  0  0  0  0  0  0  0  0  0  0
  -32.1210  -17.1810   15.5840 H   0  0  0  0  0  0  0  0  0  0  0  0
  -31.5440  -16.6660   17.0870 H   0  0  0  0  0  0  0  0  0  0  0  0
  1  7  1  0
  1 65  1  0
  3  2  2  0
  4  7  2  0
  4  6  1  0
  5  2  1  0
  5 10  1  0
  6  5  2  0
  7  3  1  0
  8  6  1  0
  9  8  1  0
  9 11  1  0
 10 17  1  0
 11 10  1  0
 11 12  1  1
 14 15  1  0
 15 11  1  0
 15 13  1  0
 17 16  1  0
 18  1  1  0
 19 18  1  0
 20 18  1  0
 21 18  1  0
 22 21  1  0
 23 22  1  0
 24 23  1  0
 25 36  2  0
 25 35  1  0
 26 24  1  0
 26 32  1  0
 27 34  1  0
 27 37  1  0
 28 34  1  0
 28 33  1  0
 29 35  1  0
 29 30  1  0
 30 28  2  0
 31 30  1  0
 31 26  2  0
 32 33  2  0
 35 27  1  0
 37 39  2  0
 37 38  1  0
 40 38  1  0
 41 50  1  0
 41 45  1  0
 42 38  1  0
 42 46  1  0
 42 43  1  0
 43 44  1  0
 44 45  1  0
 46 41  2  0
 47 48  2  0
 47 46  1  0
 48 49  1  0
 49 50  2  0
 51 61  1  0
 51 25  1  0
 52 55  1  0
 52 51  1  0
 53 52  1  0
 54 53  2  0
 57 56  1  0
 57 53  1  0
 58 59  1  0
 59 57  1  0
 60 59  1  0
 61 63  1  1
 62 61  1  0
 64 61  1  0
 66 73  2  0
 67 68  1  0
 69 68  1  0
 70 79  1  0
 70 71  1  0
 70 69  1  0
 71 72  1  0
 72 66  1  0
 72 67  1  0
 74 65  1  0
 74 66  1  0
 75 74  1  0
 76101  1  0
 76 79  1  0
 77 78  1  0
 77 76  2  0
 78 80  2  0
 80 79  1  0
 81 86  1  0
 81 78  1  0
 82 81  2  0
 83 84  2  0
 83 82  1  0
 84 85  1  0
 85 86  2  0
 87 84  1  0
 88 87  1  0
 89 88  2  0
 90 89  1  0
 91 90  2  0
 91 92  1  0
 92 93  2  0
 93 88  1  0
 93 94  1  0
 95 91  1  0
 96 98  2  0
 96 77  1  0
 97 96  1  0
 99 97  1  0
100 97  1  0
101103  1  0
102101  1  0
M  ISO  4  23 101  24 101  66 100  74 100
M  END
>  <TORSDO>  (65) 
F 24

>  <SCORE>  (65) 
-4.877

>  <name>  (65) 
64

>  <ligand_id>  (65) 
64

>  <original_smiles>  (65) 
[H]c1c([H])c([H])c2c(c1[H])C([H])([H])C([H])([H])C([H])([H])C2([H])N([H])C(=O)C1([H])N(C(=O)C([H])(N([H])C(=O)C([H])(N([H])C([H])([H])[H])C([H])([H])[H])C(C([H])([H])[H])(C([H])([H])[H])C([H])([H])[H])C([H])([H])c2c([H])c(OC([H])([H])C([H])([H])C([H])([H])[N+]([H])([H])C([H])(c3c([H])c([H])c4c(c3[H])C([H])([H])C([H])([H])[N+]([H])(C([H])(C([H])([H])[H])C([H])([H])[H])C4([H])C([H])([H])C([H])([H])[H])C([H])([H])N([H])C(=O)N3C([H])([H])C([H])([H])C([H])([H])C([H])(n4nc(-c5c([H])c([H])c(Oc6c([H])c([H])c(F)c([H])c6F)c([H])c5[H])c(C(=O)N([H])[H])c4N([H])[H])C3([H])[H])c([H])c([H])c2C1([H])[H]

>  <smiles>  (65) 
[H]c1c([H])c([H])c2c(c1[H])C([H])([H])C([H])([H])C([H])([H])C2([H])N([H])C(=O)C1([H])N(C(=O)C([H])(N([H])C(=O)C([H])(N([H])C([H])([H])[H])C([H])([H])[H])C(C([H])([H])[H])(C([H])([H])[H])C([H])([H])[H])C([H])([H])c2c([H])c(OC([H])([H])C([H])([H])C([H])([H])[N+]([H])([H])C([H])(c3c([H])c([H])c4c(c3[H])C([H])([H])C([H])([H])[N+]([H])(C([H])(C([H])([H])[H])C([H])([H])[H])C4([H])C([H])([H])C([H])([H])[H])C([H])([H])N([H])C(=O)N3C([H])([H])C([H])([H])C([H])([H])C([H])(n4nc(-c5c([H])c([H])c(Oc6c([H])c([H])c(F)c([H])c6F)c([H])c5[H])c(C(=O)N([H])[H])c4N([H])[H])C3([H])[H])c([H])c([H])c2C1([H])[H]

$$$$
65:0:0
     RDKit          3D

 92100  0  0  1  0  0  0  0  0999 V2000
  -28.4710  -21.9490   18.9740 C   0  0  0  0  0  3  0  0  0  0  0  0
  -30.4630  -22.5970   20.2030 C   0  0  0  0  0  3  0  0  0  0  0  0
  -28.1080  -23.3090   18.8460 C   0  0  0  0  0  3  0  0  0  0  0  0
  -30.0950  -23.9610   20.0750 C   0  0  0  0  0  3  0  0  0  0  0  0
  -29.6700  -21.5760   19.6230 C   0  0  0  0  0  0  0  0  0  0  0  0
  -28.9300  -24.3340   19.3650 C   0  0  0  0  0  0  0  0  0  0  0  0
  -30.1680  -20.1210   19.5280 C   0  0  0  0  0  2  0  0  0  0  0  0
  -29.8050  -19.2070   20.6420 N   0  0  0  0  0  4  0  0  0  0  0  0
  -28.8620  -19.4130   20.9310 H   0  0  0  0  0  0  0  0  0  0  0  0
  -30.4090  -19.4070   21.4200 H   0  0  0  0  0  0  0  0  0  0  0  0
  -29.8860  -17.7590   20.2770 C   0  0  0  0  0  2  0  0  0  0  0  0
  -30.1140  -16.8000   21.4780 C   0  0  0  0  0  2  0  0  0  0  0  0
  -30.6260  -14.4700   20.5240 C   0  0  0  0  0  0  0  0  0  0  0  0
  -30.3840  -12.3440   19.2740 C   0  0  0  0  0  2  0  0  0  0  0  0
  -29.4260  -12.5720   18.0860 C   0  0  0  0  0  2  0  0  0  0  0  0
  -27.9500  -12.4330   18.5140 C   0  0  0  0  0  2  0  0  0  0  0  0
  -27.6240  -13.2250   19.8090 C   0  0  0  0  0  3  0  0  0  0  0  0
  -28.6790  -12.9240   20.8950 C   0  0  0  0  0  2  0  0  0  0  0  0
  -29.9990  -13.2760   20.3430 N   0  0  0  0  0  0  0  0  0  0  0  0
  -31.7280  -14.7440   20.0400 O   0  0  0  0  0  0  0  0  0  0  0  0
  -29.8720  -15.3780   21.1730 N   0  0  0  0  0  0  0  0  0  0  0  0
  -28.9850  -15.0150   21.4940 H   0  0  0  0  0  0  0  0  0  0  0  0
  -25.2220  -13.8430   20.5020 C   0  0  0  0  0  0  0  0  0  0  0  0
  -24.1520  -13.0730   20.8750 C   0  0  0  0  0  0  0  0  0  0  0  0
  -24.6150  -11.7220   20.8530 C   0  0  0  0  0  0  0  0  0  0  0  0
  -26.2670  -12.9600   20.2800 N   0  0  0  0  0  0  0  0  0  0  0  0
  -25.9040  -11.6800   20.5470 N   0  0  0  0  0  0  0  0  0  0  0  0
  -23.8900  -10.4610   21.0510 C   0  0  0  0  0  0  0  0  0  0  0  0
  -24.3300   -9.4950   21.9820 C   0  0  0  0  0  3  0  0  0  0  0  0
  -23.6050   -8.2970   22.1670 C   0  0  0  0  0  3  0  0  0  0  0  0
  -22.4280   -8.0570   21.4200 C   0  0  0  0  0  0  0  0  0  0  0  0
  -22.0050   -9.0130   20.4790 C   0  0  0  0  0  3  0  0  0  0  0  0
  -22.7320  -10.2020   20.2920 C   0  0  0  0  0  3  0  0  0  0  0  0
  -21.6770   -6.9110   21.5120 O   0  0  0  0  0  0  0  0  0  0  0  0
  -21.6430   -6.1630   22.6610 C   0  0  0  0  0  0  0  0  0  0  0  0
  -21.2360   -6.7110   23.8970 C   0  0  0  0  0  3  0  0  0  0  0  0
  -21.1490   -5.8900   25.0380 C   0  0  0  0  0  3  0  0  0  0  0  0
  -21.4620   -4.5200   24.9440 C   0  0  0  0  0  0  0  0  0  0  0  0
  -21.8650   -3.9710   23.7140 C   0  0  0  0  0  3  0  0  0  0  0  0
  -21.9510   -4.7900   22.5760 C   0  0  0  0  0  0  0  0  0  0  0  0
  -22.3180   -4.2520   21.3860 F   0  0  0  0  0  0  0  0  0  0  0  0
  -21.3710   -3.7280   26.0380 F   0  0  0  0  0  0  0  0  0  0  0  0
  -22.7540  -13.5530   21.1450 C   0  0  0  0  0  0  0  0  0  0  0  0
  -22.0240  -12.8610   22.0140 N   0  0  0  0  0  0  0  0  0  0  0  0
  -22.3170  -14.5740   20.6190 O   0  0  0  0  0  0  0  0  0  0  0  0
  -22.3920  -12.0350   22.4650 H   0  0  0  0  0  0  0  0  0  0  0  0
  -21.0890  -13.1680   22.2400 H   0  0  0  0  0  0  0  0  0  0  0  0
  -25.3850  -15.2120   20.3170 N   0  0  0  0  0  0  0  0  0  0  0  0
  -24.6030  -15.8540   20.4080 H   0  0  0  0  0  0  0  0  0  0  0  0
  -26.2210  -15.6520   19.9540 H   0  0  0  0  0  0  0  0  0  0  0  0
  -28.6580  -25.8080   19.0160 C   0  0  0  0  0  2  0  0  0  0  0  0
  -28.3770  -26.6880   20.1240 O   0  0  0  0  0  0  0  0  0  0  0  0
  -24.5530  -31.8690   23.2390 C   0  0  0  0  0  0  0  0  0  0  0  0
  -27.1970  -27.4150   20.1260 C   0  0  0  0  0  0  0  0  0  0  0  0
  -23.3470  -30.4710   21.5960 C   0  0  0  0  0  3  0  0  0  0  0  0
  -24.7980  -28.9330   20.1670 C   0  0  0  0  0  0  0  0  0  0  0  0
  -25.8770  -30.8160   21.4060 C   0  0  0  0  0  2  0  0  0  0  0  0
  -25.9580  -29.4460   20.7590 C   0  0  0  0  0  0  0  0  0  0  0  0
  -27.1550  -28.6910   20.7440 C   0  0  0  0  0  3  0  0  0  0  0  0
  -26.0050  -26.9110   19.5540 C   0  0  0  0  0  3  0  0  0  0  0  0
  -24.8160  -27.6630   19.5670 C   0  0  0  0  0  3  0  0  0  0  0  0
  -23.5550  -29.7930   20.2160 C   0  0  0  0  0  2  0  0  0  0  0  0
  -24.6110  -31.0680   22.1370 N   0  0  0  0  0  0  0  0  0  0  0  0
  -23.4700  -32.1420   23.7770 O   0  0  0  0  0  0  0  0  0  0  0  0
  -22.6910  -29.4500   22.5550 C   0  0  0  0  0  0  0  0  0  0  0  0
  -21.3660  -29.2690   22.4220 N   0  0  0  0  0  0  0  0  0  0  0  0
  -23.3710  -28.8240   23.3730 O   0  0  0  0  0  0  0  0  0  0  0  0
  -20.8780  -29.8260   21.7340 H   0  0  0  0  0  0  0  0  0  0  0  0
  -17.9900  -28.0760   22.9050 C   0  0  0  0  0  0  0  0  0  0  0  0
  -20.5460  -28.3320   23.1890 C   0  0  0  0  0  3  0  0  0  0  0  0
  -20.6510  -26.9010   22.6100 C   0  0  0  0  0  2  0  0  0  0  0  0
  -19.5530  -26.5820   21.5910 C   0  0  0  0  0  2  0  0  0  0  0  0
  -18.1690  -26.7270   22.2310 C   0  0  0  0  0  2  0  0  0  0  0  0
  -19.1070  -28.8370   23.3410 C   0  0  0  0  0  0  0  0  0  0  0  0
  -18.8870  -30.1010   23.9290 C   0  0  0  0  0  3  0  0  0  0  0  0
  -17.5830  -30.6050   24.0880 C   0  0  0  0  0  3  0  0  0  0  0  0
  -16.4800  -29.8400   23.6710 C   0  0  0  0  0  3  0  0  0  0  0  0
  -16.6850  -28.5780   23.0860 C   0  0  0  0  0  3  0  0  0  0  0  0
  -25.8390  -32.4980   23.8600 C   0  0  0  0  0  3  0  0  0  0  0  0
  -25.5340  -33.8970   24.1840 N   0  0  0  0  0  0  0  0  0  0  0  0
  -25.8770  -34.9470   23.4270 C   0  0  0  0  0  0  0  0  0  0  0  0
  -26.5540  -34.8380   22.4010 O   0  0  0  0  0  0  0  0  0  0  0  0
  -24.9310  -34.0540   24.9790 H   0  0  0  0  0  0  0  0  0  0  0  0
  -24.1610  -36.7470   23.0490 C   0  0  0  0  0  1  0  0  0  0  0  0
  -25.3910  -36.3390   23.8760 C   0  0  0  0  0  3  0  0  0  0  0  0
  -27.5200  -37.2120   24.7300 C   0  0  0  0  0  1  0  0  0  0  0  0
  -26.4310  -37.3850   23.7720 N   0  0  0  0  0  0  0  0  0  0  0  0
  -26.0290  -38.3080   23.9140 H   0  0  0  0  0  0  0  0  0  0  0  0
  -26.3510  -31.7280   25.1400 C   0  0  1  0  0  0  0  0  0  0  0  0
  -25.2570  -31.4980   26.2070 C   0  0  0  0  0  1  0  0  0  0  0  0
  -26.9300  -30.3480   24.7530 C   0  0  0  0  0  1  0  0  0  0  0  0
  -27.5020  -32.5220   25.8020 C   0  0  0  0  0  1  0  0  0  0  0  0
  1  5  1  0
  3  1  2  0
  3  6  1  0
  4  2  1  0
  5  2  2  0
  6  4  2  0
  7  5  1  0
  7  8  1  0
  8  9  1  0
  8 10  1  0
 11  8  1  0
 11 12  1  0
 13 21  1  0
 14 19  1  0
 15 16  1  0
 15 14  1  0
 17 16  1  0
 17 26  1  0
 17 18  1  0
 19 13  1  0
 19 18  1  0
 20 13  2  0
 21 12  1  0
 21 22  1  0
 23 24  2  0
 24 43  1  0
 25 24  1  0
 25 28  1  0
 26 23  1  0
 26 27  1  0
 27 25  2  0
 28 29  1  0
 29 30  2  0
 31 34  1  0
 31 30  1  0
 32 31  2  0
 33 32  1  0
 33 28  2  0
 34 35  1  0
 35 36  1  0
 36 37  2  0
 38 37  1  0
 38 42  1  0
 39 38  2  0
 40 35  2  0
 40 39  1  0
 41 40  1  0
 43 44  1  0
 44 47  1  0
 44 46  1  0
 45 43  2  0
 48 49  1  0
 48 23  1  0
 50 48  1  0
 51  6  1  0
 51 52  1  0
 52 54  1  0
 53 64  2  0
 54 59  1  0
 55 63  1  0
 55 65  1  0
 56 62  1  0
 56 58  1  0
 57 63  1  0
 58 57  1  0
 59 58  2  0
 60 61  1  0
 60 54  2  0
 61 56  2  0
 62 55  1  0
 63 53  1  0
 65 67  2  0
 66 65  1  0
 68 66  1  0
 69 78  2  0
 69 74  1  0
 70 66  1  0
 70 74  1  0
 71 70  1  0
 72 73  1  0
 72 71  1  0
 73 69  1  0
 74 75  2  0
 75 76  1  0
 77 76  2  0
 78 77  1  0
 79 53  1  0
 79 80  1  0
 79 89  1  0
 80 83  1  0
 81 85  1  0
 81 80  1  0
 82 81  2  0
 85 84  1  0
 87 85  1  0
 87 88  1  0
 87 86  1  0
 89 92  1  1
 89 90  1  0
 91 89  1  0
M  ISO  4  13 100  21 100  51 101  52 101
M  END
>  <TORSDO>  (66) 
F 21

>  <SCORE>  (66) 
-13.516

>  <name>  (66) 
65

>  <ligand_id>  (66) 
65

>  <original_smiles>  (66) 
[H]c1c([H])c([H])c2c(c1[H])C([H])([H])C([H])([H])C([H])([H])C2([H])N([H])C(=O)C1([H])N(C(=O)C([H])(N([H])C(=O)C([H])(N([H])C([H])([H])[H])C([H])([H])[H])C(C([H])([H])[H])(C([H])([H])[H])C([H])([H])[H])C([H])([H])c2c([H])c(OC([H])([H])c3c([H])c([H])c(C([H])([H])[N+]([H])([H])C([H])([H])C([H])([H])N([H])C(=O)N4C([H])([H])C([H])([H])C([H])([H])C([H])(n5nc(-c6c([H])c([H])c(Oc7c([H])c([H])c(F)c([H])c7F)c([H])c6[H])c(C(=O)N([H])[H])c5N([H])[H])C4([H])[H])c([H])c3[H])c([H])c([H])c2C1([H])[H]

>  <smiles>  (66) 
[H]c1c([H])c([H])c2c(c1[H])C([H])([H])C([H])([H])C([H])([H])C2([H])N([H])C(=O)C1([H])N(C(=O)C([H])(N([H])C(=O)C([H])(N([H])C([H])([H])[H])C([H])([H])[H])C(C([H])([H])[H])(C([H])([H])[H])C([H])([H])[H])C([H])([H])c2c([H])c(OC([H])([H])c3c([H])c([H])c(C([H])([H])[N+]([H])([H])C([H])([H])C([H])([H])N([H])C(=O)N4C([H])([H])C([H])([H])C([H])([H])C([H])(n5nc(-c6c([H])c([H])c(Oc7c([H])c([H])c(F)c([H])c7F)c([H])c6[H])c(C(=O)N([H])[H])c5N([H])[H])C4([H])[H])c([H])c3[H])c([H])c([H])c2C1([H])[H]

$$$$
66:0:0
     RDKit          3D

 90 99  0  0  1  0  0  0  0  0999 V2000
  -28.9900  -21.3870   21.6860 C   0  0  0  0  0  3  0  0  0  0  0  0
  -29.4670  -21.1670   19.3790 C   0  0  0  0  0  3  0  0  0  0  0  0
  -28.6660  -22.7870   21.5070 C   0  0  0  0  0  3  0  0  0  0  0  0
  -29.1440  -22.5680   19.1990 C   0  0  0  0  0  3  0  0  0  0  0  0
  -29.3640  -20.4860   20.6310 C   0  0  0  0  0  0  0  0  0  0  0  0
  -28.6950  -23.4510   20.2420 C   0  0  0  0  0  0  0  0  0  0  0  0
  -30.6580  -18.5570   21.9240 C   0  0  0  0  0  2  0  0  0  0  0  0
  -31.5240  -18.0340   20.7710 C   0  0  0  0  0  2  0  0  0  0  0  0
  -29.5560  -18.8810   20.9000 C   0  0  0  0  0  3  0  0  0  0  0  0
  -30.2270  -17.6160   20.0640 C   0  0  0  0  0  3  0  0  0  0  0  0
  -30.6270  -14.9450   20.0550 C   0  0  0  0  0  0  0  0  0  0  0  0
  -30.3860  -12.6550   19.0370 C   0  0  0  0  0  2  0  0  0  0  0  0
  -29.3850  -12.6990   17.8580 C   0  0  0  0  0  2  0  0  0  0  0  0
  -27.9430  -12.5140   18.3620 C   0  0  0  0  0  2  0  0  0  0  0  0
  -27.6250  -13.3940   19.6000 C   0  0  0  0  0  3  0  0  0  0  0  0
  -28.7410  -13.3240   20.6660 C   0  0  0  0  0  2  0  0  0  0  0  0
  -29.9950  -13.7120   20.0090 N   0  0  0  0  0  0  0  0  0  0  0  0
  -31.7850  -15.0190   19.6340 O   0  0  0  0  0  0  0  0  0  0  0  0
  -29.9070  -16.1130   20.3680 N   0  0  0  0  0  0  0  0  0  0  0  0
  -28.9710  -15.9400   20.7030 H   0  0  0  0  0  0  0  0  0  0  0  0
  -25.2840  -13.9630   20.4740 C   0  0  0  0  0  0  0  0  0  0  0  0
  -24.2380  -13.1800   20.8780 C   0  0  0  0  0  0  0  0  0  0  0  0
  -24.6950  -11.8300   20.7810 C   0  0  0  0  0  0  0  0  0  0  0  0
  -26.3100  -13.0900   20.1550 N   0  0  0  0  0  0  0  0  0  0  0  0
  -25.9670  -11.7990   20.4040 N   0  0  0  0  0  0  0  0  0  0  0  0
  -23.9740  -10.5640   20.9700 C   0  0  0  0  0  0  0  0  0  0  0  0
  -24.4130   -9.5930   21.8980 C   0  0  0  0  0  3  0  0  0  0  0  0
  -23.6900   -8.3940   22.0750 C   0  0  0  0  0  3  0  0  0  0  0  0
  -22.5140   -8.1550   21.3240 C   0  0  0  0  0  0  0  0  0  0  0  0
  -22.0960   -9.1130   20.3840 C   0  0  0  0  0  3  0  0  0  0  0  0
  -22.8200  -10.3040   20.2050 C   0  0  0  0  0  3  0  0  0  0  0  0
  -21.7630   -7.0080   21.4120 O   0  0  0  0  0  0  0  0  0  0  0  0
  -21.6630   -6.3000   22.5830 C   0  0  0  0  0  0  0  0  0  0  0  0
  -21.1450   -6.8800   23.7630 C   0  0  0  0  0  3  0  0  0  0  0  0
  -20.9970   -6.0960   24.9250 C   0  0  0  0  0  3  0  0  0  0  0  0
  -21.3540   -4.7350   24.9080 C   0  0  0  0  0  0  0  0  0  0  0  0
  -21.8640   -4.1560   23.7330 C   0  0  0  0  0  3  0  0  0  0  0  0
  -22.0150   -4.9360   22.5730 C   0  0  0  0  0  0  0  0  0  0  0  0
  -22.4870   -4.3670   21.4380 F   0  0  0  0  0  0  0  0  0  0  0  0
  -21.2050   -3.9810   26.0210 F   0  0  0  0  0  0  0  0  0  0  0  0
  -22.8590  -13.6510   21.2370 C   0  0  0  0  0  0  0  0  0  0  0  0
  -22.1770  -12.9320   22.1200 N   0  0  0  0  0  0  0  0  0  0  0  0
  -22.4000  -14.6940   20.7730 O   0  0  0  0  0  0  0  0  0  0  0  0
  -22.5610  -12.0850   22.5110 H   0  0  0  0  0  0  0  0  0  0  0  0
  -21.2570  -13.2320   22.4090 H   0  0  0  0  0  0  0  0  0  0  0  0
  -25.4430  -15.3380   20.3270 N   0  0  0  0  0  0  0  0  0  0  0  0
  -24.6880  -15.9890   20.5140 H   0  0  0  0  0  0  0  0  0  0  0  0
  -26.2540  -15.7810   19.9160 H   0  0  0  0  0  0  0  0  0  0  0  0
  -27.9340  -24.8590   19.9200 C   0  0  0  0  0  2  0  0  0  0  0  0
  -28.2690  -26.3050   20.3150 O   0  0  0  0  0  0  0  0  0  0  0  0
  -24.6300  -31.9450   23.2740 C   0  0  0  0  0  0  0  0  0  0  0  0
  -27.2260  -27.2920   20.2110 C   0  0  0  0  0  0  0  0  0  0  0  0
  -23.4320  -30.5500   21.6350 C   0  0  0  0  0  3  0  0  0  0  0  0
  -24.8870  -29.0050   20.1890 C   0  0  0  0  0  0  0  0  0  0  0  0
  -25.9810  -30.8380   21.4620 C   0  0  0  0  0  2  0  0  0  0  0  0
  -26.0610  -29.4540   20.8060 C   0  0  0  0  0  0  0  0  0  0  0  0
  -27.2320  -28.6110   20.8070 C   0  0  0  0  0  3  0  0  0  0  0  0
  -26.0340  -26.9580   19.5260 C   0  0  0  0  0  3  0  0  0  0  0  0
  -24.8850  -27.7710   19.5280 C   0  0  0  0  0  3  0  0  0  0  0  0
  -23.6480  -29.8820   20.2510 C   0  0  0  0  0  2  0  0  0  0  0  0
  -24.7010  -31.1320   22.1780 N   0  0  0  0  0  0  0  0  0  0  0  0
  -23.5450  -32.2240   23.8060 O   0  0  0  0  0  0  0  0  0  0  0  0
  -22.7630  -29.5320   22.5930 C   0  0  0  0  0  0  0  0  0  0  0  0
  -21.4380  -29.3510   22.4620 N   0  0  0  0  0  0  0  0  0  0  0  0
  -23.4380  -28.9100   23.4170 O   0  0  0  0  0  0  0  0  0  0  0  0
  -20.9510  -29.9090   21.7760 H   0  0  0  0  0  0  0  0  0  0  0  0
  -18.0590  -28.1410   22.9550 C   0  0  0  0  0  0  0  0  0  0  0  0
  -20.6170  -28.4090   23.2270 C   0  0  0  0  0  3  0  0  0  0  0  0
  -20.7220  -26.9790   22.6460 C   0  0  0  0  0  2  0  0  0  0  0  0
  -19.6210  -26.6560   21.6320 C   0  0  0  0  0  2  0  0  0  0  0  0
  -18.2390  -26.7950   22.2750 C   0  0  0  0  0  2  0  0  0  0  0  0
  -19.1750  -28.9070   23.3860 C   0  0  0  0  0  0  0  0  0  0  0  0
  -18.9500  -30.1670   23.9810 C   0  0  0  0  0  3  0  0  0  0  0  0
  -17.6420  -30.6610   24.1490 C   0  0  0  0  0  3  0  0  0  0  0  0
  -16.5420  -29.8930   23.7330 C   0  0  0  0  0  3  0  0  0  0  0  0
  -16.7500  -28.6350   23.1420 C   0  0  0  0  0  3  0  0  0  0  0  0
  -25.9070  -32.5810   23.9000 C   0  0  0  0  0  3  0  0  0  0  0  0
  -25.5990  -33.9840   24.2160 N   0  0  0  0  0  0  0  0  0  0  0  0
  -25.9180  -35.0290   23.4410 C   0  0  0  0  0  0  0  0  0  0  0  0
  -26.5660  -34.9140   22.3980 O   0  0  0  0  0  0  0  0  0  0  0  0
  -25.0230  -34.1480   25.0280 H   0  0  0  0  0  0  0  0  0  0  0  0
  -24.1680  -36.8100   23.1210 C   0  0  0  0  0  1  0  0  0  0  0  0
  -25.4380  -36.4240   23.8950 C   0  0  0  0  0  3  0  0  0  0  0  0
  -27.5910  -37.3360   24.6440 C   0  0  0  0  0  1  0  0  0  0  0  0
  -26.4610  -37.4790   23.7300 N   0  0  0  0  0  0  0  0  0  0  0  0
  -26.0540  -38.4000   23.8710 H   0  0  0  0  0  0  0  0  0  0  0  0
  -26.4080  -31.8230   25.1900 C   0  0  1  0  0  0  0  0  0  0  0  0
  -25.3020  -31.5930   26.2490 C   0  0  0  0  0  1  0  0  0  0  0  0
  -26.9930  -30.4420   24.8170 C   0  0  0  0  0  1  0  0  0  0  0  0
  -27.5530  -32.6230   25.8560 C   0  0  0  0  0  1  0  0  0  0  0  0
  2  5  1  0
  3  1  1  0
  4  2  2  0
  4  6  1  0
  5  1  2  0
  6  3  2  0
  8  7  1  0
  9  5  1  0
  9  7  1  0
 10 19  1  0
 10  8  1  0
 10  9  1  0
 11 19  1  0
 12 17  1  0
 13 14  1  0
 13 12  1  0
 15 14  1  0
 15 24  1  0
 15 16  1  0
 17 11  1  0
 17 16  1  0
 18 11  2  0
 19 20  1  0
 21 22  2  0
 22 41  1  0
 23 22  1  0
 23 26  1  0
 24 25  1  0
 24 21  1  0
 25 23  2  0
 26 27  1  0
 27 28  2  0
 29 32  1  0
 29 28  1  0
 30 29  2  0
 31 30  1  0
 31 26  2  0
 32 33  1  0
 33 34  1  0
 34 35  2  0
 36 35  1  0
 36 40  1  0
 37 36  2  0
 38 33  2  0
 38 37  1  0
 39 38  1  0
 41 42  1  0
 42 45  1  0
 42 44  1  0
 43 41  2  0
 46 21  1  0
 46 47  1  0
 48 46  1  0
 49  6  1  0
 49 50  1  0
 51 62  2  0
 52 50  1  0
 52 57  1  0
 53 61  1  0
 53 63  1  0
 54 60  1  0
 54 56  1  0
 55 61  1  0
 56 57  2  0
 56 55  1  0
 58 59  1  0
 58 52  2  0
 59 54  2  0
 60 53  1  0
 61 51  1  0
 63 65  2  0
 64 63  1  0
 66 64  1  0
 67 76  2  0
 67 72  1  0
 68 64  1  0
 68 72  1  0
 69 68  1  0
 70 71  1  0
 70 69  1  0
 71 67  1  0
 72 73  2  0
 73 74  1  0
 75 74  2  0
 76 75  1  0
 77 51  1  0
 77 78  1  0
 77 87  1  0
 78 81  1  0
 79 83  1  0
 79 78  1  0
 80 79  2  0
 83 82  1  0
 85 86  1  0
 85 83  1  0
 85 84  1  0
 87 90  1  1
 87 88  1  0
 89 87  1  0
M  ISO  4  11 100  19 100  49 101  50 101
M  END
>  <TORSDO>  (67) 
F 18

>  <SCORE>  (67) 
-14.586

>  <name>  (67) 
66

>  <ligand_id>  (67) 
66

>  <original_smiles>  (67) 
[H]c1c([H])c([H])c2c(c1[H])C([H])([H])C([H])([H])C([H])([H])C2([H])N([H])C(=O)C1([H])N(C(=O)C([H])(N([H])C(=O)C([H])(N([H])C([H])([H])[H])C([H])([H])[H])C(C([H])([H])[H])(C([H])([H])[H])C([H])([H])[H])C([H])([H])c2c([H])c(OC([H])([H])c3c([H])c([H])c(C4([H])C([H])([H])C([H])([H])C4([H])N([H])C(=O)N4C([H])([H])C([H])([H])C([H])([H])C([H])(n5nc(-c6c([H])c([H])c(Oc7c([H])c([H])c(F)c([H])c7F)c([H])c6[H])c(C(=O)N([H])[H])c5N([H])[H])C4([H])[H])c([H])c3[H])c([H])c([H])c2C1([H])[H]

>  <smiles>  (67) 
[H]c1c([H])c([H])c2c(c1[H])C([H])([H])C([H])([H])C([H])([H])C2([H])N([H])C(=O)C1([H])N(C(=O)C([H])(N([H])C(=O)C([H])(N([H])C([H])([H])[H])C([H])([H])[H])C(C([H])([H])[H])(C([H])([H])[H])C([H])([H])[H])C([H])([H])c2c([H])c(OC([H])([H])c3c([H])c([H])c(C4([H])C([H])([H])C([H])([H])C4([H])N([H])C(=O)N4C([H])([H])C([H])([H])C([H])([H])C([H])(n5nc(-c6c([H])c([H])c(Oc7c([H])c([H])c(F)c([H])c7F)c([H])c6[H])c(C(=O)N([H])[H])c5N([H])[H])C4([H])[H])c([H])c3[H])c([H])c([H])c2C1([H])[H]

$$$$
67:0:0
     RDKit          3D

100109  0  0  1  0  0  0  0  0999 V2000
  -31.5670  -21.6570   19.0690 C   0  0  0  0  0  2  0  0  0  0  0  0
  -31.6750  -20.7900   20.3350 C   0  0  0  0  0  2  0  0  0  0  0  0
  -30.1500  -21.4140   18.5410 C   0  0  0  0  0  2  0  0  0  0  0  0
  -30.4030  -19.9070   20.3880 C   0  0  0  0  0  3  0  0  0  0  0  0
  -29.4020  -20.7560   19.6350 N   0  0  1  0  0  4  0  0  0  0  0  0
  -28.7730  -20.1090   19.1830 H   0  0  0  0  0  0  0  0  0  0  0  0
  -27.7300  -21.0080   21.5430 C   0  0  0  0  0  1  0  0  0  0  0  0
  -28.4710  -21.7090   20.3740 C   0  0  0  0  0  3  0  0  0  0  0  0
  -29.0290  -23.1280   20.8190 C   0  0  0  0  0  2  0  0  0  0  0  0
  -28.7280  -24.4130   19.9530 C   0  0  0  0  0  2  0  0  0  0  0  0
  -28.7140  -25.7530   20.7720 C   0  0  0  0  0  2  0  0  0  0  0  0
  -28.6490  -26.9900   20.0200 O   0  0  0  0  0  0  0  0  0  0  0  0
  -24.7450  -31.9750   23.3750 C   0  0  0  0  0  0  0  0  0  0  0  0
  -27.4720  -27.7110   20.0980 C   0  0  0  0  0  0  0  0  0  0  0  0
  -23.5590  -30.6200   21.6780 C   0  0  0  0  0  3  0  0  0  0  0  0
  -25.0430  -29.1730   20.1820 C   0  0  0  0  0  0  0  0  0  0  0  0
  -26.0770  -31.0400   21.4830 C   0  0  0  0  0  2  0  0  0  0  0  0
  -26.1930  -29.6970   20.7850 C   0  0  0  0  0  0  0  0  0  0  0  0
  -27.4130  -28.9760   20.7360 C   0  0  0  0  0  3  0  0  0  0  0  0
  -26.3060  -27.2070   19.4890 C   0  0  0  0  0  3  0  0  0  0  0  0
  -25.0960  -27.9300   19.5280 C   0  0  0  0  0  3  0  0  0  0  0  0
  -23.7780  -30.0020   20.2700 C   0  0  0  0  0  2  0  0  0  0  0  0
  -24.8110  -31.2260   22.2380 N   0  0  0  0  0  0  0  0  0  0  0  0
  -23.6620  -32.1990   23.9350 O   0  0  0  0  0  0  0  0  0  0  0  0
  -22.9380  -29.5460   22.5990 C   0  0  0  0  0  0  0  0  0  0  0  0
  -21.6230  -29.3140   22.4510 N   0  0  0  0  0  0  0  0  0  0  0  0
  -23.6380  -28.9220   23.4010 O   0  0  0  0  0  0  0  0  0  0  0  0
  -21.1170  -29.8710   21.7770 H   0  0  0  0  0  0  0  0  0  0  0  0
  -18.3030  -27.9470   22.8500 C   0  0  0  0  0  0  0  0  0  0  0  0
  -20.8390  -28.3200   23.1830 C   0  0  0  0  0  3  0  0  0  0  0  0
  -21.0220  -26.9100   22.5760 C   0  0  0  0  0  2  0  0  0  0  0  0
  -19.9590  -26.5620   21.5290 C   0  0  0  0  0  2  0  0  0  0  0  0
  -18.5580  -26.6250   22.1450 C   0  0  0  0  0  2  0  0  0  0  0  0
  -19.3740  -28.7490   23.3230 C   0  0  0  0  0  0  0  0  0  0  0  0
  -19.0830  -29.9870   23.9380 C   0  0  0  0  0  3  0  0  0  0  0  0
  -17.7540  -30.4210   24.0880 C   0  0  0  0  0  3  0  0  0  0  0  0
  -16.6950  -29.6150   23.6330 C   0  0  0  0  0  3  0  0  0  0  0  0
  -16.9710  -28.3800   23.0190 C   0  0  0  0  0  3  0  0  0  0  0  0
  -26.0200  -32.6100   24.0120 C   0  0  0  0  0  3  0  0  0  0  0  0
  -25.7040  -34.0070   24.3420 N   0  0  0  0  0  0  0  0  0  0  0  0
  -26.0510  -35.0630   23.5930 C   0  0  0  0  0  0  0  0  0  0  0  0
  -26.7430  -34.9640   22.5760 O   0  0  0  0  0  0  0  0  0  0  0  0
  -25.0940  -34.1570   25.1320 H   0  0  0  0  0  0  0  0  0  0  0  0
  -24.3400  -36.8610   23.1890 C   0  0  0  0  0  1  0  0  0  0  0  0
  -25.5480  -36.4470   24.0440 C   0  0  0  0  0  3  0  0  0  0  0  0
  -27.6460  -37.3260   24.9690 C   0  0  0  0  0  1  0  0  0  0  0  0
  -26.5860  -37.4990   23.9800 N   0  0  0  0  0  0  0  0  0  0  0  0
  -26.1740  -38.4180   24.1150 H   0  0  0  0  0  0  0  0  0  0  0  0
  -26.5300  -31.8380   25.2920 C   0  0  1  0  0  0  0  0  0  0  0  0
  -25.4280  -31.5870   26.3470 C   0  0  0  0  0  1  0  0  0  0  0  0
  -27.1270  -30.4660   24.9010 C   0  0  0  0  0  1  0  0  0  0  0  0
  -27.6670  -32.6370   25.9710 C   0  0  0  0  0  1  0  0  0  0  0  0
  -30.5030  -18.3750   19.8590 C   0  0  0  0  0  3  0  0  0  0  0  0
  -33.9110  -17.5120   17.9880 C   0  0  0  0  0  2  0  0  0  0  0  0
  -32.9730  -17.6150   19.1990 C   0  0  0  0  0  2  0  0  0  0  0  0
  -33.3660  -16.5570   16.9050 C   0  0  0  0  0  2  0  0  0  0  0  0
  -31.0490  -17.2820   17.5300 C   0  0  0  0  0  2  0  0  0  0  0  0
  -31.5760  -18.1310   18.7300 C   0  0  0  0  0  3  0  0  0  0  0  0
  -31.9550  -16.1730   17.1470 N   0  0  0  0  0  4  0  0  0  0  0  0
  -31.9410  -15.5130   17.9240 H   0  0  0  0  0  0  0  0  0  0  0  0
  -31.5900  -15.6940   16.3360 H   0  0  0  0  0  0  0  0  0  0  0  0
  -30.5830  -17.2690   21.0030 C   0  0  0  0  0  2  0  0  0  0  0  0
  -30.8730  -14.7620   20.3850 C   0  0  0  0  0  0  0  0  0  0  0  0
  -30.6160  -12.5370   19.3320 C   0  0  0  0  0  2  0  0  0  0  0  0
  -29.6950  -12.6720   18.1000 C   0  0  0  0  0  2  0  0  0  0  0  0
  -28.2130  -12.5410   18.5060 C   0  0  0  0  0  2  0  0  0  0  0  0
  -27.8450  -13.4100   19.7390 C   0  0  0  0  0  3  0  0  0  0  0  0
  -28.8900  -13.2630   20.8680 C   0  0  0  0  0  2  0  0  0  0  0  0
  -30.2080  -13.5730   20.2990 N   0  0  0  0  0  0  0  0  0  0  0  0
  -32.0250  -14.8830   19.9750 O   0  0  0  0  0  0  0  0  0  0  0  0
  -30.1420  -15.8590   20.7250 N   0  0  0  0  0  0  0  0  0  0  0  0
  -29.1900  -15.6450   20.9840 H   0  0  0  0  0  0  0  0  0  0  0  0
  -25.4430  -14.0110   20.4340 C   0  0  0  0  0  0  0  0  0  0  0  0
  -24.3720  -13.2420   20.7990 C   0  0  0  0  0  0  0  0  0  0  0  0
  -24.8340  -11.8910   20.7750 C   0  0  0  0  0  0  0  0  0  0  0  0
  -26.4910  -13.1320   20.2130 N   0  0  0  0  0  0  0  0  0  0  0  0
  -26.1260  -11.8500   20.4770 N   0  0  0  0  0  0  0  0  0  0  0  0
  -24.1080  -10.6290   20.9690 C   0  0  0  0  0  0  0  0  0  0  0  0
  -24.5180   -9.6760   21.9290 C   0  0  0  0  0  3  0  0  0  0  0  0
  -23.7920   -8.4810   22.1090 C   0  0  0  0  0  3  0  0  0  0  0  0
  -22.6380   -8.2230   21.3300 C   0  0  0  0  0  0  0  0  0  0  0  0
  -22.2450   -9.1650   20.3620 C   0  0  0  0  0  3  0  0  0  0  0  0
  -22.9720  -10.3530   20.1820 C   0  0  0  0  0  3  0  0  0  0  0  0
  -21.8880   -7.0760   21.4130 O   0  0  0  0  0  0  0  0  0  0  0  0
  -21.8040   -6.3560   22.5800 C   0  0  0  0  0  0  0  0  0  0  0  0
  -21.3020   -6.9250   23.7690 C   0  0  0  0  0  3  0  0  0  0  0  0
  -21.1660   -6.1300   24.9260 C   0  0  0  0  0  3  0  0  0  0  0  0
  -21.5230   -4.7690   24.8910 C   0  0  0  0  0  0  0  0  0  0  0  0
  -22.0190   -4.2000   23.7030 C   0  0  0  0  0  3  0  0  0  0  0  0
  -22.1570   -4.9930   22.5510 C   0  0  0  0  0  0  0  0  0  0  0  0
  -22.6150   -4.4360   21.4040 F   0  0  0  0  0  0  0  0  0  0  0  0
  -21.3850   -4.0030   26.0000 F   0  0  0  0  0  0  0  0  0  0  0  0
  -22.9730  -13.7230   21.0570 C   0  0  0  0  0  0  0  0  0  0  0  0
  -22.2430  -13.0390   21.9300 N   0  0  0  0  0  0  0  0  0  0  0  0
  -22.5390  -14.7410   20.5230 O   0  0  0  0  0  0  0  0  0  0  0  0
  -22.6120  -12.2200   22.3870 H   0  0  0  0  0  0  0  0  0  0  0  0
  -21.3030  -13.3410   22.1450 H   0  0  0  0  0  0  0  0  0  0  0  0
  -25.6050  -15.3790   20.2470 N   0  0  0  0  0  0  0  0  0  0  0  0
  -24.8290  -16.0230   20.3410 H   0  0  0  0  0  0  0  0  0  0  0  0
  -26.4460  -15.8140   19.8920 H   0  0  0  0  0  0  0  0  0  0  0  0
  1  2  1  0
  2  4  1  0
  3  1  1  0
  3  5  1  0
  4 53  1  0
  5  8  1  0
  5  4  1  0
  5  6  1  6
  8  9  1  0
  8  7  1  0
 10 11  1  0
 10  9  1  0
 12 14  1  0
 12 11  1  0
 13 24  2  0
 14 19  1  0
 15 23  1  0
 15 25  1  0
 16 22  1  0
 16 18  1  0
 17 23  1  0
 18 17  1  0
 19 18  2  0
 20 21  1  0
 20 14  2  0
 21 16  2  0
 22 15  1  0
 23 13  1  0
 25 27  2  0
 26 25  1  0
 28 26  1  0
 29 38  2  0
 29 34  1  0
 30 26  1  0
 30 34  1  0
 31 30  1  0
 32 33  1  0
 32 31  1  0
 33 29  1  0
 34 35  2  0
 35 36  1  0
 37 36  2  0
 38 37  1  0
 39 13  1  0
 39 40  1  0
 39 49  1  0
 40 43  1  0
 41 45  1  0
 41 40  1  0
 42 41  2  0
 45 44  1  0
 47 45  1  0
 47 48  1  0
 47 46  1  0
 49 52  1  1
 49 50  1  0
 51 49  1  0
 53 62  1  0
 54 55  1  0
 56 59  1  0
 56 54  1  0
 57 58  1  0
 58 55  1  0
 58 53  1  0
 59 57  1  0
 59 60  1  0
 61 59  1  0
 63 71  1  0
 64 69  1  0
 65 66  1  0
 65 64  1  0
 67 66  1  0
 67 76  1  0
 67 68  1  0
 69 63  1  0
 69 68  1  0
 70 63  2  0
 71 72  1  0
 71 62  1  0
 73 74  2  0
 74 93  1  0
 75 74  1  0
 75 78  1  0
 76 73  1  0
 76 77  1  0
 77 75  2  0
 78 79  1  0
 79 80  2  0
 81 84  1  0
 81 80  1  0
 82 81  2  0
 83 82  1  0
 83 78  2  0
 84 85  1  0
 85 86  1  0
 86 87  2  0
 88 87  1  0
 88 92  1  0
 89 88  2  0
 90 85  2  0
 90 89  1  0
 91 90  1  0
 93 94  1  0
 94 97  1  0
 94 96  1  0
 95 93  2  0
 98 99  1  0
 98 73  1  0
100 98  1  0
M  ISO  4  11 101  12 101  63 100  71 100
M  END
>  <TORSDO>  (68) 
F 23

>  <SCORE>  (68) 
-12.013

>  <name>  (68) 
67

>  <ligand_id>  (68) 
67

>  <original_smiles>  (68) 
[H]c1c([H])c([H])c2c(c1[H])C([H])([H])C([H])([H])C([H])([H])C2([H])N([H])C(=O)C1([H])N(C(=O)C([H])(N([H])C(=O)C([H])(N([H])C([H])([H])[H])C([H])([H])[H])C(C([H])([H])[H])(C([H])([H])[H])C([H])([H])[H])C([H])([H])c2c([H])c(OC([H])([H])C([H])([H])C([H])([H])C([H])(C([H])([H])[H])[N+]3([H])C([H])([H])C([H])([H])C([H])([H])C3([H])C([H])(C([H])([H])N([H])C(=O)N3C([H])([H])C([H])([H])C([H])([H])C([H])(n4nc(-c5c([H])c([H])c(Oc6c([H])c([H])c(F)c([H])c6F)c([H])c5[H])c(C(=O)N([H])[H])c4N([H])[H])C3([H])[H])C3([H])C([H])([H])C([H])([H])C([H])([H])[N+]([H])([H])C3([H])[H])c([H])c([H])c2C1([H])[H]

>  <smiles>  (68) 
[H]c1c([H])c([H])c2c(c1[H])C([H])([H])C([H])([H])C([H])([H])C2([H])N([H])C(=O)C1([H])N(C(=O)C([H])(N([H])C(=O)C([H])(N([H])C([H])([H])[H])C([H])([H])[H])C(C([H])([H])[H])(C([H])([H])[H])C([H])([H])[H])C([H])([H])c2c([H])c(OC([H])([H])C([H])([H])C([H])([H])C([H])(C([H])([H])[H])[N+]3([H])C([H])([H])C([H])([H])C([H])([H])C3([H])C([H])(C([H])([H])N([H])C(=O)N3C([H])([H])C([H])([H])C([H])([H])C([H])(n4nc(-c5c([H])c([H])c(Oc6c([H])c([H])c(F)c([H])c6F)c([H])c5[H])c(C(=O)N([H])[H])c4N([H])[H])C3([H])[H])C3([H])C([H])([H])C([H])([H])C([H])([H])[N+]([H])([H])C3([H])[H])c([H])c([H])c2C1([H])[H]

$$$$
68:0:0
     RDKit          3D

 99108  0  0  1  0  0  0  0  0999 V2000
  -30.2100  -16.8400   18.3920 C   0  0  0  0  0  3  0  0  0  0  0  0
  -30.2130  -17.4530   17.1450 C   0  0  0  0  0  3  0  0  0  0  0  0
  -30.3850  -19.6300   18.2220 C   0  0  0  0  0  0  0  0  0  0  0  0
  -30.0450  -19.0670   19.5010 C   0  0  0  0  0  0  0  0  0  0  0  0
  -30.1330  -17.5310   19.6310 C   0  0  0  0  0  0  0  0  0  0  0  0
  -30.2980  -18.8370   17.0500 C   0  0  0  0  0  0  0  0  0  0  0  0
  -31.0000  -21.0230   18.0750 C   0  0  0  0  0  0  0  0  0  0  0  0
  -29.5010  -20.3020   20.4260 C   0  0  0  0  0  2  0  0  0  0  0  0
  -29.7870  -21.9470   20.0440 C   0  0  0  0  0  3  0  0  0  0  0  0
  -30.8460  -21.9690   19.0350 N   0  0  0  0  0  0  0  0  0  0  0  0
  -31.7230  -21.2430   17.0970 O   0  0  0  0  0  0  0  0  0  0  0  0
  -30.8300  -15.2180   20.8280 C   0  0  0  0  0  0  0  0  0  0  0  0
  -30.8780  -12.7680   20.1720 C   0  0  0  0  0  2  0  0  0  0  0  0
  -30.1510  -12.5710   18.8200 C   0  0  0  0  0  2  0  0  0  0  0  0
  -28.6420  -12.3620   19.0470 C   0  0  0  0  0  2  0  0  0  0  0  0
  -28.0460  -13.3700   20.0650 C   0  0  0  0  0  3  0  0  0  0  0  0
  -28.9240  -13.5430   21.3230 C   0  0  0  0  0  2  0  0  0  0  0  0
  -30.2570  -13.9410   20.8620 N   0  0  0  0  0  0  0  0  0  0  0  0
  -32.0600  -15.2510   20.7130 O   0  0  0  0  0  0  0  0  0  0  0  0
  -30.0660  -16.4390   20.7180 N   0  0  0  0  0  0  0  0  0  0  0  0
  -29.1560  -16.3690   21.1490 H   0  0  0  0  0  0  0  0  0  0  0  0
  -25.5750  -13.9190   20.4270 C   0  0  0  0  0  0  0  0  0  0  0  0
  -24.4850  -13.1390   20.6990 C   0  0  0  0  0  0  0  0  0  0  0  0
  -24.9790  -11.8050   20.8360 C   0  0  0  0  0  0  0  0  0  0  0  0
  -26.6600  -13.0610   20.3970 N   0  0  0  0  0  0  0  0  0  0  0  0
  -26.3020  -11.7890   20.7120 N   0  0  0  0  0  0  0  0  0  0  0  0
  -24.2550  -10.5380   21.0200 C   0  0  0  0  0  0  0  0  0  0  0  0
  -24.5810   -9.6430   22.0620 C   0  0  0  0  0  3  0  0  0  0  0  0
  -23.8560   -8.4430   22.2270 C   0  0  0  0  0  3  0  0  0  0  0  0
  -22.7900   -8.1280   21.3500 C   0  0  0  0  0  0  0  0  0  0  0  0
  -22.4850   -9.0120   20.3000 C   0  0  0  0  0  3  0  0  0  0  0  0
  -23.2120  -10.2040   20.1330 C   0  0  0  0  0  3  0  0  0  0  0  0
  -22.0480   -6.9750   21.4180 O   0  0  0  0  0  0  0  0  0  0  0  0
  -21.9010   -6.2830   22.5930 C   0  0  0  0  0  0  0  0  0  0  0  0
  -21.3450   -6.8810   23.7460 C   0  0  0  0  0  3  0  0  0  0  0  0
  -21.1480   -6.1130   24.9110 C   0  0  0  0  0  3  0  0  0  0  0  0
  -21.4970   -4.7490   24.9240 C   0  0  0  0  0  0  0  0  0  0  0  0
  -22.0500   -4.1520   23.7770 C   0  0  0  0  0  3  0  0  0  0  0  0
  -22.2470   -4.9170   22.6140 C   0  0  0  0  0  0  0  0  0  0  0  0
  -22.7580   -4.3310   21.5030 F   0  0  0  0  0  0  0  0  0  0  0  0
  -21.3010   -4.0090   26.0400 F   0  0  0  0  0  0  0  0  0  0  0  0
  -23.0570  -13.5950   20.7330 C   0  0  0  0  0  0  0  0  0  0  0  0
  -22.2280  -12.9600   21.5540 N   0  0  0  0  0  0  0  0  0  0  0  0
  -22.6780  -14.5570   20.0650 O   0  0  0  0  0  0  0  0  0  0  0  0
  -22.5430  -12.1870   22.1210 H   0  0  0  0  0  0  0  0  0  0  0  0
  -21.2650  -13.2550   21.6210 H   0  0  0  0  0  0  0  0  0  0  0  0
  -25.7330  -15.2780   20.1720 N   0  0  0  0  0  0  0  0  0  0  0  0
  -24.9400  -15.9090   20.1280 H   0  0  0  0  0  0  0  0  0  0  0  0
  -26.6060  -15.7170   19.9130 H   0  0  0  0  0  0  0  0  0  0  0  0
  -28.7050  -23.2210   19.6590 C   0  0  0  0  0  2  0  0  0  0  0  0
  -28.5530  -24.8040   20.3200 C   0  0  0  0  0  2  0  0  0  0  0  0
  -28.6010  -26.2830   19.7770 O   0  0  0  0  0  0  0  0  0  0  0  0
  -24.8570  -31.7310   23.1960 C   0  0  0  0  0  0  0  0  0  0  0  0
  -27.5180  -27.2380   19.8800 C   0  0  0  0  0  0  0  0  0  0  0  0
  -23.6830  -30.4120   21.4770 C   0  0  0  0  0  3  0  0  0  0  0  0
  -25.1580  -28.9510   19.9600 C   0  0  0  0  0  0  0  0  0  0  0  0
  -26.2320  -30.7340   21.3260 C   0  0  0  0  0  2  0  0  0  0  0  0
  -26.3320  -29.3820   20.5910 C   0  0  0  0  0  0  0  0  0  0  0  0
  -27.5170  -28.5480   20.5240 C   0  0  0  0  0  3  0  0  0  0  0  0
  -26.3120  -26.9090   19.2310 C   0  0  0  0  0  3  0  0  0  0  0  0
  -25.1610  -27.7290   19.2670 C   0  0  0  0  0  3  0  0  0  0  0  0
  -23.9150  -29.8240   20.0600 C   0  0  0  0  0  2  0  0  0  0  0  0
  -24.9440  -30.9790   22.0550 N   0  0  0  0  0  0  0  0  0  0  0  0
  -23.7660  -31.9580   23.7420 O   0  0  0  0  0  0  0  0  0  0  0  0
  -23.0290  -29.3340   22.3790 C   0  0  0  0  0  0  0  0  0  0  0  0
  -21.7030  -29.1500   22.2530 N   0  0  0  0  0  0  0  0  0  0  0  0
  -23.7180  -28.6680   23.1550 O   0  0  0  0  0  0  0  0  0  0  0  0
  -21.2010  -29.7400   21.6040 H   0  0  0  0  0  0  0  0  0  0  0  0
  -18.3410  -27.8860   22.7380 C   0  0  0  0  0  0  0  0  0  0  0  0
  -20.9040  -28.1520   22.9690 C   0  0  0  0  0  3  0  0  0  0  0  0
  -21.0030  -26.7680   22.2870 C   0  0  0  0  0  2  0  0  0  0  0  0
  -19.8820  -26.5110   21.2760 C   0  0  0  0  0  2  0  0  0  0  0  0
  -18.5130  -26.5940   21.9570 C   0  0  0  0  0  2  0  0  0  0  0  0
  -19.4630  -28.6260   23.1990 C   0  0  0  0  0  0  0  0  0  0  0  0
  -19.2450  -29.8350   23.8930 C   0  0  0  0  0  3  0  0  0  0  0  0
  -17.9400  -30.3070   24.1270 C   0  0  0  0  0  3  0  0  0  0  0  0
  -16.8330  -29.5640   23.6790 C   0  0  0  0  0  3  0  0  0  0  0  0
  -17.0350  -28.3550   22.9910 C   0  0  0  0  0  3  0  0  0  0  0  0
  -26.1210  -32.3560   23.8600 C   0  0  0  0  0  3  0  0  0  0  0  0
  -25.7740  -33.7230   24.2830 N   0  0  0  0  0  0  0  0  0  0  0  0
  -26.1010  -34.8380   23.6150 C   0  0  0  0  0  0  0  0  0  0  0  0
  -26.7900  -34.8240   22.5920 O   0  0  0  0  0  0  0  0  0  0  0  0
  -25.1600  -33.8060   25.0800 H   0  0  0  0  0  0  0  0  0  0  0  0
  -24.3570  -36.6350   23.3590 C   0  0  0  0  0  1  0  0  0  0  0  0
  -25.5820  -36.1800   24.1680 C   0  0  0  0  0  3  0  0  0  0  0  0
  -27.6760  -37.0290   25.1330 C   0  0  0  0  0  1  0  0  0  0  0  0
  -26.6020  -37.2520   24.1680 N   0  0  0  0  0  0  0  0  0  0  0  0
  -26.1770  -38.1530   24.3680 H   0  0  0  0  0  0  0  0  0  0  0  0
  -26.6540  -31.5230   25.0890 C   0  0  1  0  0  0  0  0  0  0  0  0
  -25.5670  -31.2010   26.1420 C   0  0  0  0  0  1  0  0  0  0  0  0
  -27.2640  -30.1810   24.6240 C   0  0  0  0  0  1  0  0  0  0  0  0
  -27.7880  -32.3000   25.7970 C   0  0  0  0  0  1  0  0  0  0  0  0
  -31.7040  -23.1730   19.0570 C   0  0  0  0  0  2  0  0  0  0  0  0
  -33.8990  -21.8820   19.5150 C   0  0  0  0  0  1  0  0  0  0  0  0
  -33.7500  -24.3570   19.9340 C   0  0  0  0  0  1  0  0  0  0  0  0
  -32.9690  -23.0340   19.9340 C   0  0  0  0  0  3  0  0  0  0  0  0
  -30.2830  -19.3700   15.7850 O   0  0  0  0  0  0  0  0  0  0  0  0
  -29.0450  -20.4420   14.0090 C   0  0  0  0  0  1  0  0  0  0  0  0
  -28.9840  -19.7930   15.3930 C   0  0  0  0  0  2  0  0  0  0  0  0
  1  5  1  0
  2  1  2  0
  3  4  1  0
  4  5  2  0
  4  8  1  0
  5 20  1  0
  6  2  1  0
  6  3  2  0
  7  3  1  0
  7 10  1  0
  9 50  1  0
  9  8  1  0
 10 93  1  0
 10  9  1  0
 11  7  2  0
 12 18  1  0
 13 18  1  0
 14 15  1  0
 14 13  1  0
 16 15  1  0
 16 25  1  0
 16 17  1  0
 18 17  1  0
 19 12  2  0
 20 12  1  0
 20 21  1  0
 22 23  2  0
 23 42  1  0
 23 24  1  0
 24 27  1  0
 25 22  1  0
 25 26  1  0
 26 24  2  0
 27 28  1  0
 28 29  2  0
 30 33  1  0
 30 29  1  0
 31 30  2  0
 32 31  1  0
 32 27  2  0
 33 34  1  0
 34 39  2  0
 34 35  1  0
 35 36  2  0
 36 37  1  0
 37 41  1  0
 38 37  2  0
 39 38  1  0
 40 39  1  0
 42 43  1  0
 43 46  1  0
 43 45  1  0
 44 42  2  0
 47 22  1  0
 48 47  1  0
 49 47  1  0
 50 51  1  0
 52 54  1  0
 52 51  1  0
 53 64  2  0
 54 59  1  0
 55 63  1  0
 55 65  1  0
 56 62  1  0
 56 58  1  0
 57 63  1  0
 58 57  1  0
 59 58  2  0
 60 61  1  0
 60 54  2  0
 61 56  2  0
 62 55  1  0
 63 53  1  0
 65 67  2  0
 66 65  1  0
 68 66  1  0
 69 78  2  0
 69 74  1  0
 70 66  1  0
 70 74  1  0
 71 70  1  0
 72 73  1  0
 72 71  1  0
 73 69  1  0
 74 75  2  0
 75 76  1  0
 77 76  2  0
 78 77  1  0
 79 53  1  0
 79 80  1  0
 79 89  1  0
 80 83  1  0
 81 85  1  0
 81 80  1  0
 82 81  2  0
 85 84  1  0
 85 87  1  0
 87 88  1  0
 87 86  1  0
 89 92  1  1
 89 90  1  0
 91 89  1  0
 93 96  1  0
 94 96  1  0
 95 96  1  0
 97  6  1  0
 98 99  1  0
 99 97  1  0
M  ISO  4  12 100  20 100  51 101  52 101
M  END
>  <TORSDO>  (69) 
F 22

>  <SCORE>  (69) 
-11.320

>  <name>  (69) 
68

>  <ligand_id>  (69) 
68

>  <original_smiles>  (69) 
[H]c1c([H])c([H])c2c(c1[H])C([H])([H])C([H])([H])C([H])([H])C2([H])N([H])C(=O)C1([H])N(C(=O)C([H])(N([H])C(=O)C([H])(N([H])C([H])([H])[H])C([H])([H])[H])C(C([H])([H])[H])(C([H])([H])[H])C([H])([H])[H])C([H])([H])c2c([H])c(OC([H])([H])C([H])([H])C3([H])N(C([H])([H])C([H])(C([H])([H])[H])C([H])([H])[H])C(=O)c4c(OC([H])([H])C([H])([H])[H])c([H])c([H])c(N([H])C(=O)N5C([H])([H])C([H])([H])C([H])([H])C([H])(n6nc(-c7c([H])c([H])c(Oc8c([H])c([H])c(F)c([H])c8F)c([H])c7[H])c(C(=O)N([H])[H])c6N([H])[H])C5([H])[H])c4C3([H])[H])c([H])c([H])c2C1([H])[H]

>  <smiles>  (69) 
[H]c1c([H])c([H])c2c(c1[H])C([H])([H])C([H])([H])C([H])([H])C2([H])N([H])C(=O)C1([H])N(C(=O)C([H])(N([H])C(=O)C([H])(N([H])C([H])([H])[H])C([H])([H])[H])C(C([H])([H])[H])(C([H])([H])[H])C([H])([H])[H])C([H])([H])c2c([H])c(OC([H])([H])C([H])([H])C3([H])N(C([H])([H])C([H])(C([H])([H])[H])C([H])([H])[H])C(=O)c4c(OC([H])([H])C([H])([H])[H])c([H])c([H])c(N([H])C(=O)N5C([H])([H])C([H])([H])C([H])([H])C([H])(n6nc(-c7c([H])c([H])c(Oc8c([H])c([H])c(F)c([H])c8F)c([H])c7[H])c(C(=O)N([H])[H])c6N([H])[H])C5([H])[H])c4C3([H])[H])c([H])c([H])c2C1([H])[H]

$$$$
69:0:0
     RDKit          3D

 93102  0  0  1  0  0  0  0  0999 V2000
  -31.3530  -22.2570   20.6270 C   0  0  0  0  0  3  0  0  0  0  0  0
  -28.9890  -22.7800   20.0370 C   0  0  0  0  0  3  0  0  0  0  0  0
  -31.5290  -23.6450   20.6180 C   0  0  0  0  0  0  0  0  0  0  0  0
  -30.4900  -24.5840   20.3400 C   0  0  0  0  0  0  0  0  0  0  0  0
  -29.1780  -24.2090   20.0570 C   0  0  0  0  0  0  0  0  0  0  0  0
  -30.0320  -21.8120   20.3150 C   0  0  0  0  0  0  0  0  0  0  0  0
  -32.5760  -24.7200   20.7760 C   0  0  0  0  0  2  0  0  0  0  0  0
  -31.4050  -25.7760   20.4660 C   0  0  0  0  0  2  0  0  0  0  0  0
  -29.7670  -20.4180   20.2310 N   0  0  0  0  0  0  0  0  0  0  0  0
  -28.8380  -20.2090   19.8720 H   0  0  0  0  0  0  0  0  0  0  0  0
  -30.1340  -19.5520   21.3720 C   0  0  0  0  0  2  0  0  0  0  0  0
  -30.7480  -18.1360   21.0600 C   0  0  0  0  0  2  0  0  0  0  0  0
  -29.8540  -17.0910   20.3150 C   0  0  0  0  0  2  0  0  0  0  0  0
  -30.6540  -14.6570   20.3270 C   0  0  0  0  0  0  0  0  0  0  0  0
  -30.4000  -12.4830   19.1850 C   0  0  0  0  0  2  0  0  0  0  0  0
  -29.4410  -12.6830   17.9900 C   0  0  0  0  0  2  0  0  0  0  0  0
  -27.9700  -12.5280   18.4290 C   0  0  0  0  0  2  0  0  0  0  0  0
  -27.6370  -13.3360   19.7110 C   0  0  0  0  0  3  0  0  0  0  0  0
  -28.7070  -13.1090   20.8050 C   0  0  0  0  0  2  0  0  0  0  0  0
  -30.0230  -13.4490   20.2320 N   0  0  0  0  0  0  0  0  0  0  0  0
  -31.7680  -14.8640   19.8410 O   0  0  0  0  0  0  0  0  0  0  0  0
  -29.8880  -15.6760   20.7870 N   0  0  0  0  0  0  0  0  0  0  0  0
  -29.0380  -15.3670   21.2360 H   0  0  0  0  0  0  0  0  0  0  0  0
  -25.2300  -13.9110   20.4260 C   0  0  0  0  0  0  0  0  0  0  0  0
  -24.1760  -13.1270   20.8140 C   0  0  0  0  0  0  0  0  0  0  0  0
  -24.6600  -11.7820   20.7980 C   0  0  0  0  0  0  0  0  0  0  0  0
  -26.2890  -13.0440   20.2010 N   0  0  0  0  0  0  0  0  0  0  0  0
  -25.9490  -11.7600   20.4810 N   0  0  0  0  0  0  0  0  0  0  0  0
  -23.9550  -10.5110   21.0100 C   0  0  0  0  0  0  0  0  0  0  0  0
  -24.3970   -9.5770   21.9710 C   0  0  0  0  0  3  0  0  0  0  0  0
  -23.6940   -8.3690   22.1720 C   0  0  0  0  0  3  0  0  0  0  0  0
  -22.5360   -8.0850   21.4100 C   0  0  0  0  0  0  0  0  0  0  0  0
  -22.1110   -9.0110   20.4390 C   0  0  0  0  0  3  0  0  0  0  0  0
  -22.8150  -10.2110   20.2370 C   0  0  0  0  0  3  0  0  0  0  0  0
  -21.8050   -6.9280   21.5170 O   0  0  0  0  0  0  0  0  0  0  0  0
  -21.7390   -6.2240   22.6920 C   0  0  0  0  0  0  0  0  0  0  0  0
  -21.2370   -6.8000   23.8790 C   0  0  0  0  0  3  0  0  0  0  0  0
  -21.1240   -6.0190   25.0480 C   0  0  0  0  0  3  0  0  0  0  0  0
  -21.5000   -4.6630   25.0290 C   0  0  0  0  0  0  0  0  0  0  0  0
  -21.9940   -4.0860   23.8460 C   0  0  0  0  0  3  0  0  0  0  0  0
  -22.1110   -4.8640   22.6800 C   0  0  0  0  0  0  0  0  0  0  0  0
  -22.5680   -4.2970   21.5380 F   0  0  0  0  0  0  0  0  0  0  0  0
  -21.3820   -3.9110   26.1480 F   0  0  0  0  0  0  0  0  0  0  0  0
  -22.7720  -13.5850   21.0900 C   0  0  0  0  0  0  0  0  0  0  0  0
  -22.0590  -12.8870   21.9670 N   0  0  0  0  0  0  0  0  0  0  0  0
  -22.3150  -14.5980   20.5610 O   0  0  0  0  0  0  0  0  0  0  0  0
  -22.4400  -12.0680   22.4170 H   0  0  0  0  0  0  0  0  0  0  0  0
  -21.1190  -13.1770   22.1910 H   0  0  0  0  0  0  0  0  0  0  0  0
  -25.3730  -15.2800   20.2290 N   0  0  0  0  0  0  0  0  0  0  0  0
  -24.5980  -15.9260   20.3270 H   0  0  0  0  0  0  0  0  0  0  0  0
  -26.2140  -15.7230   19.8810 H   0  0  0  0  0  0  0  0  0  0  0  0
  -28.0400  -25.2040   19.7510 C   0  0  0  0  0  2  0  0  0  0  0  0
  -28.2190  -26.6100   20.1040 O   0  0  0  0  0  0  0  0  0  0  0  0
  -24.4980  -31.8970   23.2220 C   0  0  0  0  0  0  0  0  0  0  0  0
  -27.0770  -27.4170   20.0750 C   0  0  0  0  0  0  0  0  0  0  0  0
  -23.2750  -30.5330   21.5660 C   0  0  0  0  0  3  0  0  0  0  0  0
  -24.7080  -29.0020   20.1110 C   0  0  0  0  0  0  0  0  0  0  0  0
  -25.8120  -30.8490   21.3720 C   0  0  0  0  0  2  0  0  0  0  0  0
  -25.8800  -29.4860   20.7070 C   0  0  0  0  0  0  0  0  0  0  0  0
  -27.0660  -28.7030   20.6850 C   0  0  0  0  0  3  0  0  0  0  0  0
  -25.8800  -26.9790   19.4580 C   0  0  0  0  0  3  0  0  0  0  0  0
  -24.7050  -27.7510   19.4800 C   0  0  0  0  0  3  0  0  0  0  0  0
  -23.4760  -29.8790   20.1740 C   0  0  0  0  0  2  0  0  0  0  0  0
  -24.5480  -31.1080   22.1110 N   0  0  0  0  0  0  0  0  0  0  0  0
  -23.4190  -32.1750   23.7660 O   0  0  0  0  0  0  0  0  0  0  0  0
  -22.6120  -29.5030   22.5110 C   0  0  0  0  0  0  0  0  0  0  0  0
  -21.2910  -29.3080   22.3590 N   0  0  0  0  0  0  0  0  0  0  0  0
  -23.2860  -28.8860   23.3410 O   0  0  0  0  0  0  0  0  0  0  0  0
  -20.8080  -29.8590   21.6650 H   0  0  0  0  0  0  0  0  0  0  0  0
  -17.9260  -28.0530   22.7640 C   0  0  0  0  0  0  0  0  0  0  0  0
  -20.4690  -28.3620   23.1160 C   0  0  0  0  0  3  0  0  0  0  0  0
  -20.6170  -26.9280   22.5590 C   0  0  0  0  0  2  0  0  0  0  0  0
  -19.5550  -26.5750   21.5150 C   0  0  0  0  0  2  0  0  0  0  0  0
  -18.1500  -26.7000   22.1090 C   0  0  0  0  0  2  0  0  0  0  0  0
  -19.0150  -28.8410   23.2210 C   0  0  0  0  0  0  0  0  0  0  0  0
  -18.7520  -30.1080   23.7870 C   0  0  0  0  0  3  0  0  0  0  0  0
  -17.4330  -30.5870   23.9010 C   0  0  0  0  0  3  0  0  0  0  0  0
  -16.3590  -29.7950   23.4600 C   0  0  0  0  0  3  0  0  0  0  0  0
  -16.6060  -28.5320   22.8970 C   0  0  0  0  0  3  0  0  0  0  0  0
  -25.7900  -32.5080   23.8480 C   0  0  0  0  0  3  0  0  0  0  0  0
  -25.5030  -33.9130   24.1690 N   0  0  0  0  0  0  0  0  0  0  0  0
  -25.8760  -34.9570   23.4150 C   0  0  0  0  0  0  0  0  0  0  0  0
  -26.5640  -34.8360   22.3970 O   0  0  0  0  0  0  0  0  0  0  0  0
  -24.9000  -34.0830   24.9600 H   0  0  0  0  0  0  0  0  0  0  0  0
  -24.2060  -36.7910   23.0010 C   0  0  0  0  0  1  0  0  0  0  0  0
  -25.4070  -36.3550   23.8580 C   0  0  0  0  0  3  0  0  0  0  0  0
  -27.5280  -37.1850   24.7750 C   0  0  0  0  0  1  0  0  0  0  0  0
  -26.4680  -37.3830   23.7870 N   0  0  0  0  0  0  0  0  0  0  0  0
  -26.0780  -38.3130   23.9170 H   0  0  0  0  0  0  0  0  0  0  0  0
  -26.2820  -31.7320   25.1300 C   0  0  1  0  0  0  0  0  0  0  0  0
  -25.1800  -31.5180   26.1920 C   0  0  0  0  0  1  0  0  0  0  0  0
  -26.8410  -30.3450   24.7410 C   0  0  0  0  0  1  0  0  0  0  0  0
  -27.4390  -32.5100   25.7990 C   0  0  0  0  0  1  0  0  0  0  0  0
  2  5  2  0
  2  6  1  0
  3  1  1  0
  3  7  1  0
  4  8  1  0
  4  3  2  0
  5  4  1  0
  6  1  2  0
  8  7  1  0
  9  6  1  0
  9 11  1  0
 10  9  1  0
 12 11  1  0
 13 22  1  0
 13 12  1  0
 14 22  1  0
 15 20  1  0
 16 17  1  0
 16 15  1  0
 18 17  1  0
 18 27  1  0
 18 19  1  0
 20 14  1  0
 20 19  1  0
 21 14  2  0
 22 23  1  0
 24 25  2  0
 25 44  1  0
 26 25  1  0
 26 29  1  0
 27 24  1  0
 27 28  1  0
 28 26  2  0
 29 30  1  0
 30 31  2  0
 32 35  1  0
 32 31  1  0
 33 32  2  0
 34 33  1  0
 34 29  2  0
 35 36  1  0
 36 37  1  0
 37 38  2  0
 39 38  1  0
 39 43  1  0
 40 39  2  0
 41 36  2  0
 41 40  1  0
 42 41  1  0
 44 45  1  0
 45 48  1  0
 45 47  1  0
 46 44  2  0
 49 50  1  0
 49 24  1  0
 51 49  1  0
 52  5  1  0
 52 53  1  0
 54 65  2  0
 55 53  1  0
 55 60  1  0
 56 64  1  0
 56 66  1  0
 57 63  1  0
 57 59  1  0
 58 64  1  0
 59 58  1  0
 60 59  2  0
 61 62  1  0
 61 55  2  0
 62 57  2  0
 63 56  1  0
 64 54  1  0
 66 68  2  0
 67 66  1  0
 69 67  1  0
 70 79  2  0
 70 75  1  0
 71 67  1  0
 71 75  1  0
 72 71  1  0
 73 74  1  0
 73 72  1  0
 74 70  1  0
 75 76  2  0
 76 77  1  0
 78 77  2  0
 79 78  1  0
 80 54  1  0
 80 81  1  0
 80 90  1  0
 81 84  1  0
 82 86  1  0
 82 81  1  0
 83 82  2  0
 86 85  1  0
 88 86  1  0
 88 89  1  0
 88 87  1  0
 90 93  1  1
 90 91  1  0
 92 90  1  0
M  ISO  4  14 100  22 100  52 101  53 101
M  END
>  <TORSDO>  (70) 
F 21

>  <SCORE>  (70) 
-12.914

>  <name>  (70) 
69

>  <ligand_id>  (70) 
69

>  <original_smiles>  (70) 
[H]c1c([H])c([H])c2c(c1[H])C([H])([H])C([H])([H])C([H])([H])C2([H])N([H])C(=O)C1([H])N(C(=O)C([H])(N([H])C(=O)C([H])(N([H])C([H])([H])[H])C([H])([H])[H])C(C([H])([H])[H])(C([H])([H])[H])C([H])([H])[H])C([H])([H])c2c([H])c(OC([H])([H])c3c([H])c(N([H])C([H])([H])C([H])([H])C([H])([H])N([H])C(=O)N4C([H])([H])C([H])([H])C([H])([H])C([H])(n5nc(-c6c([H])c([H])c(Oc7c([H])c([H])c(F)c([H])c7F)c([H])c6[H])c(C(=O)N([H])[H])c5N([H])[H])C4([H])[H])c([H])c4c3C([H])([H])C4([H])[H])c([H])c([H])c2C1([H])[H]

>  <smiles>  (70) 
[H]c1c([H])c([H])c2c(c1[H])C([H])([H])C([H])([H])C([H])([H])C2([H])N([H])C(=O)C1([H])N(C(=O)C([H])(N([H])C(=O)C([H])(N([H])C([H])([H])[H])C([H])([H])[H])C(C([H])([H])[H])(C([H])([H])[H])C([H])([H])[H])C([H])([H])c2c([H])c(OC([H])([H])c3c([H])c(N([H])C([H])([H])C([H])([H])C([H])([H])N([H])C(=O)N4C([H])([H])C([H])([H])C([H])([H])C([H])(n5nc(-c6c([H])c([H])c(Oc7c([H])c([H])c(F)c([H])c7F)c([H])c6[H])c(C(=O)N([H])[H])c5N([H])[H])C4([H])[H])c([H])c4c3C([H])([H])C4([H])[H])c([H])c([H])c2C1([H])[H]

$$$$
70:0:0
     RDKit          3D

 91 99  0  0  1  0  0  0  0  0999 V2000
  -31.5440  -22.6910   22.1490 C   0  0  0  0  0  3  0  0  0  0  0  0
  -30.5740  -23.3130   21.3580 C   0  0  0  0  0  3  0  0  0  0  0  0
  -31.5260  -21.3040   22.2450 C   0  0  0  0  0  3  0  0  0  0  0  0
  -29.5860  -22.5710   20.6700 C   0  0  0  0  0  0  0  0  0  0  0  0
  -29.7110  -21.0910   20.7620 C   0  0  0  0  0  0  0  0  0  0  0  0
  -30.6520  -20.5490   21.5600 N   0  0  0  0  0  0  0  0  0  0  0  0
  -29.0320  -20.0070   20.0970 N   0  0  0  0  0  0  0  0  0  0  0  0
  -28.2430  -20.2670   19.5130 H   0  0  0  0  0  0  0  0  0  0  0  0
  -29.0120  -18.5530   20.5990 C   0  0  0  0  0  3  0  0  0  0  0  0
  -29.9790  -17.3910   20.0030 C   0  0  0  0  0  3  0  0  0  0  0  0
  -30.4880  -14.7860   20.1670 C   0  0  0  0  0  0  0  0  0  0  0  0
  -30.2770  -12.5040   19.1780 C   0  0  0  0  0  2  0  0  0  0  0  0
  -29.3000  -12.5780   17.9830 C   0  0  0  0  0  2  0  0  0  0  0  0
  -27.8440  -12.3940   18.4540 C   0  0  0  0  0  2  0  0  0  0  0  0
  -27.4990  -13.2760   19.6820 C   0  0  0  0  0  3  0  0  0  0  0  0
  -28.5940  -13.1950   20.7700 C   0  0  0  0  0  2  0  0  0  0  0  0
  -29.8710  -13.5540   20.1420 N   0  0  0  0  0  0  0  0  0  0  0  0
  -31.6630  -14.8930   19.8030 O   0  0  0  0  0  0  0  0  0  0  0  0
  -29.7070  -15.9190   20.3650 N   0  0  0  0  0  0  0  0  0  0  0  0
  -28.7670  -15.7190   20.6690 H   0  0  0  0  0  0  0  0  0  0  0  0
  -25.1300  -13.8490   20.4890 C   0  0  0  0  0  0  0  0  0  0  0  0
  -24.0810  -13.0660   20.8880 C   0  0  0  0  0  0  0  0  0  0  0  0
  -24.5520  -11.7190   20.8350 C   0  0  0  0  0  0  0  0  0  0  0  0
  -26.1730  -12.9760   20.2140 N   0  0  0  0  0  0  0  0  0  0  0  0
  -25.8330  -11.6910   20.4860 N   0  0  0  0  0  0  0  0  0  0  0  0
  -23.8370  -10.4520   21.0380 C   0  0  0  0  0  0  0  0  0  0  0  0
  -24.3010   -9.4760   21.9480 C   0  0  0  0  0  3  0  0  0  0  0  0
  -23.5840   -8.2750   22.1380 C   0  0  0  0  0  3  0  0  0  0  0  0
  -22.3870   -8.0410   21.4210 C   0  0  0  0  0  0  0  0  0  0  0  0
  -21.9410   -9.0040   20.4990 C   0  0  0  0  0  3  0  0  0  0  0  0
  -22.6590  -10.1970   20.3060 C   0  0  0  0  0  3  0  0  0  0  0  0
  -21.6390   -6.8930   21.5240 O   0  0  0  0  0  0  0  0  0  0  0  0
  -21.6390   -6.1340   22.6670 C   0  0  0  0  0  0  0  0  0  0  0  0
  -21.2630   -6.6690   23.9190 C   0  0  0  0  0  3  0  0  0  0  0  0
  -21.2100   -5.8350   25.0530 C   0  0  0  0  0  3  0  0  0  0  0  0
  -21.5250   -4.4670   24.9390 C   0  0  0  0  0  0  0  0  0  0  0  0
  -21.8910   -3.9310   23.6920 C   0  0  0  0  0  3  0  0  0  0  0  0
  -21.9460   -4.7620   22.5590 C   0  0  0  0  0  0  0  0  0  0  0  0
  -22.2810   -4.2350   21.3560 F   0  0  0  0  0  0  0  0  0  0  0  0
  -21.4650   -3.6650   26.0270 F   0  0  0  0  0  0  0  0  0  0  0  0
  -22.6900  -13.5340   21.2020 C   0  0  0  0  0  0  0  0  0  0  0  0
  -21.9910  -12.8310   22.0880 N   0  0  0  0  0  0  0  0  0  0  0  0
  -22.2320  -14.5590   20.6990 O   0  0  0  0  0  0  0  0  0  0  0  0
  -22.3750  -12.0050   22.5210 H   0  0  0  0  0  0  0  0  0  0  0  0
  -21.0570  -13.1250   22.3380 H   0  0  0  0  0  0  0  0  0  0  0  0
  -25.2760  -15.2210   20.3110 N   0  0  0  0  0  0  0  0  0  0  0  0
  -24.4970  -15.8580   20.4380 H   0  0  0  0  0  0  0  0  0  0  0  0
  -26.0870  -15.6670   19.9030 H   0  0  0  0  0  0  0  0  0  0  0  0
  -28.5990  -23.5610   19.8920 C   0  0  0  0  0  2  0  0  0  0  0  0
  -28.0460  -24.9320   20.6290 C   0  0  0  0  0  2  0  0  0  0  0  0
  -28.2600  -26.3670   20.1840 O   0  0  0  0  0  0  0  0  0  0  0  0
  -24.5870  -31.8940   23.2540 C   0  0  0  0  0  0  0  0  0  0  0  0
  -27.1680  -27.2730   20.1890 C   0  0  0  0  0  0  0  0  0  0  0  0
  -23.3750  -30.5010   21.6150 C   0  0  0  0  0  3  0  0  0  0  0  0
  -24.8180  -28.9380   20.1870 C   0  0  0  0  0  0  0  0  0  0  0  0
  -25.9210  -30.7940   21.4310 C   0  0  0  0  0  2  0  0  0  0  0  0
  -25.9960  -29.4110   20.7790 C   0  0  0  0  0  0  0  0  0  0  0  0
  -27.1750  -28.5930   20.7670 C   0  0  0  0  0  3  0  0  0  0  0  0
  -25.9670  -26.8720   19.5700 C   0  0  0  0  0  3  0  0  0  0  0  0
  -24.8090  -27.6760   19.5730 C   0  0  0  0  0  3  0  0  0  0  0  0
  -23.5880  -29.8260   20.2350 C   0  0  0  0  0  2  0  0  0  0  0  0
  -24.6480  -31.0830   22.1560 N   0  0  0  0  0  0  0  0  0  0  0  0
  -23.5050  -32.1760   23.7910 O   0  0  0  0  0  0  0  0  0  0  0  0
  -22.7070  -29.4890   22.5790 C   0  0  0  0  0  0  0  0  0  0  0  0
  -21.3820  -29.3150   22.4550 N   0  0  0  0  0  0  0  0  0  0  0  0
  -23.3870  -28.8640   23.3970 O   0  0  0  0  0  0  0  0  0  0  0  0
  -20.8940  -29.8740   21.7690 H   0  0  0  0  0  0  0  0  0  0  0  0
  -18.0040  -28.1130   22.9510 C   0  0  0  0  0  0  0  0  0  0  0  0
  -20.5610  -28.3800   23.2280 C   0  0  0  0  0  3  0  0  0  0  0  0
  -20.6680  -26.9460   22.6580 C   0  0  0  0  0  2  0  0  0  0  0  0
  -19.5690  -26.6180   21.6410 C   0  0  0  0  0  2  0  0  0  0  0  0
  -18.1850  -26.7620   22.2820 C   0  0  0  0  0  2  0  0  0  0  0  0
  -19.1200  -28.8790   23.3810 C   0  0  0  0  0  0  0  0  0  0  0  0
  -18.8970  -30.1420   23.9710 C   0  0  0  0  0  3  0  0  0  0  0  0
  -17.5900  -30.6400   24.1350 C   0  0  0  0  0  3  0  0  0  0  0  0
  -16.4890  -29.8700   23.7200 C   0  0  0  0  0  3  0  0  0  0  0  0
  -16.6960  -28.6110   23.1340 C   0  0  0  0  0  3  0  0  0  0  0  0
  -25.8710  -32.5230   23.8740 C   0  0  0  0  0  3  0  0  0  0  0  0
  -25.5700  -33.9270   24.1920 N   0  0  0  0  0  0  0  0  0  0  0  0
  -25.9210  -34.9730   23.4330 C   0  0  0  0  0  0  0  0  0  0  0  0
  -26.5970  -34.8580   22.4070 O   0  0  0  0  0  0  0  0  0  0  0  0
  -24.9650  -34.0900   24.9830 H   0  0  0  0  0  0  0  0  0  0  0  0
  -24.2110  -36.7840   23.0630 C   0  0  0  0  0  1  0  0  0  0  0  0
  -25.4450  -36.3700   23.8810 C   0  0  0  0  0  3  0  0  0  0  0  0
  -27.5840  -37.2400   24.7130 C   0  0  0  0  0  1  0  0  0  0  0  0
  -26.4880  -37.4120   23.7640 N   0  0  0  0  0  0  0  0  0  0  0  0
  -26.0910  -38.3380   23.9000 H   0  0  0  0  0  0  0  0  0  0  0  0
  -26.3770  -31.7590   25.1600 C   0  0  1  0  0  0  0  0  0  0  0  0
  -25.2780  -31.5440   26.2260 C   0  0  0  0  0  1  0  0  0  0  0  0
  -26.9480  -30.3720   24.7870 C   0  0  0  0  0  1  0  0  0  0  0  0
  -27.5350  -32.5490   25.8150 C   0  0  0  0  0  1  0  0  0  0  0  0
  1  3  1  0
  2  1  2  0
  4  5  2  0
  4  2  1  0
  5  6  1  0
  6  3  2  0
  7  9  1  0
  7  5  1  0
  8  7  1  0
 10 19  1  0
 10  9  2  0
 11 19  1  0
 12 17  1  0
 13 14  1  0
 13 12  1  0
 15 14  1  0
 15 24  1  0
 15 16  1  0
 17 11  1  0
 17 16  1  0
 18 11  2  0
 19 20  1  0
 21 22  2  0
 22 41  1  0
 23 22  1  0
 23 26  1  0
 24 25  1  0
 24 21  1  0
 25 23  2  0
 26 27  1  0
 27 28  2  0
 29 32  1  0
 29 28  1  0
 30 29  2  0
 31 30  1  0
 31 26  2  0
 32 33  1  0
 33 34  1  0
 34 35  2  0
 36 35  1  0
 36 40  1  0
 37 36  2  0
 38 33  2  0
 38 37  1  0
 39 38  1  0
 41 42  1  0
 42 45  1  0
 42 44  1  0
 43 41  2  0
 46 47  1  0
 46 21  1  0
 48 46  1  0
 49 50  1  0
 49  4  1  0
 51 53  1  0
 51 50  1  0
 52 63  2  0
 53 58  1  0
 54 62  1  0
 54 64  1  0
 55 61  1  0
 55 57  1  0
 56 62  1  0
 57 56  1  0
 58 57  2  0
 59 60  1  0
 59 53  2  0
 60 55  2  0
 61 54  1  0
 62 52  1  0
 64 66  2  0
 65 64  1  0
 67 65  1  0
 68 77  2  0
 68 73  1  0
 69 65  1  0
 69 73  1  0
 70 69  1  0
 71 72  1  0
 71 70  1  0
 72 68  1  0
 73 74  2  0
 74 75  1  0
 76 75  2  0
 77 76  1  0
 78 52  1  0
 78 79  1  0
 78 88  1  0
 79 82  1  0
 80 84  1  0
 80 79  1  0
 81 80  2  0
 84 83  1  0
 86 84  1  0
 86 87  1  0
 86 85  1  0
 88 91  1  1
 88 89  1  0
 90 88  1  0
M  ISO  4  11 100  19 100  50 101  51 101
M  END
>  <TORSDO>  (71) 
F 21

>  <SCORE>  (71) 
-12.937

>  <name>  (71) 
70

>  <ligand_id>  (71) 
70

>  <original_smiles>  (71) 
[H]c1nc(N([H])C([H])([H])C([H])([H])N([H])C(=O)N2C([H])([H])C([H])([H])C([H])([H])C([H])(n3nc(-c4c([H])c([H])c(Oc5c([H])c([H])c(F)c([H])c5F)c([H])c4[H])c(C(=O)N([H])[H])c3N([H])[H])C2([H])[H])c(C([H])([H])C([H])([H])Oc2c([H])c([H])c3c(c2[H])C([H])([H])N(C(=O)C([H])(N([H])C(=O)C([H])(N([H])C([H])([H])[H])C([H])([H])[H])C(C([H])([H])[H])(C([H])([H])[H])C([H])([H])[H])C([H])(C(=O)N([H])C2([H])c4c([H])c([H])c([H])c([H])c4C([H])([H])C([H])([H])C2([H])[H])C3([H])[H])c([H])c1[H]

>  <smiles>  (71) 
[H]c1nc(N([H])C([H])([H])C([H])([H])N([H])C(=O)N2C([H])([H])C([H])([H])C([H])([H])C([H])(n3nc(-c4c([H])c([H])c(Oc5c([H])c([H])c(F)c([H])c5F)c([H])c4[H])c(C(=O)N([H])[H])c3N([H])[H])C2([H])[H])c(C([H])([H])C([H])([H])Oc2c([H])c([H])c3c(c2[H])C([H])([H])N(C(=O)C([H])(N([H])C(=O)C([H])(N([H])C([H])([H])[H])C([H])([H])[H])C(C([H])([H])[H])(C([H])([H])[H])C([H])([H])[H])C([H])(C(=O)N([H])C2([H])c4c([H])c([H])c([H])c([H])c4C([H])([H])C([H])([H])C2([H])[H])C3([H])[H])c([H])c1[H]

$$$$
71:0:0
     RDKit          3D

 95103  0  0  1  0  0  0  0  0999 V2000
  -28.3690  -22.0760   21.6980 C   0  0  0  0  0  3  0  0  0  0  0  0
  -28.2140  -23.3670   22.2310 C   0  0  0  0  0  3  0  0  0  0  0  0
  -28.4920  -23.0270   19.4720 C   0  0  0  0  0  3  0  0  0  0  0  0
  -28.5140  -21.8810   20.3120 C   0  0  0  0  0  0  0  0  0  0  0  0
  -28.3140  -24.3410   19.9930 C   0  0  0  0  0  0  0  0  0  0  0  0
  -28.1730  -24.5140   21.3970 C   0  0  0  0  0  0  0  0  0  0  0  0
  -28.6090  -20.4480   19.7510 C   0  0  0  0  0  2  0  0  0  0  0  0
  -29.4930  -19.5410   20.5380 N   0  0  0  0  0  4  0  0  0  0  0  0
  -29.2710  -19.6890   21.5070 H   0  0  0  0  0  0  0  0  0  0  0  0
  -30.4500  -19.8230   20.4010 H   0  0  0  0  0  0  0  0  0  0  0  0
  -29.3370  -18.0820   20.2550 C   0  0  0  0  0  2  0  0  0  0  0  0
  -30.1770  -17.1600   21.1950 C   0  0  0  0  0  2  0  0  0  0  0  0
  -30.6380  -14.7020   20.7010 C   0  0  0  0  0  0  0  0  0  0  0  0
  -30.4730  -12.4920   19.6090 C   0  0  0  0  0  2  0  0  0  0  0  0
  -29.5690  -12.6270   18.3660 C   0  0  0  0  0  2  0  0  0  0  0  0
  -28.0840  -12.4560   18.7440 C   0  0  0  0  0  2  0  0  0  0  0  0
  -27.6730  -13.3090   19.9750 C   0  0  0  0  0  3  0  0  0  0  0  0
  -28.6930  -13.1550   21.1250 C   0  0  0  0  0  2  0  0  0  0  0  0
  -30.0250  -13.4930   20.5920 N   0  0  0  0  0  0  0  0  0  0  0  0
  -31.7930  -14.9060   20.3140 O   0  0  0  0  0  0  0  0  0  0  0  0
  -29.8430  -15.7200   21.0890 N   0  0  0  0  0  0  0  0  0  0  0  0
  -28.9040  -15.4550   21.3490 H   0  0  0  0  0  0  0  0  0  0  0  0
  -25.2400  -13.8630   20.5990 C   0  0  0  0  0  0  0  0  0  0  0  0
  -24.1780  -13.0660   20.9320 C   0  0  0  0  0  0  0  0  0  0  0  0
  -24.6720  -11.7260   20.9220 C   0  0  0  0  0  0  0  0  0  0  0  0
  -26.3130  -13.0030   20.4080 N   0  0  0  0  0  0  0  0  0  0  0  0
  -25.9710  -11.7140   20.6610 N   0  0  0  0  0  0  0  0  0  0  0  0
  -23.9670  -10.4480   21.0890 C   0  0  0  0  0  0  0  0  0  0  0  0
  -24.3690   -9.5070   22.0610 C   0  0  0  0  0  3  0  0  0  0  0  0
  -23.6690   -8.2920   22.2170 C   0  0  0  0  0  3  0  0  0  0  0  0
  -22.5500   -8.0100   21.3980 C   0  0  0  0  0  0  0  0  0  0  0  0
  -22.1660   -8.9410   20.4160 C   0  0  0  0  0  3  0  0  0  0  0  0
  -22.8680  -10.1480   20.2600 C   0  0  0  0  0  3  0  0  0  0  0  0
  -21.8260   -6.8440   21.4590 O   0  0  0  0  0  0  0  0  0  0  0  0
  -21.7050   -6.1310   22.6240 C   0  0  0  0  0  0  0  0  0  0  0  0
  -21.1010   -6.6810   23.7760 C   0  0  0  0  0  3  0  0  0  0  0  0
  -20.9370   -5.8910   24.9300 C   0  0  0  0  0  3  0  0  0  0  0  0
  -21.3660   -4.5500   24.9340 C   0  0  0  0  0  0  0  0  0  0  0  0
  -21.9600   -3.9980   23.7860 C   0  0  0  0  0  3  0  0  0  0  0  0
  -22.1270   -4.7850   22.6350 C   0  0  0  0  0  0  0  0  0  0  0  0
  -22.6830   -4.2420   21.5250 F   0  0  0  0  0  0  0  0  0  0  0  0
  -21.1990   -3.7890   26.0410 F   0  0  0  0  0  0  0  0  0  0  0  0
  -22.7600  -13.5130   21.1490 C   0  0  0  0  0  0  0  0  0  0  0  0
  -22.0170  -12.8020   21.9890 N   0  0  0  0  0  0  0  0  0  0  0  0
  -22.3180  -14.5270   20.6080 O   0  0  0  0  0  0  0  0  0  0  0  0
  -22.3860  -11.9830   22.4450 H   0  0  0  0  0  0  0  0  0  0  0  0
  -21.0640  -13.0830   22.1760 H   0  0  0  0  0  0  0  0  0  0  0  0
  -25.3820  -15.2350   20.4190 N   0  0  0  0  0  0  0  0  0  0  0  0
  -24.5900  -15.8670   20.4820 H   0  0  0  0  0  0  0  0  0  0  0  0
  -26.2180  -15.6840   20.0700 H   0  0  0  0  0  0  0  0  0  0  0  0
  -28.3370  -25.5240   18.9980 C   0  0  0  0  0  2  0  0  0  0  0  0
  -28.2220  -26.8610   19.5270 O   0  0  0  0  0  0  0  0  0  0  0  0
  -24.4160  -31.7440   23.0550 C   0  0  0  0  0  0  0  0  0  0  0  0
  -27.0070  -27.5230   19.6070 C   0  0  0  0  0  0  0  0  0  0  0  0
  -23.1760  -30.4580   21.3450 C   0  0  0  0  0  3  0  0  0  0  0  0
  -24.5980  -29.0150   19.7930 C   0  0  0  0  0  0  0  0  0  0  0  0
  -25.6970  -30.8280   21.1220 C   0  0  0  0  0  2  0  0  0  0  0  0
  -25.7690  -29.5050   20.3820 C   0  0  0  0  0  0  0  0  0  0  0  0
  -26.9710  -28.7660   20.2840 C   0  0  0  0  0  3  0  0  0  0  0  0
  -25.8080  -27.0340   19.0410 C   0  0  0  0  0  3  0  0  0  0  0  0
  -24.6120  -27.7760   19.1270 C   0  0  0  0  0  3  0  0  0  0  0  0
  -23.3540  -29.8680   19.9200 C   0  0  0  0  0  2  0  0  0  0  0  0
  -24.4490  -31.0210   21.9000 N   0  0  0  0  0  0  0  0  0  0  0  0
  -23.3470  -31.9780   23.6350 O   0  0  0  0  0  0  0  0  0  0  0  0
  -22.5420  -29.3750   22.2470 C   0  0  0  0  0  0  0  0  0  0  0  0
  -21.2120  -29.2170   22.1470 N   0  0  0  0  0  0  0  0  0  0  0  0
  -23.2420  -28.6810   22.9890 O   0  0  0  0  0  0  0  0  0  0  0  0
  -20.7090  -29.8260   21.5160 H   0  0  0  0  0  0  0  0  0  0  0  0
  -17.8360  -28.0600   22.7020 C   0  0  0  0  0  0  0  0  0  0  0  0
  -20.4080  -28.2320   22.8710 C   0  0  0  0  0  3  0  0  0  0  0  0
  -20.4460  -26.8590   22.1620 C   0  0  0  0  0  2  0  0  0  0  0  0
  -19.2890  -26.6560   21.1780 C   0  0  0  0  0  2  0  0  0  0  0  0
  -17.9440  -26.7750   21.9000 C   0  0  0  0  0  2  0  0  0  0  0  0
  -18.9940  -28.7530   23.1450 C   0  0  0  0  0  0  0  0  0  0  0  0
  -18.8380  -29.9640   23.8540 C   0  0  0  0  0  3  0  0  0  0  0  0
  -17.5570  -30.4780   24.1290 C   0  0  0  0  0  3  0  0  0  0  0  0
  -16.4140  -29.7800   23.7040 C   0  0  0  0  0  3  0  0  0  0  0  0
  -16.5550  -28.5730   22.9950 C   0  0  0  0  0  3  0  0  0  0  0  0
  -25.7170  -32.3290   23.6910 C   0  0  0  0  0  3  0  0  0  0  0  0
  -25.4200  -33.7050   24.1100 N   0  0  0  0  0  0  0  0  0  0  0  0
  -25.7740  -34.8020   23.4270 C   0  0  0  0  0  0  0  0  0  0  0  0
  -26.4570  -34.7600   22.4000 O   0  0  0  0  0  0  0  0  0  0  0  0
  -24.8170  -33.8130   24.9130 H   0  0  0  0  0  0  0  0  0  0  0  0
  -24.1060  -36.6620   23.1360 C   0  0  0  0  0  1  0  0  0  0  0  0
  -25.2950  -36.1610   23.9710 C   0  0  0  0  0  3  0  0  0  0  0  0
  -27.3930  -36.9320   24.9880 C   0  0  0  0  0  1  0  0  0  0  0  0
  -26.3550  -37.1930   23.9940 N   0  0  0  0  0  0  0  0  0  0  0  0
  -25.9600  -38.1100   24.1840 H   0  0  0  0  0  0  0  0  0  0  0  0
  -26.2520  -31.4800   24.9100 C   0  0  1  0  0  0  0  0  0  0  0  0
  -25.1780  -31.1840   25.9810 C   0  0  0  0  0  1  0  0  0  0  0  0
  -26.8210  -30.1260   24.4260 C   0  0  0  0  0  1  0  0  0  0  0  0
  -27.4160  -32.2300   25.6020 C   0  0  0  0  0  1  0  0  0  0  0  0
  -27.9900  -25.7920   21.8920 O   0  0  0  0  0  0  0  0  0  0  0  0
  -29.4230  -26.3310   23.7750 C   0  0  0  0  0  1  0  0  0  0  0  0
  -27.9970  -26.0330   23.2950 C   0  0  0  0  0  2  0  0  0  0  0  0
  1  2  1  0
  3  5  2  0
  3  4  1  0
  4  1  2  0
  5  6  1  0
  6 93  1  0
  6  2  2  0
  7  4  1  0
  7  8  1  0
  8  9  1  0
 10  8  1  0
 11  8  1  0
 11 12  1  0
 13 21  1  0
 14 19  1  0
 15 16  1  0
 15 14  1  0
 17 16  1  0
 17 26  1  0
 17 18  1  0
 19 13  1  0
 19 18  1  0
 20 13  2  0
 21 12  1  0
 21 22  1  0
 23 24  2  0
 24 43  1  0
 25 24  1  0
 25 28  1  0
 26 23  1  0
 26 27  1  0
 27 25  2  0
 28 29  1  0
 29 30  2  0
 31 34  1  0
 31 30  1  0
 32 31  2  0
 33 32  1  0
 33 28  2  0
 34 35  1  0
 35 40  2  0
 35 36  1  0
 36 37  2  0
 37 38  1  0
 38 42  1  0
 39 38  2  0
 40 39  1  0
 41 40  1  0
 43 44  1  0
 44 47  1  0
 44 46  1  0
 45 43  2  0
 48 49  1  0
 48 23  1  0
 50 48  1  0
 51 52  1  0
 51  5  1  0
 52 54  1  0
 53 64  2  0
 54 59  1  0
 55 63  1  0
 55 65  1  0
 56 62  1  0
 56 58  1  0
 57 63  1  0
 58 57  1  0
 59 58  2  0
 60 61  1  0
 60 54  2  0
 61 56  2  0
 62 55  1  0
 63 53  1  0
 65 67  2  0
 66 65  1  0
 68 66  1  0
 69 78  2  0
 69 74  1  0
 70 66  1  0
 70 74  1  0
 71 70  1  0
 72 73  1  0
 72 71  1  0
 73 69  1  0
 74 75  2  0
 75 76  1  0
 77 76  2  0
 78 77  1  0
 79 53  1  0
 79 80  1  0
 79 89  1  0
 80 83  1  0
 81 85  1  0
 81 80  1  0
 82 81  2  0
 85 84  1  0
 85 87  1  0
 87 88  1  0
 87 86  1  0
 89 92  1  1
 89 90  1  0
 91 89  1  0
 93 95  1  0
 95 94  1  0
M  ISO  4  13 100  21 100  51 101  52 101
M  END
>  <TORSDO>  (72) 
F 23

>  <SCORE>  (72) 
-12.583

>  <name>  (72) 
71

>  <ligand_id>  (72) 
71

>  <original_smiles>  (72) 
[H]c1c([H])c([H])c2c(c1[H])C([H])([H])C([H])([H])C([H])([H])C2([H])N([H])C(=O)C1([H])N(C(=O)C([H])(N([H])C(=O)C([H])(N([H])C([H])([H])[H])C([H])([H])[H])C(C([H])([H])[H])(C([H])([H])[H])C([H])([H])[H])C([H])([H])c2c([H])c(OC([H])([H])c3c([H])c(C([H])([H])[N+]([H])([H])C([H])([H])C([H])([H])N([H])C(=O)N4C([H])([H])C([H])([H])C([H])([H])C([H])(n5nc(-c6c([H])c([H])c(Oc7c([H])c([H])c(F)c([H])c7F)c([H])c6[H])c(C(=O)N([H])[H])c5N([H])[H])C4([H])[H])c([H])c([H])c3OC([H])([H])C([H])([H])[H])c([H])c([H])c2C1([H])[H]

>  <smiles>  (72) 
[H]c1c([H])c([H])c2c(c1[H])C([H])([H])C([H])([H])C([H])([H])C2([H])N([H])C(=O)C1([H])N(C(=O)C([H])(N([H])C(=O)C([H])(N([H])C([H])([H])[H])C([H])([H])[H])C(C([H])([H])[H])(C([H])([H])[H])C([H])([H])[H])C([H])([H])c2c([H])c(OC([H])([H])c3c([H])c(C([H])([H])[N+]([H])([H])C([H])([H])C([H])([H])N([H])C(=O)N4C([H])([H])C([H])([H])C([H])([H])C([H])(n5nc(-c6c([H])c([H])c(Oc7c([H])c([H])c(F)c([H])c7F)c([H])c6[H])c(C(=O)N([H])[H])c5N([H])[H])C4([H])[H])c([H])c([H])c3OC([H])([H])C([H])([H])[H])c([H])c([H])c2C1([H])[H]

$$$$
72:0:0
     RDKit          3D

 93101  0  0  1  0  0  0  0  0999 V2000
  -29.0340  -21.7760   20.4430 N   0  0  0  0  0  4  0  0  0  0  0  0
  -28.4380  -21.4610   19.6950 H   0  0  0  0  0  0  0  0  0  0  0  0
  -29.9650  -21.8810   20.0790 H   0  0  0  0  0  0  0  0  0  0  0  0
  -29.0500  -20.7510   21.5150 C   0  0  0  0  0  2  0  0  0  0  0  0
  -28.6810  -18.3230   20.8620 C   0  0  0  0  0  3  0  0  0  0  0  0
  -29.1060  -16.9820   20.7730 C   0  0  0  0  0  3  0  0  0  0  0  0
  -31.4050  -17.7030   21.1330 C   0  0  0  0  0  3  0  0  0  0  0  0
  -29.5990  -19.3650   21.1420 C   0  0  0  0  0  0  0  0  0  0  0  0
  -30.9820  -19.0530   21.2280 C   0  0  0  0  0  0  0  0  0  0  0  0
  -30.4680  -16.6590   20.9410 C   0  0  0  0  0  0  0  0  0  0  0  0
  -32.0250  -20.1380   21.4750 C   0  0  0  0  0  1  0  0  0  0  0  0
  -31.1840  -14.5160   20.0350 C   0  0  0  0  0  0  0  0  0  0  0  0
  -30.7110  -12.4150   18.8220 C   0  0  0  0  0  2  0  0  0  0  0  0
  -29.6770  -12.6530   17.7040 C   0  0  0  0  0  2  0  0  0  0  0  0
  -28.2420  -12.5370   18.2520 C   0  0  0  0  0  2  0  0  0  0  0  0
  -28.0270  -13.3500   19.5580 C   0  0  0  0  0  3  0  0  0  0  0  0
  -29.1640  -13.0970   20.5740 C   0  0  0  0  0  2  0  0  0  0  0  0
  -30.4490  -13.3780   19.9050 N   0  0  0  0  0  0  0  0  0  0  0  0
  -32.1670  -14.7670   19.3350 O   0  0  0  0  0  0  0  0  0  0  0  0
  -30.8720  -15.3050   21.0740 N   0  0  0  0  0  0  0  0  0  0  0  0
  -31.6070  -15.2190   21.7610 H   0  0  0  0  0  0  0  0  0  0  0  0
  -25.7230  -13.9780   20.5140 C   0  0  0  0  0  0  0  0  0  0  0  0
  -24.6670  -13.2140   20.9360 C   0  0  0  0  0  0  0  0  0  0  0  0
  -25.0730  -11.8550   20.7770 C   0  0  0  0  0  0  0  0  0  0  0  0
  -26.7130  -13.0830   20.1380 N   0  0  0  0  0  0  0  0  0  0  0  0
  -26.3270  -11.7960   20.3490 N   0  0  0  0  0  0  0  0  0  0  0  0
  -24.3190  -10.6080   20.9540 C   0  0  0  0  0  0  0  0  0  0  0  0
  -24.7290   -9.6240   21.8790 C   0  0  0  0  0  3  0  0  0  0  0  0
  -23.9860   -8.4370   22.0440 C   0  0  0  0  0  3  0  0  0  0  0  0
  -22.8120   -8.2250   21.2820 C   0  0  0  0  0  0  0  0  0  0  0  0
  -22.4180   -9.1950   20.3450 C   0  0  0  0  0  3  0  0  0  0  0  0
  -23.1630  -10.3760   20.1790 C   0  0  0  0  0  3  0  0  0  0  0  0
  -22.0350   -7.0930   21.3590 O   0  0  0  0  0  0  0  0  0  0  0  0
  -21.8710   -6.4110   22.5380 C   0  0  0  0  0  0  0  0  0  0  0  0
  -21.3320   -7.0270   23.6880 C   0  0  0  0  0  3  0  0  0  0  0  0
  -21.1180   -6.2690   24.8570 C   0  0  0  0  0  3  0  0  0  0  0  0
  -21.4300   -4.8970   24.8740 C   0  0  0  0  0  0  0  0  0  0  0  0
  -21.9610   -4.2810   23.7280 C   0  0  0  0  0  3  0  0  0  0  0  0
  -22.1790   -5.0360   22.5630 C   0  0  0  0  0  0  0  0  0  0  0  0
  -22.6720   -4.4330   21.4550 F   0  0  0  0  0  0  0  0  0  0  0  0
  -21.2170   -4.1670   25.9930 F   0  0  0  0  0  0  0  0  0  0  0  0
  -23.3180  -13.7170   21.3670 C   0  0  0  0  0  0  0  0  0  0  0  0
  -22.6490  -12.9990   22.2630 N   0  0  0  0  0  0  0  0  0  0  0  0
  -22.8700  -14.7800   20.9420 O   0  0  0  0  0  0  0  0  0  0  0  0
  -23.0190  -12.1360   22.6320 H   0  0  0  0  0  0  0  0  0  0  0  0
  -21.7470  -13.3210   22.5810 H   0  0  0  0  0  0  0  0  0  0  0  0
  -25.9070  -15.3510   20.3940 N   0  0  0  0  0  0  0  0  0  0  0  0
  -25.1330  -15.9900   20.5350 H   0  0  0  0  0  0  0  0  0  0  0  0
  -26.6840  -15.7790   19.9070 H   0  0  0  0  0  0  0  0  0  0  0  0
  -28.5620  -23.0920   20.9520 C   0  0  0  0  0  2  0  0  0  0  0  0
  -28.8510  -24.3100   20.0370 C   0  0  0  0  0  2  0  0  0  0  0  0
  -28.4810  -25.6330   20.7450 C   0  0  0  0  0  2  0  0  0  0  0  0
  -28.5180  -26.7780   19.8850 O   0  0  0  0  0  0  0  0  0  0  0  0
  -24.6950  -31.8570   23.0720 C   0  0  0  0  0  0  0  0  0  0  0  0
  -27.3500  -27.5020   19.9040 C   0  0  0  0  0  0  0  0  0  0  0  0
  -23.4780  -30.4550   21.4370 C   0  0  0  0  0  3  0  0  0  0  0  0
  -24.9300  -28.9530   19.9710 C   0  0  0  0  0  0  0  0  0  0  0  0
  -25.9950  -30.8540   21.2030 C   0  0  0  0  0  2  0  0  0  0  0  0
  -26.0880  -29.4940   20.5470 C   0  0  0  0  0  0  0  0  0  0  0  0
  -27.3000  -28.7740   20.5160 C   0  0  0  0  0  3  0  0  0  0  0  0
  -26.1810  -26.9700   19.3210 C   0  0  0  0  0  3  0  0  0  0  0  0
  -24.9710  -27.6890   19.3560 C   0  0  0  0  0  3  0  0  0  0  0  0
  -23.6730  -29.7890   20.0490 C   0  0  0  0  0  2  0  0  0  0  0  0
  -24.7410  -31.0690   21.9640 N   0  0  0  0  0  0  0  0  0  0  0  0
  -23.6180  -32.1090   23.6320 O   0  0  0  0  0  0  0  0  0  0  0  0
  -22.8580  -29.4160   22.3960 C   0  0  0  0  0  0  0  0  0  0  0  0
  -21.5340  -29.2190   22.2960 N   0  0  0  0  0  0  0  0  0  0  0  0
  -23.5670  -28.7900   23.1910 O   0  0  0  0  0  0  0  0  0  0  0  0
  -21.0210  -29.7880   21.6380 H   0  0  0  0  0  0  0  0  0  0  0  0
  -18.1880  -27.9740   22.8320 C   0  0  0  0  0  0  0  0  0  0  0  0
  -20.7470  -28.2620   23.0710 C   0  0  0  0  0  3  0  0  0  0  0  0
  -20.8620  -26.8400   22.4790 C   0  0  0  0  0  2  0  0  0  0  0  0
  -19.7510  -26.5160   21.4750 C   0  0  0  0  0  2  0  0  0  0  0  0
  -18.3750  -26.6370   22.1350 C   0  0  0  0  0  2  0  0  0  0  0  0
  -19.3020  -28.7440   23.2580 C   0  0  0  0  0  0  0  0  0  0  0  0
  -19.0760  -30.0000   23.8630 C   0  0  0  0  0  3  0  0  0  0  0  0
  -17.7670  -30.4840   24.0520 C   0  0  0  0  0  3  0  0  0  0  0  0
  -16.6700  -29.7070   23.6430 C   0  0  0  0  0  3  0  0  0  0  0  0
  -16.8800  -28.4550   23.0370 C   0  0  0  0  0  3  0  0  0  0  0  0
  -25.9860  -32.4980   23.6770 C   0  0  0  0  0  3  0  0  0  0  0  0
  -25.6540  -33.8700   24.0770 N   0  0  0  0  0  0  0  0  0  0  0  0
  -25.9240  -34.9610   23.3480 C   0  0  0  0  0  0  0  0  0  0  0  0
  -26.5560  -34.9220   22.2880 O   0  0  0  0  0  0  0  0  0  0  0  0
  -25.0920  -33.9740   24.9090 H   0  0  0  0  0  0  0  0  0  0  0  0
  -24.1350  -36.7140   23.1230 C   0  0  0  0  0  1  0  0  0  0  0  0
  -25.4120  -36.3130   23.8800 C   0  0  0  0  0  3  0  0  0  0  0  0
  -27.5440  -37.2240   24.6880 C   0  0  0  0  0  1  0  0  0  0  0  0
  -26.4100  -37.4010   23.7830 N   0  0  0  0  0  0  0  0  0  0  0  0
  -25.9790  -38.3000   23.9870 H   0  0  0  0  0  0  0  0  0  0  0  0
  -26.5740  -31.6830   24.8950 C   0  0  1  0  0  0  0  0  0  0  0  0
  -25.5230  -31.3450   25.9740 C   0  0  0  0  0  1  0  0  0  0  0  0
  -27.2030  -30.3540   24.4140 C   0  0  0  0  0  1  0  0  0  0  0  0
  -27.7070  -32.4950   25.5660 C   0  0  0  0  0  1  0  0  0  0  0  0
  1 50  1  0
  1  4  1  0
  2  1  1  0
  3  1  1  0
  5  8  1  0
  6  5  2  0
  6 10  1  0
  7  9  1  0
  8  9  2  0
  8  4  1  0
  9 11  1  0
 10 20  1  0
 10  7  2  0
 12 20  1  0
 13 18  1  0
 14 15  1  0
 14 13  1  0
 16 15  1  0
 16 25  1  0
 16 17  1  0
 18 12  1  0
 18 17  1  0
 19 12  2  0
 20 21  1  0
 22 23  2  0
 23 42  1  0
 24 23  1  0
 24 27  1  0
 25 26  1  0
 25 22  1  0
 26 24  2  0
 27 28  1  0
 28 29  2  0
 30 33  1  0
 30 29  1  0
 31 30  2  0
 32 31  1  0
 32 27  2  0
 33 34  1  0
 34 39  2  0
 34 35  1  0
 35 36  2  0
 36 37  1  0
 37 41  1  0
 38 37  2  0
 39 38  1  0
 40 39  1  0
 42 43  1  0
 43 46  1  0
 43 45  1  0
 44 42  2  0
 47 22  1  0
 47 48  1  0
 49 47  1  0
 51 52  1  0
 51 50  1  0
 53 55  1  0
 53 52  1  0
 54 65  2  0
 55 60  1  0
 56 64  1  0
 56 66  1  0
 57 63  1  0
 57 59  1  0
 58 64  1  0
 59 58  1  0
 60 59  2  0
 61 62  1  0
 61 55  2  0
 62 57  2  0
 63 56  1  0
 64 54  1  0
 66 68  2  0
 67 66  1  0
 69 67  1  0
 70 79  2  0
 70 75  1  0
 71 67  1  0
 71 75  1  0
 72 71  1  0
 73 74  1  0
 73 72  1  0
 74 70  1  0
 75 76  2  0
 76 77  1  0
 78 77  2  0
 79 78  1  0
 80 54  1  0
 80 81  1  0
 80 90  1  0
 81 84  1  0
 82 86  1  0
 82 81  1  0
 83 82  2  0
 86 85  1  0
 88 86  1  0
 88 89  1  0
 88 87  1  0
 90 93  1  1
 90 91  1  0
 92 90  1  0
M  ISO  4  12 100  20 100  52 101  53 101
M  END
>  <TORSDO>  (73) 
F 21

>  <SCORE>  (73) 
-12.565

>  <name>  (73) 
72

>  <ligand_id>  (73) 
72

>  <original_smiles>  (73) 
[H]c1c([H])c([H])c2c(c1[H])C([H])([H])C([H])([H])C([H])([H])C2([H])N([H])C(=O)C1([H])N(C(=O)C([H])(N([H])C(=O)C([H])(N([H])C([H])([H])[H])C([H])([H])[H])C(C([H])([H])[H])(C([H])([H])[H])C([H])([H])[H])C([H])([H])c2c([H])c(OC([H])([H])C([H])([H])C([H])([H])[N+]([H])([H])C([H])([H])c3c([H])c([H])c(N([H])C(=O)N4C([H])([H])C([H])([H])C([H])([H])C([H])(n5nc(-c6c([H])c([H])c(Oc7c([H])c([H])c(F)c([H])c7F)c([H])c6[H])c(C(=O)N([H])[H])c5N([H])[H])C4([H])[H])c([H])c3C([H])([H])[H])c([H])c([H])c2C1([H])[H]

>  <smiles>  (73) 
[H]c1c([H])c([H])c2c(c1[H])C([H])([H])C([H])([H])C([H])([H])C2([H])N([H])C(=O)C1([H])N(C(=O)C([H])(N([H])C(=O)C([H])(N([H])C([H])([H])[H])C([H])([H])[H])C(C([H])([H])[H])(C([H])([H])[H])C([H])([H])[H])C([H])([H])c2c([H])c(OC([H])([H])C([H])([H])C([H])([H])[N+]([H])([H])C([H])([H])c3c([H])c([H])c(N([H])C(=O)N4C([H])([H])C([H])([H])C([H])([H])C([H])(n5nc(-c6c([H])c([H])c(Oc7c([H])c([H])c(F)c([H])c7F)c([H])c6[H])c(C(=O)N([H])[H])c5N([H])[H])C4([H])[H])c([H])c3C([H])([H])[H])c([H])c([H])c2C1([H])[H]

$$$$
73:0:0
     RDKit          3D

103112  0  0  1  0  0  0  0  0999 V2000
  -29.0000  -19.1430   22.0590 C   0  0  0  0  0  2  0  0  0  0  0  0
  -29.6950  -19.1870   19.7640 C   0  0  0  0  0  3  0  0  0  0  0  0
  -29.1910  -20.1090   20.8910 C   0  0  0  0  0  3  0  0  0  0  0  0
  -30.1770  -17.9080   20.5000 C   0  0  0  0  0  3  0  0  0  0  0  0
  -30.0710  -18.2330   21.8830 O   0  0  0  0  0  0  0  0  0  0  0  0
  -30.1790  -21.1630   21.2350 N   0  0  0  0  0  4  0  0  0  0  0  0
  -30.1640  -21.2980   22.2350 H   0  0  0  0  0  0  0  0  0  0  0  0
  -31.1040  -20.8270   21.0110 H   0  0  0  0  0  0  0  0  0  0  0  0
  -31.2070  -24.5050   19.6090 C   0  0  0  0  0  2  0  0  0  0  0  0
  -29.1700  -24.8810   21.0470 C   0  0  0  0  0  2  0  0  0  0  0  0
  -31.3400  -23.0720   20.1570 C   0  0  0  0  0  2  0  0  0  0  0  0
  -29.2790  -23.4470   21.5960 C   0  0  0  0  0  2  0  0  0  0  0  0
  -30.5530  -25.4340   20.6480 C   0  0  0  0  0  3  0  0  0  0  0  0
  -29.9830  -22.4900   20.6090 C   0  0  0  0  0  3  0  0  0  0  0  0
  -30.5030  -26.9090   20.2010 C   0  0  0  0  0  2  0  0  0  0  0  0
  -29.6260  -27.0630   19.0860 O   0  0  0  0  0  0  0  0  0  0  0  0
  -25.0110  -30.5880   23.2560 C   0  0  0  0  0  0  0  0  0  0  0  0
  -28.3530  -27.5260   19.3240 C   0  0  0  0  0  0  0  0  0  0  0  0
  -24.0300  -29.2950   21.3850 C   0  0  0  0  0  3  0  0  0  0  0  0
  -25.6920  -28.4100   19.6660 C   0  0  0  0  0  0  0  0  0  0  0  0
  -26.4000  -30.2360   21.2210 C   0  0  0  0  0  2  0  0  0  0  0  0
  -26.7380  -29.0620   20.3300 C   0  0  0  0  0  0  0  0  0  0  0  0
  -28.0680  -28.6300   20.1620 C   0  0  0  0  0  3  0  0  0  0  0  0
  -27.2920  -26.8860   18.6530 C   0  0  0  0  0  3  0  0  0  0  0  0
  -25.9620  -27.3150   18.8250 C   0  0  0  0  0  3  0  0  0  0  0  0
  -24.2980  -28.9470   19.8950 C   0  0  0  0  0  2  0  0  0  0  0  0
  -25.1660  -30.0470   22.0150 N   0  0  0  0  0  0  0  0  0  0  0  0
  -23.9320  -30.5100   23.8580 O   0  0  0  0  0  0  0  0  0  0  0  0
  -23.6670  -27.9940   22.1350 C   0  0  0  0  0  0  0  0  0  0  0  0
  -22.4680  -27.4600   21.8540 N   0  0  0  0  0  0  0  0  0  0  0  0
  -24.4630  -27.4740   22.9210 O   0  0  0  0  0  0  0  0  0  0  0  0
  -21.8730  -27.9500   21.2010 H   0  0  0  0  0  0  0  0  0  0  0  0
  -19.6680  -25.1840   21.7010 C   0  0  0  0  0  0  0  0  0  0  0  0
  -21.9280  -26.2200   22.4080 C   0  0  0  0  0  3  0  0  0  0  0  0
  -22.5860  -24.9850   21.7490 C   0  0  0  0  0  2  0  0  0  0  0  0
  -21.8000  -24.4530   20.5470 C   0  0  0  0  0  2  0  0  0  0  0  0
  -20.3780  -24.0610   20.9630 C   0  0  0  0  0  2  0  0  0  0  0  0
  -20.3960  -26.2060   22.3660 C   0  0  0  0  0  0  0  0  0  0  0  0
  -19.6890  -27.2470   23.0040 C   0  0  0  0  0  3  0  0  0  0  0  0
  -18.2810  -27.2750   22.9900 C   0  0  0  0  0  3  0  0  0  0  0  0
  -17.5650  -26.2510   22.3460 C   0  0  0  0  0  3  0  0  0  0  0  0
  -18.2580  -25.2080   21.7070 C   0  0  0  0  0  3  0  0  0  0  0  0
  -26.1740  -31.3500   23.9670 C   0  0  0  0  0  3  0  0  0  0  0  0
  -25.7000  -32.7080   24.2570 N   0  0  0  0  0  0  0  0  0  0  0  0
  -25.9990  -33.7910   23.5250 C   0  0  0  0  0  0  0  0  0  0  0  0
  -26.7730  -33.7560   22.5640 O   0  0  0  0  0  0  0  0  0  0  0  0
  -25.0190  -32.8030   24.9970 H   0  0  0  0  0  0  0  0  0  0  0  0
  -24.1450  -35.4000   22.9850 C   0  0  0  0  0  1  0  0  0  0  0  0
  -25.3320  -35.1210   23.9200 C   0  0  0  0  0  3  0  0  0  0  0  0
  -27.2830  -36.2050   24.9460 C   0  0  0  0  0  1  0  0  0  0  0  0
  -26.2610  -36.2720   23.9050 N   0  0  0  0  0  0  0  0  0  0  0  0
  -25.7540  -37.1460   24.0150 H   0  0  0  0  0  0  0  0  0  0  0  0
  -26.6730  -30.6380   25.2840 C   0  0  1  0  0  0  0  0  0  0  0  0
  -25.5350  -30.3080   26.2780 C   0  0  0  0  0  1  0  0  0  0  0  0
  -27.4040  -29.3180   24.9470 C   0  0  0  0  0  1  0  0  0  0  0  0
  -27.6980  -31.5380   26.0130 C   0  0  0  0  0  1  0  0  0  0  0  0
  -28.6440  -18.8850   18.7750 N   0  0  0  0  0  0  0  0  0  0  0  0
  -27.7690  -18.6670   19.2500 H   0  0  0  0  0  0  0  0  0  0  0  0
  -29.5630  -20.1100   16.8030 C   0  0  0  0  0  1  0  0  0  0  0  0
  -28.3770  -19.8970   17.7520 C   0  0  0  0  0  3  0  0  0  0  0  0
  -27.0080  -19.2170   16.8440 Cl  0  0  0  0  0  0  0  0  0  0  0  0
  -31.6590  -17.5340   20.2320 C   0  0  0  0  0  3  0  0  0  0  0  0
  -31.9010  -17.3840   18.8460 O   0  0  0  0  0  0  0  0  0  0  0  0
  -31.3930  -16.6360   18.5560 H   0  0  0  0  0  0  0  0  0  0  0  0
  -32.1200  -16.2440   20.9450 C   0  0  0  0  0  2  0  0  0  0  0  0
  -31.6640  -14.2190   19.5640 C   0  0  0  0  0  0  0  0  0  0  0  0
  -30.9790  -12.2120   18.3090 C   0  0  0  0  0  2  0  0  0  0  0  0
  -29.9530  -12.5630   17.2150 C   0  0  0  0  0  2  0  0  0  0  0  0
  -28.5230  -12.5650   17.7870 C   0  0  0  0  0  2  0  0  0  0  0  0
  -28.4020  -13.3880   19.0950 C   0  0  0  0  0  3  0  0  0  0  0  0
  -29.5190  -13.0000   20.0880 C   0  0  0  0  0  2  0  0  0  0  0  0
  -30.8200  -13.1680   19.4130 N   0  0  0  0  0  0  0  0  0  0  0  0
  -32.6580  -14.4000   18.8570 O   0  0  0  0  0  0  0  0  0  0  0  0
  -31.3430  -15.0690   20.5440 N   0  0  0  0  0  0  0  0  0  0  0  0
  -30.5320  -14.8360   21.0990 H   0  0  0  0  0  0  0  0  0  0  0  0
  -26.1410  -14.2170   20.0100 C   0  0  0  0  0  0  0  0  0  0  0  0
  -25.0430  -13.5450   20.4780 C   0  0  0  0  0  0  0  0  0  0  0  0
  -25.3720  -12.1570   20.4110 C   0  0  0  0  0  0  0  0  0  0  0  0
  -27.0750  -13.2430   19.6930 N   0  0  0  0  0  0  0  0  0  0  0  0
  -26.6190  -11.9990   19.9890 N   0  0  0  0  0  0  0  0  0  0  0  0
  -24.5510  -10.9670   20.6720 C   0  0  0  0  0  0  0  0  0  0  0  0
  -24.9670   -9.9670   21.5800 C   0  0  0  0  0  3  0  0  0  0  0  0
  -24.1530   -8.8410   21.8270 C   0  0  0  0  0  3  0  0  0  0  0  0
  -22.9080   -8.7060   21.1670 C   0  0  0  0  0  0  0  0  0  0  0  0
  -22.5100   -9.6920   20.2470 C   0  0  0  0  0  3  0  0  0  0  0  0
  -23.3230  -10.8100   19.9970 C   0  0  0  0  0  3  0  0  0  0  0  0
  -22.0640   -7.6340   21.3240 O   0  0  0  0  0  0  0  0  0  0  0  0
  -21.9660   -6.9640   22.5170 C   0  0  0  0  0  0  0  0  0  0  0  0
  -21.6040   -7.6220   23.7130 C   0  0  0  0  0  3  0  0  0  0  0  0
  -21.4470   -6.8830   24.9030 C   0  0  0  0  0  3  0  0  0  0  0  0
  -21.6440   -5.4880   24.8980 C   0  0  0  0  0  0  0  0  0  0  0  0
  -21.9980   -4.8310   23.7060 C   0  0  0  0  0  3  0  0  0  0  0  0
  -22.1560   -5.5680   22.5190 C   0  0  0  0  0  0  0  0  0  0  0  0
  -22.4770   -4.9260   21.3700 F   0  0  0  0  0  0  0  0  0  0  0  0
  -21.4840   -4.7760   26.0380 F   0  0  0  0  0  0  0  0  0  0  0  0
  -23.7260  -14.1490   20.8750 C   0  0  0  0  0  0  0  0  0  0  0  0
  -23.0400  -13.5450   21.8390 N   0  0  0  0  0  0  0  0  0  0  0  0
  -23.3210  -15.1910   20.3630 O   0  0  0  0  0  0  0  0  0  0  0  0
  -23.3810  -12.7010   22.2730 H   0  0  0  0  0  0  0  0  0  0  0  0
  -22.1600  -13.9330   22.1470 H   0  0  0  0  0  0  0  0  0  0  0  0
  -26.4140  -15.5670   19.8090 N   0  0  0  0  0  0  0  0  0  0  0  0
  -25.6940  -16.2710   19.9250 H   0  0  0  0  0  0  0  0  0  0  0  0
  -27.2350  -15.9140   19.3310 H   0  0  0  0  0  0  0  0  0  0  0  0
  2 57  1  0
  2  4  1  0
  2  3  1  0
  3  6  1  0
  3  1  1  0
  4 62  1  0
  4  5  1  0
  5  1  1  0
  6  7  1  0
  8  6  1  0
  9 11  1  0
  9 13  1  0
 10 12  1  0
 11 14  1  0
 13 15  1  0
 13 10  1  0
 14  6  1  0
 14 12  1  0
 16 18  1  0
 16 15  1  0
 17 28  2  0
 18 23  1  0
 19 27  1  0
 19 29  1  0
 20 26  1  0
 20 22  1  0
 21 27  1  0
 22 21  1  0
 23 22  2  0
 24 25  1  0
 24 18  2  0
 25 20  2  0
 26 19  1  0
 27 17  1  0
 29 31  2  0
 30 29  1  0
 32 30  1  0
 33 42  2  0
 33 38  1  0
 34 30  1  0
 35 34  1  0
 36 37  1  0
 36 35  1  0
 37 33  1  0
 38 34  1  0
 38 39  2  0
 40 39  1  0
 41 40  2  0
 42 41  1  0
 43 17  1  0
 43 44  1  0
 43 53  1  0
 44 47  1  0
 45 49  1  0
 45 44  1  0
 46 45  2  0
 49 48  1  0
 51 49  1  0
 51 52  1  0
 51 50  1  0
 53 56  1  1
 53 54  1  0
 55 53  1  0
 57 58  1  0
 60 59  1  0
 60 57  1  0
 61 60  1  0
 62 65  1  0
 63 62  1  0
 64 63  1  0
 66 74  1  0
 67 72  1  0
 68 69  1  0
 68 67  1  0
 70 69  1  0
 70 79  1  0
 70 71  1  0
 72 66  1  0
 72 71  1  0
 73 66  2  0
 74 65  1  0
 74 75  1  0
 76 77  2  0
 77 96  1  0
 78 77  1  0
 78 81  1  0
 79 80  1  0
 79 76  1  0
 80 78  2  0
 81 82  1  0
 82 83  2  0
 84 87  1  0
 84 83  1  0
 85 84  2  0
 86 85  1  0
 86 81  2  0
 87 88  1  0
 88 93  2  0
 88 89  1  0
 89 90  2  0
 91 90  1  0
 91 95  1  0
 92 91  2  0
 93 92  1  0
 94 93  1  0
 96 97  1  0
 97100  1  0
 97 99  1  0
 98 96  2  0
101102  1  0
101 76  1  0
103101  1  0
M  ISO  4  15 101  16 101  66 100  74 100
M  END
>  <TORSDO>  (74) 
F 24

>  <SCORE>  (74) 
-6.582

>  <name>  (74) 
73

>  <ligand_id>  (74) 
73

>  <original_smiles>  (74) 
[H]OC([H])(C([H])([H])N([H])C(=O)N1C([H])([H])C([H])([H])C([H])([H])C([H])(n2nc(-c3c([H])c([H])c(Oc4c([H])c([H])c(F)c([H])c4F)c([H])c3[H])c(C(=O)N([H])[H])c2N([H])[H])C1([H])[H])C1([H])OC([H])([H])C([H])([N+]([H])([H])C2([H])C([H])([H])C([H])([H])C([H])(C([H])([H])Oc3c([H])c([H])c4c(c3[H])C([H])([H])N(C(=O)C([H])(N([H])C(=O)C([H])(N([H])C([H])([H])[H])C([H])([H])[H])C(C([H])([H])[H])(C([H])([H])[H])C([H])([H])[H])C([H])(C(=O)N([H])C3([H])c5c([H])c([H])c([H])c([H])c5C([H])([H])C([H])([H])C3([H])[H])C4([H])[H])C([H])([H])C2([H])[H])C1([H])N([H])C([H])(Cl)C([H])([H])[H]

>  <smiles>  (74) 
[H]OC([H])(C([H])([H])N([H])C(=O)N1C([H])([H])C([H])([H])C([H])([H])C([H])(n2nc(-c3c([H])c([H])c(Oc4c([H])c([H])c(F)c([H])c4F)c([H])c3[H])c(C(=O)N([H])[H])c2N([H])[H])C1([H])[H])C1([H])OC([H])([H])C([H])([N+]([H])([H])C2([H])C([H])([H])C([H])([H])C([H])(C([H])([H])Oc3c([H])c([H])c4c(c3[H])C([H])([H])N(C(=O)C([H])(N([H])C(=O)C([H])(N([H])C([H])([H])[H])C([H])([H])[H])C(C([H])([H])[H])(C([H])([H])[H])C([H])([H])[H])C([H])(C(=O)N([H])C3([H])c5c([H])c([H])c([H])c([H])c5C([H])([H])C([H])([H])C3([H])[H])C4([H])[H])C([H])([H])C2([H])[H])C1([H])N([H])C([H])(Cl)C([H])([H])[H]

$$$$
74:0:0
     RDKit          3D

 93102  0  0  1  0  0  0  0  0999 V2000
  -28.5240  -21.9170   19.8270 C   0  0  0  0  0  3  0  0  0  0  0  0
  -29.8350  -23.1930   21.0360 C   0  0  0  0  0  3  0  0  0  0  0  0
  -28.7510  -23.3300   20.2160 C   0  0  0  0  0  0  0  0  0  0  0  0
  -29.4200  -20.9830   20.3920 C   0  0  0  0  0  0  0  0  0  0  0  0
  -30.2310  -21.8480   21.1560 N   0  0  0  0  0  0  0  0  0  0  0  0
  -30.6630  -14.8210   19.9500 C   0  0  0  0  0  0  0  0  0  0  0  0
  -30.3510  -12.5230   18.9650 C   0  0  0  0  0  2  0  0  0  0  0  0
  -29.3500  -12.5250   17.7930 C   0  0  0  0  0  2  0  0  0  0  0  0
  -27.9170  -12.3310   18.3180 C   0  0  0  0  0  2  0  0  0  0  0  0
  -27.5990  -13.2380   19.5370 C   0  0  0  0  0  3  0  0  0  0  0  0
  -28.7290  -13.2310   20.5900 C   0  0  0  0  0  2  0  0  0  0  0  0
  -29.9530  -13.6270   19.8860 N   0  0  0  0  0  0  0  0  0  0  0  0
  -31.8540  -14.7500   19.6280 O   0  0  0  0  0  0  0  0  0  0  0  0
  -28.6650  -18.2860   20.8160 C   0  0  0  0  0  2  0  0  0  0  0  0
  -30.2190  -18.6950   19.0600 C   0  0  0  0  0  2  0  0  0  0  0  0
  -29.1570  -16.7450   20.9590 C   0  0  0  0  0  2  0  0  0  0  0  0
  -30.8200  -17.2240   19.2260 C   0  0  0  0  0  2  0  0  0  0  0  0
  -29.7130  -19.3700   20.3640 C   0  0  0  0  0  3  0  0  0  0  0  0
  -30.0580  -16.1180   19.9240 N   0  0  0  0  0  0  0  0  0  0  0  0
  -25.2810  -13.8070   20.4520 C   0  0  0  0  0  0  0  0  0  0  0  0
  -24.2350  -13.0270   20.8630 C   0  0  0  0  0  0  0  0  0  0  0  0
  -24.6840  -11.6740   20.7570 C   0  0  0  0  0  0  0  0  0  0  0  0
  -26.2980  -12.9300   20.1170 N   0  0  0  0  0  0  0  0  0  0  0  0
  -25.9520  -11.6400   20.3650 N   0  0  0  0  0  0  0  0  0  0  0  0
  -23.9580  -10.4110   20.9480 C   0  0  0  0  0  0  0  0  0  0  0  0
  -24.3940   -9.4410   21.8780 C   0  0  0  0  0  3  0  0  0  0  0  0
  -23.6670   -8.2460   22.0590 C   0  0  0  0  0  3  0  0  0  0  0  0
  -22.4890   -8.0110   21.3110 C   0  0  0  0  0  0  0  0  0  0  0  0
  -22.0710   -8.9690   20.3720 C   0  0  0  0  0  3  0  0  0  0  0  0
  -22.8000  -10.1560   20.1880 C   0  0  0  0  0  3  0  0  0  0  0  0
  -21.7320   -6.8680   21.4030 O   0  0  0  0  0  0  0  0  0  0  0  0
  -21.6330   -6.1620   22.5760 C   0  0  0  0  0  0  0  0  0  0  0  0
  -21.1390   -6.7500   23.7610 C   0  0  0  0  0  3  0  0  0  0  0  0
  -20.9880   -5.9700   24.9250 C   0  0  0  0  0  3  0  0  0  0  0  0
  -21.3210   -4.6030   24.9040 C   0  0  0  0  0  0  0  0  0  0  0  0
  -21.8080   -4.0130   23.7240 C   0  0  0  0  0  3  0  0  0  0  0  0
  -21.9600   -4.7910   22.5620 C   0  0  0  0  0  0  0  0  0  0  0  0
  -22.4090   -4.2140   21.4220 F   0  0  0  0  0  0  0  0  0  0  0  0
  -21.1700   -3.8510   26.0190 F   0  0  0  0  0  0  0  0  0  0  0  0
  -22.8620  -13.5060   21.2350 C   0  0  0  0  0  0  0  0  0  0  0  0
  -22.1830  -12.7890   22.1250 N   0  0  0  0  0  0  0  0  0  0  0  0
  -22.4040  -14.5490   20.7730 O   0  0  0  0  0  0  0  0  0  0  0  0
  -22.5690  -11.9450   22.5190 H   0  0  0  0  0  0  0  0  0  0  0  0
  -21.2650  -13.0920   22.4150 H   0  0  0  0  0  0  0  0  0  0  0  0
  -25.4450  -15.1810   20.3100 N   0  0  0  0  0  0  0  0  0  0  0  0
  -24.6950  -15.8370   20.4950 H   0  0  0  0  0  0  0  0  0  0  0  0
  -26.2770  -15.6240   19.9400 H   0  0  0  0  0  0  0  0  0  0  0  0
  -27.9070  -24.6840   19.8620 C   0  0  0  0  0  2  0  0  0  0  0  0
  -28.2440  -26.1390   20.2370 O   0  0  0  0  0  0  0  0  0  0  0  0
  -24.6640  -31.7840   23.2630 C   0  0  0  0  0  0  0  0  0  0  0  0
  -27.2130  -27.1370   20.1500 C   0  0  0  0  0  0  0  0  0  0  0  0
  -23.4590  -30.4280   21.5950 C   0  0  0  0  0  3  0  0  0  0  0  0
  -24.8990  -28.8830   20.1420 C   0  0  0  0  0  0  0  0  0  0  0  0
  -26.0140  -30.6850   21.4440 C   0  0  0  0  0  2  0  0  0  0  0  0
  -26.0780  -29.3090   20.7670 C   0  0  0  0  0  0  0  0  0  0  0  0
  -27.2360  -28.4500   20.7620 C   0  0  0  0  0  3  0  0  0  0  0  0
  -26.0150  -26.8210   19.4680 C   0  0  0  0  0  3  0  0  0  0  0  0
  -24.8790  -27.6510   19.4780 C   0  0  0  0  0  3  0  0  0  0  0  0
  -23.6770  -29.7800   20.2040 C   0  0  0  0  0  2  0  0  0  0  0  0
  -24.7320  -30.9850   22.1550 N   0  0  0  0  0  0  0  0  0  0  0  0
  -23.5780  -32.0660   23.7920 O   0  0  0  0  0  0  0  0  0  0  0  0
  -22.7730  -29.4040   22.5350 C   0  0  0  0  0  0  0  0  0  0  0  0
  -21.4450  -29.2420   22.3970 N   0  0  0  0  0  0  0  0  0  0  0  0
  -23.4380  -28.7590   23.3490 O   0  0  0  0  0  0  0  0  0  0  0  0
  -20.9660  -29.8140   21.7150 H   0  0  0  0  0  0  0  0  0  0  0  0
  -18.0510  -28.0670   22.8700 C   0  0  0  0  0  0  0  0  0  0  0  0
  -20.6120  -28.2990   23.1490 C   0  0  0  0  0  3  0  0  0  0  0  0
  -20.7020  -26.8770   22.5490 C   0  0  0  0  0  2  0  0  0  0  0  0
  -19.6000  -26.5820   21.5270 C   0  0  0  0  0  2  0  0  0  0  0  0
  -18.2170  -26.7290   22.1690 C   0  0  0  0  0  2  0  0  0  0  0  0
  -19.1760  -28.8110   23.3150 C   0  0  0  0  0  0  0  0  0  0  0  0
  -18.9670  -30.0640   23.9320 C   0  0  0  0  0  3  0  0  0  0  0  0
  -17.6650  -30.5730   24.1050 C   0  0  0  0  0  3  0  0  0  0  0  0
  -16.5550  -29.8260   23.6740 C   0  0  0  0  0  3  0  0  0  0  0  0
  -16.7500  -28.5740   23.0630 C   0  0  0  0  0  3  0  0  0  0  0  0
  -25.9460  -32.3980   23.9030 C   0  0  0  0  0  3  0  0  0  0  0  0
  -26.4300  -31.6190   25.1880 C   0  0  1  0  0  0  0  0  0  0  0  0
  -25.3160  -31.4010   26.2390 C   0  0  0  0  0  1  0  0  0  0  0  0
  -26.9960  -30.2320   24.8110 C   0  0  0  0  0  1  0  0  0  0  0  0
  -27.5830  -32.3950   25.8680 C   0  0  0  0  0  1  0  0  0  0  0  0
  -25.6520  -33.8010   24.2330 N   0  0  0  0  0  0  0  0  0  0  0  0
  -25.9770  -34.8500   23.4640 C   0  0  0  0  0  0  0  0  0  0  0  0
  -26.6260  -34.7380   22.4210 O   0  0  0  0  0  0  0  0  0  0  0  0
  -25.0750  -33.9630   25.0450 H   0  0  0  0  0  0  0  0  0  0  0  0
  -24.2450  -36.6490   23.1600 C   0  0  0  0  0  1  0  0  0  0  0  0
  -25.5130  -36.2440   23.9290 C   0  0  0  0  0  3  0  0  0  0  0  0
  -27.6760  -37.1320   24.6800 C   0  0  0  0  0  1  0  0  0  0  0  0
  -26.5450  -37.2930   23.7700 N   0  0  0  0  0  0  0  0  0  0  0  0
  -26.1460  -38.2160   23.9200 H   0  0  0  0  0  0  0  0  0  0  0  0
  -31.3510  -21.4600   22.0120 C   0  0  0  0  0  2  0  0  0  0  0  0
  -33.6960  -20.5050   22.1870 C   0  0  0  0  0  1  0  0  0  0  0  0
  -33.0860  -21.9000   20.1670 C   0  0  0  0  0  1  0  0  0  0  0  0
  -32.5670  -20.9130   21.2290 C   0  0  0  0  0  3  0  0  0  0  0  0
  1  3  1  0
  1  4  2  0
  2  5  1  0
  3  2  2  0
  4  5  1  0
  5 90  1  0
  7 12  1  0
  8  9  1  0
  8  7  1  0
 10  9  1  0
 10 23  1  0
 10 11  1  0
 12  6  1  0
 12 11  1  0
 13  6  2  0
 14 16  1  0
 15 17  1  0
 15 18  1  0
 17 19  1  0
 18  4  1  0
 18 14  1  0
 19  6  1  0
 19 16  1  0
 20 21  2  0
 21 40  1  0
 22 21  1  0
 22 25  1  0
 23 24  1  0
 23 20  1  0
 24 22  2  0
 25 26  1  0
 26 27  2  0
 28 31  1  0
 28 27  1  0
 29 28  2  0
 30 29  1  0
 30 25  2  0
 31 32  1  0
 32 33  1  0
 33 34  2  0
 35 34  1  0
 35 39  1  0
 36 35  2  0
 37 32  2  0
 37 36  1  0
 38 37  1  0
 40 41  1  0
 41 44  1  0
 41 43  1  0
 42 40  2  0
 45 20  1  0
 45 46  1  0
 47 45  1  0
 48  3  1  0
 48 49  1  0
 50 61  2  0
 51 49  1  0
 51 56  1  0
 52 60  1  0
 52 62  1  0
 53 59  1  0
 53 55  1  0
 54 60  1  0
 55 54  1  0
 56 55  2  0
 57 58  1  0
 57 51  2  0
 58 53  2  0
 59 52  1  0
 60 50  1  0
 62 64  2  0
 63 62  1  0
 65 63  1  0
 66 75  2  0
 66 71  1  0
 67 63  1  0
 67 71  1  0
 68 67  1  0
 69 70  1  0
 69 68  1  0
 70 66  1  0
 71 72  2  0
 72 73  1  0
 74 73  2  0
 75 74  1  0
 76 50  1  0
 76 81  1  0
 76 77  1  0
 77 80  1  1
 77 78  1  0
 79 77  1  0
 81 84  1  0
 82 86  1  0
 82 81  1  0
 83 82  2  0
 86 85  1  0
 88 89  1  0
 88 86  1  0
 88 87  1  0
 92 93  1  0
 93 90  1  0
 93 91  1  0
M  ISO  4   6 100  19 100  48 101  49 101
M  END
>  <TORSDO>  (75) 
F 19

>  <SCORE>  (75) 
-14.345

>  <name>  (75) 
74

>  <ligand_id>  (75) 
74

>  <original_smiles>  (75) 
[H]c1c([H])c([H])c2c(c1[H])C([H])([H])C([H])([H])C([H])([H])C2([H])N([H])C(=O)C1([H])N(C(=O)C([H])(N([H])C(=O)C([H])(N([H])C([H])([H])[H])C([H])([H])[H])C(C([H])([H])[H])(C([H])([H])[H])C([H])([H])[H])C([H])([H])c2c([H])c(OC([H])([H])c3c([H])c(C4([H])C([H])([H])C([H])([H])N(C(=O)N5C([H])([H])C([H])([H])C([H])([H])C([H])(n6nc(-c7c([H])c([H])c(Oc8c([H])c([H])c(F)c([H])c8F)c([H])c7[H])c(C(=O)N([H])[H])c6N([H])[H])C5([H])[H])C([H])([H])C4([H])[H])n(C([H])([H])C([H])(C([H])([H])[H])C([H])([H])[H])c3[H])c([H])c([H])c2C1([H])[H]

>  <smiles>  (75) 
[H]c1c([H])c([H])c2c(c1[H])C([H])([H])C([H])([H])C([H])([H])C2([H])N([H])C(=O)C1([H])N(C(=O)C([H])(N([H])C(=O)C([H])(N([H])C([H])([H])[H])C([H])([H])[H])C(C([H])([H])[H])(C([H])([H])[H])C([H])([H])[H])C([H])([H])c2c([H])c(OC([H])([H])c3c([H])c(C4([H])C([H])([H])C([H])([H])N(C(=O)N5C([H])([H])C([H])([H])C([H])([H])C([H])(n6nc(-c7c([H])c([H])c(Oc8c([H])c([H])c(F)c([H])c8F)c([H])c7[H])c(C(=O)N([H])[H])c6N([H])[H])C5([H])[H])C([H])([H])C4([H])[H])n(C([H])([H])C([H])(C([H])([H])[H])C([H])([H])[H])c3[H])c([H])c([H])c2C1([H])[H]

$$$$
75:0:0
     RDKit          3D

 96104  0  0  1  0  0  0  0  0999 V2000
  -31.1430  -22.5470   17.4040 C   0  0  0  0  0  3  0  0  0  0  0  0
  -31.9380  -22.1010   19.6570 C   0  0  0  0  0  3  0  0  0  0  0  0
  -31.0010  -23.9130   17.7260 C   0  0  0  0  0  3  0  0  0  0  0  0
  -31.7970  -23.4620   19.9770 C   0  0  0  0  0  3  0  0  0  0  0  0
  -31.5780  -21.6190   18.3830 C   0  0  0  0  0  0  0  0  0  0  0  0
  -31.3030  -24.3780   19.0280 C   0  0  0  0  0  0  0  0  0  0  0  0
  -31.6660  -20.2560   18.1890 O   0  0  0  0  0  0  0  0  0  0  0  0
  -31.1160  -19.6860   17.0030 C   0  0  0  0  0  2  0  0  0  0  0  0
  -30.6800  -18.2550   17.3550 C   0  0  0  0  0  2  0  0  0  0  0  0
  -29.4960  -18.2640   18.2550 N   0  0  0  0  0  4  0  0  0  0  0  0
  -29.5690  -19.0280   18.9100 H   0  0  0  0  0  0  0  0  0  0  0  0
  -28.6830  -18.4510   17.6880 H   0  0  0  0  0  0  0  0  0  0  0  0
  -29.2450  -17.0030   18.9930 C   0  0  0  0  0  2  0  0  0  0  0  0
  -30.0470  -16.8850   20.3140 C   0  0  0  0  0  2  0  0  0  0  0  0
  -30.6200  -14.5080   20.5950 C   0  0  0  0  0  0  0  0  0  0  0  0
  -30.3430  -12.3410   19.4930 C   0  0  0  0  0  2  0  0  0  0  0  0
  -29.4580  -12.5780   18.2550 C   0  0  0  0  0  2  0  0  0  0  0  0
  -27.9620  -12.4700   18.6120 C   0  0  0  0  0  2  0  0  0  0  0  0
  -27.5850  -13.2780   19.8860 C   0  0  0  0  0  3  0  0  0  0  0  0
  -28.6020  -13.0480   21.0290 C   0  0  0  0  0  2  0  0  0  0  0  0
  -29.9540  -13.3260   20.5090 N   0  0  0  0  0  0  0  0  0  0  0  0
  -31.7610  -14.6780   20.1560 O   0  0  0  0  0  0  0  0  0  0  0  0
  -29.8550  -15.5590   20.9090 N   0  0  0  0  0  0  0  0  0  0  0  0
  -28.9570  -15.3640   21.3250 H   0  0  0  0  0  0  0  0  0  0  0  0
  -25.1640  -13.8740   20.5180 C   0  0  0  0  0  0  0  0  0  0  0  0
  -24.0950  -13.1000   20.8720 C   0  0  0  0  0  0  0  0  0  0  0  0
  -24.5620  -11.7490   20.8620 C   0  0  0  0  0  0  0  0  0  0  0  0
  -26.2210  -13.0000   20.3230 N   0  0  0  0  0  0  0  0  0  0  0  0
  -25.8600  -11.7180   20.5880 N   0  0  0  0  0  0  0  0  0  0  0  0
  -23.8390  -10.4860   21.0500 C   0  0  0  0  0  0  0  0  0  0  0  0
  -24.2670   -9.5330   22.0020 C   0  0  0  0  0  3  0  0  0  0  0  0
  -23.5440   -8.3330   22.1760 C   0  0  0  0  0  3  0  0  0  0  0  0
  -22.3850   -8.0760   21.4070 C   0  0  0  0  0  0  0  0  0  0  0  0
  -21.9790   -9.0200   20.4520 C   0  0  0  0  0  3  0  0  0  0  0  0
  -22.6980  -10.2130   20.2710 C   0  0  0  0  0  3  0  0  0  0  0  0
  -21.6380   -6.9260   21.4880 O   0  0  0  0  0  0  0  0  0  0  0  0
  -21.5920   -6.1830   22.6390 C   0  0  0  0  0  0  0  0  0  0  0  0
  -21.1740   -6.7380   23.8690 C   0  0  0  0  0  3  0  0  0  0  0  0
  -21.0690   -5.9210   25.0130 C   0  0  0  0  0  3  0  0  0  0  0  0
  -21.3720   -4.5480   24.9310 C   0  0  0  0  0  0  0  0  0  0  0  0
  -21.7840   -3.9920   23.7070 C   0  0  0  0  0  3  0  0  0  0  0  0
  -21.8890   -4.8070   22.5650 C   0  0  0  0  0  0  0  0  0  0  0  0
  -22.2610   -4.2620   21.3810 F   0  0  0  0  0  0  0  0  0  0  0  0
  -21.2690   -3.7580   26.0280 F   0  0  0  0  0  0  0  0  0  0  0  0
  -22.6870  -13.5660   21.0990 C   0  0  0  0  0  0  0  0  0  0  0  0
  -21.9400  -12.8770   21.9560 N   0  0  0  0  0  0  0  0  0  0  0  0
  -22.2540  -14.5790   20.5480 O   0  0  0  0  0  0  0  0  0  0  0  0
  -22.2970  -12.0600   22.4320 H   0  0  0  0  0  0  0  0  0  0  0  0
  -20.9940  -13.1760   22.1430 H   0  0  0  0  0  0  0  0  0  0  0  0
  -25.3200  -15.2460   20.3420 N   0  0  0  0  0  0  0  0  0  0  0  0
  -24.5390  -15.8860   20.4540 H   0  0  0  0  0  0  0  0  0  0  0  0
  -26.1790  -15.7160   20.0870 H   0  0  0  0  0  0  0  0  0  0  0  0
  -31.1610  -25.6810   19.4480 O   0  0  0  0  0  0  0  0  0  0  0  0
  -30.3490  -26.5790   18.6940 C   0  0  0  0  0  2  0  0  0  0  0  0
  -29.5910  -27.4690   19.6880 C   0  0  0  0  0  2  0  0  0  0  0  0
  -28.4230  -26.7480   20.0750 O   0  0  0  0  0  0  0  0  0  0  0  0
  -24.6080  -31.8790   23.2210 C   0  0  0  0  0  0  0  0  0  0  0  0
  -27.2660  -27.4800   20.1400 C   0  0  0  0  0  0  0  0  0  0  0  0
  -23.3990  -30.4670   21.5880 C   0  0  0  0  0  3  0  0  0  0  0  0
  -24.8500  -28.9300   20.1700 C   0  0  0  0  0  0  0  0  0  0  0  0
  -25.9150  -30.8520   21.3670 C   0  0  0  0  0  2  0  0  0  0  0  0
  -26.0050  -29.4770   20.7450 C   0  0  0  0  0  0  0  0  0  0  0  0
  -27.2150  -28.7600   20.7330 C   0  0  0  0  0  3  0  0  0  0  0  0
  -26.0950  -26.9240   19.5920 C   0  0  0  0  0  3  0  0  0  0  0  0
  -24.8860  -27.6480   19.5950 C   0  0  0  0  0  3  0  0  0  0  0  0
  -23.6030  -29.7810   20.2120 C   0  0  0  0  0  2  0  0  0  0  0  0
  -24.6590  -31.0800   22.1190 N   0  0  0  0  0  0  0  0  0  0  0  0
  -23.5300  -32.1510   23.7670 O   0  0  0  0  0  0  0  0  0  0  0  0
  -22.7560  -29.4490   22.5560 C   0  0  0  0  0  0  0  0  0  0  0  0
  -21.4330  -29.2640   22.4330 N   0  0  0  0  0  0  0  0  0  0  0  0
  -23.4470  -28.8250   23.3670 O   0  0  0  0  0  0  0  0  0  0  0  0
  -20.9410  -29.8190   21.7460 H   0  0  0  0  0  0  0  0  0  0  0  0
  -18.0610  -28.0750   22.9410 C   0  0  0  0  0  0  0  0  0  0  0  0
  -20.6190  -28.3280   23.2080 C   0  0  0  0  0  3  0  0  0  0  0  0
  -20.7190  -26.8960   22.6350 C   0  0  0  0  0  2  0  0  0  0  0  0
  -19.6150  -26.5740   21.6240 C   0  0  0  0  0  2  0  0  0  0  0  0
  -18.2350  -26.7230   22.2700 C   0  0  0  0  0  2  0  0  0  0  0  0
  -19.1820  -28.8370   23.3670 C   0  0  0  0  0  0  0  0  0  0  0  0
  -18.9660  -30.1030   23.9530 C   0  0  0  0  0  3  0  0  0  0  0  0
  -17.6620  -30.6080   24.1170 C   0  0  0  0  0  3  0  0  0  0  0  0
  -16.5570  -29.8450   23.7080 C   0  0  0  0  0  3  0  0  0  0  0  0
  -16.7570  -28.5800   23.1260 C   0  0  0  0  0  3  0  0  0  0  0  0
  -25.8990  -32.5160   23.8320 C   0  0  0  0  0  3  0  0  0  0  0  0
  -26.4310  -31.7380   25.0980 C   0  0  1  0  0  0  0  0  0  0  0  0
  -25.3500  -31.4830   26.1720 C   0  0  0  0  0  1  0  0  0  0  0  0
  -27.0200  -30.3710   24.6830 C   0  0  0  0  0  1  0  0  0  0  0  0
  -27.5820  -32.5360   25.7550 C   0  0  0  0  0  1  0  0  0  0  0  0
  -25.5850  -33.9110   24.1700 N   0  0  0  0  0  0  0  0  0  0  0  0
  -25.9150  -34.9660   23.4140 C   0  0  0  0  0  0  0  0  0  0  0  0
  -26.5850  -34.8680   22.3820 O   0  0  0  0  0  0  0  0  0  0  0  0
  -24.9880  -34.0580   24.9700 H   0  0  0  0  0  0  0  0  0  0  0  0
  -24.1800  -36.7490   23.0640 C   0  0  0  0  0  1  0  0  0  0  0  0
  -25.4210  -36.3480   23.8770 C   0  0  0  0  0  3  0  0  0  0  0  0
  -27.5540  -37.2310   24.7110 C   0  0  0  0  0  1  0  0  0  0  0  0
  -26.4490  -37.4070   23.7720 N   0  0  0  0  0  0  0  0  0  0  0  0
  -26.0400  -38.3220   23.9350 H   0  0  0  0  0  0  0  0  0  0  0  0
  1  3  2  0
  1  5  1  0
  2  4  1  0
  3  6  1  0
  5  2  2  0
  6 53  1  0
  6  4  2  0
  7  5  1  0
  8  9  1  0
  8  7  1  0
  9 10  1  0
 10 11  1  0
 10 13  1  0
 12 10  1  0
 13 14  1  0
 14 23  1  0
 15 23  1  0
 16 21  1  0
 17 18  1  0
 17 16  1  0
 19 18  1  0
 19 28  1  0
 19 20  1  0
 21 15  1  0
 21 20  1  0
 22 15  2  0
 23 24  1  0
 25 26  2  0
 26 45  1  0
 27 26  1  0
 27 30  1  0
 28 25  1  0
 28 29  1  0
 29 27  2  0
 30 31  1  0
 31 32  2  0
 33 36  1  0
 33 32  1  0
 34 33  2  0
 35 34  1  0
 35 30  2  0
 36 37  1  0
 37 38  1  0
 38 39  2  0
 40 39  1  0
 40 44  1  0
 41 40  2  0
 42 37  2  0
 42 41  1  0
 43 42  1  0
 45 46  1  0
 46 49  1  0
 46 48  1  0
 47 45  2  0
 50 51  1  0
 50 25  1  0
 52 50  1  0
 54 53  1  0
 54 55  1  0
 55 56  1  0
 56 58  1  0
 57 68  2  0
 58 63  1  0
 59 67  1  0
 59 69  1  0
 60 66  1  0
 60 62  1  0
 61 67  1  0
 62 61  1  0
 63 62  2  0
 64 65  1  0
 64 58  2  0
 65 60  2  0
 66 59  1  0
 67 57  1  0
 69 71  2  0
 70 69  1  0
 72 70  1  0
 73 82  2  0
 73 78  1  0
 74 70  1  0
 74 78  1  0
 75 74  1  0
 76 77  1  0
 76 75  1  0
 77 73  1  0
 78 79  2  0
 79 80  1  0
 81 80  2  0
 82 81  1  0
 83 57  1  0
 83 88  1  0
 83 84  1  0
 84 87  1  1
 84 85  1  0
 86 84  1  0
 88 91  1  0
 89 93  1  0
 89 88  1  0
 90 89  2  0
 93 92  1  0
 95 93  1  0
 95 96  1  0
 95 94  1  0
M  ISO  4  15 100  23 100  55 101  56 101
M  END
>  <TORSDO>  (76) 
F 25

>  <SCORE>  (76) 
-11.998

>  <name>  (76) 
75

>  <ligand_id>  (76) 
75

>  <original_smiles>  (76) 
[H]c1c([H])c([H])c2c(c1[H])C([H])([H])C([H])([H])C([H])([H])C2([H])N([H])C(=O)C1([H])N(C(=O)C([H])(N([H])C(=O)C([H])(N([H])C([H])([H])[H])C([H])([H])[H])C(C([H])([H])[H])(C([H])([H])[H])C([H])([H])[H])C([H])([H])c2c([H])c(OC([H])([H])C([H])([H])Oc3c([H])c([H])c(OC([H])([H])C([H])([H])[N+]([H])([H])C([H])([H])C([H])([H])N([H])C(=O)N4C([H])([H])C([H])([H])C([H])([H])C([H])(n5nc(-c6c([H])c([H])c(Oc7c([H])c([H])c(F)c([H])c7F)c([H])c6[H])c(C(=O)N([H])[H])c5N([H])[H])C4([H])[H])c([H])c3[H])c([H])c([H])c2C1([H])[H]

>  <smiles>  (76) 
[H]c1c([H])c([H])c2c(c1[H])C([H])([H])C([H])([H])C([H])([H])C2([H])N([H])C(=O)C1([H])N(C(=O)C([H])(N([H])C(=O)C([H])(N([H])C([H])([H])[H])C([H])([H])[H])C(C([H])([H])[H])(C([H])([H])[H])C([H])([H])[H])C([H])([H])c2c([H])c(OC([H])([H])C([H])([H])Oc3c([H])c([H])c(OC([H])([H])C([H])([H])[N+]([H])([H])C([H])([H])C([H])([H])N([H])C(=O)N4C([H])([H])C([H])([H])C([H])([H])C([H])(n5nc(-c6c([H])c([H])c(Oc7c([H])c([H])c(F)c([H])c7F)c([H])c6[H])c(C(=O)N([H])[H])c5N([H])[H])C4([H])[H])c([H])c3[H])c([H])c([H])c2C1([H])[H]

$$$$
76:0:0
     RDKit          3D

 91 99  0  0  1  0  0  0  0  0999 V2000
  -29.3520  -22.9830   18.7620 C   0  0  0  0  0  3  0  0  0  0  0  0
  -29.6100  -21.6300   19.1380 C   0  0  0  0  0  3  0  0  0  0  0  0
  -28.8830  -23.5760   21.0350 C   0  0  0  0  0  3  0  0  0  0  0  0
  -28.9990  -24.0040   19.6890 C   0  0  0  0  0  0  0  0  0  0  0  0
  -29.1230  -22.2140   21.4230 C   0  0  0  0  0  0  0  0  0  0  0  0
  -29.5210  -21.2050   20.4870 C   0  0  0  0  0  0  0  0  0  0  0  0
  -28.9250  -21.8350   22.8800 C   0  0  0  0  0  1  0  0  0  0  0  0
  -29.8240  -19.8730   20.9420 N   0  0  0  0  0  0  0  0  0  0  0  0
  -29.6770  -19.7180   21.9340 H   0  0  0  0  0  0  0  0  0  0  0  0
  -30.0190  -18.6110   20.1560 C   0  0  0  0  0  2  0  0  0  0  0  0
  -30.6780  -17.3990   20.9730 C   0  0  0  0  0  2  0  0  0  0  0  0
  -31.0270  -14.8720   20.4240 C   0  0  0  0  0  0  0  0  0  0  0  0
  -30.7960  -12.6260   19.3790 C   0  0  0  0  0  2  0  0  0  0  0  0
  -29.8790  -12.7530   18.1430 C   0  0  0  0  0  2  0  0  0  0  0  0
  -28.3990  -12.6120   18.5490 C   0  0  0  0  0  2  0  0  0  0  0  0
  -28.0270  -13.5010   19.7650 C   0  0  0  0  0  3  0  0  0  0  0  0
  -29.0600  -13.3560   20.9030 C   0  0  0  0  0  2  0  0  0  0  0  0
  -30.3780  -13.6680   20.3360 N   0  0  0  0  0  0  0  0  0  0  0  0
  -32.2150  -14.9830   20.1110 O   0  0  0  0  0  0  0  0  0  0  0  0
  -30.2590  -15.9760   20.6950 N   0  0  0  0  0  0  0  0  0  0  0  0
  -29.2850  -15.7770   20.8570 H   0  0  0  0  0  0  0  0  0  0  0  0
  -25.6380  -14.1450   20.4480 C   0  0  0  0  0  0  0  0  0  0  0  0
  -24.5490  -13.3910   20.7940 C   0  0  0  0  0  0  0  0  0  0  0  0
  -24.9830  -12.0310   20.7610 C   0  0  0  0  0  0  0  0  0  0  0  0
  -26.6670  -13.2450   20.2280 N   0  0  0  0  0  0  0  0  0  0  0  0
  -26.2780  -11.9680   20.4750 N   0  0  0  0  0  0  0  0  0  0  0  0
  -24.2260  -10.7830   20.9290 C   0  0  0  0  0  0  0  0  0  0  0  0
  -24.6080   -9.8090   21.8780 C   0  0  0  0  0  3  0  0  0  0  0  0
  -23.8540   -8.6270   22.0310 C   0  0  0  0  0  3  0  0  0  0  0  0
  -22.7050   -8.4090   21.2360 C   0  0  0  0  0  0  0  0  0  0  0  0
  -22.3420   -9.3700   20.2760 C   0  0  0  0  0  3  0  0  0  0  0  0
  -23.0960  -10.5460   20.1200 C   0  0  0  0  0  3  0  0  0  0  0  0
  -21.9260   -7.2790   21.2970 O   0  0  0  0  0  0  0  0  0  0  0  0
  -21.8000   -6.5540   22.4560 C   0  0  0  0  0  0  0  0  0  0  0  0
  -21.2880   -7.1270   23.6410 C   0  0  0  0  0  3  0  0  0  0  0  0
  -21.1110   -6.3300   24.7880 C   0  0  0  0  0  3  0  0  0  0  0  0
  -21.4350   -4.9610   24.7520 C   0  0  0  0  0  0  0  0  0  0  0  0
  -21.9380   -4.3870   23.5710 C   0  0  0  0  0  3  0  0  0  0  0  0
  -22.1180   -5.1830   22.4250 C   0  0  0  0  0  0  0  0  0  0  0  0
  -22.5840   -4.6200   21.2840 F   0  0  0  0  0  0  0  0  0  0  0  0
  -21.2570   -4.1910   25.8510 F   0  0  0  0  0  0  0  0  0  0  0  0
  -23.1590  -13.8970   21.0470 C   0  0  0  0  0  0  0  0  0  0  0  0
  -22.4050  -13.2140   21.9010 N   0  0  0  0  0  0  0  0  0  0  0  0
  -22.7490  -14.9320   20.5240 O   0  0  0  0  0  0  0  0  0  0  0  0
  -22.7490  -12.3720   22.3410 H   0  0  0  0  0  0  0  0  0  0  0  0
  -21.4730  -13.5350   22.1190 H   0  0  0  0  0  0  0  0  0  0  0  0
  -25.8310  -15.5130   20.2800 N   0  0  0  0  0  0  0  0  0  0  0  0
  -25.0610  -16.1700   20.3480 H   0  0  0  0  0  0  0  0  0  0  0  0
  -26.6790  -15.9350   19.9270 H   0  0  0  0  0  0  0  0  0  0  0  0
  -28.6850  -25.4520   19.1370 C   0  0  0  0  0  2  0  0  0  0  0  0
  -28.5370  -26.6470   20.0000 O   0  0  0  0  0  0  0  0  0  0  0  0
  -24.6970  -31.8810   23.1530 C   0  0  0  0  0  0  0  0  0  0  0  0
  -27.3940  -27.4660   19.9460 C   0  0  0  0  0  0  0  0  0  0  0  0
  -23.5180  -30.5090   21.4730 C   0  0  0  0  0  3  0  0  0  0  0  0
  -24.9960  -29.0380   19.9950 C   0  0  0  0  0  0  0  0  0  0  0  0
  -26.0500  -30.8850   21.2930 C   0  0  0  0  0  2  0  0  0  0  0  0
  -26.1570  -29.5270   20.6060 C   0  0  0  0  0  0  0  0  0  0  0  0
  -27.3530  -28.7510   20.5750 C   0  0  0  0  0  3  0  0  0  0  0  0
  -26.1970  -27.0230   19.3370 C   0  0  0  0  0  3  0  0  0  0  0  0
  -25.0200  -27.7910   19.3530 C   0  0  0  0  0  3  0  0  0  0  0  0
  -23.7440  -29.8870   20.0700 C   0  0  0  0  0  2  0  0  0  0  0  0
  -24.7750  -31.1070   22.0300 N   0  0  0  0  0  0  0  0  0  0  0  0
  -23.6110  -32.1180   23.6970 O   0  0  0  0  0  0  0  0  0  0  0  0
  -22.8820  -29.4450   22.4010 C   0  0  0  0  0  0  0  0  0  0  0  0
  -21.5630  -29.2320   22.2670 N   0  0  0  0  0  0  0  0  0  0  0  0
  -23.5760  -28.8190   23.2070 O   0  0  0  0  0  0  0  0  0  0  0  0
  -21.0590  -29.7940   21.5950 H   0  0  0  0  0  0  0  0  0  0  0  0
  -18.2230  -27.9160   22.7050 C   0  0  0  0  0  0  0  0  0  0  0  0
  -20.7690  -28.2520   23.0090 C   0  0  0  0  0  3  0  0  0  0  0  0
  -20.9230  -26.8350   22.4050 C   0  0  0  0  0  2  0  0  0  0  0  0
  -19.8430  -26.4990   21.3730 C   0  0  0  0  0  2  0  0  0  0  0  0
  -18.4510  -26.5870   22.0040 C   0  0  0  0  0  2  0  0  0  0  0  0
  -19.3110  -28.7060   23.1620 C   0  0  0  0  0  0  0  0  0  0  0  0
  -19.0460  -29.9490   23.7770 C   0  0  0  0  0  3  0  0  0  0  0  0
  -17.7230  -30.4020   23.9390 C   0  0  0  0  0  3  0  0  0  0  0  0
  -16.6500  -29.6090   23.5010 C   0  0  0  0  0  3  0  0  0  0  0  0
  -16.9000  -28.3700   22.8870 C   0  0  0  0  0  3  0  0  0  0  0  0
  -25.9680  -32.5230   23.7890 C   0  0  0  0  0  3  0  0  0  0  0  0
  -26.4880  -31.7450   25.0620 C   0  0  1  0  0  0  0  0  0  0  0  0
  -25.3920  -31.4740   26.1200 C   0  0  0  0  0  1  0  0  0  0  0  0
  -27.0940  -30.3820   24.6560 C   0  0  0  0  0  1  0  0  0  0  0  0
  -27.6280  -32.5460   25.7370 C   0  0  0  0  0  1  0  0  0  0  0  0
  -25.6380  -33.9130   24.1340 N   0  0  0  0  0  0  0  0  0  0  0  0
  -25.9610  -34.9810   23.3910 C   0  0  0  0  0  0  0  0  0  0  0  0
  -26.6400  -34.9000   22.3630 O   0  0  0  0  0  0  0  0  0  0  0  0
  -25.0440  -34.0510   24.9380 H   0  0  0  0  0  0  0  0  0  0  0  0
  -24.2150  -36.7560   23.0390 C   0  0  0  0  0  1  0  0  0  0  0  0
  -25.4490  -36.3550   23.8620 C   0  0  0  0  0  3  0  0  0  0  0  0
  -27.5660  -37.2490   24.7320 C   0  0  0  0  0  1  0  0  0  0  0  0
  -26.4650  -37.4280   23.7900 N   0  0  0  0  0  0  0  0  0  0  0  0
  -26.0380  -38.3320   23.9760 H   0  0  0  0  0  0  0  0  0  0  0  0
  1  2  2  0
  1  4  1  0
  2  6  1  0
  3  5  1  0
  4  3  2  0
  5  7  1  0
  6  8  1  0
  6  5  2  0
  8  9  1  0
 10  8  1  0
 10 11  1  0
 12 20  1  0
 13 18  1  0
 14 15  1  0
 14 13  1  0
 16 15  1  0
 16 25  1  0
 16 17  1  0
 18 12  1  0
 18 17  1  0
 19 12  2  0
 20 21  1  0
 20 11  1  0
 22 23  2  0
 23 42  1  0
 24 23  1  0
 24 27  1  0
 25 22  1  0
 25 26  1  0
 26 24  2  0
 27 28  1  0
 28 29  2  0
 30 33  1  0
 30 29  1  0
 31 30  2  0
 32 31  1  0
 32 27  2  0
 33 34  1  0
 34 35  1  0
 35 36  2  0
 37 36  1  0
 37 41  1  0
 38 37  2  0
 39 34  2  0
 39 38  1  0
 40 39  1  0
 42 43  1  0
 43 46  1  0
 43 45  1  0
 44 42  2  0
 47 48  1  0
 47 22  1  0
 49 47  1  0
 50  4  1  0
 50 51  1  0
 52 63  2  0
 53 51  1  0
 53 58  1  0
 54 62  1  0
 54 64  1  0
 55 61  1  0
 55 57  1  0
 56 62  1  0
 57 56  1  0
 58 57  2  0
 59 60  1  0
 59 53  2  0
 60 55  2  0
 61 54  1  0
 62 52  1  0
 64 66  2  0
 65 64  1  0
 67 65  1  0
 68 77  2  0
 68 73  1  0
 69 65  1  0
 69 73  1  0
 70 69  1  0
 71 72  1  0
 71 70  1  0
 72 68  1  0
 73 74  2  0
 74 75  1  0
 76 75  2  0
 77 76  1  0
 78 52  1  0
 78 83  1  0
 78 79  1  0
 79 82  1  1
 79 80  1  0
 81 79  1  0
 83 86  1  0
 84 88  1  0
 84 83  1  0
 85 84  2  0
 88 87  1  0
 90 88  1  0
 90 91  1  0
 90 89  1  0
M  ISO  4  12 100  20 100  50 101  51 101
M  END
>  <TORSDO>  (77) 
F 20

>  <SCORE>  (77) 
-13.204

>  <name>  (77) 
76

>  <ligand_id>  (77) 
76

>  <original_smiles>  (77) 
[H]c1c([H])c([H])c2c(c1[H])C([H])([H])C([H])([H])C([H])([H])C2([H])N([H])C(=O)C1([H])N(C(=O)C([H])(N([H])C(=O)C([H])(N([H])C([H])([H])[H])C([H])([H])[H])C(C([H])([H])[H])(C([H])([H])[H])C([H])([H])[H])C([H])([H])c2c([H])c(OC([H])([H])c3c([H])c([H])c(N([H])C([H])([H])C([H])([H])N([H])C(=O)N4C([H])([H])C([H])([H])C([H])([H])C([H])(n5nc(-c6c([H])c([H])c(Oc7c([H])c([H])c(F)c([H])c7F)c([H])c6[H])c(C(=O)N([H])[H])c5N([H])[H])C4([H])[H])c(C([H])([H])[H])c3[H])c([H])c([H])c2C1([H])[H]

>  <smiles>  (77) 
[H]c1c([H])c([H])c2c(c1[H])C([H])([H])C([H])([H])C([H])([H])C2([H])N([H])C(=O)C1([H])N(C(=O)C([H])(N([H])C(=O)C([H])(N([H])C([H])([H])[H])C([H])([H])[H])C(C([H])([H])[H])(C([H])([H])[H])C([H])([H])[H])C([H])([H])c2c([H])c(OC([H])([H])c3c([H])c([H])c(N([H])C([H])([H])C([H])([H])N([H])C(=O)N4C([H])([H])C([H])([H])C([H])([H])C([H])(n5nc(-c6c([H])c([H])c(Oc7c([H])c([H])c(F)c([H])c7F)c([H])c6[H])c(C(=O)N([H])[H])c5N([H])[H])C4([H])[H])c(C([H])([H])[H])c3[H])c([H])c([H])c2C1([H])[H]

$$$$
77:0:0
     RDKit          3D

 94102  0  0  1  0  0  0  0  0999 V2000
  -28.5300  -25.1960   18.1590 C   0  0  0  0  0  2  0  0  0  0  0  0
  -29.3430  -24.3240   20.3630 C   0  0  0  0  0  2  0  0  0  0  0  0
  -28.2920  -23.7690   17.6150 C   0  0  0  0  0  2  0  0  0  0  0  0
  -28.3210  -25.2730   19.6780 C   0  0  0  0  0  3  0  0  0  0  0  0
  -29.5100  -22.9320   19.6430 C   0  0  0  0  0  3  0  0  0  0  0  0
  -28.4260  -22.7070   18.6480 N   0  0  0  0  0  4  0  0  0  0  0  0
  -28.5740  -21.8460   18.1460 H   0  0  0  0  0  0  0  0  0  0  0  0
  -27.5420  -22.6170   19.1240 H   0  0  0  0  0  0  0  0  0  0  0  0
  -28.3740  -26.6500   20.1270 O   0  0  0  0  0  0  0  0  0  0  0  0
  -24.6040  -31.8710   23.2260 C   0  0  0  0  0  0  0  0  0  0  0  0
  -27.2030  -27.4020   20.1060 C   0  0  0  0  0  0  0  0  0  0  0  0
  -23.3820  -30.4790   21.5930 C   0  0  0  0  0  3  0  0  0  0  0  0
  -24.8170  -28.9470   20.1490 C   0  0  0  0  0  0  0  0  0  0  0  0
  -25.9130  -30.8190   21.3800 C   0  0  0  0  0  2  0  0  0  0  0  0
  -25.9860  -29.4490   20.7320 C   0  0  0  0  0  0  0  0  0  0  0  0
  -27.1780  -28.6840   20.7110 C   0  0  0  0  0  3  0  0  0  0  0  0
  -26.0060  -26.9330   19.5060 C   0  0  0  0  0  3  0  0  0  0  0  0
  -24.8230  -27.6870   19.5370 C   0  0  0  0  0  3  0  0  0  0  0  0
  -23.5780  -29.8100   20.2080 C   0  0  0  0  0  2  0  0  0  0  0  0
  -24.6520  -31.0710   22.1230 N   0  0  0  0  0  0  0  0  0  0  0  0
  -23.5260  -32.1460   23.7720 O   0  0  0  0  0  0  0  0  0  0  0  0
  -22.7350  -29.4530   22.5520 C   0  0  0  0  0  0  0  0  0  0  0  0
  -21.4090  -29.2730   22.4320 N   0  0  0  0  0  0  0  0  0  0  0  0
  -23.4220  -28.8230   23.3610 O   0  0  0  0  0  0  0  0  0  0  0  0
  -20.9160  -29.8350   21.7530 H   0  0  0  0  0  0  0  0  0  0  0  0
  -18.0360  -28.0750   22.9390 C   0  0  0  0  0  0  0  0  0  0  0  0
  -20.5950  -28.3360   23.2050 C   0  0  0  0  0  3  0  0  0  0  0  0
  -20.6980  -26.9040   22.6310 C   0  0  0  0  0  2  0  0  0  0  0  0
  -19.5940  -26.5790   21.6200 C   0  0  0  0  0  2  0  0  0  0  0  0
  -18.2130  -26.7240   22.2660 C   0  0  0  0  0  2  0  0  0  0  0  0
  -19.1550  -28.8390   23.3660 C   0  0  0  0  0  0  0  0  0  0  0  0
  -18.9370  -30.1030   23.9520 C   0  0  0  0  0  3  0  0  0  0  0  0
  -17.6330  -30.6050   24.1200 C   0  0  0  0  0  3  0  0  0  0  0  0
  -16.5280  -29.8390   23.7100 C   0  0  0  0  0  3  0  0  0  0  0  0
  -16.7310  -28.5760   23.1250 C   0  0  0  0  0  3  0  0  0  0  0  0
  -25.8950  -32.4970   23.8370 C   0  0  0  0  0  3  0  0  0  0  0  0
  -25.5870  -33.8910   24.1850 N   0  0  0  0  0  0  0  0  0  0  0  0
  -25.9060  -34.9520   23.4330 C   0  0  0  0  0  0  0  0  0  0  0  0
  -26.5660  -34.8620   22.3940 O   0  0  0  0  0  0  0  0  0  0  0  0
  -25.0000  -34.0350   24.9950 H   0  0  0  0  0  0  0  0  0  0  0  0
  -24.1680  -36.7420   23.1170 C   0  0  0  0  0  1  0  0  0  0  0  0
  -25.4200  -36.3330   23.9110 C   0  0  0  0  0  3  0  0  0  0  0  0
  -27.5660  -37.2120   24.7210 C   0  0  0  0  0  1  0  0  0  0  0  0
  -26.4480  -37.3910   23.7980 N   0  0  0  0  0  0  0  0  0  0  0  0
  -26.0420  -38.3080   23.9660 H   0  0  0  0  0  0  0  0  0  0  0  0
  -26.4310  -31.7110   25.0950 C   0  0  1  0  0  0  0  0  0  0  0  0
  -25.3540  -31.4580   26.1750 C   0  0  0  0  0  1  0  0  0  0  0  0
  -27.0100  -30.3400   24.6760 C   0  0  0  0  0  1  0  0  0  0  0  0
  -27.5900  -32.4990   25.7480 C   0  0  0  0  0  1  0  0  0  0  0  0
  -29.6600  -21.7340   20.6430 C   0  0  0  0  0  2  0  0  0  0  0  0
  -29.8830  -20.3180   20.0190 C   0  0  0  0  0  2  0  0  0  0  0  0
  -30.1760  -19.2470   21.0150 N   0  0  0  0  0  4  0  0  0  0  0  0
  -29.5930  -19.3910   21.8240 H   0  0  0  0  0  0  0  0  0  0  0  0
  -31.1340  -19.3400   21.3140 H   0  0  0  0  0  0  0  0  0  0  0  0
  -29.9520  -17.8490   20.5420 C   0  0  0  0  0  2  0  0  0  0  0  0
  -30.4230  -16.7760   21.5650 C   0  0  0  0  0  2  0  0  0  0  0  0
  -30.6540  -14.4600   20.5530 C   0  0  0  0  0  0  0  0  0  0  0  0
  -30.3570  -12.3250   19.3420 C   0  0  0  0  0  2  0  0  0  0  0  0
  -29.4090  -12.5350   18.1420 C   0  0  0  0  0  2  0  0  0  0  0  0
  -27.9350  -12.3940   18.5740 C   0  0  0  0  0  2  0  0  0  0  0  0
  -27.6010  -13.2220   19.8420 C   0  0  0  0  0  3  0  0  0  0  0  0
  -28.6530  -12.9740   20.9460 C   0  0  0  0  0  2  0  0  0  0  0  0
  -29.9810  -13.2890   20.3870 N   0  0  0  0  0  0  0  0  0  0  0  0
  -31.7510  -14.6900   20.0390 O   0  0  0  0  0  0  0  0  0  0  0  0
  -29.9900  -15.4060   21.2410 N   0  0  0  0  0  0  0  0  0  0  0  0
  -29.0910  -15.1200   21.6020 H   0  0  0  0  0  0  0  0  0  0  0  0
  -25.1990  -13.8410   20.5330 C   0  0  0  0  0  0  0  0  0  0  0  0
  -24.1270  -13.0720   20.9030 C   0  0  0  0  0  0  0  0  0  0  0  0
  -24.5860  -11.7200   20.8800 C   0  0  0  0  0  0  0  0  0  0  0  0
  -26.2440  -12.9560   20.3140 N   0  0  0  0  0  0  0  0  0  0  0  0
  -25.8770  -11.6750   20.5780 N   0  0  0  0  0  0  0  0  0  0  0  0
  -23.8560  -10.4600   21.0740 C   0  0  0  0  0  0  0  0  0  0  0  0
  -24.3020   -9.4820   21.9910 C   0  0  0  0  0  3  0  0  0  0  0  0
  -23.5740   -8.2870   22.1720 C   0  0  0  0  0  3  0  0  0  0  0  0
  -22.3870   -8.0610   21.4350 C   0  0  0  0  0  0  0  0  0  0  0  0
  -21.9610   -9.0260   20.5070 C   0  0  0  0  0  3  0  0  0  0  0  0
  -22.6900  -10.2130   20.3230 C   0  0  0  0  0  3  0  0  0  0  0  0
  -21.6300   -6.9170   21.5260 O   0  0  0  0  0  0  0  0  0  0  0  0
  -21.6150   -6.1520   22.6650 C   0  0  0  0  0  0  0  0  0  0  0  0
  -21.2530   -6.6900   23.9190 C   0  0  0  0  0  3  0  0  0  0  0  0
  -21.1850   -5.8530   25.0510 C   0  0  0  0  0  3  0  0  0  0  0  0
  -21.4680   -4.4790   24.9290 C   0  0  0  0  0  0  0  0  0  0  0  0
  -21.8220   -3.9410   23.6800 C   0  0  0  0  0  3  0  0  0  0  0  0
  -21.8930   -4.7750   22.5500 C   0  0  0  0  0  0  0  0  0  0  0  0
  -22.2140   -4.2490   21.3440 F   0  0  0  0  0  0  0  0  0  0  0  0
  -21.3940   -3.6730   26.0130 F   0  0  0  0  0  0  0  0  0  0  0  0
  -22.7300  -13.5540   21.1670 C   0  0  0  0  0  0  0  0  0  0  0  0
  -21.9990  -12.8640   22.0360 N   0  0  0  0  0  0  0  0  0  0  0  0
  -22.2950  -14.5770   20.6410 O   0  0  0  0  0  0  0  0  0  0  0  0
  -22.3620  -12.0350   22.4840 H   0  0  0  0  0  0  0  0  0  0  0  0
  -21.0610  -13.1680   22.2570 H   0  0  0  0  0  0  0  0  0  0  0  0
  -25.3680  -15.2090   20.3480 N   0  0  0  0  0  0  0  0  0  0  0  0
  -24.6000  -15.8660   20.4430 H   0  0  0  0  0  0  0  0  0  0  0  0
  -26.2170  -15.6400   20.0030 H   0  0  0  0  0  0  0  0  0  0  0  0
  1  4  1  0
  3  1  1  0
  3  6  1  0
  4  9  1  0
  4  2  1  0
  5  2  1  0
  5 50  1  0
  6  8  1  0
  6  5  1  0
  7  6  1  0
 10 21  2  0
 11  9  1  0
 11 16  1  0
 12 20  1  0
 12 22  1  0
 13 19  1  0
 13 15  1  0
 14 20  1  0
 15 14  1  0
 16 15  2  0
 17 18  1  0
 17 11  2  0
 18 13  2  0
 19 12  1  0
 20 10  1  0
 22 24  2  0
 23 22  1  0
 25 23  1  0
 26 35  2  0
 26 31  1  0
 27 23  1  0
 27 31  1  0
 28 27  1  0
 29 30  1  0
 29 28  1  0
 30 26  1  0
 31 32  2  0
 32 33  1  0
 34 33  2  0
 35 34  1  0
 36 10  1  0
 36 37  1  0
 36 46  1  0
 37 40  1  0
 38 42  1  0
 38 37  1  0
 39 38  2  0
 42 41  1  0
 44 42  1  0
 44 45  1  0
 44 43  1  0
 46 49  1  1
 46 47  1  0
 48 46  1  0
 51 50  1  0
 51 52  1  0
 52 54  1  0
 52 53  1  0
 55 52  1  0
 55 56  1  0
 57 65  1  0
 58 63  1  0
 59 60  1  0
 59 58  1  0
 61 60  1  0
 61 70  1  0
 61 62  1  0
 63 57  1  0
 63 62  1  0
 64 57  2  0
 65 56  1  0
 65 66  1  0
 67 68  2  0
 68 87  1  0
 69 68  1  0
 69 72  1  0
 70 67  1  0
 70 71  1  0
 71 69  2  0
 72 73  1  0
 73 74  2  0
 75 78  1  0
 75 74  1  0
 76 75  2  0
 77 76  1  0
 77 72  2  0
 78 79  1  0
 79 80  1  0
 80 81  2  0
 82 81  1  0
 82 86  1  0
 83 82  2  0
 84 79  2  0
 84 83  1  0
 85 84  1  0
 87 88  1  0
 88 91  1  0
 88 90  1  0
 89 87  2  0
 92 93  1  0
 92 67  1  0
 94 92  1  0
M  ISO  4   4 101   9 101  57 100  65 100
M  END
>  <TORSDO>  (78) 
F 21

>  <SCORE>  (78) 
-13.501

>  <name>  (78) 
77

>  <ligand_id>  (78) 
77

>  <original_smiles>  (78) 
[H]c1c([H])c([H])c2c(c1[H])C([H])([H])C([H])([H])C([H])([H])C2([H])N([H])C(=O)C1([H])N(C(=O)C([H])(N([H])C(=O)C([H])(N([H])C([H])([H])[H])C([H])([H])[H])C(C([H])([H])[H])(C([H])([H])[H])C([H])([H])[H])C([H])([H])c2c([H])c(OC3([H])C([H])([H])C([H])([H])[N+]([H])([H])C([H])(C([H])([H])C([H])([H])[N+]([H])([H])C([H])([H])C([H])([H])N([H])C(=O)N4C([H])([H])C([H])([H])C([H])([H])C([H])(n5nc(-c6c([H])c([H])c(Oc7c([H])c([H])c(F)c([H])c7F)c([H])c6[H])c(C(=O)N([H])[H])c5N([H])[H])C4([H])[H])C3([H])[H])c([H])c([H])c2C1([H])[H]

>  <smiles>  (78) 
[H]c1c([H])c([H])c2c(c1[H])C([H])([H])C([H])([H])C([H])([H])C2([H])N([H])C(=O)C1([H])N(C(=O)C([H])(N([H])C(=O)C([H])(N([H])C([H])([H])[H])C([H])([H])[H])C(C([H])([H])[H])(C([H])([H])[H])C([H])([H])[H])C([H])([H])c2c([H])c(OC3([H])C([H])([H])C([H])([H])[N+]([H])([H])C([H])(C([H])([H])C([H])([H])[N+]([H])([H])C([H])([H])C([H])([H])N([H])C(=O)N4C([H])([H])C([H])([H])C([H])([H])C([H])(n5nc(-c6c([H])c([H])c(Oc7c([H])c([H])c(F)c([H])c7F)c([H])c6[H])c(C(=O)N([H])[H])c5N([H])[H])C4([H])[H])C3([H])[H])c([H])c([H])c2C1([H])[H]

$$$$
78:0:0
     RDKit          3D

 93102  0  0  1  0  0  0  0  0999 V2000
  -28.3790  -21.1930   18.6900 C   0  0  0  0  0  3  0  0  0  0  0  0
  -28.1400  -22.6260   18.7700 C   0  0  0  0  0  3  0  0  0  0  0  0
  -28.7490  -20.6500   19.9030 C   0  0  0  0  0  0  0  0  0  0  0  0
  -28.3540  -23.1240   20.0400 C   0  0  0  0  0  0  0  0  0  0  0  0
  -28.8280  -21.8890   20.6960 N   0  0  0  0  0  0  0  0  0  0  0  0
  -28.8810  -19.0460   20.3930 C   0  0  0  0  0  3  0  0  0  0  0  0
  -29.8510  -17.7360   19.8510 C   0  0  0  0  0  3  0  0  0  0  0  0
  -30.4790  -15.0070   20.2090 C   0  0  0  0  0  0  0  0  0  0  0  0
  -30.3910  -12.6130   19.3460 C   0  0  0  0  0  2  0  0  0  0  0  0
  -29.4330  -12.5240   18.1350 C   0  0  0  0  0  2  0  0  0  0  0  0
  -27.9830  -12.3070   18.6030 C   0  0  0  0  0  2  0  0  0  0  0  0
  -27.5820  -13.2590   19.7590 C   0  0  0  0  0  3  0  0  0  0  0  0
  -28.6620  -13.3040   20.8620 C   0  0  0  0  0  2  0  0  0  0  0  0
  -29.9120  -13.7280   20.2180 N   0  0  0  0  0  0  0  0  0  0  0  0
  -31.6860  -15.0680   19.9500 O   0  0  0  0  0  0  0  0  0  0  0  0
  -29.6650  -16.1890   20.2530 N   0  0  0  0  0  0  0  0  0  0  0  0
  -28.6960  -15.9480   20.4220 H   0  0  0  0  0  0  0  0  0  0  0  0
  -25.2140  -13.8310   20.5450 C   0  0  0  0  0  0  0  0  0  0  0  0
  -24.1560  -13.0490   20.9240 C   0  0  0  0  0  0  0  0  0  0  0  0
  -24.6250  -11.7010   20.8790 C   0  0  0  0  0  0  0  0  0  0  0  0
  -26.2570  -12.9580   20.2870 N   0  0  0  0  0  0  0  0  0  0  0  0
  -25.9120  -11.6720   20.5570 N   0  0  0  0  0  0  0  0  0  0  0  0
  -23.9050  -10.4340   21.0650 C   0  0  0  0  0  0  0  0  0  0  0  0
  -24.3480   -9.4630   21.9900 C   0  0  0  0  0  3  0  0  0  0  0  0
  -23.6280   -8.2610   22.1670 C   0  0  0  0  0  3  0  0  0  0  0  0
  -22.4500   -8.0230   21.4190 C   0  0  0  0  0  0  0  0  0  0  0  0
  -22.0270   -8.9840   20.4830 C   0  0  0  0  0  3  0  0  0  0  0  0
  -22.7480  -10.1760   20.3050 C   0  0  0  0  0  3  0  0  0  0  0  0
  -21.7000   -6.8760   21.5060 O   0  0  0  0  0  0  0  0  0  0  0  0
  -21.6670   -6.1240   22.6530 C   0  0  0  0  0  0  0  0  0  0  0  0
  -21.2450   -6.6650   23.8880 C   0  0  0  0  0  3  0  0  0  0  0  0
  -21.1610   -5.8390   25.0260 C   0  0  0  0  0  3  0  0  0  0  0  0
  -21.4840   -4.4730   24.9320 C   0  0  0  0  0  0  0  0  0  0  0  0
  -21.8980   -3.9310   23.7020 C   0  0  0  0  0  3  0  0  0  0  0  0
  -21.9860   -4.7530   22.5640 C   0  0  0  0  0  0  0  0  0  0  0  0
  -22.3640   -4.2200   21.3770 F   0  0  0  0  0  0  0  0  0  0  0  0
  -21.3950   -3.6770   26.0250 F   0  0  0  0  0  0  0  0  0  0  0  0
  -22.7600  -13.5180   21.2080 C   0  0  0  0  0  0  0  0  0  0  0  0
  -22.0410  -12.8130   22.0760 N   0  0  0  0  0  0  0  0  0  0  0  0
  -22.3130  -14.5450   20.6980 O   0  0  0  0  0  0  0  0  0  0  0  0
  -22.4160  -11.9810   22.5080 H   0  0  0  0  0  0  0  0  0  0  0  0
  -21.1050  -13.1080   22.3110 H   0  0  0  0  0  0  0  0  0  0  0  0
  -25.3670  -15.2040   20.3730 N   0  0  0  0  0  0  0  0  0  0  0  0
  -24.5910  -15.8490   20.4920 H   0  0  0  0  0  0  0  0  0  0  0  0
  -26.1970  -15.6520   20.0040 H   0  0  0  0  0  0  0  0  0  0  0  0
  -27.9410  -24.5940   20.7460 C   0  0  0  0  0  2  0  0  0  0  0  0
  -28.1870  -26.0550   20.2030 O   0  0  0  0  0  0  0  0  0  0  0  0
  -24.5750  -31.8640   23.2210 C   0  0  0  0  0  0  0  0  0  0  0  0
  -27.1570  -27.0800   20.2420 C   0  0  0  0  0  0  0  0  0  0  0  0
  -23.3880  -30.4540   21.5880 C   0  0  0  0  0  3  0  0  0  0  0  0
  -24.8450  -28.8620   20.1900 C   0  0  0  0  0  0  0  0  0  0  0  0
  -25.9460  -30.7070   21.4420 C   0  0  0  0  0  2  0  0  0  0  0  0
  -26.0270  -29.3020   20.8020 C   0  0  0  0  0  0  0  0  0  0  0  0
  -27.1890  -28.4310   20.8030 C   0  0  0  0  0  3  0  0  0  0  0  0
  -25.9450  -26.7470   19.6110 C   0  0  0  0  0  3  0  0  0  0  0  0
  -24.8180  -27.5960   19.5810 C   0  0  0  0  0  3  0  0  0  0  0  0
  -23.6210  -29.7660   20.2180 C   0  0  0  0  0  2  0  0  0  0  0  0
  -24.6580  -31.0300   22.1390 N   0  0  0  0  0  0  0  0  0  0  0  0
  -23.4840  -32.1580   23.7340 O   0  0  0  0  0  0  0  0  0  0  0  0
  -22.6960  -29.4630   22.5560 C   0  0  0  0  0  0  0  0  0  0  0  0
  -21.3660  -29.3010   22.4270 N   0  0  0  0  0  0  0  0  0  0  0  0
  -23.3590  -28.8320   23.3830 O   0  0  0  0  0  0  0  0  0  0  0  0
  -20.8890  -29.8600   21.7340 H   0  0  0  0  0  0  0  0  0  0  0  0
  -17.9710  -28.1390   22.9410 C   0  0  0  0  0  0  0  0  0  0  0  0
  -20.5340  -28.3740   23.2000 C   0  0  0  0  0  3  0  0  0  0  0  0
  -20.6190  -26.9390   22.6280 C   0  0  0  0  0  2  0  0  0  0  0  0
  -19.5120  -26.6290   21.6170 C   0  0  0  0  0  2  0  0  0  0  0  0
  -18.1340  -26.7890   22.2640 C   0  0  0  0  0  2  0  0  0  0  0  0
  -19.0990  -28.8900   23.3640 C   0  0  0  0  0  0  0  0  0  0  0  0
  -18.8930  -30.1540   23.9570 C   0  0  0  0  0  3  0  0  0  0  0  0
  -17.5930  -30.6660   24.1310 C   0  0  0  0  0  3  0  0  0  0  0  0
  -16.4800  -29.9120   23.7190 C   0  0  0  0  0  3  0  0  0  0  0  0
  -16.6710  -28.6500   23.1300 C   0  0  0  0  0  3  0  0  0  0  0  0
  -25.8450  -32.5070   23.8540 C   0  0  0  0  0  3  0  0  0  0  0  0
  -25.5300  -33.9090   24.1750 N   0  0  0  0  0  0  0  0  0  0  0  0
  -25.8690  -34.9600   23.4190 C   0  0  0  0  0  0  0  0  0  0  0  0
  -26.5490  -34.8580   22.3940 O   0  0  0  0  0  0  0  0  0  0  0  0
  -24.9250  -34.0630   24.9680 H   0  0  0  0  0  0  0  0  0  0  0  0
  -24.1460  -36.7590   23.0550 C   0  0  0  0  0  1  0  0  0  0  0  0
  -25.3800  -36.3490   23.8750 C   0  0  0  0  0  3  0  0  0  0  0  0
  -27.5030  -37.2320   24.7310 C   0  0  0  0  0  1  0  0  0  0  0  0
  -26.4130  -37.4010   23.7730 N   0  0  0  0  0  0  0  0  0  0  0  0
  -26.0040  -38.3200   23.9220 H   0  0  0  0  0  0  0  0  0  0  0  0
  -26.3420  -31.7500   25.1460 C   0  0  1  0  0  0  0  0  0  0  0  0
  -25.2360  -31.5240   26.2010 C   0  0  0  0  0  1  0  0  0  0  0  0
  -26.9310  -30.3690   24.7800 C   0  0  0  0  0  1  0  0  0  0  0  0
  -27.4860  -32.5480   25.8150 C   0  0  0  0  0  1  0  0  0  0  0  0
  -29.3560  -21.8600   22.0560 C   0  0  0  0  0  2  0  0  0  0  0  0
  -32.9570  -20.7290   22.8860 C   0  0  0  0  0  2  0  0  0  0  0  0
  -32.9630  -20.5690   21.3660 C   0  0  0  0  0  2  0  0  0  0  0  0
  -31.4800  -20.9250   23.2540 C   0  0  0  0  0  2  0  0  0  0  0  0
  -31.6620  -21.2040   20.8680 C   0  0  0  0  0  2  0  0  0  0  0  0
  -30.9170  -21.7660   22.1020 C   0  0  0  0  0  3  0  0  0  0  0  0
  1  2  1  0
  1  3  2  0
  2  4  2  0
  3  6  1  0
  3  5  1  0
  4  5  1  0
  4 46  1  0
  5 88  1  0
  7 16  1  0
  7  6  2  0
  8 14  1  0
  8 16  1  0
  9 14  1  0
 10 11  1  0
 10  9  1  0
 12 11  1  0
 12 21  1  0
 12 13  1  0
 14 13  1  0
 15  8  2  0
 16 17  1  0
 18 19  2  0
 19 38  1  0
 20 19  1  0
 20 23  1  0
 21 18  1  0
 21 22  1  0
 22 20  2  0
 23 24  1  0
 24 25  2  0
 26 29  1  0
 26 25  1  0
 27 26  2  0
 28 27  1  0
 28 23  2  0
 29 30  1  0
 30 31  1  0
 31 32  2  0
 33 32  1  0
 33 37  1  0
 34 33  2  0
 35 30  2  0
 35 34  1  0
 36 35  1  0
 38 39  1  0
 39 42  1  0
 39 41  1  0
 40 38  2  0
 43 44  1  0
 43 18  1  0
 45 43  1  0
 47 49  1  0
 47 46  1  0
 48 59  2  0
 49 54  1  0
 50 58  1  0
 50 60  1  0
 51 57  1  0
 51 53  1  0
 52 58  1  0
 53 54  2  0
 53 52  1  0
 55 49  2  0
 56 55  1  0
 56 51  2  0
 57 50  1  0
 58 48  1  0
 60 62  2  0
 61 60  1  0
 63 61  1  0
 64 73  2  0
 64 69  1  0
 65 61  1  0
 65 69  1  0
 66 65  1  0
 67 68  1  0
 67 66  1  0
 68 64  1  0
 69 70  2  0
 70 71  1  0
 72 71  2  0
 73 72  1  0
 74 48  1  0
 74 75  1  0
 74 84  1  0
 75 78  1  0
 76 80  1  0
 76 75  1  0
 77 76  2  0
 80 79  1  0
 82 80  1  0
 82 83  1  0
 82 81  1  0
 84 87  1  1
 84 85  1  0
 86 84  1  0
 88 93  1  0
 89 91  1  0
 90 89  1  0
 92 90  1  0
 92 93  1  0
 93 91  1  0
M  ISO  4   8 100  16 100  46 101  47 101
M  END
>  <TORSDO>  (79) 
F 21

>  <SCORE>  (79) 
-14.878

>  <name>  (79) 
78

>  <ligand_id>  (79) 
78

>  <original_smiles>  (79) 
[H]c1c([H])c([H])c2c(c1[H])C([H])([H])C([H])([H])C([H])([H])C2([H])N([H])C(=O)C1([H])N(C(=O)C([H])(N([H])C(=O)C([H])(N([H])C([H])([H])[H])C([H])([H])[H])C(C([H])([H])[H])(C([H])([H])[H])C([H])([H])[H])C([H])([H])c2c([H])c(OC([H])([H])c3c([H])c([H])c(C([H])([H])C([H])([H])N([H])C(=O)N4C([H])([H])C([H])([H])C([H])([H])C([H])(n5nc(-c6c([H])c([H])c(Oc7c([H])c([H])c(F)c([H])c7F)c([H])c6[H])c(C(=O)N([H])[H])c5N([H])[H])C4([H])[H])n3C([H])([H])C3([H])C([H])([H])C([H])([H])C([H])([H])C3([H])[H])c([H])c([H])c2C1([H])[H]

>  <smiles>  (79) 
[H]c1c([H])c([H])c2c(c1[H])C([H])([H])C([H])([H])C([H])([H])C2([H])N([H])C(=O)C1([H])N(C(=O)C([H])(N([H])C(=O)C([H])(N([H])C([H])([H])[H])C([H])([H])[H])C(C([H])([H])[H])(C([H])([H])[H])C([H])([H])[H])C([H])([H])c2c([H])c(OC([H])([H])c3c([H])c([H])c(C([H])([H])C([H])([H])N([H])C(=O)N4C([H])([H])C([H])([H])C([H])([H])C([H])(n5nc(-c6c([H])c([H])c(Oc7c([H])c([H])c(F)c([H])c7F)c([H])c6[H])c(C(=O)N([H])[H])c5N([H])[H])C4([H])[H])n3C([H])([H])C3([H])C([H])([H])C([H])([H])C([H])([H])C3([H])[H])c([H])c([H])c2C1([H])[H]

$$$$
79:0:0
     RDKit          3D

 95103  0  0  1  0  0  0  0  0999 V2000
  -28.4960  -22.9100   17.3160 C   0  0  0  0  0  3  0  0  0  0  0  0
  -27.6450  -23.3870   18.3520 C   0  0  0  0  0  3  0  0  0  0  0  0
  -30.2090  -22.4330   18.9740 C   0  0  0  0  0  3  0  0  0  0  0  0
  -29.8300  -22.5250   17.6200 C   0  0  0  0  0  0  0  0  0  0  0  0
  -28.2550  -23.7180   19.5870 C   0  0  0  0  0  3  0  0  0  0  0  0
  -29.2010  -22.6470   19.9370 C   0  0  0  0  0  3  0  0  0  0  0  0
  -31.1070  -23.2410   15.5490 C   0  0  0  0  0  1  0  0  0  0  0  0
  -30.4140  -20.8210   15.8180 C   0  0  0  0  0  1  0  0  0  0  0  0
  -30.8290  -22.1090   16.5400 C   0  0  0  0  0  3  0  0  0  0  0  0
  -28.8130  -21.2800   20.6790 C   0  0  0  0  0  2  0  0  0  0  0  0
  -29.6620  -20.0240   20.3690 N   0  0  0  0  0  4  0  0  0  0  0  0
  -30.5800  -20.2000   20.7430 H   0  0  0  0  0  0  0  0  0  0  0  0
  -29.7440  -20.0000   19.3660 H   0  0  0  0  0  0  0  0  0  0  0  0
  -29.2470  -18.6010   20.7910 C   0  0  0  0  0  3  0  0  0  0  0  0
  -30.2810  -17.3880   20.4880 C   0  0  0  0  0  3  0  0  0  0  0  0
  -30.6430  -14.8070   20.4090 C   0  0  0  0  0  0  0  0  0  0  0  0
  -30.4500  -12.5430   19.3690 C   0  0  0  0  0  2  0  0  0  0  0  0
  -29.5230  -12.5820   18.1320 C   0  0  0  0  0  2  0  0  0  0  0  0
  -28.0490  -12.4180   18.5520 C   0  0  0  0  0  2  0  0  0  0  0  0
  -27.6560  -13.3080   19.7640 C   0  0  0  0  0  3  0  0  0  0  0  0
  -28.7090  -13.2480   20.8980 C   0  0  0  0  0  2  0  0  0  0  0  0
  -30.0100  -13.5890   20.3210 N   0  0  0  0  0  0  0  0  0  0  0  0
  -31.8100  -14.9350   20.0360 O   0  0  0  0  0  0  0  0  0  0  0  0
  -29.8850  -15.9250   20.7160 N   0  0  0  0  0  0  0  0  0  0  0  0
  -28.9470  -15.7350   21.0450 H   0  0  0  0  0  0  0  0  0  0  0  0
  -25.2580  -13.8920   20.4720 C   0  0  0  0  0  0  0  0  0  0  0  0
  -24.1870  -13.1120   20.8300 C   0  0  0  0  0  0  0  0  0  0  0  0
  -24.6590  -11.7650   20.8150 C   0  0  0  0  0  0  0  0  0  0  0  0
  -26.3100  -13.0150   20.2510 N   0  0  0  0  0  0  0  0  0  0  0  0
  -25.9540  -11.7340   20.5240 N   0  0  0  0  0  0  0  0  0  0  0  0
  -23.9360  -10.4980   21.0060 C   0  0  0  0  0  0  0  0  0  0  0  0
  -24.3530   -9.5400   21.9550 C   0  0  0  0  0  3  0  0  0  0  0  0
  -23.6230   -8.3450   22.1340 C   0  0  0  0  0  3  0  0  0  0  0  0
  -22.4640   -8.0960   21.3640 C   0  0  0  0  0  0  0  0  0  0  0  0
  -22.0640   -9.0450   20.4050 C   0  0  0  0  0  3  0  0  0  0  0  0
  -22.7940  -10.2310   20.2240 C   0  0  0  0  0  3  0  0  0  0  0  0
  -21.7110   -6.9490   21.4500 O   0  0  0  0  0  0  0  0  0  0  0  0
  -21.6460   -6.2150   22.6080 C   0  0  0  0  0  0  0  0  0  0  0  0
  -21.1810   -6.7770   23.8180 C   0  0  0  0  0  3  0  0  0  0  0  0
  -21.0600   -5.9720   24.9690 C   0  0  0  0  0  3  0  0  0  0  0  0
  -21.3940   -4.6060   24.9110 C   0  0  0  0  0  0  0  0  0  0  0  0
  -21.8480   -4.0420   23.7060 C   0  0  0  0  0  3  0  0  0  0  0  0
  -21.9700   -4.8440   22.5580 C   0  0  0  0  0  0  0  0  0  0  0  0
  -22.3890   -4.2900   21.3950 F   0  0  0  0  0  0  0  0  0  0  0  0
  -21.2710   -3.8290   26.0150 F   0  0  0  0  0  0  0  0  0  0  0  0
  -22.7860  -13.5880   21.0760 C   0  0  0  0  0  0  0  0  0  0  0  0
  -22.0400  -12.8970   21.9350 N   0  0  0  0  0  0  0  0  0  0  0  0
  -22.3570  -14.6090   20.5440 O   0  0  0  0  0  0  0  0  0  0  0  0
  -22.3920  -12.0790   22.4060 H   0  0  0  0  0  0  0  0  0  0  0  0
  -21.1030  -13.2160   22.1270 H   0  0  0  0  0  0  0  0  0  0  0  0
  -25.4130  -15.2620   20.2850 N   0  0  0  0  0  0  0  0  0  0  0  0
  -24.6310  -15.9040   20.3680 H   0  0  0  0  0  0  0  0  0  0  0  0
  -26.2460  -15.7010   19.9120 H   0  0  0  0  0  0  0  0  0  0  0  0
  -28.6960  -25.2630   19.4240 C   0  0  0  0  0  2  0  0  0  0  0  0
  -28.3300  -26.4200   20.2980 O   0  0  0  0  0  0  0  0  0  0  0  0
  -24.5860  -31.8780   23.1760 C   0  0  0  0  0  0  0  0  0  0  0  0
  -27.2290  -27.2900   20.1310 C   0  0  0  0  0  0  0  0  0  0  0  0
  -23.3930  -30.4670   21.5320 C   0  0  0  0  0  3  0  0  0  0  0  0
  -24.8600  -28.9140   20.1000 C   0  0  0  0  0  0  0  0  0  0  0  0
  -25.9320  -30.7840   21.3610 C   0  0  0  0  0  2  0  0  0  0  0  0
  -26.0190  -29.4030   20.7140 C   0  0  0  0  0  0  0  0  0  0  0  0
  -27.1970  -28.5940   20.7290 C   0  0  0  0  0  3  0  0  0  0  0  0
  -26.0560  -26.8660   19.4750 C   0  0  0  0  0  3  0  0  0  0  0  0
  -24.8830  -27.6550   19.4700 C   0  0  0  0  0  3  0  0  0  0  0  0
  -23.6150  -29.7800   20.1530 C   0  0  0  0  0  2  0  0  0  0  0  0
  -24.6550  -31.0650   22.0780 N   0  0  0  0  0  0  0  0  0  0  0  0
  -23.5000  -32.1500   23.7080 O   0  0  0  0  0  0  0  0  0  0  0  0
  -22.7290  -29.4570   22.4960 C   0  0  0  0  0  0  0  0  0  0  0  0
  -21.4010  -29.2890   22.3790 N   0  0  0  0  0  0  0  0  0  0  0  0
  -23.4090  -28.8260   23.3100 O   0  0  0  0  0  0  0  0  0  0  0  0
  -20.9130  -29.8490   21.6940 H   0  0  0  0  0  0  0  0  0  0  0  0
  -18.0210  -28.1100   22.9120 C   0  0  0  0  0  0  0  0  0  0  0  0
  -20.5850  -28.3500   23.1510 C   0  0  0  0  0  3  0  0  0  0  0  0
  -20.6690  -26.9230   22.5600 C   0  0  0  0  0  2  0  0  0  0  0  0
  -19.5520  -26.6180   21.5570 C   0  0  0  0  0  2  0  0  0  0  0  0
  -18.1800  -26.7660   22.2200 C   0  0  0  0  0  2  0  0  0  0  0  0
  -19.1510  -28.8600   23.3350 C   0  0  0  0  0  0  0  0  0  0  0  0
  -18.9490  -30.1170   23.9450 C   0  0  0  0  0  3  0  0  0  0  0  0
  -17.6500  -30.6240   24.1360 C   0  0  0  0  0  3  0  0  0  0  0  0
  -16.5350  -29.8710   23.7290 C   0  0  0  0  0  3  0  0  0  0  0  0
  -16.7220  -28.6160   23.1220 C   0  0  0  0  0  3  0  0  0  0  0  0
  -25.8630  -32.5180   23.8020 C   0  0  0  0  0  3  0  0  0  0  0  0
  -25.5420  -33.9130   24.1430 N   0  0  0  0  0  0  0  0  0  0  0  0
  -25.8650  -34.9750   23.3930 C   0  0  0  0  0  0  0  0  0  0  0  0
  -26.5340  -34.8860   22.3600 O   0  0  0  0  0  0  0  0  0  0  0  0
  -24.9490  -34.0560   24.9470 H   0  0  0  0  0  0  0  0  0  0  0  0
  -24.1300  -36.7650   23.0510 C   0  0  0  0  0  1  0  0  0  0  0  0
  -25.3690  -36.3570   23.8630 C   0  0  0  0  0  3  0  0  0  0  0  0
  -27.4940  -37.2470   24.7130 C   0  0  0  0  0  1  0  0  0  0  0  0
  -26.3960  -37.4180   23.7670 N   0  0  0  0  0  0  0  0  0  0  0  0
  -25.9830  -38.3330   23.9220 H   0  0  0  0  0  0  0  0  0  0  0  0
  -26.3850  -31.7470   25.0770 C   0  0  1  0  0  0  0  0  0  0  0  0
  -25.2940  -31.5010   26.1440 C   0  0  0  0  0  1  0  0  0  0  0  0
  -26.9780  -30.3750   24.6830 C   0  0  0  0  0  1  0  0  0  0  0  0
  -27.5320  -32.5470   25.7410 C   0  0  0  0  0  1  0  0  0  0  0  0
  1  4  1  0
  1  2  2  0
  2  5  1  0
  3  6  1  0
  4  3  2  0
  5 54  1  0
  5  6  1  0
  6 10  1  0
  7  9  1  0
  8  9  1  0
  9  4  1  0
 11 10  1  0
 11 12  1  0
 11 14  1  0
 13 11  1  0
 15 24  1  0
 15 14  2  0
 16 24  1  0
 17 22  1  0
 18 19  1  0
 18 17  1  0
 20 19  1  0
 20 29  1  0
 20 21  1  0
 22 16  1  0
 22 21  1  0
 23 16  2  0
 24 25  1  0
 26 27  2  0
 27 46  1  0
 28 27  1  0
 28 31  1  0
 29 26  1  0
 29 30  1  0
 30 28  2  0
 31 32  1  0
 32 33  2  0
 34 37  1  0
 34 33  1  0
 35 34  2  0
 36 35  1  0
 36 31  2  0
 37 38  1  0
 38 39  1  0
 39 40  2  0
 41 40  1  0
 41 45  1  0
 42 41  2  0
 43 38  2  0
 43 42  1  0
 44 43  1  0
 46 47  1  0
 47 50  1  0
 47 49  1  0
 48 46  2  0
 51 52  1  0
 51 26  1  0
 53 51  1  0
 54 55  1  0
 56 67  2  0
 57 55  1  0
 57 62  1  0
 58 66  1  0
 58 68  1  0
 59 65  1  0
 59 61  1  0
 60 66  1  0
 61 62  2  0
 61 60  1  0
 63 57  2  0
 64 63  1  0
 64 59  2  0
 65 58  1  0
 66 56  1  0
 68 70  2  0
 69 68  1  0
 71 69  1  0
 72 81  2  0
 72 77  1  0
 73 69  1  0
 73 77  1  0
 74 73  1  0
 75 76  1  0
 75 74  1  0
 76 72  1  0
 77 78  2  0
 78 79  1  0
 80 79  2  0
 81 80  1  0
 82 56  1  0
 82 83  1  0
 82 92  1  0
 83 86  1  0
 84 88  1  0
 84 83  1  0
 85 84  2  0
 88 87  1  0
 90 88  1  0
 90 91  1  0
 90 89  1  0
 92 95  1  1
 92 93  1  0
 94 92  1  0
M  ISO  4  16 100  24 100  54 101  55 101
M  END
>  <TORSDO>  (80) 
F 22

>  <SCORE>  (80) 
-12.984

>  <name>  (80) 
79

>  <ligand_id>  (80) 
79

>  <original_smiles>  (80) 
[H]c1c([H])c([H])c2c(c1[H])C([H])([H])C([H])([H])C([H])([H])C2([H])N([H])C(=O)C1([H])N(C(=O)C([H])(N([H])C(=O)C([H])(N([H])C([H])([H])[H])C([H])([H])[H])C(C([H])([H])[H])(C([H])([H])[H])C([H])([H])[H])C([H])([H])c2c([H])c(OC([H])([H])c3c([H])c([H])c(C([H])(C([H])([H])[H])C([H])([H])[H])c([H])c3C([H])([H])[N+]([H])([H])C([H])([H])C([H])([H])N([H])C(=O)N3C([H])([H])C([H])([H])C([H])([H])C([H])(n4nc(-c5c([H])c([H])c(Oc6c([H])c([H])c(F)c([H])c6F)c([H])c5[H])c(C(=O)N([H])[H])c4N([H])[H])C3([H])[H])c([H])c([H])c2C1([H])[H]

>  <smiles>  (80) 
[H]c1c([H])c([H])c2c(c1[H])C([H])([H])C([H])([H])C([H])([H])C2([H])N([H])C(=O)C1([H])N(C(=O)C([H])(N([H])C(=O)C([H])(N([H])C([H])([H])[H])C([H])([H])[H])C(C([H])([H])[H])(C([H])([H])[H])C([H])([H])[H])C([H])([H])c2c([H])c(OC([H])([H])c3c([H])c([H])c(C([H])(C([H])([H])[H])C([H])([H])[H])c([H])c3C([H])([H])[N+]([H])([H])C([H])([H])C([H])([H])N([H])C(=O)N3C([H])([H])C([H])([H])C([H])([H])C([H])(n4nc(-c5c([H])c([H])c(Oc6c([H])c([H])c(F)c([H])c6F)c([H])c5[H])c(C(=O)N([H])[H])c4N([H])[H])C3([H])[H])c([H])c([H])c2C1([H])[H]

$$$$
80:0:0
     RDKit          3D

 90 99  0  0  1  0  0  0  0  0999 V2000
  -29.2480  -22.0440   19.2430 C   0  0  0  0  0  3  0  0  0  0  0  0
  -28.2850  -21.9570   21.4730 C   0  0  0  0  0  2  0  0  0  0  0  0
  -28.5130  -23.5820   21.5430 C   0  0  0  0  0  2  0  0  0  0  0  0
  -29.4370  -24.1350   18.0830 C   0  0  0  0  0  2  0  0  0  0  0  0
  -30.0220  -22.9230   17.3380 C   0  0  0  0  0  2  0  0  0  0  0  0
  -28.5030  -23.4910   19.0880 C   0  0  0  0  0  3  0  0  0  0  0  0
  -29.1850  -21.0520   20.4980 C   0  0  0  0  0  3  0  0  0  0  0  0
  -28.0510  -24.4800   20.3040 C   0  0  0  0  0  3  0  0  0  0  0  0
  -30.0210  -21.8000   18.2670 N   0  0  0  0  0  2  0  0  0  0  0  0
  -28.2310  -26.0780   20.2900 O   0  0  0  0  0  0  0  0  0  0  0  0
  -24.6460  -31.9050   23.2460 C   0  0  0  0  0  0  0  0  0  0  0  0
  -27.1810  -27.0970   20.2350 C   0  0  0  0  0  0  0  0  0  0  0  0
  -23.4370  -30.5120   21.6120 C   0  0  0  0  0  3  0  0  0  0  0  0
  -24.8730  -28.9100   20.1910 C   0  0  0  0  0  0  0  0  0  0  0  0
  -25.9960  -30.7410   21.4480 C   0  0  0  0  0  2  0  0  0  0  0  0
  -26.0600  -29.3370   20.8000 C   0  0  0  0  0  0  0  0  0  0  0  0
  -27.2110  -28.4490   20.7980 C   0  0  0  0  0  3  0  0  0  0  0  0
  -25.9680  -26.7920   19.5790 C   0  0  0  0  0  3  0  0  0  0  0  0
  -24.8450  -27.6550   19.5610 C   0  0  0  0  0  3  0  0  0  0  0  0
  -23.6540  -29.8240   20.2370 C   0  0  0  0  0  2  0  0  0  0  0  0
  -24.7140  -31.0770   22.1560 N   0  0  0  0  0  0  0  0  0  0  0  0
  -23.5610  -32.1990   23.7730 O   0  0  0  0  0  0  0  0  0  0  0  0
  -22.7480  -29.5170   22.5810 C   0  0  0  0  0  0  0  0  0  0  0  0
  -21.4180  -29.3530   22.4550 N   0  0  0  0  0  0  0  0  0  0  0  0
  -23.4140  -28.8920   23.4100 O   0  0  0  0  0  0  0  0  0  0  0  0
  -20.9350  -29.9060   21.7610 H   0  0  0  0  0  0  0  0  0  0  0  0
  -18.0330  -28.1580   22.9600 C   0  0  0  0  0  0  0  0  0  0  0  0
  -20.5930  -28.4220   23.2300 C   0  0  0  0  0  3  0  0  0  0  0  0
  -20.6940  -26.9850   22.6650 C   0  0  0  0  0  2  0  0  0  0  0  0
  -19.5950  -26.6580   21.6500 C   0  0  0  0  0  2  0  0  0  0  0  0
  -18.2110  -26.8060   22.2900 C   0  0  0  0  0  2  0  0  0  0  0  0
  -19.1510  -28.9240   23.3870 C   0  0  0  0  0  0  0  0  0  0  0  0
  -18.9290  -30.1870   23.9760 C   0  0  0  0  0  3  0  0  0  0  0  0
  -17.6230  -30.6860   24.1400 C   0  0  0  0  0  3  0  0  0  0  0  0
  -16.5200  -29.9190   23.7280 C   0  0  0  0  0  3  0  0  0  0  0  0
  -16.7270  -28.6560   23.1440 C   0  0  0  0  0  3  0  0  0  0  0  0
  -25.9250  -32.5390   23.8710 C   0  0  0  0  0  3  0  0  0  0  0  0
  -25.6170  -33.9390   24.2080 N   0  0  0  0  0  0  0  0  0  0  0  0
  -25.9260  -34.9970   23.4460 C   0  0  0  0  0  0  0  0  0  0  0  0
  -26.5660  -34.8960   22.3960 O   0  0  0  0  0  0  0  0  0  0  0  0
  -25.0450  -34.0900   25.0260 H   0  0  0  0  0  0  0  0  0  0  0  0
  -24.1750  -36.7850   23.1680 C   0  0  0  0  0  1  0  0  0  0  0  0
  -25.4530  -36.3850   23.9230 C   0  0  0  0  0  3  0  0  0  0  0  0
  -27.6160  -37.2870   24.6600 C   0  0  0  0  0  1  0  0  0  0  0  0
  -26.4740  -37.4440   23.7630 N   0  0  0  0  0  0  0  0  0  0  0  0
  -26.0690  -38.3620   23.9220 H   0  0  0  0  0  0  0  0  0  0  0  0
  -26.4350  -31.7690   25.1530 C   0  0  1  0  0  0  0  0  0  0  0  0
  -25.3380  -31.5410   26.2200 C   0  0  0  0  0  1  0  0  0  0  0  0
  -27.0110  -30.3860   24.7710 C   0  0  0  0  0  1  0  0  0  0  0  0
  -27.5890  -32.5590   25.8140 C   0  0  0  0  0  1  0  0  0  0  0  0
  -28.9410  -19.3190   20.3530 C   0  0  0  0  0  3  0  0  0  0  0  0
  -30.0340  -17.9630   20.4030 C   0  0  0  0  0  3  0  0  0  0  0  0
  -30.4690  -15.1490   20.2970 C   0  0  0  0  0  0  0  0  0  0  0  0
  -30.3890  -12.7630   19.3650 C   0  0  0  0  0  2  0  0  0  0  0  0
  -29.4440  -12.6540   18.1450 C   0  0  0  0  0  2  0  0  0  0  0  0
  -27.9940  -12.4040   18.5990 C   0  0  0  0  0  2  0  0  0  0  0  0
  -27.5790  -13.3310   19.7720 C   0  0  0  0  0  3  0  0  0  0  0  0
  -28.6490  -13.4030   20.8810 C   0  0  0  0  0  2  0  0  0  0  0  0
  -29.8880  -13.8690   20.2440 N   0  0  0  0  0  0  0  0  0  0  0  0
  -31.6770  -15.1880   20.0360 O   0  0  0  0  0  0  0  0  0  0  0  0
  -29.6990  -16.3730   20.4360 N   0  0  0  0  0  0  0  0  0  0  0  0
  -28.7190  -16.1790   20.5850 H   0  0  0  0  0  0  0  0  0  0  0  0
  -25.2110  -13.8730   20.5610 C   0  0  0  0  0  0  0  0  0  0  0  0
  -24.1610  -13.0840   20.9380 C   0  0  0  0  0  0  0  0  0  0  0  0
  -24.6380  -11.7380   20.8860 C   0  0  0  0  0  0  0  0  0  0  0  0
  -26.2580  -13.0080   20.2930 N   0  0  0  0  0  0  0  0  0  0  0  0
  -25.9240  -11.7170   20.5570 N   0  0  0  0  0  0  0  0  0  0  0  0
  -23.9220  -10.4670   21.0720 C   0  0  0  0  0  0  0  0  0  0  0  0
  -24.3730   -9.4940   21.9910 C   0  0  0  0  0  3  0  0  0  0  0  0
  -23.6550   -8.2910   22.1670 C   0  0  0  0  0  3  0  0  0  0  0  0
  -22.4740   -8.0520   21.4240 C   0  0  0  0  0  0  0  0  0  0  0  0
  -22.0440   -9.0150   20.4960 C   0  0  0  0  0  3  0  0  0  0  0  0
  -22.7610  -10.2100   20.3170 C   0  0  0  0  0  3  0  0  0  0  0  0
  -21.7280   -6.9020   21.5110 O   0  0  0  0  0  0  0  0  0  0  0  0
  -21.6960   -6.1500   22.6580 C   0  0  0  0  0  0  0  0  0  0  0  0
  -21.2590   -6.6850   23.8890 C   0  0  0  0  0  3  0  0  0  0  0  0
  -21.1750   -5.8580   25.0260 C   0  0  0  0  0  3  0  0  0  0  0  0
  -21.5180   -4.4950   24.9340 C   0  0  0  0  0  0  0  0  0  0  0  0
  -21.9470   -3.9590   23.7080 C   0  0  0  0  0  3  0  0  0  0  0  0
  -22.0320   -4.7830   22.5720 C   0  0  0  0  0  0  0  0  0  0  0  0
  -22.4270   -4.2570   21.3880 F   0  0  0  0  0  0  0  0  0  0  0  0
  -21.4290   -3.6990   26.0250 F   0  0  0  0  0  0  0  0  0  0  0  0
  -22.7640  -13.5470   21.2300 C   0  0  0  0  0  0  0  0  0  0  0  0
  -22.0550  -12.8430   22.1060 N   0  0  0  0  0  0  0  0  0  0  0  0
  -22.3100  -14.5690   20.7160 O   0  0  0  0  0  0  0  0  0  0  0  0
  -22.4360  -12.0170   22.5430 H   0  0  0  0  0  0  0  0  0  0  0  0
  -21.1180  -13.1360   22.3430 H   0  0  0  0  0  0  0  0  0  0  0  0
  -25.3570  -15.2460   20.3950 N   0  0  0  0  0  0  0  0  0  0  0  0
  -24.5780  -15.8850   20.5180 H   0  0  0  0  0  0  0  0  0  0  0  0
  -26.1810  -15.6980   20.0230 H   0  0  0  0  0  0  0  0  0  0  0  0
  1  9  1  0
  1  7  1  0
  2  3  1  0
  5  4  1  0
  5  9  1  0
  6  4  1  0
  6  1  1  0
  6  8  1  0
  7 51  1  0
  7  2  1  0
  8 10  1  0
  8  3  1  0
 11 22  2  0
 12 10  1  0
 12 17  1  0
 13 21  1  0
 13 23  1  0
 14 20  1  0
 14 16  1  0
 15 21  1  0
 16 15  1  0
 17 16  2  0
 18 12  2  0
 19 18  1  0
 19 14  2  0
 20 13  1  0
 21 11  1  0
 23 25  2  0
 24 23  1  0
 26 24  1  0
 27 36  2  0
 27 32  1  0
 28 24  1  0
 28 32  1  0
 29 28  1  0
 30 31  1  0
 30 29  1  0
 31 27  1  0
 32 33  2  0
 33 34  1  0
 35 34  2  0
 36 35  1  0
 37 11  1  0
 37 38  1  0
 37 47  1  0
 38 41  1  0
 39 43  1  0
 39 38  1  0
 40 39  2  0
 43 42  1  0
 45 46  1  0
 45 43  1  0
 45 44  1  0
 47 50  1  1
 47 48  1  0
 49 47  1  0
 51 52  2  0
 52 61  1  0
 53 61  1  0
 54 59  1  0
 55 56  1  0
 55 54  1  0
 57 56  1  0
 57 66  1  0
 57 58  1  0
 59 53  1  0
 59 58  1  0
 60 53  2  0
 61 62  1  0
 63 64  2  0
 64 83  1  0
 65 64  1  0
 65 68  1  0
 66 67  1  0
 66 63  1  0
 67 65  2  0
 68 69  1  0
 69 70  2  0
 71 74  1  0
 71 70  1  0
 72 71  2  0
 73 72  1  0
 73 68  2  0
 74 75  1  0
 75 76  1  0
 76 77  2  0
 78 77  1  0
 78 82  1  0
 79 78  2  0
 80 75  2  0
 80 79  1  0
 81 80  1  0
 83 84  1  0
 84 87  1  0
 84 86  1  0
 85 83  2  0
 88 89  1  0
 88 63  1  0
 90 88  1  0
M  ISO  4   8 101  10 101  53 100  61 100
M  END
>  <TORSDO>  (81) 
F 18

>  <SCORE>  (81) 
-15.824

>  <name>  (81) 
80

>  <ligand_id>  (81) 
80

>  <original_smiles>  (81) 
[H]c1c([H])c([H])c2c(c1[H])C([H])([H])C([H])([H])C([H])([H])C2([H])N([H])C(=O)C1([H])N(C(=O)C([H])(N([H])C(=O)C([H])(N([H])C([H])([H])[H])C([H])([H])[H])C(C([H])([H])[H])(C([H])([H])[H])C([H])([H])[H])C([H])([H])c2c([H])c(OC3([H])C([H])([H])C([H])([H])C([H])(C([H])([H])C([H])([H])N([H])C(=O)N4C([H])([H])C([H])([H])C([H])([H])C([H])(n5nc(-c6c([H])c([H])c(Oc7c([H])c([H])c(F)c([H])c7F)c([H])c6[H])c(C(=O)N([H])[H])c5N([H])[H])C4([H])[H])C4=NC([H])([H])C([H])([H])C43[H])c([H])c([H])c2C1([H])[H]

>  <smiles>  (81) 
[H]c1c([H])c([H])c2c(c1[H])C([H])([H])C([H])([H])C([H])([H])C2([H])N([H])C(=O)C1([H])N(C(=O)C([H])(N([H])C(=O)C([H])(N([H])C([H])([H])[H])C([H])([H])[H])C(C([H])([H])[H])(C([H])([H])[H])C([H])([H])[H])C([H])([H])c2c([H])c(OC3([H])C([H])([H])C([H])([H])C([H])(C([H])([H])C([H])([H])N([H])C(=O)N4C([H])([H])C([H])([H])C([H])([H])C([H])(n5nc(-c6c([H])c([H])c(Oc7c([H])c([H])c(F)c([H])c7F)c([H])c6[H])c(C(=O)N([H])[H])c5N([H])[H])C4([H])[H])C4=NC([H])([H])C([H])([H])C43[H])c([H])c([H])c2C1([H])[H]

$$$$
81:0:0
     RDKit          3D

 92100  0  0  1  0  0  0  0  0999 V2000
  -28.3700  -22.2020   21.6930 C   0  0  0  0  0  2  0  0  0  0  0  0
  -29.2800  -22.1920   20.4450 C   0  0  0  0  0  3  0  0  0  0  0  0
  -27.0200  -22.6630   21.1170 C   0  0  0  0  0  3  0  0  0  0  0  0
  -28.6750  -23.6240   19.7400 C   0  0  0  0  0  3  0  0  0  0  0  0
  -25.8920  -23.0280   22.0900 C   0  0  0  0  0  1  0  0  0  0  0  0
  -27.3700  -23.8370   20.3440 N   0  0  0  0  0  0  0  0  0  0  0  0
  -26.6860  -24.0600   19.6320 H   0  0  0  0  0  0  0  0  0  0  0  0
  -29.1840  -20.7250   19.8040 N   0  0  0  0  0  4  0  0  0  0  0  0
  -29.4680  -20.8020   18.8380 H   0  0  0  0  0  0  0  0  0  0  0  0
  -28.1970  -20.5310   19.7940 H   0  0  0  0  0  0  0  0  0  0  0  0
  -29.9150  -19.4320   20.4110 C   0  0  0  0  0  3  0  0  0  0  0  0
  -29.6310  -17.7910   19.9990 C   0  0  0  0  0  3  0  0  0  0  0  0
  -30.9470  -15.3030   20.3310 C   0  0  0  0  0  0  0  0  0  0  0  0
  -30.8000  -12.9130   19.4720 C   0  0  0  0  0  2  0  0  0  0  0  0
  -29.9210  -12.8690   18.1980 C   0  0  0  0  0  2  0  0  0  0  0  0
  -28.4450  -12.6920   18.5800 C   0  0  0  0  0  2  0  0  0  0  0  0
  -28.0120  -13.6520   19.7080 C   0  0  0  0  0  3  0  0  0  0  0  0
  -29.0170  -13.6970   20.8740 C   0  0  0  0  0  2  0  0  0  0  0  0
  -30.3220  -14.0530   20.3100 N   0  0  0  0  0  0  0  0  0  0  0  0
  -32.1360  -15.3190   20.0070 O   0  0  0  0  0  0  0  0  0  0  0  0
  -30.3280  -16.5400   20.7020 N   0  0  0  0  0  0  0  0  0  0  0  0
  -30.9960  -16.9550   21.3560 H   0  0  0  0  0  0  0  0  0  0  0  0
  -25.6630  -14.2580   20.4750 C   0  0  0  0  0  0  0  0  0  0  0  0
  -24.5690  -13.5080   20.7880 C   0  0  0  0  0  0  0  0  0  0  0  0
  -25.0020  -12.1480   20.7350 C   0  0  0  0  0  0  0  0  0  0  0  0
  -26.6730  -13.3710   20.1830 N   0  0  0  0  0  0  0  0  0  0  0  0
  -26.2930  -12.0860   20.4240 N   0  0  0  0  0  0  0  0  0  0  0  0
  -24.2410  -10.9050   20.8910 C   0  0  0  0  0  0  0  0  0  0  0  0
  -24.6260   -9.9230   21.8310 C   0  0  0  0  0  3  0  0  0  0  0  0
  -23.8710   -8.7410   21.9810 C   0  0  0  0  0  3  0  0  0  0  0  0
  -22.7120   -8.5360   21.1950 C   0  0  0  0  0  0  0  0  0  0  0  0
  -22.3380   -9.5120   20.2470 C   0  0  0  0  0  3  0  0  0  0  0  0
  -23.0990  -10.6850   20.0960 C   0  0  0  0  0  3  0  0  0  0  0  0
  -21.9290   -7.4070   21.2620 O   0  0  0  0  0  0  0  0  0  0  0  0
  -21.8240   -6.6650   22.4120 C   0  0  0  0  0  0  0  0  0  0  0  0
  -21.3590   -7.2260   23.6240 C   0  0  0  0  0  3  0  0  0  0  0  0
  -21.1920   -6.4080   24.7600 C   0  0  0  0  0  3  0  0  0  0  0  0
  -21.4770   -5.0310   24.6890 C   0  0  0  0  0  0  0  0  0  0  0  0
  -21.9370   -4.4710   23.4820 C   0  0  0  0  0  3  0  0  0  0  0  0
  -22.1070   -5.2840   22.3510 C   0  0  0  0  0  0  0  0  0  0  0  0
  -22.5220   -4.7320   21.1840 F   0  0  0  0  0  0  0  0  0  0  0  0
  -21.3100   -4.2460   25.7790 F   0  0  0  0  0  0  0  0  0  0  0  0
  -23.1770  -14.0170   21.0190 C   0  0  0  0  0  0  0  0  0  0  0  0
  -22.3880  -13.3390   21.8380 N   0  0  0  0  0  0  0  0  0  0  0  0
  -22.7820  -15.0550   20.4840 O   0  0  0  0  0  0  0  0  0  0  0  0
  -22.7010  -12.4990   22.2940 H   0  0  0  0  0  0  0  0  0  0  0  0
  -21.4400  -13.6500   22.0120 H   0  0  0  0  0  0  0  0  0  0  0  0
  -25.8660  -15.6320   20.3810 N   0  0  0  0  0  0  0  0  0  0  0  0
  -26.6850  -16.0920   20.0170 H   0  0  0  0  0  0  0  0  0  0  0  0
  -25.2460  -16.2620   20.8710 H   0  0  0  0  0  0  0  0  0  0  0  0
  -29.3740  -25.1570   19.7310 C   0  0  0  0  0  2  0  0  0  0  0  0
  -28.9860  -26.5690   20.2810 O   0  0  0  0  0  0  0  0  0  0  0  0
  -24.8900  -31.8550   23.2880 C   0  0  0  0  0  0  0  0  0  0  0  0
  -27.8360  -27.4170   20.1510 C   0  0  0  0  0  0  0  0  0  0  0  0
  -23.8240  -30.4800   21.5470 C   0  0  0  0  0  3  0  0  0  0  0  0
  -25.4010  -29.0190   20.0980 C   0  0  0  0  0  0  0  0  0  0  0  0
  -26.3600  -30.8700   21.4760 C   0  0  0  0  0  2  0  0  0  0  0  0
  -26.5240  -29.5060   20.7810 C   0  0  0  0  0  0  0  0  0  0  0  0
  -27.7330  -28.7180   20.7900 C   0  0  0  0  0  3  0  0  0  0  0  0
  -26.6800  -27.0130   19.4490 C   0  0  0  0  0  3  0  0  0  0  0  0
  -25.4900  -27.7890   19.4130 C   0  0  0  0  0  3  0  0  0  0  0  0
  -24.1220  -29.8540   20.1550 C   0  0  0  0  0  2  0  0  0  0  0  0
  -25.0490  -31.0800   22.1710 N   0  0  0  0  0  0  0  0  0  0  0  0
  -23.7700  -32.0700   23.7750 O   0  0  0  0  0  0  0  0  0  0  0  0
  -23.1470  -29.4090   22.4330 C   0  0  0  0  0  0  0  0  0  0  0  0
  -21.8230  -29.2290   22.2770 N   0  0  0  0  0  0  0  0  0  0  0  0
  -23.8150  -28.7330   23.2170 O   0  0  0  0  0  0  0  0  0  0  0  0
  -21.3400  -29.8260   21.6180 H   0  0  0  0  0  0  0  0  0  0  0  0
  -18.4420  -28.0240   22.7260 C   0  0  0  0  0  0  0  0  0  0  0  0
  -21.0060  -28.2340   22.9780 C   0  0  0  0  0  3  0  0  0  0  0  0
  -21.0830  -26.8600   22.2730 C   0  0  0  0  0  2  0  0  0  0  0  0
  -19.9630  -26.6400   21.2510 C   0  0  0  0  0  2  0  0  0  0  0  0
  -18.5940  -26.7400   21.9280 C   0  0  0  0  0  2  0  0  0  0  0  0
  -19.5750  -28.7350   23.2050 C   0  0  0  0  0  0  0  0  0  0  0  0
  -19.3750  -29.9390   23.9150 C   0  0  0  0  0  3  0  0  0  0  0  0
  -18.0760  -30.4320   24.1480 C   0  0  0  0  0  3  0  0  0  0  0  0
  -16.9610  -29.7140   23.6860 C   0  0  0  0  0  3  0  0  0  0  0  0
  -17.1440  -28.5120   22.9780 C   0  0  0  0  0  3  0  0  0  0  0  0
  -26.1030  -32.5200   24.0030 C   0  0  0  0  0  3  0  0  0  0  0  0
  -26.5670  -31.7360   25.2890 C   0  0  1  0  0  0  0  0  0  0  0  0
  -25.4180  -31.4320   26.2800 C   0  0  0  0  0  1  0  0  0  0  0  0
  -27.2090  -30.3910   24.8860 C   0  0  0  0  0  1  0  0  0  0  0  0
  -27.6530  -32.5410   26.0350 C   0  0  0  0  0  1  0  0  0  0  0  0
  -25.7250  -33.8980   24.3510 N   0  0  0  0  0  0  0  0  0  0  0  0
  -26.0380  -34.9840   23.6330 C   0  0  0  0  0  0  0  0  0  0  0  0
  -26.7400  -34.9340   22.6210 O   0  0  0  0  0  0  0  0  0  0  0  0
  -25.0970  -34.0070   25.1290 H   0  0  0  0  0  0  0  0  0  0  0  0
  -24.2330  -36.7100   23.2930 C   0  0  0  0  0  1  0  0  0  0  0  0
  -25.4820  -36.3450   24.1080 C   0  0  0  0  0  3  0  0  0  0  0  0
  -27.5660  -37.3140   24.9780 C   0  0  0  0  0  1  0  0  0  0  0  0
  -26.4690  -37.4440   24.0250 N   0  0  0  0  0  0  0  0  0  0  0  0
  -26.0260  -38.3470   24.1770 H   0  0  0  0  0  0  0  0  0  0  0  0
  2  8  1  0
  2  1  1  0
  3  1  1  0
  3  5  1  0
  4 51  1  0
  4  6  1  0
  4  2  1  0
  6  3  1  0
  7  6  1  0
  8 11  1  0
  9  8  1  0
 10  8  1  0
 12 11  2  0
 12 21  1  0
 13 21  1  0
 14 19  1  0
 15 16  1  0
 15 14  1  0
 17 16  1  0
 17 26  1  0
 17 18  1  0
 19 13  1  0
 19 18  1  0
 20 13  2  0
 21 22  1  0
 23 24  2  0
 24 43  1  0
 25 24  1  0
 25 28  1  0
 26 27  1  0
 26 23  1  0
 27 25  2  0
 28 29  1  0
 29 30  2  0
 31 34  1  0
 31 30  1  0
 32 31  2  0
 33 32  1  0
 33 28  2  0
 34 35  1  0
 35 36  1  0
 36 37  2  0
 38 37  1  0
 38 42  1  0
 39 38  2  0
 40 35  2  0
 40 39  1  0
 41 40  1  0
 43 44  1  0
 44 47  1  0
 44 46  1  0
 45 43  2  0
 48 23  1  0
 48 50  1  0
 49 48  1  0
 51 52  1  0
 53 64  2  0
 54 52  1  0
 54 59  1  0
 55 63  1  0
 55 65  1  0
 56 62  1  0
 56 58  1  0
 57 63  1  0
 58 59  2  0
 58 57  1  0
 60 54  2  0
 61 60  1  0
 61 56  2  0
 62 55  1  0
 63 53  1  0
 65 67  2  0
 66 65  1  0
 68 66  1  0
 69 78  2  0
 69 74  1  0
 70 66  1  0
 70 74  1  0
 71 70  1  0
 72 73  1  0
 72 71  1  0
 73 69  1  0
 74 75  2  0
 75 76  1  0
 77 76  2  0
 78 77  1  0
 79 53  1  0
 79 84  1  0
 79 80  1  0
 80 83  1  1
 80 81  1  0
 82 80  1  0
 84 87  1  0
 85 89  1  0
 85 84  1  0
 86 85  2  0
 89 88  1  0
 91 89  1  0
 91 92  1  0
 91 90  1  0
M  ISO  4  13 100  21 100  51 101  52 101
M  END
>  <TORSDO>  (82) 
F 20

>  <SCORE>  (82) 
-13.294

>  <name>  (82) 
81

>  <ligand_id>  (82) 
81

>  <original_smiles>  (82) 
[H]c1c([H])c([H])c2c(c1[H])C([H])([H])C([H])([H])C([H])([H])C2([H])N([H])C(=O)C1([H])N(C(=O)C([H])(N([H])C(=O)C([H])(N([H])C([H])([H])[H])C([H])([H])[H])C(C([H])([H])[H])(C([H])([H])[H])C([H])([H])[H])C([H])([H])c2c([H])c(OC([H])([H])C3([H])N([H])C([H])(C([H])([H])[H])C([H])([H])C3([H])[N+]([H])([H])C([H])([H])C([H])([H])N([H])C(=O)N3C([H])([H])C([H])([H])C([H])([H])C([H])(n4nc(-c5c([H])c([H])c(Oc6c([H])c([H])c(F)c([H])c6F)c([H])c5[H])c(C(=O)N([H])[H])c4N([H])[H])C3([H])[H])c([H])c([H])c2C1([H])[H]

>  <smiles>  (82) 
[H]c1c([H])c([H])c2c(c1[H])C([H])([H])C([H])([H])C([H])([H])C2([H])N([H])C(=O)C1([H])N(C(=O)C([H])(N([H])C(=O)C([H])(N([H])C([H])([H])[H])C([H])([H])[H])C(C([H])([H])[H])(C([H])([H])[H])C([H])([H])[H])C([H])([H])c2c([H])c(OC([H])([H])C3([H])N([H])C([H])(C([H])([H])[H])C([H])([H])C3([H])[N+]([H])([H])C([H])([H])C([H])([H])N([H])C(=O)N3C([H])([H])C([H])([H])C([H])([H])C([H])(n4nc(-c5c([H])c([H])c(Oc6c([H])c([H])c(F)c([H])c6F)c([H])c5[H])c(C(=O)N([H])[H])c4N([H])[H])C3([H])[H])c([H])c([H])c2C1([H])[H]

$$$$
82:0:0
     RDKit          3D

 97 98  0  0  1  0  0  0  0  0999 V2000
  -27.9030  -14.9870   21.2570 C   0  0  0  0  0 15  0  0  0  0  0  0
  -26.2990  -14.7350   18.2450 C   0  0  0  0  0 15  0  0  0  0  0  0
  -27.0840  -11.6980   19.5430 C   0  0  0  0  0  2  0  0  0  0  0  0
  -27.2250  -16.0470   19.6730 C   0  0  0  0  0 15  0  0  0  0  0  0
  -27.9640  -12.8900   21.4540 C   0  0  0  0  0  1  0  0  0  0  0  0
  -26.1710  -12.8090   18.2450 N   0  0  0  0  0  1  0  0  0  0  0  0
  -26.0990  -12.3960   17.3200 H   0  0  0  0  0  0  0  0  0  0  0  0
  -27.1790  -18.0260   19.5510 C   0  0  0  0  0  2  0  0  0  0  0  0
  -27.4830  -19.4420   20.2540 N   0  0  0  0  0  0  0  0  0  0  0  0
  -26.7720  -18.2820   18.4190 O   0  0  0  0  0  1  0  0  0  0  0  0
  -27.7310  -19.2500   21.2170 H   0  0  0  0  0  0  0  0  0  0  0  0
  -27.7730  -21.2660   19.9490 C   0  0  0  0  0  1  0  0  0  0  0  0
  -27.4100  -23.1980   20.5360 C   0  0  0  0  0  1  0  0  0  0  0  0
  -27.9250  -24.9820   20.4990 O   0  0  0  0  0  0  0  0  0  0  0  0
  -24.7610  -31.7150   23.2130 C   0  0  0  0  0  0  0  0  0  0  0  0
  -27.1860  -26.3830   20.4350 C   0  0  0  0  0  0  0  0  0  0  0  0
  -23.6520  -30.2910   21.5620 C   0  0  0  0  0  3  0  0  0  0  0  0
  -25.1220  -28.6140   20.2190 C   0  0  0  0  0  0  0  0  0  0  0  0
  -26.2400  -30.3580   21.5720 C   0  0  0  0  0  2  0  0  0  0  0  0
  -26.2920  -28.8990   20.9320 C   0  0  0  0  0  0  0  0  0  0  0  0
  -27.3310  -27.8060   21.0020 C   0  0  0  0  0  3  0  0  0  0  0  0
  -26.0400  -26.3810   19.6250 C   0  0  0  0  0  3  0  0  0  0  0  0
  -25.0540  -27.3970   19.5330 C   0  0  0  0  0  3  0  0  0  0  0  0
  -23.9500  -29.6030   20.2030 C   0  0  0  0  0  2  0  0  0  0  0  0
  -24.9130  -30.8290   22.1650 N   0  0  0  0  0  0  0  0  0  0  0  0
  -23.6420  -32.0220   23.6620 O   0  0  0  0  0  0  0  0  0  0  0  0
  -22.9030  -29.3140   22.5100 C   0  0  0  0  0  0  0  0  0  0  0  0
  -21.5780  -29.1470   22.3320 N   0  0  0  0  0  0  0  0  0  0  0  0
  -23.5260  -28.7110   23.3870 O   0  0  0  0  0  0  0  0  0  0  0  0
  -21.1230  -29.6850   21.6090 H   0  0  0  0  0  0  0  0  0  0  0  0
  -18.1830  -27.9090   22.7280 C   0  0  0  0  0  0  0  0  0  0  0  0
  -20.7280  -28.2150   23.0860 C   0  0  0  0  0  3  0  0  0  0  0  0
  -20.8670  -26.7720   22.5450 C   0  0  0  0  0  2  0  0  0  0  0  0
  -19.8120  -26.4180   21.4920 C   0  0  0  0  0  2  0  0  0  0  0  0
  -18.4030  -26.5540   22.0770 C   0  0  0  0  0  2  0  0  0  0  0  0
  -19.2740  -28.6960   23.1870 C   0  0  0  0  0  0  0  0  0  0  0  0
  -19.0100  -29.9590   23.7590 C   0  0  0  0  0  3  0  0  0  0  0  0
  -17.6910  -30.4380   23.8730 C   0  0  0  0  0  3  0  0  0  0  0  0
  -16.6160  -29.6500   23.4260 C   0  0  0  0  0  3  0  0  0  0  0  0
  -16.8620  -28.3870   22.8600 C   0  0  0  0  0  3  0  0  0  0  0  0
  -25.9830  -32.3980   23.8980 C   0  0  0  0  0  3  0  0  0  0  0  0
  -25.6310  -33.8080   24.1700 N   0  0  0  0  0  0  0  0  0  0  0  0
  -25.9830  -34.8570   23.4150 C   0  0  0  0  0  0  0  0  0  0  0  0
  -26.6950  -34.7420   22.4140 O   0  0  0  0  0  0  0  0  0  0  0  0
  -25.0010  -33.9690   24.9430 H   0  0  0  0  0  0  0  0  0  0  0  0
  -24.2450  -36.6340   22.9840 C   0  0  0  0  0  1  0  0  0  0  0  0
  -25.4710  -36.2550   23.8310 C   0  0  0  0  0  3  0  0  0  0  0  0
  -27.5750  -37.1890   24.6910 C   0  0  0  0  0  1  0  0  0  0  0  0
  -26.4950  -37.3190   23.7180 N   0  0  0  0  0  0  0  0  0  0  0  0
  -26.0740  -38.2370   23.8310 H   0  0  0  0  0  0  0  0  0  0  0  0
  -26.4080  -31.6920   25.2450 C   0  0  1  0  0  0  0  0  0  0  0  0
  -25.2420  -31.4950   26.2450 C   0  0  0  0  0  1  0  0  0  0  0  0
  -27.0230  -30.3030   24.9770 C   0  0  0  0  0  1  0  0  0  0  0  0
  -27.5050  -32.5250   25.9480 C   0  0  0  0  0  1  0  0  0  0  0  0
  -29.0580  -12.4120   22.3740 N   0  0  0  0  0  4  0  0  0  0  0  0
  -29.6060  -11.7020   21.9190 H   0  0  0  0  0  0  0  0  0  0  0  0
  -28.5840  -11.9430   23.1310 H   0  0  0  0  0  0  0  0  0  0  0  0
  -29.9560  -13.4430   22.9920 C   0  0  0  0  0  2  0  0  0  0  0  0
  -31.0870  -14.0870   22.1040 C   0  0  0  0  0  2  0  0  0  0  0  0
  -31.2210  -13.4590   19.6730 C   0  0  0  0  0  0  0  0  0  0  0  0
  -30.8430  -11.7230   17.9390 C   0  0  0  0  0  2  0  0  0  0  0  0
  -29.6600  -12.0720   17.0470 C   0  0  0  0  0  2  0  0  0  0  0  0
  -28.3220  -12.1690   17.7390 C   0  0  0  0  0  2  0  0  0  0  0  0
  -28.0960  -12.9150   19.2750 C   0  0  0  0  0  3  0  0  0  0  0  0
  -29.4230  -11.9430   19.6690 C   0  0  0  0  0  2  0  0  0  0  0  0
  -30.6370  -12.3770   19.2000 N   0  0  0  0  0  0  0  0  0  0  0  0
  -31.7410  -14.2970   18.9510 O   0  0  0  0  0  0  0  0  0  0  0  0
  -31.4940  -13.2640   20.9720 N   0  0  0  0  0  0  0  0  0  0  0  0
  -31.6210  -12.2900   21.1990 H   0  0  0  0  0  0  0  0  0  0  0  0
  -24.9240  -13.6630   20.7150 C   0  0  0  0  0  0  0  0  0  0  0  0
  -23.9280  -12.7490   20.9990 C   0  0  0  0  0  0  0  0  0  0  0  0
  -24.3990  -11.4430   20.9530 C   0  0  0  0  0  3  0  0  0  0  0  0
  -26.1150  -13.0090   20.5460 N   0  0  0  0  0  0  0  0  0  0  0  0
  -25.5290  -11.8970   21.3740 N   0  0  0  0  0  2  0  0  0  0  0  0
  -23.8190  -10.0490   21.1340 C   0  0  0  0  0  0  0  0  0  0  0  0
  -24.3570   -8.9970   21.9350 C   0  0  0  0  0  3  0  0  0  0  0  0
  -23.6450   -7.7780   22.1400 C   0  0  0  0  0  3  0  0  0  0  0  0
  -22.3750   -7.5780   21.5430 C   0  0  0  0  0  0  0  0  0  0  0  0
  -21.8850   -8.5780   20.6870 C   0  0  0  0  0  3  0  0  0  0  0  0
  -22.5990   -9.7750   20.4780 C   0  0  0  0  0  3  0  0  0  0  0  0
  -21.5900   -6.4520   21.6840 O   0  0  0  0  0  0  0  0  0  0  0  0
  -21.5960   -5.6740   22.8180 C   0  0  0  0  0  0  0  0  0  0  0  0
  -21.3350   -6.2090   24.0990 C   0  0  0  0  0  3  0  0  0  0  0  0
  -21.2920   -5.3590   25.2240 C   0  0  0  0  0  3  0  0  0  0  0  0
  -21.5010   -3.9740   25.0730 C   0  0  0  0  0  0  0  0  0  0  0  0
  -21.7430   -3.4370   23.7980 C   0  0  0  0  0  3  0  0  0  0  0  0
  -21.7830   -4.2830   22.6750 C   0  0  0  0  0  0  0  0  0  0  0  0
  -21.9910   -3.7510   21.4460 F   0  0  0  0  0  0  0  0  0  0  0  0
  -21.4660   -3.1600   26.1540 F   0  0  0  0  0  0  0  0  0  0  0  0
  -22.6130  -13.1220   21.4800 C   0  0  0  0  0  0  0  0  0  0  0  0
  -22.1090  -12.3700   22.4500 N   0  0  0  0  0  0  0  0  0  0  0  0
  -22.1040  -14.1580   21.0820 O   0  0  0  0  0  0  0  0  0  0  0  0
  -22.6050  -11.5570   22.7870 H   0  0  0  0  0  0  0  0  0  0  0  0
  -21.2210  -12.6110   22.8670 H   0  0  0  0  0  0  0  0  0  0  0  0
  -24.8510  -15.0240   20.6680 N   0  0  0  0  0  0  0  0  0  0  0  0
  -23.9840  -15.5270   20.8190 H   0  0  0  0  0  0  0  0  0  0  0  0
  -25.6590  -15.6130   20.5350 H   0  0  0  0  0  0  0  0  0  0  0  0
  3 73  1  0
  5 55  1  0
  7  6  1  0
  8  9  1  0
  9 11  1  0
 10  8  1  0
 12  9  1  0
 14 13  1  0
 15 26  2  0
 16 14  1  0
 16 21  1  0
 17 25  1  0
 17 27  1  0
 18 20  1  0
 19 25  1  0
 20 21  2  0
 20 19  1  0
 22 16  2  0
 23 22  1  0
 23 18  2  0
 24 18  1  0
 24 17  1  0
 25 15  1  0
 27 29  2  0
 28 27  1  0
 30 28  1  0
 31 40  2  0
 31 36  1  0
 32 28  1  0
 32 36  1  0
 33 32  1  0
 34 35  1  0
 34 33  1  0
 35 31  1  0
 36 37  2  0
 37 38  1  0
 39 38  2  0
 40 39  1  0
 41 15  1  0
 41 42  1  0
 41 51  1  0
 42 45  1  0
 43 47  1  0
 43 42  1  0
 44 43  2  0
 47 46  1  0
 49 47  1  0
 49 50  1  0
 49 48  1  0
 51 54  1  1
 51 52  1  0
 53 51  1  0
 55 58  1  0
 55 57  1  0
 56 55  1  0
 59 58  1  0
 60 68  1  0
 61 66  1  0
 62 63  1  0
 62 61  1  0
 63 64  1  0
 64  3  1  0
 64 65  1  0
 66 65  1  0
 66 60  1  0
 67 60  2  0
 68 69  1  0
 68 59  1  0
 70 71  2  0
 71 90  1  0
 72 71  1  0
 72 75  1  0
 72 74  1  0
 73 70  1  0
 73 74  1  0
 75 76  1  0
 76 77  2  0
 78 81  1  0
 78 77  1  0
 79 78  2  0
 80 79  1  0
 80 75  2  0
 81 82  1  0
 82 83  1  0
 83 84  2  0
 85 84  1  0
 85 89  1  0
 86 85  2  0
 87 82  2  0
 87 86  1  0
 88 87  1  0
 90 91  1  0
 91 93  1  0
 91 94  1  0
 92 90  2  0
 95 70  1  0
 95 96  1  0
 97 95  1  0
M  ISO  4  13 101  14 101  60 100  68 100
M  END
>  <TORSDO>  (83) 
F 22

>  <SCORE>  (83) 
-4.930

>  <name>  (83) 
82

>  <ligand_id>  (83) 
82

>  <original_smiles>  (83) 
[H]c1c([H])c([H])c2c(c1[H])C([H])([H])C([H])([H])C([H])([H])C2([H])N([H])C(=O)C1([H])N(C(=O)C([H])(N([H])C(=O)C([H])(N([H])C([H])([H])[H])C([H])([H])[H])C(C([H])([H])[H])(C([H])([H])[H])C([H])([H])[H])C([H])([H])c2c([H])c(OC([H])([H])C([H])([H])N([H])C(=O)C3([H])C([H])([H])N([H])C([H])([H])C([H])([N+]([H])([H])C([H])([H])C([H])([H])N([H])C(=O)N4C([H])([H])C([H])([H])C([H])([H])C([H])(n5nc(-c6c([H])c([H])c(Oc7c([H])c([H])c(F)c([H])c7F)c([H])c6[H])c(C(=O)N([H])[H])c5N([H])[H])C4([H])[H])C3([H])[H])c([H])c([H])c2C1([H])[H]

>  <smiles>  (83) 
[H]c1c([H])c([H])c2c(c1[H])C([H])([H])C([H])([H])C([H])([H])C2([H])N([H])C(=O)C1([H])N(C(=O)C([H])(N([H])C(=O)C([H])(N([H])C([H])([H])[H])C([H])([H])[H])C(C([H])([H])[H])(C([H])([H])[H])C([H])([H])[H])C([H])([H])c2c([H])c(OC([H])([H])C([H])([H])N([H])C(=O)C3([H])C([H])([H])N([H])C([H])([H])C([H])([N+]([H])([H])C([H])([H])C([H])([H])N([H])C(=O)N4C([H])([H])C([H])([H])C([H])([H])C([H])(n5nc(-c6c([H])c([H])c(Oc7c([H])c([H])c(F)c([H])c7F)c([H])c6[H])c(C(=O)N([H])[H])c5N([H])[H])C4([H])[H])C3([H])[H])c([H])c([H])c2C1([H])[H]

$$$$
83:0:0
     RDKit          3D

 96105  0  0  1  0  0  0  0  0999 V2000
  -32.3780  -23.7700   19.8200 C   0  0  0  0  0  2  0  0  0  0  0  0
  -31.6190  -22.9650   18.7650 C   0  0  0  0  0  2  0  0  0  0  0  0
  -30.9180  -22.1150   20.8360 C   0  0  0  0  0  2  0  0  0  0  0  0
  -31.6670  -23.4300   21.1390 C   0  0  0  0  0  3  0  0  0  0  0  0
  -31.2850  -21.7320   19.4690 N   0  0  0  0  0  0  0  0  0  0  0  0
  -30.7630  -24.5140   21.6250 N   0  0  0  0  0  4  0  0  0  0  0  0
  -31.3390  -25.2870   21.9270 H   0  0  0  0  0  0  0  0  0  0  0  0
  -30.2950  -24.1740   22.4510 H   0  0  0  0  0  0  0  0  0  0  0  0
  -29.7530  -25.0110   20.6560 C   0  0  0  0  0  2  0  0  0  0  0  0
  -28.9360  -26.2120   21.1570 C   0  0  0  0  0  2  0  0  0  0  0  0
  -28.3640  -26.7420   19.9710 O   0  0  0  0  0  0  0  0  0  0  0  0
  -24.6030  -31.8770   23.2250 C   0  0  0  0  0  0  0  0  0  0  0  0
  -27.2090  -27.4600   20.1060 C   0  0  0  0  0  0  0  0  0  0  0  0
  -23.3760  -30.4740   21.5990 C   0  0  0  0  0  3  0  0  0  0  0  0
  -24.8110  -28.9320   20.1650 C   0  0  0  0  0  0  0  0  0  0  0  0
  -25.8960  -30.8360   21.3680 C   0  0  0  0  0  2  0  0  0  0  0  0
  -25.9740  -29.4620   20.7410 C   0  0  0  0  0  0  0  0  0  0  0  0
  -27.1770  -28.7270   20.7240 C   0  0  0  0  0  3  0  0  0  0  0  0
  -26.0380  -26.9360   19.5230 C   0  0  0  0  0  3  0  0  0  0  0  0
  -24.8340  -27.6620   19.5620 C   0  0  0  0  0  3  0  0  0  0  0  0
  -23.5680  -29.7900   20.2190 C   0  0  0  0  0  2  0  0  0  0  0  0
  -24.6440  -31.0770   22.1220 N   0  0  0  0  0  0  0  0  0  0  0  0
  -23.5280  -32.1500   23.7790 O   0  0  0  0  0  0  0  0  0  0  0  0
  -22.7380  -29.4530   22.5660 C   0  0  0  0  0  0  0  0  0  0  0  0
  -21.4130  -29.2670   22.4480 N   0  0  0  0  0  0  0  0  0  0  0  0
  -23.4300  -28.8300   23.3760 O   0  0  0  0  0  0  0  0  0  0  0  0
  -20.9190  -29.8120   21.7540 H   0  0  0  0  0  0  0  0  0  0  0  0
  -18.0480  -28.0630   22.9700 C   0  0  0  0  0  0  0  0  0  0  0  0
  -20.6050  -28.3310   23.2280 C   0  0  0  0  0  3  0  0  0  0  0  0
  -20.7110  -26.8990   22.6550 C   0  0  0  0  0  2  0  0  0  0  0  0
  -19.6040  -26.5670   21.6490 C   0  0  0  0  0  2  0  0  0  0  0  0
  -18.2250  -26.7110   22.2990 C   0  0  0  0  0  2  0  0  0  0  0  0
  -19.1660  -28.8310   23.3900 C   0  0  0  0  0  0  0  0  0  0  0  0
  -18.9470  -30.0980   23.9750 C   0  0  0  0  0  3  0  0  0  0  0  0
  -17.6420  -30.5960   24.1440 C   0  0  0  0  0  3  0  0  0  0  0  0
  -16.5380  -29.8260   23.7410 C   0  0  0  0  0  3  0  0  0  0  0  0
  -16.7420  -28.5610   23.1600 C   0  0  0  0  0  3  0  0  0  0  0  0
  -25.9000  -32.5030   23.8270 C   0  0  0  0  0  3  0  0  0  0  0  0
  -25.5950  -33.8960   24.1790 N   0  0  0  0  0  0  0  0  0  0  0  0
  -25.9100  -34.9560   23.4220 C   0  0  0  0  0  0  0  0  0  0  0  0
  -26.5600  -34.8640   22.3770 O   0  0  0  0  0  0  0  0  0  0  0  0
  -25.0220  -34.0410   24.9960 H   0  0  0  0  0  0  0  0  0  0  0  0
  -24.1680  -36.7420   23.1100 C   0  0  0  0  0  1  0  0  0  0  0  0
  -25.4230  -36.3370   23.8990 C   0  0  0  0  0  3  0  0  0  0  0  0
  -27.5700  -37.2200   24.7000 C   0  0  0  0  0  1  0  0  0  0  0  0
  -26.4490  -37.3950   23.7790 N   0  0  0  0  0  0  0  0  0  0  0  0
  -26.0440  -38.3120   23.9460 H   0  0  0  0  0  0  0  0  0  0  0  0
  -26.4480  -31.7150   25.0800 C   0  0  1  0  0  0  0  0  0  0  0  0
  -25.3820  -31.4570   26.1690 C   0  0  0  0  0  1  0  0  0  0  0  0
  -27.0260  -30.3460   24.6530 C   0  0  0  0  0  1  0  0  0  0  0  0
  -27.6120  -32.5040   25.7240 C   0  0  0  0  0  1  0  0  0  0  0  0
  -30.2170  -20.9770   18.8130 C   0  0  0  0  0  2  0  0  0  0  0  0
  -31.0610  -18.6050   18.8490 C   0  0  0  0  0  3  0  0  0  0  0  0
  -29.1470  -19.1440   20.2470 C   0  0  0  0  0  3  0  0  0  0  0  0
  -31.0130  -17.2710   19.2940 C   0  0  0  0  0  3  0  0  0  0  0  0
  -29.0940  -17.8020   20.6870 C   0  0  0  0  0  3  0  0  0  0  0  0
  -30.1310  -19.5490   19.3230 C   0  0  0  0  0  0  0  0  0  0  0  0
  -30.0340  -16.8520   20.2290 C   0  0  0  0  0  0  0  0  0  0  0  0
  -30.6710  -14.4400   20.4020 C   0  0  0  0  0  0  0  0  0  0  0  0
  -30.3390  -12.2620   19.3300 C   0  0  0  0  0  2  0  0  0  0  0  0
  -29.3940  -12.4850   18.1310 C   0  0  0  0  0  2  0  0  0  0  0  0
  -27.9230  -12.3620   18.5720 C   0  0  0  0  0  2  0  0  0  0  0  0
  -27.6020  -13.2220   19.8250 C   0  0  0  0  0  3  0  0  0  0  0  0
  -28.6640  -13.0130   20.9310 C   0  0  0  0  0  2  0  0  0  0  0  0
  -29.9920  -13.2670   20.3470 N   0  0  0  0  0  0  0  0  0  0  0  0
  -31.8430  -14.5530   20.0330 O   0  0  0  0  0  0  0  0  0  0  0  0
  -29.9120  -15.5080   20.7070 N   0  0  0  0  0  0  0  0  0  0  0  0
  -29.0360  -15.2750   21.1470 H   0  0  0  0  0  0  0  0  0  0  0  0
  -25.2100  -13.8480   20.5440 C   0  0  0  0  0  0  0  0  0  0  0  0
  -24.1420  -13.0800   20.9190 C   0  0  0  0  0  0  0  0  0  0  0  0
  -24.5980  -11.7280   20.8900 C   0  0  0  0  0  0  0  0  0  0  0  0
  -26.2510  -12.9610   20.3130 N   0  0  0  0  0  0  0  0  0  0  0  0
  -25.8850  -11.6810   20.5800 N   0  0  0  0  0  0  0  0  0  0  0  0
  -23.8690  -10.4680   21.0830 C   0  0  0  0  0  0  0  0  0  0  0  0
  -24.3190   -9.4840   21.9900 C   0  0  0  0  0  3  0  0  0  0  0  0
  -23.5890   -8.2880   22.1720 C   0  0  0  0  0  3  0  0  0  0  0  0
  -22.3950   -8.0690   21.4440 C   0  0  0  0  0  0  0  0  0  0  0  0
  -21.9640   -9.0420   20.5250 C   0  0  0  0  0  3  0  0  0  0  0  0
  -22.6940  -10.2280   20.3430 C   0  0  0  0  0  3  0  0  0  0  0  0
  -21.6350   -6.9280   21.5380 O   0  0  0  0  0  0  0  0  0  0  0  0
  -21.6350   -6.1550   22.6690 C   0  0  0  0  0  0  0  0  0  0  0  0
  -21.2970   -6.6860   23.9340 C   0  0  0  0  0  3  0  0  0  0  0  0
  -21.2380   -5.8390   25.0590 C   0  0  0  0  0  3  0  0  0  0  0  0
  -21.5120   -4.4650   24.9220 C   0  0  0  0  0  0  0  0  0  0  0  0
  -21.8440   -3.9350   23.6630 C   0  0  0  0  0  3  0  0  0  0  0  0
  -21.9020   -4.7760   22.5400 C   0  0  0  0  0  0  0  0  0  0  0  0
  -22.2020   -4.2580   21.3250 F   0  0  0  0  0  0  0  0  0  0  0  0
  -21.4490   -3.6510   26.0000 F   0  0  0  0  0  0  0  0  0  0  0  0
  -22.7470  -13.5630   21.1960 C   0  0  0  0  0  0  0  0  0  0  0  0
  -22.0210  -12.8710   22.0680 N   0  0  0  0  0  0  0  0  0  0  0  0
  -22.3090  -14.5900   20.6790 O   0  0  0  0  0  0  0  0  0  0  0  0
  -22.3900  -12.0390   22.5040 H   0  0  0  0  0  0  0  0  0  0  0  0
  -21.0880  -13.1820   22.3060 H   0  0  0  0  0  0  0  0  0  0  0  0
  -25.3800  -15.2160   20.3600 N   0  0  0  0  0  0  0  0  0  0  0  0
  -24.6160  -15.8710   20.4750 H   0  0  0  0  0  0  0  0  0  0  0  0
  -26.2230  -15.6490   20.0050 H   0  0  0  0  0  0  0  0  0  0  0  0
  1  4  1  0
  2  5  1  0
  2  1  1  0
  3  4  1  0
  4  6  1  0
  5  3  1  0
  6  7  1  0
  6  8  1  0
  9 10  1  0
  9  6  1  0
 11 13  1  0
 11 10  1  0
 12 23  2  0
 13 18  1  0
 14 22  1  0
 14 24  1  0
 15 21  1  0
 15 17  1  0
 16 22  1  0
 17 16  1  0
 18 17  2  0
 19 20  1  0
 19 13  2  0
 20 15  2  0
 21 14  1  0
 22 12  1  0
 24 26  2  0
 25 24  1  0
 27 25  1  0
 28 37  2  0
 28 33  1  0
 29 25  1  0
 29 33  1  0
 30 29  1  0
 31 32  1  0
 31 30  1  0
 32 28  1  0
 33 34  2  0
 34 35  1  0
 36 35  2  0
 37 36  1  0
 38 12  1  0
 38 39  1  0
 38 48  1  0
 39 42  1  0
 40 44  1  0
 40 39  1  0
 41 40  2  0
 44 43  1  0
 46 44  1  0
 46 47  1  0
 46 45  1  0
 48 51  1  1
 48 49  1  0
 50 48  1  0
 52 57  1  0
 52  5  1  0
 53 55  2  0
 53 57  1  0
 54 56  1  0
 55 58  1  0
 57 54  2  0
 58 56  2  0
 58 67  1  0
 59 67  1  0
 60 65  1  0
 61 62  1  0
 61 60  1  0
 63 62  1  0
 63 72  1  0
 63 64  1  0
 65 59  1  0
 65 64  1  0
 66 59  2  0
 67 68  1  0
 69 70  2  0
 70 89  1  0
 71 70  1  0
 71 74  1  0
 72 69  1  0
 72 73  1  0
 73 71  2  0
 74 75  1  0
 75 76  2  0
 77 80  1  0
 77 76  1  0
 78 77  2  0
 79 78  1  0
 79 74  2  0
 80 81  1  0
 81 82  1  0
 82 83  2  0
 84 83  1  0
 84 88  1  0
 85 84  2  0
 86 81  2  0
 86 85  1  0
 87 86  1  0
 89 90  1  0
 90 93  1  0
 90 92  1  0
 91 89  2  0
 94 95  1  0
 94 69  1  0
 96 94  1  0
M  ISO  4  10 101  11 101  59 100  67 100
M  END
>  <TORSDO>  (84) 
F 21

>  <SCORE>  (84) 
-13.476

>  <name>  (84) 
83

>  <ligand_id>  (84) 
83

>  <original_smiles>  (84) 
[H]c1c([H])c([H])c2c(c1[H])C([H])([H])C([H])([H])C([H])([H])C2([H])N([H])C(=O)C1([H])N(C(=O)C([H])(N([H])C(=O)C([H])(N([H])C([H])([H])[H])C([H])([H])[H])C(C([H])([H])[H])(C([H])([H])[H])C([H])([H])[H])C([H])([H])c2c([H])c(OC([H])([H])C([H])([H])[N+]([H])([H])C3([H])C([H])([H])N(C([H])([H])c4c([H])c([H])c(N([H])C(=O)N5C([H])([H])C([H])([H])C([H])([H])C([H])(n6nc(-c7c([H])c([H])c(Oc8c([H])c([H])c(F)c([H])c8F)c([H])c7[H])c(C(=O)N([H])[H])c6N([H])[H])C5([H])[H])c([H])c4[H])C([H])([H])C3([H])[H])c([H])c([H])c2C1([H])[H]

>  <smiles>  (84) 
[H]c1c([H])c([H])c2c(c1[H])C([H])([H])C([H])([H])C([H])([H])C2([H])N([H])C(=O)C1([H])N(C(=O)C([H])(N([H])C(=O)C([H])(N([H])C([H])([H])[H])C([H])([H])[H])C(C([H])([H])[H])(C([H])([H])[H])C([H])([H])[H])C([H])([H])c2c([H])c(OC([H])([H])C([H])([H])[N+]([H])([H])C3([H])C([H])([H])N(C([H])([H])c4c([H])c([H])c(N([H])C(=O)N5C([H])([H])C([H])([H])C([H])([H])C([H])(n6nc(-c7c([H])c([H])c(Oc8c([H])c([H])c(F)c([H])c8F)c([H])c7[H])c(C(=O)N([H])[H])c6N([H])[H])C5([H])[H])c([H])c4[H])C([H])([H])C3([H])[H])c([H])c([H])c2C1([H])[H]

$$$$
84:0:0
     RDKit          3D

101110  0  0  1  0  0  0  0  0999 V2000
  -31.1840  -20.3950   21.4130 C   0  0  0  0  0  3  0  0  0  0  0  0
  -31.3160  -19.2650   23.8090 C   0  0  0  0  0  2  0  0  0  0  0  0
  -31.0340  -17.8550   24.3380 C   0  0  0  0  0  2  0  0  0  0  0  0
  -30.8610  -19.1720   22.3450 C   0  0  0  0  0  3  0  0  0  0  0  0
  -31.2540  -17.7240   21.9390 C   0  0  0  0  0  3  0  0  0  0  0  0
  -31.2300  -16.9400   23.1960 N   0  0  0  0  0  4  0  0  0  0  0  0
  -30.4870  -16.2610   23.1720 H   0  0  0  0  0  0  0  0  0  0  0  0
  -32.0990  -16.4420   23.3020 H   0  0  0  0  0  0  0  0  0  0  0  0
  -30.3510  -17.1030   20.8460 C   0  0  0  0  0  2  0  0  0  0  0  0
  -30.9170  -14.7320   20.2440 C   0  0  0  0  0  0  0  0  0  0  0  0
  -30.6590  -12.5540   19.1160 C   0  0  0  0  0  2  0  0  0  0  0  0
  -29.6790  -12.7050   17.9330 C   0  0  0  0  0  2  0  0  0  0  0  0
  -28.2150  -12.5590   18.3980 C   0  0  0  0  0  2  0  0  0  0  0  0
  -27.8950  -13.4300   19.6410 C   0  0  0  0  0  3  0  0  0  0  0  0
  -28.9700  -13.2150   20.7310 C   0  0  0  0  0  2  0  0  0  0  0  0
  -30.2860  -13.5350   20.1430 N   0  0  0  0  0  0  0  0  0  0  0  0
  -31.9770  -15.0090   19.6750 O   0  0  0  0  0  0  0  0  0  0  0  0
  -30.2180  -15.6480   20.9310 N   0  0  0  0  0  0  0  0  0  0  0  0
  -29.3560  -15.2940   21.3210 H   0  0  0  0  0  0  0  0  0  0  0  0
  -25.5210  -14.0530   20.4260 C   0  0  0  0  0  0  0  0  0  0  0  0
  -24.4570  -13.2840   20.8140 C   0  0  0  0  0  0  0  0  0  0  0  0
  -24.9030  -11.9290   20.7430 C   0  0  0  0  0  0  0  0  0  0  0  0
  -26.5500  -13.1660   20.1490 N   0  0  0  0  0  0  0  0  0  0  0  0
  -26.1820  -11.8840   20.3940 N   0  0  0  0  0  0  0  0  0  0  0  0
  -24.1730  -10.6700   20.9310 C   0  0  0  0  0  0  0  0  0  0  0  0
  -24.5750   -9.7220   21.8980 C   0  0  0  0  0  3  0  0  0  0  0  0
  -23.8470   -8.5250   22.0700 C   0  0  0  0  0  3  0  0  0  0  0  0
  -22.7050   -8.2680   21.2770 C   0  0  0  0  0  0  0  0  0  0  0  0
  -22.3230   -9.2050   20.3010 C   0  0  0  0  0  3  0  0  0  0  0  0
  -23.0510  -10.3930   20.1250 C   0  0  0  0  0  3  0  0  0  0  0  0
  -21.9520   -7.1220   21.3580 O   0  0  0  0  0  0  0  0  0  0  0  0
  -21.7920   -6.4480   22.5420 C   0  0  0  0  0  0  0  0  0  0  0  0
  -21.2260   -7.0630   23.6800 C   0  0  0  0  0  3  0  0  0  0  0  0
  -21.0170   -6.3130   24.8550 C   0  0  0  0  0  3  0  0  0  0  0  0
  -21.3630   -4.9500   24.8910 C   0  0  0  0  0  0  0  0  0  0  0  0
  -21.9220   -4.3340   23.7570 C   0  0  0  0  0  3  0  0  0  0  0  0
  -22.1330   -5.0800   22.5850 C   0  0  0  0  0  0  0  0  0  0  0  0
  -22.6520   -4.4780   21.4890 F   0  0  0  0  0  0  0  0  0  0  0  0
  -21.1550   -4.2270   26.0160 F   0  0  0  0  0  0  0  0  0  0  0  0
  -23.0730  -13.7680   21.1390 C   0  0  0  0  0  0  0  0  0  0  0  0
  -22.3700  -13.0660   22.0220 N   0  0  0  0  0  0  0  0  0  0  0  0
  -22.6230  -14.8020   20.6460 O   0  0  0  0  0  0  0  0  0  0  0  0
  -22.7440  -12.2280   22.4420 H   0  0  0  0  0  0  0  0  0  0  0  0
  -21.4430  -13.3720   22.2810 H   0  0  0  0  0  0  0  0  0  0  0  0
  -25.6950  -15.4250   20.2680 N   0  0  0  0  0  0  0  0  0  0  0  0
  -24.9360  -16.0850   20.4030 H   0  0  0  0  0  0  0  0  0  0  0  0
  -26.5320  -15.8570   19.9010 H   0  0  0  0  0  0  0  0  0  0  0  0
  -32.5570  -20.9560   21.5520 N   0  0  0  0  0  4  0  0  0  0  0  0
  -32.3530  -21.9420   21.6030 H   0  0  0  0  0  0  0  0  0  0  0  0
  -32.9680  -20.7270   22.4430 H   0  0  0  0  0  0  0  0  0  0  0  0
  -34.5010  -19.6120   19.0170 C   0  0  0  0  0  2  0  0  0  0  0  0
  -33.1580  -20.3590   19.0630 C   0  0  0  0  0  2  0  0  0  0  0  0
  -34.5740  -19.7110   20.5490 C   0  0  0  0  0  2  0  0  0  0  0  0
  -33.5690  -20.8690   20.4590 C   0  0  0  0  0  3  0  0  0  0  0  0
  -30.1790  -21.5400   21.7320 C   0  0  0  0  0  2  0  0  0  0  0  0
  -30.3130  -22.7230   20.8700 N   0  0  0  0  0  0  0  0  0  0  0  0
  -31.0910  -23.3060   21.1650 H   0  0  0  0  0  0  0  0  0  0  0  0
  -29.1130  -23.5510   21.0250 C   0  0  0  0  0  2  0  0  0  0  0  0
  -29.1890  -24.8470   20.1900 C   0  0  0  0  0  2  0  0  0  0  0  0
  -27.9910  -25.7720   20.4760 C   0  0  0  0  0  2  0  0  0  0  0  0
  -28.0670  -27.0110   19.7610 O   0  0  0  0  0  0  0  0  0  0  0  0
  -24.4720  -32.0180   23.3130 C   0  0  0  0  0  0  0  0  0  0  0  0
  -26.9150  -27.7580   19.8540 C   0  0  0  0  0  0  0  0  0  0  0  0
  -23.1690  -30.7170   21.6610 C   0  0  0  0  0  3  0  0  0  0  0  0
  -24.5340  -29.2580   20.0750 C   0  0  0  0  0  0  0  0  0  0  0  0
  -25.6810  -31.0810   21.3460 C   0  0  0  0  0  2  0  0  0  0  0  0
  -25.7240  -29.7480   20.6280 C   0  0  0  0  0  0  0  0  0  0  0  0
  -26.9210  -29.0060   20.5150 C   0  0  0  0  0  3  0  0  0  0  0  0
  -25.7120  -27.2830   19.2900 C   0  0  0  0  0  3  0  0  0  0  0  0
  -24.5210  -28.0230   19.4040 C   0  0  0  0  0  3  0  0  0  0  0  0
  -23.2980  -30.1140   20.2360 C   0  0  0  0  0  2  0  0  0  0  0  0
  -24.4600  -31.2840   22.1640 N   0  0  0  0  0  0  0  0  0  0  0  0
  -23.4240  -32.2620   23.9270 O   0  0  0  0  0  0  0  0  0  0  0  0
  -22.5660  -29.6440   22.5970 C   0  0  0  0  0  0  0  0  0  0  0  0
  -21.2480  -29.4190   22.4790 N   0  0  0  0  0  0  0  0  0  0  0  0
  -23.2820  -29.0170   23.3830 O   0  0  0  0  0  0  0  0  0  0  0  0
  -20.7310  -29.9740   21.8120 H   0  0  0  0  0  0  0  0  0  0  0  0
  -17.9370  -28.0470   22.9260 C   0  0  0  0  0  0  0  0  0  0  0  0
  -20.4740  -28.4300   23.2300 C   0  0  0  0  0  3  0  0  0  0  0  0
  -20.6580  -27.0150   22.6370 C   0  0  0  0  0  2  0  0  0  0  0  0
  -19.5860  -26.6510   21.6050 C   0  0  0  0  0  2  0  0  0  0  0  0
  -18.1900  -26.7180   22.2340 C   0  0  0  0  0  2  0  0  0  0  0  0
  -19.0110  -28.8590   23.3790 C   0  0  0  0  0  0  0  0  0  0  0  0
  -18.7230  -30.1020   23.9830 C   0  0  0  0  0  3  0  0  0  0  0  0
  -17.3940  -30.5370   24.1360 C   0  0  0  0  0  3  0  0  0  0  0  0
  -16.3340  -29.7230   23.7000 C   0  0  0  0  0  3  0  0  0  0  0  0
  -16.6060  -28.4790   23.1030 C   0  0  0  0  0  3  0  0  0  0  0  0
  -25.7940  -32.6070   23.8960 C   0  0  0  0  0  3  0  0  0  0  0  0
  -26.3240  -31.8190   25.1550 C   0  0  1  0  0  0  0  0  0  0  0  0
  -25.2480  -31.5900   26.2420 C   0  0  0  0  0  1  0  0  0  0  0  0
  -26.8780  -30.4380   24.7370 C   0  0  0  0  0  1  0  0  0  0  0  0
  -27.4990  -32.5910   25.8000 C   0  0  0  0  0  1  0  0  0  0  0  0
  -25.5420  -34.0140   24.2320 N   0  0  0  0  0  0  0  0  0  0  0  0
  -25.8980  -35.0540   23.4670 C   0  0  0  0  0  0  0  0  0  0  0  0
  -26.5460  -34.9270   22.4230 O   0  0  0  0  0  0  0  0  0  0  0  0
  -24.9710  -34.1900   25.0460 H   0  0  0  0  0  0  0  0  0  0  0  0
  -24.2200  -36.8960   23.1410 C   0  0  0  0  0  1  0  0  0  0  0  0
  -25.4650  -36.4570   23.9300 C   0  0  0  0  0  3  0  0  0  0  0  0
  -27.6420  -37.2750   24.7150 C   0  0  0  0  0  1  0  0  0  0  0  0
  -26.5290  -37.4770   23.7910 N   0  0  0  0  0  0  0  0  0  0  0  0
  -26.1570  -38.4110   23.9420 H   0  0  0  0  0  0  0  0  0  0  0  0
  1 48  1  0
  1 55  1  0
  2  3  1  0
  4  1  1  0
  4  2  1  0
  5  9  1  0
  5  4  1  0
  5  6  1  0
  6  8  1  0
  6  3  1  0
  7  6  1  0
  9 18  1  0
 10 18  1  0
 11 16  1  0
 12 13  1  0
 12 11  1  0
 14 13  1  0
 14 23  1  0
 14 15  1  0
 16 10  1  0
 16 15  1  0
 17 10  2  0
 18 19  1  0
 20 21  2  0
 21 40  1  0
 22 21  1  0
 22 25  1  0
 23 24  1  0
 23 20  1  0
 24 22  2  0
 25 26  1  0
 26 27  2  0
 28 31  1  0
 28 27  1  0
 29 28  2  0
 30 29  1  0
 30 25  2  0
 31 32  1  0
 32 37  2  0
 32 33  1  0
 33 34  2  0
 34 35  1  0
 35 39  1  0
 36 35  2  0
 37 36  1  0
 38 37  1  0
 40 41  1  0
 41 44  1  0
 41 43  1  0
 42 40  2  0
 45 46  1  0
 45 20  1  0
 47 45  1  0
 48 49  1  0
 48 50  1  0
 51 52  1  0
 51 53  1  0
 52 54  1  0
 54 53  1  0
 54 48  1  0
 56 58  1  0
 56 57  1  0
 56 55  1  0
 59 60  1  0
 59 58  1  0
 61 63  1  0
 61 60  1  0
 62 73  2  0
 63 68  1  0
 64 72  1  0
 64 74  1  0
 65 71  1  0
 65 67  1  0
 66 72  1  0
 67 66  1  0
 68 67  2  0
 69 70  1  0
 69 63  2  0
 70 65  2  0
 71 64  1  0
 72 62  1  0
 74 76  2  0
 75 74  1  0
 77 75  1  0
 78 87  2  0
 78 83  1  0
 79 75  1  0
 79 83  1  0
 80 79  1  0
 81 82  1  0
 81 80  1  0
 82 78  1  0
 83 84  2  0
 84 85  1  0
 86 85  2  0
 87 86  1  0
 88 62  1  0
 88 93  1  0
 88 89  1  0
 89 92  1  1
 89 90  1  0
 91 89  1  0
 93 96  1  0
 94 98  1  0
 94 93  1  0
 95 94  2  0
 98 97  1  0
100 98  1  0
100101  1  0
100 99  1  0
M  ISO  4  10 100  18 100  60 101  61 101
M  END
>  <TORSDO>  (85) 
F 25

>  <SCORE>  (85) 
-10.270

>  <name>  (85) 
84

>  <ligand_id>  (85) 
84

>  <original_smiles>  (85) 
[H]c1c([H])c([H])c2c(c1[H])C([H])([H])C([H])([H])C([H])([H])C2([H])N([H])C(=O)C1([H])N(C(=O)C([H])(N([H])C(=O)C([H])(N([H])C([H])([H])[H])C([H])([H])[H])C(C([H])([H])[H])(C([H])([H])[H])C([H])([H])[H])C([H])([H])c2c([H])c(OC([H])([H])C([H])([H])C([H])([H])N([H])C([H])([H])C([H])(C3([H])C([H])([H])C([H])([H])[N+]([H])([H])C3([H])C([H])([H])N([H])C(=O)N3C([H])([H])C([H])([H])C([H])([H])C([H])(n4nc(-c5c([H])c([H])c(Oc6c([H])c([H])c(F)c([H])c6F)c([H])c5[H])c(C(=O)N([H])[H])c4N([H])[H])C3([H])[H])[N+]([H])([H])C3([H])C([H])([H])C([H])([H])C3([H])[H])c([H])c([H])c2C1([H])[H]

>  <smiles>  (85) 
[H]c1c([H])c([H])c2c(c1[H])C([H])([H])C([H])([H])C([H])([H])C2([H])N([H])C(=O)C1([H])N(C(=O)C([H])(N([H])C(=O)C([H])(N([H])C([H])([H])[H])C([H])([H])[H])C(C([H])([H])[H])(C([H])([H])[H])C([H])([H])[H])C([H])([H])c2c([H])c(OC([H])([H])C([H])([H])C([H])([H])N([H])C([H])([H])C([H])(C3([H])C([H])([H])C([H])([H])[N+]([H])([H])C3([H])C([H])([H])N([H])C(=O)N3C([H])([H])C([H])([H])C([H])([H])C([H])(n4nc(-c5c([H])c([H])c(Oc6c([H])c([H])c(F)c([H])c6F)c([H])c5[H])c(C(=O)N([H])[H])c4N([H])[H])C3([H])[H])[N+]([H])([H])C3([H])C([H])([H])C([H])([H])C3([H])[H])c([H])c([H])c2C1([H])[H]

$$$$
85:0:0
     RDKit          3D

 93101  0  0  1  0  0  0  0  0999 V2000
  -28.5690  -21.4700   19.8150 C   0  0  0  0  0  2  0  0  0  0  0  0
  -28.0980  -22.7100   20.5320 N   0  0  0  0  0  4  0  0  0  0  0  0
  -28.5780  -22.7480   21.4160 H   0  0  0  0  0  0  0  0  0  0  0  0
  -27.1180  -22.6040   20.7430 H   0  0  0  0  0  0  0  0  0  0  0  0
  -28.2880  -24.0430   19.8420 C   0  0  0  0  0  2  0  0  0  0  0  0
  -28.0950  -25.2900   20.7890 C   0  0  0  0  0  2  0  0  0  0  0  0
  -28.2970  -26.6330   20.2350 O   0  0  0  0  0  0  0  0  0  0  0  0
  -24.5970  -31.9860   23.2660 C   0  0  0  0  0  0  0  0  0  0  0  0
  -27.1790  -27.4540   20.2150 C   0  0  0  0  0  0  0  0  0  0  0  0
  -23.3810  -30.5900   21.6280 C   0  0  0  0  0  3  0  0  0  0  0  0
  -24.8190  -29.0320   20.2040 C   0  0  0  0  0  0  0  0  0  0  0  0
  -25.9140  -30.9100   21.4330 C   0  0  0  0  0  2  0  0  0  0  0  0
  -25.9870  -29.5340   20.7930 C   0  0  0  0  0  0  0  0  0  0  0  0
  -27.1770  -28.7550   20.7860 C   0  0  0  0  0  3  0  0  0  0  0  0
  -25.9950  -26.9830   19.6110 C   0  0  0  0  0  3  0  0  0  0  0  0
  -24.8220  -27.7600   19.6060 C   0  0  0  0  0  3  0  0  0  0  0  0
  -23.5850  -29.9060   20.2500 C   0  0  0  0  0  2  0  0  0  0  0  0
  -24.6500  -31.1790   22.1670 N   0  0  0  0  0  0  0  0  0  0  0  0
  -23.5150  -32.2680   23.8040 O   0  0  0  0  0  0  0  0  0  0  0  0
  -22.7150  -29.5810   22.5920 C   0  0  0  0  0  0  0  0  0  0  0  0
  -21.3920  -29.3970   22.4550 N   0  0  0  0  0  0  0  0  0  0  0  0
  -23.3880  -28.9620   23.4200 O   0  0  0  0  0  0  0  0  0  0  0  0
  -20.9090  -29.9400   21.7530 H   0  0  0  0  0  0  0  0  0  0  0  0
  -18.0150  -28.1970   22.9190 C   0  0  0  0  0  0  0  0  0  0  0  0
  -20.5670  -28.4640   23.2220 C   0  0  0  0  0  3  0  0  0  0  0  0
  -20.6820  -27.0270   22.6650 C   0  0  0  0  0  2  0  0  0  0  0  0
  -19.5960  -26.6930   21.6340 C   0  0  0  0  0  2  0  0  0  0  0  0
  -18.2040  -26.8410   22.2560 C   0  0  0  0  0  2  0  0  0  0  0  0
  -19.1260  -28.9660   23.3570 C   0  0  0  0  0  0  0  0  0  0  0  0
  -18.8970  -30.2320   23.9400 C   0  0  0  0  0  3  0  0  0  0  0  0
  -17.5900  -30.7290   24.0910 C   0  0  0  0  0  3  0  0  0  0  0  0
  -16.4920  -29.9580   23.6690 C   0  0  0  0  0  3  0  0  0  0  0  0
  -16.7070  -28.6950   23.0870 C   0  0  0  0  0  3  0  0  0  0  0  0
  -25.8850  -32.6090   23.8850 C   0  0  0  0  0  3  0  0  0  0  0  0
  -25.5800  -34.0020   24.2330 N   0  0  0  0  0  0  0  0  0  0  0  0
  -25.9030  -35.0630   23.4790 C   0  0  0  0  0  0  0  0  0  0  0  0
  -26.5600  -34.9690   22.4390 O   0  0  0  0  0  0  0  0  0  0  0  0
  -25.0010  -34.1500   25.0450 H   0  0  0  0  0  0  0  0  0  0  0  0
  -24.1700  -36.8580   23.1650 C   0  0  0  0  0  1  0  0  0  0  0  0
  -25.4220  -36.4460   23.9570 C   0  0  0  0  0  3  0  0  0  0  0  0
  -27.5660  -37.3270   24.7690 C   0  0  0  0  0  1  0  0  0  0  0  0
  -26.4520  -37.5020   23.8390 N   0  0  0  0  0  0  0  0  0  0  0  0
  -26.0470  -38.4220   23.9950 H   0  0  0  0  0  0  0  0  0  0  0  0
  -26.4100  -31.8220   25.1490 C   0  0  1  0  0  0  0  0  0  0  0  0
  -25.3210  -31.5550   26.2130 C   0  0  0  0  0  1  0  0  0  0  0  0
  -27.0100  -30.4570   24.7320 C   0  0  0  0  0  1  0  0  0  0  0  0
  -27.5510  -32.6190   25.8260 C   0  0  0  0  0  1  0  0  0  0  0  0
  -28.3790  -20.1240   20.6230 C   0  0  0  0  0  2  0  0  0  0  0  0
  -28.8930  -18.7530   20.0050 C   0  0  0  0  0  2  0  0  0  0  0  0
  -32.6300  -19.3920   20.5710 C   0  0  0  0  0  3  0  0  0  0  0  0
  -33.1610  -18.1200   20.8040 C   0  0  0  0  0  3  0  0  0  0  0  0
  -31.2610  -19.5290   20.3010 C   0  0  0  0  0  3  0  0  0  0  0  0
  -32.3300  -16.9950   20.7140 C   0  0  0  0  0  3  0  0  0  0  0  0
  -30.3850  -18.4150   20.2400 C   0  0  0  0  0  0  0  0  0  0  0  0
  -30.9510  -17.0890   20.3760 C   0  0  0  0  0  0  0  0  0  0  0  0
  -30.8580  -14.6730   19.7860 C   0  0  0  0  0  0  0  0  0  0  0  0
  -30.5400  -12.3640   18.9580 C   0  0  0  0  0  2  0  0  0  0  0  0
  -29.5470  -12.3710   17.7800 C   0  0  0  0  0  2  0  0  0  0  0  0
  -28.1000  -12.2410   18.2900 C   0  0  0  0  0  2  0  0  0  0  0  0
  -27.7890  -13.2190   19.4560 C   0  0  0  0  0  3  0  0  0  0  0  0
  -28.9040  -13.2240   20.5250 C   0  0  0  0  0  2  0  0  0  0  0  0
  -30.1760  -13.4910   19.8410 N   0  0  0  0  0  0  0  0  0  0  0  0
  -31.9600  -14.7280   19.2340 O   0  0  0  0  0  0  0  0  0  0  0  0
  -30.2500  -15.8270   20.1990 N   0  0  0  0  0  0  0  0  0  0  0  0
  -29.2750  -15.7840   20.4580 H   0  0  0  0  0  0  0  0  0  0  0  0
  -25.4640  -13.8420   20.3550 C   0  0  0  0  0  0  0  0  0  0  0  0
  -24.4160  -13.0800   20.7930 C   0  0  0  0  0  0  0  0  0  0  0  0
  -24.8560  -11.7230   20.7210 C   0  0  0  0  0  0  0  0  0  0  0  0
  -26.4760  -12.9500   20.0390 N   0  0  0  0  0  0  0  0  0  0  0  0
  -26.1190  -11.6690   20.3170 N   0  0  0  0  0  0  0  0  0  0  0  0
  -24.1270  -10.4690   20.9550 C   0  0  0  0  0  0  0  0  0  0  0  0
  -24.5390   -9.5470   21.9420 C   0  0  0  0  0  3  0  0  0  0  0  0
  -23.8100   -8.3580   22.1620 C   0  0  0  0  0  3  0  0  0  0  0  0
  -22.6540   -8.0840   21.3940 C   0  0  0  0  0  0  0  0  0  0  0  0
  -22.2600   -8.9930   20.3960 C   0  0  0  0  0  3  0  0  0  0  0  0
  -22.9910  -10.1730   20.1750 C   0  0  0  0  0  3  0  0  0  0  0  0
  -21.8980   -6.9440   21.5210 O   0  0  0  0  0  0  0  0  0  0  0  0
  -21.7470   -6.3080   22.7290 C   0  0  0  0  0  0  0  0  0  0  0  0
  -21.1920   -6.9620   23.8510 C   0  0  0  0  0  3  0  0  0  0  0  0
  -20.9910   -6.2530   25.0500 C   0  0  0  0  0  3  0  0  0  0  0  0
  -21.3350   -4.8900   25.1300 C   0  0  0  0  0  0  0  0  0  0  0  0
  -21.8830   -4.2360   24.0120 C   0  0  0  0  0  3  0  0  0  0  0  0
  -22.0860   -4.9430   22.8140 C   0  0  0  0  0  0  0  0  0  0  0  0
  -22.5960   -4.3040   21.7350 F   0  0  0  0  0  0  0  0  0  0  0  0
  -21.1350   -4.2050   26.2790 F   0  0  0  0  0  0  0  0  0  0  0  0
  -23.0500  -13.5760   21.1700 C   0  0  0  0  0  0  0  0  0  0  0  0
  -22.3760  -12.8840   22.0830 N   0  0  0  0  0  0  0  0  0  0  0  0
  -22.5910  -14.6100   20.6860 O   0  0  0  0  0  0  0  0  0  0  0  0
  -22.7610  -12.0470   22.4910 H   0  0  0  0  0  0  0  0  0  0  0  0
  -21.4620  -13.2000   22.3760 H   0  0  0  0  0  0  0  0  0  0  0  0
  -25.6370  -15.2120   20.1780 N   0  0  0  0  0  0  0  0  0  0  0  0
  -24.8910  -15.8770   20.3490 H   0  0  0  0  0  0  0  0  0  0  0  0
  -26.4670  -15.6390   19.7830 H   0  0  0  0  0  0  0  0  0  0  0  0
  1  2  1  0
  1 48  1  0
  2  4  1  0
  2  3  1  0
  5  2  1  0
  5  6  1  0
  7  6  1  0
  8 19  2  0
  9  7  1  0
  9 14  1  0
 10 18  1  0
 10 20  1  0
 11 17  1  0
 11 13  1  0
 12 18  1  0
 13 12  1  0
 14 13  2  0
 15  9  2  0
 16 15  1  0
 16 11  2  0
 17 10  1  0
 18  8  1  0
 20 22  2  0
 21 20  1  0
 23 21  1  0
 24 33  2  0
 24 29  1  0
 25 21  1  0
 25 29  1  0
 26 25  1  0
 27 28  1  0
 27 26  1  0
 28 24  1  0
 29 30  2  0
 30 31  1  0
 32 31  2  0
 33 32  1  0
 34  8  1  0
 34 35  1  0
 34 44  1  0
 35 38  1  0
 36 40  1  0
 36 35  1  0
 37 36  2  0
 40 39  1  0
 42 40  1  0
 42 43  1  0
 42 41  1  0
 44 47  1  1
 44 45  1  0
 46 44  1  0
 49 54  1  0
 49 48  1  0
 50 51  1  0
 52 50  2  0
 53 51  2  0
 54 52  1  0
 54 55  2  0
 55 53  1  0
 56 62  1  0
 56 64  1  0
 57 62  1  0
 58 59  1  0
 58 57  1  0
 60 59  1  0
 60 69  1  0
 60 61  1  0
 62 61  1  0
 63 56  2  0
 64 55  1  0
 64 65  1  0
 66 67  2  0
 67 86  1  0
 68 67  1  0
 68 71  1  0
 69 70  1  0
 69 66  1  0
 70 68  2  0
 71 72  1  0
 72 73  2  0
 74 77  1  0
 74 73  1  0
 75 74  2  0
 76 75  1  0
 76 71  2  0
 77 78  1  0
 78 83  2  0
 78 79  1  0
 79 80  2  0
 80 81  1  0
 81 85  1  0
 82 81  2  0
 83 82  1  0
 84 83  1  0
 86 87  1  0
 87 90  1  0
 87 89  1  0
 88 86  2  0
 91 92  1  0
 91 66  1  0
 93 91  1  0
M  ISO  4   6 101   7 101  56 100  64 100
M  END
>  <TORSDO>  (86) 
F 22

>  <SCORE>  (86) 
-12.514

>  <name>  (86) 
85

>  <ligand_id>  (86) 
85

>  <original_smiles>  (86) 
[H]c1c([H])c([H])c(C([H])([H])C([H])([H])C([H])([H])[N+]([H])([H])C([H])([H])C([H])([H])Oc2c([H])c([H])c3c(c2[H])C([H])([H])N(C(=O)C([H])(N([H])C(=O)C([H])(N([H])C([H])([H])[H])C([H])([H])[H])C(C([H])([H])[H])(C([H])([H])[H])C([H])([H])[H])C([H])(C(=O)N([H])C2([H])c4c([H])c([H])c([H])c([H])c4C([H])([H])C([H])([H])C2([H])[H])C3([H])[H])c(N([H])C(=O)N2C([H])([H])C([H])([H])C([H])([H])C([H])(n3nc(-c4c([H])c([H])c(Oc5c([H])c([H])c(F)c([H])c5F)c([H])c4[H])c(C(=O)N([H])[H])c3N([H])[H])C2([H])[H])c1[H]

>  <smiles>  (86) 
[H]c1c([H])c([H])c(C([H])([H])C([H])([H])C([H])([H])[N+]([H])([H])C([H])([H])C([H])([H])Oc2c([H])c([H])c3c(c2[H])C([H])([H])N(C(=O)C([H])(N([H])C(=O)C([H])(N([H])C([H])([H])[H])C([H])([H])[H])C(C([H])([H])[H])(C([H])([H])[H])C([H])([H])[H])C([H])(C(=O)N([H])C2([H])c4c([H])c([H])c([H])c([H])c4C([H])([H])C([H])([H])C2([H])[H])C3([H])[H])c(N([H])C(=O)N2C([H])([H])C([H])([H])C([H])([H])C([H])(n3nc(-c4c([H])c([H])c(Oc5c([H])c([H])c(F)c([H])c5F)c([H])c4[H])c(C(=O)N([H])[H])c3N([H])[H])C2([H])[H])c1[H]

$$$$
86:0:0
     RDKit          3D

 92101  0  0  1  0  0  0  0  0999 V2000
  -30.6110  -14.7780   20.4840 C   0  0  0  0  0  0  0  0  0  0  0  0
  -30.3920  -12.4940   19.4730 C   0  0  0  0  0  2  0  0  0  0  0  0
  -29.4840  -12.5610   18.2250 C   0  0  0  0  0  2  0  0  0  0  0  0
  -28.0080  -12.3860   18.6290 C   0  0  0  0  0  2  0  0  0  0  0  0
  -27.6110  -13.2850   19.8300 C   0  0  0  0  0  3  0  0  0  0  0  0
  -28.6470  -13.2200   20.9730 C   0  0  0  0  0  2  0  0  0  0  0  0
  -29.9560  -13.5640   20.4040 N   0  0  0  0  0  0  0  0  0  0  0  0
  -31.7800  -14.8550   20.0870 O   0  0  0  0  0  0  0  0  0  0  0  0
  -28.0830  -18.1520   18.6200 C   0  0  0  0  0  3  0  0  0  0  0  0
  -28.7240  -17.0330   19.1870 C   0  0  0  0  0  3  0  0  0  0  0  0
  -28.2740  -19.4360   19.1670 C   0  0  0  0  0  0  0  0  0  0  0  0
  -29.1460  -19.5880   20.2610 C   0  0  0  0  0  0  0  0  0  0  0  0
  -29.5310  -17.1600   20.3360 C   0  0  0  0  0  0  0  0  0  0  0  0
  -27.5510  -20.6420   18.5650 C   0  0  0  0  0  2  0  0  0  0  0  0
  -29.3870  -21.0650   20.8150 C   0  0  0  0  0  2  0  0  0  0  0  0
  -27.4800  -21.8810   19.4900 C   0  0  0  0  0  2  0  0  0  0  0  0
  -29.7240  -18.4520   20.8390 N   0  0  0  0  0  0  0  0  0  0  0  0
  -29.9720  -15.9020   20.9870 N   0  0  0  0  0  0  0  0  0  0  0  0
  -28.8310  -22.2410   19.9870 N   0  0  1  0  0  4  0  0  0  0  0  0
  -30.2680  -16.0580   21.9380 H   0  0  0  0  0  0  0  0  0  0  0  0
  -29.3930  -22.2140   19.1480 H   0  0  0  0  0  0  0  0  0  0  0  0
  -25.2120  -13.8980   20.4930 C   0  0  0  0  0  0  0  0  0  0  0  0
  -24.1360  -13.1310   20.8480 C   0  0  0  0  0  0  0  0  0  0  0  0
  -24.5960  -11.7780   20.8480 C   0  0  0  0  0  0  0  0  0  0  0  0
  -26.2580  -13.0100   20.2950 N   0  0  0  0  0  0  0  0  0  0  0  0
  -25.8930  -11.7320   20.5710 N   0  0  0  0  0  0  0  0  0  0  0  0
  -23.8630  -10.5200   21.0340 C   0  0  0  0  0  0  0  0  0  0  0  0
  -24.2790   -9.5560   21.9780 C   0  0  0  0  0  3  0  0  0  0  0  0
  -23.5440   -8.3650   22.1570 C   0  0  0  0  0  3  0  0  0  0  0  0
  -22.3790   -8.1270   21.3890 C   0  0  0  0  0  0  0  0  0  0  0  0
  -21.9830   -9.0790   20.4340 C   0  0  0  0  0  3  0  0  0  0  0  0
  -22.7180  -10.2620   20.2540 C   0  0  0  0  0  3  0  0  0  0  0  0
  -21.6180   -6.9860   21.4740 O   0  0  0  0  0  0  0  0  0  0  0  0
  -21.5550   -6.2490   22.6290 C   0  0  0  0  0  0  0  0  0  0  0  0
  -21.1220   -6.8120   23.8490 C   0  0  0  0  0  3  0  0  0  0  0  0
  -21.0060   -6.0020   24.9960 C   0  0  0  0  0  3  0  0  0  0  0  0
  -21.3110   -4.6290   24.9230 C   0  0  0  0  0  0  0  0  0  0  0  0
  -21.7360   -4.0660   23.7070 C   0  0  0  0  0  3  0  0  0  0  0  0
  -21.8550   -4.8730   22.5620 C   0  0  0  0  0  0  0  0  0  0  0  0
  -22.2440   -4.3210   21.3880 F   0  0  0  0  0  0  0  0  0  0  0  0
  -21.1920   -3.8490   26.0230 F   0  0  0  0  0  0  0  0  0  0  0  0
  -22.7350  -13.6150   21.0810 C   0  0  0  0  0  0  0  0  0  0  0  0
  -21.9870  -12.9320   21.9420 N   0  0  0  0  0  0  0  0  0  0  0  0
  -22.3130  -14.6310   20.5330 O   0  0  0  0  0  0  0  0  0  0  0  0
  -22.3380  -12.1050   22.4030 H   0  0  0  0  0  0  0  0  0  0  0  0
  -21.0470  -13.2450   22.1450 H   0  0  0  0  0  0  0  0  0  0  0  0
  -25.3880  -15.2660   20.3030 N   0  0  0  0  0  0  0  0  0  0  0  0
  -24.6260  -15.9290   20.3850 H   0  0  0  0  0  0  0  0  0  0  0  0
  -26.2550  -15.6970   20.0090 H   0  0  0  0  0  0  0  0  0  0  0  0
  -28.9950  -23.6950   20.5260 C   0  0  0  0  0  3  0  0  0  0  0  0
  -28.1290  -24.9200   19.8940 C   0  0  0  0  0  3  0  0  0  0  0  0
  -28.3280  -26.3780   20.2480 O   0  0  0  0  0  0  0  0  0  0  0  0
  -24.6230  -31.8710   23.2440 C   0  0  0  0  0  0  0  0  0  0  0  0
  -27.2380  -27.2840   20.1650 C   0  0  0  0  0  0  0  0  0  0  0  0
  -23.4290  -30.4850   21.5910 C   0  0  0  0  0  3  0  0  0  0  0  0
  -24.8850  -28.9470   20.1540 C   0  0  0  0  0  0  0  0  0  0  0  0
  -25.9740  -30.7870   21.4300 C   0  0  0  0  0  2  0  0  0  0  0  0
  -26.0530  -29.4100   20.7700 C   0  0  0  0  0  0  0  0  0  0  0  0
  -27.2280  -28.5890   20.7700 C   0  0  0  0  0  3  0  0  0  0  0  0
  -26.0510  -26.9090   19.4930 C   0  0  0  0  0  3  0  0  0  0  0  0
  -24.8900  -27.7060   19.5020 C   0  0  0  0  0  3  0  0  0  0  0  0
  -23.6520  -29.8250   20.2060 C   0  0  0  0  0  2  0  0  0  0  0  0
  -24.6950  -31.0660   22.1440 N   0  0  0  0  0  0  0  0  0  0  0  0
  -23.5350  -32.1420   23.7730 O   0  0  0  0  0  0  0  0  0  0  0  0
  -22.7620  -29.4600   22.5420 C   0  0  0  0  0  0  0  0  0  0  0  0
  -21.4340  -29.2920   22.4190 N   0  0  0  0  0  0  0  0  0  0  0  0
  -23.4390  -28.8200   23.3520 O   0  0  0  0  0  0  0  0  0  0  0  0
  -20.9460  -29.8670   21.7460 H   0  0  0  0  0  0  0  0  0  0  0  0
  -18.0540  -28.1000   22.9130 C   0  0  0  0  0  0  0  0  0  0  0  0
  -20.6140  -28.3460   23.1780 C   0  0  0  0  0  3  0  0  0  0  0  0
  -20.7090  -26.9200   22.5870 C   0  0  0  0  0  2  0  0  0  0  0  0
  -19.6030  -26.6110   21.5740 C   0  0  0  0  0  2  0  0  0  0  0  0
  -18.2230  -26.7560   22.2230 C   0  0  0  0  0  2  0  0  0  0  0  0
  -19.1760  -28.8530   23.3490 C   0  0  0  0  0  0  0  0  0  0  0  0
  -18.9640  -30.1090   23.9540 C   0  0  0  0  0  3  0  0  0  0  0  0
  -17.6600  -30.6140   24.1280 C   0  0  0  0  0  3  0  0  0  0  0  0
  -16.5510  -29.8580   23.7090 C   0  0  0  0  0  3  0  0  0  0  0  0
  -16.7500  -28.6030   23.1070 C   0  0  0  0  0  3  0  0  0  0  0  0
  -25.9000  -32.5010   23.8780 C   0  0  0  0  0  3  0  0  0  0  0  0
  -25.5880  -33.9000   24.2050 N   0  0  0  0  0  0  0  0  0  0  0  0
  -25.9180  -34.9520   23.4460 C   0  0  0  0  0  0  0  0  0  0  0  0
  -26.5870  -34.8460   22.4130 O   0  0  0  0  0  0  0  0  0  0  0  0
  -24.9930  -34.0530   25.0050 H   0  0  0  0  0  0  0  0  0  0  0  0
  -24.1820  -36.7410   23.1020 C   0  0  0  0  0  1  0  0  0  0  0  0
  -25.4320  -36.3430   23.9020 C   0  0  0  0  0  3  0  0  0  0  0  0
  -27.5740  -37.2380   24.7050 C   0  0  0  0  0  1  0  0  0  0  0  0
  -26.4620  -37.3970   23.7720 N   0  0  0  0  0  0  0  0  0  0  0  0
  -26.0560  -38.3180   23.9160 H   0  0  0  0  0  0  0  0  0  0  0  0
  -26.3990  -31.7310   25.1630 C   0  0  1  0  0  0  0  0  0  0  0  0
  -25.2960  -31.5010   26.2220 C   0  0  0  0  0  1  0  0  0  0  0  0
  -26.9810  -30.3510   24.7810 C   0  0  0  0  0  1  0  0  0  0  0  0
  -27.5480  -32.5220   25.8310 C   0  0  0  0  0  1  0  0  0  0  0  0
  1 18  1  0
  2  7  1  0
  3  4  1  0
  3  2  1  0
  5  4  1  0
  5 25  1  0
  5  6  1  0
  7  1  1  0
  7  6  1  0
  8  1  2  0
  9 11  2  0
  9 10  1  0
 10 13  2  0
 11 12  1  0
 12 15  1  0
 12 17  2  0
 13 17  1  0
 13 18  1  0
 14 11  1  0
 14 16  1  0
 16 19  1  0
 18 20  1  0
 19 50  1  0
 19 15  1  0
 19 21  1  6
 22 23  2  0
 23 42  1  0
 24 23  1  0
 24 27  1  0
 25 22  1  0
 25 26  1  0
 26 24  2  0
 27 28  1  0
 28 29  2  0
 30 33  1  0
 30 29  1  0
 31 30  2  0
 32 31  1  0
 32 27  2  0
 33 34  1  0
 34 35  1  0
 35 36  2  0
 37 36  1  0
 37 41  1  0
 38 37  2  0
 39 34  2  0
 39 38  1  0
 40 39  1  0
 42 43  1  0
 43 46  1  0
 43 45  1  0
 44 42  2  0
 47 48  1  0
 47 22  1  0
 49 47  1  0
 51 52  1  0
 51 50  2  0
 53 64  2  0
 54 52  1  0
 54 59  1  0
 55 63  1  0
 55 65  1  0
 56 62  1  0
 56 58  1  0
 57 63  1  0
 58 57  1  0
 59 58  2  0
 60 61  1  0
 60 54  2  0
 61 56  2  0
 62 55  1  0
 63 53  1  0
 65 67  2  0
 66 65  1  0
 68 66  1  0
 69 78  2  0
 69 74  1  0
 70 66  1  0
 70 74  1  0
 71 70  1  0
 72 73  1  0
 72 71  1  0
 73 69  1  0
 74 75  2  0
 75 76  1  0
 77 76  2  0
 78 77  1  0
 79 53  1  0
 79 80  1  0
 79 89  1  0
 80 83  1  0
 81 85  1  0
 81 80  1  0
 82 81  2  0
 85 84  1  0
 87 85  1  0
 87 88  1  0
 87 86  1  0
 89 92  1  1
 89 90  1  0
 91 89  1  0
M  ISO  4   1 100  18 100  51 101  52 101
M  END
>  <TORSDO>  (87) 
F 17

>  <SCORE>  (87) 
-15.471

>  <name>  (87) 
86

>  <ligand_id>  (87) 
86

>  <original_smiles>  (87) 
[H]c1c(N([H])C(=O)N2C([H])([H])C([H])([H])C([H])([H])C([H])(n3nc(-c4c([H])c([H])c(Oc5c([H])c([H])c(F)c([H])c5F)c([H])c4[H])c(C(=O)N([H])[H])c3N([H])[H])C2([H])[H])nc2c(c1[H])C([H])([H])C([H])([H])[N+]([H])(C([H])([H])C([H])([H])Oc1c([H])c([H])c3c(c1[H])C([H])([H])N(C(=O)C([H])(N([H])C(=O)C([H])(N([H])C([H])([H])[H])C([H])([H])[H])C(C([H])([H])[H])(C([H])([H])[H])C([H])([H])[H])C([H])(C(=O)N([H])C1([H])c4c([H])c([H])c([H])c([H])c4C([H])([H])C([H])([H])C1([H])[H])C3([H])[H])C2([H])[H]

>  <smiles>  (87) 
[H]c1c(N([H])C(=O)N2C([H])([H])C([H])([H])C([H])([H])C([H])(n3nc(-c4c([H])c([H])c(Oc5c([H])c([H])c(F)c([H])c5F)c([H])c4[H])c(C(=O)N([H])[H])c3N([H])[H])C2([H])[H])nc2c(c1[H])C([H])([H])C([H])([H])[N+]([H])(C([H])([H])C([H])([H])Oc1c([H])c([H])c3c(c1[H])C([H])([H])N(C(=O)C([H])(N([H])C(=O)C([H])(N([H])C([H])([H])[H])C([H])([H])[H])C(C([H])([H])[H])(C([H])([H])[H])C([H])([H])[H])C([H])(C(=O)N([H])C1([H])c4c([H])c([H])c([H])c([H])c4C([H])([H])C([H])([H])C1([H])[H])C3([H])[H])C2([H])[H]

$$$$
87:0:0
     RDKit          3D

 91 99  0  0  1  0  0  0  0  0999 V2000
  -29.3520  -22.9830   18.7620 C   0  0  0  0  0  3  0  0  0  0  0  0
  -29.6100  -21.6300   19.1380 C   0  0  0  0  0  3  0  0  0  0  0  0
  -28.8830  -23.5760   21.0350 C   0  0  0  0  0  3  0  0  0  0  0  0
  -28.9990  -24.0040   19.6890 C   0  0  0  0  0  0  0  0  0  0  0  0
  -29.1230  -22.2140   21.4230 C   0  0  0  0  0  0  0  0  0  0  0  0
  -29.5210  -21.2050   20.4870 C   0  0  0  0  0  0  0  0  0  0  0  0
  -28.9250  -21.8350   22.8800 C   0  0  0  0  0  1  0  0  0  0  0  0
  -29.8240  -19.8730   20.9420 N   0  0  0  0  0  0  0  0  0  0  0  0
  -29.6770  -19.7180   21.9340 H   0  0  0  0  0  0  0  0  0  0  0  0
  -30.0190  -18.6110   20.1560 C   0  0  0  0  0  2  0  0  0  0  0  0
  -30.6780  -17.3990   20.9730 C   0  0  0  0  0  2  0  0  0  0  0  0
  -31.0270  -14.8720   20.4240 C   0  0  0  0  0  0  0  0  0  0  0  0
  -30.7960  -12.6260   19.3790 C   0  0  0  0  0  2  0  0  0  0  0  0
  -29.8790  -12.7530   18.1430 C   0  0  0  0  0  2  0  0  0  0  0  0
  -28.3990  -12.6120   18.5490 C   0  0  0  0  0  2  0  0  0  0  0  0
  -28.0270  -13.5010   19.7650 C   0  0  0  0  0  3  0  0  0  0  0  0
  -29.0600  -13.3560   20.9030 C   0  0  0  0  0  2  0  0  0  0  0  0
  -30.3780  -13.6680   20.3360 N   0  0  0  0  0  0  0  0  0  0  0  0
  -32.2150  -14.9830   20.1110 O   0  0  0  0  0  0  0  0  0  0  0  0
  -30.2590  -15.9760   20.6950 N   0  0  0  0  0  0  0  0  0  0  0  0
  -29.2850  -15.7770   20.8570 H   0  0  0  0  0  0  0  0  0  0  0  0
  -25.6380  -14.1450   20.4480 C   0  0  0  0  0  0  0  0  0  0  0  0
  -24.5490  -13.3910   20.7940 C   0  0  0  0  0  0  0  0  0  0  0  0
  -24.9830  -12.0310   20.7610 C   0  0  0  0  0  0  0  0  0  0  0  0
  -26.6670  -13.2450   20.2280 N   0  0  0  0  0  0  0  0  0  0  0  0
  -26.2780  -11.9680   20.4750 N   0  0  0  0  0  0  0  0  0  0  0  0
  -24.2260  -10.7830   20.9290 C   0  0  0  0  0  0  0  0  0  0  0  0
  -24.6080   -9.8090   21.8780 C   0  0  0  0  0  3  0  0  0  0  0  0
  -23.8540   -8.6270   22.0310 C   0  0  0  0  0  3  0  0  0  0  0  0
  -22.7050   -8.4090   21.2360 C   0  0  0  0  0  0  0  0  0  0  0  0
  -22.3420   -9.3700   20.2760 C   0  0  0  0  0  3  0  0  0  0  0  0
  -23.0960  -10.5460   20.1200 C   0  0  0  0  0  3  0  0  0  0  0  0
  -21.9260   -7.2790   21.2970 O   0  0  0  0  0  0  0  0  0  0  0  0
  -21.8000   -6.5540   22.4560 C   0  0  0  0  0  0  0  0  0  0  0  0
  -21.2880   -7.1270   23.6410 C   0  0  0  0  0  3  0  0  0  0  0  0
  -21.1110   -6.3300   24.7880 C   0  0  0  0  0  3  0  0  0  0  0  0
  -21.4350   -4.9610   24.7520 C   0  0  0  0  0  0  0  0  0  0  0  0
  -21.9380   -4.3870   23.5710 C   0  0  0  0  0  3  0  0  0  0  0  0
  -22.1180   -5.1830   22.4250 C   0  0  0  0  0  0  0  0  0  0  0  0
  -22.5840   -4.6200   21.2840 F   0  0  0  0  0  0  0  0  0  0  0  0
  -21.2570   -4.1910   25.8510 F   0  0  0  0  0  0  0  0  0  0  0  0
  -23.1590  -13.8970   21.0470 C   0  0  0  0  0  0  0  0  0  0  0  0
  -22.4050  -13.2140   21.9010 N   0  0  0  0  0  0  0  0  0  0  0  0
  -22.7490  -14.9320   20.5240 O   0  0  0  0  0  0  0  0  0  0  0  0
  -22.7490  -12.3720   22.3410 H   0  0  0  0  0  0  0  0  0  0  0  0
  -21.4730  -13.5350   22.1190 H   0  0  0  0  0  0  0  0  0  0  0  0
  -25.8310  -15.5130   20.2800 N   0  0  0  0  0  0  0  0  0  0  0  0
  -25.0610  -16.1700   20.3480 H   0  0  0  0  0  0  0  0  0  0  0  0
  -26.6790  -15.9350   19.9270 H   0  0  0  0  0  0  0  0  0  0  0  0
  -28.6850  -25.4520   19.1370 C   0  0  0  0  0  2  0  0  0  0  0  0
  -28.5370  -26.6470   20.0000 O   0  0  0  0  0  0  0  0  0  0  0  0
  -24.6970  -31.8810   23.1530 C   0  0  0  0  0  0  0  0  0  0  0  0
  -27.3940  -27.4660   19.9460 C   0  0  0  0  0  0  0  0  0  0  0  0
  -23.5180  -30.5090   21.4730 C   0  0  0  0  0  3  0  0  0  0  0  0
  -24.9960  -29.0380   19.9950 C   0  0  0  0  0  0  0  0  0  0  0  0
  -26.0500  -30.8850   21.2930 C   0  0  0  0  0  2  0  0  0  0  0  0
  -26.1570  -29.5270   20.6060 C   0  0  0  0  0  0  0  0  0  0  0  0
  -27.3530  -28.7510   20.5750 C   0  0  0  0  0  3  0  0  0  0  0  0
  -26.1970  -27.0230   19.3370 C   0  0  0  0  0  3  0  0  0  0  0  0
  -25.0200  -27.7910   19.3530 C   0  0  0  0  0  3  0  0  0  0  0  0
  -23.7440  -29.8870   20.0700 C   0  0  0  0  0  2  0  0  0  0  0  0
  -24.7750  -31.1070   22.0300 N   0  0  0  0  0  0  0  0  0  0  0  0
  -23.6110  -32.1180   23.6970 O   0  0  0  0  0  0  0  0  0  0  0  0
  -22.8820  -29.4450   22.4010 C   0  0  0  0  0  0  0  0  0  0  0  0
  -21.5630  -29.2320   22.2670 N   0  0  0  0  0  0  0  0  0  0  0  0
  -23.5760  -28.8190   23.2070 O   0  0  0  0  0  0  0  0  0  0  0  0
  -21.0590  -29.7940   21.5950 H   0  0  0  0  0  0  0  0  0  0  0  0
  -18.2230  -27.9160   22.7050 C   0  0  0  0  0  0  0  0  0  0  0  0
  -20.7690  -28.2520   23.0090 C   0  0  0  0  0  3  0  0  0  0  0  0
  -20.9230  -26.8350   22.4050 C   0  0  0  0  0  2  0  0  0  0  0  0
  -19.8430  -26.4990   21.3730 C   0  0  0  0  0  2  0  0  0  0  0  0
  -18.4510  -26.5870   22.0040 C   0  0  0  0  0  2  0  0  0  0  0  0
  -19.3110  -28.7060   23.1620 C   0  0  0  0  0  0  0  0  0  0  0  0
  -19.0460  -29.9490   23.7770 C   0  0  0  0  0  3  0  0  0  0  0  0
  -17.7230  -30.4020   23.9390 C   0  0  0  0  0  3  0  0  0  0  0  0
  -16.6500  -29.6090   23.5010 C   0  0  0  0  0  3  0  0  0  0  0  0
  -16.9000  -28.3700   22.8870 C   0  0  0  0  0  3  0  0  0  0  0  0
  -25.9680  -32.5230   23.7890 C   0  0  0  0  0  3  0  0  0  0  0  0
  -26.4880  -31.7450   25.0620 C   0  0  1  0  0  0  0  0  0  0  0  0
  -25.3920  -31.4740   26.1200 C   0  0  0  0  0  1  0  0  0  0  0  0
  -27.0940  -30.3820   24.6560 C   0  0  0  0  0  1  0  0  0  0  0  0
  -27.6280  -32.5460   25.7370 C   0  0  0  0  0  1  0  0  0  0  0  0
  -25.6380  -33.9130   24.1340 N   0  0  0  0  0  0  0  0  0  0  0  0
  -25.9610  -34.9810   23.3910 C   0  0  0  0  0  0  0  0  0  0  0  0
  -26.6400  -34.9000   22.3630 O   0  0  0  0  0  0  0  0  0  0  0  0
  -25.0440  -34.0510   24.9380 H   0  0  0  0  0  0  0  0  0  0  0  0
  -24.2150  -36.7560   23.0390 C   0  0  0  0  0  1  0  0  0  0  0  0
  -25.4490  -36.3550   23.8620 C   0  0  0  0  0  3  0  0  0  0  0  0
  -27.5660  -37.2490   24.7320 C   0  0  0  0  0  1  0  0  0  0  0  0
  -26.4650  -37.4280   23.7900 N   0  0  0  0  0  0  0  0  0  0  0  0
  -26.0380  -38.3320   23.9760 H   0  0  0  0  0  0  0  0  0  0  0  0
  1  2  2  0
  1  4  1  0
  2  6  1  0
  3  5  1  0
  4  3  2  0
  5  7  1  0
  6  8  1  0
  6  5  2  0
  8  9  1  0
 10  8  1  0
 10 11  1  0
 12 20  1  0
 13 18  1  0
 14 15  1  0
 14 13  1  0
 16 15  1  0
 16 25  1  0
 16 17  1  0
 18 12  1  0
 18 17  1  0
 19 12  2  0
 20 21  1  0
 20 11  1  0
 22 23  2  0
 23 42  1  0
 24 23  1  0
 24 27  1  0
 25 22  1  0
 25 26  1  0
 26 24  2  0
 27 28  1  0
 28 29  2  0
 30 33  1  0
 30 29  1  0
 31 30  2  0
 32 31  1  0
 32 27  2  0
 33 34  1  0
 34 35  1  0
 35 36  2  0
 37 36  1  0
 37 41  1  0
 38 37  2  0
 39 34  2  0
 39 38  1  0
 40 39  1  0
 42 43  1  0
 43 46  1  0
 43 45  1  0
 44 42  2  0
 47 48  1  0
 47 22  1  0
 49 47  1  0
 50  4  1  0
 50 51  1  0
 52 63  2  0
 53 51  1  0
 53 58  1  0
 54 62  1  0
 54 64  1  0
 55 61  1  0
 55 57  1  0
 56 62  1  0
 57 56  1  0
 58 57  2  0
 59 60  1  0
 59 53  2  0
 60 55  2  0
 61 54  1  0
 62 52  1  0
 64 66  2  0
 65 64  1  0
 67 65  1  0
 68 77  2  0
 68 73  1  0
 69 65  1  0
 69 73  1  0
 70 69  1  0
 71 72  1  0
 71 70  1  0
 72 68  1  0
 73 74  2  0
 74 75  1  0
 76 75  2  0
 77 76  1  0
 78 52  1  0
 78 83  1  0
 78 79  1  0
 79 82  1  1
 79 80  1  0
 81 79  1  0
 83 86  1  0
 84 88  1  0
 84 83  1  0
 85 84  2  0
 88 87  1  0
 90 88  1  0
 90 91  1  0
 90 89  1  0
M  ISO  4  12 100  20 100  50 101  51 101
M  END
>  <TORSDO>  (88) 
F 20

>  <SCORE>  (88) 
-13.204

>  <name>  (88) 
87

>  <ligand_id>  (88) 
87

>  <original_smiles>  (88) 
[H]c1c([H])c([H])c2c(c1[H])C([H])([H])C([H])([H])C([H])([H])C2([H])N([H])C(=O)C1([H])N(C(=O)C([H])(N([H])C(=O)C([H])(N([H])C([H])([H])[H])C([H])([H])[H])C(C([H])([H])[H])(C([H])([H])[H])C([H])([H])[H])C([H])([H])c2c([H])c(OC([H])([H])c3c([H])c([H])c(N([H])C([H])([H])C([H])([H])N([H])C(=O)N4C([H])([H])C([H])([H])C([H])([H])C([H])(n5nc(-c6c([H])c([H])c(Oc7c([H])c([H])c(F)c([H])c7F)c([H])c6[H])c(C(=O)N([H])[H])c5N([H])[H])C4([H])[H])c(C([H])([H])[H])c3[H])c([H])c([H])c2C1([H])[H]

>  <smiles>  (88) 
[H]c1c([H])c([H])c2c(c1[H])C([H])([H])C([H])([H])C([H])([H])C2([H])N([H])C(=O)C1([H])N(C(=O)C([H])(N([H])C(=O)C([H])(N([H])C([H])([H])[H])C([H])([H])[H])C(C([H])([H])[H])(C([H])([H])[H])C([H])([H])[H])C([H])([H])c2c([H])c(OC([H])([H])c3c([H])c([H])c(N([H])C([H])([H])C([H])([H])N([H])C(=O)N4C([H])([H])C([H])([H])C([H])([H])C([H])(n5nc(-c6c([H])c([H])c(Oc7c([H])c([H])c(F)c([H])c7F)c([H])c6[H])c(C(=O)N([H])[H])c5N([H])[H])C4([H])[H])c(C([H])([H])[H])c3[H])c([H])c([H])c2C1([H])[H]

$$$$
88:0:0
     RDKit          3D

 93102  0  0  1  0  0  0  0  0999 V2000
  -31.8720  -18.8990   20.8920 C   0  0  0  0  0  3  0  0  0  0  0  0
  -31.5090  -17.5340   20.8420 C   0  0  0  0  0  3  0  0  0  0  0  0
  -28.6590  -20.7480   20.2890 C   0  0  0  0  0  3  0  0  0  0  0  0
  -29.2220  -18.2080   20.4340 C   0  0  0  0  0  3  0  0  0  0  0  0
  -30.4280  -22.3660   20.6430 C   0  0  0  0  0  3  0  0  0  0  0  0
  -30.9330  -19.9470   20.7120 C   0  0  0  0  0  0  0  0  0  0  0  0
  -29.5750  -19.6260   20.4600 C   0  0  0  0  0  0  0  0  0  0  0  0
  -29.0580  -22.1430   20.3780 C   0  0  0  0  0  0  0  0  0  0  0  0
  -30.1760  -17.1200   20.6250 C   0  0  0  0  0  0  0  0  0  0  0  0
  -31.3580  -21.3020   20.8120 C   0  0  0  0  0  0  0  0  0  0  0  0
  -30.6090  -14.5210   20.5010 C   0  0  0  0  0  0  0  0  0  0  0  0
  -30.4500  -12.1760   19.6350 C   0  0  0  0  0  2  0  0  0  0  0  0
  -29.5260  -12.1480   18.3980 C   0  0  0  0  0  2  0  0  0  0  0  0
  -28.0510  -11.9810   18.8170 C   0  0  0  0  0  2  0  0  0  0  0  0
  -27.6470  -12.9340   19.9750 C   0  0  0  0  0  3  0  0  0  0  0  0
  -28.6970  -12.9430   21.1090 C   0  0  0  0  0  2  0  0  0  0  0  0
  -29.9910  -13.2870   20.5020 N   0  0  0  0  0  0  0  0  0  0  0  0
  -31.7930  -14.5960   20.1560 O   0  0  0  0  0  0  0  0  0  0  0  0
  -29.8310  -15.6650   20.6680 N   0  0  0  0  0  0  0  0  0  0  0  0
  -28.8610  -15.4580   20.8380 H   0  0  0  0  0  0  0  0  0  0  0  0
  -25.2570  -13.5290   20.6890 C   0  0  0  0  0  0  0  0  0  0  0  0
  -24.1920  -12.7600   21.0700 C   0  0  0  0  0  0  0  0  0  0  0  0
  -24.6560  -11.4090   21.0570 C   0  0  0  0  0  0  0  0  0  0  0  0
  -26.3020  -12.6490   20.4660 N   0  0  0  0  0  0  0  0  0  0  0  0
  -25.9490  -11.3680   20.7510 N   0  0  0  0  0  0  0  0  0  0  0  0
  -23.9310  -10.1470   21.2630 C   0  0  0  0  0  0  0  0  0  0  0  0
  -24.3520   -9.1980   22.2210 C   0  0  0  0  0  3  0  0  0  0  0  0
  -23.6260   -8.0040   22.4140 C   0  0  0  0  0  3  0  0  0  0  0  0
  -22.4620   -7.7490   21.6500 C   0  0  0  0  0  0  0  0  0  0  0  0
  -22.0570   -8.6880   20.6850 C   0  0  0  0  0  3  0  0  0  0  0  0
  -22.7840   -9.8740   20.4880 C   0  0  0  0  0  3  0  0  0  0  0  0
  -21.7070   -6.6060   21.7500 O   0  0  0  0  0  0  0  0  0  0  0  0
  -21.6500   -5.8820   22.9140 C   0  0  0  0  0  0  0  0  0  0  0  0
  -21.1610   -6.4400   24.1150 C   0  0  0  0  0  3  0  0  0  0  0  0
  -21.0530   -5.6390   25.2700 C   0  0  0  0  0  3  0  0  0  0  0  0
  -21.4250   -4.2830   25.2250 C   0  0  0  0  0  0  0  0  0  0  0  0
  -21.9080   -3.7240   24.0290 C   0  0  0  0  0  3  0  0  0  0  0  0
  -22.0170   -4.5210   22.8760 C   0  0  0  0  0  0  0  0  0  0  0  0
  -22.4610   -3.9730   21.7190 F   0  0  0  0  0  0  0  0  0  0  0  0
  -21.3150   -3.5130   26.3330 F   0  0  0  0  0  0  0  0  0  0  0  0
  -22.7930  -13.2410   21.3320 C   0  0  0  0  0  0  0  0  0  0  0  0
  -22.0640  -12.5600   22.2070 N   0  0  0  0  0  0  0  0  0  0  0  0
  -22.3550  -14.2580   20.7960 O   0  0  0  0  0  0  0  0  0  0  0  0
  -22.4270  -11.7370   22.6630 H   0  0  0  0  0  0  0  0  0  0  0  0
  -21.1280  -12.8700   22.4290 H   0  0  0  0  0  0  0  0  0  0  0  0
  -25.4140  -14.8970   20.4920 N   0  0  0  0  0  0  0  0  0  0  0  0
  -24.6370  -15.5430   20.5880 H   0  0  0  0  0  0  0  0  0  0  0  0
  -26.2440  -15.3340   20.1150 H   0  0  0  0  0  0  0  0  0  0  0  0
  -33.1340  -22.8630   21.3120 C   0  0  0  0  0  1  0  0  0  0  0  0
  -32.6930  -21.5260   21.1010 O   0  0  0  0  0  0  0  0  0  0  0  0
  -28.0810  -23.4160   20.3960 C   0  0  0  0  0  2  0  0  0  0  0  0
  -28.3500  -24.7680   19.5270 C   0  0  0  0  0  2  0  0  0  0  0  0
  -28.1850  -26.1760   20.0400 O   0  0  0  0  0  0  0  0  0  0  0  0
  -24.3870  -31.4900   23.1070 C   0  0  0  0  0  0  0  0  0  0  0  0
  -27.0450  -27.0060   19.9400 C   0  0  0  0  0  0  0  0  0  0  0  0
  -23.2100  -30.1550   21.3920 C   0  0  0  0  0  3  0  0  0  0  0  0
  -24.6820  -28.6480   19.9290 C   0  0  0  0  0  0  0  0  0  0  0  0
  -25.7530  -30.4650   21.2670 C   0  0  0  0  0  2  0  0  0  0  0  0
  -25.8370  -29.1110   20.5650 C   0  0  0  0  0  0  0  0  0  0  0  0
  -27.0130  -28.3000   20.5580 C   0  0  0  0  0  3  0  0  0  0  0  0
  -25.8650  -26.5960   19.2800 C   0  0  0  0  0  3  0  0  0  0  0  0
  -24.7000  -27.4000   19.2760 C   0  0  0  0  0  3  0  0  0  0  0  0
  -23.4440  -29.5240   19.9930 C   0  0  0  0  0  2  0  0  0  0  0  0
  -24.4680  -30.7210   21.9790 N   0  0  0  0  0  0  0  0  0  0  0  0
  -23.2940  -31.7530   23.6280 O   0  0  0  0  0  0  0  0  0  0  0  0
  -22.5230  -29.1120   22.3060 C   0  0  0  0  0  0  0  0  0  0  0  0
  -21.1950  -28.9590   22.1610 N   0  0  0  0  0  0  0  0  0  0  0  0
  -23.1840  -28.4440   23.1050 O   0  0  0  0  0  0  0  0  0  0  0  0
  -20.7230  -29.5520   21.4920 H   0  0  0  0  0  0  0  0  0  0  0  0
  -17.7910  -27.8060   22.5900 C   0  0  0  0  0  0  0  0  0  0  0  0
  -20.3530  -28.0010   22.8810 C   0  0  0  0  0  3  0  0  0  0  0  0
  -20.4300  -26.6010   22.2290 C   0  0  0  0  0  2  0  0  0  0  0  0
  -19.3250  -26.3540   21.1990 C   0  0  0  0  0  2  0  0  0  0  0  0
  -17.9430  -26.4920   21.8430 C   0  0  0  0  0  2  0  0  0  0  0  0
  -18.9240  -28.5230   23.0610 C   0  0  0  0  0  0  0  0  0  0  0  0
  -18.7270  -29.7550   23.7190 C   0  0  0  0  0  3  0  0  0  0  0  0
  -17.4310  -30.2720   23.9100 C   0  0  0  0  0  3  0  0  0  0  0  0
  -16.3130  -29.5520   23.4570 C   0  0  0  0  0  3  0  0  0  0  0  0
  -16.4950  -28.3200   22.8030 C   0  0  0  0  0  3  0  0  0  0  0  0
  -25.6570  -32.0960   23.7800 C   0  0  0  0  0  3  0  0  0  0  0  0
  -26.1270  -31.2950   25.0570 C   0  0  1  0  0  0  0  0  0  0  0  0
  -25.0000  -31.0540   26.0910 C   0  0  0  0  0  1  0  0  0  0  0  0
  -26.7050  -29.9190   24.6560 C   0  0  0  0  0  1  0  0  0  0  0  0
  -27.2650  -32.0650   25.7670 C   0  0  0  0  0  1  0  0  0  0  0  0
  -25.3540  -33.4910   24.1330 N   0  0  0  0  0  0  0  0  0  0  0  0
  -25.7350  -34.5600   23.4220 C   0  0  0  0  0  0  0  0  0  0  0  0
  -26.4420  -34.4740   22.4150 O   0  0  0  0  0  0  0  0  0  0  0  0
  -24.7310  -33.6320   24.9130 H   0  0  0  0  0  0  0  0  0  0  0  0
  -24.0660  -36.4040   23.0390 C   0  0  0  0  0  1  0  0  0  0  0  0
  -25.2510  -35.9440   23.9030 C   0  0  0  0  0  3  0  0  0  0  0  0
  -27.3480  -36.7560   24.8840 C   0  0  0  0  0  1  0  0  0  0  0  0
  -26.3100  -36.9760   23.8820 N   0  0  0  0  0  0  0  0  0  0  0  0
  -25.9180  -37.9030   24.0320 H   0  0  0  0  0  0  0  0  0  0  0  0
  2  1  1  0
  3  8  2  0
  3  7  1  0
  4  7  2  0
  4  9  1  0
  5 10  2  0
  6 10  1  0
  6  1  2  0
  7  6  1  0
  8 51  1  0
  8  5  1  0
  9 19  1  0
  9  2  2  0
 10 50  1  0
 11 17  1  0
 11 19  1  0
 12 17  1  0
 13 14  1  0
 13 12  1  0
 15 14  1  0
 15 24  1  0
 15 16  1  0
 17 16  1  0
 18 11  2  0
 19 20  1  0
 21 22  2  0
 22 41  1  0
 23 22  1  0
 23 26  1  0
 24 21  1  0
 24 25  1  0
 25 23  2  0
 26 27  1  0
 27 28  2  0
 29 32  1  0
 29 28  1  0
 30 29  2  0
 31 30  1  0
 31 26  2  0
 32 33  1  0
 33 34  1  0
 34 35  2  0
 36 35  1  0
 36 40  1  0
 37 36  2  0
 38 33  2  0
 38 37  1  0
 39 38  1  0
 41 42  1  0
 42 45  1  0
 42 44  1  0
 43 41  2  0
 46 47  1  0
 46 21  1  0
 48 46  1  0
 50 49  1  0
 52 53  1  0
 52 51  1  0
 54 65  2  0
 55 53  1  0
 55 60  1  0
 56 64  1  0
 56 66  1  0
 57 63  1  0
 57 59  1  0
 58 64  1  0
 59 58  1  0
 60 59  2  0
 61 55  2  0
 62 61  1  0
 62 57  2  0
 63 56  1  0
 64 54  1  0
 66 68  2  0
 67 66  1  0
 69 67  1  0
 70 79  2  0
 70 75  1  0
 71 67  1  0
 71 75  1  0
 72 71  1  0
 73 74  1  0
 73 72  1  0
 74 70  1  0
 75 76  2  0
 76 77  1  0
 78 77  2  0
 79 78  1  0
 80 54  1  0
 80 85  1  0
 80 81  1  0
 81 84  1  1
 81 82  1  0
 83 81  1  0
 85 88  1  0
 86 90  1  0
 86 85  1  0
 87 86  2  0
 90 89  1  0
 92 90  1  0
 92 93  1  0
 92 91  1  0
M  ISO  4  11 100  19 100  52 101  53 101
M  END
>  <TORSDO>  (89) 
F 19

>  <SCORE>  (89) 
-12.416

>  <name>  (89) 
88

>  <ligand_id>  (89) 
88

>  <original_smiles>  (89) 
[H]c1c([H])c([H])c2c(c1[H])C([H])([H])C([H])([H])C([H])([H])C2([H])N([H])C(=O)C1([H])N(C(=O)C([H])(N([H])C(=O)C([H])(N([H])C([H])([H])[H])C([H])([H])[H])C(C([H])([H])[H])(C([H])([H])[H])C([H])([H])[H])C([H])([H])c2c([H])c(OC([H])([H])C([H])([H])c3c([H])c(OC([H])([H])[H])c4c([H])c([H])c(N([H])C(=O)N5C([H])([H])C([H])([H])C([H])([H])C([H])(n6nc(-c7c([H])c([H])c(Oc8c([H])c([H])c(F)c([H])c8F)c([H])c7[H])c(C(=O)N([H])[H])c6N([H])[H])C5([H])[H])c([H])c4c3[H])c([H])c([H])c2C1([H])[H]

>  <smiles>  (89) 
[H]c1c([H])c([H])c2c(c1[H])C([H])([H])C([H])([H])C([H])([H])C2([H])N([H])C(=O)C1([H])N(C(=O)C([H])(N([H])C(=O)C([H])(N([H])C([H])([H])[H])C([H])([H])[H])C(C([H])([H])[H])(C([H])([H])[H])C([H])([H])[H])C([H])([H])c2c([H])c(OC([H])([H])C([H])([H])c3c([H])c(OC([H])([H])[H])c4c([H])c([H])c(N([H])C(=O)N5C([H])([H])C([H])([H])C([H])([H])C([H])(n6nc(-c7c([H])c([H])c(Oc8c([H])c([H])c(F)c([H])c8F)c([H])c7[H])c(C(=O)N([H])[H])c6N([H])[H])C5([H])[H])c([H])c4c3[H])c([H])c([H])c2C1([H])[H]

$$$$
89:0:0
     RDKit          3D

 94103  0  0  1  0  0  0  0  0999 V2000
  -30.1220  -22.5440   21.6910 C   0  0  0  0  0  2  0  0  0  0  0  0
  -29.0980  -21.9440   22.6420 C   0  0  0  0  0  2  0  0  0  0  0  0
  -29.0180  -22.5810   20.6210 C   0  0  2  0  0  0  0  0  0  0  0  0
  -28.0570  -22.3860   21.7230 N   0  0  0  0  0  4  0  0  0  0  0  0
  -27.6440  -23.2460   22.0470 H   0  0  0  0  0  0  0  0  0  0  0  0
  -27.3470  -21.6890   21.5560 H   0  0  0  0  0  0  0  0  0  0  0  0
  -28.9530  -21.3430   19.6220 C   0  0  0  0  0  2  0  0  0  0  0  0
  -30.7840  -14.6500   20.0370 C   0  0  0  0  0  0  0  0  0  0  0  0
  -30.5270  -12.4380   18.9300 C   0  0  0  0  0  2  0  0  0  0  0  0
  -29.5160  -12.6000   17.7710 C   0  0  0  0  0  2  0  0  0  0  0  0
  -28.0640  -12.4540   18.2720 C   0  0  0  0  0  2  0  0  0  0  0  0
  -27.7840  -13.2970   19.5430 C   0  0  0  0  0  3  0  0  0  0  0  0
  -28.8910  -13.0730   20.5970 C   0  0  0  0  0  2  0  0  0  0  0  0
  -30.1790  -13.4230   19.9720 N   0  0  0  0  0  0  0  0  0  0  0  0
  -31.9040  -14.8420   19.5500 O   0  0  0  0  0  0  0  0  0  0  0  0
  -28.4230  -19.0310   20.7240 C   0  0  0  0  0  3  0  0  0  0  0  0
  -28.7090  -17.6520   20.8960 C   0  0  0  0  0  3  0  0  0  0  0  0
  -30.5090  -19.2200   19.5870 C   0  0  0  0  0  3  0  0  0  0  0  0
  -29.3320  -19.8710   20.0420 C   0  0  0  0  0  0  0  0  0  0  0  0
  -29.8910  -17.0690   20.3830 C   0  0  0  0  0  0  0  0  0  0  0  0
  -30.7780  -17.8850   19.7490 N   0  0  0  0  0  0  0  0  0  0  0  0
  -30.0050  -15.6330   20.5800 N   0  0  0  0  0  0  0  0  0  0  0  0
  -29.2050  -15.2360   21.0430 H   0  0  0  0  0  0  0  0  0  0  0  0
  -25.4370  -13.9270   20.3850 C   0  0  0  0  0  0  0  0  0  0  0  0
  -24.3760  -13.1650   20.7920 C   0  0  0  0  0  0  0  0  0  0  0  0
  -24.8140  -11.8070   20.7160 C   0  0  0  0  0  0  0  0  0  0  0  0
  -26.4540  -13.0350   20.0840 N   0  0  0  0  0  0  0  0  0  0  0  0
  -26.0870  -11.7530   20.3430 N   0  0  0  0  0  0  0  0  0  0  0  0
  -24.0810  -10.5520   20.9200 C   0  0  0  0  0  0  0  0  0  0  0  0
  -24.5140   -9.5870   21.8550 C   0  0  0  0  0  3  0  0  0  0  0  0
  -23.7810   -8.3960   22.0460 C   0  0  0  0  0  3  0  0  0  0  0  0
  -22.6000   -8.1620   21.3020 C   0  0  0  0  0  0  0  0  0  0  0  0
  -22.1860   -9.1150   20.3560 C   0  0  0  0  0  3  0  0  0  0  0  0
  -22.9200  -10.2980   20.1630 C   0  0  0  0  0  3  0  0  0  0  0  0
  -21.8380   -7.0230   21.4020 O   0  0  0  0  0  0  0  0  0  0  0  0
  -21.7480   -6.3200   22.5760 C   0  0  0  0  0  0  0  0  0  0  0  0
  -21.2720   -6.9130   23.7670 C   0  0  0  0  0  3  0  0  0  0  0  0
  -21.1300   -6.1340   24.9330 C   0  0  0  0  0  3  0  0  0  0  0  0
  -21.4530   -4.7650   24.9090 C   0  0  0  0  0  0  0  0  0  0  0  0
  -21.9220   -4.1720   23.7240 C   0  0  0  0  0  3  0  0  0  0  0  0
  -22.0650   -4.9480   22.5600 C   0  0  0  0  0  0  0  0  0  0  0  0
  -22.4970   -4.3660   21.4150 F   0  0  0  0  0  0  0  0  0  0  0  0
  -21.3090   -4.0150   26.0270 F   0  0  0  0  0  0  0  0  0  0  0  0
  -23.0010  -13.6570   21.1430 C   0  0  0  0  0  0  0  0  0  0  0  0
  -22.3120  -12.9580   22.0380 N   0  0  0  0  0  0  0  0  0  0  0  0
  -22.5490  -14.6920   20.6570 O   0  0  0  0  0  0  0  0  0  0  0  0
  -22.6910  -12.1190   22.4510 H   0  0  0  0  0  0  0  0  0  0  0  0
  -21.3920  -13.2670   22.3190 H   0  0  0  0  0  0  0  0  0  0  0  0
  -25.6170  -15.2990   20.2250 N   0  0  0  0  0  0  0  0  0  0  0  0
  -24.8680  -15.9620   20.3970 H   0  0  0  0  0  0  0  0  0  0  0  0
  -26.4380  -15.7290   19.8200 H   0  0  0  0  0  0  0  0  0  0  0  0
  -28.7400  -23.9720   19.8730 C   0  0  0  0  0  3  0  0  0  0  0  0
  -28.5100  -25.3010   20.7210 C   0  0  0  0  0  3  0  0  0  0  0  0
  -28.5170  -26.6060   20.0440 O   0  0  0  0  0  0  0  0  0  0  0  0
  -24.6190  -31.8200   23.1440 C   0  0  0  0  0  0  0  0  0  0  0  0
  -27.3550  -27.3780   20.0680 C   0  0  0  0  0  0  0  0  0  0  0  0
  -23.4570  -30.4240   21.4680 C   0  0  0  0  0  3  0  0  0  0  0  0
  -24.9550  -28.9100   20.0470 C   0  0  0  0  0  0  0  0  0  0  0  0
  -25.9900  -30.7970   21.3190 C   0  0  0  0  0  2  0  0  0  0  0  0
  -26.1020  -29.4290   20.6590 C   0  0  0  0  0  0  0  0  0  0  0  0
  -27.3080  -28.6740   20.6570 C   0  0  0  0  0  3  0  0  0  0  0  0
  -26.1880  -26.8910   19.4480 C   0  0  0  0  0  3  0  0  0  0  0  0
  -24.9960  -27.6460   19.4330 C   0  0  0  0  0  3  0  0  0  0  0  0
  -23.7000  -29.7610   20.0850 C   0  0  0  0  0  2  0  0  0  0  0  0
  -24.7060  -31.0290   22.0350 N   0  0  0  0  0  0  0  0  0  0  0  0
  -23.5240  -32.0720   23.6690 O   0  0  0  0  0  0  0  0  0  0  0  0
  -22.8000  -29.3860   22.4080 C   0  0  0  0  0  0  0  0  0  0  0  0
  -21.4740  -29.2130   22.2800 N   0  0  0  0  0  0  0  0  0  0  0  0
  -23.4830  -28.7380   23.2080 O   0  0  0  0  0  0  0  0  0  0  0  0
  -20.9860  -29.7870   21.6070 H   0  0  0  0  0  0  0  0  0  0  0  0
  -18.0910  -28.0410   22.7780 C   0  0  0  0  0  0  0  0  0  0  0  0
  -20.6550  -28.2570   23.0260 C   0  0  0  0  0  3  0  0  0  0  0  0
  -20.7320  -26.8460   22.3980 C   0  0  0  0  0  2  0  0  0  0  0  0
  -19.6150  -26.5730   21.3880 C   0  0  0  0  0  2  0  0  0  0  0  0
  -18.2420  -26.7140   22.0530 C   0  0  0  0  0  2  0  0  0  0  0  0
  -19.2240  -28.7720   23.2210 C   0  0  0  0  0  0  0  0  0  0  0  0
  -19.0300  -30.0150   23.8600 C   0  0  0  0  0  3  0  0  0  0  0  0
  -17.7350  -30.5270   24.0610 C   0  0  0  0  0  3  0  0  0  0  0  0
  -16.6140  -29.7900   23.6390 C   0  0  0  0  0  3  0  0  0  0  0  0
  -16.7940  -28.5500   23.0030 C   0  0  0  0  0  3  0  0  0  0  0  0
  -25.8840  -32.4620   23.7930 C   0  0  0  0  0  3  0  0  0  0  0  0
  -26.3830  -31.6890   25.0750 C   0  0  1  0  0  0  0  0  0  0  0  0
  -25.2710  -31.4340   26.1190 C   0  0  0  0  0  1  0  0  0  0  0  0
  -26.9870  -30.3200   24.6810 C   0  0  0  0  0  1  0  0  0  0  0  0
  -27.5140  -32.4880   25.7630 C   0  0  0  0  0  1  0  0  0  0  0  0
  -25.5550  -33.8560   24.1260 N   0  0  0  0  0  0  0  0  0  0  0  0
  -25.9010  -34.9160   23.3860 C   0  0  0  0  0  0  0  0  0  0  0  0
  -26.5970  -34.8250   22.3720 O   0  0  0  0  0  0  0  0  0  0  0  0
  -24.9380  -34.0020   24.9100 H   0  0  0  0  0  0  0  0  0  0  0  0
  -24.1750  -36.7030   22.9950 C   0  0  0  0  0  1  0  0  0  0  0  0
  -25.3910  -36.2970   23.8430 C   0  0  0  0  0  3  0  0  0  0  0  0
  -27.4930  -37.1810   24.7510 C   0  0  0  0  0  1  0  0  0  0  0  0
  -26.4200  -37.3570   23.7750 N   0  0  0  0  0  0  0  0  0  0  0  0
  -26.0060  -38.2710   23.9250 H   0  0  0  0  0  0  0  0  0  0  0  0
  1  2  1  0
  3  7  1  6
  3  1  1  0
  3  4  1  0
  4  5  1  0
  4  2  1  0
  6  4  1  0
  7 19  1  0
  8 22  1  0
  9 14  1  0
 10 11  1  0
 10  9  1  0
 12 11  1  0
 12 27  1  0
 12 13  1  0
 14  8  1  0
 14 13  1  0
 15  8  2  0
 16 17  1  0
 18 21  2  0
 18 19  1  0
 19 16  2  0
 20 22  1  0
 20 17  2  0
 21 20  1  0
 22 23  1  0
 24 25  2  0
 25 44  1  0
 26 25  1  0
 26 29  1  0
 27 28  1  0
 27 24  1  0
 28 26  2  0
 29 30  1  0
 30 31  2  0
 32 35  1  0
 32 31  1  0
 33 32  2  0
 34 33  1  0
 34 29  2  0
 35 36  1  0
 36 37  1  0
 37 38  2  0
 39 38  1  0
 39 43  1  0
 40 39  2  0
 41 36  2  0
 41 40  1  0
 42 41  1  0
 44 45  1  0
 45 48  1  0
 45 47  1  0
 46 44  2  0
 49 24  1  0
 49 50  1  0
 51 49  1  0
 52  3  1  0
 52 53  2  0
 54 56  1  0
 54 53  1  0
 55 66  2  0
 56 61  1  0
 57 65  1  0
 57 67  1  0
 58 64  1  0
 58 60  1  0
 59 65  1  0
 60 59  1  0
 61 60  2  0
 62 56  2  0
 63 62  1  0
 63 58  2  0
 64 57  1  0
 65 55  1  0
 67 69  2  0
 68 67  1  0
 70 68  1  0
 71 80  2  0
 71 76  1  0
 72 68  1  0
 72 76  1  0
 73 72  1  0
 74 75  1  0
 74 73  1  0
 75 71  1  0
 76 77  2  0
 77 78  1  0
 79 78  2  0
 80 79  1  0
 81 55  1  0
 81 86  1  0
 81 82  1  0
 82 85  1  1
 82 83  1  0
 84 82  1  0
 86 89  1  0
 87 91  1  0
 87 86  1  0
 88 87  2  0
 91 90  1  0
 93 91  1  0
 93 94  1  0
 93 92  1  0
M  ISO  4   8 100  22 100  53 101  54 101
M  END
>  <TORSDO>  (90) 
F 19

>  <SCORE>  (90) 
-14.083

>  <name>  (90) 
89

>  <ligand_id>  (90) 
89

>  <original_smiles>  (90) 
[H]c1nc(N([H])C(=O)N2C([H])([H])C([H])([H])C([H])([H])C([H])(n3nc(-c4c([H])c([H])c(Oc5c([H])c([H])c(F)c([H])c5F)c([H])c4[H])c(C(=O)N([H])[H])c3N([H])[H])C2([H])[H])c([H])c([H])c1C([H])([H])C1(C([H])([H])C([H])([H])Oc2c([H])c([H])c3c(c2[H])C([H])([H])N(C(=O)C([H])(N([H])C(=O)C([H])(N([H])C([H])([H])[H])C([H])([H])[H])C(C([H])([H])[H])(C([H])([H])[H])C([H])([H])[H])C([H])(C(=O)N([H])C2([H])c4c([H])c([H])c([H])c([H])c4C([H])([H])C([H])([H])C2([H])[H])C3([H])[H])C([H])([H])C([H])([H])[N+]1([H])[H]

>  <smiles>  (90) 
[H]c1nc(N([H])C(=O)N2C([H])([H])C([H])([H])C([H])([H])C([H])(n3nc(-c4c([H])c([H])c(Oc5c([H])c([H])c(F)c([H])c5F)c([H])c4[H])c(C(=O)N([H])[H])c3N([H])[H])C2([H])[H])c([H])c([H])c1C([H])([H])C1(C([H])([H])C([H])([H])Oc2c([H])c([H])c3c(c2[H])C([H])([H])N(C(=O)C([H])(N([H])C(=O)C([H])(N([H])C([H])([H])[H])C([H])([H])[H])C(C([H])([H])[H])(C([H])([H])[H])C([H])([H])[H])C([H])(C(=O)N([H])C2([H])c4c([H])c([H])c([H])c([H])c4C([H])([H])C([H])([H])C2([H])[H])C3([H])[H])C([H])([H])C([H])([H])[N+]1([H])[H]

$$$$
90:0:0
     RDKit          3D

112123  0  0  1  0  0  0  0  0999 V2000
  -31.0790  -17.6550   23.8720 C   0  0  0  0  0  2  0  0  0  0  0  0
  -30.4070  -19.0180   23.6670 C   0  0  0  0  0  2  0  0  0  0  0  0
  -31.8780  -17.2380   22.6320 C   0  0  0  0  0  2  0  0  0  0  0  0
  -29.4760  -19.0030   22.4420 C   0  0  0  0  0  2  0  0  0  0  0  0
  -30.9900  -17.2390   21.3670 C   0  0  0  0  0  3  0  0  0  0  0  0
  -30.2010  -18.6020   21.1340 C   0  0  0  0  0  3  0  0  0  0  0  0
  -32.0010  -14.0580   20.6870 C   0  0  0  0  0  0  0  0  0  0  0  0
  -31.7340  -11.6200   20.4570 C   0  0  0  0  0  2  0  0  0  0  0  0
  -30.9210  -11.2430   19.1990 C   0  0  0  0  0  2  0  0  0  0  0  0
  -29.3990  -11.4080   19.4150 C   0  0  0  0  0  2  0  0  0  0  0  0
  -28.9790  -12.6590   20.2390 C   0  0  0  0  0  3  0  0  0  0  0  0
  -29.9050  -12.8940   21.4450 C   0  0  0  0  0  2  0  0  0  0  0  0
  -31.2780  -12.9330   20.9370 N   0  0  0  0  0  0  0  0  0  0  0  0
  -33.2320  -14.0460   20.6910 O   0  0  0  0  0  0  0  0  0  0  0  0
  -31.2180  -14.8090   18.5450 C   0  0  0  0  0  2  0  0  0  0  0  0
  -32.5390  -15.1360   17.7910 C   0  0  0  0  0  2  0  0  0  0  0  0
  -33.0260  -16.8480   19.5600 C   0  0  0  0  0  3  0  0  0  0  0  0
  -31.5790  -16.5390   20.0920 C   0  0  0  0  0  3  0  0  0  0  0  0
  -31.3390  -15.0540   20.0000 N   0  0  0  0  0  0  0  0  0  0  0  0
  -33.0780  -16.4790   18.1250 N   0  0  0  0  0  4  0  0  0  0  0  0
  -32.5560  -17.1790   17.6200 H   0  0  0  0  0  0  0  0  0  0  0  0
  -34.0250  -16.5550   17.7980 H   0  0  0  0  0  0  0  0  0  0  0  0
  -26.6820  -13.6340   20.8460 C   0  0  0  0  0  0  0  0  0  0  0  0
  -25.4760  -13.0380   21.0970 C   0  0  0  0  0  0  0  0  0  0  0  0
  -25.7110  -11.6300   21.0280 C   0  0  0  0  0  0  0  0  0  0  0  0
  -27.5770  -12.5990   20.6330 N   0  0  0  0  0  0  0  0  0  0  0  0
  -26.9960  -11.3860   20.8090 N   0  0  0  0  0  0  0  0  0  0  0  0
  -24.7780  -10.4990   21.0970 C   0  0  0  0  0  0  0  0  0  0  0  0
  -24.9410   -9.4650   22.0450 C   0  0  0  0  0  3  0  0  0  0  0  0
  -24.0210   -8.3960   22.1010 C   0  0  0  0  0  3  0  0  0  0  0  0
  -22.9230   -8.3580   21.2080 C   0  0  0  0  0  0  0  0  0  0  0  0
  -22.7810   -9.3770   20.2490 C   0  0  0  0  0  3  0  0  0  0  0  0
  -23.7010  -10.4380   20.1890 C   0  0  0  0  0  3  0  0  0  0  0  0
  -21.9930   -7.3480   21.1760 O   0  0  0  0  0  0  0  0  0  0  0  0
  -21.6000   -6.6940   22.3150 C   0  0  0  0  0  0  0  0  0  0  0  0
  -21.0280   -7.3810   23.4100 C   0  0  0  0  0  3  0  0  0  0  0  0
  -20.5740   -6.6600   24.5320 C   0  0  0  0  0  3  0  0  0  0  0  0
  -20.6860   -5.2580   24.5620 C   0  0  0  0  0  0  0  0  0  0  0  0
  -21.2510   -4.5720   23.4710 C   0  0  0  0  0  3  0  0  0  0  0  0
  -21.7080   -5.2900   22.3510 C   0  0  0  0  0  0  0  0  0  0  0  0
  -22.2320   -4.6240   21.2930 F   0  0  0  0  0  0  0  0  0  0  0  0
  -20.2440   -4.5640   25.6370 F   0  0  0  0  0  0  0  0  0  0  0  0
  -24.1590  -13.7340   21.2930 C   0  0  0  0  0  0  0  0  0  0  0  0
  -23.2610  -13.1330   22.0660 N   0  0  0  0  0  0  0  0  0  0  0  0
  -23.9340  -14.8360   20.7980 O   0  0  0  0  0  0  0  0  0  0  0  0
  -23.4560  -12.2410   22.4950 H   0  0  0  0  0  0  0  0  0  0  0  0
  -22.3670  -13.5720   22.2330 H   0  0  0  0  0  0  0  0  0  0  0  0
  -27.0840  -14.9630   20.7510 N   0  0  0  0  0  0  0  0  0  0  0  0
  -26.4250  -15.7280   20.8390 H   0  0  0  0  0  0  0  0  0  0  0  0
  -28.0170  -15.2700   20.5120 H   0  0  0  0  0  0  0  0  0  0  0  0
  -33.4930  -18.3000   19.7140 C   0  0  0  0  0  0  0  0  0  0  0  0
  -34.6280  -18.5070   20.3960 N   0  0  0  0  0  0  0  0  0  0  0  0
  -32.8060  -19.2120   19.2540 O   0  0  0  0  0  0  0  0  0  0  0  0
  -35.1020  -17.6840   20.7470 H   0  0  0  0  0  0  0  0  0  0  0  0
  -35.2740  -20.2600   22.1050 C   0  0  0  0  0  2  0  0  0  0  0  0
  -36.7270  -20.6720   22.4220 C   0  0  0  0  0  2  0  0  0  0  0  0
  -36.7880  -19.6740   20.3030 C   0  0  0  0  0  2  0  0  0  0  0  0
  -35.2990  -19.7830   20.6420 C   0  0  0  0  0  3  0  0  0  0  0  0
  -37.4380  -20.6940   21.1310 N   0  0  0  0  0  4  0  0  0  0  0  0
  -38.4230  -20.5070   21.2470 H   0  0  0  0  0  0  0  0  0  0  0  0
  -37.3330  -21.5950   20.6990 H   0  0  0  0  0  0  0  0  0  0  0  0
  -30.9450  -19.7860   20.5780 N   0  0  0  0  0  4  0  0  0  0  0  0
  -31.7050  -19.5020   19.9650 H   0  0  0  0  0  0  0  0  0  0  0  0
  -31.3520  -20.2940   21.3460 H   0  0  0  0  0  0  0  0  0  0  0  0
  -30.0880  -20.7190   19.7830 C   0  0  0  0  0  2  0  0  0  0  0  0
  -31.1250  -23.0650   19.1890 C   0  0  0  0  0  2  0  0  0  0  0  0
  -28.7620  -22.8620   20.0550 C   0  0  0  0  0  2  0  0  0  0  0  0
  -31.0240  -24.6080   19.3790 C   0  0  0  0  0  2  0  0  0  0  0  0
  -28.7210  -24.3900   20.2530 C   0  0  0  0  0  2  0  0  0  0  0  0
  -30.1860  -22.2470   20.1170 C   0  0  0  0  0  3  0  0  0  0  0  0
  -29.5800  -25.1260   19.1980 C   0  0  0  0  0  3  0  0  0  0  0  0
  -29.5110  -26.5700   19.3240 O   0  0  0  0  0  0  0  0  0  0  0  0
  -24.9940  -30.4080   23.2450 C   0  0  0  0  0  0  0  0  0  0  0  0
  -28.2560  -27.1570   19.3690 C   0  0  0  0  0  0  0  0  0  0  0  0
  -24.0040  -29.2380   21.3050 C   0  0  0  0  0  3  0  0  0  0  0  0
  -25.6670  -28.2810   19.6230 C   0  0  0  0  0  0  0  0  0  0  0  0
  -26.4470  -29.9980   21.2610 C   0  0  0  0  0  2  0  0  0  0  0  0
  -26.7370  -28.8250   20.3430 C   0  0  0  0  0  0  0  0  0  0  0  0
  -28.0320  -28.2730   20.2130 C   0  0  0  0  0  3  0  0  0  0  0  0
  -27.1650  -26.6510   18.6220 C   0  0  0  0  0  3  0  0  0  0  0  0
  -25.8760  -27.1970   18.7570 C   0  0  0  0  0  3  0  0  0  0  0  0
  -24.3080  -28.9130   19.8170 C   0  0  0  0  0  2  0  0  0  0  0  0
  -25.1650  -29.8860   21.9980 N   0  0  0  0  0  0  0  0  0  0  0  0
  -23.8870  -30.3960   23.8000 O   0  0  0  0  0  0  0  0  0  0  0  0
  -23.5110  -27.9490   22.0030 C   0  0  0  0  0  0  0  0  0  0  0  0
  -22.2570  -27.5580   21.7290 N   0  0  0  0  0  0  0  0  0  0  0  0
  -24.2590  -27.3120   22.7510 O   0  0  0  0  0  0  0  0  0  0  0  0
  -21.7020  -28.1410   21.1160 H   0  0  0  0  0  0  0  0  0  0  0  0
  -19.1860  -25.6540   21.6350 C   0  0  0  0  0  0  0  0  0  0  0  0
  -21.6000  -26.3540   22.2390 C   0  0  0  0  0  3  0  0  0  0  0  0
  -22.0500  -25.0980   21.4590 C   0  0  0  0  0  2  0  0  0  0  0  0
  -21.1280  -24.7530   20.2860 C   0  0  0  0  0  2  0  0  0  0  0  0
  -19.6990  -24.5080   20.7800 C   0  0  0  0  0  2  0  0  0  0  0  0
  -20.0790  -26.5300   22.3090 C   0  0  0  0  0  0  0  0  0  0  0  0
  -19.5490  -27.6010   23.0610 C   0  0  0  0  0  3  0  0  0  0  0  0
  -18.1590  -27.8030   23.1500 C   0  0  0  0  0  3  0  0  0  0  0  0
  -17.2790  -26.9220   22.4950 C   0  0  0  0  0  3  0  0  0  0  0  0
  -17.7930  -25.8500   21.7450 C   0  0  0  0  0  3  0  0  0  0  0  0
  -26.1740  -31.0690   24.0240 C   0  0  0  0  0  3  0  0  0  0  0  0
  -25.7870  -32.4540   24.3280 N   0  0  0  0  0  0  0  0  0  0  0  0
  -26.2060  -33.5270   23.6450 C   0  0  0  0  0  0  0  0  0  0  0  0
  -27.0300  -33.4580   22.7280 O   0  0  0  0  0  0  0  0  0  0  0  0
  -25.0740  -32.5800   25.0310 H   0  0  0  0  0  0  0  0  0  0  0  0
  -24.5460  -35.3100   23.0290 C   0  0  0  0  0  1  0  0  0  0  0  0
  -25.6240  -34.8960   24.0440 C   0  0  0  0  0  3  0  0  0  0  0  0
  -27.5490  -35.7810   25.2810 C   0  0  0  0  0  1  0  0  0  0  0  0
  -26.6430  -35.9620   24.1510 N   0  0  0  0  0  0  0  0  0  0  0  0
  -26.2030  -36.8740   24.2400 H   0  0  0  0  0  0  0  0  0  0  0  0
  -26.5590  -30.2960   25.3450 C   0  0  1  0  0  0  0  0  0  0  0  0
  -25.3570  -30.0200   26.2770 C   0  0  0  0  0  1  0  0  0  0  0  0
  -27.2150  -28.9350   25.0070 C   0  0  0  0  0  1  0  0  0  0  0  0
  -27.6080  -31.1060   26.1430 C   0  0  0  0  0  1  0  0  0  0  0  0
  2  1  1  0
  3  1  1  0
  4  2  1  0
  5  3  1  0
  6 62  1  0
  6  5  1  0
  6  4  1  0
  7 14  2  0
  7 13  1  0
  8 13  1  0
  9 10  1  0
  9  8  1  0
 11 10  1  0
 11 26  1  0
 11 12  1  0
 13 12  1  0
 15 19  1  0
 16 20  1  0
 16 15  1  0
 17 51  1  0
 17 18  1  0
 18 19  1  0
 18  5  1  0
 19  7  1  0
 20 17  1  0
 21 20  1  0
 22 20  1  0
 23 24  2  0
 24 43  1  0
 25 28  1  0
 25 24  1  0
 26 27  1  0
 26 23  1  0
 27 25  2  0
 28 29  1  0
 29 30  2  0
 31 30  1  0
 32 31  2  0
 33 32  1  0
 33 28  2  0
 34 31  1  0
 34 35  1  0
 35 40  2  0
 35 36  1  0
 36 37  2  0
 37 38  1  0
 38 42  1  0
 39 38  2  0
 40 39  1  0
 41 40  1  0
 43 44  1  0
 44 47  1  0
 44 46  1  0
 45 43  2  0
 48 49  1  0
 48 23  1  0
 50 48  1  0
 51 52  1  0
 52 54  1  0
 53 51  2  0
 55 56  1  0
 57 58  1  0
 57 59  1  0
 58 52  1  0
 58 55  1  0
 59 60  1  0
 59 56  1  0
 61 59  1  0
 62 64  1  0
 63 62  1  0
 65 62  1  0
 66 68  1  0
 66 70  1  0
 67 70  1  0
 67 69  1  0
 70 65  1  0
 71 72  1  0
 71 68  1  0
 71 69  1  0
 72 74  1  0
 73 84  2  0
 74 79  1  0
 75 83  1  0
 75 85  1  0
 76 82  1  0
 76 78  1  0
 77 83  1  0
 78 77  1  0
 79 78  2  0
 80 81  1  0
 80 74  2  0
 81 76  2  0
 82 75  1  0
 83 73  1  0
 85 87  2  0
 86 85  1  0
 88 86  1  0
 89 98  2  0
 89 94  1  0
 90 86  1  0
 90 94  1  0
 91 90  1  0
 92 93  1  0
 92 91  1  0
 93 89  1  0
 94 95  2  0
 95 96  1  0
 97 96  2  0
 98 97  1  0
 99 73  1  0
 99100  1  0
 99109  1  0
100103  1  0
101105  1  0
101100  1  0
102101  2  0
105104  1  0
105107  1  0
107108  1  0
107106  1  0
109112  1  1
109110  1  0
111109  1  0
M  ISO  4   7 100  19 100  71 101  72 101
M  END
>  <TORSDO>  (91) 
F 21

>  <SCORE>  (91) 
-5.834

>  <name>  (91) 
90

>  <ligand_id>  (91) 
90

>  <original_smiles>  (91) 
[H]c1c([H])c([H])c2c(c1[H])C([H])([H])C([H])([H])C([H])([H])C2([H])N([H])C(=O)C1([H])N(C(=O)C([H])(N([H])C(=O)C([H])(N([H])C([H])([H])[H])C([H])([H])[H])C(C([H])([H])[H])(C([H])([H])[H])C([H])([H])[H])C([H])([H])c2c([H])c(OC3([H])C([H])([H])C([H])([H])C([H])(C([H])([H])[N+]([H])([H])C4([H])C([H])([H])C([H])([H])C([H])([H])C([H])([H])C4([H])C4([H])N(C(=O)N5C([H])([H])C([H])([H])C([H])([H])C([H])(n6nc(-c7c([H])c([H])c(Oc8c([H])c([H])c(F)c([H])c8F)c([H])c7[H])c(C(=O)N([H])[H])c6N([H])[H])C5([H])[H])C([H])([H])C([H])([H])[N+]([H])([H])C4([H])C(=O)N([H])C4([H])C([H])([H])C([H])([H])[N+]([H])([H])C4([H])[H])C([H])([H])C3([H])[H])c([H])c([H])c2C1([H])[H]

>  <smiles>  (91) 
[H]c1c([H])c([H])c2c(c1[H])C([H])([H])C([H])([H])C([H])([H])C2([H])N([H])C(=O)C1([H])N(C(=O)C([H])(N([H])C(=O)C([H])(N([H])C([H])([H])[H])C([H])([H])[H])C(C([H])([H])[H])(C([H])([H])[H])C([H])([H])[H])C([H])([H])c2c([H])c(OC3([H])C([H])([H])C([H])([H])C([H])(C([H])([H])[N+]([H])([H])C4([H])C([H])([H])C([H])([H])C([H])([H])C([H])([H])C4([H])C4([H])N(C(=O)N5C([H])([H])C([H])([H])C([H])([H])C([H])(n6nc(-c7c([H])c([H])c(Oc8c([H])c([H])c(F)c([H])c8F)c([H])c7[H])c(C(=O)N([H])[H])c6N([H])[H])C5([H])[H])C([H])([H])C([H])([H])[N+]([H])([H])C4([H])C(=O)N([H])C4([H])C([H])([H])C([H])([H])[N+]([H])([H])C4([H])[H])C([H])([H])C3([H])[H])c([H])c([H])c2C1([H])[H]

$$$$
91:0:0
     RDKit          3D

 96105  0  0  1  0  0  0  0  0999 V2000
  -28.8560  -20.8010   20.4130 C   0  0  0  0  0  3  0  0  0  0  0  0
  -28.5150  -22.1290   20.0190 C   0  0  0  0  0  0  0  0  0  0  0  0
  -28.3220  -22.1220   18.6520 C   0  0  0  0  0  0  0  0  0  0  0  0
  -28.9270  -20.0510   19.2750 C   0  0  0  0  0  0  0  0  0  0  0  0
  -28.6520  -20.4330   16.7830 C   0  0  0  0  0  1  0  0  0  0  0  0
  -28.6360  -20.8490   18.1810 N   0  0  0  0  0  0  0  0  0  0  0  0
  -26.8440  -24.2220   18.1370 C   0  0  0  0  0  2  0  0  0  0  0  0
  -26.5200  -23.2200   17.0620 C   0  0  0  0  0  2  0  0  0  0  0  0
  -27.8870  -23.2090   17.7110 C   0  0  0  0  0  3  0  0  0  0  0  0
  -29.2860  -18.7020   19.1790 N   0  0  0  0  0  0  0  0  0  0  0  0
  -29.3190  -18.2960   18.2490 H   0  0  0  0  0  0  0  0  0  0  0  0
  -28.9580  -17.7440   20.2300 C   0  0  0  0  0  2  0  0  0  0  0  0
  -30.7520  -17.5300   22.0260 C   0  0  0  0  0  1  0  0  0  0  0  0
  -30.2090  -16.9660   20.7070 C   0  0  0  0  0  3  0  0  0  0  0  0
  -30.6450  -14.5270   20.3490 C   0  0  0  0  0  0  0  0  0  0  0  0
  -30.3660  -12.3500   19.2390 C   0  0  0  0  0  2  0  0  0  0  0  0
  -29.3920  -12.5310   18.0570 C   0  0  0  0  0  2  0  0  0  0  0  0
  -27.9300  -12.3720   18.5250 C   0  0  0  0  0  2  0  0  0  0  0  0
  -27.6090  -13.2120   19.7930 C   0  0  0  0  0  3  0  0  0  0  0  0
  -28.6970  -13.0190   20.8730 C   0  0  0  0  0  2  0  0  0  0  0  0
  -30.0000  -13.3350   20.2670 N   0  0  0  0  0  0  0  0  0  0  0  0
  -31.7580  -14.7280   19.8530 O   0  0  0  0  0  0  0  0  0  0  0  0
  -29.9080  -15.5360   20.8420 N   0  0  0  0  0  0  0  0  0  0  0  0
  -29.0000  -15.2850   21.2000 H   0  0  0  0  0  0  0  0  0  0  0  0
  -25.2320  -13.7840   20.6060 C   0  0  0  0  0  0  0  0  0  0  0  0
  -24.1820  -12.9940   20.9890 C   0  0  0  0  0  0  0  0  0  0  0  0
  -24.6470  -11.6460   20.8930 C   0  0  0  0  0  0  0  0  0  0  0  0
  -26.2730  -12.9160   20.3090 N   0  0  0  0  0  0  0  0  0  0  0  0
  -25.9240  -11.6230   20.5370 N   0  0  0  0  0  0  0  0  0  0  0  0
  -23.9330  -10.3730   21.0650 C   0  0  0  0  0  0  0  0  0  0  0  0
  -24.3650   -9.4030   21.9960 C   0  0  0  0  0  3  0  0  0  0  0  0
  -23.6530   -8.1960   22.1560 C   0  0  0  0  0  3  0  0  0  0  0  0
  -22.4940   -7.9480   21.3830 C   0  0  0  0  0  0  0  0  0  0  0  0
  -22.0810   -8.9050   20.4390 C   0  0  0  0  0  3  0  0  0  0  0  0
  -22.7950  -10.1060   20.2780 C   0  0  0  0  0  3  0  0  0  0  0  0
  -21.7530   -6.7930   21.4500 O   0  0  0  0  0  0  0  0  0  0  0  0
  -21.6600   -6.0640   22.6090 C   0  0  0  0  0  0  0  0  0  0  0  0
  -21.1350   -6.6170   23.7980 C   0  0  0  0  0  3  0  0  0  0  0  0
  -20.9940   -5.8130   24.9470 C   0  0  0  0  0  3  0  0  0  0  0  0
  -21.3680   -4.4560   24.9070 C   0  0  0  0  0  0  0  0  0  0  0  0
  -21.8860   -3.9030   23.7230 C   0  0  0  0  0  3  0  0  0  0  0  0
  -22.0290   -4.7040   22.5770 C   0  0  0  0  0  0  0  0  0  0  0  0
  -22.5090   -4.1590   21.4320 F   0  0  0  0  0  0  0  0  0  0  0  0
  -21.2260   -3.6820   26.0070 F   0  0  0  0  0  0  0  0  0  0  0  0
  -22.7920  -13.4520   21.3270 C   0  0  0  0  0  0  0  0  0  0  0  0
  -22.0940  -12.7170   22.1870 N   0  0  0  0  0  0  0  0  0  0  0  0
  -22.3320  -14.4960   20.8670 O   0  0  0  0  0  0  0  0  0  0  0  0
  -22.4780  -11.8720   22.5860 H   0  0  0  0  0  0  0  0  0  0  0  0
  -21.1610  -13.0020   22.4500 H   0  0  0  0  0  0  0  0  0  0  0  0
  -25.3850  -15.1600   20.4670 N   0  0  0  0  0  0  0  0  0  0  0  0
  -24.6200  -15.8090   20.6140 H   0  0  0  0  0  0  0  0  0  0  0  0
  -26.2160  -15.6090   20.1040 H   0  0  0  0  0  0  0  0  0  0  0  0
  -28.3810  -23.1870   20.8910 O   0  0  0  0  0  0  0  0  0  0  0  0
  -28.9930  -24.4160   20.4920 C   0  0  0  0  0  2  0  0  0  0  0  0
  -28.7650  -25.4970   21.5600 C   0  0  0  0  0  2  0  0  0  0  0  0
  -28.8910  -26.8140   21.0060 O   0  0  0  0  0  0  0  0  0  0  0  0
  -24.7320  -32.0240   23.4240 C   0  0  0  0  0  0  0  0  0  0  0  0
  -27.7080  -27.4950   20.8470 C   0  0  0  0  0  0  0  0  0  0  0  0
  -23.6840  -30.4820   21.7960 C   0  0  0  0  0  3  0  0  0  0  0  0
  -25.2770  -28.9030   20.5810 C   0  0  0  0  0  0  0  0  0  0  0  0
  -26.2030  -30.9140   21.7460 C   0  0  0  0  0  2  0  0  0  0  0  0
  -26.3730  -29.5100   21.2070 C   0  0  0  0  0  0  0  0  0  0  0  0
  -27.5950  -28.8160   21.3270 C   0  0  0  0  0  3  0  0  0  0  0  0
  -26.5980  -26.8950   20.2130 C   0  0  0  0  0  3  0  0  0  0  0  0
  -25.3840  -27.5960   20.0780 C   0  0  0  0  0  3  0  0  0  0  0  0
  -24.0080  -29.7200   20.4830 C   0  0  0  0  0  2  0  0  0  0  0  0
  -24.8870  -31.1590   22.3820 N   0  0  0  0  0  0  0  0  0  0  0  0
  -23.6080  -32.2960   23.8690 O   0  0  0  0  0  0  0  0  0  0  0  0
  -22.9930  -29.5060   22.7750 C   0  0  0  0  0  0  0  0  0  0  0  0
  -21.6910  -29.2610   22.5530 N   0  0  0  0  0  0  0  0  0  0  0  0
  -23.6280  -28.9690   23.6860 O   0  0  0  0  0  0  0  0  0  0  0  0
  -21.2440  -29.7450   21.7880 H   0  0  0  0  0  0  0  0  0  0  0  0
  -18.3280  -27.9820   22.8660 C   0  0  0  0  0  0  0  0  0  0  0  0
  -20.8460  -28.3490   23.3220 C   0  0  0  0  0  3  0  0  0  0  0  0
  -21.0400  -26.8880   22.8560 C   0  0  0  0  0  2  0  0  0  0  0  0
  -20.0340  -26.4580   21.7830 C   0  0  0  0  0  2  0  0  0  0  0  0
  -18.6000  -26.5960   22.3040 C   0  0  0  0  0  2  0  0  0  0  0  0
  -19.3840  -28.8100   23.3300 C   0  0  0  0  0  0  0  0  0  0  0  0
  -19.0810  -30.1020   23.8100 C   0  0  0  0  0  3  0  0  0  0  0  0
  -17.7520  -30.5670   23.8360 C   0  0  0  0  0  3  0  0  0  0  0  0
  -16.7090  -29.7370   23.3920 C   0  0  0  0  0  3  0  0  0  0  0  0
  -16.9970  -28.4460   22.9120 C   0  0  0  0  0  3  0  0  0  0  0  0
  -25.9540  -32.7300   24.0910 C   0  0  0  0  0  3  0  0  0  0  0  0
  -25.5600  -34.1140   24.3810 N   0  0  0  0  0  0  0  0  0  0  0  0
  -25.8650  -35.1680   23.6120 C   0  0  0  0  0  0  0  0  0  0  0  0
  -26.5780  -35.0810   22.6090 O   0  0  0  0  0  0  0  0  0  0  0  0
  -24.9280  -34.2520   25.1560 H   0  0  0  0  0  0  0  0  0  0  0  0
  -24.0530  -36.8500   23.1590 C   0  0  0  0  0  1  0  0  0  0  0  0
  -25.2850  -36.5360   24.0200 C   0  0  0  0  0  3  0  0  0  0  0  0
  -27.3360  -37.5580   24.9040 C   0  0  0  0  0  1  0  0  0  0  0  0
  -26.2620  -37.6420   23.9170 N   0  0  0  0  0  0  0  0  0  0  0  0
  -25.8010  -38.5410   24.0250 H   0  0  0  0  0  0  0  0  0  0  0  0
  -26.4540  -32.0040   25.4010 C   0  0  1  0  0  0  0  0  0  0  0  0
  -25.3200  -31.6700   26.3970 C   0  0  0  0  0  1  0  0  0  0  0  0
  -27.1790  -30.6840   25.0480 C   0  0  0  0  0  1  0  0  0  0  0  0
  -27.4880  -32.8950   26.1300 C   0  0  0  0  0  1  0  0  0  0  0  0
  2  1  1  0
  2 53  1  0
  3  2  2  0
  4  1  2  0
  5  6  1  0
  6  3  1  0
  6  4  1  0
  8  9  1  0
  8  7  1  0
  9  7  1  0
  9  3  1  0
 10  4  1  0
 10 12  1  0
 11 10  1  0
 12 14  1  0
 14 23  1  0
 14 13  1  0
 15 23  1  0
 16 21  1  0
 17 18  1  0
 17 16  1  0
 19 18  1  0
 19 28  1  0
 19 20  1  0
 21 15  1  0
 21 20  1  0
 22 15  2  0
 23 24  1  0
 25 26  2  0
 26 45  1  0
 27 26  1  0
 27 30  1  0
 28 29  1  0
 28 25  1  0
 29 27  2  0
 30 31  1  0
 31 32  2  0
 33 36  1  0
 33 32  1  0
 34 33  2  0
 35 34  1  0
 35 30  2  0
 36 37  1  0
 37 38  1  0
 38 39  2  0
 40 39  1  0
 40 44  1  0
 41 40  2  0
 42 37  2  0
 42 41  1  0
 43 42  1  0
 45 46  1  0
 46 49  1  0
 46 48  1  0
 47 45  2  0
 50 25  1  0
 50 51  1  0
 52 50  1  0
 54 53  1  0
 54 55  1  0
 56 55  1  0
 57 68  2  0
 58 56  1  0
 58 63  1  0
 59 67  1  0
 59 69  1  0
 60 62  1  0
 61 67  1  0
 62 63  2  0
 62 61  1  0
 64 58  2  0
 65 64  1  0
 65 60  2  0
 66 60  1  0
 66 59  1  0
 67 57  1  0
 69 71  2  0
 70 69  1  0
 72 70  1  0
 73 82  2  0
 73 78  1  0
 74 70  1  0
 74 78  1  0
 75 74  1  0
 76 77  1  0
 76 75  1  0
 77 73  1  0
 78 79  2  0
 79 80  1  0
 81 80  2  0
 82 81  1  0
 83 57  1  0
 83 84  1  0
 83 93  1  0
 84 87  1  0
 85 89  1  0
 85 84  1  0
 86 85  2  0
 89 88  1  0
 91 89  1  0
 91 92  1  0
 91 90  1  0
 93 96  1  1
 93 94  1  0
 95 93  1  0
M  ISO  4  15 100  23 100  55 101  56 101
M  END
>  <TORSDO>  (92) 
F 23

>  <SCORE>  (92) 
-12.187

>  <name>  (92) 
91

>  <ligand_id>  (92) 
91

>  <original_smiles>  (92) 
[H]c1c([H])c([H])c2c(c1[H])C([H])([H])C([H])([H])C([H])([H])C2([H])N([H])C(=O)C1([H])N(C(=O)C([H])(N([H])C(=O)C([H])(N([H])C([H])([H])[H])C([H])([H])[H])C(C([H])([H])[H])(C([H])([H])[H])C([H])([H])[H])C([H])([H])c2c([H])c(OC([H])([H])C([H])([H])Oc3c([H])c(N([H])C([H])([H])C([H])(N([H])C(=O)N4C([H])([H])C([H])([H])C([H])([H])C([H])(n5nc(-c6c([H])c([H])c(Oc7c([H])c([H])c(F)c([H])c7F)c([H])c6[H])c(C(=O)N([H])[H])c5N([H])[H])C4([H])[H])C([H])([H])[H])n(C([H])([H])[H])c3C3([H])C([H])([H])C3([H])[H])c([H])c([H])c2C1([H])[H]

>  <smiles>  (92) 
[H]c1c([H])c([H])c2c(c1[H])C([H])([H])C([H])([H])C([H])([H])C2([H])N([H])C(=O)C1([H])N(C(=O)C([H])(N([H])C(=O)C([H])(N([H])C([H])([H])[H])C([H])([H])[H])C(C([H])([H])[H])(C([H])([H])[H])C([H])([H])[H])C([H])([H])c2c([H])c(OC([H])([H])C([H])([H])Oc3c([H])c(N([H])C([H])([H])C([H])(N([H])C(=O)N4C([H])([H])C([H])([H])C([H])([H])C([H])(n5nc(-c6c([H])c([H])c(Oc7c([H])c([H])c(F)c([H])c7F)c([H])c6[H])c(C(=O)N([H])[H])c5N([H])[H])C4([H])[H])C([H])([H])[H])n(C([H])([H])[H])c3C3([H])C([H])([H])C3([H])[H])c([H])c([H])c2C1([H])[H]

$$$$
92:0:0
     RDKit          3D

 96105  0  0  1  0  0  0  0  0999 V2000
  -31.3930  -21.5500   20.6750 C   0  0  0  0  0  2  0  0  0  0  0  0
  -30.6850  -22.7720   21.2860 C   0  0  0  0  0  2  0  0  0  0  0  0
  -29.9430  -23.5200   20.2440 N   0  0  0  0  0  4  0  0  0  0  0  0
  -30.5190  -23.5770   19.4140 H   0  0  0  0  0  0  0  0  0  0  0  0
  -29.1200  -22.9910   19.9940 H   0  0  0  0  0  0  0  0  0  0  0  0
  -29.5470  -24.8970   20.6120 C   0  0  0  0  0  2  0  0  0  0  0  0
  -28.5170  -25.4580   19.6200 C   0  0  0  0  0  2  0  0  0  0  0  0
  -28.4750  -26.8700   19.7930 O   0  0  0  0  0  0  0  0  0  0  0  0
  -24.5090  -31.7300   23.0600 C   0  0  0  0  0  0  0  0  0  0  0  0
  -27.2530  -27.4990   19.7970 C   0  0  0  0  0  0  0  0  0  0  0  0
  -23.3310  -30.3620   21.3690 C   0  0  0  0  0  3  0  0  0  0  0  0
  -24.8140  -28.9190   19.8780 C   0  0  0  0  0  0  0  0  0  0  0  0
  -25.8450  -30.7960   21.1790 C   0  0  0  0  0  2  0  0  0  0  0  0
  -25.9570  -29.4580   20.4810 C   0  0  0  0  0  0  0  0  0  0  0  0
  -27.1780  -28.7550   20.4330 C   0  0  0  0  0  3  0  0  0  0  0  0
  -26.0920  -26.9690   19.1850 C   0  0  0  0  0  3  0  0  0  0  0  0
  -24.8770  -27.6760   19.2240 C   0  0  0  0  0  3  0  0  0  0  0  0
  -23.5510  -29.7430   19.9620 C   0  0  0  0  0  2  0  0  0  0  0  0
  -24.5790  -30.9760   21.9270 N   0  0  0  0  0  0  0  0  0  0  0  0
  -23.4230  -31.9470   23.6160 O   0  0  0  0  0  0  0  0  0  0  0  0
  -22.7150  -29.2830   22.2900 C   0  0  0  0  0  0  0  0  0  0  0  0
  -21.3930  -29.0870   22.1760 N   0  0  0  0  0  0  0  0  0  0  0  0
  -23.4220  -28.6310   23.0630 O   0  0  0  0  0  0  0  0  0  0  0  0
  -20.8850  -29.6700   21.5260 H   0  0  0  0  0  0  0  0  0  0  0  0
  -18.0360  -27.8390   22.6830 C   0  0  0  0  0  0  0  0  0  0  0  0
  -20.5990  -28.1030   22.9120 C   0  0  0  0  0  3  0  0  0  0  0  0
  -20.6970  -26.7040   22.2600 C   0  0  0  0  0  2  0  0  0  0  0  0
  -19.5750  -26.4250   21.2550 C   0  0  0  0  0  2  0  0  0  0  0  0
  -18.2060  -26.5290   21.9360 C   0  0  0  0  0  2  0  0  0  0  0  0
  -19.1600  -28.5870   23.1290 C   0  0  0  0  0  0  0  0  0  0  0  0
  -18.9470  -29.8160   23.7880 C   0  0  0  0  0  3  0  0  0  0  0  0
  -17.6430  -30.2980   24.0080 C   0  0  0  0  0  3  0  0  0  0  0  0
  -16.5350  -29.5480   23.5790 C   0  0  0  0  0  3  0  0  0  0  0  0
  -16.7310  -28.3200   22.9230 C   0  0  0  0  0  3  0  0  0  0  0  0
  -25.7830  -32.3680   23.7000 C   0  0  0  0  0  3  0  0  0  0  0  0
  -25.4440  -33.7460   24.0730 N   0  0  0  0  0  0  0  0  0  0  0  0
  -25.7640  -34.8290   23.3490 C   0  0  0  0  0  0  0  0  0  0  0  0
  -26.4480  -34.7700   22.3230 O   0  0  0  0  0  0  0  0  0  0  0  0
  -24.8420  -33.8650   24.8740 H   0  0  0  0  0  0  0  0  0  0  0  0
  -24.0080  -36.5980   23.0290 C   0  0  0  0  0  1  0  0  0  0  0  0
  -25.2470  -36.1940   23.8440 C   0  0  0  0  0  3  0  0  0  0  0  0
  -27.3530  -37.0910   24.7300 C   0  0  0  0  0  1  0  0  0  0  0  0
  -26.2620  -37.2690   23.7770 N   0  0  0  0  0  0  0  0  0  0  0  0
  -25.8380  -38.1770   23.9440 H   0  0  0  0  0  0  0  0  0  0  0  0
  -26.3170  -31.5680   24.9500 C   0  0  1  0  0  0  0  0  0  0  0  0
  -25.2350  -31.2780   26.0180 C   0  0  0  0  0  1  0  0  0  0  0  0
  -26.9220  -30.2160   24.5120 C   0  0  0  0  0  1  0  0  0  0  0  0
  -27.4560  -32.3620   25.6310 C   0  0  0  0  0  1  0  0  0  0  0  0
  -31.7480  -20.6150   21.6940 O   0  0  0  0  0  0  0  0  0  0  0  0
  -31.4330  -16.9900   22.1490 C   0  0  0  0  0  3  0  0  0  0  0  0
  -31.8590  -18.3180   22.2980 C   0  0  0  0  0  3  0  0  0  0  0  0
  -30.1670  -19.0240   20.7040 C   0  0  0  0  0  3  0  0  0  0  0  0
  -29.7160  -17.6930   20.5390 C   0  0  0  0  0  0  0  0  0  0  0  0
  -30.3910  -16.6630   21.2530 C   0  0  0  0  0  0  0  0  0  0  0  0
  -31.2530  -19.3410   21.5520 C   0  0  0  0  0  0  0  0  0  0  0  0
  -30.5370  -14.4420   20.2090 C   0  0  0  0  0  0  0  0  0  0  0  0
  -30.1410  -12.3670   18.9420 C   0  0  0  0  0  2  0  0  0  0  0  0
  -29.1350  -12.6250   17.8040 C   0  0  0  0  0  2  0  0  0  0  0  0
  -27.6860  -12.4790   18.3090 C   0  0  0  0  0  2  0  0  0  0  0  0
  -27.4230  -13.2610   19.6240 C   0  0  0  0  0  3  0  0  0  0  0  0
  -28.5340  -12.9740   20.6600 C   0  0  0  0  0  2  0  0  0  0  0  0
  -29.8330  -13.2930   20.0410 N   0  0  0  0  0  0  0  0  0  0  0  0
  -31.5610  -14.7020   19.5710 O   0  0  0  0  0  0  0  0  0  0  0  0
  -30.0120  -15.3060   21.0930 N   0  0  0  0  0  0  0  0  0  0  0  0
  -29.1380  -15.0160   21.5060 H   0  0  0  0  0  0  0  0  0  0  0  0
  -25.0570  -13.8300   20.4730 C   0  0  0  0  0  0  0  0  0  0  0  0
  -24.0160  -13.0390   20.8740 C   0  0  0  0  0  0  0  0  0  0  0  0
  -24.4860  -11.6930   20.7820 C   0  0  0  0  0  0  0  0  0  0  0  0
  -26.0960  -12.9660   20.1610 N   0  0  0  0  0  0  0  0  0  0  0  0
  -25.7560  -11.6730   20.4030 N   0  0  0  0  0  0  0  0  0  0  0  0
  -23.7810  -10.4210   20.9770 C   0  0  0  0  0  0  0  0  0  0  0  0
  -24.2390   -9.4580   21.9030 C   0  0  0  0  0  3  0  0  0  0  0  0
  -23.5330   -8.2490   22.0850 C   0  0  0  0  0  3  0  0  0  0  0  0
  -22.3560   -7.9960   21.3420 C   0  0  0  0  0  0  0  0  0  0  0  0
  -21.9180   -8.9480   20.4050 C   0  0  0  0  0  3  0  0  0  0  0  0
  -22.6240  -10.1490   20.2210 C   0  0  0  0  0  3  0  0  0  0  0  0
  -21.6200   -6.8390   21.4340 O   0  0  0  0  0  0  0  0  0  0  0  0
  -21.5470   -6.1250   22.6020 C   0  0  0  0  0  0  0  0  0  0  0  0
  -21.0710   -6.7010   23.8010 C   0  0  0  0  0  3  0  0  0  0  0  0
  -20.9470   -5.9100   24.9610 C   0  0  0  0  0  3  0  0  0  0  0  0
  -21.2880   -4.5450   24.9240 C   0  0  0  0  0  0  0  0  0  0  0  0
  -21.7580   -3.9690   23.7310 C   0  0  0  0  0  3  0  0  0  0  0  0
  -21.8840   -4.7560   22.5730 C   0  0  0  0  0  0  0  0  0  0  0  0
  -22.3160   -4.1900   21.4200 F   0  0  0  0  0  0  0  0  0  0  0  0
  -21.1630   -3.7840   26.0360 F   0  0  0  0  0  0  0  0  0  0  0  0
  -22.6320  -13.4980   21.2340 C   0  0  0  0  0  0  0  0  0  0  0  0
  -21.9620  -12.7810   22.1280 N   0  0  0  0  0  0  0  0  0  0  0  0
  -22.1550  -14.5280   20.7580 O   0  0  0  0  0  0  0  0  0  0  0  0
  -22.3620  -11.9500   22.5370 H   0  0  0  0  0  0  0  0  0  0  0  0
  -21.0370  -13.0700   22.4120 H   0  0  0  0  0  0  0  0  0  0  0  0
  -25.2030  -15.2050   20.3300 N   0  0  0  0  0  0  0  0  0  0  0  0
  -24.4530  -15.8520   20.5520 H   0  0  0  0  0  0  0  0  0  0  0  0
  -26.0380  -15.6630   19.9930 H   0  0  0  0  0  0  0  0  0  0  0  0
  -28.5260  -17.9380   18.1830 C   0  0  0  0  0  2  0  0  0  0  0  0
  -27.5640  -18.4760   19.2160 C   0  0  0  0  0  2  0  0  0  0  0  0
  -28.5600  -17.4040   19.6010 C   0  0  0  0  0  3  0  0  0  0  0  0
  1  2  1  0
  1 49  1  0
  3  6  1  0
  3  2  1  0
  4  3  1  0
  5  3  1  0
  7  8  1  0
  7  6  1  0
  8 10  1  0
  9 20  2  0
 10 15  1  0
 11 19  1  0
 11 21  1  0
 12 18  1  0
 12 14  1  0
 13 19  1  0
 14 13  1  0
 15 14  2  0
 16 17  1  0
 16 10  2  0
 17 12  2  0
 18 11  1  0
 19  9  1  0
 21 23  2  0
 22 21  1  0
 24 22  1  0
 25 34  2  0
 25 30  1  0
 26 22  1  0
 26 30  1  0
 27 26  1  0
 28 29  1  0
 28 27  1  0
 29 25  1  0
 30 31  2  0
 31 32  1  0
 33 32  2  0
 34 33  1  0
 35  9  1  0
 35 36  1  0
 35 45  1  0
 36 39  1  0
 37 41  1  0
 37 36  1  0
 38 37  2  0
 41 40  1  0
 43 41  1  0
 43 44  1  0
 43 42  1  0
 45 48  1  1
 45 46  1  0
 47 45  1  0
 50 51  1  0
 52 55  1  0
 53 52  2  0
 53 54  1  0
 54 50  2  0
 55 49  1  0
 55 51  2  0
 56 64  1  0
 57 62  1  0
 58 59  1  0
 58 57  1  0
 60 59  1  0
 60 69  1  0
 60 61  1  0
 62 56  1  0
 62 61  1  0
 63 56  2  0
 64 54  1  0
 64 65  1  0
 66 67  2  0
 67 86  1  0
 68 67  1  0
 68 71  1  0
 69 70  1  0
 69 66  1  0
 70 68  2  0
 71 72  1  0
 72 73  2  0
 74 77  1  0
 74 73  1  0
 75 74  2  0
 76 75  1  0
 76 71  2  0
 77 78  1  0
 78 79  1  0
 79 80  2  0
 81 80  1  0
 81 85  1  0
 82 81  2  0
 83 78  2  0
 83 82  1  0
 84 83  1  0
 86 87  1  0
 87 90  1  0
 87 89  1  0
 88 86  2  0
 91 66  1  0
 91 92  1  0
 93 91  1  0
 94 95  1  0
 94 96  1  0
 95 96  1  0
 96 53  1  0
M  ISO  4   7 101   8 101  56 100  64 100
M  END
>  <TORSDO>  (93) 
F 23

>  <SCORE>  (93) 
-12.344

>  <name>  (93) 
92

>  <ligand_id>  (93) 
92

>  <original_smiles>  (93) 
[H]c1c([H])c([H])c2c(c1[H])C([H])([H])C([H])([H])C([H])([H])C2([H])N([H])C(=O)C1([H])N(C(=O)C([H])(N([H])C(=O)C([H])(N([H])C([H])([H])[H])C([H])([H])[H])C(C([H])([H])[H])(C([H])([H])[H])C([H])([H])[H])C([H])([H])c2c([H])c(OC([H])([H])C([H])([H])[N+]([H])([H])C([H])([H])C([H])([H])Oc3c([H])c([H])c(N([H])C(=O)N4C([H])([H])C([H])([H])C([H])([H])C([H])(n5nc(-c6c([H])c([H])c(Oc7c([H])c([H])c(F)c([H])c7F)c([H])c6[H])c(C(=O)N([H])[H])c5N([H])[H])C4([H])[H])c(C4([H])C([H])([H])C4([H])[H])c3[H])c([H])c([H])c2C1([H])[H]

>  <smiles>  (93) 
[H]c1c([H])c([H])c2c(c1[H])C([H])([H])C([H])([H])C([H])([H])C2([H])N([H])C(=O)C1([H])N(C(=O)C([H])(N([H])C(=O)C([H])(N([H])C([H])([H])[H])C([H])([H])[H])C(C([H])([H])[H])(C([H])([H])[H])C([H])([H])[H])C([H])([H])c2c([H])c(OC([H])([H])C([H])([H])[N+]([H])([H])C([H])([H])C([H])([H])Oc3c([H])c([H])c(N([H])C(=O)N4C([H])([H])C([H])([H])C([H])([H])C([H])(n5nc(-c6c([H])c([H])c(Oc7c([H])c([H])c(F)c([H])c7F)c([H])c6[H])c(C(=O)N([H])[H])c5N([H])[H])C4([H])[H])c(C4([H])C([H])([H])C4([H])[H])c3[H])c([H])c([H])c2C1([H])[H]

$$$$
93:0:0
     RDKit          3D

 91 99  0  0  1  0  0  0  0  0999 V2000
  -27.6720  -23.3440   21.7550 C   0  0  0  0  0  2  0  0  0  0  0  0
  -29.5890  -21.9940   21.9240 C   0  0  0  0  0  2  0  0  0  0  0  0
  -28.1450  -23.2440   20.3070 C   0  0  0  0  0  3  0  0  0  0  0  0
  -29.2240  -21.9450   20.4230 C   0  0  0  0  0  3  0  0  0  0  0  0
  -28.8680  -23.1030   22.5450 N   0  0  0  0  0  0  0  0  0  0  0  0
  -28.6250  -22.8740   23.5100 H   0  0  0  0  0  0  0  0  0  0  0  0
  -28.9080  -20.4390   19.9860 N   0  0  0  0  0  4  0  0  0  0  0  0
  -29.1700  -20.3820   19.0160 H   0  0  0  0  0  0  0  0  0  0  0  0
  -27.9060  -20.3370   19.9900 H   0  0  0  0  0  0  0  0  0  0  0  0
  -29.4630  -19.1040   20.6730 C   0  0  0  0  0  2  0  0  0  0  0  0
  -29.6520  -17.6300   19.8580 C   0  0  0  0  0  2  0  0  0  0  0  0
  -30.4820  -14.9950   20.2330 C   0  0  0  0  0  0  0  0  0  0  0  0
  -30.3640  -12.6390   19.3160 C   0  0  0  0  0  2  0  0  0  0  0  0
  -29.4190  -12.6040   18.0900 C   0  0  0  0  0  2  0  0  0  0  0  0
  -27.9550  -12.4100   18.5290 C   0  0  0  0  0  2  0  0  0  0  0  0
  -27.5670  -13.3250   19.7220 C   0  0  0  0  0  3  0  0  0  0  0  0
  -28.6330  -13.3120   20.8400 C   0  0  0  0  0  2  0  0  0  0  0  0
  -29.9040  -13.7260   20.2300 N   0  0  0  0  0  0  0  0  0  0  0  0
  -31.6530  -15.0840   19.8440 O   0  0  0  0  0  0  0  0  0  0  0  0
  -29.6950  -16.1590   20.4670 N   0  0  0  0  0  0  0  0  0  0  0  0
  -28.8170  -15.9100   20.8990 H   0  0  0  0  0  0  0  0  0  0  0  0
  -25.1900  -13.9050   20.4690 C   0  0  0  0  0  0  0  0  0  0  0  0
  -24.1270  -13.1340   20.8440 C   0  0  0  0  0  0  0  0  0  0  0  0
  -24.5860  -11.7840   20.8120 C   0  0  0  0  0  0  0  0  0  0  0  0
  -26.2310  -13.0270   20.2250 N   0  0  0  0  0  0  0  0  0  0  0  0
  -25.8770  -11.7440   20.4960 N   0  0  0  0  0  0  0  0  0  0  0  0
  -23.8550  -10.5210   21.0040 C   0  0  0  0  0  0  0  0  0  0  0  0
  -24.2950   -9.5460   21.9280 C   0  0  0  0  0  3  0  0  0  0  0  0
  -23.5650   -8.3520   22.1100 C   0  0  0  0  0  3  0  0  0  0  0  0
  -22.3810   -8.1230   21.3710 C   0  0  0  0  0  0  0  0  0  0  0  0
  -21.9600   -9.0870   20.4370 C   0  0  0  0  0  3  0  0  0  0  0  0
  -22.6890  -10.2720   20.2530 C   0  0  0  0  0  3  0  0  0  0  0  0
  -21.6220   -6.9830   21.4650 O   0  0  0  0  0  0  0  0  0  0  0  0
  -21.5940   -6.2300   22.6100 C   0  0  0  0  0  0  0  0  0  0  0  0
  -21.2030   -6.7780   23.8520 C   0  0  0  0  0  3  0  0  0  0  0  0
  -21.1200   -5.9510   24.9900 C   0  0  0  0  0  3  0  0  0  0  0  0
  -21.4190   -4.5780   24.8890 C   0  0  0  0  0  0  0  0  0  0  0  0
  -21.8050   -4.0320   23.6540 C   0  0  0  0  0  3  0  0  0  0  0  0
  -21.8880   -4.8550   22.5170 C   0  0  0  0  0  0  0  0  0  0  0  0
  -22.2400   -4.3190   21.3230 F   0  0  0  0  0  0  0  0  0  0  0  0
  -21.3320   -3.7830   25.9810 F   0  0  0  0  0  0  0  0  0  0  0  0
  -22.7320  -13.6150   21.1220 C   0  0  0  0  0  0  0  0  0  0  0  0
  -22.0070  -12.9210   21.9920 N   0  0  0  0  0  0  0  0  0  0  0  0
  -22.2940  -14.6400   20.5990 O   0  0  0  0  0  0  0  0  0  0  0  0
  -22.3720  -12.0880   22.4280 H   0  0  0  0  0  0  0  0  0  0  0  0
  -21.0720  -13.2250   22.2240 H   0  0  0  0  0  0  0  0  0  0  0  0
  -25.3530  -15.2760   20.2830 N   0  0  0  0  0  0  0  0  0  0  0  0
  -24.5770  -15.9220   20.3810 H   0  0  0  0  0  0  0  0  0  0  0  0
  -26.1720  -15.7040   19.8770 H   0  0  0  0  0  0  0  0  0  0  0  0
  -28.4210  -24.8080   19.7010 C   0  0  0  0  0  2  0  0  0  0  0  0
  -28.2850  -26.2350   20.3110 O   0  0  0  0  0  0  0  0  0  0  0  0
  -24.6480  -31.8930   23.2360 C   0  0  0  0  0  0  0  0  0  0  0  0
  -27.2080  -27.1820   20.1920 C   0  0  0  0  0  0  0  0  0  0  0  0
  -23.4370  -30.4930   21.6050 C   0  0  0  0  0  3  0  0  0  0  0  0
  -24.8760  -28.9160   20.1620 C   0  0  0  0  0  0  0  0  0  0  0  0
  -25.9840  -30.7620   21.4200 C   0  0  0  0  0  2  0  0  0  0  0  0
  -26.0520  -29.3670   20.7750 C   0  0  0  0  0  0  0  0  0  0  0  0
  -27.2110  -28.5080   20.7840 C   0  0  0  0  0  3  0  0  0  0  0  0
  -26.0140  -26.8330   19.5290 C   0  0  0  0  0  3  0  0  0  0  0  0
  -24.8730  -27.6670   19.5190 C   0  0  0  0  0  3  0  0  0  0  0  0
  -23.6430  -29.8080   20.2250 C   0  0  0  0  0  2  0  0  0  0  0  0
  -24.7100  -31.0710   22.1420 N   0  0  0  0  0  0  0  0  0  0  0  0
  -23.5660  -32.1800   23.7700 O   0  0  0  0  0  0  0  0  0  0  0  0
  -22.7650  -29.4910   22.5760 C   0  0  0  0  0  0  0  0  0  0  0  0
  -21.4370  -29.3200   22.4590 N   0  0  0  0  0  0  0  0  0  0  0  0
  -23.4420  -28.8670   23.3980 O   0  0  0  0  0  0  0  0  0  0  0  0
  -20.9450  -29.8800   21.7750 H   0  0  0  0  0  0  0  0  0  0  0  0
  -18.0610  -28.1080   22.9680 C   0  0  0  0  0  0  0  0  0  0  0  0
  -20.6190  -28.3840   23.2340 C   0  0  0  0  0  3  0  0  0  0  0  0
  -20.7260  -26.9490   22.6690 C   0  0  0  0  0  2  0  0  0  0  0  0
  -19.6270  -26.6140   21.6570 C   0  0  0  0  0  2  0  0  0  0  0  0
  -18.2460  -26.7550   22.3020 C   0  0  0  0  0  2  0  0  0  0  0  0
  -19.1770  -28.8790   23.3920 C   0  0  0  0  0  0  0  0  0  0  0  0
  -18.9510  -30.1440   23.9800 C   0  0  0  0  0  3  0  0  0  0  0  0
  -17.6450  -30.6380   24.1440 C   0  0  0  0  0  3  0  0  0  0  0  0
  -16.5440  -29.8650   23.7340 C   0  0  0  0  0  3  0  0  0  0  0  0
  -16.7530  -28.6020   23.1530 C   0  0  0  0  0  3  0  0  0  0  0  0
  -25.9320  -32.5290   23.8560 C   0  0  0  0  0  3  0  0  0  0  0  0
  -26.4500  -31.7590   25.1340 C   0  0  1  0  0  0  0  0  0  0  0  0
  -25.3590  -31.5300   26.2070 C   0  0  0  0  0  1  0  0  0  0  0  0
  -27.0250  -30.3770   24.7470 C   0  0  0  0  0  1  0  0  0  0  0  0
  -27.6080  -32.5500   25.7870 C   0  0  0  0  0  1  0  0  0  0  0  0
  -25.6240  -33.9280   24.1910 N   0  0  0  0  0  0  0  0  0  0  0  0
  -25.9580  -34.9850   23.4370 C   0  0  0  0  0  0  0  0  0  0  0  0
  -26.6220  -34.8840   22.4030 O   0  0  0  0  0  0  0  0  0  0  0  0
  -25.0270  -34.0820   24.9910 H   0  0  0  0  0  0  0  0  0  0  0  0
  -24.2330  -36.7880   23.1040 C   0  0  0  0  0  1  0  0  0  0  0  0
  -25.4810  -36.3760   23.9020 C   0  0  0  0  0  3  0  0  0  0  0  0
  -27.6280  -37.2520   24.7120 C   0  0  0  0  0  1  0  0  0  0  0  0
  -26.5170  -37.4250   23.7790 N   0  0  0  0  0  0  0  0  0  0  0  0
  -26.1170  -38.3480   23.9280 H   0  0  0  0  0  0  0  0  0  0  0  0
  1  5  1  0
  2  5  1  0
  3 50  1  0
  3  4  1  0
  3  1  1  0
  4  7  1  0
  4  2  1  0
  5  6  1  0
  7  9  1  0
  7 10  1  0
  8  7  1  0
 11 20  1  0
 11 10  1  0
 12 20  1  0
 13 18  1  0
 14 15  1  0
 14 13  1  0
 16 15  1  0
 16 25  1  0
 16 17  1  0
 18 12  1  0
 18 17  1  0
 19 12  2  0
 20 21  1  0
 22 23  2  0
 23 42  1  0
 24 23  1  0
 24 27  1  0
 25 22  1  0
 25 26  1  0
 26 24  2  0
 27 28  1  0
 28 29  2  0
 30 33  1  0
 30 29  1  0
 31 30  2  0
 32 31  1  0
 32 27  2  0
 33 34  1  0
 34 35  1  0
 35 36  2  0
 37 36  1  0
 37 41  1  0
 38 37  2  0
 39 34  2  0
 39 38  1  0
 40 39  1  0
 42 43  1  0
 43 46  1  0
 43 45  1  0
 44 42  2  0
 47 48  1  0
 47 22  1  0
 49 47  1  0
 50 51  1  0
 52 63  2  0
 53 51  1  0
 53 58  1  0
 54 62  1  0
 54 64  1  0
 55 61  1  0
 55 57  1  0
 56 62  1  0
 57 58  2  0
 57 56  1  0
 59 53  2  0
 60 59  1  0
 60 55  2  0
 61 54  1  0
 62 52  1  0
 64 66  2  0
 65 64  1  0
 67 65  1  0
 68 77  2  0
 68 73  1  0
 69 65  1  0
 69 73  1  0
 70 69  1  0
 71 72  1  0
 71 70  1  0
 72 68  1  0
 73 74  2  0
 74 75  1  0
 76 75  2  0
 77 76  1  0
 78 52  1  0
 78 83  1  0
 78 79  1  0
 79 82  1  1
 79 80  1  0
 81 79  1  0
 83 86  1  0
 84 88  1  0
 84 83  1  0
 85 84  2  0
 88 87  1  0
 90 88  1  0
 90 91  1  0
 90 89  1  0
M  ISO  4  12 100  20 100  50 101  51 101
M  END
>  <TORSDO>  (94) 
F 20

>  <SCORE>  (94) 
-15.236

>  <name>  (94) 
93

>  <ligand_id>  (94) 
93

>  <original_smiles>  (94) 
[H]c1c([H])c([H])c2c(c1[H])C([H])([H])C([H])([H])C([H])([H])C2([H])N([H])C(=O)C1([H])N(C(=O)C([H])(N([H])C(=O)C([H])(N([H])C([H])([H])[H])C([H])([H])[H])C(C([H])([H])[H])(C([H])([H])[H])C([H])([H])[H])C([H])([H])c2c([H])c(OC([H])([H])C3([H])C([H])([H])N([H])C([H])([H])C3([H])[N+]([H])([H])C([H])([H])C([H])([H])N([H])C(=O)N3C([H])([H])C([H])([H])C([H])([H])C([H])(n4nc(-c5c([H])c([H])c(Oc6c([H])c([H])c(F)c([H])c6F)c([H])c5[H])c(C(=O)N([H])[H])c4N([H])[H])C3([H])[H])c([H])c([H])c2C1([H])[H]

>  <smiles>  (94) 
[H]c1c([H])c([H])c2c(c1[H])C([H])([H])C([H])([H])C([H])([H])C2([H])N([H])C(=O)C1([H])N(C(=O)C([H])(N([H])C(=O)C([H])(N([H])C([H])([H])[H])C([H])([H])[H])C(C([H])([H])[H])(C([H])([H])[H])C([H])([H])[H])C([H])([H])c2c([H])c(OC([H])([H])C3([H])C([H])([H])N([H])C([H])([H])C3([H])[N+]([H])([H])C([H])([H])C([H])([H])N([H])C(=O)N3C([H])([H])C([H])([H])C([H])([H])C([H])(n4nc(-c5c([H])c([H])c(Oc6c([H])c([H])c(F)c([H])c6F)c([H])c5[H])c(C(=O)N([H])[H])c4N([H])[H])C3([H])[H])c([H])c([H])c2C1([H])[H]

$$$$
94:0:0
     RDKit          3D

 98107  0  0  1  0  0  0  0  0999 V2000
  -30.1830  -19.9050   15.4090 C   0  0  0  0  0  2  0  0  0  0  0  0
  -30.6980  -21.3410   15.5470 C   0  0  0  0  0  2  0  0  0  0  0  0
  -29.5430  -19.4200   16.7170 C   0  0  0  0  0  2  0  0  0  0  0  0
  -31.6180  -21.5000   16.7720 C   0  0  0  0  0  2  0  0  0  0  0  0
  -30.5560  -19.4920   17.8950 C   0  0  0  0  0  3  0  0  0  0  0  0
  -30.9740  -20.9780   18.0820 C   0  0  0  0  0  3  0  0  0  0  0  0
  -30.0510  -18.9160   19.1770 N   0  0  0  0  0  4  0  0  0  0  0  0
  -29.1220  -19.2630   19.3580 H   0  0  0  0  0  0  0  0  0  0  0  0
  -30.6350  -19.3060   19.9010 H   0  0  0  0  0  0  0  0  0  0  0  0
  -29.0510  -16.6920   18.5210 C   0  0  0  0  0  1  0  0  0  0  0  0
  -30.1190  -17.4320   19.3580 C   0  0  0  0  0  3  0  0  0  0  0  0
  -30.0640  -17.0550   20.8740 C   0  0  0  0  0  2  0  0  0  0  0  0
  -30.6540  -14.6060   20.7820 C   0  0  0  0  0  0  0  0  0  0  0  0
  -30.4430  -12.4130   19.6890 C   0  0  0  0  0  2  0  0  0  0  0  0
  -29.5620  -12.5770   18.4310 C   0  0  0  0  0  2  0  0  0  0  0  0
  -28.0630  -12.4620   18.7830 C   0  0  0  0  0  2  0  0  0  0  0  0
  -27.6550  -13.3180   20.0130 C   0  0  0  0  0  3  0  0  0  0  0  0
  -28.6560  -13.1200   21.1770 C   0  0  0  0  0  2  0  0  0  0  0  0
  -30.0110  -13.4150   20.6720 N   0  0  0  0  0  0  0  0  0  0  0  0
  -31.7970  -14.8100   20.3660 O   0  0  0  0  0  0  0  0  0  0  0  0
  -29.8630  -15.6230   21.1510 N   0  0  0  0  0  0  0  0  0  0  0  0
  -28.9510  -15.3580   21.4930 H   0  0  0  0  0  0  0  0  0  0  0  0
  -25.2180  -13.9450   20.5600 C   0  0  0  0  0  0  0  0  0  0  0  0
  -24.1310  -13.1810   20.8860 C   0  0  0  0  0  0  0  0  0  0  0  0
  -24.5940  -11.8290   20.9130 C   0  0  0  0  0  0  0  0  0  0  0  0
  -26.2760  -13.0580   20.4160 N   0  0  0  0  0  0  0  0  0  0  0  0
  -25.8990  -11.7840   20.6820 N   0  0  0  0  0  0  0  0  0  0  0  0
  -23.8600  -10.5710   21.0900 C   0  0  0  0  0  0  0  0  0  0  0  0
  -24.2620   -9.6110   22.0430 C   0  0  0  0  0  3  0  0  0  0  0  0
  -23.5300   -8.4160   22.2090 C   0  0  0  0  0  3  0  0  0  0  0  0
  -22.3820   -8.1730   21.4180 C   0  0  0  0  0  0  0  0  0  0  0  0
  -21.9980   -9.1220   20.4550 C   0  0  0  0  0  3  0  0  0  0  0  0
  -22.7310  -10.3090   20.2880 C   0  0  0  0  0  3  0  0  0  0  0  0
  -21.6230   -7.0290   21.4910 O   0  0  0  0  0  0  0  0  0  0  0  0
  -21.5580   -6.2840   22.6410 C   0  0  0  0  0  0  0  0  0  0  0  0
  -21.1270   -6.8370   23.8660 C   0  0  0  0  0  3  0  0  0  0  0  0
  -21.0080   -6.0170   25.0060 C   0  0  0  0  0  3  0  0  0  0  0  0
  -21.3090   -4.6450   24.9210 C   0  0  0  0  0  0  0  0  0  0  0  0
  -21.7320   -4.0910   23.7010 C   0  0  0  0  0  3  0  0  0  0  0  0
  -21.8540   -4.9080   22.5640 C   0  0  0  0  0  0  0  0  0  0  0  0
  -22.2410   -4.3640   21.3850 F   0  0  0  0  0  0  0  0  0  0  0  0
  -21.1890   -3.8550   26.0140 F   0  0  0  0  0  0  0  0  0  0  0  0
  -22.7200  -13.6620   21.0670 C   0  0  0  0  0  0  0  0  0  0  0  0
  -21.9440  -12.9870   21.9090 N   0  0  0  0  0  0  0  0  0  0  0  0
  -22.3100  -14.6730   20.4990 O   0  0  0  0  0  0  0  0  0  0  0  0
  -22.2840  -12.1680   22.3930 H   0  0  0  0  0  0  0  0  0  0  0  0
  -20.9960  -13.2940   22.0710 H   0  0  0  0  0  0  0  0  0  0  0  0
  -25.3890  -15.3110   20.3540 N   0  0  0  0  0  0  0  0  0  0  0  0
  -24.6130  -15.9610   20.4000 H   0  0  0  0  0  0  0  0  0  0  0  0
  -26.2520  -15.7450   20.0520 H   0  0  0  0  0  0  0  0  0  0  0  0
  -29.7830  -21.6960   18.4320 O   0  0  0  0  0  0  0  0  0  0  0  0
  -28.7540  -25.3210   18.2820 C   0  0  0  0  0  2  0  0  0  0  0  0
  -29.4660  -24.7630   20.6280 C   0  0  0  0  0  2  0  0  0  0  0  0
  -28.8780  -23.8410   17.8900 C   0  0  0  0  0  2  0  0  0  0  0  0
  -29.5780  -23.2700   20.2550 C   0  0  0  0  0  2  0  0  0  0  0  0
  -28.4030  -25.4700   19.7690 C   0  0  0  0  0  3  0  0  0  0  0  0
  -29.9000  -23.0800   18.7610 C   0  0  0  0  0  3  0  0  0  0  0  0
  -28.3680  -26.8550   20.1120 O   0  0  0  0  0  0  0  0  0  0  0  0
  -24.5750  -31.9600   23.2460 C   0  0  0  0  0  0  0  0  0  0  0  0
  -27.1670  -27.5390   20.0980 C   0  0  0  0  0  0  0  0  0  0  0  0
  -23.3390  -30.5690   21.6160 C   0  0  0  0  0  3  0  0  0  0  0  0
  -24.7650  -29.0380   20.1590 C   0  0  0  0  0  0  0  0  0  0  0  0
  -25.8600  -30.9270   21.3770 C   0  0  0  0  0  2  0  0  0  0  0  0
  -25.9310  -29.5590   20.7320 C   0  0  0  0  0  0  0  0  0  0  0  0
  -27.1300  -28.8150   20.7010 C   0  0  0  0  0  3  0  0  0  0  0  0
  -25.9810  -27.0340   19.5100 C   0  0  0  0  0  3  0  0  0  0  0  0
  -24.7850  -27.7740   19.5470 C   0  0  0  0  0  3  0  0  0  0  0  0
  -23.5230  -29.8960   20.2290 C   0  0  0  0  0  2  0  0  0  0  0  0
  -24.6100  -31.1670   22.1390 N   0  0  0  0  0  0  0  0  0  0  0  0
  -23.5040  -32.2320   23.8060 O   0  0  0  0  0  0  0  0  0  0  0  0
  -22.7040  -29.5430   22.5820 C   0  0  0  0  0  0  0  0  0  0  0  0
  -21.3800  -29.3540   22.4660 N   0  0  0  0  0  0  0  0  0  0  0  0
  -23.3990  -28.9210   23.3900 O   0  0  0  0  0  0  0  0  0  0  0  0
  -20.8810  -29.9090   21.7840 H   0  0  0  0  0  0  0  0  0  0  0  0
  -18.0200  -28.1270   22.9700 C   0  0  0  0  0  0  0  0  0  0  0  0
  -20.5740  -28.4130   23.2430 C   0  0  0  0  0  3  0  0  0  0  0  0
  -20.6940  -26.9790   22.6750 C   0  0  0  0  0  2  0  0  0  0  0  0
  -19.5960  -26.6380   21.6630 C   0  0  0  0  0  2  0  0  0  0  0  0
  -18.2110  -26.7730   22.3040 C   0  0  0  0  0  2  0  0  0  0  0  0
  -19.1300  -28.9020   23.3960 C   0  0  0  0  0  0  0  0  0  0  0  0
  -18.8980  -30.1680   23.9760 C   0  0  0  0  0  3  0  0  0  0  0  0
  -17.5890  -30.6580   24.1360 C   0  0  0  0  0  3  0  0  0  0  0  0
  -16.4930  -29.8790   23.7270 C   0  0  0  0  0  3  0  0  0  0  0  0
  -16.7100  -28.6140   23.1480 C   0  0  0  0  0  3  0  0  0  0  0  0
  -25.8730  -32.5850   23.8470 C   0  0  0  0  0  3  0  0  0  0  0  0
  -25.5750  -33.9830   24.1860 N   0  0  0  0  0  0  0  0  0  0  0  0
  -25.9020  -35.0360   23.4260 C   0  0  0  0  0  0  0  0  0  0  0  0
  -26.5600  -34.9340   22.3860 O   0  0  0  0  0  0  0  0  0  0  0  0
  -24.9940  -34.1380   24.9970 H   0  0  0  0  0  0  0  0  0  0  0  0
  -24.1770  -36.8340   23.0930 C   0  0  0  0  0  1  0  0  0  0  0  0
  -25.4250  -36.4250   23.8930 C   0  0  0  0  0  3  0  0  0  0  0  0
  -27.5710  -37.2950   24.7050 C   0  0  0  0  0  1  0  0  0  0  0  0
  -26.4600  -37.4740   23.7750 N   0  0  0  0  0  0  0  0  0  0  0  0
  -26.0590  -38.3950   23.9340 H   0  0  0  0  0  0  0  0  0  0  0  0
  -26.4120  -31.8070   25.1090 C   0  0  1  0  0  0  0  0  0  0  0  0
  -25.3380  -31.5680   26.1960 C   0  0  0  0  0  1  0  0  0  0  0  0
  -26.9820  -30.4310   24.6950 C   0  0  0  0  0  1  0  0  0  0  0  0
  -27.5760  -32.5950   25.7540 C   0  0  0  0  0  1  0  0  0  0  0  0
  1  2  1  0
  1  3  1  0
  2  4  1  0
  3  5  1  0
  4  6  1  0
  5  6  1  0
  5  7  1  0
  6 51  1  0
  7  8  1  0
  7 11  1  0
  7  9  1  0
 11 10  1  0
 11 12  1  0
 12 21  1  0
 13 21  1  0
 14 19  1  0
 15 16  1  0
 15 14  1  0
 17 16  1  0
 17 26  1  0
 17 18  1  0
 19 13  1  0
 19 18  1  0
 20 13  2  0
 21 22  1  0
 23 24  2  0
 24 25  1  0
 24 43  1  0
 25 28  1  0
 26 23  1  0
 26 27  1  0
 27 25  2  0
 28 29  1  0
 29 30  2  0
 31 34  1  0
 31 30  1  0
 32 31  2  0
 33 32  1  0
 33 28  2  0
 34 35  1  0
 35 36  1  0
 36 37  2  0
 38 37  1  0
 38 42  1  0
 39 38  2  0
 40 35  2  0
 40 39  1  0
 41 40  1  0
 43 44  1  0
 44 47  1  0
 44 46  1  0
 45 43  2  0
 48 49  1  0
 48 23  1  0
 50 48  1  0
 52 56  1  0
 54 52  1  0
 54 57  1  0
 55 53  1  0
 56 58  1  0
 56 53  1  0
 57 51  1  0
 57 55  1  0
 59 70  2  0
 60 58  1  0
 60 65  1  0
 61 69  1  0
 61 71  1  0
 62 68  1  0
 62 64  1  0
 63 69  1  0
 64 63  1  0
 65 64  2  0
 66 67  1  0
 66 60  2  0
 67 62  2  0
 68 61  1  0
 69 59  1  0
 71 73  2  0
 72 71  1  0
 74 72  1  0
 75 84  2  0
 75 80  1  0
 76 72  1  0
 76 80  1  0
 77 76  1  0
 78 79  1  0
 78 77  1  0
 79 75  1  0
 80 81  2  0
 81 82  1  0
 83 82  2  0
 84 83  1  0
 85 59  1  0
 85 86  1  0
 85 95  1  0
 86 89  1  0
 87 91  1  0
 87 86  1  0
 88 87  2  0
 91 90  1  0
 93 91  1  0
 93 94  1  0
 93 92  1  0
 95 98  1  1
 95 96  1  0
 97 95  1  0
M  ISO  4  13 100  21 100  56 101  58 101
M  END
>  <TORSDO>  (95) 
F 21

>  <SCORE>  (95) 
-13.258

>  <name>  (95) 
94

>  <ligand_id>  (95) 
94

>  <original_smiles>  (95) 
[H]c1c([H])c([H])c2c(c1[H])C([H])([H])C([H])([H])C([H])([H])C2([H])N([H])C(=O)C1([H])N(C(=O)C([H])(N([H])C(=O)C([H])(N([H])C([H])([H])[H])C([H])([H])[H])C(C([H])([H])[H])(C([H])([H])[H])C([H])([H])[H])C([H])([H])c2c([H])c(OC3([H])C([H])([H])C([H])([H])C([H])(OC4([H])C([H])([H])C([H])([H])C([H])([H])C([H])([H])C4([H])[N+]([H])([H])C([H])(C([H])([H])[H])C([H])([H])N([H])C(=O)N4C([H])([H])C([H])([H])C([H])([H])C([H])(n5nc(-c6c([H])c([H])c(Oc7c([H])c([H])c(F)c([H])c7F)c([H])c6[H])c(C(=O)N([H])[H])c5N([H])[H])C4([H])[H])C([H])([H])C3([H])[H])c([H])c([H])c2C1([H])[H]

>  <smiles>  (95) 
[H]c1c([H])c([H])c2c(c1[H])C([H])([H])C([H])([H])C([H])([H])C2([H])N([H])C(=O)C1([H])N(C(=O)C([H])(N([H])C(=O)C([H])(N([H])C([H])([H])[H])C([H])([H])[H])C(C([H])([H])[H])(C([H])([H])[H])C([H])([H])[H])C([H])([H])c2c([H])c(OC3([H])C([H])([H])C([H])([H])C([H])(OC4([H])C([H])([H])C([H])([H])C([H])([H])C([H])([H])C4([H])[N+]([H])([H])C([H])(C([H])([H])[H])C([H])([H])N([H])C(=O)N4C([H])([H])C([H])([H])C([H])([H])C([H])(n5nc(-c6c([H])c([H])c(Oc7c([H])c([H])c(F)c([H])c7F)c([H])c6[H])c(C(=O)N([H])[H])c5N([H])[H])C4([H])[H])C([H])([H])C3([H])[H])c([H])c([H])c2C1([H])[H]

$$$$
95:0:0
     RDKit          3D

 93101  0  0  1  0  0  0  0  0999 V2000
  -29.0470  -22.6320   19.0190 C   0  0  0  0  0  3  0  0  0  0  0  0
  -29.0630  -24.0140   19.3110 C   0  0  0  0  0  3  0  0  0  0  0  0
  -28.2630  -22.1780   21.2750 C   0  0  0  0  0  3  0  0  0  0  0  0
  -28.6450  -21.7020   20.0030 C   0  0  0  0  0  0  0  0  0  0  0  0
  -28.6800  -24.4950   20.5830 C   0  0  0  0  0  0  0  0  0  0  0  0
  -28.2840  -23.5590   21.5750 C   0  0  0  0  0  0  0  0  0  0  0  0
  -27.8750  -23.9990   22.9720 C   0  0  0  0  0  1  0  0  0  0  0  0
  -28.5590  -20.2080   19.6980 C   0  0  0  0  0  2  0  0  0  0  0  0
  -29.6340  -19.4180   20.3430 N   0  0  0  0  0  4  0  0  0  0  0  0
  -30.4910  -19.5850   19.8410 H   0  0  0  0  0  0  0  0  0  0  0  0
  -29.7570  -19.7600   21.2820 H   0  0  0  0  0  0  0  0  0  0  0  0
  -29.3510  -17.9620   20.3970 C   0  0  0  0  0  2  0  0  0  0  0  0
  -30.4580  -17.1270   21.0870 C   0  0  0  0  0  2  0  0  0  0  0  0
  -30.7760  -14.6660   20.6210 C   0  0  0  0  0  0  0  0  0  0  0  0
  -30.4610  -12.4860   19.5090 C   0  0  0  0  0  2  0  0  0  0  0  0
  -29.5960  -12.6350   18.2340 C   0  0  0  0  0  2  0  0  0  0  0  0
  -28.1040  -12.9350   18.5190 C   0  0  0  0  0  2  0  0  0  0  0  0
  -27.7570  -12.8440   20.0060 C   0  0  0  0  0  3  0  0  0  0  0  0
  -28.7380  -13.2970   21.0830 C   0  0  0  0  0  2  0  0  0  0  0  0
  -30.0670  -13.5200   20.4860 N   0  0  0  0  0  0  0  0  0  0  0  0
  -31.9120  -14.8170   20.1740 O   0  0  0  0  0  0  0  0  0  0  0  0
  -30.0920  -15.7080   21.1170 N   0  0  0  0  0  0  0  0  0  0  0  0
  -29.1580  -15.4890   21.4370 H   0  0  0  0  0  0  0  0  0  0  0  0
  -25.3260  -13.8060   20.5180 C   0  0  0  0  0  0  0  0  0  0  0  0
  -24.2170  -13.0750   20.8810 C   0  0  0  0  0  0  0  0  0  0  0  0
  -24.6360  -11.7150   20.8930 C   0  0  0  0  0  0  0  0  0  0  0  0
  -26.3460  -12.8590   20.3670 N   0  0  0  0  0  0  0  0  0  0  0  0
  -25.9050  -11.6210   20.6220 N   0  0  0  0  0  0  0  0  0  0  0  0
  -23.9330  -10.4570   21.0870 C   0  0  0  0  0  0  0  0  0  0  0  0
  -24.3910   -9.5100   22.0290 C   0  0  0  0  0  3  0  0  0  0  0  0
  -23.7100   -8.2880   22.1930 C   0  0  0  0  0  3  0  0  0  0  0  0
  -22.5630   -8.0150   21.4120 C   0  0  0  0  0  0  0  0  0  0  0  0
  -22.1330   -8.9510   20.4550 C   0  0  0  0  0  3  0  0  0  0  0  0
  -22.8150  -10.1640   20.2880 C   0  0  0  0  0  3  0  0  0  0  0  0
  -21.8420   -6.8500   21.4920 O   0  0  0  0  0  0  0  0  0  0  0  0
  -21.7830   -6.1260   22.6530 C   0  0  0  0  0  0  0  0  0  0  0  0
  -21.3020   -6.6810   23.8580 C   0  0  0  0  0  3  0  0  0  0  0  0
  -21.1990   -5.8770   25.0110 C   0  0  0  0  0  3  0  0  0  0  0  0
  -21.5610   -4.5180   24.9570 C   0  0  0  0  0  0  0  0  0  0  0  0
  -22.0340   -3.9620   23.7550 C   0  0  0  0  0  3  0  0  0  0  0  0
  -22.1440   -4.7660   22.6060 C   0  0  0  0  0  0  0  0  0  0  0  0
  -22.5840   -4.2230   21.4440 F   0  0  0  0  0  0  0  0  0  0  0  0
  -21.4490   -3.7390   26.0590 F   0  0  0  0  0  0  0  0  0  0  0  0
  -22.8170  -13.5630   21.1210 C   0  0  0  0  0  0  0  0  0  0  0  0
  -22.0710  -12.8690   21.9780 N   0  0  0  0  0  0  0  0  0  0  0  0
  -22.3860  -14.5780   20.5780 O   0  0  0  0  0  0  0  0  0  0  0  0
  -22.4310  -12.0460   22.4400 H   0  0  0  0  0  0  0  0  0  0  0  0
  -21.1260  -13.1650   22.1770 H   0  0  0  0  0  0  0  0  0  0  0  0
  -25.5380  -15.1670   20.3090 N   0  0  0  0  0  0  0  0  0  0  0  0
  -26.4020  -15.5430   19.9390 H   0  0  0  0  0  0  0  0  0  0  0  0
  -24.7840  -15.8440   20.3320 H   0  0  0  0  0  0  0  0  0  0  0  0
  -28.7690  -25.9940   20.8900 C   0  0  0  0  0  2  0  0  0  0  0  0
  -28.5310  -26.8470   19.7650 O   0  0  0  0  0  0  0  0  0  0  0  0
  -24.7080  -31.8530   23.0940 C   0  0  0  0  0  0  0  0  0  0  0  0
  -27.3590  -27.5570   19.8370 C   0  0  0  0  0  0  0  0  0  0  0  0
  -23.4900  -30.4710   21.4450 C   0  0  0  0  0  3  0  0  0  0  0  0
  -24.9370  -28.9980   19.9480 C   0  0  0  0  0  0  0  0  0  0  0  0
  -26.0020  -30.8850   21.1990 C   0  0  0  0  0  2  0  0  0  0  0  0
  -26.0970  -29.5340   20.5230 C   0  0  0  0  0  0  0  0  0  0  0  0
  -27.3130  -28.8190   20.4660 C   0  0  0  0  0  3  0  0  0  0  0  0
  -26.1890  -27.0250   19.2610 C   0  0  0  0  0  3  0  0  0  0  0  0
  -24.9760  -27.7410   19.3160 C   0  0  0  0  0  3  0  0  0  0  0  0
  -23.6780  -29.8310   20.0430 C   0  0  0  0  0  2  0  0  0  0  0  0
  -24.7530  -31.0820   21.9710 N   0  0  0  0  0  0  0  0  0  0  0  0
  -23.6360  -32.0900   23.6670 O   0  0  0  0  0  0  0  0  0  0  0  0
  -22.8790  -29.4150   22.3930 C   0  0  0  0  0  0  0  0  0  0  0  0
  -21.5550  -29.2130   22.2890 N   0  0  0  0  0  0  0  0  0  0  0  0
  -23.5930  -28.7800   23.1750 O   0  0  0  0  0  0  0  0  0  0  0  0
  -21.0430  -29.7750   21.6240 H   0  0  0  0  0  0  0  0  0  0  0  0
  -18.2120  -27.9510   22.8240 C   0  0  0  0  0  0  0  0  0  0  0  0
  -20.7700  -28.2440   23.0530 C   0  0  0  0  0  3  0  0  0  0  0  0
  -20.8860  -26.8300   22.4390 C   0  0  0  0  0  2  0  0  0  0  0  0
  -19.7690  -26.5140   21.4390 C   0  0  0  0  0  2  0  0  0  0  0  0
  -18.3980  -26.6210   22.1130 C   0  0  0  0  0  2  0  0  0  0  0  0
  -19.3260  -28.7200   23.2510 C   0  0  0  0  0  0  0  0  0  0  0  0
  -19.1000  -29.9640   23.8770 C   0  0  0  0  0  3  0  0  0  0  0  0
  -17.7910  -30.4410   24.0800 C   0  0  0  0  0  3  0  0  0  0  0  0
  -16.6910  -29.6670   23.6700 C   0  0  0  0  0  3  0  0  0  0  0  0
  -16.9020  -28.4240   23.0470 C   0  0  0  0  0  3  0  0  0  0  0  0
  -25.9990  -32.4870   23.7020 C   0  0  0  0  0  3  0  0  0  0  0  0
  -25.6680  -33.8630   24.0960 N   0  0  0  0  0  0  0  0  0  0  0  0
  -25.9730  -34.9540   23.3790 C   0  0  0  0  0  0  0  0  0  0  0  0
  -26.6320  -34.9070   22.3360 O   0  0  0  0  0  0  0  0  0  0  0  0
  -25.0740  -33.9720   24.9050 H   0  0  0  0  0  0  0  0  0  0  0  0
  -24.2200  -36.7360   23.1090 C   0  0  0  0  0  1  0  0  0  0  0  0
  -25.4660  -36.3110   23.9010 C   0  0  0  0  0  3  0  0  0  0  0  0
  -27.5870  -37.1870   24.7750 C   0  0  0  0  0  1  0  0  0  0  0  0
  -26.4830  -37.3830   23.8380 N   0  0  0  0  0  0  0  0  0  0  0  0
  -26.0640  -38.2900   24.0240 H   0  0  0  0  0  0  0  0  0  0  0  0
  -26.5760  -31.6770   24.9260 C   0  0  1  0  0  0  0  0  0  0  0  0
  -25.5250  -31.3700   26.0180 C   0  0  0  0  0  1  0  0  0  0  0  0
  -27.1740  -30.3310   24.4550 C   0  0  0  0  0  1  0  0  0  0  0  0
  -27.7320  -32.4690   25.5790 C   0  0  0  0  0  1  0  0  0  0  0  0
  1  2  2  0
  1  4  1  0
  2  5  1  0
  3  6  1  0
  4  3  2  0
  5 52  1  0
  5  6  2  0
  6  7  1  0
  8  4  1  0
  8  9  1  0
  9 12  1  0
  9 11  1  0
 10  9  1  0
 12 13  1  0
 13 22  1  0
 14 22  1  0
 15 20  1  0
 16 17  1  0
 16 15  1  0
 18 17  1  0
 18 27  1  0
 18 19  1  0
 20 14  1  0
 20 19  1  0
 21 14  2  0
 22 23  1  0
 24 25  2  0
 25 26  1  0
 25 44  1  0
 26 29  1  0
 27 24  1  0
 27 28  1  0
 28 26  2  0
 29 30  1  0
 30 31  2  0
 32 35  1  0
 32 31  1  0
 33 32  2  0
 34 33  1  0
 34 29  2  0
 35 36  1  0
 36 37  1  0
 37 38  2  0
 39 38  1  0
 39 43  1  0
 40 39  2  0
 41 36  2  0
 41 40  1  0
 42 41  1  0
 44 45  1  0
 45 48  1  0
 45 47  1  0
 46 44  2  0
 49 51  1  0
 49 24  1  0
 50 49  1  0
 53 55  1  0
 53 52  1  0
 54 65  2  0
 55 60  1  0
 56 64  1  0
 56 66  1  0
 57 63  1  0
 57 59  1  0
 58 64  1  0
 59 58  1  0
 60 59  2  0
 61 62  1  0
 61 55  2  0
 62 57  2  0
 63 56  1  0
 64 54  1  0
 66 68  2  0
 67 66  1  0
 69 67  1  0
 70 79  2  0
 70 75  1  0
 71 67  1  0
 71 75  1  0
 72 71  1  0
 73 74  1  0
 73 72  1  0
 74 70  1  0
 75 76  2  0
 76 77  1  0
 78 77  2  0
 79 78  1  0
 80 54  1  0
 80 81  1  0
 80 90  1  0
 81 84  1  0
 82 86  1  0
 82 81  1  0
 83 82  2  0
 86 85  1  0
 88 86  1  0
 88 89  1  0
 88 87  1  0
 90 93  1  1
 90 91  1  0
 92 90  1  0
M  ISO  4  14 100  22 100  52 101  53 101
M  END
>  <TORSDO>  (96) 
F 21

>  <SCORE>  (96) 
-12.625

>  <name>  (96) 
95

>  <ligand_id>  (96) 
95

>  <original_smiles>  (96) 
[H]c1c([H])c([H])c2c(c1[H])C([H])([H])C([H])([H])C([H])([H])C2([H])N([H])C(=O)C1([H])N(C(=O)C([H])(N([H])C(=O)C([H])(N([H])C([H])([H])[H])C([H])([H])[H])C(C([H])([H])[H])(C([H])([H])[H])C([H])([H])[H])C([H])([H])c2c([H])c(OC([H])([H])c3c([H])c([H])c(C([H])([H])[N+]([H])([H])C([H])([H])C([H])([H])N([H])C(=O)N4C([H])([H])C([H])([H])C([H])([H])C([H])(n5nc(-c6c([H])c([H])c(Oc7c([H])c([H])c(F)c([H])c7F)c([H])c6[H])c(C(=O)N([H])[H])c5N([H])[H])C4([H])[H])c([H])c3C([H])([H])[H])c([H])c([H])c2C1([H])[H]

>  <smiles>  (96) 
[H]c1c([H])c([H])c2c(c1[H])C([H])([H])C([H])([H])C([H])([H])C2([H])N([H])C(=O)C1([H])N(C(=O)C([H])(N([H])C(=O)C([H])(N([H])C([H])([H])[H])C([H])([H])[H])C(C([H])([H])[H])(C([H])([H])[H])C([H])([H])[H])C([H])([H])c2c([H])c(OC([H])([H])c3c([H])c([H])c(C([H])([H])[N+]([H])([H])C([H])([H])C([H])([H])N([H])C(=O)N4C([H])([H])C([H])([H])C([H])([H])C([H])(n5nc(-c6c([H])c([H])c(Oc7c([H])c([H])c(F)c([H])c7F)c([H])c6[H])c(C(=O)N([H])[H])c5N([H])[H])C4([H])[H])c([H])c3C([H])([H])[H])c([H])c([H])c2C1([H])[H]

$$$$
96:0:0
     RDKit          3D

 94102  0  0  1  0  0  0  0  0999 V2000
  -30.4770  -23.2100   20.7370 C   0  0  0  0  0  2  0  0  0  0  0  0
  -31.6390  -24.2210   20.8150 C   0  0  0  0  0  2  0  0  0  0  0  0
  -31.1510  -25.6040   21.0080 N   0  0  0  0  0  4  0  0  0  0  0  0
  -31.8430  -26.1140   21.5350 H   0  0  0  0  0  0  0  0  0  0  0  0
  -30.3160  -25.5720   21.5730 H   0  0  0  0  0  0  0  0  0  0  0  0
  -30.8670  -26.3590   19.7650 C   0  0  0  0  0  2  0  0  0  0  0  0
  -29.8070  -27.4400   20.0110 C   0  0  0  0  0  2  0  0  0  0  0  0
  -28.5600  -26.7580   20.0900 O   0  0  0  0  0  0  0  0  0  0  0  0
  -24.6500  -31.8250   23.2610 C   0  0  0  0  0  0  0  0  0  0  0  0
  -27.4120  -27.5110   20.1410 C   0  0  0  0  0  0  0  0  0  0  0  0
  -23.4760  -30.4190   21.5960 C   0  0  0  0  0  3  0  0  0  0  0  0
  -24.9690  -28.9260   20.1680 C   0  0  0  0  0  0  0  0  0  0  0  0
  -25.9870  -30.8450   21.4040 C   0  0  0  0  0  2  0  0  0  0  0  0
  -26.1090  -29.4850   20.7580 C   0  0  0  0  0  0  0  0  0  0  0  0
  -27.3350  -28.7870   20.7450 C   0  0  0  0  0  3  0  0  0  0  0  0
  -26.2500  -26.9490   19.5730 C   0  0  0  0  0  3  0  0  0  0  0  0
  -25.0310  -27.6540   19.5740 C   0  0  0  0  0  3  0  0  0  0  0  0
  -23.7050  -29.7530   20.2130 C   0  0  0  0  0  2  0  0  0  0  0  0
  -24.7230  -31.0430   22.1490 N   0  0  0  0  0  0  0  0  0  0  0  0
  -23.5630  -32.0700   23.8010 O   0  0  0  0  0  0  0  0  0  0  0  0
  -22.8420  -29.3750   22.5440 C   0  0  0  0  0  0  0  0  0  0  0  0
  -21.5230  -29.1710   22.4080 N   0  0  0  0  0  0  0  0  0  0  0  0
  -23.5350  -28.7540   23.3520 O   0  0  0  0  0  0  0  0  0  0  0  0
  -21.0260  -29.7260   21.7250 H   0  0  0  0  0  0  0  0  0  0  0  0
  -18.1630  -27.9400   22.8920 C   0  0  0  0  0  0  0  0  0  0  0  0
  -20.7190  -28.2120   23.1650 C   0  0  0  0  0  3  0  0  0  0  0  0
  -20.8330  -26.7930   22.5600 C   0  0  0  0  0  2  0  0  0  0  0  0
  -19.7320  -26.4810   21.5430 C   0  0  0  0  0  2  0  0  0  0  0  0
  -18.3500  -26.6040   22.1920 C   0  0  0  0  0  2  0  0  0  0  0  0
  -19.2770  -28.7020   23.3340 C   0  0  0  0  0  0  0  0  0  0  0  0
  -19.0490  -29.9530   23.9480 C   0  0  0  0  0  3  0  0  0  0  0  0
  -17.7420  -30.4420   24.1240 C   0  0  0  0  0  3  0  0  0  0  0  0
  -16.6430  -29.6760   23.6990 C   0  0  0  0  0  3  0  0  0  0  0  0
  -16.8540  -28.4270   23.0890 C   0  0  0  0  0  3  0  0  0  0  0  0
  -25.9230  -32.4710   23.8930 C   0  0  0  0  0  3  0  0  0  0  0  0
  -25.6070  -33.8740   24.1890 N   0  0  0  0  0  0  0  0  0  0  0  0
  -25.9640  -34.9120   23.4190 C   0  0  0  0  0  0  0  0  0  0  0  0
  -26.6680  -34.7890   22.4130 O   0  0  0  0  0  0  0  0  0  0  0  0
  -24.9880  -34.0430   24.9680 H   0  0  0  0  0  0  0  0  0  0  0  0
  -24.2630  -36.7040   22.9610 C   0  0  0  0  0  1  0  0  0  0  0  0
  -25.4630  -36.3070   23.8350 C   0  0  0  0  0  3  0  0  0  0  0  0
  -27.5610  -37.1980   24.7510 C   0  0  0  0  0  1  0  0  0  0  0  0
  -26.5040  -37.3540   23.7550 N   0  0  0  0  0  0  0  0  0  0  0  0
  -26.0960  -38.2770   23.8690 H   0  0  0  0  0  0  0  0  0  0  0  0
  -26.4230  -31.7240   25.1900 C   0  0  1  0  0  0  0  0  0  0  0  0
  -25.3140  -31.5080   26.2460 C   0  0  0  0  0  1  0  0  0  0  0  0
  -27.0130  -30.3410   24.8290 C   0  0  0  0  0  1  0  0  0  0  0  0
  -27.5630  -32.5320   25.8540 C   0  0  0  0  0  1  0  0  0  0  0  0
  -30.9280  -21.7580   20.5060 C   0  0  0  0  0  2  0  0  0  0  0  0
  -29.7900  -20.9240   20.6940 O   0  0  0  0  0  0  0  0  0  0  0  0
  -30.8320  -14.4570   20.1070 C   0  0  0  0  0  0  0  0  0  0  0  0
  -30.5080  -12.3190   18.9170 C   0  0  0  0  0  2  0  0  0  0  0  0
  -29.5330  -12.5490   17.7430 C   0  0  0  0  0  2  0  0  0  0  0  0
  -28.0700  -12.4020   18.2060 C   0  0  0  0  0  2  0  0  0  0  0  0
  -27.7670  -13.2240   19.4870 C   0  0  0  0  0  3  0  0  0  0  0  0
  -28.8450  -12.9650   20.5630 C   0  0  0  0  0  2  0  0  0  0  0  0
  -30.1660  -13.2760   19.9780 N   0  0  0  0  0  0  0  0  0  0  0  0
  -31.9000  -14.6870   19.5270 O   0  0  0  0  0  0  0  0  0  0  0  0
  -28.9060  -18.7820   21.2430 C   0  0  0  0  0  3  0  0  0  0  0  0
  -29.0280  -17.3820   21.2870 C   0  0  0  0  0  3  0  0  0  0  0  0
  -31.1180  -18.8600   20.3090 C   0  0  0  0  0  3  0  0  0  0  0  0
  -29.9640  -19.5560   20.7380 C   0  0  0  0  0  0  0  0  0  0  0  0
  -30.2020  -16.7660   20.8140 C   0  0  0  0  0  0  0  0  0  0  0  0
  -31.2320  -17.5110   20.3450 N   0  0  0  0  0  0  0  0  0  0  0  0
  -30.1960  -15.3520   20.8830 N   0  0  0  0  0  0  0  0  0  0  0  0
  -29.3990  -14.9600   21.3560 H   0  0  0  0  0  0  0  0  0  0  0  0
  -25.3780  -13.8340   20.2320 C   0  0  0  0  0  0  0  0  0  0  0  0
  -24.3210  -13.0630   20.6350 C   0  0  0  0  0  0  0  0  0  0  0  0
  -24.7860  -11.7130   20.6130 C   0  0  0  0  0  0  0  0  0  0  0  0
  -26.4220  -12.9530   19.9930 N   0  0  0  0  0  0  0  0  0  0  0  0
  -26.0690  -11.6740   20.2760 N   0  0  0  0  0  0  0  0  0  0  0  0
  -24.0710  -10.4500   20.8390 C   0  0  0  0  0  0  0  0  0  0  0  0
  -24.4850   -9.5350   21.8310 C   0  0  0  0  0  3  0  0  0  0  0  0
  -23.7710   -8.3350   22.0410 C   0  0  0  0  0  3  0  0  0  0  0  0
  -22.6300   -8.0420   21.2580 C   0  0  0  0  0  0  0  0  0  0  0  0
  -22.2350   -8.9470   20.2570 C   0  0  0  0  0  3  0  0  0  0  0  0
  -22.9490  -10.1380   20.0450 C   0  0  0  0  0  3  0  0  0  0  0  0
  -21.8900   -6.8900   21.3730 O   0  0  0  0  0  0  0  0  0  0  0  0
  -21.7560   -6.2390   22.5740 C   0  0  0  0  0  0  0  0  0  0  0  0
  -21.2090   -6.8750   23.7100 C   0  0  0  0  0  3  0  0  0  0  0  0
  -21.0240   -6.1470   24.9020 C   0  0  0  0  0  3  0  0  0  0  0  0
  -21.3760   -4.7850   24.9590 C   0  0  0  0  0  0  0  0  0  0  0  0
  -21.9160   -4.1490   23.8270 C   0  0  0  0  0  3  0  0  0  0  0  0
  -22.1020   -4.8740   22.6360 C   0  0  0  0  0  0  0  0  0  0  0  0
  -22.6030   -4.2520   21.5430 F   0  0  0  0  0  0  0  0  0  0  0  0
  -21.1910   -4.0830   26.1010 F   0  0  0  0  0  0  0  0  0  0  0  0
  -22.9270  -13.5380   20.9330 C   0  0  0  0  0  0  0  0  0  0  0  0
  -22.2270  -12.8600   21.8360 N   0  0  0  0  0  0  0  0  0  0  0  0
  -22.4680  -14.5470   20.3990 O   0  0  0  0  0  0  0  0  0  0  0  0
  -22.6100  -12.0460   22.2910 H   0  0  0  0  0  0  0  0  0  0  0  0
  -21.2940  -13.1630   22.0780 H   0  0  0  0  0  0  0  0  0  0  0  0
  -25.5350  -15.2030   20.0350 N   0  0  0  0  0  0  0  0  0  0  0  0
  -24.7730  -15.8600   20.1650 H   0  0  0  0  0  0  0  0  0  0  0  0
  -26.3790  -15.6400   19.6850 H   0  0  0  0  0  0  0  0  0  0  0  0
  1  2  1  0
  2  3  1  0
  3  4  1  0
  3  5  1  0
  6  7  1  0
  6  3  1  0
  7  8  1  0
  8 10  1  0
  9 20  2  0
 10 15  1  0
 11 19  1  0
 11 21  1  0
 12 18  1  0
 12 14  1  0
 13 19  1  0
 14 13  1  0
 15 14  2  0
 16 17  1  0
 16 10  2  0
 17 12  2  0
 18 11  1  0
 19  9  1  0
 21 23  2  0
 22 21  1  0
 24 22  1  0
 25 34  2  0
 25 30  1  0
 26 22  1  0
 26 30  1  0
 27 26  1  0
 28 29  1  0
 28 27  1  0
 29 25  1  0
 30 31  2  0
 31 32  1  0
 33 32  2  0
 34 33  1  0
 35  9  1  0
 35 36  1  0
 35 45  1  0
 36 39  1  0
 37 41  1  0
 37 36  1  0
 38 37  2  0
 41 40  1  0
 43 41  1  0
 43 44  1  0
 43 42  1  0
 45 48  1  1
 45 46  1  0
 47 45  1  0
 49 50  1  0
 49  1  1  0
 50 62  1  0
 51 65  1  0
 52 57  1  0
 53 54  1  0
 53 52  1  0
 55 54  1  0
 55 70  1  0
 55 56  1  0
 57 51  1  0
 57 56  1  0
 58 51  2  0
 59 60  1  0
 61 64  2  0
 61 62  1  0
 62 59  2  0
 63 65  1  0
 63 60  2  0
 64 63  1  0
 65 66  1  0
 67 68  2  0
 68 87  1  0
 69 68  1  0
 69 72  1  0
 70 67  1  0
 70 71  1  0
 71 69  2  0
 72 73  1  0
 73 74  2  0
 75 78  1  0
 75 74  1  0
 76 75  2  0
 77 76  1  0
 77 72  2  0
 78 79  1  0
 79 84  2  0
 79 80  1  0
 80 81  2  0
 81 82  1  0
 82 86  1  0
 83 82  2  0
 84 83  1  0
 85 84  1  0
 87 88  1  0
 88 91  1  0
 88 90  1  0
 89 87  2  0
 92 93  1  0
 92 67  1  0
 94 92  1  0
M  ISO  4   7 101   8 101  51 100  65 100
M  END
>  <TORSDO>  (97) 
F 22

>  <SCORE>  (97) 
-11.940

>  <name>  (97) 
96

>  <ligand_id>  (97) 
96

>  <original_smiles>  (97) 
[H]c1nc(N([H])C(=O)N2C([H])([H])C([H])([H])C([H])([H])C([H])(n3nc(-c4c([H])c([H])c(Oc5c([H])c([H])c(F)c([H])c5F)c([H])c4[H])c(C(=O)N([H])[H])c3N([H])[H])C2([H])[H])c([H])c([H])c1OC([H])([H])C([H])([H])C([H])([H])[N+]([H])([H])C([H])([H])C([H])([H])Oc1c([H])c([H])c2c(c1[H])C([H])([H])N(C(=O)C([H])(N([H])C(=O)C([H])(N([H])C([H])([H])[H])C([H])([H])[H])C(C([H])([H])[H])(C([H])([H])[H])C([H])([H])[H])C([H])(C(=O)N([H])C1([H])c3c([H])c([H])c([H])c([H])c3C([H])([H])C([H])([H])C1([H])[H])C2([H])[H]

>  <smiles>  (97) 
[H]c1nc(N([H])C(=O)N2C([H])([H])C([H])([H])C([H])([H])C([H])(n3nc(-c4c([H])c([H])c(Oc5c([H])c([H])c(F)c([H])c5F)c([H])c4[H])c(C(=O)N([H])[H])c3N([H])[H])C2([H])[H])c([H])c([H])c1OC([H])([H])C([H])([H])C([H])([H])[N+]([H])([H])C([H])([H])C([H])([H])Oc1c([H])c([H])c2c(c1[H])C([H])([H])N(C(=O)C([H])(N([H])C(=O)C([H])(N([H])C([H])([H])[H])C([H])([H])[H])C(C([H])([H])[H])(C([H])([H])[H])C([H])([H])[H])C([H])(C(=O)N([H])C1([H])c3c([H])c([H])c([H])c([H])c3C([H])([H])C([H])([H])C1([H])[H])C2([H])[H]

$$$$
97:0:0
     RDKit          3D

 99108  0  0  1  0  0  0  0  0999 V2000
  -28.9880  -21.5760   20.6650 C   0  0  0  0  0  3  0  0  0  0  0  0
  -27.5390  -24.6820   21.2870 C   0  0  0  0  0  2  0  0  0  0  0  0
  -28.0610  -23.5060   22.1390 C   0  0  0  0  0  2  0  0  0  0  0  0
  -30.0320  -25.2490   21.2260 C   0  0  0  0  0  2  0  0  0  0  0  0
  -28.5860  -25.8210   21.2280 C   0  0  0  0  0  3  0  0  0  0  0  0
  -29.3400  -22.8350   21.5390 C   0  0  0  0  0  3  0  0  0  0  0  0
  -30.1200  -23.8360   20.7560 N   0  0  0  0  0  4  0  0  0  0  0  0
  -31.0840  -23.5480   20.7070 H   0  0  0  0  0  0  0  0  0  0  0  0
  -29.7390  -23.7850   19.8210 H   0  0  0  0  0  0  0  0  0  0  0  0
  -28.3900  -26.7050   20.1110 O   0  0  0  0  0  0  0  0  0  0  0  0
  -24.5800  -31.8830   23.2250 C   0  0  0  0  0  0  0  0  0  0  0  0
  -27.2350  -27.4560   20.1440 C   0  0  0  0  0  0  0  0  0  0  0  0
  -23.3770  -30.4830   21.5770 C   0  0  0  0  0  3  0  0  0  0  0  0
  -24.8360  -28.9520   20.1500 C   0  0  0  0  0  0  0  0  0  0  0  0
  -25.9000  -30.8500   21.3820 C   0  0  0  0  0  2  0  0  0  0  0  0
  -25.9910  -29.4790   20.7430 C   0  0  0  0  0  0  0  0  0  0  0  0
  -27.1960  -28.7380   20.7400 C   0  0  0  0  0  3  0  0  0  0  0  0
  -26.0690  -26.9460   19.5370 C   0  0  0  0  0  3  0  0  0  0  0  0
  -24.8690  -27.6820   19.5470 C   0  0  0  0  0  3  0  0  0  0  0  0
  -23.5900  -29.8100   20.1960 C   0  0  0  0  0  2  0  0  0  0  0  0
  -24.6360  -31.0870   22.1210 N   0  0  0  0  0  0  0  0  0  0  0  0
  -23.5000  -32.1540   23.7670 O   0  0  0  0  0  0  0  0  0  0  0  0
  -22.7270  -29.4570   22.5350 C   0  0  0  0  0  0  0  0  0  0  0  0
  -21.4010  -29.2810   22.4170 N   0  0  0  0  0  0  0  0  0  0  0  0
  -23.4130  -28.8220   23.3400 O   0  0  0  0  0  0  0  0  0  0  0  0
  -20.9070  -29.8510   21.7440 H   0  0  0  0  0  0  0  0  0  0  0  0
  -18.0240  -28.1090   22.9340 C   0  0  0  0  0  0  0  0  0  0  0  0
  -20.5860  -28.3410   23.1860 C   0  0  0  0  0  3  0  0  0  0  0  0
  -20.6720  -26.9160   22.5930 C   0  0  0  0  0  2  0  0  0  0  0  0
  -19.5570  -26.6130   21.5870 C   0  0  0  0  0  2  0  0  0  0  0  0
  -18.1820  -26.7650   22.2440 C   0  0  0  0  0  2  0  0  0  0  0  0
  -19.1520  -28.8550   23.3620 C   0  0  0  0  0  0  0  0  0  0  0  0
  -18.9540  -30.1140   23.9700 C   0  0  0  0  0  3  0  0  0  0  0  0
  -17.6570  -30.6270   24.1530 C   0  0  0  0  0  3  0  0  0  0  0  0
  -16.5400  -29.8770   23.7440 C   0  0  0  0  0  3  0  0  0  0  0  0
  -16.7240  -28.6210   23.1390 C   0  0  0  0  0  3  0  0  0  0  0  0
  -25.8680  -32.5130   23.8470 C   0  0  0  0  0  3  0  0  0  0  0  0
  -25.5650  -33.9120   24.1760 N   0  0  0  0  0  0  0  0  0  0  0  0
  -25.8920  -34.9610   23.4110 C   0  0  0  0  0  0  0  0  0  0  0  0
  -26.5550  -34.8550   22.3750 O   0  0  0  0  0  0  0  0  0  0  0  0
  -24.9850  -34.0710   24.9870 H   0  0  0  0  0  0  0  0  0  0  0  0
  -24.1660  -36.7520   23.0490 C   0  0  0  0  0  1  0  0  0  0  0  0
  -25.4040  -36.3490   23.8660 C   0  0  0  0  0  3  0  0  0  0  0  0
  -27.5360  -37.2310   24.7020 C   0  0  0  0  0  1  0  0  0  0  0  0
  -26.4370  -37.4010   23.7550 N   0  0  0  0  0  0  0  0  0  0  0  0
  -26.0330  -38.3220   23.9020 H   0  0  0  0  0  0  0  0  0  0  0  0
  -26.3880  -31.7410   25.1190 C   0  0  1  0  0  0  0  0  0  0  0  0
  -25.2970  -31.5030   26.1890 C   0  0  0  0  0  1  0  0  0  0  0  0
  -26.9770  -30.3670   24.7210 C   0  0  0  0  0  1  0  0  0  0  0  0
  -27.5400  -32.5360   25.7810 C   0  0  0  0  0  1  0  0  0  0  0  0
  -31.1420  -20.3260   21.5210 C   0  0  0  0  0  1  0  0  0  0  0  0
  -29.9860  -20.3460   20.4930 C   0  0  0  0  0  3  0  0  0  0  0  0
  -27.7960  -17.5740   19.2160 C   0  0  0  0  0  2  0  0  0  0  0  0
  -29.2280  -17.1670   18.9350 C   0  0  0  0  0  2  0  0  0  0  0  0
  -27.9760  -18.9960   19.7290 C   0  0  0  0  0  2  0  0  0  0  0  0
  -30.0070  -17.7710   20.1210 C   0  0  0  0  0  3  0  0  0  0  0  0
  -29.2560  -19.0210   20.4970 N   0  0  1  0  0  4  0  0  0  0  0  0
  -28.9780  -18.8640   21.4550 H   0  0  0  0  0  0  0  0  0  0  0  0
  -30.1610  -16.8420   21.3760 C   0  0  0  0  0  2  0  0  0  0  0  0
  -30.6760  -14.4670   20.5490 C   0  0  0  0  0  0  0  0  0  0  0  0
  -30.3970  -12.3420   19.3220 C   0  0  0  0  0  2  0  0  0  0  0  0
  -29.4420  -12.5570   18.1290 C   0  0  0  0  0  2  0  0  0  0  0  0
  -27.9660  -12.4160   18.5570 C   0  0  0  0  0  2  0  0  0  0  0  0
  -27.6340  -13.2290   19.8360 C   0  0  0  0  0  3  0  0  0  0  0  0
  -28.6890  -12.9590   20.9340 C   0  0  0  0  0  2  0  0  0  0  0  0
  -30.0200  -13.2870   20.3800 N   0  0  0  0  0  0  0  0  0  0  0  0
  -31.7730  -14.7250   20.0490 O   0  0  0  0  0  0  0  0  0  0  0  0
  -29.9460  -15.3980   21.1840 N   0  0  0  0  0  0  0  0  0  0  0  0
  -29.0820  -15.0390   21.5640 H   0  0  0  0  0  0  0  0  0  0  0  0
  -25.2280  -13.8430   20.5210 C   0  0  0  0  0  0  0  0  0  0  0  0
  -24.1560  -13.0760   20.8890 C   0  0  0  0  0  0  0  0  0  0  0  0
  -24.6150  -11.7230   20.8640 C   0  0  0  0  0  0  0  0  0  0  0  0
  -26.2750  -12.9600   20.3020 N   0  0  0  0  0  0  0  0  0  0  0  0
  -25.9070  -11.6800   20.5640 N   0  0  0  0  0  0  0  0  0  0  0  0
  -23.8860  -10.4640   21.0550 C   0  0  0  0  0  0  0  0  0  0  0  0
  -24.3190   -9.4950   21.9860 C   0  0  0  0  0  3  0  0  0  0  0  0
  -23.5920   -8.2980   22.1640 C   0  0  0  0  0  3  0  0  0  0  0  0
  -22.4190   -8.0620   21.4070 C   0  0  0  0  0  0  0  0  0  0  0  0
  -22.0050   -9.0200   20.4660 C   0  0  0  0  0  3  0  0  0  0  0  0
  -22.7320  -10.2100   20.2860 C   0  0  0  0  0  3  0  0  0  0  0  0
  -21.6650   -6.9170   21.4940 O   0  0  0  0  0  0  0  0  0  0  0  0
  -21.6230   -6.1680   22.6420 C   0  0  0  0  0  0  0  0  0  0  0  0
  -21.1970   -6.7150   23.8730 C   0  0  0  0  0  3  0  0  0  0  0  0
  -21.1010   -5.8930   25.0130 C   0  0  0  0  0  3  0  0  0  0  0  0
  -21.4220   -4.5250   24.9250 C   0  0  0  0  0  0  0  0  0  0  0  0
  -21.8410   -3.9770   23.6980 C   0  0  0  0  0  3  0  0  0  0  0  0
  -21.9380   -4.7970   22.5600 C   0  0  0  0  0  0  0  0  0  0  0  0
  -22.3210   -4.2610   21.3750 F   0  0  0  0  0  0  0  0  0  0  0  0
  -21.3230   -3.7320   26.0170 F   0  0  0  0  0  0  0  0  0  0  0  0
  -22.7580  -13.5580   21.1530 C   0  0  0  0  0  0  0  0  0  0  0  0
  -22.0230  -12.8640   22.0130 N   0  0  0  0  0  0  0  0  0  0  0  0
  -22.3260  -14.5850   20.6310 O   0  0  0  0  0  0  0  0  0  0  0  0
  -22.3870  -12.0350   22.4600 H   0  0  0  0  0  0  0  0  0  0  0  0
  -21.0850  -13.1680   22.2300 H   0  0  0  0  0  0  0  0  0  0  0  0
  -25.3910  -15.2100   20.3330 N   0  0  0  0  0  0  0  0  0  0  0  0
  -24.6190  -15.8610   20.4100 H   0  0  0  0  0  0  0  0  0  0  0  0
  -26.2210  -15.6180   19.9250 H   0  0  0  0  0  0  0  0  0  0  0  0
  -28.6140  -22.0860   19.3850 O   0  0  0  0  0  0  0  0  0  0  0  0
  -29.1300  -21.6560   18.7090 H   0  0  0  0  0  0  0  0  0  0  0  0
  1 98  1  0
  2  3  1  0
  4  5  1  0
  5 10  1  0
  5  2  1  0
  6  1  1  0
  6  3  1  0
  7  4  1  0
  7  6  1  0
  8  7  1  0
  9  7  1  0
 10 12  1  0
 11 22  2  0
 12 17  1  0
 13 21  1  0
 13 23  1  0
 14 20  1  0
 14 16  1  0
 15 21  1  0
 16 15  1  0
 17 16  2  0
 18 19  1  0
 18 12  2  0
 19 14  2  0
 20 13  1  0
 21 11  1  0
 23 25  2  0
 24 23  1  0
 26 24  1  0
 27 36  2  0
 27 32  1  0
 28 24  1  0
 28 32  1  0
 29 28  1  0
 30 31  1  0
 30 29  1  0
 31 27  1  0
 32 33  2  0
 33 34  1  0
 35 34  2  0
 36 35  1  0
 37 11  1  0
 37 38  1  0
 37 47  1  0
 38 41  1  0
 39 43  1  0
 39 38  1  0
 40 39  2  0
 43 42  1  0
 45 43  1  0
 45 46  1  0
 45 44  1  0
 47 50  1  1
 47 48  1  0
 49 47  1  0
 52 57  1  0
 52  1  1  0
 52 51  1  0
 53 55  1  0
 54 53  1  0
 54 56  1  0
 55 57  1  0
 56 57  1  0
 56 59  1  0
 57 58  1  1
 60 68  1  0
 61 66  1  0
 62 63  1  0
 62 61  1  0
 64 63  1  0
 64 73  1  0
 64 65  1  0
 66 60  1  0
 66 65  1  0
 67 60  2  0
 68 59  1  0
 68 69  1  0
 70 71  2  0
 71 90  1  0
 72 71  1  0
 72 75  1  0
 73 70  1  0
 73 74  1  0
 74 72  2  0
 75 76  1  0
 76 77  2  0
 78 81  1  0
 78 77  1  0
 79 78  2  0
 80 79  1  0
 80 75  2  0
 81 82  1  0
 82 83  1  0
 83 84  2  0
 85 84  1  0
 85 89  1  0
 86 85  2  0
 87 82  2  0
 87 86  1  0
 88 87  1  0
 90 91  1  0
 91 94  1  0
 91 93  1  0
 92 90  2  0
 95 96  1  0
 95 70  1  0
 97 95  1  0
 99 98  1  0
M  ISO  4   5 101  10 101  60 100  68 100
M  END
>  <TORSDO>  (98) 
F 21

>  <SCORE>  (98) 
-14.260

>  <name>  (98) 
97

>  <ligand_id>  (98) 
97

>  <original_smiles>  (98) 
[H]OC([H])(C1([H])C([H])([H])C([H])([H])C([H])(Oc2c([H])c([H])c3c(c2[H])C([H])([H])N(C(=O)C([H])(N([H])C(=O)C([H])(N([H])C([H])([H])[H])C([H])([H])[H])C(C([H])([H])[H])(C([H])([H])[H])C([H])([H])[H])C([H])(C(=O)N([H])C2([H])c4c([H])c([H])c([H])c([H])c4C([H])([H])C([H])([H])C2([H])[H])C3([H])[H])C([H])([H])[N+]1([H])[H])C([H])(C([H])([H])[H])[N+]1([H])C([H])([H])C([H])([H])C([H])([H])C1([H])C([H])([H])N([H])C(=O)N1C([H])([H])C([H])([H])C([H])([H])C([H])(n2nc(-c3c([H])c([H])c(Oc4c([H])c([H])c(F)c([H])c4F)c([H])c3[H])c(C(=O)N([H])[H])c2N([H])[H])C1([H])[H]

>  <smiles>  (98) 
[H]OC([H])(C1([H])C([H])([H])C([H])([H])C([H])(Oc2c([H])c([H])c3c(c2[H])C([H])([H])N(C(=O)C([H])(N([H])C(=O)C([H])(N([H])C([H])([H])[H])C([H])([H])[H])C(C([H])([H])[H])(C([H])([H])[H])C([H])([H])[H])C([H])(C(=O)N([H])C2([H])c4c([H])c([H])c([H])c([H])c4C([H])([H])C([H])([H])C2([H])[H])C3([H])[H])C([H])([H])[N+]1([H])[H])C([H])(C([H])([H])[H])[N+]1([H])C([H])([H])C([H])([H])C([H])([H])C1([H])C([H])([H])N([H])C(=O)N1C([H])([H])C([H])([H])C([H])([H])C([H])(n2nc(-c3c([H])c([H])c(Oc4c([H])c([H])c(F)c([H])c4F)c([H])c3[H])c(C(=O)N([H])[H])c2N([H])[H])C1([H])[H]

$$$$
98:0:0
     RDKit          3D

 96104  0  0  1  0  0  0  0  0999 V2000
  -32.4320  -22.0190   20.8210 C   0  0  0  0  0  2  0  0  0  0  0  0
  -30.0960  -21.0120   21.0250 C   0  0  0  0  0  2  0  0  0  0  0  0
  -31.9040  -23.3230   21.4360 C   0  0  0  0  0  2  0  0  0  0  0  0
  -29.6250  -22.3040   21.7100 C   0  0  0  0  0  2  0  0  0  0  0  0
  -31.6210  -20.7620   21.2100 C   0  0  0  0  0  3  0  0  0  0  0  0
  -30.4000  -23.5030   21.1410 C   0  0  0  0  0  3  0  0  0  0  0  0
  -29.8720  -24.7830   21.6550 N   0  0  0  0  0  4  0  0  0  0  0  0
  -29.9750  -24.8350   22.6570 H   0  0  0  0  0  0  0  0  0  0  0  0
  -28.8820  -24.8000   21.4550 H   0  0  0  0  0  0  0  0  0  0  0  0
  -30.4560  -25.9840   21.0150 C   0  0  0  0  0  2  0  0  0  0  0  0
  -29.4300  -27.1110   20.9340 C   0  0  0  0  0  2  0  0  0  0  0  0
  -28.3260  -26.6690   20.1370 O   0  0  0  0  0  0  0  0  0  0  0  0
  -24.5470  -31.8590   23.2170 C   0  0  0  0  0  0  0  0  0  0  0  0
  -27.1810  -27.4370   20.1580 C   0  0  0  0  0  0  0  0  0  0  0  0
  -23.3170  -30.4530   21.5850 C   0  0  0  0  0  3  0  0  0  0  0  0
  -24.7600  -28.9000   20.1640 C   0  0  0  0  0  0  0  0  0  0  0  0
  -25.8310  -30.8230   21.3560 C   0  0  0  0  0  2  0  0  0  0  0  0
  -25.9120  -29.4470   20.7360 C   0  0  0  0  0  0  0  0  0  0  0  0
  -27.1200  -28.7280   20.7340 C   0  0  0  0  0  3  0  0  0  0  0  0
  -26.0110  -26.8970   19.5790 C   0  0  0  0  0  3  0  0  0  0  0  0
  -24.8000  -27.6190   19.5840 C   0  0  0  0  0  3  0  0  0  0  0  0
  -23.5120  -29.7540   20.2110 C   0  0  0  0  0  2  0  0  0  0  0  0
  -24.5830  -31.0590   22.1130 N   0  0  0  0  0  0  0  0  0  0  0  0
  -23.4720  -32.1360   23.7690 O   0  0  0  0  0  0  0  0  0  0  0  0
  -22.6700  -29.4420   22.5590 C   0  0  0  0  0  0  0  0  0  0  0  0
  -21.3450  -29.2680   22.4430 N   0  0  0  0  0  0  0  0  0  0  0  0
  -23.3580  -28.8160   23.3700 O   0  0  0  0  0  0  0  0  0  0  0  0
  -20.8520  -29.8260   21.7600 H   0  0  0  0  0  0  0  0  0  0  0  0
  -17.9680  -28.1060   22.9680 C   0  0  0  0  0  0  0  0  0  0  0  0
  -20.5300  -28.3400   23.2240 C   0  0  0  0  0  3  0  0  0  0  0  0
  -20.6160  -26.9070   22.6490 C   0  0  0  0  0  2  0  0  0  0  0  0
  -19.5040  -26.5930   21.6430 C   0  0  0  0  0  2  0  0  0  0  0  0
  -18.1280  -26.7520   22.2960 C   0  0  0  0  0  2  0  0  0  0  0  0
  -19.0960  -28.8580   23.3900 C   0  0  0  0  0  0  0  0  0  0  0  0
  -18.8950  -30.1270   23.9760 C   0  0  0  0  0  3  0  0  0  0  0  0
  -17.5960  -30.6420   24.1480 C   0  0  0  0  0  3  0  0  0  0  0  0
  -16.4820  -29.8850   23.7430 C   0  0  0  0  0  3  0  0  0  0  0  0
  -16.6690  -28.6200   23.1600 C   0  0  0  0  0  3  0  0  0  0  0  0
  -25.8420  -32.4810   23.8250 C   0  0  0  0  0  3  0  0  0  0  0  0
  -25.5480  -33.8800   24.1590 N   0  0  0  0  0  0  0  0  0  0  0  0
  -25.8910  -34.9300   23.4020 C   0  0  0  0  0  0  0  0  0  0  0  0
  -26.5610  -34.8230   22.3700 O   0  0  0  0  0  0  0  0  0  0  0  0
  -24.9540  -34.0370   24.9610 H   0  0  0  0  0  0  0  0  0  0  0  0
  -24.1830  -36.7390   23.0380 C   0  0  0  0  0  1  0  0  0  0  0  0
  -25.4130  -36.3210   23.8600 C   0  0  0  0  0  3  0  0  0  0  0  0
  -27.5540  -37.1770   24.7070 C   0  0  0  0  0  1  0  0  0  0  0  0
  -26.4560  -37.3650   23.7610 N   0  0  0  0  0  0  0  0  0  0  0  0
  -26.0570  -38.2860   23.9200 H   0  0  0  0  0  0  0  0  0  0  0  0
  -26.3760  -31.7020   25.0890 C   0  0  1  0  0  0  0  0  0  0  0  0
  -25.2980  -31.4590   26.1700 C   0  0  0  0  0  1  0  0  0  0  0  0
  -26.9500  -30.3260   24.6760 C   0  0  0  0  0  1  0  0  0  0  0  0
  -27.5370  -32.4880   25.7420 C   0  0  0  0  0  1  0  0  0  0  0  0
  -32.1670  -19.6180   20.4310 N   0  0  0  0  0  4  0  0  0  0  0  0
  -32.9170  -19.1900   20.9510 H   0  0  0  0  0  0  0  0  0  0  0  0
  -32.5840  -20.0050   19.6010 H   0  0  0  0  0  0  0  0  0  0  0  0
  -31.2450  -18.5610   19.9660 C   0  0  0  0  0  2  0  0  0  0  0  0
  -30.9580  -17.5020   21.0360 C   0  0  0  0  0  2  0  0  0  0  0  0
  -29.7620  -16.6410   20.6100 C   0  0  0  0  0  2  0  0  0  0  0  0
  -30.5900  -14.3450   20.3820 C   0  0  0  0  0  0  0  0  0  0  0  0
  -30.2740  -12.2760   19.1000 C   0  0  0  0  0  2  0  0  0  0  0  0
  -29.3070  -12.5940   17.9410 C   0  0  0  0  0  2  0  0  0  0  0  0
  -27.8370  -12.4770   18.3890 C   0  0  0  0  0  2  0  0  0  0  0  0
  -27.5570  -13.2200   19.7240 C   0  0  0  0  0  3  0  0  0  0  0  0
  -28.6190  -12.8450   20.7810 C   0  0  0  0  0  2  0  0  0  0  0  0
  -29.9440  -13.1650   20.2200 N   0  0  0  0  0  0  0  0  0  0  0  0
  -31.6540  -14.6320   19.8230 O   0  0  0  0  0  0  0  0  0  0  0  0
  -29.8560  -15.2560   21.0370 N   0  0  0  0  0  0  0  0  0  0  0  0
  -29.0350  -14.8820   21.4900 H   0  0  0  0  0  0  0  0  0  0  0  0
  -25.1650  -13.8450   20.4530 C   0  0  0  0  0  0  0  0  0  0  0  0
  -24.1040  -13.0730   20.8410 C   0  0  0  0  0  0  0  0  0  0  0  0
  -24.5630  -11.7210   20.8020 C   0  0  0  0  0  0  0  0  0  0  0  0
  -26.2060  -12.9600   20.2120 N   0  0  0  0  0  0  0  0  0  0  0  0
  -25.8460  -11.6790   20.4750 N   0  0  0  0  0  0  0  0  0  0  0  0
  -23.8410  -10.4600   21.0100 C   0  0  0  0  0  0  0  0  0  0  0  0
  -24.2970   -9.4930   21.9350 C   0  0  0  0  0  3  0  0  0  0  0  0
  -23.5780   -8.2930   22.1260 C   0  0  0  0  0  3  0  0  0  0  0  0
  -22.3900   -8.0540   21.3920 C   0  0  0  0  0  0  0  0  0  0  0  0
  -21.9570   -9.0090   20.4570 C   0  0  0  0  0  3  0  0  0  0  0  0
  -22.6760  -10.2010   20.2640 C   0  0  0  0  0  3  0  0  0  0  0  0
  -21.6390   -6.9080   21.4930 O   0  0  0  0  0  0  0  0  0  0  0  0
  -21.6210   -6.1600   22.6420 C   0  0  0  0  0  0  0  0  0  0  0  0
  -21.2310   -6.7090   23.8830 C   0  0  0  0  0  3  0  0  0  0  0  0
  -21.1580   -5.8870   25.0260 C   0  0  0  0  0  3  0  0  0  0  0  0
  -21.4670   -4.5170   24.9270 C   0  0  0  0  0  0  0  0  0  0  0  0
  -21.8520   -3.9680   23.6910 C   0  0  0  0  0  3  0  0  0  0  0  0
  -21.9270   -4.7870   22.5510 C   0  0  0  0  0  0  0  0  0  0  0  0
  -22.2770   -4.2490   21.3580 F   0  0  0  0  0  0  0  0  0  0  0  0
  -21.3930   -3.7250   26.0230 F   0  0  0  0  0  0  0  0  0  0  0  0
  -22.7110  -13.5510   21.1420 C   0  0  0  0  0  0  0  0  0  0  0  0
  -21.9980  -12.8520   22.0190 N   0  0  0  0  0  0  0  0  0  0  0  0
  -22.2630  -14.5770   20.6340 O   0  0  0  0  0  0  0  0  0  0  0  0
  -22.3730  -12.0210   22.4520 H   0  0  0  0  0  0  0  0  0  0  0  0
  -21.0650  -13.1550   22.2660 H   0  0  0  0  0  0  0  0  0  0  0  0
  -25.3280  -15.2160   20.2760 N   0  0  0  0  0  0  0  0  0  0  0  0
  -24.5600  -15.8670   20.4070 H   0  0  0  0  0  0  0  0  0  0  0  0
  -26.1800  -15.6680   19.9660 H   0  0  0  0  0  0  0  0  0  0  0  0
  1  5  1  0
  1  3  1  0
  2  5  1  0
  2  4  1  0
  5 53  1  0
  6  3  1  0
  6  7  1  0
  6  4  1  0
  7  8  1  0
  9  7  1  0
 10  7  1  0
 11 10  1  0
 12 14  1  0
 12 11  1  0
 13 24  2  0
 14 19  1  0
 15 23  1  0
 15 25  1  0
 16 22  1  0
 16 18  1  0
 17 23  1  0
 18 17  1  0
 19 18  2  0
 20 21  1  0
 20 14  2  0
 21 16  2  0
 22 15  1  0
 23 13  1  0
 25 27  2  0
 26 25  1  0
 28 26  1  0
 29 38  2  0
 29 34  1  0
 30 26  1  0
 30 34  1  0
 31 30  1  0
 32 33  1  0
 32 31  1  0
 33 29  1  0
 34 35  2  0
 35 36  1  0
 37 36  2  0
 38 37  1  0
 39 13  1  0
 39 40  1  0
 39 49  1  0
 40 43  1  0
 41 45  1  0
 41 40  1  0
 42 41  2  0
 45 44  1  0
 47 45  1  0
 47 48  1  0
 47 46  1  0
 49 52  1  1
 49 50  1  0
 51 49  1  0
 53 54  1  0
 55 53  1  0
 56 53  1  0
 56 57  1  0
 58 57  1  0
 58 67  1  0
 59 67  1  0
 60 65  1  0
 61 62  1  0
 61 60  1  0
 63 62  1  0
 63 72  1  0
 63 64  1  0
 65 59  1  0
 65 64  1  0
 66 59  2  0
 67 68  1  0
 69 70  2  0
 70 89  1  0
 71 70  1  0
 71 74  1  0
 72 69  1  0
 72 73  1  0
 73 71  2  0
 74 75  1  0
 75 76  2  0
 77 80  1  0
 77 76  1  0
 78 77  2  0
 79 78  1  0
 79 74  2  0
 80 81  1  0
 81 82  1  0
 82 83  2  0
 84 83  1  0
 84 88  1  0
 85 84  2  0
 86 81  2  0
 86 85  1  0
 87 86  1  0
 89 90  1  0
 90 93  1  0
 90 92  1  0
 91 89  2  0
 94 95  1  0
 94 69  1  0
 96 94  1  0
M  ISO  4  11 101  12 101  59 100  67 100
M  END
>  <TORSDO>  (99) 
F 23

>  <SCORE>  (99) 
-12.229

>  <name>  (99) 
98

>  <ligand_id>  (99) 
98

>  <original_smiles>  (99) 
[H]c1c([H])c([H])c2c(c1[H])C([H])([H])C([H])([H])C([H])([H])C2([H])N([H])C(=O)C1([H])N(C(=O)C([H])(N([H])C(=O)C([H])(N([H])C([H])([H])[H])C([H])([H])[H])C(C([H])([H])[H])(C([H])([H])[H])C([H])([H])[H])C([H])([H])c2c([H])c(OC([H])([H])C([H])([H])[N+]([H])([H])C3([H])C([H])([H])C([H])([H])C([H])([N+]([H])([H])C([H])([H])C([H])([H])C([H])([H])N([H])C(=O)N4C([H])([H])C([H])([H])C([H])([H])C([H])(n5nc(-c6c([H])c([H])c(Oc7c([H])c([H])c(F)c([H])c7F)c([H])c6[H])c(C(=O)N([H])[H])c5N([H])[H])C4([H])[H])C([H])([H])C3([H])[H])c([H])c([H])c2C1([H])[H]

>  <smiles>  (99) 
[H]c1c([H])c([H])c2c(c1[H])C([H])([H])C([H])([H])C([H])([H])C2([H])N([H])C(=O)C1([H])N(C(=O)C([H])(N([H])C(=O)C([H])(N([H])C([H])([H])[H])C([H])([H])[H])C(C([H])([H])[H])(C([H])([H])[H])C([H])([H])[H])C([H])([H])c2c([H])c(OC([H])([H])C([H])([H])[N+]([H])([H])C3([H])C([H])([H])C([H])([H])C([H])([N+]([H])([H])C([H])([H])C([H])([H])C([H])([H])N([H])C(=O)N4C([H])([H])C([H])([H])C([H])([H])C([H])(n5nc(-c6c([H])c([H])c(Oc7c([H])c([H])c(F)c([H])c7F)c([H])c6[H])c(C(=O)N([H])[H])c5N([H])[H])C4([H])[H])C([H])([H])C3([H])[H])c([H])c([H])c2C1([H])[H]

$$$$
